data_functionalizedCrystal
_audit_creation_method	'MofGen! by Chris Wilmer'
_symmetry_space_group_name_H-M	'P1'
_symmetry_Int_Tables_number	1
_symmetry_cell_setting	triclinic
loop_
_symmetry_equiv_pos_as_xyz
  x,y,z
_cell_length_a	15.944499
_cell_length_b	15.944551
_cell_length_c	9.130313
_cell_angle_alpha	89.997799
_cell_angle_beta	89.997175
_cell_angle_gamma	83.488174
loop_
_atom_site_label
_atom_site_type_symbol
_atom_site_fract_x
_atom_site_fract_y
_atom_site_fract_z
O1	O	1.114546	0.108121	-0.121890
O2	O	0.869991	0.121523	-0.121874
O3	O	0.998947	-0.007454	-0.121870
O4	O	0.985590	0.237098	-0.121895
O5	O	0.998945	-0.007450	0.121729
O6	O	0.869989	0.121527	0.121724
O7	O	1.114545	0.108125	0.121709
Cu8	Cu	0.992267	0.114826	0.143959
Cu9	Cu	0.992269	0.114822	-0.144125
O10	O	0.985589	0.237102	0.121704
C11	C	0.838695	0.120976	-0.000073
C12	C	0.745447	0.119331	-0.000066
C13	C	0.998392	-0.038746	-0.000070
C14	C	0.996729	-0.131992	-0.000069
C15	C	0.453911	0.194263	-0.000096
C16	C	0.514941	0.155310	-0.120201
C17	C	0.409810	0.113355	-0.000100
C18	C	0.514925	0.155292	0.119968
C19	C	0.574719	0.116296	-0.000081
C20	C	0.469612	0.074379	-0.120304
C21	C	0.469590	0.074372	0.119973
C22	C	0.530603	0.035360	-0.000162
C23	C	0.314810	0.111663	-0.000112
C24	C	0.669718	0.117981	-0.000079
C25	C	0.912823	-0.346833	-0.000084
C26	C	0.951785	-0.407856	0.120023
C27	C	0.993722	-0.302717	-0.000080
C28	C	0.951806	-0.407842	-0.120147
C29	C	0.990811	-0.467629	-0.000097
C30	C	1.032707	-0.362512	0.120126
C31	C	1.032716	-0.362492	-0.120152
C32	C	1.071737	-0.423497	-0.000016
C33	C	0.995397	-0.207715	-0.000069
C34	C	0.989143	-0.562630	-0.000098
C35	C	1.145840	0.108672	-0.000096
C36	C	1.239089	0.110317	-0.000112
C37	C	0.986144	0.268394	-0.000099
C38	C	0.987806	0.361640	-0.000110
N39	N	0.992272	0.114828	0.346582
N40	N	0.992271	0.114813	-0.346747
C41	C	1.049388	0.057737	0.423236
C42	C	1.049386	0.057727	0.576573
C43	C	0.935148	0.171907	0.576588
C44	C	0.935147	0.171913	0.423254
C45	C	1.106512	0.000652	0.346564
C46	C	1.163634	-0.056443	0.423218
C47	C	1.163632	-0.056453	0.576555
C48	C	1.106508	0.000632	0.653237
H49	H	0.535040	0.189532	-0.221742
H50	H	0.420581	0.261409	-0.000219
H51	H	1.210137	-0.102948	0.638965
H52	H	0.449634	0.040188	-0.221958
H53	H	1.138946	-0.456668	0.000048
C54	C	0.789740	0.221156	0.623834
C55	C	0.872365	0.234654	0.660879
H56	H	0.750982	0.259892	0.675879
H57	H	0.781567	0.229335	0.521557
H58	H	0.780632	0.165087	0.648967
H59	H	0.881475	0.290722	0.635736
H60	H	0.880541	0.226481	0.763178
C61	C	0.836014	-0.475461	0.214520
C62	C	0.905597	-0.435000	0.257101
H63	H	0.807500	-0.492220	0.299144
H64	H	0.798589	-0.437780	0.157988
H65	H	0.854768	-0.523835	0.157568
H66	H	0.886842	-0.386623	0.314045
H67	H	0.943028	-0.472683	0.313657
C68	C	0.402802	-0.041921	0.214519
C69	C	0.442052	0.028449	0.257044
H70	H	0.385694	-0.070198	0.299148
H71	H	0.354766	-0.024025	0.156187
H72	H	0.441335	-0.079271	0.159400
H73	H	0.403517	0.065803	0.312154
H74	H	0.490095	0.010554	0.315400
H75	H	1.210138	-0.102925	0.360775
C76	C	1.089556	-0.078536	0.872877
C77	C	1.106500	0.000617	0.821789
H78	H	1.089557	-0.078544	0.976932
H79	H	1.035878	-0.090045	0.838188
H80	H	1.131752	-0.120699	0.838176
H81	H	1.064299	0.042780	0.856481
H82	H	1.160185	0.012136	0.856493
H83	H	0.888637	0.218401	0.360841
H84	H	0.535000	0.189528	0.221504
H85	H	0.563780	-0.031846	-0.000219
C86	C	0.779405	-0.325702	-0.124422
C87	C	0.822174	-0.301851	0.000076
H88	H	0.723442	-0.297936	-0.124311
H89	H	0.808015	-0.310280	-0.209838
H90	H	0.777741	-0.385066	-0.123534
H91	H	0.823843	-0.242487	-0.000817
H92	H	0.793557	-0.317268	0.085514
H93	H	1.066894	-0.342526	0.221777
H94	H	0.917579	-0.427914	-0.221694
C95	C	1.024108	-0.278573	-0.339117
C96	C	1.078869	-0.335315	-0.257234
H97	H	1.052600	-0.261790	-0.423749
H98	H	0.976311	-0.305103	-0.367942
H99	H	1.006288	-0.230336	-0.281194
H100	H	1.096685	-0.383554	-0.315154
H101	H	1.126682	-0.308785	-0.228411
C102	C	1.185656	0.017649	0.126918
C103	C	1.106519	0.000658	0.178015
H104	H	1.185661	0.017648	0.022864
H105	H	1.197135	0.071337	0.161607
H106	H	1.227842	-0.024527	0.161613
H107	H	1.064334	0.042837	0.143329
H108	H	1.095030	-0.053037	0.143311
