data_functionalizedCrystal
_audit_creation_method	'MofGen! by Chris Wilmer'
_symmetry_space_group_name_H-M	'P1'
_symmetry_Int_Tables_number	1
_symmetry_cell_setting	triclinic
loop_
_symmetry_equiv_pos_as_xyz
  x,y,z
_cell_length_a	19.288840
_cell_length_b	17.766277
_cell_length_c	19.288865
_cell_angle_alpha	90.011603
_cell_angle_beta	96.868869
_cell_angle_gamma	89.983415
loop_
_atom_site_label
_atom_site_type_symbol
_atom_site_fract_x
_atom_site_fract_y
_atom_site_fract_z
O1	O	0.921364	-0.062729	-0.086566
O2	O	0.719101	-0.062704	-0.098273
O3	O	0.826077	-0.062702	0.008711
O4	O	0.814388	-0.062730	-0.193550
O5	O	0.826058	0.062487	0.008717
O6	O	0.719082	0.062485	-0.098267
O7	O	0.921345	0.062460	-0.086560
Cu8	Cu	0.820212	0.073903	-0.092413
Cu9	Cu	0.820234	-0.074147	-0.092420
O10	O	0.814369	0.062458	-0.193545
C11	C	0.693215	-0.000106	-0.097896
C12	C	0.616110	-0.000096	-0.096774
C13	C	0.579917	-0.068338	-0.096238
C14	C	0.507470	-0.068347	-0.095176
C15	C	0.471221	-0.000110	-0.094636
C16	C	0.507423	0.068141	-0.095176
C17	C	0.579867	0.068148	-0.096245
C18	C	0.361886	0.052164	-0.052256
C19	C	0.289443	0.052155	-0.051183
C20	C	0.247778	-0.000129	-0.091342
C21	C	0.278565	-0.052416	-0.132566
C22	C	0.351010	-0.052408	-0.133635
C23	C	0.392667	-0.000110	-0.093477
C24	C	0.133029	-0.068386	-0.089655
C25	C	0.060580	-0.068392	-0.088598
C26	C	0.060535	0.068098	-0.088591
C27	C	0.132982	0.068102	-0.089656
C28	C	0.169225	-0.000142	-0.090185
C29	C	0.825692	-0.000105	0.034591
C30	C	0.824563	-0.000099	0.111694
C31	C	0.947232	-0.000139	-0.086937
C32	C	1.024336	-0.000154	-0.088059
N33	N	0.820202	0.178034	-0.092409
N34	N	0.820250	-0.178277	-0.092419
C35	C	0.867586	0.217421	-0.045059
C36	C	0.867590	0.296223	-0.045056
C37	C	0.820216	0.335634	-0.092414
C38	C	0.772823	0.296237	-0.139767
C39	C	0.772816	0.217437	-0.139764
C40	C	0.810917	0.460464	-0.155703
C41	C	0.810930	0.539263	-0.155706
C42	C	0.820235	0.578680	-0.092422
C43	C	0.829543	0.539290	-0.029132
C44	C	0.829535	0.460489	-0.029129
C45	C	0.820219	0.421080	-0.092422
C46	C	0.867626	0.703514	-0.045065
C47	C	0.867625	0.782317	-0.045061
C48	C	0.772862	0.782330	-0.139779
C49	C	0.772859	0.703528	-0.139777
C50	C	0.820245	0.664125	-0.092421
C51	C	0.814755	-0.000140	-0.219424
C52	C	0.815884	-0.000152	-0.296527
C53	C	0.887331	-0.000103	0.156396
C54	C	0.886270	-0.000114	0.228843
C55	C	0.822438	-0.000107	0.256585
C56	C	0.759661	-0.000107	0.211873
C57	C	0.760723	-0.000103	0.139428
C58	C	0.772251	0.043750	0.364870
C59	C	0.771191	0.043750	0.437314
C60	C	0.819158	-0.000123	0.480030
C61	C	0.868196	-0.043988	0.450295
C62	C	0.869259	-0.043984	0.377849
C63	C	0.821278	-0.000112	0.335139
C64	C	0.880781	-0.000141	0.603288
C65	C	0.879717	-0.000158	0.675736
C66	C	0.753106	-0.000143	0.658764
C67	C	0.754171	-0.000134	0.586318
C68	C	0.818010	-0.000130	0.558584
H69	H	0.477996	-0.123920	-0.094741
F70	F	0.946528	-0.000167	0.723312
H71	H	0.609422	-0.123907	-0.096669
H72	H	0.733189	0.079481	0.330095
H73	H	0.031112	-0.123965	-0.088165
H74	H	0.609335	0.123721	-0.096683
H75	H	0.937386	-0.000121	0.265246
F76	F	0.801028	0.581178	-0.223064
H77	H	0.031021	0.123658	-0.088156
H78	H	0.376073	-0.094980	-0.167202
H79	H	0.244642	-0.094987	-0.165270
H80	H	0.939314	-0.000102	0.133820
H81	H	0.162451	0.123672	-0.090088
F82	F	0.406223	0.107817	-0.009511
F83	F	0.256682	0.107813	-0.007322
F84	F	0.722439	0.824270	-0.190177
H85	H	0.909186	-0.079701	0.353641
H86	H	0.906209	0.814387	-0.006500
F87	F	0.171603	-0.141016	-0.090224
H88	H	0.906168	0.185341	-0.006498
F89	F	0.722430	0.661605	-0.190176
F90	F	0.468843	0.140764	-0.094605
F91	F	0.948723	-0.000133	0.573769
H92	H	0.701132	-0.000141	0.681351
H93	H	0.709608	-0.000099	0.103030
H94	H	0.906177	0.328298	-0.006497
H95	H	0.837112	0.428420	0.022404
F96	F	0.719003	0.090437	0.468954
F97	F	0.839451	0.581234	0.038225
F98	F	0.918055	0.661578	0.005338
H99	H	0.803328	0.428377	-0.207239
H100	H	0.734250	0.328329	-0.178326
F101	F	0.722381	0.175516	-0.190162
H102	H	0.907256	-0.079715	0.485073
F103	F	0.691725	-0.000104	0.241399
H104	H	0.703058	-0.000127	0.549920
