data_functionalizedCrystal
_audit_creation_method	'MofGen! by Chris Wilmer'
_symmetry_space_group_name_H-M	'P1'
_symmetry_Int_Tables_number	1
_symmetry_cell_setting	triclinic
loop_
_symmetry_equiv_pos_as_xyz
  x,y,z
_cell_length_a	19.121063
_cell_length_b	21.395362
_cell_length_c	21.395355
_cell_angle_alpha	90.048039
_cell_angle_beta	92.420740
_cell_angle_gamma	87.511762
loop_
_atom_site_label
_atom_site_type_symbol
_atom_site_fract_x
_atom_site_fract_y
_atom_site_fract_z
Zn1	Zn	-0.279359	-0.947243	-0.365271
Zn2	Zn	0.053974	-0.613909	-0.031938
Zn3	Zn	0.387308	-0.280576	0.301396
Zn4	Zn	-0.396795	-0.942682	-0.264956
Zn5	Zn	-0.063461	-0.609349	0.068377
Zn6	Zn	0.269872	-0.276015	0.401710
Zn7	Zn	-0.279397	-0.842456	-0.260466
Zn8	Zn	0.053937	-0.509123	0.072867
Zn9	Zn	0.387270	-0.175789	0.406201
Zn10	Zn	-0.396814	-0.837963	-0.369654
Zn11	Zn	-0.063481	-0.504629	-0.036321
Zn12	Zn	0.269853	-0.171296	0.297012
O13	O	-0.338091	-0.892586	-0.315087
O14	O	-0.004758	-0.559252	0.018246
O15	O	0.328576	-0.225919	0.351580
O16	O	-0.294913	-1.034316	-0.352009
O17	O	0.038420	-0.700983	-0.018675
O18	O	0.371753	-0.367650	0.314658
O19	O	-0.381229	-0.929358	-0.176683
O20	O	-0.047896	-0.596025	0.156650
O21	O	0.285437	-0.262692	0.489984
O22	O	-0.181105	-0.860145	-0.270655
O23	O	0.152228	-0.526812	0.062678
O24	O	0.485562	-0.193479	0.396012
O25	O	-0.381193	-1.030966	-0.278308
O26	O	-0.047859	-0.697632	0.055025
O27	O	0.285474	-0.364299	0.388359
O28	O	-0.181077	-0.937131	-0.347655
O29	O	0.152256	-0.603798	-0.014321
O30	O	0.485589	-0.270465	0.319012
O31	O	-0.294977	-0.855723	-0.173384
O32	O	0.038356	-0.522390	0.159949
O33	O	0.371689	-0.189056	0.493283
O34	O	-0.294996	-0.754181	-0.274905
O35	O	0.038337	-0.420848	0.058428
O36	O	0.371670	-0.087514	0.391761
O37	O	-0.381226	-0.852487	-0.456751
O38	O	-0.047892	-0.519154	-0.123417
O39	O	0.285441	-0.185820	0.209916
O40	O	-0.381262	-0.750880	-0.355126
O41	O	-0.047929	-0.417547	-0.021792
O42	O	0.285404	-0.084213	0.311541
O43	O	-0.294932	-0.932775	-0.453530
O44	O	0.038401	-0.599441	-0.120197
O45	O	0.371735	-0.266108	0.213137
O46	O	-0.495084	-0.925002	-0.282559
O47	O	-0.161751	-0.591668	0.050775
O48	O	0.171583	-0.258335	0.384108
O49	O	-0.495098	-0.848065	-0.359480
O50	O	-0.161765	-0.514732	-0.026146
O51	O	0.171568	-0.181398	0.307187
C52	C	-0.338136	-0.729796	-0.315004
C53	C	-0.004803	-0.396463	0.018329
C54	C	0.328531	-0.063130	0.351662
C55	C	-0.338172	-0.660154	-0.314984
C56	C	-0.004839	-0.326820	0.018349
C57	C	0.328495	0.006513	0.351682
C58	C	-0.383152	-0.625736	-0.356695
C59	C	-0.049818	-0.292402	-0.023362
C60	C	0.283515	0.040931	0.309972
C61	C	-0.383138	-0.560301	-0.356718
C62	C	-0.049804	-0.226968	-0.023384
C63	C	0.283529	0.106366	0.309949
C64	C	-0.338151	-0.529286	-0.315019
C65	C	-0.004818	-0.195953	0.018314
C66	C	0.328516	0.137380	0.351648
C67	C	-0.293162	-0.563712	-0.273305
C68	C	0.040171	-0.230379	0.060028
C69	C	0.373504	0.102954	0.393361
C70	C	-0.293173	-0.629146	-0.273288
C71	C	0.040160	-0.295813	0.060045
C72	C	0.373494	0.037520	0.393379
C73	C	-0.332498	-0.425776	-0.258391
C74	C	0.000836	-0.092443	0.074942
C75	C	0.334169	0.240890	0.408275
C76	C	-0.332492	-0.360344	-0.258408
C77	C	0.000841	-0.027010	0.074926
C78	C	0.334175	0.306323	0.408259
C79	C	-0.338115	-0.327467	-0.315072
C80	C	-0.004781	0.005866	0.018261
C81	C	0.328552	0.339200	0.351594
C82	C	-0.343757	-0.360030	-0.371723
C83	C	-0.010424	-0.026697	-0.038389
C84	C	0.322909	0.306636	0.294944
C85	C	-0.343768	-0.425464	-0.371705
C86	C	-0.010435	-0.092131	-0.038372
C87	C	0.322899	0.241202	0.294961
C88	C	-0.338134	-0.458335	-0.315033
C89	C	-0.004801	-0.125001	0.018300
C90	C	0.328532	0.208332	0.351633
C91	C	-0.383081	-0.222097	-0.356811
C92	C	-0.049748	0.111236	-0.023478
C93	C	0.283585	0.444570	0.309856
C94	C	-0.383062	-0.156661	-0.356835
C95	C	-0.049729	0.176672	-0.023501
C96	C	0.283604	0.510006	0.309832
C97	C	-0.293091	-0.160074	-0.273417
C98	C	0.040242	0.173260	0.059917
C99	C	0.373576	0.506593	0.393250
C100	C	-0.293106	-0.225508	-0.273398
C101	C	0.040227	0.107825	0.059935
C102	C	0.373560	0.441158	0.393268
C103	C	-0.338105	-0.256516	-0.315095
C104	C	-0.004772	0.076817	0.018238
C105	C	0.328561	0.410151	0.351572
C106	C	-0.520576	-0.885568	-0.321996
C107	C	-0.187242	-0.552234	0.011338
C108	C	0.146091	-0.218901	0.344671
C109	C	-0.598643	-0.882623	-0.324972
C110	C	-0.265310	-0.549289	0.008361
C111	C	0.068023	-0.215956	0.341694
C112	C	-0.635289	-0.921327	-0.286355
C113	C	-0.301956	-0.587994	0.046978
C114	C	0.031378	-0.254660	0.380312
C115	C	-0.708642	-0.918561	-0.289158
C116	C	-0.375309	-0.585228	0.044175
C117	C	-0.041975	-0.251894	0.377508
C118	C	-0.745348	-0.877087	-0.330576
C119	C	-0.412015	-0.543754	0.002758
C120	C	-0.078681	-0.210420	0.336091
C121	C	-0.708697	-0.838381	-0.369197
C122	C	-0.375364	-0.505048	-0.035864
C123	C	-0.042030	-0.171714	0.297470
C124	C	-0.635346	-0.841151	-0.366397
C125	C	-0.302012	-0.507817	-0.033063
C126	C	0.031321	-0.174484	0.300270
C127	C	-0.966824	-0.866722	-0.341036
C128	C	-0.633490	-0.533388	-0.007703
C129	C	-0.300157	-0.200055	0.325631
C130	C	-1.040180	-0.863954	-0.343832
C131	C	-0.706847	-0.530620	-0.010499
C132	C	-0.373514	-0.197287	0.322834
C133	C	-1.040120	-0.944135	-0.263794
C134	C	-0.706787	-0.610801	0.069539
C135	C	-0.373454	-0.277468	0.402873
C136	C	-0.966767	-0.946898	-0.260995
C137	C	-0.633434	-0.613565	0.072339
C138	C	-0.300101	-0.280231	0.405672
C139	C	-0.930123	-0.908194	-0.299618
C140	C	-0.596790	-0.574861	0.033715
C141	C	-0.263456	-0.241528	0.367049
C142	C	-0.820326	-0.874257	-0.333441
C143	C	-0.486993	-0.540924	-0.000107
C144	C	-0.153660	-0.207591	0.333226
C145	C	-0.855146	-0.911028	-0.296756
C146	C	-0.521812	-0.577694	0.036577
C147	C	-0.188479	-0.244361	0.369911
C148	C	-0.154894	-0.899648	-0.308165
C149	C	0.178439	-0.566315	0.025168
C150	C	0.511773	-0.232982	0.358502
C151	C	-0.076826	-0.902658	-0.305215
C152	C	0.256507	-0.569325	0.028118
C153	C	0.589841	-0.235991	0.361451
C154	C	-0.338077	-0.892638	-0.478510
C155	C	-0.004744	-0.559305	-0.145176
C156	C	0.328590	-0.225972	0.188157
C157	C	-0.338071	-0.892661	-0.548151
C158	C	-0.004737	-0.559327	-0.214818
C159	C	0.328596	-0.225994	0.118516
C160	C	-0.338058	-0.056010	-0.315153
C161	C	-0.004725	0.277323	0.018181
C162	C	0.328608	0.610656	0.351514
C163	C	-0.338074	-0.125651	-0.315136
C164	C	-0.004741	0.207682	0.018197
C165	C	0.328592	0.541016	0.351531
C166	C	-0.293136	-0.934465	-0.579188
C167	C	0.040197	-0.601131	-0.245855
C168	C	0.373531	-0.267798	0.087479
C169	C	-0.293106	-0.934465	-0.644622
C170	C	0.040228	-0.601132	-0.311289
C171	C	0.373561	-0.267798	0.022044
C172	C	-0.338023	-0.892667	-0.679017
C173	C	-0.004690	-0.559334	-0.345684
C174	C	0.328644	-0.226001	-0.012351
C175	C	-0.382961	-0.850856	-0.647972
C176	C	-0.049628	-0.517522	-0.314639
C177	C	0.283706	-0.184189	0.018694
C178	C	-0.382985	-0.850852	-0.582539
C179	C	-0.049652	-0.517519	-0.249206
C180	C	0.283682	-0.184186	0.084127
C181	C	-0.401266	-0.885288	-0.785084
C182	C	-0.067933	-0.551955	-0.451751
C183	C	0.265400	-0.218621	-0.118418
C184	C	-0.401243	-0.885296	-0.850517
C185	C	-0.067910	-0.551962	-0.517183
C186	C	0.265423	-0.218629	-0.183850
C187	C	-0.337949	-0.892674	-0.880835
C188	C	-0.004615	-0.559341	-0.547502
C189	C	0.328718	-0.226007	-0.214169
C190	C	-0.274675	-0.900058	-0.845714
C191	C	0.058658	-0.566725	-0.512381
C192	C	0.391992	-0.233391	-0.179047
C193	C	-0.274699	-0.900055	-0.780281
C194	C	0.058635	-0.566721	-0.446947
C195	C	0.391968	-0.233388	-0.113614
C196	C	-0.338002	-0.892666	-0.749969
C197	C	-0.004668	-0.559333	-0.416636
C198	C	0.328665	-0.225999	-0.083302
C199	C	-0.292977	-0.934481	-0.982824
C200	C	0.040356	-0.601147	-0.649490
C201	C	0.373689	-0.267814	-0.316157
C202	C	-0.292946	-0.934477	-1.048259
C203	C	0.040387	-0.601143	-0.714926
C204	C	0.373721	-0.267810	-0.381593
C205	C	-0.382808	-0.850870	-1.051608
C206	C	-0.049474	-0.517537	-0.718275
C207	C	0.283859	-0.184204	-0.384942
C208	C	-0.382833	-0.850871	-0.986174
C209	C	-0.049499	-0.517538	-0.652841
C210	C	0.283834	-0.184205	-0.319507
C211	C	-0.337918	-0.892680	-0.951786
C212	C	-0.004585	-0.559346	-0.618452
C213	C	0.328748	-0.226013	-0.285119
C214	C	-0.338055	-0.892571	-0.152298
C215	C	-0.004721	-0.559238	0.181035
C216	C	0.328612	-0.225905	0.514369
C217	C	-0.337863	-0.892678	-0.082650
C218	C	-0.004529	-0.559345	0.250683
C219	C	0.328804	-0.226011	0.584017
H220	H	-0.348335	-0.333264	-0.417864
H221	H	-0.015001	0.000070	-0.084531
H222	H	0.318332	0.333403	0.248802
F223	F	-0.927707	-0.991047	-0.216919
F224	F	-0.594374	-0.657714	0.116414
F225	F	-0.261041	-0.324381	0.449747
H226	H	-0.419373	-0.816832	-1.079612
H227	H	-0.086040	-0.483498	-0.746279
H228	H	0.247294	-0.150165	-0.412945
H229	H	-0.605509	-0.809634	-0.397844
H230	H	-0.272176	-0.476301	-0.064510
H231	H	0.061157	-0.142968	0.268823
H232	H	-0.348360	-0.451975	-0.417832
H233	H	-0.015027	-0.118641	-0.084499
H234	H	0.318306	0.214692	0.248835
H235	H	-0.419719	-0.247345	-0.390766
H236	H	-0.086385	0.085989	-0.057433
H237	H	0.246948	0.419322	0.275901
F238	F	-1.079125	-0.985326	-0.222694
F239	F	-0.745792	-0.651992	0.110640
F240	F	-0.412458	-0.318659	0.443973
H241	H	-1.070064	-0.830188	-0.377570
H242	H	-0.736731	-0.496855	-0.044237
H243	H	-0.403398	-0.163521	0.289096
F244	F	-0.430662	-0.806379	-0.953141
F245	F	-0.097329	-0.473046	-0.619807
F246	F	0.236005	-0.139713	-0.286474
F247	F	-0.430763	-0.806370	-0.684579
F248	F	-0.097430	-0.473036	-0.351246
F249	F	0.235904	-0.139703	-0.017912
H250	H	-0.419792	-0.650978	-0.390649
H251	H	-0.086459	-0.317645	-0.057315
H252	H	0.246874	0.015689	0.276018
F253	F	-0.431013	-0.523663	-0.401114
F254	F	-0.097680	-0.190330	-0.067781
F255	F	0.235654	0.143003	0.265553
F256	F	-0.430935	-0.120031	-0.401234
F257	F	-0.097602	0.213302	-0.067901
F258	F	0.235732	0.546636	0.265432
F259	F	-0.859398	-0.830118	-0.377519
F260	F	-0.526065	-0.496785	-0.044185
F261	F	-0.192731	-0.163451	0.289148
F262	F	-0.245209	-0.127070	-0.229040
F263	F	0.088125	0.206263	0.104293
F264	F	0.421458	0.539597	0.437626
F265	F	-0.207360	-0.907910	-0.742905
F266	F	0.125973	-0.574577	-0.409571
F267	F	0.459307	-0.241243	-0.076238
F268	F	-0.468585	-0.877442	-0.887889
F269	F	-0.135251	-0.544109	-0.554556
F270	F	0.198082	-0.210776	-0.221223
F271	F	-0.430813	-0.806357	-0.549506
F272	F	-0.097480	-0.473023	-0.216173
F273	F	0.235854	-0.139690	0.117160
H274	H	-0.605408	-0.955097	-0.252626
H275	H	-0.272075	-0.621764	0.080707
H276	H	0.061259	-0.288430	0.414041
H277	H	-0.738476	-0.950078	-0.257712
H278	H	-0.405142	-0.616744	0.075622
H279	H	-0.071809	-0.283411	0.408955
H280	H	-0.452795	-0.879112	-0.760404
H281	H	-0.119462	-0.545779	-0.427071
H282	H	0.213871	-0.212446	-0.093737
H283	H	-0.256350	-0.968518	-1.073528
H284	H	0.076983	-0.635184	-0.740195
H285	H	0.410316	-0.301851	-0.406862
F286	F	-0.207307	-0.907914	-0.877976
F287	F	0.126027	-0.574580	-0.544643
F288	F	0.459360	-0.241247	-0.211309
F289	F	-0.245266	-0.978950	-0.677661
F290	F	0.088067	-0.645617	-0.344327
F291	F	0.421400	-0.312284	-0.010994
H292	H	-0.936994	-0.835206	-0.372484
H293	H	-0.603660	-0.501873	-0.039151
H294	H	-0.270327	-0.168540	0.294183
H295	H	-0.738589	-0.804615	-0.402923
H296	H	-0.405256	-0.471281	-0.069590
H297	H	-0.071922	-0.137948	0.263744
F298	F	-0.816079	-0.955169	-0.252681
F299	F	-0.482746	-0.621835	0.080653
F300	F	-0.149413	-0.288502	0.413986
H301	H	-0.256401	-0.968520	-0.954823
H302	H	0.076932	-0.635187	-0.621490
H303	H	0.410265	-0.301854	-0.288156
F304	F	-0.326515	-0.460760	-0.198077
F305	F	0.006819	-0.127426	0.135256
F306	F	0.340152	0.205907	0.468590
H307	H	-0.256482	-0.253532	-0.239430
H308	H	0.076851	0.079801	0.093903
H309	H	0.410184	0.413135	0.427237
H310	H	-0.327902	-0.333835	-0.212280
H311	H	0.005432	-0.000502	0.121054
H312	H	0.338765	0.332831	0.454387
F313	F	-0.245282	-0.530704	-0.228929
F314	F	0.088051	-0.197370	0.104405
F315	F	0.421385	0.135963	0.437738
H316	H	-0.256543	-0.657169	-0.239322
H317	H	0.076790	-0.323836	0.094011
H318	H	0.410124	0.009497	0.427345
F319	F	-0.245331	-0.978959	-0.542593
F320	F	0.088002	-0.645625	-0.209260
F321	F	0.421336	-0.312292	0.124074
