data_functionalizedCrystal
_audit_creation_method	'MofGen! by Chris Wilmer'
_symmetry_space_group_name_H-M	'P1'
_symmetry_Int_Tables_number	1
_symmetry_cell_setting	triclinic
loop_
_symmetry_equiv_pos_as_xyz
  x,y,z
_cell_length_a	17.077402
_cell_length_b	17.077404
_cell_length_c	17.077396
_cell_angle_alpha	90.019699
_cell_angle_beta	89.970962
_cell_angle_gamma	89.977703
loop_
_atom_site_label
_atom_site_type_symbol
_atom_site_fract_x
_atom_site_fract_y
_atom_site_fract_z
Zn1	Zn	-0.312570	-1.200042	-0.443844
Zn2	Zn	0.020764	-0.866708	-0.110510
Zn3	Zn	0.354097	-0.533375	0.222823
Zn4	Zn	-0.443844	-1.199944	-0.312576
Zn5	Zn	-0.110511	-0.866610	0.020757
Zn6	Zn	0.222822	-0.533277	0.354090
Zn7	Zn	-0.312590	-1.068774	-0.312591
Zn8	Zn	0.020743	-0.735440	0.020742
Zn9	Zn	0.354077	-0.402107	0.354075
Zn10	Zn	-0.443791	-1.068736	-0.443800
Zn11	Zn	-0.110457	-0.735403	-0.110466
Zn12	Zn	0.222876	-0.402070	0.222867
O13	O	-0.378199	-1.134374	-0.378203
O14	O	-0.044865	-0.801040	-0.044869
O15	O	0.288468	-0.467707	0.288464
O16	O	-0.329997	-1.309876	-0.426443
O17	O	0.003336	-0.976542	-0.093110
O18	O	0.336669	-0.643209	0.240223
O19	O	-0.426464	-1.182518	-0.202731
O20	O	-0.093131	-0.849185	0.130602
O21	O	0.240202	-0.515851	0.463935
O22	O	-0.202740	-1.086243	-0.330027
O23	O	0.130593	-0.752910	0.003306
O24	O	0.463926	-0.419577	0.336640
O25	O	-0.426445	-1.309803	-0.330002
O26	O	-0.093111	-0.976470	0.003332
O27	O	0.240222	-0.643137	0.336665
O28	O	-0.202725	-1.182686	-0.426458
O29	O	0.130608	-0.849352	-0.093124
O30	O	0.463941	-0.516019	0.240209
O31	O	-0.330032	-1.086148	-0.202742
O32	O	0.003301	-0.752815	0.130591
O33	O	0.336635	-0.419481	0.463924
O34	O	-0.329980	-0.958922	-0.329984
O35	O	0.003353	-0.625588	0.003349
O36	O	0.336687	-0.292255	0.336683
O37	O	-0.426353	-1.086180	-0.553652
O38	O	-0.093019	-0.752846	-0.220319
O39	O	0.240314	-0.419513	0.113014
O40	O	-0.426373	-0.958894	-0.426382
O41	O	-0.093039	-0.625561	-0.093049
O42	O	0.240294	-0.292228	0.240284
O43	O	-0.329945	-1.182649	-0.553685
O44	O	0.003388	-0.849316	-0.220352
O45	O	0.336721	-0.515983	0.112982
O46	O	-0.553684	-1.182482	-0.329959
O47	O	-0.220351	-0.849149	0.003374
O48	O	0.112982	-0.515815	0.336708
O49	O	-0.553645	-1.086084	-0.426368
O50	O	-0.220311	-0.752751	-0.093035
O51	O	0.113022	-0.419418	0.240299
C52	C	-0.378173	-0.930426	-0.378180
C53	C	-0.044840	-0.597093	-0.044847
C54	C	0.288494	-0.263759	0.288486
C55	C	-0.378181	-0.843176	-0.378189
C56	C	-0.044848	-0.509843	-0.044856
C57	C	0.288486	-0.176509	0.288477
C58	C	-0.328050	-0.802224	-0.428482
C59	C	0.005284	-0.468891	-0.095149
C60	C	0.338617	-0.135558	0.238184
C61	C	-0.328054	-0.720244	-0.428484
C62	C	0.005280	-0.386911	-0.095151
C63	C	0.338613	-0.053577	0.238183
C64	C	-0.378193	-0.679217	-0.378196
C65	C	-0.044860	-0.345883	-0.044863
C66	C	0.288473	-0.012550	0.288470
C67	C	-0.428327	-0.720174	-0.327898
C68	C	-0.094993	-0.386841	0.005435
C69	C	0.238340	-0.053508	0.338769
C70	C	-0.428318	-0.802153	-0.327893
C71	C	-0.094985	-0.468820	0.005440
C72	C	0.238348	-0.135487	0.338774
C73	C	-0.428342	-0.549304	-0.327913
C74	C	-0.095009	-0.215971	0.005420
C75	C	0.238325	0.117362	0.338753
C76	C	-0.428351	-0.467320	-0.327919
C77	C	-0.095018	-0.133986	0.005414
C78	C	0.238315	0.199347	0.338747
C79	C	-0.328077	-0.467395	-0.428505
C80	C	0.005256	-0.134062	-0.095171
C81	C	0.338590	0.199272	0.238162
C82	C	-0.328069	-0.549374	-0.428499
C83	C	0.005265	-0.216041	-0.095166
C84	C	0.338598	0.117293	0.238167
C85	C	-0.378204	-0.590326	-0.378202
C86	C	-0.044870	-0.256992	-0.044869
C87	C	0.288463	0.076341	0.288465
C88	C	-0.582147	-1.134290	-0.378174
C89	C	-0.248813	-0.800956	-0.044841
C90	C	0.084520	-0.467623	0.288493
C91	C	-0.669396	-1.134326	-0.378188
C92	C	-0.336063	-0.800992	-0.044855
C93	C	-0.002730	-0.467659	0.288479
C94	C	-1.045139	-1.184677	-0.428506
C95	C	-0.711806	-0.851344	-0.095173
C96	C	-0.378473	-0.518011	0.238161
C97	C	-0.963159	-1.184642	-0.428487
C98	C	-0.629825	-0.851309	-0.095154
C99	C	-0.296492	-0.517975	0.238179
C100	C	-0.922245	-1.134450	-0.378235
C101	C	-0.588912	-0.801116	-0.044901
C102	C	-0.255578	-0.467783	0.288432
C103	C	-0.963316	-1.084295	-0.327992
C104	C	-0.629983	-0.750961	0.005342
C105	C	-0.296649	-0.417628	0.338675
C106	C	-1.045295	-1.084335	-0.328007
C107	C	-0.711962	-0.751001	0.005327
C108	C	-0.378628	-0.417668	0.338660
C109	C	-0.792446	-1.084214	-0.327965
C110	C	-0.459113	-0.750881	0.005368
C111	C	-0.125779	-0.417547	0.338702
C112	C	-0.710462	-1.084173	-0.327951
C113	C	-0.377128	-0.750840	0.005383
C114	C	-0.043795	-0.417506	0.338716
C115	C	-0.710310	-1.184521	-0.428446
C116	C	-0.376977	-0.851188	-0.095112
C117	C	-0.043643	-0.517855	0.238221
C118	C	-0.792289	-1.184561	-0.428461
C119	C	-0.458955	-0.851228	-0.095127
C120	C	-0.125622	-0.517895	0.238206
C121	C	-0.833354	-1.134405	-0.378218
C122	C	-0.500021	-0.801072	-0.044885
C123	C	-0.166687	-0.467739	0.288448
C124	C	-0.173454	-1.134480	-0.378249
C125	C	0.159879	-0.801146	-0.044915
C126	C	0.493212	-0.467813	0.288418
C127	C	-0.086204	-1.134525	-0.378268
C128	C	0.247129	-0.801191	-0.044935
C129	C	0.580462	-0.467858	0.288398
C130	C	-0.378141	-1.134421	-0.582947
C131	C	-0.044807	-0.801088	-0.249614
C132	C	0.288526	-0.467755	0.083720
C133	C	-0.378116	-1.134442	-0.670197
C134	C	-0.044783	-0.801108	-0.336864
C135	C	0.288551	-0.467775	-0.003530
C136	C	-0.378221	-0.339118	-0.378220
C137	C	-0.044887	-0.005785	-0.044887
C138	C	0.288446	0.327549	0.288447
C139	C	-0.378220	-0.426368	-0.378212
C140	C	-0.044887	-0.093035	-0.044879
C141	C	0.288447	0.240299	0.288455
C142	C	-0.327913	-1.184675	-0.711205
C143	C	0.005421	-0.851342	-0.377872
C144	C	0.338754	-0.518008	-0.044539
C145	C	-0.327886	-1.184685	-0.793186
C146	C	0.005447	-0.851351	-0.459853
C147	C	0.338780	-0.518018	-0.126519
C148	C	-0.378068	-1.134464	-0.834157
C149	C	-0.044735	-0.801130	-0.500823
C150	C	0.288598	-0.467797	-0.167490
C151	C	-0.428274	-1.084225	-0.793142
C152	C	-0.094941	-0.750891	-0.459809
C153	C	0.238392	-0.417558	-0.126476
C154	C	-0.428296	-1.084212	-0.711163
C155	C	-0.094962	-0.750879	-0.377830
C156	C	0.238371	-0.417545	-0.044497
C157	C	-0.428227	-1.084256	-0.964013
C158	C	-0.094894	-0.750923	-0.630679
C159	C	0.238440	-0.417590	-0.297346
C160	C	-0.428207	-1.084270	-1.045997
C161	C	-0.094873	-0.750937	-0.712664
C162	C	0.238460	-0.417603	-0.379331
C163	C	-0.327818	-1.184729	-1.046035
C164	C	0.005516	-0.851396	-0.712702
C165	C	0.338849	-0.518062	-0.379368
C166	C	-0.327839	-1.184716	-0.964056
C167	C	0.005494	-0.851383	-0.630723
C168	C	0.338827	-0.518050	-0.297389
C169	C	-0.378046	-1.134478	-0.923048
C170	C	-0.044713	-0.801145	-0.589714
C171	C	0.288620	-0.467811	-0.256381
C172	C	-0.378200	-1.134372	-0.174255
C173	C	-0.044866	-0.801038	0.159078
C174	C	0.288467	-0.467705	0.492412
C175	C	-0.378003	-1.134504	-0.087006
C176	C	-0.044670	-0.801170	0.246328
C177	C	0.288664	-0.467837	0.579661
H178	H	-0.287222	-0.835623	-0.469435
H179	H	0.046111	-0.502289	-0.136101
H180	H	0.379444	-0.168956	0.197232
H181	H	-0.469180	-0.433918	-0.286971
H182	H	-0.135847	-0.100584	0.046362
H183	H	0.197487	0.232749	0.379695
C184	C	-1.090137	-1.239893	-0.483782
C185	C	-0.756804	-0.906559	-0.150449
C186	C	-0.423471	-0.573226	0.182885
H187	H	-1.053936	-1.269762	-0.513693
H188	H	-0.720602	-0.936429	-0.180359
H189	H	-0.387269	-0.603095	0.152974
H190	H	-1.122122	-1.209867	-0.517966
H191	H	-0.788789	-0.876534	-0.184632
H192	H	-0.455455	-0.543201	0.148701
H193	H	-1.122105	-1.274129	-0.453782
H194	H	-0.788772	-0.940795	-0.120449
H195	H	-0.455438	-0.607462	0.212884
H196	H	-0.825879	-1.043373	-0.287051
H197	H	-0.492546	-0.710040	0.046283
H198	H	-0.159212	-0.376706	0.379616
H199	H	-1.078729	-1.043495	-0.287098
H200	H	-0.745396	-0.710162	0.046235
H201	H	-0.412063	-0.376829	0.379569
H202	H	-0.287233	-0.686905	-0.469439
H203	H	0.046100	-0.353571	-0.136106
H204	H	0.379434	-0.020238	0.197228
H205	H	-0.676870	-1.225360	-0.469354
H206	H	-0.343536	-0.892027	-0.136021
H207	H	-0.010203	-0.558694	0.197313
H208	H	-0.286981	-1.225615	-0.930700
H209	H	0.046352	-0.892281	-0.597367
H210	H	0.379686	-0.558948	-0.264033
C211	C	-0.483462	-0.847204	-0.272573
C212	C	-0.150129	-0.513871	0.060760
C213	C	0.183205	-0.180537	0.394094
H214	H	-0.476271	-0.901903	-0.279766
H215	H	-0.142937	-0.568570	0.053567
H216	H	0.190396	-0.235236	0.386901
H217	H	-0.536221	-0.833760	-0.283964
H218	H	-0.202887	-0.500427	0.049369
H219	H	0.130446	-0.167094	0.382702
H220	H	-0.471900	-0.833749	-0.219851
H221	H	-0.138567	-0.500416	0.113483
H222	H	0.194766	-0.167082	0.446816
H223	H	-0.930000	-1.043430	-0.287071
H224	H	-0.596666	-0.710097	0.046262
H225	H	-0.263333	-0.376763	0.379596
C226	C	-0.272916	-0.594503	-0.483813
C227	C	0.060418	-0.261169	-0.150480
C228	C	0.393751	0.072164	0.182853
H229	H	-0.243053	-0.558374	-0.513764
H230	H	0.090281	-0.225040	-0.180430
H231	H	0.423614	0.108293	0.152903
H232	H	-0.302983	-0.626490	-0.517958
H233	H	0.030351	-0.293157	-0.184625
H234	H	0.363684	0.040176	0.148709
H235	H	-0.238671	-0.626478	-0.453836
H236	H	0.094662	-0.293144	-0.120502
H237	H	0.427996	0.040189	0.212831
C238	C	-0.272600	-1.239999	-1.091140
C239	C	0.060733	-0.906666	-0.757807
C240	C	0.394067	-0.573332	-0.424474
H241	H	-0.279769	-1.232813	-1.145832
H242	H	0.053564	-0.899479	-0.812499
H243	H	0.386897	-0.566146	-0.479165
H244	H	-0.284112	-1.292728	-1.077708
H245	H	0.049221	-0.959395	-0.744374
H246	H	0.382554	-0.626061	-0.411041
H247	H	-0.219853	-1.228545	-1.077719
H248	H	0.113480	-0.895212	-0.744386
H249	H	0.446813	-0.561879	-0.411053
C250	C	-0.917990	-1.239818	-0.483741
C251	C	-0.584657	-0.906485	-0.150407
C252	C	-0.251324	-0.573151	0.182926
H253	H	-0.954098	-1.269712	-0.513675
H254	H	-0.620765	-0.936379	-0.180342
H255	H	-0.287431	-0.603045	0.152992
H256	H	-0.886008	-1.274020	-0.453730
H257	H	-0.552674	-0.940687	-0.120397
H258	H	-0.219341	-0.607354	0.212936
H259	H	-0.886007	-1.209760	-0.517915
H260	H	-0.552674	-0.876427	-0.184582
H261	H	-0.219341	-0.543094	0.148752
C262	C	-0.272708	-1.239915	-0.666145
C263	C	0.060626	-0.906582	-0.332811
C264	C	0.393959	-0.573248	0.000522
H265	H	-0.242799	-1.269827	-0.702312
H266	H	0.090534	-0.936494	-0.368979
H267	H	0.423868	-0.603160	-0.035646
H268	H	-0.302743	-1.274099	-0.634161
H269	H	0.030591	-0.940765	-0.300828
H270	H	0.363924	-0.607432	0.032506
H271	H	-0.238508	-1.209891	-0.634171
H272	H	0.094825	-0.876558	-0.300838
H273	H	0.428159	-0.543225	0.032496
H274	H	-0.825598	-1.225430	-0.469383
H275	H	-0.492265	-0.892097	-0.136050
H276	H	-0.158932	-0.558764	0.197284
C277	C	-0.665458	-1.028964	-0.272673
C278	C	-0.332124	-0.695631	0.060661
C279	C	0.001209	-0.362298	0.393994
H280	H	-0.701654	-0.999106	-0.242745
H281	H	-0.368321	-0.665772	0.090588
H282	H	-0.034988	-0.332439	0.423921
H283	H	-0.633489	-0.994730	-0.302665
H284	H	-0.300155	-0.661396	0.030668
H285	H	0.033178	-0.328063	0.364002
H286	H	-0.633473	-1.059002	-0.238493
H287	H	-0.300140	-0.725669	0.094840
H288	H	0.033193	-0.392336	0.428174
C289	C	-0.483401	-1.029024	-1.091064
C290	C	-0.150067	-0.695691	-0.757731
C291	C	0.183266	-0.362358	-0.424397
H292	H	-0.513298	-0.999094	-1.054901
H293	H	-0.179964	-0.665761	-0.721568
H294	H	0.153369	-0.332428	-0.388235
H295	H	-0.517600	-1.059037	-1.123041
H296	H	-0.184267	-0.725703	-0.789708
H297	H	0.149066	-0.392370	-0.456374
H298	H	-0.453350	-0.994846	-1.123045
H299	H	-0.120016	-0.661512	-0.789712
H300	H	0.213317	-0.328179	-0.456378
C301	C	-0.272666	-1.239945	-0.838292
C302	C	0.060667	-0.906612	-0.504958
C303	C	0.394000	-0.573279	-0.171625
H304	H	-0.242791	-1.269860	-0.802150
H305	H	0.090543	-0.936527	-0.468817
H306	H	0.423876	-0.603194	-0.135483
H307	H	-0.238448	-1.209945	-0.870274
H308	H	0.094885	-0.876612	-0.536941
H309	H	0.428219	-0.543278	-0.203608
H310	H	-0.302697	-1.274137	-0.870270
H311	H	0.030636	-0.940804	-0.536937
H312	H	0.363969	-0.607471	-0.203604
H313	H	-0.469099	-1.043335	-0.930626
H314	H	-0.135765	-0.710001	-0.597293
H315	H	0.197568	-0.376668	-0.263959
H316	H	-0.469130	-1.043331	-0.826507
H317	H	-0.135797	-0.709998	-0.493174
H318	H	0.197536	-0.376665	-0.159841
C319	C	-0.272928	-0.422352	-0.483829
C320	C	0.060405	-0.089018	-0.150496
C321	C	0.393739	0.244315	0.182838
H322	H	-0.280106	-0.367652	-0.476625
H323	H	0.053227	-0.034319	-0.143292
H324	H	0.386561	0.299015	0.190041
H325	H	-0.284485	-0.435804	-0.536549
H326	H	0.048848	-0.102471	-0.203215
H327	H	0.382181	0.230863	0.130118
H328	H	-0.220167	-0.435800	-0.472433
H329	H	0.113166	-0.102466	-0.139099
H330	H	0.446500	0.230867	0.194234
H331	H	-0.469169	-1.043299	-0.677776
H332	H	-0.135835	-0.709965	-0.344442
H333	H	0.197498	-0.376632	-0.011109
C334	C	-0.483481	-0.675050	-0.272582
C335	C	-0.150148	-0.341717	0.060752
C336	C	0.183185	-0.008384	0.394085
H337	H	-0.513332	-0.711183	-0.242623
H338	H	-0.179999	-0.377850	0.090710
H339	H	0.153335	-0.044517	0.424043
H340	H	-0.517725	-0.643074	-0.302550
H341	H	-0.184392	-0.309740	0.030783
H342	H	0.148942	0.023593	0.364116
H343	H	-0.453409	-0.643065	-0.238432
H344	H	-0.120076	-0.309732	0.094901
H345	H	0.213257	0.023602	0.428235
H346	H	-0.469165	-0.582645	-0.286954
H347	H	-0.135832	-0.249311	0.046379
H348	H	0.197502	0.084022	0.379713
