data_functionalizedCrystal
_audit_creation_method	'MofGen! by Chris Wilmer'
_symmetry_space_group_name_H-M	'P1'
_symmetry_Int_Tables_number	1
_symmetry_cell_setting	triclinic
loop_
_symmetry_equiv_pos_as_xyz
  x,y,z
_cell_length_a	17.077404
_cell_length_b	12.594516
_cell_length_c	17.077396
_cell_angle_alpha	89.976020
_cell_angle_beta	89.982756
_cell_angle_gamma	90.016278
loop_
_atom_site_label
_atom_site_type_symbol
_atom_site_fract_x
_atom_site_fract_y
_atom_site_fract_z
Zn1	Zn	1.200074	-0.423727	-0.443872
Zn2	Zn	1.200002	-0.601730	-0.312618
Zn3	Zn	1.068811	-0.423767	-0.312620
Zn4	Zn	1.068790	-0.601665	-0.443842
O5	O	1.134420	-0.512722	-0.378238
O6	O	1.309912	-0.447350	-0.426473
O7	O	1.182578	-0.578167	-0.202771
O8	O	1.086263	-0.274816	-0.330044
O9	O	1.309859	-0.578129	-0.330041
O10	O	1.182701	-0.274786	-0.426474
O11	O	1.086193	-0.447418	-0.202773
O12	O	0.958962	-0.447355	-0.330015
O13	O	1.086226	-0.578016	-0.553693
O14	O	0.958946	-0.578055	-0.426423
O15	O	1.182680	-0.447287	-0.553715
O16	O	1.182558	-0.750667	-0.330012
O17	O	1.086156	-0.750619	-0.426421
C18	C	0.930472	-0.512703	-0.378216
C19	C	0.843222	-0.512720	-0.378226
C20	C	1.134368	-0.789263	-0.378230
C21	C	1.134418	-0.907569	-0.378253
C22	C	0.802244	-0.580879	-0.428345
C23	C	0.720264	-0.580881	-0.428357
C24	C	0.679262	-0.512729	-0.378246
C25	C	0.720246	-0.444563	-0.328125
C26	C	0.802225	-0.444557	-0.328117
C27	C	0.549376	-0.444584	-0.328144
C28	C	0.467391	-0.444592	-0.328150
C29	C	0.467415	-0.580909	-0.428384
C30	C	0.549394	-0.580902	-0.428376
C31	C	0.590371	-0.512737	-0.378253
C32	C	1.081980	-0.976834	-0.430653
C33	C	1.062859	-1.047696	-0.359026
C34	C	1.153611	-1.047506	-0.449893
C35	C	1.115259	-0.976872	-0.306587
C36	C	1.206044	-0.976676	-0.397503
C37	C	1.186950	-1.047506	-0.325826
C38	C	1.339164	-0.512742	-0.378260
C39	C	1.426414	-0.512751	-0.378269
C40	C	1.134459	-0.512640	-0.582982
C41	C	1.134476	-0.512605	-0.670232
C42	C	1.134493	-0.235101	-0.378263
C43	C	1.134524	-0.116796	-0.378273
C44	C	1.084303	-0.444515	-0.711222
C45	C	1.084316	-0.444491	-0.793203
C46	C	1.134506	-0.512552	-0.834192
C47	C	1.184681	-0.580648	-0.793196
C48	C	1.184663	-0.580677	-0.711217
C49	C	1.184715	-0.580582	-0.964066
C50	C	1.184733	-0.580552	-1.046050
C51	C	1.084367	-0.444396	-1.046052
C52	C	1.084350	-0.444425	-0.964073
C53	C	1.134526	-0.512520	-0.923083
C54	C	1.134425	-0.512728	-0.174290
C55	C	1.134561	-0.512463	-0.087041
H56	H	0.835621	-0.636379	-0.469149
C57	C	1.029168	-0.369496	-1.091143
N58	N	0.987595	-0.313082	-1.125109
C59	C	1.029130	-0.369577	-0.838288
N60	N	0.987564	-0.313145	-0.872246
H61	H	0.686903	-0.636384	-0.469169
C62	C	1.239939	-0.655429	-1.091136
N63	N	1.281520	-0.711830	-1.125095
H64	H	1.002336	-1.078914	-0.342760
C65	C	1.093288	-0.935133	-0.224728
N66	N	1.076735	-0.903693	-0.163074
C67	C	0.594493	-0.655878	-0.483497
N68	N	0.628462	-0.712350	-0.525016
C69	C	1.246916	-1.089172	-0.265905
N70	N	1.292079	-1.120559	-0.220770
C71	C	1.239861	-0.655576	-0.666128
N72	N	1.281437	-0.711992	-0.632168
C73	C	1.287783	-0.934482	-0.419531
N74	N	1.349347	-0.902694	-0.436133
H75	H	1.225580	-0.636023	-0.930694
C76	C	1.175484	-1.089421	-0.531730
N77	N	1.191954	-1.120988	-0.593371
C78	C	1.029089	-0.369643	-0.666142
N79	N	0.987497	-0.313249	-0.632190
C80	C	0.847300	-0.369579	-0.272980
N81	N	0.881250	-0.313102	-0.231450
H82	H	1.043484	-0.388999	-0.930702
C83	C	1.021966	-0.934900	-0.490428
N84	N	0.976762	-0.903312	-0.535445
C85	C	0.422337	-0.655886	-0.483524
N86	N	0.388382	-0.712358	-0.525052
C87	C	1.239712	-0.655756	-0.838286
N88	N	1.281101	-0.712413	-0.872247
C89	C	0.422292	-0.369618	-0.273028
N90	N	0.388323	-0.313146	-0.231510
C91	C	0.594450	-0.369602	-0.273004
N92	N	0.628399	-0.313131	-0.231470
H93	H	0.686856	-0.389069	-0.287327
