data_functionalizedCrystal
_audit_creation_method	'MofGen! by Chris Wilmer'
_symmetry_space_group_name_H-M	'P1'
_symmetry_Int_Tables_number	1
_symmetry_cell_setting	triclinic
loop_
_symmetry_equiv_pos_as_xyz
  x,y,z
_cell_length_a	17.077404
_cell_length_b	12.827892
_cell_length_c	17.077396
_cell_angle_alpha	90.024877
_cell_angle_beta	90.019501
_cell_angle_gamma	90.015617
loop_
_atom_site_label
_atom_site_type_symbol
_atom_site_fract_x
_atom_site_fract_y
_atom_site_fract_z
Zn1	Zn	1.200096	-0.416027	0.443862
Zn2	Zn	1.200020	-0.590789	0.312605
Zn3	Zn	1.068827	-0.416063	0.312610
Zn4	Zn	1.068812	-0.590727	0.443828
O5	O	1.134439	-0.503402	0.378226
O6	O	1.309932	-0.439220	0.426463
O7	O	1.182591	-0.567653	0.202758
O8	O	1.086278	-0.269823	0.330038
O9	O	1.309877	-0.567617	0.330028
O10	O	1.182720	-0.269796	0.426468
O11	O	1.086205	-0.439282	0.202763
O12	O	0.958978	-0.439222	0.330005
O13	O	1.086253	-0.567511	0.553680
O14	O	0.958968	-0.567547	0.426410
O15	O	1.182706	-0.439160	0.553705
O16	O	1.182577	-0.737017	0.329995
O17	O	1.086179	-0.736971	0.426404
C18	C	0.930491	-0.503383	0.378205
C19	C	0.843241	-0.503400	0.378214
C20	C	0.802266	-0.570319	0.428332
C21	C	0.720285	-0.570321	0.428344
C22	C	0.679282	-0.503409	0.378235
C23	C	0.720263	-0.436482	0.328115
C24	C	0.802242	-0.436475	0.328107
C25	C	0.549393	-0.436502	0.328134
C26	C	0.467408	-0.436510	0.328140
C27	C	0.467436	-0.570349	0.428371
C28	C	0.549415	-0.570342	0.428363
C29	C	0.590391	-0.503416	0.378242
C30	C	1.134390	-0.774912	0.378213
C31	C	1.134440	-0.891065	0.378233
C32	C	1.182198	-0.942837	0.330579
C33	C	1.182251	-1.062888	0.330599
C34	C	1.339183	-0.503421	0.378249
C35	C	1.426433	-0.503430	0.378258
C36	C	1.134486	-0.503325	0.582971
C37	C	1.134506	-0.503292	0.670221
C38	C	1.134509	-0.230831	0.378257
C39	C	1.134540	-0.114678	0.378271
C40	C	1.134437	-0.503403	0.174279
C41	C	1.134568	-0.503141	0.087029
C42	C	1.184731	-0.436454	0.711225
C43	C	1.184741	-0.436419	0.793206
C44	C	1.134529	-0.503228	0.834180
C45	C	1.084298	-0.570069	0.793170
C46	C	1.084285	-0.570098	0.711191
C47	C	1.084330	-0.570007	0.964040
C48	C	1.084344	-0.569980	1.046025
C49	C	1.184785	-0.436327	1.046055
C50	C	1.184772	-0.436356	0.964076
C51	C	1.134543	-0.503199	0.923071
H52	H	0.686927	-0.624815	0.469154
O53	O	1.231138	-1.116024	0.282050
C54	C	1.337102	-1.239265	0.271732
C55	C	1.281783	-1.179143	0.326797
H56	H	1.378052	-1.290328	0.307888
H57	H	1.373074	-1.181620	0.235867
H58	H	1.301091	-1.290412	0.230664
H59	H	1.317734	-1.127995	0.367913
H60	H	1.245809	-1.236845	0.362607
H61	H	0.582798	-0.624834	0.469163
H62	H	1.093647	-1.070163	0.419068
O63	O	1.085817	-0.944319	0.426964
C64	C	1.075339	-1.067547	0.532905
C65	C	1.130494	-1.007323	0.477752
H66	H	1.111438	-1.118483	0.573993
H67	H	1.034386	-1.118799	0.496846
H68	H	1.039355	-1.009875	0.568745
H69	H	1.166528	-1.064919	0.441901
H70	H	1.171395	-0.956056	0.513857
H71	H	1.225622	-0.382053	0.677870
O72	O	1.233607	-0.371463	0.832916
C73	C	1.333203	-0.238867	0.824294
C74	C	1.277914	-0.312396	0.779226
H75	H	1.369028	-0.191077	0.780906
H76	H	1.374291	-0.286788	0.862656
H77	H	1.297175	-0.184246	0.862695
H78	H	1.313878	-0.367032	0.740783
H79	H	1.236823	-0.264410	0.740914
H80	H	0.835603	-0.381977	0.287300
H81	H	1.223048	-0.898288	0.289769
O82	O	0.427516	-0.635259	0.477039
C83	C	0.301235	-0.694628	0.521445
C84	C	0.346351	-0.621048	0.466309
H85	H	0.235605	-0.683180	0.512778
H86	H	0.317330	-0.676385	0.584780
H87	H	0.317379	-0.778855	0.507556
H88	H	0.330231	-0.536796	0.480128
H89	H	0.330252	-0.639380	0.402991
O90	O	1.035603	-0.635011	1.085748
C91	C	0.997468	-0.812746	1.110862
C92	C	1.052703	-0.739219	1.065810
H93	H	1.011285	-0.897014	1.094772
H94	H	0.934161	-0.794468	1.094726
H95	H	1.006101	-0.801181	1.176492
H96	H	1.044139	-0.750743	1.000170
H97	H	1.115989	-0.757515	1.082011
H98	H	1.043379	-0.624514	0.677806
H99	H	1.225664	-0.381960	0.930716
O100	O	0.842059	-0.635208	0.477122
C101	C	0.867153	-0.686195	0.610579
C102	C	0.822056	-0.612630	0.555410
H103	H	0.850985	-0.667981	0.673886
H104	H	0.932794	-0.674695	0.602034
H105	H	0.851024	-0.770430	0.596650
H106	H	0.838120	-0.528366	0.569306
H107	H	0.756426	-0.624220	0.563966
O108	O	1.233538	-0.371241	1.085792
C109	C	1.271665	-0.193472	1.110922
C110	C	1.216416	-0.267058	1.065856
H111	H	1.257831	-0.109223	1.094833
H112	H	1.334966	-0.211754	1.094796
H113	H	1.263066	-0.204968	1.176549
H114	H	1.224946	-0.255603	1.000218
H115	H	1.153136	-0.248758	1.082046
O116	O	1.035653	-0.634990	0.924114
C117	C	1.025071	-0.776146	0.831565
C118	C	1.080275	-0.702600	0.876722
H119	H	1.061126	-0.830842	0.793251
H120	H	0.984046	-0.728238	0.793126
H121	H	0.989166	-0.823855	0.874938
H122	H	1.116230	-0.654875	0.833406
H123	H	1.121248	-0.750568	0.915173
H124	H	0.686871	-0.381996	0.287318
H125	H	0.582752	-0.381995	0.287327
H126	H	0.434025	-0.382012	0.287346
O127	O	1.035409	-0.634858	0.832934
C128	C	0.901877	-0.685608	0.857949
C129	C	0.957153	-0.612149	0.812885
H130	H	0.838597	-0.667289	0.841744
H131	H	0.910445	-0.674109	0.923596
H132	H	0.915678	-0.769871	0.841829
H133	H	0.943386	-0.527858	0.828941
H134	H	0.948575	-0.623739	0.747250
