data_functionalizedCrystal
_audit_creation_method	'MofGen! by Chris Wilmer'
_symmetry_space_group_name_H-M	'P1'
_symmetry_Int_Tables_number	1
_symmetry_cell_setting	triclinic
loop_
_symmetry_equiv_pos_as_xyz
  x,y,z
_cell_length_a	16.109295
_cell_length_b	15.186229
_cell_length_c	16.109301
_cell_angle_alpha	90.001705
_cell_angle_beta	96.539666
_cell_angle_gamma	89.997319
loop_
_atom_site_label
_atom_site_type_symbol
_atom_site_fract_x
_atom_site_fract_y
_atom_site_fract_z
O1	O	-1.103137	0.073171	0.106839
O2	O	-0.861074	0.073187	0.120143
O3	O	-0.988755	0.073170	-0.007540
O4	O	-0.975456	0.073188	0.234523
O5	O	-0.988740	-0.073288	-0.007532
O6	O	-0.861059	-0.073271	0.120151
O7	O	-1.103122	-0.073286	0.106847
Zn8	Zn	-0.982088	-0.096531	0.113500
Zn9	Zn	-0.982108	0.096432	0.113490
O10	O	-0.975441	-0.073269	0.234530
C11	C	-0.830092	-0.000040	0.119609
C12	C	-0.737796	-0.000035	0.117996
N13	N	-0.982081	-0.228224	0.113506
C14	C	-0.515523	-0.000038	0.190008
C15	C	-0.428803	-0.000044	0.188486
C16	C	-0.448677	-0.000052	0.036997
C17	C	-0.535396	-0.000053	0.038520
C18	C	-0.568816	-0.000041	0.115028
C19	C	-0.395377	-0.000046	0.111982
C20	C	-0.301351	-0.000052	0.110331
C21	C	-0.662849	-0.000037	0.116679
C22	C	-1.032505	-0.453946	0.163933
C23	C	-1.032514	-0.546136	0.163927
C24	C	-0.931696	-0.546147	0.063045
C25	C	-0.931692	-0.453959	0.063047
C26	C	-0.982095	-0.407861	0.113496
C27	C	-0.982108	-0.592238	0.113488
C28	C	-0.982117	-0.692195	0.113481
C29	C	-0.982087	-0.307898	0.113502
C30	C	-0.134104	-0.000056	0.107386
C31	C	-0.226397	-0.000053	0.109014
C32	C	-0.988209	-0.000059	-0.038511
C33	C	-0.986594	-0.000061	-0.130806
N34	N	-0.982122	0.228125	0.113478
C35	C	-1.058602	-0.000051	-0.353080
C36	C	-1.057078	-0.000044	-0.439800
C37	C	-0.905588	-0.000038	-0.419923
C38	C	-0.907113	-0.000039	-0.333204
C39	C	-0.983622	-0.000050	-0.299785
C40	C	-0.980573	-0.000042	-0.473225
C41	C	-0.978920	-0.000034	-0.567251
C42	C	-0.985276	-0.000056	-0.205754
C43	C	-0.975987	-0.000038	0.265501
C44	C	-0.977602	-0.000031	0.357796
H45	H	-0.542731	-0.000036	0.252306
H46	H	-0.843297	-0.000030	-0.447144
Cl47	Cl	-1.095890	-0.604068	0.227335
Cl48	Cl	-0.812846	-0.000029	-0.266200
Cl49	Cl	-0.868312	-0.396018	-0.000363
H50	H	-1.073546	-0.416416	0.205012
Cl51	Cl	-0.361808	-0.000041	0.282751
Cl52	Cl	-0.406656	-0.000060	-0.059180
Cl53	Cl	-1.154784	-0.000063	-0.311071
H54	H	-0.890659	-0.583691	0.021972
Cl55	Cl	-0.602398	-0.000064	-0.055749
H56	H	-1.118133	-0.000043	-0.483190
