data_functionalizedCrystal
_audit_creation_method	'MofGen! by Chris Wilmer'
_symmetry_space_group_name_H-M	'P1'
_symmetry_Int_Tables_number	1
_symmetry_cell_setting	triclinic
loop_
_symmetry_equiv_pos_as_xyz
  x,y,z
_cell_length_a	21.395364
_cell_length_b	11.169416
_cell_length_c	21.395355
_cell_angle_alpha	89.988582
_cell_angle_beta	89.975448
_cell_angle_gamma	90.025100
loop_
_atom_site_label
_atom_site_type_symbol
_atom_site_fract_x
_atom_site_fract_y
_atom_site_fract_z
Zn1	Zn	0.957949	-0.477467	-0.354292
Zn2	Zn	0.957889	-0.678138	-0.249528
Zn3	Zn	0.853164	-0.477520	-0.249529
Zn4	Zn	0.853170	-0.678159	-0.354268
O5	O	0.905543	-0.577821	-0.301904
O6	O	1.045619	-0.504056	-0.340405
O7	O	0.943969	-0.651539	-0.161850
O8	O	0.867086	-0.309563	-0.263437
O9	O	1.045575	-0.651488	-0.263435
O10	O	0.944071	-0.309525	-0.340406
O11	O	0.867028	-0.504145	-0.161851
O12	O	0.765487	-0.504166	-0.263413
O13	O	0.867097	-0.651524	-0.441949
O14	O	0.765492	-0.651575	-0.340365
O15	O	0.944078	-0.504077	-0.441967
O16	O	0.943975	-0.846091	-0.263411
O17	O	0.867039	-0.846106	-0.340363
C18	C	0.742755	-0.577880	-0.301887
C19	C	0.673114	-0.577933	-0.301894
C20	C	0.640446	-0.501291	-0.342034
C21	C	0.575011	-0.501259	-0.342037
C22	C	0.542246	-0.577891	-0.301906
C23	C	0.574921	-0.654539	-0.261757
C24	C	0.640356	-0.654560	-0.261752
C25	C	0.438542	-0.685974	-0.296875
C26	C	0.373109	-0.685955	-0.296885
C27	C	0.340425	-0.577825	-0.301919
C28	C	0.373182	-0.469711	-0.306957
C29	C	0.438616	-0.469732	-0.306951
C30	C	0.471293	-0.577876	-0.301907
C31	C	0.236805	-0.501142	-0.342064
C32	C	0.171368	-0.501108	-0.342062
C33	C	0.171280	-0.654398	-0.261786
C34	C	0.236715	-0.654421	-0.261785
C35	C	0.269474	-0.577795	-0.301928
C36	C	0.905519	-0.889646	-0.301898
C37	C	0.905566	-1.023046	-0.301917
C38	C	1.068966	-0.577763	-0.301922
C39	C	1.138607	-0.577739	-0.301930
C40	C	0.905595	-0.577797	-0.465328
C41	C	0.905617	-0.577786	-0.534969
C42	C	0.905584	-0.264779	-0.301924
C43	C	0.905602	-0.131379	-0.301933
C44	C	0.945699	-0.501007	-0.567692
C45	C	0.945698	-0.500956	-0.633128
C46	C	0.905622	-0.577705	-0.665837
C47	C	0.865532	-0.654489	-0.633106
C48	C	0.865530	-0.654530	-0.567672
C49	C	0.900666	-0.685772	-0.769510
C50	C	0.900673	-0.685734	-0.834943
C51	C	0.905626	-0.577578	-0.867658
C52	C	0.910585	-0.469458	-0.834933
C53	C	0.910582	-0.469499	-0.769498
C54	C	0.905620	-0.577668	-0.736790
C55	C	0.945709	-0.500736	-0.971334
C56	C	0.945704	-0.500683	-1.036771
C57	C	0.865541	-0.654227	-1.036748
C58	C	0.865543	-0.654270	-0.971312
C59	C	0.905630	-0.577526	-0.938610
C60	C	0.905527	-0.577759	-0.139117
C61	C	0.905626	-0.577431	-0.069476
H62	H	0.346573	-0.381661	-0.311057
H63	H	0.346443	-0.773988	-0.292786
C64	C	0.135434	-0.416794	-0.386222
C65	C	0.144464	-0.426813	-0.457439
C66	C	0.108531	-0.342499	-0.501601
C67	C	0.063567	-0.248166	-0.474546
C68	C	0.054534	-0.238143	-0.403325
C69	C	0.090468	-0.322457	-0.359163
H70	H	0.177751	-0.496648	-0.477470
H71	H	0.115217	-0.349919	-0.554323
H72	H	0.036966	-0.185752	-0.507237
H73	H	0.021247	-0.168308	-0.383294
H74	H	0.083781	-0.315037	-0.306441
C75	C	0.538883	-0.738837	-0.217614
C76	C	0.493886	-0.686678	-0.168475
C77	C	0.457848	-0.770975	-0.124328
C78	C	0.466806	-0.907430	-0.129318
C79	C	0.511805	-0.959595	-0.178458
C80	C	0.547843	-0.875299	-0.222606
H81	H	0.487252	-0.585660	-0.164780
H82	H	0.424537	-0.732358	-0.087951
H83	H	0.440129	-0.969831	-0.096637
H84	H	0.518439	-1.060614	-0.182154
H85	H	0.581154	-0.913916	-0.258983
H86	H	0.896639	-0.773772	-0.861583
H87	H	0.263478	-0.438740	-0.374747
H88	H	0.896465	-0.773823	-0.742879
C89	C	0.272654	-0.738740	-0.217635
C90	C	0.344629	-0.738766	-0.217626
C91	C	0.380568	-0.823085	-0.173472
C92	C	0.344532	-0.907380	-0.129326
C93	C	0.272553	-0.907357	-0.129333
C94	C	0.236614	-0.823038	-0.173488
H95	H	0.371309	-0.676363	-0.250307
H96	H	0.433852	-0.823102	-0.173466
H97	H	0.371136	-0.969798	-0.096640
H98	H	0.245873	-0.969760	-0.096653
H99	H	0.183330	-0.823022	-0.173493
H100	H	0.144603	-0.716792	-0.229111
C101	C	0.676294	-0.738879	-0.217599
C102	C	0.640259	-0.823172	-0.173451
C103	C	0.676200	-0.907494	-0.129300
C104	C	0.748175	-0.907525	-0.129295
C105	C	0.784214	-0.823229	-0.173444
C106	C	0.748273	-0.738906	-0.217596
H107	H	0.586976	-0.823152	-0.173453
H108	H	0.649521	-0.969896	-0.096617
H109	H	0.774780	-0.969945	-0.096611
H110	H	0.837497	-0.823248	-0.173443
H111	H	0.774952	-0.676505	-0.250278
H112	H	0.914619	-0.381387	-0.861568
H113	H	0.465147	-0.774033	-0.292775
C114	C	0.474649	-0.350813	-0.312483
C115	C	0.519619	-0.311939	-0.260094
C116	C	0.555651	-0.193019	-0.265622
C117	C	0.546715	-0.112972	-0.323540
C118	C	0.501743	-0.151845	-0.375934
C119	C	0.465710	-0.270765	-0.370405
H120	H	0.526236	-0.371196	-0.217216
H121	H	0.588942	-0.164243	-0.226837
H122	H	0.573388	-0.024940	-0.327633
H123	H	0.495126	-0.092588	-0.418812
H124	H	0.432420	-0.299541	-0.409191
H125	H	0.978347	-0.438240	-0.944706
C126	C	0.989796	-0.416504	-0.669134
C127	C	1.033890	-0.332094	-0.633163
C128	C	1.077990	-0.247646	-0.669167
C129	C	1.077994	-0.247609	-0.741142
C130	C	1.033898	-0.332023	-0.777117
C131	C	0.989799	-0.416470	-0.741113
H132	H	1.033889	-0.332118	-0.579879
H133	H	1.110633	-0.185158	-0.642535
H134	H	1.110639	-0.185096	-0.767794
H135	H	1.033900	-0.331998	-0.830401
H136	H	0.957155	-0.478958	-0.767745
H137	H	0.667114	-0.438895	-0.374721
C138	C	0.916035	-0.350576	-0.733500
C139	C	0.921486	-0.231600	-0.769476
C140	C	0.926938	-0.112676	-0.733477
C141	C	0.926938	-0.112727	-0.661502
C142	C	0.921487	-0.231707	-0.625521
C143	C	0.916035	-0.350631	-0.661520
H144	H	0.921487	-0.231558	-0.822759
H145	H	0.930974	-0.024599	-0.760112
H146	H	0.930974	-0.024692	-0.634853
H147	H	0.921486	-0.231749	-0.572238
H148	H	0.911999	-0.438708	-0.634885
H149	H	0.832900	-0.716975	-0.659742
C150	C	0.989794	-0.416215	-1.072770
C151	C	1.033886	-0.331804	-1.036794
C152	C	1.077976	-0.247334	-1.072794
C153	C	1.077976	-0.247274	-1.144769
C154	C	1.033883	-0.331688	-1.180748
C155	C	0.989792	-0.416158	-1.144749
H156	H	1.033887	-0.331846	-0.983510
H157	H	1.110617	-0.184845	-1.046159
H158	H	1.110614	-0.184744	-1.171418
H159	H	1.033881	-0.331646	-1.234032
H160	H	0.957152	-0.478647	-1.171383
C161	C	0.821458	-0.738742	-0.935312
C162	C	0.777374	-0.823167	-0.971287
C163	C	0.733285	-0.907640	-0.935287
C164	C	0.733281	-0.907689	-0.863312
C165	C	0.777367	-0.823261	-0.827333
C166	C	0.821455	-0.738787	-0.863333
H167	H	0.777376	-0.823134	-1.024571
H168	H	0.700650	-0.970139	-0.961922
H169	H	0.700644	-0.970221	-0.836663
H170	H	0.777365	-0.823294	-0.774049
H171	H	0.854090	-0.676288	-0.836699
C172	C	0.821439	-0.738999	-0.531674
C173	C	0.750213	-0.729223	-0.540641
C174	C	0.706123	-0.813694	-0.504643
C175	C	0.733257	-0.907943	-0.459677
C176	C	0.804487	-0.917724	-0.450708
C177	C	0.848578	-0.833252	-0.486706
H178	H	0.730123	-0.659451	-0.573929
H179	H	0.653394	-0.806454	-0.511282
H180	H	0.700619	-0.970474	-0.433029
H181	H	0.824577	-0.987495	-0.417420
H182	H	0.901306	-0.840492	-0.480067
H183	H	0.832904	-0.716705	-1.063379
H184	H	0.548407	-0.438842	-0.374723
H185	H	0.978340	-0.438515	-0.541070
