data_functionalizedCrystal
_audit_creation_method	'MofGen! by Chris Wilmer'
_symmetry_space_group_name_H-M	'P1'
_symmetry_Int_Tables_number	1
_symmetry_cell_setting	triclinic
loop_
_symmetry_equiv_pos_as_xyz
  x,y,z
_cell_length_a	12.594517
_cell_length_b	21.295417
_cell_length_c	12.594509
_cell_angle_alpha	89.963755
_cell_angle_beta	89.978673
_cell_angle_gamma	90.030306
loop_
_atom_site_label
_atom_site_type_symbol
_atom_site_fract_x
_atom_site_fract_y
_atom_site_fract_z
Zn1	Zn	1.627160	-0.250594	-0.601801
Zn2	Zn	1.627006	-0.355872	-0.423797
Zn3	Zn	1.449164	-0.250621	-0.423830
Zn4	Zn	1.449101	-0.355829	-0.601727
O5	O	1.538108	-0.303229	-0.512789
O6	O	1.776085	-0.264566	-0.578205
O7	O	1.603377	-0.341940	-0.274856
O8	O	1.472866	-0.162528	-0.447482
O9	O	1.775972	-0.341914	-0.447427
O10	O	1.603639	-0.162508	-0.578237
O11	O	1.472717	-0.264612	-0.274879
O12	O	1.300210	-0.264570	-0.447411
O13	O	1.472759	-0.341839	-0.750683
O14	O	1.300164	-0.341865	-0.578112
O15	O	1.603578	-0.264524	-0.750737
O16	O	1.603316	-0.443956	-0.447356
O17	O	1.472610	-0.443924	-0.578080
C18	C	1.261567	-0.303216	-0.512757
C19	C	1.143261	-0.303226	-0.512769
C20	C	1.074002	-0.261127	-0.441817
C21	C	1.003167	-0.318547	-0.415623
C22	C	1.003298	-0.245834	-0.538981
C23	C	1.073984	-0.360676	-0.486525
C24	C	1.074121	-0.287924	-0.609928
C25	C	1.003318	-0.345384	-0.583771
C26	C	1.537968	-0.466780	-0.512730
C27	C	1.538006	-0.536748	-0.512740
C28	C	1.606125	-0.569611	-0.444742
C29	C	1.606175	-0.635353	-0.444766
C30	C	1.538087	-0.668231	-0.512777
C31	C	1.469963	-0.635361	-0.580789
C32	C	1.469923	-0.569619	-0.580770
N33	N	1.444976	-0.771496	-0.520881
N34	N	1.445018	-0.833948	-0.520892
C35	C	1.538206	-0.866306	-0.512838
N36	N	1.631353	-0.833853	-0.504752
N37	N	1.631311	-0.771396	-0.504735
C38	C	1.538123	-0.739516	-0.512805
C39	C	1.606385	-0.970454	-0.444862
C40	C	1.606436	-1.036197	-0.444893
C41	C	1.470215	-1.036203	-0.580910
C42	C	1.470173	-0.970461	-0.580885
C43	C	1.538256	-0.937590	-0.512855
C44	C	1.815729	-0.303242	-0.512821
C45	C	1.934034	-0.303247	-0.512835
C46	C	1.538179	-0.303174	-0.790410
C47	C	1.538209	-0.303150	-0.908715
C48	C	1.538277	-0.139038	-0.512871
C49	C	1.538349	-0.069070	-0.512906
C50	C	1.467079	-0.345178	-0.977939
C51	C	1.564193	-0.360559	-1.048726
C52	C	1.441171	-0.287731	-1.048728
C53	C	1.635374	-0.318561	-0.977944
C54	C	1.512287	-0.245707	-0.977939
C55	C	1.609468	-0.261066	-1.048694
C56	C	1.538098	-0.303238	-0.236248
C57	C	1.538274	-0.303084	-0.117943
H58	H	0.972192	-0.197296	-0.561087
O59	O	1.590219	-0.418515	-1.085780
C60	C	1.515011	-0.462722	-1.049715
H61	H	1.437529	-0.437691	-1.029850
H62	H	1.500072	-0.499039	-1.114480
H63	H	1.546618	-0.487183	-0.975656
H64	H	1.105311	-0.274950	-0.692040
O65	O	1.403890	-0.938632	-0.646962
C66	C	1.343821	-0.981745	-0.707016
H67	H	1.340191	-1.028631	-0.663432
H68	H	1.259940	-0.962790	-0.718283
H69	H	1.382754	-0.988676	-0.787894
H70	H	1.661826	-0.943689	-0.389471
H71	H	1.669717	-0.225496	-1.079565
O72	O	1.672481	-0.667223	-0.378756
C73	C	1.778555	-0.651119	-0.402100
H74	H	1.780741	-0.603363	-0.442995
H75	H	1.826306	-0.648893	-0.325314
H76	H	1.814394	-0.688076	-0.456864
O77	O	1.733261	-0.334175	-0.940838
C78	C	1.732040	-0.334033	-0.828896
H79	H	1.647205	-0.341038	-0.799588
H80	H	1.784233	-0.373755	-0.797981
H81	H	1.763694	-0.287192	-0.798599
O82	O	0.966028	-0.333901	-0.317574
C83	C	1.002056	-0.289398	-0.242968
H84	H	1.021977	-0.243590	-0.285433
H85	H	0.937247	-0.280535	-0.181574
H86	H	1.076073	-0.308082	-0.201568
H87	H	1.490297	-0.197170	-0.946822
O88	O	1.395361	-0.387688	-0.941045
C89	C	1.345760	-0.417816	-1.027480
H90	H	1.399153	-0.414570	-1.100389
H91	H	1.331375	-0.469276	-1.007008
H92	H	1.266645	-0.393966	-1.044937
O93	O	1.343293	-0.272235	-1.086001
C94	C	1.344940	-0.271843	-1.197936
H95	H	1.412706	-0.302730	-1.227412
H96	H	1.266319	-0.290738	-1.229411
H97	H	1.357125	-0.221744	-1.227499
H98	H	1.661565	-0.542849	-0.389350
O99	O	1.110860	-0.218688	-0.370076
C100	C	1.024399	-0.189328	-0.319203
H101	H	0.951480	-0.220902	-0.324580
H102	H	1.044807	-0.180789	-0.232223
H103	H	1.006995	-0.142552	-0.359668
O104	O	1.672512	-1.068219	-0.378871
C105	C	1.612049	-1.106343	-0.310066
H106	H	1.531330	-1.116191	-0.347461
H107	H	1.655453	-1.152567	-0.295990
H108	H	1.600472	-1.081102	-0.231110
O109	O	1.404223	-1.068200	-0.647034
C110	C	1.464812	-1.106148	-0.715866
H111	H	1.545499	-1.115973	-0.678402
H112	H	1.421479	-1.152394	-0.730109
H113	H	1.476449	-1.080766	-0.794744
H114	H	1.104905	-0.409235	-0.464291
O115	O	1.403969	-0.667364	-0.646906
C116	C	1.464554	-0.705317	-0.715732
H117	H	1.545242	-0.715141	-0.678268
H118	H	1.421219	-0.751563	-0.729968
H119	H	1.476192	-0.679939	-0.794615
O120	O	1.403797	-0.537762	-0.646971
C121	C	1.427029	-0.553748	-0.753083
H122	H	1.467975	-0.601458	-0.755345
H123	H	1.350188	-0.556014	-0.800740
H124	H	1.481708	-0.516700	-0.788967
O125	O	0.966564	-0.387998	-0.655266
C126	C	1.002797	-0.448414	-0.627285
H127	H	1.022499	-0.449545	-0.538968
H128	H	0.938198	-0.484419	-0.645056
H129	H	1.076991	-0.460133	-0.675205
