data_functionalizedCrystal
_audit_creation_method	'MofGen! by Chris Wilmer'
_symmetry_space_group_name_H-M	'P1'
_symmetry_Int_Tables_number	1
_symmetry_cell_setting	triclinic
loop_
_symmetry_equiv_pos_as_xyz
  x,y,z
_cell_length_a	18.101398
_cell_length_b	18.101395
_cell_length_c	14.908308
_cell_angle_alpha	93.264195
_cell_angle_beta	86.727651
_cell_angle_gamma	89.964856
loop_
_atom_site_label
_atom_site_type_symbol
_atom_site_fract_x
_atom_site_fract_y
_atom_site_fract_z
Zn1	Zn	1.107906	0.319030	0.510218
Zn2	Zn	1.114938	0.435737	0.359360
Zn3	Zn	0.991215	0.311909	0.359363
Zn4	Zn	0.984005	0.442826	0.510152
O5	O	1.049516	0.377375	0.434773
O6	O	1.212470	0.334525	0.490233
O7	O	1.104486	0.413363	0.233120
O8	O	1.006768	0.209222	0.379403
O9	O	1.217637	0.420268	0.379399
O10	O	1.092501	0.214454	0.490236
O11	O	1.013587	0.322387	0.233122
O12	O	0.886627	0.329262	0.379339
O13	O	0.994480	0.432352	0.636401
O14	O	0.881330	0.425446	0.490123
O15	O	1.085509	0.341399	0.636450
O16	O	1.097495	0.540309	0.379334
O17	O	1.001299	0.545517	0.490121
C18	C	0.857108	0.377351	0.434724
C19	C	0.774793	0.377360	0.434725
C20	C	1.049397	0.569784	0.434740
C21	C	1.049413	0.652099	0.434755
C22	C	0.624083	0.377377	0.434765
C23	C	0.596032	0.316784	0.365179
C24	C	0.510403	0.316579	0.365408
C25	C	0.475699	0.377394	0.434804
C26	C	0.502330	0.361066	0.529984
C27	C	0.587995	0.360622	0.529560
C28	C	0.593644	0.454486	0.410011
C29	C	0.508091	0.453975	0.407936
C30	C	0.391838	0.377405	0.434831
C31	C	0.707944	0.377364	0.434744
C32	C	1.049481	0.802809	0.434795
C33	C	0.988928	0.837469	0.504445
C34	C	0.989122	0.923101	0.504741
C35	C	1.049548	0.951194	0.434834
C36	C	1.126413	0.921225	0.460418
C37	C	1.126020	0.835603	0.460902
C38	C	1.033875	0.829930	0.339393
C39	C	1.032168	0.915607	0.339923
C40	C	1.049590	1.035054	0.434854
C41	C	1.049444	0.718949	0.434777
C42	C	1.242675	0.377400	0.434823
C43	C	1.324988	0.377411	0.434844
C44	C	1.038406	0.388461	0.670074
C45	C	1.033672	0.393185	0.770345
C46	C	1.049630	1.184216	0.434833
C47	C	1.049617	1.101904	0.434873
C48	C	1.060625	0.366280	0.200389
C49	C	1.065503	0.361347	0.100118
C50	C	1.119562	0.307335	0.958817
C51	C	1.115116	0.311771	1.053030
C52	C	1.020330	0.406489	1.052987
C53	C	1.024776	0.402053	0.958773
C54	C	1.074395	0.352475	0.911691
C55	C	1.078844	0.348043	0.817476
C56	C	0.984055	0.442756	0.817435
C57	C	0.979609	0.447192	0.911648
H58	H	0.492689	0.326236	0.294844
H59	H	0.975622	0.935083	0.320625
H60	H	0.607014	0.304401	0.550483
H61	H	0.479906	0.305496	0.551277
H62	H	1.078029	0.807183	0.287500
Br63	Br	0.468768	0.532606	0.486235
Br64	Br	0.952990	0.473759	1.116899
H65	H	0.491053	0.466374	0.337888
H66	H	1.119247	0.307676	0.779144
H67	H	0.489168	0.259356	0.381843
H68	H	0.611511	0.499572	0.460694
H69	H	0.606194	0.403098	0.583202
H70	H	1.139751	0.818874	0.530634
H71	H	1.172585	0.939232	0.411260
Br72	Br	0.893895	0.956989	0.478100
Br73	Br	0.893351	0.802003	0.478106
H74	H	1.172444	0.812553	0.412366
H75	H	0.619927	0.326282	0.294381
H76	H	1.140495	0.945886	0.529396
Br77	Br	1.176415	0.250505	1.116984
Br78	Br	1.186909	0.240065	0.894916
H79	H	0.479459	0.404051	0.583267
Br80	Br	1.005338	0.807072	0.621600
Br81	Br	0.912271	0.514470	0.975552
H82	H	1.073414	0.934407	0.285278
H83	H	0.978998	0.807292	0.316051
H84	H	0.618438	0.470279	0.341764
H85	H	0.616817	0.259875	0.381403
Br86	Br	0.922763	0.504032	0.753474
H87	H	0.999154	0.946886	0.575434
