data_functionalizedCrystal
_audit_creation_method	'MofGen! by Chris Wilmer'
_symmetry_space_group_name_H-M	'P1'
_symmetry_Int_Tables_number	1
_symmetry_cell_setting	triclinic
loop_
_symmetry_equiv_pos_as_xyz
  x,y,z
_cell_length_a	15.995292
_cell_length_b	14.472310
_cell_length_c	19.288865
_cell_angle_alpha	90.006324
_cell_angle_beta	83.302432
_cell_angle_gamma	90.014199
loop_
_atom_site_label
_atom_site_type_symbol
_atom_site_fract_x
_atom_site_fract_y
_atom_site_fract_z
O1	O	1.110690	0.076877	0.089334
O2	O	1.610690	0.576877	0.589334
O3	O	0.866866	0.076875	0.100432
O4	O	1.366866	0.576875	0.600432
O5	O	0.995823	0.076857	-0.006231
O6	O	1.495823	0.576857	0.493769
O7	O	0.981733	0.076894	0.195996
O8	O	1.481733	0.576894	0.695996
O9	O	0.995790	-0.076825	-0.006224
O10	O	1.495790	0.423175	0.493776
O11	O	0.866833	-0.076808	0.100438
O12	O	1.366833	0.423192	0.600438
O13	O	1.110657	-0.076805	0.089340
O14	O	1.610657	0.423195	0.589340
Cu15	Cu	0.988742	-0.090839	0.094889
Cu16	Cu	1.488742	0.409161	0.594889
Cu17	Cu	0.988781	0.090908	0.094882
Cu18	Cu	1.488781	0.590908	0.594882
O19	O	0.981700	-0.076788	0.196002
O20	O	1.481700	0.423212	0.696002
C21	C	0.835656	0.000033	0.099983
C22	C	1.335656	0.500033	0.599983
C23	C	0.742708	0.000031	0.098629
C24	C	1.242708	0.500031	0.598629
C25	C	0.404988	0.000041	0.093651
C26	C	0.904988	0.500041	0.593651
C27	C	0.428010	0.000398	0.170637
C28	C	0.928010	0.500398	0.670637
C29	C	0.524680	0.000048	0.172100
C30	C	1.024680	0.500048	0.672100
C31	C	0.572535	0.000037	0.096121
C32	C	1.072535	0.500037	0.596121
C33	C	0.543559	-0.087727	0.057635
C34	C	1.043559	0.412273	0.557635
C35	C	0.446772	-0.087797	0.056708
C36	C	0.946772	0.412203	0.556708
C37	C	0.446960	0.086968	0.055129
C38	C	0.946960	0.586968	0.555129
C39	C	0.543442	0.088124	0.057982
C40	C	1.043442	0.588124	0.557982
C41	C	0.667226	0.000031	0.097513
C42	C	1.167226	0.500031	0.597513
C43	C	0.310298	0.000040	0.092256
C44	C	0.810298	0.500040	0.592256
N45	N	0.988720	-0.218670	0.094894
N46	N	1.488720	0.281330	0.594894
C47	C	0.988780	-0.592761	0.094879
C48	C	1.488780	-0.092761	0.594879
C49	C	0.919547	-0.553586	0.151761
C50	C	1.419547	-0.053586	0.651761
C51	C	0.919706	-0.446498	0.151968
C52	C	1.419706	0.053502	0.651968
C53	C	0.988750	-0.407170	0.094887
C54	C	1.488750	0.092830	0.594887
C55	C	1.076057	-0.446003	0.110701
C56	C	1.576057	0.053997	0.610701
C57	C	1.075668	-0.553124	0.111105
C58	C	1.575668	-0.053124	0.611105
C59	C	0.971485	-0.553304	0.022015
C60	C	1.471485	-0.053304	0.522015
C61	C	0.969480	-0.446176	0.022501
C62	C	1.469480	0.053824	0.522501
C63	C	0.988738	-0.302282	0.094889
C64	C	1.488738	0.197718	0.594889
C65	C	0.988797	-0.697649	0.094878
C66	C	1.488797	-0.197649	0.594878
C67	C	1.141867	0.000038	0.089788
C68	C	1.641867	0.500038	0.589788
C69	C	1.234815	0.000046	0.091143
C70	C	1.734815	0.500046	0.591143
C71	C	0.995353	0.000014	-0.032105
C72	C	1.495353	0.500014	0.467895
C73	C	0.993992	0.000005	-0.109212
C74	C	1.493992	0.500005	0.390788
N75	N	0.988809	0.218739	0.094872
N76	N	1.488809	0.718739	0.594872
C77	C	1.069659	0.000002	-0.153725
C78	C	1.569659	0.500002	0.346275
C79	C	1.068380	0.000016	-0.226175
C80	C	1.568380	0.500016	0.273825
C81	C	0.991431	0.000016	-0.254109
C82	C	1.491431	0.500016	0.245891
C83	C	0.915755	0.000025	-0.209586
C84	C	1.415755	0.500025	0.290414
C85	C	0.917035	0.000020	-0.137138
C86	C	1.417035	0.500020	0.362862
C87	C	0.930928	-0.053816	-0.362541
C88	C	1.430928	0.446184	0.137459
C89	C	0.929651	-0.053816	-0.434988
C90	C	1.429651	0.446184	0.065012
C91	C	0.987477	0.000037	-0.477564
C92	C	1.487477	0.500037	0.022436
C93	C	1.046596	0.053878	-0.447685
C94	C	1.546596	0.553878	0.052315
C95	C	1.047877	0.053873	-0.375237
C96	C	1.547877	0.553873	0.124763
C97	C	0.990033	0.000023	-0.332666
C98	C	1.490033	0.500023	0.167334
C99	C	1.061762	0.000050	-0.600637
C100	C	1.561762	0.500050	-0.100637
C101	C	1.060480	0.000070	-0.673088
C102	C	1.560480	0.500070	-0.173088
C103	C	0.907853	0.000070	-0.656497
C104	C	1.407853	0.500070	-0.156497
C105	C	0.909137	0.000059	-0.584048
C106	C	1.409137	0.500059	-0.084048
C107	C	0.986094	0.000045	-0.556122
C108	C	1.486094	0.500045	-0.056122
C109	C	0.982170	0.000058	0.221877
C110	C	1.482170	0.500058	0.721877
C111	C	0.983531	0.000072	0.298983
C112	C	1.483531	0.500072	0.798983
H113	H	0.419840	-0.153394	0.083367
H114	H	0.919840	0.346606	0.583367
H115	H	0.399916	0.063338	0.200308
H116	H	0.899916	0.563338	0.700308
O117	O	0.835416	0.000011	-0.089126
O118	O	1.335416	0.500011	0.410874
H119	H	0.832357	0.062648	-0.055716
H120	H	1.332357	0.562648	0.444284
H121	H	1.090950	-0.578090	0.164244
H122	H	1.590950	-0.078090	0.664244
O123	O	0.427767	-0.093102	-0.018056
O124	O	0.927767	0.406898	0.481944
H125	H	0.487683	-0.095614	-0.053390
H126	H	0.987683	0.404386	0.446610
H127	H	1.096011	0.097714	-0.350912
H128	H	1.596011	0.597714	0.149088
H129	H	0.881509	-0.097652	-0.459310
H130	H	1.381509	0.402348	0.040690
H131	H	0.398867	-0.062178	0.200148
H132	H	0.898867	0.437822	0.700148
H133	H	0.542956	-0.062962	0.202428
H134	H	1.042956	0.437038	0.702428
O135	O	0.567904	0.174135	0.095099
O136	O	1.067904	0.674135	0.595099
H137	H	0.600652	0.154240	0.140518
H138	H	1.100652	0.654240	0.640518
H139	H	1.122100	0.000072	-0.709330
H140	H	1.622100	0.500072	-0.209330
H141	H	0.543606	0.062963	0.202237
H142	H	1.043606	0.562963	0.702237
H143	H	1.128795	-0.420526	0.070373
H144	H	1.628795	0.079474	0.570373
H145	H	1.129998	0.000017	-0.262425
H146	H	1.629998	0.500017	0.237575
O147	O	1.108969	0.111976	-0.493593
O148	O	1.608969	0.611976	0.006407
H149	H	1.098142	0.102948	-0.548990
H150	H	1.598142	0.602948	-0.048990
O151	O	0.868558	-0.111908	-0.316621
O152	O	1.368558	0.388092	0.183379
H153	H	0.827246	-0.149358	-0.349568
H154	H	1.327246	0.350642	0.150432
O155	O	0.833727	-0.411718	0.139505
O156	O	1.333727	0.088282	0.639505
H157	H	0.807125	-0.369257	0.184695
H158	H	1.307125	0.130743	0.684695
H159	H	0.433181	0.087553	-0.001538
H160	H	0.933181	0.587553	0.498462
H161	H	0.854431	-0.579377	0.142496
H162	H	1.354431	-0.079377	0.642496
O163	O	1.144764	0.000048	-0.570514
O164	O	1.644764	0.500048	-0.070514
H165	H	1.132943	0.000032	-0.512657
H166	H	1.632943	0.500032	-0.012657
O167	O	0.824854	0.000066	-0.686613
O168	O	1.324854	0.500066	-0.186613
H169	H	0.836673	0.000063	-0.744470
H170	H	1.336673	0.500063	-0.244470
O171	O	0.933930	-0.589203	0.222987
O172	O	1.433930	-0.089203	0.722987
H173	H	0.990175	-0.634684	0.218051
H174	H	1.490175	-0.134684	0.718051
O175	O	0.586051	-0.092067	-0.016424
O176	O	1.086051	0.407933	0.483576
H177	H	0.564502	-0.154678	-0.042449
H178	H	1.064502	0.345322	0.457551
O179	O	0.827525	0.000040	-0.536030
O180	O	1.327525	0.500040	-0.036030
H181	H	0.773801	0.000031	-0.567623
H182	H	1.273801	0.500031	-0.067623
O183	O	0.832760	0.000024	-0.239714
O184	O	1.332760	0.500024	0.260286
H185	H	0.780357	0.000032	-0.196586
H186	H	1.280357	0.500032	0.303414
H187	H	0.563503	-0.153033	0.084366
H188	H	1.063503	0.346967	0.584366
O189	O	0.934302	-0.412515	0.223589
O190	O	1.434302	0.087485	0.723589
H191	H	0.941284	-0.472594	0.258209
H192	H	1.441284	0.027406	0.758209
O193	O	1.145942	-0.587461	0.058322
O194	O	1.645942	-0.087461	0.558322
H195	H	1.180057	-0.527551	0.032624
H196	H	1.680057	-0.027551	0.532624
O197	O	0.409440	0.175089	0.087069
O198	O	0.909440	0.675089	0.587069
H199	H	0.360453	0.157908	0.130761
H200	H	0.860453	0.657908	0.630761
O201	O	1.096798	-0.410459	0.180291
O202	O	1.596798	0.089541	0.680291
H203	H	1.045064	-0.365148	0.203720
H204	H	1.545064	0.134852	0.703720
H205	H	0.909218	-0.580375	0.006805
H206	H	1.409218	-0.080375	0.506805
O207	O	0.587378	0.095138	-0.015483
O208	O	1.087378	0.595138	0.484517
H209	H	0.630826	0.035680	-0.026008
H210	H	1.130826	0.535680	0.473992
H211	H	1.016651	-0.419409	-0.021810
H212	H	1.516651	0.080591	0.478190
O213	O	0.884404	-0.412577	0.006600
O214	O	1.384404	0.087423	0.506600
H215	H	0.855959	-0.368274	0.050062
H216	H	1.355959	0.131726	0.550062
H217	H	1.021976	-0.578637	-0.020314
H218	H	1.521976	-0.078637	0.479686
H219	H	1.132323	-0.000007	-0.130993
H220	H	1.632323	0.499993	0.369007
