data_functionalizedCrystal
_audit_creation_method	'MofGen! by Chris Wilmer'
_symmetry_space_group_name_H-M	'P1'
_symmetry_Int_Tables_number	1
_symmetry_cell_setting	triclinic
loop_
_symmetry_equiv_pos_as_xyz
  x,y,z
_cell_length_a	10.723024
_cell_length_b	16.109302
_cell_length_c	9.198806
_cell_angle_alpha	90.005885
_cell_angle_beta	90.002012
_cell_angle_gamma	83.964825
loop_
_atom_site_label
_atom_site_type_symbol
_atom_site_fract_x
_atom_site_fract_y
_atom_site_fract_z
O1	O	0.160394	1.104075	0.120954
O2	O	0.180353	0.862130	0.120942
O3	O	-0.011277	0.988683	0.120943
O4	O	0.352024	0.977522	0.120953
O5	O	-0.011277	0.988673	-0.120842
O6	O	0.180353	0.862120	-0.120843
O7	O	0.160393	1.104065	-0.120831
Cu8	Cu	0.170373	0.983092	-0.142914
Cu9	Cu	0.170374	0.983104	0.143025
O10	O	0.352023	0.977512	-0.120832
C11	C	0.179544	0.831146	0.000048
C12	C	0.177120	0.738836	0.000044
C13	C	0.171514	0.526457	-0.131739
C14	C	0.169222	0.439723	-0.131734
C15	C	0.169229	0.439745	0.131873
C16	C	0.171512	0.526477	0.131867
C17	C	0.172660	0.569831	0.000056
C18	C	0.168086	0.396364	0.000068
C19	C	0.165602	0.302324	0.000074
C20	C	0.175142	0.663877	0.000049
C21	C	-0.057766	0.987866	0.000052
C22	C	-0.196288	0.985436	0.000057
C23	C	-0.272209	1.056248	0.000063
C24	C	-0.415379	1.053738	0.000068
C25	C	0.398512	0.978329	0.000062
C26	C	0.537034	0.980759	0.000067
C27	C	0.161202	1.135049	0.000066
C28	C	0.163627	1.227359	0.000080
N29	N	0.170372	0.983089	-0.344028
C30	C	0.089560	1.036225	-0.416224
C31	C	0.089556	1.036238	-0.583637
N32	N	0.170365	0.983112	0.344139
H33	H	-0.231215	1.118732	0.000057
O34	O	0.253032	0.928805	-0.582038
C35	C	0.421684	0.817852	-0.597810
C36	C	0.328152	0.879323	-0.681608
H37	H	0.482425	0.777818	-0.678275
H38	H	0.483899	0.854217	-0.526575
H39	H	0.367901	0.775974	-0.526525
H40	H	0.381833	0.921216	-0.752972
H41	H	0.265938	0.842906	-0.752751
H42	H	0.020372	1.081705	-0.354098
H43	H	-0.397737	0.920135	0.000052
H44	H	0.168295	0.404436	0.239189
H45	H	0.172442	0.561794	0.239197
H46	H	-0.480615	1.114359	0.000066
O47	O	0.168272	0.397483	-0.259666
C48	C	0.273751	0.290772	-0.412686
C49	C	0.274974	0.338530	-0.267733
H50	H	0.360024	0.243110	-0.419269
H51	H	0.185461	0.257222	-0.419289
H52	H	0.274900	0.336678	-0.506868
H53	H	0.273872	0.292681	-0.173469
H54	H	0.363257	0.372093	-0.261256
O55	O	0.006840	1.090474	-0.657536
C56	C	-0.210213	1.137505	-0.704449
C57	C	-0.116671	1.076048	-0.620638
H58	H	-0.310092	1.125851	-0.674672
H59	H	-0.194341	1.204267	-0.674555
H60	H	-0.195445	1.127856	-0.826263
H61	H	-0.131383	1.085621	-0.498806
H62	H	-0.132566	1.009308	-0.650653
H63	H	0.172449	0.561752	-0.239068
H64	H	0.239550	0.937604	-0.406156
H65	H	-0.237282	0.922953	0.000064
