data_functionalizedCrystal
_audit_creation_method	'MofGen! by Chris Wilmer'
_symmetry_space_group_name_H-M	'P1'
_symmetry_Int_Tables_number	1
_symmetry_cell_setting	triclinic
loop_
_symmetry_equiv_pos_as_xyz
  x,y,z
_cell_length_a	10.686220
_cell_length_b	12.645323
_cell_length_c	10.686685
_cell_angle_alpha	94.351910
_cell_angle_beta	89.688259
_cell_angle_gamma	94.348465
loop_
_atom_site_label
_atom_site_type_symbol
_atom_site_fract_x
_atom_site_fract_y
_atom_site_fract_z
Zn1	Zn	1.956150	-0.496223	-0.352043
Zn2	Zn	1.972122	-0.331470	-0.561818
Zn3	Zn	1.746373	-0.333516	-0.368201
Zn4	Zn	1.762454	-0.523217	-0.577843
O5	O	1.859275	-0.421106	-0.464976
O6	O	2.133807	-0.462215	-0.366401
O7	O	1.942130	-0.183400	-0.536190
O8	O	1.760786	-0.344658	-0.190530
O9	O	2.145542	-0.341171	-0.520522
O10	O	1.914908	-0.464199	-0.178658
O11	O	1.776274	-0.184903	-0.393941
O12	O	1.572967	-0.370833	-0.409480
O13	O	1.788194	-0.667977	-0.547835
O14	O	1.584782	-0.510206	-0.563503
O15	O	1.930501	-0.648145	-0.381940
O16	O	1.957723	-0.367346	-0.739472
O17	O	1.803681	-0.508222	-0.751245
C18	C	1.533360	-0.443672	-0.489985
C19	C	1.393934	-0.453352	-0.500713
C20	C	1.859360	-0.697600	-0.464872
C21	C	1.859396	-0.815425	-0.464828
C22	C	1.769536	-0.995459	-0.568759
C23	C	1.769827	-0.872910	-0.569217
C24	C	1.994324	-0.852917	-0.490549
C25	C	1.993837	-0.975589	-0.491195
C26	C	1.815535	-0.977040	-0.334541
C27	C	1.812648	-0.854686	-0.335564
C28	C	2.186462	-0.398454	-0.439871
C29	C	2.325890	-0.388801	-0.429173
C30	C	1.884214	-0.440512	-0.790868
C31	C	1.894999	-0.448842	-0.930277
C32	C	1.859255	-0.145678	-0.464984
C33	C	1.859435	-0.027816	-0.464656
C34	C	1.834271	-0.401646	-0.137809
C35	C	1.823617	-0.393353	0.001610
H36	H	1.374300	-0.326128	-0.359718
Cl37	Cl	1.319194	-0.550110	-0.607970
Cl38	Cl	2.002105	-0.532019	-1.004907
Cl39	Cl	1.615845	-0.834856	-0.546176
H40	H	1.713302	-0.830719	-0.315982
H41	H	2.063545	-0.814559	-0.416677
H42	H	1.718321	-1.012562	-0.309116
Cl43	Cl	1.615121	-1.049431	-0.546089
H44	H	1.799080	-1.030574	-0.664831
Cl45	Cl	1.716529	-0.310167	-0.923763
Cl46	Cl	1.815919	-0.834304	-0.718447
Cl47	Cl	2.050579	-0.811259	-0.635308
H48	H	2.063636	-0.996058	-0.418113
Cl49	Cl	2.049448	-1.025631	-0.637581
H50	H	1.872531	-0.814993	-0.254718
H51	H	1.880889	-0.996850	-0.257106
