data_functionalizedCrystal
_audit_creation_method	'MofGen! by Chris Wilmer'
_symmetry_space_group_name_H-M	'P1'
_symmetry_Int_Tables_number	1
_symmetry_cell_setting	triclinic
loop_
_symmetry_equiv_pos_as_xyz
  x,y,z
_cell_length_a	14.809374
_cell_length_b	23.196402
_cell_length_c	23.196402
_cell_angle_alpha	60.002465
_cell_angle_beta	90.001393
_cell_angle_gamma	52.847629
loop_
_atom_site_label
_atom_site_type_symbol
_atom_site_fract_x
_atom_site_fract_y
_atom_site_fract_z
Zr1	Zr	0.991027	0.491765	-0.006014
O2	O	0.826773	0.635107	-0.109598
O3	O	1.041376	0.364426	0.025736
O4	O	1.041376	0.484692	-0.094528
O5	O	0.826776	0.514841	0.105538
O6	O	1.210664	0.460908	-0.082637
O7	O	0.826772	0.514842	0.010667
O8	O	1.210663	0.245775	0.132494
O9	O	0.826777	0.729974	-0.109593
O10	O	1.189192	0.393126	0.048156
O11	O	1.062857	0.410875	0.110083
O12	O	1.062858	0.552472	-0.031513
O13	O	0.936523	0.570221	0.030414
Zr14	Zr	1.261029	0.453832	0.164260
Zr15	Zr	1.261022	0.453833	0.012951
Zr16	Zr	0.991034	0.491764	0.145294
Zr17	Zr	0.991035	0.643067	-0.006007
Zr18	Zr	1.261021	0.302530	0.164253
O19	O	1.210680	0.581171	0.132509
O20	O	1.210670	0.581172	-0.082631
O21	O	0.826782	0.635106	0.105543
O22	O	1.425283	0.310490	0.267843
O23	O	1.425274	0.310491	0.052702
O24	O	1.041386	0.364425	0.240877
O25	O	1.425280	0.430756	0.052708
O26	O	1.210679	0.460905	0.252774
O27	O	1.041391	0.484689	0.240883
O28	O	1.425284	0.430755	0.147579
O29	O	1.041387	0.699823	-0.094518
O30	O	1.210669	0.245774	0.252764
O31	O	1.425279	0.215623	0.267839
O32	O	1.425273	0.215624	0.147569
O33	O	0.826783	0.729973	0.010677
O34	O	1.041392	0.699822	0.025752
O35	O	1.189198	0.393125	0.189758
O36	O	1.315533	0.375376	0.127832
O37	O	1.189199	0.534722	0.048163
O38	O	1.062864	0.552471	0.110089
C39	C	1.126019	0.283543	0.079114
C40	C	1.126016	0.219312	0.079111
C41	C	0.788306	0.520246	0.055400
C42	C	0.673686	0.536349	0.047349
C43	C	1.191952	0.179878	0.046783
C44	C	1.191964	0.119515	0.046789
C45	C	1.126015	0.098604	0.079113
C46	C	1.060076	0.138042	0.111449
C47	C	1.060076	0.198396	0.111448
C48	C	1.015552	0.052094	0.066079
C49	C	1.015548	-0.008255	0.066075
C50	C	1.126017	-0.087551	0.079120
C51	C	1.236488	-0.106483	0.092155
C52	C	1.236488	-0.046129	0.092154
C53	C	1.126008	0.033161	0.079118
C54	C	1.191973	-0.192439	0.046798
C55	C	1.191988	-0.252807	0.046809
C56	C	1.060087	-0.234271	0.111464
C57	C	1.060084	-0.173912	0.111457
C58	C	1.126024	-0.152996	0.079120
C59	C	0.685255	0.464482	0.083281
C60	C	0.566791	0.481124	0.074960
C61	C	1.463750	0.425351	0.102845
C62	C	1.578370	0.409247	0.110897
C63	C	1.126019	0.472800	-0.110141
C64	C	1.126017	0.472800	-0.174375
C65	C	1.126037	0.662053	0.079132
C66	C	1.126040	0.726285	0.079135
C67	C	1.032768	0.485910	-0.643766
C68	C	1.032768	0.485905	-0.583408
C69	C	1.126030	0.472803	-0.546675
C70	C	1.219317	0.459682	-0.570293
C71	C	1.219322	0.459679	-0.630645
C72	C	1.155094	0.516225	-0.472766
C73	C	1.155081	0.516234	-0.412418
C74	C	1.126022	0.472808	-0.360527
C75	C	1.096949	0.429387	-0.368998
C76	C	1.096954	0.429384	-0.429350
C77	C	1.126035	0.472804	-0.481233
C78	C	1.032745	0.485915	-0.271466
C79	C	1.032753	0.485904	-0.211105
C80	C	1.219297	0.459690	-0.197995
C81	C	1.219294	0.459693	-0.258351
C82	C	1.126011	0.472811	-0.295086
C83	C	1.126036	0.472797	0.268386
C84	C	1.126039	0.472797	0.332621
C85	C	1.463741	0.236096	0.102837
C86	C	1.578358	0.155761	0.110885
C87	C	1.126027	0.283542	0.268378
C88	C	1.126027	0.219310	0.332609
C89	C	1.463749	0.236094	0.292100
C90	C	1.578369	0.155759	0.364383
C91	C	0.788306	0.709502	-0.133855
C92	C	0.673687	0.789838	-0.206137
C93	C	0.788315	0.709501	0.055409
C94	C	0.673698	0.789836	0.047361
C95	C	1.126029	0.662055	-0.110132
C96	C	1.126029	0.726287	-0.174363
C97	C	1.566234	0.127300	0.073068
C98	C	1.673918	0.051827	0.080616
C99	C	1.793725	0.004812	0.125984
C100	C	1.805846	0.033279	0.163802
C101	C	1.698163	0.108755	0.156250
C102	C	1.191975	0.179881	0.404369
C103	C	1.191970	0.119537	0.464726
C104	C	1.126023	0.098619	0.453323
C105	C	1.060067	0.138056	0.381556
C106	C	1.060065	0.198403	0.321199
C107	C	1.698152	0.108767	0.366003
C108	C	1.805860	0.033290	0.433915
C109	C	1.793781	0.004804	0.500206
C110	C	1.673986	0.051804	0.498584
C111	C	1.566281	0.127283	0.430672
C112	C	0.553904	0.836838	-0.207758
C113	C	0.446196	0.912333	-0.275670
C114	C	0.458274	0.940822	-0.341961
C115	C	0.578070	0.893818	-0.340338
C116	C	0.685775	0.818329	-0.272427
C117	C	0.685822	0.818303	0.085171
C118	C	0.578137	0.893793	0.077607
C119	C	0.458331	0.940810	0.032236
C120	C	0.446210	0.912340	-0.005578
C121	C	0.553893	0.836856	0.001982
C122	C	1.191989	0.747184	-0.162937
C123	C	1.192014	0.807525	-0.223281
C124	C	1.126071	0.846973	-0.295053
C125	C	1.060109	0.826070	-0.306478
C126	C	1.060092	0.765725	-0.246134
H127	H	1.245648	0.196903	0.020454
Br128	Br	1.386418	-0.214092	0.109854
H129	H	0.370659	1.002273	0.026087
H130	H	0.587890	0.917024	-0.394320
Br131	Br	0.283633	0.976108	-0.277854
Br132	Br	0.906178	0.503707	-0.693617
Br133	Br	1.281492	0.208250	0.419866
H134	H	1.126035	0.049479	0.502476
Br135	Br	0.906177	0.503702	-0.551353
H136	H	1.903407	-0.005012	0.200740
H137	H	1.245687	0.715073	-0.104502
Br138	Br	0.283605	0.976158	-0.067148
Br139	Br	0.511006	0.659441	-0.014187
H140	H	1.245660	0.087402	0.020463
Br141	Br	0.847935	0.341391	0.144842
H142	H	0.956792	0.496592	-0.301375
H143	H	0.956804	0.496577	-0.191876
H144	H	1.245684	0.087434	0.523157
H145	H	1.073285	0.394027	-0.436244
H146	H	1.006375	0.121015	0.372281
Br147	Br	1.657439	0.013209	0.029288
Br148	Br	0.970560	0.251904	0.223812
Br149	Br	1.345878	0.441899	-0.290405
Br150	Br	0.404110	0.604221	0.013422
Br151	Br	1.345879	0.441895	-0.148141
Br152	Br	1.714579	0.147413	0.276047
H153	H	0.370564	1.002292	-0.397253
Br154	Br	0.537477	0.798189	-0.117801
H155	H	1.073282	0.394027	-0.326749
Br156	Br	1.194503	0.575184	-0.400938
H157	H	1.903393	-0.004971	0.435223
H158	H	1.326438	-0.061549	0.102770
Br159	Br	0.594617	0.932411	0.128934
H160	H	1.881397	-0.056645	0.132127
H161	H	1.881492	-0.056658	0.555499
H162	H	0.675977	0.335393	0.147825
H163	H	0.783364	0.780026	0.122120
Br164	Br	1.657615	0.013132	0.588557
H165	H	1.178755	0.551593	-0.515016
H166	H	1.468752	0.165537	0.429363
Br167	Br	1.345895	0.441892	-0.520439
H168	H	0.783305	0.780061	-0.271116
Br169	Br	1.281534	0.835883	-0.207758
Br170	Br	1.403653	0.191094	0.011489
Br171	Br	1.345914	0.441879	-0.662694
Br172	Br	0.537417	0.798229	-0.049335
H173	H	1.708052	0.131917	0.187050
H174	H	1.126094	0.896109	-0.344183
Br175	Br	0.970608	0.879624	-0.403889
H176	H	1.006374	0.748719	-0.255448
H177	H	1.245689	-0.284920	0.020487
Br178	Br	1.281468	-0.164055	0.002918
H179	H	1.006391	-0.251297	0.137783
H180	H	1.006386	-0.141800	0.137780
H181	H	0.925583	0.116670	0.055441
Br182	Br	0.970589	0.109653	0.155328
Br183	Br	0.865624	0.017448	0.048378
Br184	Br	0.970586	0.251916	0.155328
