data_functionalizedCrystal
_audit_creation_method	'MofGen! by Chris Wilmer'
_symmetry_space_group_name_H-M	'P1'
_symmetry_Int_Tables_number	1
_symmetry_cell_setting	triclinic
loop_
_symmetry_equiv_pos_as_xyz
  x,y,z
_cell_length_a	29.839135
_cell_length_b	29.839131
_cell_length_c	29.839125
_cell_angle_alpha	90.017709
_cell_angle_beta	90.015488
_cell_angle_gamma	90.043950
loop_
_atom_site_label
_atom_site_type_symbol
_atom_site_fract_x
_atom_site_fract_y
_atom_site_fract_z
Zn1	Zn	0.686720	-0.178886	0.254047
Zn2	Zn	1.020053	0.154447	0.587381
Zn3	Zn	1.353386	0.487781	0.920714
Zn4	Zn	0.686652	-0.253998	0.178917
Zn5	Zn	1.019985	0.079335	0.512251
Zn6	Zn	1.353318	0.412669	0.845584
Zn7	Zn	0.611602	-0.178886	0.178925
Zn8	Zn	0.944936	0.154447	0.512259
Zn9	Zn	1.278269	0.487781	0.845592
Zn10	Zn	0.611550	-0.253993	0.254014
Zn11	Zn	0.944883	0.079340	0.587347
Zn12	Zn	1.278217	0.412674	0.920681
O13	O	0.649131	-0.216441	0.216476
O14	O	0.982464	0.116893	0.549809
O15	O	1.315798	0.450226	0.883143
O16	O	0.749578	-0.188852	0.244092
O17	O	1.082911	0.144482	0.577425
O18	O	1.416244	0.477815	0.910758
O19	O	0.676690	-0.244036	0.116051
O20	O	1.010023	0.089297	0.449384
O21	O	1.343356	0.422630	0.782718
O22	O	0.621617	-0.116019	0.188908
O23	O	0.954950	0.217314	0.522241
O24	O	1.288284	0.550648	0.855574
O25	O	0.749528	-0.244036	0.188894
O26	O	1.082861	0.089297	0.522227
O27	O	1.416195	0.422630	0.855560
O28	O	0.676805	-0.116019	0.244099
O29	O	1.010139	0.217314	0.577433
O30	O	1.343472	0.550648	0.910766
O31	O	0.621551	-0.188852	0.116057
O32	O	0.954885	0.144481	0.449390
O33	O	1.288218	0.477815	0.782724
O34	O	0.548728	-0.188847	0.188876
O35	O	0.882062	0.144486	0.522209
O36	O	1.215395	0.477819	0.855542
O37	O	0.621528	-0.244028	0.316886
O38	O	0.954861	0.089306	0.650219
O39	O	1.288195	0.422639	0.983552
O40	O	0.548690	-0.244028	0.244043
O41	O	0.882023	0.089305	0.577376
O42	O	1.215357	0.422639	0.910710
O43	O	0.676755	-0.188847	0.316910
O44	O	1.010088	0.144486	0.650243
O45	O	1.343421	0.477820	0.983577
O46	O	0.676639	-0.316865	0.188862
O47	O	1.009972	0.016469	0.522195
O48	O	1.343306	0.349802	0.855528
O49	O	0.621462	-0.316861	0.244035
O50	O	0.954796	0.016473	0.577368
O51	O	1.288129	0.349806	0.910702
C52	C	0.532408	-0.216437	0.216457
C53	C	0.865742	0.116896	0.549790
C54	C	1.199075	0.450229	0.883123
C55	C	0.482474	-0.216447	0.216459
C56	C	0.815807	0.116887	0.549793
C57	C	1.149141	0.450220	0.883126
C58	C	0.172854	-0.187750	0.245260
C59	C	0.506187	0.145584	0.578593
C60	C	0.839520	0.478917	0.911926
C61	C	-0.014819	-0.187753	0.245273
C62	C	0.318514	0.145580	0.578606
C63	C	0.651847	0.478914	0.911939
O64	O	-0.039065	-0.163344	0.269738
O65	O	0.294269	0.169990	0.603072
O66	O	0.627602	0.503323	0.936405
N67	N	-0.038311	-0.216441	0.216492
N68	N	0.295022	0.116892	0.549826
N69	N	0.628356	0.450225	0.883159
C70	C	-0.014882	-0.245129	0.187705
C71	C	0.318452	0.088204	0.521038
C72	C	0.651785	0.421538	0.854372
O73	O	-0.039169	-0.269527	0.163223
O74	O	0.294164	0.063806	0.496556
O75	O	0.627498	0.397140	0.829889
C76	C	0.172791	-0.245123	0.187690
C77	C	0.506124	0.088210	0.521024
C78	C	0.839457	0.421544	0.854357
C79	C	0.196280	-0.216436	0.216475
C80	C	0.529613	0.116897	0.549809
C81	C	0.862946	0.450231	0.883142
C82	C	0.196343	-0.159065	0.274042
C83	C	0.529676	0.174269	0.607376
C84	C	0.863009	0.507602	0.940709
C85	C	0.243258	-0.159066	0.274040
C86	C	0.576592	0.174267	0.607374
C87	C	0.909925	0.507601	0.940707
C88	C	0.266684	-0.187752	0.245256
C89	C	0.600018	0.145581	0.578590
C90	C	0.933351	0.478914	0.911923
C91	C	0.243195	-0.216437	0.216474
C92	C	0.576529	0.116896	0.549807
C93	C	0.909862	0.450229	0.883140
C94	C	0.196219	-0.273808	0.158901
C95	C	0.529553	0.059525	0.492234
C96	C	0.862886	0.392859	0.825568
C97	C	0.243140	-0.273803	0.158899
C98	C	0.576474	0.059530	0.492232
C99	C	0.909807	0.392863	0.825566
C100	C	0.266630	-0.245116	0.187684
C101	C	0.599963	0.088217	0.521018
C102	C	0.933296	0.421550	0.854351
C103	C	0.313537	-0.245125	0.187688
C104	C	0.646870	0.088208	0.521021
C105	C	0.980204	0.421542	0.854354
N106	N	0.337029	-0.216437	0.216468
N107	N	0.670362	0.116897	0.549801
N108	N	1.003695	0.450230	0.883134
C109	C	0.313602	-0.187750	0.245252
C110	C	0.646936	0.145583	0.578585
C111	C	0.980269	0.478916	0.911919
C112	C	-0.113412	-0.245130	0.187715
C113	C	0.219921	0.088203	0.521049
C114	C	0.553254	0.421536	0.854382
C115	C	-0.160330	-0.245133	0.187720
C116	C	0.173003	0.088201	0.521053
C117	C	0.506337	0.421534	0.854386
C118	C	-0.160265	-0.187756	0.245287
C119	C	0.173069	0.145578	0.578620
C120	C	0.506402	0.478911	0.911953
C121	C	-0.113346	-0.187756	0.245284
C122	C	0.219987	0.145577	0.578618
C123	C	0.553321	0.478910	0.911951
C124	C	-0.089921	-0.216442	0.216495
C125	C	0.243413	0.116891	0.549829
C126	C	0.576746	0.450225	0.883162
C127	C	0.412128	-0.187755	0.245246
C128	C	0.745462	0.145578	0.578580
C129	C	1.078795	0.478911	0.911913
C130	C	0.459048	-0.187760	0.245243
C131	C	0.792381	0.145573	0.578577
C132	C	1.125714	0.478906	0.911910
C133	C	0.458978	-0.245135	0.187675
C134	C	0.792312	0.088198	0.521008
C135	C	1.125645	0.421531	0.854342
C136	C	0.412063	-0.245132	0.187679
C137	C	0.745396	0.088201	0.521013
C138	C	1.078730	0.421535	0.854346
C139	C	0.388639	-0.216438	0.216467
C140	C	0.721972	0.116895	0.549800
C141	C	1.055306	0.450228	0.883133
O142	O	0.337811	-0.269518	0.163231
O143	O	0.671145	0.063815	0.496564
O144	O	1.004478	0.397149	0.829898
O145	O	0.337898	-0.163349	0.269724
O146	O	0.671231	0.169985	0.603057
O147	O	1.004564	0.503318	0.936390
C148	C	0.125938	-0.187749	0.245262
C149	C	0.459271	0.145585	0.578595
C150	C	0.792605	0.478918	0.911928
C151	C	0.102449	-0.216434	0.216479
C152	C	0.435782	0.116900	0.549812
C153	C	0.769116	0.450233	0.883146
C154	C	0.125875	-0.245120	0.187695
C155	C	0.459208	0.088213	0.521028
C156	C	0.792542	0.421547	0.854361
C157	C	0.055531	-0.216436	0.216483
C158	C	0.388864	0.116898	0.549817
C159	C	0.722198	0.450231	0.883150
C160	C	0.032105	-0.187749	0.245267
C161	C	0.365438	0.145584	0.578601
C162	C	0.698771	0.478917	0.911934
C163	C	0.055596	-0.159061	0.274048
C164	C	0.388930	0.174272	0.607381
C165	C	0.722263	0.507606	0.940714
C166	C	0.102512	-0.159062	0.274046
C167	C	0.435845	0.174271	0.607379
C168	C	0.769179	0.507604	0.940712
C169	C	0.102384	-0.273808	0.158915
C170	C	0.435717	0.059525	0.492248
C171	C	0.769050	0.392858	0.825581
C172	C	0.055468	-0.273805	0.158919
C173	C	0.388801	0.059528	0.492252
C174	C	0.722135	0.392862	0.825586
C175	C	0.032042	-0.245119	0.187703
C176	C	0.365375	0.088215	0.521037
C177	C	0.698708	0.421548	0.854370
C178	C	0.649050	-0.333163	0.216454
C179	C	0.982383	0.000170	0.549787
C180	C	1.315717	0.333503	0.883120
C181	C	0.649056	-0.383098	0.216459
C182	C	0.982390	-0.049764	0.549792
C183	C	1.315723	0.283569	0.883126
C184	C	0.677914	-0.692730	0.187789
C185	C	1.011247	-0.359397	0.521122
C186	C	1.344580	-0.026064	0.854456
C187	C	0.677969	-0.880403	0.187807
C188	C	1.011303	-0.547070	0.521140
C189	C	1.344636	-0.213737	0.854473
O190	O	0.702441	-0.904659	0.163413
O191	O	1.035774	-0.571326	0.496747
O192	O	1.369107	-0.237993	0.830080
N193	N	0.649224	-0.903883	0.216510
N194	N	0.982557	-0.570549	0.549843
N195	N	1.315891	-0.237216	0.883177
C196	C	0.620465	-0.880441	0.245213
C197	C	0.953799	-0.547108	0.578546
C198	C	1.287132	-0.213774	0.911880
O199	O	0.596020	-0.904718	0.269630
O200	O	0.929354	-0.571385	0.602964
O201	O	1.262687	-0.238051	0.936297
C202	C	0.620412	-0.692769	0.245197
C203	C	0.953746	-0.359436	0.578531
C204	C	1.287079	-0.026102	0.911864
C205	C	0.649156	-0.669292	0.216489
C206	C	0.982489	-0.335959	0.549822
C207	C	1.315823	-0.002625	0.883156
C208	C	0.706656	-0.669253	0.159084
C209	C	1.039989	-0.335920	0.492417
C210	C	1.373322	-0.002587	0.825750
C211	C	0.706640	-0.622338	0.159078
C212	C	1.039973	-0.289005	0.492411
C213	C	1.373306	0.044329	0.825744
C214	C	0.677882	-0.598900	0.187778
C215	C	1.011215	-0.265566	0.521111
C216	C	1.344549	0.067767	0.854444
C217	C	0.649140	-0.622377	0.216483
C218	C	0.982474	-0.289043	0.549817
C219	C	1.315807	0.044290	0.883150
C220	C	0.591656	-0.669328	0.273902
C221	C	0.924989	-0.335995	0.607236
C222	C	1.258323	-0.002661	0.940569
C223	C	0.591646	-0.622407	0.273897
C224	C	0.924979	-0.289074	0.607230
C225	C	1.258313	0.044260	0.940563
C226	C	0.620390	-0.598930	0.245188
C227	C	0.953723	-0.265597	0.578522
C228	C	1.287057	0.067737	0.911855
C229	C	0.620367	-0.552023	0.245177
C230	C	0.953700	-0.218689	0.578511
C231	C	1.287033	0.114644	0.911844
N232	N	0.649112	-0.528543	0.216474
N233	N	0.982445	-0.195210	0.549807
N234	N	1.315778	0.138123	0.883141
C235	C	0.677869	-0.551982	0.187774
C236	C	1.011203	-0.218648	0.521108
C237	C	1.344536	0.114685	0.854441
C238	C	0.620494	-0.978972	0.245218
C239	C	0.953828	-0.645638	0.578552
C240	C	1.287161	-0.312305	0.911885
C241	C	0.620507	-1.025889	0.245222
C242	C	0.953840	-0.692556	0.578555
C243	C	1.287174	-0.359223	0.911888
C244	C	0.678012	-1.025849	0.187816
C245	C	1.011345	-0.692515	0.521149
C246	C	1.344678	-0.359182	0.854483
C247	C	0.677997	-0.978930	0.187811
C248	C	1.011330	-0.645597	0.521144
C249	C	1.344663	-0.312263	0.854477
C250	C	0.649239	-0.955492	0.216515
C251	C	0.982573	-0.622159	0.549848
C252	C	1.315906	-0.288826	0.883182
C253	C	0.677834	-0.453456	0.187764
C254	C	1.011167	-0.120123	0.521097
C255	C	1.344500	0.213211	0.854431
C256	C	0.677814	-0.406536	0.187759
C257	C	1.011147	-0.073203	0.521093
C258	C	1.344481	0.260130	0.854426
C259	C	0.620311	-0.406581	0.245167
C260	C	0.953644	-0.073248	0.578500
C261	C	1.286978	0.260085	0.911833
C262	C	0.620329	-0.453497	0.245170
C263	C	0.953662	-0.120163	0.578503
C264	C	1.286996	0.213170	0.911836
C265	C	0.649094	-0.476933	0.216467
C266	C	0.982427	-0.143600	0.549800
C267	C	1.315761	0.189734	0.883133
O268	O	0.595912	-0.527738	0.269561
O269	O	0.929245	-0.194405	0.602895
O270	O	1.262578	0.138929	0.936228
O271	O	0.702318	-0.527697	0.163367
O272	O	1.035651	-0.194363	0.496701
O273	O	1.368984	0.138970	0.830034
C274	C	0.677930	-0.739646	0.187795
C275	C	1.011263	-0.406313	0.521128
C276	C	1.344596	-0.072979	0.854462
C277	C	0.649188	-0.763123	0.216501
C278	C	0.982521	-0.429790	0.549834
C279	C	1.315855	-0.096456	0.883167
C280	C	0.620430	-0.739684	0.245200
C281	C	0.953764	-0.406351	0.578534
C282	C	1.287097	-0.073018	0.911867
C283	C	0.649200	-0.810041	0.216504
C284	C	0.982534	-0.476707	0.549837
C285	C	1.315867	-0.143374	0.883171
C286	C	0.677958	-0.833479	0.187804
C287	C	1.011291	-0.500146	0.521137
C288	C	1.344625	-0.166813	0.854471
C289	C	0.706703	-0.810000	0.159101
C290	C	1.040037	-0.476666	0.492434
C291	C	1.373370	-0.143333	0.825768
C292	C	0.706687	-0.763084	0.159095
C293	C	1.040021	-0.429751	0.492428
C294	C	1.373354	-0.096418	0.825762
C295	C	0.591685	-0.763164	0.273904
C296	C	0.925018	-0.429830	0.607237
C297	C	1.258352	-0.096497	0.940570
C298	C	0.591703	-0.810079	0.273907
C299	C	0.925036	-0.476746	0.607240
C300	C	1.258370	-0.143413	0.940573
C301	C	0.620461	-0.833518	0.245207
C302	C	0.953794	-0.500184	0.578540
C303	C	1.287127	-0.166851	0.911874
C304	C	0.766309	-0.216445	0.216495
C305	C	1.099643	0.116889	0.549829
C306	C	1.432976	0.450222	0.883162
C307	C	0.816244	-0.216446	0.216504
C308	C	1.149577	0.116887	0.549837
C309	C	1.482910	0.450220	0.883170
C310	C	0.649143	-0.216437	0.333654
C311	C	0.982476	0.116897	0.666988
C312	C	1.315810	0.450230	1.000321
C313	C	0.649148	-0.216435	0.383589
C314	C	0.982482	0.116898	0.716922
C315	C	1.315815	0.450232	1.050255
C316	C	0.649225	-0.099262	0.216508
C317	C	0.982558	0.234071	0.549841
C318	C	1.315891	0.567404	0.883175
C319	C	0.649265	-0.049328	0.216522
C320	C	0.982598	0.284005	0.549855
C321	C	1.315931	0.617339	0.883189
C322	C	0.649145	-0.216412	0.099753
C323	C	0.982478	0.116921	0.433087
C324	C	1.315811	0.450254	0.766420
C325	C	0.649227	-0.216288	0.049819
C326	C	0.982560	0.117046	0.383153
C327	C	1.315893	0.450379	0.716486
C328	C	0.677935	-0.187627	0.693248
C329	C	1.011268	0.145706	1.026581
C330	C	1.344602	0.479040	1.359915
C331	C	0.677957	-0.187589	0.880921
C332	C	1.011291	0.145744	1.214254
C333	C	1.344624	0.479078	1.547588
O334	O	0.702400	-0.163138	0.905199
O335	O	1.035733	0.170195	1.238533
O336	O	1.369066	0.503529	1.571866
N337	N	0.649208	-0.216315	0.904374
N338	N	0.982541	0.117019	1.237707
N339	N	1.315875	0.450352	1.571041
C340	C	0.620449	-0.245050	0.880906
C341	C	0.953782	0.088283	1.214239
C342	C	1.287115	0.421617	1.547573
O343	O	0.595993	-0.269479	0.905160
O344	O	0.929326	0.063854	1.238494
O345	O	1.262659	0.397188	1.571827
C346	C	0.620425	-0.245086	0.693234
C347	C	0.953758	0.088247	1.026567
C348	C	1.287091	0.421581	1.359900
C349	C	0.649179	-0.216361	0.669783
C350	C	0.982512	0.116972	1.003116
C351	C	1.315846	0.450305	1.336450
C352	C	0.706687	-0.158905	0.669797
C353	C	1.040020	0.174429	1.003131
C354	C	1.373354	0.507762	1.336464
C355	C	0.706683	-0.158916	0.622882
C356	C	1.040016	0.174417	0.956215
C357	C	1.373350	0.507750	1.289549
C358	C	0.677927	-0.187650	0.599417
C359	C	1.011260	0.145683	0.932750
C360	C	1.344594	0.479016	1.266084
C361	C	0.649175	-0.216373	0.622868
C362	C	0.982508	0.116960	0.956201
C363	C	1.315842	0.450294	1.289534
C364	C	0.591663	-0.273819	0.669766
C365	C	0.924997	0.059515	1.003100
C366	C	1.258330	0.392848	1.336433
C367	C	0.591659	-0.273824	0.622845
C368	C	0.924992	0.059509	0.956179
C369	C	1.258326	0.392842	1.289512
C370	C	0.620414	-0.245100	0.599395
C371	C	0.953747	0.088234	0.932728
C372	C	1.287080	0.421567	1.266061
C373	C	0.620415	-0.245119	0.552487
C374	C	0.953748	0.088215	0.885821
C375	C	1.287081	0.421548	1.219154
N376	N	0.649164	-0.216393	0.529034
N377	N	0.982498	0.116941	0.862368
N378	N	1.315831	0.450274	1.195701
C379	C	0.677920	-0.187659	0.552499
C380	C	1.011254	0.145675	0.885833
C381	C	1.344587	0.479008	1.219166
C382	C	0.620464	-0.245030	0.979437
C383	C	0.953797	0.088303	1.312770
C384	C	1.287131	0.421637	1.646103
C385	C	0.620471	-0.245022	1.026354
C386	C	0.953804	0.088312	1.359688
C387	C	1.287137	0.421645	1.693021
C388	C	0.677979	-0.187560	1.026366
C389	C	1.011312	0.145774	1.359700
C390	C	1.344646	0.479107	1.693033
C391	C	0.677974	-0.187571	0.979448
C392	C	1.011308	0.145763	1.312781
C393	C	1.344641	0.479096	1.646114
C394	C	0.649214	-0.216304	0.955984
C395	C	0.982547	0.117029	1.289317
C396	C	1.315880	0.450363	1.622650
C397	C	0.677910	-0.187685	0.453973
C398	C	1.011243	0.145648	0.787307
C399	C	1.344576	0.478981	1.120640
C400	C	0.677904	-0.187701	0.407054
C401	C	1.011238	0.145632	0.740387
C402	C	1.344571	0.478966	1.073720
C403	C	0.620395	-0.245161	0.407046
C404	C	0.953728	0.088172	0.740379
C405	C	1.287061	0.421506	1.073712
C406	C	0.620402	-0.245147	0.453961
C407	C	0.953735	0.088186	0.787295
C408	C	1.287068	0.421519	1.120628
C409	C	0.649161	-0.216406	0.477424
C410	C	0.982494	0.116927	0.810757
C411	C	1.315827	0.450261	1.144091
O412	O	0.595982	-0.269553	0.528180
O413	O	0.929315	0.063780	0.861513
O414	O	1.262649	0.397113	1.194847
O415	O	0.702366	-0.163226	0.528237
O416	O	1.035699	0.170107	0.861570
O417	O	1.369032	0.503440	1.194903
C418	C	0.677939	-0.187616	0.740163
C419	C	1.011273	0.145718	1.073497
C420	C	1.344606	0.479051	1.406830
C421	C	0.649187	-0.216338	0.763614
C422	C	0.982521	0.116995	1.096947
C423	C	1.315854	0.450329	1.430281
C424	C	0.620431	-0.245072	0.740149
C425	C	0.953765	0.088261	1.073482
C426	C	1.287098	0.421594	1.406816
C427	C	0.649194	-0.216330	0.810532
C428	C	0.982527	0.117003	1.143865
C429	C	1.315861	0.450337	1.477199
C430	C	0.677950	-0.187596	0.833997
C431	C	1.011283	0.145738	1.167330
C432	C	1.344617	0.479071	1.500663
C433	C	0.706699	-0.158870	0.810544
C434	C	1.040033	0.174464	1.143877
C435	C	1.373366	0.507797	1.477210
C436	C	0.706695	-0.158881	0.763628
C437	C	1.040029	0.174452	1.096962
C438	C	1.373362	0.507785	1.430295
C439	C	0.591682	-0.273798	0.763602
C440	C	0.925015	0.059535	1.096935
C441	C	1.258349	0.392869	1.430269
C442	C	0.591689	-0.273785	0.810518
C443	C	0.925022	0.059549	1.143851
C444	C	1.258355	0.392882	1.477184
C445	C	0.620445	-0.245050	0.833983
C446	C	0.953778	0.088283	1.167316
C447	C	1.287111	0.421616	1.500649
H448	H	0.121633	-0.135702	0.297485
H449	H	0.454966	0.197631	0.630819
H450	H	0.788299	0.530965	0.964152
H451	H	0.036515	-0.135705	0.297486
H452	H	0.369848	0.197628	0.630819
H453	H	0.703181	0.530962	0.964153
H454	H	0.036347	-0.297170	0.135480
H455	H	0.369680	0.036163	0.468813
H456	H	0.703014	0.369497	0.802146
H457	H	0.730104	-0.135503	0.688898
H458	H	1.063437	0.197830	1.022231
H459	H	1.396770	0.531163	1.355564
H460	H	0.568265	-0.297198	0.744502
H461	H	0.901599	0.036135	1.077835
H462	H	1.234932	0.369469	1.411168
H463	H	0.597097	-1.045000	0.268595
H464	H	0.930430	-0.711667	0.601928
H465	H	1.263763	-0.378334	0.935261
H466	H	0.597061	-0.268417	1.045444
H467	H	0.930394	0.064916	1.378777
H468	H	1.263727	0.398250	1.712111
H469	H	0.701258	-0.472532	0.164392
H470	H	1.034591	-0.139199	0.497726
H471	H	1.367924	0.194135	0.831059
O472	O	0.127648	-0.304749	0.127867
O473	O	0.460981	0.028584	0.461200
O474	O	0.794315	0.361917	0.794534
H475	H	0.103426	-0.324697	0.107859
H476	H	0.436760	0.008637	0.441192
H477	H	0.770093	0.341970	0.774525
O478	O	0.560656	-0.694643	0.304869
O479	O	0.893990	-0.361310	0.638203
O480	O	1.227323	-0.027977	0.971536
H481	H	0.540665	-0.670455	0.324827
H482	H	0.873999	-0.337122	0.658160
H483	H	1.207332	-0.003789	0.991494
H484	H	0.701388	-0.164180	0.960357
H485	H	1.034721	0.169154	1.293691
H486	H	1.368055	0.502487	1.627024
H487	H	0.177102	-0.297168	0.135460
H488	H	0.510436	0.036166	0.468794
H489	H	0.843769	0.369499	0.802127
H490	H	0.596925	-0.472613	0.268548
H491	H	0.930258	-0.139279	0.601881
H492	H	1.263591	0.194054	0.935214
O493	O	0.708820	-0.381214	0.156798
O494	O	1.042154	-0.047880	0.490131
O495	O	1.375487	0.285453	0.823464
H496	H	0.728823	-0.405397	0.136847
H497	H	1.062157	-0.072064	0.470180
H498	H	1.395490	0.261269	0.803514
O499	O	0.589375	-0.276147	0.381733
O500	O	0.922709	0.057186	0.715066
O501	O	1.256042	0.390519	1.048400
H502	H	0.609458	-0.299008	0.360353
H503	H	0.942791	0.034325	0.693686
H504	H	1.276124	0.367659	1.027019
O505	O	0.737649	-0.597019	0.128120
O506	O	1.070982	-0.263685	0.461454
O507	O	1.404315	0.069648	0.794787
H508	H	0.757650	-0.621205	0.108172
H509	H	1.090983	-0.287872	0.441505
H510	H	1.424316	0.045461	0.774838
O511	O	0.737672	-0.694530	0.128123
O512	O	1.071006	-0.361197	0.461457
O513	O	1.404339	-0.027864	0.794790
H514	H	0.757650	-0.670316	0.108163
H515	H	1.090983	-0.336982	0.441496
H516	H	1.424317	-0.003649	0.774829
H517	H	0.177274	-0.135702	0.297482
H518	H	0.510607	0.197631	0.630815
H519	H	0.843941	0.530964	0.964149
O520	O	0.709003	-0.953609	0.156852
O521	O	1.042336	-0.620275	0.490185
O522	O	1.375669	-0.286942	0.823519
H523	H	0.729002	-0.977794	0.136900
H524	H	1.062336	-0.644461	0.470233
H525	H	1.395669	-0.311127	0.803566
H526	H	0.262211	-0.297163	0.135454
H527	H	0.595544	0.036171	0.468788
H528	H	0.928878	0.369504	0.802121
H529	H	-0.179451	-0.268497	0.164285
H530	H	0.153882	0.064836	0.497618
H531	H	0.487216	0.398169	0.830951
O532	O	0.560698	-0.835400	0.304871
O533	O	0.894031	-0.502067	0.638204
O534	O	1.227364	-0.168734	0.971537
H535	H	0.568380	-0.826372	0.340135
H536	H	0.901714	-0.493038	0.673468
H537	H	1.235047	-0.159705	1.006802
H538	H	0.392937	-0.268496	0.164245
H539	H	0.726270	0.064837	0.497579
H540	H	1.059604	0.398170	0.830912
H541	H	0.701427	-1.044940	0.164447
H542	H	1.034761	-0.711607	0.497781
H543	H	1.368094	-0.378274	0.831114
O544	O	0.484249	-0.276071	0.156625
O545	O	0.817582	0.057262	0.489959
O546	O	1.150916	0.390596	0.823292
H547	H	0.520819	-0.271244	0.161458
H548	H	0.854153	0.062089	0.494791
H549	H	1.187486	0.395422	0.828124
H550	H	-0.094224	-0.164396	0.268723
H551	H	0.239109	0.168937	0.602056
H552	H	0.572442	0.502271	0.935390
H553	H	0.597044	-0.268431	0.960336
H554	H	0.930377	0.064902	1.293670
H555	H	1.263711	0.398235	1.627003
O556	O	0.589296	-0.381297	0.276123
O557	O	0.922630	-0.047964	0.609456
O558	O	1.255963	0.285369	0.942790
H559	H	0.594122	-0.344729	0.271298
H560	H	0.927455	-0.011396	0.604631
H561	H	1.260788	0.321938	0.937964
O562	O	0.737694	-0.737765	0.128136
O563	O	1.071027	-0.404432	0.461469
O564	O	1.404361	-0.071098	0.794802
H565	H	0.757694	-0.761952	0.108186
H566	H	1.091028	-0.428618	0.441520
H567	H	1.424361	-0.095285	0.774853
H568	H	-0.094343	-0.268491	0.164271
H569	H	0.238990	0.064842	0.497604
H570	H	0.572323	0.398175	0.830938
H571	H	0.596991	-0.268541	0.473056
H572	H	0.930325	0.064792	0.806389
H573	H	1.263658	0.398125	1.139722
O574	O	0.708987	-0.156558	1.051678
O575	O	1.042321	0.176775	1.385012
O576	O	1.375654	0.510109	1.718345
H577	H	0.704153	-0.161376	1.088242
H578	H	1.037487	0.171957	1.421575
H579	H	1.370820	0.505290	1.754909
H580	H	0.568248	-0.297209	0.688852
H581	H	0.901582	0.036124	1.022185
H582	H	1.234915	0.369457	1.355518
O583	O	0.737731	-0.835284	0.128154
O584	O	1.071064	-0.501950	0.461487
O585	O	1.404397	-0.168617	0.794821
H586	H	0.732914	-0.871852	0.132990
H587	H	1.066248	-0.538518	0.466323
H588	H	1.399581	-0.205185	0.799656
H589	H	0.568233	-0.297218	0.603743
H590	H	0.901567	0.036115	0.937077
H591	H	1.234900	0.369448	1.270410
H592	H	0.730110	-0.135491	0.744539
H593	H	1.063443	0.197843	1.077872
H594	H	1.396777	0.531176	1.411206
H595	H	0.478171	-0.164399	0.268685
H596	H	0.811504	0.168934	0.602019
H597	H	1.144837	0.502267	0.935352
O598	O	0.589465	-0.953694	0.276169
O599	O	0.922799	-0.620361	0.609502
O600	O	1.256132	-0.287028	0.942836
H601	H	0.569476	-0.977908	0.296120
H602	H	0.902809	-0.644574	0.629453
H603	H	1.236143	-0.311241	0.962787
H604	H	0.568229	-0.603326	0.297273
H605	H	0.901562	-0.269993	0.630606
H606	H	1.234896	0.063340	0.963939
H607	H	0.730115	-0.135475	0.829657
H608	H	1.063448	0.197858	1.162990
H609	H	1.396782	0.531192	1.496324
O610	O	0.560657	-0.737886	0.304850
O611	O	0.893990	-0.404553	0.638184
O612	O	1.227324	-0.071219	0.971517
H613	H	0.540669	-0.762099	0.324803
H614	H	0.874002	-0.428766	0.658136
H615	H	1.207335	-0.095432	0.991469
O616	O	0.708919	-0.156718	0.381759
O617	O	1.042252	0.176615	0.715093
O618	O	1.375585	0.509949	1.048426
H619	H	0.728911	-0.136733	0.405961
H620	H	1.062244	0.196600	0.739295
H621	H	1.395578	0.529934	1.072628
O622	O	0.708931	-0.156691	0.479277
O623	O	1.042264	0.176643	0.812610
O624	O	1.375598	0.509976	1.145943
H625	H	0.728924	-0.136726	0.455082
H626	H	1.062257	0.196607	0.788415
H627	H	1.395591	0.529941	1.121748
H628	H	0.730097	-0.135525	0.603793
H629	H	1.063430	0.197808	0.937126
H630	H	1.396764	0.531142	1.270459
O631	O	0.386871	-0.156808	0.276298
O632	O	0.720204	0.176525	0.609631
O633	O	1.053538	0.509859	0.942965
H634	H	0.365510	-0.133914	0.256237
H635	H	0.698844	0.199419	0.589570
H636	H	1.032177	0.532753	0.922904
H637	H	0.568274	-0.297180	0.829607
H638	H	0.901607	0.036154	1.162940
H639	H	1.234941	0.369487	1.496274
H640	H	0.262379	-0.135705	0.297480
H641	H	0.595712	0.197628	0.630813
H642	H	0.929046	0.530961	0.964146
O643	O	-0.185535	-0.156809	0.276329
O644	O	0.147798	0.176524	0.609663
O645	O	0.481132	0.509857	0.942996
H646	H	-0.222105	-0.161630	0.271490
H647	H	0.111228	0.171703	0.604823
H648	H	0.444562	0.505037	0.938156
