data_functionalizedCrystal
_audit_creation_method	'MofGen! by Chris Wilmer'
_symmetry_space_group_name_H-M	'P1'
_symmetry_Int_Tables_number	1
_symmetry_cell_setting	triclinic
loop_
_symmetry_equiv_pos_as_xyz
  x,y,z
_cell_length_a	12.759395
_cell_length_b	12.594516
_cell_length_c	12.759380
_cell_angle_alpha	89.939895
_cell_angle_beta	89.957200
_cell_angle_gamma	90.017589
loop_
_atom_site_label
_atom_site_type_symbol
_atom_site_fract_x
_atom_site_fract_y
_atom_site_fract_z
Zn1	Zn	1.606490	-0.423310	-0.594023
Zn2	Zn	1.606308	-0.601426	-0.418350
Zn3	Zn	1.430720	-0.423466	-0.418359
Zn4	Zn	1.430776	-0.601252	-0.593989
O5	O	1.518574	-0.512364	-0.506180
O6	O	1.753487	-0.446945	-0.570729
O7	O	1.582916	-0.577957	-0.271330
O8	O	1.454089	-0.274500	-0.441679
O9	O	1.753353	-0.577806	-0.441663
O10	O	1.583226	-0.274385	-0.570738
O11	O	1.453912	-0.447211	-0.271337
O12	O	1.283706	-0.447043	-0.441647
O13	O	1.454185	-0.577509	-0.741015
O14	O	1.283748	-0.577661	-0.570681
O15	O	1.583281	-0.446776	-0.741040
O16	O	1.582971	-0.750349	-0.441631
O17	O	1.454009	-0.750221	-0.570672
C18	C	1.245606	-0.512351	-0.506162
C19	C	1.128829	-0.512371	-0.506179
C20	C	1.128911	-0.648604	-0.640326
C21	C	1.074091	-0.716729	-0.707402
C22	C	0.964370	-0.716741	-0.707415
C23	C	0.909465	-0.648620	-0.640346
C24	C	0.964285	-0.580495	-0.573270
C25	C	1.074009	-0.580492	-0.573262
C26	C	0.964204	-0.444258	-0.439131
C27	C	1.073925	-0.444249	-0.439111
C28	C	0.909299	-0.376137	-0.372063
C29	C	0.964119	-0.308016	-0.304979
C30	C	1.073848	-0.308006	-0.304969
C31	C	1.128745	-0.376124	-0.372035
C32	C	1.518505	-0.788905	-0.506170
C33	C	1.518571	-0.907210	-0.506201
C34	C	1.448422	-0.976432	-0.576337
C35	C	1.422783	-1.047356	-0.480470
C36	C	1.544306	-1.047085	-0.602084
C37	C	1.492882	-0.976575	-0.410283
C38	C	1.614449	-0.976299	-0.531962
C39	C	1.588847	-1.047190	-0.436029
C40	C	1.792607	-0.512377	-0.506199
C41	C	1.909384	-0.512383	-0.506207
C42	C	1.518760	-0.512106	-0.780214
C43	C	1.518839	-0.511996	-0.896991
C44	C	1.518671	-0.234743	-0.506214
C45	C	1.518713	-0.116437	-0.506228
C46	C	1.518449	-0.512543	-0.233212
C47	C	1.518573	-0.512353	-0.116436
C48	C	1.652279	-0.374870	0.102387
C49	C	1.718937	-0.306400	0.047215
C50	C	1.718811	-0.306580	-0.062506
C51	C	1.652016	-0.375234	-0.117058
C52	C	1.585358	-0.443704	-0.061887
C53	C	1.585494	-0.443519	0.047837
C54	C	1.451914	-0.580823	-0.061264
C55	C	1.452045	-0.580651	0.048457
C56	C	1.385120	-0.649478	-0.115816
C57	C	1.318465	-0.717955	-0.060645
C58	C	1.318595	-0.717773	0.049083
C59	C	1.385386	-0.649121	0.103629
H60	H	0.820124	-0.648627	-0.640372
H61	H	1.773083	-0.250819	-0.107427
H62	H	1.388993	-0.945364	-0.635563
H63	H	1.118806	-0.772190	-0.762009
Br64	Br	1.287744	-1.099371	-0.444156
H65	H	1.566015	-1.078060	-0.683161
Br66	Br	1.384945	-0.649720	-0.264725
Br67	Br	1.456547	-0.925172	-0.275109
Br68	Br	1.687830	-1.098646	-0.337084
H69	H	0.819958	-0.376148	-0.372082
Br70	Br	1.652474	-0.374641	0.251295
Br71	Br	1.651833	-0.375463	-0.265967
Br72	Br	0.889967	-0.809187	-0.798456
H73	H	1.218086	-0.376126	-0.372029
H74	H	1.218252	-0.648608	-0.640314
Br75	Br	1.749454	-0.924240	-0.568316
H76	H	1.773318	-0.250501	0.091643
Br77	Br	1.227817	-0.811110	-0.134683
H78	H	1.118475	-0.252523	-0.250354
Br79	Br	1.228116	-0.810693	0.123950
H80	H	0.919408	-0.252552	-0.250383
Br81	Br	1.385575	-0.648876	0.252537
