data_functionalizedCrystal
_audit_creation_method	'MofGen! by Chris Wilmer'
_symmetry_space_group_name_H-M	'P1'
_symmetry_Int_Tables_number	1
_symmetry_cell_setting	triclinic
loop_
_symmetry_equiv_pos_as_xyz
  x,y,z
_cell_length_a	19.288859
_cell_length_b	17.699092
_cell_length_c	17.766277
_cell_angle_alpha	90.003535
_cell_angle_beta	90.010268
_cell_angle_gamma	83.210047
loop_
_atom_site_label
_atom_site_type_symbol
_atom_site_fract_x
_atom_site_fract_y
_atom_site_fract_z
O1	O	0.921470	0.094393	0.062606
O2	O	0.719224	0.107135	0.062604
O3	O	0.826058	-0.009433	0.062604
O4	O	0.814636	0.210961	0.062607
O5	O	0.826039	-0.009436	-0.062585
O6	O	0.719205	0.107132	-0.062584
O7	O	0.921451	0.094390	-0.062582
Cu8	Cu	0.820326	0.100761	-0.074014
Cu9	Cu	0.820349	0.100764	0.074036
O10	O	0.814617	0.210958	-0.062582
C11	C	0.693338	0.106724	0.000010
C12	C	0.616233	0.105496	0.000009
C13	C	0.052265	0.165583	0.000011
C14	C	0.124712	0.166743	0.000015
C15	C	0.169336	0.098347	0.000012
C16	C	0.141507	0.028784	0.000025
C17	C	0.069060	0.027625	0.000029
C18	C	0.290538	0.047336	-0.043850
C19	C	0.362983	0.048498	-0.043858
C20	C	0.392787	0.101918	0.000005
C21	C	0.350134	0.154190	0.043866
C22	C	0.277688	0.153031	0.043870
C23	C	0.247894	0.099596	0.000009
C24	C	0.499164	0.172735	0.000001
C25	C	0.571613	0.173893	0.000010
C26	C	0.588407	0.035932	0.000013
C27	C	0.515959	0.034776	0.000012
C28	C	0.471341	0.103180	0.000003
C29	C	0.825638	-0.037631	0.000010
C30	C	0.824408	-0.121647	0.000014
C31	C	0.823842	-0.161112	0.068255
C32	C	0.822681	-0.240053	0.068256
C33	C	0.822091	-0.279529	0.000015
C34	C	0.822655	-0.240058	-0.068232
C35	C	0.823811	-0.161117	-0.068232
C36	C	0.817993	-0.558416	-0.068233
C37	C	0.816839	-0.637363	-0.068227
C38	C	0.816862	-0.637352	0.068255
C39	C	0.818018	-0.558411	0.068255
C40	C	0.818579	-0.518947	0.000009
C41	C	0.819836	-0.433350	0.000009
C42	C	0.820839	-0.365125	0.000014
C43	C	0.947338	0.094801	0.000014
C44	C	1.024443	0.096029	0.000020
C45	C	0.815037	0.239156	0.000013
C46	C	0.816268	0.323172	0.000015
N47	N	0.820316	0.100757	-0.178144
C48	C	0.862359	0.146548	-0.217524
C49	C	0.862370	0.146545	-0.296326
C50	C	0.820325	0.100762	-0.335745
C51	C	0.778279	0.054962	-0.296356
C52	C	0.778275	0.054960	-0.217556
C53	C	0.757710	0.098849	-0.460605
C54	C	0.757713	0.098856	-0.539404
C55	C	0.820339	0.100764	-0.578791
C56	C	0.882963	0.102680	-0.539370
C57	C	0.882959	0.102678	-0.460570
C58	C	0.820325	0.100759	-0.421191
C59	C	0.862397	0.146554	-0.703617
C60	C	0.862410	0.146547	-0.782420
C61	C	0.778313	0.054968	-0.782449
C62	C	0.778307	0.054971	-0.703647
C63	C	0.820348	0.100768	-0.664236
N64	N	0.820365	0.100762	0.178166
H65	H	0.242963	0.195591	0.079585
H66	H	0.374398	0.197692	0.079582
O67	O	0.696879	0.096871	-0.577655
C68	C	0.667531	0.030201	-0.558403
H69	H	0.710296	-0.014481	-0.536745
H70	H	0.642060	0.007353	-0.610233
H71	H	0.626506	0.043817	-0.512665
H72	H	0.933950	0.104236	-0.428477
H73	H	0.493307	-0.021862	0.000015
O74	O	0.818515	-0.519967	-0.134456
C75	C	0.819676	-0.441829	-0.119831
H76	H	0.797860	-0.427831	-0.061184
H77	H	0.786401	-0.406913	-0.163418
H78	H	0.875706	-0.427557	-0.123066
H79	H	0.933959	0.104237	-0.571438
O80	O	0.737558	0.010420	-0.665350
C81	C	0.779983	-0.041332	-0.619739
H82	H	0.835266	-0.049631	-0.643472
H83	H	0.757872	-0.098277	-0.618845
H84	H	0.781116	-0.017938	-0.560020
O85	O	0.404391	-0.002378	-0.086376
C86	C	0.395722	-0.076928	-0.063394
H87	H	0.375642	-0.075761	-0.003011
H88	H	0.448004	-0.114276	-0.066621
H89	H	0.356512	-0.101031	-0.101966
H90	H	0.896630	0.183845	-0.671526
H91	H	0.822223	-0.272182	0.123825
H92	H	0.816403	-0.669493	0.123824
O93	O	0.903272	0.191100	-0.820559
C94	C	0.940386	0.231505	-0.768872
H95	H	0.911621	0.236000	-0.712708
H96	H	0.944589	0.291011	-0.791635
H97	H	0.994960	0.200178	-0.760476
O98	O	0.041999	-0.039923	0.000167
C99	C	0.000590	-0.044707	0.064993
H100	H	0.017665	-0.005210	0.110309
H101	H	0.007198	-0.105725	0.086760
H102	H	-0.056574	-0.027054	0.050333
O103	O	0.816232	-0.675589	-0.134588
C104	C	0.816990	-0.623832	-0.194825
H105	H	0.795836	-0.564350	-0.174821
H106	H	0.782936	-0.641728	-0.242547
H107	H	0.872809	-0.623568	-0.215815
O108	O	0.696836	0.097130	-0.422378
C109	C	0.649971	0.161477	-0.441651
H110	H	0.680491	0.208387	-0.463304
H111	H	0.618626	0.182601	-0.389832
H112	H	0.612903	0.145476	-0.487399
O113	O	0.903110	0.191076	-0.334671
C114	C	0.860663	0.242848	-0.380242
H115	H	0.809173	0.219429	-0.392059
H116	H	0.888568	0.251208	-0.435648
H117	H	0.849926	0.299770	-0.349869
H118	H	0.266280	0.003830	-0.079570
H119	H	0.177845	-0.026905	0.000025
O120	O	0.824382	-0.122880	0.134613
C121	C	0.823650	-0.174648	0.194844
H122	H	0.800841	-0.227711	0.174836
H123	H	0.790282	-0.146918	0.242572
H124	H	0.879232	-0.191173	0.215828
H125	H	0.822171	-0.272205	-0.123795
O126	O	0.824455	-0.122713	-0.134475
C127	C	0.885261	-0.085840	-0.138576
H128	H	0.905495	-0.076932	-0.079328
H129	H	0.872541	-0.028358	-0.167462
H130	H	0.926917	-0.122411	-0.172254
O131	O	0.818558	-0.520178	0.134611
C132	C	0.817826	-0.571941	0.194845
H133	H	0.795019	-0.625007	0.174840
H134	H	0.784456	-0.544209	0.242571
H135	H	0.873408	-0.588465	0.215831
O136	O	0.903236	0.190923	-0.179155
C137	C	0.950719	0.144641	-0.133578
H138	H	0.929205	0.088538	-0.121786
H139	H	0.958395	0.175045	-0.078159
H140	H	1.002952	0.132917	-0.163932
H141	H	0.744080	0.017689	-0.814543
H142	H	0.744046	0.017684	-0.328456
O143	O	0.455845	0.239198	0.000136
C144	C	0.468461	0.281454	0.064964
H145	H	0.493299	0.241413	0.110280
H146	H	0.417011	0.311979	0.086729
H147	H	0.505274	0.325138	0.050307
O148	O	0.737321	0.010569	-0.179336
C149	C	0.666791	0.031726	-0.198630
H150	H	0.659977	0.092782	-0.220290
H151	H	0.632621	0.027413	-0.146821
H152	H	0.650743	-0.007907	-0.244379
O153	O	0.009024	0.232098	0.000042
C154	C	0.049121	0.293737	0.000016
H155	H	0.103231	0.274342	0.023714
H156	H	0.022325	0.341650	0.036360
H157	H	0.054232	0.315063	-0.060045
H158	H	0.147369	0.223384	0.000001
H159	H	0.624739	-0.019758	0.000017
O160	O	0.598669	0.241445	0.000146
C161	C	0.640089	0.246240	0.064979
H162	H	0.623030	0.206744	0.110291
H163	H	0.633478	0.307260	0.086746
H164	H	0.697252	0.228595	0.050326
