data_functionalizedCrystal
_audit_creation_method	'MofGen! by Chris Wilmer'
_symmetry_space_group_name_H-M	'P1'
_symmetry_Int_Tables_number	1
_symmetry_cell_setting	triclinic
loop_
_symmetry_equiv_pos_as_xyz
  x,y,z
_cell_length_a	17.038275
_cell_length_b	13.101018
_cell_length_c	14.044190
_cell_angle_alpha	86.339369
_cell_angle_beta	87.848219
_cell_angle_gamma	86.400870
loop_
_atom_site_label
_atom_site_type_symbol
_atom_site_fract_x
_atom_site_fract_y
_atom_site_fract_z
O1	O	-1.055810	0.085084	0.202103
O2	O	-0.827951	0.085118	0.198813
O3	O	-0.938456	0.085081	0.062198
O4	O	-0.945304	0.085121	0.338718
O5	O	-0.930518	-0.085346	0.072009
O6	O	-0.820013	-0.085309	0.208624
O7	O	-1.047872	-0.085344	0.211913
Zn8	Zn	-0.932682	-0.112386	0.211826
Zn9	Zn	-0.943141	0.112160	0.198900
O10	O	-0.937366	-0.085307	0.348528
C11	C	-0.794645	-0.000092	0.200729
C12	C	-0.707228	-0.000079	0.191809
N13	N	-0.925550	-0.265632	0.220647
C14	C	-0.959977	-0.525553	0.178066
C15	C	-0.915853	-0.474666	0.232650
C16	C	-0.921250	-0.358349	0.225970
C17	C	-0.954582	-0.641881	0.184745
C18	C	-0.662845	-0.000068	0.273696
C19	C	-0.580707	-0.000081	0.265311
C20	C	-0.542954	-0.000100	0.175036
C21	C	-0.587343	-0.000114	0.093142
C22	C	-0.669479	-0.000108	0.101529
C23	C	-0.295121	-0.000126	0.145407
C24	C	-0.212979	-0.000130	0.137026
C25	C	-0.206349	-0.000099	0.309195
C26	C	-0.288487	-0.000086	0.317574
C27	C	-0.332869	-0.000106	0.235681
C28	C	-0.458996	-0.000110	0.166462
C29	C	-0.416825	-0.000103	0.244256
C30	C	-0.081178	-0.000127	0.209997
C31	C	-0.168596	-0.000118	0.218914
C32	C	-0.931492	-0.000135	0.031548
C33	C	-0.922558	-0.000143	-0.074398
N34	N	-0.950278	0.265407	0.190072
C35	C	-0.969586	-0.000109	-0.320894
C36	C	-0.906240	-0.000107	-0.268374
C37	C	-0.915322	-0.000127	-0.160436
C38	C	-0.960506	-0.000090	-0.428842
C39	C	-0.944331	-0.000088	0.379179
C40	C	-0.953265	-0.000074	0.485124
H41	H	-1.001804	-0.481767	0.126323
N42	N	-1.050453	-0.000153	-0.273083
H43	H	-1.082945	0.063017	-0.296398
H44	H	-1.045487	-0.000209	-0.201645
H45	H	-0.845187	-0.000092	-0.304474
N46	N	-0.457543	-0.000069	0.341619
H47	H	-0.416966	-0.000058	0.392228
H48	H	-0.488544	-0.063244	0.352490
N49	N	-0.860445	-0.532661	0.301198
H50	H	-0.864394	-0.608737	0.296318
H51	H	-0.875137	-0.513963	0.368494
N52	N	-0.342984	-0.000155	0.057084
H53	H	-0.306601	-0.000166	-0.001375
H54	H	-0.380146	0.063022	0.053168
H55	H	-0.544573	-0.000071	0.331993
N56	N	-0.703562	-0.000036	0.371064
H57	H	-0.662978	-0.000031	0.421666
H58	H	-0.734563	-0.063210	0.381935
H59	H	-0.319220	-0.000059	0.391084
N60	N	-0.158481	-0.000079	0.397519
H61	H	-0.100719	-0.000086	0.378512
H62	H	-0.168456	-0.063252	0.440213
H63	H	-0.182244	-0.000143	0.063510
H64	H	-0.556597	-0.000144	0.019639
N65	N	-0.717348	-0.000126	0.013204
H66	H	-0.707442	0.063043	-0.029530
H67	H	-0.775090	-0.000163	0.032292
N68	N	-0.418266	-0.000119	0.069101
H69	H	-0.436938	0.063057	0.029288
H70	H	-0.431083	-0.063340	0.036636
