data_functionalizedCrystal
_audit_creation_method	'MofGen! by Chris Wilmer'
_symmetry_space_group_name_H-M	'P1'
_symmetry_Int_Tables_number	1
_symmetry_cell_setting	triclinic
loop_
_symmetry_equiv_pos_as_xyz
  x,y,z
_cell_length_a	10.654546
_cell_length_b	19.188930
_cell_length_c	9.730223
_cell_angle_alpha	89.993564
_cell_angle_beta	89.998853
_cell_angle_gamma	83.814132
loop_
_atom_site_label
_atom_site_type_symbol
_atom_site_fract_x
_atom_site_fract_y
_atom_site_fract_z
O1	O	1.665762	0.098047	-0.114337
O2	O	1.300085	0.107393	-0.114335
O3	O	1.493476	0.001133	-0.114309
O4	O	1.472371	0.204307	-0.114363
O5	O	1.493474	0.001136	0.114271
O6	O	1.300083	0.107395	0.114245
O7	O	1.665760	0.098050	0.114243
Zn8	Zn	1.482921	0.102723	0.150536
Zn9	Zn	1.482924	0.102719	-0.150628
O10	O	1.472369	0.204309	0.114217
C11	C	1.253300	0.106708	-0.000044
C12	C	1.113900	0.104657	-0.000042
C13	C	1.048427	0.103685	-0.124647
C14	C	0.917448	0.101751	-0.124658
C15	C	0.917426	0.101760	0.124552
C16	C	1.048402	0.103698	0.124562
C17	C	1.048439	0.103677	-0.268527
C18	C	0.917460	0.101743	-0.268538
C19	C	1.492791	-0.024881	-0.000015
C20	C	1.490740	-0.102399	-0.000004
C21	C	1.604215	-0.146581	0.000002
C22	C	1.602288	-0.219418	-0.000020
C23	C	1.486878	-0.248068	-0.000020
C24	C	1.373388	-0.203876	-0.000034
C25	C	1.375319	-0.131041	-0.000025
N26	N	1.398661	-0.356649	0.077771
N27	N	1.396834	-0.425839	0.077766
C28	C	1.481054	-0.467515	-0.000048
N29	N	1.567189	-0.437388	-0.077839
N30	N	1.569019	-0.368191	-0.077828
C31	C	1.484772	-0.327045	-0.000030
C32	C	1.592448	-0.590676	-0.000068
C33	C	1.590515	-0.663513	-0.000098
C34	C	1.361612	-0.647970	-0.000098
C35	C	1.363548	-0.575134	-0.000082
C36	C	1.478969	-0.546492	-0.000060
C37	C	1.712544	0.098734	-0.000051
C38	C	1.851944	0.100786	-0.000062
C39	C	1.473053	0.230323	-0.000080
C40	C	1.475105	0.307841	-0.000101
N41	N	1.482928	0.102725	0.356072
N42	N	1.482927	0.102712	-0.356165
C43	C	1.568583	0.055689	0.428010
C44	C	1.568580	0.055681	0.571892
C45	C	1.397262	0.149750	0.571888
C46	C	1.397261	0.149754	0.428008
C47	C	1.667496	0.001382	0.428013
C48	C	1.667493	0.001373	0.571896
H49	H	1.698200	-0.123266	0.000015
F50	F	0.886383	0.037304	-0.340716
F51	F	1.306082	0.199807	0.351447
H52	H	1.638053	-0.049338	0.616525
H53	H	1.282910	-0.095067	-0.000030
F54	F	1.238784	-0.678457	-0.000106
F55	F	0.848488	0.166729	-0.326927
F56	F	1.118076	0.104746	0.257183
F57	F	1.306093	0.199799	0.648458
H58	H	1.686430	-0.567354	-0.000056
H59	H	1.763751	0.013335	0.610943
H60	H	1.682925	-0.699487	-0.000101
H61	H	1.101214	0.053954	-0.313148
H62	H	1.647188	-0.052282	0.388974
H63	H	1.279421	-0.227208	-0.000037
F64	F	1.242770	-0.528109	-0.000082
F65	F	0.847707	0.100741	0.257157
F66	F	1.079524	0.168108	-0.340752
H67	H	1.758320	0.018385	0.383381
F68	F	1.723069	-0.266449	-0.000016
