data_functionalizedCrystal
_audit_creation_method	'MofGen! by Chris Wilmer'
_symmetry_space_group_name_H-M	'P1'
_symmetry_Int_Tables_number	1
_symmetry_cell_setting	triclinic
loop_
_symmetry_equiv_pos_as_xyz
  x,y,z
_cell_length_a	10.723024
_cell_length_b	10.723024
_cell_length_c	9.798715
_cell_angle_alpha	90.003391
_cell_angle_beta	89.998022
_cell_angle_gamma	95.532131
loop_
_atom_site_label
_atom_site_type_symbol
_atom_site_fract_x
_atom_site_fract_y
_atom_site_fract_z
O1	O	0.175024	-1.657187	-0.113478
O2	O	0.191778	-1.294035	-0.113483
O3	O	0.001825	-1.483988	-0.113475
O4	O	0.364977	-1.467234	-0.113486
O5	O	0.001824	-1.483974	0.113507
O6	O	0.191777	-1.294021	0.113499
O7	O	0.175024	-1.657173	0.113504
Zn8	Zn	0.183401	-1.475595	0.149540
Zn9	Zn	0.183401	-1.475613	-0.149519
O10	O	0.364977	-1.467220	0.113496
C11	C	0.190558	-1.247528	0.000008
C12	C	0.186911	-1.108974	0.000006
C13	C	-0.044675	-1.482762	0.000014
C14	C	-0.183229	-1.479114	0.000009
N15	N	0.183399	-1.475591	0.353640
C16	C	-0.374986	-1.365807	0.000001
C17	C	-0.231783	-1.369574	0.000006
C18	C	0.411477	-1.468447	0.000004
C19	C	0.550031	-1.472094	-0.000000
C20	C	0.176243	-1.703680	0.000010
C21	C	0.179891	-1.842234	0.000003
C22	C	0.293198	-1.033991	0.000002
C23	C	0.289431	-0.890788	0.000001
N24	N	0.183393	-1.475627	-0.353619
C25	C	0.103292	-1.555347	0.421420
C26	C	0.103288	-1.555367	0.578582
H27	H	-0.167350	-1.278584	0.000015
H28	H	0.251984	-1.407345	0.588102
C29	C	0.058649	-0.928278	-0.000207
C30	C	0.054092	-1.003853	-0.116967
C31	C	-0.057569	-1.083153	-0.117199
H32	H	-0.010665	-0.879395	-0.000275
H33	H	0.055321	-0.979709	0.078906
H34	H	0.057407	-0.952428	-0.196059
H35	H	0.123379	-1.052762	-0.116924
H36	H	-0.060896	-1.134583	-0.038086
H37	H	-0.126873	-1.034260	-0.117263
H38	H	-0.060670	-1.134447	-0.196412
C39	C	-0.268916	-1.600590	0.000076
C40	C	-0.196359	-1.702377	0.000112
C41	C	-0.275260	-1.814299	0.000191
H42	H	-0.320301	-1.604091	-0.079057
H43	H	-0.320262	-1.603975	0.079260
H44	H	-0.145035	-1.698994	-0.079065
H45	H	-0.144977	-1.698918	0.079239
H46	H	-0.326605	-1.817683	0.079375
H47	H	-0.326640	-1.817787	-0.078944
H48	H	-0.226042	-1.883374	0.000228
C49	C	0.274648	-1.384494	0.431568
C50	C	0.207631	-1.307436	0.513643
C51	C	0.291649	-1.223511	0.585460
H52	H	0.324943	-1.334332	0.368822
H53	H	0.326796	-1.430006	0.487380
H54	H	0.155505	-1.261928	0.457835
H55	H	0.157340	-1.357563	0.576414
H56	H	0.343797	-1.269023	0.641272
H57	H	0.341940	-1.173358	0.522704
H58	H	0.246191	-1.171225	0.641165
C59	C	0.011669	-1.646235	0.343704
C60	C	-0.111103	-1.624652	0.378302
C61	C	-0.195529	-1.708345	0.306712
H62	H	0.025567	-1.729770	0.366964
H63	H	0.023772	-1.634095	0.248401
H64	H	-0.123200	-1.636803	0.473584
H65	H	-0.125040	-1.541133	0.355038
H66	H	-0.183426	-1.696205	0.211409
H67	H	-0.181620	-1.791875	0.329977
H68	H	-0.278839	-1.693705	0.330167
C69	C	0.418347	-1.089574	-0.000212
C70	C	0.486081	-1.049589	-0.116975
C71	C	0.601383	-1.100750	-0.117209
H72	H	0.404433	-1.178410	-0.000279
H73	H	0.464541	-1.062543	0.078899
H74	H	0.439897	-1.076628	-0.196065
H75	H	0.500029	-0.960760	-0.116932
H76	H	0.647577	-1.073719	-0.038098
H77	H	0.587457	-1.189585	-0.117273
H78	H	0.647360	-1.073619	-0.196424
C79	C	0.011974	-1.646619	0.656217
C80	C	0.032969	-1.769534	0.621558
C81	C	-0.051119	-1.853630	0.693063
H82	H	-0.071446	-1.632302	0.632929
H83	H	0.024129	-1.634617	0.751533
H84	H	0.020803	-1.781531	0.526264
H85	H	0.116372	-1.783891	0.644850
H86	H	-0.038963	-1.841628	0.788379
H87	H	-0.134533	-1.839301	0.669769
H88	H	-0.036878	-1.937037	0.669567
H89	H	-0.416809	-1.272021	-0.000010
H90	H	-0.408147	-1.565880	-0.000046
H91	H	0.380421	-0.826355	-0.000008
H92	H	0.093125	-1.067152	-0.000026
