data_functionalizedCrystal
_audit_creation_method	'MofGen! by Chris Wilmer'
_symmetry_space_group_name_H-M	'P1'
_symmetry_Int_Tables_number	1
_symmetry_cell_setting	triclinic
loop_
_symmetry_equiv_pos_as_xyz
  x,y,z
_cell_length_a	18.101398
_cell_length_b	12.827892
_cell_length_c	12.827885
_cell_angle_alpha	90.029786
_cell_angle_beta	90.026581
_cell_angle_gamma	90.010659
loop_
_atom_site_label
_atom_site_type_symbol
_atom_site_fract_x
_atom_site_fract_y
_atom_site_fract_z
Zn1	Zn	1.132218	-0.416114	0.591052
Zn2	Zn	1.632218	0.083886	1.091052
Zn3	Zn	1.132143	-0.590892	0.416313
Zn4	Zn	1.632143	-0.090892	0.916313
Zn5	Zn	1.008372	-0.416151	0.416304
Zn6	Zn	1.508372	0.083849	0.916304
Zn7	Zn	1.008362	-0.590800	0.590990
Zn8	Zn	1.508362	-0.090800	1.090990
O9	O	1.070274	-0.503489	0.503665
O10	O	1.570274	-0.003489	1.003665
O11	O	1.235841	-0.439322	0.567903
O12	O	1.735841	0.060678	1.067903
O13	O	1.115698	-0.567766	0.270075
O14	O	1.615698	-0.067766	0.770075
O15	O	1.024837	-0.269910	0.439507
O16	O	1.524837	0.230090	0.939507
O17	O	1.235786	-0.567730	0.439522
O18	O	1.735786	-0.067730	0.939522
O19	O	1.115826	-0.269883	0.567894
O20	O	1.615826	0.230117	1.067894
O21	O	1.024764	-0.439384	0.270069
O22	O	1.524764	0.060616	0.770069
O23	O	0.904738	-0.439295	0.439447
O24	O	1.404738	0.060705	0.939447
O25	O	1.024819	-0.567573	0.737235
O26	O	1.524819	-0.067573	1.237235
O27	O	0.904731	-0.567609	0.567788
O28	O	1.404731	-0.067609	1.067788
O29	O	1.115816	-0.439233	0.737280
O30	O	1.615816	0.060767	1.237280
O31	O	1.115688	-0.737115	0.439462
O32	O	1.615688	-0.237115	0.939462
O33	O	1.024746	-0.737048	0.567797
O34	O	1.524746	-0.237048	1.067797
C35	C	1.070228	-0.774999	0.503646
C36	C	1.570228	-0.274999	1.003646
C37	C	1.070276	-0.891152	0.503673
C38	C	1.570276	-0.391152	1.003673
C39	C	0.877863	-0.503447	0.503610
C40	C	1.377863	-0.003447	1.003610
C41	C	0.795549	-0.503454	0.503612
C42	C	1.295549	-0.003454	1.003612
C43	C	1.115330	-0.942936	0.440240
C44	C	1.615330	-0.442936	0.940240
C45	C	1.115380	-1.062986	0.440266
C46	C	1.615380	-0.562986	0.940266
C47	C	0.496458	-0.503519	0.503700
C48	C	0.996458	-0.003519	1.003700
C49	C	0.527764	-0.422384	0.423344
C50	C	1.027764	0.077616	0.923344
C51	C	0.613382	-0.422602	0.423002
C52	C	1.113382	0.077398	0.923002
C53	C	0.644841	-0.503486	0.503656
C54	C	1.144841	-0.003486	1.003656
C55	C	0.613743	-0.613571	0.473573
C56	C	1.113743	-0.113571	0.973573
C57	C	0.528098	-0.613120	0.473014
C58	C	1.028098	-0.113120	0.973014
C59	C	0.528071	-0.475526	0.614327
C60	C	1.028071	0.024474	1.114327
C61	C	0.613721	-0.473075	0.613723
C62	C	1.113721	0.026925	1.113723
C63	C	0.728700	-0.503474	0.503633
C64	C	1.228700	-0.003474	1.003633
C65	C	0.412599	-0.503538	0.503720
C66	C	0.912599	-0.003538	1.003720
C67	C	1.263436	-0.503532	0.503720
C68	C	1.763436	-0.003532	1.003720
C69	C	1.345750	-0.503551	0.503744
C70	C	1.845750	-0.003551	1.003744
C71	C	1.070324	-0.503389	0.776235
C72	C	1.570324	-0.003389	1.276235
C73	C	1.070346	-0.503346	0.892388
C74	C	1.570346	-0.003346	1.392388
C75	C	1.070341	-0.230919	0.503706
C76	C	1.570341	0.269081	1.003706
C77	C	1.070369	-0.114766	0.503724
C78	C	1.570369	0.385234	1.003724
C79	C	1.070266	-0.503514	0.232155
C80	C	1.570266	-0.003514	0.732155
C81	C	1.070388	-0.503262	0.116002
C82	C	1.570388	-0.003262	0.616002
C83	C	1.115379	-0.439827	0.944196
C84	C	1.615379	0.060173	1.444196
C85	C	1.115402	-0.439781	1.064246
C86	C	1.615402	0.060219	1.564246
H87	H	1.153868	-0.898395	0.385915
H88	H	1.653868	-0.398395	0.885915
H89	H	0.506484	-0.396649	0.641679
H90	H	1.006484	0.103351	1.141679
Br91	Br	1.006050	-0.965382	0.594237
Br92	Br	1.506050	-0.465382	1.094237
H93	H	0.634122	-0.675643	0.530269
H94	H	1.134122	-0.175643	1.030269
Br95	Br	0.494743	-0.652683	0.338220
Br96	Br	0.994743	-0.152683	0.838220
Br97	Br	1.179672	-0.349145	1.138496
Br98	Br	1.679672	0.150855	1.638496
H99	H	1.153951	-1.107519	0.385956
H100	H	1.653951	-0.607519	0.885956
H101	H	1.031835	-0.557650	1.071456
H102	H	1.531835	-0.057650	1.571456
Br103	Br	1.006104	-0.593926	0.966585
Br104	Br	1.506104	-0.093926	1.466585
Br105	Br	0.649436	-0.653827	0.340233
Br106	Br	1.149436	-0.153827	0.840233
Br107	Br	0.648430	-0.286542	0.454428
Br108	Br	1.148430	0.213458	0.954428
H109	H	1.031791	-1.070241	0.558031
H110	H	1.531791	-0.570241	1.058031
H111	H	0.507178	-0.340502	0.441992
H112	H	1.007178	0.159498	0.941992
H113	H	0.507390	-0.675619	0.528990
H114	H	1.007390	-0.175619	1.028990
H115	H	0.506216	-0.440681	0.341848
H116	H	1.006216	0.059319	0.841848
H117	H	1.153913	-0.385475	0.899673
H118	H	1.653913	0.114525	1.399673
H119	H	0.633837	-0.441108	0.341028
H120	H	1.133837	0.058892	0.841028
Br121	Br	0.494332	-0.574021	0.714118
Br122	Br	0.994332	-0.074021	1.214118
Br123	Br	0.647616	-0.338061	0.651547
Br124	Br	1.147616	0.161939	1.151547
H125	H	0.635139	-0.527862	0.676801
H126	H	1.135139	-0.027862	1.176801
