data_functionalizedCrystal
_audit_creation_method	'MofGen! by Chris Wilmer'
_symmetry_space_group_name_H-M	'P1'
_symmetry_Int_Tables_number	1
_symmetry_cell_setting	triclinic
loop_
_symmetry_equiv_pos_as_xyz
  x,y,z
_cell_length_a	14.044220
_cell_length_b	19.288840
_cell_length_c	18.366186
_cell_angle_alpha	90.013590
_cell_angle_beta	90.002290
_cell_angle_gamma	88.157446
loop_
_atom_site_label
_atom_site_type_symbol
_atom_site_fract_x
_atom_site_fract_y
_atom_site_fract_z
O1	O	0.118094	0.928950	0.060674
O2	O	0.618094	1.428950	0.560674
O3	O	0.134066	0.727713	0.060649
O4	O	0.634066	1.227713	0.560649
O5	O	-0.011891	0.825311	0.060654
O6	O	0.488109	1.325311	0.560654
O7	O	0.264051	0.831352	0.060669
O8	O	0.764051	1.331352	0.560669
O9	O	-0.011886	0.825297	-0.060445
O10	O	0.488114	1.325297	0.439555
O11	O	0.134071	0.727699	-0.060450
O12	O	0.634071	1.227699	0.439550
O13	O	0.118099	0.928936	-0.060425
O14	O	0.618099	1.428936	0.439575
Zn15	Zn	0.126086	0.828315	-0.079665
Zn16	Zn	0.626086	1.328315	0.420335
Zn17	Zn	0.126079	0.828333	0.079889
Zn18	Zn	0.626079	1.328333	0.579889
O19	O	0.264057	0.831338	-0.060430
O20	O	0.764057	1.331338	0.439570
C21	C	0.133559	0.701796	0.000096
C22	C	0.633559	1.201796	0.500096
C23	C	0.132028	0.624594	0.000087
C24	C	0.632028	1.124594	0.500087
C25	C	-0.047191	0.822659	0.000104
C26	C	0.452809	1.322659	0.500104
C27	C	-0.152383	0.814772	0.000102
C28	C	0.347617	1.314772	0.500102
C29	C	0.131290	0.588350	0.066100
C30	C	0.631290	1.088350	0.566100
C31	C	0.129841	0.515810	0.066109
C32	C	0.629841	1.015810	0.566109
C33	C	0.129111	0.479517	0.000101
C34	C	0.629111	0.979517	0.500101
C35	C	0.129854	0.515769	-0.065921
C36	C	0.629854	1.015769	0.434079
C37	C	0.131313	0.588307	-0.065928
C38	C	0.631313	1.088307	0.434072
C39	C	0.071298	0.366469	-0.050464
C40	C	0.571298	0.866469	0.449536
C41	C	0.069833	0.293932	-0.050454
C42	C	0.569833	0.793932	0.449546
C43	C	0.124617	0.255785	0.000119
C44	C	0.624617	0.755785	0.500119
C45	C	0.180852	0.290183	0.050695
C46	C	0.680852	0.790183	0.550695
C47	C	0.182311	0.362721	0.050688
C48	C	0.682311	0.862721	0.550688
C49	C	0.127530	0.400861	0.000101
C50	C	0.627530	0.900861	0.500101
C51	C	0.122309	0.140885	0.066147
C52	C	0.622309	0.640885	0.566147
C53	C	0.120866	0.068343	0.066153
C54	C	0.620866	0.568343	0.566153
C55	C	0.120870	0.068304	-0.065879
C56	C	0.620870	0.568304	0.434121
C57	C	0.122323	0.140844	-0.065883
C58	C	0.622323	0.640844	0.434117
C59	C	0.123037	0.177130	0.000132
C60	C	0.623037	0.677130	0.500132
C61	C	-0.344981	0.800351	0.000111
C62	C	0.155019	1.300351	0.500111
C63	C	-0.402860	0.856295	0.000120
C64	C	0.097140	1.356295	0.500120
C65	C	-0.510028	0.848271	0.000125
C66	C	-0.010028	1.348271	0.500125
C67	C	-0.237802	0.808374	0.000106
C68	C	0.262198	1.308374	0.500106
C69	C	0.299357	0.833989	0.000122
C70	C	0.799357	1.333989	0.500122
C71	C	0.404548	0.841877	0.000129
C72	C	0.904548	1.341877	0.500129
C73	C	0.118607	0.954852	0.000129
C74	C	0.618607	1.454852	0.500129
C75	C	0.120138	1.032055	0.000144
C76	C	0.620138	1.532055	0.500144
N77	N	0.126090	0.828308	-0.188556
N78	N	0.626090	1.328308	0.311444
C79	C	0.183382	0.874021	-0.773097
C80	C	0.683382	1.374021	-0.273097
C81	C	0.183391	0.874014	-0.696869
C82	C	0.683391	1.374014	-0.196869
C83	C	0.126069	0.828339	-0.658767
C84	C	0.626069	1.328339	-0.158767
C85	C	0.068751	0.782655	-0.696900
C86	C	0.568751	1.282655	-0.196900
C87	C	0.068751	0.782658	-0.773126
C88	C	0.568751	1.282658	-0.273126
C89	C	0.040631	0.821123	-0.538006
C90	C	0.540631	1.321123	-0.038006
C91	C	0.040630	0.821124	-0.461781
C92	C	0.540630	1.321124	0.038219
C93	C	0.126071	0.828325	-0.423660
C94	C	0.626071	1.328325	0.076340
C95	C	0.211516	0.835539	-0.461772
C96	C	0.711516	1.335539	0.038228
C97	C	0.211515	0.835543	-0.537999
C98	C	0.711515	1.335543	-0.037999
C99	C	0.126063	0.828330	-0.576112
C100	C	0.626063	1.328330	-0.076112
C101	C	0.183400	0.873996	-0.302881
C102	C	0.683400	1.373996	0.197119
C103	C	0.183411	0.873985	-0.226652
C104	C	0.683411	1.373985	0.273348
C105	C	0.068763	0.782629	-0.226684
C106	C	0.568763	1.282629	0.273316
C107	C	0.068761	0.782637	-0.302912
C108	C	0.568761	1.282637	0.197088
C109	C	0.126078	0.828324	-0.341006
C110	C	0.626078	1.328324	0.158994
N111	N	0.126068	0.828345	0.188780
N112	N	0.626068	1.328345	0.688780
H113	H	0.131872	0.617890	0.119854
H114	H	0.631872	1.117890	0.619854
H115	H	0.225466	0.259125	0.091875
H116	H	0.725466	0.759125	0.591875
C117	C	0.244219	0.400555	0.106288
C118	C	0.744219	0.900555	0.606288
N119	N	0.290869	0.429051	0.148155
N120	N	0.790869	0.929051	0.648155
C121	C	0.123112	0.180802	0.138763
C122	C	0.623112	0.680802	0.638763
N123	N	0.123721	0.210865	0.193459
N124	N	0.623721	0.710865	0.693459
H125	H	0.024038	0.265931	-0.091633
H126	H	0.524038	0.765931	0.408367
C127	C	-0.361071	0.929140	0.000119
C128	C	0.138929	1.429140	0.500119
N129	N	-0.329591	0.984005	0.000114
N130	N	0.170409	1.484005	0.500114
C131	C	-0.386770	0.727511	0.000092
C132	C	0.113230	1.227511	0.500092
N133	N	-0.418257	0.672648	0.000072
N134	N	0.081743	1.172648	0.500072
H135	H	0.120271	0.038835	0.119911
H136	H	0.620271	0.538835	0.619911
C137	C	0.246469	0.924254	-0.814995
C138	C	0.746469	1.424254	-0.314995
N139	N	0.294000	0.962082	-0.846555
N140	N	0.794000	1.462082	-0.346555
H141	H	0.230067	0.911209	-0.665823
H142	H	0.730067	1.411209	-0.165823
C143	C	0.305504	0.843464	-0.579920
C144	C	0.805504	1.343464	-0.079920
N145	N	0.376300	0.849425	-0.611494
N146	N	0.876300	1.349425	-0.111494
C147	C	0.011024	0.408424	-0.106101
C148	C	0.511024	0.908424	0.393899
N149	N	-0.034373	0.440024	-0.148004
N150	N	0.465627	0.940024	0.351996
C151	C	0.120069	0.028386	-0.138489
C152	C	0.620069	0.528386	0.361511
N153	N	0.119467	-0.001684	-0.193181
N154	N	0.619467	0.498316	0.306819
C155	C	0.305510	0.843455	-0.419844
C156	C	0.805510	1.343455	0.080156
N157	N	0.376305	0.849415	-0.388261
N158	N	0.876305	1.349415	0.111739
C159	C	0.123121	0.180714	-0.138504
C160	C	0.623121	0.680714	0.361496
N161	N	0.123723	0.210743	-0.193205
N162	N	0.623723	0.710743	0.306795
C163	C	-0.053360	0.813189	-0.419865
C164	C	0.446640	1.313189	0.080135
N165	N	-0.124155	0.807210	-0.388295
N166	N	0.375845	1.307210	0.111705
C167	C	0.246453	0.924251	-0.344787
C168	C	0.746453	1.424251	0.155213
N169	N	0.293944	0.962103	-0.376349
N170	N	0.793944	1.462103	0.123651
C171	C	0.132117	0.628176	-0.138551
C172	C	0.632117	1.128176	0.361449
N173	N	0.132719	0.658207	-0.193252
N174	N	0.632719	1.158207	0.306748
C175	C	0.246464	0.924235	-0.184717
C176	C	0.746464	1.424235	0.315283
N177	N	0.293955	0.962086	-0.153130
N178	N	0.793955	1.462086	0.346870
H179	H	-0.028949	0.815252	-0.569039
H180	H	0.471051	1.315252	-0.069039
H181	H	0.022078	0.745462	-0.804165
H182	H	0.522078	1.245462	-0.304165
C183	C	0.005736	0.732366	-0.184777
C184	C	0.505736	1.232366	0.315223
N185	N	-0.041726	0.694499	-0.153209
N186	N	0.458274	1.194499	0.346791
C187	C	0.005704	0.732393	-0.344849
C188	C	0.505704	1.232393	0.155151
N189	N	-0.041790	0.694545	-0.376436
N190	N	0.458210	1.194545	0.123564
H191	H	0.022081	0.745464	-0.665872
H192	H	0.522081	1.245464	-0.165872
H193	H	0.129262	0.486214	-0.119665
H194	H	0.629262	0.986214	0.380335
C195	C	0.129022	0.475934	0.138731
C196	C	0.629022	0.975934	0.638731
N197	N	0.128403	0.445902	0.193430
N198	N	0.628403	0.945902	0.693430
