data_functionalizedCrystal
_audit_creation_method	'MofGen! by Chris Wilmer'
_symmetry_space_group_name_H-M	'P1'
_symmetry_Int_Tables_number	1
_symmetry_cell_setting	triclinic
loop_
_symmetry_equiv_pos_as_xyz
  x,y,z
_cell_length_a	12.759401
_cell_length_b	12.827892
_cell_length_c	12.827885
_cell_angle_alpha	89.970214
_cell_angle_beta	89.980551
_cell_angle_gamma	90.016917
loop_
_atom_site_label
_atom_site_type_symbol
_atom_site_fract_x
_atom_site_fract_y
_atom_site_fract_z
Zn1	Zn	1.606246	-0.415940	-0.590854
Zn2	Zn	1.606139	-0.590717	-0.416114
Zn3	Zn	1.430549	-0.415996	-0.416127
Zn4	Zn	1.430534	-0.590644	-0.590813
O5	O	1.518367	-0.503324	-0.503477
O6	O	1.753253	-0.439132	-0.567686
O7	O	1.582809	-0.567594	-0.269880
O8	O	1.453906	-0.269752	-0.439327
O9	O	1.753175	-0.567540	-0.439305
O10	O	1.582990	-0.269711	-0.567698
O11	O	1.453803	-0.439227	-0.269889
O12	O	1.283526	-0.439156	-0.439288
O13	O	1.453881	-0.567416	-0.737055
O14	O	1.283515	-0.567469	-0.567629
O15	O	1.582976	-0.439061	-0.737084
O16	O	1.582794	-0.736944	-0.439266
O17	O	1.453778	-0.736890	-0.567617
C18	C	1.245400	-0.503311	-0.503456
C19	C	1.128623	-0.503331	-0.503472
C20	C	1.073783	-0.570246	-0.570194
C21	C	0.964059	-0.570250	-0.570215
C22	C	0.964025	-0.436422	-0.436782
C23	C	1.073747	-0.436413	-0.436768
C24	C	1.518302	-0.774834	-0.503458
C25	C	1.518370	-0.890987	-0.503486
C26	C	1.582287	-0.942764	-0.440044
C27	C	1.582358	-1.062814	-0.440070
C28	C	1.792400	-0.503338	-0.503498
C29	C	1.909177	-0.503344	-0.503507
C30	C	1.518439	-0.503224	-0.776047
C31	C	1.518469	-0.503181	-0.892200
C32	C	1.518462	-0.230754	-0.503518
C33	C	1.518502	-0.114601	-0.503536
C34	C	1.582356	-0.439655	-0.944000
C35	C	1.582389	-0.439609	-1.064050
C36	C	1.518356	-0.503349	-0.231967
C37	C	1.518530	-0.503097	-0.115814
H38	H	0.919413	-0.624737	-0.624549
H39	H	1.463835	-0.557491	-1.071275
C40	C	1.385577	-0.635307	-0.881452
C41	C	1.444657	-0.576560	-0.952301
H42	H	1.340004	-0.680604	-0.918556
H43	H	1.431288	-0.675336	-0.838881
H44	H	1.345358	-0.589818	-0.838879
H45	H	1.484883	-0.622048	-0.994869
H46	H	1.398940	-0.536528	-0.994889
C47	C	1.062792	-0.702517	-0.702099
C48	C	1.134104	-0.643789	-0.643526
H49	H	1.100032	-0.747913	-0.747379
H50	H	1.019970	-0.742440	-0.656508
H51	H	1.020022	-0.657023	-0.742149
H52	H	1.176869	-0.689283	-0.603470
H53	H	1.176944	-0.603863	-0.689124
H54	H	1.463705	-0.935536	-0.557824
H55	H	0.919331	-0.381941	-0.382472
C56	C	1.760286	-1.096451	-0.389380
C57	C	1.656255	-1.122891	-0.366742
H58	H	1.805911	-1.133532	-0.344103
H59	H	1.775603	-1.114236	-0.459617
H60	H	1.769899	-1.023654	-0.379753
H61	H	1.646640	-1.195688	-0.376376
H62	H	1.640932	-1.105114	-0.296488
H63	H	1.118399	-0.381917	-0.382434
C64	C	1.503868	-0.991650	-0.643957
C65	C	1.444624	-1.054508	-0.576870
H66	H	1.458257	-0.954551	-0.689233
H67	H	1.543908	-0.943603	-0.604134
H68	H	1.549604	-1.034171	-0.684013
H69	H	1.398892	-1.011986	-0.536807
H70	H	1.404566	-1.102560	-0.616696
C71	C	1.596771	-0.819981	-0.299574
C72	C	1.656090	-0.882635	-0.366688
H73	H	1.642336	-0.782868	-0.254282
H74	H	1.556672	-0.771948	-0.339376
H75	H	1.551085	-0.862643	-0.259535
H76	H	1.701770	-0.839973	-0.406732
H77	H	1.696206	-0.930674	-0.326881
H78	H	1.637024	-0.385298	-0.899470
H79	H	1.637089	-0.385225	-1.108596
