data_functionalizedCrystal
_audit_creation_method	'MofGen! by Chris Wilmer'
_symmetry_space_group_name_H-M	'P1'
_symmetry_Int_Tables_number	1
_symmetry_cell_setting	triclinic
loop_
_symmetry_equiv_pos_as_xyz
  x,y,z
_cell_length_a	23.532407
_cell_length_b	23.532407
_cell_length_c	22.010155
_cell_angle_alpha	90.000423
_cell_angle_beta	89.996931
_cell_angle_gamma	97.151322
loop_
_atom_site_label
_atom_site_type_symbol
_atom_site_fract_x
_atom_site_fract_y
_atom_site_fract_z
O1	O	0.755264	-0.069127	-0.050455
O2	O	1.255264	0.430873	0.449545
O3	O	0.589400	-0.079130	-0.050474
O4	O	1.089400	0.420870	0.449526
O5	O	0.677334	0.008803	-0.050453
O6	O	1.177334	0.508803	0.449547
O7	O	0.667330	-0.157060	-0.050476
O8	O	1.167330	0.342940	0.449524
O9	O	0.677318	0.008790	0.050597
O10	O	1.177318	0.508790	0.550597
O11	O	0.589384	-0.079143	0.050576
O12	O	1.089384	0.420857	0.550576
O13	O	0.755248	-0.069140	0.050595
O14	O	1.255248	0.430860	0.550595
Cu15	Cu	0.672315	-0.074143	0.059812
Cu16	Cu	1.172315	0.425857	0.559812
Cu17	Cu	0.672333	-0.074127	-0.059691
Cu18	Cu	1.172333	0.425873	0.440309
O19	O	0.667314	-0.157073	0.050574
O20	O	1.167314	0.342927	0.550574
C21	C	0.568176	-0.078882	0.000049
C22	C	1.068176	0.421118	0.500049
C23	C	0.504959	-0.078116	0.000042
C24	C	1.004959	0.421884	0.500042
C25	C	0.105856	-0.125350	0.000063
C26	C	0.605856	0.374650	0.500063
C27	C	0.046456	-0.124638	0.000067
C28	C	0.546456	0.375362	0.500067
O29	O	0.009711	-0.168424	0.000083
O30	O	0.509711	0.331576	0.500083
N31	N	0.023830	-0.072362	0.000073
N32	N	0.523830	0.427638	0.500073
C33	C	0.060607	-0.020794	0.000082
C34	C	0.560607	0.479206	0.500082
O35	O	0.035908	0.023737	0.000088
O36	O	0.535908	0.523737	0.500088
C37	C	0.120006	-0.021506	0.000082
C38	C	0.620006	0.478494	0.500082
C39	C	0.142629	-0.073785	0.000070
C40	C	0.642629	0.426215	0.500070
C41	C	0.128479	-0.177625	0.000051
C42	C	0.628479	0.322375	0.500051
C43	C	0.187876	-0.178336	0.000046
C44	C	0.687876	0.321664	0.500046
C45	C	0.224649	-0.126772	0.000053
C46	C	0.724649	0.373228	0.500053
C47	C	0.202025	-0.074497	0.000065
C48	C	0.702025	0.425503	0.500065
C49	C	0.156783	0.030062	0.000096
C50	C	0.656783	0.530062	0.500096
C51	C	0.216185	0.029345	0.000097
C52	C	0.716185	0.529345	0.500097
C53	C	0.238808	-0.022934	0.000084
C54	C	0.738808	0.477066	0.500084
C55	C	0.298194	-0.023643	0.000067
C56	C	0.798194	0.476357	0.500067
N57	N	0.320820	-0.075920	0.000061
N58	N	0.820820	0.424080	0.500061
C59	C	0.284048	-0.127484	0.000054
C60	C	0.784048	0.372516	0.500054
C61	C	-0.064135	-0.019302	0.000082
C62	C	0.435865	0.480698	0.500082
C63	C	-0.123533	-0.018589	0.000077
C64	C	0.376467	0.481411	0.500077
C65	C	-0.137680	-0.122434	0.000063
C66	C	0.362320	0.377566	0.500063
C67	C	-0.078281	-0.123146	0.000064
C68	C	0.421719	0.376854	0.500064
C69	C	-0.041509	-0.071578	0.000076
C70	C	0.458491	0.428422	0.500076
C71	C	0.408784	-0.128974	0.000043
C72	C	0.908784	0.371026	0.500043
C73	C	0.468186	-0.129680	0.000035
C74	C	0.968186	0.370320	0.500035
C75	C	0.482329	-0.025836	0.000052
C76	C	0.982329	0.474164	0.500052
C77	C	0.422932	-0.025129	0.000057
C78	C	0.922932	0.474871	0.500057
C79	C	0.386160	-0.076702	0.000054
C80	C	0.886160	0.423298	0.500054
O81	O	0.334974	0.020119	0.000054
O82	O	0.834974	0.520119	0.500054
O83	O	0.308755	-0.172007	0.000055
O84	O	0.808755	0.327993	0.500055
C85	C	0.677071	0.030013	0.000074
C86	C	1.177071	0.530013	0.500074
C87	C	0.676305	0.093230	0.000078
C88	C	1.176305	0.593230	0.500078
C89	C	0.776472	-0.069388	0.000071
C90	C	1.276472	0.430612	0.500071
C91	C	0.839689	-0.070154	0.000073
C92	C	1.339689	0.429846	0.500073
C93	C	0.667577	-0.178283	0.000046
C94	C	1.167577	0.321717	0.500046
C95	C	0.668343	-0.241500	0.000037
C96	C	1.168343	0.258500	0.500037
N97	N	0.672305	-0.074153	0.143865
N98	N	1.172305	0.425847	0.643865
C99	C	0.723539	0.492333	0.000050
C100	C	1.223539	0.992333	0.500050
C101	C	0.722827	0.551733	0.000046
C102	C	1.222827	1.051733	0.500046
O103	O	0.766613	0.588478	0.000028
O104	O	1.266613	1.088478	0.500028
N105	N	0.670551	0.574359	0.000040
N106	N	1.170551	1.074359	0.500040
C107	C	0.618983	0.537582	0.000033
C108	C	1.118983	1.037582	0.500033
O109	O	0.574452	0.562281	0.000027
O110	O	1.074452	1.062281	0.500027
C111	C	0.619695	0.478182	0.000033
C112	C	1.119695	0.978182	0.500033
C113	C	0.671974	0.455560	0.000045
C114	C	1.171974	0.955560	0.500045
C115	C	0.775814	0.469710	0.000061
C116	C	1.275814	0.969710	0.500061
C117	C	0.776525	0.410313	0.000067
C118	C	1.276525	0.910313	0.500067
C119	C	0.724961	0.373540	0.000062
C120	C	1.224961	0.873540	0.500062
C121	C	0.672685	0.396164	0.000051
C122	C	1.172685	0.896164	0.500051
C123	C	0.568127	0.441406	0.000022
C124	C	1.068127	0.941406	0.500022
C125	C	0.568844	0.382004	0.000022
C126	C	1.068844	0.882004	0.500022
C127	C	0.621123	0.359381	0.000034
C128	C	1.121123	0.859381	0.500034
C129	C	0.621832	0.299995	0.000052
C130	C	1.121832	0.799995	0.500052
N131	N	0.674109	0.277368	0.000057
N132	N	1.174109	0.777368	0.500057
C133	C	0.725673	0.314141	0.000062
C134	C	1.225673	0.814141	0.500062
C135	C	0.617491	0.662324	0.000031
C136	C	1.117491	1.162324	0.500031
C137	C	0.616778	0.721722	0.000035
C138	C	1.116778	1.221722	0.500035
C139	C	0.720623	0.735869	0.000047
C140	C	1.220623	1.235869	0.500047
C141	C	0.721335	0.676470	0.000047
C142	C	1.221335	1.176470	0.500047
C143	C	0.669767	0.639698	0.000037
C144	C	1.169767	1.139698	0.500037
C145	C	0.727163	0.189405	0.000075
C146	C	1.227163	0.689405	0.500075
C147	C	0.727869	0.130003	0.000083
C148	C	1.227869	0.630003	0.500083
C149	C	0.624025	0.115860	0.000069
C150	C	1.124025	0.615860	0.500069
C151	C	0.623318	0.175257	0.000064
C152	C	1.123318	0.675257	0.500064
C153	C	0.674891	0.212029	0.000065
C154	C	1.174891	0.712029	0.500065
O155	O	0.578070	0.263215	0.000067
O156	O	1.078070	0.763215	0.500067
O157	O	0.770196	0.289433	0.000060
O158	O	1.270196	0.789433	0.500060
N159	N	0.672347	-0.074112	-0.143744
N160	N	1.172347	0.425888	0.356256
C161	C	0.711273	-0.035196	0.563653
C162	C	1.211273	0.464804	1.063653
C163	C	0.711275	-0.035192	0.627261
C164	C	1.211275	0.464808	1.127261
O165	O	0.744384	-0.002076	0.660160
O166	O	1.244384	0.497924	1.160160
N167	N	0.672333	-0.074115	0.659072
N168	N	1.172333	0.425885	1.159072
C169	C	0.633382	-0.113041	0.627272
C170	C	1.133382	0.386959	1.127272
O171	O	0.600259	-0.146148	0.660170
O172	O	1.100259	0.353852	1.160170
C173	C	0.633377	-0.113042	0.563665
C174	C	1.133377	0.386958	1.063665
C175	C	0.672326	-0.074120	0.531858
C176	C	1.172326	0.425880	1.031858
C177	C	0.750217	0.003723	0.531846
C178	C	1.250217	0.503723	1.031846
C179	C	0.750215	0.003719	0.468243
C180	C	1.250215	0.503719	0.968243
C181	C	0.711268	-0.035205	0.436447
C182	C	1.211268	0.464795	0.936447
C183	C	0.672324	-0.074125	0.468255
C184	C	1.172324	0.425875	0.968255
C185	C	0.594424	-0.151965	0.531866
C186	C	1.094424	0.348035	1.031866
C187	C	0.594422	-0.151962	0.468256
C188	C	1.094422	0.348038	0.968256
C189	C	0.633370	-0.113040	0.436448
C190	C	1.133370	0.386960	0.936448
C191	C	0.633374	-0.113054	0.372856
C192	C	1.133374	0.386946	0.872856
N193	N	0.672317	-0.074130	0.341045
N194	N	1.172317	0.425870	0.841045
C195	C	0.711263	-0.035206	0.372841
C196	C	1.211263	0.464794	0.872841
C197	C	0.633395	-0.113036	0.760850
C198	C	1.133395	0.386964	1.260850
C199	C	0.633402	-0.113039	0.824455
C200	C	1.133402	0.386961	1.324455
C201	C	0.711294	-0.035188	0.824440
C202	C	1.211294	0.464812	1.324440
C203	C	0.711290	-0.035189	0.760833
C204	C	1.211290	0.464811	1.260833
C205	C	0.672337	-0.074113	0.729039
C206	C	1.172337	0.425887	1.229039
C207	C	0.711256	-0.035220	0.239269
C208	C	1.211256	0.464780	0.739269
C209	C	0.711252	-0.035229	0.175660
C210	C	1.211252	0.464771	0.675660
C211	C	0.633358	-0.113077	0.175681
C212	C	1.133358	0.386923	0.675681
C213	C	0.633364	-0.113070	0.239284
C214	C	1.133364	0.386930	0.739284
C215	C	0.672315	-0.074136	0.271077
C216	C	1.172315	0.425864	0.771077
O217	O	0.600282	-0.146151	0.339916
O218	O	1.100282	0.353849	0.839916
O219	O	0.744376	-0.002100	0.339935
O220	O	1.244376	0.497900	0.839935
H221	H	-0.059867	-0.165717	0.000057
H222	H	0.440133	0.334283	0.500057
N223	N	0.566930	0.199658	0.000056
N224	N	1.066930	0.699658	0.500056
H225	H	0.564327	0.223982	-0.037408
H226	H	1.064327	0.723982	0.462592
H227	H	0.564347	0.223964	0.037535
H228	H	1.064347	0.723964	0.537535
N229	N	0.753270	0.006768	0.273554
N230	N	1.253270	0.506768	0.773554
H231	H	0.777940	0.031418	0.243745
H232	H	1.277940	0.531418	0.743745
H233	H	0.778323	-0.014910	0.299940
H234	H	1.278323	0.485090	0.799940
H235	H	0.601650	-0.144771	0.149783
H236	H	1.101650	0.355229	0.649783
H237	H	0.486602	-0.172255	0.000025
H238	H	0.986602	0.327745	0.500025
H239	H	-0.167632	-0.164421	0.000060
H240	H	0.332368	0.335579	0.500060
N241	N	0.132395	0.086451	0.000119
N242	N	0.632395	0.586451	0.500119
H243	H	0.089185	0.079088	0.000119
H244	H	0.589185	0.579088	0.500119
H245	H	0.145872	0.109008	-0.037336
H246	H	0.645872	0.609008	0.462664
N247	N	0.255847	0.084966	0.000113
N248	N	0.755847	0.584966	0.500113
H249	H	0.232498	0.118189	0.000122
H250	H	0.732498	0.618189	0.500122
H251	H	0.280802	0.086943	-0.037348
H252	H	0.780802	0.586943	0.462652
H253	H	0.562700	-0.183658	0.442372
H254	H	1.062700	0.316342	0.942372
N255	N	0.784259	0.105603	0.000099
N256	N	1.284259	0.605603	0.500099
H257	H	0.816815	0.137915	0.000100
H258	H	1.316815	0.637915	0.500100
H259	H	0.786824	0.081263	-0.037358
H260	H	1.286824	0.581263	0.462642
H261	H	-0.141947	0.023982	0.000078
H262	H	0.358053	0.523982	0.500078
H263	H	0.512280	0.016146	0.000056
H264	H	1.012280	0.516146	0.500056
H265	H	0.763906	0.658056	0.000056
H266	H	1.263906	1.158056	0.500056
H267	H	0.525555	0.459814	0.000009
H268	H	1.025555	0.959814	0.500009
N269	N	0.753264	0.006751	0.141354
N270	N	1.253264	0.506751	0.641354
H271	H	0.777935	0.031410	0.171152
H272	H	1.277935	0.531410	0.671152
H273	H	0.731606	0.031818	0.114963
H274	H	1.231606	0.531818	0.614963
H275	H	0.762610	0.765821	0.000048
H276	H	1.262610	1.265821	0.500048
N277	N	0.591388	-0.155028	0.726556
N278	N	1.091388	0.344972	1.226556
H279	H	0.566292	-0.133397	0.700169
H280	H	1.066292	0.366603	1.200169
H281	H	0.566761	-0.179674	0.756400
H282	H	1.066761	0.320326	1.256400
N283	N	0.568411	0.076193	0.000080
N284	N	1.068411	0.576193	0.500080
H285	H	0.576799	0.035132	0.000087
H286	H	1.076799	0.535132	0.500087
H287	H	0.545612	0.083476	-0.037382
H288	H	1.045612	0.583476	0.462618
H289	H	0.575496	0.632386	0.000028
H290	H	1.075496	1.132386	0.500028
N291	N	0.792222	0.045701	0.433940
N292	N	1.292222	0.545701	0.933940
H293	H	0.816890	0.070358	0.463742
H294	H	1.316890	0.570358	0.963742
H295	H	0.770562	0.070770	0.407554
H296	H	1.270562	0.570770	0.907554
H297	H	0.601692	-0.144738	0.850348
H298	H	1.101692	0.355262	1.350348
H299	H	0.562708	-0.183658	0.557755
H300	H	1.062708	0.316342	1.057755
H301	H	0.781933	0.035423	0.557728
H302	H	1.281933	0.535423	1.057728
N303	N	0.398527	0.031256	0.000059
N304	N	0.898527	0.531256	0.500059
H305	H	0.430838	0.063814	0.000059
H306	H	0.930838	0.563814	0.500059
H307	H	0.374193	0.033810	0.037523
H308	H	0.874193	0.533810	0.537523
N309	N	0.832913	0.385917	0.000077
N310	N	1.332913	0.885917	0.500077
H311	H	0.865466	0.418233	0.000078
H312	H	1.365466	0.918233	0.500078
H313	H	0.835478	0.361581	-0.037383
H314	H	1.335478	0.861581	0.462617
H315	H	0.206289	-0.220908	0.000036
H316	H	0.706289	0.279092	0.500036
H317	H	0.601654	-0.144769	0.265183
H318	H	1.101654	0.355231	0.765183
N319	N	0.782787	0.229060	0.000076
N320	N	1.282787	0.729060	0.500076
H321	H	0.816007	0.205707	0.000085
H322	H	1.316007	0.705707	0.500085
H323	H	0.784749	0.254014	0.037536
H324	H	1.284749	0.754014	0.537536
H325	H	0.817806	0.499645	0.000063
H326	H	1.317806	0.999645	0.500063
H327	H	0.378851	-0.170970	0.000042
H328	H	0.878851	0.329030	0.500042
H329	H	0.743004	-0.003495	0.734939
H330	H	1.243004	0.496505	1.234939
N331	N	0.560392	0.746119	0.000039
N332	N	1.060392	1.246119	0.500039
H333	H	0.527837	0.713805	0.000039
H334	H	1.027837	1.213805	0.500039
H335	H	0.557833	0.770454	-0.037422
H336	H	1.057833	1.270454	0.462578
N337	N	-0.024475	0.036321	0.000092
N338	N	0.475525	0.536321	0.500092
H339	H	-0.047826	0.069542	0.000095
H340	H	0.452174	0.569542	0.500095
H341	H	0.000482	0.038296	-0.037368
H342	H	0.500482	0.538296	0.462632
N343	N	0.753303	0.006796	0.858740
N344	N	1.253303	0.506796	1.358740
H345	H	0.747392	0.000888	0.903860
H346	H	1.247392	0.500888	1.403860
H347	H	0.746954	0.047166	0.847624
H348	H	1.246954	0.547166	1.347624
H349	H	0.526850	0.352066	0.000013
H350	H	1.026850	0.852066	0.500013
H351	H	0.098544	-0.219617	0.000048
H352	H	0.598544	0.280383	0.500048
