data_functionalizedCrystal
_audit_creation_method	'MofGen! by Chris Wilmer'
_symmetry_space_group_name_H-M	'P1'
_symmetry_Int_Tables_number	1
_symmetry_cell_setting	triclinic
loop_
_symmetry_equiv_pos_as_xyz
  x,y,z
_cell_length_a	23.532361
_cell_length_b	22.010155
_cell_length_c	9.065218
_cell_angle_alpha	89.993828
_cell_angle_beta	83.922777
_cell_angle_gamma	90.004127
loop_
_atom_site_label
_atom_site_type_symbol
_atom_site_fract_x
_atom_site_fract_y
_atom_site_fract_z
O1	O	0.756593	0.050462	0.178726
O2	O	1.256593	0.550462	0.678726
O3	O	0.590917	0.050476	0.204708
O4	O	1.090917	0.550476	0.704708
O5	O	0.677180	0.050468	-0.023095
O6	O	1.177180	0.550468	0.476905
O7	O	0.670331	0.050471	0.406530
O8	O	1.170331	0.550471	0.906530
O9	O	0.677164	-0.050583	-0.023061
O10	O	1.177164	0.449417	0.476939
O11	O	0.590901	-0.050574	0.204742
O12	O	1.090901	0.449426	0.704742
O13	O	0.756577	-0.050588	0.178760
O14	O	1.256577	0.449412	0.678760
Cu15	Cu	0.673738	-0.059808	0.191754
Cu16	Cu	1.173738	0.440192	0.691754
Cu17	Cu	0.673756	0.059696	0.191714
Cu18	Cu	1.173756	0.559696	0.691714
O19	O	0.670315	-0.050580	0.406564
O20	O	1.170315	0.449420	0.906564
C21	C	0.569688	-0.000047	0.204075
C22	C	1.069688	0.499953	0.704075
C23	C	0.506455	-0.000042	0.202118
C24	C	1.006455	0.499958	0.702118
C25	C	0.233157	0.055037	0.193543
C26	C	0.733157	0.555037	0.693543
C27	C	0.292570	0.055039	0.195395
C28	C	0.792570	0.555039	0.695395
O29	O	0.323310	0.101883	0.196286
O30	O	0.823310	0.601883	0.696286
N31	N	0.322274	-0.000044	0.196349
N32	N	0.822274	0.499956	0.696349
C33	C	0.292562	-0.055132	0.195436
C34	C	0.792562	0.444868	0.695436
O35	O	0.323284	-0.101984	0.196416
O36	O	0.823284	0.398016	0.696416
C37	C	0.233151	-0.055133	0.193574
C38	C	0.733151	0.444867	0.693574
C39	C	0.203449	-0.000046	0.192635
C40	C	0.703449	0.499954	0.692635
C41	C	0.203455	0.110119	0.192603
C42	C	0.703455	0.610119	0.692603
C43	C	0.144046	0.110117	0.190754
C44	C	0.644046	0.610117	0.690754
C45	C	0.114338	0.055034	0.189845
C46	C	0.614338	0.555034	0.689845
C47	C	0.144040	-0.000048	0.190786
C48	C	0.644040	0.499952	0.690786
C49	C	0.203440	-0.110220	0.192650
C50	C	0.703440	0.389780	0.692650
C51	C	0.144025	-0.110216	0.190787
C52	C	0.644025	0.389784	0.690787
C53	C	0.114323	-0.055130	0.189848
C54	C	0.614323	0.444870	0.689848
C55	C	0.054922	-0.055134	0.188029
C56	C	0.554922	0.444866	0.688029
N57	N	0.025218	-0.000051	0.187075
N58	N	0.525218	0.499949	0.687075
C59	C	0.054926	0.055033	0.187983
C60	C	0.554926	0.555033	0.687983
C61	C	0.417331	-0.055126	0.199345
C62	C	0.917331	0.444874	0.699345
C63	C	0.476741	-0.055126	0.201218
C64	C	0.976741	0.444874	0.701218
C65	C	0.476745	0.055045	0.201174
C66	C	0.976745	0.555045	0.701174
C67	C	0.417333	0.055044	0.199311
C68	C	0.917333	0.555044	0.699311
C69	C	0.387627	-0.000043	0.198391
C70	C	0.887627	0.499957	0.698391
C71	C	-0.069838	0.055025	0.184101
C72	C	0.430162	0.555025	0.684101
C73	C	-0.129253	0.055018	0.182258
C74	C	0.370747	0.555018	0.682258
C75	C	-0.129251	-0.055152	0.182295
C76	C	0.370749	0.444848	0.682295
C77	C	-0.069842	-0.055146	0.184145
C78	C	0.430158	0.444854	0.684145
C79	C	-0.040136	-0.000052	0.185044
C80	C	0.459864	0.499948	0.685044
O81	O	0.024145	-0.101954	0.187131
O82	O	0.524145	0.398046	0.687131
O83	O	0.024199	0.101877	0.186983
O84	O	0.524199	0.601877	0.686983
N85	N	0.673729	-0.143860	0.191782
N86	N	1.173729	0.356140	0.691782
C87	C	0.711956	-0.563644	0.090857
C88	C	1.211956	-0.063644	0.590857
C89	C	0.711958	-0.627251	0.090847
C90	C	1.211958	-0.127251	0.590847
O91	O	0.744438	-0.660146	0.005056
O92	O	1.244438	-0.160146	0.505056
N93	N	0.673756	-0.659068	0.191683
N94	N	1.173756	-0.159068	0.691683
C95	C	0.635544	-0.627273	0.292527
C96	C	1.135544	-0.127273	0.792527
O97	O	0.603050	-0.660176	0.378294
O98	O	1.103050	-0.160176	0.878294
C99	C	0.635539	-0.563667	0.292528
C100	C	1.135539	-0.063667	0.792528
C101	C	0.673748	-0.531854	0.191695
C102	C	1.173748	-0.031854	0.691695
C103	C	0.750161	-0.531831	-0.009969
C104	C	1.250161	-0.031831	0.490031
C105	C	0.750159	-0.468227	-0.009957
C106	C	1.250159	0.031773	0.490043
C107	C	0.711952	-0.436437	0.090882
C108	C	1.211952	0.063563	0.590882
C109	C	0.673746	-0.468250	0.191708
C110	C	1.173746	0.031750	0.691708
C111	C	0.597326	-0.531873	0.393364
C112	C	1.097326	-0.031873	0.893364
C113	C	0.597324	-0.468262	0.393356
C114	C	1.097324	0.031738	0.893356
C115	C	0.635533	-0.436449	0.292523
C116	C	1.135533	0.063551	0.792523
C117	C	0.635537	-0.372857	0.292559
C118	C	1.135537	0.127143	0.792559
N119	N	0.673740	-0.341041	0.191722
N120	N	1.173740	0.158959	0.691722
C121	C	0.711947	-0.372831	0.090883
C122	C	1.211947	0.127169	0.590883
C123	C	0.635557	-0.760851	0.292513
C124	C	1.135557	-0.260851	0.792513
C125	C	0.635564	-0.824456	0.292519
C126	C	1.135564	-0.324456	0.792519
C127	C	0.711978	-0.824430	0.090837
C128	C	1.211978	-0.324430	0.590837
C129	C	0.711973	-0.760824	0.090839
C130	C	1.211973	-0.260824	0.590839
C131	C	0.673759	-0.729034	0.191676
C132	C	1.173759	-0.229034	0.691676
C133	C	0.711940	-0.239259	0.090918
C134	C	1.211940	0.260741	0.590918
C135	C	0.711936	-0.175651	0.090943
C136	C	1.211936	0.324349	0.590943
C137	C	0.635521	-0.175682	0.292620
C138	C	1.135521	0.324318	0.792620
C139	C	0.635527	-0.239286	0.292600
C140	C	1.135527	0.260714	0.792600
C141	C	0.673738	-0.271073	0.191737
C142	C	1.173738	0.228927	0.691737
O143	O	0.603073	-0.339922	0.378302
O144	O	1.103073	0.160078	0.878302
O145	O	0.744431	-0.339920	0.005117
O146	O	1.244431	0.160080	0.505117
C147	C	0.777807	-0.000064	0.179394
C148	C	1.277807	0.499936	0.679394
C149	C	0.841039	-0.000065	0.181350
C150	C	1.341039	0.499935	0.681350
C151	C	0.676513	-0.000057	-0.078032
C152	C	1.176513	0.499943	0.421968
C153	C	0.674545	-0.000054	-0.241777
C154	C	1.174545	0.499946	0.258223
N155	N	0.673770	0.143748	0.191675
N156	N	1.173770	0.643748	0.691675
C157	C	0.670981	-0.000054	0.461501
C158	C	1.170981	0.499946	0.961501
C159	C	0.672949	-0.000053	0.625246
C160	C	1.172949	0.499947	1.125246
H161	H	0.119868	0.154974	0.189982
H162	H	0.619868	0.654974	0.689982
Cl163	Cl	0.760007	-0.720837	-0.035931
Cl164	Cl	1.260007	-0.220837	0.464069
H165	H	-0.153450	-0.100000	0.181561
H166	H	0.346550	0.400000	0.681561
Cl167	Cl	0.587491	-0.135707	0.419384
Cl168	Cl	1.087491	0.364293	0.919384
H169	H	0.743088	-0.850325	0.008727
H170	H	1.243088	-0.350325	0.508727
H171	H	0.604441	-0.734971	0.374639
H172	H	1.104441	-0.234971	0.874639
Cl173	Cl	0.587536	-0.864442	0.419305
Cl174	Cl	1.087536	-0.364442	0.919305
Cl175	Cl	0.549288	-0.571854	0.520128
Cl176	Cl	1.049288	-0.071854	1.020128
Cl177	Cl	-0.032502	-0.124398	0.185345
Cl178	Cl	0.467498	0.375602	0.685345
Cl179	Cl	-0.166588	0.124275	0.181081
Cl180	Cl	0.333412	0.624275	0.681081
Cl181	Cl	0.549280	-0.428304	0.520130
Cl182	Cl	1.049280	0.071696	1.020130
H183	H	0.227613	-0.155077	0.193410
H184	H	0.727613	0.344923	0.693410
Cl185	Cl	0.106684	-0.179474	0.189621
Cl186	Cl	0.606684	0.320526	0.689621
H187	H	0.227637	0.154977	0.193337
H188	H	0.727637	0.654977	0.693337
H189	H	0.604419	-0.265188	0.374722
H190	H	1.104419	0.234812	0.874722
H191	H	-0.045659	0.099887	0.184835
H192	H	0.454341	0.599887	0.684835
Cl193	Cl	0.759979	-0.279210	-0.035881
Cl194	Cl	1.259979	0.220790	0.464119
Cl195	Cl	0.514103	0.124294	0.202318
Cl196	Cl	1.014103	0.624294	0.702318
Cl197	Cl	0.380001	0.124298	0.198126
Cl198	Cl	0.880001	0.624298	0.698126
Cl199	Cl	0.379991	-0.124386	0.198209
Cl200	Cl	0.879991	0.375614	0.698209
Cl201	Cl	0.798191	-0.428241	-0.136733
Cl202	Cl	1.298191	0.071759	0.363267
Cl203	Cl	0.514072	-0.124380	0.202429
Cl204	Cl	1.014072	0.375620	0.702429
H205	H	0.743053	-0.149750	0.008833
H206	H	1.243053	0.350250	0.508833
H207	H	0.781274	-0.557709	-0.092091
H208	H	1.281274	-0.057709	0.407909
