data_functionalizedCrystal
_audit_creation_method	'MofGen! by Chris Wilmer'
_symmetry_space_group_name_H-M	'P1'
_symmetry_Int_Tables_number	1
_symmetry_cell_setting	triclinic
loop_
_symmetry_equiv_pos_as_xyz
  x,y,z
_cell_length_a	15.944551
_cell_length_b	19.188930
_cell_length_c	14.421503
_cell_angle_alpha	89.999163
_cell_angle_beta	89.996859
_cell_angle_gamma	83.321760
loop_
_atom_site_label
_atom_site_type_symbol
_atom_site_fract_x
_atom_site_fract_y
_atom_site_fract_z
O1	O	1.114192	0.090038	-0.077026
O2	O	0.869601	0.101140	-0.077050
O3	O	0.998955	-0.006048	-0.077019
O4	O	0.984838	0.197227	-0.077057
O5	O	0.998934	-0.006032	0.077204
O6	O	0.869580	0.101156	0.077173
O7	O	1.114171	0.090054	0.077198
Cu8	Cu	0.991873	0.095607	0.091267
Cu9	Cu	0.991899	0.095588	-0.091120
O10	O	0.984817	0.197243	0.077167
C11	C	0.838298	0.100687	0.000059
C12	C	0.745057	0.099306	0.000050
C13	C	0.530462	0.029563	0.000081
C14	C	0.469331	0.061941	-0.075965
C15	C	0.574341	0.096806	0.000062
C16	C	0.469332	0.061973	0.076087
C17	C	0.409437	0.094386	0.000077
C18	C	0.514438	0.129203	-0.076047
C19	C	0.514446	0.129225	0.076073
C20	C	0.453332	0.161652	0.000008
C21	C	0.669338	0.098198	0.000052
C22	C	0.314441	0.093000	0.000080
C23	C	0.998487	-0.032052	0.000095
C24	C	0.997115	-0.109560	0.000103
C25	C	1.073016	-0.154288	0.000115
C26	C	1.071726	-0.227115	0.000100
C27	C	0.994532	-0.255211	0.000092
C28	C	0.918622	-0.210474	0.000075
C29	C	0.919913	-0.137648	0.000080
N30	N	0.935519	-0.363364	0.052571
N31	N	0.934298	-0.432545	0.052568
C32	C	0.990637	-0.474630	0.000073
N33	N	1.048256	-0.444921	-0.052407
N34	N	1.049480	-0.375733	-0.052400
C35	C	0.993123	-0.334178	0.000085
C36	C	1.065145	-0.598326	0.000067
C37	C	1.063852	-0.671154	0.000046
C38	C	0.910745	-0.654511	0.000030
C39	C	0.912040	-0.581685	0.000041
C40	C	0.989242	-0.553597	0.000064
C41	C	1.145474	0.090507	0.000087
C42	C	1.238715	0.091889	0.000089
C43	C	0.985285	0.223247	0.000050
C44	C	0.986657	0.300755	0.000036
N45	N	0.991862	0.095619	0.219549
N46	N	0.991917	0.095569	-0.219401
C47	C	0.932038	0.145161	0.469188
C48	C	1.007887	0.158716	0.530995
C49	C	0.991882	0.095603	0.408710
C50	C	0.916052	0.082064	0.530997
C51	C	0.991895	0.095588	0.591431
C52	C	1.067770	0.109189	0.469157
C53	C	0.975885	0.032510	0.469153
C54	C	1.051789	0.046038	0.530932
C55	C	0.991874	0.095613	0.303449
C56	C	0.991913	0.095578	0.696690
H57	H	0.534462	0.157649	0.140358
C58	C	1.153530	0.124709	0.335560
C59	C	1.154345	0.124786	0.432649
H60	H	1.206969	0.134360	0.313023
H61	H	1.142119	0.080036	0.313858
H62	H	1.110958	0.159687	0.313955
H63	H	1.196913	0.089804	0.454255
H64	H	1.165766	0.169465	0.454360
C65	C	1.142984	-0.050046	0.000130
C66	C	1.157875	-0.123414	0.000127
H67	H	1.195373	-0.030986	0.000140
H68	H	1.111755	-0.034696	-0.053651
H69	H	1.111735	-0.034699	0.053912
H70	H	1.189118	-0.138761	-0.053659
H71	H	1.189116	-0.138770	0.053913
H72	H	0.855769	-0.233354	0.000066
H73	H	1.133536	-0.263540	0.000106
H74	H	1.128007	-0.575456	0.000081
H75	H	0.881481	0.187105	0.442078
H76	H	1.021430	0.212066	0.558159
H77	H	1.102458	0.004119	0.557872
C78	C	0.878081	-0.053550	0.463601
C79	C	0.957571	-0.039486	0.432441
H80	H	0.866768	-0.097995	0.440929
H81	H	0.877441	-0.053953	0.529456
H82	H	0.836124	-0.018244	0.441536
H83	H	0.999530	-0.074789	0.454512
H84	H	0.958218	-0.039088	0.366572
C85	C	0.759539	-0.630741	0.000011
C86	C	0.825889	-0.685385	0.000017
H87	H	0.707152	-0.649805	-0.000006
H88	H	0.763218	-0.602688	0.053793
H89	H	0.763243	-0.602678	-0.053770
H90	H	0.822189	-0.713445	0.053801
H91	H	0.822209	-0.713449	-0.053771
C92	C	0.466238	0.058131	0.242457
C93	C	0.442347	0.023577	0.162879
H94	H	0.449576	0.034425	0.296033
H95	H	0.525776	0.058356	0.242776
H96	H	0.439553	0.105046	0.242537
H97	H	0.469037	-0.023337	0.162796
H98	H	0.382798	0.023345	0.162560
C99	C	1.151242	-0.762692	-0.079237
C100	C	1.147291	-0.720320	0.000053
H101	H	1.202758	-0.793041	-0.079235
H102	H	1.105091	-0.789845	-0.079244
H103	H	1.148572	-0.733922	-0.133006
H104	H	1.149956	-0.749090	0.053822
H105	H	1.193455	-0.693165	0.000068
C106	C	0.768445	-0.128514	0.000064
C107	C	0.836477	-0.088479	0.000076
H108	H	0.716936	-0.098156	0.000069
H109	H	0.771132	-0.157258	-0.053718
H110	H	0.771124	-0.157272	0.053844
H111	H	0.833802	-0.059724	-0.053708
H112	H	0.833789	-0.059723	0.053864
C113	C	0.824682	-0.490134	-0.079242
C114	C	0.828605	-0.532516	0.000037
H115	H	0.773166	-0.459784	-0.079249
H116	H	0.870834	-0.462982	-0.079227
H117	H	0.827370	-0.518896	-0.133018
H118	H	0.825922	-0.503755	0.053813
H119	H	0.782440	-0.559671	0.000030
H120	H	0.419965	0.217516	-0.000045
C121	C	0.553126	-0.080832	-0.079735
C122	C	0.575724	-0.045780	-0.000009
H123	H	0.581076	-0.127341	-0.079796
H124	H	0.493777	-0.082232	-0.080277
H125	H	0.569212	-0.056700	-0.133203
H126	H	0.559631	-0.069909	0.053459
H127	H	0.635085	-0.044384	0.000541
H128	H	0.851919	0.070620	0.558163
H129	H	0.449336	0.033493	-0.140247
H130	H	0.534329	0.157616	-0.140409
