data_functionalizedCrystal
_audit_creation_method	'MofGen! by Chris Wilmer'
_symmetry_space_group_name_H-M	'P1'
_symmetry_Int_Tables_number	1
_symmetry_cell_setting	triclinic
loop_
_symmetry_equiv_pos_as_xyz
  x,y,z
_cell_length_a	11.169417
_cell_length_b	19.121063
_cell_length_c	11.169417
_cell_angle_alpha	87.575355
_cell_angle_beta	90.000863
_cell_angle_gamma	92.469728
loop_
_atom_site_label
_atom_site_type_symbol
_atom_site_fract_x
_atom_site_fract_y
_atom_site_fract_z
Zn1	Zn	1.814197	-0.279716	0.698863
Zn2	Zn	1.805530	-0.397140	0.506711
Zn3	Zn	1.613550	-0.279708	0.498197
Zn4	Zn	1.604868	-0.397134	0.707355
O5	O	1.709536	-0.338424	0.602782
O6	O	1.980997	-0.295298	0.673383
O7	O	1.780070	-0.381562	0.337632
O8	O	1.647427	-0.181423	0.517699
O9	O	1.974629	-0.381570	0.532210
O10	O	1.794842	-0.181429	0.665127
O11	O	1.639023	-0.295285	0.331377
O12	O	1.444449	-0.295279	0.525933
O13	O	1.632630	-0.381559	0.874178
O14	O	1.438071	-0.381551	0.679601
O15	O	1.786423	-0.295292	0.867939
O16	O	1.771651	-0.495425	0.540444
O17	O	1.624226	-0.495420	0.687856
C18	C	1.397713	-0.338414	0.602765
C19	C	1.264312	-0.338426	0.602788
C20	C	1.696089	-0.520907	0.616022
C21	C	1.690445	-0.598974	0.621726
C22	C	1.764610	-0.635629	0.547720
C23	C	1.759310	-0.708982	0.553092
C24	C	1.679838	-0.745677	0.632465
C25	C	1.605670	-0.709017	0.706479
C26	C	1.610977	-0.635666	0.701112
C27	C	1.659976	-0.967151	0.652511
C28	C	1.654672	-1.040507	0.657869
C29	C	1.808314	-1.040466	0.504483
C30	C	1.813609	-0.967114	0.499118
C31	C	1.739446	-0.930460	0.573137
C32	C	1.674415	-0.820655	0.637955
C33	C	1.744875	-0.855484	0.567652
C34	C	2.022578	-0.338436	0.602799
C35	C	2.155978	-0.338440	0.602806
C36	C	1.709525	-0.338425	0.915824
C37	C	1.709520	-0.338426	1.049224
C38	C	1.723070	-0.155229	0.589516
C39	C	1.728837	-0.077162	0.583863
C40	C	1.709533	-0.338436	1.290958
C41	C	1.709523	-0.338427	1.157557
H42	H	1.819702	-0.738823	0.492827
H43	H	1.550586	-0.605822	0.761378
O44	O	1.890925	-0.931579	0.421995
C45	C	1.955233	-0.979661	0.357807
H46	H	1.955559	-1.031936	0.410789
H47	H	1.910801	-0.987503	0.267187
C48	C	2.084660	-0.886773	0.273462
C49	C	2.085069	-0.950976	0.338540
H50	H	2.164747	-0.869078	0.261571
H51	H	2.041332	-0.854378	0.316702
H52	H	2.047627	-0.893317	0.197952
H53	H	2.122087	-0.944430	0.414054
H54	H	2.128406	-0.983369	0.295311
O55	O	1.880321	-1.076181	0.432722
C56	C	1.858583	-1.148791	0.454457
H57	H	1.818459	-1.158805	0.547771
H58	H	1.793235	-1.169660	0.384730
C59	C	2.026595	-1.174089	0.331726
C60	C	1.977323	-1.186389	0.446340
H61	H	2.099837	-1.197282	0.326714
H62	H	2.041237	-1.125170	0.317078
H63	H	1.972127	-1.191479	0.273633
H64	H	2.031784	-1.168990	0.504429
H65	H	1.962692	-1.235305	0.460997
O66	O	1.577445	-1.076045	0.735090
C67	C	1.513106	-1.027966	0.799254
H68	H	1.566042	-0.975653	0.799624
H69	H	1.422545	-1.020221	0.754671
C70	C	1.428631	-1.120827	0.928610
C71	C	1.493654	-1.056577	0.929074
H72	H	1.416627	-1.138476	1.008688
H73	H	1.471974	-1.153220	0.885380
H74	H	1.353172	-1.114364	0.891452
H75	H	1.569117	-1.063042	0.966218
H76	H	1.450323	-1.024185	0.972314
O77	O	1.587876	-0.931470	0.724225
C78	C	1.513467	-0.889109	0.652724
H79	H	1.556673	-0.878123	0.561005
H80	H	1.422488	-0.917423	0.641527
C81	C	1.443654	-0.832919	0.826290
C82	C	1.496726	-0.819422	0.713643
H83	H	1.433322	-0.789934	0.863869
H84	H	1.493781	-0.861461	0.874464
H85	H	1.367844	-0.856517	0.816944
H86	H	1.572540	-0.795833	0.722992
H87	H	1.446611	-0.790874	0.665473
O88	O	1.841913	-0.600095	0.470582
C89	C	1.906214	-0.648181	0.406394
H90	H	1.906547	-0.700453	0.459384
H91	H	1.861771	-0.656028	0.315781
C92	C	2.035629	-0.555296	0.322020
C93	C	2.036047	-0.619495	0.387108
H94	H	2.115715	-0.537600	0.310117
H95	H	1.992306	-0.522898	0.365260
H96	H	1.998587	-0.561844	0.246515
H97	H	2.073074	-0.612944	0.462615
H98	H	2.079380	-0.651891	0.343879
O99	O	1.528310	-0.744583	0.783521
C100	C	1.410005	-0.726735	0.755866
H101	H	1.411410	-0.673490	0.705830
H102	H	1.366640	-0.768052	0.697152
C103	C	1.335729	-0.788745	0.934014
C104	C	1.337454	-0.723346	0.872569
H105	H	1.290973	-0.786657	1.006001
H106	H	1.415432	-0.800772	0.952645
H107	H	1.299594	-0.823169	0.885073
H108	H	1.373602	-0.688925	0.921504
H109	H	1.257755	-0.711313	0.853950
O110	O	1.822239	-0.819873	0.490678
C111	C	1.940546	-0.837741	0.518281
H112	H	1.945082	-0.857881	0.615636
H113	H	1.968890	-0.880315	0.457068
C114	C	2.019791	-0.747805	0.380036
C115	C	2.025365	-0.772536	0.499613
H116	H	2.072113	-0.707585	0.368516
H117	H	1.940085	-0.735768	0.361436
H118	H	2.043408	-0.783290	0.329039
H119	H	2.001734	-0.737055	0.550606
H120	H	2.105069	-0.784565	0.518222
O121	O	1.597343	-0.856273	0.715219
C122	C	1.624742	-0.838296	0.833547
H123	H	1.722074	-0.818077	0.838217
H124	H	1.563436	-0.795750	0.861753
C125	C	1.486461	-0.928282	0.912653
C126	C	1.606009	-0.903453	0.918392
H127	H	1.474901	-0.968473	0.964992
H128	H	1.467997	-0.940392	0.832934
H129	H	1.435386	-0.892820	0.936156
H130	H	1.657080	-0.938912	0.894875
H131	H	1.624480	-0.891351	0.998110
