data_functionalizedCrystal
_audit_creation_method	'MofGen! by Chris Wilmer'
_symmetry_space_group_name_H-M	'P1'
_symmetry_Int_Tables_number	1
_symmetry_cell_setting	triclinic
loop_
_symmetry_equiv_pos_as_xyz
  x,y,z
_cell_length_a	16.959454
_cell_length_b	16.959455
_cell_length_c	21.395355
_cell_angle_alpha	90.032743
_cell_angle_beta	89.987004
_cell_angle_gamma	89.984932
loop_
_atom_site_label
_atom_site_type_symbol
_atom_site_fract_x
_atom_site_fract_y
_atom_site_fract_z
Zn1	Zn	-0.314879	-1.208455	-0.354422
Zn2	Zn	-0.447039	-1.208356	-0.249655
Zn3	Zn	-0.314867	-1.076262	-0.249644
Zn4	Zn	-0.447007	-1.076248	-0.354380
O5	O	-0.380948	-1.142330	-0.302025
O6	O	-0.332428	-1.319053	-0.340547
O7	O	-0.429515	-1.190799	-0.161976
O8	O	-0.204258	-1.093845	-0.263556
O9	O	-0.429526	-1.318980	-0.263575
O10	O	-0.204266	-1.190966	-0.340536
O11	O	-0.332409	-1.093750	-0.161968
O12	O	-0.332378	-0.965649	-0.263515
O13	O	-0.429472	-1.093821	-0.442064
O14	O	-0.429461	-0.965639	-0.340465
O15	O	-0.332397	-1.190952	-0.442095
O16	O	-0.557646	-1.190785	-0.263534
O17	O	-0.557623	-1.093725	-0.340475
C18	C	-0.380915	-0.936964	-0.301985
C19	C	-0.380920	-0.849107	-0.301982
C20	C	-0.431434	-0.477584	-0.261896
C21	C	-0.330482	-0.477680	-0.342171
C22	C	-0.330471	-0.560226	-0.342160
C23	C	-0.380944	-0.601455	-0.302016
C24	C	-0.431427	-0.560137	-0.261884
C25	C	-0.279995	-0.601550	-0.382296
C26	C	-0.279984	-0.684101	-0.382286
C27	C	-0.330453	-0.725331	-0.342139
C28	C	-0.380937	-0.684008	-0.302005
C29	C	-0.431410	-0.725236	-0.261861
C30	C	-0.481890	-0.683915	-0.221723
C31	C	-0.481896	-0.601367	-0.221737
C32	C	-0.330448	-0.807879	-0.342126
C33	C	-0.431403	-0.807790	-0.261850
C34	C	-0.586314	-1.142264	-0.302015
C35	C	-0.674171	-1.142308	-0.302031
C36	C	-1.045664	-1.091865	-0.342084
C37	C	-1.045629	-1.193016	-0.262030
C38	C	-0.963083	-1.192988	-0.262025
C39	C	-0.921824	-1.142397	-0.302049
C40	C	-0.963111	-1.091834	-0.342079
C41	C	-0.921790	-1.243545	-0.221991
C42	C	-0.839239	-1.243519	-0.221983
C43	C	-0.797979	-1.192931	-0.262011
C44	C	-0.839270	-1.142367	-0.302043
C45	C	-0.798011	-1.091776	-0.342067
C46	C	-0.839302	-1.041214	-0.382103
C47	C	-0.921850	-1.041246	-0.382106
C48	C	-0.715430	-1.192899	-0.262007
C49	C	-0.715458	-1.091745	-0.342061
C50	C	-0.174780	-1.142418	-0.302050
C51	C	-0.086923	-1.142456	-0.302060
C52	C	-0.380932	-1.142396	-0.465449
C53	C	-0.380925	-1.142424	-0.535090
C54	C	-0.380973	-0.348499	-0.302055
C55	C	-0.380961	-0.436355	-0.302039
C56	C	-0.330377	-1.192998	-0.567820
C57	C	-0.330343	-1.192997	-0.633256
C58	C	-0.380872	-1.142430	-0.665958
C59	C	-0.431424	-1.091846	-0.633220
C60	C	-0.431451	-1.091843	-0.567786
C61	C	-0.452042	-1.136166	-0.769629
C62	C	-0.452017	-1.136174	-0.835062
C63	C	-0.380788	-1.142435	-0.867779
C64	C	-0.309583	-1.148703	-0.835056
C65	C	-0.309610	-1.148700	-0.769622
C66	C	-0.380848	-1.142427	-0.736911
C67	C	-0.330198	-1.193011	-0.971462
C68	C	-0.330163	-1.193004	-1.036899
C69	C	-0.431251	-1.091857	-1.036862
C70	C	-0.431279	-1.091859	-0.971427
C71	C	-0.380754	-1.142441	-0.938731
C72	C	-0.380907	-1.142310	-0.139238
C73	C	-0.380691	-1.142436	-0.069597
H74	H	-0.238879	-0.717737	-0.414969
H75	H	-0.681870	-1.050550	-0.374656
Cl76	Cl	-0.220099	-1.156574	-0.728486
H77	H	-0.289349	-0.841519	-0.374807
Cl78	Cl	-0.787424	-0.977613	-0.432414
H79	H	-0.955476	-1.000081	-0.414700
Cl80	Cl	-1.097569	-1.028309	-0.392415
H81	H	-0.522994	-0.567716	-0.189058
H82	H	-1.079227	-1.234200	-0.229441
H83	H	-0.472531	-0.443936	-0.229214
Cl84	Cl	-0.266775	-1.256565	-0.674411
H85	H	-0.472613	-1.050655	-0.541137
H86	H	-0.955389	-1.284728	-0.189401
Cl87	Cl	-0.494834	-1.028280	-0.930278
H88	H	-0.805625	-1.284689	-0.189385
Cl89	Cl	-0.663526	-1.256448	-0.211674
Cl90	Cl	-0.541531	-1.128302	-0.876193
H91	H	-0.289234	-1.234184	-0.541203
Cl92	Cl	-0.220032	-1.156578	-0.876179
Cl93	Cl	-0.267043	-0.425850	-0.392641
H94	H	-0.289053	-1.234193	-0.944840
H95	H	-0.238908	-0.567976	-0.414983
Cl96	Cl	-0.266622	-1.256602	-1.078046
H97	H	-0.472385	-1.050676	-1.063488
Cl98	Cl	-0.541598	-1.128319	-0.728505
Cl99	Cl	-0.494943	-1.028273	-0.674331
H100	H	-0.472501	-0.841352	-0.229157
Cl101	Cl	-0.545344	-0.735755	-0.171263
