data_functionalizedCrystal
_audit_creation_method	'MofGen! by Chris Wilmer'
_symmetry_space_group_name_H-M	'P1'
_symmetry_Int_Tables_number	1
_symmetry_cell_setting	triclinic
loop_
_symmetry_equiv_pos_as_xyz
  x,y,z
_cell_length_a	6.817900
_cell_length_b	11.102269
_cell_length_c	14.858572
_cell_angle_alpha	93.468432
_cell_angle_beta	104.524003
_cell_angle_gamma	108.605385
loop_
_atom_site_label
_atom_site_type_symbol
_atom_site_fract_x
_atom_site_fract_y
_atom_site_fract_z
V1	V	-4.064548	-0.176639	-0.289963
O2	O	-4.024474	0.007665	-0.284440
O3	O	-4.041646	-0.349455	-0.287982
O4	O	-4.020838	-0.174284	-0.416425
O5	O	-4.045427	-0.168719	-0.155109
V6	V	-4.544264	-0.154552	-0.273833
O7	O	-4.334157	-0.225091	-0.325345
O8	O	-4.724852	-0.106101	-0.238451
O9	O	-4.343959	0.018263	-0.275813
O10	O	-4.701734	-0.338857	-0.279356
O11	O	-4.680781	-0.162473	-0.408687
O12	O	-4.364767	-0.156908	-0.147371
C13	C	-3.892698	-0.391572	-0.283409
C14	C	-3.955292	-0.532853	-0.282633
C15	C	-4.089867	-0.750365	-0.366699
C16	C	-4.031073	-0.617618	-0.367433
C17	C	-3.938326	-0.580842	-0.197093
C18	C	-3.997134	-0.713588	-0.196361
C19	C	-4.124205	-0.462462	-0.473736
C20	C	-4.141144	-0.414476	-0.559273
C21	C	-4.083366	-0.469625	-0.631248
C22	C	-4.008602	-0.572756	-0.617688
C23	C	-3.991642	-0.620734	-0.532150
C24	C	-4.049469	-0.565590	-0.460180
C25	C	-3.903989	-0.868747	-0.090063
C26	C	-3.887015	-0.916726	-0.004524
C27	C	-3.944777	-0.861578	0.067459
C28	C	-4.019503	-0.758440	0.053910
C29	C	-4.036477	-0.710460	-0.031629
C30	C	-3.978723	-0.765618	-0.103613
C31	C	-3.866154	-0.168122	-0.447248
C32	C	-3.911868	-0.167339	-0.550631
C33	C	-4.079186	-0.164479	-0.929199
C34	C	-4.032625	-0.165275	-0.823870
C35	C	-3.995529	-0.165910	-0.739919
C36	C	-3.948964	-0.166704	-0.634583
C37	C	-4.156249	0.060374	-0.280384
C38	C	-4.072895	0.201654	-0.281167
C39	C	-4.182793	-0.163073	-0.116543
C40	C	-4.116316	-0.163850	-0.013159
H41	H	-4.202033	-0.330508	-0.570308
H42	H	-4.171288	-0.417560	-0.415139
C43	C	-3.848328	-1.016492	0.158187
C44	C	-3.926128	-0.914323	0.161486
H45	H	-3.836839	-1.049056	0.216232
H46	H	-3.710224	-0.986963	0.147617
H47	H	-3.945185	-1.082758	0.108483
H48	H	-3.829262	-0.848053	0.211186
H49	H	-4.064253	-0.943849	0.172068
C50	C	-3.954027	-0.567694	0.158890
C51	C	-4.083002	-0.697817	0.133035
H52	H	-3.993218	-0.530275	0.207746
H53	H	-3.974842	-0.524366	0.106015
H54	H	-3.806549	-0.560199	0.180459
H55	H	-4.230480	-0.705312	0.111460
H56	H	-4.062205	-0.741158	0.185921
C57	C	-3.875857	-0.734010	-0.666837
C58	C	-3.945061	-0.633365	-0.696803
H59	H	-3.836621	-0.771424	-0.715680
H60	H	-3.989468	-0.797333	-0.651825
H61	H	-3.754520	-0.701521	-0.612691
H62	H	-4.066408	-0.665856	-0.750945
H63	H	-3.831438	-0.570031	-0.711828
H64	H	-3.856953	-0.913662	-0.148676
C65	C	-4.179833	-0.314731	-0.721977
C66	C	-4.102010	-0.416891	-0.725275
H67	H	-4.191366	-0.282182	-0.780028
H68	H	-4.082988	-0.248463	-0.672287
H69	H	-4.317944	-0.344272	-0.711394
H70	H	-3.963891	-0.387346	-0.735850
H71	H	-4.198859	-0.483171	-0.774980
H72	H	-3.826132	-1.000696	0.006509
H73	H	-3.876632	-0.511817	-0.128048
C74	C	-4.327865	-0.631403	-0.037016
C75	C	-4.118662	-0.597106	-0.046543
H76	H	-4.378609	-0.561429	-0.046232
H77	H	-4.326005	-0.652062	0.024227
H78	H	-4.420867	-0.703969	-0.082594
H79	H	-4.025655	-0.524545	-0.000959
H80	H	-4.120508	-0.576430	-0.107794
H81	H	-4.151555	-0.819372	-0.435754
H82	H	-3.930759	-0.704696	-0.521109
