data_functionalizedCrystal
_audit_creation_method	'MofGen! by Chris Wilmer'
_symmetry_space_group_name_H-M	'P1'
_symmetry_Int_Tables_number	1
_symmetry_cell_setting	triclinic
loop_
_symmetry_equiv_pos_as_xyz
  x,y,z
_cell_length_a	12.759393
_cell_length_b	12.759401
_cell_length_c	12.759400
_cell_angle_alpha	90.014845
_cell_angle_beta	90.031564
_cell_angle_gamma	90.018496
loop_
_atom_site_label
_atom_site_type_symbol
_atom_site_fract_x
_atom_site_fract_y
_atom_site_fract_z
Zn1	Zn	-0.593981	-1.606255	0.418200
Zn2	Zn	-0.418301	-1.606150	0.593919
Zn3	Zn	-0.418321	-1.430557	0.418255
Zn4	Zn	-0.593943	-1.430546	0.593838
O5	O	-0.506137	-1.518377	0.506053
O6	O	-0.570685	-1.753262	0.441520
O7	O	-0.271283	-1.582818	0.570673
O8	O	-0.441647	-1.453913	0.271226
O9	O	-0.441614	-1.753185	0.570620
O10	O	-0.570704	-1.582998	0.271186
O11	O	-0.271297	-1.453811	0.441614
O12	O	-0.441609	-1.283535	0.441535
O13	O	-0.740969	-1.453894	0.570482
O14	O	-0.570638	-1.283527	0.570536
O15	O	-0.740997	-1.582987	0.441442
O16	O	-0.441577	-1.582807	0.740929
O17	O	-0.570620	-1.453791	0.740870
C18	C	-0.506122	-1.245410	0.506033
C19	C	-0.506141	-1.128633	0.506050
C20	C	-0.506115	-1.518315	0.779020
C21	C	-0.506140	-1.518384	0.895797
C22	C	-0.780170	-1.518451	0.505947
C23	C	-0.896947	-1.518482	0.505902
C24	C	-0.951825	-1.585710	0.438704
C25	C	-1.061549	-1.585735	0.438666
C26	C	-1.061507	-1.451301	0.573033
C27	C	-0.951785	-1.451272	0.573064
C28	C	-0.896987	-1.652920	0.371541
C29	C	-0.951866	-1.720155	0.304339
C30	C	-1.061590	-1.720180	0.304301
C31	C	-1.116436	-1.652970	0.371465
C32	C	-0.233169	-1.518364	0.506083
C33	C	-0.116393	-1.518537	0.505832
C34	C	-0.506152	-1.792410	0.506073
C35	C	-0.506158	-1.909187	0.506082
C36	C	-0.573215	-1.073794	0.573328
C37	C	-0.573227	-0.964070	0.573342
C38	C	-0.439081	-0.964034	0.438796
C39	C	-0.439075	-1.073756	0.438778
C40	C	-0.640281	-1.128672	0.640600
C41	C	-0.707360	-1.073833	0.707885
C42	C	-0.707371	-0.964109	0.707898
C43	C	-0.640304	-0.909224	0.640627
C44	C	-0.506182	-1.518468	0.232019
C45	C	-0.506201	-1.518507	0.115243
C46	C	-0.439022	-1.585637	0.950655
C47	C	-0.439054	-1.585702	1.060379
C48	C	-0.573327	-1.451252	1.060377
C49	C	-0.573299	-1.451193	0.950655
C50	C	-0.371864	-1.652828	0.895797
C51	C	-0.304739	-1.720086	0.950655
C52	C	-0.304771	-1.720150	1.060379
C53	C	-0.371929	-1.652957	1.115245
H54	H	-0.807644	-1.652910	0.371567
C55	C	-0.365303	-0.903663	0.364811
C56	C	-0.365303	-0.782973	0.364833
C57	C	-0.291520	-0.722604	0.290849
C58	C	-0.217737	-0.782925	0.216843
C59	C	-0.217734	-0.903622	0.216817
C60	C	-0.291517	-0.963991	0.290801
H61	H	-0.419924	-0.738314	0.419620
H62	H	-0.291523	-0.633256	0.290869
H63	H	-0.163119	-0.738237	0.162076
H64	H	-0.163113	-0.948281	0.162031
H65	H	-0.291515	-1.053339	0.290782
H66	H	-0.907203	-1.774867	0.249649
H67	H	-0.640328	-0.819879	0.640634
H68	H	-0.384466	-1.118407	0.383987
C69	C	-0.647189	-1.377337	1.120726
C70	C	-0.647218	-1.377397	1.241416
C71	C	-0.721080	-1.303479	1.301764
C72	C	-0.794912	-1.229501	1.241422
C73	C	-0.794886	-1.229439	1.120725
C74	C	-0.721024	-1.303357	1.060377
H75	H	-0.592560	-1.432163	1.286091
H76	H	-0.721099	-1.303526	1.391112
H77	H	-0.849589	-1.174783	1.286095
H78	H	-0.849543	-1.174673	1.076050
H79	H	-0.721005	-1.303310	0.971030
H80	H	-0.371827	-1.652780	0.806454
C81	C	-0.647120	-1.377210	0.890299
C82	C	-0.638445	-1.257786	0.905478
C83	C	-0.712269	-1.183804	0.845120
C84	C	-0.794769	-1.229247	0.769583
C85	C	-0.803449	-1.348677	0.754401
C86	C	-0.729624	-1.422659	0.814759
H87	H	-0.577370	-1.224141	0.961398
H88	H	-0.705843	-1.095394	0.856359
H89	H	-0.849418	-1.174481	0.724902
H90	H	-0.864523	-1.382322	0.698481
H91	H	-0.736050	-1.511070	0.803520
H92	H	-1.106269	-1.774917	0.249574
H93	H	-0.640277	-1.218015	0.640599
H94	H	-1.205780	-1.652984	0.371417
C95	C	-0.781158	-0.903784	0.781903
C96	C	-0.854926	-0.964152	0.855894
C97	C	-0.928711	-0.903829	0.929905
C98	C	-0.928730	-0.783139	0.929925
C99	C	-0.854959	-0.722765	0.855931
C100	C	-0.781174	-0.783087	0.781920
H101	H	-0.854915	-1.053500	0.855882
H102	H	-0.983321	-0.948523	0.984681
H103	H	-0.983350	-0.738485	0.984713
H104	H	-0.854970	-0.633417	0.855943
H105	H	-0.726564	-0.738394	0.727145
C106	C	-1.121837	-1.377386	0.646917
C107	C	-1.197246	-1.422913	0.729381
C108	C	-1.257577	-1.349001	0.803271
C109	C	-1.242498	-1.229562	0.794696
C110	C	-1.167086	-1.184029	0.712229
C111	C	-1.106756	-1.257941	0.638339
H112	H	-1.208411	-1.511334	0.735732
H113	H	-1.313402	-1.382708	0.864318
H114	H	-1.287159	-1.174848	0.849393
H115	H	-1.155921	-1.095607	0.705878
H116	H	-1.050931	-1.224233	0.577291
H117	H	-0.250068	-1.774798	0.905977
H118	H	-0.907102	-1.396513	0.627767
H119	H	-0.761970	-1.118528	0.762647
H120	H	-0.250123	-1.774922	1.105041
H121	H	-0.371958	-1.653024	1.204589
