data_functionalizedCrystal
_audit_creation_method	'MofGen! by Chris Wilmer'
_symmetry_space_group_name_H-M	'P1'
_symmetry_Int_Tables_number	1
_symmetry_cell_setting	triclinic
loop_
_symmetry_equiv_pos_as_xyz
  x,y,z
_cell_length_a	8.559649
_cell_length_b	8.559649
_cell_length_c	7.681481
_cell_angle_alpha	85.068001
_cell_angle_beta	94.913240
_cell_angle_gamma	69.778664
loop_
_atom_site_label
_atom_site_type_symbol
_atom_site_fract_x
_atom_site_fract_y
_atom_site_fract_z
O1	O	-2.109661	0.037797	0.146401
O2	O	-1.634175	-0.045985	0.146409
O3	O	-1.913810	0.233649	0.146397
O4	O	-1.830027	-0.241837	0.146413
O5	O	-1.948237	0.268137	-0.146462
O6	O	-1.668602	-0.011497	-0.146450
O7	O	-2.144088	0.072285	-0.146459
Zn8	Zn	-1.911811	0.035869	-0.192952
Zn9	Zn	-1.866452	-0.009570	0.192903
O10	O	-1.864454	-0.207350	-0.146447
C11	C	-1.591080	-0.035091	-0.000019
C12	C	-1.411380	-0.053990	-0.000016
C13	C	-1.937372	0.311202	-0.000030
C14	C	-1.956271	0.490901	-0.000025
C15	C	-2.187183	0.061390	-0.000026
C16	C	-2.366882	0.080288	-0.000018
N17	N	-1.942779	0.066883	-0.456287
C18	C	-1.840891	0.715098	-0.000018
C19	C	-1.821992	0.535399	-0.000021
N20	N	-1.835498	-0.040569	0.456238
H21	H	-1.466259	0.209707	-0.000013
H22	H	-2.052308	0.176557	-0.531498
Br23	Br	-1.245735	-0.269721	0.000016
H24	H	-2.085691	0.590280	-0.000034
Br25	Br	-1.606267	0.369760	-0.000039
H26	H	-1.725988	-0.150245	-0.468560
