data_functionalizedCrystal
_audit_creation_method	'MofGen! by Chris Wilmer'
_symmetry_space_group_name_H-M	'P1'
_symmetry_Int_Tables_number	1
_symmetry_cell_setting	triclinic
loop_
_symmetry_equiv_pos_as_xyz
  x,y,z
_cell_length_a	17.699083
_cell_length_b	15.944551
_cell_length_c	16.176319
_cell_angle_alpha	89.992246
_cell_angle_beta	89.998611
_cell_angle_gamma	83.390877
loop_
_atom_site_label
_atom_site_type_symbol
_atom_site_fract_x
_atom_site_fract_y
_atom_site_fract_z
O1	O	1.004260	0.106222	-0.068632
O2	O	0.783905	0.120042	-0.068660
O3	O	0.900100	-0.009156	-0.068638
O4	O	0.888065	0.235419	-0.068654
O5	O	0.900084	-0.009164	0.068855
O6	O	0.783889	0.120033	0.068833
O7	O	1.004244	0.106214	0.068861
Cu8	Cu	0.894065	0.113123	0.081401
Cu9	Cu	0.894084	0.113133	-0.081200
O10	O	0.888049	0.235411	0.068839
C11	C	0.755700	0.119542	0.000083
C12	C	0.671679	0.118057	0.000073
C13	C	0.899593	-0.040453	0.000109
C14	C	0.898095	-0.133696	0.000109
C15	C	0.623187	0.193893	0.000068
C16	C	0.544242	0.192492	0.000079
C17	C	0.513789	0.115254	0.000089
C18	C	0.562287	0.039412	0.000096
C19	C	0.641231	0.040814	0.000091
C20	C	0.243914	0.033758	0.000117
C21	C	0.164964	0.032362	0.000119
C22	C	0.146925	0.185436	0.000105
C23	C	0.225869	0.186837	0.000100
C24	C	0.274360	0.110996	0.000112
C25	C	0.359962	0.112516	0.000102
C26	C	0.428189	0.113733	0.000093
C27	C	0.822492	-0.348393	0.000088
C28	C	0.857591	-0.409488	0.067885
C29	C	0.895385	-0.304416	0.000102
C30	C	0.857624	-0.409464	-0.067672
C31	C	0.892762	-0.469323	0.000092
C32	C	0.930505	-0.364283	0.067955
C33	C	0.930527	-0.364252	-0.067663
C34	C	0.965680	-0.425329	0.000150
C35	C	0.896894	-0.209417	0.000109
C36	C	0.891259	-0.564321	0.000092
C37	C	1.032450	0.106713	0.000116
C38	C	1.116471	0.108199	0.000121
C39	C	0.888557	0.266708	0.000090
C40	C	0.890055	0.359951	0.000085
N41	N	0.894058	0.113116	0.195767
N42	N	0.894098	0.113133	-0.195565
C43	C	0.945524	0.055930	0.239040
C44	C	0.945528	0.055929	0.325588
C45	C	0.894068	0.113118	0.368859
C46	C	0.842596	0.170306	0.325579
C47	C	0.842589	0.170303	0.239034
C48	C	0.842622	0.170322	0.674608
C49	C	0.842634	0.170323	0.761159
C50	C	0.945561	0.055949	0.761161
C51	C	0.945554	0.055945	0.674616
C52	C	0.894080	0.113130	0.631343
C53	C	0.894075	0.113129	0.537499
C54	C	0.894076	0.113124	0.462702
H55	H	0.504763	0.254246	0.000074
O56	O	0.255356	0.261921	-0.000021
C57	C	0.230587	0.308134	-0.071243
H58	H	0.175834	0.285351	-0.094978
H59	H	0.276267	0.298319	-0.121108
C60	C	0.283033	0.430635	-0.020468
C61	C	0.215781	0.402657	-0.049615
H62	H	0.273903	0.488942	-0.007129
H63	H	0.299723	0.399500	0.027515
H64	H	0.321093	0.422448	-0.062027
H65	H	0.177726	0.410834	-0.008053
H66	H	0.199084	0.433796	-0.097590
H67	H	0.826790	-0.429472	-0.124993
H68	H	0.761987	-0.314958	0.000149
H69	H	0.800727	0.216895	0.796389
H70	H	0.107434	0.247189	0.000100
H71	H	0.826754	-0.429535	0.125194
O72	O	0.967296	-0.340672	0.136437
C73	C	0.991611	-0.412622	0.184341
H74	H	0.996603	-0.471116	0.143302
H75	H	0.948517	-0.419578	0.235550
C76	C	1.063512	-0.330963	0.273335
C77	C	1.069650	-0.402805	0.222928
H78	H	1.111648	-0.324906	0.297141
H79	H	1.047128	-0.282487	0.241064
H80	H	1.027597	-0.336768	0.316003
H81	H	1.105557	-0.396994	0.180256
H82	H	1.086041	-0.451279	0.255193
H83	H	0.961339	-0.344183	-0.124975
H84	H	1.026238	-0.458615	0.000196
H85	H	0.987472	0.009383	0.796403
O86	O	0.135471	-0.042724	0.000024
C87	C	0.160233	-0.088941	-0.071187
H88	H	0.214989	-0.066167	-0.094932
H89	H	0.114552	-0.079118	-0.121051
C90	C	0.107771	-0.211431	-0.020375
C91	C	0.175026	-0.183464	-0.049535
H92	H	0.116893	-0.269738	-0.007021
H93	H	0.091085	-0.180294	0.027600
H94	H	0.069710	-0.203238	-0.061933
H95	H	0.213082	-0.191648	-0.007973
H96	H	0.191719	-0.214605	-0.097503
H97	H	0.987432	0.009364	0.203814
H98	H	0.537486	-0.023476	0.000116
O99	O	0.652640	0.268997	0.000095
C100	C	0.592907	0.335630	0.000073
H101	H	0.539280	0.312189	0.026109
H102	H	0.581734	0.359019	-0.065890
C103	C	0.681060	0.437277	0.022008
C104	C	0.615195	0.408488	0.053993
H105	H	0.694809	0.482222	0.055265
H106	H	0.721304	0.392386	0.022020
H107	H	0.671740	0.456762	-0.032961
H108	H	0.624519	0.388995	0.108956
H109	H	0.574954	0.453379	0.053992
O110	O	0.291085	-0.039858	0.000008
C111	C	0.337274	-0.043636	-0.071214
H112	H	0.341275	0.023028	-0.094956
H113	H	0.311294	-0.081936	-0.121075
C114	C	0.412503	-0.167958	-0.020427
C115	C	0.417423	-0.086079	-0.049583
H116	H	0.461942	-0.194141	-0.007086
H117	H	0.381383	-0.165415	0.027556
H118	H	0.390850	-0.199864	-0.061982
H119	H	0.439066	-0.054171	-0.008024
H120	H	0.448548	-0.088617	-0.097558
O121	O	0.688230	-0.032931	0.000055
C122	C	0.644426	-0.101405	0.000083
H123	H	0.585506	-0.079964	-0.025946
H124	H	0.638806	-0.125092	0.066048
C125	C	0.756125	-0.199499	-0.021864
C126	C	0.683761	-0.173168	-0.053840
H127	H	0.780390	-0.243769	-0.055123
H128	H	0.785638	-0.153368	-0.021880
H129	H	0.751432	-0.219233	0.033106
H130	H	0.688455	-0.153425	-0.108805
H131	H	0.654249	-0.219298	-0.053834
H132	H	0.987435	0.009364	0.360821
H133	H	0.800679	0.216868	0.203801
O134	O	0.995570	0.000310	0.632711
C135	C	1.041010	-0.050152	0.689465
H136	H	1.009987	-0.051055	0.751163
H137	H	1.097233	-0.022957	0.698655
C138	C	1.094705	-0.139681	0.579923
C139	C	1.056600	-0.140796	0.655700
H140	H	1.104325	-0.195594	0.559095
H141	H	1.064093	-0.105682	0.541686
H142	H	1.141553	-0.117015	0.587592
H143	H	1.009748	-0.163451	0.648028
H144	H	1.087204	-0.174800	0.693935
H145	H	0.800711	0.216885	0.639382
H146	H	0.800693	0.216868	0.360816
