data_functionalizedCrystal
_audit_creation_method	'MofGen! by Chris Wilmer'
_symmetry_space_group_name_H-M	'P1'
_symmetry_Int_Tables_number	1
_symmetry_cell_setting	triclinic
loop_
_symmetry_equiv_pos_as_xyz
  x,y,z
_cell_length_a	19.805407
_cell_length_b	13.897448
_cell_length_c	19.805399
_cell_angle_alpha	90.025019
_cell_angle_beta	90.017803
_cell_angle_gamma	90.015009
loop_
_atom_site_label
_atom_site_type_symbol
_atom_site_fract_x
_atom_site_fract_y
_atom_site_fract_z
Zn1	Zn	1.034777	-0.384106	0.382700
Zn2	Zn	1.034709	-0.545412	0.269517
Zn3	Zn	0.921591	-0.384125	0.269528
Zn4	Zn	0.921572	-0.545353	0.382667
O5	O	0.978162	-0.464749	0.326103
O6	O	1.129484	-0.405521	0.367695
O7	O	1.019683	-0.524050	0.174801
O8	O	0.936642	-0.249141	0.284559
O9	O	1.129434	-0.524031	0.284540
O10	O	1.019799	-0.249127	0.367706
O11	O	0.936576	-0.405553	0.174810
O12	O	0.826872	-0.405496	0.284527
O13	O	0.936609	-0.523931	0.477388
O14	O	0.826858	-0.523950	0.367650
O15	O	1.019780	-0.405464	0.477412
O16	O	1.019664	-0.680386	0.284508
O17	O	0.936543	-0.680343	0.367639
C18	C	0.802306	-0.464719	0.326086
C19	C	0.727074	-0.464729	0.326095
C20	C	0.978113	-0.715364	0.326083
C21	C	0.978154	-0.822578	0.326097
C22	C	0.691757	-0.403130	0.369460
C23	C	0.621068	-0.403135	0.369463
C24	C	0.585699	-0.464745	0.326103
C25	C	0.621021	-0.526347	0.282734
C26	C	0.691708	-0.526337	0.282728
C27	C	0.335948	-0.526391	0.282755
C28	C	0.265256	-0.526399	0.282765
C29	C	0.265308	-0.403189	0.369489
C30	C	0.335995	-0.403178	0.369483
C31	C	0.371311	-0.464777	0.326112
C32	C	0.447960	-0.464769	0.326108
C33	C	0.509051	-0.464758	0.326110
C34	C	0.978225	-1.018873	0.326140
C35	C	0.978183	-0.909640	0.326118
C36	C	1.154705	-0.464780	0.326120
C37	C	1.229937	-0.464794	0.326127
C38	C	0.978200	-0.464689	0.502646
C39	C	0.978216	-0.464663	0.577878
C40	C	0.978230	-0.213156	0.326137
C41	C	0.978259	-0.105942	0.326152
C42	C	0.978163	-0.464740	0.150247
C43	C	0.978278	-0.464494	0.075015
C44	C	1.021524	-0.402974	0.613235
C45	C	1.021531	-0.402946	0.683924
C46	C	0.978233	-0.464612	0.719253
C47	C	0.934920	-0.526304	0.683890
C48	C	0.934910	-0.526327	0.613203
C49	C	0.934958	-0.526214	0.968964
C50	C	0.934973	-0.526189	1.039656
C51	C	1.021579	-0.402833	1.039684
C52	C	1.021570	-0.402856	0.968997
C53	C	0.978254	-0.464544	0.933641
C54	C	0.978247	-0.464572	0.856992
C55	C	0.978244	-0.464590	0.795900
H56	H	0.592316	-0.352977	0.404776
O57	O	0.230926	-0.343478	0.411650
C58	C	0.151188	-0.330688	0.503084
C59	C	0.190069	-0.398412	0.455368
H60	H	0.118157	-0.375076	0.538452
H61	H	0.118043	-0.280208	0.472113
H62	H	0.188623	-0.286635	0.534043
H63	H	0.152682	-0.442528	0.424399
H64	H	0.223223	-0.448829	0.486378
H65	H	0.364694	-0.576549	0.247439
O66	O	0.726216	-0.343372	0.411558
C67	C	0.835133	-0.288702	0.449959
C68	C	0.796195	-0.356447	0.402260
H69	H	0.891717	-0.299235	0.442447
H70	H	0.821304	-0.305745	0.504531
H71	H	0.821197	-0.210914	0.438175
H72	H	0.810110	-0.434257	0.413983
H73	H	0.810027	-0.339321	0.347702
H74	H	0.236460	-0.576571	0.247454
O75	O	0.370277	-0.343377	0.411696
C76	C	0.391990	-0.296798	0.526885
C77	C	0.353113	-0.364573	0.479157
H78	H	0.378138	-0.313924	0.581438
H79	H	0.378082	-0.218984	0.515149
H80	H	0.448575	-0.307355	0.519397
H81	H	0.296519	-0.354101	0.486618
H82	H	0.367077	-0.442362	0.490904
H83	H	0.899638	-0.576551	0.584416
H84	H	0.720463	-0.576497	0.247416
O85	O	0.586561	-0.586164	0.240677
C86	C	0.477643	-0.640751	0.202222
C87	C	0.516582	-0.572972	0.249895
H88	H	0.421059	-0.630094	0.209648
H89	H	0.491488	-0.718571	0.214011
H90	H	0.491561	-0.623717	0.147672
H91	H	0.502685	-0.589919	0.304462
H92	H	0.502734	-0.495172	0.238048
H93	H	1.056785	-0.352760	0.584475
H94	H	1.056846	-0.352601	1.068480
O95	O	0.892893	-0.586341	0.718134
C96	C	0.860024	-0.750409	0.739763
C97	C	0.907649	-0.682522	0.700930
H98	H	0.871946	-0.828187	0.725879
H99	H	0.805437	-0.733544	0.725846
H100	H	0.867460	-0.739749	0.796355
H101	H	0.900273	-0.693144	0.644329
H102	H	0.962218	-0.699404	0.714903
H103	H	0.899712	-0.576408	1.068419
O104	O	0.892854	-0.586215	0.934729
C105	C	0.806897	-0.708492	0.942167
C106	C	0.854566	-0.640614	0.981025
H107	H	0.775919	-0.752477	0.979580
H108	H	0.837903	-0.759019	0.909079
H109	H	0.771545	-0.664174	0.909066
H110	H	0.889928	-0.684854	1.014163
H111	H	0.823519	-0.590084	1.014071
H112	H	1.056799	-0.352714	0.712709
O113	O	1.063651	-0.342861	0.934784
C114	C	1.149581	-0.220537	0.942274
C115	C	1.101950	-0.288419	0.981104
H116	H	1.180568	-0.176517	0.979707
H117	H	1.118545	-0.170042	0.909202
H118	H	1.184927	-0.264853	0.909160
H119	H	1.066595	-0.244180	1.014254
H120	H	1.133027	-0.338917	1.014133
