data_functionalizedCrystal
_audit_creation_method	'MofGen! by Chris Wilmer'
_symmetry_space_group_name_H-M	'P1'
_symmetry_Int_Tables_number	1
_symmetry_cell_setting	triclinic
loop_
_symmetry_equiv_pos_as_xyz
  x,y,z
_cell_length_a	16.120530
_cell_length_b	18.101395
_cell_length_c	16.120297
_cell_angle_alpha	92.872690
_cell_angle_beta	90.128140
_cell_angle_gamma	87.126665
loop_
_atom_site_label
_atom_site_type_symbol
_atom_site_fract_x
_atom_site_fract_y
_atom_site_fract_z
Zn1	Zn	1.247384	-0.375190	-0.534565
Zn2	Zn	1.497384	-0.125190	-0.284565
Zn3	Zn	1.747384	0.124810	-0.034565
Zn4	Zn	1.997384	0.374810	0.215435
Zn5	Zn	1.254317	-0.493082	-0.395508
Zn6	Zn	1.504317	-0.243082	-0.145508
Zn7	Zn	1.754317	0.006918	0.104492
Zn8	Zn	2.004317	0.256918	0.354492
Zn9	Zn	1.115376	-0.362676	-0.388483
Zn10	Zn	1.365376	-0.112676	-0.138483
Zn11	Zn	1.615376	0.137324	0.111517
Zn12	Zn	1.865376	0.387324	0.361517
Zn13	Zn	1.108274	-0.492400	-0.527477
Zn14	Zn	1.358274	-0.242400	-0.277477
Zn15	Zn	1.608274	0.007600	-0.027477
Zn16	Zn	1.858274	0.257600	0.222523
O17	O	1.181338	-0.430837	-0.461508
O18	O	1.431338	-0.180837	-0.211508
O19	O	1.681338	0.069163	0.038492
O20	O	1.931338	0.319163	0.288492
O21	O	1.364669	-0.396351	-0.522025
O22	O	1.614669	-0.146351	-0.272025
O23	O	1.864669	0.103649	-0.022025
O24	O	2.114669	0.353649	0.227975
O25	O	1.241761	-0.470832	-0.278211
O26	O	1.491761	-0.220832	-0.028211
O27	O	1.741761	0.029168	0.221789
O28	O	1.991761	0.279168	0.471789
O29	O	1.132958	-0.260707	-0.407888
O30	O	1.382958	-0.010707	-0.157888
O31	O	1.632958	0.239293	0.092112
O32	O	1.882958	0.489293	0.342112
O33	O	1.369763	-0.482966	-0.419860
O34	O	1.619763	-0.232966	-0.169860
O35	O	1.869763	0.017034	0.080140
O36	O	2.119763	0.267034	0.330140
O37	O	1.229944	-0.269901	-0.515214
O38	O	1.479944	-0.019901	-0.265214
O39	O	1.729944	0.230099	-0.015214
O40	O	1.979944	0.480099	0.234786
O41	O	1.139681	-0.375023	-0.273050
O42	O	1.389681	-0.125023	-0.023050
O43	O	1.639681	0.124977	0.226950
O44	O	1.889681	0.374977	0.476950
O45	O	0.998069	-0.374361	-0.401015
O46	O	1.248069	-0.124361	-0.151015
O47	O	1.498069	0.125639	0.098985
O48	O	1.748069	0.375639	0.348985
O49	O	1.120853	-0.481804	-0.644783
O50	O	1.370853	-0.231804	-0.394783
O51	O	1.620853	0.018196	-0.144783
O52	O	1.870853	0.268196	0.105217
O53	O	0.992851	-0.469669	-0.503133
O54	O	1.242851	-0.219669	-0.253133
O55	O	1.492851	0.030331	-0.003133
O56	O	1.742851	0.280331	0.246867
O57	O	1.223057	-0.395690	-0.649990
O58	O	1.473057	-0.145690	-0.399990
O59	O	1.723057	0.104310	-0.149990
O60	O	1.973057	0.354310	0.100010
O61	O	1.234873	-0.596620	-0.412987
O62	O	1.484873	-0.346620	-0.162987
O63	O	1.734873	-0.096620	0.087013
O64	O	1.984873	0.153380	0.337013
O65	O	1.127576	-0.596119	-0.509945
O66	O	1.377576	-0.346119	-0.259945
O67	O	1.627576	-0.096119	-0.009945
O68	O	1.877576	0.153881	0.240055
C69	C	0.965287	-0.420584	-0.450543
C70	C	1.215287	-0.170584	-0.200543
C71	C	1.465287	0.079416	0.049457
C72	C	1.715287	0.329416	0.299457
C73	C	0.872859	-0.416216	-0.445872
C74	C	1.122859	-0.166216	-0.195872
C75	C	1.372859	0.083784	0.054128
C76	C	1.622859	0.333784	0.304128
C77	C	0.703631	-0.408225	-0.437350
C78	C	0.953631	-0.158225	-0.187350
C79	C	1.203631	0.091775	0.062650
C80	C	1.453631	0.341775	0.312650
C81	C	0.659883	-0.453506	-0.485727
C82	C	0.909883	-0.203506	-0.235727
C83	C	1.159883	0.046494	0.014273
C84	C	1.409883	0.296494	0.264273
C85	C	0.565718	-0.449060	-0.480986
C86	C	0.815718	-0.199060	-0.230986
C87	C	1.065718	0.050940	0.019014
C88	C	1.315718	0.300940	0.269014
C89	C	0.797804	-0.412671	-0.442091
C90	C	1.047804	-0.162671	-0.192091
C91	C	1.297804	0.087329	0.057909
C92	C	1.547804	0.337329	0.307909
C93	C	1.181228	-0.623241	-0.461478
C94	C	1.431228	-0.373241	-0.211478
C95	C	1.681228	-0.123241	0.038522
C96	C	1.931228	0.126759	0.288522
C97	C	1.181256	-0.705558	-0.461497
C98	C	1.431256	-0.455558	-0.211497
C99	C	1.681256	-0.205558	0.038503
C100	C	1.931256	0.044442	0.288503
C101	C	1.181436	-1.004659	-0.461551
C102	C	1.431436	-0.754659	-0.211551
C103	C	1.681436	-0.504659	0.038449
C104	C	1.931436	-0.254659	0.288449
C105	C	1.114068	-0.973063	-0.522721
C106	C	1.364068	-0.723063	-0.272721
C107	C	1.614068	-0.473063	-0.022721
C108	C	1.864068	-0.223063	0.227279
C109	C	1.113774	-0.887422	-0.522504
C110	C	1.363774	-0.637422	-0.272504
C111	C	1.613774	-0.387422	-0.022504
C112	C	1.863774	-0.137422	0.227496
C113	C	1.181346	-0.856271	-0.461525
C114	C	1.431346	-0.606271	-0.211525
C115	C	1.681346	-0.356271	0.038475
C116	C	1.931346	-0.106271	0.288475
C117	C	1.162064	-0.882548	-0.372686
C118	C	1.412064	-0.632548	-0.122686
C119	C	1.662064	-0.382548	0.127314
C120	C	1.912064	-0.132548	0.377314
C121	C	1.161632	-0.968190	-0.373050
C122	C	1.411632	-0.718190	-0.123050
C123	C	1.661632	-0.468190	0.126950
C124	C	1.911632	-0.218190	0.376950
C125	C	1.268265	-0.978132	-0.488456
C126	C	1.518265	-0.728132	-0.238456
C127	C	1.768265	-0.478132	0.011544
C128	C	2.018265	-0.228132	0.261544
C129	C	1.267650	-0.892539	-0.490352
C130	C	1.517650	-0.642539	-0.240352
C131	C	1.767650	-0.392539	0.009648
C132	C	2.017650	-0.142539	0.259648
C133	C	1.181297	-0.772409	-0.461505
C134	C	1.431297	-0.522409	-0.211505
C135	C	1.681297	-0.272409	0.038495
C136	C	1.931297	-0.022409	0.288495
C137	C	1.181483	-1.088521	-0.461565
C138	C	1.431483	-0.838521	-0.211565
C139	C	1.681483	-0.588521	0.038435
C140	C	1.931483	-0.338521	0.288435
C141	C	1.398232	-0.441131	-0.472517
C142	C	1.648232	-0.191131	-0.222517
C143	C	1.898232	0.058869	0.027483
C144	C	2.148232	0.308869	0.277483
C145	C	1.490660	-0.445517	-0.477208
C146	C	1.740660	-0.195517	-0.227208
C147	C	1.990660	0.054483	0.022792
C148	C	2.240660	0.304483	0.272792
C149	C	1.170389	-0.440067	-0.678403
C150	C	1.420389	-0.190067	-0.428403
C151	C	1.670389	0.059933	-0.178403
C152	C	1.920389	0.309933	0.071597
C153	C	1.165724	-0.444000	-0.770830
C154	C	1.415724	-0.194000	-0.520830
C155	C	1.665724	0.056000	-0.270830
C156	C	1.915724	0.306000	-0.020830
C157	C	1.181470	-0.237683	-0.461558
C158	C	1.431470	0.012317	-0.211558
C159	C	1.681470	0.262317	0.038442
C160	C	1.931470	0.512317	0.288442
C161	C	1.181526	-0.155373	-0.461579
C162	C	1.431526	0.094627	-0.211579
C163	C	1.681526	0.344627	0.038421
C164	C	1.931526	0.594627	0.288421
C165	C	1.157175	-0.451163	-0.940055
C166	C	1.407175	-0.201163	-0.690055
C167	C	1.657175	0.048837	-0.440055
C168	C	1.907175	0.298837	-0.190055
C169	C	1.205665	-0.410297	-0.983822
C170	C	1.455665	-0.160297	-0.733822
C171	C	1.705665	0.089703	-0.483822
C172	C	1.955665	0.339703	-0.233822
C173	C	1.200908	-0.414283	-1.077985
C174	C	1.450908	-0.164283	-0.827985
C175	C	1.700908	0.085717	-0.577985
C176	C	1.950908	0.335717	-0.327985
C177	C	1.161931	-0.447178	-0.845884
C178	C	1.411931	-0.197178	-0.595884
C179	C	1.661931	0.052822	-0.345884
C180	C	1.911931	0.302822	-0.095884
C181	C	1.192292	-0.421592	-0.245460
C182	C	1.442292	-0.171592	0.004540
C183	C	1.692292	0.078408	0.254540
C184	C	1.942292	0.328408	0.504540
C185	C	1.197119	-0.417458	-0.153042
C186	C	1.447119	-0.167458	0.096958
C187	C	1.697119	0.082542	0.346958
C188	C	1.947119	0.332542	0.596958
H189	H	0.670367	-0.366124	-0.392376
H190	H	0.920367	-0.116124	-0.142376
H191	H	1.170367	0.133876	0.107624
H192	H	1.420367	0.383876	0.357624
C193	C	1.129372	-0.863671	-0.611309
C194	C	1.379372	-0.613671	-0.361309
C195	C	1.629372	-0.363671	-0.111309
C196	C	1.879372	-0.113671	0.138691
N197	N	1.141118	-0.845785	-0.678202
N198	N	1.391118	-0.595785	-0.428202
N199	N	1.641118	-0.345785	-0.178202
N200	N	1.891118	-0.095785	0.071798
C201	C	1.266581	-0.358995	-0.938909
C202	C	1.516581	-0.108995	-0.688909
C203	C	1.766581	0.141005	-0.438909
C204	C	2.016581	0.391005	-0.188909
N205	N	1.312465	-0.320358	-0.905076
N206	N	1.562465	-0.070358	-0.655076
N207	N	1.812465	0.179642	-0.405076
N208	N	2.062465	0.429642	-0.155076
C209	C	1.225360	-0.996170	-0.309048
C210	C	1.475360	-0.746170	-0.059048
C211	C	1.725360	-0.496170	0.190952
C212	C	1.975360	-0.246170	0.440952
N213	N	1.273354	-1.017240	-0.260837
N214	N	1.523354	-0.767240	-0.010837
N215	N	1.773354	-0.517240	0.239163
N216	N	2.023354	-0.267240	0.489163
H217	H	1.098292	-0.984372	-0.350776
H218	H	1.348292	-0.734372	-0.100776
H219	H	1.598292	-0.484372	0.149224
H220	H	1.848292	-0.234372	0.399224
C221	C	1.338565	-0.864319	-0.435027
C222	C	1.588565	-0.614319	-0.185027
C223	C	1.838565	-0.364319	0.064973
C224	C	2.088565	-0.114319	0.314973
N225	N	1.391977	-0.843065	-0.393348
N226	N	1.641977	-0.593065	-0.143348
N227	N	1.891977	-0.343065	0.106652
N228	N	2.141977	-0.093065	0.356652
H229	H	1.049324	-0.863273	-0.504331
H230	H	1.299324	-0.613273	-0.254331
H231	H	1.549324	-0.363273	-0.004331
H232	H	1.799324	-0.113273	0.245669
C233	C	0.704822	-0.510394	-0.546484
C234	C	0.954822	-0.260394	-0.296484
C235	C	1.204822	-0.010394	-0.046484
C236	C	1.454822	0.239606	0.203516
N237	N	0.738674	-0.553243	-0.592242
N238	N	0.988674	-0.303243	-0.342242
N239	N	1.238674	-0.053243	-0.092242
N240	N	1.488674	0.196757	0.157758
C241	C	1.335999	-1.005838	-0.428346
C242	C	1.585999	-0.755838	-0.178346
C243	C	1.835999	-0.505838	0.071654
C244	C	2.085999	-0.255838	0.321654
N245	N	1.387010	-1.026711	-0.383068
N246	N	1.637010	-0.776711	-0.133068
N247	N	1.887010	-0.526711	0.116932
N248	N	2.137010	-0.276711	0.366932
H249	H	1.125459	-0.997097	-0.588658
H250	H	1.375459	-0.747097	-0.338658
H251	H	1.625459	-0.497097	-0.088658
H252	H	1.875459	-0.247097	0.161342
C253	C	1.226526	-0.855068	-0.309168
C254	C	1.476526	-0.605068	-0.059168
C255	C	1.726526	-0.355068	0.190832
C256	C	1.976526	-0.105068	0.440832
N257	N	1.275078	-0.834367	-0.261327
N258	N	1.525078	-0.584367	-0.011327
N259	N	1.775078	-0.334367	0.238673
N260	N	2.025078	-0.084367	0.488673
H261	H	1.286711	-1.003393	-0.552368
H262	H	1.536711	-0.753393	-0.302368
H263	H	1.786711	-0.503393	-0.052368
H264	H	2.036711	-0.253393	0.197632
H265	H	1.050005	-0.990950	-0.504755
H266	H	1.300005	-0.740950	-0.254755
H267	H	1.550005	-0.490950	-0.004755
H268	H	1.800005	-0.240950	0.245245
H269	H	1.282271	-0.875783	-0.555755
H270	H	1.532271	-0.625783	-0.305755
H271	H	1.782271	-0.375783	-0.055755
H272	H	2.032271	-0.125783	0.194245
C273	C	1.077434	-0.848474	-0.342182
C274	C	1.327434	-0.598474	-0.092182
C275	C	1.577434	-0.348474	0.157818
C276	C	1.827434	-0.098474	0.407818
N277	N	1.013688	-0.822812	-0.319212
N278	N	1.263688	-0.572812	-0.069212
N279	N	1.513688	-0.322812	0.180788
N280	N	1.763688	-0.072812	0.430788
C281	C	1.096269	-0.502467	-0.984969
C282	C	1.346269	-0.252467	-0.734969
C283	C	1.596269	-0.002467	-0.484969
C284	C	1.846269	0.247533	-0.234969
N285	N	1.050395	-0.541110	-1.018807
N286	N	1.300395	-0.291110	-0.768807
N287	N	1.550395	-0.041110	-0.518807
N288	N	1.800395	0.208890	-0.268807
