data_functionalizedCrystal
_audit_creation_method	'MofGen! by Chris Wilmer'
_symmetry_space_group_name_H-M	'P1'
_symmetry_Int_Tables_number	1
_symmetry_cell_setting	triclinic
loop_
_symmetry_equiv_pos_as_xyz
  x,y,z
_cell_length_a	13.897448
_cell_length_b	21.395364
_cell_length_c	21.395356
_cell_angle_alpha	89.976233
_cell_angle_beta	89.975201
_cell_angle_gamma	90.016025
loop_
_atom_site_label
_atom_site_type_symbol
_atom_site_fract_x
_atom_site_fract_y
_atom_site_fract_z
Zn1	Zn	-0.384082	0.957910	-0.354277
Zn2	Zn	-0.545388	0.957838	-0.249505
Zn3	Zn	-0.384104	0.853127	-0.249513
Zn4	Zn	-0.545332	0.853118	-0.354245
O5	O	-0.464726	0.905498	-0.301885
O6	O	-0.405494	1.045578	-0.340389
O7	O	-0.524025	0.943921	-0.161828
O8	O	-0.249119	0.867060	-0.263428
O9	O	-0.524004	1.045525	-0.263413
O10	O	-0.249103	0.944044	-0.340397
O11	O	-0.405530	0.866990	-0.161834
O12	O	-0.405477	0.765447	-0.263396
O13	O	-0.523910	0.867045	-0.441927
O14	O	-0.523931	0.765441	-0.340342
O15	O	-0.405440	0.944035	-0.441951
O16	O	-0.680362	0.943913	-0.263382
O17	O	-0.680321	0.866975	-0.340333
C18	C	-0.464701	0.742710	-0.301867
C19	C	-0.464713	0.673069	-0.301874
C20	C	-0.526518	0.171286	-0.341912
C21	C	-0.526519	0.236721	-0.341905
C22	C	-0.464747	0.269431	-0.301905
C23	C	-0.402989	0.236699	-0.261897
C24	C	-0.402997	0.171265	-0.261900
C25	C	-0.377820	0.373107	-0.297051
C26	C	-0.377810	0.438540	-0.297052
C27	C	-0.464722	0.471252	-0.301891
C28	C	-0.551647	0.438522	-0.306742
C29	C	-0.551656	0.373088	-0.306746
C30	C	-0.464732	0.340383	-0.301896
C31	C	-0.526482	0.574928	-0.341886
C32	C	-0.526483	0.640364	-0.341875
C33	C	-0.402945	0.640341	-0.261870
C34	C	-0.402952	0.574906	-0.261878
C35	C	-0.464719	0.542203	-0.301889
C36	C	-0.715341	0.905452	-0.301867
C37	C	-0.822555	0.905490	-0.301880
C38	C	-1.018850	0.905556	-0.301919
C39	C	-0.909617	0.905517	-0.301899
C40	C	-0.213133	0.905561	-0.301917
C41	C	-0.105919	0.905588	-0.301930
C42	C	-0.464667	0.905547	-0.465308
C43	C	-0.464641	0.905568	-0.534950
C44	C	-0.464753	1.068921	-0.301903
C45	C	-0.464764	1.138562	-0.301911
C46	C	-0.402934	0.865521	-0.567656
C47	C	-0.402916	0.865519	-0.633092
C48	C	-0.464595	0.905575	-0.665818
C49	C	-0.526314	0.945625	-0.633103
C50	C	-0.526337	0.945622	-0.567669
C51	C	-0.472181	0.962028	-0.769505
C52	C	-0.472152	0.962033	-0.834938
C53	C	-0.464530	0.905585	-0.867639
C54	C	-0.456918	0.849132	-0.834899
C55	C	-0.456941	0.849128	-0.769465
C56	C	-0.464578	0.905583	-0.736770
C57	C	-0.402800	0.865533	-0.971298
C58	C	-0.402789	0.865529	-1.036735
C59	C	-0.526182	0.945641	-1.036745
C60	C	-0.526199	0.945639	-0.971310
C61	C	-0.464502	0.905585	-0.938590
C62	C	-0.464716	0.905485	-0.139097
C63	C	-0.464470	0.905585	-0.069456
H64	H	-0.352696	0.263336	-0.229327
O65	O	-0.342911	0.139571	-0.223024
C66	C	-0.220423	0.146453	-0.143643
C67	C	-0.288407	0.182426	-0.187646
H68	H	-0.176354	0.181085	-0.115019
H69	H	-0.169980	0.115858	-0.172437
H70	H	-0.264664	0.115778	-0.110863
H71	H	-0.244244	0.213135	-0.220434
H72	H	-0.338853	0.212981	-0.158813
H73	H	-0.450745	0.803162	-0.742811
O74	O	-0.342973	0.672204	-0.223071
C75	C	-0.288258	0.772998	-0.187576
C76	C	-0.356206	0.736989	-0.231562
H77	H	-0.298948	0.825383	-0.194417
H78	H	-0.210480	0.760197	-0.198665
H79	H	-0.305091	0.760067	-0.137044
H80	H	-0.339460	0.749900	-0.282109
H81	H	-0.433964	0.749793	-0.220419
O82	O	-0.586413	0.984497	-0.535964
C83	C	-0.750504	1.014842	-0.515897
C84	C	-0.682579	0.970786	-0.551854
H85	H	-0.828270	1.003764	-0.528721
H86	H	-0.733651	1.065379	-0.528796
H87	H	-0.739872	1.007971	-0.463512
H88	H	-0.693174	0.977601	-0.604247
H89	H	-0.699449	0.920265	-0.538902
H90	H	-0.352543	0.832914	-1.063363
H91	H	-0.450705	0.803167	-0.861523
H92	H	-0.352564	0.832918	-0.944656
O93	O	-0.586233	0.984485	-1.068503
C94	C	-0.750303	1.014887	-1.088492
C95	C	-0.682403	0.970849	-1.052493
H96	H	-0.828069	1.003887	-1.075552
H97	H	-0.739767	1.008005	-1.140885
H98	H	-0.733325	1.065409	-1.075657
H99	H	-0.699339	0.920311	-1.065276
H100	H	-0.692951	0.977786	-1.000109
H101	H	-0.478380	1.007998	-0.742885
H102	H	-0.576445	0.978251	-0.944680
O103	O	-0.342978	0.826552	-0.535970
C104	C	-0.220541	0.747126	-0.542868
C105	C	-0.288406	0.791215	-0.578832
H106	H	-0.176387	0.718554	-0.577506
H107	H	-0.264782	0.714307	-0.512234
H108	H	-0.170163	0.775914	-0.512233
H109	H	-0.338798	0.762478	-0.609501
H110	H	-0.244105	0.824036	-0.609427
O111	O	-0.342917	0.826706	-0.664940
C112	C	-0.212616	0.818335	-0.738801
C113	C	-0.280521	0.862359	-0.702787
H114	H	-0.162138	0.847144	-0.769399
H115	H	-0.256822	0.785571	-0.769463
H116	H	-0.168571	0.789694	-0.704162
H117	H	-0.324580	0.891040	-0.737380
H118	H	-0.236259	0.895081	-0.672115
H119	H	-0.576806	0.263370	-0.374480
H120	H	-0.478345	1.008001	-0.861589
O121	O	-0.586180	0.984625	-0.664821
C122	C	-0.632976	1.091194	-0.684900
C123	C	-0.565127	1.047098	-0.648931
H124	H	-0.615965	1.141713	-0.672076
H125	H	-0.710774	1.080221	-0.672010
H126	H	-0.622375	1.084287	-0.737283
H127	H	-0.575642	1.053980	-0.596540
H128	H	-0.487354	1.058081	-0.661874
H129	H	-0.352662	0.548262	-0.229307
O130	O	-0.293292	0.470233	-0.292317
C131	C	-0.120863	0.463344	-0.282755
C132	C	-0.216514	0.427375	-0.288093
H133	H	-0.058762	0.428709	-0.279351
H134	H	-0.122196	0.493947	-0.239156
H135	H	-0.110818	0.494010	-0.325854
H136	H	-0.226619	0.396675	-0.245026
H137	H	-0.215138	0.396811	-0.331717
H138	H	-0.576817	0.144663	-0.374490
H139	H	-0.622419	0.465155	-0.310687
H140	H	-0.622433	0.346443	-0.310694
H141	H	-0.576778	0.667007	-0.374447
O142	O	-0.586568	0.543253	-0.380772
C143	C	-0.709040	0.550180	-0.460162
C144	C	-0.641063	0.586127	-0.416143
H145	H	-0.753102	0.584829	-0.488780
H146	H	-0.759490	0.519536	-0.431381
H147	H	-0.664794	0.519556	-0.492947
H148	H	-0.685231	0.616785	-0.383350
H149	H	-0.590610	0.616732	-0.444964
O150	O	-0.293439	0.341262	-0.292432
C151	C	-0.185415	0.267442	-0.340483
C152	C	-0.281003	0.303456	-0.345789
H153	H	-0.175320	0.236878	-0.383621
H154	H	-0.186817	0.236747	-0.296924
H155	H	-0.123305	0.302081	-0.336989
H156	H	-0.343165	0.268863	-0.349308
H157	H	-0.279518	0.334161	-0.389339
