data_functionalizedCrystal
_audit_creation_method	'MofGen! by Chris Wilmer'
_symmetry_space_group_name_H-M	'P1'
_symmetry_Int_Tables_number	1
_symmetry_cell_setting	triclinic
loop_
_symmetry_equiv_pos_as_xyz
  x,y,z
_cell_length_a	8.497374
_cell_length_b	8.497374
_cell_length_c	16.625548
_cell_angle_alpha	90.003540
_cell_angle_beta	89.997839
_cell_angle_gamma	90.005237
loop_
_atom_site_label
_atom_site_type_symbol
_atom_site_fract_x
_atom_site_fract_y
_atom_site_fract_z
Zn1	Zn	0.628285	0.892183	1.232665
Zn2	Zn	0.892030	0.628448	1.232658
Zn3	Zn	0.628263	0.628402	1.097867
Zn4	Zn	0.892021	0.892171	1.097847
O5	O	0.760150	0.760301	1.165259
O6	O	0.663284	0.857222	1.345496
O7	O	0.857036	0.407680	1.214783
O8	O	0.407503	0.663378	1.115759
O9	O	0.857057	0.663458	1.345492
O10	O	0.407519	0.857177	1.214794
O11	O	0.663247	0.407646	1.115752
O12	O	0.663238	0.663367	0.985032
O13	O	0.857041	1.112935	1.115726
O14	O	0.857020	0.857158	0.985017
O15	O	0.663275	1.112944	1.214775
O16	O	1.112791	0.663447	1.214765
O17	O	1.112785	0.857203	1.115719
C18	C	0.760127	0.760257	0.955768
C19	C	0.760156	0.760275	0.866147
C20	C	1.170030	0.760324	1.165249
C21	C	1.348674	0.760298	1.165271
C22	C	0.760152	1.171781	1.165253
C23	C	0.760169	1.350425	1.165255
C24	C	0.760166	0.760343	0.537972
C25	C	0.760159	0.760319	0.629280
C26	C	0.760162	0.760308	0.702057
C27	C	0.760153	0.760287	0.793371
C28	C	0.760174	0.760346	1.375568
C29	C	0.760184	0.760365	1.465189
