data_functionalizedCrystal
_audit_creation_method	'MofGen! by Chris Wilmer'
_symmetry_space_group_name_H-M	'P1'
_symmetry_Int_Tables_number	1
_symmetry_cell_setting	triclinic
loop_
_symmetry_equiv_pos_as_xyz
  x,y,z
_cell_length_a	17.917559
_cell_length_b	14.560438
_cell_length_c	14.560438
_cell_angle_alpha	60.005799
_cell_angle_beta	89.999254
_cell_angle_gamma	57.009515
loop_
_atom_site_label
_atom_site_type_symbol
_atom_site_fract_x
_atom_site_fract_y
_atom_site_fract_z
Zr1	Zr	0.754952	0.920616	-0.078103
O2	O	0.629832	1.126220	-0.231730
O3	O	0.793303	0.724734	-0.031028
O4	O	0.793309	0.916321	-0.222603
O5	O	0.629825	0.934631	0.110987
O6	O	0.922268	0.901874	-0.215382
O7	O	0.629825	0.934633	-0.040154
O8	O	0.922257	0.559159	0.127312
O9	O	0.629837	1.277345	-0.231707
O10	O	0.905905	0.790920	-0.005537
O11	O	0.809665	0.801700	0.101868
O12	O	0.809672	1.027270	-0.123688
O13	O	0.713432	1.038050	-0.016282
Zr14	Zr	0.960627	0.897570	0.174467
Zr15	Zr	0.960626	0.897574	-0.066585
Zr16	Zr	0.754952	0.920612	0.162949
Zr17	Zr	0.754960	1.161643	-0.078067
Zr18	Zr	0.960618	0.656543	0.174431
O19	O	0.922275	1.093452	0.127392
O20	O	0.922275	1.093458	-0.215353
O21	O	0.629832	1.126215	0.111015
O22	O	1.085746	0.691965	0.328094
O23	O	1.085746	0.691971	-0.014651
O24	O	0.793303	0.724728	0.311718
O25	O	1.085753	0.883555	-0.014623
O26	O	0.922269	0.901865	0.318968
O27	O	0.793310	0.916312	0.311746
O28	O	1.085753	0.883553	0.136518
O29	O	0.793321	1.259030	-0.222552
O30	O	0.922257	0.559156	0.318917
O31	O	1.085741	0.540841	0.328071
O32	O	1.085741	0.540844	0.136467
O33	O	0.629837	1.277342	-0.040103
O34	O	0.793321	1.259027	-0.030948
O35	O	0.905906	0.790916	0.220052
O36	O	1.002146	0.780136	0.112647
O37	O	0.905913	1.016486	-0.005504
O38	O	0.809673	1.027266	0.101902
C39	C	0.857779	0.607605	0.048137
C40	C	0.857775	0.505283	0.048122
C41	C	0.786736	0.548370	-0.039078
C42	C	0.786752	0.452179	-0.039020
C43	C	0.928849	0.269816	0.135447
C44	C	0.928837	0.366005	0.135384
C45	C	0.715675	0.687647	-0.126340
C46	C	0.644629	0.730741	-0.213546
C47	C	0.644645	0.634551	-0.213489
C48	C	0.715706	0.495266	-0.126225
C49	C	0.600521	0.937915	0.033776
C50	C	0.513207	0.947697	0.028886
C51	C	0.362211	0.852637	0.076404
C52	C	0.353374	0.965543	0.019963
C53	C	0.442314	0.955610	0.024929
C54	C	0.273264	0.862568	0.071439
C55	C	1.115057	0.880271	0.062589
C56	C	1.202371	0.870489	0.067478
C57	C	0.857789	0.909098	-0.253337
C58	C	0.857789	0.909100	-0.355670
C59	C	0.857799	1.210581	0.048227
C60	C	0.857803	1.312903	0.048242
C61	C	0.807552	1.032470	-0.465420
C62	C	0.807555	1.032464	-0.561569
C63	C	0.908032	0.785706	-0.438204
C64	C	0.908034	0.785713	-0.342058
C65	C	0.757306	1.155857	-0.479033
C66	C	0.707065	1.279237	-0.588788
C67	C	0.707068	1.279230	-0.684937
C68	C	0.757312	1.155843	-0.671330
C69	C	0.857789	0.909088	0.349702
C70	C	0.857789	0.909086	0.452035
C71	C	1.115047	0.578783	0.062544
C72	C	1.202357	0.466679	0.067418
C73	C	0.857779	0.607600	0.349657
C74	C	0.857776	0.505276	0.451975
C75	C	1.115047	0.578778	0.364063
C76	C	1.202358	0.466672	0.471271
C77	C	0.600531	1.239408	-0.267699
C78	C	0.513220	1.351513	-0.374906
C79	C	0.600531	1.239402	0.033820
C80	C	0.513221	1.351506	0.028946
C81	C	0.857799	1.210586	-0.253293
C82	C	0.857802	1.312910	-0.355610
C83	C	1.193123	0.419663	0.008006
C84	C	1.275153	0.314344	0.012563
C85	C	1.366416	0.256036	0.076539
C86	C	1.375649	0.303062	0.135953
C87	C	1.293620	0.408386	0.131389
C88	C	1.293605	0.408398	0.465552
C89	C	1.375651	0.303076	0.566276
C90	C	1.366447	0.256022	0.672717
C91	C	1.275190	0.314307	0.678433
C92	C	1.193147	0.419634	0.577710
C93	C	0.421973	1.409799	-0.369188
C94	C	0.339927	1.515152	-0.469912
C95	C	0.349131	1.562210	-0.576353
C96	C	0.440388	1.503919	-0.582068
C97	C	0.522431	1.398575	-0.481346
C98	C	0.522455	1.398533	0.088348
C99	C	0.440425	1.503879	0.083765
C100	C	0.349162	1.562190	0.019785
C101	C	0.339929	1.515160	-0.039624
C102	C	0.421958	1.409822	-0.035046
C103	C	0.908012	0.451570	0.561735
C104	C	0.908001	0.355432	0.657869
C105	C	0.807516	0.366711	0.534469
C106	C	0.807522	0.462854	0.438337
C107	C	0.958266	0.493992	0.575372
C108	C	1.008507	0.440285	0.685138
C109	C	1.008497	0.344146	0.781272
C110	C	0.958244	0.301716	0.767640
H111	H	0.715652	0.765981	-0.126394
Br112	Br	0.452862	1.567797	-0.726534
H113	H	0.586779	0.844149	-0.284597
H114	H	1.449949	0.255630	0.561602
H115	H	0.596727	1.351120	-0.486015
H116	H	1.049398	0.300430	0.870642
Br117	Br	0.638893	1.446680	-0.607252
H118	H	0.757320	1.155847	-0.749625
Br119	Br	1.477733	0.113095	0.082721
Br120	Br	0.229435	1.139088	-0.066796
Br121	Br	0.646303	1.319422	0.175183
Br122	Br	0.958288	0.624459	0.444909
H123	H	0.766604	0.332154	0.523381
H124	H	0.715727	0.416947	-0.126202
Br125	Br	0.486147	0.679104	0.163167
H126	H	1.118852	0.467069	0.582382
Br127	Br	0.976241	0.618277	-0.193102
H128	H	0.447961	1.542153	0.132148
Br129	Br	0.548236	0.693033	-0.331845
Br130	Br	1.025280	0.080796	0.253870
H131	H	0.757296	1.155876	-0.400751
Br132	Br	1.477803	0.113075	0.809403
Br133	Br	0.638896	1.446669	-0.833886
H134	H	0.948937	0.685251	-0.427136
H135	H	1.118819	0.467136	-0.044104
H136	H	0.986682	0.330917	0.206391
H137	H	1.267711	0.275980	0.765110
Br138	Br	0.409455	1.345955	-0.224746
H139	H	0.265611	1.562653	-0.091715
H140	H	1.267617	0.276069	-0.035819
H141	H	0.282376	1.647962	0.016067
H142	H	0.414425	1.371537	-0.083416
H143	H	1.449967	0.255572	0.188040
H144	H	1.301153	0.446653	0.179776
H145	H	1.301117	0.446693	0.378892
H146	H	0.265630	1.562595	-0.465236
Br147	Br	0.237775	1.705180	-0.713039
H148	H	1.049414	0.474847	0.696227
Br149	Br	0.958219	0.171256	0.898110
Br150	Br	0.739337	0.535754	0.289369
