data_functionalizedCrystal
_audit_creation_method	'MofGen! by Chris Wilmer'
_symmetry_space_group_name_H-M	'P1'
_symmetry_Int_Tables_number	1
_symmetry_cell_setting	triclinic
loop_
_symmetry_equiv_pos_as_xyz
  x,y,z
_cell_length_a	14.044191
_cell_length_b	15.995350
_cell_length_c	12.503572
_cell_angle_alpha	93.525550
_cell_angle_beta	86.162165
_cell_angle_gamma	88.342076
loop_
_atom_site_label
_atom_site_type_symbol
_atom_site_fract_x
_atom_site_fract_y
_atom_site_fract_z
O1	O	1.263171	0.197459	-0.089258
O2	O	1.763171	0.697459	0.410742
O3	O	0.987202	0.190168	-0.089272
O4	O	1.487202	0.690168	0.410728
O5	O	1.132730	0.072489	-0.089264
O6	O	1.632730	0.572489	0.410736
O7	O	1.117643	0.315137	-0.089267
O8	O	1.617643	0.815137	0.410733
O9	O	1.121785	0.081355	0.089377
O10	O	1.621785	0.581355	0.589377
O11	O	0.976257	0.199034	0.089369
O12	O	1.476257	0.699034	0.589369
O13	O	1.252226	0.206325	0.089383
O14	O	1.752226	0.706325	0.589383
Cu15	Cu	1.113242	0.203489	0.105687
Cu16	Cu	1.613242	0.703489	0.605687
Cu17	Cu	1.126186	0.193004	-0.105577
Cu18	Cu	1.626186	0.693004	0.394423
O19	O	1.106698	0.324003	0.089375
O20	O	1.606698	0.824003	0.589375
C21	C	0.946415	0.191411	0.000046
C22	C	1.446415	0.691411	0.500046
C23	C	0.841190	0.181898	0.000041
C24	C	1.341190	0.681898	0.500041
C25	C	0.590903	0.231977	0.000051
C26	C	1.090903	0.731977	0.500051
C27	C	0.648532	0.164519	0.000050
C28	C	1.148532	0.664519	0.500050
C29	C	0.755736	0.174191	0.000045
C30	C	1.255736	0.674191	0.500045
C31	C	0.483688	0.222306	0.000056
C32	C	0.983688	0.722306	0.500056
C33	C	1.126634	0.045681	0.000055
C34	C	1.626634	0.545681	0.500055
C35	C	1.124765	-0.047410	0.000048
C36	C	1.624765	0.452590	0.500048
C37	C	1.118049	-0.385659	0.000052
C38	C	1.618049	0.114341	0.500052
C39	C	1.014431	-0.345988	-0.000354
C40	C	1.514431	0.154012	0.499646
C41	C	1.016276	-0.249138	0.000049
C42	C	1.516276	0.250862	0.500049
C43	C	1.121380	-0.217849	0.000049
C44	C	1.621380	0.282151	0.500049
C45	C	1.166250	-0.250045	0.102063
C46	C	1.666250	0.249955	0.602063
C47	C	1.163641	-0.346871	0.102148
C48	C	1.663641	0.153129	0.602148
C49	C	1.178229	-0.357151	-0.101000
C50	C	1.678229	0.142849	0.399000
C51	C	1.178287	-0.260275	-0.102348
C52	C	1.678287	0.239725	0.397652
C53	C	1.123268	-0.123011	0.000052
C54	C	1.623268	0.376989	0.500052
C55	C	1.116163	-0.480497	0.000057
C56	C	1.616163	0.019503	0.500057
C57	C	1.293013	0.205081	0.000062
C58	C	1.793013	0.705081	0.500062
C59	C	1.398239	0.214594	0.000060
C60	C	1.898239	0.714594	0.500060
C61	C	1.112794	0.350811	0.000054
C62	C	1.612794	0.850811	0.500054
C63	C	1.114664	0.443902	0.000053
C64	C	1.614664	0.943902	0.500053
N65	N	1.104146	0.210864	0.254279
N66	N	1.604146	0.710864	0.754279
N67	N	1.135290	0.185623	-0.254168
N68	N	1.635290	0.685623	0.245832
C69	C	1.090764	0.221719	0.473394
C70	C	1.590764	0.721719	0.973394
C71	C	1.148668	0.174770	0.526724
C72	C	1.648668	0.674770	1.026724
C73	C	1.141223	0.180810	0.648647
C74	C	1.641223	0.680810	1.148647
C75	C	1.098209	0.215680	0.351460
C76	C	1.598209	0.715680	0.851460
H77	H	0.617361	0.099499	-0.000025
H78	H	1.117361	0.599499	0.499975
C79	C	1.223221	0.114369	0.464712
C80	C	1.723221	0.614369	0.964712
H81	H	1.218528	0.118196	0.389713
H82	H	1.718528	0.618196	0.889713
H83	H	1.211749	0.058618	0.483061
H84	H	1.711749	0.558618	0.983061
H85	H	1.285394	0.129055	0.483090
H86	H	1.785394	0.629055	0.983090
C87	C	1.016225	0.282126	0.535400
C88	C	1.516225	0.782126	1.035400
H89	H	0.980860	0.310782	0.485909
H90	H	1.480860	0.810782	0.985909
H91	H	1.047736	0.321636	0.579284
H92	H	1.547736	0.821636	1.079284
H93	H	0.974073	0.251213	0.579259
H94	H	1.474073	0.751213	1.079259
C95	C	0.633013	0.319801	0.000034
C96	C	1.133013	0.819801	0.500034
H97	H	0.700588	0.314860	0.000020
H98	H	1.200588	0.814860	0.500020
H99	H	0.608415	0.352461	0.062324
H100	H	1.108415	0.852461	0.562324
H101	H	0.616035	0.346258	-0.062276
H102	H	1.116035	0.846258	0.437724
C103	C	1.111997	-0.210213	0.204619
C104	C	1.611997	0.289787	0.704619
H105	H	1.061995	-0.173962	0.185487
H106	H	1.561995	0.326038	0.685487
H107	H	1.154736	-0.179044	0.245897
H108	H	1.654736	0.320956	0.745897
H109	H	1.085766	-0.253069	0.245735
H110	H	1.585766	0.246931	0.745735
C111	C	0.968031	-0.219695	-0.098728
C112	C	1.468031	0.280305	0.401272
H113	H	0.947121	-0.266954	-0.139461
H114	H	1.447121	0.233046	0.360539
H115	H	1.012441	-0.190426	-0.141891
H116	H	1.512441	0.309574	0.358109
H117	H	0.914744	-0.183553	-0.075762
H118	H	1.414744	0.316447	0.424238
H119	H	0.977488	-0.371246	-0.073510
H120	H	1.477488	0.128754	0.426490
H121	H	0.968733	-0.365053	0.072390
H122	H	1.468733	0.134947	0.572390
C123	C	0.955579	-0.210661	0.099007
C124	C	1.455579	0.289339	0.599007
H125	H	0.929703	-0.254229	0.139125
H126	H	1.429703	0.245771	0.639125
H127	H	0.905099	-0.176694	0.076265
H128	H	1.405099	0.323306	0.576265
H129	H	0.994500	-0.177332	0.142702
H130	H	1.494500	0.322668	0.642702
C131	C	1.106962	-0.370249	0.205153
C132	C	1.606962	0.129751	0.705153
H133	H	1.085741	-0.320598	0.246549
H134	H	1.585741	0.179402	0.746549
H135	H	1.146809	-0.403031	0.245942
H136	H	1.646809	0.096969	0.745942
H137	H	1.053350	-0.401527	0.186509
H138	H	1.553350	0.098473	0.686509
H139	H	1.239451	-0.373204	0.106778
H140	H	1.739451	0.126796	0.606778
H141	H	1.145535	-0.239564	-0.177815
H142	H	1.645535	0.260436	0.322185
C143	C	1.270250	-0.222922	0.107199
C144	C	1.770250	0.277078	0.607199
H145	H	1.296000	-0.243049	0.169476
H146	H	1.796000	0.256951	0.669476
H147	H	1.271879	-0.163498	0.110256
H148	H	1.771879	0.336502	0.610256
H149	H	1.307037	-0.245505	0.045033
H150	H	1.807037	0.254495	0.545033
C151	C	1.138850	-0.393495	-0.205454
C152	C	1.638850	0.106505	0.294546
H153	H	1.085332	-0.426397	-0.188409
H154	H	1.585332	0.073603	0.311591
H155	H	1.187023	-0.427530	-0.245286
H156	H	1.687023	0.072470	0.254714
H157	H	1.119876	-0.348971	-0.247096
H158	H	1.619876	0.151029	0.252904
C159	C	1.282341	-0.232207	-0.110670
C160	C	1.782341	0.267793	0.389330
H161	H	1.292487	-0.194082	-0.051536
H162	H	1.792487	0.305918	0.448464
H163	H	1.294358	-0.205494	-0.175779
H164	H	1.794358	0.294506	0.324221
H165	H	1.324376	-0.279736	-0.109803
H166	H	1.824376	0.220264	0.390197
C167	C	1.281511	-0.392397	-0.101937
C168	C	1.781511	0.107603	0.398063
H169	H	1.287967	-0.424334	-0.041080
H170	H	1.787967	0.075666	0.458920
H171	H	1.324198	-0.347424	-0.099699
H172	H	1.824198	0.152576	0.400301
H173	H	1.296076	-0.427196	-0.165604
H174	H	1.796076	0.072804	0.334396
