data_functionalizedCrystal
_audit_creation_method	'MofGen! by Chris Wilmer'
_symmetry_space_group_name_H-M	'P1'
_symmetry_Int_Tables_number	1
_symmetry_cell_setting	triclinic
loop_
_symmetry_equiv_pos_as_xyz
  x,y,z
_cell_length_a	12.759395
_cell_length_b	12.594516
_cell_length_c	12.759387
_cell_angle_alpha	90.029359
_cell_angle_beta	90.019431
_cell_angle_gamma	90.018018
loop_
_atom_site_label
_atom_site_type_symbol
_atom_site_fract_x
_atom_site_fract_y
_atom_site_fract_z
Zn1	Zn	1.606243	-0.423690	0.593985
Zn2	Zn	1.606123	-0.601708	0.418310
Zn3	Zn	1.430542	-0.423743	0.418326
Zn4	Zn	1.430523	-0.601627	0.593953
O5	O	1.518358	-0.512692	0.506143
O6	O	1.753248	-0.447317	0.570689
O7	O	1.582789	-0.578156	0.271291
O8	O	1.453907	-0.274790	0.441647
O9	O	1.753160	-0.578105	0.441621
O10	O	1.582994	-0.274752	0.570704
O11	O	1.453790	-0.447407	0.271302
O12	O	1.283518	-0.447328	0.441616
O13	O	1.453875	-0.577967	0.740978
O14	O	1.283505	-0.578018	0.570648
O15	O	1.582976	-0.447238	0.741002
O16	O	1.582772	-0.750643	0.441589
O17	O	1.453759	-0.750583	0.570633
C18	C	1.245390	-0.512671	0.506131
C19	C	1.128614	-0.512688	0.506150
C20	C	1.128686	-0.376717	0.640765
C21	C	1.073862	-0.308745	0.708081
C22	C	0.964140	-0.308764	0.708095
C23	C	0.909240	-0.376760	0.640782
C24	C	0.964065	-0.444732	0.573466
C25	C	1.073789	-0.444708	0.573462
C26	C	0.963992	-0.580695	0.438847
C27	C	1.073714	-0.580684	0.438837
C28	C	0.909093	-0.648692	0.371534
C29	C	0.963917	-0.716671	0.304222
C30	C	1.073646	-0.716650	0.304212
C31	C	1.128539	-0.648656	0.371521
C32	C	1.518279	-0.789233	0.506129
C33	C	1.518341	-0.907538	0.506158
C34	C	1.448228	-1.047561	0.576309
C35	C	1.544010	-0.976649	0.602080
C36	C	1.422569	-0.976879	0.480434
C37	C	1.614345	-1.047412	0.532017
C38	C	1.492839	-1.047648	0.410327
C39	C	1.588687	-0.976767	0.436061
C40	C	1.792391	-0.512714	0.506157
C41	C	1.909168	-0.512723	0.506163
C42	C	1.518437	-0.512588	0.780177
C43	C	1.518471	-0.512543	0.896954
C44	C	1.518466	-0.235071	0.506181
C45	C	1.518512	-0.116766	0.506197
C46	C	1.518339	-0.512719	0.233176
C47	C	1.518509	-0.512464	0.116400
C48	C	1.652913	-0.376424	0.896999
C49	C	1.720148	-0.308348	0.951882
C50	C	1.720174	-0.308310	1.061604
C51	C	1.652954	-0.376351	1.116445
C52	C	1.585719	-0.444427	1.061561
C53	C	1.585703	-0.444461	0.951837
C54	C	1.451273	-0.580539	1.061517
C55	C	1.451252	-0.580585	0.951795
C56	C	1.384054	-0.648581	1.116357
C57	C	1.316822	-0.716664	1.061474
C58	C	1.316800	-0.716701	0.951746
C59	C	1.384016	-0.648661	0.896912
H60	H	1.217880	-0.648627	0.371515
N61	N	1.464136	-1.089004	0.302991
H62	H	1.516396	-1.062131	0.249807
H63	H	1.391656	-1.063391	0.283698
H64	H	1.384009	-0.648689	0.807570
H65	H	1.652972	-0.376305	1.205786
N66	N	0.904708	-0.789991	0.231617
H67	H	0.826882	-0.779681	0.241833
H68	H	0.923873	-0.866029	0.247831
H69	H	1.218027	-0.376690	0.640757
H70	H	1.774916	-0.252870	1.106289
N71	N	1.667402	-0.935832	0.357504
H72	H	1.648727	-0.962802	0.285312
H73	H	1.739714	-0.961634	0.377175
H74	H	0.919502	-0.253409	0.762903
N75	N	0.790751	-0.648698	0.371544
H76	H	0.764348	-0.668362	0.443582
H77	H	0.764372	-0.702072	0.318642
N78	N	1.384056	-0.648522	1.234699
H79	H	1.436844	-0.595070	1.261148
H80	H	1.403296	-0.721566	1.261050
N81	N	1.315192	-0.935835	0.451579
H82	H	1.262227	-0.961592	0.504605
H83	H	1.295419	-0.962785	0.379676
H84	H	0.819899	-0.376761	0.640790
N85	N	1.132776	-0.789956	0.231598
H86	H	1.081344	-0.833027	0.188961
H87	H	1.178311	-0.839265	0.274268
H88	H	1.388938	-1.078642	0.635663
N89	N	1.572694	-0.935340	0.709445
H90	H	1.519627	-0.961086	0.762375
H91	H	1.573102	-0.855159	0.708366
H92	H	1.695435	-1.078268	0.553885
H93	H	1.652909	-0.376459	0.807657
H94	H	1.774875	-0.252948	0.907218
H95	H	1.262092	-0.772052	1.106134
H96	H	1.262037	-0.772125	0.907066
H97	H	1.118573	-0.253382	0.762884
