data_functionalizedCrystal
_audit_creation_method	'MofGen! by Chris Wilmer'
_symmetry_space_group_name_H-M	'P1'
_symmetry_Int_Tables_number	1
_symmetry_cell_setting	triclinic
loop_
_symmetry_equiv_pos_as_xyz
  x,y,z
_cell_length_a	19.805407
_cell_length_b	18.050589
_cell_length_c	19.805399
_cell_angle_alpha	89.976299
_cell_angle_beta	89.983114
_cell_angle_gamma	90.028221
loop_
_atom_site_label
_atom_site_type_symbol
_atom_site_fract_x
_atom_site_fract_y
_atom_site_fract_z
Zn1	Zn	1.034709	-0.295666	-0.382745
Zn2	Zn	1.284709	-0.045666	-0.132745
Zn3	Zn	1.534709	0.204334	0.117255
Zn4	Zn	1.784709	0.454334	0.367255
Zn5	Zn	1.034626	-0.419862	-0.269567
Zn6	Zn	1.284626	-0.169862	-0.019567
Zn7	Zn	1.534626	0.080138	0.230433
Zn8	Zn	1.784626	0.330138	0.480433
Zn9	Zn	0.921529	-0.295690	-0.269569
Zn10	Zn	1.171529	-0.045690	-0.019569
Zn11	Zn	1.421529	0.204310	0.230431
Zn12	Zn	1.671529	0.454310	0.480431
Zn13	Zn	0.921484	-0.419819	-0.382713
Zn14	Zn	1.171484	-0.169819	-0.132713
Zn15	Zn	1.421484	0.080181	0.117287
Zn16	Zn	1.671484	0.330181	0.367287
O17	O	0.978087	-0.357759	-0.326148
O18	O	1.228087	-0.107759	-0.076148
O19	O	1.478087	0.142241	0.173852
O20	O	1.728087	0.392241	0.423852
O21	O	1.129415	-0.312149	-0.367743
O22	O	1.379415	-0.062149	-0.117743
O23	O	1.629415	0.187851	0.132257
O24	O	1.879415	0.437851	0.382257
O25	O	1.019607	-0.403418	-0.174850
O26	O	1.269607	-0.153418	0.075150
O27	O	1.519607	0.096582	0.325150
O28	O	1.769607	0.346582	0.575150
O29	O	0.936597	-0.191762	-0.284596
O30	O	1.186597	0.058238	-0.034596
O31	O	1.436597	0.308238	0.215404
O32	O	1.686597	0.558238	0.465404
O33	O	1.129353	-0.403395	-0.284592
O34	O	1.379353	-0.153395	-0.034592
O35	O	1.629353	0.096605	0.215408
O36	O	1.879353	0.346605	0.465408
O37	O	1.019750	-0.191745	-0.367746
O38	O	1.269750	0.058255	-0.117746
O39	O	1.519750	0.308255	0.132254
O40	O	1.769750	0.558255	0.382254
O41	O	0.936516	-0.312189	-0.174852
O42	O	1.186516	-0.062189	0.075148
O43	O	1.436516	0.187811	0.325148
O44	O	1.686516	0.437811	0.575148
O45	O	0.826807	-0.312148	-0.284566
O46	O	1.076807	-0.062148	-0.034566
O47	O	1.326807	0.187852	0.215434
O48	O	1.576807	0.437852	0.465434
O49	O	0.936519	-0.403322	-0.477434
O50	O	1.186519	-0.153322	-0.227434
O51	O	1.436519	0.096678	0.022566
O52	O	1.686519	0.346678	0.272566
O53	O	0.826773	-0.403345	-0.367693
O54	O	1.076773	-0.153345	-0.117693
O55	O	1.326773	0.096655	0.132307
O56	O	1.576773	0.346655	0.382307
O57	O	1.019706	-0.312108	-0.477457
O58	O	1.269706	-0.062108	-0.227457
O59	O	1.519706	0.187892	0.022543
O60	O	1.769706	0.437892	0.272543
O61	O	1.019563	-0.523781	-0.284562
O62	O	1.269563	-0.273781	-0.034562
O63	O	1.519563	-0.023781	0.215438
O64	O	1.769563	0.226219	0.465438
O65	O	0.936438	-0.523749	-0.367690
O66	O	1.186438	-0.273749	-0.117690
O67	O	1.436438	-0.023749	0.132310
O68	O	1.686438	0.226251	0.382310
C69	C	0.802231	-0.357745	-0.326127
C70	C	1.052231	-0.107745	-0.076127
C71	C	1.302231	0.142255	0.173873
C72	C	1.552231	0.392255	0.423873
C73	C	0.726999	-0.357757	-0.326133
C74	C	0.976999	-0.107757	-0.076133
C75	C	1.226999	0.142243	0.173867
C76	C	1.476999	0.392243	0.423867
C77	C	0.691655	-0.405315	-0.369347
C78	C	0.941655	-0.155315	-0.119347
C79	C	1.191655	0.094685	0.130653
C80	C	1.441655	0.344685	0.380653
C81	C	0.620967	-0.405316	-0.369357
C82	C	0.870967	-0.155316	-0.119357
C83	C	1.120967	0.094684	0.130643
C84	C	1.370967	0.344684	0.380643
C85	C	0.585623	-0.357763	-0.326148
C86	C	0.835623	-0.107763	-0.076148
C87	C	1.085623	0.142237	0.173852
C88	C	1.335623	0.392237	0.423852
C89	C	0.620972	-0.310200	-0.282933
C90	C	0.870972	-0.060200	-0.032933
C91	C	1.120972	0.189800	0.217067
C92	C	1.370972	0.439800	0.467067
C93	C	0.691659	-0.310195	-0.282927
C94	C	0.941659	-0.060195	-0.032927
C95	C	1.191659	0.189805	0.217073
C96	C	1.441659	0.439805	0.467073
C97	C	0.335899	-0.310216	-0.282955
C98	C	0.585899	-0.060216	-0.032955
C99	C	0.835899	0.189784	0.217045
C100	C	1.085899	0.439784	0.467045
C101	C	0.265207	-0.310226	-0.282962
C102	C	0.515207	-0.060226	-0.032962
C103	C	0.765207	0.189774	0.217038
C104	C	1.015207	0.439774	0.467038
C105	C	0.265206	-0.405337	-0.369385
C106	C	0.515206	-0.155337	-0.119385
C107	C	0.765206	0.094663	0.130615
C108	C	1.015206	0.344663	0.380615
C109	C	0.335893	-0.405332	-0.369379
C110	C	0.585893	-0.155332	-0.119379
C111	C	0.835893	0.094668	0.130621
C112	C	1.085893	0.344668	0.380621
C113	C	0.371236	-0.357767	-0.326166
C114	C	0.621236	-0.107767	-0.076166
C115	C	0.871236	0.142233	0.173834
C116	C	1.121236	0.392233	0.423834
C117	C	0.447884	-0.357765	-0.326157
C118	C	0.697884	-0.107765	-0.076157
C119	C	0.947884	0.142235	0.173843
C120	C	1.197884	0.392235	0.423843
C121	C	0.508976	-0.357768	-0.326153
C122	C	0.758976	-0.107768	-0.076153
C123	C	1.008976	0.142232	0.173847
C124	C	1.258976	0.392232	0.423847
C125	C	0.978005	-0.550711	-0.326137
C126	C	1.228005	-0.300711	-0.076137
C127	C	1.478005	-0.050711	0.173863
C128	C	1.728005	0.199289	0.423863
C129	C	0.978032	-0.633257	-0.326155
C130	C	1.228032	-0.383257	-0.076155
C131	C	1.478032	-0.133257	0.173845
C132	C	1.728032	0.116743	0.423845
C133	C	0.932873	-0.832718	-0.371344
C134	C	1.182873	-0.582718	-0.121344
C135	C	1.432873	-0.332718	0.128656
C136	C	1.682873	-0.082718	0.378656
C137	C	0.916378	-0.882158	-0.309581
C138	C	1.166378	-0.632158	-0.059581
C139	C	1.416378	-0.382158	0.190419
C140	C	1.666378	-0.132158	0.440419
C141	C	0.978099	-0.784387	-0.326164
C142	C	1.228099	-0.534387	-0.076164
C143	C	1.478099	-0.284387	0.173836
C144	C	1.728099	-0.034387	0.423836
C145	C	0.994627	-0.882029	-0.387934
C146	C	1.244627	-0.632029	-0.137934
C147	C	1.494627	-0.382029	0.112066
C148	C	1.744627	-0.132029	0.362066
C149	C	0.978162	-0.930373	-0.326178
C150	C	1.228162	-0.680373	-0.076178
C151	C	1.478162	-0.430373	0.173822
C152	C	1.728162	-0.180373	0.423822
C153	C	0.961571	-0.832741	-0.264368
C154	C	1.211571	-0.582741	-0.014368
C155	C	1.461571	-0.332741	0.235632
C156	C	1.711571	-0.082741	0.485632
C157	C	1.039849	-0.832607	-0.342762
C158	C	1.289849	-0.582607	-0.092762
C159	C	1.539849	-0.332607	0.157238
C160	C	1.789849	-0.082607	0.407238
C161	C	1.023377	-0.882025	-0.280957
C162	C	1.273377	-0.632025	-0.030957
C163	C	1.523377	-0.382025	0.219043
C164	C	1.773377	-0.132025	0.469043
C165	C	0.978061	-0.700289	-0.326157
C166	C	1.228061	-0.450289	-0.076157
C167	C	1.478061	-0.200289	0.173843
C168	C	1.728061	0.049711	0.423843
C169	C	0.978200	-1.014469	-0.326178
C170	C	1.228200	-0.764469	-0.076178
C171	C	1.478200	-0.514469	0.173822
C172	C	1.728200	-0.264469	0.423822
C173	C	1.154630	-0.357774	-0.326171
C174	C	1.404630	-0.107774	-0.076171
C175	C	1.654630	0.142226	0.173829
C176	C	1.904630	0.392226	0.423829
C177	C	1.229862	-0.357780	-0.326180
C178	C	1.479862	-0.107780	-0.076180
C179	C	1.729862	0.142220	0.173820
C180	C	1.979862	0.392220	0.423820
C181	C	0.978117	-0.357708	-0.502691
C182	C	1.228117	-0.107708	-0.252691
C183	C	1.478117	0.142292	-0.002691
C184	C	1.728117	0.392292	0.247309
C185	C	0.978129	-0.357686	-0.577923
C186	C	1.228129	-0.107686	-0.327923
C187	C	1.478129	0.142314	-0.077923
C188	C	1.728129	0.392314	0.172077
C189	C	0.978187	-0.164054	-0.326175
C190	C	1.228187	0.085946	-0.076175
C191	C	1.478187	0.335946	0.173825
C192	C	1.728187	0.585946	0.423825
C193	C	0.978230	-0.081508	-0.326186
C194	C	1.228230	0.168492	-0.076186
C195	C	1.478230	0.418492	0.173814
C196	C	1.728230	0.668492	0.423814
C197	C	0.934876	-0.310179	-0.613268
C198	C	1.184876	-0.060179	-0.363268
C199	C	1.434876	0.189821	-0.113268
C200	C	1.684876	0.439821	0.136732
C201	C	0.934885	-0.310164	-0.683956
C202	C	1.184885	-0.060164	-0.433956
C203	C	1.434885	0.189836	-0.183956
C204	C	1.684885	0.439836	0.066044
C205	C	0.978152	-0.357654	-0.719299
C206	C	1.228152	-0.107654	-0.469299
C207	C	1.478152	0.142346	-0.219299
C208	C	1.728152	0.392346	0.030701
C209	C	1.021407	-0.405166	-0.683949
C210	C	1.271407	-0.155166	-0.433949
C211	C	1.521407	0.094834	-0.183949
C212	C	1.771407	0.344834	0.066051
C213	C	1.021394	-0.405184	-0.613262
C214	C	1.271394	-0.155184	-0.363262
C215	C	1.521394	0.094816	-0.113262
C216	C	1.771394	0.344816	0.136738
C217	C	1.021461	-0.405096	-0.969023
C218	C	1.271461	-0.155096	-0.719023
C219	C	1.521461	0.094904	-0.469023
C220	C	1.771461	0.344904	-0.219023
C221	C	1.021472	-0.405074	-1.039715
C222	C	1.271472	-0.155074	-0.789715
C223	C	1.521472	0.094926	-0.539715
C224	C	1.771472	0.344926	-0.289715
C225	C	0.934952	-0.310077	-1.039717
C226	C	1.184952	-0.060077	-0.789717
C227	C	1.434952	0.189923	-0.539717
C228	C	1.684952	0.439923	-0.289717
C229	C	0.934939	-0.310095	-0.969030
C230	C	1.184939	-0.060095	-0.719030
C231	C	1.434939	0.189905	-0.469030
C232	C	1.684939	0.439905	-0.219030
C233	C	0.978191	-0.357609	-0.933686
C234	C	1.228191	-0.107609	-0.683686
C235	C	1.478191	0.142391	-0.433686
C236	C	1.728191	0.392391	-0.183686
C237	C	0.978180	-0.357626	-0.857038
C238	C	1.228180	-0.107626	-0.607038
C239	C	1.478180	0.142374	-0.357038
C240	C	1.728180	0.392374	-0.107038
C241	C	0.978167	-0.357634	-0.795946
C242	C	1.228167	-0.107634	-0.545946
C243	C	1.478167	0.142366	-0.295946
C244	C	1.728167	0.392366	-0.045946
C245	C	0.978096	-0.357757	-0.150292
C246	C	1.228096	-0.107757	0.099708
C247	C	1.478096	0.142243	0.349708
C248	C	1.728096	0.392243	0.599708
C249	C	0.978215	-0.357570	-0.075061
C250	C	1.228215	-0.107570	0.174939
C251	C	1.478215	0.142430	0.424939
C252	C	1.728215	0.392430	0.674939
H253	H	0.236432	-0.271497	-0.247777
H254	H	0.486432	-0.021497	0.002223
H255	H	0.736432	0.228503	0.252223
H256	H	0.986432	0.478503	0.502223
H257	H	0.894571	-0.811067	-0.409498
H258	H	1.144571	-0.561067	-0.159498
H259	H	1.394571	-0.311067	0.090502
H260	H	1.644571	-0.061067	0.340502
H261	H	0.864187	-0.903940	-0.295555
H262	H	1.114187	-0.653940	-0.045555
H263	H	1.364187	-0.403940	0.204445
H264	H	1.614187	-0.153940	0.454445
H265	H	0.947556	-0.811180	-0.212121
H266	H	1.197556	-0.561180	0.037879
H267	H	1.447556	-0.311180	0.287879
H268	H	1.697556	-0.061180	0.537879
H269	H	1.061650	-0.903539	-0.242711
H270	H	1.311650	-0.653539	0.007289
H271	H	1.561650	-0.403539	0.257289
H272	H	1.811650	-0.153539	0.507289
O273	O	0.729780	-0.258898	-0.236316
O274	O	0.979780	-0.008898	0.013684
O275	O	1.229780	0.241102	0.263684
O276	O	1.479780	0.491102	0.513684
H277	H	0.784871	-0.266878	-0.243576
H278	H	1.034871	-0.016878	0.006424
H279	H	1.284871	0.233122	0.256424
H280	H	1.534871	0.483122	0.506424
O281	O	1.013119	-0.910705	-0.457121
O282	O	1.263119	-0.660705	-0.207121
O283	O	1.513119	-0.410705	0.042879
O284	O	1.763119	-0.160705	0.292879
H285	H	0.975470	-0.890957	-0.494516
H286	H	1.225470	-0.640957	-0.244516
H287	H	1.475470	-0.390957	0.005484
H288	H	1.725470	-0.140957	0.255484
H289	H	1.092028	-0.810827	-0.356819
H290	H	1.342028	-0.560827	-0.106819
H291	H	1.592028	-0.310827	0.143181
H292	H	1.842028	-0.060827	0.393181
H293	H	0.899647	-0.271503	-0.584497
H294	H	1.149647	-0.021503	-0.334497
H295	H	1.399647	0.228497	-0.084497
H296	H	1.649647	0.478497	0.165503
O297	O	0.888279	-0.258866	-0.930912
O298	O	1.138279	-0.008866	-0.680912
O299	O	1.388279	0.241134	-0.430912
O300	O	1.638279	0.491134	-0.180912
H301	H	0.835151	-0.271594	-0.944464
H302	H	1.085151	-0.021594	-0.694464
H303	H	1.335151	0.228406	-0.444464
H304	H	1.585151	0.478406	-0.194464
H305	H	0.899661	-0.271482	-0.712731
H306	H	1.149661	-0.021482	-0.462731
H307	H	1.399661	0.228518	-0.212731
H308	H	1.649661	0.478518	0.037269
O309	O	0.582849	-0.456613	-0.415968
O310	O	0.832849	-0.206613	-0.165968
O311	O	1.082849	0.043387	0.084032
O312	O	1.332849	0.293387	0.334032
H313	H	0.527758	-0.448622	-0.408721
H314	H	0.777758	-0.198622	-0.158721
H315	H	1.027758	0.051378	0.091279
H316	H	1.277758	0.301378	0.341279
O317	O	0.888303	-0.258820	-1.077836
O318	O	1.138303	-0.008820	-0.827836
O319	O	1.388303	0.241180	-0.577836
O320	O	1.638303	0.491180	-0.327836
H321	H	0.895576	-0.266784	-1.132927
H322	H	1.145576	-0.016784	-0.882927
H323	H	1.395576	0.233216	-0.632927
H324	H	1.645576	0.483216	-0.382927
O325	O	1.068114	-0.456341	-0.930911
O326	O	1.318114	-0.206341	-0.680911
O327	O	1.568114	0.043659	-0.430911
O328	O	1.818114	0.293659	-0.180911
H329	H	1.060834	-0.448387	-0.875820
H330	H	1.310834	-0.198387	-0.625820
H331	H	1.560834	0.051613	-0.375820
H332	H	1.810834	0.301613	-0.125820
H333	H	1.056707	-0.443748	-1.068489
H334	H	1.306707	-0.193748	-0.818489
H335	H	1.556707	0.056252	-0.568489
H336	H	1.806707	0.306252	-0.318489
O337	O	1.068077	-0.456388	-0.722064
O338	O	1.318077	-0.206388	-0.472064
O339	O	1.568077	0.043612	-0.222064
O340	O	1.818077	0.293612	0.027936
H341	H	1.060826	-0.448389	-0.777155
H342	H	1.310826	-0.198389	-0.527155
H343	H	1.560826	0.051611	-0.277155
H344	H	1.810826	0.301611	-0.027155
H345	H	1.056621	-0.443863	-0.584486
H346	H	1.306621	-0.193863	-0.334486
H347	H	1.556621	0.056137	-0.084486
H348	H	1.806621	0.306137	0.165514
H349	H	0.720427	-0.444041	-0.404530
H350	H	0.970427	-0.194041	-0.154530
H351	H	1.220427	0.055959	0.095470
H352	H	1.470427	0.305959	0.345470
O353	O	0.374015	-0.258939	-0.236328
O354	O	0.624015	-0.008939	0.013672
O355	O	0.874015	0.241061	0.263672
O356	O	1.124015	0.491061	0.513672
H357	H	0.337561	-0.225888	-0.206273
H358	H	0.587561	0.024112	0.043727
H359	H	0.837561	0.274112	0.293727
H360	H	1.087561	0.524112	0.543727
O361	O	0.582845	-0.258928	-0.236317
O362	O	0.832845	-0.008928	0.013683
O363	O	1.082845	0.241072	0.263683
O364	O	1.332845	0.491072	0.513683
H365	H	0.550652	-0.221194	-0.266662
H366	H	0.800652	0.028806	-0.016662
H367	H	1.050652	0.278806	0.233338
H368	H	1.300652	0.528806	0.483338
O369	O	0.374016	-0.456614	-0.415988
O370	O	0.624016	-0.206614	-0.165988
O371	O	0.874016	0.043386	0.084012
O372	O	1.124016	0.293386	0.334012
H373	H	0.360422	-0.514888	-0.404301
H374	H	0.610422	-0.264888	-0.154301
H375	H	0.860422	-0.014888	0.095699
H376	H	1.110422	0.235112	0.345699
O377	O	0.227088	-0.456634	-0.416004
O378	O	0.477088	-0.206634	-0.166004
O379	O	0.727088	0.043366	0.083996
O380	O	0.977088	0.293366	0.333996
H381	H	0.171997	-0.448645	-0.408759
H382	H	0.421997	-0.198645	-0.158759
H383	H	0.671997	0.051355	0.091241
H384	H	0.921997	0.301355	0.341241
