data_functionalizedCrystal
_audit_creation_method	'MofGen! by Chris Wilmer'
_symmetry_space_group_name_H-M	'P1'
_symmetry_Int_Tables_number	1
_symmetry_cell_setting	triclinic
loop_
_symmetry_equiv_pos_as_xyz
  x,y,z
_cell_length_a	10.540539
_cell_length_b	10.540510
_cell_length_c	9.616153
_cell_angle_alpha	89.995953
_cell_angle_beta	89.999862
_cell_angle_gamma	84.519401
loop_
_atom_site_label
_atom_site_type_symbol
_atom_site_fract_x
_atom_site_fract_y
_atom_site_fract_z
O1	O	1.685864	0.178906	-0.115572
O2	O	1.316449	0.195763	-0.115588
O3	O	1.509604	0.002626	-0.115579
O4	O	1.492709	0.372043	-0.115581
O5	O	1.509596	0.002612	0.115712
O6	O	1.316441	0.195749	0.115703
O7	O	1.685856	0.178893	0.115720
Zn8	Zn	1.501147	0.187319	0.152434
Zn9	Zn	1.501157	0.187337	-0.152302
O10	O	1.492701	0.372030	0.115711
C11	C	1.269142	0.194492	0.000055
C12	C	1.128194	0.190710	0.000049
C13	C	1.508341	-0.044685	0.000064
C14	C	1.504574	-0.185635	0.000055
C15	C	0.944783	0.045791	0.000589
C16	C	1.091401	0.049624	0.000054
C17	C	1.066519	0.258614	-0.132025
C18	C	0.919975	0.253799	-0.132121
C19	C	0.919477	0.256653	0.130900
C20	C	1.066459	0.257953	0.132632
C21	C	1.638758	-0.403090	0.000591
C22	C	1.642776	-0.256495	0.000063
C23	C	1.433832	-0.230386	-0.132024
C24	C	1.430793	-0.377147	-0.132127
C25	C	1.427906	-0.376971	0.130894
C26	C	1.434461	-0.230629	0.132633
C27	C	1.733163	0.180164	0.000073
C28	C	1.874110	0.183946	0.000070
C29	C	1.493964	0.419340	0.000065
C30	C	1.497731	0.560290	0.000064
N31	N	1.501150	0.187306	0.360408
N32	N	1.501165	0.187340	-0.360277
C33	C	1.604861	0.084347	0.580740
C34	C	1.604581	0.083954	0.419573
C35	C	1.368448	0.157175	0.418933
C36	C	1.369065	0.156453	0.580151
C37	C	1.528978	0.320756	0.580284
C38	C	1.531973	0.319884	0.419055
H39	H	1.134017	-0.003804	0.094730
Br40	Br	1.769769	0.114098	0.645334
H41	H	1.692597	-0.445051	0.095312
H42	H	1.703186	0.102074	0.380002
H43	H	1.327426	-0.400141	-0.138116
H44	H	1.471822	-0.419158	0.231010
H45	H	1.289373	0.230138	0.380612
Br46	Br	1.575464	-0.079702	0.648280
Br47	Br	1.328507	-0.005779	0.642856
Br48	Br	1.236490	0.276617	0.645195
Br49	Br	1.694683	0.357961	0.355290
Br50	Br	1.574737	-0.081030	0.355300
Br51	Br	1.137510	0.180017	-0.295858
Br52	Br	1.326937	-0.003231	0.351664
Br53	Br	1.266285	-0.148854	0.145924
H54	H	1.133155	-0.004170	-0.094786
H55	H	0.914585	-0.009705	-0.093600
H56	H	1.461429	0.400205	0.378779
H57	H	0.891773	0.203623	-0.230847
Br58	Br	1.134556	0.175128	0.295486
Br59	Br	1.511389	-0.444174	-0.296672
Br60	Br	1.103793	0.431291	-0.140255
Br61	Br	1.264256	-0.151400	-0.140232
Br62	Br	0.897139	-0.047120	0.158462
Br63	Br	1.686932	0.368529	0.648023
H64	H	1.482967	-0.199523	-0.230312
Br65	Br	1.402967	0.448526	0.643864
H66	H	1.698455	-0.228084	-0.094775
H67	H	0.871995	0.355265	-0.138116
H68	H	0.887933	0.210989	0.231012
Br69	Br	1.727996	-0.475591	-0.156379
H70	H	1.090674	0.360813	0.140606
Br71	Br	1.520243	-0.182942	0.295498
H72	H	1.324143	-0.399121	0.131779
H73	H	1.698127	-0.227156	0.094740
Br74	Br	0.840750	0.426501	0.132387
