data_functionalizedCrystal
_audit_creation_method	'MofGen! by Chris Wilmer'
_symmetry_space_group_name_H-M	'P1'
_symmetry_Int_Tables_number	1
_symmetry_cell_setting	triclinic
loop_
_symmetry_equiv_pos_as_xyz
  x,y,z
_cell_length_a	17.077404
_cell_length_b	19.121063
_cell_length_c	17.077396
_cell_angle_alpha	92.408800
_cell_angle_beta	89.980499
_cell_angle_gamma	92.469213
loop_
_atom_site_label
_atom_site_type_symbol
_atom_site_fract_x
_atom_site_fract_y
_atom_site_fract_z
Zn1	Zn	1.186697	-0.279610	-0.457152
Zn2	Zn	1.180993	-0.397067	-0.331476
Zn3	Zn	1.055428	-0.279634	-0.325901
Zn4	Zn	1.049788	-0.397025	-0.462698
O5	O	1.118227	-0.338334	-0.394307
O6	O	1.295787	-0.295198	-0.440493
O7	O	1.164310	-0.381517	-0.220891
O8	O	1.077589	-0.181347	-0.338657
O9	O	1.291597	-0.381493	-0.348160
O10	O	1.174032	-0.181328	-0.435086
O11	O	1.072058	-0.295240	-0.216795
O12	O	0.944833	-0.295199	-0.344035
O13	O	1.067976	-0.381422	-0.571808
O14	O	0.940690	-0.381446	-0.444539
O15	O	1.168563	-0.295157	-0.567733
O16	O	1.158841	-0.495346	-0.353538
O17	O	1.062445	-0.495315	-0.449946
C18	C	0.914279	-0.338321	-0.394284
C19	C	0.827029	-0.338333	-0.394294
C20	C	0.783899	-0.383309	-0.446550
C21	C	0.701918	-0.383311	-0.446562
C22	C	0.663069	-0.338339	-0.394315
C23	C	0.706206	-0.293358	-0.342057
C24	C	0.788185	-0.293353	-0.342049
C25	C	0.535335	-0.293371	-0.342077
C26	C	0.453350	-0.293377	-0.342084
C27	C	0.449068	-0.383329	-0.446590
C28	C	0.531047	-0.383324	-0.446582
C29	C	0.574178	-0.338344	-0.394323
C30	C	1.109434	-0.520815	-0.402966
C31	C	1.105744	-0.598881	-0.406696
C32	C	1.154237	-0.635549	-0.358296
C33	C	1.150772	-0.708900	-0.361809
C34	C	1.098808	-0.745582	-0.413719
C35	C	1.050312	-0.708908	-0.462125
C36	C	1.053782	-0.635558	-0.458615
C37	C	1.085821	-0.967052	-0.426830
C38	C	1.082353	-1.040407	-0.430334
C39	C	1.182814	-1.040393	-0.330019
C40	C	1.186276	-0.967042	-0.326511
C41	C	1.137783	-0.930375	-0.374919
C42	C	1.095262	-0.820559	-0.417310
C43	C	1.141333	-0.855399	-0.371332
C44	C	1.322970	-0.338347	-0.394329
C45	C	1.410220	-0.338353	-0.394339
C46	C	1.118277	-0.338282	-0.599049
C47	C	1.118298	-0.338260	-0.686297
C48	C	1.127075	-0.155141	-0.385631
C49	C	1.130846	-0.077075	-0.381934
C50	C	1.170675	-0.293338	-0.725167
C51	C	1.170686	-0.293315	-0.807146
C52	C	1.118322	-0.338217	-0.850255
C53	C	1.065939	-0.383141	-0.811380
C54	C	1.065925	-0.383160	-0.729402
C55	C	1.065973	-0.383099	-0.982248
C56	C	1.065987	-0.383081	-1.064232
C57	C	1.170733	-0.293254	-1.059992
C58	C	1.170720	-0.293273	-0.978014
C59	C	1.118337	-0.338198	-0.939145
C60	C	1.118224	-0.338335	-0.190359
C61	C	1.118365	-0.338159	-0.103101
H62	H	0.413947	-0.419952	-0.489143
C63	C	1.228273	-0.243942	-0.677754
H64	H	1.259462	-0.217180	-0.712648
H65	H	1.261174	-0.270813	-0.647050
H66	H	1.199709	-0.213343	-0.644324
H67	H	1.213339	-0.256737	-0.838790
C68	C	1.228318	-0.243882	-0.930596
H69	H	1.259513	-0.217119	-0.965485
H70	H	1.261215	-0.270759	-0.899893
H71	H	1.199756	-0.213284	-0.897164
H72	H	0.666805	-0.419935	-0.489113
C73	C	0.993151	-0.749256	-0.519223
H74	H	0.998023	-0.798193	-0.514376
H75	H	1.005176	-0.737195	-0.571399
H76	H	0.940981	-0.737279	-0.507106
H77	H	1.014295	-0.605704	-0.498029
C78	C	1.008339	-0.432534	-0.858793
H79	H	0.977138	-0.459286	-0.823900
H80	H	1.036893	-0.463131	-0.892227
H81	H	0.975437	-0.405653	-0.889494
C82	C	0.826625	-0.432778	-0.504023
H83	H	0.789194	-0.459559	-0.535151
H84	H	0.857121	-0.463345	-0.475390
H85	H	0.859910	-0.405942	-0.537001
H86	H	1.183645	-0.825531	-0.329069
C87	C	0.582777	-0.243891	-0.284596
H88	H	0.547901	-0.217112	-0.253476
H89	H	0.616242	-0.213322	-0.313227
H90	H	0.613450	-0.270720	-0.251611
H91	H	1.023267	-0.419733	-0.697755
H92	H	1.052952	-0.850433	-0.459574
H93	H	1.190260	-0.738752	-0.322396
C94	C	0.835629	-0.243878	-0.284570
H95	H	0.800752	-0.217098	-0.253450
H96	H	0.869092	-0.213310	-0.313203
H97	H	0.866303	-0.270705	-0.251584
H98	H	1.023306	-0.419670	-0.950603
C99	C	1.025190	-1.080759	-0.487435
H100	H	1.030063	-1.129695	-0.482582
H101	H	1.037215	-1.068702	-0.539612
H102	H	0.973019	-1.068782	-0.475320
C103	C	1.032467	-0.926727	-0.480063
H104	H	1.001015	-0.959081	-0.511471
H105	H	1.063820	-0.898066	-0.512927
H106	H	0.999633	-0.898162	-0.448626
H107	H	0.562675	-0.419948	-0.489122
H108	H	1.213384	-0.256673	-1.091644
C109	C	1.008385	-0.432468	-1.111650
H110	H	0.977178	-0.459219	-1.076761
H111	H	1.036937	-0.463066	-1.145084
H112	H	0.975489	-0.405582	-1.142351
H113	H	0.421722	-0.256748	-0.299549
H114	H	0.674569	-0.256738	-0.299520
C115	C	1.211399	-0.595205	-0.301196
H116	H	1.239789	-0.627552	-0.272880
H117	H	1.182747	-0.566634	-0.265597
H118	H	1.246943	-0.566549	-0.329890
C119	C	1.243441	-0.926697	-0.269415
H120	H	1.271832	-0.959041	-0.241096
H121	H	1.214787	-0.898125	-0.233818
H122	H	1.278984	-0.898041	-0.298110
H123	H	1.222295	-1.070255	-0.290609
