data_functionalizedCrystal
_audit_creation_method	'MofGen! by Chris Wilmer'
_symmetry_space_group_name_H-M	'P1'
_symmetry_Int_Tables_number	1
_symmetry_cell_setting	triclinic
loop_
_symmetry_equiv_pos_as_xyz
  x,y,z
_cell_length_a	12.827893
_cell_length_b	13.897448
_cell_length_c	12.827885
_cell_angle_alpha	90.032276
_cell_angle_beta	90.019272
_cell_angle_gamma	90.017663
loop_
_atom_site_label
_atom_site_type_symbol
_atom_site_fract_x
_atom_site_fract_y
_atom_site_fract_z
Zn1	Zn	1.597653	-0.383969	0.590831
Zn2	Zn	2.097653	0.116031	1.090831
Zn3	Zn	1.597540	-0.545295	0.416083
Zn4	Zn	2.097540	-0.045295	0.916083
Zn5	Zn	1.422894	-0.384016	0.416104
Zn6	Zn	1.922894	0.115984	0.916104
Zn7	Zn	1.422873	-0.545224	0.590783
Zn8	Zn	1.922873	-0.045224	1.090783
O9	O	1.510240	-0.464626	0.503450
O10	O	2.010240	0.035374	1.003450
O11	O	1.743874	-0.405380	0.567661
O12	O	2.243874	0.094620	1.067661
O13	O	1.574335	-0.523951	0.269850
O14	O	2.074335	-0.023951	0.769850
O15	O	1.446133	-0.249028	0.439311
O16	O	1.946133	0.250972	0.939311
O17	O	1.743791	-0.523905	0.439275
O18	O	2.243791	-0.023905	0.939275
O19	O	1.574527	-0.248994	0.567681
O20	O	2.074527	0.251006	1.067681
O21	O	1.446023	-0.405460	0.269865
O22	O	1.946023	0.094540	0.769865
O23	O	1.276655	-0.405390	0.439265
O24	O	1.776655	0.094610	0.939265
O25	O	1.446096	-0.523783	0.737026
O26	O	1.946096	-0.023783	1.237026
O27	O	1.276639	-0.523829	0.567601
O28	O	1.776639	-0.023829	1.067601
O29	O	1.574506	-0.405310	0.737060
O30	O	2.074506	0.094690	1.237060
O31	O	1.574314	-0.680267	0.439229
O32	O	2.074314	-0.180267	0.939229
O33	O	1.445986	-0.680215	0.567580
O34	O	1.945986	-0.180215	1.067580
C35	C	1.238730	-0.464607	0.503430
C36	C	1.738730	0.035393	1.003430
C37	C	1.122577	-0.464623	0.503447
C38	C	1.622577	0.035377	1.003447
C39	C	1.070812	-0.523321	0.566853
C40	C	1.570812	-0.023321	1.066853
C41	C	0.950762	-0.523338	0.566872
C42	C	1.450762	-0.023338	1.066872
C43	C	1.510164	-0.715240	0.503420
C44	C	2.010164	-0.215240	1.003420
C45	C	1.510227	-0.822454	0.503442
C46	C	2.010227	-0.322454	1.003442
C47	C	1.510336	-1.018749	0.503508
C48	C	2.010336	-0.518749	1.003508
C49	C	1.510272	-0.909517	0.503474
C50	C	2.010272	-0.409517	1.003474
C51	C	1.782810	-0.464645	0.503471
C52	C	2.282810	0.035355	1.003471
C53	C	1.898963	-0.464654	0.503480
C54	C	2.398963	0.035346	1.003480
C55	C	1.510311	-0.464533	0.776021
C56	C	2.010311	0.035467	1.276021
C57	C	1.510341	-0.464494	0.892174
C58	C	2.010341	0.035506	1.392174
C59	C	1.510345	-0.213033	0.503504
C60	C	2.010345	0.286967	1.003504
C61	C	1.510390	-0.105819	0.503526
C62	C	2.010390	0.394181	1.003526
C63	C	1.510229	-0.464649	0.231940
C64	C	2.010229	0.035351	0.731940
C65	C	1.510401	-0.464416	0.115788
C66	C	2.010401	0.035584	0.615788
C67	C	1.573890	-0.405858	0.943976
C68	C	2.073890	0.094142	1.443976
C69	C	1.573923	-0.405816	1.064026
C70	C	2.073923	0.094184	1.564026
H71	H	1.628268	-0.355686	0.899449
H72	H	2.128268	0.144314	1.399449
O73	O	1.069590	-0.404591	0.438664
O74	O	1.569590	0.095409	0.938664
C75	C	1.080825	-0.282104	0.306258
C76	C	1.580825	0.217896	0.806258
C77	C	1.140957	-0.350027	0.379591
C78	C	1.640957	0.149973	0.879591
H79	H	1.138499	-0.237986	0.258463
H80	H	1.638499	0.262014	0.758463
H81	H	1.029785	-0.231704	0.354335
H82	H	1.529785	0.268296	0.854335
H83	H	1.029660	-0.326397	0.251633
H84	H	1.529660	0.173603	0.751633
H85	H	1.192179	-0.305812	0.434231
H86	H	1.692179	0.194188	0.934231
H87	H	1.191931	-0.400430	0.331450
H88	H	1.691931	0.099570	0.831450
H89	H	0.943473	-0.414400	0.449188
H90	H	1.443473	0.085600	0.949188
O91	O	1.638731	-0.345952	1.117324
O92	O	2.138731	0.154048	1.617324
C93	C	1.697928	-0.291395	1.285576
C94	C	2.197928	0.208605	1.785576
C95	C	1.624461	-0.359227	1.225344
C96	C	2.124461	0.140773	1.725344
H97	H	1.686431	-0.302118	1.372921
H98	H	2.186431	0.197882	1.872921
H99	H	1.679616	-0.213584	1.264270
H100	H	2.179616	0.286416	1.764270
H101	H	1.782188	-0.308314	1.264117
H102	H	2.282188	0.191686	1.764117
H103	H	1.540176	-0.342394	1.246771
H104	H	2.040176	0.157606	1.746771
H105	H	1.642863	-0.437017	1.246656
H106	H	2.142863	0.062983	1.746656
H107	H	1.455996	-0.514623	1.071246
H108	H	1.955996	-0.014623	1.571246
H109	H	1.455953	-0.514656	0.936701
H110	H	1.955953	-0.014656	1.436701
H111	H	1.115371	-0.573559	0.621128
H112	H	1.615371	-0.073559	1.121128
H113	H	0.906245	-0.573595	0.621154
H114	H	1.406245	-0.073595	1.121154
