data_functionalizedCrystal
_audit_creation_method	'MofGen! by Chris Wilmer'
_symmetry_space_group_name_H-M	'P1'
_symmetry_Int_Tables_number	1
_symmetry_cell_setting	triclinic
loop_
_symmetry_equiv_pos_as_xyz
  x,y,z
_cell_length_a	16.959455
_cell_length_b	16.959454
_cell_length_c	18.215399
_cell_angle_alpha	89.973895
_cell_angle_beta	89.982045
_cell_angle_gamma	90.019023
loop_
_atom_site_label
_atom_site_type_symbol
_atom_site_fract_x
_atom_site_fract_y
_atom_site_fract_z
Zn1	Zn	1.208393	-0.314693	-0.416160
Zn2	Zn	1.708393	0.185307	0.083840
Zn3	Zn	1.208313	-0.446884	-0.293103
Zn4	Zn	1.708313	0.053116	0.206897
Zn5	Zn	1.076219	-0.314721	-0.293105
Zn6	Zn	1.576219	0.185279	0.206895
Zn7	Zn	1.076187	-0.446831	-0.416125
Zn8	Zn	1.576187	0.053169	0.083875
O9	O	1.142278	-0.380782	-0.354623
O10	O	1.642278	0.119218	0.145377
O11	O	1.318994	-0.332239	-0.399850
O12	O	1.818994	0.167761	0.100150
O13	O	1.190770	-0.429386	-0.190119
O14	O	1.690770	0.070614	0.309881
O15	O	1.093799	-0.204106	-0.309444
O16	O	1.593799	0.295894	0.190556
O17	O	1.318935	-0.429359	-0.309440
O18	O	1.818935	0.070641	0.190560
O19	O	1.190907	-0.204086	-0.399852
O20	O	1.690907	0.295914	0.100148
O21	O	1.093722	-0.332287	-0.190120
O22	O	1.593722	0.167713	0.309880
O23	O	0.965604	-0.332235	-0.309410
O24	O	1.465604	0.167765	0.190590
O25	O	1.093744	-0.429269	-0.519114
O26	O	1.593744	0.070731	-0.019114
O27	O	0.965580	-0.429296	-0.399793
O28	O	1.465580	0.070704	0.100207
O29	O	1.190876	-0.332188	-0.519140
O30	O	1.690876	0.167812	-0.019140
O31	O	1.190739	-0.557488	-0.309406
O32	O	1.690739	-0.057488	0.190594
O33	O	1.093666	-0.557449	-0.399791
O34	O	1.593666	-0.057449	0.100209
C35	C	0.936912	-0.380763	-0.354598
C36	C	1.436912	0.119237	0.145402
C37	C	0.849055	-0.380774	-0.354605
C38	C	1.349055	0.119226	0.145395
C39	C	1.142212	-0.586149	-0.354611
C40	C	1.642212	-0.086149	0.145389
C41	C	1.142256	-0.674005	-0.354630
C42	C	1.642256	-0.174005	0.145370
C43	C	0.807770	-0.330167	-0.307622
C44	C	1.307770	0.169833	0.192378
C45	C	0.807787	-0.431387	-0.401599
C46	C	1.307787	0.068613	0.098401
C47	C	0.725241	-0.431396	-0.401609
C48	C	1.225241	0.068604	0.098391
C49	C	0.683956	-0.380789	-0.354627
C50	C	1.183956	0.119211	0.145373
C51	C	0.725217	-0.330173	-0.307633
C52	C	1.225217	0.169827	0.192367
C53	C	0.683974	-0.482006	-0.448607
C54	C	1.183974	0.017994	0.051393
C55	C	0.601423	-0.482017	-0.448620
C56	C	1.101423	0.017983	0.051380
C57	C	0.560136	-0.431413	-0.401634
C58	C	1.060136	0.068587	0.098366
C59	C	0.601402	-0.380795	-0.354638
C60	C	1.101402	0.119205	0.145362
C61	C	0.560117	-0.330188	-0.307655
C62	C	1.060117	0.169812	0.192345
C63	C	0.601382	-0.279574	-0.260655
C64	C	1.101382	0.220426	0.239345
C65	C	0.683930	-0.279569	-0.260646
C66	C	1.183930	0.220431	0.239354
C67	C	0.477588	-0.431417	-0.401642
C68	C	0.977588	0.068583	0.098358
C69	C	0.477564	-0.330194	-0.307666
C70	C	0.977564	0.169806	0.192334
C71	C	1.091806	-1.045490	-0.401681
C72	C	1.591806	-0.545490	0.098319
C73	C	1.192971	-1.045471	-0.307640
C74	C	1.692971	-0.545471	0.192360
C75	C	1.192943	-0.962925	-0.307633
C76	C	1.692943	-0.462925	0.192367
C77	C	1.142345	-0.921658	-0.354650
C78	C	1.642345	-0.421658	0.145350
C79	C	1.091775	-0.962937	-0.401674
C80	C	1.591775	-0.462937	0.098326
C81	C	1.243507	-0.921640	-0.260605
C82	C	1.743507	-0.421640	0.239395
C83	C	1.243481	-0.839089	-0.260596
C84	C	1.743481	-0.339089	0.239404
C85	C	1.192886	-0.797821	-0.307617
C86	C	1.692886	-0.297821	0.192383
C87	C	1.142314	-0.839105	-0.354643
C88	C	1.642314	-0.339105	0.145357
C89	C	1.091716	-0.797837	-0.401661
C90	C	1.591716	-0.297837	0.098339
C91	C	1.041148	-0.839120	-0.448691
C92	C	1.541148	-0.339120	0.051309
C93	C	1.041180	-0.921668	-0.448695
C94	C	1.541180	-0.421668	0.051305
C95	C	1.192854	-0.715272	-0.307613
C96	C	1.692854	-0.215272	0.192387
C97	C	1.091685	-0.715284	-0.401654
C98	C	1.591685	-0.215284	0.098346
C99	C	1.348446	-0.380802	-0.354649
C100	C	1.848446	0.119198	0.145351
C101	C	1.436303	-0.380810	-0.354659
C102	C	1.936303	0.119190	0.145341
C103	C	1.142315	-0.380719	-0.546576
C104	C	1.642315	0.119281	-0.046576
C105	C	1.142331	-0.380692	-0.628375
C106	C	1.642331	0.119308	-0.128375
C107	C	1.142366	-0.174614	-0.354652
C108	C	1.642366	0.325386	0.145348
C109	C	1.142404	-0.086757	-0.354664
C110	C	1.642404	0.413243	0.145336
C111	C	1.091841	-0.330098	-0.816571
C112	C	1.591841	0.169902	-0.316571
C113	C	1.091854	-0.330082	-0.893430
C114	C	1.591854	0.169918	-0.393430
C115	C	1.192916	-0.431192	-0.893417
C116	C	1.692916	0.068808	-0.393417
C117	C	1.192898	-0.431211	-0.816560
C118	C	1.692898	0.068789	-0.316560
C119	C	1.142361	-0.380660	-0.778139
C120	C	1.642361	0.119340	-0.278139
C121	C	1.142393	-0.380625	-0.931855
C122	C	1.642393	0.119375	-0.431855
C123	C	1.142409	-0.380608	-1.015188
C124	C	1.642409	0.119392	-0.515188
C125	C	1.142345	-0.380678	-0.694800
C126	C	1.642345	0.119322	-0.194800
C127	C	1.142286	-0.380788	-0.163417
C128	C	1.642286	0.119212	0.336583
C129	C	1.142424	-0.380592	-0.081618
C130	C	1.642424	0.119408	0.418382
H131	H	0.443955	-0.288984	-0.269405
H132	H	0.943955	0.211016	0.230595
H133	H	1.050690	-0.288936	-0.785290
H134	H	1.550690	0.211064	-0.285290
H135	H	1.234022	-0.681664	-0.269318
H136	H	1.734022	-0.181664	0.230682
H137	H	1.234040	-0.472388	-0.785268
H138	H	1.734040	0.027612	-0.285268
Cl139	Cl	1.028241	-1.097385	-0.460805
Cl140	Cl	1.528241	-0.597385	0.039195
H141	H	0.717594	-0.523205	-0.486860
H142	H	1.217594	-0.023205	0.013140
H143	H	1.050714	-0.288911	-0.924718
H144	H	1.550714	0.211089	-0.424718
Cl145	Cl	1.256447	-0.494736	-0.941723
Cl146	Cl	1.756447	0.005264	-0.441723
H147	H	0.841406	-0.472586	-0.439853
H148	H	1.341406	0.027414	0.060147
Cl149	Cl	0.977538	-0.787232	-0.507792
Cl150	Cl	1.477538	-0.287232	-0.007792
H151	H	0.717535	-0.238361	-0.222382
H152	H	1.217535	0.261639	0.277618
Cl153	Cl	0.859642	-0.266543	-0.248538
Cl154	Cl	1.359642	0.233457	0.251462
Cl155	Cl	0.549555	-0.545648	-0.507702
Cl156	Cl	1.049555	-0.045648	-0.007702
Cl157	Cl	0.549471	-0.215950	-0.201599
Cl158	Cl	1.049471	0.284050	0.298401
H159	H	0.443994	-0.472622	-0.439913
H160	H	0.943994	0.027378	0.060087
H161	H	1.050485	-0.681689	-0.439944
H162	H	1.550485	-0.181689	0.060056
Cl163	Cl	1.307116	-0.973522	-0.201507
Cl164	Cl	1.807116	-0.473522	0.298493
Cl165	Cl	0.977613	-0.973570	-0.507812
Cl166	Cl	1.477613	-0.473570	-0.007812
Cl167	Cl	1.307058	-0.787199	-0.201480
Cl168	Cl	1.807058	-0.287199	0.298520
Cl169	Cl	1.256576	-1.097350	-0.248537
Cl170	Cl	1.756576	-0.597350	0.251463
