data_functionalizedCrystal
_audit_creation_method	'MofGen! by Chris Wilmer'
_symmetry_space_group_name_H-M	'P1'
_symmetry_Int_Tables_number	1
_symmetry_cell_setting	triclinic
loop_
_symmetry_equiv_pos_as_xyz
  x,y,z
_cell_length_a	19.805407
_cell_length_b	16.120484
_cell_length_c	19.805399
_cell_angle_alpha	92.871043
_cell_angle_beta	89.975799
_cell_angle_gamma	92.925090
loop_
_atom_site_label
_atom_site_type_symbol
_atom_site_fract_x
_atom_site_fract_y
_atom_site_fract_z
Zn1	Zn	1.021075	-0.331944	-0.396460
Zn2	Zn	1.015252	-0.471362	-0.289008
Zn3	Zn	0.907888	-0.331965	-0.283276
Zn4	Zn	0.902117	-0.471316	-0.402144
O5	O	0.961583	-0.401647	-0.342722
O6	O	1.115018	-0.350449	-0.382226
O7	O	1.000988	-0.452899	-0.193532
O8	O	0.927755	-0.215296	-0.293513
O9	O	1.110740	-0.452879	-0.303282
O10	O	1.010912	-0.215281	-0.376669
O11	O	0.922109	-0.350485	-0.189321
O12	O	0.812407	-0.350440	-0.299024
O13	O	0.917918	-0.452800	-0.496105
O14	O	0.808166	-0.452820	-0.386356
O15	O	1.005316	-0.350404	-0.491930
O16	O	0.995392	-0.588022	-0.308793
O17	O	0.912272	-0.587988	-0.391913
C18	C	0.785728	-0.401628	-0.342685
C19	C	0.710495	-0.401640	-0.342686
C20	C	0.246510	-0.455057	-0.388175
C21	C	0.317198	-0.455055	-0.388161
C22	C	0.354732	-0.401667	-0.342749
C23	C	0.321574	-0.348283	-0.297345
C24	C	0.250887	-0.348289	-0.297357
C25	C	0.606649	-0.348257	-0.297296
C26	C	0.677341	-0.348253	-0.297290
C27	C	0.672960	-0.455024	-0.388100
C28	C	0.602272	-0.455030	-0.388112
C29	C	0.569120	-0.401649	-0.342705
C30	C	0.492472	-0.401652	-0.342721
C31	C	0.431380	-0.401659	-0.342737
C32	C	0.952592	-0.618255	-0.351606
C33	C	0.948808	-0.710921	-0.355430
C34	C	0.941903	-0.880583	-0.362424
C35	C	0.981384	-0.921870	-0.323031
C36	C	0.977542	-1.016276	-0.326923
C37	C	0.945744	-0.786169	-0.358533
C38	C	1.138125	-0.401666	-0.342759
C39	C	1.213356	-0.401675	-0.342775
C40	C	0.961623	-0.401594	-0.519263
C41	C	0.961640	-0.401572	-0.594494
C42	C	0.970627	-0.184193	-0.333818
C43	C	0.974481	-0.091526	-0.330023
C44	C	1.007149	-0.348252	-0.627665
C45	C	1.007157	-0.348227	-0.698352
C46	C	0.961659	-0.401528	-0.735868
C47	C	0.916145	-0.454851	-0.702692
C48	C	0.916134	-0.454870	-0.632006
C49	C	0.916186	-0.454773	-0.987762
C50	C	0.916202	-0.454752	-1.058453
C51	C	1.007209	-0.348130	-1.054109
C52	C	1.007199	-0.348150	-0.983422
C53	C	0.961683	-0.401469	-0.950253
C54	C	0.961674	-0.401493	-0.873605
C55	C	0.961670	-0.401509	-0.812514
C56	C	0.961584	-0.401639	-0.166866
C57	C	0.961708	-0.401427	-0.091625
H58	H	0.707900	-0.304775	-0.260309
O59	O	1.029982	-0.874780	-0.274485
H60	H	1.017739	-0.891498	-0.222028
H61	H	0.879097	-0.498247	-0.733243
O62	O	0.893296	-0.927668	-0.410956
H63	H	0.897862	-0.995503	-0.406423
O64	O	1.056223	-0.290762	-0.587202
H65	H	1.087865	-0.253676	-0.622146
O66	O	0.570895	-0.290677	-0.248331
H67	H	0.608873	-0.253546	-0.216760
O68	O	1.056301	-0.290609	-1.089879
H69	H	1.047414	-0.225183	-1.073616
O70	O	0.561793	-0.512613	-0.437094
H71	H	0.507070	-0.503643	-0.429479
O72	O	0.708724	-0.512596	-0.437075
H73	H	0.692437	-0.578014	-0.428078
O74	O	1.056245	-0.290723	-0.734132
H75	H	1.087888	-0.253672	-0.696170
O76	O	0.362053	-0.290695	-0.248365
H77	H	0.416777	-0.299651	-0.255988
O78	O	0.215118	-0.290729	-0.248382
H79	H	0.184675	-0.248368	-0.276991
H80	H	1.044250	-0.304749	-0.952881
H81	H	0.879148	-0.498157	-1.088997
H82	H	0.215954	-0.498527	-0.425158
O83	O	0.867041	-0.512368	-0.596222
H84	H	0.835405	-0.549430	-0.634183
O85	O	0.867064	-0.512236	-0.951988
H86	H	0.835422	-0.549284	-0.989952
H87	H	0.344188	-0.498526	-0.425128
