data_functionalizedCrystal
_audit_creation_method	'MofGen! by Chris Wilmer'
_symmetry_space_group_name_H-M	'P1'
_symmetry_Int_Tables_number	1
_symmetry_cell_setting	triclinic
loop_
_symmetry_equiv_pos_as_xyz
  x,y,z
_cell_length_a	17.052832
_cell_length_b	17.052679
_cell_length_c	23.196401
_cell_angle_alpha	53.485499
_cell_angle_beta	102.328588
_cell_angle_gamma	62.967042
loop_
_atom_site_label
_atom_site_type_symbol
_atom_site_fract_x
_atom_site_fract_y
_atom_site_fract_z
Zr1	Zr	0.527792	1.123993	-0.169162
O2	O	0.352805	1.338226	-0.322249
O3	O	0.613877	0.909762	-0.093848
O4	O	0.567052	1.123995	-0.255058
O5	O	0.399663	1.123991	-0.066163
O6	O	0.699148	1.123993	-0.234344
O7	O	0.399631	1.123994	-0.161040
O8	O	0.782911	0.740770	0.054031
O9	O	0.315900	1.507214	-0.354537
O10	O	0.709978	0.997876	-0.080562
O11	O	0.611419	0.997875	-0.025215
O12	O	0.556288	1.250107	-0.215019
O13	O	0.457730	1.250106	-0.159672
Zr14	Zr	0.738522	1.123986	0.015192
Zr15	Zr	0.738471	1.123990	-0.136126
Zr16	Zr	0.527843	1.123989	-0.017844
Zr17	Zr	0.468933	1.393509	-0.220658
Zr18	Zr	0.797381	0.854469	0.066687
O19	O	0.652436	1.338216	-0.060122
O20	O	0.652363	1.338222	-0.275276
O21	O	0.352878	1.338221	-0.107095
O22	O	0.913509	0.909752	0.168279
O23	O	0.913436	0.909758	-0.046875
O24	O	0.613950	0.909756	0.121306
O25	O	0.866651	1.123987	-0.087807
O26	O	0.699262	1.123984	0.101087
O27	O	0.567165	1.123985	0.080374
O28	O	0.866683	1.123985	0.007069
O29	O	0.483362	1.507212	-0.328278
O30	O	0.782952	0.740766	0.174308
O31	O	0.950414	0.740764	0.200567
O32	O	0.950373	0.740767	0.080290
O33	O	0.315941	1.507211	-0.234260
O34	O	0.483403	1.507209	-0.208001
O35	O	0.710026	0.997872	0.061049
O36	O	0.808584	0.997872	0.005702
O37	O	0.654894	1.250103	-0.128755
O38	O	0.556336	1.250103	-0.073408
C39	C	0.706780	0.786865	-0.012572
C40	C	0.731768	0.672449	0.009290
C41	C	0.429678	0.722388	-0.254999
C42	C	0.406199	0.829884	-0.275530
C43	C	0.487589	0.790531	-0.204327
C44	C	0.592463	0.643671	-0.112589
C45	C	0.615941	0.536164	-0.092053
C46	C	0.673851	0.604308	-0.041381
C47	C	0.778725	0.457447	0.050357
C48	C	0.802199	0.349954	0.070889
C49	C	0.720808	0.389306	-0.000314
C50	C	0.650373	0.711814	-0.061918
C51	C	0.836635	0.525590	0.101028
C52	C	0.860115	0.418095	0.121560
C53	C	0.369630	1.123993	-0.118308
C54	C	0.280191	1.123994	-0.132333
C55	C	0.028160	1.123978	0.037225
C56	C	0.112198	1.123968	0.050408
C57	C	0.154200	1.123975	0.004724
C58	C	0.112157	1.123991	-0.054145
C59	C	0.028118	1.123990	-0.067324
C60	C	0.154157	1.123987	-0.099825
C61	C	0.112114	1.124003	-0.158694
C62	C	0.028083	1.124003	-0.171870
C63	C	-0.013919	1.123996	-0.126186
C64	C	0.238196	1.123988	-0.086647
C65	C	0.238154	1.124000	-0.191195
C66	C	0.154116	1.124010	-0.204378
C67	C	0.896684	1.123986	-0.035662
C68	C	0.986123	1.123984	-0.021637
C69	C	0.633093	1.123994	-0.266260
C70	C	0.633071	1.123996	-0.330499
C71	C	0.559533	1.461113	-0.141398
C72	C	0.534546	1.575530	-0.163260
C73	C	0.552852	1.255654	-0.430855
C74	C	0.552877	1.255656	-0.491207
C75	C	0.633108	1.123992	-0.451199
C76	C	0.713342	0.992317	-0.350825
C77	C	0.713323	0.992319	-0.290475
C78	C	0.647828	1.023121	-0.500389
C79	C	0.647838	1.023124	-0.560741
C80	C	0.633173	1.123981	-0.637334
C81	C	0.618472	1.224859	-0.653582
C82	C	0.618453	1.224861	-0.593232
C83	C	0.633138	1.123976	-0.516630
C84	C	0.552976	1.255651	-0.803136
C85	C	0.553009	1.255647	-0.863485
C86	C	0.713469	0.992304	-0.723101
C87	C	0.713442	0.992312	-0.662754
C88	C	0.633189	1.123989	-0.702777
C89	C	0.633221	1.123984	0.112290
C90	C	0.633243	1.123982	0.176528
C91	C	0.970308	0.786862	0.028751
C92	C	1.084734	0.672444	0.064637
C93	C	0.706845	0.786860	0.176703
C94	C	0.731854	0.672442	0.262803
C95	C	0.970372	0.786857	0.218027
C96	C	1.084820	0.672437	0.318151
C97	C	0.295942	1.461122	-0.371997
C98	C	0.181494	1.575541	-0.472121
C99	C	0.296006	1.461116	-0.182722
C100	C	0.181580	1.575534	-0.218608
C101	C	0.559469	1.461118	-0.330674
C102	C	0.534460	1.575537	-0.416773
C103	C	1.086998	0.618714	0.036454
C104	C	1.194502	0.511221	0.070155
C105	C	1.299742	0.457453	0.132044
C106	C	1.297474	0.511193	0.160225
C107	C	1.189969	0.618692	0.126519
C108	C	0.795069	0.618708	0.348272
C109	C	0.818561	0.511215	0.429174
C110	C	0.778843	0.457450	0.424607
C111	C	0.715618	0.511194	0.339129
C112	C	0.692121	0.618693	0.258226
C113	C	1.190021	0.618705	0.336281
C114	C	1.297562	0.511210	0.430351
C115	C	1.299900	0.457443	0.506291
C116	C	1.194687	0.511186	0.488156
C117	C	1.087147	0.618685	0.394086
C118	C	0.076290	1.629287	-0.490254
C119	C	-0.031258	1.736815	-0.584330
C120	C	-0.033597	1.790588	-0.660271
C121	C	0.071617	1.736838	-0.642135
C122	C	0.179161	1.629319	-0.548061
C123	C	0.179313	1.629276	-0.190433
C124	C	0.071803	1.736798	-0.224156
C125	C	-0.033438	1.790570	-0.286047
C126	C	-0.031169	1.736824	-0.314225
C127	C	0.076339	1.629311	-0.280508
C128	C	0.574196	1.629267	-0.412176
C129	C	0.550720	1.736761	-0.493065
C130	C	0.487500	1.790530	-0.578551
C131	C	0.447766	1.736789	-0.583145
C132	C	0.471249	1.629289	-0.502255
H133	H	0.363417	0.754410	-0.312959
Cl134	Cl	-0.163481	1.804433	-0.392028
Cl135	Cl	0.934029	0.165330	0.186224
Cl136	Cl	0.653677	1.561693	-0.304717
H137	H	0.583079	1.780506	-0.489308
Cl138	Cl	0.938958	0.476107	0.190547
Cl139	Cl	0.750322	0.254168	0.025493
H140	H	1.196609	0.467392	0.549999
H141	H	0.468386	1.878063	-0.644410
Cl142	Cl	0.368277	1.804413	-0.690626
H143	H	0.778760	0.885101	-0.581036
Cl144	Cl	-0.024758	1.123999	-0.245863
H145	H	0.827417	0.662471	0.352006
Cl146	Cl	0.068979	1.804336	-0.188716
Cl147	Cl	1.187110	0.686285	0.240828
H148	H	1.383220	0.467463	0.445101
H149	H	-0.120970	1.878115	-0.313495
H150	H	-0.121174	1.878136	-0.736867
Cl151	Cl	0.421272	1.561769	-0.508055
Cl152	Cl	0.599976	1.351670	-0.613656
H153	H	0.870045	0.467469	0.498766
Cl154	Cl	0.518537	0.896424	-0.177243
H155	H	1.387474	0.369909	0.582884
Cl156	Cl	0.814208	0.826797	-0.300527
Cl157	Cl	0.665698	0.443585	0.333405
Cl158	Cl	0.808396	0.322304	0.526324
H159	H	0.264820	1.585561	-0.533306
H160	H	-0.116915	1.780560	-0.599079
H161	H	0.078175	1.585511	-0.428429
Cl162	Cl	0.954902	0.686213	0.371311
Cl163	Cl	0.612653	0.686222	0.150787
H164	H	0.069698	1.780634	-0.703977
H165	H	0.272421	1.123974	-0.038715
Cl166	Cl	0.311600	1.561706	-0.112632
Cl167	Cl	0.954710	0.686292	-0.041353
Cl168	Cl	1.187146	0.686215	0.161967
Cl169	Cl	0.079170	1.561754	-0.315930
H170	H	1.387271	0.369919	0.159483
H171	H	0.468465	0.878064	-0.221049
H172	H	1.196327	0.467478	0.047200
H173	H	0.320816	0.949452	-0.350228
H174	H	0.272354	1.124002	-0.228393
H175	H	0.222627	1.123967	0.015460
Cl176	Cl	0.991950	0.233465	0.236885
Cl177	Cl	-0.024632	1.123951	0.094660
Cl178	Cl	0.165051	1.123946	0.124410
Cl179	Cl	1.429788	0.443577	0.238034
Cl180	Cl	-0.119577	1.124018	-0.142764
H181	H	0.119874	1.124023	-0.252310
H182	H	0.487550	1.362871	-0.572932
Cl183	Cl	0.451943	1.421191	-0.481177
Cl184	Cl	0.452114	1.421183	-0.853442
Cl185	Cl	0.452158	1.421176	-0.989656
Cl186	Cl	0.814345	0.826782	-0.672796
Cl187	Cl	0.600035	1.351660	-0.749868
H188	H	0.659802	0.940989	-0.547508
H189	H	0.659762	0.940991	-0.438027
H190	H	0.778649	0.885104	-0.208755
