data_functionalizedCrystal
_audit_creation_method	'MofGen! by Chris Wilmer'
_symmetry_space_group_name_H-M	'P1'
_symmetry_Int_Tables_number	1
_symmetry_cell_setting	triclinic
loop_
_symmetry_equiv_pos_as_xyz
  x,y,z
_cell_length_a	18.050588
_cell_length_b	18.215407
_cell_length_c	18.215399
_cell_angle_alpha	89.982632
_cell_angle_beta	89.973451
_cell_angle_gamma	90.027004
loop_
_atom_site_label
_atom_site_type_symbol
_atom_site_fract_x
_atom_site_fract_y
_atom_site_fract_z
Zn1	Zn	-0.295718	1.125048	-0.416075
Zn2	Zn	0.204282	1.625048	0.083925
Zn3	Zn	-0.419913	1.124946	-0.293011
Zn4	Zn	0.080087	1.624946	0.206989
Zn5	Zn	-0.295736	1.001981	-0.293027
Zn6	Zn	0.204264	1.501981	0.206973
Zn7	Zn	-0.419865	1.001936	-0.416042
Zn8	Zn	0.080135	1.501936	0.083958
O9	O	-0.357808	1.063478	-0.354539
O10	O	0.142192	1.563478	0.145461
O11	O	-0.312205	1.228019	-0.399757
O12	O	0.187795	1.728019	0.100243
O13	O	-0.403468	1.108611	-0.190029
O14	O	0.096532	1.608611	0.309971
O15	O	-0.191809	1.018367	-0.309370
O16	O	0.308191	1.518367	0.190630
O17	O	-0.403451	1.227944	-0.309343
O18	O	0.096549	1.727944	0.190657
O19	O	-0.191796	1.108784	-0.399773
O20	O	0.308204	1.608784	0.100227
O21	O	-0.312235	1.018268	-0.190041
O22	O	0.187765	1.518268	0.309959
O23	O	-0.312189	0.898990	-0.309338
O24	O	0.187811	1.398990	0.190662
O25	O	-0.403369	1.018291	-0.519030
O26	O	0.096631	1.518291	-0.019030
O27	O	-0.403386	0.898958	-0.399716
O28	O	0.096614	1.398958	0.100284
O29	O	-0.312159	1.108741	-0.519055
O30	O	0.187841	1.608741	-0.019055
O31	O	-0.523831	1.108568	-0.309311
O32	O	-0.023831	1.608568	0.190689
O33	O	-0.523796	1.018193	-0.399701
O34	O	-0.023796	1.518193	0.100299
C35	C	-0.357785	0.872272	-0.354526
C36	C	0.142215	1.372272	0.145474
C37	C	-0.357793	0.790473	-0.354538
C38	C	0.142207	1.290473	0.145462
C39	C	-0.310379	0.602317	-0.401691
C40	C	0.189621	1.102317	0.098309
C41	C	-0.310386	0.525458	-0.401693
C42	C	0.189614	1.025458	0.098307
C43	C	-0.405257	0.525391	-0.307400
C44	C	0.094743	1.025391	0.192600
C45	C	-0.405246	0.602248	-0.307394
C46	C	0.094754	1.102248	0.192606
C47	C	-0.357809	0.640709	-0.354544
C48	C	0.142191	1.140709	0.145456
C49	C	-0.357826	0.486993	-0.354552
C50	C	0.142174	0.986993	0.145448
C51	C	-0.357833	0.403659	-0.354554
C52	C	0.142167	0.903659	0.145446
C53	C	-0.357800	0.724048	-0.354541
C54	C	0.142200	1.224048	0.145459
C55	C	-0.550760	1.063385	-0.354517
C56	C	-0.050760	1.563385	0.145483
C57	C	-0.633306	1.063412	-0.354532
C58	C	-0.133306	1.563412	0.145468
C59	C	-0.882139	1.014343	-0.403686
C60	C	-0.382139	1.514343	0.096314
C61	C	-0.832672	1.081449	-0.421743
C62	C	-0.332672	1.581449	0.078257
C63	C	-0.930426	1.063565	-0.354573
C64	C	-0.430426	1.563565	0.145427
C65	C	-0.832812	0.996388	-0.336531
C66	C	-0.332812	1.496388	0.163469
C67	C	-0.784441	1.063486	-0.354554
C68	C	-0.284441	1.563486	0.145446
C69	C	-0.882046	1.130706	-0.372664
C70	C	-0.382046	1.630706	0.127336
C71	C	-0.882190	1.045600	-0.287421
C72	C	-0.382190	1.545600	0.212579
C73	C	-0.832745	1.112751	-0.305452
C74	C	-0.332745	1.612751	0.194548
C75	C	-1.014524	1.063609	-0.354585
C76	C	-0.514524	1.563609	0.145415
C77	C	-0.700344	1.063449	-0.354542
C78	C	-0.200344	1.563449	0.145458
C79	C	-0.164102	1.063592	-0.354577
C80	C	0.335898	1.563592	0.145423
C81	C	-0.081556	1.063640	-0.354593
C82	C	0.418444	1.563640	0.145407
C83	C	-0.357757	1.063523	-0.546492
C84	C	0.142243	1.563523	-0.046492
C85	C	-0.357735	1.063542	-0.628291
C86	C	0.142265	1.563542	-0.128291
C87	C	-0.357831	1.255431	-0.354552
C88	C	0.142169	1.755431	0.145448
C89	C	-0.357841	1.337230	-0.354558
C90	C	0.142159	1.837230	0.145442
C91	C	-0.310197	1.110656	-0.816498
C92	C	0.189803	1.610656	-0.316498
C93	C	-0.310175	1.110665	-0.893357
C94	C	0.189825	1.610665	-0.393357
C95	C	-0.405158	1.016480	-0.893321
C96	C	0.094842	1.516480	-0.393321
C97	C	-0.405175	1.016468	-0.816463
C98	C	0.094825	1.516468	-0.316463
C99	C	-0.357696	1.063560	-0.778054
C100	C	0.142304	1.563560	-0.278054
C101	C	-0.357657	1.063581	-0.931770
C102	C	0.142343	1.563581	-0.431770
C103	C	-0.357634	1.063590	-1.015104
C104	C	0.142366	1.563590	-0.515104
C105	C	-0.357718	1.063550	-0.694715
C106	C	0.142282	1.563550	-0.194715
C107	C	-0.357805	1.063476	-0.163332
C108	C	0.142195	1.563476	0.336668
C109	C	-0.357618	1.063599	-0.081534
C110	C	0.142382	1.563599	0.418466
H111	H	-0.271763	0.494202	-0.440084
H112	H	0.228237	0.994202	0.059916
H113	H	-0.443853	0.978112	-0.785161
H114	H	0.056147	1.478112	-0.285161
O115	O	-0.264227	0.639564	-0.447510
O116	O	0.235773	1.139564	0.052490
C117	C	-0.170160	0.631515	-0.541068
C118	C	0.329840	1.131515	-0.041068
C119	C	-0.222379	0.589244	-0.489202
C120	C	0.277621	1.089244	0.010798
H121	H	-0.136323	0.590849	-0.574800
H122	H	0.363677	1.090849	-0.074800
H123	H	-0.131231	0.667479	-0.507380
H124	H	0.368769	1.167479	-0.007380
H125	H	-0.204312	0.667519	-0.579457
H126	H	0.295688	1.167519	-0.079457
H127	H	-0.188287	0.553200	-0.450802
H128	H	0.311713	1.053200	0.049198
H129	H	-0.261311	0.553326	-0.522935
H130	H	0.238689	1.053326	-0.022935
H131	H	-0.271496	1.149013	-0.924655
H132	H	0.228504	1.649013	-0.424655
O133	O	-0.451256	0.970810	-0.930747
O134	O	0.048744	1.470810	-0.430747
C135	C	-0.493294	0.929055	-1.049133
C136	C	0.006706	1.429055	-0.549133
C137	C	-0.441060	0.980826	-1.006842
C138	C	0.058940	1.480826	-0.506842
H139	H	-0.485058	0.937124	-1.110664
H140	H	0.014942	1.437124	-0.610664
H141	H	-0.553199	0.941944	-1.034063
H142	H	-0.053199	1.441944	-0.534063
H143	H	-0.480258	0.869727	-1.033972
H144	H	0.019742	1.369727	-0.533972
H145	H	-0.454029	1.040171	-1.021981
H146	H	0.045971	1.540171	-0.521981
H147	H	-0.381172	0.967874	-1.021916
H148	H	0.118828	1.467874	-0.521916
O149	O	-0.908129	1.027357	-0.219724
O150	O	-0.408129	1.527357	0.280276
C151	C	-0.912484	0.935956	-0.124156
C152	C	-0.412484	1.435956	0.375844
C153	C	-0.883071	0.956527	-0.200835
C154	C	-0.383071	1.456527	0.299165
H155	H	-0.892223	0.878695	-0.108853
H156	H	-0.392223	1.378695	0.391147
H157	H	-0.975635	0.936647	-0.124673
H158	H	-0.475635	1.436647	0.375327
H159	H	-0.891325	0.977330	-0.082150
H160	H	-0.391325	1.477330	0.417850
H161	H	-0.904175	0.915173	-0.242884
H162	H	-0.404175	1.415173	0.257116
H163	H	-0.819920	0.955859	-0.200257
H164	H	-0.319920	1.455859	0.299743
H165	H	-0.443880	0.494067	-0.269013
H166	H	0.056120	0.994067	0.230987
O167	O	-0.807063	1.162523	-0.255977
O168	O	-0.307063	1.662523	0.244023
C169	C	-0.803182	1.289494	-0.219085
C170	C	-0.303182	1.789494	0.280915
C171	C	-0.832304	1.233207	-0.275172
C172	C	-0.332304	1.733207	0.224828
H173	H	-0.823590	1.346653	-0.234576
H174	H	-0.323590	1.846653	0.265424
H175	H	-0.740028	1.288822	-0.219099
H176	H	-0.240028	1.788822	0.280901
H177	H	-0.824410	1.274663	-0.162020
H178	H	-0.324410	1.774663	0.337980
H179	H	-0.811130	1.247999	-0.332264
H180	H	-0.311130	1.747999	0.167736
H181	H	-0.895457	1.233890	-0.275094
H182	H	-0.395457	1.733890	0.224906
H183	H	-0.811181	0.939610	-0.321279
H184	H	-0.311181	1.439610	0.178721
H185	H	-0.903825	0.972803	-0.445259
H186	H	-0.403825	1.472803	0.054741
O187	O	-0.451393	0.639434	-0.261570
O188	O	0.048607	1.139434	0.238430
C189	C	-0.545462	0.631264	-0.168012
C190	C	-0.045462	1.131264	0.331988
C191	C	-0.493257	0.589060	-0.219881
C192	C	0.006743	1.089060	0.280119
H193	H	-0.579311	0.590555	-0.134282
H194	H	-0.079311	1.090555	0.365718
H195	H	-0.584380	0.667227	-0.201696
H196	H	-0.084380	1.167227	0.298304
H197	H	-0.511297	0.667262	-0.129620
H198	H	-0.011297	1.167262	0.370380
H199	H	-0.527362	0.553021	-0.258284
H200	H	-0.027362	1.053021	0.241716
H201	H	-0.454337	0.553142	-0.186152
H202	H	0.045663	1.053142	0.313848
O203	O	-0.806753	1.099421	-0.489524
O204	O	-0.306753	1.599421	0.010476
C205	C	-0.802550	1.067941	-0.617936
C206	C	-0.302550	1.567941	-0.117936
C207	C	-0.831935	1.047500	-0.541212
C208	C	-0.331935	1.547500	-0.041212
H209	H	-0.822910	1.025983	-0.659749
H210	H	-0.322910	1.525983	-0.159749
H211	H	-0.739397	1.068223	-0.617182
H212	H	-0.239397	1.568223	-0.117182
H213	H	-0.823631	1.124789	-0.633683
H214	H	-0.323631	1.624789	-0.133683
H215	H	-0.810908	0.990649	-0.525417
H216	H	-0.310908	1.490649	-0.025417
H217	H	-0.895086	1.047268	-0.542007
H218	H	-0.395086	1.547268	-0.042007
H219	H	-0.903584	1.187500	-0.387982
H220	H	-0.403584	1.687500	0.112018
H221	H	-0.271534	1.148999	-0.785228
H222	H	0.228466	1.648999	-0.285228
