data_functionalizedCrystal
_audit_creation_method	'MofGen! by Chris Wilmer'
_symmetry_space_group_name_H-M	'P1'
_symmetry_Int_Tables_number	1
_symmetry_cell_setting	triclinic
loop_
_symmetry_equiv_pos_as_xyz
  x,y,z
_cell_length_a	15.995350
_cell_length_b	10.489741
_cell_length_c	14.472310
_cell_angle_alpha	89.999301
_cell_angle_beta	89.990621
_cell_angle_gamma	84.015774
loop_
_atom_site_label
_atom_site_type_symbol
_atom_site_fract_x
_atom_site_fract_y
_atom_site_fract_z
O1	O	1.111988	0.164399	-0.076762
O2	O	0.868335	0.184702	-0.076781
O3	O	0.995706	-0.011125	-0.076766
O4	O	0.984617	0.360226	-0.076777
O5	O	0.995673	-0.011114	0.076916
O6	O	0.868302	0.184713	0.076901
O7	O	1.111955	0.164411	0.076920
Cu8	Cu	0.990125	0.174563	0.090943
Cu9	Cu	0.990164	0.174549	-0.090804
O10	O	0.984584	0.360237	0.076905
C11	C	0.837119	0.183868	0.000058
C12	C	0.744153	0.181352	0.000050
C13	C	0.406351	0.172315	0.000070
C14	C	0.452944	0.032851	0.000417
C15	C	0.549650	0.035368	0.000064
C16	C	0.573939	0.176797	0.000061
C17	C	0.533285	0.245579	-0.087698
C18	C	0.436628	0.242076	-0.087765
C19	C	0.436269	0.244970	0.087001
C20	C	0.533214	0.244937	0.088154
C21	C	0.668651	0.179338	0.000053
C22	C	0.311638	0.169778	0.000072
C23	C	0.994852	-0.058639	0.000075
C24	C	0.992346	-0.200234	0.000073
C25	C	0.911304	-0.267240	0.000060
C26	C	0.949571	-0.359892	0.075836
C27	C	0.949623	-0.359878	-0.075682
C28	C	1.030647	-0.291021	0.075912
C29	C	1.030687	-0.290998	-0.075675
C30	C	1.069013	-0.383624	0.000120
C31	C	1.143171	0.165244	0.000079
C32	C	1.236137	0.167761	0.000080
C33	C	0.985438	0.407752	0.000062
C34	C	0.987944	0.549346	0.000058
N35	N	0.990104	0.174572	0.218774
N36	N	0.990192	0.174531	-0.218635
C37	C	0.990163	0.174544	0.592865
C38	C	0.921777	0.278976	0.553691
C39	C	0.921938	0.279357	0.446603
C40	C	0.990133	0.174558	0.407274
C41	C	1.077673	0.203626	0.446117
C42	C	1.077290	0.204368	0.553238
C43	C	0.971787	0.040735	0.553397
C44	C	0.969789	0.041628	0.446269
C45	C	0.990122	0.174563	0.302386
C46	C	0.990181	0.174542	0.697753
H47	H	0.434072	-0.022892	0.063353
C48	C	0.426040	-0.042128	-0.084122
H49	H	0.386538	0.011193	-0.119630
H50	H	0.401050	-0.115547	-0.063938
H51	H	0.473937	-0.068266	-0.120964
C52	C	0.834057	0.256052	0.411117
H53	H	0.834035	0.256272	0.345473
H54	H	0.793798	0.322046	0.433127
H55	H	0.820123	0.175464	0.432853
C56	C	0.833625	0.255984	0.588530
H57	H	0.837734	0.182496	0.627285
H58	H	0.798458	0.242654	0.537293
H59	H	0.810304	0.328619	0.622531
C60	C	0.903236	-0.401145	0.162371
H61	H	0.940209	-0.458352	0.198050
H62	H	0.855931	-0.442838	0.144155
H63	H	0.884991	-0.327682	0.198304
H64	H	0.418031	0.191907	-0.153364
H65	H	0.933757	0.378654	0.420966
C66	C	0.571235	0.181028	-0.175927
H67	H	0.611844	0.112171	-0.159470
H68	H	0.597344	0.241944	-0.211436
H69	H	0.527925	0.149117	-0.211299
C70	C	1.099876	0.333955	0.409870
H71	H	1.055917	0.370819	0.371076
H72	H	1.150763	0.321934	0.375635
H73	H	1.106626	0.389529	0.460544
C74	C	1.159103	-0.451666	0.000183
H75	H	1.187739	-0.428109	0.054060
H76	H	1.188120	-0.427037	-0.053131
H77	H	1.157024	-0.541843	-0.000322
H78	H	0.844671	-0.216656	0.000131
C79	C	1.076959	-0.249619	-0.162209
H80	H	1.124849	-0.209309	-0.144007
H81	H	1.040264	-0.191169	-0.197230
H82	H	1.094312	-0.322837	-0.198776
C83	C	0.553220	0.385939	-0.092128
H84	H	0.528043	0.425718	-0.145705
H85	H	0.612373	0.388363	-0.094764
H86	H	0.531527	0.430336	-0.038650
H87	H	1.064894	-0.260664	0.140046
H88	H	0.577193	-0.019074	-0.062951
C89	C	0.393894	0.380389	-0.093173
H90	H	0.435629	0.438468	-0.095325
H91	H	0.359473	0.398000	-0.040258
H92	H	0.360229	0.390031	-0.147295
H93	H	0.415444	0.199381	0.153519
C94	C	0.903305	-0.401082	-0.162227
H95	H	0.847281	-0.360811	-0.162132
H96	H	0.902486	-0.491500	-0.161912
H97	H	0.931566	-0.376323	-0.216033
H98	H	0.933437	0.377714	0.580598
C99	C	1.032627	-0.068278	0.410122
H100	H	1.072273	-0.034380	0.370603
H101	H	1.003217	-0.127492	0.376679
H102	H	1.061179	-0.110751	0.460793
C103	C	0.569680	0.177108	0.175862
H104	H	0.609561	0.107556	0.158876
H105	H	0.525590	0.145780	0.210329
H106	H	0.596408	0.236146	0.212485
C107	C	0.554805	0.384265	0.095315
H108	H	0.589085	0.402789	0.044442
H109	H	0.584210	0.395064	0.151326
H110	H	0.504433	0.440908	0.094574
C111	C	0.887352	0.002992	0.589920
H112	H	0.877466	-0.078029	0.565275
H113	H	0.843303	0.065650	0.571580
H114	H	0.889201	-0.001943	0.655445
H115	H	0.905390	0.019568	0.420883
H116	H	0.405128	0.347796	0.087591
H117	H	1.093360	0.301954	0.578212
H118	H	1.129810	0.131304	0.579150
H119	H	1.129811	0.129587	0.420640
H120	H	0.577739	-0.018699	0.062974
C121	C	1.039137	-0.064254	0.587624
H122	H	1.078269	-0.026794	0.625783
H123	H	1.067677	-0.104530	0.536111
H124	H	1.013012	-0.126194	0.622117
