data_functionalizedCrystal
_audit_creation_method	'MofGen! by Chris Wilmer'
_symmetry_space_group_name_H-M	'P1'
_symmetry_Int_Tables_number	1
_symmetry_cell_setting	triclinic
loop_
_symmetry_equiv_pos_as_xyz
  x,y,z
_cell_length_a	12.759401
_cell_length_b	18.101397
_cell_length_c	12.759393
_cell_angle_alpha	89.963423
_cell_angle_beta	89.979062
_cell_angle_gamma	90.021990
loop_
_atom_site_label
_atom_site_type_symbol
_atom_site_fract_x
_atom_site_fract_y
_atom_site_fract_z
Zn1	Zn	1.606224	-0.294764	-0.593976
Zn2	Zn	2.106224	0.205236	-0.093976
Zn3	Zn	1.606098	-0.418623	-0.418277
Zn4	Zn	2.106098	0.081377	0.081723
Zn5	Zn	1.430523	-0.294803	-0.418311
Zn6	Zn	1.930523	0.205197	0.081689
Zn7	Zn	1.430497	-0.418571	-0.593914
Zn8	Zn	1.930497	0.081429	-0.093914
O9	O	1.518336	-0.356690	-0.506120
O10	O	2.018336	0.143310	-0.006120
O11	O	1.753228	-0.311199	-0.570681
O12	O	2.253228	0.188801	-0.070681
O13	O	1.582765	-0.402236	-0.271261
O14	O	2.082765	0.097764	0.228739
O15	O	1.453894	-0.191165	-0.441653
O16	O	1.953894	0.308835	0.058347
O17	O	1.753135	-0.402198	-0.441596
O18	O	2.253135	0.097802	0.058404
O19	O	1.582981	-0.191136	-0.570713
O20	O	2.082981	0.308864	-0.070713
O21	O	1.453771	-0.311266	-0.271285
O22	O	1.953771	0.188734	0.228715
O23	O	1.283499	-0.311216	-0.441594
O24	O	1.783499	0.188784	0.058406
O25	O	1.453850	-0.402110	-0.740944
O26	O	1.953850	0.097890	-0.240944
O27	O	1.283480	-0.402148	-0.570609
O28	O	1.783480	0.097852	-0.070609
O29	O	1.582956	-0.311149	-0.740989
O30	O	2.082956	0.188851	-0.240989
O31	O	1.582740	-0.522249	-0.441536
O32	O	2.082740	-0.022249	0.058464
O33	O	1.453727	-0.522211	-0.570576
O34	O	1.953727	-0.022211	-0.070576
C35	C	1.245368	-0.356681	-0.506099
C36	C	1.745368	0.143319	-0.006099
C37	C	1.128592	-0.356695	-0.506115
C38	C	1.628592	0.143305	-0.006115
C39	C	1.518246	-0.549101	-0.506069
C40	C	2.018246	-0.049101	-0.006069
C41	C	1.518303	-0.631415	-0.506082
C42	C	2.018303	-0.131415	-0.006082
C43	C	1.073747	-0.404115	-0.573187
C44	C	1.573747	0.095885	-0.073187
C45	C	0.964023	-0.404118	-0.573208
C46	C	1.464023	0.095882	-0.073208
C47	C	0.963997	-0.309278	-0.439075
C48	C	1.463997	0.190722	0.060925
C49	C	1.073719	-0.309272	-0.439060
C50	C	1.573719	0.190728	0.060940
C51	C	1.518437	-0.930506	-0.506178
C52	C	2.018437	-0.430506	-0.006178
C53	C	1.599382	-0.899174	-0.424772
C54	C	2.099382	-0.399174	0.075228
C55	C	1.599663	-0.813555	-0.424983
C56	C	2.099663	-0.313555	0.075017
C57	C	1.518371	-0.782123	-0.506129
C58	C	2.018371	-0.282123	-0.006129
C59	C	1.548391	-0.813122	-0.616871
C60	C	2.048391	-0.313122	-0.116871
C61	C	1.549018	-0.898767	-0.616428
C62	C	2.049018	-0.398767	-0.116428
C63	C	1.407256	-0.899019	-0.477801
C64	C	1.907256	-0.399019	0.022199
C65	C	1.407805	-0.813370	-0.475329
C66	C	1.907805	-0.313370	0.024671
C67	C	1.518332	-0.698264	-0.506109
C68	C	2.018332	-0.198264	-0.006109
C69	C	1.518479	-1.014365	-0.506206
C70	C	2.018479	-0.514365	-0.006206
C71	C	1.792369	-0.356700	-0.506141
C72	C	2.292369	0.143300	-0.006141
C73	C	1.909145	-0.356704	-0.506150
C74	C	2.409145	0.143296	-0.006150
C75	C	1.518414	-0.356619	-0.780153
C76	C	2.018414	0.143381	-0.280153
C77	C	1.518448	-0.356589	-0.896930
C78	C	2.018448	0.143411	-0.396930
C79	C	1.518454	-0.163528	-0.506194
C80	C	2.018454	0.336472	-0.006194
C81	C	1.518505	-0.081214	-0.506225
C82	C	2.018505	0.418786	-0.006225
C83	C	1.585678	-0.309218	-0.951817
C84	C	2.085678	0.190782	-0.451817
C85	C	1.585696	-0.309186	-1.061541
C86	C	2.085696	0.190814	-0.561541
C87	C	1.451250	-0.403902	-1.061481
C88	C	1.951250	0.096098	-0.561481
C89	C	1.451228	-0.403930	-0.951759
C90	C	1.951228	0.096070	-0.451759
C91	C	1.518318	-0.356708	-0.233152
C92	C	2.018318	0.143292	0.266848
C93	C	1.518488	-0.356529	-0.116376
C94	C	2.018488	0.143471	0.383624
H95	H	1.118421	-0.442728	-0.627790
H96	H	1.618421	0.057272	-0.127790
H97	H	1.396473	-0.442504	-0.907069
H98	H	1.896473	0.057496	-0.407069
H99	H	0.919307	-0.270670	-0.384480
H100	H	1.419307	0.229330	0.115520
H101	H	1.385169	-0.793117	-0.393832
H102	H	1.885169	-0.293117	0.106168
N103	N	0.904868	-0.455267	-0.645545
N104	N	1.404868	0.044733	-0.145545
H105	H	0.956282	-0.485308	-0.688017
H106	H	1.456282	0.014692	-0.188017
H107	H	0.859308	-0.489502	-0.602689
H108	H	1.359308	0.010498	-0.102689
N109	N	1.323606	-0.785026	-0.548092
N110	N	1.823606	-0.285026	-0.048092
H111	H	1.356087	-0.751383	-0.602301
H112	H	1.856087	-0.251383	-0.102301
H113	H	1.288647	-0.828106	-0.584229
H114	H	1.788647	-0.328106	-0.084229
N115	N	1.474322	-0.926225	-0.699510
N116	N	1.974322	-0.426225	-0.199510
H117	H	1.441137	-0.882691	-0.736262
H118	H	1.941137	-0.382691	-0.236262
H119	H	1.514005	-0.957103	-0.752129
H120	H	2.014005	-0.457103	-0.252129
H121	H	1.118375	-0.270652	-0.384442
H122	H	1.618375	0.229348	0.115558
H123	H	1.640410	-0.270668	-0.907178
H124	H	2.140410	0.229332	-0.407178
H125	H	1.580827	-0.919823	-0.342413
H126	H	2.080827	-0.419823	0.157587
N127	N	1.658196	-0.258085	-1.120742
N128	N	2.158196	0.241915	-0.620742
H129	H	1.700770	-0.228099	-1.069355
H130	H	2.200770	0.271901	-0.569355
H131	H	1.706808	-0.288214	-1.166271
H132	H	2.206808	0.211786	-0.666271
H133	H	1.580880	-0.792600	-0.342870
H134	H	2.080880	-0.292600	0.157130
H135	H	1.628750	-0.791611	-0.641315
H136	H	2.128750	-0.291611	-0.141315
N137	N	1.378735	-0.454950	-1.120619
N138	N	1.878735	0.045050	-0.620619
H139	H	1.388946	-0.447743	-1.198456
H140	H	1.888946	0.052257	-0.698456
H141	H	1.395031	-0.507850	-1.101430
H142	H	1.895031	-0.007850	-0.601430
H143	H	1.681289	-0.920639	-0.443331
H144	H	2.181289	-0.420639	0.056669
H145	H	1.682020	-0.793009	-0.443758
H146	H	2.182020	-0.293009	0.056242
H147	H	1.346946	-0.919281	-0.537092
H148	H	1.846946	-0.419281	-0.037092
H149	H	1.491238	-0.792759	-0.679156
H150	H	1.991238	-0.292759	-0.179156
N151	N	1.656670	-0.925155	-0.648243
N152	N	2.156670	-0.425155	-0.148243
H153	H	1.703272	-0.881153	-0.662424
H154	H	2.203272	-0.381153	-0.162424
H155	H	1.687733	-0.955799	-0.589836
H156	H	2.187733	-0.455799	-0.089836
H157	H	1.379946	-0.920686	-0.398448
H158	H	1.879946	-0.420686	0.101552
