data_functionalizedCrystal
_audit_creation_method	'MofGen! by Chris Wilmer'
_symmetry_space_group_name_H-M	'P1'
_symmetry_Int_Tables_number	1
_symmetry_cell_setting	triclinic
loop_
_symmetry_equiv_pos_as_xyz
  x,y,z
_cell_length_a	10.654545
_cell_length_b	8.597304
_cell_length_c	9.130313
_cell_angle_alpha	82.295602
_cell_angle_beta	89.996934
_cell_angle_gamma	84.908900
loop_
_atom_site_label
_atom_site_type_symbol
_atom_site_fract_x
_atom_site_fract_y
_atom_site_fract_z
O1	O	1.669014	0.220431	-0.149595
O2	O	1.303646	0.241443	-0.152252
O3	O	1.493520	0.002548	-0.122099
O4	O	1.479140	0.459326	-0.179748
O5	O	1.493506	0.002541	0.121500
O6	O	1.303633	0.241436	0.091348
O7	O	1.669000	0.220424	0.094005
Cu8	Cu	1.486315	0.230929	0.114919
Cu9	Cu	1.486331	0.230937	-0.173166
O10	O	1.479126	0.459319	0.063852
C11	C	1.256833	0.239898	-0.030258
C12	C	1.117365	0.235286	-0.029679
C13	C	1.051842	0.233112	0.103382
C14	C	0.920799	0.228753	0.103932
C15	C	0.920814	0.228750	-0.161652
C16	C	1.051855	0.233098	-0.162199
C17	C	1.491968	-0.055944	0.007079
C18	C	1.487351	-0.230222	0.029064
C19	C	1.715813	0.221969	-0.027992
C20	C	1.855281	0.226580	-0.028581
C21	C	1.480678	0.517811	-0.065329
C22	C	1.485295	0.692088	-0.087324
N23	N	1.486313	0.230922	0.317542
N24	N	1.486343	0.230932	-0.375788
C25	C	1.570419	0.125184	0.407540
C26	C	1.570431	0.125185	0.560877
C27	C	1.402228	0.336675	0.534203
C28	C	1.402211	0.336665	0.380870
H29	H	1.105176	0.234894	0.211289
C30	C	1.487698	-0.217671	-0.244677
H31	H	1.485779	-0.289776	-0.314745
H32	H	1.562441	-0.164961	-0.256774
H33	H	1.416333	-0.142610	-0.259595
H34	H	0.867456	0.226983	0.212284
C35	C	0.848748	0.226364	-0.307415
H36	H	0.761318	0.223480	-0.288036
H37	H	0.878683	0.135707	-0.350538
H38	H	0.861768	0.318463	-0.373594
H39	H	1.105206	0.234864	-0.270560
C40	C	1.484945	-0.320476	0.186422
H41	H	1.482055	-0.429700	0.181065
H42	H	1.412605	-0.282531	0.236225
H43	H	1.558713	-0.304896	0.239045
C44	C	1.662915	0.008859	0.337885
H45	H	1.712998	-0.054124	0.413453
H46	H	1.715883	0.065921	0.270848
H47	H	1.616920	-0.057016	0.286404
H48	H	1.638915	0.039082	0.634150
C49	C	1.309735	0.452997	0.603867
H50	H	1.321799	0.437872	0.708075
H51	H	1.225702	0.434980	0.581036
H52	H	1.324665	0.557917	0.565479
C53	C	1.309694	0.452987	0.281865
H54	H	1.259621	0.515980	0.341537
H55	H	1.256719	0.395908	0.229269
H56	H	1.355676	0.518853	0.213723
