data_functionalizedCrystal
_audit_creation_method	'MofGen! by Chris Wilmer'
_symmetry_space_group_name_H-M	'P1'
_symmetry_Int_Tables_number	1
_symmetry_cell_setting	triclinic
loop_
_symmetry_equiv_pos_as_xyz
  x,y,z
_cell_length_a	16.992694
_cell_length_b	12.837942
_cell_length_c	16.053802
_cell_angle_alpha	92.838962
_cell_angle_beta	87.249047
_cell_angle_gamma	92.748582
loop_
_atom_site_label
_atom_site_type_symbol
_atom_site_fract_x
_atom_site_fract_y
_atom_site_fract_z
O1	O	1.059913	0.217066	-0.069322
O2	O	0.831447	0.214638	-0.069347
O3	O	0.940614	0.064530	-0.069330
O4	O	0.950746	0.367174	-0.069339
O5	O	0.934602	0.072756	0.069528
O6	O	0.825435	0.222864	0.069511
O7	O	1.053901	0.225292	0.069536
Zn8	Zn	0.938714	0.225384	0.091570
Zn9	Zn	0.946634	0.214546	-0.091381
O10	O	0.944734	0.375400	0.069519
C11	C	0.798996	0.215629	0.000079
C12	C	0.711256	0.206315	0.000070
C13	C	0.667730	0.296178	0.000068
C14	C	0.585288	0.287422	0.000079
C15	C	0.546375	0.188801	0.000087
C16	C	0.589907	0.098931	0.000092
C17	C	0.672346	0.107689	0.000086
C18	C	0.300064	0.152502	0.000111
C19	C	0.217618	0.143751	0.000114
C20	C	0.213006	0.332243	0.000103
C21	C	0.295447	0.340992	0.000092
C22	C	0.338972	0.251122	0.000101
N23	N	0.462107	0.179847	0.000097
N24	N	0.423238	0.260077	0.000098
C25	C	0.934185	0.029738	0.000098
C26	C	0.923977	-0.086184	0.000096
C27	C	1.046699	-0.316977	0.000092
C28	C	1.037111	-0.425897	0.000089
C29	C	0.895215	-0.412948	0.000082
C30	C	0.904802	-0.304027	0.000085
C31	C	0.980547	-0.256046	0.000091
C32	C	0.990134	-0.147123	0.000099
C33	C	0.848238	-0.134176	0.000086
C34	C	0.838650	-0.243097	0.000084
C35	C	1.086353	0.224300	0.000108
C36	C	1.174092	0.233614	0.000112
C37	C	0.951163	0.410191	0.000089
C38	C	0.961371	0.526114	0.000086
N39	N	0.933314	0.232780	0.216430
N40	N	0.952040	0.207141	-0.216241
C41	C	0.979785	0.168935	0.260131
C42	C	0.976016	0.174120	0.347537
C43	C	0.925779	0.243156	0.391240
C44	C	0.879303	0.307004	0.347533
C45	C	0.883068	0.301813	0.260129
C46	C	0.909329	0.265799	0.652647
C47	C	0.905569	0.270987	0.740058
C48	C	1.002281	0.138101	0.740056
C49	C	1.006046	0.132921	0.652650
C50	C	0.959566	0.196765	0.608950
N51	N	0.921927	0.248459	0.480584
N52	N	0.963414	0.191455	0.519608
H53	H	0.558216	0.018632	0.000110
H54	H	0.549853	0.360598	0.000077
C55	C	0.811904	-0.465736	0.000060
H56	H	0.773876	-0.413850	0.000050
H57	H	0.803113	-0.505104	0.048474
H58	H	0.807322	-0.510811	-0.048378
H59	H	0.794372	-0.084554	0.000092
C60	C	0.831954	0.372043	0.212053
H61	H	0.841385	0.359058	0.153740
H62	H	0.845101	0.443226	0.226366
H63	H	0.777831	0.357154	0.226387
C64	C	0.824045	0.382943	0.395604
H65	H	0.828464	0.376900	0.453919
H66	H	0.771159	0.366365	0.381291
H67	H	0.838437	0.452427	0.381268
H68	H	0.864658	0.327208	0.775638
H69	H	0.327125	0.421299	0.000076
C70	C	0.165127	0.431090	0.000104
H71	H	0.110456	0.411754	0.000116
H72	H	0.179778	0.468384	-0.048319
H73	H	0.175602	0.474112	0.048533
H74	H	1.020697	0.112723	0.224553
H75	H	0.699407	0.376486	0.000061
C76	C	0.720229	0.008843	0.000087
H77	H	0.774899	0.028183	0.000091
H78	H	0.709758	-0.034190	-0.048331
H79	H	0.705576	-0.028440	0.048521
C80	C	1.130010	-0.264188	0.000105
H81	H	1.126244	-0.190592	0.000112
H82	H	1.159690	-0.287561	-0.048313
H83	H	1.155488	-0.281832	0.048539
H84	H	0.185938	0.063438	0.000120
C85	C	0.347931	0.053649	0.000115
H86	H	0.312946	-0.006337	0.000111
H87	H	0.378096	0.056013	0.048536
H88	H	0.382276	0.050275	-0.048315
H89	H	1.046952	0.076706	0.617068
C90	C	1.053397	0.067867	0.788123
H91	H	1.083857	0.026012	0.749576
H92	H	1.020302	0.024099	0.822228
H93	H	1.087579	0.110162	0.822210
C94	C	0.858211	0.336034	0.604589
H95	H	0.827761	0.377900	0.643138
H96	H	0.824031	0.293746	0.570501
H97	H	0.891309	0.379808	0.570484
C98	C	1.109878	-0.492917	0.000095
H99	H	1.156359	-0.448737	0.000104
H100	H	1.111183	-0.538544	-0.048327
H101	H	1.106992	-0.532807	0.048524
C102	C	1.073446	-0.094339	0.000105
H103	H	1.069684	-0.020742	0.000115
H104	H	1.103120	-0.117714	-0.048317
H105	H	1.098930	-0.111987	0.048535
C106	C	0.755337	-0.295878	0.000074
H107	H	0.717313	-0.243987	0.000068
H108	H	0.746551	-0.335239	0.048493
H109	H	0.750744	-0.340957	-0.048359
H110	H	1.013856	0.122131	0.383118
