data_functionalizedCrystal
_audit_creation_method	'MofGen! by Chris Wilmer'
_symmetry_space_group_name_H-M	'P1'
_symmetry_Int_Tables_number	1
_symmetry_cell_setting	triclinic
loop_
_symmetry_equiv_pos_as_xyz
  x,y,z
_cell_length_a	17.699083
_cell_length_b	19.188930
_cell_length_c	16.776229
_cell_angle_alpha	89.988225
_cell_angle_beta	89.998886
_cell_angle_gamma	83.213899
loop_
_atom_site_label
_atom_site_type_symbol
_atom_site_fract_x
_atom_site_fract_y
_atom_site_fract_z
O1	O	1.003962	0.088294	-0.066185
O2	O	0.783569	0.099782	-0.066213
O3	O	0.900126	-0.007611	-0.066183
O4	O	0.887405	0.195686	-0.066215
O5	O	0.900110	-0.007617	0.066394
O6	O	0.783553	0.099775	0.066364
O7	O	1.003947	0.088288	0.066391
Zn8	Zn	0.893748	0.094030	0.087427
Zn9	Zn	0.893768	0.094039	-0.087249
O10	O	0.887390	0.195680	0.066361
C11	C	0.755365	0.099367	0.000072
C12	C	0.671348	0.098132	0.000062
C13	C	0.899706	-0.033625	0.000108
C14	C	0.898469	-0.111131	0.000114
C15	C	0.622644	0.161169	0.000053
C16	C	0.543702	0.160004	0.000063
C17	C	0.513466	0.095802	0.000078
C18	C	0.562176	0.032761	0.000090
C19	C	0.641117	0.033926	0.000085
C20	C	0.243819	0.028060	0.000111
C21	C	0.164873	0.026900	0.000113
C22	C	0.146405	0.154139	0.000088
C23	C	0.225345	0.155304	0.000084
C24	C	0.274049	0.092263	0.000100
C25	C	0.359646	0.093526	0.000090
C26	C	0.427870	0.094538	0.000082
C27	C	0.966861	-0.155978	0.000127
C28	C	0.965699	-0.228804	0.000114
C29	C	0.896142	-0.256778	0.000105
C30	C	0.827741	-0.211921	0.000088
C31	C	0.828905	-0.139098	0.000093
N32	N	0.842969	-0.364845	0.045216
N33	N	0.841868	-0.434025	0.045213
C34	C	0.892632	-0.476191	0.000088
N35	N	0.944550	-0.446565	-0.045024
N36	N	0.945653	-0.377379	-0.045018
C37	C	0.894873	-0.335742	0.000099
C38	C	0.959769	-0.600004	0.000085
C39	C	0.958604	-0.672830	0.000067
C40	C	0.820644	-0.655946	0.000049
C41	C	0.821811	-0.583121	0.000059
C42	C	0.891375	-0.555155	0.000081
C43	C	1.032151	0.088703	0.000104
C44	C	1.116167	0.089938	0.000109
C45	C	0.887810	0.221695	0.000069
C46	C	0.889046	0.299201	0.000057
N47	N	0.893739	0.094024	0.206638
N48	N	0.893782	0.094040	-0.206460
C49	C	0.945366	0.046490	0.248368
C50	C	0.945370	0.046490	0.331821
C51	C	0.893751	0.094027	0.373541
C52	C	0.842118	0.141563	0.331805
C53	C	0.842111	0.141559	0.248354
C54	C	0.842146	0.141576	0.668352
C55	C	0.842158	0.141578	0.751808
C56	C	0.945405	0.046507	0.751818
C57	C	0.945398	0.046503	0.668368
C58	C	0.893763	0.094037	0.626639
C59	C	0.893758	0.094036	0.536150
C60	C	0.893759	0.094031	0.464028
H61	H	0.647256	0.213450	0.000040
O62	O	0.496499	0.221303	0.000017
C63	C	0.540114	0.278219	0.000018
H64	H	0.599091	0.260397	-0.025084
H65	H	0.510843	0.322379	-0.038479
H66	H	0.545676	0.297903	0.063617
H67	H	0.283465	-0.023272	0.000125
O68	O	1.034388	-0.128732	0.000032
C69	C	1.039208	-0.087116	-0.068640
H70	H	0.979497	-0.068870	-0.091539
H71	H	1.069222	-0.039485	-0.053193
H72	H	1.072801	-0.119341	-0.116716
H73	H	0.987434	0.007797	0.634402
O74	O	0.792002	0.187835	0.372239
C75	C	0.804078	0.256938	0.351838
H76	H	0.833248	0.256816	0.291245
H77	H	0.747071	0.291385	0.348977
H78	H	0.841678	0.278492	0.398795
O79	O	0.755444	-0.539453	0.000020
C80	C	0.771385	-0.469179	0.000047
H81	H	0.830828	-0.466482	-0.025043
H82	H	0.727781	-0.436103	-0.038448
H83	H	0.768438	-0.448127	0.063651
H84	H	0.987404	0.007783	0.214405
O85	O	0.254590	0.217731	0.000105
C86	C	0.194674	0.273121	0.000080
H87	H	0.141110	0.253639	0.025185
H88	H	0.211025	0.317950	0.038564
H89	H	0.183437	0.292564	-0.063526
O90	O	0.995525	0.000229	0.792269
C91	C	0.983440	-0.068874	0.771909
H92	H	0.954264	-0.068753	0.711321
H93	H	1.040444	-0.103325	0.769058
H94	H	0.945843	-0.090422	0.818884
O95	O	0.688538	-0.027244	0.000127
C96	C	0.764696	-0.012450	0.000101
H97	H	0.767539	0.042386	0.025190
H98	H	0.800597	-0.052639	0.038598
H99	H	0.787534	-0.015133	-0.063503
O100	O	0.532845	-0.029624	0.000244
C101	C	0.557770	-0.068056	0.068902
H102	H	0.574064	-0.030513	0.116888
H103	H	0.510046	-0.097684	0.091953
H104	H	0.609352	-0.107046	0.053383
O105	O	0.995554	0.000415	0.372449
C106	C	1.042127	0.037762	0.420690
H107	H	1.011795	0.092432	0.433176
H108	H	1.054203	0.008611	0.479382
H109	H	1.098044	0.042445	0.388524
O110	O	0.791934	0.187780	0.792213
C111	C	0.746368	0.229744	0.737489
H112	H	0.745604	0.201118	0.678009
H113	H	0.685895	0.240458	0.761610
H114	H	0.770757	0.281587	0.728596
H115	H	0.106741	0.205470	0.000079
H116	H	1.021394	-0.265325	0.000121
O117	O	0.760221	-0.239175	-0.000026
C118	C	0.755422	-0.280767	-0.068700
H119	H	0.815140	-0.299001	-0.091582
H120	H	0.725409	-0.328408	-0.053264
H121	H	0.721838	-0.248528	-0.116785
O122	O	0.792066	0.187764	0.207726
C123	C	0.832446	0.230803	0.159451
H124	H	0.891761	0.202926	0.146950
H125	H	0.800814	0.241880	0.100769
H126	H	0.837415	0.282402	0.191595
O127	O	0.762416	-0.095600	-0.000021
C128	C	0.720186	-0.108229	-0.068702
H129	H	0.738956	-0.163497	-0.091598
H130	H	0.657042	-0.103001	-0.053269
H131	H	0.730411	-0.068400	-0.116775
H132	H	0.140258	-0.025384	0.000126
H133	H	0.800104	0.180281	0.634383
H134	H	1.016412	-0.577233	0.000099
O135	O	1.025025	-0.716425	-0.000065
C136	C	1.028485	-0.759047	-0.068724
H137	H	0.989701	-0.732299	-0.116719
H138	H	1.089483	-0.767330	-0.091759
H139	H	1.009071	-0.811976	-0.053213
H140	H	0.764009	-0.678722	0.000038
