data_functionalizedCrystal
_audit_creation_method	'MofGen! by Chris Wilmer'
_symmetry_space_group_name_H-M	'P1'
_symmetry_Int_Tables_number	1
_symmetry_cell_setting	triclinic
loop_
_symmetry_equiv_pos_as_xyz
  x,y,z
_cell_length_a	6.817900
_cell_length_b	11.102289
_cell_length_c	10.943624
_cell_angle_alpha	91.861746
_cell_angle_beta	108.838799
_cell_angle_gamma	108.605707
loop_
_atom_site_label
_atom_site_type_symbol
_atom_site_fract_x
_atom_site_fract_y
_atom_site_fract_z
V1	V	-4.114282	-0.175806	-0.402551
O2	O	-4.073263	0.008482	-0.394888
O3	O	-4.091041	-0.348626	-0.399798
O4	O	-4.092264	-0.173086	-0.578117
O5	O	-4.072031	-0.168273	-0.215334
V6	V	-4.591232	-0.153765	-0.380158
O7	O	-4.389960	-0.224155	-0.451671
O8	O	-4.765752	-0.105415	-0.331038
O9	O	-4.391267	0.019056	-0.382912
O10	O	-4.749649	-0.338053	-0.387821
O11	O	-4.750880	-0.161298	-0.567375
O12	O	-4.390044	-0.156484	-0.204592
C13	C	-3.941308	-0.390757	-0.393447
C14	C	-4.003768	-0.532039	-0.392366
C15	C	-4.217163	-0.604887	-0.398299
C16	C	-4.275844	-0.737639	-0.397294
C17	C	-3.907711	-0.724682	-0.384419
C18	C	-3.849038	-0.591934	-0.385432
C19	C	-4.429699	-0.612368	-0.405727
C20	C	-4.488380	-0.745120	-0.404723
C21	C	-3.942867	-0.166837	-0.620910
C22	C	-4.006314	-0.165757	-0.764437
C23	C	-3.851194	-0.158485	-0.841584
C24	C	-4.039808	-0.266416	-0.947574
C25	C	-3.930779	-0.055914	-0.914187
C26	C	-4.194138	-0.273789	-0.868550
C27	C	-4.085029	-0.063191	-0.835140
C28	C	-4.273779	-0.171153	-0.941100
C29	C	-4.204342	0.061180	-0.389259
C30	C	-4.121122	0.202461	-0.390348
C31	C	-4.202783	-0.162738	-0.161792
C32	C	-4.118573	-0.163811	-0.018265
H33	H	-3.672029	-0.153274	-0.798136
O34	O	-4.548968	-0.775153	-0.299585
C35	C	-4.607908	-0.908864	-0.298746
H36	H	-4.657774	-0.960014	-0.401893
H37	H	-4.460857	-0.930657	-0.231008
C38	C	-4.742330	-0.893569	-0.123312
C39	C	-4.803594	-0.956393	-0.250001
H40	H	-4.863031	-0.922888	-0.093238
H41	H	-4.702613	-0.803485	-0.123873
H42	H	-4.619784	-0.911735	-0.066879
H43	H	-4.926118	-0.938213	-0.306434
H44	H	-4.843336	-1.046476	-0.249447
O45	O	-4.106608	0.039448	-0.776720
C46	C	-3.966655	0.154070	-0.799230
H47	H	-3.826340	0.134684	-0.821510
H48	H	-4.065376	0.190442	-0.885774
C49	C	-4.042300	0.280139	-0.649454
C50	C	-3.869952	0.256331	-0.676807
H51	H	-3.982656	0.343222	-0.573941
H52	H	-4.136597	0.202917	-0.634291
H53	H	-4.124553	0.310443	-0.721583
H54	H	-3.787720	0.226013	-0.604686
H55	H	-3.775639	0.333551	-0.691955
H56	H	-3.820065	0.036144	-0.934950
O57	O	-4.428840	-0.548661	-0.297189
C58	C	-4.368645	-0.416010	-0.304669
H59	H	-4.271084	-0.391836	-0.373261
H60	H	-4.524010	-0.389915	-0.343511
C61	C	-4.344632	-0.368704	-0.083469
C62	C	-4.224789	-0.339011	-0.167706
H63	H	-4.255904	-0.321205	0.001016
H64	H	-4.385195	-0.458073	-0.078430
H65	H	-4.474097	-0.346958	-0.115853
H66	H	-4.095343	-0.360772	-0.135330
H67	H	-4.184201	-0.249642	-0.172736
H68	H	-4.542207	-0.593140	-0.499624
O69	O	-4.017402	-0.368805	-1.005896
C70	C	-3.795238	-0.361801	-0.954885
H71	H	-3.683943	-0.257902	-0.912848
H72	H	-3.774765	-0.424424	-0.874469
C73	C	-3.867248	-0.537520	-1.116212
C74	C	-3.730553	-0.409907	-1.064590
H75	H	-3.827347	-0.567199	-1.183880
H76	H	-4.016927	-0.542242	-1.150576
H77	H	-3.850174	-0.589689	-1.049186
H78	H	-3.747649	-0.357738	-1.131612
H79	H	-3.580875	-0.405177	-1.030240
H80	H	-4.620843	-0.802979	-0.500372
O81	O	-4.326004	-0.383723	-0.843825
C82	C	-4.264084	-0.383451	-0.707777
H83	H	-4.085361	-0.316826	-0.657681
H84	H	-4.376578	-0.348199	-0.669891
C85	C	-4.505422	-0.602603	-0.739542
C86	C	-4.285905	-0.520781	-0.678014
H87	H	-4.518890	-0.687315	-0.721182
H88	H	-4.547145	-0.602786	-0.831201
H89	H	-4.599142	-0.573210	-0.707964
H90	H	-4.192192	-0.550165	-0.709605
H91	H	-4.244166	-0.520607	-0.586360
H92	H	-3.675284	-0.532628	-0.380616
H93	H	-3.781744	-0.773465	-0.378775
H94	H	-4.453056	-0.176535	-0.984345
