data_functionalizedCrystal
_audit_creation_method	'MofGen! by Chris Wilmer'
_symmetry_space_group_name_H-M	'P1'
_symmetry_Int_Tables_number	1
_symmetry_cell_setting	triclinic
loop_
_symmetry_equiv_pos_as_xyz
  x,y,z
_cell_length_a	12.759395
_cell_length_b	25.639239
_cell_length_c	12.759387
_cell_angle_alpha	90.036418
_cell_angle_beta	90.020509
_cell_angle_gamma	90.040223
loop_
_atom_site_label
_atom_site_type_symbol
_atom_site_fract_x
_atom_site_fract_y
_atom_site_fract_z
Zn1	Zn	1.606094	-0.208102	0.593964
Zn2	Zn	1.605911	-0.295548	0.418267
Zn3	Zn	1.430392	-0.208130	0.418301
Zn4	Zn	1.430311	-0.295510	0.593906
O5	O	1.518177	-0.251823	0.506110
O6	O	1.753090	-0.219705	0.570668
O7	O	1.582585	-0.283979	0.271250
O8	O	1.453810	-0.134961	0.441641
O9	O	1.752956	-0.283951	0.441584
O10	O	1.582897	-0.134940	0.570700
O11	O	1.453632	-0.219754	0.271275
O12	O	1.283360	-0.219718	0.441585
O13	O	1.453671	-0.283888	0.740935
O14	O	1.283300	-0.283916	0.570602
O15	O	1.582818	-0.219669	0.740978
O16	O	1.582506	-0.368708	0.441528
O17	O	1.453494	-0.368681	0.570569
C18	C	1.245209	-0.251816	0.506092
C19	C	1.128432	-0.251826	0.506109
C20	C	1.128409	-0.318783	0.640236
C21	C	1.073536	-0.352266	0.707303
C22	C	0.963815	-0.352272	0.707316
C23	C	0.908963	-0.318791	0.640257
C24	C	0.963836	-0.285309	0.573190
C25	C	1.073560	-0.285307	0.573182
C26	C	0.963859	-0.218349	0.439070
C27	C	1.073581	-0.218345	0.439050
C28	C	0.909008	-0.184868	0.372011
C29	C	0.963880	-0.151387	0.304937
C30	C	1.073609	-0.151383	0.304926
C31	C	1.128454	-0.184862	0.371983
C32	C	1.518000	-0.387665	0.506062
C33	C	1.518020	-0.445779	0.506076
C34	C	1.585529	-0.806144	0.439032
C35	C	1.585570	-0.860748	0.439046
O36	O	1.642784	-0.888986	0.381991
N37	N	1.518361	-0.888062	0.506179
C38	C	1.451115	-0.860768	0.573310
O39	O	1.393954	-0.889014	0.630414
C40	C	1.451081	-0.806165	0.573300
C41	C	1.518286	-0.778854	0.506156
C42	C	1.652729	-0.778833	0.371894
C43	C	1.652687	-0.724233	0.371879
C44	C	1.585444	-0.696943	0.439002
C45	C	1.518244	-0.724253	0.506140
C46	C	1.383841	-0.778872	0.640436
C47	C	1.383813	-0.724265	0.640421
C48	C	1.451018	-0.696954	0.573276
C49	C	1.450958	-0.642363	0.573249
N50	N	1.518167	-0.615050	0.506116
C51	C	1.585409	-0.642339	0.438992
C52	C	1.451195	-0.975438	0.573326
C53	C	1.451223	-1.030041	0.573331
C54	C	1.585679	-1.030017	0.439069
C55	C	1.585644	-0.975414	0.439059
C56	C	1.518403	-0.948125	0.506193
C57	C	1.585315	-0.527674	0.438965
C58	C	1.585263	-0.473069	0.438953
C59	C	1.450812	-0.473097	0.573219
C60	C	1.450859	-0.527698	0.573227
C61	C	1.518119	-0.554985	0.506097
O62	O	1.393776	-0.614090	0.630278
O63	O	1.642571	-0.614087	0.381908
C64	C	1.792210	-0.251829	0.506128
C65	C	1.908987	-0.251832	0.506136
C66	C	1.518256	-0.251771	0.780143
C67	C	1.518290	-0.251749	0.896920
C68	C	1.518383	-0.115449	0.506181
C69	C	1.518470	-0.057335	0.506211
C70	C	1.518158	-0.251836	0.233142
C71	C	1.518328	-0.251710	0.116366
C72	C	1.652780	-0.184883	0.896984
C73	C	1.720039	-0.151442	0.951877
C74	C	1.720065	-0.151423	1.061598
C75	C	1.652821	-0.184847	1.116430
C76	C	1.585562	-0.218288	1.061537
C77	C	1.585546	-0.218305	0.951813
C78	C	1.451068	-0.285151	1.061473
C79	C	1.451046	-0.285174	0.951751
C80	C	1.383825	-0.318576	1.116305
C81	C	1.316569	-0.352021	1.061412
C82	C	1.316547	-0.352039	0.951683
C83	C	1.383787	-0.318615	0.896859
H84	H	1.217750	-0.318785	0.640225
C85	C	1.726697	-0.808844	0.298045
H86	H	1.766701	-0.784751	0.258060
H87	H	1.772476	-0.830109	0.338263
H88	H	1.686537	-0.830178	0.252229
H89	H	1.217795	-0.184863	0.371978
C90	C	1.659178	-0.443028	0.365081
H91	H	1.649516	-0.406599	0.374670
H92	H	1.729771	-0.451930	0.380508
H93	H	1.643825	-0.452017	0.294481
C94	C	0.788317	-0.184872	0.372022
H95	H	0.763512	-0.160134	0.322487
H96	H	0.763443	-0.218600	0.353725
H97	H	0.763539	-0.175872	0.439862
C98	C	1.794005	-0.114680	0.891561
H99	H	1.784368	-0.119482	0.818353
H100	H	1.778699	-0.079545	0.909561
H101	H	1.864589	-0.122339	0.909552
C102	C	1.242608	-0.388783	1.121721
H103	H	1.202545	-0.408702	1.073317
H104	H	1.282766	-0.411556	1.164524
H105	H	1.196868	-0.368766	1.164520
H106	H	1.640086	-0.549885	0.384303
C107	C	0.903453	-0.389079	0.781133
H108	H	0.951830	-0.409013	0.821079
H109	H	0.860717	-0.369088	0.826971
H110	H	0.860583	-0.411846	0.740893
C111	C	1.242579	-0.388834	0.891309
H112	H	1.202550	-0.408740	0.939683
H113	H	1.196822	-0.368847	0.848498
H114	H	1.282743	-0.411626	0.848514
H115	H	1.383780	-0.318629	0.807517
H116	H	1.118279	-0.124113	0.250319
H117	H	1.396430	-0.953222	0.627992
C118	C	0.903544	-0.114563	0.231183
H119	H	0.830340	-0.119363	0.240797
H120	H	0.921580	-0.079443	0.246686
H121	H	0.921476	-0.122175	0.160556
C122	C	1.383853	-0.318556	1.236995
H123	H	1.433548	-0.293857	1.261836
H124	H	1.316077	-0.309506	1.261816
H125	H	1.401974	-0.352297	1.261791
C126	C	1.133874	-0.389093	0.781062
H127	H	1.207079	-0.384298	0.771446
H128	H	1.115933	-0.381488	0.851683
H129	H	1.115841	-0.424215	0.765544
C130	C	0.788273	-0.318796	0.640277
H131	H	0.763449	-0.343533	0.689821
H132	H	0.763502	-0.285069	0.658573
H133	H	0.763409	-0.327801	0.572443
H134	H	1.396488	-1.052272	0.627997
H135	H	1.707414	-0.701999	0.317207
C136	C	1.659577	-0.945377	0.365209
H137	H	1.699630	-0.969455	0.325242
H138	H	1.619406	-0.924111	0.319391
H139	H	1.705328	-0.924042	0.405442
H140	H	1.329110	-0.801099	0.695107
C141	C	1.376856	-0.443072	0.647053
H142	H	1.386471	-0.406641	0.637431
H143	H	1.306275	-0.452059	0.631631
H144	H	1.392216	-0.451984	0.717662
C145	C	1.659643	-1.060043	0.365230
H146	H	1.650038	-1.096473	0.374863
H147	H	1.644297	-1.051130	0.294624
H148	H	1.730226	-1.051056	0.380668
H149	H	1.329058	-0.702049	0.695093
H150	H	1.652839	-0.184824	1.205771
C151	C	1.376934	-0.557741	0.647083
H152	H	1.336886	-0.533665	0.687060
H153	H	1.331195	-0.579086	0.606869
H154	H	1.417130	-0.578997	0.692907
C155	C	1.652759	-0.184905	0.776293
H156	H	1.702433	-0.160208	0.751500
H157	H	1.670860	-0.218650	0.751455
H158	H	1.584968	-0.175857	0.751467
C159	C	1.794050	-0.114640	1.121983
H160	H	1.834099	-0.094738	1.073618
H161	H	1.753910	-0.091851	1.164798
H162	H	1.839803	-0.134643	1.164776
