data_functionalizedCrystal
_audit_creation_method	'MofGen! by Chris Wilmer'
_symmetry_space_group_name_H-M	'P1'
_symmetry_Int_Tables_number	1
_symmetry_cell_setting	triclinic
loop_
_symmetry_equiv_pos_as_xyz
  x,y,z
_cell_length_a	21.395361
_cell_length_b	11.169417
_cell_length_c	21.395355
_cell_angle_alpha	90.023022
_cell_angle_beta	89.978489
_cell_angle_gamma	89.971070
loop_
_atom_site_label
_atom_site_type_symbol
_atom_site_fract_x
_atom_site_fract_y
_atom_site_fract_z
Zn1	Zn	-0.249541	-1.834809	-0.354223
Zn2	Zn	-0.354301	-1.834622	-0.249440
Zn3	Zn	-0.249538	-1.634090	-0.249462
Zn4	Zn	-0.354281	-1.634031	-0.354183
O5	O	-0.301915	-1.734388	-0.301827
O6	O	-0.263447	-2.002734	-0.340330
O7	O	-0.340410	-1.807967	-0.161765
O8	O	-0.161860	-1.660818	-0.263385
O9	O	-0.340413	-2.002596	-0.263347
O10	O	-0.161863	-1.808286	-0.340352
O11	O	-0.263442	-1.660637	-0.161781
O12	O	-0.263423	-1.466132	-0.263346
O13	O	-0.340380	-1.660718	-0.441866
O14	O	-0.340377	-1.466089	-0.340284
O15	O	-0.263428	-1.808228	-0.441895
O16	O	-0.441976	-1.807910	-0.263308
O17	O	-0.441962	-1.660537	-0.340262
C18	C	-0.464703	-1.734229	-0.301792
C19	C	-0.534344	-1.734271	-0.301798
C20	C	-0.301898	-1.422563	-0.301814
C21	C	-0.301906	-1.289163	-0.301823
C22	C	-0.567044	-1.811077	-0.261769
C23	C	-0.632479	-1.811132	-0.261783
C24	C	-0.665212	-1.734361	-0.301820
C25	C	-0.632505	-1.657551	-0.341856
C26	C	-0.567071	-1.657506	-0.341846
C27	C	-0.768926	-1.626297	-0.306731
C28	C	-0.834359	-1.626341	-0.306737
C29	C	-0.867033	-1.734501	-0.301856
C30	C	-0.834266	-1.842622	-0.296956
C31	C	-0.768832	-1.842577	-0.296945
C32	C	-0.736165	-1.734402	-0.301836
C33	C	-0.970685	-1.811374	-0.261840
C34	C	-1.036122	-1.811431	-0.261859
C35	C	-1.036146	-1.657839	-0.341929
C36	C	-0.970711	-1.657792	-0.341914
C37	C	-0.937984	-1.734558	-0.301866
C38	C	-0.138492	-1.734579	-0.301876
C39	C	-0.068851	-1.734661	-0.301896
C40	C	-0.301902	-1.734487	-0.465250
C41	C	-0.301897	-1.734530	-0.534892
C42	C	-0.301927	-1.047430	-0.301836
C43	C	-0.301916	-1.180830	-0.301830
C44	C	-0.261826	-1.811335	-0.567621
C45	C	-0.261799	-1.811334	-0.633056
C46	C	-0.301854	-1.734539	-0.665760
C47	C	-0.341928	-1.657719	-0.633023
C48	C	-0.341949	-1.657714	-0.567588
C49	C	-0.358270	-1.725008	-0.769423
C50	C	-0.358249	-1.725021	-0.834856
C51	C	-0.301788	-1.734547	-0.867581
C52	C	-0.245346	-1.744085	-0.834865
C53	C	-0.245367	-1.744080	-0.769431
C54	C	-0.301835	-1.734535	-0.736712
C55	C	-0.261685	-1.811354	-0.971263
C56	C	-0.261657	-1.811344	-1.036699
C57	C	-0.341791	-1.657736	-1.036664
C58	C	-0.341813	-1.657739	-0.971229
C59	C	-0.301761	-1.734555	-0.938532
C60	C	-0.301883	-1.734358	-0.139039
C61	C	-0.301711	-1.734548	-0.069398
H62	H	-0.540400	-1.873587	-0.229162
H63	H	-0.540446	-1.594960	-0.374443
H64	H	-0.659160	-1.595045	-0.374455
H65	H	-0.659108	-1.873681	-0.229187
H66	H	-0.742155	-1.930612	-0.292957
Br67	Br	-0.878601	-1.989422	-0.290321
H68	H	-0.374447	-1.595203	-0.944580
H69	H	-0.374539	-1.595188	-0.659654
H70	H	-0.199370	-1.751843	-0.861508
Br71	Br	-0.724589	-1.479495	-0.313358
Br72	Br	-0.207468	-1.915580	-0.523249
Br73	Br	-0.434849	-1.712093	-0.879249
Br74	Br	-0.396334	-1.553468	-0.523167
H75	H	-0.229023	-1.873887	-1.063347
H76	H	-0.404235	-1.716929	-0.742783
H77	H	-0.229165	-1.873875	-0.659710
Br78	Br	-0.926267	-1.915549	-0.207490
Br79	Br	-0.168771	-1.757018	-0.725032
H80	H	-0.229068	-1.873896	-0.944640
Br81	Br	-1.080502	-1.915689	-0.207535
H82	H	-1.062797	-1.595336	-0.374530
Br83	Br	-0.926329	-1.553547	-0.396240
H84	H	-0.374398	-1.595196	-1.063291
Br85	Br	-0.878821	-1.479607	-0.313384
