data_functionalizedCrystal
_audit_creation_method	'MofGen! by Chris Wilmer'
_symmetry_space_group_name_H-M	'P1'
_symmetry_Int_Tables_number	1
_symmetry_cell_setting	triclinic
loop_
_symmetry_equiv_pos_as_xyz
  x,y,z
_cell_length_a	19.188928
_cell_length_b	22.610064
_cell_length_c	19.188930
_cell_angle_alpha	90.001060
_cell_angle_beta	96.855705
_cell_angle_gamma	89.975098
loop_
_atom_site_label
_atom_site_type_symbol
_atom_site_fract_x
_atom_site_fract_y
_atom_site_fract_z
O1	O	-0.926151	0.049420	0.087150
O2	O	-0.722839	0.049372	0.098886
O3	O	-0.830362	0.049386	-0.008638
O4	O	-0.818628	0.049406	0.194674
O5	O	-0.830343	-0.048983	-0.008622
O6	O	-0.722820	-0.048997	0.098902
O7	O	-0.926132	-0.048949	0.087166
Zn8	Zn	-0.824473	-0.064592	0.093036
Zn9	Zn	-0.824498	0.065014	0.093016
O10	O	-0.818609	-0.048963	0.194690
C11	C	-0.696819	0.000181	0.098514
C12	C	-0.619314	0.000162	0.097374
N13	N	-0.824461	-0.153044	0.093050
C14	C	-0.574390	0.000176	0.160465
C15	C	-0.501566	0.000179	0.159394
C16	C	-0.473670	0.000181	0.095229
C17	C	-0.518603	0.000163	0.032129
C18	C	-0.591426	0.000154	0.033202
N19	N	-0.365696	0.033674	0.046177
N20	N	-0.296517	0.033684	0.045162
C21	C	-0.254261	0.000207	0.091992
N22	N	-0.283795	-0.033273	0.139886
N23	N	-0.352980	-0.033280	0.140903
C24	C	-0.394707	0.000190	0.094058
C25	C	-0.130372	0.000224	0.153927
C26	C	-0.057547	0.000224	0.152853
C27	C	-0.074586	0.000214	0.025586
C28	C	-0.147409	0.000208	0.026661
C29	C	-0.175298	0.000216	0.090833
C30	C	-0.872111	-0.561679	0.045411
C31	C	-0.872115	-0.623599	0.045406
O32	O	-0.912599	-0.655613	0.004913
N33	N	-0.824498	-0.654581	0.093001
C34	C	-0.776869	-0.623640	0.140599
O35	O	-0.736366	-0.655678	0.181082
C36	C	-0.776862	-0.561721	0.140601
C37	C	-0.824488	-0.530742	0.093007
C38	C	-0.919732	-0.530700	-0.002178
C39	C	-0.919729	-0.468785	-0.002172
C40	C	-0.872106	-0.437848	0.045424
C41	C	-0.824485	-0.468827	0.093014
C42	C	-0.729231	-0.530781	0.188195
C43	C	-0.729228	-0.468858	0.188192
C44	C	-0.776853	-0.437879	0.140599
C45	C	-0.776858	-0.375974	0.140616
N46	N	-0.824475	-0.344992	0.093021
C47	C	-0.872099	-0.375929	0.045425
C48	C	-0.776885	-0.753674	0.140593
C49	C	-0.776894	-0.815591	0.140595
C50	C	-0.872139	-0.815546	0.045401
C51	C	-0.872133	-0.753627	0.045402
C52	C	-0.824502	-0.722692	0.092998
C53	C	-0.872090	-0.245902	0.045442
C54	C	-0.872085	-0.183981	0.045454
C55	C	-0.776837	-0.184031	0.140645
C56	C	-0.776844	-0.245947	0.140636
C57	C	-0.824474	-0.276881	0.093028
O58	O	-0.736393	-0.343922	0.181087
O59	O	-0.912589	-0.343883	0.004943
C60	C	0.047848	0.000233	0.087540
C61	C	-0.029656	0.000224	0.088686
C62	C	-0.829973	0.000199	-0.034641
C63	C	-0.828832	0.000194	-0.112145
N64	N	-0.824516	0.153467	0.092996
C65	C	-0.891923	0.000206	-0.157070
C66	C	-0.890851	0.000215	-0.229893
C67	C	-0.826685	0.000201	-0.257789
C68	C	-0.763586	0.000192	-0.212855
C69	C	-0.764659	0.000188	-0.140033
N70	N	-0.777631	-0.033288	-0.365789
N71	N	-0.776616	-0.033286	-0.434967
C72	C	-0.823447	0.000212	-0.477198
N73	N	-0.871343	0.033700	-0.447638
N74	N	-0.872360	0.033696	-0.378454
C75	C	-0.825514	0.000205	-0.336752
C76	C	-0.885380	0.000235	-0.601087
C77	C	-0.884306	0.000248	-0.673912
C78	C	-0.757039	0.000218	-0.656872
C79	C	-0.758115	0.000211	-0.584049
C80	C	-0.822287	0.000217	-0.556161
C81	C	-0.818998	0.000225	0.220693
C82	C	-0.820139	0.000234	0.298197
H83	H	-0.597092	0.000183	0.212720
Br84	Br	-0.712209	-0.142036	0.205240
H85	H	-0.935684	0.000261	-0.710489
Br86	Br	-0.440586	0.000194	0.245024
H87	H	-0.706739	0.000198	-0.547470
Br88	Br	-0.676502	0.000179	-0.250712
H89	H	-0.020970	0.000232	0.204231
H90	H	-0.944177	0.000213	-0.134369
H91	H	-0.628004	0.000143	-0.018176
Br92	Br	-0.679029	0.000174	-0.079059
Br93	Br	-0.712269	-0.857627	0.205200
H94	H	-0.704793	0.000209	-0.679584
Br95	Br	-0.036735	0.000206	-0.061498
H96	H	-0.495885	0.000173	-0.020115
Br97	Br	-0.936772	-0.857545	-0.019194
H98	H	-0.738100	-0.728489	0.179356
Br99	Br	-0.168225	0.000230	0.241015
H100	H	-0.183988	0.000200	-0.024715
Br101	Br	-0.984372	-0.572675	-0.066782
H102	H	-0.910869	-0.158760	0.006698
Br103	Br	-0.936730	-0.287873	-0.019170
H104	H	-0.910913	-0.728408	0.006648
Br105	Br	-0.984362	-0.426749	-0.066769
Br106	Br	-0.972469	0.000236	-0.563235
H107	H	-0.690450	-0.555996	0.226949
Br108	Br	-0.664579	-0.426878	0.252787
H109	H	-0.738070	-0.271170	0.179397
H110	H	-0.942229	0.000228	-0.266478
