data_functionalizedCrystal
_audit_creation_method	'MofGen! by Chris Wilmer'
_symmetry_space_group_name_H-M	'P1'
_symmetry_Int_Tables_number	1
_symmetry_cell_setting	triclinic
loop_
_symmetry_equiv_pos_as_xyz
  x,y,z
_cell_length_a	15.944551
_cell_length_b	12.837942
_cell_length_c	11.892283
_cell_angle_alpha	94.307221
_cell_angle_beta	93.886446
_cell_angle_gamma	90.836161
loop_
_atom_site_label
_atom_site_type_symbol
_atom_site_fract_x
_atom_site_fract_y
_atom_site_fract_z
O1	O	1.120373	-0.140325	-0.094111
O2	O	0.877143	-0.156807	-0.094090
O3	O	0.993365	0.002338	-0.094093
O4	O	1.004151	-0.299470	-0.094108
O5	O	1.003034	0.015585	0.093909
O6	O	0.886812	-0.143559	0.093913
O7	O	1.130042	-0.127077	0.093891
Zn8	Zn	1.009963	-0.133215	0.123751
Zn9	Zn	0.997223	-0.150669	-0.123950
O10	O	1.013820	-0.286222	0.093894
C11	C	0.994556	0.047582	-0.000092
C12	C	0.983688	0.162660	-0.000093
C13	C	1.156556	-0.134386	-0.000116
C14	C	1.249965	-0.136439	-0.000131
C15	C	0.850629	-0.149499	-0.000086
C16	C	0.757220	-0.147446	-0.000077
C17	C	1.473107	-0.239986	-0.000111
C18	C	1.525513	-0.198433	-0.092802
C19	C	1.420989	-0.140149	-0.000115
C20	C	1.535022	-0.185348	0.092553
C21	C	1.586190	-0.143740	-0.000095
C22	C	1.472161	-0.098574	-0.092883
C23	C	1.481669	-0.085497	0.092555
C24	C	1.534051	-0.043873	-0.000159
C25	C	1.325821	-0.138083	-0.000128
C26	C	1.681356	-0.145798	-0.000090
C27	C	1.012630	-0.331467	-0.000109
C28	C	1.023497	-0.446545	-0.000116
N29	N	1.018663	-0.121302	0.292800
C30	C	1.114338	0.403607	-0.000128
C31	C	1.104131	0.511733	-0.000129
C32	C	0.953066	0.487041	-0.000104
C33	C	0.963273	0.378915	-0.000103
C34	C	1.043912	0.337202	-0.000114
C35	C	1.054119	0.229074	-0.000104
C36	C	0.903054	0.204383	-0.000087
C37	C	0.892847	0.312510	-0.000088
N38	N	0.988528	-0.162574	-0.292999
C39	C	1.079291	-0.038356	0.470302
C40	C	1.073191	-0.046692	0.351964
C41	C	0.970234	-0.187584	0.351983
C42	C	0.976333	-0.179249	0.470322
C43	C	1.030863	-0.104631	0.529477
C44	C	1.036958	-0.096292	0.647818
C45	C	0.934005	-0.237189	0.647835
C46	C	0.927905	-0.245524	0.529497
H47	H	1.544975	-0.246184	-0.171167
C48	C	1.181600	0.584776	-0.000139
H49	H	1.231085	0.544444	-0.000137
H50	H	1.177385	0.622849	-0.065699
H51	H	1.184132	0.632090	0.065431
H52	H	0.887412	0.521022	-0.000108
H53	H	1.112627	0.007275	0.303787
H54	H	0.925843	-0.248343	0.303804
H55	H	0.894569	-0.291152	0.696029
C56	C	0.804152	0.358401	-0.000070
H57	H	0.808158	0.432308	-0.000065
H58	H	0.771410	0.330983	-0.065620
H59	H	0.778172	0.340233	0.065509
C60	C	1.139263	0.043721	0.535382
H61	H	1.135954	0.039198	0.614335
H62	H	1.195224	0.031062	0.515972
H63	H	1.123594	0.111550	0.515998
C64	C	0.825580	0.131340	-0.000067
H65	H	0.776096	0.171673	-0.000050
H66	H	0.823043	0.084016	-0.065621
H67	H	0.829800	0.093279	0.065508
H68	H	1.444763	-0.061913	-0.171337
H69	H	0.883510	-0.306279	0.481319
C70	C	1.437053	-0.351938	-0.000232
H71	H	1.407369	-0.358022	0.065661
H72	H	1.399833	-0.366761	-0.065466
H73	H	1.481723	-0.400098	-0.000948
H74	H	1.560567	0.039069	-0.000201
H75	H	1.462192	-0.037784	0.170928
H76	H	1.179999	0.369645	-0.000126
C77	C	1.572158	-0.234948	0.198421
H78	H	1.551207	-0.304616	0.198296
H79	H	1.631710	-0.235319	0.198040
H80	H	1.556448	-0.195517	0.264244
H81	H	1.081356	-0.035532	0.695981
C82	C	1.142817	0.183190	-0.000120
H83	H	1.183297	0.238228	-0.000140
H84	H	1.153318	0.146146	0.065439
H85	H	1.146561	0.136900	-0.065690
