data_functionalizedCrystal
_audit_creation_method	'MofGen! by Chris Wilmer'
_symmetry_space_group_name_H-M	'P1'
_symmetry_Int_Tables_number	1
_symmetry_cell_setting	triclinic
loop_
_symmetry_equiv_pos_as_xyz
  x,y,z
_cell_length_a	17.699083
_cell_length_b	15.995350
_cell_length_c	16.776229
_cell_angle_alpha	89.995580
_cell_angle_beta	89.998886
_cell_angle_gamma	83.387695
loop_
_atom_site_label
_atom_site_type_symbol
_atom_site_fract_x
_atom_site_fract_y
_atom_site_fract_z
O1	O	1.004255	0.105885	-0.066173
O2	O	0.783899	0.119661	-0.066198
O3	O	0.900100	-0.009127	-0.066184
O4	O	0.888053	0.234673	-0.066187
O5	O	0.900085	-0.009135	0.066393
O6	O	0.783884	0.119653	0.066378
O7	O	1.004239	0.105877	0.066404
Zn8	Zn	0.894059	0.112764	0.087441
Zn9	Zn	0.894079	0.112774	-0.087235
O10	O	0.888038	0.234665	0.066390
C11	C	0.755694	0.119163	0.000087
C12	C	0.671673	0.117683	0.000077
C13	C	0.623178	0.193278	0.000076
C14	C	0.544232	0.191882	0.000087
C15	C	0.513783	0.114889	0.000092
C16	C	0.562285	0.039287	0.000095
C17	C	0.641229	0.040685	0.000090
C18	C	0.243912	0.033651	0.000115
C19	C	0.164962	0.032259	0.000117
C20	C	0.146916	0.184848	0.000111
C21	C	0.225860	0.186245	0.000106
C22	C	0.274354	0.110644	0.000114
C23	C	0.359956	0.112159	0.000104
C24	C	0.428183	0.113373	0.000096
C25	C	0.899595	-0.040324	0.000103
C26	C	0.898101	-0.133272	0.000098
C27	C	0.892739	-0.471008	0.000100
C28	C	0.809983	-0.423406	-0.000207
C29	C	0.811476	-0.326719	0.000092
C30	C	0.895399	-0.303453	0.000099
C31	C	0.936209	-0.344618	0.075810
C32	C	0.934130	-0.441250	0.075873
C33	C	0.935857	-0.441602	-0.074891
C34	C	0.935837	-0.344657	-0.075892
C35	C	0.896907	-0.208759	0.000101
C36	C	0.891234	-0.565703	0.000104
C37	C	1.032445	0.106375	0.000117
C38	C	1.116465	0.107856	0.000122
C39	C	0.888544	0.265863	0.000101
C40	C	0.890037	0.358810	0.000101
N41	N	0.894051	0.112756	0.206652
N42	N	0.894094	0.112775	-0.206446
C43	C	0.945520	0.055752	0.248375
C44	C	0.945524	0.055752	0.331827
C45	C	0.894062	0.112760	0.373555
C46	C	0.842587	0.169766	0.331825
C47	C	0.842580	0.169762	0.248375
C48	C	0.842614	0.169783	0.668373
C49	C	0.842627	0.169784	0.751829
C50	C	0.945559	0.055772	0.751825
C51	C	0.945552	0.055768	0.668375
C52	C	0.894074	0.112771	0.626653
C53	C	0.894069	0.112770	0.536164
C54	C	0.894070	0.112765	0.464041
H55	H	0.680714	-0.020873	0.000090
H56	H	0.908806	-0.462084	-0.132275
H57	H	0.504750	0.253440	0.000085
H58	H	0.800681	0.216180	0.365805
H59	H	0.777046	-0.442936	0.053777
H60	H	0.800717	0.216208	0.785802
N61	N	1.012614	-0.325552	-0.081647
N62	N	1.033357	-0.286863	-0.141031
H63	H	1.087585	-0.273373	-0.145095
H64	H	0.987460	0.009350	0.634403
N65	N	0.898449	-0.310329	-0.146152
N66	N	0.842230	-0.255718	-0.140344
H67	H	0.815822	-0.231469	-0.189964
N68	N	1.012402	-0.481594	-0.075509
N69	N	1.035190	-0.531547	-0.021019
H70	H	1.089249	-0.559791	-0.021446
H71	H	0.907852	-0.316183	0.132147
N72	N	0.998135	-0.002456	0.794457
N73	N	0.998136	-0.002451	0.868966
H74	H	1.035268	-0.043572	0.899074
N75	N	0.998054	-0.002531	0.205768
N76	N	1.043973	-0.053457	0.243035
H77	H	1.081059	-0.094643	0.212947
N78	N	0.133845	-0.046384	0.000123
N79	N	0.091804	-0.064185	-0.055758
H80	H	0.069824	-0.119722	-0.055755
N81	N	0.097389	0.262083	0.000106
N82	N	0.100163	0.313325	-0.055783
H83	H	0.065187	0.367872	-0.055789
N84	N	0.998102	-0.002485	0.374434
N85	N	1.044048	-0.053379	0.337168
H86	H	1.081183	-0.094513	0.367258
H87	H	0.779397	-0.298228	-0.054181
N88	N	0.768503	-0.446563	-0.068326
N89	N	0.799445	-0.498423	-0.117442
H90	H	0.770151	-0.514781	-0.165555
H91	H	0.800667	0.216180	0.214404
H92	H	0.800701	0.216198	0.634409
H93	H	0.250646	0.248941	0.000098
N94	N	0.654264	0.271934	0.000064
N95	N	0.610952	0.339424	0.000065
H96	H	0.632904	0.394977	0.000058
N97	N	1.010351	-0.481853	0.080199
N98	N	1.064909	-0.438796	0.083167
H99	H	1.118740	-0.467468	0.086228
H100	H	0.904358	-0.459494	0.132463
N101	N	0.293439	-0.043573	0.000129
N102	N	0.290661	-0.094817	0.056014
H103	H	0.325642	-0.149361	0.056024
N104	N	0.531184	-0.039360	0.000117
N105	N	0.489149	-0.057165	0.056005
H106	H	0.467186	-0.112712	0.056021
N107	N	0.770940	-0.291677	0.068278
N108	N	0.702250	-0.300819	0.077133
H109	H	0.673620	-0.276072	0.125293
N110	N	1.013555	-0.327056	0.079340
N111	N	1.039525	-0.283899	0.025969
H112	H	1.094151	-0.271494	0.028460
