data_functionalizedCrystal
_audit_creation_method	'MofGen! by Chris Wilmer'
_symmetry_space_group_name_H-M	'P1'
_symmetry_Int_Tables_number	1
_symmetry_cell_setting	triclinic
loop_
_symmetry_equiv_pos_as_xyz
  x,y,z
_cell_length_a	10.654562
_cell_length_b	16.974813
_cell_length_c	9.730223
_cell_angle_alpha	86.344112
_cell_angle_beta	89.996961
_cell_angle_gamma	83.941369
loop_
_atom_site_label
_atom_site_type_symbol
_atom_site_fract_x
_atom_site_fract_y
_atom_site_fract_z
O1	O	1.666095	0.111100	-0.126734
O2	O	1.300454	0.121670	-0.127893
O3	O	1.493469	0.001338	-0.114512
O4	O	1.473081	0.231432	-0.140115
O5	O	1.493466	0.001341	0.114068
O6	O	1.300452	0.121673	0.100687
O7	O	1.666093	0.111103	0.101845
Zn8	Zn	1.483272	0.116388	0.137558
Zn9	Zn	1.483275	0.116384	-0.163606
O10	O	1.473079	0.231435	0.088464
C11	C	1.253668	0.120893	-0.013514
C12	C	1.114261	0.118565	-0.013249
C13	C	1.048746	0.117481	0.111460
C14	C	0.917758	0.115299	0.111680
C15	C	0.917811	0.115290	-0.137529
C16	C	1.048798	0.117466	-0.137747
C17	C	1.048714	0.117489	0.255339
C18	C	0.917726	0.115308	0.255559
C19	C	1.492692	-0.028123	0.003053
C20	C	1.490367	-0.115913	0.012814
C21	C	1.489278	-0.157153	-0.107199
C22	C	1.487085	-0.239640	-0.098023
C23	C	1.485990	-0.280885	0.031166
C24	C	1.487074	-0.239639	0.151187
C25	C	1.489258	-0.157153	0.142010
C26	C	1.479449	-0.527582	0.071971
C27	C	1.477269	-0.610074	0.081139
C28	C	1.477278	-0.610070	-0.168073
C29	C	1.479469	-0.527583	-0.177238
C30	C	1.480547	-0.486342	-0.057216
N31	N	1.483752	-0.365201	0.040547
N32	N	1.482776	-0.402028	-0.066599
C33	C	1.712880	0.111879	-0.012536
C34	C	1.852286	0.114208	-0.012811
C35	C	1.473855	0.260896	-0.029104
C36	C	1.476181	0.348685	-0.038874
N37	N	1.483279	0.116391	0.343094
N38	N	1.483278	0.116376	-0.369141
C39	C	1.568768	0.063126	0.420943
C40	C	1.568765	0.063116	0.564827
C41	C	1.397780	0.169643	0.553000
C42	C	1.397779	0.169648	0.409119
C43	C	1.667488	0.001626	0.427773
C44	C	1.667485	0.001616	0.571657
H45	H	1.095824	0.062847	0.316672
H46	H	1.486175	-0.273226	0.256375
H47	H	1.490127	-0.123574	0.239737
H48	H	1.102138	0.118336	-0.239296
H49	H	0.870589	0.169953	0.304714
H50	H	1.763785	0.015166	0.609195
H51	H	1.480352	-0.494016	0.169702
H52	H	1.490177	-0.123578	-0.212398
C53	C	1.087462	0.195389	0.306998
N54	N	1.116648	0.254063	0.345909
H55	H	1.480363	-0.494006	-0.282437
C56	C	0.845788	0.114084	-0.274471
N57	N	0.791541	0.113178	-0.377618
C58	C	0.878957	0.037413	0.324562
N59	N	0.849755	-0.021254	0.376538
H60	H	1.486204	-0.273215	-0.195750
H61	H	1.328157	0.213014	0.345736
C62	C	1.476078	-0.655439	-0.300087
N63	N	1.475167	-0.689612	-0.399526
C64	C	1.476059	-0.655442	0.223263
N65	N	1.475150	-0.689613	0.330305
C66	C	1.303733	0.228222	0.625641
N67	N	1.232894	0.272345	0.680352
C68	C	1.639789	-0.080475	0.384143
N69	N	1.618923	-0.142311	0.351281
C70	C	1.627456	-0.075966	0.640572
N71	N	1.597299	-0.134397	0.692481
H72	H	1.758371	0.020886	0.380999
