data_functionalizedCrystal
_audit_creation_method	'MofGen! by Chris Wilmer'
_symmetry_space_group_name_H-M	'P1'
_symmetry_Int_Tables_number	1
_symmetry_cell_setting	triclinic
loop_
_symmetry_equiv_pos_as_xyz
  x,y,z
_cell_length_a	29.839134
_cell_length_b	17.077402
_cell_length_c	17.077396
_cell_angle_alpha	89.970216
_cell_angle_beta	89.970675
_cell_angle_gamma	90.017744
loop_
_atom_site_label
_atom_site_type_symbol
_atom_site_fract_x
_atom_site_fract_y
_atom_site_fract_z
Zn1	Zn	0.686810	-0.312616	-0.444041
Zn2	Zn	0.686757	-0.443891	-0.312772
Zn3	Zn	0.611683	-0.312631	-0.312767
Zn4	Zn	0.611665	-0.443832	-0.443973
O5	O	0.649229	-0.378242	-0.378388
O6	O	0.749670	-0.330048	-0.426659
O7	O	0.676784	-0.426510	-0.202925
O8	O	0.621679	-0.202782	-0.330207
O9	O	0.749631	-0.426495	-0.330216
O10	O	0.676874	-0.202771	-0.426654
O11	O	0.621627	-0.330074	-0.202921
O12	O	0.548814	-0.330017	-0.330141
O13	O	0.621648	-0.426395	-0.553829
O14	O	0.548800	-0.426409	-0.426538
O15	O	0.676857	-0.329991	-0.553879
O16	O	0.676766	-0.553730	-0.330150
O17	O	0.621596	-0.553686	-0.426543
C18	C	0.649185	-0.582190	-0.378357
C19	C	0.649208	-0.669440	-0.378370
C20	C	0.532506	-0.378209	-0.378332
C21	C	0.482572	-0.378214	-0.378326
C22	C	0.677964	-0.710426	-0.328232
C23	C	0.677986	-0.792407	-0.328252
C24	C	0.649249	-0.833399	-0.378407
C25	C	0.620492	-0.792407	-0.428550
C26	C	0.620472	-0.710428	-0.428533
C27	C	0.620533	-0.963277	-0.428580
C28	C	0.620552	-1.045261	-0.428596
C29	C	0.678047	-1.045256	-0.328299
C30	C	0.678028	-0.963277	-0.328282
C31	C	0.649270	-0.922290	-0.378425
C32	C	0.172931	-0.428508	-0.428521
C33	C	-0.014742	-0.428530	-0.428556
O34	O	-0.039005	-0.471255	-0.471199
N35	N	-0.038213	-0.378271	-0.378448
C36	C	-0.014763	-0.327999	-0.328331
O37	O	-0.039033	-0.285245	-0.285717
C38	C	0.172909	-0.327974	-0.328300
C39	C	0.196378	-0.378242	-0.378406
C40	C	0.196400	-0.478771	-0.478623
C41	C	0.243315	-0.478768	-0.478611
C42	C	0.266762	-0.428502	-0.428496
C43	C	0.243293	-0.378239	-0.378394
C44	C	0.196358	-0.277698	-0.278188
C45	C	0.243279	-0.277695	-0.278186
C46	C	0.266748	-0.327963	-0.328292
C47	C	0.313655	-0.327969	-0.328267
N48	N	0.337126	-0.378228	-0.378375
C49	C	0.313680	-0.428495	-0.428490
C50	C	-0.113294	-0.328017	-0.328349
C51	C	-0.160212	-0.328024	-0.328356
C52	C	-0.160187	-0.428555	-0.428582
C53	C	-0.113269	-0.428551	-0.428571
C54	C	-0.089823	-0.378276	-0.378457
C55	C	0.412205	-0.428485	-0.428460
C56	C	0.459125	-0.428480	-0.428441
C57	C	0.459097	-0.327947	-0.328218
C58	C	0.412181	-0.327955	-0.328234
C59	C	0.388737	-0.378227	-0.378361
O60	O	0.337947	-0.285260	-0.285652
O61	O	0.337958	-0.471230	-0.471109
C62	C	0.126015	-0.428511	-0.428533
C63	C	0.102547	-0.378248	-0.378431
C64	C	0.125993	-0.327981	-0.328316
C65	C	0.055629	-0.378255	-0.378437
C66	C	0.032182	-0.428521	-0.428552
C67	C	0.055653	-0.478781	-0.478660
C68	C	0.102569	-0.478778	-0.478648
C69	C	0.102522	-0.277722	-0.278208
C70	C	0.055607	-0.277730	-0.278224
C71	C	0.032160	-0.327996	-0.328338
C72	C	0.766407	-0.378276	-0.378446
C73	C	0.816342	-0.378291	-0.378470
C74	C	0.649256	-0.378184	-0.583133
C75	C	0.649268	-0.378160	-0.670383
C76	C	0.649285	-0.173498	-0.378437
C77	C	0.649308	-0.086248	-0.378458
C78	C	0.678016	-0.327958	-0.711400
C79	C	0.678021	-0.327932	-0.793381
C80	C	0.649280	-0.378112	-0.834342
C81	C	0.620529	-0.428316	-0.793319
C82	C	0.620522	-0.428337	-0.711340
C83	C	0.620547	-0.428269	-0.964189
C84	C	0.620555	-0.428248	-1.046174
C85	C	0.678047	-0.327863	-1.046230
C86	C	0.678039	-0.327885	-0.964251
C87	C	0.649288	-0.378090	-0.923233
C88	C	0.649228	-0.378243	-0.174441
C89	C	0.649303	-0.378047	-0.087191
H90	H	0.701363	-0.677056	-0.287387
H91	H	0.701456	-0.286983	-1.079630
H92	H	0.393123	-0.469419	-0.469280
H93	H	0.597150	-0.469108	-1.079523
H94	H	-0.179286	-0.469483	-0.469387
H95	H	0.701422	-0.287098	-0.678055
H96	H	0.478231	-0.469417	-0.469244
H97	H	0.701402	-0.825775	-0.287424
H98	H	-0.179316	-0.287099	-0.287546
H99	H	0.597128	-0.469139	-0.930795
H100	H	0.701432	-0.287055	-0.826773
H101	H	0.478195	-0.287024	-0.287413
H102	H	0.701445	-0.287028	-0.930902
H103	H	0.701465	-1.078631	-0.287473
H104	H	0.597126	-0.469170	-0.826676
H105	H	0.597107	-0.469209	-0.677945
H106	H	0.262419	-0.519700	-0.519414
H107	H	0.177258	-0.236767	-0.237384
H108	H	0.121673	-0.519711	-0.519449
H109	H	0.701425	-0.929901	-0.287439
H110	H	-0.094208	-0.287077	-0.287537
H111	H	0.177314	-0.519705	-0.519437
H112	H	0.597160	-1.078635	-0.469451
H113	H	0.597117	-0.929908	-0.469414
H114	H	0.597057	-0.677057	-0.469362
H115	H	0.597096	-0.825789	-0.469390
H116	H	0.262366	-0.236750	-0.237382
H117	H	-0.094164	-0.469482	-0.469373
H118	H	0.393072	-0.287024	-0.287432
H119	H	0.036555	-0.519712	-0.519463
H120	H	0.121608	-0.236788	-0.237398
H121	H	0.036503	-0.236796	-0.237414
