data_functionalizedCrystal
_audit_creation_method	'MofGen! by Chris Wilmer'
_symmetry_space_group_name_H-M	'P1'
_symmetry_Int_Tables_number	1
_symmetry_cell_setting	triclinic
loop_
_symmetry_equiv_pos_as_xyz
  x,y,z
_cell_length_a	12.594517
_cell_length_b	12.759400
_cell_length_c	12.759393
_cell_angle_alpha	90.031564
_cell_angle_beta	89.978001
_cell_angle_gamma	89.985516
loop_
_atom_site_label
_atom_site_type_symbol
_atom_site_fract_x
_atom_site_fract_y
_atom_site_fract_z
Zn1	Zn	1.627284	0.418210	-0.594080
Zn2	Zn	2.127284	0.918210	-0.094080
Zn3	Zn	1.627177	0.593929	-0.418400
Zn4	Zn	2.127177	1.093929	0.081600
Zn5	Zn	1.449286	0.418264	-0.418408
Zn6	Zn	1.949286	0.918264	0.081592
Zn7	Zn	1.449274	0.593847	-0.594030
Zn8	Zn	1.949274	1.093847	-0.094030
O9	O	1.538255	0.506062	-0.506229
O10	O	2.038255	1.006062	-0.006229
O11	O	1.776216	0.441531	-0.570792
O12	O	2.276216	0.941531	-0.070792
O13	O	1.603540	0.570683	-0.271380
O14	O	2.103540	1.070683	0.228620
O15	O	1.472947	0.271236	-0.441736
O16	O	1.972947	0.771236	0.058264
O17	O	1.776137	0.570631	-0.441721
O18	O	2.276137	1.070631	0.058279
O19	O	1.603722	0.271196	-0.570800
O20	O	2.103722	0.771196	-0.070800
O21	O	1.472844	0.441623	-0.271386
O22	O	1.972844	0.941623	0.228614
O23	O	1.300339	0.441544	-0.441688
O24	O	1.800339	0.941544	0.058312
O25	O	1.472928	0.570491	-0.741058
O26	O	1.972928	1.070491	-0.241058
O27	O	1.300330	0.570544	-0.570717
O28	O	1.800330	1.070544	-0.070717
O29	O	1.603711	0.441452	-0.741094
O30	O	2.103711	0.941452	-0.241094
O31	O	1.603528	0.740939	-0.441673
O32	O	2.103528	1.240939	0.058327
O33	O	1.472824	0.740879	-0.570708
O34	O	1.972824	1.240879	-0.070708
C35	C	1.261714	0.506041	-0.506199
C36	C	1.761714	1.006041	-0.006199
C37	C	1.143409	0.506058	-0.506210
C38	C	1.643409	1.006058	-0.006210
C39	C	1.538192	0.779030	-0.506208
C40	C	2.038192	1.279030	-0.006208
C41	C	1.538263	0.895806	-0.506233
C42	C	2.038263	1.395806	-0.006233
C43	C	1.538330	0.505956	-0.780263
C44	C	2.038330	1.005956	-0.280263
C45	C	1.538362	0.505911	-0.897040
C46	C	2.038362	1.005911	-0.397040
C47	C	1.074130	0.435799	-0.436165
C48	C	1.574130	0.935799	0.063835
C49	C	1.003321	0.531634	-0.410323
C50	C	1.503321	1.031634	0.089677
C51	C	1.003419	0.410269	-0.532070
C52	C	1.503419	0.910269	-0.032070
C53	C	1.074158	0.601943	-0.480318
C54	C	1.574158	1.101943	0.019682
C55	C	1.074263	0.480514	-0.602110
C56	C	1.574263	0.980514	-0.102110
C57	C	1.003486	0.576415	-0.576304
C58	C	1.503486	1.076415	-0.076304
C59	C	1.815876	0.506084	-0.506261
C60	C	2.315876	1.006084	-0.006261
C61	C	1.934182	0.506094	-0.506275
C62	C	2.434182	1.006094	-0.006275
C63	C	1.538348	0.232029	-0.506274
C64	C	2.038348	0.732029	-0.006274
C65	C	1.538387	0.115252	-0.506294
C66	C	2.038387	0.615252	-0.006294
C67	C	1.606396	0.950665	-0.439119
C68	C	2.106396	1.450665	0.060881
C69	C	1.606461	1.060389	-0.439151
C70	C	2.106461	1.560389	0.060849
C71	C	1.470251	1.060386	-0.573415
C72	C	1.970251	1.560386	-0.073415
C73	C	1.470192	0.950664	-0.573387
C74	C	1.970192	1.450664	-0.073387
C75	C	1.674467	0.895807	-0.371965
C76	C	2.174467	1.395807	0.128035
C77	C	1.742605	0.950666	-0.304844
C78	C	2.242605	1.450666	0.195156
C79	C	1.742670	1.060390	-0.304877
C80	C	2.242670	1.560390	0.195123
C81	C	1.674597	1.115255	-0.372030
C82	C	2.174597	1.615255	0.127970
C83	C	1.606470	0.438714	-0.951922
C84	C	2.106470	0.938714	-0.451922
C85	C	1.606495	0.438676	-1.061646
C86	C	2.106495	0.938676	-0.561646
C87	C	1.470301	0.573042	-1.061596
C88	C	1.970301	1.073042	-0.561596
C89	C	1.470271	0.573073	-0.951874
C90	C	1.970271	1.073073	-0.451874
C91	C	1.674560	0.371551	-0.897088
C92	C	2.174560	0.871551	-0.397088
C93	C	1.742675	0.304349	-0.951971
C94	C	2.242675	0.804349	-0.451971
C95	C	1.742700	0.304311	-1.061695
C96	C	2.242700	0.804311	-0.561695
C97	C	1.674611	0.371475	-1.116537
C98	C	2.174611	0.871475	-0.616537
C99	C	1.538242	0.506092	-0.233262
C100	C	2.038242	1.006092	0.266738
C101	C	1.538417	0.505841	-0.116486
C102	C	2.038417	1.005841	0.383514
H103	H	0.972161	0.553262	-0.329250
H104	H	1.472161	1.053262	0.170750
N105	N	1.396880	0.645478	-1.120757
N106	N	1.896880	1.145478	-0.620757
H107	H	1.413375	0.720554	-1.101649
H108	H	1.913375	1.220554	-0.601649
H109	H	1.320858	0.629071	-1.101643
H110	H	1.820858	1.129071	-0.601643
H111	H	1.798154	0.249585	-1.106378
H112	H	2.298154	0.749585	-0.606378
H113	H	1.414795	0.627775	-0.907187
H114	H	1.914795	1.127775	-0.407187
H115	H	1.414829	1.105066	-0.628087
H116	H	1.914829	1.605066	-0.128087
H117	H	0.972290	0.329258	-0.553880
H118	H	1.472290	0.829258	-0.053880
N119	N	0.962640	0.655216	-0.654806
N120	N	1.462640	1.155216	-0.154806
H121	H	1.024584	0.691263	-0.689837
H122	H	1.524584	1.191263	-0.189837
H123	H	0.917429	0.709009	-0.617594
H124	H	1.417429	1.209009	-0.117594
N125	N	1.816120	0.231921	-0.892829
N126	N	2.316120	0.731921	-0.392829
H127	H	1.805779	0.242147	-0.814992
H128	H	2.305779	0.742147	-0.314992
H129	H	1.892128	0.248294	-0.912027
H130	H	2.392128	0.748294	-0.412027
N131	N	1.674633	0.371422	-1.234882
N132	N	2.174633	0.871422	-0.734882
H133	H	1.747648	0.390731	-1.261320
H134	H	2.247648	0.890731	-0.761320
H135	H	1.621122	0.424158	-1.261211
H136	H	2.121122	0.924158	-0.761211
N137	N	1.816160	1.119551	-0.232483
N138	N	2.316160	1.619551	0.267517
H139	H	1.772953	1.165150	-0.183772
H140	H	2.272953	1.665150	0.316228
H141	H	1.865481	1.164939	-0.275303
H142	H	2.365481	1.664939	0.224697
H143	H	1.105101	0.682989	-0.458382
H144	H	1.605101	1.182989	0.041618
H145	H	1.798034	0.905988	-0.250176
H146	H	2.298034	1.405988	0.249824
H147	H	1.105148	0.376441	-0.376858
H148	H	1.605148	0.876441	0.123142
H149	H	1.674665	1.204600	-0.372059
H150	H	2.174665	1.704600	0.127941
H151	H	1.674418	0.806464	-0.371928
H152	H	2.174418	1.306464	0.128072
H153	H	1.414712	0.905998	-0.628039
H154	H	1.914712	1.405998	-0.128039
N155	N	1.674537	0.371598	-0.778745
N156	N	2.174537	0.871598	-0.278745
H157	H	1.728005	0.318857	-0.752333
H158	H	2.228005	0.818857	-0.252333
H159	H	1.601488	0.352315	-0.752389
H160	H	2.101488	0.852315	-0.252389
H161	H	1.105448	0.458857	-0.683158
H162	H	1.605448	0.958857	-0.183158
