data_functionalizedCrystal
_audit_creation_method	'MofGen! by Chris Wilmer'
_symmetry_space_group_name_H-M	'P1'
_symmetry_Int_Tables_number	1
_symmetry_cell_setting	triclinic
loop_
_symmetry_equiv_pos_as_xyz
  x,y,z
_cell_length_a	9.065218
_cell_length_b	15.072220
_cell_length_c	9.065215
_cell_angle_alpha	90.000049
_cell_angle_beta	85.015291
_cell_angle_gamma	90.012623
loop_
_atom_site_label
_atom_site_type_symbol
_atom_site_fract_x
_atom_site_fract_y
_atom_site_fract_z
O1	O	1.960417	0.073783	0.216348
O2	O	2.460417	0.573783	0.716348
O3	O	1.531132	0.073784	0.234094
O4	O	2.031132	0.573784	0.734094
O5	O	1.754650	0.073780	0.010578
O6	O	2.254650	0.573780	0.510578
O7	O	1.736899	0.073787	0.439863
O8	O	2.236899	0.573787	0.939863
O9	O	1.754595	-0.073786	0.010590
O10	O	2.254595	0.426214	0.510590
O11	O	1.531077	-0.073781	0.234106
O12	O	2.031077	0.426219	0.734106
O13	O	1.960362	-0.073782	0.216359
O14	O	2.460362	0.426218	0.716359
Zn15	Zn	1.745710	-0.097211	0.225235
Zn16	Zn	2.245710	0.402789	0.725235
Zn17	Zn	1.745784	0.097213	0.225219
Zn18	Zn	2.245784	0.597213	0.725219
O19	O	1.736844	-0.073778	0.439875
O20	O	2.236844	0.426222	0.939875
C21	C	1.476118	0.000002	0.232394
C22	C	1.976118	0.500002	0.732394
C23	C	1.312275	0.000002	0.227295
C24	C	1.812275	0.500002	0.727295
N25	N	1.745671	-0.229900	0.225244
N26	N	2.245671	0.270100	0.725244
C27	C	1.745781	-0.589101	0.225213
C28	C	2.245781	-0.089101	0.725213
C29	C	1.625768	-0.551492	0.344400
C30	C	2.125768	-0.051492	0.844400
C31	C	1.626053	-0.448666	0.344845
C32	C	2.126053	0.051334	0.844845
C33	C	1.745725	-0.410897	0.225229
C34	C	2.245725	0.089103	0.725229
C35	C	1.900135	-0.448188	0.260913
C36	C	2.400135	0.051812	0.760913
C37	C	1.899464	-0.551046	0.261763
C38	C	2.399464	-0.051046	0.761763
C39	C	1.712752	-0.551204	0.070002
C40	C	2.212752	-0.051204	0.570002
C41	C	1.709233	-0.448341	0.070987
C42	C	2.209233	0.051659	0.570987
C43	C	1.745703	-0.310184	0.225235
C44	C	2.245703	0.189816	0.725235
C45	C	1.745813	-0.689815	0.225210
C46	C	2.245813	-0.189815	0.725210
C47	C	2.015376	0.000002	0.218059
C48	C	2.515376	0.500002	0.718059
C49	C	2.179219	0.000008	0.223159
C50	C	2.679219	0.500008	0.723159
C51	C	1.752917	-0.000002	-0.044403
C52	C	2.252917	0.499998	0.455597
C53	C	1.747819	0.000001	-0.208246
C54	C	2.247819	0.500001	0.291754
N55	N	1.745835	0.229901	0.225197
N56	N	2.245835	0.729901	0.725197
C57	C	1.738576	0.000006	0.494856
C58	C	2.238576	0.500006	0.994856
C59	C	1.743674	0.000009	0.658699
C60	C	2.243674	0.500009	1.158699
H61	H	1.511344	-0.423455	0.323281
H62	H	2.011344	0.076545	0.823281
H63	H	1.929560	-0.422417	0.372892
H64	H	2.429560	0.077583	0.872892
F65	F	1.475348	-0.583839	0.316622
F66	F	1.975348	-0.083839	0.816622
F67	F	1.827112	-0.582992	-0.045962
F68	F	2.327112	-0.082992	0.454038
F69	F	1.653260	-0.585247	0.494049
F70	F	2.153260	-0.085247	0.994049
H71	H	1.647358	-0.424050	0.459982
H72	H	2.147358	0.075950	0.959982
F73	F	1.560754	-0.416487	0.035649
F74	F	2.060754	0.083513	0.535649
F75	F	1.937096	-0.582392	0.409797
F76	F	2.437096	-0.082392	0.909797
H77	H	1.991668	-0.575922	0.178485
H78	H	2.491668	-0.075922	0.678485
H79	H	1.602490	-0.577195	0.036199
H80	H	2.102490	-0.077195	0.536199
H81	H	1.991658	-0.423721	0.176499
H82	H	2.491658	0.076279	0.676499
H83	H	1.790808	-0.422634	-0.022021
H84	H	2.290808	0.077366	0.477979
