data_functionalizedCrystal
_audit_creation_method	'MofGen! by Chris Wilmer'
_symmetry_space_group_name_H-M	'P1'
_symmetry_Int_Tables_number	1
_symmetry_cell_setting	triclinic
loop_
_symmetry_equiv_pos_as_xyz
  x,y,z
_cell_length_a	19.805407
_cell_length_b	13.897448
_cell_length_c	13.897441
_cell_angle_alpha	89.969401
_cell_angle_beta	89.977165
_cell_angle_gamma	90.017692
loop_
_atom_site_label
_atom_site_type_symbol
_atom_site_fract_x
_atom_site_fract_y
_atom_site_fract_z
Zn1	Zn	1.034798	-0.383984	-0.545435
Zn2	Zn	1.034724	-0.545306	-0.384137
Zn3	Zn	0.921607	-0.384026	-0.384148
Zn4	Zn	0.921594	-0.545239	-0.545383
O5	O	0.978181	-0.464639	-0.464776
O6	O	1.129505	-0.405394	-0.524056
O7	O	1.019693	-0.523957	-0.249156
O8	O	0.936658	-0.249039	-0.405569
O9	O	1.129451	-0.523916	-0.405550
O10	O	1.019820	-0.249008	-0.524066
O11	O	0.936586	-0.405466	-0.249165
O12	O	0.826888	-0.405401	-0.405519
O13	O	0.936636	-0.523802	-0.680372
O14	O	0.826879	-0.523843	-0.523978
O15	O	1.019807	-0.405329	-0.680410
O16	O	1.019681	-0.680279	-0.405500
O17	O	0.936564	-0.680229	-0.523967
C18	C	0.802325	-0.464620	-0.464745
C19	C	0.727093	-0.464636	-0.464754
C20	C	0.691761	-0.526401	-0.526336
C21	C	0.621073	-0.526403	-0.526350
C22	C	0.585717	-0.464643	-0.464776
C23	C	0.621053	-0.402871	-0.403191
C24	C	0.691741	-0.402865	-0.403183
C25	C	0.335980	-0.402892	-0.403223
C26	C	0.265288	-0.402905	-0.403234
C27	C	0.265313	-0.526430	-0.526389
C28	C	0.336000	-0.526424	-0.526381
C29	C	0.371330	-0.464649	-0.464801
C30	C	0.447978	-0.464646	-0.464788
C31	C	0.509070	-0.464650	-0.464783
C32	C	0.978131	-0.715253	-0.464748
C33	C	0.978172	-0.822467	-0.464768
C34	C	0.978243	-1.018762	-0.464829
C35	C	0.978202	-0.909530	-0.464798
C36	C	1.154723	-0.464658	-0.464808
C37	C	1.229955	-0.464666	-0.464821
C38	C	0.978229	-0.464554	-0.716369
C39	C	0.978249	-0.464517	-0.823583
C40	C	0.978249	-0.213046	-0.464825
C41	C	0.978278	-0.105832	-0.464846
C42	C	0.978268	-0.464452	-1.019878
C43	C	0.978255	-0.464491	-0.910646
C44	C	0.978172	-0.464654	-0.214161
C45	C	0.978283	-0.464419	-0.106948
H46	H	0.236503	-0.352606	-0.353093
O47	O	0.586679	-0.343012	-0.343279
C48	C	0.545747	-0.397852	-0.280902
H49	H	0.567035	-0.473813	-0.274801
H50	H	0.492184	-0.401220	-0.310728
C51	C	0.518486	-0.257303	-0.188205
C52	C	0.544635	-0.350597	-0.180706
H53	H	0.517797	-0.228152	-0.126401
H54	H	0.546060	-0.220354	-0.230232
H55	H	0.473853	-0.260122	-0.213064
H56	H	0.589270	-0.347776	-0.155859
H57	H	0.517068	-0.387544	-0.138673
H58	H	0.236538	-0.576727	-0.576535
O59	O	0.370375	-0.586517	-0.586058
C60	C	0.411249	-0.648732	-0.531034
H61	H	0.389920	-0.654608	-0.455056
H62	H	0.464824	-0.618895	-0.527754
C63	C	0.438534	-0.741843	-0.671309
C64	C	0.412335	-0.749067	-0.577993
H65	H	0.439207	-0.803733	-0.700277
H66	H	0.410999	-0.699926	-0.708381
H67	H	0.483178	-0.716975	-0.668563
H68	H	0.367689	-0.773923	-0.580741
H69	H	0.439863	-0.790991	-0.540922
H70	H	0.720543	-0.576697	-0.576473
H71	H	0.364737	-0.352598	-0.353073
H72	H	0.720507	-0.352564	-0.353042
H73	H	0.592309	-0.576700	-0.576495
