data_functionalizedCrystal
_audit_creation_method	'MofGen! by Chris Wilmer'
_symmetry_space_group_name_H-M	'P1'
_symmetry_Int_Tables_number	1
_symmetry_cell_setting	triclinic
loop_
_symmetry_equiv_pos_as_xyz
  x,y,z
_cell_length_a	10.686220
_cell_length_b	12.827892
_cell_length_c	10.686551
_cell_angle_alpha	85.594922
_cell_angle_beta	90.308082
_cell_angle_gamma	94.396976
loop_
_atom_site_label
_atom_site_type_symbol
_atom_site_fract_x
_atom_site_fract_y
_atom_site_fract_z
Zn1	Zn	1.972286	-0.254771	-0.562389
Zn2	Zn	1.956055	-0.443915	-0.352633
Zn3	Zn	1.746404	-0.281503	-0.368707
Zn4	Zn	1.762485	-0.441797	-0.578411
O5	O	1.859307	-0.355496	-0.465535
O6	O	2.145674	-0.269560	-0.521133
O7	O	1.914721	-0.434445	-0.179220
O8	O	1.776430	-0.131715	-0.394421
O9	O	2.133750	-0.408523	-0.367026
O10	O	1.942384	-0.112075	-0.536719
O11	O	1.760692	-0.315121	-0.191029
O12	O	1.572995	-0.313068	-0.409957
O13	O	1.803838	-0.404914	-0.751831
O14	O	1.584810	-0.430835	-0.564025
O15	O	1.957978	-0.267506	-0.740060
O16	O	1.930315	-0.589876	-0.382561
O17	O	1.788100	-0.588320	-0.548439
C18	C	1.533386	-0.374623	-0.490474
C19	C	1.393958	-0.382829	-0.501173
C20	C	1.859227	-0.627013	-0.465519
C21	C	1.859311	-0.743159	-0.465545
C22	C	1.929780	-0.795668	-0.383541
C23	C	1.929868	-0.915711	-0.383567
C24	C	2.186501	-0.336296	-0.440499
C25	C	2.325931	-0.328114	-0.429830
C26	C	1.884512	-0.332992	-0.792735
C27	C	1.895253	-0.323402	-0.932168
C28	C	1.859424	-0.082916	-0.465576
C29	C	1.859474	0.033241	-0.465594
C30	C	1.834273	-0.377834	-0.139602
C31	C	1.823775	-0.387115	-0.000151
H32	H	1.345526	-0.435960	-0.570436
H33	H	1.754366	-0.449003	-0.951684
C34	C	1.391342	-0.256342	-0.336257
C35	C	1.485670	-0.165373	-0.383950
C36	C	1.551090	-0.093601	-0.290375
C37	C	1.522181	-0.112796	-0.149108
C38	C	1.427848	-0.203769	-0.101408
C39	C	1.362428	-0.275542	-0.194983
H40	H	1.507074	-0.151160	-0.488531
H41	H	1.620921	-0.026257	-0.325687
H42	H	1.570608	-0.059666	-0.079839
H43	H	1.406444	-0.217982	0.003173
H44	H	1.292597	-0.342886	-0.159671
H45	H	1.964676	-0.261517	-0.980641
C46	C	2.011378	-0.976701	-0.288715
C47	C	1.949492	-1.061792	-0.194440
C48	C	2.031005	-1.122784	-0.099586
C49	C	2.174404	-1.098685	-0.099006
C50	C	2.236298	-1.013589	-0.193285
C51	C	2.154785	-0.952597	-0.288140
H52	H	1.843333	-1.079636	-0.194866
H53	H	1.985186	-1.185778	-0.029794
H54	H	2.234744	-1.143835	-0.028789
H55	H	2.342457	-0.995746	-0.192860
H56	H	2.200604	-0.889604	-0.357931
C57	C	1.777889	-0.802475	-0.560421
C58	C	1.675385	-0.887148	-0.513444
C59	C	1.593961	-0.946462	-0.608324
C60	C	1.615041	-0.921103	-0.750181
C61	C	1.717550	-0.836425	-0.797165
C62	C	1.798974	-0.777112	-0.702285
H63	H	1.659777	-0.905925	-0.408427
H64	H	1.518077	-1.009146	-0.573542
H65	H	1.554766	-0.965010	-0.820416
H66	H	1.733158	-0.817649	-0.902182
H67	H	1.874858	-0.714428	-0.737067
C68	C	2.011204	-0.736348	-0.288670
C69	C	1.949212	-0.671321	-0.194365
C70	C	2.030640	-0.612002	-0.099492
C71	C	2.174061	-0.617711	-0.098926
C72	C	2.236062	-0.682740	-0.193234
C73	C	2.154633	-0.742059	-0.288107
H74	H	1.843036	-0.667092	-0.194781
H75	H	1.984743	-0.563863	-0.029679
H76	H	2.234340	-0.573800	-0.028695
H77	H	2.342237	-0.686968	-0.192818
H78	H	2.200531	-0.790198	-0.357920
H79	H	1.799133	-0.921614	-0.535800
