data_functionalizedCrystal
_audit_creation_method	'MofGen! by Chris Wilmer'
_symmetry_space_group_name_H-M	'P1'
_symmetry_Int_Tables_number	1
_symmetry_cell_setting	triclinic
loop_
_symmetry_equiv_pos_as_xyz
  x,y,z
_cell_length_a	12.759395
_cell_length_b	13.897448
_cell_length_c	12.759387
_cell_angle_alpha	90.032384
_cell_angle_beta	90.019071
_cell_angle_gamma	90.019229
loop_
_atom_site_label
_atom_site_type_symbol
_atom_site_fract_x
_atom_site_fract_y
_atom_site_fract_z
Zn1	Zn	1.606232	-0.383928	0.593991
Zn2	Zn	1.606118	-0.545254	0.418306
Zn3	Zn	1.430535	-0.383979	0.418328
Zn4	Zn	1.430513	-0.545187	0.593945
O5	O	1.518349	-0.464587	0.506142
O6	O	1.753238	-0.405335	0.570696
O7	O	1.582787	-0.523911	0.271287
O8	O	1.453898	-0.248991	0.441659
O9	O	1.753154	-0.523861	0.441621
O10	O	1.582982	-0.248953	0.570718
O11	O	1.453787	-0.405423	0.271304
O12	O	1.283511	-0.405357	0.441614
O13	O	1.453862	-0.523745	0.740972
O14	O	1.283495	-0.523795	0.570639
O15	O	1.582961	-0.405269	0.741006
O16	O	1.582767	-0.680227	0.441576
O17	O	1.453751	-0.680177	0.570617
C18	C	1.245382	-0.464575	0.506124
C19	C	1.128605	-0.464593	0.506142
C20	C	1.518273	-0.715201	0.506112
C21	C	1.518336	-0.822415	0.506134
C22	C	1.128628	-0.588123	0.640278
C23	C	1.073778	-0.649895	0.707349
C24	C	0.964056	-0.649907	0.707362
C25	C	0.909182	-0.588138	0.640299
C26	C	0.964031	-0.526365	0.573227
C27	C	1.073756	-0.526362	0.573220
C28	C	0.964009	-0.402833	0.439098
C29	C	1.073731	-0.402824	0.439078
C30	C	0.909135	-0.341063	0.372035
C31	C	0.963984	-0.279294	0.304957
C32	C	1.073712	-0.279286	0.304946
C33	C	1.128580	-0.341052	0.372007
C34	C	1.518446	-1.018710	0.506200
C35	C	1.518382	-0.909478	0.506167
C36	C	1.792383	-0.464599	0.506161
C37	C	1.909159	-0.464605	0.506169
C38	C	1.518455	-0.212994	0.506196
C39	C	1.518500	-0.105780	0.506219
C40	C	1.518422	-0.464494	0.780176
C41	C	1.518453	-0.464454	0.896953
C42	C	1.518338	-0.464610	0.233175
C43	C	1.518510	-0.464378	0.116399
C44	C	1.652951	-0.341017	1.116432
C45	C	1.720153	-0.279351	1.061587
C46	C	1.720123	-0.279383	0.951866
C47	C	1.652887	-0.341090	0.896986
C48	C	1.585685	-0.402756	0.951830
C49	C	1.585719	-0.402715	1.061554
C50	C	1.451251	-0.526120	0.951797
C51	C	1.451273	-0.526085	1.061519
C52	C	1.384014	-0.587828	0.896917
C53	C	1.316805	-0.649490	0.951762
C54	C	1.316837	-0.649455	1.061490
C55	C	1.384071	-0.587751	1.116363
H56	H	1.217969	-0.588127	0.640266
H57	H	1.118469	-0.700185	0.761952
O58	O	0.910932	-0.709996	0.772553
C59	C	0.922521	-0.832470	0.905657
C60	C	0.982814	-0.764490	0.831861
H61	H	0.980611	-0.876533	0.953643
H62	H	0.871143	-0.882920	0.857381
H63	H	0.871162	-0.788227	0.960633
H64	H	1.034230	-0.808656	0.776870
H65	H	1.034126	-0.714038	0.880203
H66	H	0.819841	-0.588144	0.640324
O67	O	1.653144	-0.340891	1.223015
C68	C	1.726906	-0.273106	1.380491
C69	C	1.726808	-0.273166	1.259787
H70	H	1.786441	-0.218341	1.410258
H71	H	1.748746	-0.347767	1.410321
H72	H	1.645535	-0.253121	1.410255
H73	H	1.808153	-0.293110	1.229934
H74	H	1.704908	-0.198497	1.230029
H75	H	1.774848	-0.229171	0.907212
O76	O	1.785410	-0.219276	1.114784
C77	C	1.836446	-0.055187	1.148446
C78	C	1.762494	-0.123110	1.088122
H79	H	1.817930	0.022578	1.126929
H80	H	1.921167	-0.072057	1.126853
H81	H	1.824943	-0.065802	1.236282
H82	H	1.773904	-0.112532	1.000272
H83	H	1.677800	-0.106222	1.109802
H84	H	1.262071	-0.699732	0.907070
H85	H	1.262116	-0.699675	1.106138
O86	O	1.127153	-0.219310	0.239890
C87	C	1.296170	-0.164585	0.180370
C88	C	1.235786	-0.232541	0.254117
H89	H	1.384010	-0.175272	0.191831
H90	H	1.274705	-0.086809	0.198984
H91	H	1.274486	-0.181413	0.095634
H92	H	1.257437	-0.215799	0.338877
H93	H	1.257256	-0.310296	0.235413
H94	H	1.217921	-0.341054	0.372002
H95	H	1.652878	-0.341119	0.807645
O96	O	1.384108	-0.587896	1.222946
C97	C	1.411177	-0.680309	1.380378
C98	C	1.411144	-0.680284	1.259674
H99	H	1.433055	-0.754992	1.410110
H100	H	1.329832	-0.660345	1.410232
H101	H	1.470744	-0.625578	1.410153
H102	H	1.351628	-0.735017	1.229810
H103	H	1.492527	-0.700207	1.229891
H104	H	0.819793	-0.341073	0.372054
H105	H	1.383999	-0.587853	0.807576
H106	H	0.919297	-0.229002	0.250364
