data_functionalizedCrystal
_audit_creation_method	'MofGen! by Chris Wilmer'
_symmetry_space_group_name_H-M	'P1'
_symmetry_Int_Tables_number	1
_symmetry_cell_setting	triclinic
loop_
_symmetry_equiv_pos_as_xyz
  x,y,z
_cell_length_a	13.033915
_cell_length_b	12.759395
_cell_length_c	13.032268
_cell_angle_alpha	82.835934
_cell_angle_beta	89.129508
_cell_angle_gamma	82.827023
loop_
_atom_site_label
_atom_site_type_symbol
_atom_site_fract_x
_atom_site_fract_y
_atom_site_fract_z
Zn1	Zn	-0.483209	1.600349	0.529516
Zn2	Zn	0.016791	2.100349	1.029516
Zn3	Zn	-0.633368	1.644189	0.335727
Zn4	Zn	-0.133368	2.144189	0.835727
Zn5	Zn	-0.461421	1.443836	0.357559
Zn6	Zn	0.038579	1.943836	0.857559
Zn7	Zn	-0.655131	1.449400	0.507660
Zn8	Zn	-0.155131	1.949400	1.007660
O9	O	-0.558282	1.534443	0.432615
O10	O	-0.058282	2.034443	0.932615
O11	O	-0.503138	1.753186	0.503819
O12	O	-0.003138	2.253186	1.003819
O13	O	-0.592332	1.633630	0.194705
O14	O	-0.092332	2.133630	0.694705
O15	O	-0.320401	1.443922	0.398654
O16	O	0.179599	1.943922	0.898654
O17	O	-0.613459	1.785395	0.361444
O18	O	-0.113459	2.285395	0.861444
O19	O	-0.336408	1.558912	0.524989
O20	O	0.163592	2.058912	1.024989
O21	O	-0.466004	1.486432	0.210745
O22	O	0.033996	1.986432	0.710745
O23	O	-0.487106	1.297553	0.377461
O24	O	0.012894	1.797553	0.877461
O25	O	-0.650551	1.453405	0.654477
O26	O	-0.150551	1.953405	1.154477
O27	O	-0.629424	1.301641	0.487738
O28	O	-0.129424	1.801641	0.987738
O29	O	-0.524241	1.564307	0.670535
O30	O	-0.024241	2.064307	1.170535
O31	O	-0.780165	1.639025	0.340251
O32	O	-0.280165	2.139025	0.840251
O33	O	-0.796154	1.495915	0.466569
O34	O	-0.296154	1.995915	0.966569
C35	C	-0.558263	1.261476	0.432597
C36	C	-0.058263	1.761476	0.932597
C37	C	-0.558283	1.144700	0.432611
C38	C	-0.058283	1.644700	0.932611
C39	C	-0.443672	0.891732	0.581083
C40	C	0.056328	1.391732	1.081083
C41	C	-0.386342	0.929832	0.655293
C42	C	0.113658	1.429832	1.155293
C43	C	-0.386322	1.039553	0.655278
C44	C	0.113678	1.539553	1.155278
C45	C	-0.443641	1.111179	0.581046
C46	C	0.056359	1.611179	1.081046
C47	C	-0.500972	1.073079	0.506836
C48	C	-0.000972	1.573079	1.006836
C49	C	-0.500983	0.963353	0.506858
C50	C	-0.000983	1.463353	1.006858
C51	C	-0.615614	1.106600	0.358401
C52	C	-0.115614	1.606600	0.858401
C53	C	-0.615630	0.996879	0.358411
C54	C	-0.115630	1.496879	0.858411
C55	C	-0.672934	1.178226	0.284170
C56	C	-0.172934	1.678226	0.784170
C57	C	-0.730260	1.140126	0.209954
C58	C	-0.230260	1.640126	0.709954
C59	C	-0.730277	1.030398	0.209972
C60	C	-0.230277	1.530398	0.709972
C61	C	-0.672961	0.958779	0.284201
C62	C	-0.172961	1.458779	0.784201
C63	C	-0.825477	1.572857	0.398691
C64	C	-0.325477	2.072857	0.898691
C65	C	-0.939788	1.589383	0.384213
C66	C	-0.439788	2.089383	0.884213
C67	C	-1.116837	1.542967	0.425233
C68	C	-0.616837	2.042967	0.925233
C69	C	-0.998691	1.525891	0.440205
C70	C	-0.498691	2.025891	0.940205
C71	C	-0.290047	1.495906	0.466695
C72	C	0.209953	1.995906	0.966695
C73	C	-0.175741	1.479484	0.481217
C74	C	0.324259	1.979484	0.981217
C75	C	-0.592254	1.504586	0.700866
C76	C	-0.092254	2.004586	1.200866
C77	C	-0.606731	1.491863	0.815178
C78	C	-0.106731	1.991863	1.315178
C79	C	-0.558302	1.808477	0.432634
C80	C	-0.058302	2.308477	0.932634
C81	C	-0.558310	1.925254	0.432642
C82	C	-0.058310	2.425254	0.932642
C83	C	-0.524368	1.564234	0.165418
C84	C	-0.024368	2.064234	0.665418
C85	C	-0.509601	1.577120	0.051143
C86	C	-0.009601	2.077120	0.551143
C87	C	-0.550689	1.541062	0.874087
C88	C	-0.050689	2.041062	1.374087
C89	C	-0.565651	1.527913	0.992236
C90	C	-0.065651	2.027913	1.492236
H91	H	-0.443631	1.200518	0.581048
H92	H	0.056369	1.700518	1.081048
H93	H	-1.138706	1.412488	0.540229
H94	H	-0.638706	1.912488	1.040229
H95	H	-0.443658	0.802389	0.581084
H96	H	0.056342	1.302389	1.081084
Cl97	Cl	-0.802318	1.230171	0.116650
Cl98	Cl	-0.302318	1.730171	0.616650
H99	H	-0.624703	1.476046	1.029266
H100	H	-0.124703	1.976046	1.529266
H101	H	-0.339676	0.871503	0.715733
H102	H	0.160324	1.371503	1.215733
H103	H	-0.976818	1.656378	0.325191
H104	H	-0.476818	2.156378	0.825191
H105	H	-0.776968	0.999385	0.149545
H106	H	-0.276968	1.499385	0.649545
H107	H	-0.665780	1.439999	0.852213
H108	H	-0.165780	1.939999	1.352213
H109	H	-0.491631	1.592914	0.837054
H110	H	0.008369	2.092914	1.337054
Cl111	Cl	-0.314253	1.087453	0.748574
Cl112	Cl	0.185747	1.587453	1.248574
H113	H	-0.450536	1.628973	1.014115
H114	H	0.049464	2.128973	1.514115
H115	H	-1.153872	1.609954	0.366213
H116	H	-0.653872	2.109954	0.866213
Cl117	Cl	-0.672972	0.820841	0.284226
Cl118	Cl	-0.172972	1.320841	0.784226
Cl119	Cl	-0.672916	1.316162	0.284155
Cl120	Cl	-0.172916	1.816162	0.784155
H121	H	-0.961660	1.458891	0.499221
H122	H	-0.461660	1.958891	0.999221
