data_functionalizedCrystal
_audit_creation_method	'MofGen! by Chris Wilmer'
_symmetry_space_group_name_H-M	'P1'
_symmetry_Int_Tables_number	1
_symmetry_cell_setting	triclinic
loop_
_symmetry_equiv_pos_as_xyz
  x,y,z
_cell_length_a	17.640112
_cell_length_b	12.645330
_cell_length_c	17.640968
_cell_angle_alpha	101.231500
_cell_angle_beta	87.860920
_cell_angle_gamma	101.237348
loop_
_atom_site_label
_atom_site_type_symbol
_atom_site_fract_x
_atom_site_fract_y
_atom_site_fract_z
Zn1	Zn	1.247782	-0.030458	0.195080
Zn2	Zn	1.222041	-0.249164	0.068097
Zn3	Zn	1.095123	-0.099414	0.093726
Zn4	Zn	1.120780	-0.235210	0.220679
O5	O	1.171432	-0.153562	0.144396
O6	O	1.350634	-0.036451	0.156796
O7	O	1.183695	-0.263998	-0.034776
O8	O	1.115409	0.058093	0.107183
O9	O	1.331722	-0.197134	0.063503
O10	O	1.227567	0.108755	0.181647
O11	O	1.090449	-0.153977	-0.015947
O12	O	0.992260	-0.140447	0.132006
O13	O	1.159137	-0.173351	0.323557
O14	O	1.011110	-0.240215	0.225278
O15	O	1.252445	-0.022921	0.304749
O16	O	1.208573	-0.395673	0.088325
O17	O	1.134177	-0.385421	0.200427
C18	C	0.974132	-0.196300	0.184201
C19	C	0.889730	-0.214603	0.201248
C20	C	0.563041	-0.014493	0.014898
C21	C	0.483734	-0.031710	0.030927
C22	C	0.503383	-0.135840	0.127883
C23	C	0.582694	-0.118628	0.111866
C24	C	0.612516	-0.057954	0.055372
C25	C	0.632168	-0.162089	0.152339
C26	C	0.711471	-0.144882	0.136320
C27	C	0.741299	-0.084214	0.079827
C28	C	0.691819	-0.040748	0.039352
C29	C	0.602344	-0.222768	0.208829
C30	C	0.651819	-0.266229	0.249302
C31	C	0.731124	-0.249017	0.233287
C32	C	0.760952	-0.188349	0.176794
C33	C	0.780605	-0.292483	0.273762
C34	C	0.859908	-0.275277	0.257742
C35	C	0.840255	-0.171142	0.160775
C36	C	1.171390	-0.429005	0.144385
C37	C	1.171447	-0.546818	0.144392
C38	C	1.218131	-0.720847	0.073769
C39	C	1.218351	-0.598198	0.073875
C40	C	1.209332	-0.560398	0.220067
C41	C	1.209733	-0.682997	0.219661
C42	C	1.087014	-0.738217	0.140134
C43	C	1.087036	-0.616115	0.138261
C44	C	1.369502	-0.110657	0.104435
C45	C	1.453908	-0.092374	0.087406
C46	C	1.211525	-0.088888	0.342479
C47	C	1.228610	-0.061327	0.426890
C48	C	1.171498	0.122968	0.144418
C49	C	1.171526	0.240808	0.144428
C50	C	1.131538	-0.217898	-0.052926
C51	C	1.114600	-0.245128	-0.137366
C52	C	1.041928	-0.362294	0.753463
C53	C	1.057998	-0.336380	0.832776
C54	C	1.155152	-0.179750	0.813183
C55	C	1.139087	-0.205648	0.733867
C56	C	1.082475	-0.296921	0.704013
C57	C	1.179634	-0.140275	0.684417
C58	C	1.163573	-0.166175	0.605106
C59	C	1.106965	-0.257446	0.575246
C60	C	1.066414	-0.322821	0.624702
C61	C	1.236249	-0.049006	0.714271
C62	C	1.276796	0.016366	0.664821
C63	C	1.260732	-0.009529	0.585510
C64	C	1.204124	-0.100800	0.555650
C65	C	1.301283	0.055846	0.536054
C66	C	1.285222	0.029946	0.456744
C67	C	1.188063	-0.126700	0.476340
H68	H	0.537770	-0.236776	0.221870
H69	H	1.280047	-0.734374	0.075237
H70	H	0.900192	-0.310666	0.290701
O71	O	1.292676	-0.542595	0.075773
C72	C	1.427482	-0.552739	0.079025
C73	C	1.343342	-0.615839	0.076888
H74	H	1.468469	-0.611934	0.079911
H75	H	1.436879	-0.485639	0.133121
H76	H	1.439386	-0.513934	0.025564
H77	H	1.331379	-0.654713	0.130311
H78	H	1.333986	-0.682880	0.022758
O79	O	0.622869	-0.325326	0.304097
C80	C	0.606085	-0.498987	0.345691
C81	C	0.638886	-0.432202	0.283564
H82	H	0.619037	-0.585402	0.329120
H83	H	0.540897	-0.503917	0.350193
H84	H	0.634086	-0.457045	0.403789
H85	H	0.610944	-0.474090	0.225432
H86	H	0.704077	-0.427266	0.279129
O87	O	1.284048	-0.694895	0.226212
C88	C	1.417983	-0.605645	0.238525
C89	C	1.333858	-0.592028	0.231095
H90	H	1.458276	-0.522486	0.242492
H91	H	1.433815	-0.665097	0.185752
H92	H	1.424129	-0.639432	0.292894
H93	H	1.327649	-0.558207	0.176757
H94	H	1.318064	-0.532611	0.283907
H95	H	0.756310	-0.341892	0.319753
O96	O	1.187859	-0.589181	0.006271
C97	C	1.132074	-0.684032	-0.116813
C98	C	1.166599	-0.694391	-0.040286
H99	H	1.114861	-0.769084	-0.154468
H100	H	1.176872	-0.630555	-0.148476
H101	H	1.078876	-0.644784	-0.104120
H102	H	1.219789	-0.733666	-0.052909
H103	H	1.121753	-0.747831	-0.008645
O104	O	1.133067	-0.215294	0.447211
C105	C	1.065301	-0.324642	0.333702
C106	C	1.127586	-0.224271	0.366591
H107	H	1.060860	-0.331946	0.268514
H108	H	1.007202	-0.314212	0.361599
H109	H	1.081769	-0.402128	0.346644
H110	H	1.111190	-0.146737	0.353658
H111	H	1.185667	-0.234797	0.338692
H112	H	1.192688	-0.772714	0.016942
O113	O	1.172058	-0.711102	0.283630
C114	C	1.103395	-0.651185	0.399770
C115	C	1.146048	-0.619213	0.327364
H116	H	1.082340	-0.576918	0.435141
H117	H	1.144422	-0.679975	0.436269
H118	H	1.051794	-0.720367	0.381470
H119	H	1.197647	-0.550007	0.345595
H120	H	1.104969	-0.590489	0.290882
H121	H	1.177120	-0.525527	0.273429
O122	O	1.282841	-0.501658	0.227264
C123	C	1.372995	-0.356507	0.304555
C124	C	1.289714	-0.422922	0.296499
H125	H	1.378584	-0.292850	0.360536
H126	H	1.387199	-0.313180	0.253396
H127	H	1.414875	-0.414388	0.305718
H128	H	1.247779	-0.365117	0.295357
H129	H	1.275575	-0.466263	0.347658
H130	H	1.201247	-0.105437	0.837501
O131	O	1.331684	0.105126	0.693882
C132	C	1.360069	0.279683	0.781412
C133	C	1.297831	0.179235	0.748554
H134	H	1.332726	0.339616	0.825632
H135	H	1.386283	0.322046	0.732480
H136	H	1.407294	0.251707	0.810486
H137	H	1.250560	0.207119	0.719488
H138	H	1.271678	0.136893	0.797516
O139	O	0.818332	-0.067695	0.064254
C140	C	0.928145	-0.151001	0.021573
C141	C	0.840906	-0.169865	0.039200
H142	H	0.946420	-0.233590	0.001297
H143	H	0.961648	-0.105302	0.076048
H144	H	0.940942	-0.100128	-0.025732
H145	H	0.828037	-0.220765	0.086481
H146	H	0.807449	-0.215514	-0.015313
O147	O	1.049556	-0.802726	0.076537
C148	C	0.940893	-0.944112	0.027413
C149	C	0.983235	-0.871143	0.099506
H150	H	0.887255	-0.999429	0.045956
H151	H	0.981011	-0.996906	-0.006392
H152	H	0.923039	-0.889956	-0.010707
H153	H	1.001093	-0.925215	0.137684
H154	H	0.943091	-0.818341	0.133252
O155	O	1.356229	0.144489	0.565190
C156	C	1.424073	0.253757	0.678680
C157	C	1.361814	0.153353	0.645790
H158	H	1.428621	0.260943	0.743847
H159	H	1.407613	0.331311	0.665847
H160	H	1.482123	0.243302	0.650677
H161	H	1.303742	0.163701	0.673774
H162	H	1.378340	0.075837	0.658614
H163	H	1.058763	-0.609871	0.082650
O164	O	1.324653	0.093592	0.408816
C165	C	1.422747	0.251658	0.397736
C166	C	1.378132	0.179690	0.452103
H167	H	1.466006	0.321271	0.432709
H168	H	1.380415	0.287497	0.367659
H169	H	1.454885	0.199426	0.352573
H170	H	1.345991	0.231848	0.497309
H171	H	1.420502	0.143842	0.482123
H172	H	1.049126	-0.582506	0.187255
O173	O	0.987026	-0.451013	0.724341
C174	C	0.958676	-0.625616	0.636860
C175	C	1.020917	-0.525199	0.669770
H176	H	0.986056	-0.685633	0.592745
H177	H	0.911470	-0.597732	0.607687
H178	H	0.932427	-0.667857	0.685835
H179	H	1.047225	-0.482913	0.620840
H180	H	1.068074	-0.553150	0.698965
O181	O	1.011512	-0.411540	0.595581
C182	C	0.983162	-0.586143	0.508100
C183	C	1.045403	-0.485726	0.541010
H184	H	1.010542	-0.646160	0.463985
H185	H	0.935956	-0.558260	0.478927
H186	H	0.956913	-0.628384	0.557075
H187	H	1.071711	-0.443440	0.492080
H188	H	1.092560	-0.513677	0.570204
O189	O	1.018511	-0.399974	0.880711
C190	C	0.920483	-0.558122	0.891767
C191	C	0.965127	-0.486180	0.837399
H192	H	0.877323	-0.627849	0.856770
H193	H	0.888250	-0.505995	0.936906
H194	H	0.962872	-0.593823	0.921875
H195	H	0.922791	-0.450464	0.807239
H196	H	0.997372	-0.538357	0.792307
H197	H	0.443454	0.003695	-0.002031
O198	O	1.251975	-0.023908	0.791289
C199	C	1.347830	0.001864	0.890404
C200	C	1.330122	-0.026603	0.803164
H201	H	1.411016	-0.000283	0.900032
H202	H	1.309175	-0.060538	0.920660
H203	H	1.336414	0.087573	0.915105
H204	H	1.341544	-0.112285	0.778394
H205	H	1.368772	0.035868	0.772962
O206	O	0.720662	0.018172	-0.015578
C207	C	0.692816	0.119691	-0.110041
C208	C	0.660046	0.052977	-0.047866
H209	H	0.643827	0.147871	-0.136153
H210	H	0.721849	0.066194	-0.157352
H211	H	0.737051	0.194471	-0.082605
H212	H	0.615783	-0.021806	-0.075233
H213	H	0.631061	0.106552	-0.000563
H214	H	0.864540	-0.121716	0.114783
H215	H	0.479090	-0.185244	0.173879
O216	O	0.591885	0.044426	-0.040032
C217	C	0.564038	0.145946	-0.134495
C218	C	0.531269	0.079232	-0.072320
H219	H	0.515049	0.174125	-0.160607
H220	H	0.593071	0.092448	-0.181806
H221	H	0.608273	0.220725	-0.107059
H222	H	0.487005	0.004449	-0.099687
H223	H	0.502284	0.132807	-0.025017
H224	H	1.052090	-0.762696	0.191795
H225	H	1.093893	-0.278535	0.510665
