data_functionalizedCrystal
_audit_creation_method	'MofGen! by Chris Wilmer'
_symmetry_space_group_name_H-M	'P1'
_symmetry_Int_Tables_number	1
_symmetry_cell_setting	triclinic
loop_
_symmetry_equiv_pos_as_xyz
  x,y,z
_cell_length_a	12.759401
_cell_length_b	17.077402
_cell_length_c	12.759393
_cell_angle_alpha	89.966010
_cell_angle_beta	90.020938
_cell_angle_gamma	89.967223
loop_
_atom_site_label
_atom_site_type_symbol
_atom_site_fract_x
_atom_site_fract_y
_atom_site_fract_z
Zn1	Zn	1.606146	0.312438	0.593995
Zn2	Zn	1.605986	0.443724	0.418304
Zn3	Zn	1.430444	0.312480	0.418330
Zn4	Zn	1.430385	0.443670	0.593941
O5	O	1.518240	0.378078	0.506142
O6	O	1.753145	0.329859	0.570700
O7	O	1.582658	0.426355	0.271286
O8	O	1.453843	0.202628	0.441665
O9	O	1.753028	0.426314	0.441621
O10	O	1.582930	0.202597	0.570725
O11	O	1.453688	0.329930	0.271305
O12	O	1.283415	0.329877	0.441613
O13	O	1.453743	0.426221	0.740969
O14	O	1.283372	0.426261	0.570634
O15	O	1.582873	0.329806	0.741009
O16	O	1.582601	0.553564	0.441569
O17	O	1.453588	0.553524	0.570609
C18	C	1.245273	0.378068	0.506122
C19	C	1.128496	0.378083	0.506138
C20	C	1.073639	0.428347	0.573213
C21	C	0.963915	0.428350	0.573234
C22	C	0.963915	0.327823	0.439095
C23	C	1.073637	0.327817	0.439080
C24	C	1.518099	0.582026	0.506104
C25	C	1.518135	0.669276	0.506122
C26	C	1.585306	0.710182	0.573377
C27	C	1.585335	0.792163	0.573396
C28	C	1.518198	0.833235	0.506155
C29	C	1.451019	0.792323	0.438898
C30	C	1.450985	0.710344	0.438884
C31	C	1.451096	0.963193	0.438928
C32	C	1.451131	1.045177	0.438940
C33	C	1.585446	1.045012	0.573440
C34	C	1.585412	0.963033	0.573426
C35	C	1.518235	0.922126	0.506168
C36	C	1.792274	0.378088	0.506164
C37	C	1.909050	0.378093	0.506173
C38	C	1.518319	0.378003	0.780176
C39	C	1.518352	0.377971	0.896953
C40	C	1.518365	1.173334	0.506195
C41	C	1.518302	1.086084	0.506194
C42	C	1.518222	0.378096	0.233175
C43	C	1.518393	0.377907	0.116399
C44	C	1.585596	0.327759	0.951837
C45	C	1.585613	0.327725	1.061561
C46	C	1.451142	0.428121	1.061507
C47	C	1.451120	0.428150	0.951785
H48	H	0.919256	0.469279	0.627855
H49	H	1.118303	0.286881	0.384459
H50	H	1.640144	1.078322	0.628205
H51	H	1.396406	0.468977	1.106165
H52	H	1.640041	0.825465	0.628153
H53	H	1.640086	0.929592	0.628174
H54	H	1.640368	0.286837	1.106243
H55	H	1.396457	1.078616	0.384191
H56	H	1.396389	0.929889	0.384162
Cl57	Cl	1.366572	0.491274	0.882782
Cl58	Cl	0.894941	0.264637	0.354796
Cl59	Cl	1.669719	0.658557	0.657908
Cl60	Cl	1.366606	0.843957	0.354376
Cl61	Cl	1.366536	0.658918	0.354334
Cl62	Cl	1.142602	0.491535	0.657518
Cl63	Cl	1.670112	0.264673	0.882908
