data_functionalizedCrystal
_audit_creation_method	'MofGen! by Chris Wilmer'
_symmetry_space_group_name_H-M	'P1'
_symmetry_Int_Tables_number	1
_symmetry_cell_setting	triclinic
loop_
_symmetry_equiv_pos_as_xyz
  x,y,z
_cell_length_a	21.606444
_cell_length_b	12.970454
_cell_length_c	12.970454
_cell_angle_alpha	59.999776
_cell_angle_beta	89.998909
_cell_angle_gamma	60.001029
loop_
_atom_site_label
_atom_site_type_symbol
_atom_site_fract_x
_atom_site_fract_y
_atom_site_fract_z
Zr1	Zr	0.596222	1.128563	-0.135341
O2	O	0.497400	1.343646	-0.299960
O3	O	0.626516	0.913474	-0.084876
O4	O	0.626517	1.128564	-0.299967
O5	O	0.497398	1.128557	0.084797
O6	O	0.728367	1.128571	-0.299973
O7	O	0.497399	1.128556	-0.084869
O8	O	0.728365	0.743815	0.084786
O9	O	0.497400	1.513313	-0.299961
O10	O	0.715445	1.001951	-0.063358
O11	O	0.639436	1.001946	0.063266
O12	O	0.639437	1.255187	-0.189975
O13	O	0.563427	1.255182	-0.063351
Zr14	Zr	0.758659	1.128576	0.135248
Zr15	Zr	0.758660	1.128575	-0.135351
Zr16	Zr	0.596221	1.128564	0.135258
Zr17	Zr	0.596222	1.399163	-0.135342
Zr18	Zr	0.758659	0.857976	0.135249
O19	O	0.728365	1.343664	0.084782
O20	O	0.728367	1.343662	-0.299974
O21	O	0.497398	1.343648	0.084796
O22	O	0.857481	0.913493	0.299867
O23	O	0.857483	0.913491	-0.084890
O24	O	0.626514	0.913477	0.299881
O25	O	0.857483	1.128582	-0.084891
O26	O	0.728364	1.128575	0.299873
O27	O	0.626514	1.128567	0.299879
O28	O	0.857482	1.128583	0.084776
O29	O	0.626517	1.513322	-0.299969
O30	O	0.728364	0.743816	0.299875
O31	O	0.857481	0.743826	0.299867
O32	O	0.857482	0.743825	0.084778
O33	O	0.497399	1.513314	-0.084871
O34	O	0.626516	1.513324	-0.084879
O35	O	0.715444	1.001952	0.189882
O36	O	0.791454	1.001957	0.063257
O37	O	0.715445	1.255193	-0.063360
O38	O	0.639436	1.255188	0.063265
C39	C	0.677441	0.790090	-0.000045
C40	C	0.677440	0.675213	-0.000044
C41	C	0.474255	1.128555	-0.000034
C42	C	0.405295	1.128550	-0.000030
C43	C	0.412572	0.996365	0.066058
C44	C	0.347774	0.996369	0.066059
C45	C	0.275701	1.128560	-0.000036
C46	C	0.268426	1.260755	-0.066126
C47	C	0.333223	1.260750	-0.066119
C48	C	0.007108	1.260780	-0.066154
C49	C	-0.057690	1.260776	-0.066159
C50	C	0.021660	0.996400	0.066024
C51	C	0.086456	0.996394	0.066031
C52	C	0.079176	1.128589	-0.000053
C53	C	0.149437	1.128583	-0.000052
C54	C	0.205441	1.128567	-0.000046
C55	C	0.880626	1.128584	-0.000059
C56	C	0.949586	1.128589	-0.000063
C57	C	0.677442	1.128568	-0.338524
C58	C	0.677442	1.128567	-0.453400
C59	C	0.677441	1.467049	-0.000048
C60	C	0.677441	1.581925	-0.000049
C61	C	0.677439	1.128571	0.338431
C62	C	0.677439	1.128572	0.453307
C63	C	0.880626	0.790105	-0.000057
C64	C	0.949586	0.675233	-0.000061
C65	C	0.677439	0.790092	0.338433
C66	C	0.677439	0.675216	0.453309
C67	C	0.880625	0.790107	0.338420
C68	C	0.949584	0.675235	0.453293
C69	C	0.474256	1.467032	-0.338514
C70	C	0.405297	1.581904	-0.453386
C71	C	0.474255	1.467034	-0.000036
C72	C	0.405295	1.581906	-0.000033
C73	C	0.677442	1.467047	-0.338526
C74	C	0.677442	1.581923	-0.453403
C75	C	0.942294	0.621285	-0.066166
C76	C	1.007083	0.513365	-0.066194
C77	C	1.079162	0.459389	-0.000110
C78	C	1.086452	0.513348	0.065997
C79	C	1.021665	0.621273	0.066018
C80	C	1.021651	0.621293	0.441141
C81	C	1.086451	0.513374	0.549066
C82	C	1.079183	0.459393	0.669141
C83	C	1.007109	0.513345	0.681290
C84	C	0.942310	0.621270	0.573367
C85	C	0.333230	1.635859	-0.441235
C86	C	0.268430	1.743811	-0.549159
C87	C	0.275698	1.797799	-0.669234
C88	C	0.347773	1.743839	-0.681383
C89	C	0.412571	1.635896	-0.573460
C90	C	0.412587	1.635865	0.066061
C91	C	0.347799	1.743815	0.066060
C92	C	0.275719	1.797795	-0.000028
C93	C	0.268429	1.743831	-0.066130
C94	C	0.333217	1.635891	-0.066136
H95	H	0.471254	0.888719	0.119886
Br96	Br	1.167133	0.312922	0.815598
H97	H	1.027583	0.665229	0.343380
Br98	Br	1.167082	0.312917	-0.000151
H99	H	1.001202	0.469378	0.779069
H100	H	0.222971	1.885686	-0.000013
Br101	Br	1.184281	0.440074	0.155682
Br102	Br	1.031574	0.694467	0.155748
Br103	Br	0.170613	1.440160	-0.155815
Br104	Br	1.184257	0.440172	0.532548
Br105	Br	0.323347	1.440151	-0.155804
Br106	Br	0.187748	1.944295	-0.815692
H107	H	0.883632	0.665175	0.583278
Br108	Br	0.170624	1.817017	-0.532642
H109	H	0.209733	1.787798	-0.119938
H110	H	0.327298	1.591908	-0.343473
H111	H	0.327269	1.591960	-0.119954
Br112	Br	0.844480	0.694518	-0.155867
H113	H	0.353681	1.787809	-0.779161
H114	H	0.353706	0.888730	0.119877
H115	H	0.145139	0.888750	0.119848
H116	H	0.471250	1.591966	-0.583369
Br117	Br	0.510401	1.562635	0.155759
H118	H	0.027582	0.888760	0.119836
H119	H	-0.116377	1.368428	-0.119984
H120	H	0.001170	1.368422	-0.119987
H121	H	1.001132	0.469445	-0.120026
H122	H	0.353749	1.787734	0.119893
