data_functionalizedCrystal
_audit_creation_method	'MofGen! by Chris Wilmer'
_symmetry_space_group_name_H-M	'P1'
_symmetry_Int_Tables_number	1
_symmetry_cell_setting	triclinic
loop_
_symmetry_equiv_pos_as_xyz
  x,y,z
_cell_length_a	14.971482
_cell_length_b	14.971507
_cell_length_c	13.448316
_cell_angle_alpha	90.013926
_cell_angle_beta	90.001764
_cell_angle_gamma	96.382365
loop_
_atom_site_label
_atom_site_type_symbol
_atom_site_fract_x
_atom_site_fract_y
_atom_site_fract_z
O1	O	1.186947	-0.116556	-0.082684
O2	O	1.686947	0.383444	0.417316
O3	O	0.926547	-0.130518	-0.082689
O4	O	1.426547	0.369482	0.417311
O5	O	1.063717	0.006662	-0.082674
O6	O	1.563717	0.506662	0.417326
O7	O	1.049778	-0.253736	-0.082699
O8	O	1.549778	0.246264	0.417301
O9	O	1.063722	0.006686	0.082709
O10	O	1.563722	0.506686	0.582709
O11	O	0.926553	-0.130494	0.082695
O12	O	1.426553	0.369506	0.582695
O13	O	1.186952	-0.116531	0.082700
O14	O	1.686952	0.383469	0.582700
Cu15	Cu	1.056753	-0.123510	0.097798
Cu16	Cu	1.556753	0.376490	0.597798
Cu17	Cu	1.056747	-0.123539	-0.097787
Cu18	Cu	1.556747	0.376461	0.402213
O19	O	1.049783	-0.253711	0.082685
O20	O	1.549783	0.246289	0.582685
C21	C	0.893225	-0.129882	0.000002
C22	C	1.393225	0.370118	0.500002
C23	C	0.793928	-0.128013	0.000000
C24	C	1.293928	0.371987	0.500000
C25	C	0.747286	-0.127119	0.090152
C26	C	1.247286	0.372881	0.590152
C27	C	0.653987	-0.125348	0.090154
C28	C	1.153987	0.374652	0.590154
C29	C	0.607331	-0.124477	0.000002
C30	C	1.107331	0.375523	0.500002
C31	C	0.653980	-0.125369	-0.090157
C32	C	1.153980	0.374631	0.409843
C33	C	0.747278	-0.127133	-0.090157
C34	C	1.247278	0.372867	0.409843
C35	C	0.459518	-0.121693	-0.090150
C36	C	0.959518	0.378307	0.409850
C37	C	0.366214	-0.119930	-0.090150
C38	C	0.866214	0.380070	0.409850
C39	C	0.366227	-0.119908	0.090160
C40	C	0.866227	0.380092	0.590160
C41	C	0.459525	-0.121673	0.090160
C42	C	0.959525	0.378327	0.590160
C43	C	0.506167	-0.122565	0.000001
C44	C	1.006167	0.377435	0.500001
C45	C	1.063093	0.039999	0.000018
C46	C	1.563093	0.539999	0.500018
C47	C	1.061215	0.139295	0.000021
C48	C	1.561215	0.639295	0.500021
C49	C	1.220274	-0.117167	0.000006
C50	C	1.720274	0.382833	0.500006
C51	C	1.319572	-0.119037	0.000001
C52	C	1.819572	0.380963	0.500001
C53	C	1.134632	0.577578	0.000055
C54	C	1.634632	1.077578	0.500055
C55	C	1.136389	0.484278	0.000055
C56	C	1.636389	0.984278	0.500055
C57	C	1.055797	0.427057	0.000045
C58	C	1.555797	0.927057	0.500045
C59	C	0.973442	0.463140	0.000047
C60	C	1.473442	0.963140	0.500047
C61	C	0.971685	0.556439	0.000054
C62	C	1.471685	1.056439	0.500054
C63	C	0.977109	0.268677	0.000029
C64	C	1.477109	0.768677	0.500029
C65	C	0.978865	0.175372	0.000020
C66	C	1.478865	0.675372	0.500020
C67	C	1.141813	0.196516	0.000029
C68	C	1.641813	0.696516	0.500029
C69	C	1.140057	0.289815	0.000037
C70	C	1.640057	0.789815	0.500037
C71	C	1.057701	0.325892	0.000036
C72	C	1.557701	0.825892	0.500036
C73	C	1.050406	0.712952	0.000008
C74	C	1.550406	1.212952	0.500008
C75	C	1.052283	0.613656	0.000053
C76	C	1.552283	1.113656	0.500053
N77	N	1.056743	-0.123553	-0.235352
N78	N	1.556743	0.376447	0.264648
C79	C	1.002553	-0.069096	-0.287380
C80	C	1.502553	0.430904	0.212620
C81	C	1.002560	-0.069079	-0.391483
C82	C	1.502560	0.430921	0.108517
C83	C	1.056754	-0.123524	-0.443556
C84	C	1.556754	0.376476	0.056444
C85	C	1.110950	-0.177983	-0.391521
C86	C	1.610950	0.322017	0.108479
C87	C	1.110947	-0.177995	-0.287420
C88	C	1.610947	0.322005	0.212580
C89	C	1.110952	-0.177957	-0.608501
C90	C	1.610952	0.322043	-0.108501
C91	C	1.110954	-0.177947	-0.712609
C92	C	1.610954	0.322053	-0.212609
C93	C	1.002565	-0.069040	-0.712565
C94	C	1.502565	0.430960	-0.212565
C95	C	1.002562	-0.069052	-0.608463
C96	C	1.502562	0.430948	-0.108463
C97	C	1.056757	-0.123513	-0.556435
C98	C	1.556757	0.376487	-0.056435
N99	N	1.056764	-0.123489	0.235362
N100	N	1.556764	0.376511	0.735362
H101	H	0.497509	-0.122387	0.163570
H102	H	0.997509	0.377613	0.663570
H103	H	0.913240	0.128785	0.000018
H104	H	1.413240	0.628785	0.500018
N105	N	0.797592	-0.128103	-0.187390
N106	N	1.297592	0.371897	0.312610
H107	H	0.843490	-0.073429	-0.191400
H108	H	1.343490	0.426571	0.308600
H109	H	0.753822	-0.127319	-0.244446
H110	H	1.253822	0.372681	0.255554
H111	H	0.904628	0.585811	0.000061
H112	H	1.404628	1.085811	0.500061
H113	H	0.615986	-0.124653	-0.163560
H114	H	1.115986	0.375347	0.336440
H115	H	0.958436	-0.024732	-0.433840
H116	H	1.458436	0.475268	0.066160
N117	N	0.944123	-0.010320	-0.552295
N118	N	1.444123	0.489680	-0.052295
H119	H	0.909797	0.024189	-0.601049
H120	H	1.409797	0.524189	-0.101049
H121	H	0.983163	0.033266	-0.509092
H122	H	1.483163	0.533266	-0.009092
H123	H	1.200260	0.624162	0.000054
H124	H	1.700260	1.124162	0.500054
N125	N	0.944104	-0.010305	-0.768673
N126	N	1.444104	0.489695	-0.268673
H127	H	0.952329	-0.018555	-0.842522
H128	H	1.452329	0.481445	-0.342522
H129	H	0.961815	0.054699	-0.750448
H130	H	1.461815	0.554699	-0.250448
N131	N	1.225208	0.445364	0.000062
N132	N	1.725208	0.945364	0.500062
H133	H	1.275996	0.495771	0.000064
H134	H	1.775996	0.995771	0.500064
H135	H	1.229487	0.407102	-0.061248
H136	H	1.729487	0.907102	0.438752
N137	N	1.226978	0.351535	0.000042
N138	N	1.726978	0.851535	0.500042
H139	H	1.279417	0.314525	0.000045
H140	H	1.779417	0.814525	0.500045
H141	H	1.229792	0.390713	0.061356
H142	H	1.729792	0.890713	0.561356
N143	N	1.169398	-0.236706	-0.447690
N144	N	1.669398	0.263294	0.052310
H145	H	1.151707	-0.301738	-0.429599
H146	H	1.651707	0.198262	0.070401
H147	H	1.234454	-0.219215	-0.429546
H148	H	1.734454	0.280785	0.070454
N149	N	1.169397	-0.236699	-0.552377
N150	N	1.669397	0.263301	-0.052377
H151	H	1.213196	-0.197910	-0.509167
H152	H	1.713196	0.302090	-0.009167
H153	H	1.203667	-0.271185	-0.601219
H154	H	1.703667	0.228815	-0.101219
N155	N	1.230640	0.157609	0.000046
N156	N	1.730640	0.657609	0.500046
H157	H	1.281428	0.208015	0.000048
H158	H	1.781428	0.708015	0.500048
H159	H	1.234920	0.119345	-0.061263
H160	H	1.734920	0.619345	0.438737
N161	N	0.315880	-0.118988	-0.187376
N162	N	0.815880	0.381012	0.312624
H163	H	0.324920	-0.174700	-0.226805
H164	H	0.824920	0.325300	0.273195
H165	H	0.339321	-0.063855	-0.226703
H166	H	0.839321	0.436145	0.273297
N167	N	0.888285	0.307592	0.000035
N168	N	1.388285	0.807592	0.500035
H169	H	0.837495	0.257187	0.000025
H170	H	1.337495	0.757187	0.500025
H171	H	0.884009	0.345833	-0.061272
H172	H	1.384009	0.845833	0.438728
N173	N	0.886524	0.401414	0.000039
N174	N	1.386524	0.901414	0.500039
H175	H	0.850595	0.413017	-0.061268
H176	H	1.350595	0.913017	0.438732
H177	H	0.850670	0.413062	0.061389
H178	H	1.350670	0.913062	0.561389
H179	H	0.958417	-0.024765	-0.244989
H180	H	1.458417	0.475235	0.255011
H181	H	0.328247	-0.119182	0.163571
H182	H	0.828247	0.380818	0.663571
N183	N	1.169402	-0.236662	-0.768788
N184	N	1.669402	0.263338	-0.268788
H185	H	1.151718	-0.301697	-0.750702
H186	H	1.651718	0.198303	-0.250702
H187	H	1.234459	-0.219167	-0.750651
H188	H	1.734459	0.280833	-0.250651
N189	N	0.797603	-0.128067	0.187388
N190	N	1.297603	0.371933	0.687388
H191	H	0.753895	-0.127231	0.244499
H192	H	1.253895	0.372769	0.744499
H193	H	0.843507	-0.073394	0.191324
H194	H	1.343507	0.426606	0.691324
N195	N	0.603677	-0.124381	0.187387
N196	N	1.103677	0.375619	0.687387
H197	H	0.647467	-0.124570	0.244497
H198	H	1.147467	0.375430	0.744497
H199	H	0.558206	-0.179376	0.191610
H200	H	1.058206	0.320624	0.691610
N201	N	1.169405	-0.236720	-0.231298
N202	N	1.669405	0.263280	0.268702
H203	H	1.203739	-0.271208	-0.280081
H204	H	1.703739	0.228792	0.219919
H205	H	1.130389	-0.280325	-0.188119
H206	H	1.630389	0.219675	0.311881
H207	H	0.497491	-0.122420	-0.163567
H208	H	0.997491	0.377580	0.336433
