data_functionalizedCrystal
_audit_creation_method	'MofGen! by Chris Wilmer'
_symmetry_space_group_name_H-M	'P1'
_symmetry_Int_Tables_number	1
_symmetry_cell_setting	triclinic
loop_
_symmetry_equiv_pos_as_xyz
  x,y,z
_cell_length_a	27.732064
_cell_length_b	17.038272
_cell_length_c	15.500227
_cell_angle_alpha	86.966746
_cell_angle_beta	87.190835
_cell_angle_gamma	93.119510
loop_
_atom_site_label
_atom_site_type_symbol
_atom_site_fract_x
_atom_site_fract_y
_atom_site_fract_z
O1	O	0.647269	-0.089403	-0.071703
O2	O	1.147269	0.410597	0.428297
O3	O	0.507124	-0.103525	-0.071757
O4	O	1.007124	0.396475	0.428243
O5	O	0.576364	0.017341	-0.071723
O6	O	1.076364	0.517341	0.428277
O7	O	0.578030	-0.210270	-0.071736
O8	O	1.078030	0.289730	0.428264
O9	O	0.572161	0.010035	0.072163
O10	O	1.072161	0.510035	0.572163
O11	O	0.502922	-0.110831	0.072130
O12	O	1.002922	0.389169	0.572130
O13	O	0.643066	-0.096709	0.072184
O14	O	1.143066	0.403291	0.572184
Cu15	Cu	0.572610	-0.104437	0.085295
Cu16	Cu	1.072610	0.395563	0.585295
Cu17	Cu	0.577580	-0.095797	-0.084868
Cu18	Cu	1.077580	0.404203	0.415132
O19	O	0.573827	-0.217576	0.072150
O20	O	1.073827	0.282424	0.572150
C21	C	0.487003	-0.106879	0.000179
C22	C	0.987003	0.393121	0.500179
C23	C	0.433308	-0.105980	0.000159
C24	C	0.933308	0.394020	0.500159
C25	C	0.572747	0.042799	0.000219
C26	C	1.072747	0.542799	0.500219
C27	C	0.568227	0.129540	0.000217
C28	C	1.068227	0.629540	0.500217
C29	C	0.663188	-0.093355	0.000246
C30	C	1.163188	0.406645	0.500246
C31	C	0.716883	-0.094255	0.000261
C32	C	1.216883	0.405745	0.500261
C33	C	1.097504	-0.171798	0.000215
C34	C	1.597504	0.328202	0.500215
C35	C	0.895692	-0.168491	0.000239
C36	C	1.395692	0.331509	0.500239
O37	O	0.867191	-0.228666	0.000272
O38	O	1.367191	0.271334	0.500272
N39	N	0.873286	-0.096819	0.000247
N40	N	1.373286	0.403181	0.500247
C41	C	0.901336	-0.025969	0.000255
C42	C	1.401336	0.474031	0.500255
O43	O	0.877647	0.035068	0.000272
O44	O	1.377647	0.535068	0.500272
C45	C	1.103147	-0.029277	0.000238
C46	C	1.603147	0.470723	0.500238
C47	C	1.125551	-0.100953	0.000221
C48	C	1.625551	0.399047	0.500221
C49	C	1.119908	-0.243469	0.000199
C50	C	1.619908	0.256531	0.500199
C51	C	1.170358	-0.244294	0.000189
C52	C	1.670358	0.255706	0.500189
C53	C	1.198405	-0.173449	0.000194
C54	C	1.698405	0.326551	0.500194
C55	C	1.176001	-0.101779	0.000210
C56	C	1.676001	0.398221	0.500210
C57	C	1.131196	0.041572	0.000252
C58	C	1.631196	0.541572	0.500252
C59	C	1.181652	0.040739	0.000249
C60	C	1.681652	0.540739	0.500249
C61	C	1.204055	-0.030938	0.000232
C62	C	1.704055	0.469062	0.500232
C63	C	1.254497	-0.031760	0.000204
C64	C	1.754497	0.468240	0.500204
N65	N	1.276903	-0.103432	0.000196
N66	N	1.776903	0.396568	0.500196
C67	C	1.248857	-0.174277	0.000191
C68	C	1.748857	0.325723	0.500191
C69	C	0.795382	-0.024237	0.000263
C70	C	1.295382	0.475763	0.500263
C71	C	0.744929	-0.023410	0.000266
C72	C	1.244929	0.476590	0.500266
C73	C	0.739289	-0.165933	0.000251
C74	C	1.239289	0.334067	0.500251
C75	C	0.789743	-0.166759	0.000242
C76	C	1.289743	0.333241	0.500242
C77	C	0.817788	-0.095909	0.000255
C78	C	1.317788	0.404091	0.500255
C79	C	1.354806	-0.176005	0.000168
C80	C	1.854806	0.323995	0.500168
C81	C	1.405261	-0.176825	0.000153
C82	C	1.905261	0.323175	0.500153
C83	C	1.410897	-0.034302	0.000172
C84	C	1.910897	0.465698	0.500172
C85	C	1.360447	-0.033482	0.000182
C86	C	1.860447	0.466518	0.500182
C87	C	1.332402	-0.104340	0.000183
C88	C	1.832402	0.395660	0.500183
O89	O	1.283028	0.028382	0.000181
O90	O	1.783028	0.528382	0.500181
O91	O	1.272554	-0.235306	0.000194
O92	O	1.772554	0.264694	0.500194
C93	C	1.047054	-0.170972	0.000226
C94	C	1.547054	0.329028	0.500226
C95	C	1.024650	-0.099302	0.000242
C96	C	1.524650	0.400698	0.500242
C97	C	1.052696	-0.028457	0.000247
C98	C	1.552696	0.471543	0.500247
C99	C	0.974198	-0.098474	0.000245
C100	C	1.474198	0.401526	0.500245
C101	C	0.946151	-0.169319	0.000240
C102	C	1.446151	0.330681	0.500240
C103	C	0.968557	-0.240992	0.000232
C104	C	1.468557	0.259008	0.500232
C105	C	1.019008	-0.241817	0.000221
C106	C	1.519008	0.258183	0.500221
C107	C	1.030290	0.043215	0.000255
C108	C	1.530290	0.543215	0.500255
C109	C	0.979840	0.044035	0.000265
C110	C	1.479840	0.544035	0.500265
C111	C	0.951794	-0.026810	0.000260
C112	C	1.451794	0.473190	0.500260
C113	C	0.577444	-0.243033	0.000206
C114	C	1.077444	0.256967	0.500206
C115	C	0.581964	-0.329774	0.000202
C116	C	1.081964	0.170226	0.500202
N117	N	0.569118	-0.110514	0.204978
N118	N	1.069118	0.389486	0.704978
C119	C	0.609729	0.180133	0.000234
C120	C	1.109729	0.680133	0.500234
C121	C	0.605479	0.261635	0.000224
C122	C	1.105479	0.761635	0.500224
C123	C	0.559726	0.292541	0.000204
C124	C	1.059726	0.792541	0.500204
C125	C	0.518221	0.241942	0.000184
C126	C	1.018221	0.741942	0.500184
C127	C	0.522472	0.160442	0.000188
C128	C	1.022472	0.660442	0.500188
C129	C	0.544710	0.538127	0.000186
C130	C	1.044710	1.038127	0.500186
C131	C	0.540462	0.619633	0.000185
C132	C	1.040462	1.119633	0.500185
C133	C	0.627720	0.639320	0.000224
C134	C	1.127720	1.139320	0.500224
C135	C	0.631967	0.557817	0.000233
C136	C	1.131967	1.057817	0.500233
C137	C	0.590462	0.507225	0.000208
C138	C	1.090462	1.007225	0.500208
C139	C	0.555381	0.375849	0.000196
C140	C	1.055381	0.875849	0.500196
C141	C	0.594808	0.423920	0.000210
C142	C	1.094808	0.923920	0.500210
N143	N	0.581076	-0.089715	-0.204551
N144	N	1.081076	0.410285	0.295449
C145	C	0.598469	-0.059317	0.250269
C146	C	1.098469	0.440683	0.750269
C147	C	0.595832	-0.063920	0.340840
C148	C	1.095832	0.436080	0.840840
C149	C	0.563847	-0.119723	0.386119
C150	C	1.063847	0.380277	0.886119
C151	C	0.534493	-0.170922	0.340822
C152	C	1.034493	0.329078	0.840822
C153	C	0.537127	-0.166316	0.250252
C154	C	1.037127	0.333684	0.750252
C155	C	0.554357	-0.136307	0.659582
C156	C	1.054357	0.363693	1.159582
C157	C	0.551726	-0.140911	0.750158
C158	C	1.051726	0.359089	1.250158
C159	C	0.613064	-0.033907	0.750170
C160	C	1.113064	0.466093	1.250170
C161	C	0.615698	-0.029308	0.659598
C162	C	1.115698	0.470692	1.159598
C163	C	0.586342	-0.080504	0.614309
C164	C	1.086342	0.419496	1.114309
C165	C	0.561153	-0.124431	0.478698
C166	C	1.061153	0.375569	0.978698
C167	C	0.589034	-0.075793	0.521732
C168	C	1.089034	0.424207	1.021732
H169	H	1.423500	-0.235194	0.000139
H170	H	1.923500	0.264806	0.500139
H171	H	0.646985	0.154975	0.000256
H172	H	1.146985	0.654975	0.500256
Cl173	Cl	0.470295	0.096839	0.000163
Cl174	Cl	0.970295	0.596839	0.500163
H175	H	0.716445	-0.223617	0.000247
H176	H	1.216445	0.276383	0.500247
Cl177	Cl	0.632730	0.000444	0.397779
Cl178	Cl	1.132730	0.500444	0.897779
H179	H	0.525678	-0.186357	0.787020
H180	H	1.025678	0.313643	1.287020
H181	H	1.112964	0.099939	0.000266
H182	H	1.612964	0.599939	0.500266
H183	H	0.535110	-0.169869	0.515572
H184	H	1.035110	0.330131	1.015572
H185	H	1.204484	0.098435	0.000260
H186	H	1.704484	0.598435	0.500260
H187	H	1.331978	-0.233705	0.000171
H188	H	1.831978	0.266295	0.500171
H189	H	0.615075	-0.030354	0.484863
H190	H	1.115075	0.469646	0.984863
H191	H	1.097077	-0.301163	0.000198
H192	H	1.597077	0.198837	0.500198
Cl193	Cl	0.500226	-0.230678	0.193316
Cl194	Cl	1.000226	0.269322	0.693316
Cl195	Cl	0.652324	0.385064	0.000231
Cl196	Cl	1.152324	0.885064	0.500231
Cl197	Cl	0.817902	-0.256869	0.000224
Cl198	Cl	1.317902	0.243131	0.500224
H199	H	0.624516	-0.013879	0.213409
H200	H	1.124516	0.486121	0.713409
Cl201	Cl	0.497865	0.414711	0.000166
Cl202	Cl	0.997865	0.914711	0.500166
Cl203	Cl	1.065541	0.132287	0.000262
Cl204	Cl	1.565541	0.632287	0.500262
Cl205	Cl	0.460703	0.280797	0.000148
Cl206	Cl	0.960703	0.780797	0.500148
H207	H	1.342205	0.024883	0.000183
H208	H	1.842205	0.524883	0.500183
H209	H	0.530455	-0.177994	0.622714
H210	H	1.030455	0.322006	1.122714
Cl211	Cl	1.198515	-0.334407	0.000174
Cl212	Cl	1.698515	0.165593	0.500174
H213	H	0.636964	0.007775	0.787053
H214	H	1.136964	0.507775	1.287053
Cl215	Cl	0.482940	0.658485	0.000164
Cl216	Cl	0.982940	1.158485	0.500164
Cl217	Cl	0.655909	0.040845	0.602676
Cl218	Cl	1.155909	0.540845	1.102676
H219	H	0.661511	0.680521	0.000242
H220	H	1.161511	1.180521	0.500242
Cl221	Cl	0.657656	0.325235	0.000248
Cl222	Cl	1.157656	0.825235	0.500248
H223	H	0.508448	-0.216357	0.377694
H224	H	1.008448	0.283643	0.877694
H225	H	0.726693	0.034957	0.000266
H226	H	1.226693	0.534957	0.500266
H227	H	0.818212	0.033461	0.000273
H228	H	1.318212	0.533461	0.500273
H229	H	0.510913	0.496944	0.000167
H230	H	1.010913	0.996944	0.500167
H231	H	1.433742	0.023378	0.000173
H232	H	1.933742	0.523378	0.500173
H233	H	0.945713	-0.298676	0.000224
H234	H	1.445713	0.201324	0.500224
Cl235	Cl	0.951682	0.134153	0.000275
Cl236	Cl	1.451682	0.634153	0.500275
Cl237	Cl	0.689488	0.518971	0.000230
Cl238	Cl	1.189488	1.018971	0.500230
Cl239	Cl	1.047164	-0.331930	0.000201
Cl240	Cl	1.547164	0.168070	0.500201
