data_functionalizedCrystal
_audit_creation_method	'MofGen! by Chris Wilmer'
_symmetry_space_group_name_H-M	'P1'
_symmetry_Int_Tables_number	1
_symmetry_cell_setting	triclinic
loop_
_symmetry_equiv_pos_as_xyz
  x,y,z
_cell_length_a	27.731993
_cell_length_b	27.732064
_cell_length_c	14.472310
_cell_angle_alpha	90.002961
_cell_angle_beta	89.998550
_cell_angle_gamma	82.634907
loop_
_atom_site_label
_atom_site_type_symbol
_atom_site_fract_x
_atom_site_fract_y
_atom_site_fract_z
O1	O	0.640954	0.057388	-0.076585
O2	O	1.140954	0.557388	0.423415
O3	O	0.500158	0.066161	-0.076640
O4	O	1.000158	0.566161	0.423360
O5	O	0.574925	-0.008623	-0.076614
O6	O	1.074925	0.491377	0.423386
O7	O	0.566187	0.132171	-0.076611
O8	O	1.066187	0.632171	0.423389
O9	O	0.574905	-0.008618	0.077068
O10	O	1.074905	0.491382	0.577068
O11	O	0.500138	0.066165	0.077042
O12	O	1.000138	0.566165	0.577042
O13	O	0.640935	0.057392	0.077097
O14	O	1.140935	0.557392	0.577097
Cu15	Cu	0.570535	0.061779	0.091102
Cu16	Cu	1.070535	0.561779	0.591102
Cu17	Cu	0.570558	0.061774	-0.090645
Cu18	Cu	1.070558	0.561774	0.409355
O19	O	0.566168	0.132176	0.077071
O20	O	1.066168	0.632176	0.577071
C21	C	0.482141	0.065983	0.000194
C22	C	0.982141	0.565983	0.500194
C23	C	0.428484	0.065441	0.000172
C24	C	0.928484	0.565441	0.500172
C25	C	0.045334	0.061507	-0.083555
C26	C	0.545334	0.561507	0.416445
C27	C	0.246992	0.063574	-0.083580
C28	C	0.746992	0.563574	0.416420
O29	O	0.273074	0.063820	-0.154827
O30	O	0.773074	0.563820	0.345173
N31	N	0.272202	0.063836	0.000190
N32	N	0.772202	0.563836	0.500190
C33	C	0.246994	0.063577	0.083973
C34	C	0.746994	0.563577	0.583973
O35	O	0.273065	0.063841	0.155224
O36	O	0.773065	0.563841	0.655224
C37	C	0.045338	0.061506	0.083997
C38	C	0.545338	0.561506	0.583997
C39	C	0.020130	0.061250	0.000221
C40	C	0.520130	0.561250	0.500221
C41	C	0.020126	0.061251	-0.167324
C42	C	0.520126	0.561251	0.332676
C43	C	-0.030285	0.060737	-0.167317
C44	C	0.469715	0.560737	0.332683
C45	C	-0.055489	0.060479	-0.083541
C46	C	0.444511	0.560479	0.416459
C47	C	-0.030281	0.060736	0.000228
C48	C	0.469719	0.560736	0.500228
C49	C	0.020133	0.061244	0.167778
C50	C	0.520133	0.561244	0.667778
C51	C	-0.030285	0.060725	0.167777
C52	C	0.469715	0.560725	0.667777
C53	C	-0.055492	0.060469	0.084001
C54	C	0.444508	0.560469	0.584001
C55	C	-0.105897	0.059964	0.084011
C56	C	0.394103	0.559964	0.584011
N57	N	-0.131107	0.059703	0.000241
N58	N	0.368893	0.559703	0.500241
C59	C	-0.105903	0.059961	-0.083535
C60	C	0.394097	0.559961	0.416465
C61	C	0.352867	0.064665	0.083954
C62	C	0.852867	0.564665	0.583954
C63	C	0.403280	0.065183	0.083948
C64	C	0.903280	0.565183	0.583948
C65	C	0.403274	0.065180	-0.083605
C66	C	0.903274	0.565180	0.416395
C67	C	0.352859	0.064665	-0.083598
C68	C	0.852859	0.564665	0.416402
C69	C	0.327657	0.064404	0.000184
C70	C	0.827657	0.564404	0.500184
C71	C	-0.211771	0.058882	-0.083514
C72	C	0.288229	0.558882	0.416486
C73	C	-0.262188	0.058370	-0.083499
C74	C	0.237812	0.558370	0.416501
C75	C	-0.262177	0.058370	0.084053
C76	C	0.237823	0.558370	0.584053
C77	C	-0.211765	0.058885	0.084039
C78	C	0.288235	0.558885	0.584039
C79	C	-0.186563	0.059139	0.000248
C80	C	0.313437	0.559139	0.500248
O81	O	-0.132009	0.059713	0.155220
O82	O	0.367991	0.559713	0.655220
O83	O	-0.131980	0.059685	-0.154775
O84	O	0.368020	0.559685	0.345225
C85	C	0.095746	0.062022	-0.083562
C86	C	0.595746	0.562022	0.416438
C87	C	0.120954	0.062278	0.000207
C88	C	0.620954	0.562278	0.500207
C89	C	0.095750	0.062021	0.083983
C90	C	0.595750	0.562021	0.583983
C91	C	0.171368	0.062797	0.000201
C92	C	0.671368	0.562797	0.500201
C93	C	0.196571	0.063054	-0.083575
C94	C	0.696571	0.563054	0.416425
C95	C	0.171361	0.062793	-0.167345
C96	C	0.671361	0.562793	0.332655
C97	C	0.120950	0.062279	-0.167338
C98	C	0.620950	0.562279	0.332662
C99	C	0.120960	0.062282	0.167753
C100	C	0.620960	0.562282	0.667753
C101	C	0.171372	0.062796	0.167739
C102	C	0.671372	0.562796	0.667739
C103	C	0.196575	0.063054	0.083963
C104	C	0.696575	0.563054	0.583963
C105	C	0.574730	-0.026627	0.000224
C106	C	1.074730	0.473373	0.500224
C107	C	0.574174	-0.080282	0.000215
C108	C	1.074174	0.419718	0.500215
C109	C	0.526206	-0.457345	0.000192
C110	C	1.026206	0.042655	0.500192
C111	C	0.528252	-0.255685	0.000192
C112	C	1.028252	0.244315	0.500192
O113	O	0.491030	-0.224425	0.000141
O114	O	0.991030	0.275575	0.500141
N115	N	0.572588	-0.236566	0.000209
N116	N	1.072588	0.263434	0.500209
C117	C	0.616415	-0.267866	0.000221
C118	C	1.116415	0.232134	0.500221
O119	O	0.654172	-0.246977	0.000226
O120	O	1.154172	0.253023	0.500226
C121	C	0.614368	-0.469525	0.000214
C122	C	1.114368	0.030475	0.500214
C123	C	0.570030	-0.488641	0.000207
C124	C	1.070030	0.011359	0.500207
C125	C	0.481871	-0.476461	0.000184
C126	C	0.981871	0.023539	0.500184
C127	C	0.481360	-0.526873	0.000189
C128	C	0.981360	-0.026873	0.500189
C129	C	0.525184	-0.558169	0.000203
C130	C	1.025184	-0.058169	0.500203
C131	C	0.569518	-0.539053	0.000212
C132	C	1.069518	-0.039053	0.500212
C133	C	0.658194	-0.500824	0.000219
C134	C	1.158194	-0.000824	0.500219
C135	C	0.657679	-0.551241	0.000215
C136	C	1.157679	-0.051241	0.500215
C137	C	0.613340	-0.570357	0.000207
C138	C	1.113340	-0.070357	0.500207
C139	C	0.612831	-0.620761	0.000231
C140	C	1.112831	-0.120761	0.500231
N141	N	0.568496	-0.639879	0.000214
N142	N	1.068496	-0.139879	0.500214
C143	C	0.524672	-0.608584	0.000200
C144	C	1.024672	-0.108584	0.500200
C145	C	0.617486	-0.161992	0.000226
C146	C	1.117486	0.338008	0.500226
C147	C	0.617998	-0.111577	0.000229
C148	C	1.117998	0.388423	0.500229
C149	C	0.529835	-0.099400	0.000199
C150	C	1.029835	0.400600	0.500199
C151	C	0.529324	-0.149815	0.000202
C152	C	1.029324	0.350185	0.500202
C153	C	0.573151	-0.181111	0.000208
C154	C	1.073151	0.318889	0.500208
C155	C	0.523602	-0.714453	0.000211
C156	C	1.023602	-0.214453	0.500211
C157	C	0.523095	-0.764870	0.000220
C158	C	1.023095	-0.264870	0.500220
C159	C	0.611257	-0.777043	0.000246
C160	C	1.111257	-0.277043	0.500246
C161	C	0.611765	-0.726630	0.000241
C162	C	1.111765	-0.226630	0.500241
C163	C	0.567933	-0.695336	0.000221
C164	C	1.067933	-0.195336	0.500221
O165	O	0.650033	-0.652049	0.000272
O166	O	1.150033	-0.152049	0.500272
O167	O	0.486920	-0.629482	0.000174
O168	O	0.986920	-0.129482	0.500174
C169	C	0.526717	-0.406933	0.000187
C170	C	1.026717	0.093067	0.500187
C171	C	0.571052	-0.387817	0.000196
C172	C	1.071052	0.112183	0.500196
C173	C	0.614875	-0.419112	0.000210
C174	C	1.114875	0.080888	0.500210
C175	C	0.571564	-0.337402	0.000199
C176	C	1.071564	0.162598	0.500199
C177	C	0.527740	-0.306107	0.000185
C178	C	1.027740	0.193893	0.500185
C179	C	0.483404	-0.325225	0.000168
C180	C	0.983404	0.174775	0.500168
C181	C	0.482893	-0.375637	0.000173
C182	C	0.982893	0.124363	0.500173
C183	C	0.659211	-0.399994	0.000228
C184	C	1.159211	0.100006	0.500228
C185	C	0.659718	-0.349581	0.000224
C186	C	1.159718	0.150419	0.500224
C187	C	0.615895	-0.318285	0.000209
C188	C	1.115895	0.181715	0.500209
C189	C	0.658952	0.057570	0.000261
C190	C	1.158952	0.557570	0.500261
C191	C	0.712608	0.058112	0.000277
C192	C	1.212608	0.558112	0.500277
C193	C	0.566362	0.150180	0.000231
C194	C	1.066362	0.650180	0.500231
C195	C	0.566918	0.203834	0.000234
C196	C	1.066918	0.703834	0.500234
N197	N	0.570523	0.061782	0.218933
N198	N	1.070523	0.561782	0.718933
N199	N	0.570574	0.061766	-0.218476
N200	N	1.070574	0.561766	0.281524
C201	C	0.570557	0.061772	0.593024
C202	C	1.070557	0.561772	1.093024
C203	C	0.530418	0.101655	0.553844
C204	C	1.030418	0.601655	1.053844
C205	C	0.530509	0.101798	0.446756
C206	C	1.030509	0.601798	0.946756
C207	C	0.570540	0.061777	0.407433
C208	C	1.070540	0.561777	0.907433
C209	C	0.620896	0.072407	0.446291
C210	C	1.120896	0.572407	0.946291
C211	C	0.620670	0.072690	0.553412
C212	C	1.120670	0.572690	1.053412
C213	C	0.560790	0.011138	0.553547
C214	C	1.060790	0.511138	1.053547
C215	C	0.559630	0.011485	0.446419
C216	C	1.059630	0.511485	0.946419
C217	C	0.570533	0.061779	0.302545
C218	C	1.070533	0.561779	0.802545
C219	C	0.570567	0.061771	0.697912
C220	C	1.070567	0.561771	1.197912
H221	H	0.040642	0.061459	-0.235548
H222	H	0.540642	0.561459	0.264452
H223	H	0.100444	0.062070	0.235975
H224	H	0.600444	0.562070	0.735975
H225	H	0.629778	0.108898	0.419459
H226	H	1.129778	0.608898	0.919459
N227	N	0.706480	-0.433745	0.000257
N228	N	1.206480	0.066255	0.500257
H229	H	0.708246	-0.454940	-0.056708
H230	H	1.208246	0.045060	0.443292
H231	H	0.734613	-0.413946	0.000304
H232	H	1.234613	0.086054	0.500304
N233	N	0.661393	0.035655	0.587774
N234	N	1.161393	0.535655	1.087774
H235	H	0.647461	0.010503	0.626565
H236	H	1.147461	0.510503	1.126565
H237	H	0.679405	0.019246	0.533289
H238	H	1.179405	0.519246	1.033289
H239	H	0.494152	-0.073910	0.000191
H240	H	0.994152	0.426090	0.500191
N241	N	0.599561	-0.028177	0.587104
N242	N	1.099561	0.471823	1.087104
H243	H	0.632483	-0.020886	0.565436
H244	H	1.132483	0.479114	1.065436
H245	H	0.599038	-0.029342	0.656843
H246	H	1.099038	0.470658	1.156843
N247	N	-0.289377	0.058087	-0.173859
N248	N	0.210623	0.558087	0.326141
H249	H	-0.314437	0.087850	-0.177595
H250	H	0.185563	0.587850	0.322405
H251	H	-0.265725	0.058307	-0.226878
H252	H	0.234275	0.558307	0.273122
N253	N	0.480913	0.093487	0.411948
N254	N	0.980913	0.593487	0.911948
H255	H	0.458794	0.089698	0.466191
H256	H	0.958794	0.589698	0.966191
H257	H	0.466811	0.122193	0.373283
H258	H	0.966811	0.622193	0.873283
N259	N	0.510568	0.000782	0.412771
N260	N	1.010568	0.500782	0.912771
H261	H	0.503755	-0.031608	0.438066
H262	H	1.003755	0.468392	0.938066
H263	H	0.484604	0.027186	0.434686
H264	H	0.984604	0.527186	0.934686
H265	H	0.647868	-0.711066	0.000261
H266	H	1.147868	-0.211066	0.500261
H267	H	0.191891	0.063009	0.235964
H268	H	0.691891	0.563009	0.735964
H269	H	0.492853	0.095488	0.579617
H270	H	0.992853	0.595488	1.079617
H271	H	0.536529	0.139026	0.580758
H272	H	1.036529	0.639026	1.080758
H273	H	0.486988	-0.780431	0.000218
H274	H	0.986988	-0.280431	0.500218
H275	H	0.586995	-0.019554	0.419654
H276	H	1.086995	0.480446	0.919654
N277	N	0.434602	-0.442708	0.000173
N278	N	0.934602	0.057292	0.500173
H279	H	0.415246	-0.448822	-0.056800
H280	H	0.915246	0.051178	0.443200
H281	H	0.415279	-0.448839	0.057177
H282	H	0.915279	0.051161	0.557177
H283	H	0.191891	0.063005	-0.235559
H284	H	0.691891	0.563005	0.264441
N285	N	0.476328	-0.680704	0.000188
N286	N	0.976328	-0.180704	0.500188
H287	H	0.448168	-0.700471	0.000185
H288	H	0.948168	-0.200471	0.500185
H289	H	0.474612	-0.659519	0.057158
H290	H	0.974612	-0.159519	0.557158
N291	N	0.325687	0.064383	0.174324
N292	N	0.825687	0.564383	0.674324
H293	H	0.349355	0.064302	0.227382
H294	H	0.849355	0.564302	0.727382
H295	H	0.300845	0.094310	0.178251
H296	H	0.800845	0.594310	0.678251
N297	N	0.430468	0.065463	0.174303
N298	N	0.930468	0.565463	0.674303
H299	H	0.447239	0.095654	0.178043
H300	H	0.947239	0.595654	0.678043
H301	H	0.406821	0.065201	0.227321
H302	H	0.906821	0.565201	0.727321
N303	N	-0.057469	0.060450	-0.257675
N304	N	0.442531	0.560450	0.242325
H305	H	-0.082531	0.090210	-0.261421
H306	H	0.417469	0.590210	0.238579
H307	H	-0.033813	0.060670	-0.310687
H308	H	0.466187	0.560670	0.189313
N309	N	0.706015	-0.480210	0.000208
N310	N	1.206015	0.019790	0.500208
H311	H	0.708197	-0.459561	0.057174
H312	H	1.208197	0.040439	0.557174
H313	H	0.733669	-0.507716	0.000173
H314	H	1.233669	-0.007716	0.500173
H315	H	0.654103	-0.096018	0.000250
H316	H	1.154103	0.403982	0.500250
N317	N	0.093765	0.062001	-0.257696
N318	N	0.593765	0.562001	0.242304
H319	H	0.117388	0.062241	-0.310762
H320	H	0.617388	0.562241	0.189238
H321	H	0.076994	0.031808	-0.261349
H322	H	0.576994	0.531808	0.238651
N323	N	-0.184593	0.059154	-0.173885
N324	N	0.315407	0.559154	0.326115
H325	H	-0.208218	0.058914	-0.226945
H326	H	0.291782	0.558914	0.273055
H327	H	-0.167820	0.089345	-0.177541
H328	H	0.332180	0.589345	0.322459
H329	H	0.332338	0.064456	-0.151815
H330	H	0.832338	0.564456	0.348185
H331	H	0.445255	-0.542432	0.000174
H332	H	0.945255	-0.042432	0.500174
N333	N	0.481503	-0.170432	0.000197
N334	N	0.981503	0.329568	0.500197
H335	H	0.453821	-0.142952	0.000193
H336	H	0.953821	0.357048	0.500193
H337	H	0.479372	-0.191084	-0.056776
H338	H	0.979372	0.308916	0.443224
H339	H	0.653177	-0.187469	0.000232
H340	H	1.153177	0.312531	0.500232
H341	H	0.693369	-0.576720	0.000215
H342	H	1.193369	-0.076720	0.500215
H343	H	0.423804	0.065391	-0.151818
H344	H	0.923804	0.565391	0.348182
N345	N	-0.184577	0.059167	0.174397
N346	N	0.315423	0.559167	0.674397
H347	H	-0.159518	0.029403	0.178129
H348	H	0.340482	0.529403	0.678129
H349	H	-0.167832	0.089375	0.178075
H350	H	0.332168	0.589375	0.678075
N351	N	0.658522	-0.810802	0.000269
N352	N	1.158522	-0.310802	0.500269
H353	H	0.651467	-0.845639	0.000268
H354	H	1.151467	-0.345639	0.500268
H355	H	0.677867	-0.804655	-0.056698
H356	H	1.177867	-0.304655	0.443302
H357	H	0.446789	-0.391196	0.000168
H358	H	0.946789	0.108804	0.500168
H359	H	0.536708	0.139381	0.421127
H360	H	1.036708	0.639381	0.921127
N361	N	0.632147	0.121585	0.586512
N362	N	1.132147	0.621585	1.086512
H363	H	0.637305	0.142753	0.531517
H364	H	1.137305	0.642753	1.031517
H365	H	0.604171	0.137688	0.624833
H366	H	1.104171	0.637688	1.124833
N367	N	-0.289366	0.058095	0.174409
N368	N	0.210634	0.558095	0.674409
H369	H	-0.325212	0.058379	0.161700
H370	H	0.174788	0.558379	0.661700
H371	H	-0.276852	0.027881	0.210446
H372	H	0.223148	0.527881	0.710446
H373	H	0.447722	-0.299735	0.000162
H374	H	0.947722	0.200265	0.500162
H375	H	0.040648	0.061451	0.235997
H376	H	0.540648	0.561451	0.735997
H377	H	0.695827	-0.334022	0.000237
H378	H	1.195827	0.165978	0.500237
H379	H	-0.050802	0.060516	0.236003
H380	H	0.449198	0.560516	0.736003
H381	H	0.651463	0.044114	0.420818
H382	H	1.151463	0.544114	0.920818
H383	H	0.524887	0.000821	0.580600
H384	H	1.024887	0.500821	1.080600
