data_functionalizedCrystal
_audit_creation_method	'MofGen! by Chris Wilmer'
_symmetry_space_group_name_H-M	'P1'
_symmetry_Int_Tables_number	1
_symmetry_cell_setting	triclinic
loop_
_symmetry_equiv_pos_as_xyz
  x,y,z
_cell_length_a	16.625546
_cell_length_b	12.827893
_cell_length_c	12.827885
_cell_angle_alpha	89.978811
_cell_angle_beta	90.035124
_cell_angle_gamma	89.979513
loop_
_atom_site_label
_atom_site_type_symbol
_atom_site_fract_x
_atom_site_fract_y
_atom_site_fract_z
Zn1	Zn	-0.321005	-1.597618	0.590863
Zn2	Zn	-0.455859	-1.597491	0.416107
Zn3	Zn	-0.321040	-1.422860	0.416131
Zn4	Zn	-0.455795	-1.422823	0.590801
O5	O	-0.388425	-1.510198	0.503476
O6	O	-0.338906	-1.743837	0.567697
O7	O	-0.438017	-1.574287	0.269874
O8	O	-0.208203	-1.446110	0.439346
O9	O	-0.437983	-1.743744	0.439305
O10	O	-0.208177	-1.574505	0.567721
O11	O	-0.338965	-1.445987	0.269892
O12	O	-0.338903	-1.276619	0.439286
O13	O	-0.437873	-1.446048	0.737046
O14	O	-0.437907	-1.276592	0.567615
O15	O	-0.338844	-1.574469	0.737091
O16	O	-0.568683	-1.574252	0.439245
O17	O	-0.568636	-1.445925	0.567592
C18	C	-0.388402	-1.238688	0.503447
C19	C	-0.388412	-1.122535	0.503459
C20	C	-0.437477	-1.070765	0.566861
C21	C	-0.437488	-0.950714	0.566875
C22	C	-0.597916	-1.510099	0.503432
C23	C	-0.687537	-1.510152	0.503448
C24	C	-1.015712	-1.510335	0.503557
C25	C	-0.924404	-1.510281	0.503530
C26	C	-0.851627	-1.510243	0.503502
C27	C	-0.760313	-1.510190	0.503476
C28	C	-0.178116	-1.510326	0.503543
C29	C	-0.088495	-1.510380	0.503571
C30	C	-0.388347	-1.510269	0.776046
C31	C	-0.388314	-1.510299	0.892199
C32	C	-0.388442	-0.782768	0.503497
C33	C	-0.388432	-0.898921	0.503485
C34	C	-0.388444	-1.510187	0.231966
C35	C	-0.388250	-1.510359	0.115813
C36	C	-0.339302	-1.573853	0.944007
C37	C	-0.339267	-1.573886	1.064057
H38	H	-0.479498	-0.906193	0.621153
C39	C	-0.202752	-1.624852	1.097900
C40	C	-0.282614	-1.647345	1.124188
H41	H	-0.167777	-1.670209	1.135020
H42	H	-0.190960	-1.554644	1.115741
H43	H	-0.195355	-1.634467	1.025111
H44	H	-0.290013	-1.637722	1.196976
H45	H	-0.294411	-1.717570	1.106354
C46	C	-0.377192	-0.999613	0.363029
C47	C	-0.331718	-1.062409	0.430176
H48	H	-0.342190	-0.962504	0.317779
H49	H	-0.407962	-0.951576	0.402810
H50	H	-0.412255	-1.042179	0.322948
H51	H	-0.296658	-1.019842	0.470264
H52	H	-0.300934	-1.110451	0.390392
C53	C	-0.300073	-1.750790	0.910234
C54	C	-0.282685	-1.647280	0.883919
H55	H	-0.265115	-1.796121	0.873145
H56	H	-0.354260	-1.766022	0.892374
H57	H	-0.292623	-1.760430	0.983029
H58	H	-0.290142	-1.637639	0.811125
H59	H	-0.228486	-1.632044	0.901772
C60	C	-0.496654	-1.495859	0.992910
C61	C	-0.444901	-1.436903	1.055678
H62	H	-0.531624	-1.450509	0.955775
H63	H	-0.527516	-1.541331	1.035489
H64	H	-0.465917	-1.535708	0.944885
H65	H	-0.475638	-1.397059	1.103708
H66	H	-0.414036	-1.391413	1.013096
C67	C	-0.448709	-1.193710	0.707271
C68	C	-0.494177	-1.130904	0.640127
H69	H	-0.483716	-1.230840	0.752498
H70	H	-0.413659	-1.151159	0.747368
H71	H	-0.417926	-1.241740	0.667479
H72	H	-0.524955	-1.082869	0.679918
H73	H	-0.529241	-1.173459	0.600025
H74	H	-0.346426	-0.943436	0.449198
H75	H	-0.430244	-1.455906	0.936722
