data_functionalizedCrystal
_audit_creation_method	'MofGen! by Chris Wilmer'
_symmetry_space_group_name_H-M	'P1'
_symmetry_Int_Tables_number	1
_symmetry_cell_setting	triclinic
loop_
_symmetry_equiv_pos_as_xyz
  x,y,z
_cell_length_a	13.897449
_cell_length_b	16.120444
_cell_length_c	13.897441
_cell_angle_alpha	87.133622
_cell_angle_beta	90.020733
_cell_angle_gamma	92.927816
loop_
_atom_site_label
_atom_site_type_symbol
_atom_site_fract_x
_atom_site_fract_y
_atom_site_fract_z
Zn1	Zn	1.455175	-0.331853	0.564829
Zn2	Zn	1.705175	-0.081853	0.814829
Zn3	Zn	1.955175	0.168147	1.064829
Zn4	Zn	2.205175	0.418147	1.314829
Zn5	Zn	1.446864	-0.471285	0.411701
Zn6	Zn	1.696864	-0.221285	0.661701
Zn7	Zn	1.946864	0.028715	0.911701
Zn8	Zn	2.196864	0.278715	1.161701
Zn9	Zn	1.293862	-0.331893	0.403549
Zn10	Zn	1.543862	-0.081893	0.653549
Zn11	Zn	1.793862	0.168107	0.903549
Zn12	Zn	2.043862	0.418107	1.153549
Zn13	Zn	1.285645	-0.471230	0.572950
Zn14	Zn	1.535645	-0.221230	0.822950
Zn15	Zn	1.785645	0.028770	1.072950
Zn16	Zn	2.035645	0.278770	1.322950
O17	O	1.370386	-0.401565	0.488257
O18	O	1.620386	-0.151565	0.738257
O19	O	1.870386	0.098435	0.988257
O20	O	2.120386	0.348435	1.238257
O21	O	1.589054	-0.350355	0.544528
O22	O	1.839054	-0.100355	0.794528
O23	O	2.089054	0.149645	1.044528
O24	O	2.339054	0.399645	1.294528
O25	O	1.426529	-0.452834	0.275640
O26	O	1.676529	-0.202834	0.525640
O27	O	1.926529	0.047166	0.775640
O28	O	2.176529	0.297166	1.025640
O29	O	1.322178	-0.215222	0.418133
O30	O	1.572178	0.034778	0.668133
O31	O	1.822178	0.284778	0.918133
O32	O	2.072178	0.534778	1.168133
O33	O	1.582948	-0.452796	0.432026
O34	O	1.832948	-0.202796	0.682026
O35	O	2.082948	0.047204	0.932026
O36	O	2.332948	0.297204	1.182026
O37	O	1.440694	-0.215192	0.536624
O38	O	1.690694	0.034808	0.786624
O39	O	1.940694	0.284808	1.036624
O40	O	2.190694	0.534808	1.286624
O41	O	1.314119	-0.350423	0.269651
O42	O	1.564119	-0.100423	0.519651
O43	O	1.814119	0.149577	0.769651
O44	O	2.064119	0.399577	1.019651
O45	O	1.157791	-0.350370	0.426008
O46	O	1.407791	-0.100370	0.676008
O47	O	1.657791	0.149630	0.926008
O48	O	1.907791	0.399630	1.176008
O49	O	1.308172	-0.452702	0.706852
O50	O	1.558172	-0.202702	0.956852
O51	O	1.808172	0.047298	1.206852
O52	O	2.058172	0.297298	1.456852
O53	O	1.151753	-0.452741	0.550466
O54	O	1.401753	-0.202741	0.800466
O55	O	1.651753	0.047259	1.050466
O56	O	1.901753	0.297259	1.300466
O57	O	1.432726	-0.350302	0.700885
O58	O	1.682726	-0.100302	0.950885
O59	O	1.932726	0.149698	1.200885
O60	O	2.182726	0.399698	1.450885
O61	O	1.418561	-0.587944	0.439902
O62	O	1.668561	-0.337944	0.689902
O63	O	1.918561	-0.087944	0.939902
O64	O	2.168561	0.162056	1.189902
O65	O	1.300114	-0.587904	0.558371
O66	O	1.550114	-0.337904	0.808371
O67	O	1.800114	-0.087904	1.058371
O68	O	2.050114	0.162096	1.308371
C69	C	1.119773	-0.401554	0.488235
C70	C	1.369773	-0.151554	0.738235
C71	C	1.619773	0.098446	0.988235
C72	C	1.869773	0.348446	1.238235
C73	C	1.012558	-0.401570	0.488249
C74	C	1.262558	-0.151570	0.738249
C75	C	1.512558	0.098430	0.988249
C76	C	1.762558	0.348430	1.238249
C77	C	0.816263	-0.401573	0.488275
C78	C	1.066263	-0.151573	0.738275
C79	C	1.316263	0.098427	0.988275
C80	C	1.566263	0.348427	1.238275
C81	C	0.925495	-0.401568	0.488258
C82	C	1.175495	-0.151568	0.738258
C83	C	1.425495	0.098432	0.988258
C84	C	1.675495	0.348432	1.238258
C85	C	1.357570	-0.618174	0.500923
C86	C	1.607570	-0.368174	0.750923
C87	C	1.857570	-0.118174	1.000923
C88	C	2.107570	0.131826	1.250923
C89	C	1.352175	-0.710840	0.506374
C90	C	1.602175	-0.460840	0.756374
C91	C	1.852175	-0.210840	1.006374
C92	C	2.102175	0.039160	1.256374
C93	C	1.398608	-0.921783	0.460189
C94	C	1.648608	-0.671783	0.710189
C95	C	1.898608	-0.421783	0.960189
C96	C	2.148608	-0.171783	1.210189
C97	C	1.342344	-0.880497	0.516336
C98	C	1.592344	-0.630497	0.766336
C99	C	1.842344	-0.380497	1.016336
C100	C	2.092344	-0.130497	1.266336
C101	C	1.347816	-0.786091	0.510791
C102	C	1.597816	-0.536091	0.760791
C103	C	1.847816	-0.286091	1.010791
C104	C	2.097816	-0.036091	1.260791
C105	C	1.393137	-1.016197	0.465732
C106	C	1.643137	-0.766197	0.715732
C107	C	1.893137	-0.516197	0.965732
C108	C	2.143137	-0.266197	1.215732
C109	C	1.621979	-0.401577	0.488281
C110	C	1.871979	-0.151577	0.738281
C111	C	2.121979	0.098423	0.988281
C112	C	2.371979	0.348423	1.238281
C113	C	1.729192	-0.401582	0.488291
C114	C	1.979192	-0.151582	0.738291
C115	C	2.229192	0.098418	0.988291
C116	C	2.479192	0.348418	1.238291
C117	C	1.370459	-0.401492	0.739846
C118	C	1.620459	-0.151492	0.989846
C119	C	1.870459	0.098508	1.239846
C120	C	2.120459	0.348508	1.489846
C121	C	1.370490	-0.401460	0.847058
C122	C	1.620490	-0.151460	1.097058
C123	C	1.870490	0.098540	1.347058
C124	C	2.120490	0.348540	1.597058
C125	C	1.383279	-0.184111	0.475563
C126	C	1.633279	0.065889	0.725563
C127	C	1.883279	0.315889	0.975563
C128	C	2.133279	0.565889	1.225563
C129	C	1.388773	-0.091445	0.470154
C130	C	1.638773	0.158555	0.720154
C131	C	1.888773	0.408555	0.970154
C132	C	2.138773	0.658555	1.220154
C133	C	1.370373	-0.401579	0.237644
C134	C	1.620373	-0.151579	0.487644
C135	C	1.870373	0.098421	0.737644
C136	C	2.120373	0.348421	0.987644
C137	C	1.370543	-0.401375	0.130418
C138	C	1.620543	-0.151375	0.380418
C139	C	1.870543	0.098625	0.630418
C140	C	2.120543	0.348625	0.880418
C141	C	1.370520	-0.401404	1.043350
C142	C	1.620520	-0.151404	1.293350
C143	C	1.870520	0.098596	1.543350
C144	C	2.120520	0.348596	1.793350
C145	C	1.370500	-0.401438	0.934120
C146	C	1.620500	-0.151438	1.184120
C147	C	1.870500	0.098562	1.434120
C148	C	2.120500	0.348562	1.684120
H149	H	1.290065	-0.916052	0.568569
H150	H	1.540065	-0.666052	0.818569
H151	H	1.790065	-0.416052	1.068569
H152	H	2.040065	-0.166052	1.318569
H153	H	1.450882	-0.886231	0.407958
H154	H	1.700882	-0.636231	0.657958
H155	H	1.950882	-0.386231	0.907958
H156	H	2.200882	-0.136231	1.157958
