data_functionalizedCrystal
_audit_creation_method	'MofGen! by Chris Wilmer'
_symmetry_space_group_name_H-M	'P1'
_symmetry_Int_Tables_number	1
_symmetry_cell_setting	triclinic
loop_
_symmetry_equiv_pos_as_xyz
  x,y,z
_cell_length_a	14.971482
_cell_length_b	14.044220
_cell_length_c	14.048226
_cell_angle_alpha	89.992807
_cell_angle_beta	89.994098
_cell_angle_gamma	88.400743
loop_
_atom_site_label
_atom_site_type_symbol
_atom_site_fract_x
_atom_site_fract_y
_atom_site_fract_z
O1	O	1.196680	0.123521	-0.079151
O2	O	0.937445	0.138318	-0.079156
O3	O	1.063171	-0.007069	-0.079144
O4	O	1.070953	0.268909	-0.079163
O5	O	1.063154	-0.007078	0.079177
O6	O	0.937428	0.138310	0.079165
O7	O	1.196663	0.123512	0.079170
Zn8	Zn	1.067042	0.130910	0.104305
Zn9	Zn	1.067065	0.130921	-0.104290
O10	O	1.070936	0.268900	0.079159
C11	C	0.904059	0.137653	0.000004
C12	C	0.804606	0.135672	0.000003
C13	C	0.757879	0.134734	0.086305
C14	C	0.664432	0.132857	0.086306
C15	C	0.617715	0.131925	0.000004
C16	C	0.664449	0.132860	-0.086305
C17	C	0.757894	0.134730	-0.086305
C18	C	0.469680	0.128965	-0.086298
C19	C	0.376229	0.127097	-0.086299
C20	C	0.376219	0.127092	0.086312
C21	C	0.469664	0.128962	0.086312
C22	C	0.516391	0.129899	0.000003
C23	C	1.059756	-0.042392	0.000017
C24	C	1.049595	-0.147629	0.000018
C25	C	1.031018	-0.340311	0.000004
C26	C	1.103085	-0.397864	0.000002
C27	C	1.092749	-0.505079	-0.000005
C28	C	1.041353	-0.233086	0.000012
C29	C	1.230048	0.124178	0.000008
C30	C	1.329501	0.126159	0.000003
C31	C	1.074351	0.304223	-0.000005
C32	C	1.084513	0.409460	-0.000012
N33	N	1.067033	0.130901	0.246666
N34	N	1.067081	0.130922	-0.246651
C35	C	1.122726	0.066550	0.296489
C36	C	1.122732	0.066550	0.396146
C37	C	1.067049	0.130906	0.445979
C38	C	1.011350	0.195260	0.396149
C39	C	1.011340	0.195255	0.296493
C40	C	1.011377	0.195267	0.603863
C41	C	1.011388	0.195273	0.703526
C42	C	1.122769	0.066561	0.703517
C43	C	1.122759	0.066557	0.603861
C44	C	1.067061	0.130912	0.554037
H45	H	0.795909	0.135501	0.156582
C46	C	0.521078	0.130000	-0.181243
N47	N	0.559791	0.130787	-0.252755
H48	H	0.966008	0.247656	0.436728
H49	H	1.172547	-0.366615	-0.000060
H50	H	0.338194	0.126339	-0.156573
C51	C	0.950082	0.266054	0.241688
N52	N	0.903940	0.319382	0.200410
H53	H	0.961562	-0.371558	0.000000
C54	C	1.183982	-0.004248	0.241682
N55	N	1.230119	-0.057578	0.200405
C56	C	1.183976	-0.004264	0.450948
N57	N	1.230098	-0.057614	0.492223
H58	H	0.338169	0.126330	0.156588
H59	H	0.626392	0.132078	0.156582
H60	H	0.966018	0.247669	0.563300
H61	H	1.168104	0.014158	0.563287
H62	H	0.626405	0.132095	-0.156573
C63	C	0.521051	0.129989	0.181249
N64	N	0.559756	0.130758	0.252756
C65	C	1.184034	-0.004234	0.758324
N66	N	1.230178	-0.057553	0.799609
H67	H	0.795938	0.135496	-0.156581
C68	C	0.950128	0.266062	0.758340
N69	N	0.903985	0.319380	0.799625
