data_functionalizedCrystal
_audit_creation_method	'MofGen! by Chris Wilmer'
_symmetry_space_group_name_H-M	'P1'
_symmetry_Int_Tables_number	1
_symmetry_cell_setting	triclinic
loop_
_symmetry_equiv_pos_as_xyz
  x,y,z
_cell_length_a	10.489741
_cell_length_b	10.654550
_cell_length_c	9.130313
_cell_angle_alpha	89.995417
_cell_angle_beta	90.003555
_cell_angle_gamma	95.487962
loop_
_atom_site_label
_atom_site_type_symbol
_atom_site_fract_x
_atom_site_fract_y
_atom_site_fract_z
O1	O	1.693971	-0.177194	0.121705
O2	O	1.322767	-0.193826	0.121727
O3	O	1.516904	-0.002775	0.121710
O4	O	1.499835	-0.368245	0.121722
O5	O	1.516881	-0.002765	-0.121889
O6	O	1.322744	-0.193817	-0.121872
O7	O	1.693948	-0.177185	-0.121894
Cu8	Cu	1.508344	-0.185500	-0.144125
Cu9	Cu	1.508371	-0.185511	0.143958
O10	O	1.499811	-0.368236	-0.121877
C11	C	1.275225	-0.192565	-0.000069
C12	C	1.133597	-0.188807	-0.000061
N13	N	1.508334	-0.185491	-0.346748
C14	C	1.515639	0.044029	-0.000088
C15	C	1.511889	0.183474	-0.000082
C16	C	1.065516	-0.067246	-0.000079
C17	C	0.973373	-0.124675	0.120027
C18	C	0.973384	-0.124695	-0.120142
C19	C	1.043319	-0.246285	0.120144
C20	C	1.043340	-0.246288	-0.120133
C21	C	0.951224	-0.303805	0.000002
C22	C	1.741491	-0.178445	-0.000094
C23	C	1.883118	-0.182204	-0.000093
C24	C	1.501076	-0.415039	-0.000076
C25	C	1.504826	-0.554484	-0.000072
C26	C	1.626194	0.262906	-0.000094
C27	C	1.622663	0.393928	-0.000083
C28	C	1.390513	0.366074	-0.000056
C29	C	1.394045	0.235054	-0.000056
C30	C	1.744038	0.211326	-0.000120
C31	C	1.858352	0.290759	-0.000133
C32	C	1.854821	0.421782	-0.000122
C33	C	1.736976	0.473371	-0.000099
C34	C	1.422397	-0.270074	-0.576768
C35	C	1.422365	-0.270062	-0.423431
C36	C	1.594332	-0.100918	-0.423410
C37	C	1.594357	-0.100924	-0.576744
C38	C	1.336431	-0.354659	-0.653443
C39	C	1.250431	-0.439232	-0.576792
C40	C	1.250399	-0.439220	-0.423455
C41	C	1.336367	-0.354636	-0.346769
N42	N	1.508391	-0.185509	0.346581
H43	H	1.115254	0.032684	0.000068
O44	O	1.167045	-0.521342	-0.651504
C45	C	1.185489	-0.503201	-0.803278
H46	H	1.286490	-0.457237	-0.824197
H47	H	1.172145	-0.598182	-0.861537
H48	H	1.112747	-0.439517	-0.846830
O49	O	0.936274	-0.063484	-0.241329
C50	C	0.852145	-0.145946	-0.325135
H51	H	0.805807	-0.223991	-0.251728
H52	H	0.774654	-0.091255	-0.375182
H53	H	0.907942	-0.189271	-0.416260
H54	H	1.664325	-0.032054	-0.360962
O55	O	0.936486	-0.063122	0.241052
C56	C	0.995249	0.061554	0.240646
H57	H	1.022698	0.090456	0.123766
H58	H	0.925654	0.127697	0.286007
H59	H	1.084910	0.067326	0.311835
O60	O	1.166813	-0.521485	-0.349221
C61	C	1.090925	-0.596115	-0.449783
H62	H	1.143256	-0.598039	-0.559067
H63	H	1.072344	-0.696227	-0.405468
H64	H	0.995812	-0.554429	-0.466132
H65	H	0.901752	-0.403841	0.000071
O66	O	1.677948	-0.018949	-0.651366
C67	C	1.757272	-0.086963	-0.740003
H68	H	1.707344	-0.184755	-0.762977
H69	H	1.777003	-0.034733	-0.847828
H70	H	1.851609	-0.096396	-0.680881
O71	O	1.275937	0.415977	0.000021
C72	C	1.175803	0.317770	-0.000006
H73	H	1.212351	0.228454	0.046111
H74	H	1.093610	0.345885	0.070723
H75	H	1.140476	0.299560	-0.116870
O76	O	1.079980	-0.307799	0.241320
C77	C	1.020240	-0.432100	0.241618
H78	H	0.992269	-0.461183	0.124942
H79	H	1.089355	-0.498699	0.287062
H80	H	0.930792	-0.436931	0.313089
H81	H	1.336324	-0.354626	-0.221912
O82	O	1.080317	-0.307410	-0.241419
C83	C	1.045039	-0.243009	-0.367814
H84	H	1.033865	-0.140525	-0.339041
H85	H	1.122400	-0.246768	-0.454966
H86	H	0.950328	-0.289656	-0.411641
O87	O	1.747699	0.084080	-0.000062
C88	C	1.876217	0.055583	-0.000128
H89	H	1.939922	0.138967	0.045985
H90	H	1.885644	-0.031233	0.070586
H91	H	1.907010	0.035970	-0.117002
H92	H	1.954297	0.248746	-0.000115
H93	H	1.947901	0.486453	-0.000118
H94	H	1.734110	0.580059	-0.000075
H95	H	1.336452	-0.354679	-0.778298
O96	O	1.283048	0.157831	0.000208
C97	C	1.278183	0.081183	0.126353
H98	H	1.342993	0.128572	0.214527
H99	H	1.175569	0.067367	0.168712
H100	H	1.312051	-0.014368	0.097828
