data_functionalizedCrystal
_audit_creation_method	'MofGen! by Chris Wilmer'
_symmetry_space_group_name_H-M	'P1'
_symmetry_Int_Tables_number	1
_symmetry_cell_setting	triclinic
loop_
_symmetry_equiv_pos_as_xyz
  x,y,z
_cell_length_a	13.033385
_cell_length_b	13.032721
_cell_length_c	13.032328
_cell_angle_alpha	76.711499
_cell_angle_beta	74.839338
_cell_angle_gamma	89.136775
loop_
_atom_site_label
_atom_site_type_symbol
_atom_site_fract_x
_atom_site_fract_y
_atom_site_fract_z
Zn1	Zn	-1.451035	0.662392	-0.490336
Zn2	Zn	-1.450921	0.817467	-0.335298
Zn3	Zn	-1.301710	0.623083	-0.329620
Zn4	Zn	-1.250846	0.817417	-0.535432
O5	O	-1.363628	0.730090	-0.422671
O6	O	-1.597245	0.699435	-0.453273
O7	O	-1.452367	0.775251	-0.183527
O8	O	-1.342852	0.482069	-0.329690
O9	O	-1.597162	0.813368	-0.339367
O10	O	-1.452561	0.510949	-0.447767
O11	O	-1.342742	0.632438	-0.179356
O12	O	-1.148737	0.632390	-0.373418
O13	O	-1.256162	0.813283	-0.680467
O14	O	-1.111367	0.775167	-0.524627
O15	O	-1.403240	0.699387	-0.647335
O16	O	-1.403046	0.963689	-0.383095
O17	O	-1.256052	0.963653	-0.530133
C18	C	-1.092137	0.699508	-0.453301
C19	C	-0.975985	0.686454	-0.466433
C20	C	-0.804136	0.723404	-0.429388
C21	C	-0.924185	0.736900	-0.415810
C22	C	-1.324042	1.001592	-0.462144
C23	C	-1.307198	1.117757	-0.479056
C24	C	-1.324040	0.760714	-0.704153
C25	C	-1.307170	0.773765	-0.824103
C26	C	-0.636181	0.760784	-0.391911
C27	C	-0.752333	0.773843	-0.378772
C28	C	-1.403393	0.457533	-0.383065
C29	C	-1.420339	0.341386	-0.366187
C30	C	-1.372468	1.169542	-0.413887
C31	C	-1.355060	1.289604	-0.431365
C32	C	-1.354998	0.736725	-0.985163
C33	C	-1.372429	0.723227	-0.861187
C34	C	-1.403133	0.699516	-0.142267
C35	C	-1.420248	0.686194	-0.022251
H36	H	-0.759609	0.670234	-0.482780
C37	C	-1.215617	0.844946	-0.904182
C38	C	-1.255987	0.925597	-0.971903
C39	C	-1.171687	0.991200	-1.045671
H40	H	-1.169720	0.804739	-0.947591
H41	H	-1.176953	0.874965	-0.864869
H42	H	-1.294634	0.895580	-1.011213
H43	H	-1.301875	0.965830	-0.928525
H44	H	-1.133022	1.021219	-1.006359
H45	H	-1.125795	0.950984	-1.089072
H46	H	-1.199066	1.045934	-1.091622
H47	H	-1.489114	1.296841	-0.297453
C48	C	-1.511977	0.615095	-0.942391
C49	C	-1.568782	0.571073	-1.000633
C50	C	-1.653283	0.505558	-0.927106
H51	H	-1.557923	0.655336	-0.899064
H52	H	-1.484813	0.560257	-0.896342
H53	H	-1.595947	0.625902	-1.046663
H54	H	-1.522867	0.530814	-1.043957
H55	H	-1.626118	0.450721	-0.881057
H56	H	-1.699220	0.545807	-0.883782
H57	H	-1.691830	0.475674	-0.966612
C58	C	-0.916646	0.615699	-0.537819
C59	C	-0.924778	0.653200	-0.644915
C60	C	-0.870117	0.588058	-0.710707
H61	H	-0.946858	0.545722	-0.510072
H62	H	-0.843826	0.616066	-0.537562
H63	H	-0.997583	0.652823	-0.645167
H64	H	-0.894560	0.723169	-0.672694
H65	H	-0.797297	0.588425	-0.710450
H66	H	-0.900334	0.518084	-0.682950
H67	H	-0.875619	0.613499	-0.783381
H68	H	-1.286291	1.334151	-0.500106
H69	H	-0.968705	0.790084	-0.362427
H70	H	-0.796857	0.827023	-0.325393
H71	H	-1.441239	1.124994	-0.345157
C72	C	-1.215360	1.176990	-0.570646
C73	C	-1.119105	1.136393	-0.554927
C74	C	-1.034481	1.190920	-0.639287
H75	H	-1.215694	1.249799	-0.570300
H76	H	-1.222909	1.168688	-0.638886
H77	H	-1.111558	1.144704	-0.486704
H78	H	-1.118736	1.063590	-0.555284
H79	H	-1.042030	1.182619	-0.707528
H80	H	-1.034825	1.263727	-0.638934
H81	H	-0.969163	1.163377	-0.628639
H82	H	-1.441199	0.669965	-0.801159
H83	H	-1.286226	0.789975	-1.045193
