data_functionalizedCrystal
_audit_creation_method	'MofGen! by Chris Wilmer'
_symmetry_space_group_name_H-M	'P1'
_symmetry_Int_Tables_number	1
_symmetry_cell_setting	triclinic
loop_
_symmetry_equiv_pos_as_xyz
  x,y,z
_cell_length_a	16.625548
_cell_length_b	16.625539
_cell_length_c	18.215405
_cell_angle_alpha	89.970092
_cell_angle_beta	90.025953
_cell_angle_gamma	89.982945
loop_
_atom_site_label
_atom_site_type_symbol
_atom_site_fract_x
_atom_site_fract_y
_atom_site_fract_z
Zn1	Zn	1.232639	-0.455890	-0.292976
Zn2	Zn	1.565972	-0.122557	0.040358
Zn3	Zn	1.899306	0.210777	0.373691
Zn4	Zn	1.232545	-0.321049	-0.416045
Zn5	Zn	1.565878	0.012284	-0.082712
Zn6	Zn	1.899211	0.345618	0.250621
Zn7	Zn	1.097809	-0.321070	-0.293000
Zn8	Zn	1.431142	0.012263	0.040334
Zn9	Zn	1.764476	0.345596	0.373667
Zn10	Zn	1.097766	-0.455839	-0.416007
Zn11	Zn	1.431099	-0.122506	-0.082674
Zn12	Zn	1.764432	0.210828	0.250659
O13	O	1.165190	-0.388462	-0.354507
O14	O	1.498523	-0.055129	-0.021174
O15	O	1.831856	0.278205	0.312160
O16	O	1.345459	-0.438015	-0.309307
O17	O	1.678792	-0.104682	0.024026
O18	O	2.012125	0.228651	0.357360
O19	O	1.214651	-0.208219	-0.399749
O20	O	1.547984	0.125114	-0.066416
O21	O	1.881317	0.458447	0.266917
O22	O	1.115752	-0.338985	-0.190012
O23	O	1.449085	-0.005652	0.143321
O24	O	1.782419	0.327682	0.476655
O25	O	1.345390	-0.338948	-0.399726
O26	O	1.678723	-0.005615	-0.066393
O27	O	2.012056	0.327718	0.266941
O28	O	1.214811	-0.438036	-0.189994
O29	O	1.548144	-0.104703	0.143339
O30	O	1.881478	0.228630	0.476672
O31	O	1.115661	-0.208235	-0.309348
O32	O	1.448994	0.125098	0.023985
O33	O	1.782327	0.458432	0.357319
O34	O	0.984971	-0.338935	-0.309311
O35	O	1.318304	-0.005602	0.024022
O36	O	1.651638	0.327731	0.357356
O37	O	1.115678	-0.568678	-0.399661
O38	O	1.449011	-0.235345	-0.066327
O39	O	1.782345	0.097989	0.267006
O40	O	0.984939	-0.437949	-0.399684
O41	O	1.318272	-0.104616	-0.066351
O42	O	1.651606	0.228718	0.266983
O43	O	1.214769	-0.568716	-0.309270
O44	O	1.548102	-0.235382	0.024063
O45	O	1.881436	0.097951	0.357397
O46	O	1.214608	-0.338899	-0.519025
O47	O	1.547942	-0.005565	-0.185691
O48	O	1.881275	0.327768	0.147642
O49	O	1.115587	-0.437928	-0.518997
O50	O	1.448920	-0.104595	-0.185663
O51	O	1.782253	0.228738	0.147670
C52	C	0.955699	-0.388440	-0.354496
C53	C	1.289032	-0.055106	-0.021163
C54	C	1.622365	0.278227	0.312170
C55	C	0.866078	-0.388449	-0.354510
C56	C	1.199411	-0.055116	-0.021176
C57	C	1.532744	0.278218	0.312157
C58	C	0.537902	-0.388483	-0.354514
C59	C	0.871235	-0.055150	-0.021181
C60	C	1.204569	0.278183	0.312152
C61	C	0.629210	-0.388471	-0.354511
C62	C	0.962544	-0.055138	-0.021178
C63	C	1.295877	0.278195	0.312156
C64	C	0.701987	-0.388466	-0.354512
C65	C	1.035320	-0.055132	-0.021179
C66	C	1.368654	0.278201	0.312154
C67	C	0.793301	-0.388455	-0.354508
C68	C	1.126634	-0.055121	-0.021175
C69	C	1.459968	0.278212	0.312158
C70	C	1.165229	-0.598771	-0.354458
C71	C	1.498562	-0.265438	-0.021125
C72	C	1.831896	0.067896	0.312208
C73	C	1.165246	-0.688392	-0.354438
C74	C	1.498579	-0.355059	-0.021104
C75	C	1.831913	-0.021726	0.312229
C76	C	1.165259	-0.761175	-0.354421
C77	C	1.498592	-0.427841	-0.021088
C78	C	1.831926	-0.094508	0.312245
C79	C	1.165278	-0.852483	-0.354394
C80	C	1.498611	-0.519150	-0.021061
C81	C	1.831945	-0.185817	0.312273
C82	C	1.165297	-0.925260	-0.354368
C83	C	1.498630	-0.591926	-0.021035
C84	C	1.831964	-0.258593	0.312299
C85	C	1.165317	-1.016574	-0.354341
C86	C	1.498650	-0.683241	-0.021008
C87	C	1.831984	-0.349907	0.312325
C88	C	1.375498	-0.388485	-0.354518
C89	C	1.708832	-0.055152	-0.021185
C90	C	2.042165	0.278182	0.312149
C91	C	1.465120	-0.388495	-0.354523
C92	C	1.798453	-0.055162	-0.021189
C93	C	2.131786	0.278172	0.312144
C94	C	1.165104	-0.388423	-0.545713
C95	C	1.498438	-0.055090	-0.212380
C96	C	1.831771	0.278243	0.120953
C97	C	1.165142	-0.388434	-0.627512
C98	C	1.498475	-0.055100	-0.294179
C99	C	1.831808	0.278233	0.039155
C100	C	1.165197	-0.178971	-0.354502
C101	C	1.498530	0.154362	-0.021169
C102	C	1.831863	0.487695	0.312164
C103	C	1.165336	-0.089351	-0.354316
C104	C	1.498669	0.243983	-0.020982
C105	C	1.832003	0.577316	0.312351
C106	C	1.216823	-0.336964	-0.815696
C107	C	1.550157	-0.003631	-0.482363
C108	C	1.883490	0.329703	-0.149030
C109	C	1.216859	-0.336983	-0.892555
C110	C	1.550193	-0.003650	-0.559222
C111	C	1.883526	0.329683	-0.225888
C112	C	1.113659	-0.440018	-0.892566
C113	C	1.446992	-0.106685	-0.559232
C114	C	1.780326	0.226648	-0.225899
C115	C	1.113627	-0.440002	-0.815708
C116	C	1.446961	-0.106669	-0.482375
C117	C	1.780294	0.226665	-0.149042
C118	C	1.165209	-0.388470	-0.777276
C119	C	1.498542	-0.055137	-0.443942
C120	C	1.831875	0.278196	-0.110609
C121	C	1.165276	-0.388506	-0.930992
C122	C	1.498609	-0.055173	-0.597658
C123	C	1.831943	0.278161	-0.264325
C124	C	1.165315	-0.388528	-1.014325
C125	C	1.498648	-0.055194	-0.680992
C126	C	1.831981	0.278139	-0.347659
C127	C	1.165171	-0.388450	-0.693937
C128	C	1.498504	-0.055116	-0.360603
C129	C	1.831838	0.278217	-0.027270
C130	C	1.165297	-0.388519	-0.162554
C131	C	1.498630	-0.055185	0.170779
C132	C	1.831964	0.278148	0.504113
C133	C	1.165343	-0.388543	-0.080755
C134	C	1.498676	-0.055209	0.252578
C135	C	1.832009	0.278124	0.585912
H136	H	1.258825	-0.295005	-0.784406
H137	H	1.592158	0.038329	-0.451073
H138	H	1.925492	0.371662	-0.117739
H139	H	1.258891	-0.295043	-0.923834
H140	H	1.592224	0.038291	-0.590500
H141	H	1.925557	0.371624	-0.257167
F142	F	1.058764	-0.494857	-0.933475
F143	F	1.392097	-0.161524	-0.600142
F144	F	1.725431	0.171809	-0.266808
H145	H	1.071596	-0.481949	-0.784424
H146	H	1.404930	-0.148615	-0.451091
H147	H	1.738263	0.184718	-0.117757
