data_functionalizedCrystal
_audit_creation_method	'MofGen! by Chris Wilmer'
_symmetry_space_group_name_H-M	'P1'
_symmetry_Int_Tables_number	1
_symmetry_cell_setting	triclinic
loop_
_symmetry_equiv_pos_as_xyz
  x,y,z
_cell_length_a	16.625548
_cell_length_b	13.032721
_cell_length_c	16.625539
_cell_angle_alpha	82.846360
_cell_angle_beta	89.979432
_cell_angle_gamma	82.794397
loop_
_atom_site_label
_atom_site_type_symbol
_atom_site_fract_x
_atom_site_fract_y
_atom_site_fract_z
Zn1	Zn	1.191923	0.416011	-0.496664
Zn2	Zn	1.525256	0.749344	-0.163331
Zn3	Zn	1.858590	1.082677	0.170003
Zn4	Zn	1.174704	0.590777	-0.378952
Zn5	Zn	1.508037	0.924111	-0.045619
Zn6	Zn	1.841371	1.257444	0.287715
Zn7	Zn	1.057081	0.416050	-0.361848
Zn8	Zn	1.390414	0.749384	-0.028515
Zn9	Zn	1.723748	1.082717	0.304818
Zn10	Zn	1.039939	0.590717	-0.513736
Zn11	Zn	1.373272	0.924051	-0.180403
Zn12	Zn	1.706605	1.257384	0.152931
O13	O	1.115912	0.503389	-0.437800
O14	O	1.449245	0.836722	-0.104467
O15	O	1.782578	1.170056	0.228867
O16	O	1.302470	0.439202	-0.481062
O17	O	1.635804	0.772536	-0.147729
O18	O	1.969137	1.105869	0.185604
O19	O	1.159069	0.567641	-0.263855
O20	O	1.492402	0.900975	0.069478
O21	O	1.825735	1.234308	0.402812
O22	O	1.089348	0.269806	-0.365429
O23	O	1.422682	0.603139	-0.032096
O24	O	1.756015	0.936473	0.301238
O25	O	1.289820	0.567603	-0.394580
O26	O	1.623153	0.900936	-0.061247
O27	O	1.956486	1.234269	0.272087
O28	O	1.188416	0.269777	-0.464477
O29	O	1.521749	0.603110	-0.131144
O30	O	1.855083	0.936443	0.202189
O31	O	1.072652	0.439270	-0.251289
O32	O	1.405985	0.772603	0.082045
O33	O	1.739318	1.105937	0.415378
O34	O	0.941975	0.439212	-0.381983
O35	O	1.275309	0.772545	-0.048650
O36	O	1.608642	1.105879	0.284683
O37	O	1.060132	0.567500	-0.624300
O38	O	1.393465	0.900834	-0.290966
O39	O	1.726799	1.234167	0.042367
O40	O	0.929381	0.567539	-0.493575
O41	O	1.262714	0.900872	-0.160241
O42	O	1.596048	1.234206	0.173092
O43	O	1.171794	0.439144	-0.611757
O44	O	1.505127	0.772477	-0.278424
O45	O	1.838461	1.105811	0.054910
O46	O	1.142447	0.737009	-0.411134
O47	O	1.475780	1.070342	-0.077801
O48	O	1.809113	1.403675	0.255532
O49	O	1.043435	0.736965	-0.510160
O50	O	1.376769	1.070298	-0.176826
O51	O	1.710102	1.403631	0.156507
C52	C	1.089234	0.774905	-0.464373
C53	C	1.422568	1.108238	-0.131040
C54	C	1.755901	1.441572	0.202294
C55	C	1.077895	0.891061	-0.475768
C56	C	1.411229	1.224394	-0.142435
C57	C	1.744562	1.557727	0.190899
C58	C	0.906422	0.503374	-0.437776
C59	C	1.239756	0.836707	-0.104443
C60	C	1.573089	1.170041	0.228891
C61	C	0.816799	0.503393	-0.437787
C62	C	1.150133	0.836726	-0.104454
C63	C	1.483466	1.170059	0.228879
C64	C	1.115972	0.503311	-0.648101
C65	C	1.449305	0.836644	-0.314768
C66	C	1.782638	1.169978	0.018565
C67	C	1.115997	0.503278	-0.737719
C68	C	1.449331	0.836611	-0.404386
C69	C	1.782664	1.169945	-0.071053
C70	C	0.488623	0.503400	-0.437823
C71	C	0.821956	0.836733	-0.104489
C72	C	1.155290	1.170066	0.228844
C73	C	0.579932	0.503395	-0.437810
C74	C	0.913265	0.836728	-0.104477
C75	C	1.246599	1.170062	0.228857
C76	C	0.652708	0.503397	-0.437804
C77	C	0.986041	0.836730	-0.104471
C78	C	1.319375	1.170063	0.228862
C79	C	0.744023	0.503391	-0.437793
C80	C	1.077356	0.836724	-0.104460
C81	C	1.410690	1.170058	0.228874
C82	C	1.326219	0.503405	-0.437825
C83	C	1.659552	0.836738	-0.104491
C84	C	1.992886	1.170071	0.228842
C85	C	1.415839	0.503411	-0.437835
C86	C	1.749173	0.836745	-0.104502
C87	C	2.082506	1.170078	0.228831
C88	C	1.142715	0.230813	-0.411141
C89	C	1.476048	0.564146	-0.077808
C90	C	1.809382	0.897479	0.255526
C91	C	1.154137	0.114657	-0.399780
C92	C	1.487470	0.447990	-0.066447
C93	C	1.820804	0.781324	0.266886
C94	C	1.121872	0.942834	-0.431889
C95	C	1.455206	1.276167	-0.098556
C96	C	1.788539	1.609500	0.234777
C97	C	1.110154	1.062887	-0.443665
C98	C	1.443487	1.396220	-0.110332
C99	C	1.776821	1.729553	0.223001
C100	C	1.116046	0.503161	-1.065884
C101	C	1.449379	0.836494	-0.732550
C102	C	1.782713	1.169828	-0.399217
C103	C	1.116030	0.503197	-0.974579
C104	C	1.449363	0.836530	-0.641245
C105	C	1.782696	1.169863	-0.307912
C106	C	1.116022	0.503220	-0.901805
C107	C	1.449355	0.836554	-0.568471
C108	C	1.782689	1.169887	-0.235138
C109	C	1.116005	0.503255	-0.810494
C110	C	1.449338	0.836588	-0.477160
C111	C	1.782672	1.169921	-0.143827
C112	C	1.115906	0.503391	-0.228310
C113	C	1.449239	0.836724	0.105024
C114	C	1.782572	1.170058	0.438357
C115	C	1.116065	0.503130	-0.138663
C116	C	1.449398	0.836463	0.194670
C117	C	1.782732	1.169797	0.528003
H118	H	1.168201	0.898282	-0.385607
H119	H	1.501535	1.231616	-0.052274
H120	H	1.834868	1.564949	0.281059
C121	C	1.048106	1.230307	-0.505724
C122	C	1.381439	1.563641	-0.172390
C123	C	1.714773	1.896974	0.160943
C124	C	1.047610	1.123018	-0.506153
C125	C	1.380943	1.456351	-0.172820
C126	C	1.714276	1.789685	0.160513
H127	H	1.009491	1.267428	-0.544297
H128	H	1.342824	1.600761	-0.210964
H129	H	1.676158	1.934095	0.122369
H130	H	1.100547	1.248064	-0.519306
H131	H	1.433881	1.581397	-0.185973
H132	H	1.767214	1.914731	0.147360
H133	H	1.034602	1.248193	-0.453277
H134	H	1.367936	1.581527	-0.119944
H135	H	1.701269	1.914860	0.213390
H136	H	1.061119	1.105131	-0.558599
H137	H	1.394453	1.438464	-0.225265
H138	H	1.727786	1.771797	0.108068
H139	H	0.995156	1.105254	-0.492576
H140	H	1.328490	1.438587	-0.159242
H141	H	1.661823	1.771921	0.174091
C142	C	1.177304	0.991871	-0.279365
C143	C	1.510637	1.325205	0.053969
C144	C	1.843970	1.658538	0.387302
C145	C	1.216680	1.054532	-0.337289
C146	C	1.550014	1.387865	-0.003955
C147	C	1.883347	1.721199	0.329378
H148	H	1.215915	0.954760	-0.240783
H149	H	1.549248	1.288093	0.092550
H150	H	1.882582	1.621426	0.425883
H151	H	1.151243	0.943834	-0.305368
H152	H	1.484576	1.277168	0.027965
H153	H	1.817909	1.610501	0.361299
H154	H	1.138057	1.034530	-0.252650
H155	H	1.471390	1.367863	0.080683
H156	H	1.804724	1.701197	0.414016
H157	H	1.255923	1.011872	-0.364007
H158	H	1.589256	1.345206	-0.030674
H159	H	1.922590	1.678539	0.302659
H160	H	1.242754	1.102575	-0.311283
H161	H	1.576088	1.435908	0.022051
H162	H	1.909421	1.769241	0.355384
H163	H	1.031573	0.935614	-0.522056
H164	H	1.364906	1.268948	-0.188722
H165	H	1.698240	1.602281	0.144611
