data_functionalizedCrystal
_audit_creation_method	'MofGen! by Chris Wilmer'
_symmetry_space_group_name_H-M	'P1'
_symmetry_Int_Tables_number	1
_symmetry_cell_setting	triclinic
loop_
_symmetry_equiv_pos_as_xyz
  x,y,z
_cell_length_a	13.032721
_cell_length_b	14.908618
_cell_length_c	13.033109
_cell_angle_alpha	100.039404
_cell_angle_beta	105.143326
_cell_angle_gamma	85.674301
loop_
_atom_site_label
_atom_site_type_symbol
_atom_site_fract_x
_atom_site_fract_y
_atom_site_fract_z
Zn1	Zn	-0.606174	-1.396192	-0.761030
Zn2	Zn	-0.106174	-0.896192	-0.261030
Zn3	Zn	-0.758639	-1.362087	-0.603364
Zn4	Zn	-0.258639	-0.862087	-0.103364
Zn5	Zn	-0.570791	-1.228329	-0.570603
Zn6	Zn	-0.070791	-0.728329	-0.070603
Zn7	Zn	-0.770857	-1.228298	-0.770676
Zn8	Zn	-0.270857	-0.728298	-0.270676
O9	O	-0.676615	-1.303726	-0.676418
O10	O	-0.176615	-0.803726	-0.176418
O11	O	-0.636094	-1.517911	-0.749789
O12	O	-0.136094	-1.017911	-0.249789
O13	O	-0.713800	-1.330083	-0.449303
O14	O	-0.213800	-0.830083	0.050697
O15	O	-0.427949	-1.264882	-0.578116
O16	O	0.072051	-0.764882	-0.078116
O17	O	-0.748109	-1.492854	-0.633953
O18	O	-0.248109	-0.992854	-0.133953
O19	O	-0.453945	-1.388211	-0.718021
O20	O	0.046055	-0.888211	-0.218021
O21	O	-0.575789	-1.231812	-0.425234
O22	O	-0.075789	-0.731812	0.074766
O23	O	-0.587635	-1.102082	-0.587469
O24	O	-0.087635	-0.602082	-0.087469
O25	O	-0.768932	-1.264829	-0.919111
O26	O	-0.268932	-0.764829	-0.419111
O27	O	-0.734622	-1.102059	-0.734462
O28	O	-0.234622	-0.602059	-0.234462
O29	O	-0.647941	-1.388181	-0.912024
O30	O	-0.147941	-0.888181	-0.412024
O31	O	-0.907795	-1.330053	-0.643306
O32	O	-0.407795	-0.830053	-0.143306
O33	O	-0.916771	-1.231759	-0.766230
O34	O	-0.416771	-0.731759	-0.266230
C35	C	-0.658616	-1.069337	-0.658458
C36	C	-0.158616	-0.569337	-0.158458
C37	C	-0.650944	-0.969064	-0.650803
C38	C	-0.150944	-0.469064	-0.150803
C39	C	-0.789771	-0.780628	-0.789324
C40	C	-0.289771	-0.280628	-0.289324
C41	C	-0.782567	-0.686413	-0.782135
C42	C	-0.282567	-0.186413	-0.282135
C43	C	-0.629328	-0.686418	-0.629244
C44	C	-0.129328	-0.186418	-0.129244
C45	C	-0.636532	-0.780633	-0.636432
C46	C	-0.136532	-0.280633	-0.136432
C47	C	-0.716758	-0.827734	-0.716474
C48	C	-0.216758	-0.327734	-0.216474
C49	C	-0.723966	-0.921950	-0.723657
C50	C	-0.223966	-0.421950	-0.223657
C51	C	-0.570723	-0.921955	-0.570770
C52	C	-0.070723	-0.421955	-0.070770
C53	C	-0.563518	-0.827740	-0.563582
C54	C	-0.063518	-0.327740	-0.063582
C55	C	-0.950542	-1.277229	-0.709395
C56	C	-0.450542	-0.777229	-0.209395
C57	C	-1.067741	-1.265979	-0.723545
C58	C	-0.567741	-0.765979	-0.223545
C59	C	-1.115526	-1.309650	-0.669085
C60	C	-0.615526	-0.809650	-0.169085
C61	C	-1.236656	-1.298024	-0.683708
C62	C	-0.736656	-0.798024	-0.183708
C63	C	-0.401623	-1.330354	-0.643338
C64	C	0.098377	-0.830354	-0.143338
C65	C	-0.284438	-1.341702	-0.629241
C66	C	0.215562	-0.841702	-0.129241
C67	C	-0.713746	-1.330306	-0.955473
C68	C	-0.213746	-0.830306	-0.455473
C69	C	-0.729569	-1.341633	-1.074389
C70	C	-0.229569	-0.841633	-0.574389
C71	C	-0.694676	-0.539031	-0.694440
C72	C	-0.194676	-0.039031	-0.194440
C73	C	-0.702349	-0.639304	-0.702097
C74	C	-0.202349	-0.139304	-0.202097
C75	C	-0.668338	-1.298060	-1.115497
C76	C	-0.168338	-0.798060	-0.615497
C77	C	-0.684690	-1.309765	-1.238403
C78	C	-0.184690	-0.809765	-0.738403
C79	C	-0.639557	-1.277309	-0.398444
C80	C	-0.139557	-0.777309	0.101556
C81	C	-0.623451	-1.266186	-0.279506
C82	C	-0.123451	-0.766186	0.220494
H83	H	-0.564007	-0.648053	-0.564084
H84	H	-0.064007	-0.148053	-0.064084
C85	C	-0.490401	-0.973774	-0.490635
C86	C	0.009599	-0.473774	0.009365
H87	H	-0.506176	-1.036633	-0.506381
H88	H	-0.006176	-0.536633	-0.006381
H89	H	-0.494972	-0.949987	-0.419392
H90	H	0.005028	-0.449987	0.080608
H91	H	-0.420500	-0.966684	-0.496711
H92	H	0.079500	-0.466684	0.003289
H93	H	-1.235678	-1.387705	-0.571791
H94	H	-0.735678	-0.887705	-0.071791
C95	C	-0.878015	-0.832445	-0.877356
C96	C	-0.378015	-0.332445	-0.377356
H97	H	-0.871853	-0.895302	-0.871198
H98	H	-0.371853	-0.395302	-0.371198
H99	H	-0.871090	-0.825350	-0.946246
H100	H	-0.371090	-0.325350	-0.446246
H101	H	-0.945553	-0.808657	-0.868918
H102	H	-0.445553	-0.308657	-0.368918
C103	C	-0.771866	-1.371874	-1.313767
C104	C	-0.271866	-0.871874	-0.813767
H105	H	-0.771415	-1.371600	-1.386486
H106	H	-0.271415	-0.871600	-0.886486
H107	H	-0.839279	-1.350090	-1.303021
H108	H	-0.339279	-0.850090	-0.803021
H109	H	-0.758669	-1.432259	-1.298298
H110	H	-0.258669	-0.932259	-0.798298
H111	H	-0.558920	-1.220210	-1.223713
H112	H	-0.058920	-0.720210	-0.723713
H113	H	-0.794098	-1.387602	-1.130186
H114	H	-0.294098	-0.887602	-0.630186
H115	H	-0.789291	-0.960299	-0.788829
H116	H	-0.289291	-0.460299	-0.288829
C117	C	-0.475283	-0.775922	-0.475539
C118	C	0.024717	-0.275922	0.024461
H119	H	-0.481453	-0.713063	-0.481685
H120	H	0.018547	-0.213063	0.018315
H121	H	-0.407743	-0.799708	-0.483951
H122	H	0.092257	-0.299708	0.016049
H123	H	-0.482235	-0.783017	-0.406652
H124	H	0.017765	-0.283017	0.093348
H125	H	-1.285419	-1.252029	-0.741167
H126	H	-0.785419	-0.752029	-0.241167
H127	H	-0.603814	-1.252085	-1.059700
H128	H	-0.103814	-0.752085	-0.559700
H129	H	-1.066763	-1.355651	-0.611638
H130	H	-0.566763	-0.855651	-0.111638
C131	C	-0.862864	-0.634602	-0.862289
C132	C	-0.362864	-0.134602	-0.362289
H133	H	-0.911669	-0.676151	-0.910988
H134	H	-0.411669	-0.176151	-0.410988
H135	H	-0.825981	-0.606205	-0.901308
H136	H	-0.325981	-0.106205	-0.401308
H137	H	-0.900490	-0.589494	-0.824026
H138	H	-0.400490	-0.089494	-0.324026
C139	C	-1.133609	-1.203841	-0.801157
C140	C	-0.633609	-0.703841	-0.301157
H141	H	-1.206381	-1.204174	-0.800799
H142	H	-0.706381	-0.704174	-0.300799
H143	H	-1.126148	-1.225559	-0.871899
H144	H	-0.626148	-0.725559	-0.371899
H145	H	-1.108941	-1.143444	-0.778640
H146	H	-0.608941	-0.643444	-0.278640
