data_functionalizedCrystal
_audit_creation_method	'MofGen! by Chris Wilmer'
_symmetry_space_group_name_H-M	'P1'
_symmetry_Int_Tables_number	1
_symmetry_cell_setting	triclinic
loop_
_symmetry_equiv_pos_as_xyz
  x,y,z
_cell_length_a	16.974885
_cell_length_b	14.971486
_cell_length_c	14.048226
_cell_angle_alpha	90.006640
_cell_angle_beta	93.645561
_cell_angle_gamma	96.496699
loop_
_atom_site_label
_atom_site_type_symbol
_atom_site_fract_x
_atom_site_fract_y
_atom_site_fract_z
O1	O	1.049242	-0.113969	0.001596
O2	O	0.819053	-0.128497	-0.016123
O3	O	0.940317	0.008982	-0.006782
O4	O	0.927978	-0.251448	-0.007745
O5	O	0.940302	0.008990	0.151538
O6	O	0.819038	-0.128489	0.142197
O7	O	1.049228	-0.113961	0.159916
Zn8	Zn	0.934130	-0.121224	0.176193
Zn9	Zn	0.934150	-0.121234	-0.032400
O10	O	0.927963	-0.251440	0.150575
C11	C	0.789587	-0.127942	0.060769
C12	C	0.701810	-0.126288	0.054013
C13	C	0.207723	-0.116951	0.006652
C14	C	0.290199	-0.118505	0.013013
C15	C	0.331420	-0.119284	0.102495
C16	C	0.290162	-0.118500	0.185621
C17	C	0.207688	-0.116940	0.179259
C18	C	0.578078	-0.123944	0.130777
C19	C	0.660557	-0.125507	0.137133
C20	C	0.660588	-0.125510	-0.035476
C21	C	0.578113	-0.123955	-0.041830
C22	C	0.536863	-0.123167	0.041296
N23	N	0.415723	-0.120875	0.108999
N24	N	0.452562	-0.121569	0.034790
C25	C	0.939758	0.042310	0.072335
C26	C	0.938104	0.141603	0.072207
C27	C	1.078693	-0.114516	0.083021
C28	C	1.166470	-0.116170	0.089772
C29	C	0.928522	-0.284768	0.071455
C30	C	0.930176	-0.384061	0.071577
N31	N	0.934123	-0.121216	0.318553
C32	C	1.009344	0.199004	0.077692
C33	C	1.007785	0.292300	0.077562
C34	C	0.934986	0.328192	0.071955
C35	C	0.863741	0.270783	0.066467
C36	C	0.865301	0.177489	0.066590
C37	C	0.860496	0.465237	0.066214
C38	C	0.858936	0.558538	0.066093
C39	C	1.002981	0.580048	0.077186
C40	C	1.004540	0.486754	0.077309
C41	C	0.933295	0.429352	0.071823
N42	N	0.934163	-0.121235	-0.174760
C43	C	0.987836	-0.060365	0.372509
C44	C	0.987841	-0.060365	0.472167
C45	C	0.934137	-0.121220	0.517868
C46	C	0.880418	-0.182074	0.463905
C47	C	0.880410	-0.182069	0.364248
C48	C	0.880441	-0.182080	0.671621
C49	C	0.880451	-0.182086	0.771284
C50	C	0.987873	-0.060376	0.779540
C51	C	0.987864	-0.060371	0.679883
C52	C	0.934146	-0.121226	0.625927
H53	H	0.174101	-0.116313	0.246944
H54	H	0.544556	-0.123320	-0.114696
C55	C	0.822221	-0.248183	0.305552
C56	C	0.864379	-0.302895	0.251542
C57	C	0.810798	-0.363799	0.197451
H58	H	0.790215	-0.284515	0.346929
H59	H	0.789288	-0.216045	0.264102
H60	H	0.897298	-0.335030	0.292987
H61	H	0.896382	-0.266587	0.210147
H62	H	0.777866	-0.331662	0.156001
H63	H	0.778796	-0.400126	0.238835
H64	H	0.839395	-0.400923	0.160793
C65	C	0.533422	-0.122957	0.221110
C66	C	0.562326	-0.046435	0.275421
C67	C	0.521215	-0.045502	0.358654
H68	H	0.478392	-0.121866	0.204655
H69	H	0.540972	-0.175322	0.257196
H70	H	0.554769	0.005916	0.239341
H71	H	0.617351	-0.047509	0.291900
H72	H	0.528765	-0.097866	0.394740
H73	H	0.466187	-0.044413	0.342190
H74	H	0.540825	0.006413	0.395518
C75	C	1.085110	0.354661	0.083318
C76	C	1.088446	0.408818	0.002103
C77	C	1.159674	0.466265	0.007362
H78	H	1.087569	0.391598	0.138648
H79	H	1.128709	0.319950	0.086628
H80	H	1.044858	0.443525	-0.001198
H81	H	1.085999	0.371905	-0.053239
H82	H	1.203273	0.431555	0.010673
H83	H	1.162127	0.503196	0.062696
H84	H	1.161950	0.503011	-0.047743
H85	H	1.063819	0.457534	0.081881
C86	C	0.705228	-0.126404	-0.125833
C87	C	0.651473	-0.125410	-0.205558
C88	C	0.692564	-0.126244	-0.288815
H89	H	0.743387	-0.074894	-0.126611
H90	H	0.731398	-0.179169	-0.127459
H91	H	0.625316	-0.072651	-0.203933
H92	H	0.613312	-0.176917	-0.204812
H93	H	0.718734	-0.179009	-0.290441
H94	H	0.730722	-0.074732	-0.289582
H95	H	0.656097	-0.125578	-0.342917
C96	C	1.088465	0.160213	0.083734
C97	C	1.150519	0.230457	0.088481
C98	C	1.223419	0.194761	0.094030
H99	H	1.092180	0.124286	0.139215
H100	H	1.092113	0.124287	0.028782
H101	H	1.146873	0.266368	0.143427
H102	H	1.146831	0.266390	0.033006
H103	H	1.227067	0.158834	0.039078
H104	H	1.227125	0.158834	0.149511
H105	H	1.265531	0.242414	0.097242
C106	C	1.080312	0.642407	0.082934
C107	C	1.083646	0.696563	0.001719
C108	C	1.154873	0.754012	0.006978
H109	H	1.082771	0.679344	0.138264
H110	H	1.123912	0.607698	0.086245
H111	H	1.040058	0.731269	-0.001582
H112	H	1.081200	0.659650	-0.053623
H113	H	1.198473	0.719303	0.010289
H114	H	1.157326	0.790943	0.062312
H115	H	1.157148	0.790758	-0.048128
C116	C	0.779877	0.597463	0.059793
C117	C	0.736833	0.568296	-0.024995
C118	C	0.664005	0.604148	-0.030841
H119	H	0.750428	0.577789	0.112665
H120	H	0.789126	0.661250	0.060454
H121	H	0.727581	0.504523	-0.025648
H122	H	0.766258	0.587969	-0.077882
H123	H	0.673254	0.667935	-0.030180
H124	H	0.634563	0.584471	0.022035
H125	H	0.634794	0.584371	-0.088373
H126	H	0.807290	0.130753	0.062124
H127	H	0.836696	-0.231632	0.627692
H128	H	0.802480	0.418502	0.061744
C129	C	0.784758	0.309873	0.060235
C130	C	0.779673	0.362816	-0.021596
C131	C	0.706928	0.398848	-0.027359
H132	H	0.742484	0.262417	0.056931
H133	H	0.781144	0.345876	0.115139
H134	H	0.783279	0.326816	-0.076486
H135	H	0.821930	0.410287	-0.018310
H136	H	0.703314	0.434851	0.027545
H137	H	0.664660	0.351386	-0.030660
H138	H	0.703471	0.434781	-0.082876
H139	H	1.031571	-0.010814	0.335307
C140	C	1.046286	0.005736	0.837950
C141	C	1.093335	0.059009	0.776599
C142	C	1.147163	0.119904	0.830377
H143	H	1.017913	0.043043	0.874661
H144	H	1.079270	-0.026406	0.879329
H145	H	1.060355	0.091149	0.735237
H146	H	1.121724	0.021727	0.739888
H147	H	1.180147	0.087762	0.871756
H148	H	1.118783	0.157205	0.867086
H149	H	1.179096	0.156052	0.788759
C150	C	0.163119	-0.116066	-0.090591
C151	C	0.216906	-0.117059	-0.162020
C152	C	0.175851	-0.116232	-0.251613
H153	H	0.124964	-0.167579	-0.097262
H154	H	0.136948	-0.063303	-0.096246
H155	H	0.243064	-0.169817	-0.156368
H156	H	0.255063	-0.065551	-0.155380
H157	H	0.149680	-0.063469	-0.257269
H158	H	0.137696	-0.167745	-0.258275
H159	H	0.212339	-0.116897	-0.300089
H160	H	0.694117	-0.126148	0.210003
C161	C	0.335068	-0.119500	-0.077159
C162	C	0.373608	-0.197298	-0.079223
C163	C	0.414956	-0.198240	-0.162273
H164	H	0.298788	-0.118866	-0.131432
H165	H	0.373265	-0.068001	-0.077811
H166	H	0.335415	-0.248784	-0.078580
H167	H	0.409901	-0.197949	-0.024969
H168	H	0.453153	-0.146740	-0.162926
H169	H	0.378671	-0.197603	-0.216540
H170	H	0.441116	-0.251020	-0.163681
C171	C	0.334895	-0.119158	0.282801
C172	C	0.323669	-0.041850	0.333998
C173	C	0.364872	-0.042421	0.423520
H174	H	0.315429	-0.170975	0.316871
H175	H	0.389935	-0.120153	0.274727
H176	H	0.268641	-0.040864	0.342076
H177	H	0.343138	0.009979	0.299957
H178	H	0.419911	-0.043416	0.415446
H179	H	0.345402	-0.094242	0.457582
H180	H	0.357266	0.010034	0.458265
H181	H	1.031578	-0.010815	0.516098
H182	H	1.031598	-0.010823	0.642674
H183	H	0.836718	-0.231640	0.808488
C184	C	0.822071	-0.248002	0.513642
C185	C	0.773651	-0.200385	0.567170
C186	C	0.719900	-0.261090	0.613009
H187	H	0.790001	-0.284268	0.467338
H188	H	0.850530	-0.285209	0.554747
H189	H	0.745194	-0.163194	0.526068
H190	H	0.805699	-0.164122	0.613490
H191	H	0.748359	-0.298297	0.654114
H192	H	0.687836	-0.297353	0.566699
H193	H	0.687045	-0.228791	0.649340
