data_functionalizedCrystal
_audit_creation_method	'MofGen! by Chris Wilmer'
_symmetry_space_group_name_H-M	'P1'
_symmetry_Int_Tables_number	1
_symmetry_cell_setting	triclinic
loop_
_symmetry_equiv_pos_as_xyz
  x,y,z
_cell_length_a	25.639243
_cell_length_b	25.639240
_cell_length_c	16.120297
_cell_angle_alpha	87.125950
_cell_angle_beta	87.124435
_cell_angle_gamma	90.034783
loop_
_atom_site_label
_atom_site_type_symbol
_atom_site_fract_x
_atom_site_fract_y
_atom_site_fract_z
Zn1	Zn	0.784287	-0.223119	0.471456
Zn2	Zn	0.788645	-0.306119	0.332051
Zn3	Zn	0.701288	-0.218704	0.332053
Zn4	Zn	0.696820	-0.310528	0.471410
O5	O	0.742760	-0.264618	0.401742
O6	O	0.858030	-0.234132	0.452981
O7	O	0.780750	-0.290831	0.215388
O8	O	0.712343	-0.146125	0.350565
O9	O	0.861231	-0.295112	0.350561
O10	O	0.773323	-0.149369	0.452984
O11	O	0.716569	-0.226607	0.215390
O12	O	0.627530	-0.230882	0.350521
O13	O	0.704729	-0.302626	0.588079
O14	O	0.624248	-0.298345	0.452906
O15	O	0.768991	-0.238407	0.588112
O16	O	0.776418	-0.379869	0.350517
O17	O	0.708955	-0.383108	0.452904
C18	C	0.606918	-0.264613	0.401709
C19	C	0.548804	-0.264624	0.401715
C20	C	0.186765	-0.232921	0.455162
C21	C	0.132160	-0.232920	0.455167
O22	O	0.102500	-0.205954	0.500568
N23	N	0.106520	-0.264617	0.401765
C24	C	0.135488	-0.296312	0.348349
O25	O	0.108665	-0.323272	0.302927
C26	C	0.190091	-0.296309	0.348341
C27	C	0.215728	-0.264614	0.401751
C28	C	0.212402	-0.201228	0.508567
C29	C	0.267003	-0.201229	0.508563
C30	C	0.295966	-0.232923	0.455153
C31	C	0.270329	-0.264615	0.401747
C32	C	0.219058	-0.328000	0.294921
C33	C	0.273665	-0.327995	0.294916
C34	C	0.299302	-0.296300	0.348327
C35	C	0.353893	-0.296310	0.348333
N36	N	0.379533	-0.264614	0.401734
C37	C	0.350570	-0.232920	0.455144
C38	C	0.020816	-0.296315	0.348371
C39	C	-0.033786	-0.296321	0.348383
C40	C	-0.037110	-0.232928	0.455200
C41	C	0.017494	-0.232926	0.455191
C42	C	0.046456	-0.264618	0.401772
C43	C	0.465235	-0.232925	0.455132
C44	C	0.519841	-0.232931	0.455125
C45	C	0.523160	-0.296321	0.348306
C46	C	0.468559	-0.296317	0.348315
C47	C	0.439598	-0.264615	0.401731
O48	O	0.383588	-0.323261	0.302952
O49	O	0.377400	-0.205960	0.500551
C50	C	0.742688	-0.400460	0.401723
C51	C	0.742705	-0.458574	0.401743
C52	C	0.774507	-0.711407	0.455126
C53	C	0.774492	-0.656803	0.455120
O54	O	0.801472	-0.629959	0.500480
N55	N	0.742762	-0.627848	0.401753
C56	C	0.711049	-0.653501	0.348384
O57	O	0.684059	-0.623860	0.302990
C58	C	0.711067	-0.708105	0.348386
C59	C	0.742796	-0.737056	0.401762
C60	C	0.806233	-0.740359	0.508497
C61	C	0.806248	-0.794959	0.508504
C62	C	0.774537	-0.820609	0.455141
C63	C	0.742810	-0.791657	0.401770
C64	C	0.679358	-0.733756	0.295013
C65	C	0.679379	-0.788364	0.295020
C66	C	0.711108	-0.817315	0.348396
C67	C	0.711113	-0.871907	0.348413
N68	N	0.742844	-0.900861	0.401779
C69	C	0.774555	-0.875212	0.455143
C70	C	0.711013	-0.538831	0.348381
C71	C	0.710991	-0.484228	0.348382
C72	C	0.774435	-0.487533	0.455117
C73	C	0.774453	-0.542137	0.455120
C74	C	0.742743	-0.567785	0.401747
C75	C	0.774583	-0.989877	0.455155
C76	C	0.774593	-1.044483	0.455160
C77	C	0.711152	-1.041173	0.348422
C78	C	0.711139	-0.986572	0.348419
C79	C	0.742859	-0.960926	0.401789
O80	O	0.684148	-0.898786	0.303073
O81	O	0.801546	-0.904860	0.500522
C82	C	0.879132	-0.264623	0.401776
C83	C	0.937245	-0.264625	0.401790
C84	C	0.735876	-0.271500	0.619191
C85	C	0.732942	-0.274433	0.711854
C86	C	0.742845	-0.128246	0.401780
C87	C	0.742882	-0.070132	0.401796
C88	C	0.749647	-0.257724	0.185140
C89	C	0.752682	-0.254644	0.092477
C90	C	0.727567	-0.279777	0.881512
C91	C	0.758056	-0.249302	0.922825
C92	C	0.755065	-0.252275	1.017228
C93	C	0.730557	-0.276804	0.787100
H94	H	-0.054656	-0.322136	0.304900
N95	N	0.795611	-0.211784	0.875776
H96	H	0.775505	-0.186437	0.839635
H97	H	0.820940	-0.231959	0.839708
H98	H	0.685298	-0.963000	0.304964
H99	H	0.546751	-0.322126	0.304822
H100	H	0.653522	-0.710191	0.251549
N101	N	0.045142	-0.198742	0.512800
H102	H	0.068877	-0.173406	0.478991
H103	H	0.066538	-0.221288	0.551359
N104	N	0.690017	-0.317285	0.928579
H105	H	0.710128	-0.342628	0.964721
H106	H	0.670089	-0.337177	0.887813
N107	N	0.191415	-0.362179	0.237304
H108	H	0.167679	-0.387519	0.271106
H109	H	0.218089	-0.382216	0.203480
H110	H	0.540712	-0.207121	0.498622
H111	H	0.685332	-1.062067	0.304976
H112	H	0.441662	-0.207109	0.498625
H113	H	0.287871	-0.175420	0.552055
H114	H	-0.060702	-0.207120	0.498687
N115	N	0.181168	-0.167036	0.566170
H116	H	0.205703	-0.146960	0.599993
H117	H	0.157286	-0.189571	0.604703
N118	N	0.808803	-1.075710	0.512751
H119	H	0.828887	-1.051172	0.546558
H120	H	0.834100	-1.097283	0.478875
N121	N	0.052053	-0.330502	0.290755
H122	H	0.027521	-0.350579	0.256931
H123	H	0.073628	-0.355803	0.324617
N124	N	0.304903	-0.362176	0.237296
H125	H	0.280373	-0.382251	0.203465
H126	H	0.326477	-0.387479	0.271157
N127	N	0.440903	-0.330508	0.290721
H128	H	0.467539	-0.350588	0.256889
H129	H	0.419478	-0.307969	0.252197
N130	N	0.676800	-0.566488	0.290818
H131	H	0.651489	-0.590232	0.324660
H132	H	0.699330	-0.587876	0.252223
H133	H	0.800413	-0.969002	0.498612
N134	N	0.840451	-0.826183	0.566102
H135	H	0.860529	-0.801642	0.599911
H136	H	0.865752	-0.847759	0.532239
N137	N	0.840439	-0.712699	0.566059
H138	H	0.860537	-0.739333	0.599864
H139	H	0.817909	-0.691282	0.604609
N140	N	0.808680	-0.573353	0.512690
H141	H	0.834010	-0.594917	0.478855
H142	H	0.786165	-0.597215	0.551287
N143	N	0.808639	-0.459864	0.512676
H144	H	0.803812	-0.420880	0.504569
H145	H	0.846399	-0.468964	0.499758
N146	N	0.676764	-0.453005	0.290822
H147	H	0.656679	-0.477545	0.257020
H148	H	0.699279	-0.429117	0.252268
H149	H	0.653557	-0.809243	0.251556
