data_functionalizedCrystal
_audit_creation_method	'MofGen! by Chris Wilmer'
_symmetry_space_group_name_H-M	'P1'
_symmetry_Int_Tables_number	1
_symmetry_cell_setting	triclinic
loop_
_symmetry_equiv_pos_as_xyz
  x,y,z
_cell_length_a	11.169417
_cell_length_b	12.827892
_cell_length_c	11.169417
_cell_angle_alpha	90.008358
_cell_angle_beta	90.000863
_cell_angle_gamma	90.016270
loop_
_atom_site_label
_atom_site_type_symbol
_atom_site_fract_x
_atom_site_fract_y
_atom_site_fract_z
Zn1	Zn	1.834696	-0.416179	0.678536
Zn2	Zn	1.834634	-0.590891	0.477850
Zn3	Zn	1.634048	-0.416167	0.477870
Zn4	Zn	1.633971	-0.590881	0.678495
O5	O	1.734337	-0.503530	0.578188
O6	O	2.002637	-0.439364	0.651923
O7	O	1.808032	-0.567713	0.309903
O8	O	1.660722	-0.269933	0.504515
O9	O	2.002592	-0.567724	0.504480
O10	O	1.808137	-0.269941	0.651943
O11	O	1.660662	-0.439344	0.309918
O12	O	1.466088	-0.439334	0.504475
O13	O	1.660592	-0.567708	0.846450
O14	O	1.466032	-0.567696	0.651873
O15	O	1.808063	-0.439354	0.846480
O16	O	1.807957	-0.737126	0.504441
O17	O	1.660532	-0.737119	0.651854
C18	C	1.422512	-0.503514	0.578172
C19	C	1.289112	-0.503532	0.578194
C20	C	1.734262	-0.775040	0.578167
C21	C	1.734340	-0.891193	0.578198
C22	C	1.807377	-0.942946	0.505334
C23	C	1.807459	-1.062997	0.505365
C24	C	2.047379	-0.503546	0.578204
C25	C	2.180779	-0.503553	0.578211
C26	C	1.734326	-0.503531	0.891230
C27	C	1.734321	-0.503532	1.024630
C28	C	1.734445	-0.230959	0.578235
C29	C	1.734491	-0.114806	0.578256
C30	C	1.734334	-0.503547	1.266363
C31	C	1.734324	-0.503533	1.132963
H32	H	1.869852	-0.898380	0.442934
H33	H	1.869986	-1.107504	0.442980
O34	O	1.659947	-1.061839	0.652852
C35	C	1.686090	-1.088355	0.772528
H36	H	1.732195	-1.167594	0.775157
H37	H	1.747784	-1.026888	0.812922
C38	C	1.512400	-0.995989	0.841908
C39	C	1.569018	-1.093316	0.845138
H40	H	1.440186	-0.999045	0.886700
H41	H	1.494788	-0.978121	0.761281
H42	H	1.563824	-0.944777	0.875568
H43	H	1.517599	-1.144523	0.811466
H44	H	1.586617	-1.111192	0.925762
H45	H	1.671875	-0.935761	0.640606
