data_functionalizedCrystal
_audit_creation_method	'MofGen! by Chris Wilmer'
_symmetry_space_group_name_H-M	'P1'
_symmetry_Int_Tables_number	1
_symmetry_cell_setting	triclinic
loop_
_symmetry_equiv_pos_as_xyz
  x,y,z
_cell_length_a	14.044220
_cell_length_b	14.044191
_cell_length_c	13.596369
_cell_angle_alpha	89.997249
_cell_angle_beta	89.993157
_cell_angle_gamma	93.190327
loop_
_atom_site_label
_atom_site_type_symbol
_atom_site_fract_x
_atom_site_fract_y
_atom_site_fract_z
O1	O	0.230202	1.277174	-0.081748
O2	O	0.221889	1.000501	-0.081761
O3	O	0.087709	1.134685	-0.081745
O4	O	0.364381	1.142990	-0.081764
O5	O	0.087700	1.134669	0.081838
O6	O	0.221880	1.000486	0.081822
O7	O	0.230193	1.277158	0.081835
Zn8	Zn	0.226035	1.138820	0.107801
Zn9	Zn	0.226047	1.138840	-0.107727
O10	O	0.364372	1.142975	0.081819
C11	C	0.218248	0.964872	0.000029
C12	C	0.207401	0.858728	0.000025
C13	C	0.264501	0.613270	0.000031
C14	C	0.187585	0.664395	0.000035
C15	C	0.198613	0.772532	0.000029
C16	C	0.253474	0.505123	0.000036
C17	C	0.052083	1.131041	0.000047
C18	C	-0.054060	1.120197	0.000048
C19	C	-0.248398	1.100370	0.000033
C20	C	-0.299526	1.177285	0.000033
C21	C	-0.407663	1.166253	0.000025
C22	C	-0.140252	1.111400	0.000041
C23	C	0.399998	1.146618	0.000025
C24	C	0.506142	1.157463	0.000018
C25	C	0.233834	1.312788	0.000043
C26	C	0.244681	1.418931	0.000040
N27	N	0.226027	1.138813	0.254893
N28	N	0.226048	1.138853	-0.254819
C29	C	0.226048	1.138839	0.656184
C30	C	0.226045	1.138829	0.544532
C31	C	0.226038	1.138826	0.455542
C32	C	0.226034	1.138816	0.343883
H33	H	0.338628	0.650711	0.000023
C34	C	-0.298971	1.000229	0.000036
H35	H	-0.366070	1.005860	0.000042
H36	H	-0.281023	0.966521	-0.057004
H37	H	-0.281039	0.966530	0.057093
H38	H	-0.262085	1.251419	-0.000030
H39	H	0.113452	0.626952	-0.000030
