data_functionalizedCrystal
_audit_creation_method	'MofGen! by Chris Wilmer'
_symmetry_space_group_name_H-M	'P1'
_symmetry_Int_Tables_number	1
_symmetry_cell_setting	triclinic
loop_
_symmetry_equiv_pos_as_xyz
  x,y,z
_cell_length_a	12.645331
_cell_length_b	25.639239
_cell_length_c	25.639234
_cell_angle_alpha	89.975095
_cell_angle_beta	89.979224
_cell_angle_gamma	90.037665
loop_
_atom_site_label
_atom_site_type_symbol
_atom_site_fract_x
_atom_site_fract_y
_atom_site_fract_z
Zn1	Zn	1.620557	-0.208197	-0.295623
Zn2	Zn	1.620379	-0.295625	-0.208187
Zn3	Zn	1.443277	-0.208204	-0.208200
Zn4	Zn	1.443188	-0.295602	-0.295590
O5	O	1.531850	-0.251907	-0.251900
O6	O	1.768880	-0.219801	-0.284032
O7	O	1.596849	-0.284041	-0.135023
O8	O	1.466905	-0.135038	-0.219816
O9	O	1.768750	-0.284034	-0.219794
O10	O	1.597152	-0.135033	-0.284045
O11	O	1.466733	-0.219813	-0.135033
O12	O	1.294918	-0.219790	-0.219784
O13	O	1.466753	-0.283994	-0.368760
O14	O	1.294853	-0.284001	-0.283989
O15	O	1.597065	-0.219778	-0.368784
O16	O	1.596763	-0.368787	-0.219762
O17	O	1.466581	-0.368770	-0.283977
C18	C	1.256421	-0.251894	-0.251885
C19	C	1.138591	-0.251902	-0.251891
C20	C	0.971032	-0.211321	-0.211722
C21	C	1.093592	-0.211426	-0.211545
C22	C	1.094030	-0.306978	-0.236834
C23	C	0.971432	-0.306756	-0.236560
C24	C	0.971448	-0.237931	-0.307271
C25	C	1.094055	-0.236700	-0.306964
C26	C	1.531672	-0.387749	-0.251876
C27	C	1.531693	-0.445863	-0.251883
C28	C	1.599813	-0.806223	-0.218520
C29	C	1.599854	-0.860827	-0.218527
O30	O	1.657587	-0.889061	-0.190135
N31	N	1.532037	-0.888146	-0.251934
C32	C	1.464181	-0.860857	-0.285341
O33	O	1.406502	-0.889108	-0.313757
C34	C	1.464147	-0.806254	-0.285336
C35	C	1.531961	-0.778938	-0.251923
C36	C	1.667622	-0.778907	-0.185110
C37	C	1.667579	-0.724306	-0.185103
C38	C	1.599727	-0.697022	-0.218505
C39	C	1.531918	-0.724338	-0.251915
C40	C	1.396298	-0.778967	-0.318744
C41	C	1.396269	-0.724360	-0.318737
C42	C	1.464083	-0.697044	-0.285324
C43	C	1.464023	-0.642453	-0.285310
N44	N	1.531840	-0.615134	-0.251903
C45	C	1.599692	-0.642419	-0.218500
C46	C	1.464261	-0.975528	-0.285349
C47	C	1.464290	-1.030130	-0.285351
C48	C	1.599964	-1.030096	-0.218538
C49	C	1.599929	-0.975493	-0.218534
C50	C	1.532079	-0.948209	-0.251941
C51	C	1.599597	-0.527753	-0.218487
C52	C	1.599545	-0.473148	-0.218481
C53	C	1.463875	-0.473187	-0.285295
C54	C	1.463923	-0.527787	-0.285300
C55	C	1.531792	-0.555069	-0.251894
O56	O	1.406322	-0.614184	-0.313690
O57	O	1.657372	-0.614161	-0.190094
C58	C	1.808355	-0.251920	-0.251915
C59	C	1.926186	-0.251925	-0.251922
C60	C	1.531919	-0.251883	-0.388273
C61	C	1.531949	-0.251873	-0.446387
C62	C	1.532058	-0.115534	-0.251935
C63	C	1.532147	-0.057420	-0.251950
C64	C	1.464227	-0.218367	-0.806761
C65	C	1.464233	-0.218358	-0.861365
O66	O	1.406600	-0.189927	-0.889611
N67	N	1.531984	-0.251791	-0.888670
C68	C	1.599726	-0.285239	-0.861367
O69	O	1.657354	-0.313677	-0.889606
C70	C	1.599714	-0.285251	-0.806764
C71	C	1.531966	-0.251812	-0.779462
C72	C	1.396483	-0.184931	-0.779459
C73	C	1.396479	-0.184940	-0.724858
C74	C	1.464219	-0.218385	-0.697559
C75	C	1.531962	-0.251821	-0.724861
C76	C	1.667450	-0.318702	-0.779462
C77	C	1.667432	-0.318711	-0.724855
C78	C	1.599684	-0.285272	-0.697553
C79	C	1.599697	-0.285275	-0.642962
N80	N	1.531946	-0.251842	-0.615657
C81	C	1.464207	-0.218397	-0.642956
C82	C	1.599745	-0.285213	-0.976038
C83	C	1.599763	-0.285199	-1.030640
C84	C	1.464267	-0.218318	-1.030634
C85	C	1.464255	-0.218329	-0.976031
C86	C	1.531993	-0.251780	-0.948733
C87	C	1.464204	-0.218418	-0.528291
C88	C	1.464209	-0.218428	-0.473686
C89	C	1.599700	-0.285311	-0.473696
C90	C	1.599699	-0.285299	-0.528297
C91	C	1.531943	-0.251850	-0.555593
O92	O	1.657298	-0.313692	-0.614682
O93	O	1.406579	-0.189969	-0.614711
C94	C	1.531843	-0.251893	-0.116057
C95	C	1.532019	-0.251756	-0.057944
H96	H	0.941598	-0.170357	-0.221059
O97	O	1.665674	-0.554188	-0.186061
C98	C	1.846051	-0.570814	-0.160782
C99	C	1.771341	-0.540839	-0.197531
H100	H	1.931499	-0.560041	-0.170049
H101	H	1.827556	-0.560094	-0.118607
H102	H	1.834401	-0.614533	-0.166506
H103	H	1.782949	-0.497113	-0.191852
H104	H	1.789854	-0.551603	-0.239692
O105	O	0.934511	-0.190899	-0.323671
C106	C	0.836233	-0.144043	-0.389134
C107	C	0.877979	-0.197342	-0.370622
H108	H	0.790537	-0.149231	-0.427102
H109	H	0.781675	-0.126965	-0.358135
H110	H	0.905659	-0.116464	-0.395887
H111	H	0.808621	-0.224959	-0.363874
H112	H	0.932568	-0.214377	-0.401631
H113	H	1.409031	-0.191180	-0.550509
H114	H	1.409090	-0.191100	-0.953805
H115	H	1.122866	-0.220675	-0.170529
O116	O	1.665325	-0.446533	-0.186039
C117	C	1.725443	-0.362403	-0.156434
C118	C	1.650878	-0.392476	-0.193189
H119	H	1.713804	-0.318693	-0.162210
H120	H	1.706881	-0.373136	-0.114257
H121	H	1.810908	-0.373123	-0.165652
H122	H	1.565388	-0.381773	-0.184019
H123	H	1.669531	-0.381741	-0.235356
O124	O	1.330559	-0.152515	-0.805993
C125	C	1.187474	-0.145446	-0.867633
C126	C	1.262052	-0.182222	-0.837613
H127	H	1.132082	-0.169449	-0.893213
H128	H	1.138984	-0.121566	-0.838752
H129	H	1.236204	-0.118089	-0.893185
H130	H	1.213404	-0.209611	-0.812060
H131	H	1.310545	-0.206066	-0.866521
H132	H	1.123175	-0.338039	-0.265194
O133	O	1.130787	-0.321348	-0.189106
C134	C	1.283673	-0.339787	-0.136160
C135	C	1.242178	-0.323506	-0.190232
H136	H	1.373736	-0.341548	-0.137055
H137	H	1.257233	-0.310072	-0.105778
H138	H	1.250755	-0.379834	-0.125623
H139	H	1.275077	-0.283470	-0.200818
H140	H	1.268607	-0.353255	-0.220583
O141	O	1.398521	-1.056638	-0.317880
C142	C	1.346926	-1.073285	-0.406795
C143	C	1.421489	-1.043245	-0.370012
H144	H	1.365455	-1.062459	-0.448952
H145	H	1.358605	-1.117006	-0.401114
H146	H	1.261457	-1.062601	-0.397545
H147	H	1.506987	-1.053885	-0.379240
H148	H	1.409718	-0.999532	-0.375701
O149	O	1.128623	-0.188311	-0.320490
C150	C	1.080433	-0.100343	-0.343477
C151	C	1.041137	-0.155118	-0.328157
H152	H	1.009721	-0.073494	-0.349690
H153	H	1.132452	-0.084052	-0.311027
H154	H	1.128231	-0.102945	-0.381093
H155	H	0.993296	-0.152560	-0.290553
H156	H	0.989174	-0.171388	-0.360638
H157	H	1.124690	-0.264117	-0.338518
O158	O	1.398482	-0.185884	-1.057238
C159	C	1.338481	-0.156225	-1.141362
C160	C	1.413017	-0.192986	-1.111297
H161	H	1.350223	-0.161946	-1.185074
H162	H	1.252965	-0.165413	-1.130650
H163	H	1.357130	-0.114071	-1.130615
H164	H	1.394464	-0.235152	-1.122028
H165	H	1.498511	-0.183753	-1.122011
H166	H	0.940180	-0.220468	-0.170947
H167	H	0.942445	-0.267505	-0.337224
H168	H	1.654877	-0.312522	-0.550527
O169	O	1.733566	-0.697857	-0.152634
C170	C	1.868108	-0.703606	-0.086352
C171	C	1.793441	-0.733621	-0.123104
H172	H	1.916521	-0.732509	-0.062459
H173	H	1.923568	-0.678019	-0.110355
H174	H	1.819451	-0.678065	-0.059005
H175	H	1.842013	-0.759191	-0.150457
H176	H	1.737978	-0.759175	-0.099068
O177	O	1.665860	-0.948904	-0.186151
C178	C	1.809012	-0.887223	-0.179174
C179	C	1.734390	-0.917289	-0.215906
H180	H	1.864453	-0.861664	-0.203217
H181	H	1.760420	-0.861660	-0.151818
H182	H	1.857458	-0.916119	-0.155291
H183	H	1.685929	-0.888430	-0.239824
H184	H	1.783043	-0.942860	-0.243228
H185	H	1.722881	-0.801116	-0.157910
H186	H	1.654942	-0.312423	-1.052865
H187	H	1.655217	-1.052321	-0.191342
H188	H	1.654855	-0.312539	-0.451460
H189	H	1.408706	-0.550029	-0.312509
H190	H	1.654918	-0.312449	-0.953815
O191	O	1.129688	-0.162710	-0.222720
C192	C	1.232098	-0.089015	-0.193518
C193	C	1.191310	-0.144190	-0.180807
H194	H	1.281910	-0.074020	-0.159635
H195	H	1.282472	-0.090358	-0.230377
H196	H	1.162034	-0.061804	-0.199940
H197	H	1.261310	-0.171432	-0.174359
H198	H	1.140904	-0.142806	-0.143961
O199	O	0.937422	-0.320898	-0.188253
C200	C	0.986680	-0.346728	-0.101218
C201	C	1.025333	-0.330709	-0.155900
H202	H	1.057736	-0.354675	-0.075048
H203	H	0.937274	-0.313893	-0.083784
H204	H	0.936399	-0.383515	-0.104354
H205	H	1.075656	-0.293934	-0.152809
H206	H	1.074682	-0.363575	-0.173314
O207	O	1.398068	-0.446596	-0.317725
C208	C	1.337861	-0.362485	-0.347301
C209	C	1.412451	-0.392535	-0.310553
H210	H	1.349448	-0.318771	-0.341508
H211	H	1.356445	-0.373147	-0.389481
H212	H	1.252406	-0.373296	-0.338093
H213	H	1.497931	-0.381740	-0.319714
H214	H	1.393776	-0.381870	-0.268384
H215	H	1.409000	-0.953316	-0.312552
H216	H	0.941762	-0.338033	-0.264563
O217	O	1.330539	-0.805468	-0.351281
C218	C	1.278970	-0.822104	-0.440202
C219	C	1.353526	-0.792071	-0.403410
H220	H	1.297513	-0.811275	-0.482355
H221	H	1.290639	-0.865826	-0.434523
H222	H	1.193499	-0.811417	-0.430957
H223	H	1.439025	-0.802714	-0.412632
H224	H	1.341765	-0.748356	-0.409095
O225	O	1.330453	-0.697776	-0.351173
C226	C	1.270208	-0.613674	-0.380756
C227	C	1.344815	-0.643713	-0.344007
H228	H	1.281778	-0.569959	-0.374967
H229	H	1.288790	-0.624339	-0.422935
H230	H	1.184759	-0.624492	-0.371543
H231	H	1.430290	-0.632911	-0.353172
H232	H	1.326142	-0.633045	-0.301838
O233	O	1.398240	-0.186001	-0.447189
C234	C	1.217952	-0.160596	-0.430490
C235	C	1.292539	-0.197357	-0.460518
H236	H	1.132479	-0.169757	-0.441265
H237	H	1.229488	-0.166346	-0.386768
H238	H	1.236688	-0.118439	-0.441236
H239	H	1.273850	-0.239527	-0.449816
H240	H	1.280990	-0.191562	-0.504234
O241	O	1.330562	-0.152443	-0.698422
C242	C	1.196212	-0.086086	-0.704199
C243	C	1.270799	-0.122871	-0.734198
H244	H	1.147890	-0.062160	-0.733111
H245	H	1.140664	-0.110066	-0.678637
H246	H	1.244927	-0.058773	-0.678634
H247	H	1.222169	-0.150191	-0.759792
H248	H	1.326350	-0.098858	-0.759727
O249	O	1.733290	-0.351238	-0.805894
C250	C	1.867701	-0.417564	-0.800113
C251	C	1.793173	-0.380749	-0.770116
H252	H	1.916151	-0.441426	-0.771200
H253	H	1.819040	-0.444932	-0.825647
H254	H	1.923140	-0.393558	-0.825707
H255	H	1.737718	-0.404713	-0.744494
H256	H	1.841899	-0.353380	-0.744616
H257	H	1.722601	-0.345948	-0.702632
