data_functionalizedCrystal
_audit_creation_method	'MofGen! by Chris Wilmer'
_symmetry_space_group_name_H-M	'P1'
_symmetry_Int_Tables_number	1
_symmetry_cell_setting	triclinic
loop_
_symmetry_equiv_pos_as_xyz
  x,y,z
_cell_length_a	10.540539
_cell_length_b	9.065218
_cell_length_c	9.616153
_cell_angle_alpha	89.999628
_cell_angle_beta	90.004826
_cell_angle_gamma	95.229312
loop_
_atom_site_label
_atom_site_type_symbol
_atom_site_fract_x
_atom_site_fract_y
_atom_site_fract_z
O1	O	1.686661	-0.207926	0.115574
O2	O	1.317320	-0.227518	0.115591
O3	O	1.509625	-0.003041	0.115579
O4	O	1.494356	-0.432403	0.115585
O5	O	1.509598	-0.003046	-0.115712
O6	O	1.317294	-0.227522	-0.115701
O7	O	1.686634	-0.207931	-0.115717
Zn8	Zn	1.501960	-0.217727	-0.152432
Zn9	Zn	1.501995	-0.217721	0.152305
O10	O	1.494330	-0.432407	-0.115706
C11	C	1.269999	-0.226051	-0.000053
C12	C	1.129034	-0.221655	-0.000047
N13	N	1.501945	-0.217731	-0.360406
C14	C	1.508144	0.051936	-0.000064
C15	C	1.503757	0.215756	-0.000057
C16	C	0.944985	-0.053221	-0.000589
C17	C	1.091619	-0.057677	-0.000053
C18	C	1.067669	-0.300566	0.132028
C19	C	0.921103	-0.294969	0.132124
C20	C	0.920597	-0.298311	-0.130897
C21	C	1.067585	-0.299821	-0.132628
C22	C	1.733956	-0.209398	-0.000071
C23	C	1.874920	-0.213794	-0.000068
C24	C	1.495811	-0.487384	-0.000060
C25	C	1.500198	-0.651205	-0.000057
C26	C	1.398758	-0.337408	-0.580770
C27	C	1.398988	-0.337856	-0.419602
C28	C	1.634798	-0.252754	-0.418861
C29	C	1.634237	-0.253602	-0.580079
C30	C	1.473600	-0.062638	-0.580318
C31	C	1.470557	-0.063643	-0.419092
N32	N	1.502020	-0.217706	0.360279
H33	H	1.133993	0.004413	-0.094731
F34	F	0.858971	-0.449109	0.139963
H35	H	1.417312	-0.452903	-0.381022
H36	H	1.660109	-0.364609	-0.378470
F37	F	1.737714	-0.143959	-0.631051
F38	F	0.879099	-0.228947	-0.261752
F39	F	1.120704	-0.224352	-0.260340
H40	H	0.916149	0.011558	-0.095307
F41	F	1.269969	-0.310386	-0.367944
F42	F	1.571997	0.053816	-0.630144
H43	H	1.133144	0.004855	0.094786
F44	F	1.097497	-0.457954	0.138480
H45	H	1.713539	-0.167950	-0.380513
H46	H	1.372820	-0.037096	-0.380887
H47	H	1.092252	-0.419372	-0.140601
F48	F	0.883960	-0.218732	0.261165
F49	F	0.859442	-0.453120	-0.132062
H50	H	0.914550	0.011288	0.093600
H51	H	1.299756	-0.316658	-0.619577
F52	F	1.123080	-0.228914	0.260505
H53	H	1.659009	-0.366735	-0.617667
H54	H	1.416848	-0.451803	-0.621268
F55	F	1.349589	-0.019091	-0.633519
F56	F	1.562298	0.058381	-0.366444
