data_functionalizedCrystal
_audit_creation_method	'MofGen! by Chris Wilmer'
_symmetry_space_group_name_H-M	'P1'
_symmetry_Int_Tables_number	1
_symmetry_cell_setting	triclinic
loop_
_symmetry_equiv_pos_as_xyz
  x,y,z
_cell_length_a	10.268362
_cell_length_b	9.065218
_cell_length_c	9.065218
_cell_angle_alpha	94.984115
_cell_angle_beta	89.996569
_cell_angle_gamma	90.005741
loop_
_atom_site_label
_atom_site_type_symbol
_atom_site_fract_x
_atom_site_fract_y
_atom_site_fract_z
O1	O	0.108331	1.960402	-0.216358
O2	O	0.441664	2.293735	0.116975
O3	O	0.774998	2.627068	0.450309
O4	O	0.108325	1.531117	-0.234104
O5	O	0.441658	1.864450	0.099229
O6	O	0.774992	2.197783	0.432562
O7	O	0.108325	1.754632	-0.010589
O8	O	0.441659	2.087966	0.322745
O9	O	0.774992	2.421299	0.656078
O10	O	0.108331	1.736886	-0.439874
O11	O	0.441664	2.070219	-0.106540
O12	O	0.774997	2.403553	0.226793
O13	O	-0.108275	1.754613	-0.010579
O14	O	0.225058	2.087946	0.322754
O15	O	0.558391	2.421279	0.656087
O16	O	-0.108276	1.531097	-0.234095
O17	O	0.225058	1.864430	0.099238
O18	O	0.558391	2.197764	0.432572
O19	O	-0.108270	1.960382	-0.216348
O20	O	0.225064	2.293715	0.116985
O21	O	0.558397	2.627048	0.450318
Cu22	Cu	-0.128050	1.745738	-0.225221
Cu23	Cu	0.205283	2.079071	0.108113
Cu24	Cu	0.538617	2.412404	0.441446
Cu25	Cu	0.128105	1.745761	-0.225232
Cu26	Cu	0.461439	2.079094	0.108101
Cu27	Cu	0.794772	2.412428	0.441435
O28	O	-0.108270	1.736866	-0.439864
O29	O	0.225063	2.070200	-0.106531
O30	O	0.558397	2.403533	0.226803
C31	C	0.000024	1.476120	-0.232394
C32	C	0.333357	1.809454	0.100939
C33	C	0.666691	2.142787	0.434273
C34	C	0.000022	1.312277	-0.227294
C35	C	0.333355	1.645611	0.106039
C36	C	0.666689	1.978944	0.439372
N37	N	-0.308216	1.745732	-0.225212
N38	N	0.025117	2.079065	0.108121
N39	N	0.358451	2.412399	0.441455
C40	C	0.000027	1.752917	0.044403
C41	C	0.333361	2.086250	0.377736
C42	C	0.666694	2.419584	0.711069
C43	C	0.000033	1.747817	0.208245
C44	C	0.333367	2.081151	0.541579
C45	C	0.666700	2.414484	0.874912
C46	C	-0.573886	1.745754	-0.225229
C47	C	-0.240553	2.079087	0.108104
C48	C	0.092780	2.412420	0.441438
C49	C	-0.426049	1.745737	-0.225224
C50	C	-0.092715	2.079070	0.108109
C51	C	0.240618	2.412403	0.441443
N52	N	0.308271	1.745778	-0.225229
N53	N	0.641605	2.079112	0.108104
N54	N	0.974938	2.412445	0.441437
C55	C	0.000034	2.015378	-0.218059
C56	C	0.333368	2.348712	0.115275
C57	C	0.666701	2.682045	0.448608
C58	C	0.000045	2.179221	-0.223158
C59	C	0.333378	2.512555	0.110175
C60	C	0.666712	2.845888	0.443508
C61	C	0.000031	1.738582	-0.494855
C62	C	0.333364	2.071915	-0.161522
C63	C	0.666698	2.405248	0.171811
C64	C	0.000033	1.743681	-0.658698
C65	C	0.333367	2.077015	-0.325365
C66	C	0.666700	2.410348	0.007968
