data_functionalizedCrystal
_audit_creation_method	'MofGen! by Chris Wilmer'
_symmetry_space_group_name_H-M	'P1'
_symmetry_Int_Tables_number	1
_symmetry_cell_setting	triclinic
loop_
_symmetry_equiv_pos_as_xyz
  x,y,z
_cell_length_a	19.805407
_cell_length_b	10.685194
_cell_length_c	19.805398
_cell_angle_alpha	85.606025
_cell_angle_beta	89.983299
_cell_angle_gamma	94.378795
loop_
_atom_site_label
_atom_site_type_symbol
_atom_site_fract_x
_atom_site_fract_y
_atom_site_fract_z
Zn1	Zn	1.014144	-0.502393	-0.362085
Zn2	Zn	1.005427	-0.713424	-0.240222
Zn3	Zn	0.900964	-0.502429	-0.248906
Zn4	Zn	0.892285	-0.713370	-0.353370
O5	O	0.953205	-0.607904	-0.301146
O6	O	1.107704	-0.530394	-0.345932
O7	O	0.991554	-0.685473	-0.146656
O8	O	0.923258	-0.325827	-0.271201
O9	O	1.101299	-0.685438	-0.256401
O10	O	1.006411	-0.325801	-0.354353
O11	O	0.914806	-0.530455	-0.153036
O12	O	0.805097	-0.530403	-0.262750
O13	O	0.908466	-0.685346	-0.449244
O14	O	0.798720	-0.685381	-0.339499
O15	O	0.997995	-0.530342	-0.455647
O16	O	0.983138	-0.890014	-0.247950
O17	O	0.900013	-0.889974	-0.331079
C18	C	0.777350	-0.607891	-0.301122
C19	C	0.702117	-0.607916	-0.301126
C20	C	0.939706	-0.935784	-0.287641
C21	C	0.933993	-1.076052	-0.281887
C22	C	0.243658	-0.527324	-0.347851
C23	C	0.314346	-0.527326	-0.347846
C24	C	0.346355	-0.607923	-0.301167
C25	C	0.307670	-0.688532	-0.254494
C26	C	0.236983	-0.688535	-0.254502
C27	C	0.592744	-0.688523	-0.254458
C28	C	0.663436	-0.688511	-0.254452
C29	C	0.670107	-0.527313	-0.347802
C30	C	0.599420	-0.527316	-0.347811
C31	C	0.560742	-0.607930	-0.301140
C32	C	0.484093	-0.607928	-0.301147
C33	C	0.423002	-0.607919	-0.301156
C34	C	1.129747	-0.607918	-0.301170
C35	C	1.204979	-0.607924	-0.301180
C36	C	0.953234	-0.607834	-0.477691
C37	C	0.953247	-0.607804	-0.552925
C38	C	0.966775	-0.278744	-0.314718
C39	C	0.972558	-0.138475	-0.320501
C40	C	0.999956	-0.526870	-1.018060
C41	C	0.999943	-0.526909	-0.947370
C42	C	0.953324	-0.607629	-0.908694
C43	C	0.906717	-0.688324	-0.940711
C44	C	0.906733	-0.688291	-1.011399
C45	C	0.906653	-0.688461	-0.655632
C46	C	0.906639	-0.688486	-0.584938
C47	C	0.999863	-0.527079	-0.591602
C48	C	0.999879	-0.527046	-0.662291
C49	C	0.953275	-0.607745	-0.694302
C50	C	0.953290	-0.607704	-0.770952
C51	C	0.953305	-0.607664	-0.832045
C52	C	0.953218	-0.607883	-0.125291
C53	C	0.953352	-0.607557	-0.050072
H54	H	0.217603	-0.461684	-0.385859
H55	H	0.689495	-0.754148	-0.216439
C56	C	0.855472	-0.777055	-1.046615
C57	C	0.804192	-0.865851	-1.004076
C58	C	0.752933	-0.954627	-1.039291
C59	C	0.752954	-0.954606	-1.117044
C60	C	0.804236	-0.865807	-1.159588
C61	C	0.855494	-0.777031	-1.124374
H62	H	0.804175	-0.865869	-0.946514
H63	H	0.714972	-1.020362	-1.007796
H64	H	0.715010	-1.020323	-1.143112
H65	H	0.804253	-0.865788	-1.217150
H66	H	0.893456	-0.711296	-1.155868
C67	C	0.356894	-0.438658	-0.399182
C68	C	0.321688	-0.349992	-0.450523
C69	C	0.364235	-0.261320	-0.501861
C70	C	0.441989	-0.261314	-0.501859
C71	C	0.477199	-0.349983	-0.450516
C72	C	0.434651	-0.438655	-0.399177
H73	H	0.264126	-0.349994	-0.450527
H74	H	0.338170	-0.195682	-0.539869
H75	H	0.473485	-0.195674	-0.539862
H76	H	0.534760	-0.349981	-0.450512
H77	H	0.460717	-0.504294	-0.361170
C78	C	1.051208	-0.438150	-0.912157
C79	C	1.102485	-0.349353	-0.954698
C80	C	1.153753	-0.260593	-0.919485
C81	C	1.153744	-0.260630	-0.841731
C82	C	1.102465	-0.349430	-0.799185
C83	C	1.051197	-0.438191	-0.834398
H84	H	1.102493	-0.349323	-1.012261
H85	H	1.191713	-0.194857	-0.950981
H86	H	1.191696	-0.194924	-0.815664
H87	H	1.102457	-0.349461	-0.741622
H88	H	1.013237	-0.503927	-0.802902
C89	C	1.051135	-0.438317	-0.556389
C90	C	1.025881	-0.339264	-0.511870
C91	C	1.077149	-0.250502	-0.476658
C92	C	1.153672	-0.260793	-0.485965
C93	C	1.178930	-0.359851	-0.530487
C94	C	1.127661	-0.448613	-0.565698
H95	H	0.969231	-0.331642	-0.504978
H96	H	1.058451	-0.177173	-0.443701
H97	H	1.191624	-0.195087	-0.459900
H98	H	1.235580	-0.367473	-0.537378
H99	H	1.146359	-0.521942	-0.598656
H100	H	1.037839	-0.461311	-0.693778
H101	H	0.896596	-1.129925	-0.244425
C102	C	0.550204	-0.777180	-0.203115
C103	C	0.472450	-0.777197	-0.203117
C104	C	0.429907	-0.865855	-0.151769
C105	C	0.465118	-0.954496	-0.100419
C106	C	0.542876	-0.954482	-0.100415
C107	C	0.585419	-0.865824	-0.151763
H108	H	0.446381	-0.711577	-0.241132
H109	H	0.372345	-0.865865	-0.151773
H110	H	0.433625	-1.020126	-0.062408
H111	H	0.568945	-1.020102	-0.062400
H112	H	0.642981	-0.865814	-0.151759
C113	C	0.712655	-0.438642	-0.399146
C114	C	0.790409	-0.438632	-0.399144
C115	C	0.832954	-0.349959	-0.450483
C116	C	0.797746	-0.261296	-0.501824
C117	C	0.719988	-0.261304	-0.501828
C118	C	0.677443	-0.349976	-0.450489
H119	H	0.816475	-0.504268	-0.361136
H120	H	0.890516	-0.349954	-0.450480
H121	H	0.829240	-0.195655	-0.539829
H122	H	0.693921	-0.195667	-0.539835
H123	H	0.619881	-0.349981	-0.450492
H124	H	1.009946	-1.084610	-0.357967
H125	H	1.037915	-0.461130	-1.049546
H126	H	0.868671	-0.754217	-0.553450
H127	H	0.573363	-0.461681	-0.385820
C128	C	0.194432	-0.777193	-0.203162
C129	C	0.204548	-0.766705	-0.126657
C130	C	0.161998	-0.855369	-0.075317
C131	C	0.109332	-0.954523	-0.100484
C132	C	0.099214	-0.965016	-0.176994
C133	C	0.141764	-0.876351	-0.228333
H134	H	0.243536	-0.693301	-0.108023
H135	H	0.169488	-0.847601	-0.018680
H136	H	0.077834	-1.020158	-0.062480
H137	H	0.060226	-1.038420	-0.195627
H138	H	0.134274	-0.884119	-0.284971
H139	H	0.868705	-0.754170	-0.681686
H140	H	0.868762	-0.754053	-0.909214
H141	H	0.333736	-0.754161	-0.216489
