data_functionalizedCrystal
_audit_creation_method	'MofGen! by Chris Wilmer'
_symmetry_space_group_name_H-M	'P1'
_symmetry_Int_Tables_number	1
_symmetry_cell_setting	triclinic
loop_
_symmetry_equiv_pos_as_xyz
  x,y,z
_cell_length_a	8.597340
_cell_length_b	10.489716
_cell_length_c	7.088929
_cell_angle_alpha	83.717280
_cell_angle_beta	103.954719
_cell_angle_gamma	84.931820
loop_
_atom_site_label
_atom_site_type_symbol
_atom_site_fract_x
_atom_site_fract_y
_atom_site_fract_z
O1	O	2.103363	0.175170	0.187518
O2	O	1.638917	0.195992	0.111008
O3	O	1.881728	-0.000108	0.151001
O4	O	1.860552	0.371270	0.147526
O5	O	1.914177	-0.026374	0.474320
O6	O	1.671366	0.169726	0.434328
O7	O	2.135811	0.148904	0.510838
Cu8	Cu	1.906551	0.156916	0.502104
Cu9	Cu	1.868177	0.187979	0.119742
O10	O	1.893001	0.345004	0.470845
C11	C	1.595670	0.182086	0.262871
C12	C	1.418462	0.179768	0.233678
C13	C	1.896361	-0.060759	0.312392
C14	C	1.891598	-0.202349	0.311590
C15	C	2.040500	-0.301283	0.336137
C16	C	1.945819	-0.365029	0.163767
C17	C	1.977777	-0.390888	0.482529
C18	C	1.796967	-0.264218	0.139099
C19	C	1.828961	-0.290084	0.458008
C20	C	1.734167	-0.353776	0.285581
C21	C	2.179059	0.162810	0.358971
C22	C	2.356265	0.165129	0.388151
C23	C	1.878368	0.405655	0.309449
C24	C	1.883129	0.547245	0.310238
N25	N	1.933553	0.135068	0.771040
N26	N	1.841188	0.209817	-0.149192
H27	H	1.438587	0.154361	0.542744
O28	O	2.047677	0.042494	0.887029
C29	C	2.015102	-0.079708	0.832929
H30	H	1.938835	-0.067523	0.674993
H31	H	2.133583	-0.142184	0.845776
H32	H	1.946551	-0.128233	0.934269
O33	O	1.727146	0.302396	0.734721
C34	C	1.759666	0.424593	0.788889
H35	H	1.893060	0.420471	0.865988
H36	H	1.728786	0.499427	0.652081
H37	H	1.683451	0.452692	0.892393
O38	O	2.004500	-0.404310	0.015112
C39	C	1.910525	-0.337361	-0.165406
H40	H	1.847399	-0.243139	-0.139267
H41	H	1.991865	-0.315242	-0.267251
H42	H	1.816325	-0.399564	-0.235673
H43	H	1.336132	0.190527	0.079075
H44	H	1.779685	-0.256984	0.582438
O45	O	2.194954	-0.273108	0.361021
C46	C	2.255995	-0.311037	0.205467
H47	H	2.151413	-0.315618	0.073318
H48	H	2.336666	-0.237865	0.163992
H49	H	2.329266	-0.410295	0.253303
H50	H	1.720604	-0.209422	-0.006167
H51	H	1.604544	-0.377103	0.264143
O52	O	2.069142	-0.456308	0.655650
C53	C	2.230440	-0.430093	0.681587
H54	H	2.233700	-0.334340	0.590339
H55	H	2.285492	-0.423948	0.843123
H56	H	2.302557	-0.510788	0.632275
