data_functionalizedCrystal
_audit_creation_method	'MofGen! by Chris Wilmer'
_symmetry_space_group_name_H-M	'P1'
_symmetry_Int_Tables_number	1
_symmetry_cell_setting	triclinic
loop_
_symmetry_equiv_pos_as_xyz
  x,y,z
_cell_length_a	12.759401
_cell_length_b	12.645330
_cell_length_c	12.759393
_cell_angle_alpha	90.031199
_cell_angle_beta	90.017138
_cell_angle_gamma	90.011690
loop_
_atom_site_label
_atom_site_type_symbol
_atom_site_fract_x
_atom_site_fract_y
_atom_site_fract_z
Zn1	Zn	1.606256	-0.422014	0.593979
Zn2	Zn	1.606161	-0.599315	0.418297
Zn3	Zn	1.430562	-0.422063	0.418318
Zn4	Zn	1.430552	-0.599233	0.593938
O5	O	1.518383	-0.510656	0.506133
O6	O	1.753264	-0.445547	0.570682
O7	O	1.582831	-0.575857	0.271279
O8	O	1.453912	-0.273709	0.441646
O9	O	1.753194	-0.575810	0.441610
O10	O	1.582993	-0.273673	0.570703
O11	O	1.453820	-0.445631	0.271294
O12	O	1.283540	-0.445551	0.441606
O13	O	1.453896	-0.575670	0.740965
O14	O	1.283533	-0.575717	0.570634
O15	O	1.582984	-0.445468	0.740995
O16	O	1.582822	-0.747651	0.441571
O17	O	1.453804	-0.747591	0.570613
C18	C	1.245415	-0.510631	0.506118
C19	C	1.128639	-0.510646	0.506137
C20	C	1.073806	-0.442947	0.573449
C21	C	0.964082	-0.442967	0.573456
C22	C	0.964033	-0.578396	0.438835
C23	C	1.073755	-0.578369	0.438824
C24	C	1.073833	-0.364761	0.651175
C25	C	0.964109	-0.364782	0.651182
C26	C	1.518330	-0.786086	0.506108
C27	C	1.518404	-0.903916	0.506133
C28	C	1.599439	-1.071474	0.424787
C29	C	1.599703	-0.948914	0.424986
C30	C	1.548428	-0.948291	0.616877
C31	C	1.549072	-1.070889	0.616445
C32	C	1.407312	-1.071244	0.477826
C33	C	1.407844	-0.948640	0.475342
C34	C	1.792416	-0.510682	0.506148
C35	C	1.909193	-0.510693	0.506155
C36	C	1.518449	-0.510554	0.780166
C37	C	1.518478	-0.510511	0.896943
C38	C	1.518464	-0.234151	0.506181
C39	C	1.518499	-0.116321	0.506201
C40	C	1.518377	-0.510682	0.233166
C41	C	1.518552	-0.510427	0.116390
C42	C	1.585704	-0.578246	1.061518
C43	C	1.585665	-0.578291	0.951794
C44	C	1.451318	-0.442688	0.951822
C45	C	1.451353	-0.442649	1.061544
C46	C	1.663272	-0.656533	1.061501
C47	C	1.663232	-0.656578	0.951777
H48	H	1.103598	-0.282624	0.629522
H49	H	0.934363	-0.386876	0.732517
H50	H	1.107898	-0.394259	0.728413
H51	H	1.380008	-1.102258	0.398478
H52	H	1.118395	-0.633487	0.384002
H53	H	0.919333	-0.633533	0.384031
H54	H	1.344284	-0.918020	0.530293
H55	H	1.396660	-0.387435	1.106217
H56	H	0.930066	-0.286756	0.622183
H57	H	1.580918	-0.918916	0.342871
H58	H	1.396607	-0.387506	0.907154
H59	H	1.682055	-0.919506	0.443754
H60	H	1.580889	-1.101032	0.342431
H61	H	1.641467	-0.738625	1.091261
H62	H	1.630344	-1.099401	0.640482
H63	H	1.681350	-1.102204	0.443345
H64	H	1.492701	-1.100551	0.679195
H65	H	1.491270	-0.919139	0.679162
H66	H	1.628783	-0.917502	0.641314
H67	H	1.385205	-0.919649	0.393844
H68	H	1.634079	-0.734592	0.917733
H69	H	1.347005	-1.100246	0.537123
H70	H	1.744598	-0.634599	0.922000
H71	H	1.740584	-0.627118	1.095538
