data_functionalizedCrystal
_audit_creation_method	'MofGen! by Chris Wilmer'
_symmetry_space_group_name_H-M	'P1'
_symmetry_Int_Tables_number	1
_symmetry_cell_setting	triclinic
loop_
_symmetry_equiv_pos_as_xyz
  x,y,z
_cell_length_a	14.044220
_cell_length_b	14.044220
_cell_length_c	12.503572
_cell_angle_alpha	93.847060
_cell_angle_beta	86.157348
_cell_angle_gamma	93.188877
loop_
_atom_site_label
_atom_site_type_symbol
_atom_site_fract_x
_atom_site_fract_y
_atom_site_fract_z
O1	O	1.272114	0.235217	0.089315
O2	O	1.772114	0.735217	0.589315
O3	O	0.995443	0.226911	0.089318
O4	O	1.495443	0.726911	0.589318
O5	O	1.129626	0.092728	0.089311
O6	O	1.629626	0.592728	0.589311
O7	O	1.137931	0.369400	0.089321
O8	O	1.637931	0.869400	0.589321
O9	O	1.139721	0.082623	-0.089331
O10	O	1.639721	0.582623	0.410669
O11	O	1.005538	0.216807	-0.089325
O12	O	1.505538	0.716807	0.410675
O13	O	1.282209	0.225112	-0.089328
O14	O	1.782209	0.725112	0.410672
Cu15	Cu	1.144795	0.220037	-0.105638
Cu16	Cu	1.644795	0.720037	0.394362
Cu17	Cu	1.132857	0.231986	0.105628
Cu18	Cu	1.632857	0.731986	0.605628
O19	O	1.148026	0.359295	-0.089322
O20	O	1.648026	0.859295	0.410678
C21	C	0.964868	0.218223	-0.000003
C22	C	1.464868	0.718223	0.499997
C23	C	0.858726	0.207379	-0.000002
C24	C	1.358726	0.707379	0.499998
C25	C	1.131038	0.052054	-0.000009
C26	C	1.631038	0.552054	0.499991
C27	C	1.120193	-0.054089	-0.000005
C28	C	1.620193	0.445911	0.499995
N29	N	1.153199	0.211632	-0.254230
N30	N	1.653199	0.711632	0.245770
C31	C	1.312784	0.233800	-0.000005
C32	C	1.812784	0.733800	0.499995
C33	C	1.418926	0.244645	0.000001
C34	C	1.918926	0.744645	0.500001
C35	C	1.613264	0.264471	0.000001
C36	C	2.113264	0.764471	0.500001
C37	C	1.664394	0.187557	-0.000002
C38	C	2.164394	0.687557	0.499998
C39	C	1.772530	0.198588	-0.000002
C40	C	2.272530	0.698588	0.499998
C41	C	1.505118	0.253441	0.000001
C42	C	2.005118	0.753441	0.500001
C43	C	1.146614	0.399969	0.000001
C44	C	1.646614	0.899969	0.500001
C45	C	1.157459	0.506112	0.000005
C46	C	1.657459	1.006112	0.500005
C47	C	1.177285	0.700450	-0.000000
C48	C	1.677285	1.200450	0.500000
C49	C	1.100371	0.751580	-0.000000
C50	C	1.600371	1.251580	0.500000
C51	C	1.111402	0.859716	-0.000003
C52	C	1.611402	1.359716	0.499997
C53	C	1.166255	0.592304	0.000002
C54	C	1.666255	1.092304	0.500002
N55	N	1.124460	0.240384	0.254220
N56	N	1.624460	0.740384	0.754220
C57	C	1.112100	0.252737	0.473336
C58	C	1.612100	0.752737	0.973336
C59	C	1.165556	0.199282	0.526661
C60	C	1.665556	0.699282	1.026661
C61	C	1.158679	0.206155	0.648584
C62	C	1.658679	0.706155	1.148584
C63	C	1.118976	0.245865	0.351401
C64	C	1.618976	0.745865	0.851401
H65	H	1.626950	0.113428	0.000074
H66	H	2.126950	0.613428	0.500074
H67	H	1.650700	0.338599	0.000005
H68	H	2.150700	0.838599	0.500005
F69	F	1.003472	0.702647	-0.000006
F70	F	1.503472	1.202647	0.499994
F71	F	1.274177	0.749382	-0.000005
F72	F	1.774177	1.249382	0.499995
H73	H	1.216486	0.148354	0.480745
H74	H	1.716486	0.648354	0.980745
F75	F	1.045531	0.319297	0.533345
F76	F	1.545531	0.819297	1.033345
