data_functionalizedCrystal
_audit_creation_method	'MofGen! by Chris Wilmer'
_symmetry_space_group_name_H-M	'P1'
_symmetry_Int_Tables_number	1
_symmetry_cell_setting	triclinic
loop_
_symmetry_equiv_pos_as_xyz
  x,y,z
_cell_length_a	23.532355
_cell_length_b	23.532407
_cell_length_c	15.072220
_cell_angle_alpha	90.014019
_cell_angle_beta	89.998161
_cell_angle_gamma	82.838088
loop_
_atom_site_label
_atom_site_type_symbol
_atom_site_fract_x
_atom_site_fract_y
_atom_site_fract_z
O1	O	0.755278	0.068998	0.073671
O2	O	1.255278	0.568998	0.573671
O3	O	0.589410	0.079032	0.073700
O4	O	1.089410	0.579032	0.573700
O5	O	0.677346	-0.008918	0.073668
O6	O	1.177346	0.491082	0.573668
O7	O	0.667342	0.156948	0.073703
O8	O	1.167342	0.656948	0.573703
O9	O	0.677340	-0.008928	-0.073897
O10	O	1.177340	0.491072	0.426103
O11	O	0.589404	0.079022	-0.073865
O12	O	1.089404	0.579022	0.426135
O13	O	0.755272	0.068988	-0.073894
O14	O	1.255272	0.568988	0.426106
Zn15	Zn	0.672337	0.074003	-0.097309
Zn16	Zn	1.172337	0.574003	0.402691
Zn17	Zn	0.672345	0.074017	0.097115
Zn18	Zn	1.172345	0.574017	0.597115
O19	O	0.667337	0.156937	-0.073862
O20	O	1.167337	0.656937	0.426138
C21	C	0.568191	0.078776	-0.000079
C22	C	1.068191	0.578776	0.499921
C23	C	0.504972	0.078022	-0.000068
C24	C	1.004972	0.578022	0.499932
C25	C	0.112955	0.073278	-0.080544
C26	C	0.612955	0.573278	0.419456
C27	C	0.053556	0.072561	-0.080548
C28	C	0.553556	0.572561	0.419452
O29	O	0.022835	0.072165	-0.148956
O30	O	0.522835	0.572165	0.351044
N31	N	0.023850	0.072211	-0.000110
N32	N	0.523850	0.572211	0.499890
C33	C	0.053548	0.072572	0.080336
C34	C	0.553548	0.572572	0.580336
O35	O	0.022827	0.072208	0.148754
O36	O	0.522827	0.572208	0.648754
C37	C	0.112947	0.073286	0.080339
C38	C	0.612947	0.573286	0.580339
C39	C	0.142649	0.073641	-0.000104
C40	C	0.642649	0.573641	0.499896
C41	C	0.142657	0.073633	-0.160980
C42	C	0.642657	0.573633	0.339020
C43	C	0.202052	0.074352	-0.160976
C44	C	0.702052	0.574352	0.339024
C45	C	0.231746	0.074715	-0.080536
C46	C	0.731746	0.574715	0.419464
C47	C	0.202044	0.074360	-0.000100
C48	C	0.702044	0.574360	0.499900
C49	C	0.142645	0.073643	0.160784
C50	C	0.642645	0.573643	0.660784
C51	C	0.202048	0.074356	0.160780
C52	C	0.702048	0.574356	0.660780
C53	C	0.231749	0.074712	0.080337
C54	C	0.731749	0.574712	0.580337
C55	C	0.291133	0.075442	0.080344
C56	C	0.791133	0.575442	0.580344
N57	N	0.320838	0.075792	-0.000094
N58	N	0.820838	0.575792	0.499906
C59	C	0.291144	0.075428	-0.080534
C60	C	0.791144	0.575428	0.419466
C61	C	-0.071193	0.071073	0.080324
C62	C	0.428807	0.571073	0.580324
C63	C	-0.130592	0.070364	0.080323
C64	C	0.369408	0.570364	0.580323
C65	C	-0.130580	0.070351	-0.080561
C66	C	0.369420	0.570351	0.419439
C67	C	-0.071181	0.071065	-0.080559
C68	C	0.428819	0.571065	0.419441
C69	C	-0.041488	0.071423	-0.000113
C70	C	0.458512	0.571423	0.499887
C71	C	0.415878	0.076938	-0.080519
C72	C	0.915878	0.576938	0.419481
C73	C	0.475279	0.077659	-0.080508
C74	C	0.975279	0.577659	0.419492
C75	C	0.475262	0.077668	0.080375
C76	C	0.975262	0.577668	0.580375
C77	C	0.415867	0.076950	0.080365
C78	C	0.915867	0.576950	0.580365
C79	C	0.386177	0.076583	-0.000090
C80	C	0.886177	0.576583	0.499910
O81	O	0.321892	0.075835	0.148717
O82	O	0.821892	0.575835	0.648717
O83	O	0.321874	0.075785	-0.148940
O84	O	0.821874	0.575785	0.351060
C85	C	0.677088	-0.030139	-0.000116
C86	C	1.177088	0.469861	0.499884
C87	C	0.676322	-0.093356	-0.000123
C88	C	1.176322	0.406644	0.499877
C89	C	0.723557	-0.492468	-0.000083
C90	C	1.223557	0.007532	0.499917
C91	C	0.722845	-0.551868	-0.000076
C92	C	1.222845	-0.051868	0.499924
O93	O	0.766632	-0.588620	-0.000051
O94	O	1.266632	-0.088620	0.499949
N95	N	0.670568	-0.574484	-0.000067
N96	N	1.170568	-0.074484	0.499933
C97	C	0.618998	-0.537697	-0.000057
C98	C	1.118998	-0.037697	0.499943
O99	O	0.574467	-0.562388	-0.000048
O100	O	1.074467	-0.062388	0.499952
C101	C	0.619710	-0.478298	-0.000057
C102	C	1.119710	0.021702	0.499943
C103	C	0.671991	-0.455685	-0.000075
C104	C	1.171991	0.044315	0.499925
C105	C	0.775834	-0.469854	-0.000100
C106	C	1.275834	0.030146	0.499900
C107	C	0.776545	-0.410458	-0.000108
C108	C	1.276545	0.089542	0.499892
C109	C	0.724979	-0.373676	-0.000100
C110	C	1.224979	0.126324	0.499900
C111	C	0.672703	-0.396289	-0.000083
C112	C	1.172703	0.103711	0.499917
C113	C	0.568141	-0.441512	-0.000040
C114	C	1.068141	0.058488	0.499960
C115	C	0.568858	-0.382110	-0.000040
C116	C	1.068858	0.117890	0.499960
C117	C	0.621139	-0.359497	-0.000057
C118	C	1.121139	0.140503	0.499943
C119	C	0.621848	-0.300110	-0.000084
C120	C	1.121848	0.199890	0.499916
N121	N	0.674126	-0.277494	-0.000092
N122	N	1.174126	0.222506	0.499908
C123	C	0.725691	-0.314277	-0.000100
C124	C	1.225691	0.185723	0.499900
C125	C	0.617507	-0.662439	-0.000054
C126	C	1.117507	-0.162439	0.499946
C127	C	0.616794	-0.721837	-0.000060
C128	C	1.116794	-0.221837	0.499940
C129	C	0.720642	-0.736004	-0.000078
C130	C	1.220642	-0.236004	0.499922
C131	C	0.721354	-0.676605	-0.000078
C132	C	1.221354	-0.176605	0.499922
C133	C	0.669784	-0.639823	-0.000063
C134	C	1.169784	-0.139823	0.499937
C135	C	0.727181	-0.189540	-0.000119
C136	C	1.227181	0.310460	0.499881
C137	C	0.727888	-0.130138	-0.000131
C138	C	1.227888	0.369862	0.499869
C139	C	0.624041	-0.115977	-0.000109
C140	C	1.124041	0.384023	0.499891
C141	C	0.623334	-0.175373	-0.000101
C142	C	1.123334	0.324627	0.499899
C143	C	0.674909	-0.212154	-0.000103
C144	C	1.174909	0.287846	0.499897
O145	O	0.578084	-0.263323	-0.000105
O146	O	1.078084	0.236677	0.499895
O147	O	0.770216	-0.289577	-0.000098
O148	O	1.270216	0.210423	0.499902
C149	C	0.776492	0.069244	-0.000113
C150	C	1.276492	0.569244	0.499887
C151	C	0.839710	0.069998	-0.000118
C152	C	1.339710	0.569998	0.499882
C153	C	0.667594	0.178158	-0.000076
C154	C	1.167594	0.678158	0.499924
C155	C	0.668360	0.241375	-0.000063
C156	C	1.168360	0.741375	0.499937
N157	N	0.672336	0.073993	-0.229998
N158	N	1.172336	0.573993	0.270002
C159	C	0.672345	0.074012	-0.589199
C160	C	1.172345	0.574012	-0.089199
C161	C	0.719549	0.027108	-0.551582
C162	C	1.219549	0.527108	-0.051582
C163	C	0.719427	0.026936	-0.448756
C164	C	1.219427	0.526936	0.051244
C165	C	0.672341	0.074003	-0.410995
C166	C	1.172341	0.574003	0.089005
C167	C	0.612994	0.061372	-0.448331
C168	C	1.112994	0.561372	0.051669
C169	C	0.613274	0.061041	-0.551188
C170	C	1.113274	0.561041	-0.051188
C171	C	0.683953	0.133689	-0.551266
C172	C	1.183953	0.633689	-0.051266
C173	C	0.685304	0.133281	-0.448402
C174	C	1.185304	0.633281	0.051598
C175	C	0.672335	0.073999	-0.310282
C176	C	1.172335	0.573999	0.189718
C177	C	0.672347	0.074015	-0.689912
C178	C	1.172347	0.574015	-0.189912
N179	N	0.672350	0.074022	0.229803
N180	N	1.172350	0.574022	0.729803
H181	H	0.226230	0.074638	-0.226481
H182	H	0.726230	0.574638	0.273519
H183	H	0.391711	0.076644	-0.146033
H184	H	0.891711	0.576644	0.353967
H185	H	0.770463	-0.111731	-0.000148
H186	H	1.270463	0.388269	0.499852
O187	O	0.599028	0.004394	-0.414236
O188	O	1.099028	0.504394	0.085764
H189	H	0.556971	-0.004057	-0.441089
H190	H	1.056971	0.495943	0.058911
O191	O	-0.162672	0.070053	-0.167284
O192	O	0.337328	0.570053	0.332716
H193	H	-0.184480	0.030936	-0.171200
H194	H	0.315520	0.530936	0.328800
H195	H	-0.154771	0.070083	0.145827
H196	H	0.345229	0.570083	0.645827
H197	H	0.726285	0.145915	-0.577205
H198	H	1.226285	0.645915	-0.077205
O199	O	-0.039169	0.071471	0.167095
O200	O	0.460831	0.571471	0.667095
H201	H	-0.069809	0.071114	0.223021
H202	H	0.430191	0.571114	0.723021
O203	O	0.642673	0.181649	-0.414377
O204	O	1.142673	0.681649	0.085623
H205	H	0.611439	0.164115	-0.370079
H206	H	1.111439	0.664115	0.129921
H207	H	0.728960	0.142873	-0.424001
H208	H	1.228960	0.642873	0.075999
O209	O	0.777742	-0.652217	-0.000091
O210	O	1.277742	-0.152217	0.499909
H211	H	0.780552	-0.625483	0.060052
H212	H	1.280552	-0.125483	0.560052
H213	H	0.712046	-0.017358	-0.424166
H214	H	1.212046	0.482642	0.075834
O215	O	0.383826	0.076575	0.167126
O216	O	0.883826	0.576575	0.667126
H217	H	0.362066	0.037425	0.170961
H218	H	0.862066	0.537425	0.670961
H219	H	0.118487	0.073336	-0.226488
H220	H	0.618487	0.573336	0.273512
H221	H	0.602993	0.017530	-0.575195
H222	H	1.102993	0.517530	-0.075195
H223	H	0.819117	-0.392053	-0.000119
H224	H	1.319117	0.107947	0.499881
O225	O	0.507314	0.078052	-0.167274
O226	O	1.007314	0.578052	0.332726
H227	H	0.476684	0.077677	-0.223207
H228	H	0.976684	0.577677	0.276793
O229	O	-0.039147	0.071451	-0.167320
O230	O	0.460853	0.571451	0.332680
H231	H	-0.069780	0.071079	-0.223250
H232	H	0.430220	0.571079	0.276750
O233	O	0.110621	0.073230	0.247548
O234	O	0.610621	0.573230	0.747548
H235	H	0.141260	0.073585	0.303474
H236	H	0.641260	0.573585	0.803474
H237	H	0.577111	0.093923	-0.576073
H238	H	1.077111	0.593923	-0.076073
H239	H	0.817827	-0.499797	-0.000103
H240	H	1.317827	0.000203	0.499897
H241	H	0.649527	0.168590	-0.575596
H242	H	1.149527	0.668590	-0.075596
H243	H	0.762629	-0.765963	-0.000081
H244	H	1.262629	-0.265963	0.499919
H245	H	0.499449	0.077967	0.145867
H246	H	0.999449	0.577967	0.645867
O247	O	0.234075	0.074747	0.247547
O248	O	0.734075	0.574747	0.747547
H249	H	0.203437	0.074385	0.303477
H250	H	0.703437	0.574385	0.803477
H251	H	0.769178	-0.219481	-0.000117
H252	H	1.269178	0.280519	0.499883
H253	H	0.574222	-0.740243	-0.000061
H254	H	1.074222	-0.240243	0.499939
O255	O	0.565360	0.105439	-0.415941
O256	O	1.065360	0.605439	0.084059
H257	H	0.563792	0.104478	-0.342362
H258	H	1.063792	0.604478	0.157638
O259	O	0.561883	-0.622767	-0.000061
O260	O	1.061883	-0.122767	0.499939
H261	H	0.525415	-0.648478	-0.000066
H262	H	1.025415	-0.148478	0.499934
O263	O	0.709922	-0.031236	-0.585834
O264	O	1.209922	0.468764	-0.085834
H265	H	0.667096	-0.041052	-0.564341
H266	H	1.167096	0.458948	-0.064341
H267	H	0.525569	-0.459912	-0.000020
H268	H	1.025569	0.040088	0.499980
H269	H	0.582057	-0.086018	-0.000105
H270	H	1.082057	0.413982	0.499895
O271	O	0.513236	-0.342436	-0.000034
O272	O	1.013236	0.157564	0.499966
H273	H	0.476767	-0.368144	-0.000030
H274	H	0.976767	0.131856	0.499970
O275	O	0.777877	0.036832	-0.415315
O276	O	1.277877	0.536832	0.084685
H277	H	0.777848	0.036721	-0.341674
H278	H	1.277848	0.536721	0.158326
O279	O	0.566947	-0.199769	-0.000085
O280	O	1.066947	0.300231	0.499915
H281	H	0.531211	-0.164210	-0.000077
H282	H	1.031211	0.335790	0.499923
H283	H	0.763824	0.034452	-0.576317
H284	H	1.263824	0.534452	-0.076317
