data_functionalizedCrystal
_audit_creation_method	'MofGen! by Chris Wilmer'
_symmetry_space_group_name_H-M	'P1'
_symmetry_Int_Tables_number	1
_symmetry_cell_setting	triclinic
loop_
_symmetry_equiv_pos_as_xyz
  x,y,z
_cell_length_a	9.130313
_cell_length_b	10.654543
_cell_length_c	10.654550
_cell_angle_alpha	84.483552
_cell_angle_beta	90.006312
_cell_angle_gamma	89.999901
loop_
_atom_site_label
_atom_site_type_symbol
_atom_site_fract_x
_atom_site_fract_y
_atom_site_fract_z
O1	O	-0.121641	-1.667846	-0.176362
O2	O	-0.121679	-1.302366	-0.193177
O3	O	-0.121650	-1.493509	-0.002030
O4	O	-0.121670	-1.476703	-0.367509
O5	O	0.121949	-1.493493	-0.002017
O6	O	0.121920	-1.302350	-0.193164
O7	O	0.121957	-1.667830	-0.176349
Cu8	Cu	0.144181	-1.485088	-0.184756
Cu9	Cu	-0.143903	-1.485108	-0.184770
O10	O	0.121929	-1.476687	-0.367496
C11	C	0.000116	-1.255560	-0.191938
C12	C	0.000102	-1.116116	-0.188249
N13	N	0.346804	-1.485084	-0.184745
N14	N	-0.346525	-1.485122	-0.184772
C15	C	0.000098	-1.036631	-0.300793
C16	C	0.000120	-0.905609	-0.297319
C17	C	0.000144	-0.933573	-0.068749
C18	C	0.000132	-1.064591	-0.072224
C19	C	0.576846	-1.408285	-0.107886
C20	C	0.423510	-1.408269	-0.107869
C21	C	0.423443	-1.561929	-0.261633
C22	C	0.576777	-1.561951	-0.261643
C23	C	0.000148	-1.492267	0.044774
C24	C	0.000146	-1.488575	0.184217
C25	C	0.000152	-0.714635	-0.177595
C26	C	0.000135	-0.854077	-0.181301
C27	C	0.000127	-1.477929	-0.414300
C28	C	0.000120	-1.481621	-0.553744
C29	C	0.000157	-1.601117	0.263706
C30	C	0.000139	-1.597641	0.394726
C31	C	0.000105	-1.369070	0.366758
C32	C	0.000112	-1.372548	0.235740
H33	H	0.000119	-0.840896	-0.388964
C34	C	-0.000149	-1.092400	-0.426849
C35	C	-0.125456	-1.052056	-0.494970
C36	C	-0.125719	-1.103386	-0.611109
H37	H	-0.000233	-1.181812	-0.412986
H38	H	0.084755	-1.065152	-0.473298
H39	H	-0.210339	-1.079311	-0.448531
H40	H	-0.125399	-0.962651	-0.508868
H41	H	-0.040815	-1.076138	-0.657558
H42	H	-0.125800	-1.192796	-0.597233
H43	H	-0.210731	-1.076011	-0.657348
C44	C	0.340353	-1.645246	-0.345308
C45	C	0.377661	-1.611721	-0.471544
C46	C	0.301166	-1.688453	-0.548665
H47	H	0.238035	-1.634298	-0.334463
H48	H	0.365498	-1.730994	-0.322848
H49	H	0.352507	-1.525993	-0.493997
H50	H	0.479966	-1.622675	-0.482429
H51	H	0.326311	-1.774202	-0.526205
H52	H	0.198852	-1.677499	-0.537809
H53	H	0.326479	-1.665725	-0.634323
H54	H	0.000144	-1.689284	0.459442
H55	H	0.000140	-1.129313	0.019428
C56	C	0.659796	-1.645588	-0.345042
C57	C	0.622451	-1.771831	-0.311589
C58	C	0.698883	-1.848911	-0.388391
H59	H	0.762122	-1.634769	-0.334106
H60	H	0.634624	-1.623069	-0.430776
H61	H	0.647633	-1.794342	-0.225875
H62	H	0.520138	-1.782690	-0.322530
H63	H	0.673712	-1.826393	-0.474125
H64	H	0.801206	-1.838081	-0.377449
H65	H	0.673546	-1.934574	-0.365711
C66	C	-0.000071	-0.877797	0.057304
C67	C	-0.125376	-0.918123	0.125413
C68	C	-0.125620	-0.866785	0.241547
H69	H	-0.000145	-0.788385	0.043434
H70	H	0.084835	-0.905051	0.103765
H71	H	-0.210260	-0.890862	0.078962
H72	H	-0.125328	-1.007528	0.139316
H73	H	-0.040714	-0.894039	0.288008
H74	H	-0.125690	-0.777375	0.227665
H75	H	-0.210630	-0.894148	0.287778
H76	H	0.639289	-1.345727	-0.045292
H77	H	0.361125	-1.345702	-0.045260
H78	H	0.000181	-1.695593	0.221761
H79	H	0.000080	-1.274605	0.408724
H80	H	0.000099	-1.280897	0.171016
