data_functionalizedCrystal
_audit_creation_method	'MofGen! by Chris Wilmer'
_symmetry_space_group_name_H-M	'P1'
_symmetry_Int_Tables_number	1
_symmetry_cell_setting	triclinic
loop_
_symmetry_equiv_pos_as_xyz
  x,y,z
_cell_length_a	23.532407
_cell_length_b	23.532407
_cell_length_c	16.098538
_cell_angle_alpha	92.700973
_cell_angle_beta	87.281199
_cell_angle_gamma	82.848712
loop_
_atom_site_label
_atom_site_type_symbol
_atom_site_fract_x
_atom_site_fract_y
_atom_site_fract_z
O1	O	0.757822	0.066577	-0.069212
O2	O	0.591959	0.076580	-0.069226
O3	O	0.679892	-0.011353	-0.069203
O4	O	0.669890	0.154510	-0.069234
O5	O	0.674755	-0.006236	0.069309
O6	O	0.586823	0.081696	0.069286
O7	O	0.752686	0.071694	0.069300
Zn8	Zn	0.668939	0.077507	0.091285
Zn9	Zn	0.675706	0.070766	-0.091210
O10	O	0.664753	0.159626	0.069277
C11	C	0.568175	0.078883	0.000028
C12	C	0.504958	0.078117	0.000023
C13	C	0.677069	-0.030010	0.000055
C14	C	0.676303	-0.093227	0.000061
C15	C	0.238790	0.022923	0.000057
C16	C	0.298190	0.023635	0.000056
O17	O	0.334933	-0.020150	0.000093
N18	N	0.320817	0.075910	0.000041
C19	C	0.284039	0.127478	0.000034
O20	O	0.308740	0.172008	0.000021
C21	C	0.224640	0.126766	0.000040
C22	C	0.202017	0.074487	0.000047
C23	C	0.216166	-0.029352	0.000065
C24	C	0.156770	-0.030063	0.000063
C25	C	0.119997	0.021501	0.000054
C26	C	0.142621	0.073776	0.000046
C27	C	0.187864	0.178334	0.000039
C28	C	0.128461	0.177618	0.000046
C29	C	0.105838	0.125338	0.000053
C30	C	0.046452	0.124628	0.000036
N31	N	0.023826	0.072353	0.000051
C32	C	0.060598	0.020789	0.000060
C33	C	0.408782	0.128969	0.000022
C34	C	0.468181	0.129681	0.000010
C35	C	0.482327	0.025837	0.000034
C36	C	0.422928	0.025126	0.000040
C37	C	0.386156	0.076693	0.000038
C38	C	-0.064138	0.019299	0.000057
C39	C	-0.123540	0.018592	0.000053
C40	C	-0.137682	0.122436	0.000033
C41	C	-0.078285	0.123143	0.000033
C42	C	-0.041514	0.071570	0.000048
O43	O	0.009675	0.168390	0.000002
O44	O	0.035889	-0.023733	0.000084
C45	C	0.723538	-0.492332	0.000020
C46	C	0.722826	-0.551732	0.000013
O47	O	0.766613	-0.588478	-0.000014
N48	N	0.670550	-0.574358	0.000009
C49	C	0.618982	-0.537581	0.000003
O50	O	0.574452	-0.562281	-0.000001
C51	C	0.619694	-0.478182	0.000004
C52	C	0.671974	-0.455559	0.000016
C53	C	0.775813	-0.469708	0.000031
C54	C	0.776524	-0.410311	0.000039
C55	C	0.724960	-0.373539	0.000035
C56	C	0.672685	-0.396162	0.000024
C57	C	0.568127	-0.441406	-0.000008
C58	C	0.568844	-0.382004	-0.000008
C59	C	0.621123	-0.359380	0.000004
C60	C	0.621831	-0.299993	0.000028
N61	N	0.674108	-0.277367	0.000032
C62	C	0.725672	-0.314140	0.000036
C63	C	0.617491	-0.662324	0.000001
C64	C	0.616778	-0.721721	0.000006
C65	C	0.720623	-0.735868	0.000015
C66	C	0.721335	-0.676469	0.000015
C67	C	0.669767	-0.639697	0.000005
C68	C	0.727161	-0.189402	0.000053
C69	C	0.727867	-0.130000	0.000065
C70	C	0.624023	-0.115858	0.000052
C71	C	0.623316	-0.175255	0.000045
C72	C	0.674890	-0.212027	0.000043
O73	O	0.578068	-0.263213	0.000052
O74	O	0.770195	-0.289432	0.000030
C75	C	0.776470	0.069390	0.000044
C76	C	0.839687	0.070156	0.000043
C77	C	0.667576	0.178284	0.000017
C78	C	0.668343	0.241500	0.000006
N79	N	0.664324	0.082108	0.215833
N80	N	0.680325	0.066161	-0.215758
C81	C	0.701660	0.044799	0.259427
C82	C	0.698437	0.048022	0.346615
C83	C	0.657881	0.088558	0.390207
C84	C	0.620542	0.125869	0.346606
C85	C	0.623762	0.122642	0.259420
C86	C	0.646206	0.100245	0.653454
C87	C	0.642990	0.103470	0.740647
C88	C	0.720885	0.025623	0.740650
C89	C	0.724104	0.022402	0.653462
C90	C	0.686763	0.059711	0.609868
C91	C	0.654587	0.091855	0.479327
C92	C	0.690054	0.056410	0.520750
H93	H	-0.141956	-0.023982	0.000056
H94	H	0.621566	0.124861	0.514827
N95	N	-0.026592	-0.033386	0.000078
N96	N	-0.046810	-0.080052	0.000087
H97	H	-0.020293	-0.117262	0.000099
N98	N	0.516168	-0.344442	-0.000036
N99	N	0.483495	-0.348491	-0.058434
H100	H	0.446294	-0.321963	-0.058455
H101	H	0.580745	-0.193675	0.000058
N102	N	0.133677	-0.083472	0.000090
N103	N	0.142898	-0.115993	0.058489
H104	H	0.126594	-0.153716	0.058512
N105	N	0.253715	-0.082033	0.000079
N106	N	0.233495	-0.128699	0.000089
H107	H	0.260010	-0.165909	0.000095
N108	N	0.601563	0.144877	0.785184
N109	N	0.617631	0.181940	0.833816
H110	H	0.588375	0.211183	0.865271
N111	N	0.399831	-0.028281	0.000063
N112	N	0.409050	-0.060807	0.058457
H113	H	0.392742	-0.098528	0.058476
N114	N	0.608058	0.138356	0.608945
N115	N	0.571851	0.174544	0.647879
H116	H	0.544906	0.201462	0.616443
N117	N	0.563370	-0.744816	0.000013
N118	N	0.517338	-0.711970	0.000015
H119	H	0.479616	-0.728278	0.000017
H120	H	0.512279	-0.016149	0.000041
N121	N	0.579113	0.167268	0.391144
N122	N	0.576243	0.170144	0.468988
H123	H	0.546984	0.199384	0.500444
H124	H	0.575496	-0.632386	-0.000000
H125	H	-0.059865	0.165713	0.000027
H126	H	0.206273	0.220905	0.000030
N127	N	0.731452	0.014971	0.476239
N128	N	0.764766	-0.018362	0.515168
H129	H	0.793992	-0.047641	0.483726
H130	H	0.728838	0.017642	0.382110
N131	N	0.765620	-0.018963	0.609028
N132	N	0.764890	-0.071255	0.618787
H133	H	0.794247	-0.100450	0.587436
N134	N	0.371222	0.181647	-0.000007
N135	N	0.338661	0.190680	-0.058394
H136	H	0.312136	0.227884	-0.058414
N137	N	0.090901	0.230294	0.000024
N138	N	0.058342	0.239329	-0.058366
H139	H	0.031816	0.276532	-0.058385
H140	H	0.763905	-0.658054	0.000025
N141	N	0.491275	0.183089	0.000002
N142	N	0.477734	0.219930	0.058381
H143	H	0.494041	0.257652	0.058381
H144	H	-0.167632	0.164418	0.000021
N145	N	0.781276	-0.106901	0.000084
N146	N	0.827310	-0.139745	0.000087
H147	H	0.865030	-0.123434	0.000100
H148	H	0.582041	-0.085907	0.000052
N149	N	0.779846	-0.226949	0.000049
N150	N	0.826513	-0.206732	0.000059
H151	H	0.863722	-0.233249	0.000060
N152	N	0.514730	-0.464515	-0.000035
N153	N	0.514090	-0.517549	-0.000045
H154	H	0.476375	-0.533870	-0.000066
N155	N	0.829931	-0.387217	0.000048
N156	N	0.875963	-0.420066	0.000048
H157	H	0.913685	-0.403759	0.000052
H158	H	0.734687	0.011793	0.223941
N159	N	0.828495	-0.507257	0.000029
N160	N	0.875160	-0.487038	0.000036
H161	H	0.912371	-0.513553	0.000040
H162	H	0.593359	0.153022	0.223926
H163	H	0.751286	-0.004753	0.776151
N164	N	0.773302	-0.773428	0.000019
N165	N	0.805984	-0.769385	0.058407
H166	H	0.843187	-0.795911	0.058411
