data_functionalizedCrystal
_audit_creation_method	'MofGen! by Chris Wilmer'
_symmetry_space_group_name_H-M	'P1'
_symmetry_Int_Tables_number	1
_symmetry_cell_setting	triclinic
loop_
_symmetry_equiv_pos_as_xyz
  x,y,z
_cell_length_a	27.732048
_cell_length_b	27.732048
_cell_length_c	26.809956
_cell_angle_alpha	89.999364
_cell_angle_beta	89.996742
_cell_angle_gamma	82.642655
loop_
_atom_site_label
_atom_site_type_symbol
_atom_site_fract_x
_atom_site_fract_y
_atom_site_fract_z
O1	O	0.640931	0.057510	-0.041421
O2	O	0.500138	0.066256	-0.041436
O3	O	0.574907	-0.008514	-0.041419
O4	O	0.566162	0.132280	-0.041439
O5	O	0.574893	-0.008502	0.041541
O6	O	0.500123	0.066267	0.041523
O7	O	0.640917	0.057522	0.041539
Zn8	Zn	0.570518	0.061896	0.054702
Zn9	Zn	0.570536	0.061881	-0.054600
O10	O	0.566147	0.132291	0.041521
C11	C	0.482124	0.066078	0.000041
C12	C	0.428469	0.065525	0.000036
C13	C	0.089654	0.106229	0.000051
C14	C	-0.112006	0.104178	0.000056
O15	O	-0.143262	0.141398	0.000073
N16	N	-0.131130	0.059843	0.000062
C17	C	-0.099835	0.016017	0.000069
O18	O	-0.120728	-0.021740	0.000079
C19	C	0.101824	0.018068	0.000068
C20	C	0.120944	0.062407	0.000057
C21	C	0.108775	0.150563	0.000042
C22	C	0.159187	0.151076	0.000038
C23	C	0.190477	0.107253	0.000044
C24	C	0.171356	0.062919	0.000054
C25	C	0.133117	-0.025757	0.000079
C26	C	0.183535	-0.025240	0.000080
C27	C	0.202655	0.019098	0.000069
C28	C	0.253059	0.019609	0.000056
N29	N	0.272183	0.063944	0.000050
C30	C	0.240892	0.107766	0.000044
C31	C	-0.205709	0.014943	0.000069
C32	C	-0.256124	0.014430	0.000068
C33	C	-0.268291	0.102591	0.000056
C34	C	-0.217876	0.103104	0.000053
C35	C	-0.186585	0.059278	0.000063
C36	C	0.346761	0.108839	0.000036
C37	C	0.397178	0.109347	0.000030
C38	C	0.409341	0.021186	0.000044
C39	C	0.358929	0.020678	0.000048
C40	C	0.327639	0.064508	0.000045
O41	O	0.284343	-0.017592	0.000045
O42	O	0.261794	0.145518	0.000045
C43	C	0.039242	0.105716	0.000055
C44	C	0.020120	0.061382	0.000065
C45	C	0.051411	0.017560	0.000071
C46	C	-0.030294	0.060869	0.000065
C47	C	-0.061585	0.104691	0.000059
C48	C	-0.042461	0.149026	0.000053
C49	C	0.007951	0.149539	0.000049
C50	C	0.032287	-0.026775	0.000077
C51	C	-0.018125	-0.027284	0.000080
C52	C	-0.049416	0.016538	0.000074
C53	C	0.574716	-0.026515	0.000062
C54	C	0.574164	-0.080170	0.000066
C55	C	0.614867	-0.418985	0.000045
C56	C	0.612816	-0.620645	0.000038
O57	O	0.650037	-0.651900	0.000021
N58	N	0.568481	-0.639768	0.000034
C59	C	0.524656	-0.608474	0.000028
O60	O	0.486899	-0.629367	0.000019
C61	C	0.526707	-0.406815	0.000031
C62	C	0.571045	-0.387694	0.000041
C63	C	0.659202	-0.399864	0.000054
C64	C	0.659714	-0.349452	0.000059
C65	C	0.615892	-0.318161	0.000054
C66	C	0.571557	-0.337282	0.000045
C67	C	0.482882	-0.375521	0.000022
C68	C	0.483399	-0.325104	0.000021
C69	C	0.527737	-0.305983	0.000031
C70	C	0.528247	-0.255580	0.000045
N71	N	0.572583	-0.236456	0.000050
C72	C	0.616405	-0.267747	0.000054
C73	C	0.523582	-0.714348	0.000027
C74	C	0.523069	-0.764762	0.000027
C75	C	0.611230	-0.776930	0.000036
C76	C	0.611742	-0.726514	0.000040
C77	C	0.567917	-0.695224	0.000031
C78	C	0.617477	-0.161878	0.000064
C79	C	0.617986	-0.111461	0.000071
C80	C	0.529825	-0.099298	0.000059
C81	C	0.529316	-0.149710	0.000055
C82	C	0.573147	-0.180999	0.000056
O83	O	0.491047	-0.224296	0.000057
O84	O	0.654156	-0.246844	0.000053
C85	C	0.614355	-0.469397	0.000041
C86	C	0.570021	-0.488518	0.000032
C87	C	0.526198	-0.457228	0.000027
C88	C	0.569508	-0.538933	0.000032
C89	C	0.613330	-0.570223	0.000036
C90	C	0.657665	-0.551100	0.000041
C91	C	0.658177	-0.500688	0.000045
C92	C	0.481863	-0.476351	0.000023
C93	C	0.481355	-0.526764	0.000019
C94	C	0.525177	-0.558054	0.000023
C95	C	0.658931	0.057699	0.000060
C96	C	0.712586	0.058252	0.000062
C97	C	0.566338	0.150292	0.000039
C98	C	0.566891	0.203947	0.000031
N99	N	0.570509	0.061906	0.129298
N100	N	0.570549	0.061867	-0.129196
C101	C	0.603640	0.028781	0.473932
C102	C	0.603652	0.028774	0.682810
O103	O	0.631801	0.000613	0.709820
N104	N	0.570539	0.061870	0.708925
C105	C	0.537419	0.094969	0.682818
O106	O	0.509252	0.123116	0.709824
C107	C	0.537406	0.094974	0.473941
C108	C	0.570524	0.061878	0.447829
C109	C	0.636755	-0.004312	0.447819
C110	C	0.636754	-0.004308	0.395603
C111	C	0.603637	0.028789	0.369500
C112	C	0.570522	0.061882	0.395612
C113	C	0.504284	0.128070	0.447835
C114	C	0.504283	0.128067	0.395613
C115	C	0.537401	0.094972	0.369500
C116	C	0.537405	0.094983	0.317293
N117	N	0.570517	0.061887	0.291177
C118	C	0.603633	0.028790	0.317281
C119	C	0.537429	0.094965	0.792481
C120	C	0.537433	0.094964	0.844700
C121	C	0.603665	0.028768	0.844689
C122	C	0.603663	0.028772	0.792469
C123	C	0.570542	0.061868	0.766366
C124	C	0.603628	0.028801	0.207623
C125	C	0.603625	0.028809	0.155402
C126	C	0.537392	0.095003	0.155418
C127	C	0.537396	0.094997	0.207635
C128	C	0.570516	0.061892	0.233735
O129	O	0.509266	0.123126	0.290250
O130	O	0.631789	0.000640	0.290266
C131	C	0.603642	0.028777	0.526149
C132	C	0.570527	0.061870	0.552261
C133	C	0.537410	0.094968	0.526158
C134	C	0.570531	0.061870	0.604480
C135	C	0.603647	0.028773	0.630584
C136	C	0.636759	-0.004324	0.604468
C137	C	0.636758	-0.004320	0.552252
C138	C	0.504298	0.128064	0.552273
C139	C	0.504303	0.128058	0.604489
C140	C	0.537419	0.094961	0.630593
H141	H	0.083302	0.186251	0.000038
O142	O	0.468582	0.163766	0.632643
H143	H	0.445239	0.143585	0.656438
O144	O	0.659566	-0.705897	0.000043
H145	H	0.661909	-0.683221	0.033857
H146	H	0.630630	0.001820	0.865951
O147	O	-0.171963	-0.032329	0.000080
H148	H	-0.178719	-0.053565	-0.033732
O149	O	0.468550	0.163760	0.367462
H150	H	0.474104	0.158200	0.326763
O151	O	0.434596	-0.442604	0.000027
H152	H	0.403684	-0.464377	0.000029
H153	H	0.663720	-0.031258	0.374345
O154	O	0.501719	0.130673	0.872854
H155	H	0.478377	0.110495	0.896653
H156	H	0.510457	0.121917	0.771232
O157	O	0.704932	-0.584853	0.000046
H158	H	0.697122	-0.623120	0.000038
O159	O	0.639376	-0.006935	0.764312
H160	H	0.619199	-0.030288	0.740528
H161	H	-0.271687	-0.021674	0.000069
O162	O	0.705999	-0.480067	0.000046
H163	H	0.736381	-0.510301	0.000042
O164	O	0.112501	-0.073579	0.000101
H165	H	0.142736	-0.103960	0.000114
O166	O	0.217285	-0.072509	0.000089
H167	H	0.195515	-0.103423	0.000093
O168	O	0.433530	-0.547385	0.000010
H169	H	0.403146	-0.517152	0.000003
H170	H	0.446777	-0.391080	0.000011
H171	H	0.630595	0.001859	0.134142
O172	O	-0.038745	-0.075109	0.000090
H173	H	-0.061424	-0.077443	0.033905
H174	H	0.487892	-0.688875	0.000020
O175	O	0.482561	-0.065544	0.000056
H176	H	0.480694	-0.042286	-0.033759
H177	H	-0.202311	0.139207	0.000047
H178	H	0.663722	-0.031266	0.469068
O179	O	0.468581	0.163783	0.475993
H180	H	0.445559	0.186796	0.449060
O181	O	0.436128	-0.291356	0.000019
H182	H	0.414897	-0.298116	-0.033795
H183	H	0.343360	-0.015426	0.000049
H184	H	0.646911	-0.802415	0.000040
H185	H	0.023514	0.185643	0.000042
H186	H	0.510433	0.121951	0.228896
H187	H	0.477330	0.155015	0.531024
O188	O	0.066032	-0.074045	0.000085
H189	H	0.089294	-0.075926	-0.033728
H190	H	0.630597	0.001843	0.228868
O191	O	0.443094	-0.026078	0.000058
H192	H	0.481361	-0.018269	0.000062
H193	H	0.412743	0.145454	0.000021
O194	O	0.665811	-0.090841	0.000080
H195	H	0.658809	-0.050527	0.000087
O196	O	0.664750	-0.195622	0.000073
H197	H	0.695660	-0.173849	0.000086
H198	H	0.510430	0.121952	0.134157
O199	O	0.672473	-0.040020	0.524090
H200	H	0.695495	-0.063035	0.551021
O201	O	-0.076219	0.196291	0.000051
H202	H	-0.069469	0.217525	-0.033766
O203	O	0.672478	-0.040024	0.632627
H204	H	0.666908	-0.034465	0.673324
H205	H	0.321291	0.144530	0.000035
O206	O	0.481497	-0.170338	0.000046
H207	H	0.451111	-0.140108	0.000042
H208	H	-0.293777	0.138273	0.000051
O209	O	0.179803	0.198900	0.000041
H210	H	0.167205	0.219940	-0.033769
O211	O	0.707538	-0.328836	0.000055
H212	H	0.728577	-0.341436	0.033865
O213	O	0.706471	-0.433610	0.000066
H214	H	0.737381	-0.411835	0.000078
O215	O	0.475247	-0.785384	0.000023
H216	H	0.444864	-0.755151	0.000015
