data_functionalizedCrystal
_audit_creation_method	'MofGen! by Chris Wilmer'
_symmetry_space_group_name_H-M	'P1'
_symmetry_Int_Tables_number	1
_symmetry_cell_setting	triclinic
loop_
_symmetry_equiv_pos_as_xyz
  x,y,z
_cell_length_a	12.759401
_cell_length_b	13.897448
_cell_length_c	12.759393
_cell_angle_alpha	89.967728
_cell_angle_beta	89.980324
_cell_angle_gamma	90.018119
loop_
_atom_site_label
_atom_site_type_symbol
_atom_site_fract_x
_atom_site_fract_y
_atom_site_fract_z
Zn1	Zn	1.606244	-0.383957	-0.593972
Zn2	Zn	1.606126	-0.545284	-0.418286
Zn3	Zn	1.430543	-0.384005	-0.418311
Zn4	Zn	1.430526	-0.545213	-0.593928
O5	O	1.518360	-0.464615	-0.506124
O6	O	1.753250	-0.405367	-0.570675
O7	O	1.582793	-0.523939	-0.271269
O8	O	1.453907	-0.249017	-0.441641
O9	O	1.753163	-0.523893	-0.441600
O10	O	1.582994	-0.248982	-0.570699
O11	O	1.453793	-0.405449	-0.271286
O12	O	1.283520	-0.405381	-0.441598
O13	O	1.453878	-0.523773	-0.740955
O14	O	1.283507	-0.523819	-0.570623
O15	O	1.582977	-0.405299	-0.740987
O16	O	1.582776	-0.680256	-0.441557
O17	O	1.453763	-0.680204	-0.570600
C18	C	1.245393	-0.464598	-0.506109
C19	C	1.128616	-0.464614	-0.506128
C20	C	1.073800	-0.403010	-0.573441
C21	C	0.964076	-0.403019	-0.573448
C22	C	0.963994	-0.526247	-0.438826
C23	C	1.073716	-0.526232	-0.438814
C24	C	1.518283	-0.715229	-0.506094
C25	C	1.518347	-0.822443	-0.506116
C26	C	1.518457	-1.018738	-0.506182
C27	C	1.518393	-0.909506	-0.506148
C28	C	1.792393	-0.464632	-0.506140
C29	C	1.909170	-0.464640	-0.506146
C30	C	1.518439	-0.464522	-0.780158
C31	C	1.518472	-0.464483	-0.896934
C32	C	1.518466	-0.213022	-0.506178
C33	C	1.518511	-0.105808	-0.506200
C34	C	1.585699	-0.402784	-0.951815
C35	C	1.585717	-0.402742	-1.061539
C36	C	1.451278	-0.526107	-1.061492
C37	C	1.451255	-0.526143	-0.951770
C38	C	1.518342	-0.464638	-0.233157
C39	C	1.518512	-0.464405	-0.116381
H40	H	1.118496	-0.352834	-0.628249
H41	H	1.640459	-0.352499	-1.106218
Cl42	Cl	1.142633	-0.603675	-0.354174
Cl43	Cl	1.670196	-0.325264	-0.882882
Cl44	Cl	1.366787	-0.603624	-1.130436
H45	H	0.919449	-0.352853	-0.628259
Cl46	Cl	0.894969	-0.603708	-0.354212
Cl47	Cl	1.366728	-0.603709	-0.882772
