data_functionalizedCrystal
_audit_creation_method	'MofGen! by Chris Wilmer'
_symmetry_space_group_name_H-M	'P1'
_symmetry_Int_Tables_number	1
_symmetry_cell_setting	triclinic
loop_
_symmetry_equiv_pos_as_xyz
  x,y,z
_cell_length_a	14.519709
_cell_length_b	18.266242
_cell_length_c	14.519709
_cell_angle_alpha	90.007285
_cell_angle_beta	83.680145
_cell_angle_gamma	90.003418
loop_
_atom_site_label
_atom_site_type_symbol
_atom_site_fract_x
_atom_site_fract_y
_atom_site_fract_z
O1	O	1.223873	0.060787	0.120893
O2	O	0.955396	0.060810	0.135129
O3	O	1.096753	0.060791	-0.006228
O4	O	1.082517	0.060806	0.262249
O5	O	1.096729	-0.060971	-0.006235
O6	O	0.955372	-0.060952	0.135122
O7	O	1.223849	-0.060975	0.120885
Zn8	Zn	1.089607	-0.080296	0.128002
Zn9	Zn	1.089639	0.080131	0.128012
O10	O	1.082493	-0.060956	0.262242
C11	C	0.921025	-0.000068	0.134462
C12	C	0.818643	-0.000060	0.132474
N13	N	1.089592	-0.189783	0.127995
C14	C	0.443748	-0.000094	0.125154
C15	C	0.548056	-0.000084	0.127187
C16	C	0.631192	-0.000076	0.128814
C17	C	0.735507	-0.000068	0.130847
C18	C	1.152206	-0.228100	0.065433
C19	C	1.152211	-0.304745	0.065429
C20	C	1.089613	-0.343070	0.128003
C21	C	1.026988	-0.304743	0.190569
C22	C	1.026977	-0.228100	0.190566
N23	N	1.078009	-0.463397	0.209587
N24	N	1.078024	-0.536205	0.209587
C25	C	1.089639	-0.573992	0.128016
N26	N	1.101255	-0.536220	0.046442
N27	N	1.101245	-0.463406	0.046442
C28	C	1.089617	-0.426177	0.128013
C29	C	1.152262	-0.695416	0.065444
C30	C	1.152261	-0.772063	0.065439
C31	C	1.027042	-0.772060	0.190587
C32	C	1.027038	-0.695415	0.190585
C33	C	1.089653	-0.657098	0.128014
C34	C	1.258221	-0.000095	0.121553
C35	C	1.360602	-0.000099	0.123541
C36	C	1.096078	-0.000090	-0.040591
C37	C	1.094090	-0.000090	-0.142972
N38	N	1.089661	0.189618	0.128012
C39	C	1.086770	-0.000070	-0.517868
C40	C	1.088803	-0.000076	-0.413560
C41	C	1.090430	-0.000081	-0.330423
C42	C	1.092463	-0.000085	-0.226109
C43	C	1.083168	-0.000074	0.296605
C44	C	1.085156	-0.000069	0.398987
H45	H	1.203200	-0.335948	0.014482
N46	N	0.959503	-0.654089	0.258069
H47	H	0.970228	-0.667416	0.323548
H48	H	0.969023	-0.599733	0.248494
N49	N	0.959464	-0.346074	0.258056
H50	H	0.968973	-0.400442	0.248567
H51	H	0.970216	-0.332666	0.323504
N52	N	1.219732	-0.186771	-0.002055
H53	H	1.285199	-0.200101	0.008717
H54	H	1.208930	-0.200139	-0.067503
N55	N	0.959439	-0.186767	0.258042
H56	H	0.919778	-0.222672	0.297681
H57	H	0.994802	-0.154957	0.298894
N58	N	1.219773	-0.654069	-0.002042
H59	H	1.285247	-0.667392	0.008715
H60	H	1.208965	-0.667426	-0.067491
N61	N	1.219813	-0.813394	-0.002027
H62	H	1.259482	-0.777488	-0.041654
H63	H	1.260627	-0.845177	0.033399
N64	N	0.959516	-0.813384	0.258072
H65	H	0.969020	-0.867753	0.248581
H66	H	0.970269	-0.799979	0.323521
