data_functionalizedCrystal
_audit_creation_method	'MofGen! by Chris Wilmer'
_symmetry_space_group_name_H-M	'P1'
_symmetry_Int_Tables_number	1
_symmetry_cell_setting	triclinic
loop_
_symmetry_equiv_pos_as_xyz
  x,y,z
_cell_length_a	12.811438
_cell_length_b	10.654550
_cell_length_c	9.130313
_cell_angle_alpha	90.004369
_cell_angle_beta	84.565021
_cell_angle_gamma	95.736932
loop_
_atom_site_label
_atom_site_type_symbol
_atom_site_fract_x
_atom_site_fract_y
_atom_site_fract_z
O1	O	1.393906	-0.169159	-0.306934
O2	O	1.893906	0.330841	0.193066
O3	O	1.088455	-0.187552	-0.266368
O4	O	1.588455	0.312448	0.233632
O5	O	1.248204	0.004420	-0.287575
O6	O	1.748204	0.504420	0.212425
O7	O	1.234158	-0.361131	-0.285728
O8	O	1.734158	0.138869	0.214272
O9	O	1.248193	0.004426	-0.043974
O10	O	1.748193	0.504426	0.456026
O11	O	1.088444	-0.187546	-0.022768
O12	O	1.588444	0.312454	0.477232
O13	O	1.393895	-0.169154	-0.063334
O14	O	1.893895	0.330846	0.436666
Cu15	Cu	1.241169	-0.178350	-0.020808
Cu16	Cu	1.741169	0.321650	0.479192
Cu17	Cu	1.241182	-0.178356	-0.308894
Cu18	Cu	1.741182	0.321644	0.191106
O19	O	1.234147	-0.361126	-0.042127
O20	O	1.734147	0.138874	0.457873
C21	C	1.049338	-0.186518	-0.139373
C22	C	1.549338	0.313482	0.360627
C23	C	0.932798	-0.183432	-0.123896
C24	C	1.432798	0.316568	0.376104
N25	N	1.241167	-0.178344	0.181815
N26	N	1.741167	0.321656	0.681815
C27	C	1.247167	0.051215	-0.165638
C28	C	1.747167	0.551215	0.334362
C29	C	1.244081	0.190643	-0.165231
C30	C	1.744081	0.690643	0.334769
C31	C	0.768533	-0.179078	0.030698
C32	C	1.268533	0.320922	0.530698
C33	C	0.878033	-0.181979	0.016161
C34	C	1.378033	0.318021	0.516161
C35	C	0.878054	-0.181986	-0.249426
C36	C	1.378054	0.318014	0.250574
C37	C	0.768554	-0.179085	-0.234890
C38	C	1.268554	0.320915	0.265110
C39	C	0.713798	-0.177629	-0.094824
C40	C	1.213798	0.322371	0.405176
C41	C	0.604296	-0.174719	-0.080289
C42	C	1.104296	0.325281	0.419711
C43	C	0.604318	-0.174736	-0.345875
C44	C	1.104318	0.325264	0.154125
C45	C	0.713818	-0.177637	-0.360411
C46	C	1.213818	0.322363	0.139589
C47	C	1.433012	-0.170187	-0.190332
C48	C	1.933012	0.329813	0.309668
C49	C	1.549553	-0.173274	-0.205819
C50	C	2.049553	0.326726	0.294181
C51	C	1.235184	-0.407921	-0.164067
C52	C	1.735184	0.092079	0.335933
C53	C	1.238269	-0.547348	-0.164484
C54	C	1.738269	-0.047348	0.335516
C55	C	1.338138	0.270617	-0.177723
C56	C	1.838138	0.770617	0.322277
C57	C	1.335233	0.401623	-0.177355
C58	C	1.835233	0.901623	0.322645
C59	C	1.144205	0.372667	-0.151995
C60	C	1.644205	0.872667	0.348005
C61	C	1.147111	0.241664	-0.152374
C62	C	1.647111	0.741664	0.347626
N63	N	1.241191	-0.178352	-0.511518
N64	N	1.741191	0.321648	-0.011518
C65	C	1.311928	-0.093375	0.249073
C66	C	1.811928	0.406625	0.749073
C67	C	1.311938	-0.093375	0.402408
C68	C	1.811938	0.406625	0.902408
C69	C	1.170423	-0.263325	0.421214
C70	C	1.670423	0.236675	0.921214
C71	C	1.170409	-0.263318	0.267882
C72	C	1.670409	0.236682	0.767882
H73	H	0.559715	-0.173542	0.033760
H74	H	1.059715	0.326458	0.533760
H75	H	1.369542	-0.024182	0.179000
H76	H	1.869542	0.475818	0.679000
Br77	Br	1.469739	0.201377	-0.195170
Br78	Br	1.969739	0.701377	0.304830
Br79	Br	1.019453	0.133118	-0.135439
Br80	Br	1.519453	0.633118	0.364561
Br81	Br	1.012609	0.441919	-0.134552
Br82	Br	1.512609	0.941919	0.365448
H83	H	1.112815	-0.332510	0.491305
H84	H	1.612815	0.167490	0.991305
H85	H	1.112782	-0.332511	0.213118
H86	H	1.612782	0.167489	0.713118
Br87	Br	1.407969	0.021951	0.493685
Br88	Br	1.907969	0.521951	0.993685
H89	H	0.723949	-0.177900	0.144745
H90	H	1.223949	0.322100	0.644745
H91	H	0.922654	-0.183183	-0.363461
H92	H	1.422654	0.316817	0.136539
H93	H	0.922595	-0.183163	0.118374
H94	H	1.422595	0.316837	0.618374
H95	H	0.758415	-0.178827	-0.474449
H96	H	1.258415	0.321173	0.025551
Br97	Br	0.530024	-0.172811	-0.516236
Br98	Br	1.030024	0.327189	-0.016236
H99	H	1.411824	0.466733	-0.187530
H100	H	1.911824	0.966733	0.312470
