data_functionalizedCrystal
_audit_creation_method	'MofGen! by Chris Wilmer'
_symmetry_space_group_name_H-M	'P1'
_symmetry_Int_Tables_number	1
_symmetry_cell_setting	triclinic
loop_
_symmetry_equiv_pos_as_xyz
  x,y,z
_cell_length_a	14.395555
_cell_length_b	14.395555
_cell_length_c	14.395555
_cell_angle_alpha	59.998369
_cell_angle_beta	90.002623
_cell_angle_gamma	60.000146
loop_
_atom_site_label
_atom_site_type_symbol
_atom_site_fract_x
_atom_site_fract_y
_atom_site_fract_z
Zr1	Zr	0.894902	1.016800	-0.121934
O2	O	0.746570	1.210606	-0.270281
O3	O	0.940375	0.822994	-0.076447
O4	O	0.940374	1.016791	-0.270255
O5	O	0.746570	1.016815	0.076395
O6	O	1.093248	1.016784	-0.270247
O7	O	0.746571	1.016808	-0.076473
O8	O	1.093250	0.670116	0.076440
O9	O	0.746568	1.363483	-0.270292
O10	O	1.073855	0.902704	-0.057054
O11	O	0.959766	0.902714	0.057023
O12	O	0.959765	1.130885	-0.171161
O13	O	0.845676	1.130896	-0.057084
Zr14	Zr	1.138716	1.016800	0.121885
Zr15	Zr	1.138718	1.016789	-0.121921
Zr16	Zr	0.894900	1.016811	0.121872
Zr17	Zr	0.894898	1.260622	-0.121953
Zr18	Zr	1.138720	0.772978	0.121903
O19	O	1.093243	1.210606	0.076398
O20	O	1.093246	1.210590	-0.270262
O21	O	0.746567	1.210621	0.076379
O22	O	1.287048	0.822994	0.270231
O23	O	1.287051	0.822978	-0.076429
O24	O	0.940373	0.823009	0.270213
O25	O	1.287048	1.016784	-0.076444
O26	O	1.093244	1.016808	0.270206
O27	O	0.940370	1.016815	0.270198
O28	O	1.287047	1.016791	0.076423
O29	O	0.940369	1.363475	-0.270282
O30	O	1.093249	0.670125	0.270233
O31	O	1.287050	0.670116	0.270243
O32	O	1.287052	0.670107	0.076450
O33	O	0.746566	1.363492	-0.076500
O34	O	0.940368	1.363483	-0.076489
O35	O	1.073853	0.902714	0.171112
O36	O	1.187942	0.902704	0.057035
O37	O	1.073852	1.130885	-0.057072
O38	O	0.959763	1.130896	0.057005
C39	C	1.016813	0.711815	-0.000001
C40	C	1.016814	0.608307	0.000007
C41	C	0.954592	0.485840	0.062168
C42	C	1.061871	0.471559	0.107293
C43	C	0.909556	0.623927	-0.045065
C44	C	1.124145	0.409585	0.045131
C45	C	0.971753	0.562017	-0.107287
C46	C	1.079096	0.547688	-0.062189
C47	C	0.711832	1.016813	-0.000041
C48	C	0.608325	1.016818	-0.000046
C49	C	0.485529	1.141233	-0.062253
C50	C	0.454695	1.079034	-0.107322
C51	C	0.454736	1.079012	0.045015
C52	C	0.578854	0.954619	-0.045179
C53	C	0.578892	0.954614	0.107218
C54	C	0.548131	0.892325	0.062175
C55	C	1.321786	1.016786	-0.000008
C56	C	1.425293	1.016781	-0.000003
C57	C	1.016811	1.016786	-0.304988
C58	C	1.016812	1.016781	-0.408490
C59	C	1.016805	1.321784	-0.000048
C60	C	1.016804	1.425293	-0.000056
C61	C	1.079025	0.892367	-0.406863
C62	C	0.971748	0.954565	-0.499895
C63	C	1.124063	0.954588	-0.499886
C64	C	0.909472	1.078981	-0.500159
C65	C	1.061864	1.078985	-0.500136
C66	C	0.954523	1.141275	-0.593186
C67	C	1.016807	1.016813	0.304939
C68	C	1.016806	1.016818	0.408441
C69	C	1.321790	0.711802	0.000015
C70	C	1.425298	0.608288	0.000029
C71	C	1.016811	0.711829	0.304962
C72	C	1.016811	0.608325	0.408472
C73	C	1.321788	0.711815	0.304979
C74	C	1.425295	0.608307	0.408494
C75	C	0.711830	1.321784	-0.305028
C76	C	0.608323	1.425293	-0.408543
C77	C	0.711828	1.321798	-0.000065
C78	C	0.608320	1.425311	-0.000078
C79	C	1.016807	1.321770	-0.305012
C80	C	1.016807	1.425274	-0.408522
C81	C	1.548093	0.547726	0.062209
C82	C	1.578956	0.409611	0.107274
C83	C	1.578861	0.562017	-0.045075
C84	C	1.454797	0.471473	0.045156
C85	C	1.454706	0.623953	-0.107253
C86	C	1.485495	0.485848	-0.062215
C87	C	0.954604	0.547740	0.406859
C88	C	1.061885	0.409631	0.499894
C89	C	0.909568	0.561978	0.499881
C90	C	1.124156	0.471516	0.500143
C91	C	0.971761	0.623938	0.500116
C92	C	1.079107	0.485838	0.593168
C93	C	1.423681	0.547700	0.531288
C94	C	1.516674	0.409594	0.562097
C95	C	1.516740	0.561874	0.562124
C96	C	1.516925	0.471502	0.437939
C97	C	1.516977	0.623855	0.437970
C98	C	1.609987	0.485759	0.468706
H99	H	0.933613	0.599226	-0.197980
O100	O	0.921251	0.745343	0.498813
H101	H	0.845764	0.829991	0.420945
H102	H	0.818726	1.131528	-0.499346
H103	H	0.818852	0.715536	-0.083160
O104	O	1.451502	0.450065	-0.131906
H105	H	1.529073	0.373599	-0.132065
H106	H	0.401177	1.131614	-0.198017
O107	O	1.649693	0.611345	-0.095562
H108	H	1.726062	0.533841	-0.095881
O109	O	0.884741	1.280738	-0.698683
H110	H	0.921430	1.332656	-0.698710
H111	H	1.517731	0.598907	0.615751
H112	H	1.401169	0.715619	-0.197921
H113	H	1.214900	0.434135	0.499327
O114	O	1.148887	0.450020	0.698664
H115	H	1.237842	0.411662	0.699388
O116	O	1.581790	0.583606	0.131980
H117	H	1.504089	0.661332	0.130744
H118	H	0.902079	0.574824	0.327097
O119	O	0.383859	1.148696	0.095472
H120	H	0.435087	1.098013	0.183988
O121	O	0.451839	1.280581	-0.132028
H122	H	0.401340	1.331921	-0.221032
H123	H	0.818870	0.599157	0.500789
H124	H	0.632214	0.902071	-0.083375
O125	O	1.318015	0.583621	0.564955
H126	H	1.317138	0.495484	0.615420
H127	H	1.516029	0.715488	0.384485
H128	H	0.573790	0.787035	0.114787
O129	O	1.517872	0.288247	0.632943
H130	H	1.595712	0.211558	0.709303
O131	O	1.244205	0.884914	-0.501089
H132	H	1.295664	0.781655	-0.424673
O133	O	0.649759	0.885009	0.227343
H134	H	0.658923	0.953695	0.234147
O135	O	1.244353	0.288304	0.095724
H136	H	1.281783	0.250603	0.184500
H137	H	1.516078	0.434161	0.384549
H138	H	1.131547	0.787165	-0.327092
H139	H	1.100005	0.318004	0.500829
H140	H	1.632496	0.317969	0.197962
H141	H	1.689620	0.458713	0.443056
H142	H	1.131784	0.574651	-0.114771
H143	H	0.933634	0.901986	-0.500825
O144	O	1.112368	0.422249	0.227448
H145	H	1.048537	0.487195	0.248383
O146	O	1.112377	1.148575	-0.498833
H147	H	1.201453	1.096713	-0.497657
H148	H	1.401460	0.434058	0.083367
H149	H	0.902065	0.458588	0.114824
