data_functionalizedCrystal
_audit_creation_method	'MofGen! by Chris Wilmer'
_symmetry_space_group_name_H-M	'P1'
_symmetry_Int_Tables_number	1
_symmetry_cell_setting	triclinic
loop_
_symmetry_equiv_pos_as_xyz
  x,y,z
_cell_length_a	13.897448
_cell_length_b	17.639051
_cell_length_c	17.640968
_cell_angle_alpha	87.821963
_cell_angle_beta	78.768361
_cell_angle_gamma	78.810652
loop_
_atom_site_label
_atom_site_type_symbol
_atom_site_fract_x
_atom_site_fract_y
_atom_site_fract_z
Zn1	Zn	-0.643926	1.247625	-0.194508
Zn2	Zn	-0.830211	1.221873	-0.067537
Zn3	Zn	-0.631278	1.094981	-0.093224
Zn4	Zn	-0.767508	1.120626	-0.220166
O5	O	-0.718231	1.171276	-0.143859
O6	O	-0.700172	1.350464	-0.156178
O7	O	-0.824771	1.183531	0.035319
O8	O	-0.497982	1.115275	-0.106672
O9	O	-0.837035	1.331544	-0.062893
O10	O	-0.507274	1.227422	-0.181085
O11	O	-0.678616	1.090303	0.016447
O12	O	-0.617814	0.992128	-0.131551
O13	O	-0.730166	1.158982	-0.323025
O14	O	-0.717902	1.010969	-0.224814
O15	O	-0.639371	1.252288	-0.304175
O16	O	-0.956867	1.208397	-0.087771
O17	O	-0.910799	1.134011	-0.199907
C18	C	-0.968833	1.171216	-0.143848
C19	C	-1.076057	1.171265	-0.143855
C20	C	-0.659682	0.973998	-0.183755
C21	C	-0.634654	0.889605	-0.200840
C22	C	-0.679184	1.211369	-0.341924
C23	C	-0.662545	1.228454	-0.426327
C24	C	-1.272367	1.171355	-0.143886
C25	C	-1.163125	1.171303	-0.143872
C26	C	-0.466653	1.171360	-0.143882
C27	C	-0.359445	1.171396	-0.143892
C28	C	-0.777009	1.369325	-0.103808
C29	C	-0.802056	1.453721	-0.086740
C30	C	-0.908610	1.562826	-0.014120
C31	C	-0.885066	1.483523	-0.030163
C32	C	-0.742555	1.503216	-0.127294
C33	C	-0.766084	1.582521	-0.111256
C34	C	-0.849113	1.612319	-0.054669
C35	C	-0.706588	1.632014	-0.151805
C36	C	-0.730118	1.711313	-0.135772
C37	C	-0.813146	1.741118	-0.079189
C38	C	-0.872644	1.691618	-0.038635
C39	C	-0.623563	1.602215	-0.208396
C40	C	-0.564066	1.651709	-0.248945
C41	C	-0.587593	1.731008	-0.232908
C42	C	-0.670620	1.760813	-0.176325
C43	C	-0.528094	1.780508	-0.273461
C44	C	-0.551625	1.859807	-0.257427
C45	C	-0.694151	1.840112	-0.160291
C46	C	-0.844198	1.041775	-0.752985
C47	C	-0.828556	1.057845	-0.832291
C48	C	-0.734019	1.154996	-0.812654
C49	C	-0.749650	1.138932	-0.733344
C50	C	-0.804741	1.082321	-0.703516
C51	C	-0.710192	1.179478	-0.683876
C52	C	-0.725826	1.163418	-0.604573
C53	C	-0.780917	1.106811	-0.574739
C54	C	-0.820375	1.066260	-0.624213
C55	C	-0.655107	1.236093	-0.713705
C56	C	-0.615650	1.276639	-0.664237
C57	C	-0.631277	1.260575	-0.584933
C58	C	-0.686369	1.203968	-0.555098
C59	C	-0.591820	1.301125	-0.535458
C60	C	-0.607454	1.285064	-0.456155
C61	C	-0.702003	1.187907	-0.475795
C62	C	-0.757068	1.131383	0.053444
C63	C	-0.773479	1.114446	0.137877
H64	H	-0.761756	1.864374	-0.114207
C65	C	-0.597682	1.514984	-0.226034
N66	N	-0.578189	1.449281	-0.239318
H67	H	-0.689167	1.201091	-0.836951
C68	C	-0.798114	1.089143	-0.487502
N69	N	-0.811064	1.075835	-0.421796
H70	H	-0.865207	1.020144	-0.599930
H71	H	-0.642383	1.249169	-0.778279
C72	C	-0.950523	1.429082	0.014449
N73	N	-0.999827	1.388077	0.048049
C74	C	-0.839029	1.828349	-0.061550
N75	N	-0.858523	1.894052	-0.048264
C76	C	-0.436759	1.747717	-0.335700
N77	N	-0.367959	1.723019	-0.382575
H78	H	-0.940250	1.715880	0.007449
H79	H	-0.570798	1.322733	-0.688533
C80	C	-0.564046	1.329666	-0.401737
N81	N	-0.531353	1.363262	-0.360749
C82	C	-0.531220	1.363394	-0.568281
N83	N	-0.485572	1.410294	-0.593003
H84	H	-0.976216	1.587088	0.031964
H85	H	-0.674954	1.478943	-0.173370
H86	H	-0.496466	1.627436	-0.295021
H87	H	-0.503175	1.900106	-0.290445
H88	H	-0.746835	1.141791	-0.451512
H89	H	-0.889031	0.995658	-0.728701
H90	H	-0.860691	1.024823	-0.872567
