data_functionalizedCrystal
_audit_creation_method	'MofGen! by Chris Wilmer'
_symmetry_space_group_name_H-M	'P1'
_symmetry_Int_Tables_number	1
_symmetry_cell_setting	triclinic
loop_
_symmetry_equiv_pos_as_xyz
  x,y,z
_cell_length_a	14.519731
_cell_length_b	9.565339
_cell_length_c	14.519731
_cell_angle_alpha	90.000753
_cell_angle_beta	83.688853
_cell_angle_gamma	90.003653
loop_
_atom_site_label
_atom_site_type_symbol
_atom_site_fract_x
_atom_site_fract_y
_atom_site_fract_z
O1	O	1.223864	0.116266	0.120977
O2	O	1.723864	0.616266	0.620977
O3	O	0.955391	0.116269	0.135193
O4	O	1.455391	0.616269	0.635193
O5	O	1.096735	0.116255	-0.006152
O6	O	1.596735	0.616255	0.493848
O7	O	1.082520	0.116280	0.262322
O8	O	1.582520	0.616280	0.762322
O9	O	1.096724	-0.116265	-0.006143
O10	O	1.596724	0.383735	0.493857
O11	O	0.955380	-0.116251	0.135202
O12	O	1.455380	0.383749	0.635202
O13	O	1.223853	-0.116254	0.120986
O14	O	1.723853	0.383746	0.620986
Zn15	Zn	1.089615	-0.153170	0.128095
Zn16	Zn	1.589615	0.346830	0.628095
Zn17	Zn	1.089629	0.153185	0.128084
Zn18	Zn	1.589629	0.653185	0.628084
O19	O	1.082508	-0.116240	0.262330
O20	O	1.582508	0.383760	0.762330
C21	C	0.921026	0.000009	0.134531
C22	C	1.421026	0.500009	0.634531
C23	C	0.818645	0.000009	0.132535
C24	C	1.318645	0.500009	0.632535
N25	N	1.089611	-0.362250	0.128102
N26	N	1.589611	0.137750	0.628102
C27	C	0.735501	0.000015	0.130913
C28	C	1.235501	0.500015	0.630913
C29	C	0.631192	0.000015	0.128887
C30	C	1.131192	0.500015	0.628887
C31	C	0.548053	0.000015	0.127278
C32	C	1.048053	0.500015	0.627278
C33	C	0.443738	0.000018	0.125252
C34	C	0.943738	0.500018	0.625252
C35	C	1.024224	-0.453446	0.193448
C36	C	1.524224	0.046554	0.693448
C37	C	1.107592	-0.546624	0.211486
C38	C	1.607592	-0.046624	0.711486
C39	C	1.006280	-0.546627	0.110071
C40	C	1.506280	-0.046627	0.610071
C41	C	1.173021	-0.453376	0.146183
C42	C	1.673021	0.046624	0.646183
C43	C	1.071654	-0.453371	0.044731
C44	C	1.571654	0.046629	0.544731
C45	C	1.155082	-0.546506	0.062734
C46	C	1.655082	-0.046506	0.562734
C47	C	1.258218	0.000009	0.121648
C48	C	1.758218	0.500009	0.621648
C49	C	1.360598	0.000018	0.123643
C50	C	1.860598	0.500018	0.623643
C51	C	1.096064	-0.000006	-0.040507
C52	C	1.596064	0.499994	0.459493
C53	C	1.094068	-0.000007	-0.142887
C54	C	1.594068	0.499993	0.357113
N55	N	1.089640	0.362264	0.128069
N56	N	1.589640	0.862264	0.628069
C57	C	1.092446	-0.000003	-0.226031
C58	C	1.592446	0.499997	0.273969
C59	C	1.090419	0.000007	-0.330340
C60	C	1.590419	0.500007	0.169660
C61	C	1.088811	0.000016	-0.413479
C62	C	1.588811	0.500016	0.086521
C63	C	1.086785	0.000025	-0.517795
C64	C	1.586785	0.500025	-0.017795
C65	C	1.083180	0.000024	0.296685
C66	C	1.583180	0.500024	0.796685
C67	C	1.085176	0.000034	0.399066
C68	C	1.585176	0.500034	0.899066
H69	H	1.122800	-0.587584	0.281977
H70	H	1.622800	-0.087584	0.781977
H71	H	1.210450	-0.587110	0.007456
H72	H	1.710450	-0.087110	0.507456
H73	H	1.243520	-0.412586	0.161504
H74	H	1.743520	0.087414	0.661504
H75	H	0.935796	-0.587592	0.094835
H76	H	1.435796	-0.087592	0.594835
O77	O	0.958417	-0.404748	0.259549
O78	O	1.458417	0.095252	0.759549
C79	C	0.903018	-0.397085	0.422115
C80	C	1.403018	0.102915	0.922115
C81	C	0.977610	-0.452305	0.347353
C82	C	1.477610	0.047695	0.847353
H83	H	0.918498	-0.435537	0.493119
H84	H	1.418498	0.064463	0.993119
H85	H	0.903176	-0.277910	0.421150
H86	H	1.403176	0.222090	0.921150
H87	H	0.832113	-0.437010	0.407410
H88	H	1.332113	0.062990	0.907410
H89	H	1.048552	-0.412484	0.362007
H90	H	1.548552	0.087516	0.862007
H91	H	0.977370	-0.571479	0.348336
H92	H	1.477370	-0.071479	0.848336
O93	O	1.053320	-0.404519	-0.039299
O94	O	1.553320	0.095481	0.460701
C95	C	0.944730	-0.396592	-0.153321
C96	C	1.444730	0.103408	0.346679
C97	C	0.965379	-0.451987	-0.058135
C98	C	1.465379	0.048013	0.441865
H99	H	0.873639	-0.434972	-0.168588
H100	H	1.373639	0.065028	0.331412
H101	H	0.945510	-0.277418	-0.152712
H102	H	1.445510	0.222582	0.347288
H103	H	0.999795	-0.436458	-0.209166
H104	H	1.499795	0.063542	0.290834
H105	H	0.910337	-0.412224	-0.002237
H106	H	1.410337	0.087776	0.497763
H107	H	0.964633	-0.571159	-0.058823
H108	H	1.464633	-0.071159	0.441177
