data_functionalizedCrystal
_audit_creation_method	'MofGen! by Chris Wilmer'
_symmetry_space_group_name_H-M	'P1'
_symmetry_Int_Tables_number	1
_symmetry_cell_setting	triclinic
loop_
_symmetry_equiv_pos_as_xyz
  x,y,z
_cell_length_a	14.044220
_cell_length_b	11.792241
_cell_length_c	13.101039
_cell_angle_alpha	86.623482
_cell_angle_beta	86.330374
_cell_angle_gamma	91.308853
loop_
_atom_site_label
_atom_site_type_symbol
_atom_site_fract_x
_atom_site_fract_y
_atom_site_fract_z
O1	O	-0.124790	1.524822	-0.085112
O2	O	0.375210	2.024822	0.414888
O3	O	-0.138185	1.195740	-0.085135
O4	O	0.361815	1.695740	0.414865
O5	O	0.006522	1.355341	-0.085119
O6	O	0.506522	1.855341	0.414881
O7	O	-0.269498	1.365220	-0.085128
O8	O	0.230502	1.865220	0.414872
O9	O	-0.003878	1.343891	0.085309
O10	O	0.496122	1.843891	0.585309
O11	O	-0.148585	1.184290	0.085293
O12	O	0.351415	1.684290	0.585293
O13	O	-0.135190	1.513372	0.085317
O14	O	0.364810	2.013372	0.585317
Zn15	Zn	-0.143539	1.347013	0.112364
Zn16	Zn	0.356461	1.847013	0.612364
Zn17	Zn	-0.129837	1.362099	-0.112183
Zn18	Zn	0.370163	1.862099	0.387817
O19	O	-0.279897	1.353771	0.085301
O20	O	0.220103	1.853771	0.585301
C21	C	-0.142544	1.147645	0.000076
C22	C	0.357456	1.647645	0.500076
C23	C	-0.140024	1.021396	0.000067
C24	C	0.359976	1.521396	0.500067
C25	C	-0.135395	0.790247	0.000096
C26	C	0.364605	1.290247	0.500096
C27	C	-0.137967	0.918875	0.000080
C28	C	0.362033	1.418875	0.500080
C29	C	-0.310034	1.363820	0.000086
C30	C	0.189966	1.863820	0.500086
C31	C	-0.415326	1.376719	0.000083
C32	C	0.084674	1.876719	0.500083
C33	C	-0.608109	1.400301	0.000089
C34	C	-0.108109	1.900301	0.500089
C35	C	-0.665272	1.308817	0.000083
C36	C	-0.165272	1.808817	0.500083
C37	C	-0.772543	1.321938	0.000087
C38	C	-0.272543	1.821938	0.500087
C39	C	-0.500828	1.387182	0.000086
C40	C	-0.000828	1.887182	0.500086
C41	C	0.036659	1.345292	0.000094
C42	C	0.536659	1.845292	0.500094
C43	C	0.141951	1.332393	0.000090
C44	C	0.641951	1.832393	0.500090
C45	C	-0.130832	1.561467	0.000103
C46	C	0.369168	2.061467	0.500103
C47	C	-0.133351	1.687717	0.000106
C48	C	0.366649	2.187717	0.500106
N49	N	-0.152890	1.336726	0.265612
N50	N	0.347110	1.836726	0.765612
N51	N	-0.120478	1.372394	-0.265430
N52	N	0.379522	1.872394	0.234570
C53	C	-0.165621	1.322731	0.474653
C54	C	0.334379	1.822731	0.974653
C55	C	-0.107751	1.386385	0.525535
C56	C	0.392249	1.886385	1.025535
C57	C	-0.114834	1.378598	0.641853
C58	C	0.385166	1.878598	1.141853
C59	C	-0.158538	1.330517	0.358325
C60	C	0.341462	1.830517	0.858325
H61	H	-0.633647	1.220640	0.000078
H62	H	-0.133647	1.720640	0.500078
O63	O	-0.645723	1.505541	0.000239
O64	O	-0.145723	2.005541	0.500239
C65	C	-0.620476	1.558926	0.088526
C66	C	-0.120476	2.058926	0.588526
H67	H	-0.553449	1.519192	0.117946
H68	H	-0.053449	2.019192	0.617946
H69	H	-0.606153	1.653458	0.068687
H70	H	-0.106153	2.153458	0.568687
H71	H	-0.681410	1.547297	0.150334
H72	H	-0.181410	2.047297	0.650334
O73	O	-0.042207	1.458133	0.473137
O74	O	0.457793	1.958133	0.973137
C75	C	-0.049491	1.449854	0.366981
C76	C	0.450509	1.949854	0.866981
H77	H	-0.123904	1.416449	0.352386
H78	H	0.376096	1.916449	0.852386
H79	H	-0.036538	1.537357	0.326012
H80	H	0.463462	2.037357	0.826012
H81	H	0.006078	1.389063	0.336707
H82	H	0.506078	1.889063	0.836707
H83	H	-0.220482	1.262392	0.518444
H84	H	0.279518	1.762392	1.018444
