data_functionalizedCrystal
_audit_creation_method	'MofGen! by Chris Wilmer'
_symmetry_space_group_name_H-M	'P1'
_symmetry_Int_Tables_number	1
_symmetry_cell_setting	triclinic
loop_
_symmetry_equiv_pos_as_xyz
  x,y,z
_cell_length_a	25.639239
_cell_length_b	16.625548
_cell_length_c	16.625539
_cell_angle_alpha	90.020568
_cell_angle_beta	89.968745
_cell_angle_gamma	89.960246
loop_
_atom_site_label
_atom_site_type_symbol
_atom_site_fract_x
_atom_site_fract_y
_atom_site_fract_z
Zn1	Zn	-0.208135	-1.232590	-0.455893
Zn2	Zn	-0.295573	-1.232455	-0.321053
Zn3	Zn	-0.208155	-1.097751	-0.321073
Zn4	Zn	-0.295543	-1.097684	-0.455843
O5	O	-0.251851	-1.165120	-0.388466
O6	O	-0.219738	-1.345404	-0.438018
O7	O	-0.283998	-1.214558	-0.208223
O8	O	-0.134987	-1.115723	-0.338987
O9	O	-0.283978	-1.345305	-0.338952
O10	O	-0.134972	-1.214788	-0.438038
O11	O	-0.219772	-1.115592	-0.208238
O12	O	-0.219743	-0.984910	-0.338938
O13	O	-0.283927	-1.115607	-0.568682
O14	O	-0.283946	-0.984860	-0.437953
O15	O	-0.219709	-1.214722	-0.568719
O16	O	-0.368734	-1.214492	-0.338904
O17	O	-0.368712	-1.115477	-0.437933
C18	C	-0.251844	-0.955629	-0.388443
C19	C	-0.251853	-0.866008	-0.388452
C20	C	-0.387694	-1.164984	-0.388429
C21	C	-0.445808	-1.165000	-0.388440
C22	C	-0.251812	-1.165172	-0.598775
C23	C	-0.251796	-1.165195	-0.688396
C24	C	-0.806170	-1.216812	-0.336989
C25	C	-0.860774	-1.216843	-0.337000
O26	O	-0.889010	-1.260755	-0.293213
N27	N	-0.888090	-1.165262	-0.388519
C28	C	-0.860799	-1.113651	-0.440037
O29	O	-0.889048	-1.069780	-0.483860
C30	C	-0.806196	-1.113625	-0.440029
C31	C	-0.778883	-1.165204	-0.388501
C32	C	-0.778857	-1.268387	-0.285465
C33	C	-0.724256	-1.268355	-0.285453
C34	C	-0.696969	-1.216747	-0.336965
C35	C	-0.724282	-1.165171	-0.388489
C36	C	-0.778906	-1.062019	-0.491551
C37	C	-0.724299	-1.061997	-0.491539
C38	C	-0.696986	-1.113576	-0.440011
C39	C	-0.642395	-1.113531	-0.439990
N40	N	-0.615078	-1.165112	-0.388470
C41	C	-0.642366	-1.216720	-0.336958
C42	C	-0.975470	-1.113712	-0.440049
C43	C	-1.030072	-1.113734	-0.440053
C44	C	-1.030043	-1.216927	-0.337017
C45	C	-0.975440	-1.216900	-0.337009
C46	C	-0.948154	-1.165293	-0.388530
C47	C	-0.527700	-1.216648	-0.336937
C48	C	-0.473095	-1.216608	-0.336928
C49	C	-0.473129	-1.113418	-0.439967
C50	C	-0.527729	-1.113454	-0.439973
C51	C	-0.555014	-1.165076	-0.388456
O52	O	-0.614124	-1.069644	-0.483756
O53	O	-0.614110	-1.260591	-0.293150
C54	C	-0.115478	-1.165278	-0.388520
C55	C	-0.057364	-1.165345	-0.388544
C56	C	-0.251859	-1.375429	-0.388489
C57	C	-0.251863	-1.465050	-0.388498
C58	C	-0.251857	-0.537832	-0.388487
C59	C	-0.251854	-0.629141	-0.388475
C60	C	-0.251855	-0.701917	-0.388469
C61	C	-0.251852	-0.793231	-0.388458
C62	C	-0.251737	-1.165232	-1.016572
C63	C	-0.251755	-1.165219	-0.925263
C64	C	-0.251767	-1.165214	-0.852487
C65	C	-0.251784	-1.165200	-0.761172
C66	C	-0.251852	-1.165114	-0.178975
C67	C	-0.251722	-1.165248	-0.089354
H68	H	-0.549909	-1.258684	-0.294988
C69	C	-0.694512	-1.324275	-0.229543
C70	C	-0.640850	-1.313201	-0.240535
C71	C	-0.613438	-1.364698	-0.189036
H72	H	-0.703360	-1.378478	-0.241348
H73	H	-0.703464	-1.312502	-0.175342
H74	H	-0.631901	-1.324979	-0.294724
H75	H	-0.631986	-1.259008	-0.228724
H76	H	-0.622390	-1.352925	-0.134835
H77	H	-0.622290	-1.418898	-0.200846
H78	H	-0.577025	-1.357186	-0.196482
C79	C	-0.808382	-1.324452	-0.229440
C80	C	-0.772765	-1.369593	-0.184310
C81	C	-0.799940	-1.421239	-0.132676
H82	H	-0.829651	-1.359656	-0.260219
H83	H	-0.829704	-1.293657	-0.194236
H84	H	-0.751452	-1.400386	-0.219510
H85	H	-0.751495	-1.334411	-0.153515
H86	H	-0.821262	-1.390443	-0.097471
H87	H	-0.821208	-1.456437	-0.163461
H88	H	-0.775778	-1.451867	-0.102043
H89	H	-0.549969	-1.071457	-0.481935
H90	H	-0.450903	-1.071397	-0.481905
H91	H	-1.052270	-1.258952	-0.295075
C92	C	-0.443536	-1.272701	-0.280950
C93	C	-0.479124	-1.317919	-0.235859
C94	C	-0.451915	-1.369607	-0.184296
H95	H	-0.422270	-1.241957	-0.245712
H96	H	-0.422208	-1.307848	-0.311803
H97	H	-0.500443	-1.282777	-0.205009
H98	H	-0.500391	-1.348680	-0.271076
H99	H	-0.430588	-1.404753	-0.215149
H100	H	-0.430651	-1.338856	-0.149063
H101	H	-0.476058	-1.400298	-0.153701
C102	C	-0.945882	-1.272992	-0.281037
C103	C	-0.981473	-1.318202	-0.235942
C104	C	-0.954267	-1.369892	-0.184377
H105	H	-0.924614	-1.242250	-0.245801
H106	H	-0.924558	-1.308144	-0.311889
H107	H	-1.002788	-1.283054	-0.205091
H108	H	-1.002743	-1.348960	-0.271156
H109	H	-0.932943	-1.405044	-0.215230
H110	H	-0.932999	-1.339144	-0.149147
H111	H	-0.978411	-1.400578	-0.153780
C112	C	-1.059629	-1.057696	-0.496081
C113	C	-1.024038	-1.012511	-0.541200
C114	C	-1.051244	-0.960890	-0.592834
H115	H	-1.080970	-1.022520	-0.465302
H116	H	-1.080881	-1.088512	-0.531292
H117	H	-1.002795	-0.981697	-0.505993
H118	H	-1.002696	-1.047666	-0.571995
H119	H	-1.072496	-0.991706	-0.628045
H120	H	-1.072584	-0.925719	-0.562049
H121	H	-1.027100	-0.930231	-0.623459
H122	H	-0.953256	-1.071681	-0.482001
H123	H	-0.801135	-1.020014	-0.533507
H124	H	-0.702085	-1.019973	-0.533496
