data_functionalizedCrystal
_audit_creation_method	'MofGen! by Chris Wilmer'
_symmetry_space_group_name_H-M	'P1'
_symmetry_Int_Tables_number	1
_symmetry_cell_setting	triclinic
loop_
_symmetry_equiv_pos_as_xyz
  x,y,z
_cell_length_a	14.519731
_cell_length_b	17.000371
_cell_length_c	13.596369
_cell_angle_alpha	89.993489
_cell_angle_beta	89.994584
_cell_angle_gamma	79.644050
loop_
_atom_site_label
_atom_site_type_symbol
_atom_site_fract_x
_atom_site_fract_y
_atom_site_fract_z
O1	O	1.215190	0.104406	-0.081794
O2	O	1.548524	0.437739	0.251539
O3	O	1.881857	0.771073	0.584873
O4	O	0.945698	0.116674	-0.081796
O5	O	1.279031	0.450007	0.251538
O6	O	1.612365	0.783340	0.584871
O7	O	1.097177	-0.005302	-0.081788
O8	O	1.430511	0.328032	0.251546
O9	O	1.763844	0.661365	0.584879
O10	O	1.063711	0.226381	-0.081802
O11	O	1.397044	0.559715	0.251532
O12	O	1.730377	0.893048	0.584865
O13	O	1.097164	-0.005308	0.081795
O14	O	1.430497	0.328025	0.415129
O15	O	1.763831	0.661359	0.748462
O16	O	0.945684	0.116667	0.081787
O17	O	1.279018	0.450001	0.415121
O18	O	1.612351	0.783334	0.748454
O19	O	1.215177	0.104399	0.081789
O20	O	1.548510	0.437733	0.415122
O21	O	1.881844	0.771066	0.748456
Zn22	Zn	1.080428	0.110532	0.107760
Zn23	Zn	1.413762	0.443866	0.441094
Zn24	Zn	1.747095	0.777199	0.774427
Zn25	Zn	1.080446	0.110541	-0.107767
Zn26	Zn	1.413780	0.443874	0.225566
Zn27	Zn	1.747113	0.777208	0.558900
O28	O	1.063697	0.226375	0.081781
O29	O	1.397031	0.559708	0.415114
O30	O	1.730364	0.893041	0.748448
C31	C	0.911379	0.116096	-0.000004
C32	C	1.244713	0.449429	0.333329
C33	C	1.578046	0.782762	0.666662
C34	C	0.809142	0.114373	-0.000005
C35	C	1.142475	0.447706	0.333329
C36	C	1.475809	0.781040	0.666662
C37	C	0.726114	0.112974	-0.000009
C38	C	1.059447	0.446307	0.333325
C39	C	1.392781	0.779640	0.666658
C40	C	0.621951	0.111225	-0.000009
C41	C	0.955284	0.444558	0.333325
C42	C	1.288617	0.777891	0.666658
C43	C	0.538927	0.109837	-0.000009
C44	C	0.872260	0.443170	0.333325
C45	C	1.205593	0.776503	0.666658
C46	C	0.434756	0.108088	-0.000011
C47	C	0.768090	0.441421	0.333323
C48	C	1.101423	0.774755	0.666656
C49	C	1.098968	-0.034956	0.000003
C50	C	1.432302	0.298377	0.333337
C51	C	1.765635	0.631711	0.666670
C52	C	1.104313	-0.123307	0.000003
C53	C	1.437647	0.210027	0.333336
C54	C	1.770980	0.543360	0.666669
C55	C	1.022057	-0.155455	-0.000002
C56	C	1.355391	0.177879	0.333331
C57	C	1.688724	0.511212	0.666664
C58	C	1.027085	-0.238470	0.000000
C59	C	1.360419	0.094863	0.333334
C60	C	1.693752	0.428197	0.666667
C61	C	1.114370	-0.289336	0.000001
C62	C	1.447703	0.043997	0.333334
C63	C	1.781037	0.377331	0.666668
C64	C	1.196633	-0.257183	0.000009
C65	C	1.529966	0.076150	0.333342
C66	C	1.863299	0.409484	0.666675
C67	C	1.191604	-0.174169	0.000013
C68	C	1.524937	0.159164	0.333346
C69	C	1.858270	0.492498	0.666680
C70	C	1.133795	-0.540453	-0.000006
C71	C	1.467128	-0.207120	0.333328
C72	C	1.800462	0.126214	0.666661
C73	C	1.138817	-0.623472	-0.000013
C74	C	1.472151	-0.290139	0.333320
C75	C	1.805484	0.043194	0.666654
C76	C	0.969269	-0.604754	-0.000019
C77	C	1.302603	-0.271420	0.333314
C78	C	1.635936	0.061913	0.666647
C79	C	0.964248	-0.521739	-0.000021
C80	C	1.297582	-0.188405	0.333312
C81	C	1.630915	0.144928	0.666646
C82	C	1.046511	-0.489593	-0.000008
C83	C	1.379844	-0.156260	0.333325
C84	C	1.713177	0.177074	0.666659
C85	C	1.119512	-0.374191	0.000001
C86	C	1.452845	-0.040858	0.333334
C87	C	1.786178	0.292475	0.666667
C88	C	1.041368	-0.404739	-0.000001
C89	C	1.374702	-0.071406	0.333333
C90	C	1.708035	0.261928	0.666666
C91	C	1.249495	0.104978	-0.000005
C92	C	1.582829	0.438311	0.333329
C93	C	1.916162	0.771644	0.666662
C94	C	1.351733	0.106700	-0.000011
C95	C	1.685066	0.440033	0.333323
C96	C	2.018399	0.773367	0.666656
C97	C	1.061906	0.256029	-0.000012
C98	C	1.395240	0.589362	0.333321
C99	C	1.728573	0.922696	0.666654
C100	C	1.056561	0.344380	-0.000018
C101	C	1.389895	0.677713	0.333316
C102	C	1.723228	1.011046	0.666649
N103	N	1.080423	0.110526	0.254852
N104	N	1.413756	0.443859	0.588186
N105	N	1.747090	0.777193	0.921519
N106	N	1.080460	0.110541	-0.254859
N107	N	1.413793	0.443874	0.078474
N108	N	1.747126	0.777208	0.411808
C109	C	1.080445	0.110542	0.656143
C110	C	1.413778	0.443875	0.989477
C111	C	1.747112	0.777208	1.322810
C112	C	1.080436	0.110540	0.544492
C113	C	1.413769	0.443873	0.877825
C114	C	1.747103	0.777207	1.211159
C115	C	1.080434	0.110534	0.455501
C116	C	1.413768	0.443868	0.788835
C117	C	1.747101	0.777201	1.122168
C118	C	1.080425	0.110532	0.343843
C119	C	1.413758	0.443865	0.677176
C120	C	1.747091	0.777198	1.010510
H121	H	0.950980	-0.114044	-0.000007
H122	H	1.284314	0.219289	0.333326
H123	H	1.617647	0.552622	0.666659
O124	O	1.213654	-0.429056	0.000003
O125	O	1.546987	-0.095722	0.333336
O126	O	1.880320	0.237611	0.666670
H127	H	1.220005	-0.467316	-0.066673
H128	H	1.553338	-0.133983	0.266660
H129	H	1.886672	0.199350	0.599994
O130	O	1.280325	-0.139493	0.000005
O131	O	1.613658	0.193840	0.333338
O132	O	1.946991	0.527174	0.666671
H133	H	1.321940	-0.159926	0.066672
H134	H	1.655274	0.173407	0.400006
H135	H	1.988607	0.506741	0.733339
O136	O	0.938367	-0.273147	-0.000003
O137	O	1.271700	0.060186	0.333331
O138	O	1.605034	0.393519	0.666664
H139	H	0.876828	-0.223831	-0.000013
H140	H	1.210162	0.109503	0.333320
H141	H	1.543495	0.442836	0.666653
O142	O	1.290780	-0.312040	0.000015
O143	O	1.624113	0.021293	0.333348
O144	O	1.957446	0.354627	0.666682
H145	H	1.280459	-0.375167	0.000003
H146	H	1.613793	-0.041833	0.333336
H147	H	1.947126	0.291500	0.666669
H148	H	0.902296	-0.630936	-0.000028
H149	H	1.235630	-0.297603	0.333305
H150	H	1.568963	0.035730	0.666638
O151	O	0.947227	-0.349880	0.000008
O152	O	1.280560	-0.016547	0.333341
O153	O	1.613894	0.316786	0.666674
H154	H	0.907544	-0.361318	-0.066665
H155	H	1.240877	-0.027984	0.266668
H156	H	1.574210	0.305349	0.600001
O157	O	0.870106	-0.466875	-0.000001
O158	O	1.203439	-0.133542	0.333332
O159	O	1.536772	0.199791	0.666666
H160	H	0.813751	-0.503177	0.000010
H161	H	1.147084	-0.169844	0.333343
H162	H	1.480417	0.163489	0.666676
H163	H	1.200779	-0.514290	0.000002
H164	H	1.534112	-0.180957	0.333336
H165	H	1.867445	0.152376	0.666669
H166	H	1.209899	-0.664887	-0.000019
H167	H	1.543232	-0.331553	0.333314
H168	H	1.876566	0.001780	0.666648
