data_functionalizedCrystal
_audit_creation_method	'MofGen! by Chris Wilmer'
_symmetry_space_group_name_H-M	'P1'
_symmetry_Int_Tables_number	1
_symmetry_cell_setting	triclinic
loop_
_symmetry_equiv_pos_as_xyz
  x,y,z
_cell_length_a	13.897449
_cell_length_b	12.594516
_cell_length_c	12.594510
_cell_angle_alpha	89.968094
_cell_angle_beta	89.978681
_cell_angle_gamma	90.017332
loop_
_atom_site_label
_atom_site_type_symbol
_atom_site_fract_x
_atom_site_fract_y
_atom_site_fract_z
Zn1	Zn	1.474719	-0.423614	-0.601833
Zn2	Zn	1.974719	0.076386	-0.101833
Zn3	Zn	1.474616	-0.601642	-0.423861
Zn4	Zn	1.974616	-0.101642	0.076139
Zn5	Zn	1.313407	-0.423682	-0.423867
Zn6	Zn	1.813407	0.076318	0.076133
Zn7	Zn	1.313395	-0.601555	-0.601796
Zn8	Zn	1.813395	-0.101555	-0.101796
O9	O	1.394034	-0.512623	-0.512839
O10	O	1.894034	-0.012623	-0.012839
O11	O	1.609687	-0.447238	-0.578238
O12	O	2.109687	0.052762	-0.078238
O13	O	1.453193	-0.578100	-0.274916
O14	O	1.953193	-0.078100	0.225084
O15	O	1.334853	-0.274727	-0.447493
O16	O	1.834853	0.225273	0.052507
O17	O	1.609611	-0.578034	-0.447483
O18	O	2.109611	-0.078034	0.052517
O19	O	1.453369	-0.274677	-0.578244
O20	O	1.953369	0.225323	-0.078244
O21	O	1.334753	-0.447353	-0.274920
O22	O	1.834753	0.052647	0.225080
O23	O	1.178423	-0.447269	-0.447456
O24	O	1.678423	0.052731	0.052544
O25	O	1.334833	-0.577886	-0.750747
O26	O	1.834833	-0.077886	-0.250747
O27	O	1.178415	-0.577951	-0.578180
O28	O	1.678415	-0.077951	-0.078180
O29	O	1.453357	-0.447153	-0.750774
O30	O	1.953357	0.052847	-0.250774
O31	O	1.453182	-0.750576	-0.447446
O32	O	1.953182	-0.250576	0.052554
O33	O	1.334733	-0.750512	-0.578174
O34	O	1.834733	-0.250512	-0.078174
C35	C	1.143420	-0.512609	-0.512815
C36	C	1.643420	-0.012609	-0.012815
C37	C	1.036206	-0.512628	-0.512830
C38	C	1.536206	-0.012628	-0.012830
C39	C	1.393971	-0.789164	-0.512829
C40	C	1.893971	-0.289164	-0.012829
C41	C	1.394032	-0.907469	-0.512860
C42	C	1.894032	-0.407469	-0.012860
C43	C	0.839911	-0.512632	-0.512858
C44	C	1.339911	-0.012632	-0.012858
C45	C	0.949143	-0.512627	-0.512839
C46	C	1.449143	-0.012627	-0.012839
C47	C	1.329602	-0.976726	-0.583913
C48	C	1.829602	-0.476726	-0.083913
C49	C	1.306097	-1.047602	-0.486790
C50	C	1.806097	-0.547602	0.013210
C51	C	1.417624	-1.047393	-0.609999
C52	C	1.917624	-0.547393	-0.109999
C53	C	1.370481	-0.976787	-0.415686
C54	C	1.870481	-0.476787	0.084314
C55	C	1.482049	-0.976571	-0.538960
C56	C	1.982049	-0.476571	-0.038960
C57	C	1.458578	-1.047415	-0.441771
C58	C	1.958578	-0.547415	0.058229
C59	C	1.645627	-0.512638	-0.512864
C60	C	2.145627	-0.012638	-0.012864
C61	C	1.752841	-0.512644	-0.512875
C62	C	2.252841	-0.012644	-0.012875
C63	C	1.394105	-0.512502	-0.790460
C64	C	1.894105	-0.012502	-0.290460
C65	C	1.394135	-0.512451	-0.908766
C66	C	1.894135	-0.012451	-0.408766
C67	C	1.394124	-0.235002	-0.512873
C68	C	1.894124	0.264998	-0.012873
C69	C	1.394162	-0.116697	-0.512887
C70	C	1.894162	0.383303	-0.012887
C71	C	1.458624	-0.441324	-1.048798
C72	C	1.958624	0.058676	-0.548798
C73	C	1.482175	-0.538444	-0.977980
C74	C	1.982175	-0.038444	-0.477980
C75	C	1.370627	-0.415341	-0.978012
C76	C	1.870627	0.084659	-0.478012
C77	C	1.417773	-0.609589	-1.048734
C78	C	1.917773	-0.109589	-0.548734
C79	C	1.306184	-0.486421	-1.048772
C80	C	1.806184	0.013579	-0.548772
C81	C	1.329701	-0.583609	-0.977986
C82	C	1.829701	-0.083609	-0.477986
C83	C	1.394019	-0.512667	-0.236298
C84	C	1.894019	-0.012667	0.263702
C85	C	1.394176	-0.512418	-0.117993
C86	C	1.894176	-0.012418	0.382007
H87	H	1.231723	-1.078825	-0.464737
H88	H	1.731723	-0.578825	0.035263
N89	N	1.580714	-0.567594	-0.936772
N90	N	2.080714	-0.067594	-0.436772
H91	H	1.576074	-0.634369	-0.892619
H92	H	2.076074	-0.134369	-0.392619
H93	H	1.625586	-0.580082	-0.998610
H94	H	2.125586	-0.080082	-0.498610
N95	N	1.580540	-0.935201	-0.568227
N96	N	2.080540	-0.435201	-0.068227
H97	H	1.629449	-0.962035	-0.515342
H98	H	2.129449	-0.462035	-0.015342
H99	H	1.598169	-0.960843	-0.641665
H100	H	2.098169	-0.460843	-0.141665
H101	H	1.513121	-1.078257	-0.381626
H102	H	2.013121	-0.578257	0.118374
N103	N	1.443990	-1.088488	-0.718793
N104	N	1.943990	-0.588488	-0.218793
H105	H	1.395223	-1.062774	-0.772391
H106	H	1.895223	-0.562774	-0.272391
H107	H	1.509967	-1.061533	-0.738958
H108	H	2.009967	-0.561533	-0.238958
N109	N	1.444244	-0.718389	-1.089698
N110	N	1.944244	-0.218389	-0.589698
H111	H	1.444123	-0.717698	-1.169889
H112	H	1.944123	-0.217698	-0.669889
H113	H	1.510462	-0.738136	-1.063245
H114	H	2.010462	-0.238136	-0.563245
N115	N	1.257297	-0.935599	-0.663378
N116	N	1.757297	-0.435599	-0.163378
H117	H	1.258192	-0.855411	-0.663280
H118	H	1.758192	-0.355411	-0.163280
H119	H	1.274421	-0.962458	-0.736525
H120	H	1.774421	-0.462458	-0.236525
H121	H	1.513184	-0.381263	-1.079888
H122	H	2.013184	0.118737	-0.579888
N123	N	1.344264	-0.306578	-0.936866
N124	N	1.844264	0.193422	-0.436866
H125	H	1.278290	-0.286374	-0.963724
H126	H	1.778290	0.213626	-0.463724
H127	H	1.343888	-0.307638	-0.856683
H128	H	1.843888	0.192362	-0.356683
N129	N	1.257486	-0.663348	-0.937047
N130	N	1.757486	-0.163348	-0.437047
H131	H	1.275384	-0.736625	-0.962909
H132	H	1.775384	-0.236625	-0.462909
H133	H	1.257504	-0.662394	-0.856863
H134	H	1.757504	-0.162394	-0.356863
N135	N	1.344009	-0.935881	-0.306853
N136	N	1.844009	-0.435881	0.193147
H137	H	1.283792	-0.891294	-0.311963
H138	H	1.783792	-0.391294	0.188037
H139	H	1.332148	-0.997855	-0.257632
H140	H	1.832148	-0.497855	0.242368
H141	H	1.231810	-0.464383	-1.079893
H142	H	1.731810	0.035617	-0.579893
