data_functionalizedCrystal
_audit_creation_method	'MofGen! by Chris Wilmer'
_symmetry_space_group_name_H-M	'P1'
_symmetry_Int_Tables_number	1
_symmetry_cell_setting	triclinic
loop_
_symmetry_equiv_pos_as_xyz
  x,y,z
_cell_length_a	12.594517
_cell_length_b	17.077402
_cell_length_c	17.077396
_cell_angle_alpha	89.970216
_cell_angle_beta	90.019909
_cell_angle_gamma	89.977317
loop_
_atom_site_label
_atom_site_type_symbol
_atom_site_fract_x
_atom_site_fract_y
_atom_site_fract_z
Zn1	Zn	1.627202	0.312512	0.443844
Zn2	Zn	2.127202	0.812512	0.943844
Zn3	Zn	1.627076	0.443787	0.312575
Zn4	Zn	2.127076	0.943787	0.812575
Zn5	Zn	1.449210	0.312539	0.312591
Zn6	Zn	1.949210	0.812539	0.812591
Zn7	Zn	1.449166	0.443740	0.443798
Zn8	Zn	1.949166	0.943740	0.943798
O9	O	1.538163	0.378145	0.378202
O10	O	2.038163	0.878145	0.878202
O11	O	1.776131	0.329935	0.426444
O12	O	2.276131	0.829935	0.926444
O13	O	1.603447	0.426408	0.202730
O14	O	2.103447	0.926408	0.702730
O15	O	1.472892	0.202688	0.330028
O16	O	1.972892	0.702688	0.830028
O17	O	1.776038	0.426382	0.330001
O18	O	2.276038	0.926382	0.830001
O19	O	1.603661	0.202669	0.426459
O20	O	2.103661	0.702669	0.926459
O21	O	1.472770	0.329980	0.202742
O22	O	1.972770	0.829980	0.702742
O23	O	1.300258	0.329934	0.329983
O24	O	1.800258	0.829934	0.829983
O25	O	1.472818	0.426301	0.553651
O26	O	1.972818	0.926301	1.053651
O27	O	1.300226	0.426327	0.426380
O28	O	1.800226	0.926327	0.926380
O29	O	1.603619	0.329889	0.553685
O30	O	2.103619	0.829889	1.053685
O31	O	1.603405	0.553628	0.329956
O32	O	2.103405	1.053628	0.829956
O33	O	1.472696	0.553593	0.426365
O34	O	1.972696	1.053593	0.926365
C35	C	1.538061	0.582092	0.378171
C36	C	2.038061	1.082092	0.878171
C37	C	1.538114	0.669342	0.378184
C38	C	2.038114	1.169342	0.878184
C39	C	1.261622	0.378129	0.378179
C40	C	1.761622	0.878129	0.878179
C41	C	1.143317	0.378141	0.378188
C42	C	1.643317	0.878141	0.878188
C43	C	1.538228	0.378087	0.582946
C44	C	2.038228	0.878087	1.082946
C45	C	1.538255	0.378062	0.670196
C46	C	2.038255	0.878062	1.170196
C47	C	1.074050	0.325641	0.325857
C48	C	1.574050	0.825641	0.825857
C49	C	1.003228	0.397243	0.306544
C50	C	1.503228	0.897243	0.806544
C51	C	1.003340	0.306575	0.397514
C52	C	1.503340	0.806575	0.897514
C53	C	1.074053	0.449780	0.358837
C54	C	1.574053	0.949780	0.858837
C55	C	1.074171	0.359063	0.449841
C56	C	1.574171	0.859063	0.949841
C57	C	1.003381	0.430714	0.430554
C58	C	1.503381	0.930714	0.930554
C59	C	1.815784	0.378161	0.378226
C60	C	2.315784	0.878161	0.878226
C61	C	1.934090	0.378168	0.378236
C62	C	2.434090	0.878168	0.878236
C63	C	1.538295	0.173400	0.378251
C64	C	2.038295	0.673400	0.878251
C65	C	1.538352	0.086150	0.378271
C66	C	2.038352	0.586150	0.878271
C67	C	1.606244	0.710324	0.328037
C68	C	2.106244	1.210324	0.828037
C69	C	1.606296	0.792305	0.328057
C70	C	2.106296	1.292305	0.828057
C71	C	1.538212	0.833302	0.378220
C72	C	2.038212	1.333302	0.878220
C73	C	1.470079	0.792314	0.428372
C74	C	1.970079	1.292314	0.928372
C75	C	1.470033	0.710335	0.428355
C76	C	1.970033	1.210335	0.928355
C77	C	1.470178	0.963184	0.428402
C78	C	1.970178	1.463184	0.928402
C79	C	1.470222	1.045168	0.428418
C80	C	1.970222	1.545168	0.928418
C81	C	1.606440	1.045154	0.328104
C82	C	2.106440	1.545154	0.828104
C83	C	1.606394	0.963175	0.328087
C84	C	2.106394	1.463175	0.828087
C85	C	1.538260	0.922193	0.378238
C86	C	2.038260	1.422193	0.878238
C87	C	1.538160	0.378145	0.174254
C88	C	2.038160	0.878145	0.674254
C89	C	1.538339	0.377949	0.087005
C90	C	2.038339	0.877949	0.587005
C91	C	1.606366	0.327856	0.711205
C92	C	2.106366	0.827856	1.211205
C93	C	1.606379	0.327830	0.793186
C94	C	2.106379	0.827830	1.293186
C95	C	1.538285	0.378014	0.834156
C96	C	2.038285	0.878014	1.334156
C97	C	1.470167	0.428223	0.793141
C98	C	1.970167	0.928223	1.293141
C99	C	1.470150	0.428244	0.711162
C100	C	1.970150	0.928244	1.211162
C101	C	1.470210	0.428175	0.964011
C102	C	1.970210	0.928175	1.464011
C103	C	1.470228	0.428155	1.045996
C104	C	1.970228	0.928155	1.545996
C105	C	1.606439	0.327761	1.046035
C106	C	2.106439	0.827761	1.546035
C107	C	1.606422	0.327783	0.964056
C108	C	2.106422	0.827783	1.464056
C109	C	1.538304	0.377992	0.923047
C110	C	2.038304	0.877992	1.423047
H111	H	1.105080	0.281288	0.281549
H112	H	1.605080	0.781288	0.781549
H113	H	0.972069	0.413396	0.245969
H114	H	1.472069	0.913396	0.745969
C115	C	1.681374	1.090231	0.272930
C116	C	2.181374	1.590231	0.772930
H117	H	1.671657	1.144926	0.280125
H118	H	2.171657	1.644926	0.780125
H119	H	1.665812	1.076838	0.220179
H120	H	2.165812	1.576838	0.720179
H121	H	1.752882	1.076748	0.284455
H122	H	2.252882	1.576748	0.784455
H123	H	1.104985	0.510332	0.342443
H124	H	1.604985	1.010332	0.842443
H125	H	1.105356	0.342889	0.510397
H126	H	1.605356	0.842889	1.010397
H127	H	1.414676	0.469119	0.677773
H128	H	1.914676	0.969119	1.177773
C129	C	0.961713	0.490771	0.490362
C130	C	1.461713	0.990771	0.990362
H131	H	0.986056	0.541573	0.476522
H132	H	1.486056	1.041573	0.976522
H133	H	0.987077	0.477644	0.541091
H134	H	1.487077	0.977644	1.041091
H135	H	0.886288	0.490158	0.490356
H136	H	1.386288	0.990158	0.990356
H137	H	0.972222	0.246048	0.413814
H138	H	1.472222	0.746048	0.913814
H139	H	1.661828	0.929796	0.287237
H140	H	2.161828	1.429796	0.787237
H141	H	1.414802	1.078545	0.469279
H142	H	1.914802	1.578545	0.969279
C143	C	1.681139	0.665235	0.272859
C144	C	2.181139	1.165235	0.772859
H145	H	1.721729	0.701387	0.243002
H146	H	2.221729	1.201387	0.743002
H147	H	1.640437	0.633303	0.238621
H148	H	2.140437	1.133303	0.738621
H149	H	1.727477	0.633208	0.302918
H150	H	2.227477	1.133208	0.802918
H151	H	1.414699	0.929818	0.469243
H152	H	1.914699	1.429818	0.969243
C153	C	1.681379	0.272541	1.091142
C154	C	2.181379	0.772541	1.591142
H155	H	1.671635	0.279711	1.145833
H156	H	2.171635	0.779711	1.645833
H157	H	1.752877	0.284051	1.077709
H158	H	2.252877	0.784051	1.577709
H159	H	1.665845	0.219795	1.077721
H160	H	2.165845	0.719795	1.577721
H161	H	1.661773	0.825669	0.287223
H162	H	2.161773	1.325669	0.787223
H163	H	1.414649	0.825700	0.469219
H164	H	1.914649	1.325700	0.969219
C165	C	1.395093	0.665250	0.483514
C166	C	1.895093	1.165250	0.983514
H167	H	1.404824	0.610556	0.476326
H168	H	1.904824	1.110556	0.976326
H169	H	1.323593	0.678734	0.471984
H170	H	1.823593	1.178734	0.971984
H171	H	1.410647	0.678640	0.536271
H172	H	1.910647	1.178640	1.036271
C173	C	1.395322	0.483352	1.091062
C174	C	1.895322	0.983352	1.591062
H175	H	1.354740	0.513250	1.054898
H176	H	1.854740	1.013250	1.554898
H177	H	1.436019	0.517550	1.123038
H178	H	1.936019	1.017550	1.623038
H179	H	1.348976	0.453302	1.123043
H180	H	1.848976	0.953302	1.623043
H181	H	1.414725	0.469049	0.930624
H182	H	1.914725	0.969049	1.430624
H183	H	1.414720	0.469081	0.826505
H184	H	1.914720	0.969081	1.326505
C185	C	1.681265	0.272649	0.666146
C186	C	2.181265	0.772649	1.166146
H187	H	1.721822	0.242738	0.702314
H188	H	2.221822	0.742738	1.202314
H189	H	1.727618	0.302682	0.634162
H190	H	2.227618	0.802682	1.134162
H191	H	1.640553	0.238450	0.634172
H192	H	2.140553	0.738450	1.134172
H193	H	1.661844	0.286949	0.826572
H194	H	2.161844	0.786949	1.326572
H195	H	1.661875	0.286923	0.930701
H196	H	2.161875	0.786923	1.430701
