data_functionalizedCrystal
_audit_creation_method	'MofGen! by Chris Wilmer'
_symmetry_space_group_name_H-M	'P1'
_symmetry_Int_Tables_number	1
_symmetry_cell_setting	triclinic
loop_
_symmetry_equiv_pos_as_xyz
  x,y,z
_cell_length_a	30.700809
_cell_length_b	30.711276
_cell_length_c	30.700862
_cell_angle_alpha	59.998386
_cell_angle_beta	89.999414
_cell_angle_gamma	60.000191
loop_
_atom_site_label
_atom_site_type_symbol
_atom_site_fract_x
_atom_site_fract_y
_atom_site_fract_z
O1	O	-0.371254	-0.311651	0.012944
O2	O	-0.307913	-0.222487	-0.012907
O3	O	-0.307911	-0.311650	0.076286
O4	O	-0.371257	-0.222488	-0.076249
O5	O	-0.235466	-0.384070	0.076286
O6	O	-0.235468	-0.294907	-0.012907
O7	O	-0.298809	-0.384071	0.012944
Cu8	Cu	-0.260524	-0.346102	0.000018
Cu9	Cu	-0.346199	-0.260456	0.000019
O10	O	-0.298812	-0.294908	-0.076249
C11	C	-0.234796	-0.137097	-0.018777
C12	C	-0.261674	-0.083360	-0.015076
C13	C	-0.182374	-0.163176	-0.019143
C14	C	-0.234798	-0.215942	-0.018783
C15	C	-0.261678	-0.246507	-0.015089
C16	C	-0.182376	-0.241901	-0.019150
C17	C	-0.155920	-0.215947	-0.018777
C18	C	-0.098463	-0.246515	-0.015075
C19	C	-0.261132	-0.163172	-0.019150
C20	C	-0.574961	-0.535511	0.039265
C21	C	-0.548506	-0.588283	0.039634
C22	C	-0.496086	-0.535509	0.039262
C23	C	-0.469751	-0.588281	0.039632
C24	C	-0.496085	-0.614360	0.039265
C25	C	-0.548507	-0.509552	0.039632
C26	C	-0.765169	-0.393516	0.024987
C27	C	-0.819034	-0.364488	0.020950
C28	C	-0.846055	-0.389406	0.018925
C29	C	-0.904462	-0.357927	0.014538
C30	C	-0.819206	-0.443357	0.020941
C31	C	-0.765344	-0.472385	0.024984
C32	C	-0.738325	-0.447463	0.027007
C33	C	-0.447920	-0.790230	0.024988
C34	C	-0.423094	-0.840041	0.020951
C35	C	-0.371150	-0.865027	0.018921
C36	C	-0.344230	-0.919028	0.014536
C37	C	-0.344030	-0.840201	0.020935
C38	C	-0.368852	-0.790399	0.024981
C39	C	-0.420803	-0.765414	0.027004
C40	C	-0.447922	-0.393510	0.024977
C41	C	-0.423099	-0.364475	0.020931
C42	C	-0.371152	-0.389391	0.018903
C43	C	-0.344235	-0.357911	0.014513
C44	C	-0.344034	-0.443338	0.020916
C45	C	-0.368860	-0.472368	0.024960
C46	C	-0.420804	-0.447452	0.026995
C47	C	-0.679920	-0.478941	0.031387
C48	C	-0.633366	-0.504032	0.034880
C49	C	-0.469171	-0.504029	0.034875
C50	C	-0.447717	-0.478936	0.031380
C51	C	-0.469170	-0.668361	0.034880
C52	C	-0.447716	-0.711408	0.031386
C53	C	-0.496432	-0.071057	-0.503890
C54	C	-0.548853	-0.018285	-0.530226
C55	C	-0.496432	-0.071056	-0.425015
C56	C	-0.548854	-0.018284	-0.451470
C57	C	-0.575308	0.007793	-0.503892
C58	C	-0.470097	-0.097014	-0.451469
C59	C	-0.368666	-0.213054	-0.552051
C60	C	-0.343664	-0.242084	-0.576877
C61	C	-0.370616	-0.217167	-0.628824
C62	C	-0.343513	-0.248647	-0.655741
C63	C	-0.422570	-0.163216	-0.655945
C64	C	-0.447565	-0.134187	-0.631122
C65	C	-0.420611	-0.159108	-0.579173
C66	C	-0.765518	0.183662	-0.631659
C67	C	-0.819384	0.233473	-0.656662
C68	C	-0.846408	0.258459	-0.629712
C69	C	-0.904813	0.312461	-0.656813
C70	C	-0.819559	0.233635	-0.577758
C71	C	-0.765694	0.183833	-0.552761
C72	C	-0.738677	0.158847	-0.579717
C73	C	-0.368668	-0.213052	-0.234803
C74	C	-0.343669	-0.242086	-0.180935
C75	C	-0.370621	-0.217169	-0.153914
C76	C	-0.343519	-0.248648	-0.095506
C77	C	-0.422573	-0.163222	-0.180762
C78	C	-0.447570	-0.134193	-0.234627
C79	C	-0.420610	-0.159111	-0.261646
C80	C	-0.447720	-0.127629	-0.552258
C81	C	-0.469327	-0.102536	-0.530805
C82	C	-0.469328	-0.102535	-0.366609
C83	C	-0.447721	-0.127627	-0.320054
C84	C	-0.633714	0.061794	-0.530997
C85	C	-0.680269	0.104841	-0.552605
O86	O	0.076277	-0.384081	0.012960
O87	O	-0.076257	-0.294916	-0.012894
O88	O	0.012931	-0.384083	0.076300
O89	O	-0.012910	-0.294914	-0.076234
O90	O	0.012933	-0.311666	0.076306
O91	O	-0.076254	-0.222499	-0.012888
O92	O	0.076280	-0.311664	0.012966
Cu93	Cu	0.000013	-0.260469	0.000040
Cu94	Cu	0.000010	-0.346111	0.000033
O95	O	-0.012908	-0.222497	-0.076228
O96	O	-0.298805	0.063292	0.012964
O97	O	-0.235462	-0.063346	-0.012888
O98	O	-0.235465	-0.063353	0.076305
O99	O	-0.298803	0.063300	-0.076229
O100	O	-0.307912	-0.063350	0.076299
O101	O	-0.307909	-0.063342	-0.012895
O102	O	-0.371252	0.063295	0.012958
Cu103	Cu	-0.346196	-0.000023	0.000031
Cu104	Cu	-0.260519	-0.000027	0.000039
O105	O	-0.371250	0.063303	-0.076236
O106	O	-1.076607	0.456783	-0.692421
O107	O	-0.924074	0.330140	-0.629074
O108	O	-1.013262	0.330138	-0.629073
O109	O	-0.987418	0.456785	-0.692422
O110	O	-1.013261	0.330136	-0.701518
O111	O	-0.924072	0.330138	-0.701518
O112	O	-1.076605	0.456781	-0.764865
Cu113	Cu	-1.000338	0.393460	-0.739807
Cu114	Cu	-1.000340	0.393461	-0.654133
O115	O	-0.987417	0.456783	-0.764866
O116	O	-0.307911	-0.311650	-0.764507
O117	O	-0.371254	-0.222491	-0.701165
O118	O	-0.371252	-0.311652	-0.701162
O119	O	-0.307912	-0.222489	-0.764510
O120	O	-0.298806	-0.384074	-0.628716
O121	O	-0.298807	-0.294912	-0.628719
O122	O	-0.235464	-0.384072	-0.692061
Cu123	Cu	-0.260521	-0.346105	-0.653775
Cu124	Cu	-0.346197	-0.260458	-0.739451
O125	O	-0.235466	-0.294910	-0.692064
C126	C	-0.155920	-0.469469	0.234827
C127	C	-0.098464	-0.523208	0.261706
C128	C	-0.182375	-0.443392	0.261162
C129	C	-0.234797	-0.390619	0.155950
C130	C	-0.261676	-0.360052	0.098494
C131	C	-0.261132	-0.364662	0.182405
C132	C	-0.234797	-0.390620	0.234826
C133	C	-0.261675	-0.360052	0.261704
C134	C	-0.182375	-0.443391	0.182406
C135	C	0.018810	-0.390643	0.234846
C136	C	0.015111	-0.360079	0.261727
C137	C	0.019176	-0.443414	0.261179
C138	C	0.018812	-0.390637	0.155967
C139	C	0.015115	-0.360067	0.098511
C140	C	0.019178	-0.443408	0.182420
C141	C	0.018807	-0.469488	0.234841
C142	C	0.015106	-0.523226	0.261717
C143	C	0.019180	-0.364683	0.182425
C144	C	-0.234799	-0.215977	0.234834
C145	C	-0.261678	-0.246545	0.261708
C146	C	-0.182376	-0.241940	0.261172
C147	C	-0.234798	-0.137119	0.155964
C148	C	-0.261676	-0.083372	0.098509
C149	C	-0.182375	-0.163202	0.182421
C150	C	-0.155921	-0.215981	0.234841
C151	C	-0.098464	-0.246554	0.261721
C152	C	-0.261134	-0.163198	0.182415
C153	C	-0.039199	0.007461	-0.503869
C154	C	-0.039568	-0.018614	-0.530207
C155	C	-0.039203	-0.071390	-0.424995
C156	C	-0.039572	-0.097344	-0.451452
C157	C	-0.039201	-0.071385	-0.503874
C158	C	-0.039570	-0.018618	-0.451448
C159	C	-0.024912	0.183325	-0.552025
C160	C	-0.020873	0.233135	-0.576849
C161	C	-0.018844	0.258123	-0.628796
C162	C	-0.014454	0.312124	-0.655711
C163	C	-0.020859	0.233301	-0.655918
C164	C	-0.024906	0.183500	-0.631097
C165	C	-0.026932	0.158512	-0.579148
C166	C	-0.024920	-0.133799	-0.631644
C167	C	-0.020882	-0.162650	-0.656647
C168	C	-0.018855	-0.216605	-0.629699
C169	C	-0.014470	-0.247897	-0.656801
C170	C	-0.020872	-0.241704	-0.577746
C171	C	-0.024919	-0.212847	-0.552747
C172	C	-0.026939	-0.158893	-0.579702
C173	C	-0.024929	-0.133823	-0.234783
C174	C	-0.020887	-0.162684	-0.180915
C175	C	-0.018862	-0.216639	-0.153896
C176	C	-0.014477	-0.247936	-0.095488
C177	C	-0.020875	-0.241733	-0.180745
C178	C	-0.024915	-0.212872	-0.234610
C179	C	-0.026947	-0.158912	-0.261627
C180	C	-0.031316	0.104507	-0.552235
C181	C	-0.034811	0.061462	-0.530782
C182	C	-0.034820	-0.102682	-0.366590
C183	C	-0.031328	-0.127624	-0.320035
C184	C	-0.034816	-0.102672	-0.530980
C185	C	-0.031322	-0.127610	-0.552588
O186	O	-0.012940	-0.294936	0.371303
O187	O	0.012923	-0.384099	0.307961
O188	O	-0.076273	-0.294935	0.307950
O189	O	0.076257	-0.384100	0.371315
O190	O	-0.076265	-0.222515	0.235508
O191	O	0.012932	-0.311679	0.235520
O192	O	-0.012931	-0.222517	0.298862
Cu193	Cu	0.000001	-0.260485	0.260576
Cu194	Cu	-0.000009	-0.346130	0.346247
O195	O	0.076266	-0.311681	0.298873
C196	C	-0.574962	0.464558	-0.503864
C197	C	-0.548506	0.490518	-0.530195
C198	C	-0.496085	0.385697	-0.424987
C199	C	-0.469749	0.411776	-0.451438
C200	C	-0.496084	0.464555	-0.503857
C201	C	-0.548507	0.411779	-0.451444
C202	C	-0.765173	0.526994	-0.552039
C203	C	-0.819039	0.555852	-0.576867
C204	C	-0.846061	0.609814	-0.628812
C205	C	-0.904469	0.641114	-0.655732
C206	C	-0.819211	0.634913	-0.655928
C207	C	-0.765348	0.606050	-0.631102
C208	C	-0.738329	0.552088	-0.579155
C209	C	-0.447916	0.606561	-0.631604
C210	C	-0.423088	0.635592	-0.656601
C211	C	-0.371143	0.610674	-0.629648
C212	C	-0.344222	0.642150	-0.656742
C213	C	-0.344023	0.556716	-0.577696
C214	C	-0.368845	0.527681	-0.552704
C215	C	-0.420798	0.552613	-0.579664
C216	C	-0.447920	0.209802	-0.234786
C217	C	-0.423096	0.159988	-0.180919
C218	C	-0.371148	0.134996	-0.153895
C219	C	-0.344230	0.080987	-0.095489
C220	C	-0.344029	0.159823	-0.180737
C221	C	-0.368856	0.209637	-0.234602
C222	C	-0.420801	0.234620	-0.261624
C223	C	-0.679923	0.520797	-0.552238
C224	C	-0.633367	0.495853	-0.530781
C225	C	-0.469169	0.331687	-0.366583
C226	C	-0.447714	0.288634	-0.320030
C227	C	-0.469167	0.496035	-0.530956
C228	C	-0.447712	0.521128	-0.552558
H229	H	-0.426680	-0.610102	0.040221
O230	O	-0.498394	-0.369204	0.026914
C231	C	-0.574190	-0.287931	0.026517
C232	C	-0.517037	-0.315382	0.024311
H233	H	-0.589276	-0.244418	0.024424
H234	H	-0.601423	-0.276096	-0.008636
H235	H	-0.574168	-0.322988	0.065437
H236	H	-0.517009	-0.280355	-0.014587
H237	H	-0.489829	-0.327231	0.059490
H238	H	-0.301723	0.536422	-0.555753
H239	H	-0.161134	-0.465220	0.304234
H240	H	0.019773	-0.322218	0.161189
O241	O	-0.739263	0.159311	-0.657787
C242	C	-0.690430	0.069290	-0.658493
C243	C	-0.720169	0.096793	-0.628860
H244	H	-0.674975	0.018737	-0.635112
H245	H	-0.718844	0.095539	-0.699916
H246	H	-0.655420	0.073228	-0.662372
H247	H	-0.755178	0.092860	-0.624940
H248	H	-0.691720	0.070539	-0.587454
H249	H	0.019779	-0.465234	0.161179
H250	H	0.019760	-0.465234	0.304248
O251	O	-0.739579	0.159618	-0.502273
C252	C	-0.691040	0.069800	-0.411399
C253	C	-0.720588	0.097141	-0.468556
H254	H	-0.675688	0.019288	-0.384121
H255	H	-0.655987	0.073649	-0.411304
H256	H	-0.719608	0.096241	-0.396452
H257	H	-0.692063	0.070721	-0.483538
H258	H	-0.755649	0.093302	-0.468618
H259	H	-0.161128	-0.465208	0.161163
H260	H	-0.161141	-0.284407	0.304244
H261	H	-0.489870	-0.090268	-0.256484
O262	O	-0.573766	-0.458941	0.040409
C263	C	-0.573947	-0.415314	0.087435
C264	C	-0.545281	-0.472669	0.086615
H265	H	-0.550935	-0.426397	0.124794
H266	H	-0.576110	-0.375946	0.050530
H267	H	-0.616044	-0.401149	0.087601
H268	H	-0.503171	-0.486889	0.086467
H269	H	-0.543161	-0.512001	0.123517
H270	H	-0.161136	-0.141377	0.161182
H271	H	-0.304205	-0.141373	0.161175
O272	O	-0.040320	-0.147976	-0.426054
C273	C	-0.041366	-0.222819	-0.345290
C274	C	-0.040521	-0.165481	-0.373988
H275	H	-0.041517	-0.236997	-0.303186
H276	H	-0.078712	-0.211771	-0.368291
H277	H	-0.004453	-0.262167	-0.343139
H278	H	-0.077408	-0.126108	-0.376147
H279	H	-0.003151	-0.176580	-0.350977
H280	H	-0.161137	-0.141349	-0.019737
O281	O	-0.342568	0.233840	-0.260674
C282	C	-0.341574	0.323677	-0.309261
C283	C	-0.371394	0.296342	-0.279739
H284	H	-0.364873	0.374216	-0.324693
H285	H	-0.300188	0.297305	-0.280711
H286	H	-0.337602	0.319751	-0.344272
H287	H	-0.375406	0.300263	-0.244729
H288	H	-0.412762	0.322719	-0.308324
O289	O	-0.312548	-0.137051	-0.019959
C290	C	-0.403203	-0.046565	-0.066959
C291	C	-0.345001	-0.076073	-0.066113
H292	H	-0.429456	0.002745	-0.104266
H293	H	-0.417599	-0.074238	-0.067203
H294	H	-0.405634	-0.046346	-0.030009
H295	H	-0.342525	-0.076297	-0.103057
H296	H	-0.330631	-0.048390	-0.065843
H297	H	-0.301369	-0.286012	-0.159078
H298	H	-0.743490	0.626486	-0.653184
O299	O	-0.573756	0.541167	-0.581584
C300	C	-0.567849	0.616024	-0.657471
C301	C	-0.539190	0.558659	-0.599280
H302	H	-0.539919	0.630192	-0.671792
H303	H	-0.579818	0.605014	-0.683788
H304	H	-0.605047	0.655365	-0.659898
H305	H	-0.501974	0.519293	-0.596801
H306	H	-0.527261	0.569721	-0.572989
O307	O	-0.448736	-0.138932	-0.706438
C308	C	-0.491703	-0.051411	-0.798459
C309	C	-0.462062	-0.078846	-0.741302
H310	H	-0.502495	-0.002823	-0.826660
H311	H	-0.464924	-0.081383	-0.811584
H312	H	-0.529669	-0.049707	-0.799438
H313	H	-0.424096	-0.080553	-0.740279
H314	H	-0.488878	-0.048865	-0.728201
H315	H	-0.445180	-0.860248	0.019309
O316	O	-0.845195	0.531581	-0.550554
C317	C	-0.918035	0.547263	-0.515818
C318	C	-0.888471	0.574830	-0.545637
H319	H	-0.953023	0.582213	-0.511824
H320	H	-0.933484	0.535417	-0.539079
H321	H	-0.889455	0.503726	-0.474440
H322	H	-0.917019	0.618384	-0.587016
H323	H	-0.873014	0.586633	-0.522336
O324	O	-0.293229	-0.294536	-0.550555
C325	C	-0.236068	-0.402079	-0.515805
C326	C	-0.293209	-0.342719	-0.545635
H327	H	-0.236035	-0.441054	-0.511808
H328	H	-0.208763	-0.394271	-0.539059
H329	H	-0.221108	-0.414866	-0.474428
H330	H	-0.308218	-0.329899	-0.587013
H331	H	-0.320478	-0.350558	-0.522340
H332	H	-0.040160	0.003216	-0.573279
O333	O	-0.739179	-0.524807	0.026972
C334	C	-0.656283	-0.604454	0.033158
C335	C	-0.685846	-0.545099	0.030926
H336	H	-0.613161	-0.620871	0.036343
H337	H	-0.657061	-0.641642	0.069408
H338	H	-0.676758	-0.594764	-0.004669
H339	H	-0.665394	-0.554729	0.068726
H340	H	-0.685072	-0.507930	-0.005349
O341	O	-0.845546	0.687350	-0.706371
C342	C	-0.928601	0.766842	-0.779664
C343	C	-0.898845	0.707464	-0.722532
H344	H	-0.971695	0.783115	-0.792751
H345	H	-0.927900	0.804097	-0.780672
H346	H	-0.908219	0.757247	-0.807879
H347	H	-0.919204	0.716999	-0.694283
H348	H	-0.899542	0.670227	-0.721566
O349	O	-0.157065	-0.292608	-0.019787
C350	C	-0.125657	-0.398656	0.025151
C351	C	-0.154342	-0.341275	0.025931
H352	H	-0.123436	-0.438023	0.062115
H353	H	-0.148680	-0.387661	-0.012150
H354	H	-0.083580	-0.412776	0.024925
H355	H	-0.196419	-0.327126	0.026176
H356	H	-0.131278	-0.352302	0.063228
H357	H	-0.040120	0.003178	-0.430195
O358	O	-0.018962	-0.138211	-0.154922
C359	C	-0.019380	-0.056774	-0.160770
C360	C	-0.021572	-0.084419	-0.190272
H361	H	-0.021478	-0.013286	-0.189334
H362	H	-0.054535	-0.044853	-0.145387
H363	H	0.019537	-0.091748	-0.125731
H364	H	-0.060467	-0.049475	-0.225333
H365	H	0.013609	-0.096354	-0.205617
O366	O	-0.573780	-0.614416	0.040441
C367	C	-0.573894	-0.704919	0.087447
C368	C	-0.545232	-0.675390	0.086603
H369	H	-0.550819	-0.754226	0.124759
H370	H	-0.615981	-0.677252	0.087677
H371	H	-0.576083	-0.705152	0.050502
H372	H	-0.543003	-0.675152	0.123541
H373	H	-0.503161	-0.703066	0.086346
H374	H	-0.026581	-0.089888	-0.256777
O375	O	-0.449453	-0.312012	0.018878
C376	C	-0.484131	-0.204491	-0.031509
C377	C	-0.454291	-0.263856	-0.029261
H378	H	-0.488042	-0.165544	-0.070420
H379	H	-0.525539	-0.191619	-0.029397
H380	H	-0.460867	-0.212376	0.003653
H381	H	-0.477510	-0.256017	-0.064416
H382	H	-0.412880	-0.276710	-0.031347
O383	O	-0.573922	0.385841	-0.426136
C384	C	-0.648594	0.399363	-0.394723
C385	C	-0.619876	0.428817	-0.423406
H386	H	-0.685747	0.434091	-0.392497
H387	H	-0.660626	0.385100	-0.417752
H388	H	-0.620640	0.357068	-0.352648
H389	H	-0.647800	0.471132	-0.465482
H390	H	-0.607835	0.443036	-0.400337
O391	O	-0.312487	-0.313943	0.156992
C392	C	-0.373605	-0.207881	0.082326
C393	C	-0.315434	-0.265284	0.111041
H394	H	-0.376004	-0.168521	0.045176
H395	H	-0.399928	-0.218846	0.070288
H396	H	-0.387944	-0.193767	0.110284
H397	H	-0.301046	-0.279427	0.083112
H398	H	-0.289146	-0.254287	0.123088
O399	O	-0.026903	0.159148	-0.501572
C400	C	-0.026461	0.164217	-0.425757
C401	C	-0.024216	0.191669	-0.482896
H402	H	-0.024278	0.190490	-0.410636
H403	H	-0.065396	0.168129	-0.425751
H404	H	0.008672	0.113673	-0.398565
H405	H	-0.059321	0.242220	-0.510120
H406	H	0.014741	0.187709	-0.482860
H407	H	-0.019230	0.253339	-0.554762
H408	H	-0.019210	0.253653	-0.698214
O409	O	-0.026834	0.159446	-0.657508
C410	C	-0.026423	0.164887	-0.738561
C411	C	-0.024225	0.192180	-0.708708
H412	H	-0.024326	0.191348	-0.779965
H413	H	0.008730	0.114365	-0.715334
H414	H	-0.065342	0.168768	-0.742494
H415	H	0.014671	0.188343	-0.704768
H416	H	-0.059405	0.242689	-0.731946
H417	H	-0.426677	0.389946	-0.430194
H418	H	-0.346709	-0.233340	-0.256801
O419	O	-0.342521	-0.766239	0.026838
C420	C	-0.299365	-0.717482	-0.017780
C421	C	-0.329190	-0.744813	-0.019953
H422	H	-0.288568	-0.700164	-0.055601
H423	H	-0.326018	-0.677560	-0.014580
H424	H	-0.261391	-0.754535	0.018473
H425	H	-0.367164	-0.707805	-0.056203
H426	H	-0.302499	-0.784749	-0.023126
O427	O	-0.026906	-0.081375	-0.657912
C428	C	-0.026460	-0.006029	-0.738799
C429	C	-0.024218	-0.065391	-0.709120
H430	H	-0.024276	0.006904	-0.780201
H431	H	-0.065394	0.032900	-0.742719
H432	H	0.008674	-0.013972	-0.715428
H433	H	-0.059325	-0.057509	-0.732466
H434	H	0.014738	-0.104301	-0.705194
H435	H	-0.019237	-0.142213	-0.698946
O436	O	-0.018976	-0.294068	-0.551649
C437	C	-0.060275	-0.343519	-0.550928
C438	C	-0.062482	-0.284179	-0.580543
H439	H	-0.095451	-0.335541	-0.574271
H440	H	-0.021371	-0.382431	-0.547065
H441	H	-0.062388	-0.356506	-0.509498
H442	H	-0.060391	-0.271136	-0.621987
H443	H	-0.101384	-0.245303	-0.584363
O444	O	-0.026849	-0.237322	-0.502273
C445	C	-0.026445	-0.318755	-0.426662
C446	C	-0.024245	-0.291109	-0.483818
H447	H	-0.024352	-0.362239	-0.411728
H448	H	0.008708	-0.330682	-0.399347
H449	H	-0.065364	-0.283778	-0.426614
H450	H	0.014651	-0.326056	-0.483918
H451	H	-0.059425	-0.279168	-0.511109
O452	O	-0.498373	-0.766057	0.026978
C453	C	-0.574184	-0.771134	0.026540
C454	C	-0.517045	-0.798581	0.024294
H455	H	-0.589301	-0.797410	0.024359
H456	H	-0.574190	-0.775046	0.065475
H457	H	-0.601376	-0.720591	-0.008594
H458	H	-0.489820	-0.849132	0.059401
H459	H	-0.517081	-0.794622	-0.014663
O460	O	-0.026886	-0.237316	-0.260615
C461	C	-0.026404	-0.318793	-0.254751
C462	C	-0.024186	-0.291164	-0.225242
H463	H	-0.024211	-0.362341	-0.226162
H464	H	-0.065335	-0.283877	-0.289769
H465	H	0.008733	-0.330636	-0.270164
H466	H	-0.059296	-0.279323	-0.209794
H467	H	0.014767	-0.326097	-0.190250
H468	H	-0.743175	-0.373219	0.026636
O469	O	-0.018936	-0.294128	-0.154430
C470	C	-0.012698	-0.373630	-0.071372
C471	C	-0.014896	-0.314295	-0.101109
H472	H	-0.009420	-0.389961	-0.028254
H473	H	-0.050535	-0.364037	-0.091705
H474	H	0.023531	-0.410847	-0.072138
H475	H	-0.051101	-0.277051	-0.100352
H476	H	0.022965	-0.323938	-0.080767
O477	O	-0.449506	0.135931	-0.154932
C478	C	-0.530559	0.141371	-0.160788
C479	C	-0.500706	0.168667	-0.190285
H480	H	-0.571964	0.167835	-0.189355
H481	H	-0.507334	0.090851	-0.145407
H482	H	-0.534491	0.145245	-0.125747
H483	H	-0.496767	0.164837	-0.225347
H484	H	-0.523943	0.219175	-0.205627
O485	O	-0.845040	-0.312070	0.018968
C486	C	-0.839179	-0.236922	0.019424
C487	C	-0.809667	-0.296281	0.021663
H488	H	-0.810589	-0.224146	0.021613
H489	H	-0.874191	-0.197921	-0.019512
H490	H	-0.854599	-0.244781	0.054556
H491	H	-0.794211	-0.288483	-0.013442
H492	H	-0.774680	-0.335262	0.060621
O493	O	-0.498345	0.234025	-0.261081
C494	C	-0.555419	0.256709	-0.334169
C495	C	-0.498286	0.229242	-0.304431
H496	H	-0.555391	0.252863	-0.369230
H497	H	-0.570553	0.230409	-0.305763
H498	H	-0.582617	0.307236	-0.349549
H499	H	-0.471047	0.178719	-0.289048
H500	H	-0.483195	0.255588	-0.332856
O501	O	-0.574148	0.007799	-0.426150
C502	C	-0.574315	0.054929	-0.382633
C503	C	-0.545618	0.025414	-0.411303
H504	H	-0.551255	0.069167	-0.370611
H505	H	-0.616396	0.097231	-0.410562
H506	H	-0.576523	0.020195	-0.345463
H507	H	-0.543371	0.060101	-0.448471
H508	H	-0.503554	-0.016899	-0.383337
O509	O	-0.739002	0.474562	-0.501588
C510	C	-0.744521	0.399209	-0.425783
C511	C	-0.774223	0.458580	-0.482920
H512	H	-0.772987	0.386276	-0.410668
H513	H	-0.709500	0.360284	-0.425781
H514	H	-0.729092	0.407139	-0.398585
H515	H	-0.789686	0.450710	-0.510150
H516	H	-0.809218	0.497484	-0.482879
H517	H	-0.346776	-0.516292	0.026600
H518	H	-0.490215	0.626864	-0.653559
H519	H	-0.445174	0.679524	-0.698898
O520	O	-0.845538	-0.467464	0.018946
C521	C	-0.928587	-0.457718	0.012750
C522	C	-0.898835	-0.430340	0.014992
H523	H	-0.971680	-0.427722	0.009564
H524	H	-0.927892	-0.459437	-0.023503
H525	H	-0.908199	-0.506297	0.050573
H526	H	-0.919202	-0.381750	-0.022804
H527	H	-0.899527	-0.428668	0.051270
O528	O	-0.342437	0.475292	-0.502233
C529	C	-0.261385	0.400101	-0.426617
C530	C	-0.291236	0.459441	-0.483771
H531	H	-0.219979	0.387260	-0.411678
H532	H	-0.284610	0.407934	-0.399303
H533	H	-0.257457	0.361150	-0.426574
H534	H	-0.295171	0.498420	-0.483866
H535	H	-0.267998	0.451557	-0.511061
H536	H	-0.301733	-0.860548	0.019286
O537	O	-0.293560	0.135459	-0.154416
C538	C	-0.220283	0.058673	-0.071349
C539	C	-0.277432	0.086193	-0.101095
H540	H	-0.207229	0.018845	-0.028231
H541	H	-0.192032	0.041176	-0.091675
H542	H	-0.219293	0.095659	-0.072112
H543	H	-0.278473	0.049240	-0.100341
H544	H	-0.305657	0.103705	-0.080760
H545	H	-0.301736	-0.463624	0.019263
H546	H	-0.570087	0.003544	-0.573301
H547	H	-0.346713	-0.233351	-0.509753
O548	O	-0.418705	-0.147657	-0.426214
C549	C	-0.342808	-0.222522	-0.432099
C550	C	-0.401001	-0.165165	-0.460767
H551	H	-0.328479	-0.236703	-0.460019
H552	H	-0.316499	-0.211496	-0.420141
H553	H	-0.340377	-0.261860	-0.394893
H554	H	-0.403483	-0.125802	-0.497991
H555	H	-0.427283	-0.176242	-0.472685
H556	H	-0.841561	0.253985	-0.555818
O557	O	-0.497993	-0.081723	-0.657476
C558	C	-0.555161	0.025796	-0.692148
C559	C	-0.498024	-0.033571	-0.662309
H560	H	-0.555207	0.064739	-0.696055
H561	H	-0.570150	0.038674	-0.733559
H562	H	-0.582435	0.017910	-0.668886
H563	H	-0.470710	-0.025732	-0.685527
H564	H	-0.483079	-0.046431	-0.620895
H565	H	-0.841239	0.253681	-0.698962
H566	H	-0.444519	-0.142934	-0.158758
