data_functionalizedCrystal
_audit_creation_method	'MofGen! by Chris Wilmer'
_symmetry_space_group_name_H-M	'P1'
_symmetry_Int_Tables_number	1
_symmetry_cell_setting	triclinic
loop_
_symmetry_equiv_pos_as_xyz
  x,y,z
_cell_length_a	23.532361
_cell_length_b	23.532407
_cell_length_c	11.804610
_cell_angle_alpha	76.640946
_cell_angle_beta	76.645035
_cell_angle_gamma	82.839173
loop_
_atom_site_label
_atom_site_type_symbol
_atom_site_fract_x
_atom_site_fract_y
_atom_site_fract_z
O1	O	0.745087	0.058806	0.098915
O2	O	0.579217	0.068834	0.098945
O3	O	0.667156	-0.019110	0.098907
O4	O	0.657148	0.146750	0.098953
O5	O	0.687550	0.001314	-0.099137
O6	O	0.599611	0.089258	-0.099099
O7	O	0.765481	0.079230	-0.099130
Cu8	Cu	0.684408	0.086109	-0.117198
Cu9	Cu	0.660290	0.061955	0.117013
O10	O	0.677542	0.167174	-0.099092
C11	C	0.568197	0.078795	-0.000074
C12	C	0.504977	0.078038	-0.000063
C13	C	0.677099	-0.030114	-0.000118
C14	C	0.676334	-0.093330	-0.000127
C15	C	0.220618	0.063603	0.107883
C16	C	0.280017	0.064317	0.107886
O17	O	0.301289	0.055199	0.199695
N18	N	0.320840	0.075811	-0.000068
C19	C	0.302261	0.086586	-0.108033
O20	O	0.342438	0.096428	-0.199856
C21	C	0.242863	0.085867	-0.108035
C22	C	0.202042	0.074378	-0.000073
C23	C	0.179798	0.052114	0.215836
C24	C	0.120402	0.051400	0.215832
C25	C	0.101827	0.062176	0.107876
C26	C	0.142647	0.073664	-0.000077
C27	C	0.224286	0.096637	-0.215998
C28	C	0.164883	0.095917	-0.215991
C29	C	0.124062	0.084428	-0.108029
C30	C	0.064676	0.083726	-0.108037
N31	N	0.023853	0.072232	-0.000082
C32	C	0.042429	0.061457	0.107874
C33	C	0.427000	0.088094	-0.108021
C34	C	0.486396	0.088817	-0.108020
C35	C	0.464149	0.066547	0.107899
C36	C	0.404751	0.065828	0.107897
C37	C	0.386177	0.076599	-0.000066
C38	C	-0.082305	0.059960	0.107858
C39	C	-0.141705	0.059250	0.107845
C40	C	-0.119452	0.081517	-0.108074
C41	C	-0.060057	0.082230	-0.108061
C42	C	-0.041486	0.071448	-0.000086
O43	O	0.043362	0.092837	-0.199799
O44	O	0.002247	0.051609	0.199682
C45	C	0.723562	-0.492446	-0.000070
C46	C	0.722850	-0.551848	-0.000061
O47	O	0.766633	-0.588603	-0.000025
N48	N	0.670571	-0.574466	-0.000053
C49	C	0.619001	-0.537681	-0.000041
O50	O	0.574468	-0.562374	-0.000032
C51	C	0.619713	-0.478282	-0.000042
C52	C	0.671996	-0.455666	-0.000062
C53	C	0.775841	-0.469830	-0.000090
C54	C	0.776553	-0.410433	-0.000101
C55	C	0.724987	-0.373652	-0.000093
C56	C	0.672708	-0.396269	-0.000074
C57	C	0.568142	-0.441499	-0.000022
C58	C	0.568859	-0.382096	-0.000021
C59	C	0.621142	-0.359480	-0.000042
C60	C	0.621855	-0.300091	-0.000077
N61	N	0.674133	-0.277472	-0.000086
C62	C	0.725699	-0.314253	-0.000094
C63	C	0.617509	-0.662423	-0.000038
C64	C	0.616797	-0.721820	-0.000045
C65	C	0.720646	-0.735983	-0.000063
C66	C	0.721358	-0.676584	-0.000064
C67	C	0.669787	-0.639805	-0.000046
C68	C	0.727191	-0.189514	-0.000119
C69	C	0.727900	-0.130110	-0.000135
C70	C	0.624050	-0.115953	-0.000111
C71	C	0.623342	-0.175351	-0.000101
C72	C	0.674917	-0.212131	-0.000101
O73	O	0.578094	-0.263301	-0.000108
O74	O	0.770223	-0.289553	-0.000088
C75	C	0.776501	0.069270	-0.000108
C76	C	0.839719	0.070025	-0.000111
C77	C	0.667599	0.178178	-0.000064
C78	C	0.668363	0.241393	-0.000047
N79	N	0.701375	0.103097	-0.281929
C80	C	0.742142	0.143882	-0.344252
C81	C	0.754995	0.156724	-0.468906
C82	C	0.727079	0.128785	-0.531250
C83	C	0.686308	0.088002	-0.468927
C84	C	0.673457	0.075155	-0.344260
C85	C	0.658394	0.060058	-0.531258
C86	C	0.617623	0.019275	-0.468935
C87	C	0.604774	0.006431	-0.344280
C88	C	0.632690	0.034370	-0.281937
C89	C	0.671245	0.072904	-0.655925
C90	C	0.602560	0.004178	-0.655933
C91	C	0.589707	-0.008664	-0.531278
N92	N	0.643327	0.044963	0.281744
H93	H	-0.067192	0.051182	0.195782
N94	N	0.513232	-0.342433	-0.000023
H95	H	0.518772	-0.309911	-0.073446
H96	H	0.503673	-0.325075	0.073433
H97	H	0.519627	0.098181	-0.195933
N98	N	0.618831	0.020516	-0.147484
H99	H	0.628739	-0.022544	-0.117453
H100	H	0.575767	0.030438	-0.117563
H101	H	0.575512	-0.632479	-0.000033
N102	N	0.715215	0.116892	-0.723119
H103	H	0.695596	0.150231	-0.774848
H104	H	0.748554	0.097235	-0.774761
H105	H	0.770477	-0.111700	-0.000155
N106	N	0.740940	0.142633	-0.665698
H107	H	0.771003	0.172709	-0.695720
H108	H	0.704038	0.158686	-0.695640
N109	N	0.566955	-0.199749	-0.000083
H110	H	0.571901	-0.216518	-0.073489
H111	H	0.534425	-0.167406	-0.000038
N112	N	0.798991	0.200682	-0.536124
H113	H	0.814733	0.216425	-0.477718
H114	H	0.779359	0.233993	-0.587884
H115	H	0.764871	0.166622	-0.293481
N116	N	0.560809	-0.037563	-0.277056
H117	H	0.545074	-0.053314	-0.335462
H118	H	0.527495	-0.017916	-0.225340
N119	N	0.568438	-0.076274	-0.000134
H120	H	0.576828	-0.035214	-0.000148
H121	H	0.538072	-0.091120	0.073284
H122	H	0.769188	-0.219454	-0.000114
N123	N	0.484197	0.054916	0.224335
H124	H	0.473822	0.014614	0.271516
H125	H	0.464177	0.085262	0.271462
N126	N	0.545740	-0.052656	-0.464055
H127	H	0.512393	-0.033045	-0.412338
H128	H	0.565415	-0.085977	-0.412398
N129	N	0.572449	-0.025963	-0.723158
H130	H	0.586775	-0.011636	-0.811586
H131	H	0.528720	-0.016741	-0.701380
N132	N	0.776263	-0.775665	-0.000062
H133	H	0.791527	-0.775992	0.073349
H134	H	0.806609	-0.760840	-0.073530
H135	H	-0.174941	0.049895	0.195764
H136	H	0.819127	-0.392025	-0.000113
N137	N	0.831463	-0.509497	-0.000106
H138	H	0.846731	-0.509820	0.073298
H139	H	0.861800	-0.494658	-0.073580
N140	N	0.076380	0.039000	0.332277
H141	H	0.097169	0.032280	0.400657
H142	H	0.056076	0.002907	0.336964
H143	H	0.371517	0.056473	0.195809
N144	N	0.199827	0.040486	0.332284
H145	H	0.164948	0.033099	0.400660
H146	H	0.219162	0.075608	0.337009
N147	N	0.777750	-0.652197	-0.000083
H148	H	0.772805	-0.635435	0.073331
H149	H	0.787891	-0.620325	-0.073548
N150	N	0.406970	0.099717	-0.224475
H151	H	0.441900	0.106714	-0.292852
H152	H	0.378291	0.135449	-0.229529
H153	H	0.257513	0.105991	-0.303912
H154	H	0.149765	0.104694	-0.303910
H155	H	-0.026820	0.091596	-0.195972
N156	N	-0.139493	0.093141	-0.224508
H157	H	-0.183416	0.091729	-0.208127
H158	H	-0.120043	0.062349	-0.270947
H159	H	0.574225	-0.740227	-0.000049
H160	H	0.525567	-0.459903	0.000003
