data_functionalizedCrystal
_audit_creation_method	'MofGen! by Chris Wilmer'
_symmetry_space_group_name_H-M	'P1'
_symmetry_Int_Tables_number	1
_symmetry_cell_setting	triclinic
loop_
_symmetry_equiv_pos_as_xyz
  x,y,z
_cell_length_a	19.805407
_cell_length_b	12.827892
_cell_length_c	19.805399
_cell_angle_alpha	90.022719
_cell_angle_beta	90.019573
_cell_angle_gamma	90.015392
loop_
_atom_site_label
_atom_site_type_symbol
_atom_site_fract_x
_atom_site_fract_y
_atom_site_fract_z
Zn1	Zn	1.034788	-0.416057	0.382743
Zn2	Zn	1.034724	-0.590812	0.269564
Zn3	Zn	0.921602	-0.416086	0.269567
Zn4	Zn	0.921587	-0.590757	0.382711
O5	O	0.978175	-0.503428	0.326146
O6	O	1.129496	-0.439250	0.367741
O7	O	1.019698	-0.567670	0.174848
O8	O	0.936649	-0.269846	0.284595
O9	O	1.129449	-0.567642	0.284589
O10	O	1.019806	-0.269825	0.367744
O11	O	0.936588	-0.439299	0.174850
O12	O	0.826884	-0.439245	0.284564
O13	O	0.936624	-0.567547	0.477431
O14	O	0.826873	-0.567575	0.367690
O15	O	1.019792	-0.439196	0.477455
O16	O	1.019684	-0.737041	0.284558
O17	O	0.936563	-0.737000	0.367687
C18	C	0.802319	-0.503408	0.326124
C19	C	0.727087	-0.503425	0.326131
C20	C	0.978133	-0.774938	0.326134
C21	C	0.978177	-0.891091	0.326151
C22	C	0.691755	-0.570347	0.369345
C23	C	0.621067	-0.570349	0.369354
C24	C	0.585712	-0.503433	0.326146
C25	C	0.621049	-0.436504	0.282930
C26	C	0.691736	-0.436497	0.282925
C27	C	0.335975	-0.436527	0.282953
C28	C	0.265283	-0.436540	0.282960
C29	C	0.265306	-0.570378	0.369382
C30	C	0.335993	-0.570372	0.369376
C31	C	0.371324	-0.503439	0.326164
C32	C	0.447973	-0.503436	0.326155
C33	C	0.509065	-0.503440	0.326151
C34	C	1.019307	-0.942782	0.367333
C35	C	1.019353	-1.062832	0.367352
C36	C	1.154718	-0.503449	0.326168
C37	C	1.229950	-0.503458	0.326178
C38	C	0.978213	-0.503362	0.502689
C39	C	0.978229	-0.503334	0.577921
C40	C	0.978236	-0.230858	0.326173
C41	C	0.978262	-0.114705	0.326185
C42	C	0.978176	-0.503418	0.150290
C43	C	0.978291	-0.503152	0.075058
C44	C	1.021536	-0.436499	0.613278
C45	C	1.021543	-0.436468	0.683967
C46	C	0.978246	-0.503280	0.719297
C47	C	0.934935	-0.570118	0.683934
C48	C	0.934925	-0.570143	0.613247
C49	C	0.934973	-0.570021	0.969008
C50	C	0.934988	-0.569994	1.039700
C51	C	1.021591	-0.436347	1.039727
C52	C	1.021581	-0.436371	0.969040
C53	C	0.978268	-0.503205	0.933684
C54	C	0.978260	-0.503236	0.857036
C55	C	0.978257	-0.503255	0.795944
H56	H	0.592303	-0.624844	0.404542
H57	H	1.056840	-0.381970	0.940278
H58	H	0.236499	-0.382043	0.247775
H59	H	1.056856	-0.381923	1.068523
H60	H	0.364776	-0.624865	0.404559
N61	N	1.065906	-0.883676	0.414016
H62	H	1.114292	-0.902559	0.403564
H63	H	1.055327	-0.902604	0.462363
H64	H	0.899715	-0.624457	0.940229
H65	H	1.056809	-0.382046	0.712752
H66	H	0.899680	-0.624514	0.712705
H67	H	1.054569	-1.107286	0.402606
N68	N	0.729883	-0.642521	0.415950
H69	H	0.780025	-0.632367	0.409390
H70	H	0.717511	-0.717133	0.405333
N71	N	0.374075	-0.364353	0.236336
H72	H	0.424220	-0.374496	0.242886
H73	H	0.361732	-0.289742	0.246951
N74	N	0.888215	-0.642237	0.575116
H75	H	0.915703	-0.690679	0.545786
H76	H	0.856861	-0.599700	0.545827
H77	H	0.899728	-0.624402	1.068463
H78	H	0.236531	-0.624874	0.404571
N79	N	0.931611	-1.055836	0.279481
H80	H	0.904196	-1.106953	0.252012
H81	H	0.959191	-1.010545	0.248203
N82	N	0.582920	-0.364348	0.236314
H83	H	0.532778	-0.374516	0.242867
H84	H	0.595264	-0.380539	0.187961
H85	H	0.720502	-0.381997	0.247739
N86	N	0.931580	-0.950193	0.279463
H87	H	0.942104	-0.931285	0.231099
H88	H	0.883212	-0.931285	0.289971
N89	N	1.068239	-0.364444	0.575175
H90	H	1.095673	-0.322098	0.608303
H91	H	1.040695	-0.316089	0.545845
