data_functionalizedCrystal
_audit_creation_method	'MofGen! by Chris Wilmer'
_symmetry_space_group_name_H-M	'P1'
_symmetry_Int_Tables_number	1
_symmetry_cell_setting	triclinic
loop_
_symmetry_equiv_pos_as_xyz
  x,y,z
_cell_length_a	19.077105
_cell_length_b	12.645330
_cell_length_c	19.076919
_cell_angle_alpha	87.723750
_cell_angle_beta	89.923776
_cell_angle_gamma	87.714233
loop_
_atom_site_label
_atom_site_type_symbol
_atom_site_fract_x
_atom_site_fract_y
_atom_site_fract_z
Zn1	Zn	1.058309	-0.512860	0.440444
Zn2	Zn	1.062962	-0.683311	0.322946
Zn3	Zn	0.945526	-0.498659	0.318237
Zn4	Zn	0.940784	-0.682672	0.435699
O5	O	1.001896	-0.594376	0.379332
O6	O	1.157259	-0.541682	0.428815
O7	O	1.051316	-0.653141	0.223990
O8	O	0.960524	-0.352199	0.334463
O9	O	1.160677	-0.666911	0.342490
O10	O	1.043386	-0.362632	0.424248
O11	O	0.965036	-0.517478	0.220530
O12	O	0.846565	-0.516858	0.329862
O13	O	0.952442	-0.665822	0.534660
O14	O	0.843081	-0.652051	0.416161
O15	O	1.038788	-0.541062	0.538146
O16	O	1.046718	-0.831570	0.337888
O17	O	0.956954	-0.831101	0.420727
C18	C	0.819326	-0.582845	0.371986
C19	C	0.741222	-0.577939	0.368860
C20	C	0.702735	-0.646120	0.412251
C21	C	0.629348	-0.641496	0.409318
C22	C	0.594448	-0.568695	0.362988
C23	C	0.632940	-0.500507	0.319594
C24	C	0.706326	-0.505126	0.322532
C25	C	0.375159	-0.547316	0.349394
C26	C	0.301768	-0.542704	0.346458
C27	C	0.298181	-0.683692	0.436183
C28	C	0.371569	-0.688309	0.439113
C29	C	0.410054	-0.620117	0.395722
N30	N	0.519434	-0.563970	0.359986
N31	N	0.485066	-0.624839	0.398728
C32	C	1.001845	-0.869801	0.379320
C33	C	1.001886	-0.987635	0.379341
C34	C	0.945633	-1.154972	0.431631
C35	C	0.945363	-1.032385	0.431445
C36	C	0.984820	-1.026659	0.304483
C37	C	0.984477	-1.149256	0.304800
C38	C	1.075561	-1.160522	0.401321
C39	C	1.075039	-1.037980	0.402922
C40	C	1.185178	-0.605952	0.386707
C41	C	1.263281	-0.610885	0.389850
C42	C	0.994567	-0.604955	0.562612
C43	C	0.991444	-0.609463	0.640716
C44	C	1.001965	-0.317876	0.379360
C45	C	1.001995	-0.200049	0.379372
C46	C	1.009236	-0.583764	0.196766
C47	C	1.012495	-0.578966	0.118668
C48	C	1.034930	-0.546628	0.679225
C49	C	1.031987	-0.550859	0.752611
C50	C	0.985561	-0.617932	0.787487
C51	C	0.942070	-0.680769	0.748972
C52	C	0.945010	-0.676531	0.675587
C53	C	0.971944	-0.637565	1.006769
C54	C	0.969009	-0.641800	1.080159
C55	C	1.058925	-0.511889	1.083793
C56	C	1.061864	-0.507662	1.010407
C57	C	1.018371	-0.570495	0.971898
N58	N	0.982553	-0.622261	0.862499
N59	N	1.021376	-0.566159	0.896887
H60	H	0.399979	-0.747594	0.476839
C61	C	0.959296	-0.997024	0.506306
H62	H	0.965171	-1.057622	0.537107
H63	H	1.000644	-0.957595	0.506532
H64	H	0.920649	-0.954053	0.521473
H65	H	0.955843	-1.188371	0.487220
H66	H	1.067399	-0.499695	0.783962
H67	H	0.936539	-0.688744	0.975424
C68	C	0.741119	-0.726199	0.463216
H69	H	0.707684	-0.766135	0.488643
H70	H	0.770812	-0.772575	0.437433
H71	H	0.768532	-0.689283	0.495027
C72	C	0.587017	-0.716557	0.457006
H73	H	0.618314	-0.760603	0.485000
H74	H	0.557155	-0.676108	0.486538
H75	H	0.559476	-0.759305	0.428884
C76	C	1.106761	-0.442771	1.126150
H77	H	1.134834	-0.402224	1.094869
H78	H	1.078747	-0.396537	1.153700
H79	H	1.136225	-0.486915	1.156005
H80	H	1.087964	-1.012952	0.458029
H81	H	1.091711	-1.195605	0.455137
C82	C	0.255846	-0.758686	0.483915
H83	H	0.207141	-0.745506	0.475536
H84	H	0.268273	-0.830049	0.474036
H85	H	0.265999	-0.746754	0.531628
C86	C	1.112933	-0.433883	0.972049
H87	H	1.138408	-0.397061	1.005494
H88	H	1.144684	-0.474719	0.944652
H89	H	1.087209	-0.384338	0.942342
C90	C	0.263379	-0.462614	0.295497
H91	H	0.296809	-0.422655	0.270081
H92	H	0.235964	-0.499518	0.263687
H93	H	0.233687	-0.416245	0.321293
C94	C	0.917937	-0.715580	1.118521
H95	H	0.892450	-0.752388	1.085077
H96	H	0.943658	-0.765121	1.148225
H97	H	0.886185	-0.674737	1.145920
C98	C	0.748664	-0.430130	0.274802
H99	H	0.797368	-0.443299	0.283192
H100	H	0.738516	-0.442044	0.227089
H101	H	0.736235	-0.358767	0.284692
H102	H	0.909592	-0.727687	0.644233
C103	C	0.417484	-0.472326	0.301654
H104	H	0.386187	-0.428321	0.273634
H105	H	0.445052	-0.429549	0.329722
H106	H	0.447321	-0.512852	0.272136
C107	C	0.594552	-0.420432	0.268630
H108	H	0.545334	-0.427452	0.273088
H109	H	0.606176	-0.350583	0.279472
H110	H	0.608458	-0.433876	0.221880
C111	C	0.891004	-0.754548	0.787333
H112	H	0.895485	-0.748082	0.836554
H113	H	0.844276	-0.735359	0.773406
H114	H	0.901757	-0.825732	0.775711
H115	H	0.891372	-1.181699	0.417028
C116	C	0.871610	-0.987203	0.411473
H117	H	0.841698	-1.043784	0.403436
H118	H	0.853204	-0.946611	0.448604
H119	H	0.874427	-0.943351	0.370043
C120	C	0.911948	-1.182133	0.280156
H121	H	0.882970	-1.120585	0.270049
H122	H	0.917207	-1.221839	0.239108
H123	H	0.890915	-1.224240	0.316119
H124	H	1.023908	-1.178854	0.264375
C125	C	1.085998	-0.472850	0.640865
H126	H	1.081527	-0.479331	0.591644
H127	H	1.075251	-0.401670	0.652485
H128	H	1.132728	-0.492049	0.654795
C129	C	1.038688	-0.987249	0.250261
H130	H	1.027385	-1.011748	0.205375
H131	H	1.037637	-0.912023	0.248466
H132	H	1.084278	-1.013683	0.263487
C133	C	0.913071	-0.979459	0.279466
H134	H	0.903213	-1.003537	0.234113
H135	H	0.877656	-1.001364	0.311296
H136	H	0.914085	-0.904350	0.277546
C137	C	1.134437	-0.997313	0.355571
H138	H	1.177987	-1.029015	0.371027
H139	H	1.126048	-1.015290	0.308523
H140	H	1.135928	-0.922539	0.357959
C141	C	1.132225	-1.199895	0.349905
H142	H	1.111193	-1.240242	0.315236
H143	H	1.153845	-1.140852	0.327940
H144	H	1.166583	-1.242871	0.374805
