data_functionalizedCrystal
_audit_creation_method	'MofGen! by Chris Wilmer'
_symmetry_space_group_name_H-M	'P1'
_symmetry_Int_Tables_number	1
_symmetry_cell_setting	triclinic
loop_
_symmetry_equiv_pos_as_xyz
  x,y,z
_cell_length_a	16.120530
_cell_length_b	12.594516
_cell_length_c	16.120297
_cell_angle_alpha	87.123691
_cell_angle_beta	89.871860
_cell_angle_gamma	87.107535
loop_
_atom_site_label
_atom_site_type_symbol
_atom_site_fract_x
_atom_site_fract_y
_atom_site_fract_z
Zn1	Zn	1.247525	-0.539250	0.534592
Zn2	Zn	1.254502	-0.708694	0.395543
Zn3	Zn	1.115513	-0.521264	0.388509
Zn4	Zn	1.108459	-0.707714	0.527512
O5	O	1.181500	-0.619231	0.461539
O6	O	1.364818	-0.569665	0.522053
O7	O	1.241937	-0.676714	0.278244
O8	O	1.133056	-0.374708	0.407906
O9	O	1.369944	-0.694154	0.419895
O10	O	1.230045	-0.387922	0.515233
O11	O	1.139822	-0.539010	0.273076
O12	O	0.998209	-0.538060	0.401042
O13	O	1.121034	-0.692484	0.644817
O14	O	0.993027	-0.675043	0.503166
O15	O	1.223205	-0.568715	0.650019
O16	O	1.235097	-0.857506	0.413030
O17	O	1.127800	-0.856786	0.509987
C18	C	0.965445	-0.604494	0.450573
C19	C	0.873015	-0.598217	0.445901
C20	C	0.703784	-0.586731	0.437379
C21	C	0.660053	-0.651812	0.485759
C22	C	0.565887	-0.645422	0.481018
C23	C	0.797959	-0.593120	0.442120
C24	C	1.181462	-0.895768	0.461523
C25	C	1.181520	-1.014079	0.461547
C26	C	1.239941	-1.083693	0.408875
C27	C	1.256413	-1.160447	0.485802
C28	C	1.165150	-1.148134	0.384674
C29	C	1.198029	-1.089279	0.538516
C30	C	1.106733	-1.076955	0.437335
C31	C	1.123174	-1.153678	0.514313
C32	C	1.398398	-0.634025	0.472548
C33	C	1.490827	-0.640330	0.477240
C34	C	1.170555	-0.632496	0.678434
C35	C	1.165890	-0.638149	0.770862
C36	C	1.181559	-0.341616	0.461575
C37	C	1.181585	-0.223313	0.461590
C38	C	1.192450	-0.605943	0.245490
C39	C	1.197275	-0.600001	0.153071
C40	C	1.157344	-0.648444	0.940087
C41	C	1.205819	-0.589709	0.983851
C42	C	1.201064	-0.595437	1.078014
C43	C	1.162098	-0.642717	0.845915
H44	H	1.289351	-1.052958	0.364374
C45	C	0.705006	-0.733579	0.546521
C46	C	0.766545	-0.818832	0.513313
C47	C	0.811501	-0.900600	0.574069
C48	C	0.794919	-0.897114	0.668031
C49	C	0.733377	-0.811858	0.701243
C50	C	0.688421	-0.730090	0.640488
H51	H	0.778823	-0.821415	0.443752
H52	H	0.857059	-0.963712	0.549482
H53	H	0.828198	-0.957644	0.713006
H54	H	0.721099	-0.809275	0.770804
H55	H	0.642863	-0.666978	0.665074
H56	H	1.112277	-0.703028	0.973335
C57	C	0.658830	-0.504980	0.376615
C58	C	0.709397	-0.429581	0.320565
C59	C	0.664431	-0.347832	0.259802
C60	C	0.568898	-0.341482	0.255089
C61	C	0.518325	-0.416883	0.311142
C62	C	0.563291	-0.498632	0.371905
H63	H	0.780121	-0.434280	0.324051
H64	H	0.701868	-0.292015	0.218308
H65	H	0.535611	-0.280966	0.210109
H66	H	0.447601	-0.412185	0.307655
H67	H	0.525853	-0.554449	0.413399
C68	C	1.341887	-1.209714	0.513505
C69	C	1.420140	-1.183591	0.463055
C70	C	1.505616	-1.232850	0.490753
C71	C	1.512840	-1.308232	0.568901
C72	C	1.434585	-1.334358	0.619356
C73	C	1.349109	-1.285099	0.591658
H74	H	1.414794	-1.127786	0.405201
H75	H	1.563545	-1.213510	0.453403
H76	H	1.576115	-1.344696	0.589405
H77	H	1.439930	-1.390163	0.677210
H78	H	1.291179	-1.304439	0.629008
H79	H	1.211836	-1.063357	0.603597
C80	C	1.021283	-1.027650	0.409611
C81	C	0.987483	-1.047818	0.322832
C82	C	0.902033	-0.998511	0.295098
C83	C	0.850382	-0.929037	0.354143
C84	C	0.884181	-0.908867	0.440928
C85	C	0.969631	-0.958173	0.468663
H86	H	1.025719	-1.099249	0.279118
H87	H	0.877013	-1.013443	0.230854
H88	H	0.787126	-0.892538	0.333613
H89	H	0.845945	-0.857435	0.484642
H90	H	0.994651	-0.943241	0.532907
C91	C	1.056465	-1.194957	0.574581
C92	C	1.061083	-1.172983	0.667529
C93	C	0.994379	-1.214265	0.727799
C94	C	0.923057	-1.277521	0.695120
C95	C	0.918437	-1.299498	0.602167
C96	C	0.985141	-1.258216	0.541897
H97	H	1.113882	-1.126155	0.691724
H98	H	0.997800	-1.197996	0.796609
H99	H	0.873679	-1.308081	0.739735
H100	H	0.865637	-1.346327	0.577972
H101	H	0.981720	-1.274485	0.473087
H102	H	1.151277	-1.174187	0.319645
C103	C	1.266713	-0.515968	0.938940
C104	C	1.271448	-0.510273	0.843411
C105	C	1.332341	-0.436538	0.798495
C106	C	1.388500	-0.368498	0.849109
C107	C	1.383768	-0.374192	0.944644
C108	C	1.322874	-0.447927	0.989559
H109	H	1.229874	-0.560642	0.805938
H110	H	1.335844	-0.432324	0.727774
H111	H	1.433577	-0.313915	0.815860
H112	H	1.425342	-0.323823	0.982116
H113	H	1.319371	-0.452141	1.060281
