data_functionalizedCrystal
_audit_creation_method	'MofGen! by Chris Wilmer'
_symmetry_space_group_name_H-M	'P1'
_symmetry_Int_Tables_number	1
_symmetry_cell_setting	triclinic
loop_
_symmetry_equiv_pos_as_xyz
  x,y,z
_cell_length_a	14.628931
_cell_length_b	27.440280
_cell_length_c	14.628931
_cell_angle_alpha	89.995243
_cell_angle_beta	59.999972
_cell_angle_gamma	59.994058
loop_
_atom_site_label
_atom_site_type_symbol
_atom_site_fract_x
_atom_site_fract_y
_atom_site_fract_z
Zr1	Zr	1.000493	0.469497	-0.119994
O2	O	1.191212	0.391679	-0.265950
O3	O	0.809783	0.493353	-0.075251
O4	O	1.000488	0.493353	-0.265957
O5	O	1.000507	0.391679	0.075188
O6	O	1.000474	0.573555	-0.265962
O7	O	1.000507	0.391679	-0.075244
O8	O	0.659336	0.573555	0.075176
O9	O	1.341644	0.391679	-0.265950
O10	O	0.888210	0.563381	-0.056173
O11	O	0.888221	0.503527	0.056097
O12	O	1.112752	0.503527	-0.168434
O13	O	1.112763	0.443673	-0.056165
Zr14	Zr	1.000469	0.597411	0.119919
Zr15	Zr	1.000469	0.597410	-0.120003
Zr16	Zr	1.000493	0.469498	0.119927
Zr17	Zr	1.240414	0.469498	-0.119995
Zr18	Zr	0.760548	0.597410	0.119919
O19	O	1.191179	0.573555	0.075175
O20	O	1.191179	0.573555	-0.265962
O21	O	1.191212	0.391680	0.075188
O22	O	0.809749	0.675229	0.265874
O23	O	0.809749	0.675228	-0.075263
O24	O	0.809783	0.493353	0.265887
O25	O	1.000455	0.675229	-0.075263
O26	O	1.000474	0.573555	0.265881
O27	O	1.000488	0.493353	0.265886
O28	O	1.000455	0.675229	0.075168
O29	O	1.341626	0.493353	-0.265957
O30	O	0.659336	0.573555	0.265881
O31	O	0.659318	0.675229	0.265875
O32	O	0.659318	0.675229	0.075169
O33	O	1.341644	0.391680	-0.075245
O34	O	1.341626	0.493353	-0.075252
O35	O	0.888210	0.563381	0.168359
O36	O	0.888199	0.623235	0.056089
O37	O	1.112741	0.563381	-0.056173
O38	O	1.112752	0.503527	0.056097
C39	C	0.700376	0.533454	-0.000037
C40	C	0.598523	0.533454	-0.000037
C41	C	0.553108	0.563145	-0.055731
C42	C	0.447838	0.563146	-0.055732
C43	C	1.000510	0.373454	-0.000027
C44	C	1.000520	0.319152	-0.000023
C45	C	1.000452	-0.017546	-0.082914
C46	C	1.000443	-0.068564	-0.082914
O47	O	1.000395	-0.094939	-0.153372
N48	N	1.000445	-0.094081	-0.000041
C49	C	1.000444	-0.068575	0.082844
O50	O	1.000444	-0.094964	0.153334
C51	C	1.000444	-0.017556	0.082848
C52	C	1.000454	0.007956	-0.000037
C53	C	1.000461	0.007966	-0.165791
C54	C	1.000473	0.058980	-0.165791
C55	C	1.000475	0.084482	-0.082914
C56	C	1.000466	0.058970	-0.000037
C57	C	1.000433	0.007952	0.165737
C58	C	1.000432	0.058975	0.165735
C59	C	1.000443	0.084487	0.082850
C60	C	1.000480	0.135485	0.082840
N61	N	1.000478	0.161003	-0.000033
C62	C	1.000475	0.135501	-0.082910
C63	C	1.000442	-0.175719	0.082830
C64	C	1.000451	-0.226740	0.082822
C65	C	1.000448	-0.226724	-0.082936
C66	C	1.000448	-0.175705	-0.082931
C67	C	1.000439	-0.150201	-0.000043
C68	C	1.000501	0.242634	-0.082905
C69	C	1.000518	0.293650	-0.082900
C70	C	1.000514	0.293632	0.082860
C71	C	1.000504	0.242618	0.082853
C72	C	1.000493	0.217121	-0.000035
O73	O	1.000523	0.161894	0.153265
O74	O	1.000458	0.161901	-0.153380
C75	C	1.300586	0.533454	-0.000038
C76	C	1.402439	0.533454	-0.000038
C77	C	1.000481	0.533454	-0.300143
C78	C	1.000481	0.533454	-0.401996
C79	C	1.000452	0.693454	-0.000049
C80	C	1.000442	0.747756	-0.000052
C81	C	1.000473	0.575444	-0.447408
C82	C	1.000473	0.575445	-0.552679
C83	C	1.000481	0.533454	0.300067
C84	C	1.000481	0.533454	0.401920
C85	C	0.700346	0.693453	-0.000048
C86	C	0.598484	0.747756	-0.000052
C87	C	0.700376	0.533454	0.300068
C88	C	0.598523	0.533454	0.401921
C89	C	0.700346	0.693454	0.300057
C90	C	0.598484	0.747756	0.401906
C91	C	1.300615	0.373454	-0.300133
C92	C	1.402478	0.319152	-0.401982
C93	C	1.300615	0.373455	-0.000027
C94	C	1.402478	0.319152	-0.000024
C95	C	1.300586	0.533454	-0.300144
C96	C	1.402439	0.533454	-0.401997
C97	C	0.550653	0.742013	-0.058663
C98	C	0.454956	0.793031	-0.058689
C99	C	0.407083	0.849791	-0.000096
C100	C	0.454923	0.855532	0.058517
C101	C	0.550625	0.804515	0.058535
C102	C	0.550642	0.804505	0.391132
C103	C	0.454944	0.855533	0.486821
C104	C	0.407083	0.849810	0.593284
C105	C	0.454934	0.793055	0.604056
C106	C	0.550637	0.742029	0.508367
C107	C	1.450332	0.262403	-0.391208
C108	C	1.546059	0.211375	-0.486897
C109	C	1.593925	0.217098	-0.593359
C110	C	1.546068	0.273853	-0.604131
C111	C	1.450349	0.324880	-0.508443
C112	C	1.450319	0.324895	0.058577
C113	C	1.546043	0.273877	0.058577
C114	C	1.593918	0.217117	-0.000019
C115	C	1.546074	0.211376	-0.058628
C116	C	1.450358	0.262393	-0.058633
C117	C	0.553108	0.563146	0.503020
C118	C	0.447838	0.563147	0.608291
H119	H	0.408788	0.588563	-0.103418
F120	F	1.000499	0.486460	-0.547048
F121	F	1.000445	-0.148583	0.171050
H122	H	1.000443	-0.247496	-0.150417
H123	H	0.408781	0.588567	0.695020
F124	F	0.305226	0.904123	0.695115
H125	H	0.589577	0.695822	0.517156
H126	H	0.441483	0.508037	0.511281
H127	H	1.000421	0.079739	0.233236
H128	H	0.329155	0.891328	-0.000119
F129	F	0.453485	0.500222	0.062283
F130	F	1.399386	0.385298	0.120945
F131	F	0.403957	0.915945	0.120874
H132	H	1.000476	0.079750	-0.233280
F133	F	1.695798	0.162785	-0.695191
F134	F	1.399446	0.256273	-0.121001
F135	F	1.000419	-0.019189	0.253956
F136	F	1.596971	0.150977	-0.475409
H137	H	1.000455	-0.154936	-0.150423
H138	H	1.585069	0.165156	-0.106335
F139	F	1.000520	0.320780	0.171059
H140	H	0.589557	0.809198	0.106270
F141	F	0.604157	0.596368	0.514292
H142	H	0.559467	0.508036	0.047646
F143	F	1.596941	0.279999	0.120962
F144	F	0.601568	0.810610	0.277836
H145	H	0.559474	0.508032	0.393303
H146	H	0.415994	0.901741	0.478031
F147	F	0.403984	0.786974	0.717370
F148	F	1.000533	0.320798	-0.171123
H149	H	1.585053	0.278506	-0.690824
F150	F	1.000489	0.215505	-0.171123
F151	F	1.000480	0.486467	-0.453035
F152	F	1.399404	0.256298	-0.277912
F153	F	1.000474	0.622432	-0.603725
F154	F	0.601589	0.681610	-0.121033
H155	H	0.592155	0.588568	-0.103407
F156	F	1.399422	0.385275	-0.519927
F157	F	0.404054	0.786909	-0.121071
H158	H	1.671856	0.175580	-0.000006
H159	H	1.000455	-0.012791	-0.233280
H160	H	1.000462	-0.247513	0.150304
H161	H	1.000460	0.611395	-0.408351
H162	H	1.000514	0.221841	0.150336
