data_functionalizedCrystal
_audit_creation_method	'MofGen! by Chris Wilmer'
_symmetry_space_group_name_H-M	'P1'
_symmetry_Int_Tables_number	1
_symmetry_cell_setting	triclinic
loop_
_symmetry_equiv_pos_as_xyz
  x,y,z
_cell_length_a	19.188931
_cell_length_b	15.072220
_cell_length_c	15.995350
_cell_angle_alpha	89.992853
_cell_angle_beta	83.318758
_cell_angle_gamma	89.997490
loop_
_atom_site_label
_atom_site_type_symbol
_atom_site_fract_x
_atom_site_fract_y
_atom_site_fract_z
O1	O	-0.926409	0.073748	-0.104543
O2	O	-0.723134	0.073756	-0.118614
O3	O	-0.830328	0.073751	0.010329
O4	O	-0.819215	0.073753	-0.233486
O5	O	-0.830321	-0.073814	0.010345
O6	O	-0.723127	-0.073809	-0.118599
O7	O	-0.926402	-0.073817	-0.104527
Zn8	Zn	-0.824764	-0.097243	-0.111561
Zn9	Zn	-0.824773	0.097181	-0.111581
O10	O	-0.819208	-0.073812	-0.233471
C11	C	-0.697118	-0.000026	-0.118151
C12	C	-0.619610	-0.000023	-0.116782
N13	N	-0.824762	-0.229931	-0.111546
C14	C	-0.829866	-0.000030	0.041530
C15	C	-0.828488	-0.000025	0.134476
C16	C	-0.066334	0.080406	-0.107025
C17	C	-0.139161	0.080409	-0.108306
C18	C	-0.175576	-0.000028	-0.108942
C19	C	-0.139160	-0.080475	-0.108275
C20	C	-0.066334	-0.080476	-0.106986
N21	N	-0.284720	-0.059901	-0.158605
N22	N	-0.353901	-0.059895	-0.159831
C23	C	-0.394995	-0.000030	-0.112824
N24	N	-0.364294	0.059842	-0.064554
N25	N	-0.295106	0.059838	-0.063331
C26	C	-0.254543	-0.000036	-0.110339
C27	C	-0.510371	0.080416	-0.114873
C28	C	-0.583201	0.080416	-0.116148
C29	C	-0.583197	-0.080471	-0.116126
C30	C	-0.510369	-0.080469	-0.114842
C31	C	-0.473961	-0.000023	-0.114219
C32	C	0.047582	-0.000034	-0.104992
C33	C	-0.029926	-0.000030	-0.106364
C34	C	-0.824774	-0.589133	-0.111575
C35	C	-0.882317	-0.551501	-0.042808
C36	C	-0.882167	-0.448675	-0.042556
C37	C	-0.824769	-0.410929	-0.111560
C38	C	-0.751925	-0.448269	-0.092746
C39	C	-0.752265	-0.551127	-0.092261
C40	C	-0.839417	-0.551210	-0.199359
C41	C	-0.841071	-0.448345	-0.198765
C42	C	-0.824761	-0.310215	-0.111554
C43	C	-0.824776	-0.689846	-0.111579
N44	N	-0.824780	0.229870	-0.111589
C45	C	-0.819671	-0.000030	-0.264672
C46	C	-0.821048	-0.000029	-0.357617
C47	C	-0.823541	-0.000028	0.472205
C48	C	-0.747200	0.000306	0.424492
C49	C	-0.748577	-0.000027	0.327807
C50	C	-0.825995	-0.000026	0.304653
C51	C	-0.863646	-0.084293	0.345878
C52	C	-0.861728	-0.084363	0.442506
C53	C	-0.863313	0.083446	0.442853
C54	C	-0.863295	0.084559	0.345907
C55	C	-0.827386	-0.000028	0.209961
C56	C	-0.822153	-0.000032	0.566898
H57	H	-0.036695	0.145911	-0.106515
Cl58	Cl	-0.702882	0.093234	0.283744
H59	H	-0.917777	-0.088186	0.474960
Cl60	Cl	-0.923800	-0.410657	-0.220825
Cl61	Cl	-0.966203	-0.589677	-0.059761
Cl62	Cl	-0.951459	-0.089136	0.324393
H63	H	-0.873097	-0.577360	0.021974
Cl64	Cl	-0.020561	-0.181605	-0.106158
Cl65	Cl	-0.731506	-0.408516	0.004958
Cl66	Cl	-0.780554	-0.408676	-0.281443
H67	H	-0.872810	-0.424078	0.022596
H68	H	-0.708159	-0.576022	-0.140456
Cl69	Cl	-0.184941	0.181537	-0.109140
H70	H	-0.838356	0.147315	0.463294
Cl71	Cl	-0.823264	-0.181113	0.301926
H72	H	-0.936315	-0.423429	-0.053720
H73	H	-0.739359	-0.575127	-0.028248
Cl74	Cl	-0.628970	-0.181594	-0.116911
H75	H	-0.168813	-0.145968	-0.108791
Cl76	Cl	-0.700163	-0.092195	0.454938
Cl77	Cl	-0.700090	0.093605	0.452919
H78	H	-0.718777	-0.060533	0.299839
Cl79	Cl	-0.821144	0.180821	0.303184
Cl80	Cl	-0.950460	0.092422	0.322505
Cl81	Cl	-0.464597	0.181545	-0.114084
H82	H	-0.797455	-0.575550	-0.250531
H83	H	-0.834267	-0.147354	0.460714
Cl84	Cl	-0.950213	0.084324	0.492208
H85	H	-0.612844	0.145919	-0.116680
Cl86	Cl	-0.464595	-0.181595	-0.114024
Cl87	Cl	-0.684217	-0.410523	-0.168030
Cl88	Cl	-0.919679	-0.591241	-0.227375
