data_functionalizedCrystal
_audit_creation_method	'MofGen! by Chris Wilmer'
_symmetry_space_group_name_H-M	'P1'
_symmetry_Int_Tables_number	1
_symmetry_cell_setting	triclinic
loop_
_symmetry_equiv_pos_as_xyz
  x,y,z
_cell_length_a	17.699083
_cell_length_b	17.699104
_cell_length_c	16.176319
_cell_angle_alpha	89.992259
_cell_angle_beta	89.994260
_cell_angle_gamma	83.287266
loop_
_atom_site_label
_atom_site_type_symbol
_atom_site_fract_x
_atom_site_fract_y
_atom_site_fract_z
O1	O	1.004086	0.095712	-0.068716
O2	O	0.783708	0.108164	-0.068725
O3	O	0.900115	-0.008250	-0.068713
O4	O	0.887679	0.212126	-0.068728
O5	O	0.900099	-0.008257	0.068781
O6	O	0.783692	0.108157	0.068768
O7	O	1.004070	0.095705	0.068777
Cu8	Cu	0.893880	0.101930	0.081327
Cu9	Cu	0.893899	0.101939	-0.081275
O10	O	0.887663	0.212119	0.068765
C11	C	0.899659	-0.036450	0.000034
C12	C	0.898314	-0.120467	0.000034
C13	C	0.755503	0.107715	0.000021
C14	C	0.671485	0.106376	0.000017
C15	C	1.032275	0.096155	0.000030
C16	C	1.116293	0.097493	0.000028
C17	C	0.959058	-0.645338	0.000013
C18	C	0.960317	-0.566395	0.000021
C19	C	0.891982	-0.517777	0.000020
C20	C	0.822383	-0.548107	0.000020
C21	C	0.821125	-0.627049	0.000018
C22	C	0.827456	-0.229741	0.000027
C23	C	0.828720	-0.150794	0.000026
C24	C	0.966648	-0.169086	0.000029
C25	C	0.965390	-0.248029	0.000028
C26	C	0.895792	-0.278352	0.000032
C27	C	0.894427	-0.363951	0.000026
C28	C	0.893345	-0.432179	0.000020
C29	C	1.164909	0.029161	0.000030
C30	C	1.243852	0.030423	0.000032
C31	C	1.274178	0.100019	0.000027
C32	C	1.225556	0.168357	0.000028
C33	C	1.146614	0.167093	0.000031
C34	C	1.543920	0.173452	0.000016
C35	C	1.622868	0.174710	0.000010
C36	C	1.641158	0.036781	0.000017
C37	C	1.562216	0.035518	0.000020
C38	C	1.513601	0.103856	0.000025
C39	C	1.428001	0.102486	0.000024
C40	C	1.359776	0.101389	0.000022
C41	C	0.888120	0.240319	0.000017
C42	C	0.889464	0.324337	0.000011
N43	N	0.893872	0.101924	0.195692
N44	N	0.893912	0.101940	-0.195640
C45	C	0.945432	0.050396	0.238962
C46	C	0.945436	0.050396	0.325509
C47	C	0.893883	0.101926	0.368785
C48	C	0.842317	0.153456	0.325509
C49	C	0.842310	0.153453	0.238964
C50	C	0.842343	0.153470	0.674538
C51	C	0.842355	0.153471	0.761089
C52	C	0.945469	0.050413	0.761083
C53	C	0.945462	0.050410	0.674537
C54	C	0.893894	0.101936	0.631269
C55	C	0.893889	0.101936	0.537425
C56	C	0.893890	0.101931	0.462627
H57	H	1.016987	-0.541708	0.000024
H58	H	1.504346	0.229097	0.000015
C59	C	1.002160	-0.006277	0.373102
H60	H	1.032870	-0.036959	0.334933
H61	H	0.975003	-0.037754	0.406878
H62	H	1.033616	0.020922	0.406848
H63	H	0.987444	0.008451	0.639305
C64	C	1.002146	-0.006281	0.191362
H65	H	0.994765	0.001101	0.133621
H66	H	0.994026	-0.056786	0.205555
H67	H	1.052642	0.001887	0.205538
H68	H	1.107032	0.222737	0.000032
H69	H	0.766743	-0.508516	0.000024
H70	H	0.987456	0.008455	0.796321
H71	H	1.283433	-0.025221	0.000037
H72	H	0.800371	0.195435	0.796323
H73	H	0.773070	-0.111210	0.000027
C74	C	1.694633	-0.038392	0.000016
H75	H	1.665264	-0.080020	0.000008
H76	H	1.725808	-0.040777	0.047960
H77	H	1.725808	-0.040760	-0.047940
H78	H	0.770785	-0.254420	0.000021
H79	H	0.800356	0.195426	0.639315
H80	H	1.647556	0.231386	0.000010
H81	H	0.800337	0.195411	0.360750
H82	H	1.014705	-0.684918	0.000007
C83	C	1.040558	-0.301504	0.000033
H84	H	1.082187	-0.272136	0.000043
H85	H	1.042943	-0.332676	-0.047913
H86	H	1.042924	-0.332682	0.047987
C87	C	1.258913	0.244910	0.000020
H88	H	1.312891	0.235877	0.000010
H89	H	1.242216	0.273040	0.047965
H90	H	1.242217	0.273040	-0.047935
H91	H	1.023319	-0.144388	0.000015
C92	C	0.744572	-0.660407	0.000008
H93	H	0.704054	-0.620147	-0.000001
H94	H	0.741206	-0.690829	0.047953
H95	H	0.741223	-0.690814	-0.047947
H96	H	0.800323	0.195410	0.203734
H97	H	1.140224	-0.027512	0.000029
H98	H	1.537529	-0.021154	0.000020
