data_functionalizedCrystal
_audit_creation_method	'MofGen! by Chris Wilmer'
_symmetry_space_group_name_H-M	'P1'
_symmetry_Int_Tables_number	1
_symmetry_cell_setting	triclinic
loop_
_symmetry_equiv_pos_as_xyz
  x,y,z
_cell_length_a	16.109301
_cell_length_b	8.559649
_cell_length_c	14.586319
_cell_angle_alpha	89.997976
_cell_angle_beta	89.999213
_cell_angle_gamma	76.620073
loop_
_atom_site_label
_atom_site_type_symbol
_atom_site_fract_x
_atom_site_fract_y
_atom_site_fract_z
O1	O	1.090046	0.205389	-0.076179
O2	O	0.846355	0.230950	-0.076193
O3	O	0.989670	-0.014444	-0.076183
O4	O	0.946731	0.450783	-0.076188
O5	O	0.989661	-0.014447	0.076297
O6	O	0.846347	0.230946	0.076288
O7	O	1.090037	0.205386	0.076302
Cu8	Cu	0.968191	0.218165	0.090218
Cu9	Cu	0.968201	0.218170	-0.090108
O10	O	0.946722	0.450779	0.076293
C11	C	0.815442	0.229912	0.000046
C12	C	0.723344	0.226808	0.000040
C13	C	0.492255	0.365202	0.000050
C14	C	0.405721	0.362273	0.000056
C15	C	0.444145	0.071122	0.000054
C16	C	0.530677	0.074053	0.000055
C17	C	0.554729	0.221098	0.000048
C18	C	0.381663	0.215238	0.000053
C19	C	0.287840	0.212061	0.000060
C20	C	0.648558	0.224275	0.000043
C21	C	0.992919	-0.073977	0.000055
C22	C	1.002605	-0.251362	0.000051
C23	C	1.120950	0.206423	0.000062
C24	C	1.213048	0.209527	0.000061
C25	C	0.943473	0.510312	0.000052
C26	C	0.933787	0.687697	0.000051
N27	N	0.968190	0.218161	0.217050
N28	N	0.968210	0.218161	-0.216940
C29	C	1.031666	0.109538	0.452060
C30	C	1.031669	0.109534	0.548041
C31	C	0.904727	0.326790	0.548043
C32	C	0.904722	0.326785	0.452063
C33	C	0.968196	0.218161	0.404074
C34	C	0.968204	0.218162	0.596035
C35	C	0.968206	0.218158	0.700102
C36	C	0.968193	0.218162	0.300001
H37	H	0.424550	-0.048597	0.000066
O38	O	0.591339	-0.065982	-0.000111
C39	C	0.581873	-0.155274	-0.079071
H40	H	0.546844	-0.070902	-0.134268
H41	H	0.543626	-0.247750	-0.061218
C42	C	0.713539	-0.345488	-0.047083
C43	C	0.670522	-0.241859	-0.114880
H44	H	0.768221	-0.398905	-0.069170
H45	H	0.719915	-0.285335	0.006116
H46	H	0.681658	-0.422537	-0.032212
H47	H	0.702398	-0.164801	-0.129742
H48	H	0.664153	-0.302001	-0.168083
O49	O	0.344925	0.502108	0.000091
C50	C	0.263390	0.468000	0.000070
H51	H	0.268080	0.342495	0.028943
H52	H	0.237925	0.474065	-0.073083
C53	C	0.196631	0.746235	0.024400
C54	C	0.202390	0.592093	0.059870
H55	H	0.159001	0.822784	0.061283
H56	H	0.251562	0.769217	0.024410
H57	H	0.175412	0.751266	-0.036560
H58	H	0.223618	0.587058	0.120824
H59	H	0.147460	0.569113	0.059871
H60	H	0.867458	-0.228771	0.000050
O61	O	1.093358	0.003861	0.405585
C62	C	1.149390	-0.091987	0.468525
H63	H	1.115423	-0.093803	0.536946
H64	H	1.207835	-0.040073	0.478726
C65	C	1.219247	-0.262132	0.347039
C66	C	1.177526	-0.264373	0.431072
H67	H	1.236606	-0.368467	0.323936
H68	H	1.181500	-0.197555	0.304634
H69	H	1.267946	-0.218863	0.355551
H70	H	1.128822	-0.307623	0.422557
H71	H	1.215266	-0.328962	0.473475
H72	H	1.068938	-0.334903	0.000062
O73	O	1.093221	0.003863	0.594695
C74	C	1.054999	-0.094722	0.650236
H75	H	0.989608	-0.097460	0.621316
H76	H	1.047451	-0.044717	0.722976
C77	C	1.192089	-0.262899	0.687228
C78	C	1.111778	-0.266272	0.651704
H79	H	1.227113	-0.368718	0.688138
H80	H	1.217840	-0.196478	0.649812
H81	H	1.185787	-0.221221	0.747842
H82	H	1.118079	-0.307931	0.591087
H83	H	1.086028	-0.332705	0.689109
H84	H	0.853049	0.415232	0.587125
O85	O	0.843022	0.432464	0.405586
C86	C	0.786992	0.528322	0.468521
H87	H	0.820962	0.530158	0.536936
H88	H	0.728549	0.476403	0.478736
C89	C	0.717124	0.698432	0.347021
C90	C	0.758848	0.700698	0.431048
H91	H	0.699759	0.804760	0.323906
H92	H	0.754870	0.633847	0.304620
H93	H	0.668427	0.655158	0.355546
H94	H	0.807550	0.743952	0.422521
H95	H	0.721109	0.765294	0.473447
H96	H	0.511835	0.484935	0.000051
