data_functionalizedCrystal
_audit_creation_method	'MofGen! by Chris Wilmer'
_symmetry_space_group_name_H-M	'P1'
_symmetry_Int_Tables_number	1
_symmetry_cell_setting	triclinic
loop_
_symmetry_equiv_pos_as_xyz
  x,y,z
_cell_length_a	14.044220
_cell_length_b	12.503572
_cell_length_c	14.044220
_cell_angle_alpha	93.849209
_cell_angle_beta	86.811122
_cell_angle_gamma	93.847148
loop_
_atom_site_label
_atom_site_type_symbol
_atom_site_fract_x
_atom_site_fract_y
_atom_site_fract_z
O1	O	1.272120	-0.089212	-0.235211
O2	O	1.605453	0.244121	0.098123
O3	O	1.938787	0.577455	0.431456
O4	O	0.995447	-0.089239	-0.226907
O5	O	1.328780	0.244094	0.106427
O6	O	1.662114	0.577428	0.439760
O7	O	1.129631	-0.089215	-0.092722
O8	O	1.462965	0.244118	0.240611
O9	O	1.796298	0.577452	0.573944
O10	O	1.137936	-0.089236	-0.369395
O11	O	1.471269	0.244098	-0.036062
O12	O	1.804603	0.577431	0.297272
O13	O	1.139726	0.089429	-0.082618
O14	O	1.473060	0.422762	0.250716
O15	O	1.806393	0.756095	0.584049
O16	O	1.005542	0.089405	-0.216802
O17	O	1.338876	0.422738	0.116531
O18	O	1.672209	0.756072	0.449865
O19	O	1.282215	0.089432	-0.225106
O20	O	1.615549	0.422765	0.108227
O21	O	1.948882	0.756099	0.441560
Cu22	Cu	1.144800	0.105730	-0.220031
Cu23	Cu	1.478134	0.439063	0.113302
Cu24	Cu	1.811467	0.772397	0.446635
Cu25	Cu	1.132862	-0.105537	-0.231981
Cu26	Cu	1.466195	0.227796	0.101352
Cu27	Cu	1.799529	0.561130	0.434685
O28	O	1.148031	0.089408	-0.359290
O29	O	1.481364	0.422741	-0.025957
O30	O	1.814698	0.756075	0.307376
C31	C	0.964873	0.000080	-0.218219
C32	C	1.298206	0.333413	0.115114
C33	C	1.631539	0.666746	0.448448
C34	C	0.858729	0.000070	-0.207375
C35	C	1.192063	0.333403	0.125958
C36	C	1.525396	0.666736	0.459292
C37	C	0.664393	0.000092	-0.187547
C38	C	0.997726	0.333426	0.145786
C39	C	1.331060	0.666759	0.479119
C40	C	0.613263	0.000091	-0.264462
C41	C	0.946596	0.333425	0.068872
C42	C	1.279930	0.666758	0.402205
C43	C	0.505127	0.000104	-0.253429
C44	C	0.838461	0.333437	0.079904
C45	C	1.171794	0.666771	0.413237
C46	C	0.772538	0.000080	-0.198578
C47	C	1.105872	0.333413	0.134755
C48	C	1.439205	0.666746	0.468088
N49	N	1.124465	-0.254131	-0.240379
N50	N	1.457798	0.079203	0.092954
N51	N	1.791132	0.412536	0.426287
C52	C	1.112105	-0.473248	-0.252732
C53	C	1.445438	-0.139915	0.080601
C54	C	1.778771	0.193419	0.413934
C55	C	1.165562	-0.526566	-0.199276
C56	C	1.498895	-0.193232	0.134057
C57	C	1.832228	0.140101	0.467390
C58	C	1.158684	-0.648490	-0.206150
C59	C	1.492018	-0.315157	0.127184
C60	C	1.825351	0.018176	0.460517
C61	C	1.118981	-0.351313	-0.245860
C62	C	1.452314	-0.017979	0.087473
C63	C	1.785648	0.315354	0.420807
C64	C	1.312790	0.000111	-0.233794
C65	C	1.646123	0.333444	0.099539
C66	C	1.979456	0.666778	0.432873
C67	C	1.418932	0.000114	-0.244639
C68	C	1.752266	0.333447	0.088695
C69	C	2.085599	0.666781	0.422028
C70	C	1.131043	0.000107	-0.052048
C71	C	1.464377	0.333440	0.281285
C72	C	1.797710	0.666773	0.614618
C73	C	1.120199	0.000107	0.054094
C74	C	1.453532	0.333440	0.387428
C75	C	1.786865	0.666774	0.720761
N76	N	1.153204	0.254324	-0.211627
N77	N	1.486538	0.587657	0.121707
N78	N	1.819871	0.920990	0.455040
C79	C	1.146619	0.000084	-0.399965
C80	C	1.479952	0.333417	-0.066631
C81	C	1.813286	0.666751	0.266702
C82	C	1.157463	0.000077	-0.506108
C83	C	1.490796	0.333410	-0.172775
C84	C	1.824130	0.666743	0.160559
C85	C	1.100371	0.000090	0.248431
C86	C	1.433705	0.333423	0.581765
C87	C	1.767038	0.666756	0.915098
C88	C	1.177286	0.000094	0.299561
C89	C	1.510619	0.333427	0.632895
C90	C	1.843953	0.666761	0.966228
C91	C	1.166254	0.000084	0.407697
C92	C	1.499587	0.333418	0.741030
C93	C	1.832921	0.666751	1.074364
C94	C	1.111402	0.000099	0.140286
C95	C	1.444735	0.333433	0.473619
C96	C	1.778069	0.666766	0.806952
H97	H	0.626957	0.000104	-0.113419
H98	H	0.960290	0.333437	0.219914
H99	H	1.293623	0.666770	0.553248
H100	H	0.650702	0.000081	-0.338596
H101	H	0.984035	0.333414	-0.005263
H102	H	1.317368	0.666747	0.328071
C103	C	1.234355	-0.464537	-0.130467
C104	C	1.567688	-0.131204	0.202866
C105	C	1.901022	0.202129	0.536200
H106	H	1.230005	-0.389540	-0.134804
H107	H	1.563338	-0.056206	0.198529
H108	H	1.896671	0.277127	0.531863
H109	H	1.297935	-0.482893	-0.147248
H110	H	1.631268	-0.149560	0.186086
H111	H	1.964601	0.183773	0.519419
H112	H	1.217546	-0.482897	-0.066889
H113	H	1.550880	-0.149564	0.266444
H114	H	1.884213	0.183769	0.599778
C115	C	1.043296	-0.535276	-0.321517
C116	C	1.376630	-0.201943	0.011816
C117	C	1.709963	0.131390	0.345150
H118	H	1.047636	-0.610273	-0.317161
H119	H	1.380969	-0.276939	0.016172
H120	H	1.714303	0.056394	0.349506
H121	H	1.060074	-0.516929	-0.385099
H122	H	1.393408	-0.183596	-0.051766
H123	H	1.726741	0.149738	0.281568
H124	H	0.979718	-0.516914	-0.304708
H125	H	1.313051	-0.183581	0.028625
H126	H	1.646385	0.149752	0.361958
H127	H	1.026243	0.000080	0.285868
H128	H	1.359577	0.333413	0.619201
H129	H	1.692910	0.666747	0.952534
H130	H	1.251416	0.000029	0.262118
H131	H	1.584749	0.333362	0.595452
H132	H	1.918083	0.666696	0.928785
