data_functionalizedCrystal
_audit_creation_method	'MofGen! by Chris Wilmer'
_symmetry_space_group_name_H-M	'P1'
_symmetry_Int_Tables_number	1
_symmetry_cell_setting	triclinic
loop_
_symmetry_equiv_pos_as_xyz
  x,y,z
_cell_length_a	9.065218
_cell_length_b	17.038272
_cell_length_c	8.140239
_cell_angle_alpha	89.996147
_cell_angle_beta	89.997198
_cell_angle_gamma	88.063721
loop_
_atom_site_label
_atom_site_type_symbol
_atom_site_fract_x
_atom_site_fract_y
_atom_site_fract_z
O1	O	1.971908	0.114742	-0.136620
O2	O	1.543567	0.124153	-0.136623
O3	O	1.755192	0.005614	-0.136608
O4	O	1.760283	0.233281	-0.136634
O5	O	1.755179	0.005612	0.136619
O6	O	1.543555	0.124152	0.136605
O7	O	1.971895	0.114740	0.136607
Zn8	Zn	1.757723	0.119446	0.179986
Zn9	Zn	1.757740	0.119448	-0.180002
O10	O	1.760271	0.233280	0.136593
C11	C	1.488484	0.123248	-0.000009
C12	C	1.324369	0.120544	-0.000010
C13	C	1.750555	-0.023549	0.000005
C14	C	1.736739	-0.110441	0.000005
C15	C	1.863587	-0.159639	0.000007
C16	C	1.850596	-0.241284	-0.000009
C17	C	1.710756	-0.273728	-0.000015
C18	C	1.583899	-0.224524	-0.000022
C19	C	1.596891	-0.142881	-0.000019
C20	C	1.664859	-0.519818	-0.000038
C21	C	1.651876	-0.601467	-0.000037
C22	C	1.918575	-0.618221	-0.000026
C23	C	1.931554	-0.536576	-0.000012
C24	C	1.804697	-0.487379	-0.000028
C25	C	1.697475	-0.357182	-0.000026
C26	C	1.817980	-0.403927	-0.000029
C27	C	2.026979	0.115646	-0.000010
C28	C	2.191093	0.118350	-0.000020
C29	C	1.764908	0.262442	-0.000024
C30	C	1.778724	0.349335	-0.000034
N31	N	1.757722	0.119444	0.425669
N32	N	1.757751	0.119443	-0.425685
H33	H	1.953890	-0.281338	-0.000003
H34	H	1.537996	-0.627879	-0.000015
C35	C	1.456793	-0.041343	-0.140482
C36	C	1.457456	-0.088799	-0.000022
H37	H	1.370704	-0.007960	-0.140491
H38	H	1.541926	-0.010341	-0.140465
H39	H	1.457276	-0.073548	-0.235749
H40	H	1.456983	-0.056594	0.095246
H41	H	1.372301	-0.119804	-0.000023
H42	H	1.977459	-0.133230	0.000022
H43	H	1.561561	-0.479770	-0.000050
C44	C	1.445563	-0.342235	-0.000014
C45	C	1.430183	-0.260185	-0.000024
H46	H	1.350661	-0.364247	0.000000
H47	H	1.498216	-0.359051	-0.095288
H48	H	1.498223	-0.359052	0.095273
H49	H	1.377531	-0.243367	-0.095317
H50	H	1.377508	-0.243362	0.095261
H51	H	2.045426	-0.510166	-0.000007
C52	C	2.017085	-0.750813	-0.000044
C53	C	2.058010	-0.672301	-0.000032
H54	H	2.103173	-0.784198	-0.000063
H55	H	1.960179	-0.760753	0.095232
H56	H	1.960167	-0.760737	-0.095329
H57	H	2.114919	-0.662375	0.095260
H58	H	2.114940	-0.662357	-0.095318
H59	H	1.931837	-0.377507	-0.000060
H60	H	1.583616	-0.383607	-0.000027
