data_functionalizedCrystal
_audit_creation_method	'MofGen! by Chris Wilmer'
_symmetry_space_group_name_H-M	'P1'
_symmetry_Int_Tables_number	1
_symmetry_cell_setting	triclinic
loop_
_symmetry_equiv_pos_as_xyz
  x,y,z
_cell_length_a	12.837943
_cell_length_b	17.699083
_cell_length_c	16.176319
_cell_angle_alpha	90.007696
_cell_angle_beta	89.993965
_cell_angle_gamma	90.944023
loop_
_atom_site_label
_atom_site_type_symbol
_atom_site_fract_x
_atom_site_fract_y
_atom_site_fract_z
O1	O	1.374962	-0.196724	-0.068735
O2	O	1.874962	0.303276	0.431265
O3	O	1.073181	-0.187006	-0.068740
O4	O	1.573181	0.312994	0.431260
O5	O	1.232598	-0.082302	-0.068730
O6	O	1.732598	0.417698	0.431270
O7	O	1.215546	-0.301428	-0.068745
O8	O	1.715546	0.198572	0.431255
O9	O	1.232576	-0.082293	0.068763
O10	O	1.732576	0.417707	0.568763
O11	O	1.073159	-0.186997	0.068753
O12	O	1.573159	0.313003	0.568753
O13	O	1.374941	-0.196715	0.068758
O14	O	1.874941	0.303285	0.568758
Cu15	Cu	1.224048	-0.191855	0.081310
Cu16	Cu	1.724048	0.308145	0.581310
Cu17	Cu	1.224074	-0.191866	-0.081292
Cu18	Cu	1.724074	0.308134	0.418708
O19	O	1.215524	-0.301419	0.068748
O20	O	1.715524	0.198581	0.568748
C21	C	1.034558	-0.183719	0.000006
C22	C	1.534558	0.316281	0.500006
C23	C	0.919506	-0.173928	0.000004
C24	C	1.419506	0.326072	0.500004
N25	N	1.224037	-0.191848	0.195675
N26	N	1.724037	0.308152	0.695675
C27	C	1.231976	-0.054056	0.000016
C28	C	1.731976	0.445944	0.500016
C29	C	1.230143	0.030097	0.000017
C30	C	1.730143	0.530097	0.500017
C31	C	0.678251	-0.291632	0.000008
C32	C	1.178251	0.208368	0.500008
C33	C	0.570148	-0.282436	0.000007
C34	C	1.070148	0.217564	0.500007
C35	C	0.595196	-0.146341	0.000008
C36	C	1.095196	0.353659	0.500008
C37	C	0.703298	-0.155537	0.000009
C38	C	1.203298	0.344463	0.500009
C39	C	0.744822	-0.228185	0.000008
C40	C	1.244822	0.271815	0.500008
C41	C	0.852926	-0.237380	0.000003
C42	C	1.352926	0.262620	0.500003
C43	C	0.877972	-0.101285	0.000009
C44	C	1.377972	0.398715	0.500009
C45	C	0.769869	-0.092090	0.000008
C46	C	1.269869	0.407910	0.500008
C47	C	1.413564	-0.200002	0.000010
C48	C	1.913564	0.299998	0.500010
C49	C	1.528616	-0.209793	0.000006
C50	C	2.028616	0.290207	0.500006
C51	C	1.216146	-0.329665	-0.000001
C52	C	1.716146	0.170335	0.499999
C53	C	1.217979	-0.413818	-0.000006
C54	C	1.717979	0.086182	0.499994
C55	C	1.323717	0.071843	0.000019
C56	C	1.823717	0.571843	0.500019
C57	C	1.321989	0.150914	0.000012
C58	C	1.821989	0.650914	0.500012
C59	C	1.226685	0.188236	0.000008
C60	C	1.726685	0.688236	0.500008
C61	C	1.133103	0.146484	0.000003
C62	C	1.633103	0.646484	0.500003
C63	C	1.134833	0.067415	0.000004
C64	C	1.634833	0.567415	0.500004
C65	C	1.126126	0.465359	-0.000004
C66	C	1.626126	0.965359	0.499996
C67	C	1.124404	0.544434	-0.000003
C68	C	1.624404	1.044434	0.499997
C69	C	1.313282	0.548858	0.000004
C70	C	1.813282	1.048858	0.500004
C71	C	1.315011	0.469789	0.000005
C72	C	1.815011	0.969789	0.500005
C73	C	1.221430	0.428044	-0.000004
C74	C	1.721430	0.928044	0.499996
C75	C	1.223306	0.342307	0.000002
C76	C	1.723306	0.842307	0.500002
C77	C	1.224808	0.273972	0.000007
C78	C	1.724808	0.773972	0.500007
N79	N	1.224093	-0.191868	-0.195657
N80	N	1.724093	0.308132	0.304343
C81	C	1.294648	-0.145507	0.238943
C82	C	1.794648	0.354493	0.738943
C83	C	1.294653	-0.145507	0.325490
C84	C	1.794653	0.354493	0.825490
C85	C	1.224052	-0.191852	0.368767
C86	C	1.724052	0.308148	0.868767
C87	C	1.153434	-0.238194	0.325493
C88	C	1.653434	0.261806	0.825493
C89	C	1.153424	-0.238190	0.238947
C90	C	1.653424	0.261810	0.738947
C91	C	1.153469	-0.238211	0.674521
C92	C	1.653469	0.261789	1.174521
C93	C	1.153486	-0.238213	0.761073
C94	C	1.653486	0.261787	1.261073
C95	C	1.294698	-0.145528	0.761064
C96	C	1.794698	0.354472	1.261064
C97	C	1.294689	-0.145524	0.674519
C98	C	1.794689	0.354476	1.174519
C99	C	1.224067	-0.191863	0.631252
C100	C	1.724067	0.308137	1.131252
C101	C	1.224061	-0.191862	0.537408
C102	C	1.724061	0.308138	1.037408
C103	C	1.224062	-0.191857	0.462610
C104	C	1.724062	0.308143	0.962610
H105	H	0.886732	-0.296534	0.000003
H106	H	1.386732	0.203466	0.500003
H107	H	1.095943	-0.275925	0.360734
H108	H	1.595943	0.224075	0.860734
Cl109	Cl	0.542976	-0.055020	0.000020
Cl110	Cl	1.042976	0.444980	0.500020
H111	H	1.352144	-0.107772	0.203713
H112	H	1.852144	0.392228	0.703713
H113	H	0.712059	-0.350785	0.000006
H114	H	1.212059	0.149215	0.500006
Cl115	Cl	1.064648	-0.296446	0.184553
Cl116	Cl	1.564648	0.203554	0.684553
H117	H	0.736045	-0.032941	0.000018
H118	H	1.236045	0.467059	0.500018
H119	H	0.932186	-0.049622	0.000003
H120	H	1.432186	0.450378	0.500003
Cl121	Cl	0.486462	-0.362203	0.000011
Cl122	Cl	0.986462	0.137797	0.500011
Cl123	Cl	1.443535	0.024932	0.000033
Cl124	Cl	1.943535	0.524932	0.500033
H125	H	1.046791	0.574819	-0.000005
H126	H	1.546791	1.074819	0.499995
Cl127	Cl	1.439630	0.203392	0.000018
Cl128	Cl	1.939630	0.703392	0.500018
Cl129	Cl	1.434826	0.422874	0.000007
Cl130	Cl	1.934826	0.922874	0.500007
H131	H	1.352182	-0.107789	0.639285
H132	H	1.852182	0.392211	1.139285
H133	H	1.389480	0.582857	0.000007
H134	H	1.889480	1.082857	0.500007
Cl135	Cl	1.064722	-0.296478	0.815477
Cl136	Cl	1.564722	0.203522	1.315477
H137	H	1.049927	0.431380	-0.000011
H138	H	1.549927	0.931380	0.499989
Cl139	Cl	1.013292	0.193403	-0.000012
Cl140	Cl	1.513292	0.693403	0.499988
H141	H	1.058635	0.033426	0.000002
H142	H	1.558635	0.533426	0.500002
Cl143	Cl	1.383422	-0.087249	0.379887
Cl144	Cl	1.883422	0.412751	0.879887
H145	H	1.352199	-0.107794	0.796301
H146	H	1.852199	0.392206	1.296301
Cl147	Cl	1.064694	-0.296467	0.620134
Cl148	Cl	1.564694	0.203533	1.120134
