data_functionalizedCrystal
_audit_creation_method	'MofGen! by Chris Wilmer'
_symmetry_space_group_name_H-M	'P1'
_symmetry_Int_Tables_number	1
_symmetry_cell_setting	triclinic
loop_
_symmetry_equiv_pos_as_xyz
  x,y,z
_cell_length_a	23.532407
_cell_length_b	17.699083
_cell_length_c	16.776229
_cell_angle_alpha	90.001114
_cell_angle_beta	89.988688
_cell_angle_gamma	96.934153
loop_
_atom_site_label
_atom_site_type_symbol
_atom_site_fract_x
_atom_site_fract_y
_atom_site_fract_z
O1	O	0.072020	-1.003713	-0.066185
O2	O	0.081390	-0.783287	-0.066212
O3	O	-0.006208	-0.900147	-0.066183
O4	O	0.159617	-0.886853	-0.066214
O5	O	-0.006213	-0.900132	0.066394
O6	O	0.081384	-0.783272	0.066365
O7	O	0.072015	-1.003698	0.066392
Zn8	Zn	0.076699	-0.893482	0.087428
Zn9	Zn	0.076706	-0.893503	-0.087248
O10	O	0.159612	-0.886838	0.066363
C11	C	0.081051	-0.755084	0.000073
C12	C	0.080044	-0.671071	0.000063
C13	C	-0.027427	-0.899801	0.000107
C14	C	-0.090647	-0.898783	0.000113
N15	N	0.076693	-0.893474	0.206639
C16	C	-0.489570	-0.961554	0.000077
C17	C	-0.548973	-0.960609	0.000071
O18	O	-0.585550	-1.018799	0.000049
N19	N	-0.571799	-0.891136	0.000063
C20	C	-0.535218	-0.822604	0.000053
O21	O	-0.560088	-0.763424	0.000045
C22	C	-0.475816	-0.823550	0.000054
C23	C	-0.452994	-0.893028	0.000070
C24	C	-0.466747	-1.031026	0.000093
C25	C	-0.407348	-1.031972	0.000100
C26	C	-0.370772	-0.963445	0.000093
C27	C	-0.393595	-0.893973	0.000078
C28	C	-0.439237	-0.755019	0.000038
C29	C	-0.379832	-0.755971	0.000038
C30	C	-0.357009	-0.825448	0.000054
C31	C	-0.297620	-0.826391	0.000078
N32	N	-0.274795	-0.895864	0.000086
C33	C	-0.311371	-0.964391	0.000093
C34	C	-0.659966	-0.820622	0.000051
C35	C	-0.719367	-0.819674	0.000056
C36	C	-0.733118	-0.957680	0.000073
C37	C	-0.673716	-0.958626	0.000073
C38	C	-0.637141	-0.890095	0.000059
C39	C	-0.186628	-0.966371	0.000110
C40	C	-0.127223	-0.967310	0.000121
C41	C	-0.113478	-0.829305	0.000100
C42	C	-0.172877	-0.828365	0.000094
C43	C	-0.209452	-0.896904	0.000096
O44	O	-0.261008	-0.768232	0.000097
O45	O	-0.286493	-1.023560	0.000091
C46	C	0.180832	-0.887184	0.000071
C47	C	0.244052	-0.888202	0.000060
C48	C	0.072353	-1.031901	0.000105
C49	C	0.073360	-1.115914	0.000110
C50	C	0.131462	-0.622189	0.000054
C51	C	0.130512	-0.543251	0.000065
C52	C	0.078144	-0.513196	0.000079
C53	C	0.026722	-0.562084	0.000090
C54	C	0.027672	-0.641021	0.000086
C55	C	0.022888	-0.243740	0.000111
C56	C	0.021942	-0.164797	0.000113
C57	C	0.125728	-0.145970	0.000090
C58	C	0.126678	-0.224907	0.000085
C59	C	0.075257	-0.273788	0.000101
C60	C	0.076287	-0.359382	0.000091
C61	C	0.077113	-0.427603	0.000083
N62	N	0.076706	-0.893517	-0.206459
C63	C	0.037921	-0.945235	0.248369
C64	C	0.037921	-0.945239	0.331821
C65	C	0.076696	-0.893485	0.373542
C66	C	0.115470	-0.841719	0.331806
C67	C	0.115467	-0.841712	0.248355
C68	C	0.115481	-0.841746	0.668353
C69	C	0.115482	-0.841759	0.751810
C70	C	0.037935	-0.945274	0.751819
C71	C	0.037932	-0.945267	0.668368
C72	C	0.076704	-0.893498	0.626640
C73	C	0.076703	-0.893493	0.536151
C74	C	0.076699	-0.893493	0.464029
H75	H	-0.108645	-1.023889	0.000136
Br76	Br	-0.049135	-0.124009	0.000130
H77	H	-0.015917	-0.537607	0.000113
H78	H	-0.083687	-0.773512	0.000097
Br79	Br	-0.014702	-1.015485	0.388457
Br80	Br	-0.046898	-0.310069	0.000134
H81	H	0.006360	-0.987412	0.634402
H82	H	0.006362	-0.987425	0.785803
Br83	Br	-0.014701	-1.015482	0.191756
Br84	Br	-0.782768	-1.050682	0.000080
Br85	Br	-0.042112	-0.707362	0.000105
Br86	Br	0.202537	-0.662970	0.000027
Br87	Br	-0.610333	-0.727605	0.000039
H88	H	0.172382	-0.503454	0.000056
Br89	Br	-0.750332	-0.725380	0.000053
H90	H	0.147039	-0.799561	0.214380
H91	H	0.147058	-0.799612	0.785777
Br92	Br	0.168099	-0.771492	0.611726
H93	H	0.147039	-0.799576	0.365780
H94	H	0.167598	-0.106161	0.000081
Br95	Br	-0.236256	-1.059389	0.000112
Br96	Br	-0.376385	-1.126268	0.000100
H97	H	0.169322	-0.249373	0.000070
H98	H	-0.655139	-1.015201	0.000086
Br99	Br	-0.516376	-1.124040	0.000102
H100	H	-0.350054	-0.700163	0.000025
Br101	Br	-0.470194	-0.660721	0.000013
H102	H	-0.191460	-0.771791	0.000103
