data_functionalizedCrystal
_audit_creation_method	'MofGen! by Chris Wilmer'
_symmetry_space_group_name_H-M	'P1'
_symmetry_Int_Tables_number	1
_symmetry_cell_setting	triclinic
loop_
_symmetry_equiv_pos_as_xyz
  x,y,z
_cell_length_a	14.519709
_cell_length_b	12.837942
_cell_length_c	11.295483
_cell_angle_alpha	85.469583
_cell_angle_beta	94.107320
_cell_angle_gamma	89.254543
loop_
_atom_site_label
_atom_site_type_symbol
_atom_site_fract_x
_atom_site_fract_y
_atom_site_fract_z
O1	O	-1.241202	-0.128949	-0.098867
O2	O	-0.974110	-0.144951	-0.098903
O3	O	-1.101733	0.013963	-0.098879
O4	O	-1.113579	-0.287864	-0.098892
O5	O	-1.090522	0.000027	0.099170
O6	O	-0.962899	-0.158888	0.099145
O7	O	-1.229991	-0.142885	0.099181
Cu8	Cu	-1.095421	-0.152159	0.117247
Cu9	Cu	-1.108680	-0.135678	-0.116969
O10	O	-1.102368	-0.301800	0.099157
C11	C	-1.092126	0.045623	0.000144
C12	C	-1.080192	0.160723	0.000141
C13	C	-0.934081	-0.151173	0.000116
C14	C	-0.831507	-0.148937	0.000103
C15	C	-1.270021	-0.136663	0.000159
C16	C	-1.372595	-0.138899	0.000165
C17	C	-0.455897	-0.140712	0.000157
C18	C	-0.560403	-0.142996	0.000142
C19	C	-0.643699	-0.144824	0.000129
C20	C	-0.748212	-0.147109	0.000115
C21	C	-1.111975	-0.333460	0.000131
C22	C	-1.123909	-0.448558	0.000127
N23	N	-1.086102	-0.163750	0.281981
C24	C	-1.223663	0.401415	0.000135
C25	C	-1.212454	0.509562	0.000132
C26	C	-1.046567	0.485166	0.000122
C27	C	-1.057776	0.377019	0.000125
C28	C	-1.146327	0.335148	0.000134
C29	C	-1.157534	0.226998	0.000146
C30	C	-0.991648	0.202605	0.000127
C31	C	-0.980440	0.310751	0.000124
N32	N	-1.118005	-0.124078	-0.281703
C33	C	-1.185082	-0.040579	0.531290
C34	C	-1.178047	-0.049346	0.655952
C35	C	-1.064993	-0.190046	0.655971
C36	C	-1.072028	-0.181279	0.531308
C37	C	-1.132075	-0.106544	0.468972
C38	C	-1.139115	-0.097782	0.344308
C39	C	-1.026057	-0.238477	0.344328
C40	C	-1.019022	-0.247244	0.468991
H41	H	-1.229636	0.192909	0.000157
H42	H	-1.016097	-0.250887	0.706741
H43	H	-0.974474	0.519278	0.000102
H44	H	-0.908344	0.344859	0.000112
C45	C	-0.906575	0.129709	0.000116
H46	H	-0.925931	0.059303	0.000111
H47	H	-0.866748	0.137565	0.069173
H48	H	-0.874572	0.147278	-0.068963
H49	H	-0.982898	-0.292193	0.293575
H50	H	-1.295764	0.367323	0.000154
C51	C	-1.297524	0.582453	0.000140
H52	H	-1.351863	0.542022	0.000154
H53	H	-1.300508	0.630007	-0.068923
H54	H	-1.292691	0.620288	0.069214
H55	H	-0.970129	-0.308090	0.519759
H56	H	-1.188011	-0.036932	0.293555
H57	H	-1.233981	0.020267	0.480535
H58	H	-1.221208	0.004371	0.706688
