data_functionalizedCrystal
_audit_creation_method	'MofGen! by Chris Wilmer'
_symmetry_space_group_name_H-M	'P1'
_symmetry_Int_Tables_number	1
_symmetry_cell_setting	triclinic
loop_
_symmetry_equiv_pos_as_xyz
  x,y,z
_cell_length_a	12.759401
_cell_length_b	12.594516
_cell_length_c	12.759393
_cell_angle_alpha	89.970876
_cell_angle_beta	89.981504
_cell_angle_gamma	90.016214
loop_
_atom_site_label
_atom_site_type_symbol
_atom_site_fract_x
_atom_site_fract_y
_atom_site_fract_z
Zn1	Zn	1.606246	-0.423675	-0.593999
Zn2	Zn	1.606136	-0.601694	-0.418327
Zn3	Zn	1.430547	-0.423730	-0.418339
Zn4	Zn	1.430532	-0.601612	-0.593968
O5	O	1.518365	-0.512678	-0.506158
O6	O	1.753252	-0.447300	-0.570704
O7	O	1.582804	-0.578144	-0.271307
O8	O	1.453907	-0.274777	-0.441658
O9	O	1.753171	-0.578090	-0.441638
O10	O	1.582991	-0.274736	-0.570715
O11	O	1.453800	-0.447395	-0.271316
O12	O	1.283524	-0.447316	-0.441628
O13	O	1.453880	-0.577951	-0.740993
O14	O	1.283513	-0.578005	-0.570663
O15	O	1.582976	-0.447221	-0.741016
O16	O	1.582789	-0.750629	-0.441608
O17	O	1.453774	-0.750569	-0.570651
C18	C	1.245398	-0.512658	-0.506144
C19	C	1.128621	-0.512676	-0.506163
C20	C	1.518296	-0.789219	-0.506148
C21	C	1.518363	-0.907524	-0.506179
C22	C	1.073781	-0.580834	-0.573240
C23	C	0.964057	-0.580848	-0.573251
C24	C	0.964023	-0.444541	-0.439099
C25	C	1.073745	-0.444523	-0.439094
C26	C	1.128657	-0.648987	-0.640308
C27	C	1.073816	-0.717152	-0.707390
C28	C	0.964092	-0.717165	-0.707402
C29	C	0.909209	-0.649014	-0.640331
C30	C	1.448185	-0.976783	-0.576316
C31	C	1.422585	-1.047654	-0.480449
C32	C	1.544058	-1.047453	-0.602062
C33	C	1.492713	-0.976836	-0.410261
C34	C	1.614230	-0.976629	-0.531938
C35	C	1.588667	-1.047468	-0.436006
C36	C	1.792398	-0.512698	-0.506173
C37	C	1.909175	-0.512707	-0.506179
C38	C	1.518439	-0.512570	-0.780192
C39	C	1.518470	-0.512525	-0.896968
C40	C	1.518463	-0.235057	-0.506192
C41	C	1.518505	-0.116752	-0.506206
C42	C	1.585700	-0.444447	-0.951844
C43	C	1.585725	-0.444409	-1.061568
C44	C	1.451288	-0.580534	-1.061531
C45	C	1.451258	-0.580567	-0.951809
C46	C	1.652912	-0.376405	-0.897003
C47	C	1.720147	-0.308323	-0.951879
C48	C	1.720172	-0.308284	-1.061603
C49	C	1.652962	-0.376328	-1.116451
C50	C	1.518352	-0.512708	-0.233191
C51	C	1.518525	-0.512454	-0.116415
H52	H	1.118509	-0.772632	-0.762003
H53	H	1.774911	-0.252841	-1.106280
O54	O	1.385844	-0.646556	-0.898460
C55	C	1.318002	-0.585984	-0.834979
H56	H	1.311547	-0.502140	-0.868053
H57	H	1.237136	-0.624479	-0.833730
H58	H	1.350460	-0.582352	-0.751823
O59	O	1.466765	-0.940172	-0.313436
C60	C	1.448674	-1.026770	-0.245729
H61	H	1.491248	-1.099830	-0.276810
H62	H	1.479157	-1.006832	-0.164100
H63	H	1.360990	-1.043673	-0.241527
H64	H	1.774861	-0.252918	-0.907214
O65	O	0.910703	-0.783425	-0.772418
C66	C	0.847220	-0.852123	-0.712490
H67	H	0.830754	-0.814487	-0.632937
H68	H	0.770080	-0.866452	-0.755268
H69	H	0.889491	-0.930980	-0.700807
H70	H	1.652975	-0.376279	-1.205796
O71	O	0.802622	-0.648983	-0.640547
C72	C	0.766039	-0.621727	-0.741286
H73	H	0.829291	-0.640009	-0.801757
H74	H	0.692612	-0.669728	-0.759898
H75	H	0.746632	-0.533406	-0.743663
H76	H	1.118397	-0.389014	-0.384482
O77	O	1.386110	-0.646601	-1.114970
C78	C	1.400537	-0.631958	-1.223581
H79	H	1.481633	-0.597097	-1.238575
H80	H	1.393399	-0.711672	-1.265264
H81	H	1.338247	-0.575266	-1.254731
O82	O	1.377121	-0.939797	-0.646854
C83	C	1.276227	-0.976015	-0.619323
H84	H	1.274307	-0.995929	-0.532178
H85	H	1.216239	-0.911324	-0.636786
H86	H	1.256551	-1.050076	-0.666742
H87	H	1.565734	-1.078472	-0.683138
O88	O	1.325952	-1.085004	-0.454606
C89	C	1.287026	-1.148109	-0.537126
H90	H	1.355230	-1.179048	-0.586090
H91	H	1.241313	-1.217993	-0.503365
H92	H	1.233060	-1.098316	-0.588649
H93	H	1.217999	-0.648985	-0.640305
H94	H	1.648075	-1.078309	-0.376636
O95	O	0.910550	-0.378454	-0.373975
C96	C	0.801947	-0.393072	-0.388378
H97	H	0.786969	-0.475254	-0.422659
H98	H	0.760220	-0.385777	-0.309694
H99	H	0.770832	-0.330006	-0.444426
O100	O	1.710929	-0.939508	-0.557834
C101	C	1.785109	-0.977068	-0.484819
H102	H	1.754033	-1.052202	-0.445810
H103	H	1.861744	-0.995645	-0.526940
H104	H	1.799536	-0.913733	-0.422668
O105	O	1.652987	-0.376273	-0.790419
C106	C	1.726743	-0.301642	-0.753778
H107	H	1.741500	-0.239434	-0.817019
H108	H	1.695042	-0.261274	-0.680376
H109	H	1.803328	-0.343867	-0.734311
