data_functionalizedCrystal
_audit_creation_method	'MofGen! by Chris Wilmer'
_symmetry_space_group_name_H-M	'P1'
_symmetry_Int_Tables_number	1
_symmetry_cell_setting	triclinic
loop_
_symmetry_equiv_pos_as_xyz
  x,y,z
_cell_length_a	10.654534
_cell_length_b	10.654550
_cell_length_c	9.130313
_cell_angle_alpha	89.995631
_cell_angle_beta	90.004310
_cell_angle_gamma	95.518333
loop_
_atom_site_label
_atom_site_type_symbol
_atom_site_fract_x
_atom_site_fract_y
_atom_site_fract_z
O1	O	-1.667851	0.176303	-0.121827
O2	O	-1.302370	0.193130	-0.121823
O3	O	-1.493514	0.001977	-0.121816
O4	O	-1.476708	0.367457	-0.121834
O5	O	-1.493500	0.001972	0.121783
O6	O	-1.302357	0.193125	0.121775
O7	O	-1.667838	0.176298	0.121772
Cu8	Cu	-1.485096	0.184711	0.144016
Cu9	Cu	-1.485112	0.184717	-0.144068
O10	O	-1.476694	0.367451	0.121765
C11	C	-1.255565	0.191896	-0.000024
C12	C	-1.116121	0.188212	-0.000022
C13	C	-1.050609	0.186475	0.132766
C14	C	-0.919589	0.182993	0.132770
C15	C	-0.919604	0.182990	-0.132815
C16	C	-1.050623	0.186464	-0.132817
C17	C	-1.492273	-0.044824	-0.000017
C18	C	-1.488581	-0.184267	-0.000019
C19	C	-1.601123	-0.263759	-0.000021
C20	C	-1.597647	-0.394779	-0.000039
C21	C	-1.369076	-0.366803	-0.000047
C22	C	-1.372554	-0.235785	-0.000040
C23	C	-0.714642	0.177542	-0.000025
C24	C	-0.854082	0.181257	-0.000017
C25	C	-1.477935	0.414252	-0.000037
C26	C	-1.481627	0.553695	-0.000045
N27	N	-1.485094	0.184705	0.346639
N28	N	-1.485123	0.184713	-0.346690
C29	C	-1.569762	0.100099	0.423294
C30	C	-1.569774	0.100099	0.576631
C31	C	-1.400447	0.269324	0.576644
C32	C	-1.400430	0.269316	0.423310
H33	H	-0.866259	0.181568	-0.240932
C34	C	-1.241452	-0.423486	-0.000042
N35	N	-1.145323	-0.466178	-0.000026
H36	H	-1.103934	0.187899	0.240896
H37	H	-1.638716	0.031203	0.639039
C38	C	-1.662885	0.007014	0.338962
N39	N	-1.733024	-0.063104	0.275446
H40	H	-1.331517	0.338214	0.639085
H41	H	-1.695600	-0.221817	-0.000007
C42	C	-1.721453	-0.482216	-0.000028
N43	N	-1.814709	-0.548073	-0.000016
C44	C	-0.847530	0.181096	0.278848
N45	N	-0.793255	0.179672	0.388880
C46	C	-1.122691	0.188367	-0.278902
N47	N	-1.176974	0.189796	-0.388929
H48	H	-1.280902	-0.171059	-0.000043
C49	C	-1.307342	0.362453	0.338984
N50	N	-1.237251	0.432620	0.275470
