data_functionalizedCrystal
_audit_creation_method	'MofGen! by Chris Wilmer'
_symmetry_space_group_name_H-M	'P1'
_symmetry_Int_Tables_number	1
_symmetry_cell_setting	triclinic
loop_
_symmetry_equiv_pos_as_xyz
  x,y,z
_cell_length_a	14.908571
_cell_length_b	17.640280
_cell_length_c	14.908662
_cell_angle_alpha	81.377939
_cell_angle_beta	83.592432
_cell_angle_gamma	74.921313
loop_
_atom_site_label
_atom_site_type_symbol
_atom_site_fract_x
_atom_site_fract_y
_atom_site_fract_z
Zn1	Zn	1.504201	-0.416139	-0.500831
Zn2	Zn	2.004201	0.083861	-0.000831
Zn3	Zn	1.522462	-0.540228	-0.322426
Zn4	Zn	2.022462	-0.040228	0.177574
Zn5	Zn	1.340572	-0.399970	-0.344289
Zn6	Zn	1.840572	0.100030	0.155711
Zn7	Zn	1.379881	-0.540168	-0.465038
Zn8	Zn	1.879881	-0.040168	0.034962
O9	O	1.436779	-0.474126	-0.408146
O10	O	1.936779	0.025874	0.091854
O11	O	1.634773	-0.439392	-0.482995
O12	O	2.134773	0.060608	0.017005
O13	O	1.489525	-0.514880	-0.200130
O14	O	1.989525	-0.014880	0.299870
O15	O	1.338185	-0.291509	-0.389184
O16	O	1.838185	0.208491	0.110816
O17	O	1.648190	-0.530559	-0.351922
O18	O	2.148190	-0.030559	0.148078
O19	O	1.458402	-0.303389	-0.504195
O20	O	1.958402	0.196611	-0.004195
O21	O	1.355892	-0.411833	-0.216192
O22	O	1.855892	0.088167	0.283808
O23	O	1.217637	-0.411775	-0.354477
O24	O	1.717637	0.088225	0.145523
O25	O	1.405181	-0.530458	-0.594983
O26	O	1.905181	-0.030458	-0.094983
O27	O	1.246517	-0.514779	-0.443190
O28	O	1.746517	-0.014779	0.056810
O29	O	1.496518	-0.439334	-0.621280
O30	O	1.996518	0.060666	-0.121280
O31	O	1.527642	-0.650825	-0.317215
O32	O	2.027642	-0.150825	0.182785
O33	O	1.422888	-0.650781	-0.421991
O34	O	1.922888	-0.150781	0.078009
C35	C	1.198849	-0.461517	-0.397322
C36	C	1.698849	0.038483	0.102678
C37	C	1.097067	-0.456143	-0.392709
C38	C	1.597067	0.043857	0.107291
C39	C	0.935953	-0.553450	-0.476230
C40	C	1.435953	-0.053450	0.023770
C41	C	0.840321	-0.548403	-0.471898
C42	C	1.340321	-0.048403	0.028102
C43	C	0.810168	-0.440999	-0.379719
C44	C	1.310168	0.059001	0.120281
C45	C	0.905801	-0.446046	-0.384051
C46	C	1.405801	0.053954	0.115949
C47	C	0.968690	-0.502274	-0.432307
C48	C	1.468690	-0.002274	0.067693
C49	C	1.064325	-0.507324	-0.436633
C50	C	1.564325	-0.007324	0.063367
C51	C	1.034170	-0.399916	-0.344460
C52	C	1.534170	0.100084	0.155540
C53	C	0.938538	-0.394870	-0.340128
C54	C	1.438538	0.105130	0.159872
C55	C	1.481538	-0.679484	-0.363367
C56	C	1.981538	-0.179484	0.136633
C57	C	1.500772	-0.767343	-0.344244
C58	C	2.000772	-0.267343	0.155756
C59	C	1.291060	-1.056293	-0.553764
C60	C	1.791060	-0.556293	-0.053764
C61	C	1.309133	-1.138849	-0.535766
C62	C	1.809133	-0.638849	-0.035766
C63	C	1.418293	-1.138839	-0.426782
C64	C	1.918293	-0.638839	0.073218
C65	C	1.400233	-1.056282	-0.444773
C66	C	1.900233	-0.556282	0.055227
C67	C	1.336614	-1.015016	-0.508264
C68	C	1.836614	-0.515016	-0.008264
C69	C	1.445788	-1.015004	-0.399274
C70	C	1.945788	-0.515004	0.100726
C71	C	1.427725	-0.932454	-0.417261
C72	C	1.927725	-0.432454	0.082739
C73	C	1.364107	-0.891182	-0.480747
C74	C	1.864107	-0.391182	0.019253
C75	C	1.318551	-0.932466	-0.526251
C76	C	1.818551	-0.432466	-0.026251
C77	C	1.509401	-1.056272	-0.335778
C78	C	2.009401	-0.556272	0.164222
C79	C	1.554956	-1.014994	-0.290279
C80	C	2.054956	-0.514994	0.209721
C81	C	1.536898	-0.932443	-0.308270
C82	C	2.036898	-0.432443	0.191730
C83	C	1.473280	-0.891171	-0.371756
C84	C	1.973280	-0.391171	0.128244
C85	C	1.582454	-0.891159	-0.262766
C86	C	2.082454	-0.391159	0.237234
C87	C	1.564391	-0.808609	-0.280753
C88	C	2.064391	-0.308609	0.219247
C89	C	1.455217	-0.808621	-0.389743
C90	C	1.955217	-0.308621	0.110257
C91	C	1.675638	-0.486785	-0.419012
C92	C	2.175638	0.013215	0.080988
C93	C	1.777426	-0.492180	-0.423643
C94	C	2.277426	0.007820	0.076357
C95	C	1.453198	-0.486693	-0.641501
C96	C	1.953198	0.013307	-0.141501
C97	C	1.460194	-0.492048	-0.740943
C98	C	1.960194	0.007952	-0.240943
C99	C	1.391872	-0.267969	-0.453121
C100	C	1.891872	0.232031	0.046879
C101	C	1.372735	-0.180117	-0.472286
C102	C	1.872735	0.319883	0.027714
C103	C	1.539619	-0.553241	-0.872743
C104	C	2.039619	-0.053241	-0.372743
C105	C	1.533053	-0.548214	-0.779308
C106	C	2.033053	-0.048214	-0.279308
C107	C	1.393895	-0.440908	-0.796020
C108	C	1.893895	0.059092	-0.296020
C109	C	1.400462	-0.445935	-0.889456
C110	C	1.900462	0.054065	-0.389456
C111	C	1.473327	-0.502103	-0.927813
C112	C	1.973327	-0.002103	-0.427813
C113	C	1.479896	-0.507126	-1.021252
C114	C	1.979896	-0.007126	-0.521252
C115	C	1.340736	-0.399824	-1.037961
C116	C	1.840736	0.100176	-0.537961
C117	C	1.334169	-0.394797	-0.944526
C118	C	1.834169	0.105203	-0.444526
C119	C	1.420465	-0.461554	-0.175714
C120	C	1.920465	0.038446	0.324286
C121	C	1.413597	-0.455985	-0.076329
C122	C	1.913597	0.044015	0.423671
H123	H	1.115529	-0.553109	-0.475924
H124	H	1.615529	-0.053109	0.024076
H125	H	1.601485	-0.775001	-0.243702
H126	H	2.101485	-0.275001	0.256298
Cl127	Cl	1.015018	-0.624142	-0.536881
Cl128	Cl	1.515018	-0.124142	-0.036881
Cl129	Cl	1.257397	-0.335528	-1.107200
Cl130	Cl	1.757397	0.164472	-0.607200
Cl131	Cl	1.251845	-1.190738	-0.592962
Cl132	Cl	1.751845	-0.690738	-0.092962
Cl133	Cl	1.498270	-1.190724	-0.346970
Cl134	Cl	1.998270	-0.690724	0.153030
H135	H	1.349395	-0.823964	-0.495384
H136	H	1.849395	-0.323964	0.004616
H137	H	1.524108	-1.123490	-0.321138
H138	H	2.024108	-0.623490	0.178862
H139	H	1.606751	-1.048604	-0.238582
H140	H	2.106751	-0.548604	0.261418
Cl141	Cl	1.631227	-0.623839	-0.920971
Cl142	Cl	2.131227	-0.123839	-0.420971
Cl143	Cl	1.075331	-0.335583	-0.289230
Cl144	Cl	1.575331	0.164417	0.210770
Cl145	Cl	1.238581	-0.880583	-0.606079
Cl146	Cl	1.738581	-0.380583	-0.106079
H147	H	1.634245	-0.924770	-0.211065
H148	H	2.134245	-0.424770	0.288935
Cl149	Cl	1.571499	-0.577733	-1.069473
Cl150	Cl	2.071499	-0.077733	-0.569473
H151	H	1.334566	-0.395186	-0.764771
H152	H	1.834566	0.104814	-0.264771
Cl153	Cl	1.242585	-0.324179	-0.896299
Cl154	Cl	1.742585	0.175821	-0.396299
H155	H	0.758947	-0.395216	-0.340438
H156	H	1.258947	0.104784	0.159562
Cl157	Cl	1.616394	-0.612506	-0.710078
Cl158	Cl	2.116394	-0.112506	-0.210078
H159	H	0.813671	-0.590074	-0.507666
H160	H	1.313671	-0.090074	-0.007666
H161	H	0.887320	-0.349088	-0.300842
H162	H	1.387320	0.150912	0.199158
H163	H	1.403420	-0.775021	-0.441451
H164	H	1.903420	-0.275021	0.058549
H165	H	1.239262	-1.022694	-0.605471
H166	H	1.739262	-0.522694	-0.105471
