data_functionalizedCrystal
_audit_creation_method	'MofGen! by Chris Wilmer'
_symmetry_space_group_name_H-M	'P1'
_symmetry_Int_Tables_number	1
_symmetry_cell_setting	triclinic
loop_
_symmetry_equiv_pos_as_xyz
  x,y,z
_cell_length_a	10.540510
_cell_length_b	10.540510
_cell_length_c	16.053802
_cell_angle_alpha	92.593693
_cell_angle_beta	87.392914
_cell_angle_gamma	84.513311
loop_
_atom_site_label
_atom_site_type_symbol
_atom_site_fract_x
_atom_site_fract_y
_atom_site_fract_z
O1	O	1.691198	0.173426	-0.069430
O2	O	2.191198	0.673426	0.430570
O3	O	1.321778	0.190321	-0.069430
O4	O	1.821778	0.690321	0.430570
O5	O	1.514936	-0.002836	-0.069429
O6	O	2.014936	0.497164	0.430571
O7	O	1.498040	0.366583	-0.069430
O8	O	1.998040	0.866583	0.430570
O9	O	1.504303	0.007751	0.069430
O10	O	2.004303	0.507751	0.569430
O11	O	1.311146	0.200909	0.069429
O12	O	1.811146	0.700909	0.569429
O13	O	1.680566	0.184014	0.069429
O14	O	2.180566	0.684014	0.569429
Zn15	Zn	1.494168	0.194142	0.091476
Zn16	Zn	1.994168	0.694142	0.591476
Zn17	Zn	1.508176	0.180193	-0.091477
Zn18	Zn	2.008176	0.680193	0.408523
O19	O	1.487408	0.377171	0.069429
O20	O	1.987408	0.877171	0.569429
C21	C	1.269159	0.194356	-0.000000
C22	C	1.769159	0.694356	0.500000
C23	C	1.128209	0.190589	-0.000000
C24	C	1.628209	0.690589	0.500000
C25	C	0.910764	0.324751	-0.000320
C26	C	1.410764	0.824751	0.499680
C27	C	1.057335	0.328793	-0.000002
C28	C	1.557335	0.828793	0.499998
C29	C	1.077385	0.125888	0.079293
C30	C	1.577385	0.625888	0.579293
C31	C	0.930620	0.122854	0.079354
C32	C	1.430620	0.622854	0.579354
C33	C	0.942905	0.107935	-0.078554
C34	C	1.442905	0.607935	0.421446
C35	C	1.089325	0.114411	-0.079597
C36	C	1.589325	0.614411	0.420403
C37	C	1.508361	-0.044846	-0.000002
C38	C	2.008361	0.455154	0.499998
C39	C	1.504594	-0.185796	-0.000007
C40	C	2.004594	0.314204	0.499993
C41	C	1.638756	-0.403241	0.000311
C42	C	2.138756	0.096759	0.500311
C43	C	1.642798	-0.256670	-0.000006
C44	C	2.142798	0.243330	0.499994
C45	C	1.439919	-0.236593	-0.079300
C46	C	1.939919	0.263407	0.420700
C47	C	1.436884	-0.383358	-0.079362
C48	C	1.936884	0.116642	0.420638
C49	C	1.421915	-0.371126	0.078546
C50	C	1.921915	0.128874	0.578546
C51	C	1.428390	-0.224706	0.079590
C52	C	1.928390	0.275294	0.579590
C53	C	1.733185	0.179979	-0.000002
C54	C	2.233185	0.679979	0.499998
C55	C	1.874135	0.183745	-0.000007
C56	C	2.374135	0.683745	0.499993
C57	C	1.493983	0.419181	-0.000001
C58	C	1.993983	0.919181	0.499999
C59	C	1.497750	0.560130	-0.000001
C60	C	1.997750	1.060130	0.499999
N61	N	1.484616	0.203662	0.216336
N62	N	1.984616	0.703662	0.716336
N63	N	1.517737	0.170663	-0.216337
N64	N	2.017737	0.670663	0.283663
C65	C	1.566836	0.121503	0.260030
C66	C	2.066836	0.621503	0.760030
C67	C	1.560167	0.128174	0.347437
C68	C	2.060167	0.628174	0.847437
C69	C	1.471283	0.217012	0.391148
C70	C	1.971283	0.717012	0.891148
C71	C	1.389055	0.299174	0.347448
C72	C	1.889055	0.799174	0.847448
C73	C	1.395719	0.292496	0.260043
C74	C	1.895719	0.792496	0.760043
C75	C	1.442173	0.246147	0.652558
C76	C	1.942173	0.746147	1.152558
C77	C	1.435518	0.252822	0.739969
C78	C	1.935518	0.752822	1.239969
C79	C	1.606629	0.081820	0.739952
C80	C	2.106629	0.581820	1.239952
C81	C	1.613290	0.075154	0.652545
C82	C	2.113290	0.575154	1.152545
C83	C	1.531057	0.157312	0.608853
C84	C	2.031057	0.657312	1.108853
N85	N	1.464467	0.223836	0.480492
N86	N	1.964467	0.723836	0.980492
N87	N	1.537869	0.150481	0.519511
N88	N	2.037869	0.650481	1.019511
H89	H	0.862921	0.382595	0.056224
H90	H	1.362921	0.882595	0.556224
Cl91	Cl	1.323770	0.364517	0.794914
Cl92	Cl	1.823770	0.864517	1.294914
H93	H	1.627115	0.061273	0.383013
H94	H	2.127115	0.561273	0.883013
H95	H	1.375218	0.313046	0.616990
H96	H	1.875218	0.813046	1.116990
Cl97	Cl	1.292348	0.395782	0.205114
Cl98	Cl	1.792348	0.895782	0.705114
Cl99	Cl	1.725031	-0.036526	0.597594
Cl100	Cl	2.225031	0.463474	1.097594
Cl101	Cl	1.709996	-0.021463	0.794884
Cl102	Cl	2.209996	0.478537	1.294884
Cl103	Cl	1.150204	-0.030855	0.083846
Cl104	Cl	1.650204	0.469145	0.583846
Cl105	Cl	1.094458	0.421456	0.087908
Cl106	Cl	1.594458	0.921456	0.587908
Cl107	Cl	1.165652	-0.041942	-0.086988
Cl108	Cl	1.665652	0.458058	0.413012
Cl109	Cl	1.140494	0.186935	-0.170169
Cl110	Cl	1.640494	0.686935	0.329831
Cl111	Cl	1.109357	0.407562	-0.087759
Cl112	Cl	1.609357	0.907562	0.412241
Cl113	Cl	1.283185	-0.163755	-0.083861
Cl114	Cl	1.783185	0.336245	0.416139
H115	H	0.873159	0.374257	-0.057186
H116	H	1.373159	0.874257	0.442814
Cl117	Cl	0.861508	0.204484	0.170864
Cl118	Cl	1.361508	0.704484	0.670864
Cl119	Cl	0.894697	-0.036302	0.084965
Cl120	Cl	1.394697	0.463698	0.584965
Cl121	Cl	1.728096	-0.477071	-0.086987
Cl122	Cl	2.228096	0.022929	0.413013
Cl123	Cl	1.118031	0.208690	0.170403
Cl124	Cl	1.618031	0.708690	0.670403
H125	H	1.316678	0.371503	0.383043
H126	H	1.816678	0.871503	0.883043
Cl127	Cl	1.261650	-0.405246	0.079374
Cl128	Cl	1.761650	0.094754	0.579374
H129	H	1.493569	-0.210241	-0.138310
H130	H	1.993569	0.289759	0.361690
Cl131	Cl	1.500921	-0.173622	0.170161
Cl132	Cl	2.000921	0.326378	0.670161
Cl133	Cl	1.277723	-0.419275	-0.084925
Cl134	Cl	1.777723	0.080725	0.415075
H135	H	1.327124	-0.175264	0.084378
H136	H	1.827124	0.324736	0.584378
H137	H	0.920803	0.004131	-0.079090
H138	H	1.420803	0.504131	0.420910
Cl139	Cl	1.735484	-0.219517	-0.087918
Cl140	Cl	2.235484	0.280483	0.412082
Cl141	Cl	1.482162	-0.429680	0.171338
Cl142	Cl	1.982162	0.070320	0.671338
Cl143	Cl	1.721511	-0.204673	0.087763
Cl144	Cl	2.221511	0.295327	0.587763
Cl145	Cl	1.678587	0.009821	0.205089
Cl146	Cl	2.178587	0.509821	0.705089
Cl147	Cl	1.518547	-0.452440	-0.170871
Cl148	Cl	2.018547	0.047560	0.329129
H149	H	0.904954	0.146936	-0.138655
H150	H	1.404954	0.646936	0.361345
Cl151	Cl	1.715171	-0.461330	0.088108
Cl152	Cl	2.215171	0.038670	0.588108
