data_functionalizedCrystal
_audit_creation_method	'MofGen! by Chris Wilmer'
_symmetry_space_group_name_H-M	'P1'
_symmetry_Int_Tables_number	1
_symmetry_cell_setting	triclinic
loop_
_symmetry_equiv_pos_as_xyz
  x,y,z
_cell_length_a	13.635800
_cell_length_b	23.752966
_cell_length_c	10.943624
_cell_angle_alpha	84.949430
_cell_angle_beta	108.838799
_cell_angle_gamma	79.933465
loop_
_atom_site_label
_atom_site_type_symbol
_atom_site_fract_x
_atom_site_fract_y
_atom_site_fract_z
V1	V	2.035757	-0.079145	0.403276
O2	O	2.037663	0.003819	0.394853
O3	O	2.003116	-0.156946	0.401235
O4	O	2.025079	-0.077921	0.578831
O5	O	2.015548	-0.075754	0.216028
V6	V	2.276913	-0.069222	0.380792
O7	O	2.167715	-0.100911	0.452595
O8	O	2.370054	-0.047456	0.331473
O9	O	2.197951	0.008579	0.382833
O10	O	2.333706	-0.152186	0.389215
O11	O	2.355821	-0.072614	0.568040
O12	O	2.175988	-0.070446	0.205237
V13	V	2.535757	-0.079145	0.403276
O14	O	2.537663	0.003819	0.394853
O15	O	2.503116	-0.156946	0.401235
O16	O	2.525079	-0.077921	0.578831
O17	O	2.515548	-0.075754	0.216028
V18	V	2.776913	-0.069222	0.380792
O19	O	2.667715	-0.100911	0.452595
O20	O	2.870054	-0.047456	0.331473
O21	O	2.697951	0.008579	0.382833
O22	O	2.833706	-0.152186	0.389215
O23	O	2.855821	-0.072614	0.568040
O24	O	2.675988	-0.070446	0.205237
C25	C	1.923125	-0.175912	0.395058
C26	C	1.937170	-0.239516	0.394560
C27	C	2.115648	-0.636849	0.398079
C28	C	2.128863	-0.696613	0.397630
O29	O	2.213303	-0.730003	0.402944
N30	N	2.044228	-0.723589	0.390929
C31	C	1.946374	-0.690799	0.384689
O32	O	1.875600	-0.719232	0.378949
C33	C	1.933162	-0.631037	0.385147
C34	C	2.017801	-0.604063	0.391835
C35	C	2.200279	-0.609875	0.404768
C36	C	2.187063	-0.550115	0.405214
C37	C	2.089216	-0.517329	0.398970
C38	C	2.004585	-0.544303	0.392281
C39	C	1.835312	-0.598249	0.378916
C40	C	1.822107	-0.538483	0.379376
C41	C	1.906745	-0.511509	0.386064
C42	C	1.893522	-0.451758	0.386484
N43	N	1.978157	-0.424781	0.393185
C44	C	2.076004	-0.457567	0.399428
C45	C	1.974128	-0.816303	0.383730
C46	C	1.987337	-0.876064	0.383263
C47	C	2.169826	-0.881874	0.396207
C48	C	2.156614	-0.822112	0.396664
C49	C	2.058763	-0.789327	0.390431
C50	C	2.048243	-0.332067	0.400363
C51	C	2.035017	-0.272301	0.400803
C52	C	1.852531	-0.266497	0.387866
C53	C	1.865754	-0.326257	0.387419
C54	C	1.963619	-0.359041	0.393673
O55	O	1.809115	-0.418331	0.381178
O56	O	2.146768	-0.429128	0.405184
C57	C	1.951140	-0.075107	0.621598
C58	C	1.982995	-0.074621	0.765120
C59	C	2.109613	0.027542	0.389006
C60	C	2.085187	0.091145	0.389513
C61	C	2.081597	-0.073262	0.162463
C62	C	2.039361	-0.073745	0.018940
C63	C	2.423125	-0.175912	0.395058
C64	C	2.437170	-0.239516	0.394560
C65	C	2.451140	-0.075107	0.621598
C66	C	2.482995	-0.074621	0.765120
C67	C	1.906320	-0.071348	0.842238
C68	C	1.987499	-0.119936	0.948672
C69	C	1.958588	-0.025172	0.914418
C70	C	2.063767	-0.123255	0.869679
C71	C	2.034828	-0.028448	0.835400
C72	C	2.116072	-0.077050	0.941806
C73	C	2.609613	0.027542	0.389006
C74	C	2.585187	0.091145	0.389513
C75	C	2.581597	-0.073262	0.162463
C76	C	2.539361	-0.073745	0.018940
C77	C	2.535017	-0.272301	0.400803
C78	C	2.548232	-0.332065	0.400355
C79	C	2.463598	-0.359041	0.393653
C80	C	2.365744	-0.326251	0.387413
C81	C	2.352531	-0.266489	0.387871
C82	C	2.659834	0.123930	0.383273
C83	C	2.636891	0.183694	0.383728
C84	C	2.539303	0.210670	0.390432
C85	C	2.464650	0.177880	0.396669
C86	C	2.487591	0.118118	0.396204
C87	C	2.406320	-0.071348	0.842238
C88	C	2.487499	-0.119936	0.948672
C89	C	2.458588	-0.025172	0.914418
C90	C	2.563767	-0.123255	0.869679
C91	C	2.534828	-0.028448	0.835400
C92	C	2.616072	-0.077050	0.941806
H93	H	2.103943	-0.250342	0.406245
C94	C	2.767187	0.094269	0.375888
N95	N	2.848047	0.071933	0.370315
H96	H	2.414429	0.016271	0.934801
C97	C	2.719042	0.219747	0.376922
N98	N	2.780925	0.246900	0.371813
H99	H	2.474370	-0.407704	0.393282
H100	H	2.296839	-0.348224	0.381958
H101	H	1.796837	-0.348221	0.381982
C102	C	2.514078	0.276411	0.390926
N103	N	2.495084	0.325928	0.391295
H104	H	2.249498	-0.908578	0.401280
C105	C	2.357305	0.207563	0.404042
N106	N	2.276454	0.229922	0.409601
C107	C	2.655877	-0.368122	0.407205
N108	N	2.736954	-0.395278	0.412361
H109	H	2.272851	-0.239799	0.382780
C110	C	1.714461	-0.502423	0.372512
N111	N	1.633381	-0.475264	0.367337
C112	C	2.155895	-0.368120	0.407232
N113	N	2.236975	-0.395275	0.412395
C114	C	1.786156	-0.068180	0.783497
N115	N	1.695652	-0.065797	0.739252
C116	C	2.286156	-0.068180	0.783497
N117	N	2.195652	-0.065797	0.739252
H118	H	1.918410	-0.898019	0.377800
H119	H	2.467821	-0.158614	0.997975
C120	C	2.280193	-0.520457	0.412646
N121	N	2.350352	-0.498125	0.418272
C122	C	2.623424	-0.179320	0.842442
N123	N	2.668352	-0.221548	0.821925
C124	C	2.123424	-0.179320	0.842442
N125	N	2.168352	-0.221548	0.821925
H126	H	2.426802	0.091428	0.401297
H127	H	2.705056	-0.079473	0.985072
H128	H	2.279961	-0.636564	0.409857
C129	C	2.061348	0.023808	0.768734
N130	N	2.081313	0.063171	0.718515
H131	H	2.554464	0.010232	0.786063
H132	H	2.225535	-0.800154	0.402108
C133	C	1.742199	-0.627907	0.371566
N134	N	1.672062	-0.650244	0.366034
H135	H	1.894441	-0.789613	0.378645
H136	H	1.967821	-0.158614	0.997975
C137	C	2.236285	-0.080334	1.000310
N138	N	2.326831	-0.082814	1.044396
C139	C	1.744899	-0.230421	0.380985
N140	N	1.663830	-0.203246	0.375807
H141	H	1.914429	0.016271	0.934801
H142	H	2.603941	-0.250345	0.406252
