data_functionalizedCrystal
_audit_creation_method	'MofGen! by Chris Wilmer'
_symmetry_space_group_name_H-M	'P1'
_symmetry_Int_Tables_number	1
_symmetry_cell_setting	triclinic
loop_
_symmetry_equiv_pos_as_xyz
  x,y,z
_cell_length_a	14.971486
_cell_length_b	10.065875
_cell_length_c	14.971486
_cell_angle_alpha	81.200355
_cell_angle_beta	83.614129
_cell_angle_gamma	98.752868
loop_
_atom_site_label
_atom_site_type_symbol
_atom_site_fract_x
_atom_site_fract_y
_atom_site_fract_z
O1	O	1.199999	0.113335	0.103447
O2	O	1.699999	0.613335	0.603447
O3	O	0.939604	0.113372	0.117402
O4	O	1.439604	0.613372	0.617402
O5	O	1.076780	0.113343	-0.019774
O6	O	1.576780	0.613343	0.480226
O7	O	1.062823	0.113365	0.240623
O8	O	1.562823	0.613365	0.740623
O9	O	1.050622	-0.113640	0.006488
O10	O	1.550622	0.386360	0.506488
O11	O	0.913446	-0.113611	0.143664
O12	O	1.413446	0.386389	0.643664
O13	O	1.173842	-0.113648	0.129710
O14	O	1.673842	0.386352	0.629710
Zn15	Zn	1.039491	-0.149668	0.140857
Zn16	Zn	1.539491	0.350332	0.640857
Zn17	Zn	1.073955	0.149392	0.106255
Zn18	Zn	1.573955	0.649392	0.606255
O19	O	1.036666	-0.113619	0.266886
O20	O	1.536666	0.386381	0.766886
C21	C	0.893201	-0.000114	0.129908
C22	C	1.393201	0.499886	0.629908
C23	C	0.793905	-0.000100	0.128036
C24	C	1.293905	0.499900	0.628036
N25	N	1.015977	-0.353768	0.164472
N26	N	1.515977	0.146232	0.664472
C27	C	0.736680	-0.000096	0.208625
C28	C	1.236680	0.499904	0.708625
C29	C	0.643379	-0.000116	0.206864
C30	C	1.143379	0.499884	0.706864
C31	C	0.607305	-0.000132	0.124512
C32	C	1.107305	0.499868	0.624512
C33	C	0.664536	-0.000140	0.043918
C34	C	1.164536	0.499860	0.543918
C35	C	0.757835	-0.000130	0.045681
C36	C	1.257835	0.499870	0.545681
C37	C	0.470072	-0.000160	0.040249
C38	C	0.970072	0.499840	0.540249
C39	C	0.376767	-0.000168	0.038486
C40	C	0.876767	0.499832	0.538486
C41	C	0.355615	-0.000146	0.201432
C42	C	0.855615	0.499854	0.701432
C43	C	0.448914	-0.000135	0.203195
C44	C	0.948914	0.499865	0.703195
C45	C	0.506140	-0.000142	0.122600
C46	C	1.006140	0.499858	0.622600
C47	C	1.065768	-0.421558	0.114465
C48	C	1.565768	0.078442	0.614465
C49	C	1.047678	-0.578721	0.132647
C50	C	1.547678	-0.078721	0.632647
C51	C	1.220245	-0.000158	0.117203
C52	C	1.720245	0.499842	0.617203
C53	C	1.319542	-0.000163	0.119074
C54	C	1.819542	0.499837	0.619074
C55	C	1.063077	-0.000148	-0.039968
C56	C	1.563077	0.499852	0.460032
C57	C	1.061206	-0.000146	-0.139265
C58	C	1.561206	0.499854	0.360735
N59	N	1.097476	0.353493	0.082633
N60	N	1.597476	0.853493	0.582633
C61	C	1.141794	-0.000159	-0.196489
C62	C	1.641794	0.499841	0.303511
C63	C	1.140033	-0.000145	-0.289790
C64	C	1.640033	0.499855	0.210210
C65	C	1.057681	-0.000128	-0.325864
C66	C	1.557681	0.499872	0.174136
C67	C	0.977088	-0.000112	-0.268633
C68	C	1.477088	0.499888	0.231367
C69	C	0.978851	-0.000116	-0.175335
C70	C	1.478851	0.499884	0.324665
C71	C	0.973417	-0.000106	-0.463097
C72	C	1.473417	0.499894	0.036903
C73	C	0.971653	-0.000105	-0.556401
C74	C	1.471653	0.499895	-0.056401
C75	C	1.134599	-0.000135	-0.577551
C76	C	1.634599	0.499865	-0.077551
C77	C	1.136362	-0.000140	-0.484253
C78	C	1.636362	0.499860	0.015747
C79	C	1.055768	-0.000125	-0.427028
C80	C	1.555768	0.499875	0.072972
C81	C	1.050369	-0.000125	0.287079
C82	C	1.550369	0.499875	0.787079
C83	C	1.052241	-0.000117	0.386375
C84	C	1.552241	0.499883	0.886375
H85	H	0.766044	-0.000082	0.275685
H86	H	1.266044	0.499918	0.775685
H87	H	1.208853	-0.000181	-0.167124
H88	H	1.708853	0.499819	0.332876
H89	H	0.635155	-0.000173	-0.023132
H90	H	1.135155	0.499827	0.476868
H91	H	0.309016	-0.000147	0.267056
H92	H	0.809016	0.499853	0.767056
H93	H	0.478284	-0.000110	0.270251
H94	H	0.978284	0.499890	0.770251
H95	H	0.910037	-0.000089	-0.298013
H96	H	1.410037	0.499911	0.201987
Cl97	Cl	0.571443	-0.000102	0.308179
Cl98	Cl	1.071443	0.499898	0.808179
Cl99	Cl	1.235918	-0.000146	-0.649491
Cl100	Cl	1.735918	0.499854	-0.149491
H101	H	0.347398	-0.000182	-0.028572
H102	H	0.847398	0.499818	0.471428
Cl103	Cl	1.239892	-0.000154	-0.438904
Cl104	Cl	1.739892	0.499846	0.061096
H105	H	0.516663	-0.000167	-0.025380
H106	H	1.016663	0.499833	0.474620
H107	H	0.804427	-0.000133	-0.019943
H108	H	1.304427	0.499867	0.480057
H109	H	0.913228	-0.000105	-0.128744
H110	H	1.413228	0.499895	0.371256
H111	H	1.121785	-0.363246	0.058189
H112	H	1.621785	0.136754	0.558189
H113	H	0.991650	-0.637030	0.188920
H114	H	1.491650	-0.137030	0.688920
H115	H	1.153497	-0.588198	0.026354
H116	H	1.653497	-0.088198	0.526354
Cl117	Cl	0.868124	-0.000085	-0.601750
Cl118	Cl	1.368124	0.499915	-0.101750
Cl119	Cl	0.929479	-0.443791	0.251350
Cl120	Cl	1.429479	0.056209	0.751350
H121	H	1.205655	-0.000158	-0.336378
H122	H	1.705655	0.499842	0.163622
H123	H	0.907789	-0.000091	-0.416506
H124	H	1.407789	0.499909	0.083494
