data_functionalizedCrystal
_audit_creation_method	'MofGen! by Chris Wilmer'
_symmetry_space_group_name_H-M	'P1'
_symmetry_Int_Tables_number	1
_symmetry_cell_setting	triclinic
loop_
_symmetry_equiv_pos_as_xyz
  x,y,z
_cell_length_a	17.640112
_cell_length_b	25.639239
_cell_length_c	17.640968
_cell_angle_alpha	78.768889
_cell_angle_beta	92.139080
_cell_angle_gamma	101.263838
loop_
_atom_site_label
_atom_site_type_symbol
_atom_site_fract_x
_atom_site_fract_y
_atom_site_fract_z
Zn1	Zn	1.247772	-0.015023	-0.195080
Zn2	Zn	1.221957	-0.122899	-0.068099
Zn3	Zn	1.095090	-0.049036	-0.093726
Zn4	Zn	1.120701	-0.116017	-0.220680
O5	O	1.171380	-0.075744	-0.144396
O6	O	1.350622	-0.017980	-0.156797
O7	O	1.183606	-0.130216	0.034775
O8	O	1.115429	0.028654	-0.107183
O9	O	1.331655	-0.097236	-0.063504
O10	O	1.227604	0.053643	-0.181647
O11	O	1.090397	-0.075949	0.015946
O12	O	0.992213	-0.069275	-0.132006
O13	O	1.159079	-0.085505	-0.323557
O14	O	1.011029	-0.118485	-0.225279
O15	O	1.252438	-0.011306	-0.304749
O16	O	1.208439	-0.195165	-0.088327
O17	O	1.134047	-0.190108	-0.200429
C18	C	0.974065	-0.096824	-0.184202
C19	C	0.889657	-0.105852	-0.201249
C20	C	0.563036	-0.007149	-0.014898
C21	C	0.483724	-0.015641	-0.030927
C22	C	0.503337	-0.067003	-0.127884
C23	C	0.582654	-0.058513	-0.111866
C24	C	0.612496	-0.028586	-0.055372
C25	C	0.632114	-0.079950	-0.152340
C26	C	0.711422	-0.071463	-0.136320
C27	C	0.741271	-0.041538	-0.079827
C28	C	0.691805	-0.020099	-0.039352
C29	C	0.602269	-0.109880	-0.208830
C30	C	0.651729	-0.131317	-0.249304
C31	C	0.731040	-0.122827	-0.233288
C32	C	0.760888	-0.092902	-0.176795
C33	C	0.780506	-0.144266	-0.273763
C34	C	0.859815	-0.135779	-0.257743
C35	C	0.840197	-0.084415	-0.160775
C36	C	1.171245	-0.211606	-0.144387
C37	C	1.171262	-0.269716	-0.144395
C38	C	1.210259	-0.632657	-0.086082
C39	C	1.210291	-0.687257	-0.086087
O40	O	1.243308	-0.717705	-0.036496
N41	N	1.171523	-0.711960	-0.144420
C42	C	1.132728	-0.682060	-0.202757
O43	O	1.099757	-0.708086	-0.252374
C44	C	1.132702	-0.627461	-0.202755
C45	C	1.171465	-0.602761	-0.144414
C46	C	1.249020	-0.607957	-0.027746
C47	C	1.248988	-0.553362	-0.027742
C48	C	1.210194	-0.523466	-0.086073
C49	C	1.171433	-0.548166	-0.144409
C50	C	1.093912	-0.597561	-0.261094
C51	C	1.093890	-0.542958	-0.261088
C52	C	1.132653	-0.518258	-0.202747
C53	C	1.132606	-0.463675	-0.202735
N54	N	1.171373	-0.438971	-0.144402
C55	C	1.210167	-0.468867	-0.086071
C56	C	1.132788	-0.796723	-0.202757
C57	C	1.132809	-0.851323	-0.202756
C58	C	1.210373	-0.856515	-0.086087
C59	C	1.210347	-0.801915	-0.086085
C60	C	1.171556	-0.772019	-0.144424
C61	C	1.210095	-0.354212	-0.086065
C62	C	1.210056	-0.299612	-0.086064
C63	C	1.132496	-0.294424	-0.202735
C64	C	1.132531	-0.349020	-0.202735
C65	C	1.171336	-0.378912	-0.144396
O66	O	1.099609	-0.433192	-0.252303
O67	O	1.243141	-0.442832	-0.036467
C68	C	1.369465	-0.054581	-0.104436
C69	C	1.453877	-0.045563	-0.087407
C70	C	1.211495	-0.043844	-0.342479
C71	C	1.228589	-0.030250	-0.426890
C72	C	1.171539	0.060653	-0.144418
C73	C	1.171607	0.118778	-0.144427
C74	C	1.041806	-0.178700	-0.753464
C75	C	1.057885	-0.165918	-0.832778
C76	C	1.155091	-0.088661	-0.813184
C77	C	1.139017	-0.101435	-0.733867
C78	C	1.082375	-0.146456	-0.704014
C79	C	1.179586	-0.069190	-0.684417
C80	C	1.163517	-0.081965	-0.605107
C81	C	1.106878	-0.126985	-0.575247
C82	C	1.066305	-0.159230	-0.624704
C83	C	1.236233	-0.024172	-0.714271
C84	C	1.276802	0.008072	-0.664821
C85	C	1.260728	-0.004700	-0.585510
C86	C	1.204090	-0.049719	-0.555650
C87	C	1.301302	0.027546	-0.536054
C88	C	1.285232	0.014771	-0.456743
C89	C	1.188020	-0.062494	-0.476340
C90	C	1.131465	-0.107478	0.052925
C91	C	1.114517	-0.120908	0.137365
H92	H	0.627419	-0.155685	-0.295299
H93	H	0.756195	-0.168637	-0.319755
H94	H	1.201211	-0.052007	-0.837501
H95	H	0.900087	-0.153235	-0.290702
H96	H	1.241621	-0.279504	-0.038553
H97	H	1.280615	-0.632292	0.019755
H98	H	0.995663	-0.215350	-0.729160
H99	H	1.062302	-0.518618	-0.308597
H100	H	1.249316	-0.013774	-0.778851
H101	H	1.100970	-0.369130	-0.250243
H102	H	1.347425	0.064198	-0.560372
H103	H	0.479028	-0.091371	-0.173879
O104	O	1.247682	-0.383322	-0.029388
C105	C	1.237271	-0.460376	0.075238
C106	C	1.194613	-0.427464	0.011074
H107	H	1.194381	-0.496065	0.107980
H108	H	1.284015	-0.476076	0.048373
H109	H	1.264997	-0.433324	0.116899
H110	H	1.166840	-0.454482	-0.030608
H111	H	1.147911	-0.411758	0.037993
H112	H	1.318266	0.041029	-0.416480
H113	H	1.280555	-0.533254	0.019763
H114	H	1.062342	-0.617662	-0.308599
O115	O	1.331774	0.051798	-0.693956
C116	C	1.399648	0.105702	-0.807445
C117	C	1.337361	0.056174	-0.774557
H118	H	1.404197	0.109249	-0.872613
H119	H	1.383207	0.143952	-0.794608
H120	H	1.457696	0.100549	-0.779445
H121	H	1.279290	0.061274	-0.802538
H122	H	1.353867	0.017942	-0.787385
H123	H	1.100907	-0.270075	-0.250226
O124	O	1.248071	-0.778001	-0.029376
C125	C	1.324960	-0.788938	0.086373
C126	C	1.282281	-0.816081	0.022184
H127	H	1.352617	-0.819717	0.128085
H128	H	1.371745	-0.753495	0.059532
H129	H	1.282062	-0.773514	0.119050
H130	H	1.325121	-0.831539	-0.010516
H131	H	1.235485	-0.851499	0.049072
H132	H	0.864498	-0.060036	-0.114783
H133	H	1.241964	-0.880865	-0.038592
O134	O	1.095138	-0.875224	-0.259501
C135	C	1.018165	-0.864305	-0.375194
C136	C	1.060808	-0.837170	-0.310983
H137	H	0.990385	-0.833554	-0.416825
H138	H	1.061033	-0.879688	-0.407970
H139	H	0.971458	-0.899779	-0.348288
H140	H	1.107513	-0.801677	-0.337826
H141	H	1.017893	-0.821826	-0.278214
H142	H	1.101193	-0.772385	-0.250263
O143	O	1.133096	-0.106292	-0.447340
C144	C	1.091223	-0.203091	-0.430513
C145	C	1.153477	-0.153538	-0.463386
H146	H	1.107671	-0.241300	-0.443489
H147	H	1.086727	-0.206723	-0.365323
H148	H	1.033148	-0.197927	-0.458440
H149	H	1.211585	-0.158667	-0.435519
H150	H	1.157906	-0.149922	-0.528579
O151	O	0.818309	-0.033390	-0.064255
C152	C	0.928094	-0.074481	-0.021574
C153	C	0.840849	-0.083785	-0.039201
H154	H	0.946341	-0.115217	-0.001298
H155	H	0.961613	-0.051940	-0.076049
H156	H	0.940908	-0.049388	0.025731
H157	H	0.827962	-0.108892	-0.086482
H158	H	0.807376	-0.106302	0.015312
O159	O	0.720668	0.008963	0.015578
C160	C	0.692857	0.059037	0.110042
C161	C	0.660064	0.026131	0.047866
H162	H	0.643877	0.072937	0.136154
H163	H	0.721871	0.032650	0.157352
H164	H	0.737117	0.095922	0.082606
H165	H	0.615775	-0.010756	0.075233
H166	H	0.631097	0.052557	0.000563
O167	O	0.591900	0.021913	0.040032
C168	C	0.564088	0.071987	0.134496
C169	C	0.531295	0.039081	0.072321
H170	H	0.515108	0.085887	0.160608
H171	H	0.593103	0.045600	0.181807
H172	H	0.608348	0.108872	0.107060
H173	H	0.487007	0.002194	0.099687
H174	H	0.502329	0.065507	0.025018
O175	O	1.011193	-0.202905	-0.595689
C176	C	0.890532	-0.235331	-0.526804
C177	C	0.952874	-0.185822	-0.559637
H178	H	0.843374	-0.221539	-0.497634
H179	H	0.864237	-0.256180	-0.575756
H180	H	0.917867	-0.264936	-0.482667
H181	H	0.925597	-0.156180	-0.603763
H182	H	0.979163	-0.165016	-0.510643
H183	H	0.537690	-0.116789	-0.221871
H184	H	1.093798	-0.137387	-0.510667
H185	H	1.024844	-0.192179	-0.873039
H186	H	0.443456	0.001823	0.002031
