data_functionalizedCrystal
_audit_creation_method	'MofGen! by Chris Wilmer'
_symmetry_space_group_name_H-M	'P1'
_symmetry_Int_Tables_number	1
_symmetry_cell_setting	triclinic
loop_
_symmetry_equiv_pos_as_xyz
  x,y,z
_cell_length_a	15.944551
_cell_length_b	17.699083
_cell_length_c	16.176319
_cell_angle_alpha	89.992304
_cell_angle_beta	89.997076
_cell_angle_gamma	83.390876
loop_
_atom_site_label
_atom_site_type_symbol
_atom_site_fract_x
_atom_site_fract_y
_atom_site_fract_z
O1	O	1.114322	0.097616	-0.068662
O2	O	1.614322	0.597616	0.431338
O3	O	0.869747	0.109651	-0.068683
O4	O	1.369747	0.609651	0.431317
O5	O	0.998945	-0.006544	-0.068665
O6	O	1.498945	0.493456	0.431335
O7	O	0.985125	0.213811	-0.068680
O8	O	1.485125	0.713811	0.431320
O9	O	0.998927	-0.006551	0.068829
O10	O	1.498927	0.493449	0.568829
O11	O	0.869729	0.109643	0.068810
O12	O	1.369729	0.609643	0.568810
O13	O	1.114304	0.097609	0.068831
O14	O	1.614304	0.597609	0.568831
Cu15	Cu	0.992015	0.103625	0.081375
Cu16	Cu	1.492015	0.603625	0.581375
Cu17	Cu	0.992036	0.103634	-0.081227
Cu18	Cu	1.492036	0.603634	0.418773
O19	O	0.985107	0.213803	0.068813
O20	O	1.485107	0.713803	0.568813
C21	C	0.998440	-0.034746	0.000082
C22	C	1.498440	0.465254	0.500082
C23	C	0.996955	-0.118766	0.000082
C24	C	1.496955	0.381234	0.500082
C25	C	0.838445	0.109147	0.000061
C26	C	1.338445	0.609147	0.500061
C27	C	0.745203	0.107650	0.000054
C28	C	1.245203	0.607650	0.500054
C29	C	1.072791	-0.167258	0.000090
C30	C	1.572791	0.332742	0.500090
C31	C	1.071390	-0.246203	0.000083
C32	C	1.571390	0.253797	0.500083
C33	C	0.994152	-0.276656	0.000073
C34	C	1.494152	0.223344	0.500073
C35	C	0.918310	-0.228158	0.000063
C36	C	1.418310	0.271842	0.500063
C37	C	0.919712	-0.149214	0.000065
C38	C	1.419712	0.350786	0.500065
C39	C	0.912656	-0.546531	0.000056
C40	C	1.412656	-0.046531	0.500056
C41	C	0.911260	-0.625481	0.000057
C42	C	1.411260	-0.125481	0.500057
C43	C	1.064334	-0.643520	0.000074
C44	C	1.564334	-0.143520	0.500074
C45	C	1.065735	-0.564576	0.000075
C46	C	1.565735	-0.064576	0.500075
C47	C	0.989894	-0.516085	0.000061
C48	C	1.489894	-0.016085	0.500061
C49	C	0.991414	-0.430484	0.000067
C50	C	1.491414	0.069516	0.500067
C51	C	0.992632	-0.362256	0.000073
C52	C	1.492632	0.137744	0.500073
C53	C	0.530505	0.032046	0.000075
C54	C	1.030505	0.532046	0.500075
C55	C	0.469420	0.067158	-0.067719
C56	C	0.969420	0.567158	0.432281
C57	C	0.574482	0.104940	0.000063
C58	C	1.074482	0.604940	0.500063
C59	C	0.469424	0.067168	0.067839
C60	C	0.969424	0.567168	0.567839
C61	C	0.409575	0.102317	0.000077
C62	C	0.909575	0.602317	0.500077
C63	C	0.514625	0.140071	-0.067786
C64	C	1.014625	0.640071	0.432214
C65	C	0.514636	0.140071	0.067832
C66	C	1.014636	0.640071	0.567832
C67	C	0.453569	0.175235	0.000022
C68	C	0.953569	0.675235	0.500022
C69	C	0.669481	0.106449	0.000055
C70	C	1.169481	0.606449	0.500055
C71	C	0.314577	0.100814	0.000079
C72	C	0.814577	0.600814	0.500079
C73	C	1.145606	0.098112	0.000085
C74	C	1.645606	0.598112	0.500085
C75	C	1.238849	0.099610	0.000088
C76	C	1.738849	0.599610	0.500088
C77	C	0.985611	0.242005	0.000064
C78	C	1.485611	0.742005	0.500064
C79	C	0.987097	0.326026	0.000059
C80	C	1.487097	0.826026	0.500059
N81	N	0.992007	0.103619	0.195740
N82	N	1.492007	0.603619	0.695740
N83	N	0.992052	0.103635	-0.195592
N84	N	1.492052	0.603635	0.304408
C85	C	1.049232	0.052189	0.239013
C86	C	1.549232	0.552189	0.739013
C87	C	1.049237	0.052188	0.325560
C88	C	1.549237	0.552188	0.825560
C89	C	0.992019	0.103621	0.368833
C90	C	1.492019	0.603621	0.868833
C91	C	0.934787	0.155054	0.325554
C92	C	1.434787	0.655054	0.825554
C93	C	0.934779	0.155050	0.239009
C94	C	1.434779	0.655050	0.739009
C95	C	0.934815	0.155068	0.674583
C96	C	1.434815	0.655068	1.174583
C97	C	0.934829	0.155069	0.761134
C98	C	1.434829	0.655069	1.261134
C99	C	1.049273	0.052205	0.761133
C100	C	1.549273	0.552205	1.261133
C101	C	1.049265	0.052202	0.674588
C102	C	1.549265	0.552202	1.174588
C103	C	0.992031	0.103631	0.631317
C104	C	1.492031	0.603631	1.131317
C105	C	0.992026	0.103631	0.537473
C106	C	1.492026	0.603631	1.037473
C107	C	0.992027	0.103626	0.462675
C108	C	1.492027	0.603626	0.962675
H109	H	1.135687	-0.142470	0.000102
H110	H	1.635687	0.357530	0.500102
H111	H	0.888215	0.196945	0.639358
H112	H	1.388215	0.696945	1.139358
Br113	Br	0.398086	0.276167	-0.000044
Br114	Br	0.898086	0.776167	0.499956
Br115	Br	0.586232	-0.068798	-0.000024
Br116	Br	1.086232	0.431202	0.499976
H117	H	0.848360	-0.650272	0.000051
H118	H	1.348360	-0.150272	0.500051
H119	H	0.534696	0.170873	0.125145
H120	H	1.034696	0.670873	0.625145
H121	H	1.128630	-0.539786	0.000087
H122	H	1.628630	-0.039786	0.500087
Br123	Br	0.857107	0.224846	0.180282
Br124	Br	1.357107	0.724846	0.680282
H125	H	0.449382	0.036330	-0.125030
H126	H	0.949382	0.536330	0.374970
Br127	Br	0.813486	-0.269486	0.000037
Br128	Br	1.313486	0.230514	0.500037
H129	H	0.857958	-0.109733	0.000058
H130	H	1.357958	0.390267	0.500058
H131	H	0.888194	0.196929	0.360793
H132	H	1.388194	0.696929	0.860793
Br133	Br	1.126896	-0.017613	0.180294
Br134	Br	1.626896	0.482387	0.680294
Br135	Br	0.547837	0.191426	-0.163419
Br136	Br	1.047837	0.691426	0.336581
H137	H	0.449396	0.036320	0.125151
H138	H	0.949396	0.536320	0.625151
Br139	Br	1.126898	-0.017614	0.384289
Br140	Br	1.626898	0.482386	0.884289
Br141	Br	1.126925	-0.017598	0.615862
Br142	Br	1.626925	0.482402	1.115862
Br143	Br	1.174315	-0.312011	0.000093
Br144	Br	1.674315	0.187989	0.500093
H145	H	1.095874	0.010326	0.796374
H146	H	1.595874	0.510326	1.296374
H147	H	1.126087	-0.683011	0.000081
H148	H	1.626087	-0.183011	0.500081
Br149	Br	0.857172	0.224877	0.819863
Br150	Br	1.357172	0.724877	1.319863
Br151	Br	0.809728	-0.480732	0.000031
Br152	Br	1.309728	0.019268	0.500031
