data_functionalizedCrystal
_audit_creation_method	'MofGen! by Chris Wilmer'
_symmetry_space_group_name_H-M	'P1'
_symmetry_Int_Tables_number	1
_symmetry_cell_setting	triclinic
loop_
_symmetry_equiv_pos_as_xyz
  x,y,z
_cell_length_a	27.731993
_cell_length_b	27.732048
_cell_length_c	16.053802
_cell_angle_alpha	92.539157
_cell_angle_beta	87.452272
_cell_angle_gamma	82.631525
loop_
_atom_site_label
_atom_site_type_symbol
_atom_site_fract_x
_atom_site_fract_y
_atom_site_fract_z
O1	O	0.642993	0.055347	-0.069212
O2	O	0.976326	0.388680	0.264121
O3	O	1.309659	0.722014	0.597454
O4	O	0.502197	0.064118	-0.069265
O5	O	0.835530	0.397452	0.264069
O6	O	1.168864	0.730785	0.597402
O7	O	0.576967	-0.010664	-0.069221
O8	O	0.910300	0.322669	0.264112
O9	O	1.243634	0.656002	0.597446
O10	O	0.568222	0.130130	-0.069256
O11	O	0.901556	0.463463	0.264077
O12	O	1.234889	0.796796	0.597411
O13	O	0.572852	-0.006565	0.069635
O14	O	0.906185	0.326768	0.402969
O15	O	1.239518	0.660102	0.736302
O16	O	0.498081	0.068218	0.069592
O17	O	0.831415	0.401551	0.402925
O18	O	1.164748	0.734885	0.736258
O19	O	0.638877	0.059446	0.069644
O20	O	0.972211	0.392780	0.402977
O21	O	1.305544	0.726113	0.736311
Zn22	Zn	0.567826	0.064483	0.091664
Zn23	Zn	0.901159	0.397816	0.424998
Zn24	Zn	1.234493	0.731150	0.758331
Zn25	Zn	0.573248	0.059082	-0.091285
Zn26	Zn	0.906582	0.392415	0.242048
Zn27	Zn	1.239915	0.725749	0.575382
O28	O	0.564107	0.134229	0.069600
O29	O	0.897440	0.467563	0.402934
O30	O	1.230774	0.800896	0.736267
C31	C	0.482132	0.065988	0.000157
C32	C	0.815465	0.399321	0.333490
C33	C	1.148799	0.732655	0.666824
C34	C	0.428476	0.065445	0.000138
C35	C	0.761810	0.398778	0.333471
C36	C	1.095143	0.732112	0.666805
C37	C	0.574726	-0.026621	0.000209
C38	C	0.908059	0.306712	0.333543
C39	C	1.241392	0.640045	0.666876
C40	C	0.574173	-0.080276	0.000216
C41	C	0.907506	0.253057	0.333549
C42	C	1.240839	0.586391	0.666883
C43	C	0.047558	0.059281	-0.075511
C44	C	0.380891	0.392614	0.257822
C45	C	0.714225	0.725948	0.591155
C46	C	0.249216	0.061347	-0.075534
C47	C	0.582550	0.394681	0.257799
C48	C	0.915883	0.728014	0.591132
O49	O	0.277197	0.059695	-0.139908
O50	O	0.610531	0.393028	0.193425
O51	O	0.943864	0.726361	0.526759
N52	N	0.272193	0.063841	0.000154
N53	N	0.605527	0.397174	0.333488
N54	N	0.938860	0.730507	0.666821
C55	C	0.244753	0.065814	0.075855
C56	C	0.578086	0.399147	0.409188
C57	C	0.911420	0.732481	0.742521
O58	O	0.268924	0.067977	0.140232
O59	O	0.602257	0.401310	0.473565
O60	O	0.935591	0.734644	0.806899
C61	C	0.043096	0.063744	0.075877
C62	C	0.376430	0.397078	0.409210
C63	C	0.709763	0.730411	0.742543
C64	C	0.020121	0.061256	0.000183
C65	C	0.353455	0.394589	0.333516
C66	C	0.686788	0.727923	0.666850
C67	C	0.024583	0.056792	-0.151199
C68	C	0.357916	0.390126	0.182134
C69	C	0.691250	0.723459	0.515468
C70	C	-0.025829	0.056278	-0.151192
C71	C	0.307505	0.389612	0.182141
C72	C	0.640838	0.722945	0.515474
C73	C	-0.053266	0.058253	-0.075498
C74	C	0.280068	0.391587	0.257835
C75	C	0.613401	0.724920	0.591168
C76	C	-0.030291	0.060742	0.000189
C77	C	0.303043	0.394075	0.333523
C78	C	0.636376	0.727409	0.666856
C79	C	0.015657	0.065714	0.151576
C80	C	0.348991	0.399048	0.484909
C81	C	0.682324	0.732381	0.818243
C82	C	-0.034760	0.065195	0.151575
C83	C	0.298574	0.398529	0.484908
C84	C	0.631907	0.731862	0.818242
C85	C	-0.057735	0.062707	0.075881
C86	C	0.275599	0.396040	0.409214
C87	C	0.608932	0.729374	0.742548
C88	C	-0.108139	0.062203	0.075890
C89	C	0.225194	0.395536	0.409224
C90	C	0.558527	0.728870	0.742557
N91	N	-0.131116	0.059710	0.000201
N92	N	0.202217	0.393043	0.333535
N93	N	0.535550	0.726377	0.666868
C94	C	-0.103679	0.057735	-0.075493
C95	C	0.229654	0.391068	0.257840
C96	C	0.562987	0.724402	0.591174
C97	C	0.350626	0.066902	0.075837
C98	C	0.683959	0.400235	0.409171
C99	C	1.017292	0.733568	0.742504
C100	C	0.401039	0.067420	0.075832
C101	C	0.734373	0.400753	0.409165
C102	C	1.067706	0.734087	0.742499
C103	C	0.405499	0.062952	-0.075557
C104	C	0.738833	0.396286	0.257776
C105	C	1.072166	0.729619	0.591109
C106	C	0.355084	0.062437	-0.075551
C107	C	0.688417	0.395771	0.257782
C108	C	1.021751	0.729104	0.591116
C109	C	0.327649	0.064408	0.000149
C110	C	0.660982	0.397742	0.333482
C111	C	0.994315	0.731075	0.666815
C112	C	-0.209548	0.056656	-0.075473
C113	C	0.123785	0.389990	0.257860
C114	C	0.457118	0.723323	0.591193
C115	C	-0.259965	0.056145	-0.075460
C116	C	0.073368	0.389478	0.257873
C117	C	0.406702	0.722811	0.591207
C118	C	-0.264420	0.060610	0.075929
C119	C	0.068913	0.393943	0.409262
C120	C	0.402246	0.727276	0.742595
C121	C	-0.214008	0.061124	0.075916
C122	C	0.119325	0.394457	0.409249
C123	C	0.452658	0.727791	0.742583
C124	C	-0.186573	0.059145	0.000208
C125	C	0.146760	0.392479	0.333541
C126	C	0.480094	0.725812	0.666875
O127	O	-0.136150	0.063849	0.140230
O128	O	0.197184	0.397182	0.473563
O129	O	0.530517	0.730516	0.806897
O130	O	-0.127858	0.055561	-0.139861
O131	O	0.205475	0.388895	0.193473
O132	O	0.538809	0.722228	0.526806
C133	C	0.097970	0.059795	-0.075518
C134	C	0.431303	0.393128	0.257815
C135	C	0.764637	0.726462	0.591149
C136	C	0.120945	0.062284	0.000170
C137	C	0.454278	0.395617	0.333503
C138	C	0.787612	0.728950	0.666836
C139	C	0.093508	0.064259	0.075864
C140	C	0.426842	0.397592	0.409197
C141	C	0.760175	0.730925	0.742531
C142	C	0.171359	0.062802	0.000164
C143	C	0.504692	0.396135	0.333498
C144	C	0.838026	0.729469	0.666831
C145	C	0.198796	0.060827	-0.075530
C146	C	0.532129	0.394161	0.257804
C147	C	0.865462	0.727494	0.591137
C148	C	0.175819	0.058334	-0.151219
C149	C	0.509152	0.391667	0.182115
C150	C	0.842485	0.725001	0.515448
C151	C	0.125407	0.057820	-0.151212
C152	C	0.458740	0.391153	0.182121
C153	C	0.792074	0.724487	0.515455
C154	C	0.116485	0.066752	0.151553
C155	C	0.449819	0.400085	0.484886
C156	C	0.783152	0.733418	0.818220
C157	C	0.166897	0.067266	0.151540
C158	C	0.500231	0.400599	0.484874
C159	C	0.833564	0.733933	0.818207
C160	C	0.194334	0.065291	0.075846
C161	C	0.527668	0.398624	0.409179
C162	C	0.861001	0.731958	0.742513
C163	C	0.614878	-0.419100	0.000188
C164	C	0.948212	-0.085767	0.333522
C165	C	1.281545	0.247567	0.666855
C166	C	0.612828	-0.620759	0.000176
C167	C	0.946161	-0.287426	0.333509
C168	C	1.279494	0.045907	0.666843
O169	O	0.650050	-0.652023	0.000153
O170	O	0.983383	-0.318690	0.333487
O171	O	1.316717	0.014644	0.666820
N172	N	0.568492	-0.639875	0.000160
N173	N	0.901825	-0.306542	0.333494
N174	N	1.235158	0.026792	0.666827
C175	C	0.524666	-0.608572	0.000142
C176	C	0.857999	-0.275239	0.333476
C177	C	1.191332	0.058094	0.666809
O178	O	0.486908	-0.629459	0.000120
O179	O	0.820242	-0.296125	0.333453
O180	O	1.153575	0.037208	0.666787
C181	C	0.526717	-0.406914	0.000149
C182	C	0.860050	-0.073581	0.333482
C183	C	1.193384	0.259753	0.666815
C184	C	0.571056	-0.387801	0.000173
C185	C	0.904389	-0.054468	0.333506
C186	C	1.237722	0.278866	0.666839
C187	C	0.659213	-0.399987	0.000212
C188	C	0.992547	-0.066653	0.333545
C189	C	1.325880	0.266680	0.666878
C190	C	0.659725	-0.349575	0.000219
C191	C	0.993059	-0.016241	0.333552
C192	C	1.326392	0.317092	0.666886
C193	C	0.615903	-0.318276	0.000204
C194	C	0.949236	0.015058	0.333537
C195	C	1.282569	0.348391	0.666870
C196	C	0.571568	-0.337389	0.000180
C197	C	0.904901	-0.004056	0.333514
C198	C	1.238234	0.329278	0.666847
C199	C	0.482891	-0.375612	0.000125
C200	C	0.816225	-0.042279	0.333458
C201	C	1.149558	0.291054	0.666791
C202	C	0.483408	-0.325195	0.000124
C203	C	0.816742	0.008138	0.333457
C204	C	1.150075	0.341472	0.666791
C205	C	0.527747	-0.306082	0.000148
C206	C	0.861080	0.027251	0.333482
C207	C	1.194413	0.360584	0.666815
C208	C	0.528257	-0.255678	0.000173
C209	C	0.861590	0.077655	0.333506
C210	C	1.194923	0.410988	0.666839
N211	N	0.572593	-0.236563	0.000188
N212	N	0.905926	0.096771	0.333522
N213	N	1.239259	0.430104	0.666855
C214	C	0.616416	-0.267861	0.000204
C215	C	0.949749	0.065472	0.333537
C216	C	1.283082	0.398805	0.666870
C217	C	0.523592	-0.714446	0.000140
C218	C	0.856925	-0.381113	0.333474
C219	C	1.190258	-0.047780	0.666807
C220	C	0.523079	-0.764861	0.000140
C221	C	0.856412	-0.431527	0.333474
C222	C	1.189745	-0.098194	0.666807
C223	C	0.611241	-0.777044	0.000173
C224	C	0.944574	-0.443711	0.333506
C225	C	1.277908	-0.110378	0.666839
C226	C	0.611753	-0.726629	0.000179
C227	C	0.945087	-0.393296	0.333512
C228	C	1.278420	-0.059962	0.666845
C229	C	0.567928	-0.695331	0.000156
C230	C	0.901261	-0.361997	0.333489
C231	C	1.234594	-0.028664	0.666823
C232	C	0.617488	-0.161992	0.000221
C233	C	0.950821	0.171341	0.333554
C234	C	1.284154	0.504675	0.666887
C235	C	0.617996	-0.111575	0.000232
C236	C	0.951329	0.221759	0.333565
C237	C	1.284662	0.555092	0.666898
C238	C	0.529834	-0.099396	0.000195
C239	C	0.863167	0.233938	0.333528
C240	C	1.196500	0.567271	0.666862
C241	C	0.529325	-0.149808	0.000188
C242	C	0.862658	0.183525	0.333522
C243	C	1.195992	0.516858	0.666855
C244	C	0.573156	-0.181106	0.000198
C245	C	0.906490	0.152228	0.333532
C246	C	1.239823	0.485561	0.666865
O247	O	0.491055	-0.224386	0.000186
O248	O	0.824388	0.108947	0.333519
O249	O	1.157721	0.442280	0.666853
O250	O	0.654168	-0.246966	0.000207
O251	O	0.987501	0.086367	0.333541
O252	O	1.320835	0.419701	0.666874
C253	C	0.614366	-0.469512	0.000181
C254	C	0.947700	-0.136179	0.333514
C255	C	1.281033	0.197155	0.666847
C256	C	0.570031	-0.488625	0.000157
C257	C	0.903365	-0.155292	0.333491
C258	C	1.236698	0.178041	0.666824
C259	C	0.526208	-0.457326	0.000142
C260	C	0.859542	-0.123993	0.333475
C261	C	1.192875	0.209340	0.666809
C262	C	0.569518	-0.539040	0.000157
C263	C	0.902852	-0.205706	0.333491
C264	C	1.236185	0.127627	0.666824
C265	C	0.613341	-0.570338	0.000173
C266	C	0.946675	-0.237005	0.333506
C267	C	1.280008	0.096328	0.666840
C268	C	0.657677	-0.551223	0.000189
C269	C	0.991011	-0.217890	0.333522
C270	C	1.324344	0.115444	0.666855
C271	C	0.658189	-0.500811	0.000196
C272	C	0.991523	-0.167477	0.333530
C273	C	1.324856	0.165856	0.666863
C274	C	0.481873	-0.476442	0.000126
C275	C	0.815206	-0.143109	0.333460
C276	C	1.148539	0.190225	0.666793
C277	C	0.481364	-0.526855	0.000120
C278	C	0.814697	-0.193521	0.333453
C279	C	1.148031	0.139812	0.666786
C280	C	0.525187	-0.558153	0.000135
C281	C	0.858520	-0.224820	0.333468
C282	C	1.191854	0.108513	0.666802
C283	C	0.658942	0.057577	0.000220
C284	C	0.992276	0.390910	0.333554
C285	C	1.325609	0.724244	0.666887
C286	C	0.712598	0.058120	0.000234
C287	C	1.045931	0.391453	0.333567
C288	C	1.379265	0.724786	0.666901
C289	C	0.566348	0.150186	0.000168
C290	C	0.899682	0.483520	0.333501
C291	C	1.233015	0.816853	0.666835
C292	C	0.566902	0.203841	0.000156
C293	C	0.900235	0.537174	0.333489
C294	C	1.233568	0.870507	0.666823
N295	N	0.564129	0.068169	0.216523
N296	N	0.897462	0.401502	0.549856
N297	N	1.230796	0.734836	0.883189
N298	N	0.576949	0.055392	-0.216143
N299	N	0.910282	0.388725	0.117190
N300	N	1.243616	0.722059	0.450523
C301	C	0.595955	0.036360	0.260235
C302	C	0.929289	0.369693	0.593568
C303	C	1.262622	0.703026	0.926902
C304	C	0.593374	0.038943	0.347640
C305	C	0.926707	0.372276	0.680974
C306	C	1.260040	0.705609	1.014307
C307	C	0.558968	0.073337	0.391331
C308	C	0.892301	0.406670	0.724665
C309	C	1.225634	0.740004	1.057998
C310	C	0.527138	0.105148	0.347613
C311	C	0.860471	0.438481	0.680946
C312	C	1.193805	0.771814	1.014279
C313	C	0.529718	0.102562	0.260209
C314	C	0.863051	0.435895	0.593543
C315	C	1.196384	0.769229	0.926876
C316	C	0.547699	0.084617	0.652735
C317	C	0.881032	0.417950	0.986068
C318	C	1.214366	0.751284	1.319401
C319	C	0.545123	0.087201	0.740144
C320	C	0.878456	0.420535	1.073478
C321	C	1.211789	0.753868	1.406811
C322	C	0.611358	0.020995	0.740166
C323	C	0.944691	0.354329	1.073499
C324	C	1.278025	0.687662	1.406832
C325	C	0.613937	0.018415	0.652760
C326	C	0.947270	0.351748	0.986094
C327	C	1.280603	0.685081	1.319427
C328	C	0.582105	0.050224	0.609049
C329	C	0.915439	0.383557	0.942383
C330	C	1.248772	0.716890	1.275716
N331	N	0.556329	0.075979	0.480674
N332	N	0.889662	0.409312	0.814007
N333	N	1.222996	0.742646	1.147340
N334	N	0.584742	0.047579	0.519709
N335	N	0.918075	0.380912	0.853042
N336	N	1.251409	0.714246	1.186375
H337	H	-0.278669	0.054120	-0.137102
H338	H	0.054664	0.387453	0.196231
H339	H	0.387998	0.720786	0.529565
H340	H	0.694901	-0.425466	0.000221
H341	H	1.028235	-0.092133	0.333554
H342	H	1.361568	0.241201	0.666888
F343	F	0.664138	-0.195294	0.000231
F344	F	0.997471	0.138039	0.333564
F345	F	1.330804	0.471372	0.666897
F346	F	0.425484	0.070078	0.156396
F347	F	0.758818	0.403411	0.489729
F348	F	1.092151	0.736744	0.823062
F349	F	0.436761	-0.291888	0.000098
F350	F	0.770095	0.041446	0.333432
F351	F	1.103428	0.374779	0.666765
F352	F	0.435700	-0.395942	0.000095
F353	F	0.769033	-0.062609	0.333429
F354	F	1.102366	0.270724	0.666762
F355	F	0.632577	-0.000246	0.213744
F356	F	0.965911	0.333088	0.547077
F357	F	1.299244	0.666421	0.880411
F358	F	-0.180357	0.054551	-0.156050
F359	F	0.152977	0.387884	0.177283
F360	F	0.486310	0.721217	0.510617
F361	F	0.658944	-0.706292	0.000204
F362	F	0.992277	-0.372959	0.333537
F363	F	1.325611	-0.039626	0.666871
H364	H	0.695831	-0.334018	0.000235
H365	H	1.029164	-0.000685	0.333569
H366	H	1.362497	0.332649	0.666902
H367	H	0.641953	-0.009592	0.617189
H368	H	0.975286	0.323741	0.950522
H369	H	1.308619	0.657075	1.283855
H370	H	0.517104	0.115211	0.775714
H371	H	0.850437	0.448545	1.109047
H372	H	1.183770	0.781878	1.442380
H373	H	0.493220	-0.165370	0.000192
H374	H	0.826554	0.167964	0.333525
H375	H	1.159887	0.501297	0.666859
F376	F	0.495842	0.136417	0.213688
F377	F	0.829175	0.469750	0.547022
F378	F	1.162509	0.803083	0.880355
F379	F	0.645232	-0.012857	0.786691
F380	F	0.978565	0.320477	1.120025
F381	F	1.311899	0.653810	1.453358
H382	H	-0.057096	0.066805	0.213220
H383	H	0.276237	0.400138	0.546553
H384	H	0.609571	0.733471	0.879887
F385	F	0.627246	0.005087	0.394163
F386	F	0.960579	0.338421	0.727496
F387	F	1.293913	0.671754	1.060829
F388	F	0.513824	0.118471	0.606221
F389	F	0.847157	0.451805	0.939554
F390	F	1.180490	0.785138	1.272887
F391	F	0.040098	0.068363	0.232141
F392	F	0.373431	0.401696	0.565475
F393	F	0.706765	0.735030	0.898808
H394	H	0.185598	0.069296	0.213184
H395	H	0.518932	0.402630	0.546517
H396	H	0.852265	0.735963	0.879851
F397	F	-0.050274	0.053627	-0.231757
F398	F	0.283060	0.386960	0.101576
F399	F	0.616393	0.720293	0.434910
F400	F	0.330637	0.059788	-0.156114
F401	F	0.663971	0.393122	0.177220
F402	F	0.997304	0.726455	0.510553
F403	F	0.053776	0.054689	-0.231771
F404	F	0.387110	0.388022	0.101563
F405	F	0.720443	0.721356	0.434896
F406	F	0.434708	0.060852	-0.156117
F407	F	0.768041	0.394185	0.177216
F408	F	1.101375	0.727519	0.510550
H409	H	0.499121	0.133151	0.383191
H410	H	0.832455	0.466484	0.716525
H411	H	1.165788	0.799818	1.049858
F412	F	0.476943	-0.681142	0.000116
F413	F	0.810276	-0.347808	0.333450
F414	F	1.143610	-0.014475	0.666783
H415	H	0.328292	0.068505	0.137485
H416	H	0.661625	0.401839	0.470818
H417	H	0.994959	0.735172	0.804151
H418	H	0.693359	-0.576715	0.000205
H419	H	1.026693	-0.243382	0.333538
H420	H	1.360026	0.089951	0.666872
F421	F	-0.189557	0.063779	0.156477
F422	F	0.143777	0.397112	0.489810
F423	F	0.477110	0.730446	0.823144
H424	H	-0.286769	0.062220	0.137557
H425	H	0.046565	0.395553	0.470890
H426	H	0.379898	0.728886	0.804224
F427	F	0.705381	-0.480476	0.000217
F428	F	1.038714	-0.147143	0.333550
F429	F	1.372048	0.186190	0.666884
H430	H	0.198166	0.056729	-0.212852
H431	H	0.531500	0.390062	0.120482
H432	H	0.864833	0.723395	0.453815
F433	F	0.100962	0.055171	-0.231777
F434	F	0.434295	0.388505	0.101557
F435	F	0.767628	0.721838	0.434890
H436	H	0.094151	0.068357	0.213194
H437	H	0.427485	0.401691	0.546527
H438	H	0.760818	0.735024	0.879860
F439	F	0.665189	-0.091237	0.000257
F440	F	0.998522	0.242096	0.333590
F441	F	1.331855	0.575430	0.666924
F442	F	0.475887	-0.785196	0.000130
F443	F	0.809220	-0.451862	0.333463
F444	F	1.142554	-0.118529	0.666796
F445	F	0.483197	-0.066077	0.000179
F446	F	0.816530	0.267257	0.333512
F447	F	1.149863	0.600590	0.666845
F448	F	0.657881	-0.810363	0.000187
F449	F	0.991214	-0.477030	0.333521
F450	F	1.324548	-0.143697	0.666854
H451	H	0.446186	-0.450963	0.000112
H452	H	0.779519	-0.117629	0.333445
H453	H	1.112852	0.215704	0.666778
F454	F	0.434169	-0.547189	0.000099
F455	F	0.767503	-0.213856	0.333433
F456	F	1.100836	0.119477	0.666766
