data_functionalizedCrystal
_audit_creation_method	'MofGen! by Chris Wilmer'
_symmetry_space_group_name_H-M	'P1'
_symmetry_Int_Tables_number	1
_symmetry_cell_setting	triclinic
loop_
_symmetry_equiv_pos_as_xyz
  x,y,z
_cell_length_a	20.016444
_cell_length_b	14.560438
_cell_length_c	14.560438
_cell_angle_alpha	119.999504
_cell_angle_beta	89.997013
_cell_angle_gamma	60.002114
loop_
_atom_site_label
_atom_site_type_symbol
_atom_site_fract_x
_atom_site_fract_y
_atom_site_fract_z
Zr1	Zr	0.643577	1.005322	0.120510
O2	O	0.536900	1.196922	0.267157
O3	O	0.676279	0.813722	0.075557
O4	O	0.676273	1.005330	0.267160
O5	O	0.536912	1.005307	-0.075589
O6	O	0.786212	1.005338	0.267161
O7	O	0.536907	1.005313	0.075553
O8	O	0.786225	0.662585	-0.075582
O9	O	0.536900	1.348060	0.267154
O10	O	0.772274	0.892535	0.056383
O11	O	0.690231	0.892525	-0.056414
O12	O	0.690223	1.118120	0.169174
O13	O	0.608180	1.118110	0.056378
Zr14	Zr	0.818927	1.005324	-0.120545
Zr15	Zr	0.818919	1.005334	0.120510
Zr16	Zr	0.643586	1.005312	-0.120545
Zr17	Zr	0.643578	1.246370	0.120505
Zr18	Zr	0.818927	0.764276	-0.120540
O19	O	0.786225	1.196924	-0.075592
O20	O	0.786213	1.196938	0.267157
O21	O	0.536912	1.196908	-0.075593
O22	O	0.925605	0.813724	-0.267192
O23	O	0.925592	0.813738	0.075558
O24	O	0.676292	0.813707	-0.267192
O25	O	0.925593	1.005339	0.075554
O26	O	0.786232	1.005315	-0.267195
O27	O	0.676292	1.005308	-0.267196
O28	O	0.925598	1.005332	-0.075589
O29	O	0.676273	1.348069	0.267154
O30	O	0.786232	0.662577	-0.267189
O31	O	0.925605	0.662586	-0.267189
O32	O	0.925598	0.662594	-0.075582
O33	O	0.536907	1.348052	0.075547
O34	O	0.676280	1.348061	0.075547
O35	O	0.772282	0.892526	-0.169210
O36	O	0.854325	0.892536	-0.056413
O37	O	0.772274	1.118120	0.056378
O38	O	0.690231	1.118110	-0.056418
C39	C	0.731252	0.703809	-0.000012
C40	C	0.731252	0.601478	-0.000010
C41	C	0.774076	0.553407	0.058869
C42	C	0.774079	0.457248	0.058858
C43	C	0.688428	0.457242	-0.058911
C44	C	0.688430	0.553393	-0.058906
C45	C	0.511927	1.005308	-0.000018
C46	C	0.437490	1.005304	-0.000018
C47	C	0.309052	0.887566	-0.058897
C48	C	0.239107	0.887571	-0.058899
C49	C	0.153454	1.123089	0.058863
C50	C	0.223398	1.123082	0.058859
C51	C	0.301197	1.005317	-0.000018
C52	C	0.161308	1.005329	-0.000017
C53	C	0.085470	1.005336	-0.000019
C54	C	0.377040	1.005309	-0.000018
C55	C	0.950578	1.005337	-0.000017
C56	C	1.025015	1.005342	-0.000017
C57	C	0.731241	1.005335	0.301506
C58	C	0.731238	1.005340	0.403840
C59	C	0.731253	1.306837	-0.000023
C60	C	0.731253	1.409168	-0.000025
C61	C	0.688408	1.123091	0.510793
C62	C	0.688416	1.123088	0.606943
C63	C	0.774084	0.887570	0.489173
C64	C	0.774080	0.887575	0.393026
C65	C	0.731259	1.005316	0.698462
C66	C	0.731249	1.005331	0.596137
C67	C	0.950577	0.703823	-0.000012
C68	C	1.025014	0.601497	-0.000009
C69	C	0.731263	0.703796	-0.301535
C70	C	0.731267	0.601461	-0.403867
C71	C	0.950588	0.703811	-0.301535
C72	C	1.025029	0.601480	-0.403867
C73	C	0.511916	1.306835	0.301500
C74	C	0.437476	1.409165	0.403832
C75	C	0.511927	1.306822	-0.000024
C76	C	0.437491	1.409148	-0.000026
C77	C	0.731242	1.306849	0.301500
C78	C	0.731238	1.409185	0.403832
C79	C	1.017141	0.553443	0.058880
C80	C	1.087075	0.457311	0.058904
C81	C	1.164883	0.409227	0.000032
C82	C	1.172755	0.457290	-0.058859
C83	C	1.102821	0.553428	-0.058876
C84	C	1.102820	0.553430	-0.393045
C85	C	1.172771	0.457293	-0.489187
C86	C	1.164930	0.409202	-0.596151
C87	C	1.087131	0.457261	-0.606971
C88	C	1.017181	0.553403	-0.510830
C89	C	0.359685	1.457227	0.393010
C90	C	0.289733	1.553394	0.489152
C91	C	0.297574	1.601490	0.596116
C92	C	0.375374	1.553425	0.606936
C93	C	0.445323	1.457266	0.510794
C94	C	0.445364	1.457212	-0.058905
C95	C	0.375429	1.553372	-0.058903
C96	C	0.297622	1.601459	-0.000027
C97	C	0.289750	1.553391	0.058859
C98	C	0.359684	1.457240	0.058863
C99	C	0.774097	0.553382	-0.510822
C100	C	0.774091	0.457236	-0.606970
C101	C	0.688423	0.457253	-0.489196
C102	C	0.688425	0.553404	-0.393050
H103	H	0.653557	0.592532	-0.106858
H104	H	0.953843	0.592513	-0.519657
Br105	Br	1.113484	0.618683	-0.247891
Br106	Br	0.630284	0.392025	-0.474525
H107	H	0.653563	0.418082	-0.106861
Br108	Br	0.202719	1.731952	-0.000044
Br109	Br	0.414634	0.727742	-0.138804
H110	H	1.236113	0.418173	-0.480358
Br111	Br	1.259786	0.278752	0.000067
H112	H	0.245511	0.791687	-0.106846
Br113	Br	1.278357	0.392015	-0.138755
H114	H	0.808951	0.418110	0.106801
Br115	Br	0.832193	0.618659	0.138796
H116	H	1.109243	0.592541	-0.106837
H117	H	0.953792	0.592592	0.106834
Br118	Br	0.047868	1.282906	0.138765
H119	H	0.353285	1.418072	0.305923
Br120	Br	0.184160	1.618603	0.474441
Br121	Br	0.184148	1.618663	0.138753
H122	H	0.216996	1.218975	0.106802
Br123	Br	0.386132	1.618583	-0.138829
Br124	Br	0.630270	1.282914	0.525471
Br125	Br	1.259872	0.278722	-0.726620
H126	H	1.080759	0.418091	-0.694074
H127	H	0.240610	1.679788	0.674392
Br128	Br	0.630291	1.282901	0.752094
H129	H	0.381748	1.592597	0.694038
Br130	Br	0.832239	0.618601	-0.525504
H131	H	0.508662	1.418135	0.519620
Br132	Br	0.550951	1.391976	-0.138814
H133	H	0.808967	0.418096	-0.694054
Br134	Br	0.630285	0.618671	-0.247886
H135	H	0.808964	0.791690	0.480382
H136	H	0.808961	0.791682	0.305934
H137	H	1.080650	0.418189	0.106860
H138	H	0.353262	1.418109	0.106807
