data_functionalizedCrystal
_audit_creation_method	'MofGen! by Chris Wilmer'
_symmetry_space_group_name_H-M	'P1'
_symmetry_Int_Tables_number	1
_symmetry_cell_setting	triclinic
loop_
_symmetry_equiv_pos_as_xyz
  x,y,z
_cell_length_a	18.215405
_cell_length_b	17.639044
_cell_length_c	18.215399
_cell_angle_alpha	101.207484
_cell_angle_beta	89.969449
_cell_angle_gamma	78.832683
loop_
_atom_site_label
_atom_site_type_symbol
_atom_site_fract_x
_atom_site_fract_y
_atom_site_fract_z
Zn1	Zn	-0.520202	1.208231	-0.188188
Zn2	Zn	-0.643254	1.208133	-0.065134
Zn3	Zn	-0.495371	1.076067	-0.090066
Zn4	Zn	-0.618370	1.076030	-0.213078
O5	O	-0.569299	1.142115	-0.139117
O6	O	-0.557331	1.318814	-0.151014
O7	O	-0.623660	1.190588	0.034538
O8	O	-0.395691	1.093655	-0.103099
O9	O	-0.647737	1.318742	-0.060607
O10	O	-0.413934	1.190756	-0.175189
O11	O	-0.515011	1.093560	0.016221
O12	O	-0.490882	0.965466	-0.127234
O13	O	-0.605326	1.093593	-0.312756
O14	O	-0.581249	0.965439	-0.217611
O15	O	-0.533202	1.190720	-0.294469
O16	O	-0.742927	1.190552	-0.084742
O17	O	-0.724645	1.093498	-0.193436
C18	C	-0.530671	0.936776	-0.177830
C19	C	-0.514163	0.848931	-0.194409
C20	C	-0.443903	0.725154	-0.264914
C21	C	-0.459421	0.807697	-0.249330
C22	C	-0.553408	0.807630	-0.155046
C23	C	-0.537896	0.725085	-0.170620
C24	C	-0.483144	0.683853	-0.225555
C25	C	-0.577136	0.683784	-0.131260
C26	C	-0.561628	0.601246	-0.146836
C27	C	-0.506880	0.560009	-0.201770
C28	C	-0.467636	0.601315	-0.241130
C29	C	-0.631892	0.725018	-0.076329
C30	C	-0.671133	0.683717	-0.036970
C31	C	-0.655621	0.601178	-0.052541
C32	C	-0.600873	0.559940	-0.107475
C33	C	-0.694865	0.559871	-0.013181
C34	C	-0.679357	0.477333	-0.028756
C35	C	-0.585365	0.477402	-0.123050
C36	C	-0.760490	1.142032	-0.139097
C37	C	-0.842296	1.142068	-0.139099
C38	C	-1.040007	1.192723	-0.082567
C39	C	-1.116872	1.192759	-0.082578
C40	C	-1.097859	1.091608	-0.195700
C41	C	-1.020996	1.091577	-0.195691
C42	C	-0.992072	1.142134	-0.139121
C43	C	-1.145800	1.142200	-0.139141
C44	C	-1.229141	1.142238	-0.139153
C45	C	-0.908726	1.142097	-0.139109
C46	C	-0.377366	1.142221	-0.139148
C47	C	-0.295576	1.142265	-0.139162
C48	C	-0.569258	1.142163	-0.331060
C49	C	-0.569240	1.142184	-0.412855
C50	C	-0.608079	1.348256	-0.100253
C51	C	-0.624605	1.436101	-0.083691
C52	C	-0.531644	1.192776	-0.591525
C53	C	-0.531625	1.192786	-0.668382
C54	C	-0.606732	1.091647	-0.687413
C55	C	-0.606747	1.091635	-0.610558
C56	C	-0.569205	1.142203	-0.562615
C57	C	-0.569171	1.142226	-0.716327
C58	C	-0.569150	1.142236	-0.799659
C59	C	-0.569225	1.142193	-0.479278
C60	C	-0.569296	1.142113	0.052089
C61	C	-0.569136	1.142245	0.133913
H62	H	-0.399310	0.691580	-0.309640
H63	H	-0.427460	0.841321	-0.281383
C64	C	-1.129401	1.036744	-0.257026
C65	C	-1.206972	1.047581	-0.244919
C66	C	-1.236050	0.997043	-0.301391
H67	H	-1.119010	1.048220	-0.304347
H68	H	-1.106905	0.983628	-0.256216
H69	H	-1.229461	1.100684	-0.245737
H70	H	-1.217384	1.036098	-0.197609
H71	H	-1.213554	0.943927	-0.300581
H72	H	-1.225654	1.008523	-0.348708
H73	H	-1.288683	1.004383	-0.293180
C74	C	-0.612796	0.852543	-0.095404
C75	C	-0.617968	0.933667	-0.090174
C76	C	-0.672660	0.975062	-0.035230
H77	H	-0.659762	0.839101	-0.108567
H78	H	-0.599411	0.839043	-0.048509
H79	H	-0.631357	0.947161	-0.137058
H80	H	-0.571016	0.947131	-0.077001
H81	H	-0.659275	0.961562	0.011665
H82	H	-0.719622	0.961614	-0.048398
H83	H	-0.676171	1.030108	-0.031670
C84	C	-0.969061	1.036561	-0.257141
C85	C	-1.010838	0.992273	-0.306671
C86	C	-0.963021	0.941583	-0.363280
H87	H	-0.944694	1.066675	-0.283611
H88	H	-0.932658	1.002091	-0.235471
H89	H	-1.047227	1.026739	-0.328340
H90	H	-1.035203	0.962143	-0.280223
H91	H	-0.926617	0.907113	-0.341610
H92	H	-0.938656	0.971703	-0.389744
H93	H	-0.991358	0.911522	-0.396889
H94	H	-0.501073	1.233950	-0.552492
H95	H	-0.711312	0.443705	0.003293
H96	H	-0.501037	1.233966	-0.691916
C97	C	-0.730521	0.728630	0.022673
C98	C	-0.735693	0.809753	0.027902
C99	C	-0.790384	0.851149	0.082846
H100	H	-0.777487	0.715188	0.009510
H101	H	-0.717136	0.715130	0.069567
H102	H	-0.749081	0.823248	-0.018982
H103	H	-0.688740	0.823218	0.041075
H104	H	-0.777000	0.837649	0.129741
H105	H	-0.837347	0.837701	0.069678
H106	H	-0.793896	0.906195	0.086407
C107	C	-0.647484	1.036837	-0.739583
C108	C	-0.639450	1.047687	-0.813074
C109	C	-0.676991	0.997217	-0.861149
H110	H	-0.626770	0.983707	-0.737092
H111	H	-0.699121	1.048384	-0.724837
H112	H	-0.587823	1.036134	-0.827816
H113	H	-0.660168	1.100807	-0.815588
H114	H	-0.728628	1.008764	-0.846404
H115	H	-0.656273	0.944090	-0.858653
H116	H	-0.671551	1.004577	-0.911018
H117	H	-0.644506	0.792226	-0.063639
C118	C	-1.168824	1.247836	-0.021189
C119	C	-1.164707	1.325998	-0.022545
C120	C	-1.212537	1.376771	0.034004
H121	H	-1.218786	1.240751	-0.029207
H122	H	-1.154090	1.236349	0.026115
H123	H	-1.179446	1.337481	-0.069838
H124	H	-1.114756	1.333108	-0.014518
H125	H	-1.197802	1.365284	0.081309
H126	H	-1.262496	1.369679	0.025981
H127	H	-1.209745	1.429809	0.033096
C128	C	-1.008688	1.247571	-0.021042
C129	C	-1.024242	1.230433	0.048550
C130	C	-0.995414	1.280951	0.105244
H131	H	-0.956044	1.240357	-0.029025
H132	H	-1.031240	1.300683	-0.021802
H133	H	-1.001688	1.177333	0.049308
H134	H	-1.076881	1.237651	0.056556
H135	H	-1.017966	1.334063	0.104485
H136	H	-0.942771	1.273733	0.097254
H137	H	-1.005970	1.269334	0.152469
C138	C	-0.647607	1.036695	-0.579303
C139	C	-0.680504	0.992432	-0.637733
C140	C	-0.718154	0.941822	-0.608968
H141	H	-0.613054	1.002200	-0.555828
H142	H	-0.685396	1.066891	-0.543636
H143	H	-0.642719	0.962238	-0.673388
H144	H	-0.715067	1.026906	-0.661214
H145	H	-0.755943	0.972018	-0.573301
H146	H	-0.683596	0.907332	-0.585493
H147	H	-0.740484	0.911789	-0.648607
H148	H	-0.494257	0.492801	-0.214452
C149	C	-0.526016	0.432667	-0.182808
C150	C	-0.545919	0.452753	-0.251805
C151	C	-0.491275	0.411550	-0.306870
H152	H	-0.479063	0.446163	-0.169680
H153	H	-0.522410	0.377588	-0.186495
H154	H	-0.549516	0.507819	-0.248117
H155	H	-0.592863	0.439255	-0.264956
H156	H	-0.487670	0.356471	-0.310557
H157	H	-0.444326	0.425049	-0.293734
H158	H	-0.504775	0.425167	-0.353691
C159	C	-0.408187	0.556683	-0.300828
C160	C	-0.377148	0.610516	-0.331978
C161	C	-0.322394	0.569430	-0.386978
H162	H	-0.369971	0.524476	-0.278895
H163	H	-0.430323	0.524511	-0.338951
H164	H	-0.355011	0.642675	-0.293861
H165	H	-0.415345	0.642725	-0.353926
H166	H	-0.344530	0.537258	-0.425102
H167	H	-0.284183	0.537224	-0.365039
H168	H	-0.301332	0.605949	-0.408125
C169	C	-0.754429	0.604603	0.046356
C170	C	-0.823490	0.584522	0.026663
C171	C	-0.878380	0.625721	0.081484
H172	H	-0.741156	0.591098	0.093264
H173	H	-0.758098	0.659682	0.049986
H174	H	-0.819820	0.529456	0.023042
H175	H	-0.836786	0.598029	-0.020236
H176	H	-0.882049	0.680800	0.085114
H177	H	-0.865100	0.612213	0.128389
H178	H	-0.925246	0.612108	0.068127
