data_functionalizedCrystal
_audit_creation_method	'MofGen! by Chris Wilmer'
_symmetry_space_group_name_H-M	'P1'
_symmetry_Int_Tables_number	1
_symmetry_cell_setting	triclinic
loop_
_symmetry_equiv_pos_as_xyz
  x,y,z
_cell_length_a	12.827893
_cell_length_b	14.908520
_cell_length_c	12.827885
_cell_angle_alpha	93.263516
_cell_angle_beta	89.980919
_cell_angle_gamma	93.320565
loop_
_atom_site_label
_atom_site_type_symbol
_atom_site_fract_x
_atom_site_fract_y
_atom_site_fract_z
Zn1	Zn	1.573615	-0.359115	-0.614811
Zn2	Zn	2.073615	0.140885	-0.114811
Zn3	Zn	1.563402	-0.509998	-0.450142
Zn4	Zn	2.063402	-0.009998	0.049858
Zn5	Zn	1.398853	-0.359159	-0.440088
Zn6	Zn	1.898853	0.140841	0.059912
Zn7	Zn	1.388739	-0.509931	-0.624838
Zn8	Zn	1.888739	-0.009931	-0.124838
O9	O	1.481152	-0.434551	-0.532470
O10	O	1.981152	0.065449	-0.032470
O11	O	1.718495	-0.379139	-0.592979
O12	O	2.218495	0.120861	-0.092979
O13	O	1.541533	-0.490036	-0.302575
O14	O	2.041533	0.009964	0.197425
O15	O	1.430542	-0.232908	-0.454862
O16	O	1.930542	0.267092	0.045138
O17	O	1.710992	-0.489993	-0.471997
O18	O	2.210992	0.010007	0.028003
O19	O	1.558939	-0.232876	-0.583230
O20	O	2.058939	0.267124	-0.083230
O21	O	1.420640	-0.379214	-0.295189
O22	O	1.920640	0.120786	0.204811
O23	O	1.251276	-0.379149	-0.464585
O24	O	1.751276	0.120851	0.035415
O25	O	1.413304	-0.489879	-0.769741
O26	O	1.913304	0.010121	-0.269741
O27	O	1.243845	-0.489921	-0.600319
O28	O	1.743845	0.010079	-0.100319
O29	O	1.549132	-0.379074	-0.762374
O30	O	2.049132	0.120926	-0.262374
O31	O	1.531726	-0.636234	-0.481719
O32	O	2.031726	-0.136234	0.018281
O33	O	1.403401	-0.636184	-0.610068
O34	O	1.903401	-0.136184	-0.110068
C35	C	1.209643	-0.434533	-0.532450
C36	C	1.709643	0.065467	-0.032450
C37	C	1.093489	-0.434548	-0.532467
C38	C	1.593489	0.065452	-0.032467
C39	C	1.465386	-0.668943	-0.548095
C40	C	1.965386	-0.168943	-0.048095
C41	C	1.458737	-0.769217	-0.554815
C42	C	1.958737	-0.269217	-0.054815
C43	C	1.037998	-0.489317	-0.472512
C44	C	1.537998	0.010683	0.027488
C45	C	0.917946	-0.489333	-0.472528
C46	C	1.417946	0.010667	0.027472
C47	C	1.580004	-0.957632	-0.433900
C48	C	2.080004	-0.457632	0.066100
C49	C	1.573760	-1.051849	-0.440210
C50	C	2.073760	-0.551849	0.059790
C51	C	1.440011	-1.051867	-0.573750
C52	C	1.940011	-0.551867	-0.073750
C53	C	1.446255	-0.957651	-0.567440
C54	C	1.946255	-0.457651	-0.067440
C55	C	1.516253	-0.910537	-0.497511
C56	C	2.016253	-0.410537	0.002489
C57	C	1.522491	-0.816319	-0.491196
C58	C	2.022491	-0.316319	0.008804
C59	C	1.388748	-0.816339	-0.624741
C60	C	1.888748	-0.316339	-0.124741
C61	C	1.382504	-0.910555	-0.631051
C62	C	1.882504	-0.410555	-0.131051
C63	C	1.753721	-0.434569	-0.532491
C64	C	2.253721	0.065431	-0.032491
C65	C	1.869874	-0.434576	-0.532500
C66	C	2.369874	0.065424	-0.032500
C67	C	1.481229	-0.434464	-0.805034
C68	C	1.981229	0.065536	-0.305034
C69	C	1.481262	-0.434427	-0.921185
C70	C	1.981262	0.065573	-0.421185
C71	C	1.497008	-0.199243	-0.516806
C72	C	1.997008	0.300757	-0.016806
C73	C	1.503765	-0.098969	-0.510132
C74	C	2.003765	0.401031	-0.010132
C75	C	1.548481	-0.379587	-0.969324
C76	C	2.048481	0.120413	-0.469324
C77	C	1.548516	-0.379547	-1.089372
C78	C	2.048516	0.120453	-0.589372
C79	C	1.481140	-0.434572	-0.260961
C80	C	1.981140	0.065428	0.239039
C81	C	1.481327	-0.434355	-0.144794
C82	C	1.981327	0.065645	0.355206
H83	H	1.079366	-0.536198	-0.421173
H84	H	1.579366	-0.036198	0.078827
H85	H	1.579483	-0.777959	-0.434255
H86	H	2.079483	-0.277959	0.065745
H87	H	1.636991	-0.919271	-0.376954
H88	H	2.136991	-0.419271	0.123046
H89	H	1.423733	-0.481343	-0.968846
H90	H	1.923733	0.018657	-0.468846
H91	H	0.870239	-0.536221	-0.421196
H92	H	1.370239	-0.036221	0.078804
H93	H	1.423778	-0.481311	-1.103389
H94	H	1.923778	0.018689	-0.603389
H95	H	1.052120	-0.387672	-0.583814
H96	H	1.552120	0.112328	-0.083814
H97	H	0.917575	-0.387680	-0.583828
H98	H	1.417575	0.112320	-0.083828
H99	H	1.625675	-1.090190	-0.388413
H100	H	2.125675	-0.590190	0.111587
H101	H	1.325517	-0.948929	-0.687987
H102	H	1.825517	-0.448929	-0.187987
H103	H	1.383030	-1.090244	-0.630689
H104	H	1.883030	-0.590244	-0.130689
H105	H	1.606000	-0.332662	-0.921662
H106	H	2.106000	0.167338	-0.421662
H107	H	1.336834	-0.777983	-0.676535
H108	H	1.836834	-0.277983	-0.176535
H109	H	1.606069	-0.332600	-1.130784
H110	H	2.106069	0.167400	-0.630784
