data_functionalizedCrystal
_audit_creation_method	'MofGen! by Chris Wilmer'
_symmetry_space_group_name_H-M	'P1'
_symmetry_Int_Tables_number	1
_symmetry_cell_setting	triclinic
loop_
_symmetry_equiv_pos_as_xyz
  x,y,z
_cell_length_a	15.995363
_cell_length_b	15.995350
_cell_length_c	14.472310
_cell_angle_alpha	90.001162
_cell_angle_beta	90.009879
_cell_angle_gamma	96.505115
loop_
_atom_site_label
_atom_site_type_symbol
_atom_site_fract_x
_atom_site_fract_y
_atom_site_fract_z
O1	O	-1.110990	0.107970	-0.076769
O2	O	-0.867216	0.121287	-0.076785
O3	O	-0.995767	-0.007259	-0.076776
O4	O	-0.982439	0.236516	-0.076778
O5	O	-0.995734	-0.007252	0.076907
O6	O	-0.867183	0.121294	0.076897
O7	O	-1.110957	0.107977	0.076913
Cu8	Cu	-0.989067	0.114636	0.090938
Cu9	Cu	-0.989106	0.114628	-0.090809
O10	O	-0.982406	0.236523	0.076904
C11	C	-0.836005	0.120738	0.000054
C12	C	-0.743055	0.119082	0.000048
C13	C	-0.405310	0.113135	0.000070
C14	C	-0.452743	0.021585	0.000414
C15	C	-0.549433	0.023242	0.000060
C16	C	-0.572869	0.116085	0.000060
C17	C	-0.531801	0.161235	-0.087697
C18	C	-0.435166	0.158931	-0.087763
C19	C	-0.434790	0.160831	0.087002
C20	C	-0.531734	0.160814	0.088155
C21	C	-0.667566	0.117757	0.000051
C22	C	-0.310612	0.111466	0.000073
C23	C	-0.995199	-0.038450	0.000064
C24	C	-0.993548	-0.131401	0.000058
C25	C	-0.987615	-0.469148	0.000061
C26	C	-0.896064	-0.421718	-0.000290
C27	C	-0.897716	-0.325028	0.000057
C28	C	-0.990558	-0.301588	0.000059
C29	C	-1.035695	-0.342659	0.087821
C30	C	-1.033396	-0.439295	0.087894
C31	C	-1.035324	-0.439661	-0.086871
C32	C	-1.035303	-0.342716	-0.088031
C33	C	-0.992226	-0.206890	0.000061
C34	C	-0.985950	-0.563846	0.000065
C35	C	-0.142170	0.108515	0.000075
C36	C	-0.235124	0.110138	0.000082
C37	C	-0.982974	0.267714	0.000063
C38	C	-0.984626	0.360665	0.000062
N39	N	-0.989046	0.114642	0.218768
N40	N	-0.989134	0.114615	-0.218640
C41	C	-0.989105	0.114624	0.592860
C42	C	-0.920089	0.183176	0.553689
C43	C	-0.920249	0.183426	0.446601
C44	C	-0.989075	0.114633	0.407269
C45	C	-1.076439	0.133719	0.446111
C46	C	-1.076051	0.134206	0.553233
C47	C	-0.971536	0.026784	0.553388
C48	C	-0.969532	0.027369	0.446261
C49	C	-0.989063	0.114636	0.302381
C50	C	-0.989122	0.114623	0.697748
H51	H	-0.434208	-0.015008	0.063348
H52	H	-0.577304	-0.012496	-0.062957
Br53	Br	-0.577123	0.105785	0.196363
H54	H	-1.005406	-0.460206	-0.153389
H55	H	-1.092291	0.197050	0.419275
Br56	Br	-0.978487	-0.469800	0.197231
Br57	Br	-1.164133	0.054061	0.596424
H58	H	-1.100610	-0.471540	0.091877
Br59	Br	-0.404669	0.104040	-0.197100
H60	H	-0.433163	-0.014846	-0.062172
H61	H	-0.931468	0.248610	0.420967
Br62	Br	-0.835091	-0.452608	-0.105189
Br63	Br	-0.980760	-0.296768	-0.196260
Br64	Br	-0.381413	0.270955	-0.094400
Br65	Br	-1.149381	-0.319115	0.093269
Br66	Br	-0.557334	0.273664	0.096990
Br67	Br	-0.596799	-0.035913	0.104910
Br68	Br	-0.381855	0.273334	0.087992
Br69	Br	-0.835146	-0.454772	0.103695
Br70	Br	-0.983401	-0.295356	0.196674
Br71	Br	-0.811493	0.164521	0.596635
Br72	Br	-0.400544	0.110947	0.197871
Br73	Br	-1.148150	-0.317102	-0.096870
Br74	Br	-0.862417	0.003224	0.403953
Br75	Br	-0.838577	-0.277659	-0.104799
Br76	Br	-1.147829	-0.492592	-0.087854
H77	H	-0.861968	-0.297162	0.063070
H78	H	-0.855309	0.172054	0.420341
H79	H	-0.931154	0.247994	0.580599
Br80	Br	-1.101856	0.240978	0.594867
Br81	Br	-0.555369	0.274914	-0.093162
H82	H	-1.129023	0.085118	0.420632
Br83	Br	-0.867643	-0.003787	0.598463
Br84	Br	-1.047881	-0.061643	0.401656
H85	H	-1.021866	-0.024230	0.578718
H86	H	-0.560190	0.129870	-0.153007
