data_functionalizedCrystal
_audit_creation_method	'MofGen! by Chris Wilmer'
_symmetry_space_group_name_H-M	'P1'
_symmetry_Int_Tables_number	1
_symmetry_cell_setting	triclinic
loop_
_symmetry_equiv_pos_as_xyz
  x,y,z
_cell_length_a	19.805407
_cell_length_b	17.637592
_cell_length_c	19.805399
_cell_angle_alpha	78.754426
_cell_angle_beta	90.017803
_cell_angle_gamma	78.769158
loop_
_atom_site_label
_atom_site_type_symbol
_atom_site_fract_x
_atom_site_fract_y
_atom_site_fract_z
Zn1	Zn	0.980221	0.314853	0.328120
Zn2	Zn	1.480221	0.814853	0.828120
Zn3	Zn	0.957242	0.447076	0.192016
Zn4	Zn	1.457242	0.947076	0.692016
Zn5	Zn	0.867033	0.314869	0.214946
Zn6	Zn	1.367033	0.814869	0.714946
Zn7	Zn	0.844114	0.447028	0.305175
Zn8	Zn	1.344114	0.947028	0.805175
O9	O	0.912152	0.380956	0.260064
O10	O	1.412152	0.880956	0.760064
O11	O	1.071887	0.332406	0.310072
O12	O	1.571887	0.832406	0.810072
O13	O	0.945251	0.429565	0.100337
O14	O	1.445251	0.929565	0.600337
O15	O	0.901256	0.204222	0.249157
O16	O	1.401256	0.704222	0.749157
O17	O	1.055004	0.429550	0.210077
O18	O	1.555004	0.929550	0.710077
O19	O	0.984414	0.204210	0.332306
O20	O	1.484414	0.704210	0.832306
O21	O	0.878974	0.332433	0.117183
O22	O	1.378974	0.832433	0.617183
O23	O	0.769278	0.332386	0.226908
O24	O	1.269278	0.832386	0.726908
O25	O	0.862194	0.429468	0.402940
O26	O	1.362194	0.929468	0.902940
O27	O	0.752440	0.429483	0.293199
O28	O	1.252440	0.929483	0.793199
O29	O	0.962191	0.332360	0.419798
O30	O	1.462191	0.832360	0.919798
O31	O	0.923027	0.557715	0.187828
O32	O	1.423027	1.057715	0.687828
O33	O	0.839912	0.557679	0.270965
O34	O	1.339912	1.057679	0.770965
C35	C	0.736301	0.380932	0.260052
C36	C	1.236301	0.880932	0.760052
C37	C	0.661067	0.380940	0.260060
C38	C	1.161067	0.880940	0.760060
C39	C	0.634499	0.330447	0.312177
C40	C	1.134499	0.830447	0.812177
C41	C	0.563810	0.330451	0.312179
C42	C	1.063810	0.830451	0.812179
C43	C	0.519689	0.380953	0.260066
C44	C	1.019689	0.880953	0.760066
C45	C	0.546262	0.431449	0.207943
C46	C	1.046262	0.931449	0.707943
C47	C	0.616951	0.431440	0.207939
C48	C	1.116951	0.931440	0.707939
C49	C	0.261183	0.431484	0.207957
C50	C	0.761183	0.931484	0.707957
C51	C	0.190490	0.431491	0.207966
C52	C	0.690490	0.931491	0.707966
C53	C	0.208041	0.330495	0.312198
C54	C	0.708041	0.830495	0.812198
C55	C	0.278730	0.330487	0.312194
C56	C	0.778730	0.830487	0.812194
C57	C	0.305297	0.380979	0.260069
C58	C	0.805297	0.880979	0.760069
C59	C	0.381947	0.380973	0.260067
C60	C	0.881947	0.880973	0.760067
C61	C	0.443040	0.380964	0.260070
C62	C	0.943040	0.880964	0.760070
C63	C	0.876507	0.586386	0.224434
C64	C	1.376507	1.086386	0.724434
C65	C	0.861320	0.674269	0.209213
C66	C	1.361320	1.174269	0.709213
C67	C	0.796647	0.798211	0.144426
C68	C	1.296647	1.298211	0.644426
C69	C	0.810922	0.715631	0.158733
C70	C	1.310922	1.215631	0.658733
C71	C	0.897465	0.715478	0.245404
C72	C	1.397465	1.215478	0.745404
C73	C	0.883200	0.798060	0.231102
C74	C	1.383200	1.298060	0.731102
C75	C	0.832789	0.839420	0.180613
C76	C	1.332789	1.339420	0.680613
C77	C	0.919342	0.839269	0.267288
C78	C	1.419342	1.339269	0.767288
C79	C	0.905074	0.921843	0.252989
C80	C	1.405074	1.421843	0.752989
C81	C	0.854665	0.963209	0.202504
C82	C	1.354665	1.463209	0.702504
C83	C	0.818521	0.921994	0.166314
C84	C	1.318521	1.421994	0.666314
C85	C	0.969749	0.797908	0.317780
C86	C	1.469749	1.297908	0.817780
C87	C	1.005891	0.839117	0.353966
C88	C	1.505891	1.339117	0.853966
C89	C	0.991627	0.921693	0.339665
C90	C	1.491627	1.421693	0.839665
C91	C	0.941218	0.963058	0.289180
C92	C	1.441218	1.463058	0.789180
C93	C	1.027771	0.962907	0.375855
C94	C	1.527771	1.462907	0.875855
C95	C	1.013503	1.045482	0.361556
C96	C	1.513503	1.545482	0.861556
C97	C	0.926950	1.045633	0.274881
C98	C	1.426950	1.545633	0.774881
C99	C	1.088691	0.380982	0.260077
C100	C	1.588691	0.880982	0.760077
C101	C	1.163921	0.380993	0.260082
C102	C	1.663921	0.880993	0.760082
C103	C	0.912199	0.380907	0.436616
C104	C	1.412199	0.880907	0.936616
C105	C	0.912219	0.380885	0.511851
C106	C	1.412219	0.880885	1.011851
C107	C	0.947925	1.174725	0.295841
C108	C	1.447925	1.674725	0.795841
C109	C	0.963092	1.086841	0.311067
C110	C	1.463092	1.586841	0.811067
C111	C	0.912155	0.380949	0.084210
C112	C	1.412155	0.880949	0.584210
C113	C	0.912305	0.380748	0.009013
C114	C	1.412305	0.880748	0.509013
C115	C	0.964289	0.330319	0.555975
C116	C	1.464289	0.830319	1.055975
C117	C	0.964300	0.330296	0.626667
C118	C	1.464300	0.830296	1.126667
C119	C	0.912243	0.380844	0.653234
C120	C	1.412243	0.880844	1.153234
C121	C	0.860168	0.431413	0.609105
C122	C	1.360168	0.931413	1.109105
C123	C	0.860154	0.431432	0.538415
C124	C	1.360154	0.931432	1.038415
C125	C	0.860218	0.431339	0.894191
C126	C	1.360218	0.931339	1.394191
C127	C	0.860237	0.431319	0.964887
C128	C	1.360237	0.931319	1.464887
C129	C	0.964364	0.330204	0.982444
C130	C	1.464364	0.830204	1.482444
C131	C	0.964351	0.330222	0.911754
C132	C	1.464351	0.830222	1.411754
C133	C	0.912274	0.380788	0.867631
C134	C	1.412274	0.880788	1.367631
C135	C	0.912262	0.380811	0.790979
C136	C	1.412262	0.880811	1.290979
C137	C	0.912257	0.380826	0.729885
C138	C	1.412257	0.880826	1.229885
H139	H	0.885904	1.079310	0.233764
H140	H	1.385904	1.579310	0.733764
H141	H	0.186403	0.289379	0.354638
H142	H	0.686403	0.789379	0.854638
Br143	Br	0.835407	1.075276	0.182990
Br144	Br	1.335407	1.575276	0.682990
Br145	Br	1.062554	1.101413	0.410666
Br146	Br	1.562554	1.601413	0.910666
Br147	Br	0.988846	0.685842	0.337451
Br148	Br	1.488846	1.185842	0.837451
Br149	Br	1.096169	0.906767	0.444385
Br150	Br	1.596169	1.406767	0.944385
H151	H	0.755601	0.831888	0.103310
H152	H	1.255601	1.331888	0.603310
H153	H	1.006702	0.289121	0.662590
H154	H	1.506702	0.789121	1.162590
Br155	Br	0.297233	0.499989	0.137203
Br156	Br	0.797233	0.999989	0.637203
H157	H	0.817780	0.472568	0.630742
H158	H	1.317780	0.972568	1.130742
Br159	Br	0.486386	0.499982	0.137211
Br160	Br	0.986386	0.999982	0.637211
H161	H	0.154567	0.472617	0.165526
H162	H	0.654567	0.972617	0.665526
H163	H	0.638581	0.472556	0.165499
H164	H	1.138581	0.972556	0.665499
H165	H	0.777476	0.955672	0.125197
H166	H	1.277476	1.455672	0.625197
Br167	Br	1.074296	0.782979	0.422492
Br168	Br	1.574296	1.282979	0.922492
H169	H	0.781486	0.682083	0.129262
H170	H	1.281486	1.182083	0.629262
Br171	Br	1.035005	0.261623	0.875702
Br172	Br	1.535005	0.761623	1.375702
H173	H	0.670417	0.289324	0.354616
H174	H	1.170417	0.789324	0.854616
H175	H	0.938508	0.681794	0.286514
H176	H	1.438508	1.181794	0.786514
Br177	Br	0.789482	0.500056	0.478532
Br178	Br	1.289482	1.000056	0.978532
H179	H	0.542181	0.289336	0.354620
H180	H	1.042181	0.789336	0.854620
H181	H	1.006681	0.289159	0.534350
H182	H	1.506681	0.789159	1.034350
H183	H	1.006765	0.289028	1.018378
H184	H	1.506765	0.789028	1.518378
Br185	Br	0.789584	0.499926	1.000941
Br186	Br	1.289584	0.999926	1.500941
H187	H	0.314650	0.289365	0.354632
H188	H	0.814650	0.789365	0.854632
H189	H	0.817822	0.472525	0.858273
H190	H	1.317822	0.972525	1.358273
