data_functionalizedCrystal
_audit_creation_method	'MofGen! by Chris Wilmer'
_symmetry_space_group_name_H-M	'P1'
_symmetry_Int_Tables_number	1
_symmetry_cell_setting	triclinic
loop_
_symmetry_equiv_pos_as_xyz
  x,y,z
_cell_length_a	17.019383
_cell_length_b	19.188930
_cell_length_c	16.098538
_cell_angle_alpha	92.708456
_cell_angle_beta	83.394151
_cell_angle_gamma	83.272360
loop_
_atom_site_label
_atom_site_type_symbol
_atom_site_fract_x
_atom_site_fract_y
_atom_site_fract_z
O1	O	1.053765	0.082473	-0.144764
O2	O	0.823219	0.094549	-0.128249
O3	O	0.945144	-0.013153	-0.136967
O4	O	0.931839	0.190176	-0.136046
O5	O	0.938022	-0.006887	0.002055
O6	O	0.816096	0.100816	0.010773
O7	O	1.046642	0.088740	-0.005742
Zn8	Zn	0.930239	0.095773	0.024588
Zn9	Zn	0.939622	0.087516	-0.158579
O10	O	0.924717	0.196443	0.002976
C11	C	0.790162	0.097347	-0.056625
C12	C	0.702275	0.096336	-0.050328
C13	C	0.941152	-0.036030	-0.067422
C14	C	0.939858	-0.113533	-0.067323
C15	C	0.664861	0.092448	-0.123145
C16	C	0.582279	0.091510	-0.117217
C17	C	0.537115	0.094457	-0.038471
C18	C	0.574535	0.098348	0.034351
C19	C	0.657114	0.099290	0.028422
C20	C	0.287585	0.091786	-0.016777
C21	C	0.205001	0.090842	-0.010853
C22	C	0.212751	0.084005	-0.162422
C23	C	0.295332	0.084944	-0.168344
C24	C	0.332744	0.088839	-0.095522
C25	C	0.452704	0.093496	-0.032409
C26	C	0.417153	0.089804	-0.101585
C27	C	1.011400	-0.158562	-0.072443
C28	C	1.010185	-0.231385	-0.072370
C29	C	0.937424	-0.259174	-0.067158
C30	C	0.865873	-0.214134	-0.062041
C31	C	0.867090	-0.141314	-0.062124
N32	N	0.879382	-0.364963	-0.015862
N33	N	0.878231	-0.434140	-0.015783
C34	C	0.933753	-0.478578	-0.066912
N35	N	0.990481	-0.451225	-0.118114
N36	N	0.991634	-0.382042	-0.118190
C37	C	0.936096	-0.338135	-0.067069
C38	C	1.003983	-0.602571	-0.071955
C39	C	1.002766	-0.675395	-0.071886
C40	C	0.858450	-0.658142	-0.061549
C41	C	0.859670	-0.585320	-0.061626
C42	C	0.932438	-0.557539	-0.066825
C43	C	1.079699	0.085943	-0.077368
C44	C	1.167586	0.086953	-0.083670
C45	C	0.928709	0.219320	-0.066570
C46	C	0.930004	0.296822	-0.066676
N47	N	0.923840	0.101408	0.149595
N48	N	0.946027	0.081876	-0.283586
C49	C	0.975609	0.055711	0.189479
C50	C	0.971140	0.059659	0.276987
C51	C	0.914906	0.109308	0.324610
C52	C	0.863132	0.155008	0.284721
C53	C	0.867597	0.151056	0.197214
C54	C	0.898718	0.123623	0.589018
C55	C	0.894258	0.127573	0.676530
C56	C	1.002266	0.032223	0.668790
C57	C	1.006730	0.028278	0.581282
C58	C	0.954953	0.073975	0.541401
C59	C	0.910339	0.113347	0.414058
C60	C	0.959517	0.069933	0.451955
H61	H	0.701628	0.090046	-0.187269
H62	H	0.453928	0.087409	-0.165699
C63	C	1.021366	0.015314	0.399567
N64	N	1.067952	-0.025825	0.360101
H65	H	0.551820	0.088344	-0.176512
C66	C	0.788384	-0.091778	-0.056488
N67	N	0.729102	-0.054467	-0.052241
H68	H	1.013294	0.022448	0.309460
C69	C	0.801266	0.209617	0.337110
N70	N	0.754667	0.250749	0.376569
C71	C	0.810654	0.201332	0.153343
N72	N	0.767762	0.239203	0.120300
H73	H	0.801413	-0.548655	-0.057452
C74	C	1.068588	-0.026344	0.528903
N75	N	1.115181	-0.067485	0.489451
H76	H	1.044420	-0.004982	0.701270
H77	H	0.799207	-0.680766	-0.057310
H78	H	0.848463	0.168007	0.715301
H79	H	1.021404	0.015284	0.150709
H80	H	0.856561	0.160833	0.556553
C81	C	0.848477	0.167956	0.466452
N82	N	0.801880	0.209084	0.505919
H83	H	1.063235	-0.579951	-0.076192
H84	H	0.687575	0.102460	0.087718
H85	H	0.332100	0.082540	-0.232468
H86	H	0.168227	0.093261	0.053275
C87	C	0.171590	0.079728	-0.242521
N88	N	0.140586	0.076508	-0.302854
C89	C	1.091448	-0.128008	-0.078170
N90	N	1.151740	-0.104994	-0.082485
C91	C	0.524851	0.101589	0.120973
N92	N	0.487430	0.104028	0.186219
C93	C	0.328729	0.096063	0.063331
N94	N	0.359721	0.099282	0.123671
H95	H	1.068446	-0.268056	-0.076543
H96	H	0.415922	0.095893	0.031706
H97	H	0.806630	-0.236764	-0.057800
C98	C	1.081472	-0.724928	-0.077515
N99	N	1.140755	-0.762238	-0.081751
