data_functionalizedCrystal
_audit_creation_method	'MofGen! by Chris Wilmer'
_symmetry_space_group_name_H-M	'P1'
_symmetry_Int_Tables_number	1
_symmetry_cell_setting	triclinic
loop_
_symmetry_equiv_pos_as_xyz
  x,y,z
_cell_length_a	19.077236
_cell_length_b	16.625546
_cell_length_c	19.077174
_cell_angle_alpha	92.270997
_cell_angle_beta	85.294282
_cell_angle_gamma	92.315185
loop_
_atom_site_label
_atom_site_type_symbol
_atom_site_fract_x
_atom_site_fract_y
_atom_site_fract_z
Zn1	Zn	1.093747	-0.291122	-0.441966
Zn2	Zn	1.593747	0.208878	0.058034
Zn3	Zn	1.088936	-0.420756	-0.324074
Zn4	Zn	1.588936	0.079244	0.175926
Zn5	Zn	0.971129	-0.291134	-0.319349
Zn6	Zn	1.471129	0.208866	0.180651
Zn7	Zn	0.975827	-0.431112	-0.437178
Zn8	Zn	1.475827	0.068888	0.062822
O9	O	1.032410	-0.358531	-0.380641
O10	O	1.532410	0.141469	0.119359
O11	O	1.191762	-0.303979	-0.430308
O12	O	1.691762	0.196021	0.069692
O13	O	1.069329	-0.399233	-0.224797
O14	O	1.569329	0.100767	0.275203
O15	O	0.987441	-0.178299	-0.335640
O16	O	1.487441	0.321701	0.164360
O17	O	1.188227	-0.399221	-0.343694
O18	O	1.688227	0.100779	0.156306
O19	O	1.077529	-0.178290	-0.425726
O20	O	1.577529	0.321710	0.074274
O21	O	0.982776	-0.304000	-0.221325
O22	O	1.482776	0.196000	0.278675
O23	O	0.873099	-0.314042	-0.330998
O24	O	1.373099	0.185958	0.169002
O25	O	0.995449	-0.416871	-0.536463
O26	O	1.495449	0.083129	-0.036463
O27	O	0.876551	-0.416883	-0.417566
O28	O	1.376551	0.083117	0.082434
O29	O	1.082085	-0.314021	-0.539981
O30	O	1.582085	0.185979	-0.039981
O31	O	1.073885	-0.534963	-0.339051
O32	O	1.573885	-0.034963	0.160949
O33	O	0.990784	-0.542572	-0.422148
O34	O	1.490784	-0.042572	0.077852
C35	C	0.849245	-0.366588	-0.373250
C36	C	1.349245	0.133412	0.126750
C37	C	0.770887	-0.370055	-0.370105
C38	C	1.270887	0.129945	0.129895
C39	C	0.735918	-0.322181	-0.413792
C40	C	1.235918	0.177819	0.086208
C41	C	0.662293	-0.325434	-0.410830
C42	C	1.162293	0.174566	0.089170
C43	C	0.623637	-0.376566	-0.364185
C44	C	1.123637	0.123434	0.135815
C45	C	0.658611	-0.424441	-0.320494
C46	C	1.158611	0.075559	0.179506
C47	C	0.732236	-0.421183	-0.323452
C48	C	1.232236	0.078817	0.176548
C49	C	0.403246	-0.391614	-0.350491
C50	C	0.903246	0.108386	0.149509
C51	C	0.329617	-0.394871	-0.347537
C52	C	0.829617	0.105129	0.152463
C53	C	0.333303	-0.295862	-0.437873
C54	C	0.833303	0.204138	0.062127
C55	C	0.406929	-0.292612	-0.440831
C56	C	0.906929	0.207388	0.059169
C57	C	0.441896	-0.340484	-0.397137
C58	C	0.941896	0.159516	0.102863
N59	N	0.548380	-0.379895	-0.361159
N60	N	1.048380	0.120105	0.138841
N61	N	0.517152	-0.337151	-0.400160
N62	N	1.017152	0.162849	0.099840
C63	C	1.032342	-0.568024	-0.380609
C64	C	1.532342	-0.068024	0.119391
C65	C	1.032378	-0.657644	-0.380622
C66	C	1.532378	-0.157644	0.119378
C67	C	1.032504	-0.985817	-0.380700
C68	C	1.532504	-0.485817	0.119300
C69	C	1.032467	-0.894509	-0.380680
C70	C	1.532467	-0.394509	0.119320
C71	C	1.032441	-0.821733	-0.380660
C72	C	1.532441	-0.321733	0.119340
C73	C	1.032405	-0.730420	-0.380641
C74	C	1.532405	-0.230420	0.119359
C75	C	1.216289	-0.350444	-0.388062
C76	C	1.716289	0.149556	0.111938
C77	C	1.294648	-0.346997	-0.391224
C78	C	1.794648	0.153003	0.108776
C79	C	1.039828	-0.366599	-0.564516
C80	C	1.539828	0.133401	-0.064516
C81	C	1.042989	-0.370038	-0.642872
C82	C	1.542989	0.129962	-0.142872
C83	C	1.032498	-0.148220	-0.380690
C84	C	1.532498	0.351780	0.119310
C85	C	1.032535	-0.058598	-0.380711
C86	C	1.532535	0.441402	0.119289
C87	C	0.999412	-0.322071	-0.677876
C88	C	1.499412	0.177929	-0.177876
C89	C	1.002380	-0.325309	-0.751500
C90	C	1.502380	0.174691	-0.251500
C91	C	1.048928	-0.376509	-0.790119
C92	C	1.548928	0.123491	-0.290119
C93	C	1.092506	-0.424480	-0.755110
C94	C	1.592506	0.075520	-0.255110
C95	C	1.089534	-0.421247	-0.681487
C96	C	1.589534	0.078753	-0.181487
C97	C	1.062643	-0.391501	-1.010502
C98	C	1.562643	0.108499	-0.510502
C99	C	1.065613	-0.394729	-1.084130
C100	C	1.565613	0.105271	-0.584130
C101	C	0.975486	-0.295558	-1.080515
C102	C	1.475486	0.204442	-0.580515
C103	C	0.972522	-0.292325	-1.006891
C104	C	1.472522	0.207675	-0.506891
C105	C	1.016097	-0.340300	-0.971888
C106	C	1.516097	0.159700	-0.471888
N107	N	1.051964	-0.379817	-0.865375
N108	N	1.551964	0.120183	-0.365375
N109	N	1.013057	-0.336995	-0.896633
N110	N	1.513057	0.163005	-0.396633
C111	C	1.025061	-0.350434	-0.197484
C112	C	1.525061	0.149566	0.302516
C113	C	1.022037	-0.346763	-0.119134
C114	C	1.522037	0.153237	0.380866
H115	H	0.633824	-0.286452	-0.446406
H116	H	1.133824	0.213548	0.053594
H117	H	0.304825	-0.256886	-0.473446
H118	H	0.804825	0.243114	0.026554
H119	H	1.098118	-0.430574	-0.982011
H120	H	1.598118	0.069426	-0.482011
C121	C	0.287097	-0.451117	-0.296224
C122	C	0.787097	0.048883	0.203776
H123	H	0.318466	-0.479157	-0.270621
H124	H	0.818466	0.020843	0.229379
H125	H	0.259461	-0.488749	-0.321983
H126	H	0.759461	0.011251	0.178017
H127	H	0.257138	-0.420136	-0.264405
H128	H	0.757138	0.079864	0.235595
C129	C	0.927552	-0.242795	-1.119016
C130	C	1.427552	0.257205	-0.619016
H131	H	0.899408	-0.211836	-1.085471
H132	H	1.399408	0.288164	-0.585471
H133	H	0.897981	-0.276250	-1.146489
H134	H	1.397981	0.223750	-0.646489
H135	H	0.955696	-0.207733	-1.148832
H136	H	1.455696	0.292267	-0.648832
H137	H	1.103521	-0.436423	-1.115571
H138	H	1.603521	0.063577	-0.615571
H139	H	1.130402	-0.466173	-0.786559
H140	H	1.630402	0.033827	-0.286559
C141	C	0.954450	-0.272541	-0.790002
C142	C	1.454450	0.227459	-0.290002
H143	H	0.926310	-0.241577	-0.756458
H144	H	1.426310	0.258423	-0.256458
H145	H	0.924876	-0.305992	-0.817475
H146	H	1.424876	0.194008	-0.317475
H147	H	0.982599	-0.237484	-0.819819
H148	H	1.482599	0.262516	-0.319819
H149	H	0.767387	-0.280546	-0.451777
H150	H	1.267387	0.219454	0.048223
C151	C	0.449445	-0.236360	-0.492134
C152	C	0.949445	0.263640	0.007866
H153	H	0.418073	-0.208307	-0.517723
H154	H	0.918073	0.291693	-0.017723
H155	H	0.479404	-0.267328	-0.523955
H156	H	0.979404	0.232672	-0.023955
H157	H	0.477079	-0.198727	-0.466367
H158	H	0.977079	0.301273	0.033633
C159	C	0.441701	-0.444275	-0.302432
C160	C	0.941701	0.055725	0.197568
H161	H	0.408133	-0.475198	-0.274235
H162	H	0.908133	0.024802	0.225765
H163	H	0.469184	-0.410760	-0.272917
H164	H	0.969184	0.089240	0.227083
H165	H	0.471506	-0.479369	-0.330498
H166	H	0.971506	0.020631	0.169502
C167	C	1.137468	-0.474010	-0.642983
C168	C	1.637468	0.025990	-0.142983
H169	H	1.165620	-0.504962	-0.676526
H170	H	1.665620	-0.004962	-0.176526
H171	H	1.109324	-0.509065	-0.613166
H172	H	1.609324	-0.009065	-0.113166
H173	H	1.167042	-0.440551	-0.615509
H174	H	1.667042	0.059449	-0.115509
C175	C	0.948204	-0.265758	-0.635402
C176	C	1.448204	0.234242	-0.135402
H177	H	0.922670	-0.237662	-0.666796
H178	H	1.422670	0.262338	-0.166796
H179	H	0.974019	-0.228175	-0.607774
H180	H	1.474019	0.271825	-0.107774
H181	H	0.916314	-0.296703	-0.605439
H182	H	1.416314	0.203297	-0.105439
C183	C	0.616096	-0.480687	-0.269184
C184	C	1.116096	0.019313	0.230816
H185	H	0.647468	-0.508727	-0.243586
H186	H	1.147468	-0.008727	0.256414
H187	H	0.588458	-0.518319	-0.294942
H188	H	1.088458	-0.018319	0.205058
H189	H	0.586138	-0.449710	-0.237361
H190	H	1.086138	0.050290	0.262639
C191	C	0.770702	-0.473851	-0.275403
C192	C	1.270702	0.026149	0.224597
H193	H	0.737137	-0.504777	-0.247204
H194	H	1.237137	-0.004777	0.252796
H195	H	0.798188	-0.440340	-0.245889
H196	H	1.298188	0.059660	0.254111
H197	H	0.800503	-0.508943	-0.303475
H198	H	1.300503	-0.008943	0.196525
C199	C	0.921324	-0.235999	-0.964415
C200	C	1.421324	0.264001	-0.464415
H201	H	0.895795	-0.207897	-0.995807
H202	H	1.395795	0.292103	-0.495807
H203	H	0.947155	-0.198424	-0.936796
H204	H	1.447155	0.301576	-0.436796
H205	H	0.889430	-0.266930	-0.934445
H206	H	1.389430	0.233070	-0.434445
