data_functionalizedCrystal
_audit_creation_method	'MofGen! by Chris Wilmer'
_symmetry_space_group_name_H-M	'P1'
_symmetry_Int_Tables_number	1
_symmetry_cell_setting	triclinic
loop_
_symmetry_equiv_pos_as_xyz
  x,y,z
_cell_length_a	12.759401
_cell_length_b	16.625546
_cell_length_c	12.759393
_cell_angle_alpha	89.963806
_cell_angle_beta	89.981504
_cell_angle_gamma	90.022629
loop_
_atom_site_label
_atom_site_type_symbol
_atom_site_fract_x
_atom_site_fract_y
_atom_site_fract_z
Zn1	Zn	1.606199	-0.320951	-0.593948
Zn2	Zn	1.606069	-0.455807	-0.418253
Zn3	Zn	1.430501	-0.320993	-0.418287
Zn4	Zn	1.430465	-0.455745	-0.593895
O5	O	1.518308	-0.388374	-0.506096
O6	O	1.753203	-0.338848	-0.570649
O7	O	1.582740	-0.437968	-0.271237
O8	O	1.453876	-0.208155	-0.441625
O9	O	1.753107	-0.437927	-0.441568
O10	O	1.582961	-0.208124	-0.570682
O11	O	1.453751	-0.338920	-0.271261
O12	O	1.283475	-0.338860	-0.441574
O13	O	1.453816	-0.437821	-0.740923
O14	O	1.283449	-0.437862	-0.570592
O15	O	1.582927	-0.338788	-0.740962
O16	O	1.582706	-0.568632	-0.441517
O17	O	1.453691	-0.568586	-0.570560
C18	C	1.245341	-0.388359	-0.506081
C19	C	1.128564	-0.388372	-0.506100
C20	C	1.073717	-0.440005	-0.573169
C21	C	0.963992	-0.440015	-0.573180
C22	C	0.963974	-0.336758	-0.439045
C23	C	1.073696	-0.336744	-0.439040
C24	C	1.073726	-0.499623	-0.650608
C25	C	0.964002	-0.499633	-0.650619
C26	C	1.518209	-0.597865	-0.506052
C27	C	1.518263	-0.687486	-0.506068
C28	C	1.518446	-1.015662	-0.506177
C29	C	1.518392	-0.924353	-0.506150
C30	C	1.518353	-0.851577	-0.506122
C31	C	1.518301	-0.760262	-0.506096
C32	C	1.792342	-0.388390	-0.506111
C33	C	1.909118	-0.388396	-0.506117
C34	C	1.518382	-0.388293	-0.780129
C35	C	1.518413	-0.388258	-0.896906
C36	C	1.518437	-0.178065	-0.506163
C37	C	1.518492	-0.088444	-0.506191
C38	C	1.585650	-0.336687	-0.951790
C39	C	1.585675	-0.336657	-1.061514
C40	C	1.451223	-0.439778	-1.061461
C41	C	1.451194	-0.439803	-0.951739
C42	C	1.663279	-0.277153	-0.951821
C43	C	1.663304	-0.277124	-1.061546
C44	C	1.518296	-0.388397	-0.233128
C45	C	1.518468	-0.388204	-0.116352
H46	H	0.934196	-0.562065	-0.628680
H47	H	1.396439	-0.481794	-0.907056
O48	O	1.386034	-0.489824	-1.114890
C49	C	1.326444	-0.535454	-1.283898
C50	C	1.400340	-0.478746	-1.223525
H51	H	1.337969	-0.526505	-1.371740
H52	H	1.344850	-0.600494	-1.262378
H53	H	1.241743	-0.521303	-1.262261
H54	H	1.485066	-0.492824	-1.245130
H55	H	1.381844	-0.413723	-1.245050
H56	H	1.107730	-0.558911	-0.621317
H57	H	0.919287	-0.294723	-0.384448
H58	H	1.641521	-0.214709	-0.922072
O59	O	1.628618	-0.206278	-1.102009
C60	C	1.563266	-0.073223	-1.065646
C61	C	1.602552	-0.153402	-1.019680
H62	H	1.542161	-0.030457	-0.999105
H63	H	1.627491	-0.045151	-1.115914
H64	H	1.490987	-0.084727	-1.115960
H65	H	1.674812	-0.141967	-0.969318
H66	H	1.538264	-0.181449	-0.969472
H67	H	0.930008	-0.477343	-0.727974
O68	O	1.109124	-0.479706	-0.747770
C69	C	1.063383	-0.443536	-0.924847
C70	C	1.023153	-0.466063	-0.814859
H71	H	0.993896	-0.432516	-0.979125
H72	H	1.112996	-0.386630	-0.919739
H73	H	1.113053	-0.494847	-0.957121
H74	H	0.973440	-0.414805	-0.782521
H75	H	0.973597	-0.522994	-0.820034
O76	O	1.755542	-0.303835	-0.911377
C77	C	1.928891	-0.354062	-0.947778
C78	C	1.824468	-0.323842	-0.993721
H79	H	1.984639	-0.370262	-1.014331
H80	H	1.965481	-0.304811	-0.897553
H81	H	1.913825	-0.409546	-0.897426
H82	H	1.839444	-0.268373	-1.044121
H83	H	1.787910	-0.373142	-1.043887
O84	O	1.760403	-0.296933	-1.097123
C85	C	1.910407	-0.256007	-1.198830
C86	C	1.800466	-0.233469	-1.158595
H87	H	1.942821	-0.204716	-1.248556
H88	H	1.964694	-0.267143	-1.129376
H89	H	1.905063	-0.312882	-1.248407
H90	H	1.805710	-0.176583	-1.109035
H91	H	1.746222	-0.222385	-1.228095
O92	O	1.126814	-0.286554	-0.373801
C93	C	1.115212	-0.184087	-0.240825
C94	C	1.054927	-0.240904	-0.314636
H95	H	1.057118	-0.147152	-0.192986
H96	H	1.166524	-0.221000	-0.185721
H97	H	1.166637	-0.142004	-0.289187
H98	H	1.003445	-0.282998	-0.266359
H99	H	1.003680	-0.203940	-0.369743
