data_functionalizedCrystal
_audit_creation_method	'MofGen! by Chris Wilmer'
_symmetry_space_group_name_H-M	'P1'
_symmetry_Int_Tables_number	1
_symmetry_cell_setting	triclinic
loop_
_symmetry_equiv_pos_as_xyz
  x,y,z
_cell_length_a	14.044191
_cell_length_b	12.503572
_cell_length_c	14.044220
_cell_angle_alpha	86.154684
_cell_angle_beta	93.190327
_cell_angle_gamma	93.837835
loop_
_atom_site_label
_atom_site_type_symbol
_atom_site_fract_x
_atom_site_fract_y
_atom_site_fract_z
O1	O	1.282208	0.089264	0.225146
O2	O	1.615541	0.422597	0.558479
O3	O	1.948874	0.755930	0.891812
O4	O	1.005536	0.089277	0.216832
O5	O	1.338869	0.422611	0.550166
O6	O	1.672203	0.755944	0.883499
O7	O	1.139719	0.089266	0.082653
O8	O	1.473052	0.422599	0.415987
O9	O	1.806385	0.755933	0.749320
O10	O	1.148025	0.089275	0.359324
O11	O	1.481358	0.422608	0.692658
O12	O	1.814692	0.755942	1.025991
O13	O	1.129629	-0.089375	0.092763
O14	O	1.462962	0.243958	0.426096
O15	O	1.796296	0.577291	0.759429
O16	O	0.995446	-0.089364	0.226941
O17	O	1.328779	0.243970	0.560275
O18	O	1.662113	0.577303	0.893608
O19	O	1.272118	-0.089378	0.235255
O20	O	1.605451	0.243956	0.568588
O21	O	1.938785	0.577289	0.901922
Cu22	Cu	1.132861	-0.105682	0.232021
Cu23	Cu	1.466194	0.227651	0.565355
Cu24	Cu	1.799527	0.560985	0.898688
Cu25	Cu	1.144793	0.105582	0.220066
Cu26	Cu	1.478126	0.438915	0.553399
Cu27	Cu	1.811460	0.772248	0.886733
O28	O	1.137935	-0.089366	0.369434
O29	O	1.471268	0.243967	0.702767
O30	O	1.804602	0.577301	1.036100
C31	C	0.964869	-0.000041	0.218250
C32	C	1.298203	0.333292	0.551584
C33	C	1.631536	0.666625	0.884917
C34	C	0.858726	-0.000036	0.207403
C35	C	1.192060	0.333297	0.540736
C36	C	1.525393	0.666630	0.874069
N37	N	1.124475	-0.254274	0.240430
N38	N	1.457808	0.079060	0.573763
N39	N	1.791142	0.412393	0.907097
C40	C	0.613267	-0.000045	0.264504
C41	C	0.946601	0.333288	0.597837
C42	C	1.279934	0.666622	0.931170
C43	C	0.664393	-0.000046	0.187587
C44	C	0.997726	0.333288	0.520921
C45	C	1.331060	0.666621	0.854254
C46	C	0.772530	-0.000040	0.198615
C47	C	1.105863	0.333293	0.531949
C48	C	1.439197	0.666626	0.865282
C49	C	0.505120	-0.000050	0.253477
C50	C	0.838454	0.333283	0.586810
C51	C	1.171787	0.666616	0.920144
C52	C	1.112140	-0.473388	0.252808
C53	C	1.445473	-0.140054	0.586141
C54	C	1.778807	0.193279	0.919474
C55	C	1.165518	-0.526719	0.199275
C56	C	1.498851	-0.193386	0.532609
C57	C	1.832184	0.139947	0.865942
C58	C	1.158654	-0.648642	0.206162
C59	C	1.491988	-0.315309	0.539496
C60	C	1.825321	0.018025	0.872829
C61	C	1.119002	-0.351454	0.245922
C62	C	1.452336	-0.018121	0.579255
C63	C	1.785669	0.315213	0.912588
C64	C	1.312785	-0.000056	0.233837
C65	C	1.646118	0.333277	0.567170
C66	C	1.979451	0.666610	0.900503
C67	C	1.418928	-0.000055	0.244684
C68	C	1.752261	0.333279	0.578017
C69	C	2.085595	0.666612	0.911351
C70	C	1.131038	-0.000053	0.052086
C71	C	1.464372	0.333280	0.385419
C72	C	1.797705	0.666613	0.718753
C73	C	1.120194	-0.000050	-0.054057
C74	C	1.453527	0.333284	0.279276
C75	C	1.786860	0.666617	0.612609
N76	N	1.153186	0.254173	0.211650
N77	N	1.486519	0.587507	0.544983
N78	N	1.819852	0.920840	0.878317
C79	C	1.146616	-0.000044	0.400001
C80	C	1.479949	0.333289	0.733334
C81	C	1.813282	0.666622	1.066668
C82	C	1.157461	-0.000041	0.506144
C83	C	1.490794	0.333292	0.839477
C84	C	1.824127	0.666626	1.172810
C85	C	1.177287	-0.000047	0.700482
C86	C	1.510620	0.333287	1.033816
C87	C	1.843953	0.666620	1.367149
C88	C	1.100372	-0.000044	0.751610
C89	C	1.433705	0.333289	1.084943
C90	C	1.767039	0.666623	1.418277
C91	C	1.111404	-0.000047	0.859747
C92	C	1.444737	0.333286	1.193080
C93	C	1.778070	0.666620	1.526413
C94	C	1.166257	-0.000044	0.592336
C95	C	1.499590	0.333290	0.925669
C96	C	1.832923	0.666623	1.259003
H97	H	0.626954	0.000027	0.113451
H98	H	0.960287	0.333361	0.446784
H99	H	1.293620	0.666694	0.780117
H100	H	1.061291	-0.519291	0.303808
H101	H	1.394625	-0.185957	0.637141
H102	H	1.727958	0.147376	0.970475
N103	N	0.662851	-0.000029	0.362698
N104	N	0.996184	0.333305	0.696031
N105	N	1.329517	0.666638	1.029365
H106	H	0.700328	-0.066245	0.374448
H107	H	1.033662	0.267088	0.707781
H108	H	1.366995	0.600422	1.041114
H109	H	0.707742	0.066243	0.366872
H110	H	1.041075	0.399577	0.700205
H111	H	1.374408	0.732910	1.033539
N112	N	1.232881	-0.465920	0.131715
N113	N	1.566214	-0.132587	0.465048
N114	N	1.899548	0.200746	0.798381
H115	H	1.228302	-0.386178	0.136308
H116	H	1.561635	-0.052845	0.469641
H117	H	1.894969	0.280488	0.802975
H118	H	1.300475	-0.485506	0.149491
H119	H	1.633808	-0.152173	0.482824
H120	H	1.967142	0.181161	0.816158
H121	H	1.251414	-0.000055	0.737922
H122	H	1.584747	0.333279	1.071255
H123	H	1.918081	0.666612	1.404588
H124	H	1.026238	-0.000041	0.714169
H125	H	1.359572	0.333292	1.047502
H126	H	1.692905	0.666626	1.380836
