data_functionalizedCrystal
_audit_creation_method	'MofGen! by Chris Wilmer'
_symmetry_space_group_name_H-M	'P1'
_symmetry_Int_Tables_number	1
_symmetry_cell_setting	triclinic
loop_
_symmetry_equiv_pos_as_xyz
  x,y,z
_cell_length_a	10.489711
_cell_length_b	9.565339
_cell_length_c	10.967829
_cell_angle_alpha	102.127646
_cell_angle_beta	84.620254
_cell_angle_gamma	90.005127
loop_
_atom_site_label
_atom_site_type_symbol
_atom_site_fract_x
_atom_site_fract_y
_atom_site_fract_z
O1	O	1.693965	0.158679	0.175877
O2	O	1.322754	0.162661	0.192442
O3	O	1.516920	0.116921	0.002588
O4	O	1.499799	0.204420	0.365731
O5	O	1.516904	-0.115596	0.002600
O6	O	1.322739	-0.069856	0.192454
O7	O	1.693950	-0.073838	0.175889
Zn8	Zn	1.508342	-0.108764	0.184173
Zn9	Zn	1.508362	0.197587	0.184157
O10	O	1.499784	-0.028097	0.365742
C11	C	1.275215	0.046102	0.191204
C12	C	1.133586	0.045203	0.187485
N13	N	1.508337	-0.317841	0.184183
C14	C	0.951128	0.072729	0.301657
C15	C	1.043317	0.173628	0.244621
C16	C	1.043275	-0.055623	0.244602
C17	C	0.973441	0.144615	0.123759
C18	C	0.973390	-0.084735	0.123757
C19	C	1.065551	0.016171	0.066633
C20	C	1.418514	-0.387898	0.271954
C21	C	1.533997	-0.474993	0.297193
C22	C	1.392904	-0.508299	0.158955
C23	C	1.623878	-0.402871	0.209478
C24	C	1.482709	-0.436181	0.071190
C25	C	1.598275	-0.523245	0.096381
C26	C	1.741489	0.042724	0.177126
C27	C	1.883118	0.043633	0.180846
N28	N	1.508376	0.406662	0.184138
C29	C	1.515665	-0.010539	-0.043906
C30	C	1.511935	-0.043915	-0.182462
C31	C	1.510280	0.061657	-0.244234
C32	C	1.506424	0.027164	-0.387439
C33	C	1.501038	0.099365	0.412237
C34	C	1.504769	0.132751	0.550792
H35	H	0.901375	0.096768	0.400956
O36	O	1.457006	-0.414650	-0.042790
C37	C	1.531622	-0.321685	-0.224050
C38	C	1.560927	-0.346016	-0.095002
H39	H	1.615612	-0.266165	-0.266290
H40	H	1.516005	-0.429029	-0.288696
H41	H	1.441496	-0.251755	-0.212657
H42	H	1.651065	-0.415895	-0.106276
H43	H	1.576464	-0.238619	-0.030403
O44	O	1.510036	-0.182152	-0.245947
C45	C	1.395687	-0.361360	-0.379862
C46	C	1.397696	-0.204758	-0.308056
H47	H	1.304856	-0.379694	-0.430074
H48	H	1.483091	-0.384904	-0.451529
H49	H	1.397593	-0.435449	-0.311059
H50	H	1.395747	-0.130567	-0.376765
H51	H	1.310299	-0.181332	-0.236372
H52	H	1.511711	0.177578	-0.191101
H53	H	1.555700	-0.492940	0.392729
H54	H	1.721536	-0.356916	0.230911
H55	H	1.342624	-0.329144	0.346249
O56	O	1.080296	0.303819	0.305837
C57	C	1.063544	0.480825	0.498937
C58	C	1.021517	0.333400	0.429731
H59	H	1.016019	0.504801	0.599108
H60	H	1.172062	0.480427	0.500472
H61	H	1.033596	0.566441	0.448421
H62	H	1.051378	0.247703	0.480191
H63	H	0.913003	0.333919	0.428184
O64	O	1.276372	-0.563077	0.133437
C65	C	1.062220	-0.515591	0.087977
C66	C	1.194142	-0.453387	0.116823
H67	H	0.995693	-0.426931	0.074563
H68	H	1.073509	-0.602569	-0.001227
H69	H	1.019768	-0.563320	0.169338
H70	H	1.236668	-0.405581	0.035541
H71	H	1.182772	-0.366476	0.206069
O72	O	0.936194	-0.215129	0.063217
C73	C	0.808273	-0.421690	0.076191
C74	C	0.850293	-0.273956	0.144729
H75	H	0.738837	-0.469309	0.142071
H76	H	0.759033	-0.409702	-0.009506
H77	H	0.895929	-0.495477	0.045283
H78	H	0.762705	-0.200091	0.175720
H79	H	0.899578	-0.286056	0.230369
H80	H	1.074192	-0.140223	0.295746
O81	O	1.688837	-0.593128	0.007668
C82	C	1.732572	-0.774605	-0.180671
C83	C	1.629876	-0.695553	-0.080311
H84	H	1.684945	-0.857453	-0.251813
H85	H	1.784483	-0.694527	-0.230345
H86	H	1.804342	-0.830426	-0.134093
H87	H	1.558025	-0.639730	-0.126790
H88	H	1.578063	-0.775696	-0.030645
H89	H	1.504978	-0.088764	-0.440566
H90	H	1.506191	0.248680	-0.396080
H91	H	1.115071	-0.007719	-0.032758
O92	O	0.936830	0.245548	0.062625
C93	C	0.955099	0.330652	-0.129940
C94	C	0.996646	0.216235	-0.060872
H95	H	1.003461	0.307010	-0.229791
H96	H	0.846689	0.329176	-0.132391
H97	H	0.984456	0.440550	-0.078727
H98	H	0.967376	0.106282	-0.112030
H99	H	1.105052	0.217838	-0.058409
