data_functionalizedCrystal
_audit_creation_method	'MofGen! by Chris Wilmer'
_symmetry_space_group_name_H-M	'P1'
_symmetry_Int_Tables_number	1
_symmetry_cell_setting	triclinic
loop_
_symmetry_equiv_pos_as_xyz
  x,y,z
_cell_length_a	13.262390
_cell_length_b	15.944551
_cell_length_c	12.376457
_cell_angle_alpha	101.276265
_cell_angle_beta	63.168449
_cell_angle_gamma	83.983782
loop_
_atom_site_label
_atom_site_type_symbol
_atom_site_fract_x
_atom_site_fract_y
_atom_site_fract_z
O1	O	1.512403	0.017820	-0.559008
O2	O	1.185279	0.047271	-0.458433
O3	O	1.357772	-0.090167	-0.511456
O4	O	1.339910	0.155258	-0.505985
O5	O	1.314664	-0.055852	-0.310193
O6	O	1.142171	0.081586	-0.257170
O7	O	1.469295	0.052135	-0.357745
Zn8	Zn	1.298889	0.072309	-0.275503
Zn9	Zn	1.355685	0.027097	-0.540676
O10	O	1.296802	0.189573	-0.304722
C11	C	1.121864	0.065933	-0.344932
C12	C	0.997133	0.070408	-0.306583
C13	C	0.739540	0.008186	-0.637336
C14	C	0.856733	0.003978	-0.673369
C15	C	0.891839	0.020585	-0.581675
C16	C	0.809740	0.041402	-0.453943
C17	C	0.692537	0.045604	-0.417907
C18	C	0.844836	0.058003	-0.362246
C19	C	0.762737	0.078819	-0.234513
C20	C	0.645547	0.083021	-0.198483
C21	C	0.610441	0.066413	-0.290177
C22	C	0.962039	0.053800	-0.398282
C23	C	0.915036	0.091218	-0.178853
C24	C	0.797843	0.095426	-0.142820
C25	C	1.335476	-0.104267	-0.410596
C26	C	1.333252	-0.197403	-0.409912
C27	C	1.221020	-0.406741	-0.375422
C28	C	1.251884	-0.453403	-0.292211
C29	C	1.329232	-0.367933	-0.408685
C30	C	1.294411	-0.487220	-0.490648
C31	C	1.325341	-0.532657	-0.407502
C32	C	1.360107	-0.413355	-0.325401
C33	C	1.402638	-0.447179	-0.523923
C34	C	1.433575	-0.493823	-0.440712
C35	C	1.331470	-0.273039	-0.409364
C36	C	1.323110	-0.627548	-0.406816
C37	C	1.532710	0.033472	-0.471249
C38	C	1.657443	0.028996	-0.509606
C39	C	1.319099	0.203672	-0.405584
C40	C	1.321324	0.296808	-0.406277
N41	N	1.260135	0.103163	-0.094532
N42	N	1.394448	-0.003764	-0.721649
C43	C	1.484408	-0.075404	0.191514
C44	C	1.511526	-0.096999	0.064838
C45	C	1.448680	-0.046960	0.024989
C46	C	1.358713	0.024677	0.111829
C47	C	1.331598	0.046278	0.238515
C48	C	1.295870	0.074722	0.071990
C49	C	1.205903	0.146359	0.158830
C50	C	1.178793	0.167957	0.285503
C51	C	1.241638	0.117918	0.325352
C52	C	1.322985	0.053121	-0.054696
C53	C	1.170175	0.174803	-0.007695
C54	C	1.143057	0.196398	0.118981
H55	H	0.943617	0.104740	-0.104188
C56	C	1.165776	-0.458208	-0.159865
N57	N	1.100913	-0.461824	-0.060184
C58	C	1.488694	-0.442344	-0.656263
N59	N	1.553505	-0.438702	-0.755948
C60	C	1.211791	0.141654	0.464709
N61	N	1.189305	0.159525	0.569676
H62	H	1.266597	-0.519349	-0.560473
H63	H	1.131178	-0.368997	-0.347707
H64	H	0.923570	-0.012975	-0.777369
H65	H	1.105545	0.226294	0.356207
H66	H	1.535575	-0.116135	0.223967
H67	H	1.028873	0.036853	-0.502283
C68	C	1.421940	-0.025683	-0.150203
N69	N	1.496476	-0.085045	-0.222139
H70	H	0.710946	-0.005341	-0.711979
H71	H	1.069804	0.254727	0.189701
C72	C	1.397581	-0.370044	-0.230927
N73	N	1.425800	-0.337420	-0.159766
H74	H	1.470763	-0.064546	-0.078157
H75	H	1.523463	-0.531396	-0.468296
H76	H	0.515014	0.069842	-0.260845
H77	H	1.584777	-0.155325	-0.005862
C78	C	1.101037	0.229848	-0.051521
N79	N	1.048969	0.271305	-0.084540
H80	H	0.578706	0.099955	-0.094476
C81	C	1.020757	0.015947	-0.621318
N82	N	1.117864	0.012451	-0.651182
C83	C	0.707522	0.118317	-0.002317
N84	N	0.639492	0.135558	0.103510
