data_functionalizedCrystal
_audit_creation_method	'MofGen! by Chris Wilmer'
_symmetry_space_group_name_H-M	'P1'
_symmetry_Int_Tables_number	1
_symmetry_cell_setting	triclinic
loop_
_symmetry_equiv_pos_as_xyz
  x,y,z
_cell_length_a	19.188879
_cell_length_b	11.792254
_cell_length_c	10.268362
_cell_angle_alpha	89.995475
_cell_angle_beta	90.015071
_cell_angle_gamma	96.338663
loop_
_atom_site_label
_atom_site_type_symbol
_atom_site_fract_x
_atom_site_fract_y
_atom_site_fract_z
O1	O	-0.095740	1.505439	-0.108330
O2	O	0.404260	2.005439	0.391670
O3	O	-0.105593	1.174949	-0.108336
O4	O	0.394407	1.674949	0.391664
O5	O	0.000937	1.349761	-0.108292
O6	O	0.500937	1.849761	0.391708
O7	O	-0.202270	1.330627	-0.108374
O8	O	0.297730	1.830627	0.391626
O9	O	0.000942	1.349746	0.108309
O10	O	0.500942	1.849746	0.608309
O11	O	-0.105588	1.174934	0.108265
O12	O	0.394412	1.674934	0.608265
O13	O	-0.095735	1.505424	0.108271
O14	O	0.404265	2.005424	0.608271
Cu15	Cu	-0.100661	1.340178	0.128045
Cu16	Cu	0.399339	1.840178	0.628045
Cu17	Cu	-0.100667	1.340196	-0.128110
Cu18	Cu	0.399333	1.840196	0.371890
O19	O	-0.202265	1.330612	0.108227
O20	O	0.297735	1.830612	0.608227
C21	C	-0.104970	1.132661	-0.000035
C22	C	0.395030	1.632661	0.499965
C23	C	-0.103112	1.006676	-0.000036
C24	C	0.396888	1.506676	0.499964
C25	C	-0.101603	0.904362	-0.000041
C26	C	0.398397	1.404362	0.499959
C27	C	-0.099715	0.776005	-0.000041
C28	C	0.400285	1.276005	0.499959
C29	C	-0.228283	1.331229	-0.000084
C30	C	0.271717	1.831229	0.499916
C31	C	-0.305800	1.333061	-0.000116
C32	C	0.194200	1.833061	0.499884
C33	C	-0.342185	1.333941	0.117960
C34	C	0.157815	1.833941	0.617960
C35	C	-0.415018	1.335693	0.117983
C36	C	0.084982	1.835693	0.617983
C37	C	-0.451461	1.336587	-0.000077
C38	C	0.048539	1.836587	0.499923
C39	C	-0.415068	1.335700	-0.118168
C40	C	0.084932	1.835700	0.381832
C41	C	-0.342237	1.333937	-0.118188
C42	C	0.157763	1.833937	0.381812
N43	N	-0.560866	1.403949	-0.087928
N44	N	-0.060866	1.903949	0.412072
N45	N	-0.630052	1.405626	-0.087901
N46	N	-0.130052	1.905626	0.412099
C47	C	-0.670896	1.341897	-0.000026
C48	C	-0.170896	1.841897	0.499974
N49	N	-0.639939	1.276442	0.087842
N50	N	-0.139939	1.776442	0.587842
N51	N	-0.570747	1.274769	0.087820
N52	N	-0.070747	1.774769	0.587820
C53	C	-0.530434	1.338498	-0.000069
C54	C	-0.030434	1.838498	0.499931
C55	C	-0.786255	1.344676	0.118083
C56	C	-0.286255	1.844676	0.618083
C57	C	-0.859090	1.346420	0.118100
C58	C	-0.359090	1.846420	0.618100
C59	C	-0.859138	1.346439	-0.118054
C60	C	-0.359138	1.846439	0.381946
C61	C	-0.786305	1.344683	-0.118068
C62	C	-0.286305	1.844683	0.381932
C63	C	-0.749868	1.343807	0.000003
C64	C	-0.249868	1.843807	0.500003
C65	C	0.026955	1.349144	0.000016
C66	C	0.526955	1.849144	0.500016
C67	C	0.104472	1.347313	0.000039
C68	C	0.604472	1.847313	0.500039
C69	C	-0.096358	1.547713	-0.000032
C70	C	0.403642	2.047713	0.499968
C71	C	-0.098216	1.673697	-0.000040
C72	C	0.401784	2.173697	0.499960
N73	N	-0.100657	1.340173	0.308211
N74	N	0.399343	1.840173	0.808211
N75	N	-0.100665	1.340209	-0.308276
N76	N	0.399335	1.840209	0.191724
C77	C	-0.100665	1.340190	0.573882
C78	C	0.399335	1.840190	1.073882
C79	C	-0.100663	1.340177	0.426044
C80	C	0.399337	1.840177	0.926044
H81	H	-0.444650	1.336389	0.214137
H82	H	0.055350	1.836389	0.714137
O83	O	-0.898333	1.347383	0.245465
O84	O	-0.398333	1.847383	0.745465
H85	H	-0.890280	1.269716	0.302096
H86	H	-0.390280	1.769716	0.802096
H87	H	-0.888810	1.347153	-0.214181
H88	H	-0.388810	1.847153	0.285819
H89	H	-0.756679	1.343973	-0.214219
H90	H	-0.256679	1.843973	0.285781
O91	O	-0.302985	1.332988	-0.245544
O92	O	0.197015	1.832988	0.254456
H93	H	-0.275753	1.254841	-0.251190
H94	H	0.224247	1.754841	0.248810
H95	H	-0.756587	1.343953	0.214224
H96	H	-0.256587	1.843953	0.714224
H97	H	-0.312522	1.333227	0.214104
H98	H	0.187478	1.833227	0.714104
H99	H	-0.444745	1.336424	-0.214293
H100	H	0.055255	1.836424	0.285707
