data_functionalizedCrystal
_audit_creation_method	'MofGen! by Chris Wilmer'
_symmetry_space_group_name_H-M	'P1'
_symmetry_Int_Tables_number	1
_symmetry_cell_setting	triclinic
loop_
_symmetry_equiv_pos_as_xyz
  x,y,z
_cell_length_a	18.215407
_cell_length_b	12.759400
_cell_length_c	18.215399
_cell_angle_alpha	89.975454
_cell_angle_beta	89.980167
_cell_angle_gamma	90.015132
loop_
_atom_site_label
_atom_site_type_symbol
_atom_site_fract_x
_atom_site_fract_y
_atom_site_fract_z
Zn1	Zn	1.125124	-0.418265	-0.416133
Zn2	Zn	1.125054	-0.593962	-0.293074
Zn3	Zn	1.002057	-0.418299	-0.293081
Zn4	Zn	1.002044	-0.593903	-0.416099
O5	O	1.063570	-0.506107	-0.354597
O6	O	1.228099	-0.441581	-0.399821
O7	O	1.108714	-0.570699	-0.190091
O8	O	1.018416	-0.271273	-0.309421
O9	O	1.228048	-0.570665	-0.309410
O10	O	1.108833	-0.271248	-0.399827
O11	O	1.018349	-0.441640	-0.190096
O12	O	0.899071	-0.441583	-0.309388
O13	O	1.018395	-0.570566	-0.519088
O14	O	0.899062	-0.570599	-0.399769
O15	O	1.108821	-0.441525	-0.519113
O16	O	1.108703	-0.740975	-0.309377
O17	O	1.018328	-0.740932	-0.399763
C18	C	0.872364	-0.506089	-0.354576
C19	C	0.790565	-0.506107	-0.354584
C20	C	0.602385	-0.573391	-0.401587
C21	C	0.525527	-0.573394	-0.401596
C22	C	0.525506	-0.438842	-0.307623
C23	C	0.602364	-0.438835	-0.307618
C24	C	0.640801	-0.506115	-0.354599
C25	C	0.487085	-0.506126	-0.354613
C26	C	0.403752	-0.506129	-0.354623
C27	C	0.724140	-0.506111	-0.354590
C28	C	1.063526	-0.779075	-0.354582
C29	C	1.063575	-0.895851	-0.354600
C30	C	1.110685	-0.950701	-0.307588
C31	C	1.110731	-1.060425	-0.307610
C32	C	1.016549	-1.060440	-0.401659
C33	C	1.016508	-0.950718	-0.401639
C34	C	1.157753	-0.895834	-0.260548
C35	C	1.204866	-0.950683	-0.213532
C36	C	1.204911	-1.060407	-0.213554
C37	C	1.157843	-1.115282	-0.260593
C38	C	1.255523	-0.506126	-0.354618
C39	C	1.337322	-0.506134	-0.354628
C40	C	1.063615	-0.506035	-0.546550
C41	C	1.063634	-0.506004	-0.628349
C42	C	1.063634	-0.232074	-0.354628
C43	C	1.063661	-0.115297	-0.354642
C44	C	1.110736	-0.438749	-0.816557
C45	C	1.110744	-0.438719	-0.893416
C46	C	1.016584	-0.573096	-0.893379
C47	C	1.016572	-0.573120	-0.816521
C48	C	1.063652	-0.505949	-0.778112
C49	C	1.063673	-0.505894	-0.931829
C50	C	1.063682	-0.505861	-1.015162
C51	C	1.063642	-0.505980	-0.694773
C52	C	1.063568	-0.506103	-0.163391
C53	C	1.063691	-0.505838	-0.081592
H54	H	0.494201	-0.384067	-0.269372
H55	H	0.633643	-0.384044	-0.269355
O56	O	0.488177	-0.638599	-0.447317
C57	C	0.443736	-0.578876	-0.494914
H58	H	0.466912	-0.496136	-0.499557
H59	H	0.442885	-0.616979	-0.551504
H60	H	0.385478	-0.575220	-0.472171
O61	O	1.157826	-0.789249	-0.260456
C62	C	1.209455	-0.752581	-0.208845
H63	H	1.252484	-0.815768	-0.198587
H64	H	1.237339	-0.679118	-0.231059
H65	H	1.180292	-0.733204	-0.155155
O66	O	1.156383	-0.373342	-0.779280
C67	C	1.140332	-0.268628	-0.798090
H68	H	1.081543	-0.263320	-0.819205
H69	H	1.146673	-0.216735	-0.747556
H70	H	1.179797	-0.241152	-0.842716
H71	H	1.243192	-0.905999	-0.175238
H72	H	0.978255	-0.627787	-0.924660
H73	H	1.243279	-1.105063	-0.175277
O74	O	1.157960	-1.221868	-0.260504
C75	C	1.209652	-1.258517	-0.208940
H76	H	1.219956	-1.195321	-0.165938
H77	H	1.187492	-1.331980	-0.181011
H78	H	1.263305	-1.277888	-0.238175
H79	H	1.149083	-0.383996	-0.924714
O80	O	0.970928	-1.113858	-0.447381
C81	C	1.012824	-1.177214	-0.494974
H82	H	1.068617	-1.193611	-0.469073
H83	H	0.982871	-1.254396	-0.504820
H84	H	1.020862	-1.134869	-0.549513
O85	O	0.639611	-0.638770	-0.447296
C86	C	0.589218	-0.698166	-0.488759
H87	H	0.534439	-0.655142	-0.491358
H88	H	0.611446	-0.709470	-0.546728
H89	H	0.581023	-0.777914	-0.461719
O90	O	0.970680	-0.897593	-0.447334
C91	C	0.929158	-0.969545	-0.488868
H92	H	0.926644	-1.047789	-0.458735
H93	H	0.871162	-0.937892	-0.496671
H94	H	0.956090	-0.981136	-0.544782
O95	O	0.970810	-0.638503	-0.779285
C96	C	0.929251	-0.697774	-0.829664
H97	H	0.959400	-0.701400	-0.884457
H98	H	0.921380	-0.780557	-0.807441
H99	H	0.873367	-0.659296	-0.837832
