data_functionalizedCrystal
_audit_creation_method	'MofGen! by Chris Wilmer'
_symmetry_space_group_name_H-M	'P1'
_symmetry_Int_Tables_number	1
_symmetry_cell_setting	triclinic
loop_
_symmetry_equiv_pos_as_xyz
  x,y,z
_cell_length_a	21.395362
_cell_length_b	21.395361
_cell_length_c	21.395355
_cell_angle_alpha	89.978489
_cell_angle_beta	89.956060
_cell_angle_gamma	90.046585
loop_
_atom_site_label
_atom_site_type_symbol
_atom_site_fract_x
_atom_site_fract_y
_atom_site_fract_z
Zn1	Zn	0.957859	-0.249246	-0.354573
Zn2	Zn	1.291193	0.084088	-0.021239
Zn3	Zn	1.624526	0.417421	0.312094
Zn4	Zn	0.957762	-0.354005	-0.249790
Zn5	Zn	1.291095	-0.020672	0.083544
Zn6	Zn	1.624429	0.312661	0.416877
Zn7	Zn	0.853074	-0.249275	-0.249774
Zn8	Zn	1.186408	0.084059	0.083559
Zn9	Zn	1.519741	0.417392	0.416893
Zn10	Zn	0.853044	-0.354018	-0.354494
Zn11	Zn	1.186377	-0.020685	-0.021161
Zn12	Zn	1.519710	0.312648	0.312172
O13	O	0.905435	-0.301636	-0.302158
O14	O	1.238768	0.031697	0.031176
O15	O	1.572102	0.365031	0.364509
O16	O	1.045524	-0.263125	-0.340712
O17	O	1.378858	0.070209	-0.007379
O18	O	1.712191	0.403542	0.325954
O19	O	0.943847	-0.340119	-0.162110
O20	O	1.277180	-0.006786	0.171224
O21	O	1.610514	0.326547	0.504557
O22	O	0.867028	-0.161593	-0.263702
O23	O	1.200361	0.171740	0.069632
O24	O	1.533695	0.505074	0.402965
O25	O	1.045453	-0.340091	-0.263729
O26	O	1.378786	-0.006758	0.069605
O27	O	1.712119	0.326575	0.402938
O28	O	0.944013	-0.161572	-0.340697
O29	O	1.277347	0.171762	-0.007364
O30	O	1.610680	0.505095	0.325970
O31	O	0.866934	-0.263174	-0.162098
O32	O	1.200267	0.070159	0.171235
O33	O	1.533600	0.403492	0.504569
O34	O	0.765392	-0.263187	-0.263626
O35	O	1.098726	0.070147	0.069707
O36	O	1.432059	0.403480	0.403041
O37	O	0.866976	-0.340113	-0.442183
O38	O	1.200309	-0.006780	-0.108849
O39	O	1.533642	0.326553	0.224484
O40	O	0.765370	-0.340141	-0.340564
O41	O	1.098703	-0.006808	-0.007230
O42	O	1.432036	0.326525	0.326103
O43	O	0.943983	-0.263137	-0.442240
O44	O	1.277317	0.070196	-0.108907
O45	O	1.610650	0.403530	0.224427
O46	O	0.943817	-0.441685	-0.263653
O47	O	1.277150	-0.108352	0.069681
O48	O	1.610484	0.224982	0.403014
O49	O	0.866881	-0.441695	-0.340579
O50	O	1.200214	-0.108361	-0.007246
O51	O	1.533548	0.224972	0.326088
C52	C	0.742647	-0.301669	-0.302085
C53	C	1.075981	0.031664	0.031248
C54	C	1.409314	0.364998	0.364582
C55	C	0.673006	-0.301698	-0.302069
C56	C	1.006339	0.031635	0.031265
C57	C	1.339673	0.364968	0.364598
C58	C	0.640297	-0.341822	-0.342070
C59	C	0.973631	-0.008488	-0.008737
C60	C	1.306964	0.324845	0.324597
C61	C	0.574862	-0.341806	-0.342098
C62	C	0.908195	-0.008473	-0.008765
C63	C	1.241529	0.324860	0.324569
C64	C	0.542138	-0.301674	-0.302113
C65	C	0.875471	0.031659	0.031220
C66	C	1.208804	0.364992	0.364553
C67	C	0.574854	-0.261543	-0.262109
C68	C	0.908187	0.071790	0.071224
C69	C	1.241521	0.405124	0.404558
C70	C	0.640288	-0.261555	-0.262087
C71	C	0.973622	0.071778	0.071247
C72	C	1.306955	0.405111	0.404580
C73	C	0.438413	-0.296627	-0.245708
C74	C	0.771746	0.036707	0.087625
C75	C	1.105080	0.370040	0.420958
C76	C	0.372980	-0.296619	-0.245730
C77	C	0.706313	0.036714	0.087604
C78	C	1.039647	0.370048	0.420937
C79	C	0.340317	-0.301633	-0.302182
C80	C	0.673650	0.031700	0.031151
C81	C	1.006984	0.365033	0.364484
C82	C	0.373095	-0.306668	-0.358616
C83	C	0.706428	0.026665	-0.025283
C84	C	1.039762	0.359998	0.308051
C85	C	0.438529	-0.306681	-0.358594
C86	C	0.771862	0.026653	-0.025260
C87	C	1.105196	0.359986	0.308073
C88	C	0.471185	-0.301656	-0.302133
C89	C	0.804519	0.031677	0.031200
C90	C	1.137852	0.365010	0.364533
C91	C	0.236656	-0.341742	-0.342218
C92	C	0.569989	-0.008409	-0.008884
C93	C	0.903323	0.324924	0.324449
C94	C	0.171219	-0.341723	-0.342247
C95	C	0.504553	-0.008389	-0.008913
C96	C	0.837886	0.324944	0.324420
C97	C	0.171213	-0.261462	-0.262252
C98	C	0.504546	0.071871	0.071081
C99	C	0.837879	0.405204	0.404415
C100	C	0.236648	-0.261479	-0.262229
C101	C	0.569981	0.071854	0.071105
C102	C	0.903315	0.405188	0.404438
C103	C	0.269366	-0.301622	-0.302211
C104	C	0.602699	0.031711	0.031123
C105	C	0.936032	0.365044	0.364456
C106	C	0.905352	-0.464424	-0.302123
C107	C	1.238685	-0.131090	0.031211
C108	C	1.572019	0.202243	0.364544
C109	C	0.905374	-0.534065	-0.302129
C110	C	1.238707	-0.200732	0.031205
C111	C	1.572041	0.132602	0.364538
C112	C	0.945470	-0.566752	-0.262114
C113	C	1.278804	-0.233419	0.071219
C114	C	1.612137	0.099914	0.404552
C115	C	0.945499	-0.632188	-0.262128
C116	C	1.278833	-0.298854	0.071205
C117	C	1.612166	0.034479	0.404538
C118	C	0.905421	-0.664933	-0.302150
C119	C	1.238755	-0.331600	0.031183
C120	C	1.572088	0.001733	0.364516
C121	C	0.865322	-0.632238	-0.342172
C122	C	1.198656	-0.298905	-0.008839
C123	C	1.531989	0.034429	0.324494
C124	C	0.865299	-0.566804	-0.342162
C125	C	1.198632	-0.233470	-0.008828
C126	C	1.531965	0.099863	0.324505
C127	C	0.849006	-0.768664	-0.307041
C128	C	1.182340	-0.435331	0.026292
C129	C	1.515673	-0.101997	0.359626
C130	C	0.849029	-0.834097	-0.307047
C131	C	1.182362	-0.500764	0.026286
C132	C	1.515696	-0.167430	0.359619
C133	C	0.905494	-0.866754	-0.302187
C134	C	1.238828	-0.533421	0.031146
C135	C	1.572161	-0.200087	0.364480
C136	C	0.961939	-0.833970	-0.297307
C137	C	1.295272	-0.500637	0.036026
C138	C	1.628605	-0.167303	0.369360
C139	C	0.961915	-0.768536	-0.297296
C140	C	1.295248	-0.435202	0.036037
C141	C	1.628582	-0.101869	0.369370
C142	C	0.905443	-0.735886	-0.302167
C143	C	1.238776	-0.402552	0.031167
C144	C	1.572109	-0.069219	0.364500
C145	C	0.945625	-0.970394	-0.262186
C146	C	1.278959	-0.637060	0.071148
C147	C	1.612292	-0.303727	0.404481
C148	C	0.945655	-1.035830	-0.262204
C149	C	1.278989	-0.702497	0.071129
C150	C	1.612322	-0.369164	0.404463
C151	C	0.865473	-1.035879	-0.342245
C152	C	1.198806	-0.702546	-0.008912
C153	C	1.532139	-0.369213	0.324422
C154	C	0.865448	-0.970444	-0.342230
C155	C	1.198782	-0.637111	-0.008896
C156	C	1.532115	-0.303777	0.324437
C157	C	0.905524	-0.937705	-0.302197
C158	C	1.238857	-0.604372	0.031137
C159	C	1.572190	-0.271039	0.364470
C160	C	1.068858	-0.301603	-0.302231
C161	C	1.402192	0.031730	0.031102
C162	C	1.735525	0.365063	0.364436
C163	C	1.138499	-0.301589	-0.302262
C164	C	1.471833	0.031744	0.031071
C165	C	1.805166	0.365077	0.364405
C166	C	0.905487	-0.301623	-0.465581
C167	C	1.238820	0.031710	-0.132248
C168	C	1.572154	0.365043	0.201086
C169	C	0.905509	-0.301618	-0.535222
C170	C	1.238842	0.031715	-0.201889
C171	C	1.572176	0.365049	0.131444
C172	C	0.905535	-0.138213	-0.302206
C173	C	1.238868	0.195121	0.031127
C174	C	1.572202	0.528454	0.364460
C175	C	0.905578	-0.068571	-0.302227
C176	C	1.238911	0.264762	0.031106
C177	C	1.572244	0.598095	0.364440
C178	C	0.945605	-0.261535	-0.567966
C179	C	1.278939	0.071799	-0.234633
C180	C	1.612272	0.405132	0.098700
C181	C	0.945604	-0.261508	-0.633402
C182	C	1.278938	0.071826	-0.300068
C183	C	1.612271	0.405159	0.033265
C184	C	0.905514	-0.301575	-0.666091
C185	C	1.238847	0.031758	-0.332757
C186	C	1.572181	0.365091	0.000576
C187	C	0.865410	-0.341661	-0.633339
C188	C	1.198743	-0.008328	-0.300005
C189	C	1.532077	0.325006	0.033328
C190	C	0.865407	-0.341682	-0.567904
C191	C	1.198741	-0.008349	-0.234571
C192	C	1.532074	0.324984	0.098762
C193	C	0.900538	-0.357992	-0.769752
C194	C	1.233871	-0.024659	-0.436418
C195	C	1.567205	0.308675	-0.103085
C196	C	0.900545	-0.357972	-0.835185
C197	C	1.233878	-0.024638	-0.501851
C198	C	1.567211	0.308695	-0.168518
C199	C	0.905518	-0.301509	-0.867911
C200	C	1.238851	0.031824	-0.534578
C201	C	1.572184	0.365158	-0.201245
C202	C	0.910497	-0.245065	-0.835197
C203	C	1.243830	0.088268	-0.501864
C204	C	1.577164	0.421602	-0.168531
C205	C	0.910495	-0.245086	-0.769763
C206	C	1.243828	0.088247	-0.436430
C207	C	1.577161	0.421580	-0.103097
C208	C	0.905512	-0.301556	-0.737043
C209	C	1.238845	0.031777	-0.403710
C210	C	1.572179	0.365110	-0.070376
C211	C	0.945615	-0.261393	-0.971608
C212	C	1.278949	0.071940	-0.638275
C213	C	1.612282	0.405273	-0.304941
C214	C	0.945610	-0.261365	-1.037045
C215	C	1.278943	0.071968	-0.703711
C216	C	1.612277	0.405301	-0.370378
C217	C	0.865419	-0.341524	-1.036980
C218	C	1.198752	-0.008191	-0.703647
C219	C	1.532085	0.325142	-0.370314
C220	C	0.865421	-0.341547	-0.971545
C221	C	1.198754	-0.008213	-0.638212
C222	C	1.532087	0.325120	-0.304878
C223	C	0.905522	-0.301482	-0.938863
C224	C	1.238856	0.031851	-0.605529
C225	C	1.572189	0.365185	-0.272196
C226	C	0.905419	-0.301603	-0.139370
C227	C	1.238752	0.031730	0.193963
C228	C	1.572086	0.365063	0.527297
C229	C	0.905518	-0.301432	-0.069729
C230	C	1.238852	0.031901	0.263604
C231	C	1.572185	0.365234	0.596938
H232	H	0.548226	-0.374479	-0.374674
H233	H	0.881559	-0.041146	-0.041341
H234	H	1.214892	0.292187	0.291992
C235	C	0.676283	-0.385970	-0.386055
C236	C	1.009617	-0.052637	-0.052722
C237	C	1.342950	0.280696	0.280611
H238	H	0.647428	-0.409860	-0.409887
H239	H	0.980761	-0.076527	-0.076554
H240	H	1.314094	0.256806	0.256779
H241	H	0.701758	-0.413239	-0.362032
H242	H	1.035092	-0.079906	-0.028699
H243	H	1.368425	0.253427	0.304635
H244	H	0.701860	-0.362042	-0.413394
H245	H	1.035193	-0.028709	-0.080061
H246	H	1.368527	0.304624	0.253273
H247	H	0.803022	-0.742081	-0.311001
H248	H	1.136355	-0.408748	0.022332
H249	H	1.469689	-0.075414	0.355665
C250	C	0.474583	-0.312209	-0.420665
C251	C	0.807916	0.021124	-0.087332
C252	C	1.141249	0.354457	0.246002
H253	H	0.445763	-0.315190	-0.454292
H254	H	0.779096	0.018144	-0.120959
H255	H	1.112429	0.351477	0.212374
H256	H	0.500074	-0.348529	-0.419777
H257	H	0.833408	-0.015196	-0.086444
H258	H	1.166741	0.318137	0.246889
H259	H	0.500148	-0.276307	-0.426224
H260	H	0.833481	0.057026	-0.092891
H261	H	1.166814	0.390359	0.240442
H262	H	0.832795	-0.943828	-0.374811
H263	H	1.166129	-0.610495	-0.041477
H264	H	1.499462	-0.277162	0.291856
H265	H	0.896321	-0.403959	-0.743111
H266	H	1.229654	-0.070626	-0.409777
H267	H	1.562987	0.262708	-0.076444
H268	H	0.978103	-0.540098	-0.229519
H269	H	1.311437	-0.206765	0.103815
H270	H	1.644770	0.126568	0.437148
H271	H	0.144569	-0.228783	-0.229699
H272	H	0.477902	0.104550	0.103635
H273	H	0.811236	0.437884	0.436968
H274	H	0.896494	-0.403932	-0.861815
H275	H	1.229828	-0.070598	-0.528482
H276	H	1.563161	0.262735	-0.195149
H277	H	0.978153	-0.658807	-0.229544
H278	H	1.311486	-0.325474	0.103789
H279	H	1.644819	0.007860	0.437123
H280	H	0.832766	-0.374282	-0.659958
H281	H	1.166099	-0.040949	-0.326625
H282	H	1.499433	0.292384	0.006709
C283	C	0.272629	-0.217351	-0.218219
C284	C	0.605962	0.115983	0.115115
C285	C	0.939296	0.449316	0.448448
H286	H	0.243770	-0.193450	-0.194404
H287	H	0.577103	0.139883	0.138929
H288	H	0.910436	0.473216	0.472262
H289	H	0.298211	-0.190091	-0.242225
H290	H	0.631545	0.143243	0.091109
H291	H	0.964878	0.476576	0.424442
H292	H	0.298098	-0.241289	-0.190864
H293	H	0.631431	0.092044	0.142469
H294	H	0.964765	0.425377	0.475802
H295	H	0.803068	-0.860785	-0.311015
H296	H	1.136402	-0.527451	0.022319
H297	H	1.469735	-0.194118	0.355652
H298	H	0.832843	-1.062540	-0.374834
H299	H	1.166176	-0.729207	-0.041501
H300	H	1.499510	-0.395873	0.291832
C301	C	0.821309	-0.385785	-0.531885
C302	C	1.154642	-0.052451	-0.198551
C303	C	1.487975	0.280882	0.134782
H304	H	0.797434	-0.409648	-0.560722
H305	H	1.130768	-0.076315	-0.227389
H306	H	1.464101	0.257019	0.105945
H307	H	0.794023	-0.361837	-0.506334
H308	H	1.127357	-0.028504	-0.173000
H309	H	1.460690	0.304829	0.160333
H310	H	0.845269	-0.413089	-0.506381
H311	H	1.178603	-0.079756	-0.173048
H312	H	1.511936	0.253577	0.160285
H313	H	0.832691	-0.658904	-0.374760
H314	H	1.166025	-0.325570	-0.041426
H315	H	1.499358	0.007763	0.291907
H316	H	0.978310	-1.062443	-0.229621
H317	H	1.311644	-0.729110	0.103713
H318	H	1.644977	-0.395777	0.437046
H319	H	0.346502	-0.310751	-0.404585
H320	H	0.679836	0.022583	-0.071252
H321	H	1.013169	0.355916	0.262081
H322	H	0.914548	-0.199088	-0.861842
H323	H	1.247881	0.134246	-0.528509
H324	H	1.581214	0.467579	-0.195176
H325	H	0.978259	-0.943737	-0.229590
H326	H	1.311593	-0.610403	0.103743
H327	H	1.644926	-0.277070	0.437076
C328	C	0.272648	-0.385890	-0.386201
C329	C	0.605981	-0.052557	-0.052868
C330	C	0.939315	0.280776	0.280465
H331	H	0.243794	-0.409778	-0.410037
H332	H	0.577127	-0.076445	-0.076704
H333	H	0.910460	0.256889	0.256630
H334	H	0.298119	-0.413161	-0.362176
H335	H	0.631453	-0.079828	-0.028843
H336	H	0.964786	0.253506	0.304490
H337	H	0.298228	-0.361963	-0.413537
H338	H	0.631562	-0.028629	-0.080204
H339	H	0.964895	0.304704	0.253130
H340	H	1.007873	-0.741844	-0.293325
H341	H	1.341207	-0.408511	0.040009
H342	H	1.674540	-0.075178	0.373342
C343	C	0.336927	-0.291125	-0.183655
C344	C	0.670261	0.042208	0.149679
C345	C	1.003594	0.375542	0.483012
H346	H	0.293279	-0.291857	-0.191750
H347	H	0.626613	0.041476	0.141583
H348	H	0.959946	0.374810	0.474917
H349	H	0.347649	-0.252963	-0.163661
H350	H	0.680982	0.080370	0.169672
H351	H	1.014316	0.413703	0.503006
H352	H	0.347605	-0.325189	-0.157257
H353	H	0.680939	0.008144	0.176076
H354	H	1.014272	0.341478	0.509410
H355	H	0.832647	-0.540189	-0.374747
H356	H	1.165980	-0.206856	-0.041414
H357	H	1.499314	0.126478	0.291920
C358	C	0.135240	-0.385869	-0.386242
C359	C	0.468573	-0.052536	-0.052908
C360	C	0.801906	0.280797	0.280425
H361	H	0.164099	-0.409784	-0.410041
H362	H	0.497433	-0.076450	-0.076708
H363	H	0.830766	0.256883	0.256625
H364	H	0.109764	-0.361949	-0.413601
H365	H	0.443098	-0.028615	-0.080267
H366	H	0.776431	0.304718	0.253066
H367	H	0.109664	-0.413125	-0.362218
H368	H	0.442997	-0.079792	-0.028884
H369	H	0.776331	0.253542	0.304449
C370	C	0.474336	-0.291076	-0.183609
C371	C	0.807669	0.042257	0.149724
C372	C	1.141003	0.375590	0.483057
H373	H	0.445445	-0.288075	-0.150005
H374	H	0.778778	0.045259	0.183329
H375	H	1.112112	0.378592	0.516662
H376	H	0.499887	-0.254756	-0.184503
H377	H	0.833220	0.078578	0.148831
H378	H	1.166554	0.411911	0.482164
H379	H	0.499832	-0.326973	-0.178007
H380	H	0.833165	0.006360	0.155326
H381	H	1.166498	0.339693	0.488659
H382	H	0.548206	-0.228866	-0.229554
H383	H	0.881539	0.104467	0.103779
H384	H	1.214872	0.437801	0.437112
C385	C	0.676269	-0.217421	-0.218080
C386	C	1.009602	0.115912	0.115254
C387	C	1.342936	0.449246	0.448587
H388	H	0.647410	-0.193518	-0.194267
H389	H	0.980744	0.139815	0.139066
H390	H	1.314077	0.473148	0.472399
H391	H	0.701852	-0.190164	-0.242088
H392	H	1.035185	0.143170	0.091246
H393	H	1.368519	0.476503	0.424579
H394	H	0.701737	-0.241359	-0.190724
H395	H	1.035070	0.091975	0.142610
H396	H	1.368404	0.425308	0.475943
C397	C	0.989710	-0.217461	-0.532019
C398	C	1.323043	0.115873	-0.198686
C399	C	1.656377	0.449206	0.134647
H400	H	1.013586	-0.193581	-0.560896
H401	H	1.346920	0.139753	-0.227563
H402	H	1.680253	0.473086	0.105771
H403	H	1.016993	-0.241429	-0.506510
H404	H	1.350327	0.091904	-0.173177
H405	H	1.683660	0.425237	0.160156
H406	H	0.965755	-0.190170	-0.506480
H407	H	1.299088	0.143163	-0.173146
H408	H	1.632421	0.476497	0.160187
C409	C	0.989717	-0.217420	-0.669428
C410	C	1.323050	0.115914	-0.336095
C411	C	1.656383	0.449247	-0.002761
H412	H	1.013602	-0.193565	-0.640592
H413	H	1.346935	0.139768	-0.307258
H414	H	1.680269	0.473101	0.026075
H415	H	0.965773	-0.190115	-0.694941
H416	H	1.299106	0.143218	-0.361608
H417	H	1.632439	0.476552	-0.028275
H418	H	1.017001	-0.241385	-0.694969
H419	H	1.350334	0.091948	-0.361635
H420	H	1.683668	0.425281	-0.028302
C421	C	0.915964	-0.183005	-0.733777
C422	C	1.249297	0.150328	-0.400444
C423	C	1.582631	0.483662	-0.067110
H424	H	0.915254	-0.191108	-0.690121
H425	H	1.248587	0.142226	-0.356787
H426	H	1.581920	0.475559	-0.023454
H427	H	0.881897	-0.156653	-0.744476
H428	H	1.215230	0.176680	-0.411143
H429	H	1.548564	0.510014	-0.077809
H430	H	0.954124	-0.162958	-0.744526
H431	H	1.287457	0.170375	-0.411193
H432	H	1.620790	0.503708	-0.077860
H433	H	1.007918	-0.860558	-0.293349
H434	H	1.341251	-0.527224	0.039984
H435	H	1.674585	-0.193891	0.373317
C436	C	0.989714	-0.217315	-0.935655
C437	C	1.323047	0.116019	-0.602322
C438	C	1.656380	0.449352	-0.268988
H439	H	1.013586	-0.193430	-0.964531
H440	H	1.346919	0.139904	-0.631197
H441	H	1.680253	0.473237	-0.297864
H442	H	1.017001	-0.241280	-0.910147
H443	H	1.350334	0.092053	-0.576813
H444	H	1.683667	0.425387	-0.243480
H445	H	0.965753	-0.190029	-0.910115
H446	H	1.299087	0.143304	-0.576781
H447	H	1.632420	0.476638	-0.243448
C448	C	0.989719	-0.217272	-1.073064
C449	C	1.323052	0.116061	-0.739730
C450	C	1.656385	0.449395	-0.406397
H451	H	1.013604	-0.193420	-1.044225
H452	H	1.346937	0.139913	-0.710892
H453	H	1.680270	0.473246	-0.377558
H454	H	0.965772	-0.189965	-1.098572
H455	H	1.299106	0.143368	-0.765239
H456	H	1.632439	0.476701	-0.431906
H457	H	1.017003	-0.241233	-1.098608
H458	H	1.350337	0.092101	-0.765275
H459	H	1.683670	0.425434	-0.431942
C460	C	0.821324	-0.385602	-1.072930
C461	C	1.154657	-0.052268	-0.739597
C462	C	1.487991	0.281065	-0.406264
H463	H	0.827071	-0.379853	-1.116591
H464	H	1.160404	-0.046519	-0.783257
H465	H	1.493738	0.286814	-0.449924
H466	H	0.779230	-0.376450	-1.062177
H467	H	1.112564	-0.043116	-0.728844
H468	H	1.445897	0.290217	-0.395511
H469	H	0.830477	-0.427702	-1.062210
H470	H	1.163810	-0.094369	-0.728876
H471	H	1.497143	0.238965	-0.395543
C472	C	0.821319	-0.385643	-0.935525
C473	C	1.154652	-0.052310	-0.602191
C474	C	1.487986	0.281023	-0.268858
H475	H	0.797445	-0.409506	-0.964363
H476	H	1.130778	-0.076173	-0.631030
H477	H	1.464111	0.257161	-0.297696
H478	H	0.794034	-0.361690	-0.909979
H479	H	1.127367	-0.028356	-0.576646
H480	H	1.460701	0.304977	-0.243313
H481	H	0.845273	-0.412949	-0.910016
H482	H	1.178606	-0.079616	-0.576683
H483	H	1.511939	0.253717	-0.243350
