data_functionalizedCrystal
_audit_creation_method	'MofGen! by Chris Wilmer'
_symmetry_space_group_name_H-M	'P1'
_symmetry_Int_Tables_number	1
_symmetry_cell_setting	triclinic
loop_
_symmetry_equiv_pos_as_xyz
  x,y,z
_cell_length_a	11.026607
_cell_length_b	10.540510
_cell_length_c	10.065875
_cell_angle_alpha	98.879491
_cell_angle_beta	79.302338
_cell_angle_gamma	96.549664
loop_
_atom_site_label
_atom_site_type_symbol
_atom_site_fract_x
_atom_site_fract_y
_atom_site_fract_z
O1	O	1.632352	0.517967	-0.113479
O2	O	1.278527	0.457320	-0.113482
O3	O	1.463531	0.304707	-0.113480
O4	O	1.447349	0.670580	-0.113481
O5	O	1.428254	0.333957	0.113509
O6	O	1.243251	0.486570	0.113506
O7	O	1.597076	0.547217	0.113510
Zn8	Zn	1.414562	0.521538	0.149547
Zn9	Zn	1.461041	0.482999	-0.149520
O10	O	1.412072	0.699830	0.113507
C11	C	1.215583	0.460757	0.000011
C12	C	1.080583	0.427404	0.000010
C13	C	1.007566	0.519496	0.000009
C14	C	0.868037	0.485026	0.000007
C15	C	1.444687	0.271764	0.000012
C16	C	1.441081	0.130023	0.000003
C17	C	1.569521	-0.059214	0.000525
C18	C	1.573450	0.088158	0.000006
C19	C	1.393464	0.053718	-0.129616
C20	C	1.390569	-0.093693	-0.129718
C21	C	1.347696	-0.060842	0.128411
C22	C	1.353710	0.087094	0.130117
C23	C	1.660021	0.543780	0.000013
C24	C	1.795022	0.577131	0.000006
C25	C	1.430916	0.732773	0.000013
C26	C	1.434524	0.874513	0.000012
N27	N	1.382851	0.547841	0.353652
N28	N	1.492761	0.456688	-0.353625
C29	C	1.450000	0.492141	0.421432
C30	C	1.425603	0.512396	0.578599
H31	H	1.039803	0.323038	-0.000025
C32	C	1.525830	0.282381	0.377069
C33	C	1.551997	0.407541	0.342670
H34	H	1.588799	0.230159	0.328428
H35	H	1.522846	0.284873	0.472341
H36	H	1.448104	0.247221	0.353742
H37	H	1.629718	0.442705	0.366007
H38	H	1.554994	0.405053	0.247377
H39	H	1.248177	-0.104649	0.129283
H40	H	1.350044	0.575078	0.636919
H41	H	1.612029	0.141088	0.092920
H42	H	0.827263	0.380654	-0.000028
H43	H	1.568312	0.393995	0.588055
C44	C	1.276435	0.636153	0.572835
C45	C	1.280860	0.632466	0.432377
H46	H	1.213473	0.688405	0.621430
H47	H	1.258668	0.551258	0.596178
H48	H	1.354162	0.671320	0.596154
H49	H	1.203136	0.597290	0.409056
H50	H	1.298619	0.717378	0.409024
H51	H	1.455513	0.082452	-0.226078
C52	C	0.940300	0.727779	-0.116714
C53	C	0.850049	0.718030	-0.000019
H54	H	0.974262	0.814764	-0.116737
H55	H	1.004190	0.674490	-0.116694
H56	H	0.903648	0.700713	-0.195855
H57	H	0.886703	0.745087	0.079123
H58	H	0.786148	0.771337	-0.000027
H59	H	1.048350	0.623858	0.000016
H60	H	1.606645	-0.077894	0.093481
H61	H	1.635158	-0.103400	-0.091905
H62	H	1.641241	0.116250	-0.093069
H63	H	1.451935	-0.136251	-0.226609
C64	C	1.223600	-0.130724	-0.257758
C65	C	1.258166	-0.155059	-0.137693
H66	H	1.141867	-0.168615	-0.262692
H67	H	1.226263	-0.040318	-0.257624
H68	H	1.279221	-0.166756	-0.334385
H69	H	1.202551	-0.119018	-0.061066
H70	H	1.255493	-0.245482	-0.137815
C71	C	1.265877	0.140312	-0.256543
C72	C	1.262932	0.088046	-0.136146
H73	H	1.185291	0.161500	-0.260574
H74	H	1.321717	0.215888	-0.257735
H75	H	1.292604	0.078980	-0.332973
H76	H	1.236214	0.149381	-0.059715
H77	H	1.207073	0.012460	-0.134942
C78	C	1.282703	-0.154783	0.335625
C79	C	1.383556	-0.088668	0.261047
H80	H	1.304856	-0.171967	0.417499
H81	H	1.214447	-0.103462	0.357263
H82	H	1.260423	-0.233770	0.282694
H83	H	1.405831	-0.009675	0.313975
H84	H	1.451833	-0.139989	0.239412
H85	H	1.388113	0.138863	0.226008
H86	H	1.255853	0.116001	0.137943
