data_functionalizedCrystal
_audit_creation_method	'MofGen! by Chris Wilmer'
_symmetry_space_group_name_H-M	'P1'
_symmetry_Int_Tables_number	1
_symmetry_cell_setting	triclinic
loop_
_symmetry_equiv_pos_as_xyz
  x,y,z
_cell_length_a	12.759401
_cell_length_b	21.295417
_cell_length_c	12.759393
_cell_angle_alpha	90.038095
_cell_angle_beta	90.019676
_cell_angle_gamma	90.030933
loop_
_atom_site_label
_atom_site_type_symbol
_atom_site_fract_x
_atom_site_fract_y
_atom_site_fract_z
Zn1	Zn	1.606151	-0.250572	0.593929
Zn2	Zn	1.605994	-0.355854	0.418226
Zn3	Zn	1.430450	-0.250603	0.418268
Zn4	Zn	1.430393	-0.355808	0.593867
O5	O	1.518247	-0.303209	0.506073
O6	O	1.753151	-0.264544	0.570630
O7	O	1.582665	-0.341924	0.271210
O8	O	1.453846	-0.162509	0.441614
O9	O	1.753035	-0.341894	0.441542
O10	O	1.582933	-0.162486	0.570671
O11	O	1.453694	-0.264597	0.271242
O12	O	1.283421	-0.264553	0.441553
O13	O	1.453750	-0.341815	0.740896
O14	O	1.283380	-0.341846	0.570565
O15	O	1.582878	-0.264499	0.740942
O16	O	1.582610	-0.443937	0.441482
O17	O	1.453597	-0.443903	0.570524
C18	C	1.245279	-0.303198	0.506058
C19	C	1.128503	-0.303209	0.506076
C20	C	1.073702	-0.263005	0.573396
C21	C	0.963978	-0.263012	0.573403
C22	C	0.963866	-0.343430	0.438767
C23	C	1.073588	-0.343420	0.438756
C24	C	1.518109	-0.466761	0.506014
C25	C	1.518146	-0.536729	0.506025
C26	C	1.585383	-0.569592	0.438901
C27	C	1.585432	-0.635335	0.438925
C28	C	1.518226	-0.668211	0.506061
C29	C	1.450985	-0.635340	0.573198
C30	C	1.450945	-0.569599	0.573180
N31	N	1.426319	-0.771477	0.514065
N32	N	1.426360	-0.833928	0.514076
C33	C	1.518344	-0.866286	0.506121
N34	N	1.610287	-0.833833	0.498134
N35	N	1.610245	-0.771376	0.498117
C36	C	1.518262	-0.739497	0.506089
C37	C	1.585639	-0.970435	0.439019
C38	C	1.585690	-1.036178	0.439050
C39	C	1.451233	-1.036183	0.573318
C40	C	1.451192	-0.970440	0.573293
C41	C	1.518393	-0.937570	0.506138
C42	C	1.792280	-0.303220	0.506088
C43	C	1.909057	-0.303225	0.506095
C44	C	1.518325	-0.303149	0.780106
C45	C	1.518359	-0.303123	0.896883
C46	C	1.518414	-0.139019	0.506154
C47	C	1.518485	-0.069051	0.506189
C48	C	1.518229	-0.303224	0.233105
C49	C	1.518399	-0.303072	0.116329
C50	C	1.585601	-0.262858	0.951770
C51	C	1.585619	-0.262831	1.061494
C52	C	1.451149	-0.343339	1.061434
C53	C	1.451127	-0.343363	0.951712
H54	H	0.919140	-0.376170	0.383959
H55	H	1.118410	-0.230260	0.628210
H56	H	1.396192	-0.542841	0.627841
C57	C	1.645346	-0.227036	1.229714
C58	C	1.659528	-0.218567	1.121828
H59	H	1.690970	-0.199703	1.266959
H60	H	1.660687	-0.269321	1.247678
H61	H	1.574763	-0.217816	1.247674
H62	H	1.730109	-0.227791	1.103867
H63	H	1.644194	-0.176272	1.103857
H64	H	1.396437	-0.943681	0.627947
H65	H	1.118208	-0.376160	0.383930
H66	H	1.640343	-0.230090	0.907132
H67	H	1.396414	-0.376102	1.106089
C68	C	0.930293	-0.232489	0.751408
C69	C	0.903739	-0.218822	0.647409
H70	H	0.893099	-0.205208	0.797096
H71	H	1.003490	-0.226727	0.761028
H72	H	0.912282	-0.274798	0.766635
H73	H	0.921758	-0.176514	0.632179
H74	H	0.830525	-0.224578	0.637784
C75	C	1.718297	-0.576197	0.306193
C76	C	1.659265	-0.533462	0.365100
H77	H	1.763915	-0.553889	0.260640
H78	H	1.672559	-0.601878	0.265970
H79	H	1.758467	-0.601798	0.352023
H80	H	1.619089	-0.507864	0.319270
H81	H	1.705010	-0.507770	0.405326
C82	C	1.726779	-0.709221	0.424419
C83	C	1.659315	-0.671476	0.365119
H84	H	1.772385	-0.731530	0.378847
H85	H	1.686760	-0.738196	0.464415
H86	H	1.766957	-0.683530	0.470199
H87	H	1.619130	-0.697167	0.319343
H88	H	1.699337	-0.642497	0.325104
H89	H	1.396363	-0.376151	0.907021
C90	C	1.436357	-0.709215	0.714514
C91	C	1.377110	-0.671477	0.646993
H92	H	1.390748	-0.731526	0.760071
H93	H	1.482085	-0.683524	0.754733
H94	H	1.476405	-0.738195	0.674526
H95	H	1.337067	-0.642494	0.686981
H96	H	1.331363	-0.697170	0.606771
C97	C	1.636902	-0.950257	0.261153
C98	C	1.659511	-0.934298	0.365213
H99	H	1.682511	-0.927951	0.215590
H100	H	1.566320	-0.939530	0.245720
H101	H	1.646558	-0.994115	0.251574
H102	H	1.649848	-0.890441	0.374794
H103	H	1.730109	-0.945022	0.380651
C104	C	1.763651	-1.056266	0.388067
C105	C	1.659654	-1.072269	0.365265
H106	H	1.809326	-1.078535	0.342510
H107	H	1.778982	-1.067009	0.458662
H108	H	1.773177	-1.012401	0.378475
H109	H	1.650127	-1.116134	0.374864
H110	H	1.644318	-1.061531	0.294653
H111	H	1.396517	-1.062950	0.627986
