data_functionalizedCrystal
_audit_creation_method	'MofGen! by Chris Wilmer'
_symmetry_space_group_name_H-M	'P1'
_symmetry_Int_Tables_number	1
_symmetry_cell_setting	triclinic
loop_
_symmetry_equiv_pos_as_xyz
  x,y,z
_cell_length_a	10.967926
_cell_length_b	11.026607
_cell_length_c	9.482900
_cell_angle_alpha	101.400185
_cell_angle_beta	92.549900
_cell_angle_gamma	96.380754
loop_
_atom_site_label
_atom_site_type_symbol
_atom_site_fract_x
_atom_site_fract_y
_atom_site_fract_z
O1	O	1.656941	0.216441	0.294228
O2	O	1.308308	0.219129	0.206881
O3	O	1.453729	0.039755	0.243320
O4	O	1.511519	0.395815	0.257789
O5	O	1.424224	0.076343	0.477720
O6	O	1.278803	0.255718	0.441280
O7	O	1.627435	0.253029	0.528627
Cu8	Cu	1.450425	0.257714	0.506356
Cu9	Cu	1.485318	0.214444	0.229152
O10	O	1.482014	0.432404	0.492188
C11	C	1.248229	0.234463	0.312725
C12	C	1.113168	0.225628	0.278886
C13	C	1.037668	0.240643	0.385226
C14	C	0.898075	0.231511	0.350255
C15	C	1.428316	0.012329	0.357847
C16	C	1.396536	-0.123901	0.349880
C17	C	1.484288	-0.193522	0.371863
C18	C	1.451444	-0.334324	0.363629
C19	C	1.687515	0.237695	0.422780
C20	C	1.822577	0.246528	0.456610
C21	C	1.507428	0.459828	0.377658
C22	C	1.539209	0.596058	0.385616
N23	N	1.425892	0.288148	0.701329
N24	N	1.509859	0.184001	0.034181
C25	C	1.478072	0.223414	0.786603
C26	C	1.457671	0.248745	0.948909
H27	H	1.074460	0.206010	0.161955
C28	C	1.253830	-0.275992	0.189824
C29	C	1.262287	-0.184145	0.316241
H30	H	1.170949	-0.313186	0.169064
H31	H	1.280158	-0.239184	0.112122
H32	H	1.304635	-0.337909	0.202566
H33	H	1.211488	-0.122224	0.303496
H34	H	1.235944	-0.220954	0.393961
H35	H	1.583731	-0.148887	0.396787
C36	C	1.508588	0.007322	0.746997
C37	C	1.558781	0.123298	0.722927
H38	H	1.558417	-0.054479	0.707670
H39	H	1.505490	0.011185	0.847707
H40	H	1.427821	-0.013403	0.701915
H41	H	1.639546	0.144027	0.768019
H42	H	1.561893	0.119437	0.622198
H43	H	1.366108	0.362318	0.748479
C44	C	0.825351	0.178402	0.681943
C45	C	0.874806	0.273007	0.614478
H46	H	0.857602	0.194747	0.779399
H47	H	0.738407	0.175751	0.679147
H48	H	0.846524	0.100549	0.633046
H49	H	0.853626	0.350859	0.663368
H50	H	0.961770	0.275671	0.617283
H51	H	1.351995	-0.378954	0.338704
C52	C	1.746416	-0.399030	0.313233
C53	C	1.673467	-0.343710	0.419254
H54	H	1.829298	-0.361839	0.333998
H55	H	1.741952	-0.485736	0.312125
H56	H	1.717482	-0.387014	0.221676
H57	H	1.702396	-0.355735	0.510810
H58	H	1.677938	-0.256983	0.420377
C59	C	1.058689	0.381886	0.615124
C60	C	1.089901	0.267119	0.543087
H61	H	1.090926	0.398224	0.712586
H62	H	1.092237	0.446046	0.569344
H63	H	0.971730	0.379210	0.612317
H64	H	1.176860	0.269797	0.545885
H65	H	1.056357	0.202942	0.588881
H66	H	1.569635	0.109817	0.987035
C67	C	0.717667	0.201117	0.188300
C68	C	0.845842	0.205034	0.192388
H69	H	0.685423	0.184780	0.090842
H70	H	0.684138	0.136945	0.234077
H71	H	0.696516	0.278980	0.237193
H72	H	0.866993	0.127167	0.143505
H73	H	0.879383	0.269210	0.146592
H74	H	1.397884	0.322920	0.996052
