data_functionalizedCrystal
_audit_creation_method	'MofGen! by Chris Wilmer'
_symmetry_space_group_name_H-M	'P1'
_symmetry_Int_Tables_number	1
_symmetry_cell_setting	triclinic
loop_
_symmetry_equiv_pos_as_xyz
  x,y,z
_cell_length_a	19.288864
_cell_length_b	14.044220
_cell_length_c	17.766277
_cell_angle_alpha	89.993125
_cell_angle_beta	89.976791
_cell_angle_gamma	88.162561
loop_
_atom_site_label
_atom_site_type_symbol
_atom_site_fract_x
_atom_site_fract_y
_atom_site_fract_z
O1	O	0.928949	0.118215	-0.062840
O2	O	0.727713	0.134161	-0.062789
O3	O	0.825310	-0.011784	-0.062806
O4	O	0.831351	0.264160	-0.062822
O5	O	0.825291	-0.011791	0.062383
O6	O	0.727693	0.134154	0.062400
O7	O	0.928929	0.118207	0.062349
Cu8	Cu	0.828310	0.126180	0.073805
Cu9	Cu	0.828332	0.126189	-0.074245
O10	O	0.831332	0.264152	0.062366
C11	C	0.701794	0.133645	-0.000188
C12	C	0.624591	0.132104	-0.000168
C13	C	0.822656	-0.047091	-0.000211
C14	C	0.814768	-0.152283	-0.000208
C15	C	0.585397	0.217738	-0.000185
C16	C	0.512857	0.216291	-0.000193
C17	C	0.479514	0.129205	-0.000200
C18	C	0.518717	0.043560	-0.000178
C19	C	0.591256	0.045010	-0.000163
C20	C	0.366860	0.060749	-0.044080
C21	C	0.294323	0.059303	-0.044100
C22	C	0.255781	0.124731	-0.000245
C23	C	0.289785	0.191621	0.043621
C24	C	0.362323	0.193071	0.043637
C25	C	0.400858	0.127624	-0.000216
C26	C	0.137930	0.208802	-0.000270
C27	C	0.065389	0.207351	-0.000273
C28	C	0.071251	0.034617	-0.000266
C29	C	0.143790	0.036071	-0.000255
C30	C	0.177126	0.123165	-0.000260
C31	C	0.800348	-0.344882	-0.000215
C32	C	0.856291	-0.402755	-0.000231
C33	C	0.848267	-0.509924	-0.000235
C34	C	0.808370	-0.237703	-0.000211
C35	C	0.954848	0.118724	-0.000254
C36	C	1.032051	0.120264	-0.000278
C37	C	0.833986	0.299459	-0.000231
C38	C	0.841874	0.404651	-0.000239
N39	N	0.828299	0.126173	0.177935
N40	N	0.828348	0.126188	-0.178375
C41	C	0.871532	0.061580	0.217315
C42	C	0.871536	0.061576	0.296116
C43	C	0.828314	0.126181	0.335536
C44	C	0.785072	0.190779	0.296147
C45	C	0.785064	0.190775	0.217347
C46	C	0.824563	0.212524	0.460370
C47	C	0.824575	0.212529	0.539169
C48	C	0.828333	0.126192	0.578582
C49	C	0.832093	0.039847	0.539187
C50	C	0.832085	0.039843	0.460387
C51	C	0.828317	0.126192	0.420982
C52	C	0.871573	0.061589	0.703407
C53	C	0.871572	0.061583	0.782211
C54	C	0.785111	0.190794	0.782240
C55	C	0.785109	0.190792	0.703438
C56	C	0.828343	0.126190	0.664027
H57	H	0.480939	0.286027	-0.000205
O58	O	0.617863	0.302275	-0.000096
C59	C	0.696308	0.404183	0.064765
C60	C	0.659591	0.308408	0.064757
H61	H	0.730043	0.409182	0.117201
H62	H	0.730194	0.409174	0.012412
H63	H	0.655825	0.465133	0.064710
H64	H	0.700026	0.247403	0.064839
H65	H	0.625692	0.303500	0.117106
H66	H	0.623168	-0.024726	-0.000149
H67	H	0.165073	0.279719	-0.000263
O68	O	0.913596	-0.001213	0.334264
C69	C	0.999318	-0.129411	0.325924
C70	C	0.951735	-0.058338	0.282633
H71	H	1.030155	-0.175629	0.284200
H72	H	1.036588	-0.088666	0.362773
H73	H	0.966396	-0.176601	0.362859
H74	H	0.984602	-0.011130	0.245657
H75	H	0.914462	-0.099143	0.245832
H76	H	0.390006	0.247532	0.079357
H77	H	0.910212	-0.371814	-0.000296
H78	H	0.821518	0.282836	0.571239
O79	O	0.820948	0.296485	0.422205
C80	C	0.813477	0.467761	0.430504
C81	C	0.817580	0.372751	0.473818
H82	H	0.810738	0.529447	0.472214
H83	H	0.861492	0.473967	0.393610
H84	H	0.765108	0.470200	0.393612
H85	H	0.865919	0.370248	0.510750
H86	H	0.769530	0.366584	0.510664
O87	O	0.181899	-0.047089	-0.000116
C88	C	0.267197	-0.145677	0.064732
C89	C	0.224069	-0.051470	0.064676
H90	H	0.301313	-0.149240	0.117103
H91	H	0.230941	-0.208209	0.064773
H92	H	0.301300	-0.149296	0.012323
H93	H	0.189962	-0.047758	0.117076
H94	H	0.260363	0.011018	0.064596
O95	O	0.038901	-0.050002	-0.000139
C96	C	0.021710	-0.198105	0.064697
C97	C	0.058383	-0.102296	0.064652
H98	H	0.037459	-0.240421	0.117067
H99	H	-0.036874	-0.184488	0.064734
H100	H	0.037435	-0.240366	0.012287
H101	H	0.042714	-0.059987	0.117053
H102	H	0.116960	-0.115981	0.064576
O103	O	0.027418	0.290628	-0.000321
C104	C	0.029262	0.462106	-0.000294
C105	C	0.072349	0.367865	-0.000258
H106	H	0.065571	0.524576	-0.000227
H107	H	-0.004802	0.465809	-0.052703
H108	H	-0.004888	0.465695	0.052080
H109	H	0.106539	0.364213	-0.052596
H110	H	0.106368	0.364201	0.052186
O111	O	0.736060	-0.381899	-0.000296
C112	C	0.655190	-0.480197	-0.065148
C113	C	0.728019	-0.438341	-0.065145
H114	H	0.648661	-0.525823	-0.117581
H115	H	0.648631	-0.525982	-0.012792
H116	H	0.614340	-0.419707	-0.065095
H117	H	0.768914	-0.498770	-0.065225
H118	H	0.734519	-0.392531	-0.117497
H119	H	0.749878	0.243379	0.328246
H120	H	0.835145	-0.030462	0.428314
H121	H	0.749916	0.243393	0.814335
H122	H	0.266642	0.004841	-0.079822
H123	H	0.398235	0.007467	-0.079797
H124	H	0.491565	-0.027346	-0.000194
H125	H	0.906775	0.008983	0.671317
H126	H	0.749858	0.243375	0.185284
H127	H	0.906734	0.008976	0.185228
O128	O	0.835620	-0.044012	0.577491
C129	C	0.780350	-0.146495	0.666522
C130	C	0.776255	-0.051507	0.623176
H131	H	0.732367	-0.152576	0.703481
H132	H	0.782993	-0.208237	0.624859
H133	H	0.828756	-0.148962	0.703356
H134	H	0.727854	-0.048946	0.586341
H135	H	0.773650	0.010192	0.664880
O136	O	0.913637	-0.001200	0.820350
C137	C	0.999375	-0.129379	0.812001
C138	C	0.951780	-0.058314	0.768714
H139	H	1.030215	-0.175587	0.770273
H140	H	1.036641	-0.088626	0.848849
H141	H	0.966460	-0.176579	0.848936
H142	H	0.984639	-0.011096	0.731738
H143	H	0.914511	-0.099126	0.731914
O144	O	0.743194	0.253679	0.665216
C145	C	0.712681	0.418598	0.641143
C146	C	0.760209	0.347482	0.684460
H147	H	0.726410	0.494453	0.656697
H148	H	0.720102	0.407585	0.578042
H149	H	0.656303	0.406395	0.656660
H150	H	0.816605	0.359642	0.669006
H151	H	0.752728	0.358512	0.747550
O152	O	0.252443	0.255387	0.086129
C153	C	0.224841	0.420872	0.111358
C154	C	0.267121	0.348711	0.063163
H155	H	0.236703	0.496340	0.092819
H156	H	0.167122	0.408545	0.103860
H157	H	0.239433	0.411144	0.173120
H158	H	0.252588	0.358396	0.001384
H159	H	0.324829	0.361057	0.070725
