data_functionalizedCrystal
_audit_creation_method	'MofGen! by Chris Wilmer'
_symmetry_space_group_name_H-M	'P1'
_symmetry_Int_Tables_number	1
_symmetry_cell_setting	triclinic
loop_
_symmetry_equiv_pos_as_xyz
  x,y,z
_cell_length_a	10.686220
_cell_length_b	14.908520
_cell_length_c	10.686551
_cell_angle_alpha	89.137942
_cell_angle_beta	90.308082
_cell_angle_gamma	97.432447
loop_
_atom_site_label
_atom_site_type_symbol
_atom_site_fract_x
_atom_site_fract_y
_atom_site_fract_z
Zn1	Zn	1.955964	-0.219797	-0.581353
Zn2	Zn	1.927616	-0.382976	-0.385676
Zn3	Zn	1.728370	-0.242859	-0.389661
Zn4	Zn	1.734182	-0.381149	-0.611296
O5	O	1.836533	-0.306695	-0.491996
O6	O	2.128406	-0.232556	-0.541197
O7	O	1.886890	-0.374806	-0.211558
O8	O	1.767992	-0.113634	-0.404226
O9	O	2.107578	-0.352443	-0.397434
O10	O	1.935205	-0.096690	-0.545061
O11	O	1.740504	-0.271863	-0.214485
O12	O	1.552939	-0.270091	-0.433260
O13	O	1.777898	-0.349329	-0.781970
O14	O	1.557209	-0.371692	-0.596094
O15	O	1.940840	-0.230784	-0.759972
O16	O	1.892525	-0.508900	-0.426468
O17	O	1.750410	-0.507558	-0.592230
C18	C	1.509387	-0.323196	-0.518359
C19	C	1.369433	-0.330276	-0.529669
C20	C	1.819059	-0.540939	-0.512190
C21	C	1.811702	-0.641141	-0.520862
C22	C	1.946038	-0.830752	-0.364664
C23	C	1.939129	-0.924900	-0.372807
C24	C	1.790984	-0.923588	-0.545297
C25	C	1.797892	-0.829439	-0.537153
C26	C	1.875420	-0.783025	-0.446833
C27	C	1.882321	-0.688875	-0.438684
C28	C	1.734183	-0.687563	-0.611179
C29	C	1.727275	-0.781712	-0.619322
C30	C	2.164957	-0.290130	-0.465531
C31	C	2.304911	-0.283071	-0.454253
C32	C	1.863180	-0.287280	-0.817521
C33	C	1.874535	-0.279006	-0.956240
C34	C	1.854112	-0.071534	-0.471748
C35	C	1.861603	0.028678	-0.463119
C36	C	1.810067	-0.325966	-0.167726
C37	C	1.798975	-0.333974	-0.028966
H38	H	1.317597	-0.376113	-0.602887
H39	H	1.947922	-0.225617	-1.000107
H40	H	1.945445	-0.651085	-0.365138
H41	H	2.009155	-0.792961	-0.291113
O42	O	2.015285	-0.976383	-0.284177
H43	H	2.070345	-0.928288	-0.220001
H44	H	1.727873	-0.961394	-0.618839
H45	H	1.664157	-0.819516	-0.692861
H46	H	1.725601	-0.387365	-0.985105
O47	O	1.373551	-0.222355	-0.357266
H48	H	1.476392	-0.226127	-0.363313
O49	O	1.658013	-0.636089	-0.699818
H50	H	1.675844	-0.562822	-0.678989
