data_functionalizedCrystal
_audit_creation_method	'MofGen! by Chris Wilmer'
_symmetry_space_group_name_H-M	'P1'
_symmetry_Int_Tables_number	1
_symmetry_cell_setting	triclinic
loop_
_symmetry_equiv_pos_as_xyz
  x,y,z
_cell_length_a	12.837943
_cell_length_b	11.295483
_cell_length_c	12.837942
_cell_angle_alpha	94.530417
_cell_angle_beta	85.171060
_cell_angle_gamma	94.538773
loop_
_atom_site_label
_atom_site_type_symbol
_atom_site_fract_x
_atom_site_fract_y
_atom_site_fract_z
O1	O	-1.408689	-0.099003	0.265788
O2	O	-1.105556	-0.099010	0.252345
O3	O	-1.250401	-0.098999	0.107500
O4	O	-1.263845	-0.099013	0.410633
O5	O	-1.237676	0.099051	0.120201
O6	O	-1.092832	0.099040	0.265045
O7	O	-1.395965	0.099047	0.278489
Cu8	Cu	-1.243237	0.117127	0.272927
Cu9	Cu	-1.258285	-0.117090	0.257907
O10	O	-1.251121	0.099037	0.423333
C11	C	-1.060125	0.000014	0.254153
C12	C	-0.943710	0.000012	0.240609
C13	C	-1.239497	0.000025	0.074781
C14	C	-1.225953	0.000023	-0.041634
C15	C	-1.441396	0.000021	0.276680
C16	C	-1.557812	0.000015	0.290224
N17	N	-1.232661	0.281863	0.283491
C18	C	-0.718835	0.000021	0.403439
C19	C	-0.609453	0.000020	0.390717
C20	C	-0.615561	0.000016	0.202446
C21	C	-0.724943	0.000017	0.215167
C22	C	-0.776576	0.000018	0.315667
C23	C	-0.885961	0.000011	0.328387
C24	C	-0.892066	0.000016	0.140117
C25	C	-0.782684	0.000015	0.127396
N26	N	-1.268868	-0.281825	0.247335
C27	C	-1.344996	0.531161	0.171231
C28	C	-1.337012	0.655824	0.179223
C29	C	-1.208702	0.655854	0.307459
C30	C	-1.216687	0.531191	0.299467
C31	C	-1.284837	0.468849	0.231353
C32	C	-1.292826	0.344183	0.223367
C33	C	-1.164512	0.344216	0.351597
C34	C	-1.156528	0.468879	0.359589
C35	C	-1.388784	0.000002	-0.266509
C36	C	-1.376062	-0.000000	-0.375892
C37	C	-1.187791	0.000008	-0.369784
C38	C	-1.200512	0.000010	-0.260402
C39	C	-1.301011	0.000009	-0.208768
C40	C	-1.313731	0.000020	-0.099383
C41	C	-1.125461	0.000019	-0.093278
C42	C	-1.112740	0.000017	-0.202660
C43	C	-1.262024	0.000010	0.456052
C44	C	-1.275569	0.000004	0.572467
H45	H	-0.760876	0.000020	0.485269
H46	H	-0.939091	0.000006	0.068646
C47	C	-1.016853	0.101800	-0.391743
C48	C	-1.077326	-0.000007	-0.426545
H49	H	-0.948655	0.101782	-0.426780
H50	H	-1.049004	0.170852	-0.406513
H51	H	-1.011877	0.101798	-0.318333
H52	H	-1.082309	-0.000000	-0.499954
H53	H	-1.045167	-0.069076	-0.411783
H54	H	-1.470613	0.000013	-0.224468
H55	H	-1.447536	-0.000010	-0.422901
H56	H	-1.400494	0.480401	0.115777
H57	H	-1.030916	0.000013	-0.244716
H58	H	-1.053990	0.000034	-0.046252
C59	C	-0.998897	0.101817	0.458435
C60	C	-0.942725	0.000011	0.438851
H61	H	-1.033943	0.101812	0.526630
H62	H	-0.951918	0.170869	0.453988
H63	H	-1.048938	0.101801	0.407975
H64	H	-0.892678	0.000032	0.489307
H65	H	-0.989709	-0.069059	0.443307
C66	C	-1.418841	0.356679	0.097405
C67	C	-1.367730	0.275653	0.148492
H68	H	-1.465077	0.314371	0.051173
H69	H	-1.457689	0.405289	0.147834
H70	H	-1.368416	0.405317	0.058546
H71	H	-1.418155	0.227021	0.187358
H72	H	-1.328880	0.227023	0.098056
H73	H	-0.562444	0.000025	0.462191
H74	H	-0.573495	0.000114	0.120630
H75	H	-1.115530	0.293468	0.400555
C76	C	-0.617720	0.000006	0.024297
C77	C	-0.725922	0.000007	0.016930
H78	H	-0.582682	-0.000009	-0.043903
H79	H	-0.594110	0.069070	0.065304
H80	H	-0.602986	-0.069059	0.056471
H81	H	-0.740657	0.069077	-0.015237
H82	H	-0.749541	-0.069064	-0.024093
C83	C	-1.464641	0.643266	0.051666
C84	C	-1.403142	0.724318	0.113137
H85	H	-1.505471	0.685554	0.010870
H86	H	-1.420458	0.594657	0.006571
H87	H	-1.509716	0.594631	0.095874
H88	H	-1.358061	0.772947	0.068929
H89	H	-1.447329	0.772948	0.158237
C90	C	-1.031081	0.694297	0.353367
C91	C	-1.133784	0.724405	0.382308
H92	H	-0.984828	0.736627	0.399570
H93	H	-1.027230	0.611148	0.357234
H94	H	-1.011528	0.714718	0.283672
H95	H	-1.153340	0.703975	0.452001
H96	H	-1.137639	0.807573	0.378452
C97	C	-0.978912	0.507311	0.405524
C98	C	-1.081618	0.537418	0.434453
H99	H	-0.932667	0.549630	0.451741
H100	H	-0.975065	0.424160	0.409380
H101	H	-0.959347	0.527746	0.335836
H102	H	-1.101187	0.516975	0.504140
H103	H	-1.085469	0.620588	0.430608
C104	C	-1.484647	-0.101812	-0.077431
C105	C	-1.424196	0.000008	-0.042621
H106	H	-1.552842	-0.101824	-0.042384
H107	H	-1.489631	-0.101805	-0.150829
H108	H	-1.452470	-0.170862	-0.062669
H109	H	-1.456370	0.069058	-0.057389
H110	H	-1.419217	0.000012	0.030795
