data_functionalizedCrystal
_audit_creation_method	'MofGen! by Chris Wilmer'
_symmetry_space_group_name_H-M	'P1'
_symmetry_Int_Tables_number	1
_symmetry_cell_setting	triclinic
loop_
_symmetry_equiv_pos_as_xyz
  x,y,z
_cell_length_a	27.440280
_cell_length_b	27.440279
_cell_length_c	14.560438
_cell_angle_alpha	60.005293
_cell_angle_beta	90.004795
_cell_angle_gamma	60.011417
loop_
_atom_site_label
_atom_site_type_symbol
_atom_site_fract_x
_atom_site_fract_y
_atom_site_fract_z
Zr1	Zr	0.469679	0.533225	-0.120195
O2	O	0.391893	0.634876	-0.266820
O3	O	0.493501	0.431582	-0.075276
O4	O	0.493533	0.533224	-0.266838
O5	O	0.391863	0.533233	0.075883
O6	O	0.573736	0.533214	-0.266819
O7	O	0.391861	0.533234	-0.075258
O8	O	0.573679	0.351395	0.075851
O9	O	0.391920	0.715052	-0.266787
O10	O	0.563544	0.473379	-0.056069
O11	O	0.503691	0.473385	0.056711
O12	O	0.503729	0.593056	-0.168829
O13	O	0.443876	0.593062	-0.056048
Zr14	Zr	0.597597	0.533208	0.120887
Zr15	Zr	0.597594	0.533210	-0.120165
Zr16	Zr	0.469683	0.533223	0.120857
Zr17	Zr	0.469722	0.661096	-0.120143
Zr18	Zr	0.597554	0.405337	0.120834
O19	O	0.573775	0.634852	0.075968
O20	O	0.573770	0.634855	-0.266777
O21	O	0.391897	0.634873	0.075925
O22	O	0.675384	0.431557	0.267512
O23	O	0.675379	0.431560	-0.075233
O24	O	0.493506	0.431578	0.267469
O25	O	0.675413	0.533201	-0.075191
O26	O	0.573743	0.533210	0.267530
O27	O	0.493540	0.533219	0.267511
O28	O	0.675415	0.533199	0.075950
O29	O	0.493594	0.715040	-0.266763
O30	O	0.573682	0.351393	0.267455
O31	O	0.675357	0.351381	0.267479
O32	O	0.675354	0.351383	0.075875
O33	O	0.391922	0.715050	-0.075183
O34	O	0.493597	0.715038	-0.075159
O35	O	0.563547	0.473377	0.169520
O36	O	0.623400	0.473371	0.056740
O37	O	0.563585	0.593048	-0.056020
O38	O	0.503732	0.593054	0.056761
C39	C	0.533584	0.373269	0.000280
C40	C	0.533566	0.318985	0.000257
C41	C	0.502388	0.084229	0.059223
C42	C	0.502376	0.135259	0.059208
O43	O	0.475817	0.161638	0.109297
N44	N	0.533610	0.160781	0.000324
C45	C	0.564863	0.135265	-0.058541
O46	O	0.591430	0.161659	-0.108627
C47	C	0.564878	0.084233	-0.058519
C48	C	0.533637	0.058718	0.000361
C49	C	0.471150	0.058714	0.118099
C50	C	0.471161	0.007689	0.118111
C51	C	0.502410	-0.017822	0.059249
C52	C	0.533648	0.007693	0.000374
C53	C	0.596134	0.058714	-0.117376
C54	C	0.596147	0.007678	-0.117348
C55	C	0.564906	-0.017837	-0.058469
C56	C	0.564908	-0.068844	-0.058476
N57	N	0.533674	-0.094366	0.000409
C58	C	0.502424	-0.068855	0.059271
C59	C	0.564831	0.242437	-0.058581
C60	C	0.564813	0.293472	-0.058610
C61	C	0.502326	0.293461	0.059141
C62	C	0.502341	0.242429	0.059163
C63	C	0.533596	0.216915	0.000304
C64	C	0.502449	-0.176012	0.059293
C65	C	0.502461	-0.227041	0.059297
C66	C	0.564950	-0.227028	-0.058449
C67	C	0.564936	-0.176002	-0.058458
C68	C	0.533684	-0.150497	0.000421
O69	O	0.591455	-0.095257	-0.108536
O70	O	0.475869	-0.095261	0.109361
C71	C	0.373637	0.533235	0.000308
C72	C	0.319334	0.533242	0.000295
C73	C	0.013859	0.470735	0.059236
C74	C	-0.037159	0.470732	0.059246
O75	O	-0.036993	0.417603	0.109338
N76	N	-0.093899	0.533201	0.000386
C77	C	-0.099620	0.595678	-0.058479
O78	O	-0.152566	0.648813	-0.108543
C79	C	-0.048602	0.595681	-0.058482
C80	C	0.008137	0.533208	0.000373
C81	C	0.070596	0.408267	0.118087
C82	C	0.121611	0.408271	0.118075
C83	C	0.115889	0.470743	0.059212
C84	C	0.059152	0.533212	0.000361
C85	C	-0.054323	0.658157	-0.117339
C86	C	-0.003299	0.658155	-0.117336
C87	C	0.053440	0.595682	-0.058482
C88	C	0.104445	0.595688	-0.058514
N89	N	0.161185	0.533219	0.000347
C90	C	0.166907	0.470747	0.059210
C91	C	-0.206758	0.595667	-0.058467
C92	C	-0.257776	0.595664	-0.058472
C93	C	-0.195311	0.470718	0.059255
C94	C	-0.144293	0.470721	0.059253
C95	C	-0.150018	0.533197	0.000393
C96	C	0.274039	0.470760	0.059179
C97	C	0.325056	0.470769	0.059158
C98	C	0.262587	0.595716	-0.058564
C99	C	0.211575	0.595707	-0.058548
C100	C	0.217305	0.533223	0.000332
O101	O	0.104325	0.648789	-0.108576
O102	O	0.219855	0.417621	0.109277
C103	C	0.693639	0.533198	0.000384
C104	C	0.747942	0.533192	0.000396
C105	C	0.533634	0.533219	-0.301174
C106	C	0.533633	0.533220	-0.403507
C107	C	0.533692	0.693164	0.000412
C108	C	0.533710	0.747449	0.000434
C109	C	0.502410	0.595689	-0.510442
C110	C	0.502417	0.595686	-0.606591
C111	C	0.564870	0.470739	-0.488855
C112	C	0.564866	0.470743	-0.392709
C113	C	0.533642	0.533214	0.301865
C114	C	0.533644	0.533213	0.404198
C115	C	0.693585	0.373251	0.000318
C116	C	0.747870	0.318960	0.000308
C117	C	0.533588	0.373267	0.301799
C118	C	0.533571	0.318981	0.404110
C119	C	0.693589	0.373248	0.301837
C120	C	0.747875	0.318956	0.404160
C121	C	0.373687	0.693185	-0.301145
C122	C	0.319401	0.747477	-0.403469
C123	C	0.373691	0.693183	0.000374
C124	C	0.319406	0.747474	0.000384
C125	C	0.533688	0.693167	-0.301108
C126	C	0.533705	0.747452	-0.403418
C127	C	0.742118	0.293468	-0.058592
C128	C	0.793120	0.242463	-0.058623
C129	C	0.849872	0.216947	0.000252
C130	C	0.855622	0.242443	0.059154
C131	C	0.804622	0.293451	0.059178
C132	C	0.564808	0.293484	0.511051
C133	C	0.564789	0.242484	0.607192
C134	C	0.533538	0.216979	0.596389
C135	C	0.502298	0.242481	0.489437
C136	C	0.502313	0.293483	0.393298
C137	C	0.804617	0.293457	0.393342
C138	C	0.855629	0.242451	0.489477
C139	C	0.849899	0.216942	0.596428
C140	C	0.793152	0.242446	0.607244
C141	C	0.742141	0.293454	0.511111
C142	C	0.262659	0.772983	-0.392651
C143	C	0.211647	0.824005	-0.488785
C144	C	0.217377	0.849517	-0.595737
C145	C	0.274124	0.824009	-0.606553
C146	C	0.325136	0.772992	-0.510419
C147	C	0.325158	0.772971	0.059273
C148	C	0.274156	0.823990	0.059278
C149	C	0.217404	0.849508	0.000399
C150	C	0.211654	0.824009	-0.058497
C151	C	0.262654	0.772994	-0.058508
C152	C	0.564962	0.772941	-0.392579
C153	C	0.564990	0.823942	-0.488702
C154	C	0.533756	0.849455	-0.595662
C155	C	0.502498	0.823961	-0.606499
C156	C	0.502474	0.772958	-0.510377
H157	H	0.445703	0.079478	0.166037
N158	N	0.916834	0.214913	0.122670
H159	H	0.921638	0.253819	0.091818
H160	H	0.948229	0.178720	0.113700
N161	N	0.076778	0.340879	0.181567
H162	H	0.035854	0.350343	0.172647
H163	H	0.099340	0.313595	0.263897
N164	N	0.786904	0.214973	-0.122156
H165	H	0.764360	0.193812	-0.091272
H166	H	0.827839	0.178818	-0.113235
N167	N	0.598504	0.320990	-0.122129
H168	H	0.629934	0.312134	-0.068146
H169	H	0.569814	0.372182	-0.181384
N170	N	0.810829	0.320940	0.122713
H171	H	0.854522	0.297031	0.160005
H172	H	0.791025	0.312058	0.181907
H173	H	0.278783	0.844788	-0.693644
N174	N	0.533777	0.904474	-0.699328
H175	H	0.509247	0.916775	-0.768738
H176	H	0.576105	0.886675	-0.699257
H177	H	0.590256	0.314245	0.519869
N178	N	0.598659	-0.254549	-0.121928
H179	H	0.582281	-0.215644	-0.204292
H180	H	0.593918	-0.290760	-0.112891
H181	H	0.476993	0.646554	-0.693659
H182	H	0.891395	0.175412	0.000224
N183	N	0.256444	0.745487	-0.122009
H184	H	0.297361	0.709295	-0.113087
H185	H	0.233891	0.784445	-0.204337
N186	N	-0.009475	0.725542	-0.180821
H187	H	-0.053161	0.765113	-0.218100
H188	H	0.010325	0.728270	-0.240020
N189	N	0.598488	0.214982	0.722538
H190	H	0.618291	0.238876	0.714784
H191	H	0.629880	0.163776	0.764988
N192	N	0.162354	0.904533	-0.699416
H193	H	0.174589	0.916826	-0.768817
H194	H	0.137834	0.946819	-0.699336
N195	N	0.468807	0.851487	-0.721866
H196	H	0.485178	0.812578	-0.730905
H197	H	0.473578	0.887675	-0.781033
H198	H	0.533531	0.175449	0.674680
N199	N	0.386365	0.745454	0.122782
H200	H	0.382261	0.769357	0.160079
H201	H	0.408896	0.754328	0.068725
N202	N	0.468758	0.745470	-0.522076
H203	H	0.448976	0.769377	-0.604423
H204	H	0.437346	0.754356	-0.484763
N205	N	0.468598	0.214964	0.477790
H206	H	0.437163	0.223840	0.515060
H207	H	0.497288	0.163768	0.515043
N208	N	0.468766	-0.254562	0.122808
H209	H	0.448972	-0.230657	0.160099
H210	H	0.497452	-0.305763	0.182001
N211	N	0.468734	0.663073	-0.522088
H212	H	0.473468	0.653599	-0.444954
H213	H	0.425050	0.690359	-0.564612
H214	H	0.590298	0.419873	-0.480077
H215	H	0.477000	-0.155251	0.107235
N216	N	0.598651	0.745430	-0.277223
H217	H	0.618456	0.769320	-0.284959
H218	H	0.630043	0.694224	-0.234779
N219	N	0.280366	0.851485	0.122807
H220	H	0.324058	0.827570	0.160111
H221	H	0.260554	0.842614	0.181989
H222	H	0.445723	-0.013083	0.166061
H223	H	-0.211428	0.646546	-0.106403
N224	N	0.468585	0.321017	0.277956
H225	H	0.448776	0.297128	0.285711
H226	H	0.497239	0.312159	0.235439
H227	H	0.695912	0.314243	-0.106549
N228	N	0.598623	-0.148473	-0.121978
H229	H	0.569971	-0.097272	-0.181227
H230	H	0.618414	-0.172426	-0.159197
N231	N	0.598548	0.403360	-0.277363
H232	H	0.582154	0.376048	-0.268362
H233	H	0.593799	0.412900	-0.218164
H234	H	0.809294	0.314219	0.306266
N235	N	0.386334	0.745482	-0.522096
H236	H	0.382218	0.769387	-0.604438
H237	H	0.408845	0.694279	-0.484796
N238	N	0.786978	0.214919	0.722604
H239	H	0.743293	0.238808	0.714883
H240	H	0.806793	0.223791	0.765071
N241	N	0.598539	0.214925	-0.122078
H242	H	0.618320	0.238841	-0.159382
H243	H	0.569866	0.223780	-0.181258
N244	N	0.468651	0.214909	0.122683
H245	H	0.497304	0.163710	0.181940
H246	H	0.437224	0.223807	0.068629
H247	H	0.901830	0.221690	0.480650
N248	N	0.629856	-0.019830	-0.180847
H249	H	0.601215	-0.010972	-0.240089
H250	H	0.661294	-0.071022	-0.126776
N251	N	0.904921	0.161925	0.700110
H252	H	0.941734	0.149645	0.677018
H253	H	0.904882	0.119633	0.746331
N254	N	0.162403	0.904524	0.000438
H255	H	0.137841	0.886775	0.033942
H256	H	0.137898	0.946840	-0.079310
N257	N	0.150375	0.663086	-0.122043
H258	H	0.154495	0.702662	-0.159339
H259	H	0.127853	0.665808	-0.067975
N260	N	0.680942	0.320951	0.522787
H261	H	0.685058	0.297046	0.605130
H262	H	0.658410	0.312070	0.485461
N263	N	0.256463	0.745482	-0.277309
H264	H	0.276247	0.754352	-0.234782
H265	H	0.276208	0.694288	-0.234895
N266	N	0.468621	0.320981	0.122632
H267	H	0.473356	0.357179	0.113682
H268	H	0.485021	0.282033	0.204967
H269	H	0.165446	0.844764	-0.479957
H270	H	0.590443	0.844694	-0.479856
N271	N	0.629830	0.086226	-0.180884
H272	H	0.649627	0.062311	-0.218158
H273	H	0.661227	0.077369	-0.126834
N274	N	0.386254	0.403385	0.122631
H275	H	0.382134	0.363810	0.159922
H276	H	0.408791	0.400660	0.181820
H277	H	0.278714	0.419880	0.107126
N278	N	0.150440	0.851525	-0.121976
H279	H	0.127889	0.902729	-0.181206
H280	H	0.127940	0.842596	-0.067878
N281	N	0.182805	0.340889	0.181551
H282	H	0.178679	0.301318	0.218837
H283	H	0.205340	0.338162	0.240746
N284	N	-0.083099	0.403340	0.122728
H285	H	-0.087222	0.363767	0.160011
H286	H	-0.060565	0.400613	0.181924
N287	N	0.256422	0.663094	-0.122056
H288	H	0.297353	0.653611	-0.113123
H289	H	0.233874	0.690372	-0.091127
H290	H	-0.303972	0.646536	-0.106412
N291	N	-0.189149	0.403337	0.122745
H292	H	-0.208922	0.400556	0.181993
H293	H	-0.145454	0.363796	0.159963
N294	N	-0.115513	0.725540	-0.180813
H295	H	-0.111385	0.765110	-0.218088
H296	H	-0.138032	0.728257	-0.126739
