data_functionalizedCrystal
_audit_creation_method	'MofGen! by Chris Wilmer'
_symmetry_space_group_name_H-M	'P1'
_symmetry_Int_Tables_number	1
_symmetry_cell_setting	triclinic
loop_
_symmetry_equiv_pos_as_xyz
  x,y,z
_cell_length_a	14.519709
_cell_length_b	16.109301
_cell_length_c	14.586319
_cell_angle_alpha	90.005214
_cell_angle_beta	89.997367
_cell_angle_gamma	83.570813
loop_
_atom_site_label
_atom_site_type_symbol
_atom_site_fract_x
_atom_site_fract_y
_atom_site_fract_z
O1	O	-1.223634	-0.108984	-0.076113
O2	O	-0.955130	-0.121819	-0.076144
O3	O	-1.096758	0.005617	-0.076118
O4	O	-1.082006	-0.236420	-0.076138
O5	O	-1.096748	0.005618	0.076363
O6	O	-0.955120	-0.121817	0.076337
O7	O	-1.223624	-0.108983	0.076368
Cu8	Cu	-1.089371	-0.115400	0.090275
Cu9	Cu	-1.089383	-0.115402	-0.090051
O10	O	-1.081996	-0.236418	0.076342
C11	C	-0.920766	-0.121220	0.000093
C12	C	-0.818389	-0.119427	0.000081
C13	C	-1.096156	0.036593	0.000123
C14	C	-1.094364	0.128892	0.000124
N15	N	-1.089370	-0.115397	0.217107
C16	C	-0.443507	-0.112829	0.000120
C17	C	-0.547811	-0.114661	0.000109
C18	C	-0.630945	-0.116128	0.000100
C19	C	-0.735256	-0.117961	0.000091
C20	C	-0.257988	-0.109582	0.000127
C21	C	-0.360365	-0.111374	0.000126
C22	C	-1.082599	-0.267395	0.000100
C23	C	-1.084390	-0.359693	0.000092
C24	C	-1.174238	0.351026	0.000118
C25	C	-1.172547	0.437749	0.000111
C26	C	-1.004510	0.418166	0.000095
C27	C	-1.006202	0.331444	0.000096
C28	C	-1.091068	0.297877	0.000113
C29	C	-1.087686	0.471322	0.000104
C30	C	-1.085852	0.565351	0.000095
C31	C	-1.092902	0.203842	0.000119
N32	N	-1.089392	-0.115397	-0.216883
C33	C	-1.152104	-0.058988	0.452125
C34	C	-1.152106	-0.058986	0.548106
C35	C	-1.026651	-0.171809	0.548093
C36	C	-1.026645	-0.171807	0.452113
C37	C	-1.089376	-0.115397	0.404132
C38	C	-1.089385	-0.115398	0.596093
C39	C	-1.089388	-0.115396	0.700160
C40	C	-1.089373	-0.115398	0.300058
H41	H	-1.240272	0.481020	0.000114
O42	O	-0.922156	0.450913	0.000128
C43	C	-0.938494	0.538853	0.000109
H44	H	-1.010469	0.559115	0.028981
H45	H	-0.934032	0.562995	-0.073044
C46	C	-0.776744	0.550048	0.024442
C47	C	-0.865142	0.574934	0.059911
H48	H	-0.731495	0.572305	0.061327
H49	H	-0.765735	0.490801	0.024452
H50	H	-0.773039	0.570167	-0.036518
H51	H	-0.868850	0.554805	0.120865
H52	H	-0.876150	0.634178	0.059913
H53	H	-0.938471	0.288168	0.000089
H54	H	-1.203182	-0.013055	0.413060
H55	H	-1.203183	-0.013052	0.587179
O56	O	-0.965621	-0.226494	0.405444
C57	C	-0.908757	-0.181853	0.349915
H58	H	-0.907218	-0.116284	0.378852
H59	H	-0.937620	-0.177545	0.277176
C60	C	-0.811620	-0.308012	0.312885
C61	C	-0.809724	-0.227482	0.348431
H62	H	-0.750533	-0.336160	0.311965
H63	H	-0.849932	-0.338089	0.350293
H64	H	-0.835678	-0.304412	0.252272
H65	H	-0.785678	-0.231084	0.409046
H66	H	-0.771405	-0.197407	0.311033
O67	O	-0.965685	-0.226493	0.594807
C68	C	-0.908798	-0.181855	0.650319
H69	H	-0.945548	-0.116869	0.664703
H70	H	-0.840640	-0.176072	0.613334
C71	C	-0.843947	-0.308511	0.723817
C72	C	-0.889088	-0.228696	0.741491
H73	H	-0.831785	-0.337406	0.780054
H74	H	-0.882270	-0.338585	0.686416
H75	H	-0.787154	-0.303680	0.692994
H76	H	-0.945885	-0.233528	0.772302
H77	H	-0.850774	-0.198624	0.778899
O78	O	-1.256754	0.318555	0.000082
C79	C	-1.329798	0.384067	0.000106
H80	H	-1.303958	0.443012	-0.028761
H81	H	-1.355455	0.396307	0.073259
C82	C	-1.441570	0.287073	-0.024237
C83	C	-1.409835	0.359468	-0.059699
H84	H	-1.490943	0.271899	-0.061124
H85	H	-1.392360	0.242936	-0.024249
H86	H	-1.462944	0.297283	0.036723
H87	H	-1.388450	0.349255	-0.120654
H88	H	-1.459044	0.403603	-0.059699
