data_functionalizedCrystal
_audit_creation_method	'MofGen! by Chris Wilmer'
_symmetry_space_group_name_H-M	'P1'
_symmetry_Int_Tables_number	1
_symmetry_cell_setting	triclinic
loop_
_symmetry_equiv_pos_as_xyz
  x,y,z
_cell_length_a	6.817900
_cell_length_b	13.466098
_cell_length_c	12.908943
_cell_angle_alpha	94.179635
_cell_angle_beta	100.860631
_cell_angle_gamma	111.116846
loop_
_atom_site_label
_atom_site_type_symbol
_atom_site_fract_x
_atom_site_fract_y
_atom_site_fract_z
V1	V	-4.035857	-0.146102	-0.329630
O2	O	-3.982033	0.008389	-0.322371
O3	O	-4.026901	-0.291012	-0.328323
O4	O	-3.973361	-0.143254	-0.472961
O5	O	-4.035944	-0.140391	-0.176731
V6	V	-4.516200	-0.127694	-0.311227
O7	O	-4.304090	-0.186481	-0.369999
O8	O	-4.698164	-0.087314	-0.270859
O9	O	-4.301949	0.017216	-0.312535
O10	O	-4.687421	-0.282185	-0.318487
O11	O	-4.633510	-0.133404	-0.464126
O12	O	-4.355489	-0.130542	-0.167896
C13	C	-3.881954	-0.326356	-0.323367
C14	C	-3.955825	-0.444818	-0.323254
C15	C	-4.243018	-0.617191	-0.328396
C16	C	-4.173621	-0.505886	-0.328497
C17	C	-3.807415	-0.495063	-0.317905
C18	C	-3.876812	-0.606369	-0.317803
C19	C	-4.094619	-0.667430	-0.323051
C20	C	-4.164018	-0.778739	-0.322957
C21	C	-3.797809	-0.767914	-0.312356
C22	C	-3.728412	-0.656608	-0.312458
C23	C	-3.813657	-0.137875	-0.507866
C24	C	-3.844104	-0.136506	-0.625047
C25	C	-4.267447	-0.144506	-0.856045
C26	C	-4.296064	-0.143220	-0.966147
C27	C	-3.929954	-0.132639	-0.955352
C28	C	-3.901337	-0.133925	-0.845250
C29	C	-4.070092	-0.139861	-0.795601
C30	C	-4.041477	-0.141155	-0.685499
C31	C	-3.675364	-0.130566	-0.674705
C32	C	-3.703982	-0.129280	-0.784807
C33	C	-4.110240	0.052555	-0.317487
C34	C	-4.015607	0.171016	-0.317608
C35	C	-4.178537	-0.135924	-0.132985
C36	C	-4.127327	-0.137288	-0.015804
H37	H	-4.420368	-0.666910	-0.332679
C38	C	-4.510538	-0.148499	-1.031759
C39	C	-4.675604	-0.244063	-1.023061
C40	C	-4.873207	-0.248971	-1.083501
H41	H	-4.539616	-0.088576	-1.005965
H42	H	-4.503540	-0.146945	-1.104465
H43	H	-4.682605	-0.245607	-0.950371
H44	H	-4.646597	-0.304002	-1.048863
H45	H	-4.866210	-0.247417	-1.156207
H46	H	-4.902264	-0.189043	-1.057701
H47	H	-4.985225	-0.313814	-1.077616
C48	C	-4.334572	-0.451227	-0.334466
C49	C	-4.338706	-0.401607	-0.426025
C50	C	-4.486934	-0.351234	-0.431548
H51	H	-4.474335	-0.503428	-0.337635
H52	H	-4.292524	-0.398493	-0.272937
H53	H	-4.380765	-0.454335	-0.487538
H54	H	-4.198980	-0.349390	-0.422876
H55	H	-4.444886	-0.298501	-0.370019
H56	H	-4.626686	-0.403443	-0.434714
H57	H	-4.489744	-0.317553	-0.493665
H58	H	-3.551071	-0.606877	-0.308181
C59	C	-3.636684	-0.822480	-0.306332
C60	C	-3.632471	-0.872056	-0.214746
C61	C	-3.484054	-0.922320	-0.209158
H62	H	-3.678549	-0.875225	-0.367816
H63	H	-3.496976	-0.770191	-0.303162
H64	H	-3.772149	-0.924341	-0.217925
H65	H	-3.590582	-0.819335	-0.153246
H66	H	-3.344346	-0.870031	-0.205988
H67	H	-3.525933	-0.975060	-0.270647
H68	H	-3.481161	-0.955955	-0.147013
C69	C	-4.224390	-0.147427	-0.631424
C70	C	-4.157027	-0.056444	-0.553702
C71	C	-4.325462	-0.062189	-0.503861
H72	H	-4.346125	-0.149957	-0.683070
H73	H	-4.262582	-0.210508	-0.598671
H74	H	-4.118865	0.006620	-0.586455
H75	H	-4.035316	-0.053896	-0.502035
H76	H	-4.363654	-0.125270	-0.471108
H77	H	-4.447186	-0.064722	-0.555514
H78	H	-4.279773	-0.000465	-0.451115
H79	H	-4.341366	-0.828454	-0.327233
H80	H	-3.630072	-0.445327	-0.313619
H81	H	-4.404862	-0.149351	-0.815622
H82	H	-3.792566	-0.127799	-0.995794
H83	H	-3.566591	-0.124443	-0.825245
H84	H	-3.514663	-0.126787	-0.625480
