data_functionalizedCrystal
_audit_creation_method	'MofGen! by Chris Wilmer'
_symmetry_space_group_name_H-M	'P1'
_symmetry_Int_Tables_number	1
_symmetry_cell_setting	triclinic
loop_
_symmetry_equiv_pos_as_xyz
  x,y,z
_cell_length_a	15.995350
_cell_length_b	14.519709
_cell_length_c	13.596369
_cell_angle_alpha	90.006934
_cell_angle_beta	90.001679
_cell_angle_gamma	83.586260
loop_
_atom_site_label
_atom_site_type_symbol
_atom_site_fract_x
_atom_site_fract_y
_atom_site_fract_z
O1	O	-1.111164	-0.118875	-0.081710
O2	O	-0.777831	0.214459	0.251623
O3	O	-0.444498	0.547792	0.584956
O4	O	-0.867411	-0.133554	-0.081731
O5	O	-0.534078	0.199779	0.251603
O6	O	-0.200744	0.533113	0.584936
O7	O	-0.995750	0.008036	-0.081711
O8	O	-0.662417	0.341369	0.251622
O9	O	-0.329084	0.674703	0.584956
O10	O	-0.982825	-0.260464	-0.081730
O11	O	-0.649492	0.072869	0.251604
O12	O	-0.316158	0.406202	0.584937
O13	O	-0.995738	0.008043	0.081872
O14	O	-0.662404	0.341377	0.415205
O15	O	-0.329071	0.674710	0.748539
O16	O	-0.867398	-0.133546	0.081852
O17	O	-0.534065	0.199787	0.415186
O18	O	-0.200732	0.533120	0.748519
O19	O	-1.111152	-0.118867	0.081873
O20	O	-0.777818	0.214466	0.415206
O21	O	-0.444485	0.547799	0.748539
Zn22	Zn	-0.989273	-0.126206	0.107835
Zn23	Zn	-0.655940	0.207128	0.441168
Zn24	Zn	-0.322606	0.540461	0.774501
Zn25	Zn	-0.989290	-0.126215	-0.107693
Zn26	Zn	-0.655956	0.207118	0.225641
Zn27	Zn	-0.322623	0.540451	0.558974
O28	O	-0.982812	-0.260457	0.081853
O29	O	-0.649479	0.072876	0.415186
O30	O	-0.316145	0.406210	0.748520
C31	C	-0.836209	-0.132943	0.000058
C32	C	-0.502876	0.200390	0.333392
C33	C	-0.169542	0.533723	0.666725
C34	C	-0.743256	-0.131124	0.000051
C35	C	-0.409923	0.202209	0.333384
C36	C	-0.076589	0.535543	0.666717
C37	C	-0.995142	0.042398	0.000081
C38	C	-0.661808	0.375732	0.333414
C39	C	-0.328475	0.709065	0.666747
C40	C	-0.993337	0.144776	0.000081
C41	C	-0.660003	0.478110	0.333414
C42	C	-0.326670	0.811443	0.666748
C43	C	-1.142354	-0.119478	0.000082
C44	C	-0.809020	0.213856	0.333415
C45	C	-0.475687	0.547189	0.666748
C46	C	-1.235307	-0.121297	0.000083
C47	C	-0.901973	0.212036	0.333416
C48	C	-0.568640	0.545370	0.666749
C49	C	-0.405499	-0.124590	0.000072
C50	C	-0.072165	0.208743	0.333405
C51	C	0.261168	0.542077	0.666738
C52	C	-0.452782	-0.023752	0.000444
C53	C	-0.119448	0.309581	0.333777
C54	C	0.213885	0.642914	0.667110
C55	C	-0.549475	-0.025572	0.000068
C56	C	-0.216141	0.307761	0.333401
C57	C	0.117192	0.641094	0.666735
C58	C	-0.573064	-0.127831	0.000062
C59	C	-0.239731	0.205502	0.333395
C60	C	0.093603	0.538836	0.666728
C61	C	-0.532059	-0.177572	-0.093352
C62	C	-0.198725	0.155761	0.239982
C63	C	0.134608	0.489095	0.573315
C64	C	-0.435419	-0.175039	-0.093423
C65	C	-0.102086	0.158295	0.239911
C66	C	0.231248	0.491628	0.573244
C67	C	-0.435069	-0.177114	0.092601
C68	C	-0.101735	0.156220	0.425935
C69	C	0.231598	0.489553	0.759268
C70	C	-0.532014	-0.177090	0.093829
C71	C	-0.198681	0.156244	0.427162
C72	C	0.134653	0.489577	0.760496
C73	C	-0.667764	-0.129668	0.000053
C74	C	-0.334431	0.203665	0.333386
C75	C	-0.001098	0.536999	0.666720
C76	C	-0.310798	-0.122756	0.000074
C77	C	0.022535	0.210577	0.333407
C78	C	0.355869	0.543911	0.666741
C79	C	-0.983421	-0.294819	0.000059
C80	C	-0.650088	0.038514	0.333393
C81	C	-0.316754	0.371847	0.666726
C82	C	-0.985226	-0.397197	0.000052
C83	C	-0.651893	-0.063864	0.333386
C84	C	-0.318559	0.269469	0.666719
N85	N	-0.989267	-0.126198	0.254927
N86	N	-0.655934	0.207135	0.588260
N87	N	-0.322601	0.540468	0.921593
C88	C	-0.986691	0.519660	0.000055
C89	C	-0.653358	0.852993	0.333388
C90	C	-0.320024	1.186327	0.666721
C91	C	-0.988537	0.415355	0.000062
C92	C	-0.655203	0.748689	0.333396
C93	C	-0.321870	1.082022	0.666729
C94	C	-0.990014	0.332221	0.000069
C95	C	-0.656680	0.665555	0.333402
C96	C	-0.323347	0.998888	0.666735
C97	C	-0.991859	0.227910	0.000075
C98	C	-0.658526	0.561244	0.333408
C99	C	-0.325193	0.894577	0.666741
N100	N	-0.989302	-0.126215	-0.254785
N101	N	-0.655968	0.207118	0.078549
N102	N	-0.322635	0.540451	0.411882
C103	C	-0.989289	-0.126216	0.656218
C104	C	-0.655955	0.207117	0.989551
C105	C	-0.322622	0.540450	1.322884
C106	C	-0.989280	-0.126215	0.544566
C107	C	-0.655947	0.207119	0.877900
C108	C	-0.322614	0.540452	1.211233
C109	C	-0.989278	-0.126208	0.455576
C110	C	-0.655945	0.207125	0.788909
C111	C	-0.322612	0.540459	1.122242
C112	C	-0.989269	-0.126205	0.343917
C113	C	-0.655936	0.207129	0.677251
C114	C	-0.322603	0.540462	1.010584
H115	H	-0.577840	0.013526	0.067031
H116	H	-0.244506	0.346860	0.400364
H117	H	0.088827	0.680193	0.733698
F118	F	-0.408160	-0.134018	0.185150
F119	F	-0.074827	0.199315	0.518483
F120	F	0.258507	0.532649	0.851816
F121	F	-0.567557	-0.129555	0.184156
F122	F	-0.234224	0.203779	0.517490
F123	F	0.099109	0.537112	0.850823
F124	F	-0.393411	-0.271804	-0.098970
F125	F	-0.060077	0.061530	0.234363
F126	F	0.273256	0.394863	0.567696
F127	F	-0.428482	0.028936	0.088006
F128	F	-0.095149	0.362269	0.421339
F129	F	0.238184	0.695603	0.754673
F130	F	-0.550687	-0.275761	-0.097916
F131	F	-0.217354	0.057572	0.235417
F132	F	0.115979	0.390905	0.568750
F133	F	-0.427096	0.028691	-0.086622
F134	F	-0.093762	0.362025	0.246711
F135	F	0.239571	0.695358	0.580045
H136	H	-0.577279	0.013785	-0.067006
H137	H	-0.243946	0.347118	0.266327
H138	H	0.089388	0.680451	0.599661
F139	F	-0.569083	-0.132425	-0.184216
F140	F	-0.235749	0.200909	0.149117
F141	F	0.097584	0.534242	0.482451
F142	F	-0.411422	-0.127635	-0.184687
F143	F	-0.078089	0.205698	0.148646
F144	F	0.255244	0.539032	0.481979
H145	H	-0.547490	-0.251660	0.099467
H146	H	-0.214157	0.081674	0.432800
H147	H	0.119176	0.415007	0.766134
H148	H	-0.403419	-0.251460	0.093229
H149	H	-0.070085	0.081873	0.426562
H150	H	0.263248	0.415206	0.759895
