data_functionalizedCrystal
_audit_creation_method	'MofGen! by Chris Wilmer'
_symmetry_space_group_name_H-M	'P1'
_symmetry_Int_Tables_number	1
_symmetry_cell_setting	triclinic
loop_
_symmetry_equiv_pos_as_xyz
  x,y,z
_cell_length_a	16.109301
_cell_length_b	9.198806
_cell_length_c	16.109301
_cell_angle_alpha	90.004871
_cell_angle_beta	83.461532
_cell_angle_gamma	90.001596
loop_
_atom_site_label
_atom_site_type_symbol
_atom_site_fract_x
_atom_site_fract_y
_atom_site_fract_z
O1	O	1.103131	0.120817	0.106867
O2	O	1.436465	0.454151	0.440200
O3	O	1.769798	0.787484	0.773533
O4	O	0.861069	0.120838	0.120166
O5	O	1.194403	0.454172	0.453499
O6	O	1.527736	0.787505	0.786832
O7	O	0.988750	0.120812	-0.007515
O8	O	1.322083	0.454146	0.325819
O9	O	1.655417	0.787479	0.659152
O10	O	0.975451	0.120843	0.234547
O11	O	1.308784	0.454176	0.567880
O12	O	1.642117	0.787510	0.901214
O13	O	0.988740	-0.120973	-0.007516
O14	O	1.322073	0.212361	0.325818
O15	O	1.655407	0.545694	0.659151
O16	O	0.861059	-0.120947	0.120165
O17	O	1.194393	0.212387	0.453498
O18	O	1.527726	0.545720	0.786831
O19	O	1.103121	-0.120968	0.106866
O20	O	1.436455	0.212365	0.440199
O21	O	1.769788	0.545699	0.773532
Cu22	Cu	0.982089	-0.143034	0.113515
Cu23	Cu	1.315423	0.190299	0.446848
Cu24	Cu	1.648756	0.523632	0.780182
Cu25	Cu	0.982101	0.142905	0.113516
Cu26	Cu	1.315435	0.476238	0.446850
Cu27	Cu	1.648768	0.809571	0.780183
O28	O	0.975441	-0.120942	0.234546
O29	O	1.308774	0.212391	0.567880
O30	O	1.642107	0.545725	0.901213
C31	C	0.830089	-0.000052	0.119627
C32	C	1.163423	0.333282	0.452960
C33	C	1.496756	0.666615	0.786293
C34	C	0.737794	-0.000044	0.118011
C35	C	1.071127	0.333289	0.451345
C36	C	1.404461	0.666622	0.784678
N37	N	0.982087	-0.344148	0.113514
N38	N	1.315420	-0.010815	0.446847
N39	N	1.648754	0.322518	0.780181
C40	C	0.428796	-0.000061	0.188494
C41	C	0.762129	0.333273	0.521828
C42	C	1.095463	0.666606	0.855161
C43	C	0.515516	-0.000052	0.190020
C44	C	0.848849	0.333281	0.523353
C45	C	1.182183	0.666615	0.856686
C46	C	0.535389	-0.000052	0.038531
C47	C	0.868723	0.333281	0.371864
C48	C	1.202056	0.666615	0.705198
C49	C	0.448671	-0.000050	0.037007
C50	C	0.782004	0.333283	0.370340
C51	C	1.115337	0.666617	0.703673
C52	C	0.395376	-0.000062	0.111991
C53	C	0.728709	0.333271	0.445324
C54	C	1.062042	0.666605	0.778657
C55	C	0.568815	-0.000055	0.115041
C56	C	0.902148	0.333278	0.448374
C57	C	1.235481	0.666612	0.781707
C58	C	0.662841	-0.000046	0.116694
C59	C	0.996174	0.333288	0.450027
C60	C	1.329507	0.666621	0.783361
C61	C	0.301344	-0.000068	0.110338
C62	C	0.634677	0.333265	0.443671
C63	C	0.968010	0.666598	0.777004
C64	C	1.030143	-0.416344	0.161299
C65	C	1.363477	-0.083011	0.494632
C66	C	1.696810	0.250323	0.827966
C67	C	1.030156	-0.583756	0.161298
C68	C	1.363489	-0.250423	0.494631
C69	C	1.696823	0.082910	0.827965
C70	C	1.134101	-0.000075	0.107405
C71	C	1.467434	0.333259	0.440738
C72	C	1.800768	0.666592	0.774072
C73	C	1.226396	-0.000073	0.109020
C74	C	1.559730	0.333261	0.442353
C75	C	1.893063	0.666594	0.775687
C76	C	0.988206	-0.000081	-0.038490
C77	C	1.321540	0.333252	0.294843
C78	C	1.654873	0.666586	0.628177
C79	C	0.986591	-0.000083	-0.130785
C80	C	1.319924	0.333250	0.202548
C81	C	1.653258	0.666584	0.535881
N82	N	0.982110	0.344019	0.113511
N83	N	1.315443	0.677352	0.446844
N84	N	1.648777	1.010685	0.780178
C85	C	1.058599	-0.000066	-0.353058
C86	C	1.391932	0.333267	-0.019724
C87	C	1.725265	0.666601	0.313609
C88	C	1.057075	-0.000054	-0.439778
C89	C	1.390408	0.333279	-0.106445
C90	C	1.723741	0.666613	0.226888
C91	C	0.905586	-0.000046	-0.419904
C92	C	1.238919	0.333287	-0.086571
C93	C	1.572253	0.666620	0.246763
C94	C	0.907111	-0.000048	-0.333185
C95	C	1.240444	0.333285	0.000148
C96	C	1.573778	0.666618	0.333481
C97	C	0.983620	-0.000065	-0.299765
C98	C	1.316953	0.333268	0.033569
C99	C	1.650286	0.666601	0.366902
C100	C	0.980571	-0.000052	-0.473204
C101	C	1.313904	0.333282	-0.139871
C102	C	1.647237	0.666615	0.193463
C103	C	0.978918	-0.000038	-0.567230
C104	C	1.312251	0.333295	-0.233897
C105	C	1.645584	0.666628	0.099437
C106	C	0.985273	-0.000076	-0.205733
C107	C	1.318607	0.333258	0.127601
C108	C	1.651940	0.666591	0.460934
C109	C	0.975984	-0.000046	0.265522
C110	C	1.309318	0.333288	0.598855
C111	C	1.642651	0.666621	0.932188
C112	C	0.977599	-0.000034	0.357817
C113	C	1.310933	0.333299	0.691150
C114	C	1.644266	0.666633	1.024484
H115	H	0.385405	-0.000069	0.249551
H116	H	0.718738	0.333264	0.582885
H117	H	1.052072	0.666597	0.916218
H118	H	1.120897	-0.000077	-0.325850
H119	H	1.454230	0.333256	0.007483
H120	H	1.787564	0.666590	0.340817
H121	H	1.118130	-0.000051	-0.483167
H122	H	1.451464	0.333282	-0.149833
H123	H	1.784797	0.666615	0.183500
N124	N	0.823069	-0.000034	-0.455951
N125	N	1.156402	0.333299	-0.122618
N126	N	1.489736	0.666632	0.210716
H127	H	0.833479	-0.000039	-0.518974
H128	H	1.166812	0.333295	-0.185640
H129	H	1.500145	0.666628	0.147693
H130	H	0.790259	-0.089667	-0.436456
H131	H	1.123593	0.243667	-0.103123
H132	H	1.456926	0.577000	0.230210
N133	N	1.084640	-0.334064	0.215487
N134	N	1.417974	-0.000731	0.548821
N135	N	1.751307	0.332602	0.882154
H136	H	1.076909	-0.226133	0.207805
H137	H	1.410242	0.107200	0.541138
H138	H	1.743575	0.440533	0.874471
H139	H	1.068376	-0.360584	0.275991
H140	H	1.401710	-0.027250	0.609324
H141	H	1.735043	0.306083	0.942658
N142	N	0.826232	-0.000059	-0.275705
N143	N	1.159565	0.333275	0.057628
N144	N	1.492898	0.666608	0.390961
H145	H	0.823489	-0.089689	-0.239287
H146	H	1.156822	0.243644	0.094046
H147	H	1.490155	0.576978	0.427379
H148	H	0.823535	0.089630	-0.239332
H149	H	1.156869	0.422963	0.094001
H150	H	1.490202	0.756297	0.427335
N151	N	0.551563	-0.000035	0.272534
N152	N	0.884896	0.333299	0.605867
N153	N	1.218230	0.666632	0.939201
H154	H	0.504640	-0.000037	0.319801
H155	H	0.837973	0.333296	0.653134
H156	H	1.171307	0.666629	0.986468
H157	H	0.587114	-0.089661	0.276466
H158	H	0.920447	0.243672	0.609800
H159	H	1.253780	0.577005	0.943133
N160	N	0.592868	-0.000056	-0.042344
N161	N	0.926201	0.333277	0.290990
N162	N	1.259535	0.666610	0.624323
H163	H	0.629296	0.089568	-0.045086
H164	H	0.962629	0.422901	0.288247
H165	H	1.295963	0.756235	0.621580
H166	H	0.629231	-0.089751	-0.045042
H167	H	0.962565	0.243582	0.288292
H168	H	1.295898	0.576916	0.621625
N169	N	0.412617	-0.000044	-0.045512
N170	N	0.745951	0.333290	0.287821
N171	N	1.079284	0.666623	0.621155
H172	H	0.459537	-0.000047	-0.092783
H173	H	0.792870	0.333286	0.240551
H174	H	1.126203	0.666620	0.573884
H175	H	0.377067	-0.089674	-0.049446
H176	H	0.710400	0.243659	0.283887
H177	H	1.043734	0.576993	0.617220
H178	H	1.071294	-0.645843	0.202213
H179	H	1.404628	-0.312510	0.535546
H180	H	1.737961	0.020823	0.868880
N181	N	0.927605	-0.426433	0.059313
N182	N	1.260938	-0.093100	0.392646
N183	N	1.594271	0.240234	0.725980
H184	H	0.887024	-0.489594	0.095628
H185	H	1.220358	-0.156261	0.428961
H186	H	1.553691	0.177072	0.762295
H187	H	0.895589	-0.355160	0.027431
H188	H	1.228923	-0.021827	0.360765
H189	H	1.562256	0.311506	0.694098
N190	N	0.927611	-0.573756	0.059313
N191	N	1.260945	-0.240423	0.392646
N192	N	1.594278	0.092910	0.725980
H193	H	0.943858	-0.600176	-0.001213
H194	H	1.277191	-0.266842	0.332120
H195	H	1.610524	0.066491	0.665454
H196	H	0.867152	-0.600214	0.075913
H197	H	1.200485	-0.266881	0.409246
H198	H	1.533819	0.066453	0.742580
