data_functionalizedCrystal
_audit_creation_method	'MofGen! by Chris Wilmer'
_symmetry_space_group_name_H-M	'P1'
_symmetry_Int_Tables_number	1
_symmetry_cell_setting	triclinic
loop_
_symmetry_equiv_pos_as_xyz
  x,y,z
_cell_length_a	21.395362
_cell_length_b	13.031981
_cell_length_c	21.395356
_cell_angle_alpha	82.790965
_cell_angle_beta	89.957023
_cell_angle_gamma	97.204883
loop_
_atom_site_label
_atom_site_type_symbol
_atom_site_fract_x
_atom_site_fract_y
_atom_site_fract_z
Zn1	Zn	0.926276	-0.415708	-0.322907
Zn2	Zn	1.259609	-0.082374	0.010426
Zn3	Zn	1.592942	0.250959	0.343759
Zn4	Zn	0.912902	-0.590500	-0.204810
Zn5	Zn	1.246235	-0.257167	0.128523
Zn6	Zn	1.579569	0.076166	0.461857
Zn7	Zn	0.821486	-0.415784	-0.218103
Zn8	Zn	1.154820	-0.082451	0.115231
Zn9	Zn	1.488153	0.250882	0.448564
Zn10	Zn	0.808183	-0.590494	-0.309515
Zn11	Zn	1.141516	-0.257161	0.023818
Zn12	Zn	1.474849	0.076173	0.357152
O13	O	0.867212	-0.503122	-0.263834
O14	O	1.200545	-0.169788	0.069500
O15	O	1.533878	0.163545	0.402833
O16	O	1.012182	-0.438865	-0.307283
O17	O	1.345515	-0.105531	0.026050
O18	O	1.678848	0.227802	0.359384
O19	O	0.900747	-0.567359	-0.118893
O20	O	1.234080	-0.234025	0.214441
O21	O	1.567413	0.099308	0.547774
O22	O	0.846551	-0.269506	-0.243173
O23	O	1.179885	0.063827	0.090160
O24	O	1.513218	0.397161	0.423494
O25	O	1.002356	-0.567284	-0.220517
O26	O	1.335690	-0.233951	0.112816
O27	O	1.669023	0.099382	0.446149
O28	O	0.923540	-0.269450	-0.320172
O29	O	1.256873	0.063884	0.013161
O30	O	1.590206	0.397217	0.346494
O31	O	0.833584	-0.438995	-0.128659
O32	O	1.166917	-0.105662	0.204675
O33	O	1.500250	0.227671	0.538008
O34	O	0.732041	-0.438989	-0.230187
O35	O	1.065375	-0.105656	0.103146
O36	O	1.398708	0.227677	0.436480
O37	O	0.823877	-0.567273	-0.398972
O38	O	1.157210	-0.233940	-0.065639
O39	O	1.490544	0.099393	0.267694
O40	O	0.722267	-0.567348	-0.297347
O41	O	1.055600	-0.234014	0.035986
O42	O	1.388934	0.099319	0.369319
O43	O	0.910639	-0.438859	-0.408811
O44	O	1.243973	-0.105525	-0.075478
O45	O	1.577306	0.227808	0.257855
O46	O	0.887846	-0.736768	-0.207532
O47	O	1.221180	-0.403434	0.125802
O48	O	1.554513	-0.070101	0.459135
O49	O	0.810909	-0.736763	-0.284458
O50	O	1.144243	-0.403430	0.048875
O51	O	1.477576	-0.070096	0.382209
C52	C	0.704420	-0.503177	-0.263757
C53	C	1.037753	-0.169844	0.069576
C54	C	1.371086	0.163490	0.402910
C55	C	0.634775	-0.503226	-0.263737
C56	C	0.968108	-0.169892	0.069596
C57	C	1.301441	0.163441	0.402930
C58	C	0.846500	-0.774691	-0.243113
C59	C	1.179833	-0.441358	0.090221
C60	C	1.513167	-0.108024	0.423554
C61	C	0.837697	-0.890870	-0.234269
C62	C	1.171030	-0.557536	0.099064
C63	C	1.504363	-0.224203	0.432397
C64	C	0.596982	-0.570151	-0.298641
C65	C	0.930315	-0.236817	0.034693
C66	C	1.263649	0.096516	0.368026
C67	C	0.531548	-0.570125	-0.298670
C68	C	0.864882	-0.236792	0.034663
C69	C	1.198215	0.096542	0.367996
C70	C	0.503910	-0.503185	-0.263785
C71	C	0.837243	-0.169852	0.069549
C72	C	1.170576	0.163481	0.402882
C73	C	0.541711	-0.436248	-0.228879
C74	C	0.875045	-0.102914	0.104454
C75	C	1.208378	0.230419	0.437788
C76	C	0.607144	-0.436268	-0.228855
C77	C	0.940477	-0.102934	0.104478
C78	C	1.273811	0.230399	0.437811
C79	C	0.400824	-0.494780	-0.208020
C80	C	0.734158	-0.161447	0.125313
C81	C	1.067491	0.171887	0.458647
C82	C	0.335392	-0.494767	-0.208042
C83	C	0.668726	-0.161434	0.125291
C84	C	1.002059	0.171899	0.458625
C85	C	0.302094	-0.503117	-0.263859
C86	C	0.635427	-0.169784	0.069474
C87	C	0.968761	0.163549	0.402808
C88	C	0.334234	-0.511502	-0.319654
C89	C	0.667568	-0.178169	0.013680
C90	C	1.000901	0.155165	0.347013
C91	C	0.399667	-0.511522	-0.319630
C92	C	0.733000	-0.178189	0.013704
C93	C	1.066333	0.155145	0.347037
C94	C	0.432959	-0.503156	-0.263807
C95	C	0.766293	-0.169822	0.069526
C96	C	1.099626	0.163511	0.402860
C97	C	0.193350	-0.570018	-0.298798
C98	C	0.526684	-0.236685	0.034535
C99	C	0.860017	0.096649	0.367869
C100	C	0.127916	-0.569985	-0.298830
C101	C	0.461250	-0.236652	0.034504
C102	C	0.794583	0.096682	0.367837
C103	C	0.138080	-0.436113	-0.229032
C104	C	0.471414	-0.102780	0.104301
C105	C	0.804747	0.230554	0.437634
C106	C	0.203513	-0.436140	-0.229007
C107	C	0.536847	-0.102807	0.104326
C108	C	0.870180	0.230526	0.437660
C109	C	0.231144	-0.503098	-0.263888
C110	C	0.564478	-0.169765	0.069445
C111	C	0.897811	0.163568	0.402778
C112	C	0.871839	-0.942554	-0.268462
C113	C	1.205173	-0.609221	0.064872
C114	C	1.538506	-0.275888	0.398205
C115	C	0.862742	-1.062631	-0.259322
C116	C	1.196075	-0.729298	0.074011
C117	C	1.529408	-0.395964	0.407344
C118	C	1.030639	-0.503067	-0.263911
C119	C	1.363972	-0.169733	0.069422
C120	C	1.697306	0.163600	0.402755
C121	C	1.100282	-0.503043	-0.263944
C122	C	1.433616	-0.169710	0.069389
C123	C	1.766949	0.163623	0.402722
C124	C	0.867266	-0.503057	-0.427262
C125	C	1.200599	-0.169723	-0.093929
C126	C	1.533933	0.163610	0.239405
C127	C	0.867289	-0.503029	-0.496905
C128	C	1.200622	-0.169696	-0.163572
C129	C	1.533956	0.163638	0.169761
C130	C	0.888021	-0.230492	-0.284649
C131	C	1.221355	0.102842	0.048684
C132	C	1.554688	0.436175	0.382017
C133	C	0.896889	-0.114313	-0.293520
C134	C	1.230222	0.219020	0.039814
C135	C	1.563556	0.552354	0.373147
C136	C	0.832329	-0.436183	-0.534694
C137	C	1.165662	-0.102850	-0.201361
C138	C	1.498995	0.230484	0.131972
C139	C	0.832328	-0.436163	-0.600131
C140	C	1.165661	-0.102830	-0.266798
C141	C	1.498995	0.230503	0.066535
C142	C	0.867300	-0.502979	-0.627778
C143	C	1.200633	-0.169646	-0.294444
C144	C	1.533966	0.163687	0.038889
C145	C	0.902262	-0.569839	-0.589980
C146	C	1.235595	-0.236505	-0.256646
C147	C	1.568929	0.096828	0.076687
C148	C	0.902256	-0.569864	-0.524544
C149	C	1.235590	-0.236530	-0.191210
C150	C	1.568923	0.096803	0.142123
C151	C	0.923129	-0.511171	-0.730859
C152	C	1.256463	-0.177838	-0.397525
C153	C	1.589796	0.155496	-0.064192
C154	C	0.923136	-0.511139	-0.796294
C155	C	1.256470	-0.177805	-0.462961
C156	C	1.589803	0.155528	-0.129628
C157	C	0.867315	-0.502909	-0.829604
C158	C	1.200649	-0.169575	-0.496271
C159	C	1.533982	0.163758	-0.162937
C160	C	0.811487	-0.494689	-0.797472
C161	C	1.144821	-0.161356	-0.464138
C162	C	1.478154	0.171978	-0.130805
C163	C	0.811482	-0.494714	-0.732036
C164	C	1.144815	-0.161381	-0.398702
C165	C	1.478149	0.171953	-0.065369
C166	C	0.867309	-0.502960	-0.698731
C167	C	1.200642	-0.169627	-0.365398
C168	C	1.533976	0.163706	-0.032065
C169	C	0.832351	-0.436038	-0.938347
C170	C	1.165685	-0.102705	-0.605014
C171	C	1.499018	0.230629	-0.271681
C172	C	0.832349	-0.436026	-1.003785
C173	C	1.165682	-0.102693	-0.670452
C174	C	1.499016	0.230641	-0.337118
C175	C	0.902289	-0.569696	-0.993632
C176	C	1.235622	-0.236362	-0.660299
C177	C	1.568955	0.096971	-0.326966
C178	C	0.902285	-0.569713	-0.928196
C179	C	1.235618	-0.236380	-0.594862
C180	C	1.568952	0.096953	-0.261529
C181	C	0.867318	-0.502879	-0.900557
C182	C	1.200651	-0.169545	-0.567224
C183	C	1.533984	0.163788	-0.233891
C184	C	0.867199	-0.503111	-0.101047
C185	C	1.200533	-0.169777	0.232286
C186	C	1.533866	0.163556	0.565620
C187	C	0.867320	-0.502844	-0.031426
C188	C	1.200653	-0.169510	0.301907
C189	C	1.533987	0.163823	0.635240
H190	H	0.619474	-0.624672	-0.327045
H191	H	0.952808	-0.291338	0.006288
H192	H	1.286141	0.041995	0.339622
H193	H	0.930728	-0.624297	-0.493776
H194	H	1.264062	-0.290963	-0.160442
H195	H	1.597395	0.042370	0.172891
F196	F	0.752074	-0.485925	-0.832917
F197	F	1.085408	-0.152591	-0.499584
F198	F	1.418741	0.180742	-0.166250
H199	H	0.307124	-0.518299	-0.365105
H200	H	0.640458	-0.184966	-0.031772
H201	H	0.973791	0.148367	0.301561
H202	H	0.968590	-0.517864	-0.703744
H203	H	1.301923	-0.184531	-0.370411
H204	H	1.635257	0.148803	-0.037077
F205	F	0.943903	-1.055968	-0.340631
F206	F	1.277236	-0.722635	-0.007297
F207	F	1.610570	-0.389301	0.326036
F208	F	0.918845	-0.884203	-0.315575
F209	F	1.252179	-0.550870	0.017758
F210	F	1.585512	-0.217537	0.351092
H211	H	0.803878	-0.381618	-0.915843
H212	H	1.137211	-0.048285	-0.582510
H213	H	1.470545	0.285048	-0.249177
F214	F	0.790682	-0.949221	-0.187165
F215	F	1.124015	-0.615887	0.146168
F216	F	1.457349	-0.282554	0.479502
F217	F	0.815724	-1.120978	-0.212215
F218	F	1.149058	-0.787645	0.121118
F219	F	1.482391	-0.454311	0.454451
F220	F	0.222760	-0.641274	-0.335925
F221	F	0.556093	-0.307941	-0.002591
F222	F	0.889426	0.025392	0.330742
F223	F	0.647368	-0.365033	-0.191705
F224	F	0.980701	-0.031700	0.141629
F225	F	1.314034	0.301633	0.474962
F226	F	0.795110	-0.365055	-0.505284
F227	F	1.128444	-0.031722	-0.171950
F228	F	1.461777	0.301612	0.161383
H229	H	0.803861	-0.381724	-0.630905
H230	H	1.137194	-0.048391	-0.297572
H231	H	1.470527	0.284943	0.035761
H232	H	0.766025	-0.488023	-0.705876
H233	H	1.099358	-0.154690	-0.372543
H234	H	1.432691	0.178643	-0.039209
F235	F	0.795121	-0.364899	-1.044001
F236	F	1.128454	-0.031566	-0.710668
F237	F	1.461787	0.301768	-0.377335
H238	H	0.097146	-0.624481	-0.327256
H239	H	0.430479	-0.291148	0.006077
H240	H	0.763813	0.042185	0.339410
H241	H	0.930765	-0.624096	-1.016141
H242	H	1.264098	-0.290763	-0.682808
H243	H	1.597432	0.042570	-0.349475
H244	H	0.930755	-0.624144	-0.897427
H245	H	1.264089	-0.290811	-0.564094
H246	H	1.597422	0.042522	-0.230760
F247	F	0.982552	-0.519895	-0.830485
F248	F	1.315885	-0.186561	-0.497152
F249	F	1.649218	0.146772	-0.163818
H250	H	0.500772	-0.624623	-0.327095
H251	H	0.834105	-0.291289	0.006238
H252	H	1.167438	0.042044	0.339571
F253	F	0.433871	-0.520441	-0.379009
F254	F	0.767204	-0.187108	-0.045676
F255	F	1.100537	0.146226	0.287658
F256	F	0.108670	-0.364865	-0.191908
F257	F	0.442003	-0.031531	0.141426
F258	F	0.775336	0.301802	0.474759
H259	H	0.234285	-0.381648	-0.200581
H260	H	0.567618	-0.048315	0.132752
H261	H	0.900952	0.285019	0.466086
F262	F	0.301192	-0.485844	-0.148661
F263	F	0.634526	-0.152511	0.184672
F264	F	0.967859	0.180823	0.518005
F265	F	0.436256	-0.485895	-0.148607
F266	F	0.769590	-0.152562	0.184726
F267	F	1.102923	0.180772	0.518059
H268	H	0.519204	-0.381743	-0.200476
H269	H	0.852537	-0.048410	0.132857
H270	H	1.185871	0.284924	0.466190
H271	H	0.930736	-0.624241	-0.612493
H272	H	1.264069	-0.290908	-0.279160
H273	H	1.597403	0.042426	0.054173
