data_functionalizedCrystal
_audit_creation_method	'MofGen! by Chris Wilmer'
_symmetry_space_group_name_H-M	'P1'
_symmetry_Int_Tables_number	1
_symmetry_cell_setting	triclinic
loop_
_symmetry_equiv_pos_as_xyz
  x,y,z
_cell_length_a	17.077404
_cell_length_b	10.685194
_cell_length_c	17.077396
_cell_angle_alpha	85.602381
_cell_angle_beta	89.980223
_cell_angle_gamma	94.372382
loop_
_atom_site_label
_atom_site_type_symbol
_atom_site_fract_x
_atom_site_fract_y
_atom_site_fract_z
Zn1	Zn	1.176173	-0.502562	-0.419884
Zn2	Zn	1.166051	-0.713607	-0.278555
Zn3	Zn	1.044903	-0.502588	-0.288630
Zn4	Zn	1.034848	-0.713514	-0.409782
O5	O	1.105494	-0.608068	-0.349213
O6	O	1.284676	-0.530585	-0.401148
O7	O	1.149953	-0.685665	-0.170042
O8	O	1.070761	-0.325988	-0.314486
O9	O	1.277239	-0.685639	-0.297314
O10	O	1.167204	-0.325969	-0.410918
O11	O	1.060946	-0.530630	-0.177445
O12	O	0.933724	-0.530540	-0.304690
O13	O	1.053623	-0.685481	-0.520972
O14	O	0.926337	-0.685507	-0.393700
O15	O	1.157454	-0.530495	-0.528394
O16	O	1.140203	-0.890191	-0.287518
O17	O	1.043809	-0.890123	-0.383930
C18	C	0.901549	-0.608017	-0.349193
C19	C	0.814298	-0.608026	-0.349201
C20	C	0.434647	-0.688940	-0.395495
C21	C	0.516628	-0.688923	-0.395484
C22	C	0.561446	-0.608101	-0.349224
C23	C	0.524278	-0.527300	-0.302966
C24	C	0.442297	-0.527324	-0.302973
C25	C	0.695150	-0.527254	-0.302955
C26	C	0.777136	-0.527228	-0.302948
C27	C	0.769481	-0.688853	-0.395466
C28	C	0.687501	-0.688877	-0.395473
C29	C	0.650338	-0.608074	-0.349216
C30	C	1.089837	-0.935947	-0.333552
C31	C	1.083211	-1.076215	-0.326878
C32	C	1.310236	-0.608120	-0.349234
C33	C	1.397484	-0.608142	-0.349243
C34	C	1.105546	-0.607975	-0.553962
C35	C	1.105568	-0.607935	-0.641214
C36	C	1.121233	-0.278909	-0.364953
C37	C	1.127940	-0.138641	-0.371660
C38	C	1.159635	-0.527228	-0.686070
C39	C	1.159646	-0.527186	-0.768052
C40	C	1.105594	-0.607859	-0.805177
C41	C	1.051521	-0.688570	-0.760314
C42	C	1.051507	-0.688605	-0.678334
C43	C	1.051557	-0.688494	-0.931188
C44	C	1.051572	-0.688462	-1.013174
C45	C	1.159696	-0.527075	-1.020907
C46	C	1.159681	-0.527110	-0.938926
C47	C	1.105610	-0.607823	-0.894069
C48	C	1.105492	-0.608070	-0.145265
C49	C	1.105639	-0.607754	-0.058031
H50	H	0.799742	-0.754643	-0.433132
Cl51	Cl	1.016246	-1.159376	-0.259800
Cl52	Cl	1.227594	-0.425810	-0.639407
Cl53	Cl	1.227651	-0.425775	-0.824437
H54	H	1.203700	-0.461426	-0.908702
H55	H	1.203722	-0.461353	-1.057433
Cl56	Cl	0.983611	-0.789867	-1.059845
Cl57	Cl	0.983579	-0.789963	-0.874798
H58	H	0.664895	-0.461453	-0.265289
Cl59	Cl	0.983567	-0.789984	-0.806985
Cl60	Cl	0.395578	-0.425751	-0.244820
Cl61	Cl	0.378313	-0.790544	-0.453659
Cl62	Cl	0.563344	-0.790505	-0.453632
Cl63	Cl	0.983532	-0.790067	-0.621943
H64	H	0.813625	-0.461404	-0.265288
Cl65	Cl	0.580619	-0.425699	-0.244807
Cl66	Cl	0.631160	-0.790476	-0.453635
H67	H	1.171305	-1.084779	-0.415109
