data_functionalizedCrystal
_audit_creation_method	'MofGen! by Chris Wilmer'
_symmetry_space_group_name_H-M	'P1'
_symmetry_Int_Tables_number	1
_symmetry_cell_setting	triclinic
loop_
_symmetry_equiv_pos_as_xyz
  x,y,z
_cell_length_a	23.532407
_cell_length_b	23.532407
_cell_length_c	22.610064
_cell_angle_alpha	89.999397
_cell_angle_beta	89.997161
_cell_angle_gamma	82.848678
loop_
_atom_site_label
_atom_site_type_symbol
_atom_site_fract_x
_atom_site_fract_y
_atom_site_fract_z
O1	O	0.755263	0.069127	-0.049117
O2	O	1.255263	0.569127	0.450883
O3	O	0.589400	0.079130	-0.049135
O4	O	1.089400	0.579130	0.450865
O5	O	0.677333	-0.008803	-0.049114
O6	O	1.177333	0.491197	0.450886
O7	O	0.667330	0.157060	-0.049137
O8	O	1.167330	0.657060	0.450863
O9	O	0.677318	-0.008790	0.049255
O10	O	1.177318	0.491210	0.549255
O11	O	0.589385	0.079143	0.049234
O12	O	1.089385	0.579143	0.549234
O13	O	0.755248	0.069140	0.049252
O14	O	1.255248	0.569140	0.549252
Zn15	Zn	0.672314	0.074144	0.064862
Zn16	Zn	1.172314	0.574144	0.564862
Zn17	Zn	0.672334	0.074127	-0.064744
Zn18	Zn	1.172334	0.574127	0.435256
O19	O	0.667315	0.157073	0.049232
O20	O	1.167315	0.657073	0.549232
C21	C	0.568176	0.078882	0.000048
C22	C	1.068176	0.578882	0.500048
C23	C	0.504959	0.078116	0.000041
C24	C	1.004959	0.578116	0.500041
C25	C	0.105856	0.125350	0.000061
C26	C	0.605856	0.625350	0.500061
C27	C	0.046456	0.124638	0.000065
C28	C	0.546456	0.624638	0.500065
O29	O	0.009711	0.168424	0.000081
O30	O	0.509711	0.668424	0.500081
N31	N	0.023830	0.072362	0.000071
N32	N	0.523830	0.572362	0.500071
C33	C	0.060607	0.020794	0.000080
C34	C	0.560607	0.520794	0.500080
O35	O	0.035908	-0.023737	0.000086
O36	O	0.535908	0.476263	0.500086
C37	C	0.120006	0.021506	0.000080
C38	C	0.620006	0.521506	0.500080
C39	C	0.142629	0.073785	0.000068
C40	C	0.642629	0.573785	0.500068
C41	C	0.128479	0.177625	0.000050
C42	C	0.628479	0.677625	0.500050
C43	C	0.187876	0.178336	0.000045
C44	C	0.687876	0.678336	0.500045
C45	C	0.224649	0.126772	0.000052
C46	C	0.724649	0.626772	0.500052
C47	C	0.202025	0.074497	0.000063
C48	C	0.702025	0.574497	0.500063
C49	C	0.156783	-0.030062	0.000093
C50	C	0.656783	0.469938	0.500093
C51	C	0.216185	-0.029345	0.000094
C52	C	0.716185	0.470655	0.500094
C53	C	0.238808	0.022934	0.000082
C54	C	0.738808	0.522934	0.500082
C55	C	0.298194	0.023643	0.000065
C56	C	0.798194	0.523643	0.500065
N57	N	0.320820	0.075920	0.000059
N58	N	0.820820	0.575920	0.500059
C59	C	0.284048	0.127484	0.000052
C60	C	0.784048	0.627484	0.500052
C61	C	-0.064135	0.019302	0.000080
C62	C	0.435865	0.519302	0.500080
C63	C	-0.123533	0.018589	0.000075
C64	C	0.376467	0.518589	0.500075
C65	C	-0.137680	0.122434	0.000061
C66	C	0.362320	0.622434	0.500061
C67	C	-0.078281	0.123146	0.000062
C68	C	0.421719	0.623146	0.500062
C69	C	-0.041509	0.071578	0.000074
C70	C	0.458491	0.571578	0.500074
C71	C	0.408784	0.128974	0.000042
C72	C	0.908784	0.628974	0.500042
C73	C	0.468186	0.129680	0.000034
C74	C	0.968186	0.629680	0.500034
C75	C	0.482329	0.025836	0.000051
C76	C	0.982329	0.525836	0.500051
C77	C	0.422932	0.025129	0.000055
C78	C	0.922932	0.525129	0.500055
C79	C	0.386160	0.076702	0.000052
C80	C	0.886160	0.576702	0.500052
O81	O	0.334974	-0.020119	0.000052
O82	O	0.834974	0.479881	0.500052
O83	O	0.308755	0.172007	0.000054
O84	O	0.808755	0.672007	0.500054
C85	C	0.677071	-0.030013	0.000072
C86	C	1.177071	0.469987	0.500072
C87	C	0.676305	-0.093230	0.000076
C88	C	1.176305	0.406770	0.500076
C89	C	0.723539	-0.492333	0.000049
C90	C	1.223539	0.007667	0.500049
C91	C	0.722827	-0.551733	0.000044
C92	C	1.222827	-0.051733	0.500044
O93	O	0.766613	-0.588478	0.000027
O94	O	1.266613	-0.088478	0.500027
N95	N	0.670551	-0.574359	0.000039
N96	N	1.170551	-0.074359	0.500039
C97	C	0.618983	-0.537582	0.000032
C98	C	1.118983	-0.037582	0.500032
O99	O	0.574452	-0.562281	0.000027
O100	O	1.074452	-0.062281	0.500027
C101	C	0.619695	-0.478182	0.000033
C102	C	1.119695	0.021818	0.500033
C103	C	0.671974	-0.455560	0.000044
C104	C	1.171974	0.044440	0.500044
C105	C	0.775814	-0.469710	0.000060
C106	C	1.275814	0.030290	0.500060
C107	C	0.776525	-0.410313	0.000065
C108	C	1.276525	0.089687	0.500065
C109	C	0.724961	-0.373540	0.000060
C110	C	1.224961	0.126460	0.500060
C111	C	0.672685	-0.396164	0.000050
C112	C	1.172685	0.103836	0.500050
C113	C	0.568127	-0.441406	0.000022
C114	C	1.068127	0.058594	0.500022
C115	C	0.568844	-0.382004	0.000021
C116	C	1.068844	0.117996	0.500021
C117	C	0.621123	-0.359381	0.000033
C118	C	1.121123	0.140619	0.500033
C119	C	0.621832	-0.299995	0.000050
C120	C	1.121832	0.200005	0.500050
N121	N	0.674109	-0.277368	0.000056
N122	N	1.174109	0.222632	0.500056
C123	C	0.725673	-0.314141	0.000061
C124	C	1.225673	0.185859	0.500061
C125	C	0.617491	-0.662324	0.000031
C126	C	1.117491	-0.162324	0.500031
C127	C	0.616778	-0.721722	0.000034
C128	C	1.116778	-0.221722	0.500034
C129	C	0.720623	-0.735869	0.000045
C130	C	1.220623	-0.235869	0.500045
C131	C	0.721335	-0.676470	0.000046
C132	C	1.221335	-0.176470	0.500046
C133	C	0.669767	-0.639698	0.000036
C134	C	1.169767	-0.139698	0.500036
C135	C	0.727163	-0.189405	0.000073
C136	C	1.227163	0.310595	0.500073
C137	C	0.727869	-0.130003	0.000081
C138	C	1.227869	0.369997	0.500081
C139	C	0.624025	-0.115860	0.000067
C140	C	1.124025	0.384140	0.500067
C141	C	0.623318	-0.175257	0.000062
C142	C	1.123318	0.324743	0.500062
C143	C	0.674891	-0.212029	0.000063
C144	C	1.174891	0.287971	0.500063
O145	O	0.578070	-0.263215	0.000065
O146	O	1.078070	0.236785	0.500065
O147	O	0.770196	-0.289433	0.000058
O148	O	1.270196	0.210567	0.500058
C149	C	0.776472	0.069388	0.000069
C150	C	1.276472	0.569388	0.500069
C151	C	0.839689	0.070154	0.000071
C152	C	1.339689	0.570154	0.500071
C153	C	0.667577	0.178283	0.000045
C154	C	1.167577	0.678283	0.500045
C155	C	0.668343	0.241500	0.000036
C156	C	1.168343	0.741500	0.500036
N157	N	0.672304	0.074155	0.153314
N158	N	1.172304	0.574155	0.653314
N159	N	0.672349	0.074111	-0.153196
N160	N	1.172349	0.574111	0.346804
C161	C	0.711273	0.035196	0.561965
C162	C	1.211273	0.535196	1.061965
C163	C	0.711276	0.035192	0.623884
C164	C	1.211276	0.535192	1.123884
O165	O	0.744384	0.002076	0.655911
O166	O	1.244384	0.502076	1.155911
N167	N	0.672334	0.074115	0.654851
N168	N	1.172334	0.574115	1.154851
C169	C	0.633383	0.113041	0.623895
C170	C	1.133383	0.613041	1.123895
O171	O	0.600259	0.146147	0.655920
O172	O	1.100259	0.646147	1.155920
C173	C	0.633377	0.113042	0.561976
C174	C	1.133377	0.613042	1.061976
C175	C	0.672326	0.074120	0.531013
C176	C	1.172326	0.574120	1.031013
C177	C	0.750218	-0.003724	0.531001
C178	C	1.250218	0.496276	1.031001
C179	C	0.750215	-0.003719	0.469085
C180	C	1.250215	0.496281	0.969085
C181	C	0.711268	0.035206	0.438133
C182	C	1.211268	0.535206	0.938133
C183	C	0.672323	0.074125	0.469097
C184	C	1.172323	0.574125	0.969097
C185	C	0.594424	0.151965	0.531021
C186	C	1.094424	0.651965	1.031021
C187	C	0.594422	0.151962	0.469098
C188	C	1.094422	0.651962	0.969098
C189	C	0.633370	0.113040	0.438134
C190	C	1.133370	0.613040	0.938134
C191	C	0.633374	0.113054	0.376229
C192	C	1.133374	0.613054	0.876229
N193	N	0.672316	0.074131	0.345262
N194	N	1.172316	0.574131	0.845262
C195	C	0.711263	0.035207	0.376214
C196	C	1.211263	0.535207	0.876214
C197	C	0.633396	0.113035	0.753928
C198	C	1.133396	0.613035	1.253928
C199	C	0.633403	0.113037	0.815846
C200	C	1.133403	0.613037	1.315846
C201	C	0.711296	0.035187	0.815831
C202	C	1.211296	0.535187	1.315831
C203	C	0.711291	0.035188	0.753913
C204	C	1.211291	0.535188	1.253913
C205	C	0.672338	0.074112	0.722962
C206	C	1.172338	0.574112	1.222962
C207	C	0.711255	0.035220	0.246187
C208	C	1.211255	0.535220	0.746187
C209	C	0.711251	0.035230	0.184266
C210	C	1.211251	0.535230	0.684266
C211	C	0.633357	0.113078	0.184286
C212	C	1.133357	0.613078	0.684286
C213	C	0.633363	0.113071	0.246202
C214	C	1.133363	0.613071	0.746202
C215	C	0.672314	0.074137	0.277151
C216	C	1.172314	0.574137	0.777151
O217	O	0.600281	0.146152	0.344163
O218	O	1.100281	0.646152	0.844163
O219	O	0.744376	0.002101	0.344182
O220	O	1.244376	0.502101	0.844182
H221	H	0.138375	-0.072634	0.000103
H222	H	0.638375	0.427366	0.500103
O223	O	0.518033	-0.024266	-0.000047
O224	O	1.018033	0.475734	0.499953
C225	C	0.507821	-0.056046	-0.050978
C226	C	1.007821	0.443954	0.449022
H227	H	0.487350	-0.025873	-0.086594
H228	H	0.987350	0.474127	0.413406
H229	H	0.550098	-0.079126	-0.068075
H230	H	1.050098	0.420874	0.431925
H231	H	0.477760	-0.088837	-0.039452
H232	H	0.977760	0.411163	0.460548
O233	O	0.566044	-0.743789	0.000055
O234	O	1.066044	-0.243789	0.500055
C235	C	0.576464	-0.804102	0.000035
C236	C	1.076464	-0.304102	0.500035
H237	H	0.620985	-0.818302	0.018664
H238	H	1.120985	-0.318302	0.518664
H239	H	0.543026	-0.822156	0.028587
H240	H	1.043026	-0.322156	0.528587
H241	H	0.573808	-0.820618	-0.047160
H242	H	1.073808	-0.320618	0.452840
H243	H	0.601677	0.144736	0.728731
H244	H	1.101677	0.644736	1.228731
O245	O	0.209752	0.229171	0.000067
O246	O	0.709752	0.729171	0.500067
C247	C	0.164549	0.274524	0.000049
C248	C	0.664549	0.774524	0.500049
H249	H	0.124283	0.258788	0.018672
H250	H	0.624283	0.758788	0.518672
H251	H	0.176754	0.311047	0.028607
H252	H	0.676754	0.811047	0.528607
H253	H	0.156057	0.290410	-0.047145
H254	H	0.656057	0.790410	0.452855
O255	O	0.573990	-0.080053	0.000035
O256	O	1.073990	0.419947	0.500035
C257	C	0.585835	-0.022777	0.000054
C258	C	1.085835	0.477223	0.500054
H259	H	0.630560	-0.020751	-0.018559
H260	H	1.130560	0.479249	0.481441
H261	H	0.552956	0.004321	-0.028512
H262	H	1.052956	0.504321	0.471488
H263	H	0.583566	-0.005585	0.047247
H264	H	1.083566	0.494415	0.547247
H265	H	0.601648	0.144772	0.159075
H266	H	1.101648	0.644772	0.659075
H267	H	0.098544	0.219617	0.000046
H268	H	0.598544	0.719617	0.500046
H269	H	0.562700	0.183658	0.443901
H270	H	1.062700	0.683658	0.943901
H271	H	0.246123	-0.071339	0.000104
H272	H	0.746123	0.428661	0.500104
O273	O	0.567432	-0.626547	0.000108
O274	O	1.067432	-0.126547	0.500108
C275	C	0.564719	-0.591776	0.051062
C276	C	1.064719	-0.091776	0.551062
H277	H	0.609902	-0.589014	0.068051
H278	H	1.109902	-0.089014	0.568051
H279	H	0.543240	-0.547014	0.039604
H280	H	1.043240	-0.047014	0.539604
H281	H	0.538821	-0.611181	0.086734
H282	H	1.038821	-0.111181	0.586734
H283	H	0.601653	0.144770	0.271413
H284	H	1.101653	0.644770	0.771413
O285	O	0.788078	-0.041459	0.561127
O286	O	1.288078	0.458541	1.061127
C287	C	0.823054	-0.011137	0.596924
C288	C	1.323054	0.488863	1.096924
H289	H	0.800116	0.033541	0.606213
H290	H	1.300116	0.533541	1.106213
H291	H	0.832213	-0.034961	0.640460
H292	H	1.332213	0.465039	1.140460
H293	H	0.865113	-0.007474	0.573048
H294	H	1.365113	0.492526	1.073048
H295	H	0.378851	0.170970	0.000041
H296	H	0.878851	0.670970	0.500041
O297	O	0.490066	0.180518	0.000050
O298	O	0.990066	0.680518	0.500050
C299	C	0.444867	0.225875	0.000033
C300	C	0.944867	0.725875	0.500033
H301	H	0.404601	0.210146	0.018661
H302	H	0.904601	0.710146	0.518661
H303	H	0.457079	0.262399	0.028586
H304	H	0.957079	0.762399	0.528586
H305	H	0.436373	0.241758	-0.047162
H306	H	0.936373	0.741758	0.452838
O307	O	-0.056403	0.173980	0.000080
O308	O	0.443597	0.673980	0.500080
C309	C	-0.101604	0.219335	0.000057
C310	C	0.398396	0.719335	0.500057
H311	H	-0.141871	0.203604	0.018680
H312	H	0.358129	0.703604	0.518680
H313	H	-0.089398	0.255861	0.028611
H314	H	0.410602	0.755861	0.528611
H315	H	-0.110093	0.235217	-0.047139
H316	H	0.389907	0.735217	0.452861
O317	O	-0.028359	-0.030758	0.000002
O318	O	0.471641	0.469242	0.500002
C319	C	0.006415	-0.033467	-0.050953
C320	C	0.506415	0.466533	0.449047
H321	H	0.009178	0.011717	-0.067941
H322	H	0.509178	0.511717	0.432059
H323	H	0.051176	-0.054948	-0.039495
H324	H	0.551176	0.445052	0.460505
H325	H	-0.012989	-0.059363	-0.086625
H326	H	0.487011	0.440637	0.413375
O327	O	-0.145410	-0.032245	0.000106
O328	O	0.354590	0.467755	0.500106
C329	C	-0.100209	-0.077600	0.000094
C330	C	0.399791	0.422400	0.500094
H331	H	-0.059944	-0.061864	0.018713
H332	H	0.440056	0.438136	0.518713
H333	H	-0.112418	-0.114118	0.028659
H334	H	0.387582	0.385882	0.528659
H335	H	-0.091715	-0.093494	-0.047097
H336	H	0.408285	0.406506	0.452903
H337	H	0.769159	-0.219337	0.000071
H338	H	1.269159	0.280663	0.500071
H339	H	0.770443	-0.111587	0.000092
H340	H	1.270443	0.388413	0.500092
O341	O	0.400887	-0.025619	0.000141
O342	O	0.900887	0.474381	0.500141
C343	C	0.366968	-0.029139	0.051102
C344	C	0.866968	0.470861	0.551102
H345	H	0.351925	0.015836	0.068081
H346	H	0.851925	0.515836	0.568081
H347	H	0.328194	-0.051619	0.039655
H348	H	0.828194	0.448381	0.539655
H349	H	0.393357	-0.054480	0.086776
H350	H	0.893357	0.445520	0.586776
H351	H	0.817806	-0.499645	0.000061
H352	H	1.317806	0.000355	0.500061
O353	O	0.749108	-0.002637	0.154280
O354	O	1.249108	0.497363	0.654280
C355	C	0.783491	-0.036983	0.194882
C356	C	1.283491	0.463017	0.694882
H357	H	0.760145	-0.037509	0.239021
H358	H	1.260145	0.462491	0.739021
H359	H	0.792438	-0.082510	0.176991
H360	H	1.292438	0.417490	0.676991
H361	H	0.825690	-0.018706	0.201466
H362	H	1.325690	0.481294	0.701466
H363	H	0.742973	0.003516	0.271379
H364	H	1.242973	0.503516	0.771379
H365	H	0.819097	-0.391900	0.000072
H366	H	1.319097	0.108100	0.500072
O367	O	0.517292	-0.463277	-0.000018
O368	O	1.017292	0.036723	0.499982
C369	C	0.471940	-0.418073	-0.000012
C370	C	0.971940	0.081927	0.499988
H371	H	0.487683	-0.377808	-0.018628
H372	H	0.987683	0.122192	0.481372
H373	H	0.435425	-0.430277	-0.028581
H374	H	0.935425	0.069723	0.471419
H375	H	0.456040	-0.409579	0.047178
H376	H	0.956040	0.090421	0.547178
H377	H	0.763906	-0.658056	0.000054
H378	H	1.263906	-0.158056	0.500054
O379	O	0.749072	-0.002607	0.845996
O380	O	1.249072	0.497393	1.345996
C381	C	0.740728	0.005751	0.907286
C382	C	1.240728	0.505751	1.407286
H383	H	0.695331	0.027270	0.915741
H384	H	1.195331	0.527270	1.415741
H385	H	0.747305	-0.037412	0.930820
H386	H	1.247305	0.462588	1.430820
H387	H	0.772800	0.034150	0.924856
H388	H	1.272800	0.534150	1.424856
H389	H	0.526850	-0.352066	0.000013
H390	H	1.026850	0.147934	0.500013
H391	H	0.580748	-0.193677	0.000069
H392	H	1.080748	0.306323	0.500069
H393	H	0.762610	-0.765821	0.000047
H394	H	1.262610	-0.265821	0.500047
O395	O	-0.173489	0.172473	0.000084
O396	O	0.326511	0.672473	0.500084
C397	C	-0.230765	0.160628	0.000072
C398	C	0.269235	0.660628	0.500072
H399	H	-0.232791	0.115910	0.018702
H400	H	0.267209	0.615910	0.518702
H401	H	-0.257863	0.193518	0.028628
H402	H	0.242137	0.693518	0.528628
H403	H	-0.247955	0.162880	-0.047120
H404	H	0.252045	0.662880	0.452880
O405	O	0.788067	-0.041587	0.439103
O406	O	1.288067	0.458413	0.939103
C407	C	0.822447	-0.075931	0.479710
C408	C	1.322447	0.424069	0.979710
H409	H	0.799100	-0.076448	0.523849
H410	H	1.299100	0.423552	1.023849
H411	H	0.831391	-0.121460	0.461826
H412	H	1.331391	0.378540	0.961826
H413	H	0.864648	-0.057656	0.486292
H414	H	1.364648	0.442344	0.986292
O415	O	0.749143	-0.002678	0.723929
O416	O	1.249143	0.497322	1.223929
C417	C	0.783528	-0.037019	0.764533
C418	C	1.283528	0.462981	1.264533
H419	H	0.760185	-0.037540	0.808673
H420	H	1.260185	0.462460	1.308673
H421	H	0.792476	-0.082548	0.746648
H422	H	1.292476	0.417452	1.246648
H423	H	0.825728	-0.018740	0.771112
H424	H	1.325728	0.481260	1.271112
H425	H	0.601694	0.144737	0.841052
H426	H	1.101694	0.644737	1.341052
H427	H	0.562709	0.183658	0.556223
H428	H	1.062709	0.683658	1.056223
