data_functionalizedCrystal
_audit_creation_method	'MofGen! by Chris Wilmer'
_symmetry_space_group_name_H-M	'P1'
_symmetry_Int_Tables_number	1
_symmetry_cell_setting	triclinic
loop_
_symmetry_equiv_pos_as_xyz
  x,y,z
_cell_length_a	17.077404
_cell_length_b	18.050589
_cell_length_c	17.077396
_cell_angle_alpha	90.025276
_cell_angle_beta	89.982756
_cell_angle_gamma	89.965077
loop_
_atom_site_label
_atom_site_type_symbol
_atom_site_fract_x
_atom_site_fract_y
_atom_site_fract_z
Zn1	Zn	1.199973	0.295649	-0.443865
Zn2	Zn	1.199858	0.419848	-0.312608
Zn3	Zn	1.068710	0.295677	-0.312613
Zn4	Zn	1.068645	0.419802	-0.443832
O5	O	1.134296	0.357744	-0.378229
O6	O	1.309804	0.312132	-0.426465
O7	O	1.182440	0.403407	-0.202762
O8	O	1.086197	0.191748	-0.330039
O9	O	1.309720	0.403380	-0.330031
O10	O	1.182635	0.191728	-0.426470
O11	O	1.086086	0.312179	-0.202765
O12	O	0.958854	0.312135	-0.330007
O13	O	1.086087	0.403302	-0.553683
O14	O	0.958807	0.403329	-0.426413
O15	O	1.182573	0.312087	-0.553707
O16	O	1.182377	0.523766	-0.329999
O17	O	1.085976	0.523733	-0.426409
C18	C	0.930349	0.357730	-0.378208
C19	C	0.843099	0.357743	-0.378217
C20	C	0.802105	0.405299	-0.428335
C21	C	0.720124	0.405301	-0.428348
C22	C	0.679139	0.357749	-0.378237
C23	C	0.720139	0.310187	-0.328117
C24	C	0.802118	0.310182	-0.328109
C25	C	0.549269	0.310202	-0.328136
C26	C	0.467285	0.310207	-0.328143
C27	C	0.467275	0.405320	-0.428374
C28	C	0.549254	0.405315	-0.428366
C29	C	0.590248	0.357754	-0.378245
C30	C	1.134179	0.550696	-0.378217
C31	C	1.134200	0.633242	-0.378238
C32	C	1.081805	0.832701	-0.430648
C33	C	1.062667	0.882144	-0.359019
C34	C	1.134259	0.784372	-0.378249
C35	C	1.153418	0.882011	-0.449886
C36	C	1.134315	0.930357	-0.378265
C37	C	1.115083	0.832728	-0.306582
C38	C	1.205868	0.832591	-0.397498
C39	C	1.186757	0.882011	-0.325819
C40	C	1.134225	0.700274	-0.378240
C41	C	1.134349	1.014454	-0.378266
C42	C	1.339041	0.357758	-0.378251
C43	C	1.426290	0.357764	-0.378261
C44	C	1.134336	0.357686	-0.582974
C45	C	1.134353	0.357662	-0.670223
C46	C	1.134406	1.164038	-0.378260
C47	C	1.134376	1.081493	-0.378275
C48	C	1.084196	0.310154	-0.711215
C49	C	1.084209	0.310137	-0.793195
C50	C	1.134383	0.357625	-0.834183
C51	C	1.184541	0.405138	-0.793186
C52	C	1.184524	0.405158	-0.711207
C53	C	1.184575	0.405092	-0.964056
C54	C	1.184594	0.405071	-1.046041
C55	C	1.084261	0.310070	-1.046044
C56	C	1.084243	0.310090	-0.964065
C57	C	1.134403	0.357603	-0.923074
C58	C	1.134302	0.357748	-0.174281
C59	C	1.134438	0.357563	-0.087032
H60	H	0.433894	0.444044	-0.469188
H61	H	0.835469	0.444024	-0.469138
H62	H	1.231140	0.903526	-0.281463
O63	O	1.030153	0.258826	-1.090249
H64	H	1.038584	0.266795	-1.154140
O65	O	0.593488	0.258905	-0.274078
H66	H	0.630807	0.292098	-0.234085
H67	H	1.002136	0.903926	-0.342753
H68	H	1.169601	0.903660	-0.510463
H69	H	0.433917	0.271478	-0.287348
O70	O	1.238655	0.456358	-0.837397
H71	H	1.225139	0.514647	-0.821657
O72	O	1.238706	0.456296	-1.090247
H73	H	1.230295	0.448291	-1.154139
O74	O	1.093554	0.804183	-0.226315
H75	H	1.039705	0.770014	-0.230544
O76	O	0.593460	0.456604	-0.482412
H77	H	0.630849	0.423406	-0.522398
H78	H	1.225372	0.443839	-0.677833
H79	H	0.686750	0.444027	-0.469158
O80	O	0.675927	0.258918	-0.274056
H81	H	0.638597	0.221182	-0.309249
H82	H	0.835495	0.271453	-0.287302
H83	H	1.037388	0.811049	-0.474897
O84	O	1.030139	0.258860	-0.919857
H85	H	0.968521	0.271584	-0.935573
H86	H	1.225428	0.443775	-0.930683
O87	O	1.286048	0.803821	-0.419147
H88	H	1.285513	0.742337	-0.418425
O89	O	1.030084	0.258931	-0.667007
H90	H	0.995206	0.225897	-0.709288
H91	H	1.043364	0.271454	-0.826567
