data_functionalizedCrystal
_audit_creation_method	'MofGen! by Chris Wilmer'
_symmetry_space_group_name_H-M	'P1'
_symmetry_Int_Tables_number	1
_symmetry_cell_setting	triclinic
loop_
_symmetry_equiv_pos_as_xyz
  x,y,z
_cell_length_a	14.519709
_cell_length_b	14.519709
_cell_length_c	14.586319
_cell_angle_alpha	89.995260
_cell_angle_beta	90.002108
_cell_angle_gamma	83.680145
loop_
_atom_site_label
_atom_site_type_symbol
_atom_site_fract_x
_atom_site_fract_y
_atom_site_fract_z
O1	O	1.223866	0.120890	-0.076123
O2	O	1.557200	0.454223	0.257210
O3	O	1.890533	0.787557	0.590544
O4	O	0.955389	0.135127	-0.076151
O5	O	1.288723	0.468460	0.257182
O6	O	1.622056	0.801793	0.590515
O7	O	1.096746	-0.006230	-0.076128
O8	O	1.430079	0.327103	0.257205
O9	O	1.763413	0.660437	0.590539
O10	O	1.082510	0.262247	-0.076146
O11	O	1.415843	0.595580	0.257187
O12	O	1.749176	0.928913	0.590521
O13	O	1.096736	-0.006232	0.076353
O14	O	1.430070	0.327101	0.409686
O15	O	1.763403	0.660434	0.743019
O16	O	0.955380	0.135125	0.076330
O17	O	1.288713	0.468458	0.409663
O18	O	1.622046	0.801791	0.742996
O19	O	1.223856	0.120888	0.076358
O20	O	1.557190	0.454221	0.409691
O21	O	1.890523	0.787555	0.743025
Cu22	Cu	1.089617	0.128006	0.090266
Cu23	Cu	1.422950	0.461339	0.423600
Cu24	Cu	1.756284	0.794673	0.756933
Cu25	Cu	1.089629	0.128009	-0.090060
Cu26	Cu	1.422962	0.461342	0.243274
Cu27	Cu	1.756295	0.794675	0.576607
O28	O	1.082500	0.262245	0.076335
O29	O	1.415833	0.595578	0.409668
O30	O	1.749166	0.928911	0.743001
C31	C	0.921025	0.134462	0.000086
C32	C	1.254358	0.467795	0.333419
C33	C	1.587691	0.801129	0.666752
C34	C	0.818643	0.132474	0.000075
C35	C	1.151977	0.465807	0.333408
C36	C	1.485310	0.799141	0.666742
C37	C	0.443748	0.125154	0.000117
C38	C	0.777081	0.458488	0.333451
C39	C	1.110414	0.791821	0.666784
C40	C	0.548056	0.127187	0.000105
C41	C	0.881389	0.460520	0.333439
C42	C	1.214722	0.793854	0.666772
C43	C	0.631192	0.128814	0.000095
C44	C	0.964526	0.462147	0.333429
C45	C	1.297859	0.795481	0.666762
C46	C	0.735507	0.130847	0.000085
C47	C	1.068840	0.464180	0.333418
C48	C	1.402173	0.797514	0.666752
C49	C	1.096078	-0.040591	0.000112
C50	C	1.429411	0.292742	0.333446
C51	C	1.762744	0.626076	0.666779
C52	C	1.094090	-0.142972	0.000113
C53	C	1.427423	0.190361	0.333446
C54	C	1.760756	0.523694	0.666779
C55	C	1.086770	-0.517868	0.000088
C56	C	1.420103	-0.184535	0.333421
C57	C	1.753437	0.148799	0.666755
C58	C	1.088803	-0.413560	0.000095
C59	C	1.422136	-0.080227	0.333429
C60	C	1.755469	0.253107	0.666762
C61	C	1.090430	-0.330423	0.000101
C62	C	1.423763	0.002910	0.333435
C63	C	1.757096	0.336243	0.666768
C64	C	1.092463	-0.226109	0.000107
C65	C	1.425796	0.107224	0.333440
C66	C	1.759129	0.440558	0.666773
C67	C	1.258221	0.121553	0.000119
C68	C	1.591554	0.454886	0.333452
C69	C	1.924888	0.788219	0.666786
C70	C	1.360602	0.123541	0.000123
C71	C	1.693936	0.456874	0.333457
C72	C	2.027269	0.790207	0.666790
C73	C	1.083168	0.296606	0.000092
C74	C	1.416501	0.629939	0.333426
C75	C	1.749835	0.963272	0.666759
C76	C	1.085156	0.398987	0.000086
C77	C	1.418490	0.732320	0.333419
C78	C	1.751823	1.065653	0.666753
N79	N	1.089616	0.128004	0.217098
N80	N	1.422949	0.461337	0.550431
N81	N	1.756282	0.794670	0.883765
N82	N	1.089637	0.128004	-0.216892
N83	N	1.422971	0.461337	0.116442
N84	N	1.756304	0.794670	0.449775
C85	C	1.152229	0.065432	0.452115
C86	C	1.485563	0.398765	0.785448
C87	C	1.818896	0.732099	1.118781
C88	C	1.152232	0.065430	0.548096
C89	C	1.485565	0.398763	0.881429
C90	C	1.818899	0.732096	1.214763
C91	C	1.027017	0.190578	0.548085
C92	C	1.360351	0.523912	0.881418
C93	C	1.693684	0.857245	1.214752
C94	C	1.027011	0.190575	0.452106
C95	C	1.360344	0.523909	0.785439
C96	C	1.693678	0.857242	1.118772
C97	C	1.089622	0.128003	0.404123
C98	C	1.422955	0.461337	0.737456
C99	C	1.756289	0.794670	1.070790
C100	C	1.089631	0.128004	0.596084
C101	C	1.422964	0.461337	0.929417
C102	C	1.756298	0.794671	1.262750
C103	C	1.089634	0.128002	0.700151
C104	C	1.422967	0.461335	1.033484
C105	C	1.756300	0.794669	1.366817
C106	C	1.089619	0.128004	0.300049
C107	C	1.422952	0.461337	0.633382
C108	C	1.756285	0.794670	0.966716
H109	H	1.203211	0.014478	0.587168
H110	H	1.536544	0.347811	0.920502
H111	H	1.869878	0.681144	1.253835
O112	O	1.212896	0.004571	0.405423
O113	O	1.546229	0.337905	0.738757
O114	O	1.879563	0.671238	1.072090
C115	C	1.163377	-0.052445	0.349960
C116	C	1.496710	0.280888	0.683293
C117	C	1.830043	0.614222	1.016627
H118	H	1.091294	-0.015837	0.335557
H119	H	1.424628	0.317496	0.668891
H120	H	1.757961	0.650830	1.002224
H121	H	1.201839	-0.067013	0.282476
H122	H	1.535173	0.266320	0.615810
H123	H	1.868506	0.599653	0.949143
H124	H	1.156955	-0.120588	0.386995
H125	H	1.490288	0.212745	0.720328
H126	H	1.823622	0.546078	1.053662
O127	O	0.966295	0.251329	0.594839
O128	O	1.299628	0.584662	0.928173
O129	O	1.632962	0.917996	1.261506
C130	C	0.979710	0.237902	0.689845
C131	C	1.313044	0.571236	1.023178
C132	C	1.646377	0.904569	1.356512
H133	H	1.052972	0.203594	0.702955
H134	H	1.386305	0.536927	1.036288
H135	H	1.719639	0.870261	1.369622
H136	H	0.969569	0.307724	0.726313
H137	H	1.302903	0.641057	1.059646
H138	H	1.636236	0.974390	1.392979
H139	H	0.927439	0.191535	0.717092
H140	H	1.260772	0.524869	1.050425
H141	H	1.594106	0.858202	1.383759
H142	H	0.976024	0.241529	0.413028
H143	H	1.309358	0.574862	0.746361
H144	H	1.642691	0.908195	1.079695
