data_functionalizedCrystal
_audit_creation_method	'MofGen! by Chris Wilmer'
_symmetry_space_group_name_H-M	'P1'
_symmetry_Int_Tables_number	1
_symmetry_cell_setting	triclinic
loop_
_symmetry_equiv_pos_as_xyz
  x,y,z
_cell_length_a	18.050590
_cell_length_b	18.050589
_cell_length_c	12.594509
_cell_angle_alpha	89.972304
_cell_angle_beta	89.994662
_cell_angle_gamma	90.017386
loop_
_atom_site_label
_atom_site_type_symbol
_atom_site_fract_x
_atom_site_fract_y
_atom_site_fract_z
Zn1	Zn	1.135337	-0.295852	-0.601410
Zn2	Zn	1.135235	-0.420056	-0.423433
Zn3	Zn	1.011143	-0.295861	-0.423488
Zn4	Zn	1.011104	-0.419981	-0.601413
O5	O	1.073205	-0.357937	-0.512436
O6	O	1.239248	-0.312355	-0.577776
O7	O	1.118747	-0.403616	-0.274494
O8	O	1.027677	-0.191935	-0.447112
O9	O	1.239173	-0.403607	-0.447018
O10	O	1.118922	-0.191928	-0.577830
O11	O	1.027577	-0.312370	-0.274535
O12	O	0.907213	-0.312298	-0.447115
O13	O	1.027611	-0.403480	-0.750358
O14	O	0.907185	-0.403489	-0.577835
O15	O	1.118884	-0.312283	-0.750356
O16	O	1.118709	-0.523970	-0.447020
O17	O	1.027511	-0.523916	-0.577781
C18	C	0.880253	-0.357887	-0.512482
C19	C	0.797707	-0.357883	-0.512527
C20	C	0.598262	-0.407614	-0.583443
C21	C	0.548871	-0.339896	-0.609628
C22	C	0.646577	-0.357924	-0.512475
C23	C	0.548886	-0.425681	-0.486289
C24	C	0.500591	-0.357970	-0.512426
C25	C	0.598273	-0.290170	-0.538710
C26	C	0.598292	-0.376001	-0.415325
C27	C	0.548923	-0.308236	-0.441473
C28	C	0.730675	-0.357899	-0.512505
C29	C	0.416495	-0.357988	-0.512396
C30	C	1.073115	-0.550890	-0.512418
C31	C	1.073145	-0.633435	-0.512446
C32	C	1.023600	-0.832883	-0.583529
C33	C	1.005495	-0.882325	-0.486411
C34	C	1.073218	-0.784566	-0.512460
C35	C	1.091359	-0.882206	-0.609589
C36	C	1.073287	-0.930551	-0.512482
C37	C	1.055077	-0.832920	-0.415291
C38	C	1.140973	-0.832797	-0.538534
C39	C	1.122893	-0.882216	-0.441349
C40	C	1.073176	-0.700467	-0.512449
C41	C	1.073329	-1.014647	-0.512482
C42	C	1.266910	-0.357989	-0.512390
C43	C	1.349456	-0.358011	-0.512371
C44	C	1.073255	-0.357872	-0.790057
C45	C	1.073276	-0.357845	-0.908362
C46	C	1.073315	-0.164232	-0.512477
C47	C	1.073362	-0.081686	-0.512494
C48	C	1.023648	-0.407419	-0.977617
C49	C	1.091408	-0.425577	-1.048380
C50	C	1.005568	-0.339642	-1.048398
C51	C	1.141072	-0.376038	-0.977568
C52	C	1.055186	-0.290072	-0.977579
C53	C	1.122993	-0.308204	-1.048311
C54	C	1.073198	-0.357949	-0.235895
C55	C	1.073321	-0.357767	-0.117590
H56	H	0.527189	-0.482962	-0.464164
H57	H	0.981578	-0.811221	-0.643545
H58	H	0.619875	-0.232872	-0.560931
H59	H	1.165029	-0.266248	-1.079156
Br60	Br	1.029441	-0.796992	-0.278358
H61	H	1.106733	-0.482858	-1.079480
Br62	Br	0.634473	-0.401476	-0.278440
Br63	Br	1.029611	-0.194625	-0.925702
H64	H	1.198226	-0.811027	-0.560614
H65	H	1.106676	-0.903855	-0.691721
H66	H	0.948229	-0.904097	-0.464378
H67	H	0.527163	-0.324622	-0.691765
Br68	Br	1.236567	-0.401762	-0.925938
H69	H	0.619929	-0.449562	-0.643527
Br70	Br	0.513039	-0.238154	-0.341405
H71	H	1.164883	-0.903741	-0.381189
H72	H	0.948290	-0.324278	-1.079511
H73	H	0.981712	-0.449407	-0.946577
