data_functionalizedCrystal
_audit_creation_method	'MofGen! by Chris Wilmer'
_symmetry_space_group_name_H-M	'P1'
_symmetry_Int_Tables_number	1
_symmetry_cell_setting	triclinic
loop_
_symmetry_equiv_pos_as_xyz
  x,y,z
_cell_length_a	14.853558
_cell_length_b	15.995300
_cell_length_c	13.330367
_cell_angle_alpha	89.999902
_cell_angle_beta	89.992972
_cell_angle_gamma	83.551470
loop_
_atom_site_label
_atom_site_type_symbol
_atom_site_fract_x
_atom_site_fract_y
_atom_site_fract_z
O1	O	1.196205	0.109282	-0.083401
O2	O	1.696205	0.609282	0.416599
O3	O	0.933725	0.122313	-0.083404
O4	O	1.433725	0.622313	0.416596
O5	O	1.072164	-0.006085	-0.083407
O6	O	1.572164	0.493915	0.416593
O7	O	1.057766	0.237680	-0.083398
O8	O	1.557766	0.737680	0.416602
O9	O	1.072144	-0.006087	0.083440
O10	O	1.572144	0.493913	0.583440
O11	O	0.933705	0.122310	0.083443
O12	O	1.433705	0.622310	0.583443
O13	O	1.196185	0.109280	0.083446
O14	O	1.696185	0.609280	0.583446
Cu15	Cu	1.064943	0.115795	0.098679
Cu16	Cu	1.564943	0.615795	0.598679
Cu17	Cu	1.064967	0.115798	-0.098637
Cu18	Cu	1.564967	0.615798	0.401363
O19	O	1.057746	0.237677	0.083449
O20	O	1.557746	0.737677	0.583449
C21	C	0.900127	0.121723	0.000019
C22	C	1.400127	0.621723	0.500019
C23	C	0.800045	0.119958	0.000017
C24	C	1.300045	0.619958	0.500017
C25	C	1.071567	-0.037282	0.000013
C26	C	1.571567	0.462718	0.500013
C27	C	1.069806	-0.130237	0.000003
C28	C	1.569806	0.369763	0.500003
C29	C	0.753037	0.119131	-0.090935
C30	C	1.253037	0.619131	0.409065
C31	C	0.753014	0.119118	0.090968
C32	C	1.253014	0.619118	0.590968
C33	C	0.658983	0.117455	0.090969
C34	C	1.158983	0.617455	0.590969
C35	C	0.611975	0.116629	0.000017
C36	C	1.111975	0.616629	0.500017
C37	C	0.658998	0.117466	-0.090937
C38	C	1.158998	0.617466	0.409063
C39	C	0.611954	0.116610	0.181922
C40	C	1.111954	0.616610	0.681922
C41	C	0.517917	0.114946	0.181927
C42	C	1.017917	0.614946	0.681927
C43	C	0.470907	0.114126	0.090973
C44	C	0.970907	0.614126	0.590973
C45	C	0.517935	0.114964	0.000016
C46	C	1.017935	0.614964	0.500016
C47	C	0.470927	0.114137	-0.090936
C48	C	0.970927	0.614137	0.409064
C49	C	0.517954	0.114981	-0.181895
C50	C	1.017954	0.614981	0.318105
C51	C	0.611987	0.116646	-0.181890
C52	C	1.111987	0.616646	0.318110
C53	C	0.376873	0.112461	0.090969
C54	C	0.876873	0.612461	0.590969
C55	C	0.376888	0.112472	-0.090937
C56	C	0.876888	0.612472	0.409063
C57	C	1.066555	-0.300423	0.000012
C58	C	1.566555	0.199577	0.500012
C59	C	1.165127	-0.347778	0.000012
C60	C	1.665127	0.152222	0.500012
C61	C	1.163328	-0.444468	0.000394
C62	C	1.663328	0.055532	0.500394
C63	C	1.063355	-0.467984	0.000021
C64	C	1.563355	0.032016	0.500021
C65	C	1.014439	-0.426906	0.095110
C66	C	1.514439	0.073094	0.595110
C67	C	1.016933	-0.330270	0.095186
C68	C	1.516933	0.169730	0.595186
C69	C	1.015497	-0.329993	-0.094557
C70	C	1.515497	0.170007	0.405443
C71	C	1.015506	-0.426937	-0.095803
C72	C	1.515506	0.073063	0.404197
C73	C	1.061541	-0.562681	0.000029
C74	C	1.561541	-0.062681	0.500029
C75	C	1.068366	-0.205726	0.000011
C76	C	1.568366	0.294274	0.500011
C77	C	1.229783	0.109870	0.000021
C78	C	1.729783	0.609870	0.500021
C79	C	1.329865	0.111635	0.000016
C80	C	1.829865	0.611635	0.500016
C81	C	1.058343	0.268875	0.000027
C82	C	1.558343	0.768875	0.500027
C83	C	1.060104	0.361829	0.000031
C84	C	1.560104	0.861829	0.500031
N85	N	1.064933	0.115792	0.237461
N86	N	1.564933	0.615792	0.737461
N87	N	1.064984	0.115794	-0.237419
N88	N	1.564984	0.615794	0.262581
C89	C	1.003663	0.172630	0.710085
C90	C	1.503663	0.672630	1.210085
C91	C	1.126295	0.058959	0.710050
C92	C	1.626295	0.558959	1.210050
C93	C	1.126284	0.058957	0.605032
C94	C	1.626284	0.558957	1.105032
C95	C	1.064964	0.115793	0.552535
C96	C	1.564964	0.615793	1.052535
C97	C	1.003653	0.172631	0.605057
C98	C	1.503653	0.672631	1.105057
C99	C	1.187600	0.002125	0.552502
C100	C	1.687600	0.502125	1.052502
C101	C	1.187593	0.002121	0.447477
C102	C	1.687593	0.502121	0.947477
C103	C	1.126267	0.058953	0.394979
C104	C	1.626267	0.558953	0.894979
C105	C	1.064953	0.115793	0.447507
C106	C	1.564953	0.615793	0.947507
C107	C	1.003633	0.172629	0.395010
C108	C	1.503633	0.672629	0.895010
C109	C	0.942314	0.229466	0.447537
C110	C	1.442314	0.729466	0.947537
C111	C	0.942327	0.229464	0.552558
C112	C	1.442327	0.729464	1.052558
C113	C	1.126254	0.058956	0.289957
C114	C	1.626254	0.558956	0.789957
C115	C	1.003622	0.172630	0.289982
C116	C	1.503622	0.672630	0.789982
H117	H	0.338620	0.111804	-0.165003
H118	H	0.838620	0.611804	0.334997
Br119	Br	1.075039	-0.472437	-0.213060
Br120	Br	1.575039	0.027563	0.286940
H121	H	1.237530	-0.044145	0.595248
H122	H	1.737530	0.455855	1.095248
Br123	Br	1.070347	-0.474104	0.213507
Br124	Br	1.570347	0.025896	0.713507
H125	H	0.942817	-0.298304	-0.095465
H126	H	1.442817	0.201696	0.404535
H127	H	0.791294	0.119784	0.165017
H128	H	1.291294	0.619784	0.665017
H129	H	1.176225	0.012689	0.752796
H130	H	1.676225	0.512689	1.252796
Br131	Br	0.454102	0.113811	0.305367
Br132	Br	0.954102	0.613811	0.805367
H133	H	0.650236	0.117275	0.255970
H134	H	1.150236	0.617275	0.755970
H135	H	0.953736	0.218904	0.752854
H136	H	1.453736	0.718904	1.252854
H137	H	1.237521	-0.044159	0.404717
H138	H	1.737521	0.455841	0.904717
Br139	Br	1.075657	-0.299665	0.214111
Br140	Br	1.575657	0.200335	0.714111
Br141	Br	0.920390	0.249762	0.218745
Br142	Br	1.420390	0.749762	0.718745
H143	H	0.338587	0.111782	0.165026
H144	H	0.838587	0.611782	0.665026
Br145	Br	1.227384	-0.491847	-0.113191
Br146	Br	1.727384	0.008153	0.386809
Br147	Br	1.209473	-0.018166	0.218678
Br148	Br	1.709473	0.481834	0.718678
H149	H	0.944551	-0.298079	0.099243
H150	H	1.444551	0.201921	0.599243
H151	H	0.479668	0.114304	-0.255948
H152	H	0.979668	0.614304	0.244052
H153	H	0.892390	0.275746	0.404782
H154	H	1.392390	0.775746	0.904782
H155	H	1.204742	-0.329253	-0.068176
H156	H	1.704742	0.170747	0.431824
H157	H	1.204168	-0.328066	0.068049
H158	H	1.704168	0.171934	0.568049
H159	H	0.940981	-0.441089	0.098378
H160	H	1.440981	0.058911	0.598378
Br161	Br	0.675815	0.117780	-0.305322
Br162	Br	1.175815	0.617780	0.194678
Br163	Br	0.816853	0.120280	-0.214373
Br164	Br	1.316853	0.620280	0.285627
H165	H	1.201581	-0.472272	0.068957
H166	H	1.701581	0.027728	0.568957
H167	H	1.047956	-0.309454	-0.166653
H168	H	1.547956	0.190546	0.333347
Br169	Br	0.894061	-0.452740	-0.105927
Br170	Br	1.394061	0.047260	0.394073
Br171	Br	0.859117	0.306595	0.623845
Br172	Br	1.359117	0.806595	1.123845
