data_functionalizedCrystal
_audit_creation_method	'MofGen! by Chris Wilmer'
_symmetry_space_group_name_H-M	'P1'
_symmetry_Int_Tables_number	1
_symmetry_cell_setting	triclinic
loop_
_symmetry_equiv_pos_as_xyz
  x,y,z
_cell_length_a	10.686220
_cell_length_b	19.805405
_cell_length_c	19.805399
_cell_angle_alpha	90.030709
_cell_angle_beta	94.354856
_cell_angle_gamma	85.591520
loop_
_atom_site_label
_atom_site_type_symbol
_atom_site_fract_x
_atom_site_fract_y
_atom_site_fract_z
Zn1	Zn	1.928990	0.189986	-0.303417
Zn2	Zn	1.928842	0.303183	-0.190232
Zn3	Zn	1.717993	0.198701	-0.198915
Zn4	Zn	1.717915	0.311835	-0.312049
O5	O	1.823435	0.250926	-0.251153
O6	O	2.105548	0.197733	-0.281156
O7	O	1.900842	0.289350	-0.096668
O8	O	1.746077	0.102825	-0.212799
O9	O	2.105438	0.280898	-0.197999
O10	O	1.901096	0.096421	-0.289576
O11	O	1.745932	0.212587	-0.103048
O12	O	1.541405	0.220977	-0.221169
O13	O	1.745944	0.295645	-0.405619
O14	O	1.541348	0.304096	-0.304288
O15	O	1.901020	0.206123	-0.399278
O16	O	1.900767	0.399051	-0.206369
O17	O	1.745800	0.405408	-0.295868
C18	C	1.823293	0.426788	-0.251126
C19	C	1.823348	0.502018	-0.251133
C20	C	1.495592	0.264422	-0.264608
C21	C	1.355340	0.270212	-0.270380
C22	C	1.823490	0.250877	-0.427694
C23	C	1.823514	0.250856	-0.502925
C24	C	2.152558	0.237378	-0.237646
C25	C	2.292810	0.231605	-0.231891
C26	C	1.823612	0.074376	-0.251194
C27	C	1.823687	-0.000859	-0.251211
C28	C	1.904117	0.534026	-0.204573
C29	C	1.904171	0.604712	-0.204586
C30	C	1.823447	0.643389	-0.251156
C31	C	1.742674	0.611376	-0.297720
C32	C	1.742628	0.540691	-0.297710
C33	C	1.742860	0.896442	-0.297763
C34	C	1.742910	0.967132	-0.297768
C35	C	1.904403	0.960463	-0.204638
C36	C	1.904357	0.889778	-0.204628
C37	C	1.823589	0.857771	-0.251195
C38	C	1.823533	0.781125	-0.251181
C39	C	1.823496	0.720034	-0.251166
C40	C	1.742875	0.210881	-0.541589
C41	C	1.742893	0.210867	-0.612277
C42	C	1.823556	0.250825	-0.644299
C43	C	1.904198	0.290805	-0.605629
C44	C	1.904173	0.290822	-0.534943
C45	C	1.904298	0.290737	-0.890698
C46	C	1.904319	0.290716	-0.961390
C47	C	1.743017	0.210782	-0.968033
C48	C	1.742993	0.210800	-0.897346
C49	C	1.823629	0.250782	-0.858683
C50	C	1.823608	0.250797	-0.782036
C51	C	1.823585	0.250806	-0.720945
C52	C	1.823452	0.250923	-0.075296
C53	C	1.823673	0.250744	-0.000056
H54	H	1.301570	0.307701	-0.307747
O55	O	1.991189	0.492311	-0.154346
H56	H	2.047372	0.526446	-0.121978
H57	H	1.969869	0.323343	-0.631707
O58	O	1.656003	0.167694	-0.862810
H59	H	1.556959	0.183376	-0.880432
H60	H	1.969944	0.323301	-0.859227
H61	H	1.677197	0.178338	-0.515523
H62	H	1.346573	0.194123	-0.194522
O63	O	1.991159	0.333930	-0.493234
H64	H	2.047266	0.361707	-0.527374
O65	O	1.655595	0.653094	-0.347942
H66	H	1.712042	0.682933	-0.380088
O67	O	1.991435	0.848065	-0.154402
H68	H	1.977829	0.793536	-0.162216
H69	H	1.970008	0.323257	-0.987459
O70	O	1.991278	0.639239	-0.154364
H71	H	2.047389	0.600470	-0.121973
H72	H	1.970173	0.986532	-0.166724
H73	H	1.677177	0.998621	-0.335696
H74	H	1.677094	0.870387	-0.335678
H75	H	1.676859	0.514631	-0.335625
O76	O	1.655930	0.167745	-0.653982
H77	H	1.599851	0.139954	-0.619839
O78	O	1.656048	0.167651	-1.009732
H79	H	1.669608	0.174350	-1.064265
