data_functionalizedCrystal
_audit_creation_method	'MofGen! by Chris Wilmer'
_symmetry_space_group_name_H-M	'P1'
_symmetry_Int_Tables_number	1
_symmetry_cell_setting	triclinic
loop_
_symmetry_equiv_pos_as_xyz
  x,y,z
_cell_length_a	10.654549
_cell_length_b	14.971486
_cell_length_c	9.130313
_cell_angle_alpha	89.995272
_cell_angle_beta	89.997498
_cell_angle_gamma	84.049453
loop_
_atom_site_label
_atom_site_type_symbol
_atom_site_fract_x
_atom_site_fract_y
_atom_site_fract_z
O1	O	1.666492	0.125630	-0.121766
O2	O	1.300885	0.137599	-0.121777
O3	O	1.493488	0.001468	-0.121761
O4	O	1.473889	0.261761	-0.121782
O5	O	1.493475	0.001464	0.121838
O6	O	1.300872	0.137595	0.121822
O7	O	1.666479	0.125625	0.121832
Cu8	Cu	1.483674	0.131610	0.144070
Cu9	Cu	1.483690	0.131615	-0.144014
O10	O	1.473876	0.261757	0.121816
C11	C	1.254090	0.136718	0.000021
C12	C	1.114675	0.134089	0.000018
C13	C	0.903327	0.211764	0.000017
C14	C	1.034321	0.214241	0.000008
C15	C	1.064029	0.051454	0.000021
C16	C	0.933037	0.048978	0.000020
C17	C	1.492605	-0.031864	0.000038
C18	C	1.489978	-0.131175	0.000037
C19	C	1.603127	-0.187785	0.000041
C20	C	1.600652	-0.281098	0.000026
C21	C	1.485026	-0.317799	0.000018
C22	C	1.371868	-0.261182	0.000009
C23	C	1.374345	-0.167871	0.000013
C24	C	1.366714	-0.455673	0.000003
C25	C	1.364237	-0.548990	0.000002
C26	C	1.593021	-0.568900	0.000016
C27	C	1.595497	-0.475588	0.000021
C28	C	1.482339	-0.418978	0.000015
C29	C	1.713274	0.126506	0.000031
C30	C	1.852689	0.129136	0.000025
C31	C	1.474759	0.295089	0.000014
C32	C	1.477386	0.394400	0.000006
N33	N	1.483672	0.131606	0.346692
N34	N	1.483701	0.131611	-0.346637
C35	C	1.568985	0.071353	0.423351
C36	C	1.568997	0.071353	0.576688
C37	C	1.398379	0.191868	0.576694
C38	C	1.398362	0.191863	0.423360
H39	H	1.075543	0.281525	0.000001
F40	F	0.879142	-0.038971	0.000012
F41	F	1.149551	-0.033850	0.000026
H42	H	1.277724	-0.291072	-0.000007
H43	H	1.638448	0.022287	0.360932
H44	H	1.697283	-0.157911	0.000057
H45	H	1.274569	-0.409582	-0.000005
F46	F	1.241175	-0.588049	-0.000006
H47	H	1.328923	0.240929	0.639131
H48	H	1.328884	0.240929	0.360940
F49	F	1.253917	-0.107623	0.000004
F50	F	1.659796	0.007221	0.658269
H51	H	0.837910	0.277034	0.000021
H52	H	1.692789	-0.327186	0.000033
H53	H	1.689650	-0.445710	0.000038
H54	H	1.685158	-0.614997	0.000017
