data_functionalizedCrystal
_audit_creation_method	'MofGen! by Chris Wilmer'
_symmetry_space_group_name_H-M	'P1'
_symmetry_Int_Tables_number	1
_symmetry_cell_setting	triclinic
loop_
_symmetry_equiv_pos_as_xyz
  x,y,z
_cell_length_a	10.489741
_cell_length_b	10.489741
_cell_length_c	8.965430
_cell_angle_alpha	89.999293
_cell_angle_beta	89.998843
_cell_angle_gamma	95.460826
loop_
_atom_site_label
_atom_site_type_symbol
_atom_site_fract_x
_atom_site_fract_y
_atom_site_fract_z
O1	O	-1.694053	0.179958	0.123946
O2	O	-1.322858	0.196851	0.123969
O3	O	-1.516902	0.002807	0.123948
O4	O	-1.500009	0.374003	0.123967
O5	O	-1.516886	0.002820	-0.124130
O6	O	-1.322841	0.196864	-0.124110
O7	O	-1.694037	0.179971	-0.124133
Cu8	Cu	-1.508438	0.188419	-0.146773
Cu9	Cu	-1.508457	0.188404	0.146609
O10	O	-1.499993	0.374016	-0.124112
C11	C	-1.275318	0.195582	-0.000067
C12	C	-1.133688	0.191765	-0.000059
C13	C	-1.515618	-0.044718	-0.000090
C14	C	-1.511801	-0.186348	-0.000087
C15	C	-1.388336	-0.254488	-0.000069
C16	C	-1.446652	-0.346604	-0.122388
C17	C	-1.446697	-0.346591	0.122198
C18	C	-1.570167	-0.276599	-0.122508
C19	C	-1.570195	-0.276576	0.122189
C20	C	-1.628600	-0.368665	-0.000161
C21	C	-1.741577	0.181241	-0.000093
C22	C	-1.883206	0.185058	-0.000092
C23	C	-1.065548	0.068300	-0.000079
C24	C	-0.973430	0.126617	0.122237
C25	C	-0.973447	0.126659	-0.122349
C26	C	-1.043435	0.250133	0.122358
C27	C	-1.043462	0.250158	-0.122338
C28	C	-0.951371	0.308564	0.000007
C29	C	-1.501277	0.421541	-0.000070
C30	C	-1.505094	0.563170	-0.000063
N31	N	-1.508433	0.188429	-0.353122
C32	C	-1.418666	0.278138	-0.450418
C33	C	-1.534163	0.303949	-0.549838
C34	C	-1.392986	0.162629	-0.549830
C35	C	-1.623988	0.214298	-0.450352
C36	C	-1.482735	0.072927	-0.450336
C37	C	-1.598314	0.098690	-0.549711
N38	N	-1.508471	0.188384	0.352958
H39	H	-1.286824	-0.204837	-0.000185
H40	H	-1.555925	0.401606	-0.593543
N41	N	-1.639262	-0.235757	-0.259666
H42	H	-1.668010	-0.313572	-0.321740
H43	H	-1.716376	-0.191418	-0.228561
H44	H	-1.721659	0.236216	-0.406840
N45	N	-1.453874	-0.056394	-0.392395
H46	H	-1.366586	-0.075789	-0.428517
H47	H	-1.454982	-0.055567	-0.279757
N48	N	-1.639348	-0.235439	0.259156
H49	H	-1.729592	-0.278665	0.260131
H50	H	-1.592543	-0.260621	0.351436
N51	N	-1.084573	0.319288	-0.259333
H52	H	-1.180542	0.322083	-0.257805
H53	H	-1.041257	0.409492	-0.260244
N54	N	-1.377462	-0.387667	-0.259375
H55	H	-1.286708	-0.345730	-0.259286
H56	H	-1.376214	-0.483820	-0.258786
H57	H	-1.074270	0.302327	0.225883
N58	N	-1.131305	-0.066166	0.000074
H59	H	-1.187202	-0.079090	0.091581
H60	H	-1.185906	-0.079674	-0.092397
H61	H	-0.942463	0.074402	-0.225758
N62	N	-0.885890	0.443142	0.000092
H63	H	-0.911330	0.489588	0.092525
H64	H	-0.789999	0.439722	-0.000847
N65	N	-1.698990	-0.001833	-0.607112
H66	H	-1.786125	0.017806	-0.570730
H67	H	-1.697842	-0.001758	-0.719755
N68	N	-1.763176	-0.434150	-0.000240
H69	H	-1.826595	-0.367491	-0.001162
H70	H	-1.776144	-0.489999	-0.091774
N71	N	-1.318193	0.378707	-0.392672
H72	H	-1.337791	0.465908	-0.428874
H73	H	-1.318372	0.377361	-0.280032
H74	H	-1.394447	-0.377561	0.225620
H75	H	-0.942422	0.074371	0.225643
H76	H	-1.295338	0.140828	-0.593530
