data_functionalizedCrystal
_audit_creation_method	'MofGen! by Chris Wilmer'
_symmetry_space_group_name_H-M	'P1'
_symmetry_Int_Tables_number	1
_symmetry_cell_setting	triclinic
loop_
_symmetry_equiv_pos_as_xyz
  x,y,z
_cell_length_a	27.732048
_cell_length_b	10.489741
_cell_length_c	9.565339
_cell_angle_alpha	89.998731
_cell_angle_beta	89.998252
_cell_angle_gamma	83.590914
loop_
_atom_site_label
_atom_site_type_symbol
_atom_site_fract_x
_atom_site_fract_y
_atom_site_fract_z
O1	O	-0.641885	-0.151745	-0.116079
O2	O	-0.501237	-0.174820	-0.116122
O3	O	-0.574761	0.022456	-0.116091
O4	O	-0.568361	-0.349021	-0.116110
O5	O	-0.574755	0.022441	0.116429
O6	O	-0.501231	-0.174835	0.116399
O7	O	-0.641879	-0.151761	0.116441
Zn8	Zn	-0.571554	-0.163300	0.153337
Zn9	Zn	-0.571562	-0.163280	-0.153018
O10	O	-0.568354	-0.349036	0.116410
C11	C	-0.483224	-0.174343	0.000133
C12	C	-0.429560	-0.172885	0.000117
C13	C	-0.574275	0.069959	0.000168
C14	C	-0.572828	0.211525	0.000165
C15	C	-0.659892	-0.152237	0.000183
C16	C	-0.713556	-0.153696	0.000190
C17	C	-0.091423	-0.280280	0.000172
C18	C	0.110271	-0.274868	0.000185
O19	O	0.140907	-0.373073	0.000241
N20	N	0.130133	-0.157892	0.000189
C21	C	0.099568	-0.042260	0.000198
O22	O	0.121090	0.057360	0.000215
C23	C	-0.102124	-0.047673	0.000195
C24	C	-0.121984	-0.164657	0.000178
C25	C	-0.111282	-0.397254	0.000156
C26	C	-0.161703	-0.398606	0.000146
C27	C	-0.192264	-0.282983	0.000151
C28	C	-0.172404	-0.166008	0.000167
C29	C	-0.132688	0.067958	0.000215
C30	C	-0.183114	0.066594	0.000217
C31	C	-0.202973	-0.050390	0.000200
C32	C	-0.253385	-0.051737	0.000161
N33	N	-0.273247	-0.168714	0.000158
C34	C	-0.242687	-0.284336	0.000153
C35	C	0.205460	-0.039426	0.000197
C36	C	0.255883	-0.038073	0.000195
C37	C	0.266583	-0.270682	0.000185
C38	C	0.216159	-0.272034	0.000177
C39	C	0.185598	-0.156403	0.000193
C40	C	-0.348574	-0.287166	0.000129
C41	C	-0.398999	-0.288508	0.000112
C42	C	-0.409694	-0.055900	0.000130
C43	C	-0.359273	-0.054557	0.000139
C44	C	-0.328714	-0.170201	0.000143
O45	O	-0.284050	0.046415	0.000121
O46	O	-0.264218	-0.383942	0.000166
C47	C	-0.041002	-0.278928	0.000183
C48	C	-0.021143	-0.161954	0.000199
C49	C	-0.051703	-0.046331	0.000204
C50	C	0.029280	-0.160600	0.000197
C51	C	0.059841	-0.276223	0.000192
C52	C	0.039979	-0.393199	0.000189
C53	C	-0.010441	-0.394551	0.000178
C54	C	-0.031841	0.070646	0.000208
C55	C	0.018580	0.071988	0.000217
C56	C	0.049140	-0.043635	0.000212
C57	C	-0.568841	-0.396539	0.000148
C58	C	-0.570287	-0.538105	0.000142
N59	N	-0.571552	-0.163313	0.362417
C60	C	-0.526047	0.277609	0.000141
C61	C	-0.548143	0.370695	0.114792
C62	C	-0.548160	0.370685	-0.114455
C63	C	-0.594944	0.302746	0.114911
C64	C	-0.594954	0.302727	-0.114439
C65	C	-0.617084	0.395787	0.000240
N66	N	-0.571568	-0.163257	-0.362097
C67	C	-0.537832	-0.255234	0.546775
C68	C	-0.527656	-0.140537	0.453552
C69	C	-0.581706	-0.278001	0.453571
C70	C	-0.561370	-0.048503	0.546730
C71	C	-0.615439	-0.186041	0.546758
C72	C	-0.605281	-0.071261	0.453576
H73	H	-0.415165	-0.383774	0.000097
F74	F	0.195028	-0.396543	0.000161
F75	F	0.172941	0.083653	0.000213
H76	H	-0.655582	0.446903	0.000315
H77	H	-0.614735	0.272558	-0.211362
H78	H	-0.490549	-0.121286	0.412601
F79	F	-0.215636	0.189668	0.000239
F80	F	-0.620792	0.263580	0.241745
H81	H	0.034744	0.167257	0.000220
H82	H	-0.528363	0.400785	-0.211393
F83	F	-0.442228	0.067148	0.000137
F84	F	-0.500527	-0.356756	0.600266
F85	F	-0.663927	-0.211259	0.600317
F86	F	-0.078764	-0.520327	0.000151
F87	F	-0.182832	-0.523117	0.000134
F88	F	-0.642565	0.030479	0.400425
H89	H	-0.552745	0.048530	0.587481
F90	F	0.299116	-0.393737	0.000181
H91	H	-0.590294	-0.375018	0.412676
H92	H	-0.026606	-0.489811	0.000166
H93	H	-0.323698	-0.381334	0.000137
H94	H	-0.116528	0.163218	0.000230
F95	F	-0.338137	0.069949	0.000158
F96	F	0.277013	0.086437	0.000182
F97	F	-0.475773	0.210502	0.000269
H98	H	-0.528346	0.400830	0.211709
H99	H	0.064871	-0.487343	0.000179
H100	H	-0.056720	0.164802	0.000215
