data_functionalizedCrystal
_audit_creation_method	'MofGen! by Chris Wilmer'
_symmetry_space_group_name_H-M	'P1'
_symmetry_Int_Tables_number	1
_symmetry_cell_setting	triclinic
loop_
_symmetry_equiv_pos_as_xyz
  x,y,z
_cell_length_a	10.654550
_cell_length_b	14.044190
_cell_length_c	13.101018
_cell_angle_alpha	86.339369
_cell_angle_beta	93.391684
_cell_angle_gamma	88.838354
loop_
_atom_site_label
_atom_site_type_symbol
_atom_site_fract_x
_atom_site_fract_y
_atom_site_fract_z
O1	O	1.687565	0.128050	0.085150
O2	O	1.323364	0.140742	0.085170
O3	O	1.499991	-0.003623	0.085140
O4	O	1.510937	0.272416	0.085180
O5	O	1.487304	0.006744	-0.085288
O6	O	1.310676	0.151109	-0.085258
O7	O	1.674877	0.138417	-0.085278
Zn8	Zn	1.490762	0.146409	-0.112328
Zn9	Zn	1.507479	0.132750	0.112219
O10	O	1.498249	0.282783	-0.085249
C11	C	1.270128	0.144994	-0.000042
C12	C	1.130405	0.142205	-0.000035
C13	C	1.059465	0.227206	-0.000026
C14	C	0.928179	0.224581	-0.000044
C15	C	0.938786	0.051947	-0.000077
C16	C	1.070069	0.054573	-0.000066
C17	C	0.737957	0.328324	-0.059751
C18	C	0.667014	0.413328	-0.059724
C19	C	0.709374	0.486755	0.000013
C20	C	0.822678	0.475179	0.059749
C21	C	0.893616	0.390172	0.059731
C22	C	0.851255	0.316751	-0.000030
C23	C	1.260293	-0.049164	0.059650
C24	C	1.331234	-0.134172	0.059639
C25	C	1.288876	-0.207607	-0.000092
C26	C	1.175570	-0.196041	-0.059812
C27	C	1.104629	-0.111034	-0.059802
C28	C	1.146995	-0.037598	-0.000072
C29	C	1.488860	-0.033786	-0.000077
C30	C	1.474581	-0.139105	-0.000085
C31	C	1.549749	-0.388899	-0.000049
C32	C	1.448498	-0.331936	-0.000051
C33	C	1.463014	-0.224635	-0.000070
C34	C	1.535235	-0.496210	-0.000030
C35	C	1.728112	0.134166	-0.000064
C36	C	1.867836	0.136954	-0.000064
C37	C	1.509380	0.312945	-0.000029
C38	C	1.523661	0.418264	-0.000015
N39	N	1.479362	0.155731	-0.265575
C40	C	1.534390	0.110735	-0.525493
C41	C	1.463864	0.168414	-0.474609
C42	C	1.472489	0.161355	-0.358291
C43	C	1.525766	0.117793	-0.641821
N44	N	1.518887	0.123421	0.265466
H45	H	1.108586	0.298561	-0.000009
N46	N	1.380019	0.237032	-0.529541
N47	N	1.392523	0.324005	-0.517646
H48	H	1.333315	0.372469	-0.556446
N49	N	1.446979	-0.146004	0.120635
N50	N	1.510303	-0.221907	0.120619
H51	H	1.592047	-0.230266	0.163696
H52	H	0.574761	0.422748	-0.108368
N53	N	1.009351	0.378362	0.120734
N54	N	1.097073	0.434354	0.105709
H55	H	1.178818	0.426019	0.148790
H56	H	1.647325	-0.357083	-0.000065
N57	N	1.618250	0.042145	-0.470549
N58	N	1.625223	0.036441	-0.374767
H59	H	1.684451	-0.011999	-0.335951
H60	H	0.857155	0.534970	0.108397
H61	H	1.350913	-0.363754	-0.000039
H62	H	0.889643	-0.019399	-0.000108
N63	N	1.132306	-0.271063	-0.120818
N64	N	1.195655	-0.346956	-0.120818
H65	H	1.165101	-0.399946	-0.163899
N66	N	0.694675	0.253335	-0.120793
N67	N	0.593510	0.263683	-0.174109
H68	H	0.562934	0.210721	-0.217219
N69	N	0.988879	-0.099218	-0.120793
N70	N	0.901145	-0.155196	-0.105758
H71	H	0.819395	-0.146850	-0.148831
N72	N	1.303591	0.025848	0.120659
N73	N	1.404755	0.015507	0.173978
H74	H	1.435339	0.068482	0.217066
H75	H	0.651603	0.555967	0.000033
H76	H	1.346641	-0.276829	-0.000084
