data_functionalizedCrystal
_audit_creation_method	'MofGen! by Chris Wilmer'
_symmetry_space_group_name_H-M	'P1'
_symmetry_Int_Tables_number	1
_symmetry_cell_setting	triclinic
loop_
_symmetry_equiv_pos_as_xyz
  x,y,z
_cell_length_a	8.597340
_cell_length_b	8.965430
_cell_length_c	8.634740
_cell_angle_alpha	89.997019
_cell_angle_beta	92.880176
_cell_angle_gamma	82.301771
loop_
_atom_site_label
_atom_site_type_symbol
_atom_site_fract_x
_atom_site_fract_y
_atom_site_fract_z
O1	O	2.117284	-0.148080	0.230692
O2	O	1.663034	-0.089698	0.248385
O3	O	1.868657	-0.116128	0.014738
O4	O	1.911662	-0.121650	0.464339
O5	O	1.868639	-0.364204	0.014754
O6	O	1.663016	-0.337774	0.248400
O7	O	2.117266	-0.396157	0.230708
Cu8	Cu	1.890140	-0.389617	0.239556
Cu9	Cu	1.890161	-0.096238	0.239537
O10	O	1.911644	-0.369727	0.464354
C11	C	1.604267	-0.206184	0.246491
C12	C	1.429184	-0.183682	0.240808
N13	N	1.890136	-0.595966	0.239568
C14	C	1.795003	-0.681043	0.347585
C15	C	1.941682	-0.799309	0.379719
C16	C	1.743519	-0.773836	0.207447
C17	C	2.036897	-0.712053	0.271773
C18	C	1.838631	-0.686558	0.099438
C19	C	1.985404	-0.804790	0.131515
C20	C	2.176033	-0.279667	0.232601
C21	C	2.351116	-0.302160	0.238285
C22	C	1.858905	-0.238912	-0.042851
C23	C	1.829858	-0.235171	-0.214473
N24	N	1.890175	0.110110	0.239513
C25	C	1.921395	-0.246940	0.521944
C26	C	1.950443	-0.250671	0.693565
H27	H	1.418223	-0.420815	0.240461
H28	H	1.714651	-0.627127	0.439017
N29	N	1.672453	-0.214963	-0.280374
N30	N	1.559075	-0.200400	-0.193997
H31	H	1.447903	-0.186131	-0.240545
H32	H	2.075912	-0.266742	-0.253865
N33	N	1.344980	-0.034825	0.238049
N34	N	1.198101	-0.016130	0.233277
H35	H	1.138629	0.088998	0.231325
N36	N	1.996358	-0.861153	0.528358
N37	N	1.923781	-0.820023	0.646175
H38	H	1.962388	-0.863691	0.751157
H39	H	2.065974	-0.858461	0.040141
N40	N	2.192521	-0.677451	0.305990
N41	N	2.217610	-0.543365	0.311585
H42	H	2.327516	-0.518922	0.335753
N43	N	1.783889	-0.624660	-0.049151
N44	N	1.648615	-0.639094	-0.101692
H45	H	1.609936	-0.595377	-0.206635
H46	H	1.619510	-0.801603	0.180304
