data_functionalizedCrystal
_audit_creation_method	'MofGen! by Chris Wilmer'
_symmetry_space_group_name_H-M	'P1'
_symmetry_Int_Tables_number	1
_symmetry_cell_setting	triclinic
loop_
_symmetry_equiv_pos_as_xyz
  x,y,z
_cell_length_a	11.169417
_cell_length_b	25.639240
_cell_length_c	11.169409
_cell_angle_alpha	90.046464
_cell_angle_beta	90.019824
_cell_angle_gamma	90.033637
loop_
_atom_site_label
_atom_site_type_symbol
_atom_site_fract_x
_atom_site_fract_y
_atom_site_fract_z
Zn1	Zn	1.834775	-0.208096	0.678425
Zn2	Zn	1.834586	-0.295546	0.477692
Zn3	Zn	1.634061	-0.208128	0.477759
Zn4	Zn	1.633990	-0.295504	0.678337
O5	O	1.734353	-0.251819	0.578053
O6	O	2.002700	-0.219701	0.651806
O7	O	1.807937	-0.283981	0.309751
O8	O	1.660795	-0.134959	0.504443
O9	O	2.002561	-0.283950	0.504329
O10	O	1.808259	-0.134935	0.651871
O11	O	1.660612	-0.219755	0.309801
O12	O	1.466102	-0.219714	0.504358
O13	O	1.660674	-0.283878	0.846299
O14	O	1.466050	-0.283909	0.651721
O15	O	1.808190	-0.219660	0.846363
O16	O	1.807868	-0.368706	0.504244
O17	O	1.660491	-0.368675	0.651656
C18	C	1.422529	-0.251811	0.578038
C19	C	1.289129	-0.251820	0.578060
C20	C	1.734184	-0.387661	0.577959
C21	C	1.734221	-0.445775	0.577959
C22	C	1.811176	-0.806088	0.654958
C23	C	1.811211	-0.860692	0.654982
O24	O	1.876439	-0.888886	0.720352
N25	N	1.734520	-0.888058	0.578169
C26	C	1.657779	-0.860816	0.501336
O27	O	1.592550	-0.889107	0.436004
C28	C	1.657739	-0.806213	0.501318
C29	C	1.734444	-0.778850	0.578128
C30	C	1.887874	-0.778725	0.731762
C31	C	1.887839	-0.724124	0.731735
C32	C	1.811108	-0.696887	0.654905
C33	C	1.734410	-0.724249	0.578101
C34	C	1.580993	-0.778973	0.424492
C35	C	1.580959	-0.724366	0.424482
C36	C	1.657664	-0.697003	0.501291
C37	C	1.657644	-0.642411	0.501245
N38	N	1.734335	-0.615046	0.578058
C39	C	1.811067	-0.642283	0.654888
C40	C	1.657869	-0.975487	0.501380
C41	C	1.657915	-1.030089	0.501390
C42	C	1.811345	-1.029961	0.655038
C43	C	1.811305	-0.975358	0.655021
C44	C	1.734560	-0.948121	0.578193
C45	C	1.810990	-0.527618	0.654826
C46	C	1.810953	-0.473013	0.654789
C47	C	1.657518	-0.473146	0.501146
C48	C	1.657560	-0.527746	0.501178
C49	C	1.734300	-0.554981	0.578028
O50	O	1.592445	-0.614183	0.435912
O51	O	1.876274	-0.613986	0.720220
C52	C	2.047396	-0.251827	0.578070
C53	C	2.180796	-0.251831	0.578077
C54	C	1.734445	-0.251761	0.891096
C55	C	1.734485	-0.251736	1.024496
C56	C	1.734556	-0.115446	0.578174
C57	C	1.734643	-0.057331	0.578225
C58	C	1.734330	-0.251839	0.266229
C59	C	1.734524	-0.251716	0.132829
H60	H	1.873471	-0.549786	0.717413
H61	H	1.873823	-1.052148	0.717600
O62	O	1.506298	-0.805518	0.350012
C63	C	1.386672	-0.792189	0.376141
H64	H	1.380579	-0.777146	0.472016
H65	H	1.355319	-0.760525	0.311773
C66	C	1.314064	-0.859197	0.244365
C67	C	1.306580	-0.840725	0.362124
H68	H	1.264658	-0.889135	0.235714
H69	H	1.394658	-0.868177	0.226757
H70	H	1.287939	-0.832806	0.190738
H71	H	1.332719	-0.867113	0.415747
H72	H	1.225988	-0.831751	0.379740
H73	H	1.595378	-0.953313	0.438807
H74	H	1.595467	-1.052363	0.438832
O75	O	1.583021	-0.446601	0.426632
C76	C	1.599465	-0.392540	0.443072
H77	H	1.638731	-0.385034	0.535723
H78	H	1.663399	-0.377049	0.371929
C79	C	1.429795	-0.373773	0.318184
C80	C	1.478012	-0.364553	0.431983
H81	H	1.354879	-0.356508	0.311339
H82	H	1.418718	-0.410194	0.307104
H83	H	1.483085	-0.360863	0.258911
H84	H	1.424729	-0.377467	0.491253
H85	H	1.489077	-0.328132	0.443074
H86	H	1.518460	-0.702192	0.361920
O87	O	1.962480	-0.805236	0.806231
C88	C	2.040083	-0.836805	0.737979
H89	H	1.997803	-0.845048	0.646997
H90	H	2.129005	-0.815725	0.724848
C91	C	2.113778	-0.878507	0.915806
C92	C	2.061843	-0.888635	0.804065
H93	H	2.127206	-0.910477	0.956572
H94	H	2.061498	-0.857237	0.961790
H95	H	2.187874	-0.860939	0.904848
H96	H	1.987742	-0.906197	0.815025
H97	H	2.114111	-0.909909	0.758084
O98	O	1.582944	-0.554249	0.426523
C99	C	1.515238	-0.518497	0.358680
H100	H	1.511043	-0.479552	0.407813
H101	H	1.559231	-0.512717	0.267562
C102	C	1.392672	-0.587690	0.280942
C103	C	1.387512	-0.539858	0.341293
H104	H	1.313886	-0.600867	0.270211
H105	H	1.438289	-0.611777	0.326646
H106	H	1.429338	-0.582867	0.205017
H107	H	1.350860	-0.544683	0.417222
H108	H	1.341885	-0.515772	0.295602
H109	H	1.950296	-0.701848	0.794283
O110	O	1.885502	-0.446514	0.729523
C111	C	1.953250	-0.482268	0.797320
H112	H	1.904109	-0.521207	0.801444
H113	H	2.044429	-0.488061	0.753453
C114	C	2.030822	-0.413073	0.919997
C115	C	1.970462	-0.460897	0.925072
H116	H	2.041445	-0.399889	0.998799
H117	H	1.985183	-0.388984	0.874319
H118	H	2.106798	-0.417907	0.883436
H119	H	1.894482	-0.456061	0.961618
H120	H	2.016088	-0.484984	0.970759
H121	H	1.873764	-0.953082	0.717566
