data_functionalizedCrystal
_audit_creation_method	'MofGen! by Chris Wilmer'
_symmetry_space_group_name_H-M	'P1'
_symmetry_Int_Tables_number	1
_symmetry_cell_setting	triclinic
loop_
_symmetry_equiv_pos_as_xyz
  x,y,z
_cell_length_a	10.489741
_cell_length_b	10.489741
_cell_length_c	10.868271
_cell_angle_alpha	89.995151
_cell_angle_beta	89.998385
_cell_angle_gamma	84.539174
loop_
_atom_site_label
_atom_site_type_symbol
_atom_site_fract_x
_atom_site_fract_y
_atom_site_fract_z
O1	O	1.694053	0.179969	-0.102245
O2	O	1.322858	0.196862	-0.102265
O3	O	1.516902	0.002817	-0.102247
O4	O	1.500009	0.374013	-0.102263
O5	O	1.516886	0.002810	0.102397
O6	O	1.322841	0.196854	0.102380
O7	O	1.694037	0.179961	0.102399
Zn8	Zn	1.508437	0.188406	0.134881
Zn9	Zn	1.508458	0.188416	-0.134747
O10	O	1.499993	0.374005	0.102382
C11	C	1.275318	0.195582	0.000055
C12	C	1.133688	0.191765	0.000048
C13	C	1.065548	0.068300	0.000065
C14	C	0.973429	0.126627	-0.100835
C15	C	0.973448	0.126649	0.100928
C16	C	1.043435	0.250143	-0.100935
C17	C	1.043463	0.250147	0.100919
C18	C	0.951371	0.308564	-0.000006
C19	C	1.515618	-0.044718	0.000074
C20	C	1.511801	-0.186348	0.000072
C21	C	1.388336	-0.254488	0.000057
C22	C	1.446652	-0.346614	0.100960
C23	C	1.446697	-0.346581	-0.100804
C24	C	1.570167	-0.276609	0.101059
C25	C	1.570195	-0.276566	-0.100796
C26	C	1.628600	-0.368665	0.000132
C27	C	1.741577	0.181241	0.000077
C28	C	1.883206	0.185058	0.000076
C29	C	1.501277	0.421541	0.000058
C30	C	1.505094	0.563170	0.000052
N31	N	1.508432	0.188398	0.318896
N32	N	1.508473	0.188414	-0.318761
C33	C	1.508451	0.188414	0.569902
C34	C	1.508436	0.188409	0.430224
H35	H	0.942463	0.074383	0.186232
O36	O	1.384382	-0.383323	-0.202668
C37	C	1.343202	-0.274503	-0.273481
H38	H	1.404860	-0.193743	-0.251084
H39	H	1.238828	-0.242590	-0.251193
C40	C	1.280195	-0.407028	-0.438703
C41	C	1.355931	-0.307840	-0.411202
H42	H	1.288040	-0.427591	-0.523656
H43	H	1.307933	-0.480343	-0.390994
H44	H	1.193223	-0.380421	-0.420120
H45	H	1.442902	-0.334454	-0.429770
H46	H	1.328207	-0.234530	-0.458917
O47	O	1.080684	0.312245	0.202715
C48	C	1.166626	0.229133	0.271864
H49	H	1.213379	0.150894	0.209321
H50	H	1.112356	0.183693	0.348673
C51	C	1.213237	0.401510	0.404940
C52	C	1.270668	0.305422	0.328122
H53	H	1.277412	0.448567	0.439648
H54	H	1.155333	0.457504	0.358356
H55	H	1.168014	0.363628	0.468937
H56	H	1.315876	0.343305	0.264118
H57	H	1.328582	0.249436	0.374696
O58	O	0.892542	0.429830	0.000092
C59	C	0.929817	0.495204	0.105547
H60	H	1.025520	0.448243	0.140371
H61	H	0.854172	0.490756	0.180346
C62	C	0.825900	0.693737	0.029887
C63	C	0.943449	0.636065	0.072652
H64	H	0.834303	0.780628	0.009599
H65	H	0.800782	0.649693	-0.041158
H66	H	0.762874	0.690018	0.092227
H67	H	1.006468	0.639770	0.010307
H68	H	0.968578	0.680113	0.143686
H69	H	1.622356	-0.245780	0.186460
H70	H	1.286824	-0.204837	0.000153
H71	H	1.115238	-0.033196	-0.000057
H72	H	1.394404	-0.377629	0.186261
H73	H	1.074270	0.302346	-0.186335
H74	H	0.942422	0.074390	-0.186137
O75	O	1.632490	-0.239301	-0.202466
C76	C	1.636198	-0.105310	-0.200439
H77	H	1.625107	-0.069321	-0.101691
H78	H	1.554758	-0.058122	-0.259021
C79	C	1.778868	-0.115508	-0.373767
C80	C	1.765256	-0.071307	-0.252481
H81	H	1.858474	-0.094530	-0.405874
H82	H	1.776367	-0.205779	-0.375136
H83	H	1.710993	-0.076180	-0.422570
H84	H	1.833121	-0.110647	-0.203677
H85	H	1.767772	0.018960	-0.251105
H86	H	1.730204	-0.418089	0.000194
