data_functionalizedCrystal
_audit_creation_method	'MofGen! by Chris Wilmer'
_symmetry_space_group_name_H-M	'P1'
_symmetry_Int_Tables_number	1
_symmetry_cell_setting	triclinic
loop_
_symmetry_equiv_pos_as_xyz
  x,y,z
_cell_length_a	16.109301
_cell_length_b	16.109298
_cell_length_c	15.186229
_cell_angle_alpha	89.993420
_cell_angle_beta	89.994804
_cell_angle_gamma	83.460834
loop_
_atom_site_label
_atom_site_type_symbol
_atom_site_fract_x
_atom_site_fract_y
_atom_site_fract_z
O1	O	1.103134	0.106876	-0.073162
O2	O	1.436467	0.440209	0.260171
O3	O	1.769800	0.773542	0.593504
O4	O	0.861072	0.120175	-0.073175
O5	O	1.194405	0.453508	0.260158
O6	O	1.527738	0.786842	0.593492
O7	O	0.988754	-0.007506	-0.073174
O8	O	1.322087	0.325827	0.260159
O9	O	1.655420	0.659161	0.593492
O10	O	0.975452	0.234556	-0.073163
O11	O	1.308785	0.567890	0.260171
O12	O	1.642118	0.901223	0.593504
O13	O	0.988736	-0.007527	0.073283
O14	O	1.322070	0.325807	0.406616
O15	O	1.655403	0.659140	0.739949
O16	O	0.861054	0.120154	0.073282
O17	O	1.194388	0.453488	0.406616
O18	O	1.527721	0.786821	0.739949
O19	O	1.103116	0.106855	0.073295
O20	O	1.436450	0.440188	0.406628
O21	O	1.769783	0.773522	0.739962
Zn22	Zn	0.982083	0.113501	0.096542
Zn23	Zn	1.315416	0.446835	0.429875
Zn24	Zn	1.648749	0.780168	0.763209
Zn25	Zn	0.982106	0.113529	-0.096422
Zn26	Zn	1.315439	0.446862	0.236912
Zn27	Zn	1.648772	0.780195	0.570245
O28	O	0.975434	0.234536	0.073295
O29	O	1.308768	0.567869	0.406628
O30	O	1.642101	0.901202	0.739961
C31	C	0.830088	0.119626	0.000052
C32	C	1.163421	0.452959	0.333385
C33	C	1.496755	0.786293	0.666719
C34	C	0.737793	0.118011	0.000047
C35	C	1.071126	0.451344	0.333380
C36	C	1.404460	0.784677	0.666713
C37	C	0.988207	-0.038491	0.000051
C38	C	1.321540	0.294842	0.333384
C39	C	1.654873	0.628176	0.666717
C40	C	0.986593	-0.130787	0.000040
C41	C	1.319926	0.202547	0.333374
C42	C	1.653259	0.535880	0.666707
C43	C	0.981335	-0.429844	-0.079775
C44	C	1.314668	-0.096511	0.253558
C45	C	1.648001	0.236823	0.586891
C46	C	0.982863	-0.343124	-0.079782
C47	C	1.316196	-0.009791	0.253552
C48	C	1.649529	0.323542	0.586885
C49	C	0.982856	-0.343132	0.079894
C50	C	1.316189	-0.009799	0.413227
C51	C	1.649522	0.323534	0.746561
C52	C	0.981334	-0.429851	0.079899
C53	C	1.314667	-0.096518	0.413233
C54	C	1.648001	0.236815	0.746566
C55	C	0.980569	-0.473205	0.000062
C56	C	1.313903	-0.139871	0.333395
C57	C	1.647236	0.193462	0.666729
C58	C	0.983619	-0.299766	0.000051
C59	C	1.316952	0.033568	0.333384
C60	C	1.650286	0.366901	0.666717
C61	C	0.985276	-0.205740	0.000044
C62	C	1.318609	0.127593	0.333378
C63	C	1.651942	0.460927	0.666711
C64	C	0.978914	-0.567236	0.000068
C65	C	1.312247	-0.233903	0.333401
C66	C	1.645581	0.099430	0.666734
C67	C	0.515520	0.190019	0.000060
C68	C	0.848853	0.523352	0.333394
C69	C	1.182186	0.856685	0.666727
C70	C	0.428799	0.188495	0.000066
C71	C	0.762133	0.521828	0.333399
C72	C	1.095466	0.855161	0.666733
C73	C	0.448675	0.037006	0.000055
C74	C	0.782009	0.370339	0.333388
C75	C	1.115342	0.703672	0.666721
C76	C	0.535394	0.038531	0.000056
C77	C	0.868727	0.371864	0.333389
C78	C	1.202061	0.705197	0.666722
C79	C	0.568814	0.115039	0.000054
C80	C	0.902147	0.448373	0.333387
C81	C	1.235480	0.781706	0.666720
C82	C	0.395375	0.111990	0.000059
C83	C	0.728708	0.445324	0.333392
C84	C	1.062041	0.778657	0.666725
C85	C	0.301349	0.110337	0.000065
C86	C	0.634682	0.443671	0.333398
C87	C	0.968015	0.777004	0.666731
C88	C	0.662846	0.116693	0.000049
C89	C	0.996179	0.450026	0.333383
C90	C	1.329512	0.783360	0.666716
C91	C	1.134100	0.107404	0.000066
C92	C	1.467433	0.440737	0.333400
C93	C	1.800767	0.774071	0.666733
C94	C	1.226395	0.109019	0.000066
C95	C	1.559729	0.442352	0.333399
C96	C	1.893062	0.775686	0.666733
C97	C	0.975981	0.265521	0.000068
C98	C	1.309315	0.598854	0.333401
C99	C	1.642648	0.932188	0.666734
C100	C	0.977595	0.357817	0.000072
C101	C	1.310929	0.691150	0.333406
C102	C	1.644262	1.024483	0.666739
N103	N	0.982073	0.113482	0.228235
N104	N	1.315406	0.446816	0.561568
N105	N	1.648740	0.780149	0.894901
N106	N	0.982122	0.113541	-0.228114
N107	N	1.315455	0.446874	0.105219
N108	N	1.648788	0.780208	0.438552
C109	C	0.931693	0.063079	0.546181
C110	C	1.265026	0.396413	0.879515
C111	C	1.598359	0.729746	1.212848
C112	C	0.931686	0.063067	0.453992
C113	C	1.265019	0.396401	0.787325
C114	C	1.598352	0.729734	1.120658
C115	C	1.032508	0.163946	0.453945
C116	C	1.365841	0.497279	0.787279
C117	C	1.699174	0.830613	1.120612
C118	C	1.032519	0.163953	0.546133
C119	C	1.365852	0.497286	0.879467
C120	C	1.699185	0.830620	1.212800
C121	C	0.982106	0.113521	0.592249
C122	C	1.315440	0.446855	0.925582
C123	C	1.648773	0.780188	1.258916
C124	C	0.982088	0.113502	0.407871
C125	C	1.315422	0.446835	0.741205
C126	C	1.648755	0.780169	1.074538
C127	C	0.982081	0.113489	0.307915
C128	C	1.315414	0.446823	0.641248
C129	C	1.648748	0.780156	0.974582
C130	C	0.982115	0.113533	0.692211
C131	C	1.315448	0.446866	1.025545
C132	C	1.648781	0.780199	1.358878
H133	H	0.983487	-0.307824	-0.144793
H134	H	1.316821	0.025509	0.188540
H135	H	1.650154	0.358842	0.521873
H136	H	0.983477	-0.307823	0.144895
H137	H	1.316810	0.025510	0.478228
H138	H	1.650144	0.358843	0.811562
H139	H	0.542727	0.252317	0.000066
H140	H	0.876060	0.585650	0.333399
H141	H	1.209393	0.918984	0.666732
C142	C	0.980488	-0.477551	0.167725
C143	C	1.313822	-0.144217	0.501058
C144	C	1.647155	0.189116	0.834391
H145	H	0.981149	-0.439311	0.215272
H146	H	1.314483	-0.105978	0.548606
H147	H	1.647816	0.227356	0.881939
H148	H	1.028348	-0.517737	0.171044
H149	H	1.361682	-0.184403	0.504377
H150	H	1.695015	0.148930	0.837711
H151	H	0.931434	-0.505022	0.171043
H152	H	1.264767	-0.171689	0.504376
H153	H	1.598100	0.161645	0.837710
C154	C	1.087973	0.219443	0.596815
C155	C	1.421306	0.552776	0.930148
C156	C	1.754639	0.886109	1.263482
H157	H	1.080764	0.212216	0.658323
H158	H	1.414097	0.545550	0.991656
H159	H	1.747431	0.878883	1.324990
H160	H	1.072510	0.276325	0.581700
H161	H	1.405843	0.609658	0.915034
H162	H	1.739176	0.942991	1.248367
H163	H	1.144862	0.204003	0.581698
H164	H	1.478195	0.537336	0.915032
H165	H	1.811529	0.870670	1.248365
C166	C	0.594025	-0.043948	0.000047
C167	C	0.927358	0.289385	0.333381
C168	C	1.260691	0.622718	0.666714
H169	H	0.650457	-0.032081	0.000057
H170	H	0.983790	0.301253	0.333391
H171	H	1.317124	0.634586	0.666724
H172	H	0.583904	-0.075314	-0.051027
H173	H	0.917237	0.258020	0.282306
H174	H	1.250570	0.591353	0.615640
H175	H	0.583893	-0.075327	0.051125
H176	H	0.917226	0.258007	0.384458
H177	H	1.250560	0.591340	0.717792
C178	C	0.876242	0.007607	0.596906
C179	C	1.209575	0.340941	0.930239
C180	C	1.542909	0.674274	1.263573
H181	H	0.846221	-0.022439	0.556263
H182	H	1.179554	0.310894	0.889596
H183	H	1.512887	0.644228	1.222929
H184	H	0.837976	0.041674	0.632867
H185	H	1.171309	0.375007	0.966201
H186	H	1.504642	0.708340	1.299534
H187	H	0.910326	-0.030650	0.632871
H188	H	1.243659	0.302683	0.966204
H189	H	1.576992	0.636016	1.299537
C190	C	0.370179	0.270972	0.000067
C191	C	0.703513	0.604305	0.333400
C192	C	1.036846	0.937638	0.666733
H193	H	0.402506	0.316752	0.000059
H194	H	0.735839	0.650086	0.333392
H195	H	1.069173	0.983419	0.666726
H196	H	0.335933	0.273522	0.051139
H197	H	0.669266	0.606856	0.384473
H198	H	1.002600	0.940189	0.717806
H199	H	0.335942	0.273531	-0.051013
H200	H	0.669275	0.606864	0.282321
H201	H	1.002609	0.940197	0.615654
H202	H	0.890635	0.021992	0.416488
H203	H	1.223968	0.355325	0.749821
H204	H	1.557301	0.688658	1.083154
C205	C	0.411910	-0.047147	0.000045
C206	C	0.745244	0.286186	0.333379
C207	C	1.078577	0.619519	0.666712
H208	H	0.352631	-0.037318	0.000036
H209	H	0.685964	0.296015	0.333370
H210	H	1.019297	0.629349	0.666703
H211	H	0.430200	-0.078031	0.051114
H212	H	0.763533	0.255302	0.384447
H213	H	1.096867	0.588636	0.717781
H214	H	0.430211	-0.078006	-0.051038
H215	H	0.763544	0.255328	0.282295
H216	H	1.096878	0.588661	0.615629
C217	C	0.980519	-0.477533	-0.167592
C218	C	1.313853	-0.144200	0.165741
C219	C	1.647186	0.189133	0.499074
H220	H	0.981207	-0.439288	-0.215141
H221	H	1.314540	-0.105954	0.118193
H222	H	1.647873	0.227379	0.451526
H223	H	0.931477	-0.505014	-0.170923
H224	H	1.264810	-0.171681	0.162410
H225	H	1.598144	0.161653	0.495743
H226	H	1.028392	-0.517712	-0.170897
H227	H	1.361725	-0.184379	0.162436
H228	H	1.695059	0.148955	0.495770
H229	H	1.073551	0.205007	0.416387
H230	H	1.406884	0.538340	0.749720
H231	H	1.740217	0.871674	1.083053
