data_functionalizedCrystal
_audit_creation_method	'MofGen! by Chris Wilmer'
_symmetry_space_group_name_H-M	'P1'
_symmetry_Int_Tables_number	1
_symmetry_cell_setting	triclinic
loop_
_symmetry_equiv_pos_as_xyz
  x,y,z
_cell_length_a	14.519709
_cell_length_b	12.503572
_cell_length_c	14.519731
_cell_angle_alpha	93.524736
_cell_angle_beta	96.315500
_cell_angle_gamma	93.519209
loop_
_atom_site_label
_atom_site_type_symbol
_atom_site_fract_x
_atom_site_fract_y
_atom_site_fract_z
O1	O	1.229178	0.089193	-0.115571
O2	O	1.562511	0.422526	0.217762
O3	O	1.895845	0.755859	0.551095
O4	O	0.960704	0.089227	-0.129806
O5	O	1.294038	0.422560	0.203528
O6	O	1.627371	0.755894	0.536861
O7	O	1.102048	0.089187	0.011547
O8	O	1.435381	0.422521	0.344881
O9	O	1.768714	0.755854	0.678214
O10	O	1.087834	0.089233	-0.256924
O11	O	1.421168	0.422566	0.076409
O12	O	1.754501	0.755899	0.409742
O13	O	1.091418	-0.089452	0.000899
O14	O	1.424751	0.243882	0.334232
O15	O	1.758085	0.577215	0.667566
O16	O	0.950074	-0.089412	-0.140454
O17	O	1.283408	0.243922	0.192879
O18	O	1.616741	0.577255	0.526213
O19	O	1.218548	-0.089446	-0.126219
O20	O	1.551881	0.243887	0.207114
O21	O	1.885215	0.577220	0.540447
Cu22	Cu	1.083341	-0.105740	-0.134309
Cu23	Cu	1.416674	0.227593	0.199024
Cu24	Cu	1.750007	0.560927	0.532358
Cu25	Cu	1.095912	0.105521	-0.121716
Cu26	Cu	1.429245	0.438854	0.211617
Cu27	Cu	1.762578	0.772188	0.544950
O28	O	1.077205	-0.089406	-0.267572
O29	O	1.410538	0.243927	0.065761
O30	O	1.743871	0.577260	0.399094
C31	C	0.921030	-0.000088	-0.134466
C32	C	1.254363	0.333245	0.198867
C33	C	1.587696	0.666578	0.532201
C34	C	0.818649	-0.000076	-0.132477
C35	C	1.151982	0.333257	0.200856
C36	C	1.485316	0.666591	0.534190
N37	N	1.074506	-0.254330	-0.143165
N38	N	1.407839	0.079003	0.190168
N39	N	1.741172	0.412337	0.523501
C40	C	0.443750	-0.000126	-0.125161
C41	C	0.777083	0.333207	0.208173
C42	C	1.110416	0.666540	0.541506
C43	C	0.548059	-0.000112	-0.127192
C44	C	0.881392	0.333221	0.206141
C45	C	1.214725	0.666555	0.539474
C46	C	0.631196	-0.000100	-0.128819
C47	C	0.964529	0.333233	0.204515
C48	C	1.297863	0.666567	0.537848
C49	C	0.735512	-0.000088	-0.130851
C50	C	1.068845	0.333245	0.202482
C51	C	1.402178	0.666579	0.535816
C52	C	1.061509	-0.473442	-0.156201
C53	C	1.394842	-0.140108	0.177132
C54	C	1.728176	0.193225	0.510465
C55	C	1.117748	-0.526784	-0.099819
C56	C	1.451081	-0.193451	0.233514
C57	C	1.784414	0.139882	0.566847
C58	C	1.110516	-0.648706	-0.107073
C59	C	1.443850	-0.315372	0.226261
C60	C	1.777183	0.017961	0.559594
C61	C	1.068739	-0.351509	-0.148949
C62	C	1.402073	-0.018176	0.184384
C63	C	1.735406	0.315157	0.517717
C64	C	1.258223	-0.000128	-0.121559
C65	C	1.591556	0.333205	0.211774
C66	C	1.924889	0.666538	0.545108
C67	C	1.360604	-0.000134	-0.123547
C68	C	1.693937	0.333200	0.209786
C69	C	2.027271	0.666533	0.543119
C70	C	1.096067	-0.000135	0.040582
C71	C	1.429400	0.333198	0.373916
C72	C	1.762733	0.666531	0.707249
C73	C	1.094070	-0.000145	0.142962
C74	C	1.427403	0.333188	0.476295
C75	C	1.760737	0.666522	0.809629
N76	N	1.104754	0.254111	-0.112852
N77	N	1.438087	0.587444	0.220481
N78	N	1.771421	0.920778	0.553814
C79	C	1.092448	-0.000150	0.226106
C80	C	1.425781	0.333184	0.559439
C81	C	1.759114	0.666517	0.892773
C82	C	1.090421	-0.000150	0.330415
C83	C	1.423754	0.333183	0.663748
C84	C	1.757088	0.666516	0.997081
C85	C	1.088813	-0.000151	0.413554
C86	C	1.422146	0.333183	0.746887
C87	C	1.755479	0.666516	1.080220
C88	C	1.086786	-0.000154	0.517869
C89	C	1.420119	0.333180	0.851202
C90	C	1.753453	0.666513	1.184536
C91	C	1.083185	-0.000104	0.703391
C92	C	1.416518	0.333230	1.036725
C93	C	1.749851	0.666563	1.370058
C94	C	1.085178	-0.000154	0.601008
C95	C	1.418511	0.333180	0.934341
C96	C	1.751844	0.666513	1.267675
H97	H	1.171327	-0.480887	-0.046102
H98	H	1.504660	-0.147553	0.287231
H99	H	1.837994	0.185780	0.620564
F100	F	0.991483	-0.533427	-0.226412
F101	F	1.324816	-0.200094	0.106921
F102	F	1.658150	0.133239	0.440254
