data_functionalizedCrystal
_audit_creation_method	'MofGen! by Chris Wilmer'
_symmetry_space_group_name_H-M	'P1'
_symmetry_Int_Tables_number	1
_symmetry_cell_setting	triclinic
loop_
_symmetry_equiv_pos_as_xyz
  x,y,z
_cell_length_a	16.109317
_cell_length_b	13.930277
_cell_length_c	16.109298
_cell_angle_alpha	89.999160
_cell_angle_beta	96.535799
_cell_angle_gamma	89.997373
loop_
_atom_site_label
_atom_site_type_symbol
_atom_site_fract_x
_atom_site_fract_y
_atom_site_fract_z
O1	O	-1.103125	0.079717	0.106932
O2	O	-0.861065	0.079740	0.120217
O3	O	-0.988746	0.079735	-0.007456
O4	O	-0.975444	0.079722	0.234605
O5	O	-0.988729	-0.079927	-0.007459
O6	O	-0.861047	-0.079922	0.120214
O7	O	-1.103108	-0.079945	0.106929
Zn8	Zn	-0.982075	-0.105283	0.113571
Zn9	Zn	-0.982098	0.105078	0.113575
O10	O	-0.975427	-0.079940	0.234602
C11	C	-0.830082	-0.000088	0.119675
C12	C	-0.737787	-0.000079	0.118054
N13	N	-0.982065	-0.248849	0.113568
C14	C	-0.438723	0.086942	0.112822
C15	C	-0.525444	0.086947	0.114339
C16	C	-0.525444	-0.087126	0.114325
C17	C	-0.438725	-0.087129	0.112802
C18	C	-0.395366	-0.000092	0.112054
C19	C	-0.568806	-0.000085	0.115095
C20	C	-0.662833	-0.000081	0.116740
C21	C	-0.301333	-0.000095	0.110408
C22	C	-0.925559	-0.701116	0.170086
C23	C	-1.038660	-0.701090	0.057057
C24	C	-1.038651	-0.600595	0.057054
C25	C	-0.982095	-0.550355	0.113569
C26	C	-0.925549	-0.600611	0.170087
C27	C	-1.095201	-0.550331	0.000543
C28	C	-1.095194	-0.449829	0.000539
C29	C	-1.038634	-0.399588	0.057051
C30	C	-0.982085	-0.449850	0.113570
C31	C	-0.925529	-0.399611	0.170085
C32	C	-0.868975	-0.449871	0.226602
C33	C	-0.868988	-0.550370	0.226599
C34	C	-1.038621	-0.299089	0.057053
C35	C	-0.925519	-0.299105	0.170086
C36	C	-0.134091	-0.000110	0.107472
C37	C	-0.226385	-0.000098	0.109095
C38	C	-0.988199	-0.000093	-0.038433
C39	C	-0.986585	-0.000081	-0.130728
N40	N	-0.982115	0.248644	0.113571
C41	C	-0.981327	0.086931	-0.429796
C42	C	-0.982855	0.086938	-0.343076
C43	C	-0.982848	-0.087134	-0.343064
C44	C	-0.981326	-0.087140	-0.429784
C45	C	-0.980562	-0.000105	-0.473147
C46	C	-0.983611	-0.000092	-0.299707
C47	C	-0.985268	-0.000086	-0.205682
C48	C	-0.978906	-0.000111	-0.567178
C49	C	-0.975974	-0.000111	0.265579
C50	C	-0.977588	-0.000116	0.357874
H51	H	-0.403423	0.157814	0.112212
H52	H	-0.560742	0.157819	0.114963
H53	H	-1.141251	-0.591239	-0.045466
O54	O	-1.150154	-0.401160	-0.054443
C55	C	-1.262368	-0.411749	-0.166524
C56	C	-1.200162	-0.466988	-0.104313
H57	H	-1.302827	-0.464947	-0.206849
H58	H	-1.226524	-0.364735	-0.208131
H59	H	-1.303844	-0.364659	-0.130600
H60	H	-1.158669	-0.514130	-0.140169
H61	H	-1.236057	-0.513941	-0.062707
H62	H	-0.822931	-0.408954	0.272620
H63	H	-1.084669	-0.258171	0.011042
H64	H	-0.822945	-0.591298	0.272613
O65	O	-0.567670	-0.171607	0.114949
C66	C	-0.674985	-0.272644	0.044656
C67	C	-0.627246	-0.176924	0.043853
H68	H	-0.723151	-0.276983	-0.012828
H69	H	-0.708019	-0.277013	0.103481
H70	H	-0.629079	-0.334836	0.043885
H71	H	-0.673096	-0.114678	0.044593
H72	H	-0.594199	-0.172639	-0.014967
O73	O	-0.983601	-0.171762	-0.301070
C74	C	-0.983339	-0.344418	-0.310200
C75	C	-0.982518	-0.248645	-0.357863
H76	H	-0.982446	-0.406603	-0.356094
H77	H	-1.042205	-0.348854	-0.277237
H78	H	-0.925907	-0.348694	-0.261965
H79	H	-1.039910	-0.244305	-0.406138
H80	H	-0.923615	-0.244250	-0.390769
H81	H	-0.980704	0.157801	-0.465099
O82	O	-0.870510	-0.749892	0.224899
C83	C	-0.725937	-0.780615	0.273588
C84	C	-0.788188	-0.725333	0.211455
H85	H	-0.659366	-0.760765	0.262752
H86	H	-0.735581	-0.861086	0.263880
H87	H	-0.736787	-0.760870	0.340179
H88	H	-0.777376	-0.744998	0.144839
H89	H	-0.778529	-0.644876	0.221236
H90	H	-0.983480	0.157811	-0.307784
O91	O	-0.980600	-0.171606	-0.472031
C92	C	-0.978169	-0.248752	-0.605614
C93	C	-0.979014	-0.153033	-0.557876
H94	H	-0.976869	-0.233770	-0.675026
H95	H	-1.036620	-0.291702	-0.596257
H96	H	-0.920324	-0.291655	-0.580883
H97	H	-1.036820	-0.110053	-0.582577
H98	H	-0.920524	-0.110156	-0.567232
O99	O	-0.396726	-0.171765	0.112096
C100	C	-0.405876	-0.344421	0.112190
C101	C	-0.453540	-0.248647	0.113015
H102	H	-0.451792	-0.406605	0.112915
H103	H	-0.357671	-0.348846	0.169639
H104	H	-0.372878	-0.348710	0.053340
H105	H	-0.486588	-0.244294	0.171827
H106	H	-0.501697	-0.244262	0.055527
O107	O	-0.870548	-0.250455	0.225067
C108	C	-0.758329	-0.261087	0.337141
C109	C	-0.820550	-0.316302	0.274935
H110	H	-0.717878	-0.314301	0.377464
H111	H	-0.794160	-0.214060	0.378751
H112	H	-0.716846	-0.214013	0.301214
H113	H	-0.862050	-0.363429	0.310793
H114	H	-0.784668	-0.363269	0.233325
H115	H	-1.084711	-0.741999	0.011048
