data_functionalizedCrystal
_audit_creation_method	'MofGen! by Chris Wilmer'
_symmetry_space_group_name_H-M	'P1'
_symmetry_Int_Tables_number	1
_symmetry_cell_setting	triclinic
loop_
_symmetry_equiv_pos_as_xyz
  x,y,z
_cell_length_a	11.169417
_cell_length_b	12.827892
_cell_length_c	12.827885
_cell_angle_alpha	89.970214
_cell_angle_beta	89.982092
_cell_angle_gamma	90.016270
loop_
_atom_site_label
_atom_site_type_symbol
_atom_site_fract_x
_atom_site_fract_y
_atom_site_fract_z
Zn1	Zn	1.834897	-0.415958	-0.590811
Zn2	Zn	2.084897	-0.165958	-0.340811
Zn3	Zn	2.334897	0.084042	-0.090811
Zn4	Zn	2.584897	0.334042	0.159189
Zn5	Zn	1.834776	-0.590735	-0.416071
Zn6	Zn	2.084776	-0.340735	-0.166071
Zn7	Zn	2.334776	-0.090735	0.083929
Zn8	Zn	2.584776	0.159265	0.333929
Zn9	Zn	1.634190	-0.416012	-0.416088
Zn10	Zn	1.884190	-0.166012	-0.166088
Zn11	Zn	2.134190	0.083988	0.083912
Zn12	Zn	2.384190	0.333988	0.333912
Zn13	Zn	1.634173	-0.590660	-0.590775
Zn14	Zn	1.884173	-0.340660	-0.340775
Zn15	Zn	2.134173	-0.090660	-0.090775
Zn16	Zn	2.384173	0.159340	0.159225
O17	O	1.734509	-0.503341	-0.503436
O18	O	1.984509	-0.253341	-0.253436
O19	O	2.234509	-0.003341	-0.003436
O20	O	2.484509	0.246659	0.246564
O21	O	2.002831	-0.439151	-0.567639
O22	O	2.252831	-0.189151	-0.317639
O23	O	2.502831	0.060849	-0.067639
O24	O	2.752831	0.310849	0.182361
O25	O	1.808124	-0.567612	-0.269837
O26	O	2.058124	-0.317612	-0.019837
O27	O	2.308124	-0.067612	0.230163
O28	O	2.558124	0.182388	0.480163
O29	O	1.660872	-0.269768	-0.439288
O30	O	1.910872	-0.019768	-0.189288
O31	O	2.160872	0.230232	0.060712
O32	O	2.410872	0.480232	0.310712
O33	O	2.002742	-0.567560	-0.439258
O34	O	2.252742	-0.317560	-0.189258
O35	O	2.502742	-0.067560	0.060742
O36	O	2.752742	0.182440	0.310742
O37	O	1.808331	-0.269729	-0.567656
O38	O	2.058331	-0.019729	-0.317656
O39	O	2.308331	0.230271	-0.067656
O40	O	2.558331	0.480271	0.182344
O41	O	1.660754	-0.439243	-0.269850
O42	O	1.910754	-0.189243	-0.019850
O43	O	2.160754	0.060757	0.230150
O44	O	2.410754	0.310757	0.480150
O45	O	1.466238	-0.439170	-0.439253
O46	O	1.716238	-0.189170	-0.189253
O47	O	1.966238	0.060830	0.060747
O48	O	2.216238	0.310830	0.310747
O49	O	1.660843	-0.567432	-0.737016
O50	O	1.910843	-0.317432	-0.487016
O51	O	2.160843	-0.067432	-0.237016
O52	O	2.410843	0.182568	0.012984
O53	O	1.466226	-0.567484	-0.567595
O54	O	1.716226	-0.317484	-0.317595
O55	O	1.966226	-0.067484	-0.067595
O56	O	2.216226	0.182516	0.182405
O57	O	1.808315	-0.439079	-0.737042
O58	O	2.058315	-0.189079	-0.487042
O59	O	2.308315	0.060921	-0.237042
O60	O	2.558315	0.310921	0.012958
O61	O	1.808108	-0.736961	-0.439224
O62	O	2.058108	-0.486961	-0.189224
O63	O	2.308108	-0.236961	0.060776
O64	O	2.558108	0.013039	0.310776
O65	O	1.660726	-0.736906	-0.567578
O66	O	1.910726	-0.486906	-0.317578
O67	O	2.160726	-0.236906	-0.067578
O68	O	2.410726	0.013094	0.182422
C69	C	1.422684	-0.503325	-0.503423
C70	C	1.672684	-0.253325	-0.253423
C71	C	1.922684	-0.003325	-0.003423
C72	C	2.172684	0.246675	0.246577
C73	C	1.289284	-0.503344	-0.503442
C74	C	1.539284	-0.253344	-0.253442
C75	C	1.789284	-0.003344	-0.003442
C76	C	2.039284	0.246656	0.246558
C77	C	1.734434	-0.774851	-0.503418
C78	C	1.984434	-0.524851	-0.253418
C79	C	2.234434	-0.274851	-0.003418
C80	C	2.484434	-0.024851	0.246582
C81	C	1.734512	-0.891004	-0.503445
C82	C	1.984512	-0.641004	-0.253445
C83	C	2.234512	-0.391004	-0.003445
C84	C	2.484512	-0.141004	0.246555
C85	C	1.807528	-0.942782	-0.440002
C86	C	2.057528	-0.692782	-0.190002
C87	C	2.307528	-0.442782	0.059998
C88	C	2.557528	-0.192782	0.309998
C89	C	1.807610	-1.062832	-0.440028
C90	C	2.057610	-0.812832	-0.190028
C91	C	2.307610	-0.562832	0.059972
C92	C	2.557610	-0.312832	0.309972
C93	C	2.047551	-0.503358	-0.503450
C94	C	2.297551	-0.253358	-0.253450
C95	C	2.547551	-0.003358	-0.003450
C96	C	2.797551	0.246642	0.246550
C97	C	2.180951	-0.503365	-0.503456
C98	C	2.430951	-0.253365	-0.253456
C99	C	2.680951	-0.003365	-0.003456
C100	C	2.930951	0.246635	0.246544
C101	C	1.734591	-0.503241	-0.776007
C102	C	1.984591	-0.253241	-0.526007
C103	C	2.234591	-0.003241	-0.276007
C104	C	2.484591	0.246759	-0.026007
C105	C	1.734626	-0.503198	-0.892160
C106	C	1.984626	-0.253198	-0.642160
C107	C	2.234626	-0.003198	-0.392160
C108	C	2.484626	0.246802	-0.142160
C109	C	1.734617	-0.230771	-0.503478
C110	C	1.984617	0.019229	-0.253478
C111	C	2.234617	0.269229	-0.003478
C112	C	2.484617	0.519229	0.246522
C113	C	1.734663	-0.114618	-0.503495
C114	C	1.984663	0.135382	-0.253495
C115	C	2.234663	0.385382	-0.003495
C116	C	2.484663	0.635382	0.246505
C117	C	1.807607	-0.439673	-0.943957
C118	C	2.057607	-0.189673	-0.693957
C119	C	2.307607	0.060327	-0.443957
C120	C	2.557607	0.310327	-0.193957
C121	C	1.807645	-0.439627	-1.064008
C122	C	2.057645	-0.189627	-0.814008
C123	C	2.307645	0.060373	-0.564008
C124	C	2.557645	0.310373	-0.314008
C125	C	1.734497	-0.503366	-0.231926
C126	C	1.984497	-0.253366	0.018074
C127	C	2.234497	-0.003366	0.268074
C128	C	2.484497	0.246634	0.518074
C129	C	1.734695	-0.503114	-0.115774
C130	C	1.984695	-0.253114	0.134226
C131	C	2.234695	-0.003114	0.384226
C132	C	2.484695	0.246886	0.634226
H133	H	1.869984	-0.898236	-0.385669
H134	H	2.119984	-0.648236	-0.135669
H135	H	2.369984	-0.398236	0.114331
H136	H	2.619984	-0.148236	0.364331
Cl137	Cl	1.638225	-0.587096	-1.047013
Cl138	Cl	1.888225	-0.337096	-0.797013
Cl139	Cl	2.138225	-0.087096	-0.547013
Cl140	Cl	2.388225	0.162904	-0.297013
H141	H	1.870057	-0.385316	-0.899427
H142	H	2.120057	-0.135316	-0.649427
H143	H	2.370057	0.114684	-0.399427
H144	H	2.620057	0.364684	-0.149427
Cl145	Cl	1.638094	-0.959774	-0.587345
Cl146	Cl	1.888094	-0.709774	-0.337345
Cl147	Cl	2.138094	-0.459774	-0.087345
Cl148	Cl	2.388094	-0.209774	0.162655
Cl149	Cl	1.904124	-0.355659	-1.132776
Cl150	Cl	2.154124	-0.105659	-0.882776
Cl151	Cl	2.404124	0.144341	-0.632776
Cl152	Cl	2.654124	0.394341	-0.382776
H153	H	1.870118	-1.107359	-0.385709
H154	H	2.120118	-0.857359	-0.135709
H155	H	2.370118	-0.607359	0.114291
H156	H	2.620118	-0.357359	0.364291
Cl157	Cl	1.638135	-1.045884	-0.587357
Cl158	Cl	1.888135	-0.795884	-0.337357
Cl159	Cl	2.138135	-0.545884	-0.087357
Cl160	Cl	2.388135	-0.295884	0.162643
H161	H	1.672164	-0.557544	-0.936691
H162	H	1.922164	-0.307544	-0.686691
H163	H	2.172164	-0.057544	-0.436691
H164	H	2.422164	0.192456	-0.186691
