data_functionalizedCrystal
_audit_creation_method	'MofGen! by Chris Wilmer'
_symmetry_space_group_name_H-M	'P1'
_symmetry_Int_Tables_number	1
_symmetry_cell_setting	triclinic
loop_
_symmetry_equiv_pos_as_xyz
  x,y,z
_cell_length_a	23.196402
_cell_length_b	23.196402
_cell_length_c	23.196401
_cell_angle_alpha	90.011299
_cell_angle_beta	60.007472
_cell_angle_gamma	59.999102
loop_
_atom_site_label
_atom_site_type_symbol
_atom_site_fract_x
_atom_site_fract_y
_atom_site_fract_z
Zr1	Zr	0.630993	0.555372	-0.075657
O2	O	0.751264	0.463301	-0.167704
O3	O	0.510725	0.583595	-0.047440
O4	O	0.630994	0.583569	-0.167709
O5	O	0.630994	0.463350	0.047436
O6	O	0.630992	0.678441	-0.167711
O7	O	0.630995	0.463327	-0.047436
O8	O	0.415853	0.678487	0.047428
O9	O	0.846133	0.463304	-0.167703
O10	O	0.560191	0.666436	-0.035406
O11	O	0.560191	0.595651	0.035397
O12	O	0.701792	0.595621	-0.106204
O13	O	0.701793	0.524836	-0.035401
Zr14	Zr	0.630987	0.706718	0.075649
Zr15	Zr	0.630990	0.706682	-0.075660
Zr16	Zr	0.630991	0.555408	0.075652
Zr17	Zr	0.782298	0.555376	-0.075654
Zr18	Zr	0.479683	0.706714	0.075647
O19	O	0.751255	0.678496	0.047433
O20	O	0.751259	0.678444	-0.167709
O21	O	0.751261	0.463353	0.047437
O22	O	0.510717	0.798789	0.167697
O23	O	0.510720	0.798738	-0.047445
O24	O	0.510722	0.583646	0.167702
O25	O	0.630987	0.798741	-0.047443
O26	O	0.630987	0.678521	0.167701
O27	O	0.630989	0.583649	0.167703
O28	O	0.630985	0.798763	0.047428
O29	O	0.846130	0.583575	-0.167705
O30	O	0.415851	0.678515	0.167698
O31	O	0.415848	0.798786	0.167695
O32	O	0.415850	0.798758	0.047425
O33	O	0.846131	0.463333	-0.047432
O34	O	0.846128	0.583604	-0.047435
O35	O	0.560188	0.666470	0.106197
O36	O	0.560188	0.737254	0.035394
O37	O	0.701789	0.666440	-0.035404
O38	O	0.701790	0.595655	0.035399
C39	C	0.441731	0.631040	-0.000007
C40	C	0.377499	0.631038	-0.000008
C41	C	-0.033081	0.578780	-0.052268
C42	C	0.027276	0.578774	-0.052267
C43	C	0.005192	0.631051	-0.000004
C44	C	-0.077259	0.683328	0.052273
C45	C	-0.137614	0.683328	0.052275
C46	C	0.060769	0.694849	0.016282
C47	C	0.121125	0.694849	0.016276
C48	C	0.191344	0.631050	-0.000007
C49	C	0.201210	0.567247	-0.016297
C50	C	0.140855	0.567248	-0.016295
C51	C	0.070631	0.631056	-0.000000
C52	C	0.339231	0.578768	-0.052277
C53	C	0.399588	0.578761	-0.052272
C54	C	0.295050	0.683321	0.052266
C55	C	0.234696	0.683321	0.052263
C56	C	0.256792	0.631045	-0.000012
C57	C	0.630995	0.441780	0.000000
C58	C	0.630997	0.377545	0.000002
C59	C	0.631004	0.347360	-0.052267
C60	C	0.630996	0.287009	-0.052267
C61	C	0.630999	0.256837	-0.000003
C62	C	0.630987	0.287031	0.052275
C63	C	0.630986	0.347385	0.052277
C64	C	0.678505	0.137467	0.016283
C65	C	0.678511	0.077111	0.016276
C66	C	0.630998	0.070686	-0.000007
C67	C	0.583489	0.124619	-0.016298
C68	C	0.583488	0.184973	-0.016296
C69	C	0.630999	0.191393	0.000000
C70	C	0.630995	-0.024937	-0.052279
C71	C	0.630983	-0.085287	-0.052274
C72	C	0.630982	-0.085268	0.052265
C73	C	0.630986	-0.024915	0.052263
C74	C	0.630997	0.005244	-0.000013
C75	C	0.820249	0.631050	-0.000001
C76	C	0.884482	0.631052	0.000000
C77	C	0.630993	0.631000	-0.189268
C78	C	0.630994	0.630985	-0.253503
C79	C	0.630986	0.820310	-0.000008
C80	C	0.630984	0.884545	-0.000009
C81	C	0.704907	0.594023	-0.320631
C82	C	0.704908	0.594041	-0.380987
C83	C	0.630992	0.631011	-0.374209
C84	C	0.557070	0.667980	-0.307068
C85	C	0.557071	0.667967	-0.246715
C86	C	0.574364	0.625759	-0.441527
C87	C	0.574366	0.625767	-0.501880
C88	C	0.630986	0.631055	-0.560357
C89	C	0.687618	0.636321	-0.558479
C90	C	0.687619	0.636308	-0.498126
C91	C	0.630983	0.631030	-0.439648
C92	C	0.704905	0.594112	-0.692932
C93	C	0.704903	0.594135	-0.753287
C94	C	0.557063	0.668069	-0.679366
C95	C	0.557067	0.668051	-0.619014
C96	C	0.630990	0.631068	-0.625801
C97	C	0.630987	0.631090	0.189261
C98	C	0.630986	0.631106	0.253495
C99	C	0.441727	0.820305	-0.000011
C100	C	0.377492	0.884539	-0.000013
C101	C	0.441729	0.631085	0.189258
C102	C	0.377495	0.631099	0.253491
C103	C	0.441724	0.820351	0.189254
C104	C	0.377488	0.884599	0.253486
C105	C	0.820257	0.441740	-0.189261
C106	C	0.884492	0.377491	-0.253493
C107	C	0.820254	0.441785	0.000003
C108	C	0.884488	0.377552	0.000006
C109	C	0.820252	0.631005	-0.189265
C110	C	0.884486	0.630991	-0.253499
C111	C	0.347329	0.877736	-0.036977
C112	C	0.286982	0.938085	-0.036994
C113	C	0.256796	1.005234	-0.000041
C114	C	0.286965	1.012035	0.036924
C115	C	0.347315	0.951687	0.036936
C116	C	0.347328	0.668072	0.320619
C117	C	0.286983	0.668082	0.380979
C118	C	0.256800	0.631123	0.374210
C119	C	0.286972	0.594145	0.307075
C120	C	0.347321	0.594131	0.246716
C121	C	0.347322	0.951726	0.246692
C122	C	0.286975	1.012100	0.307039
C123	C	0.256790	1.005346	0.374180
C124	C	0.286962	0.938212	0.380973
C125	C	0.347313	0.877839	0.320626
C126	C	0.914666	0.310364	-0.246699
C127	C	0.975032	0.249990	-0.307046
C128	C	1.005220	0.256744	-0.374187
C129	C	0.975044	0.323879	-0.380980
C130	C	0.914683	0.384251	-0.320633
C131	C	0.914658	0.384354	0.036964
C132	C	0.975022	0.324006	0.036963
C133	C	1.005210	0.256856	0.000009
C134	C	0.975037	0.250055	-0.036954
C135	C	0.914679	0.310403	-0.036957
C136	C	0.914649	0.667958	-0.246707
C137	C	0.974996	0.667959	-0.307055
C138	C	1.005182	0.630989	-0.374195
C139	C	0.975012	0.594021	-0.380986
C140	C	0.914663	0.594025	-0.320638
H141	H	0.167570	0.725890	0.094823
Cl142	Cl	0.153254	0.487043	-0.036767
Cl143	Cl	0.180930	0.631149	0.450098
H144	H	0.890090	0.304851	-0.192035
H145	H	0.262388	0.564054	0.301574
H146	H	0.262425	0.932534	-0.067095
Cl147	Cl	0.876713	0.714441	-0.162309
H148	H	1.054357	0.207723	0.000017
H149	H	0.207655	1.054367	-0.000056
Cl150	Cl	1.012915	0.714431	-0.298502
H151	H	0.733729	0.640597	-0.496599
H152	H	1.054369	0.207579	-0.423319
Cl153	Cl	0.249061	0.714575	0.465369
H154	H	-0.095237	0.725891	0.094828
Cl155	Cl	0.385223	0.793453	0.329180
Cl156	Cl	1.012994	0.165633	-0.083404
Cl157	Cl	0.876753	0.301839	-0.083418
Cl158	Cl	0.249006	0.929732	0.465384
H159	H	0.631009	0.371916	-0.094831
Cl160	Cl	0.631006	0.249055	-0.117983
Cl161	Cl	1.013000	0.332358	-0.465391
Cl162	Cl	0.876752	0.468637	-0.329187
H163	H	0.258386	0.515296	-0.029557
Cl164	Cl	0.797830	0.547669	-0.837682
Cl165	Cl	1.012952	0.165602	-0.298490
H166	H	0.496879	0.698145	-0.564353
H167	H	0.890084	0.439025	0.067061
Cl168	Cl	0.385232	0.547651	0.162329
H169	H	0.371890	0.957239	0.192028
Cl170	Cl	0.249053	1.096489	0.298483
Cl171	Cl	1.012937	0.332571	0.083438
H172	H	1.054322	0.630991	-0.423328
H173	H	0.371897	0.698169	0.326145
Cl174	Cl	0.758803	0.642969	-0.631987
Cl175	Cl	0.249005	1.096457	0.083379
Cl176	Cl	0.876758	0.547540	-0.329189
Cl177	Cl	-0.005301	0.513056	-0.117980
Cl178	Cl	0.130924	0.513057	-0.117983
H179	H	0.999599	0.563921	-0.435659
H180	H	0.371905	0.823065	-0.067077
H181	H	0.113088	0.746801	0.029535
H182	H	0.357224	0.536200	-0.094842
Cl183	Cl	0.738240	0.145536	0.036758
H184	H	0.207649	1.054511	0.423312
Cl185	Cl	0.267280	0.749038	0.117973
Cl186	Cl	0.503230	0.513036	-0.117982
Cl187	Cl	0.464139	0.714555	-0.670839
Cl188	Cl	-0.027499	0.775060	0.036742
Cl189	Cl	0.523762	0.252773	-0.036769
Cl190	Cl	-0.241256	0.749048	0.117989
H191	H	0.544803	0.119390	-0.029561
H192	H	0.631000	-0.000379	-0.094843
H193	H	0.630979	-0.109831	0.094821
Cl194	Cl	0.630984	-0.123233	-0.117985
H195	H	0.371867	0.957236	0.067041
H196	H	0.765097	0.563999	-0.698459
H197	H	0.630985	-0.000340	0.094823
H198	H	0.717198	0.033201	0.029537
Cl199	Cl	0.503178	0.619141	-0.504238
Cl200	Cl	0.630979	0.385334	0.117991
Cl201	Cl	0.797839	0.547516	-0.329167
Cl202	Cl	0.630985	0.249104	0.117980
H203	H	0.765098	0.563941	-0.435653
H204	H	0.496888	0.698082	-0.301553
Cl205	Cl	0.464145	0.714431	-0.162319
Cl206	Cl	0.503133	0.619169	-0.367995
