data_functionalizedCrystal
_audit_creation_method	'MofGen! by Chris Wilmer'
_symmetry_space_group_name_H-M	'P1'
_symmetry_Int_Tables_number	1
_symmetry_cell_setting	triclinic
loop_
_symmetry_equiv_pos_as_xyz
  x,y,z
_cell_length_a	14.560432
_cell_length_b	14.560438
_cell_length_c	14.560438
_cell_angle_alpha	60.005867
_cell_angle_beta	90.000075
_cell_angle_gamma	60.000781
loop_
_atom_site_label
_atom_site_type_symbol
_atom_site_fract_x
_atom_site_fract_y
_atom_site_fract_z
Zr1	Zr	0.884790	1.005216	-0.120380
O2	O	0.738152	1.196799	-0.267000
O3	O	0.929737	0.813632	-0.075453
O4	O	0.929745	1.005219	-0.267029
O5	O	0.738143	1.005210	0.075716
O6	O	1.080882	1.005223	-0.267029
O7	O	0.738144	1.005212	-0.075424
O8	O	1.080868	0.662508	0.075665
O9	O	0.738158	1.347924	-0.266978
O10	O	1.061705	0.892436	-0.056268
O11	O	0.948912	0.892432	0.056526
O12	O	0.948922	1.118001	-0.169030
O13	O	0.836129	1.117997	-0.056235
Zr14	Zr	1.125836	1.005219	0.120671
Zr15	Zr	1.125837	1.005222	-0.120381
Zr16	Zr	0.884789	1.005213	0.120672
Zr17	Zr	0.884799	1.246244	-0.120345
Zr18	Zr	1.125826	0.764191	0.120636
O19	O	1.080889	1.196803	0.075744
O20	O	1.080890	1.196808	-0.267001
O21	O	0.738151	1.196794	0.075744
O22	O	1.272473	0.813636	0.267291
O23	O	1.272474	0.813641	-0.075453
O24	O	0.929735	0.813627	0.267292
O25	O	1.272482	1.005225	-0.075425
O26	O	1.080881	1.005216	0.267319
O27	O	0.929743	1.005212	0.267320
O28	O	1.272482	1.005223	0.075715
O29	O	0.929759	1.347929	-0.266978
O30	O	1.080867	0.662506	0.267269
O31	O	1.272467	0.662511	0.267269
O32	O	1.272468	0.662513	0.075665
O33	O	0.738158	1.347922	-0.075374
O34	O	0.929758	1.347927	-0.075374
O35	O	1.061704	0.892434	0.169321
O36	O	1.174497	0.892438	0.056526
O37	O	1.061714	1.118003	-0.056235
O38	O	0.948921	1.117999	0.056559
C39	C	1.005301	0.703729	0.000101
C40	C	1.005297	0.601406	0.000086
C41	C	0.922041	0.636532	-0.083135
C42	C	0.922059	0.540343	-0.083079
C43	C	1.088593	0.373904	0.083431
C44	C	1.088579	0.470092	0.083369
C45	C	0.825890	0.732623	-0.179265
C46	C	0.825908	0.636434	-0.179209
C47	C	0.703800	1.005210	0.000146
C48	C	0.601469	1.005207	0.000146
C49	C	0.719198	0.769715	0.117859
C50	C	0.729986	0.651973	0.176710
C51	C	0.633833	0.651978	0.176707
C52	C	0.526885	0.769739	0.117849
C53	C	0.516097	0.887480	0.058999
C54	C	0.612258	0.887462	0.059005
C55	C	0.398369	1.122970	-0.058706
C56	C	0.494520	1.122967	-0.058711
C57	C	0.291420	1.240730	-0.117564
C58	C	0.280631	1.358475	-0.176423
C59	C	0.376792	1.358465	-0.176418
C60	C	0.483732	1.240709	-0.117562
C61	C	1.306826	1.005225	0.000145
C62	C	1.409157	1.005228	0.000145
C63	C	1.005314	1.005221	-0.301373
C64	C	1.005314	1.005223	-0.403706
C65	C	1.005325	1.306706	0.000190
C66	C	1.005329	1.409029	0.000205
C67	C	1.088579	1.005213	-0.547934
C68	C	1.088578	1.005223	-0.451788
C69	C	0.922038	1.005226	-0.451783
C70	C	0.922035	1.005225	-0.547933
C71	C	1.184732	1.005206	-0.547933
C72	C	1.184732	1.005216	-0.451786
C73	C	1.005312	1.005214	0.301664
C74	C	1.005311	1.005212	0.403997
C75	C	1.306814	0.703736	0.000101
C76	C	1.409141	0.601417	0.000085
C77	C	1.005300	0.703725	0.301620
C78	C	1.005295	0.601401	0.403938
C79	C	1.306813	0.703733	0.301620
C80	C	1.409139	0.601411	0.403937
C81	C	0.703813	1.306702	-0.301329
C82	C	0.601486	1.409024	-0.403646
C83	C	0.703812	1.306698	0.000190
C84	C	0.601485	1.409018	0.000205
C85	C	1.005326	1.306710	-0.301329
C86	C	1.005330	1.409034	-0.403647
C87	C	1.398341	0.553342	-0.058796
C88	C	1.494491	0.457209	-0.058813
C89	C	1.612239	0.457230	0.058940
C90	C	1.516089	0.553368	0.058950
C91	C	1.330361	0.553325	-0.126776
C92	C	1.426512	0.457193	-0.126793
C93	C	1.064171	0.553325	0.510884
C94	C	1.064158	0.457186	0.607019
C95	C	0.946392	0.457204	0.489246
C96	C	0.946399	0.553347	0.393114
C97	C	1.132167	0.553310	0.578880
C98	C	1.132154	0.457171	0.675015
C99	C	1.516089	0.553339	0.393131
C100	C	1.612232	0.457203	0.489274
C101	C	1.494461	0.457218	0.607024
C102	C	1.398321	0.553358	0.510883
C103	C	1.584084	0.553326	0.325150
C104	C	1.680227	0.457190	0.421292
H105	H	1.156398	0.266979	0.151236
H106	H	0.842706	0.636402	-0.255666
H107	H	1.279445	0.517191	-0.081919
Cl108	Cl	1.249771	0.692288	-0.265749
Cl109	Cl	0.604619	1.240686	-0.117556
Cl110	Cl	1.746690	0.396819	0.132937
H111	H	0.193551	1.454346	-0.224334
Cl112	Cl	1.266558	0.497540	0.565387
Cl113	Cl	1.073791	0.692271	0.578920
H114	H	1.167940	1.098482	-0.468593
H115	H	1.435239	0.493327	-0.213842
H116	H	0.854236	1.005238	-0.412635
Cl117	Cl	1.480871	0.396803	0.741472
H118	H	1.176453	1.095598	-0.619216
Cl119	Cl	1.311506	0.865665	-0.341727
Cl120	Cl	0.838670	0.829858	-0.306065
H121	H	0.854224	1.005241	-0.587078
Cl122	Cl	1.271139	0.318210	0.755611
H123	H	0.367995	1.454345	-0.224327
H124	H	1.261196	0.911942	-0.531133
Cl125	Cl	0.647393	0.503959	0.250696
Cl126	Cl	1.760818	0.318212	0.421276
Cl127	Cl	1.529672	0.613818	0.132959
Cl128	Cl	1.263869	0.613809	0.524473
Cl129	Cl	1.426513	0.318210	-0.068416
H130	H	0.749421	0.792294	-0.162469
H131	H	0.743798	0.647246	-0.170899
Cl132	Cl	0.840081	0.769699	0.117852
Cl133	Cl	1.584107	0.692291	0.244576
Cl134	Cl	0.872360	0.613803	0.258667
Cl135	Cl	1.062910	0.512934	0.753654
H136	H	0.898440	0.418067	0.480448
H137	H	1.575356	0.517195	0.274229
Cl138	Cl	0.864436	0.503939	0.250721
H139	H	1.731150	0.493320	0.430020
H140	H	0.448597	0.769732	0.117864
Cl141	Cl	1.193258	0.425927	0.187984
H142	H	0.213132	1.240726	-0.117556
