data_functionalizedCrystal
_audit_creation_method	'MofGen! by Chris Wilmer'
_symmetry_space_group_name_H-M	'P1'
_symmetry_Int_Tables_number	1
_symmetry_cell_setting	triclinic
loop_
_symmetry_equiv_pos_as_xyz
  x,y,z
_cell_length_a	17.917603
_cell_length_b	17.052862
_cell_length_c	17.052977
_cell_angle_alpha	45.842756
_cell_angle_beta	77.711841
_cell_angle_gamma	67.577043
loop_
_atom_site_label
_atom_site_type_symbol
_atom_site_fract_x
_atom_site_fract_y
_atom_site_fract_z
Zr1	Zr	0.912739	0.789232	-0.182495
O2	O	0.847526	0.963070	-0.340685
O3	O	0.911999	0.621851	-0.117403
O4	O	0.976596	0.782982	-0.306566
O5	O	0.755556	0.804616	-0.021187
O6	O	1.101992	0.770707	-0.298534
O7	O	0.782929	0.801938	-0.151521
O8	O	0.986439	0.482473	0.039845
O9	O	0.871108	1.092851	-0.359566
O10	O	1.030312	0.679145	-0.103700
O11	O	0.916302	0.690304	-0.012428
O12	O	0.992357	0.880016	-0.235143
O13	O	0.878348	0.891175	-0.143871
Zr14	Zr	1.069073	0.773926	0.038186
Zr15	Zr	1.112730	0.769655	-0.169683
Zr16	Zr	0.869082	0.793503	0.025374
Zr17	Zr	0.950350	0.996218	-0.212607
Zr18	Zr	1.031462	0.566940	0.068298
O19	O	1.069813	0.941307	-0.026906
O20	O	1.131887	0.935234	-0.322469
O21	O	0.785451	0.969143	-0.045122
O22	O	1.134287	0.600088	0.196376
O23	O	1.196361	0.594015	-0.099187
O24	O	0.849925	0.627924	0.178160
O25	O	1.226257	0.758541	-0.123122
O26	O	1.005216	0.780175	0.162257
O27	O	0.879821	0.792450	0.154225
O28	O	1.198884	0.761219	0.007212
O29	O	1.030074	1.077290	-0.349383
O30	O	0.951738	0.485868	0.205074
O31	O	1.110704	0.470307	0.215257
O32	O	1.145406	0.466912	0.050029
O33	O	0.836407	1.096246	-0.194338
O34	O	0.995373	1.080685	-0.184154
O35	O	0.989455	0.683142	0.090834
O36	O	1.103465	0.671983	-0.000438
O37	O	1.065510	0.872854	-0.131881
O38	O	0.951501	0.884013	-0.040609
C39	C	0.943860	0.522671	-0.034488
C40	C	0.927894	0.434800	-0.021705
C41	C	1.120933	0.163814	-0.176258
C42	C	1.135935	0.246378	-0.188276
C43	C	1.083926	0.293487	-0.146634
C44	C	1.016913	0.258025	-0.092972
C45	C	1.001907	0.175460	-0.080961
C46	C	0.964899	0.305133	-0.051337
C47	C	0.897886	0.269670	0.002325
C48	C	0.882883	0.187112	0.014335
C49	C	0.934892	0.140003	-0.027307
C50	C	0.979906	0.387698	-0.063348
C51	C	0.860879	0.399343	0.031949
C52	C	0.845878	0.316779	0.043967
C53	C	0.740748	0.806067	-0.088179
C54	C	0.655846	0.814378	-0.093618
C55	C	0.500407	0.829559	-0.103551
C56	C	0.481400	0.733604	-0.040761
C57	C	0.394908	0.742051	-0.046288
C58	C	0.586906	0.821114	-0.098026
C59	C	1.241065	0.757091	-0.056130
C60	C	1.325966	0.748780	-0.050691
C61	C	1.045514	0.776236	-0.332167
C62	C	1.064048	0.774423	-0.420413
C63	C	1.037952	1.040487	-0.109821
C64	C	1.053919	1.128358	-0.122604
C65	C	1.141841	0.766812	-0.457442
C66	C	1.159261	0.765101	-0.540348
C67	C	1.098889	0.771010	-0.586239
C68	C	1.021092	0.778629	-0.549216
C69	C	1.003672	0.780331	-0.466295
C70	C	0.960720	0.784529	-0.595093
C71	C	0.882924	0.792148	-0.558070
C72	C	0.865506	0.793851	-0.475158
C73	C	0.925879	0.787942	-0.429266
C74	C	0.978140	0.782826	-0.678014
C75	C	0.839972	0.796346	-0.686867
C76	C	0.822551	0.798057	-0.603961
C77	C	0.936298	0.786921	0.187858
C78	C	0.917765	0.788735	0.276104
C79	C	1.194019	0.498183	-0.018463
C80	C	1.262954	0.402001	-0.000241
C81	C	0.889253	0.528013	0.225524
C82	C	0.854752	0.441955	0.326554
C83	C	1.139411	0.503525	0.241549
C84	C	1.189812	0.409157	0.348017
C85	C	0.842401	1.059632	-0.385858
C86	C	0.792000	1.154001	-0.492326
C87	C	0.787793	1.064975	-0.125846
C88	C	0.718859	1.161157	-0.144068
C89	C	1.092560	1.035144	-0.369833
C90	C	1.127060	1.121202	-0.470863
C91	C	1.257143	0.360571	-0.045594
C92	C	1.321913	0.270210	-0.028494
C93	C	1.392491	0.221274	0.033966
C94	C	1.398301	0.262712	0.079319
C95	C	1.333534	0.353078	0.062212
C96	C	0.876734	0.397804	0.427908
C97	C	0.844314	0.316955	0.522842
C98	C	0.789917	0.280254	0.516420
C99	C	0.767933	0.324414	0.415054
C100	C	0.800348	0.405268	0.320121
C101	C	1.273001	0.359014	0.350373
C102	C	1.320370	0.270355	0.450402
C103	C	1.284547	0.231835	0.548075
C104	C	1.201351	0.281986	0.545715
C105	C	1.153984	0.370649	0.445687
C106	C	0.708813	1.204153	-0.494683
C107	C	0.661449	1.292838	-0.594716
C108	C	0.697272	1.331363	-0.692389
C109	C	0.780468	1.281206	-0.690029
C110	C	0.827832	1.192529	-0.589999
C111	C	0.724673	1.202595	-0.098725
C112	C	0.659912	1.292979	-0.115851
C113	C	0.589335	1.341917	-0.178315
C114	C	0.583523	1.300475	-0.223663
C115	C	0.648286	1.210099	-0.206543
C116	C	1.181455	1.157877	-0.464405
C117	C	1.213886	1.238725	-0.559322
C118	C	1.191917	1.282903	-0.660697
C119	C	1.137519	1.246220	-0.667152
C120	C	1.105093	1.165368	-0.572235
H121	H	1.096144	0.360714	-0.156423
F122	F	0.670669	1.163167	-0.390743
F123	F	1.339727	0.397155	0.110496
F124	F	1.207250	0.284118	-0.245390
H125	H	0.451725	0.918045	-0.161454
F126	F	1.408911	0.216992	0.452890
F127	F	0.776950	0.452244	0.212256
F128	F	1.311145	0.399999	0.246432
F129	F	0.666112	1.337064	-0.067575
F130	F	1.334969	0.137469	0.654527
F131	F	0.520414	1.438103	-0.196525
H132	H	0.759209	0.804260	-0.573806
F133	F	0.934629	0.436845	0.434769
H134	H	0.530085	0.645111	0.017145
H135	H	1.041483	0.776622	-0.708150
H136	H	1.317167	0.236483	-0.065429
F137	F	1.047194	1.126353	-0.579126
F138	F	0.572908	1.346200	-0.597204
H139	H	0.911695	0.789340	-0.361760
H140	H	1.034468	0.416564	-0.107041
F141	F	1.206088	0.760512	-0.408591
H142	H	0.828312	0.158251	0.058020
H143	H	0.802163	0.800042	-0.445005
F144	F	1.461415	0.125098	0.052165
F145	F	0.775716	0.802629	-0.735701
H146	H	0.526051	1.340335	-0.274522
F147	F	1.242053	0.756991	-0.579748
F148	F	1.163236	0.240977	0.649677
F149	F	1.065445	0.424001	0.443197
F150	F	1.182036	0.412639	-0.112077
F151	F	1.473420	0.210617	0.145796
H152	H	0.862225	0.281008	0.605370
F153	F	0.755425	0.194201	0.617467
F154	F	0.646853	1.425742	-0.798844
H155	H	0.809629	1.312585	-0.769567
F156	F	0.916367	1.139155	-0.587506
H157	H	1.113076	0.769616	-0.653745
F158	F	0.799781	1.150529	-0.032245
H159	H	0.643540	1.176363	-0.243466
H160	H	1.199351	1.121919	-0.381870
H161	H	1.258176	1.268583	-0.554046
F162	F	1.226433	1.368956	-0.761709
H163	H	1.119637	1.282202	-0.749704
H164	H	0.723639	0.294520	0.409841
F165	F	1.176271	0.113684	-0.220581
H166	H	0.922685	0.072767	-0.017518
H167	H	0.791315	0.287895	0.087658
H168	H	0.818528	0.437703	0.065854
