data_functionalizedCrystal
_audit_creation_method	'MofGen! by Chris Wilmer'
_symmetry_space_group_name_H-M	'P1'
_symmetry_Int_Tables_number	1
_symmetry_cell_setting	triclinic
loop_
_symmetry_equiv_pos_as_xyz
  x,y,z
_cell_length_a	19.121215
_cell_length_b	19.120786
_cell_length_c	12.594510
_cell_angle_alpha	87.520136
_cell_angle_beta	87.532061
_cell_angle_gamma	94.789602
loop_
_atom_site_label
_atom_site_type_symbol
_atom_site_fract_x
_atom_site_fract_y
_atom_site_fract_z
Zn1	Zn	1.063783	-0.234286	-0.655619
Zn2	Zn	1.563783	0.265714	-0.155619
Zn3	Zn	1.058668	-0.351987	-0.469679
Zn4	Zn	1.558668	0.148013	0.030321
Zn5	Zn	0.946107	-0.239338	-0.469693
Zn6	Zn	1.446107	0.260662	0.030307
Zn7	Zn	0.941062	-0.356933	-0.639667
Zn8	Zn	1.441062	0.143067	-0.139667
O9	O	1.002405	-0.295636	-0.558665
O10	O	1.502405	0.204364	-0.058665
O11	O	1.161571	-0.245715	-0.637623
O12	O	1.661571	0.254285	-0.137623
O13	O	1.043707	-0.337087	-0.320731
O14	O	1.543707	0.162913	0.179269
O15	O	0.965969	-0.140196	-0.501038
O16	O	1.465969	0.359804	-0.001038
O17	O	1.157812	-0.332189	-0.501015
O18	O	1.657812	0.167811	-0.001015
O19	O	1.052426	-0.136484	-0.637637
O20	O	1.552426	0.363516	-0.137637
O21	O	0.961009	-0.254325	-0.320741
O22	O	1.461009	0.245675	0.179259
O23	O	0.846972	-0.259121	-0.485571
O24	O	1.346972	0.240879	0.014429
O25	O	0.957371	-0.340619	-0.790734
O26	O	1.457371	0.159381	-0.290734
O27	O	0.843265	-0.345518	-0.610449
O28	O	1.343265	0.154482	-0.110449
O29	O	1.047534	-0.250511	-0.802453
O30	O	1.547534	0.249489	-0.302453
O31	O	1.038815	-0.451115	-0.485547
O32	O	1.538815	0.048885	0.014453
O33	O	0.952411	-0.454749	-0.610436
O34	O	1.452411	0.045251	-0.110436
C35	C	0.819588	-0.303405	-0.546281
C36	C	1.319588	0.196595	-0.046281
C37	C	0.741377	-0.306746	-0.541008
C38	C	1.241377	0.193254	-0.041008
C39	C	0.298933	-0.327894	-0.507643
C40	C	0.798933	0.172106	-0.007643
C41	C	0.372421	-0.324751	-0.512591
C42	C	0.872421	0.175249	-0.012591
C43	C	0.411120	-0.278231	-0.586295
C44	C	0.911120	0.221769	-0.086295
C45	C	0.376329	-0.234846	-0.655050
C46	C	0.876329	0.265154	-0.155050
C47	C	0.302843	-0.237985	-0.650096
C48	C	0.802843	0.262015	-0.150096
C49	C	0.633099	-0.266500	-0.604809
C50	C	1.133099	0.233500	-0.104809
C51	C	0.706590	-0.263365	-0.609759
C52	C	1.206590	0.236635	-0.109759
C53	C	0.702677	-0.353270	-0.467298
C54	C	1.202677	0.146730	0.032702
C55	C	0.629189	-0.356408	-0.462356
C56	C	1.129189	0.143592	0.037644
C57	C	0.594404	-0.313020	-0.531106
C58	C	1.094404	0.186980	-0.031106
C59	C	0.486236	-0.275019	-0.591356
C60	C	0.986236	0.224981	-0.091356
C61	C	0.519290	-0.316229	-0.526040
C62	C	1.019290	0.183771	-0.026040
C63	C	0.994529	-0.478464	-0.546283
C64	C	1.494529	0.021536	-0.046283
C65	C	0.991224	-0.556675	-0.541027
C66	C	1.491224	-0.056675	-0.041027
C67	C	1.034651	-0.591428	-0.609730
C68	C	1.534651	-0.091428	-0.109730
C69	C	1.031543	-0.664917	-0.604792
C70	C	1.531543	-0.164917	-0.104792
C71	C	0.985011	-0.703651	-0.531146
C72	C	1.485011	-0.203651	-0.031146
C73	C	0.941579	-0.668893	-0.462440
C74	C	1.441579	-0.168893	0.037560
C75	C	0.944684	-0.595406	-0.467383
C76	C	1.444684	-0.095406	0.032617
C77	C	0.973382	-0.925634	-0.512663
C78	C	1.473382	-0.425634	-0.012663
C79	C	0.970282	-0.999126	-0.507723
C80	C	1.470282	-0.499126	-0.007723
C81	C	1.060245	-0.995144	-0.650077
C82	C	1.560245	-0.495144	-0.150077
C83	C	1.063349	-0.921656	-0.655010
C84	C	1.563349	-0.421656	-0.155010
C85	C	1.019914	-0.886904	-0.586308
C86	C	1.519914	-0.386904	-0.086308
C87	C	0.981834	-0.778768	-0.526095
C88	C	1.481834	-0.278768	-0.026095
C89	C	1.023088	-0.811789	-0.591365
C90	C	1.523088	-0.311789	-0.091365
C91	C	1.185936	-0.287837	-0.571097
C92	C	1.685936	0.212163	-0.071097
C93	C	1.264147	-0.284513	-0.576395
C94	C	1.764147	0.215487	-0.076395
C95	C	1.002460	-0.295554	-0.836294
C96	C	1.502460	0.204446	-0.336294
C97	C	1.002484	-0.295519	-0.954604
C98	C	1.502484	0.204481	-0.454604
C99	C	1.010331	-0.112093	-0.571119
C100	C	1.510331	0.387907	-0.071119
C101	C	1.013708	-0.033878	-0.576426
C102	C	1.513708	0.466122	-0.076426
C103	C	1.051541	-0.246494	-1.100997
C104	C	1.551541	0.253506	-0.600997
C105	C	1.065971	-0.309971	-1.026997
C106	C	1.565971	0.190029	-0.526997
C107	C	0.988084	-0.232048	-1.027034
C108	C	1.488084	0.267952	-0.527034
C109	C	1.016976	-0.359005	-1.091393
C110	C	1.516976	0.140995	-0.591393
C111	C	0.939062	-0.281040	-1.091437
C112	C	1.439062	0.218960	-0.591437
C113	C	0.953466	-0.344562	-1.017464
C114	C	1.453466	0.155438	-0.517464
C115	C	1.002393	-0.295665	-0.282121
C116	C	1.502393	0.204335	0.217879
C117	C	1.002514	-0.295496	-0.163835
C118	C	1.502514	0.204504	0.336165
H119	H	0.517754	-0.237144	-0.651369
H120	H	1.017754	0.262856	-0.151369
C121	C	1.074273	-0.769179	-0.672371
C122	C	1.574273	-0.269179	-0.172371
N123	N	1.112829	-0.737079	-0.733382
N124	N	1.612829	-0.237079	-0.233382
C125	C	0.410682	-0.372474	-0.436958
C126	C	0.910682	0.127526	0.063042
N127	N	0.439501	-0.408420	-0.379988
N128	N	0.939501	0.091580	0.120012
H129	H	0.943950	-0.810313	-0.466129
H130	H	1.443950	-0.310313	0.033871
C131	C	0.740947	-0.400986	-0.391667
C132	C	1.240947	0.099014	0.108333
N133	N	0.769772	-0.436924	-0.334693
N134	N	1.269772	0.063076	0.165307
H135	H	0.267429	-0.365779	-0.447630
H136	H	0.767429	0.134221	0.052370
H137	H	1.101239	-0.890120	-0.714979
H138	H	1.601239	-0.390120	-0.214979
C139	C	1.033537	-0.431523	-1.129552
C140	C	1.533537	0.068477	-0.629552
N141	N	1.046014	-0.486141	-1.158296
N142	N	1.546014	0.013859	-0.658296
C143	C	0.749158	-0.212186	-0.690841
C144	C	1.249158	0.287814	-0.190841
N145	N	0.781221	-0.173640	-0.751910
N146	N	1.281221	0.326360	-0.251910
C147	C	0.897452	-0.400622	-0.968416
C148	C	1.397452	0.099378	-0.468416
N149	N	0.855270	-0.442849	-0.931459
N150	N	1.355270	0.057151	-0.431459
C151	C	0.866611	-0.264473	-1.129865
C152	C	1.366611	0.235527	-0.629865
N153	N	0.812042	-0.251986	-1.158813
N154	N	1.312042	0.248014	-0.658813
C155	C	0.971610	-0.159547	-0.988704
C156	C	1.471610	0.340453	-0.488704
N157	N	0.959206	-0.104937	-0.959840
N158	N	1.459206	0.395063	-0.459840
H159	H	0.903689	-0.700437	-0.402479
H160	H	1.403689	-0.200437	0.097521
C161	C	0.586626	-0.407574	-0.381261
C162	C	1.086626	0.092426	0.118739
N163	N	0.554567	-0.446112	-0.320177
N164	N	1.054567	0.053888	0.179823
H165	H	0.604786	-0.231174	-0.660795
H166	H	1.104786	0.268826	-0.160795
H167	H	0.909321	-0.567111	-0.411439
H168	H	1.409321	-0.067111	0.088561
C169	C	0.418901	-0.183671	-0.736122
C170	C	0.918901	0.316329	-0.236122
N171	N	0.450966	-0.145126	-0.797190
N172	N	0.950966	0.354874	-0.297190
H173	H	1.093042	-0.205093	-1.137464
H174	H	1.593042	0.294907	-0.637464
C175	C	1.108014	-1.033376	-0.725651
C176	C	1.608014	-0.533376	-0.225651
N177	N	1.143994	-1.062173	-0.782580
N178	N	1.643994	-0.562173	-0.282580
C179	C	1.138444	-0.326505	-0.988603
C180	C	1.638444	0.173495	-0.488603
N181	N	1.193032	-0.338953	-0.959686
N182	N	1.693032	0.161047	-0.459686
H183	H	0.274521	-0.202658	-0.706078
H184	H	0.774521	0.297342	-0.206078
H185	H	0.487778	-0.354104	-0.466027
H186	H	0.987778	0.145896	0.033973
C187	C	0.919088	-1.041732	-0.426707
C188	C	1.419088	-0.541732	0.073293
N189	N	0.880531	-1.073823	-0.365688
N190	N	1.380531	-0.573823	0.134312
C191	C	0.925587	-0.887418	-0.437111
C192	C	1.425587	-0.387418	0.062889
N193	N	0.889579	-0.858631	-0.380211
N194	N	1.389579	-0.358631	0.119789
H195	H	1.072545	-0.559895	-0.669696
H196	H	1.572545	-0.059895	-0.169696
H197	H	1.066911	-0.693209	-0.660729
H198	H	1.566911	-0.193209	-0.160729
