data_functionalizedCrystal
_audit_creation_method	'MofGen! by Chris Wilmer'
_symmetry_space_group_name_H-M	'P1'
_symmetry_Int_Tables_number	1
_symmetry_cell_setting	triclinic
loop_
_symmetry_equiv_pos_as_xyz
  x,y,z
_cell_length_a	21.395364
_cell_length_b	21.395361
_cell_length_c	21.395355
_cell_angle_alpha	89.980951
_cell_angle_beta	89.974400
_cell_angle_gamma	90.028035
loop_
_atom_site_label
_atom_site_type_symbol
_atom_site_fract_x
_atom_site_fract_y
_atom_site_fract_z
Zn1	Zn	-0.957860	0.249553	0.354277
Zn2	Zn	-0.707860	0.499553	0.604277
Zn3	Zn	-0.457860	0.749553	0.854277
Zn4	Zn	-0.207860	0.999553	1.104277
Zn5	Zn	-0.957763	0.354313	0.249498
Zn6	Zn	-0.707763	0.604313	0.499498
Zn7	Zn	-0.457763	0.854313	0.749498
Zn8	Zn	-0.207763	1.104313	0.999498
Zn9	Zn	-0.853075	0.249548	0.249511
Zn10	Zn	-0.603075	0.499548	0.499511
Zn11	Zn	-0.353075	0.749548	0.749511
Zn12	Zn	-0.103075	0.999548	0.999511
Zn13	Zn	-0.853044	0.354292	0.354236
Zn14	Zn	-0.603044	0.604292	0.604236
Zn15	Zn	-0.353044	0.854292	0.854236
Zn16	Zn	-0.103044	1.104292	1.104236
O17	O	-0.905435	0.301927	0.301881
O18	O	-0.655435	0.551927	0.551881
O19	O	-0.405435	0.801927	0.801881
O20	O	-0.155435	1.051927	1.051881
O21	O	-1.045525	0.263460	0.340389
O22	O	-0.795525	0.513460	0.590389
O23	O	-0.545525	0.763460	0.840389
O24	O	-0.295525	1.013460	1.090389
O25	O	-0.943848	0.340422	0.161822
O26	O	-0.693848	0.590422	0.411822
O27	O	-0.443848	0.840422	0.661822
O28	O	-0.193848	1.090422	0.911822
O29	O	-0.867028	0.161871	0.263431
O30	O	-0.617028	0.411871	0.513431
O31	O	-0.367028	0.661871	0.763431
O32	O	-0.117028	0.911871	1.013431
O33	O	-1.045453	0.340427	0.263408
O34	O	-0.795453	0.590427	0.513408
O35	O	-0.545453	0.840427	0.763408
O36	O	-0.295453	1.090427	1.013408
O37	O	-0.944013	0.161874	0.340402
O38	O	-0.694013	0.411874	0.590402
O39	O	-0.444013	0.661874	0.840402
O40	O	-0.194013	0.911874	1.090402
O41	O	-0.866934	0.263452	0.161832
O42	O	-0.616934	0.513452	0.411832
O43	O	-0.366934	0.763452	0.661832
O44	O	-0.116934	1.013452	0.911832
O45	O	-0.765393	0.263432	0.263392
O46	O	-0.515393	0.513432	0.513392
O47	O	-0.265393	0.763432	0.763392
O48	O	-0.015393	1.013432	1.013392
O49	O	-0.866976	0.340391	0.441920
O50	O	-0.616976	0.590391	0.691920
O51	O	-0.366976	0.840391	0.941920
O52	O	-0.116976	1.090391	1.191920
O53	O	-0.765370	0.340387	0.340333
O54	O	-0.515370	0.590387	0.590333
O55	O	-0.265370	0.840387	0.840333
O56	O	-0.015370	1.090387	1.090333
O57	O	-0.943984	0.263440	0.441949
O58	O	-0.693984	0.513440	0.691949
O59	O	-0.443984	0.763440	0.941949
O60	O	-0.193984	1.013440	1.191949
O61	O	-0.943818	0.441988	0.263370
O62	O	-0.693818	0.691988	0.513370
O63	O	-0.443818	0.941988	0.763370
O64	O	-0.193818	1.191988	1.013370
O65	O	-0.866882	0.441973	0.340320
O66	O	-0.616882	0.691973	0.590320
O67	O	-0.366882	0.941973	0.840320
O68	O	-0.116882	1.191973	1.090320
C69	C	-0.742648	0.301907	0.301860
C70	C	-0.492648	0.551907	0.551860
C71	C	-0.242648	0.801907	0.801860
C72	C	0.007352	1.051907	1.051860
C73	C	-0.673006	0.301914	0.301866
C74	C	-0.423006	0.551914	0.551866
C75	C	-0.173006	0.801914	0.801866
C76	C	0.076994	1.051914	1.051866
C77	C	-0.171215	0.342060	0.341894
C78	C	0.078785	0.592060	0.591894
C79	C	0.328785	0.842060	0.841894
C80	C	0.578785	1.092060	1.091894
C81	C	-0.236650	0.342061	0.341888
C82	C	0.013350	0.592061	0.591888
C83	C	0.263350	0.842061	0.841888
C84	C	0.513350	1.092061	1.091888
C85	C	-0.269368	0.301931	0.301891
C86	C	-0.019368	0.551931	0.551891
C87	C	0.230632	0.801931	0.801891
C88	C	0.480632	1.051931	1.051891
C89	C	-0.236645	0.261809	0.261884
C90	C	0.013355	0.511809	0.511884
C91	C	0.263355	0.761809	0.761884
C92	C	0.513355	1.011809	1.011884
C93	C	-0.171211	0.261813	0.261887
C94	C	0.078789	0.511813	0.511887
C95	C	0.328789	0.761813	0.761887
C96	C	0.578789	1.011813	1.011887
C97	C	-0.373057	0.245467	0.297042
C98	C	-0.123057	0.495467	0.547042
C99	C	0.126943	0.745467	0.797042
C100	C	0.376943	0.995467	1.047042
C101	C	-0.438490	0.245462	0.297044
C102	C	-0.188490	0.495462	0.547044
C103	C	0.061510	0.745462	0.797044
C104	C	0.311510	0.995462	1.047044
C105	C	-0.471189	0.301917	0.301880
C106	C	-0.221189	0.551917	0.551880
C107	C	0.028811	0.801917	0.801880
C108	C	0.278811	1.051917	1.051880
C109	C	-0.438447	0.358380	0.306728
C110	C	-0.188447	0.608380	0.556728
C111	C	0.061553	0.858380	0.806728
C112	C	0.311553	1.108380	1.056728
C113	C	-0.373013	0.358385	0.306730
C114	C	-0.123013	0.608385	0.556730
C115	C	0.126987	0.858385	0.806730
C116	C	0.376987	1.108385	1.056730
C117	C	-0.340321	0.301922	0.301884
C118	C	-0.090321	0.551922	0.551884
C119	C	0.159679	0.801922	0.801884
C120	C	0.409679	1.051922	1.051884
C121	C	-0.574857	0.342041	0.341875
C122	C	-0.324857	0.592041	0.591875
C123	C	-0.074857	0.842041	0.841875
C124	C	0.175143	1.092041	1.091875
C125	C	-0.640293	0.342044	0.341865
C126	C	-0.390293	0.592044	0.591865
C127	C	-0.140293	0.842044	0.841865
C128	C	0.109707	1.092044	1.091865
C129	C	-0.640287	0.261786	0.261864
C130	C	-0.390287	0.511786	0.511864
C131	C	-0.140287	0.761786	0.761864
C132	C	0.109713	1.011786	1.011864
C133	C	-0.574851	0.261790	0.261871
C134	C	-0.324851	0.511790	0.511871
C135	C	-0.074851	0.761790	0.761871
C136	C	0.175149	1.011790	1.011871
C137	C	-0.542140	0.301916	0.301880
C138	C	-0.292140	0.551916	0.551880
C139	C	-0.042140	0.801916	0.801880
C140	C	0.207860	1.051916	1.051880
C141	C	-0.905353	0.464714	0.301853
C142	C	-0.655353	0.714714	0.551853
C143	C	-0.405353	0.964714	0.801853
C144	C	-0.155353	1.214714	1.051853
C145	C	-0.905375	0.534355	0.301862
C146	C	-0.655375	0.784355	0.551862
C147	C	-0.405375	1.034355	0.801862
C148	C	-0.155375	1.284355	1.051862
C149	C	-0.068859	0.301942	0.301898
C150	C	0.181141	0.551942	0.551898
C151	C	0.431141	0.801942	0.801898
C152	C	0.681141	1.051942	1.051898
C153	C	-0.138500	0.301940	0.301895
C154	C	0.111500	0.551940	0.551895
C155	C	0.361500	0.801940	0.801895
C156	C	0.611500	1.051940	1.051895
C157	C	-0.945472	0.567056	0.261836
C158	C	-0.695472	0.817056	0.511836
C159	C	-0.445472	1.067056	0.761836
C160	C	-0.195472	1.317056	1.011836
C161	C	-0.945501	0.632491	0.261853
C162	C	-0.695501	0.882491	0.511853
C163	C	-0.445501	1.132491	0.761853
C164	C	-0.195501	1.382491	1.011853
C165	C	-0.905423	0.665224	0.301889
C166	C	-0.655423	0.915224	0.551889
C167	C	-0.405423	1.165224	0.801889
C168	C	-0.155423	1.415224	1.051889
C169	C	-0.865324	0.632516	0.341922
C170	C	-0.615324	0.882516	0.591922
C171	C	-0.365324	1.132516	0.841922
C172	C	-0.115324	1.382516	1.091922
C173	C	-0.865300	0.567081	0.341909
C174	C	-0.615300	0.817081	0.591909
C175	C	-0.365300	1.067081	0.841909
C176	C	-0.115300	1.317081	1.091909
C177	C	-0.849008	0.768936	0.306802
C178	C	-0.599008	1.018936	0.556802
C179	C	-0.349008	1.268936	0.806802
C180	C	-0.099008	1.518936	1.056802
C181	C	-0.849031	0.834369	0.306811
C182	C	-0.599031	1.084369	0.556811
C183	C	-0.349031	1.334369	0.806811
C184	C	-0.099031	1.584369	1.056811
C185	C	-0.905496	0.867044	0.301934
C186	C	-0.655496	1.117044	0.551934
C187	C	-0.405496	1.367044	0.801934
C188	C	-0.155496	1.617044	1.051934
C189	C	-0.961941	0.834278	0.297035
C190	C	-0.711941	1.084278	0.547035
C191	C	-0.461941	1.334278	0.797035
C192	C	-0.211941	1.584278	1.047035
C193	C	-0.961917	0.768844	0.297021
C194	C	-0.711917	1.018844	0.547021
C195	C	-0.461917	1.268844	0.797021
C196	C	-0.211917	1.518844	1.047021
C197	C	-0.905444	0.736176	0.301908
C198	C	-0.655444	0.986176	0.551908
C199	C	-0.405444	1.236176	0.801908
C200	C	-0.155444	1.486176	1.051908
C201	C	-0.945628	0.970697	0.261925
C202	C	-0.695628	1.220697	0.511925
C203	C	-0.445628	1.470697	0.761925
C204	C	-0.195628	1.720697	1.011925
C205	C	-0.945658	1.036134	0.261946
C206	C	-0.695658	1.286134	0.511946
C207	C	-0.445658	1.536134	0.761946
C208	C	-0.195658	1.786134	1.011946
C209	C	-0.865476	1.036157	0.342012
C210	C	-0.615476	1.286157	0.592012
C211	C	-0.365476	1.536157	0.842012
C212	C	-0.115476	1.786157	1.092012
C213	C	-0.865451	0.970722	0.341994
C214	C	-0.615451	1.220722	0.591994
C215	C	-0.365451	1.470722	0.841994
C216	C	-0.115451	1.720722	1.091994
C217	C	-0.905526	0.937996	0.301947
C218	C	-0.655526	1.187996	0.551947
C219	C	-0.405526	1.437996	0.801947
C220	C	-0.155526	1.687996	1.051947
C221	C	-0.905487	0.301914	0.465304
C222	C	-0.655487	0.551914	0.715304
C223	C	-0.405487	0.801914	0.965304
C224	C	-0.155487	1.051914	1.215304
C225	C	-0.905510	0.301908	0.534945
C226	C	-0.655510	0.551908	0.784945
C227	C	-0.405510	0.801908	1.034945
C228	C	-0.155510	1.051908	1.284945
C229	C	-0.905536	1.138503	0.301933
C230	C	-0.655536	1.388503	0.551933
C231	C	-0.405536	1.638503	0.801933
C232	C	-0.155536	1.888503	1.051933
C233	C	-0.905580	1.068862	0.301983
C234	C	-0.655580	1.318862	0.551983
C235	C	-0.405580	1.568862	0.801983
C236	C	-0.155580	1.818862	1.051983
C237	C	-0.905420	0.301894	0.139093
C238	C	-0.655420	0.551894	0.389093
C239	C	-0.405420	0.801894	0.639093
C240	C	-0.155420	1.051894	0.889093
C241	C	-0.905519	0.301723	0.069452
C242	C	-0.655519	0.551723	0.319452
C243	C	-0.405519	0.801723	0.569452
C244	C	-0.155519	1.051723	0.819452
C245	C	-0.945606	0.261838	0.567675
C246	C	-0.695606	0.511838	0.817675
C247	C	-0.445606	0.761838	1.067675
C248	C	-0.195606	1.011838	1.317675
C249	C	-0.945605	0.261811	0.633110
C250	C	-0.695605	0.511811	0.883110
C251	C	-0.445605	0.761811	1.133110
C252	C	-0.195605	1.011811	1.383110
C253	C	-0.905514	0.301866	0.665814
C254	C	-0.655514	0.551866	0.915814
C255	C	-0.405514	0.801866	1.165814
C256	C	-0.155514	1.051866	1.415814
C257	C	-0.865411	0.341939	0.633076
C258	C	-0.615411	0.591939	0.883076
C259	C	-0.365411	0.841939	1.133076
C260	C	-0.115411	1.091939	1.383076
C261	C	-0.865408	0.341960	0.567642
C262	C	-0.615408	0.591960	0.817642
C263	C	-0.365408	0.841960	1.067642
C264	C	-0.115408	1.091960	1.317642
C265	C	-0.900539	0.358281	0.769479
C266	C	-0.650539	0.608281	1.019479
C267	C	-0.400539	0.858281	1.269479
C268	C	-0.150539	1.108281	1.519479
C269	C	-0.900545	0.358261	0.834912
C270	C	-0.650545	0.608261	1.084912
C271	C	-0.400545	0.858261	1.334912
C272	C	-0.150545	1.108261	1.584912
C273	C	-0.905518	0.301800	0.867635
C274	C	-0.655518	0.551800	1.117635
C275	C	-0.405518	0.801800	1.367635
C276	C	-0.155518	1.051800	1.617635
C277	C	-0.910497	0.245357	0.834916
C278	C	-0.660497	0.495357	1.084916
C279	C	-0.410497	0.745357	1.334916
C280	C	-0.160497	0.995357	1.584916
C281	C	-0.910495	0.245378	0.769482
C282	C	-0.660495	0.495378	1.019482
C283	C	-0.410495	0.745378	1.269482
C284	C	-0.160495	0.995378	1.519482
C285	C	-0.905512	0.301847	0.736766
C286	C	-0.655512	0.551847	0.986766
C287	C	-0.405512	0.801847	1.236766
C288	C	-0.155512	1.051847	1.486766
C289	C	-0.945616	0.261697	0.971317
C290	C	-0.695616	0.511697	1.221317
C291	C	-0.445616	0.761697	1.471317
C292	C	-0.195616	1.011697	1.721317
C293	C	-0.945610	0.261669	1.036753
C294	C	-0.695610	0.511669	1.286753
C295	C	-0.445610	0.761669	1.536753
C296	C	-0.195610	1.011669	1.786753
C297	C	-0.865419	0.341802	1.036718
C298	C	-0.615419	0.591802	1.286718
C299	C	-0.365419	0.841802	1.536718
C300	C	-0.115419	1.091802	1.786718
C301	C	-0.865421	0.341824	0.971283
C302	C	-0.615421	0.591824	1.221283
C303	C	-0.365421	0.841824	1.471283
C304	C	-0.115421	1.091824	1.721283
C305	C	-0.905523	0.301773	0.938586
C306	C	-0.655523	0.551773	1.188586
C307	C	-0.405523	0.801773	1.438586
C308	C	-0.155523	1.051773	1.688586
H309	H	-0.144586	0.374736	0.374470
H310	H	0.105414	0.624736	0.624470
H311	H	0.355414	0.874736	0.874470
H312	H	0.605414	1.124736	1.124470
H313	H	-0.832693	0.659171	0.374521
H314	H	-0.582693	0.909171	0.624521
H315	H	-0.332693	1.159171	0.874521
H316	H	-0.082693	1.409171	1.124521
H317	H	-0.978254	0.229178	0.659764
H318	H	-0.728254	0.479178	0.909764
H319	H	-0.478254	0.729178	1.159764
H320	H	-0.228254	0.979178	1.409764
H321	H	-0.832774	0.374458	0.944634
H322	H	-0.582774	0.624458	1.194634
H323	H	-0.332774	0.874458	1.444634
H324	H	-0.082774	1.124458	1.694634
Br325	Br	-0.811030	0.926339	0.396317
Br326	Br	-0.561030	1.176339	0.646317
Br327	Br	-0.311030	1.426339	0.896317
Br328	Br	-0.061030	1.676339	1.146317
H329	H	-0.346357	0.404359	0.310675
H330	H	-0.096357	0.654359	0.560675
H331	H	0.153643	0.904359	0.810675
H332	H	0.403643	1.154359	1.060675
H333	H	-0.548222	0.374716	0.374451
H334	H	-0.298222	0.624716	0.624451
H335	H	-0.048222	0.874716	0.874451
H336	H	0.201778	1.124716	1.124451
Br337	Br	-0.917252	0.168726	0.879317
Br338	Br	-0.667252	0.418726	1.129317
Br339	Br	-0.417252	0.668726	1.379317
Br340	Br	-0.167252	0.918726	1.629317
H341	H	-0.803071	0.861042	0.310795
H342	H	-0.553071	1.111042	0.560795
H343	H	-0.303071	1.361042	0.810795
H344	H	-0.053071	1.611042	1.060795
Br345	Br	-0.684682	0.207331	0.207573
Br346	Br	-0.434682	0.457331	0.457573
Br347	Br	-0.184682	0.707331	0.707573
Br348	Br	0.065318	0.957331	0.957573
H349	H	-0.978265	0.229081	0.944693
H350	H	-0.728265	0.479081	1.194693
H351	H	-0.478265	0.729081	1.444693
H352	H	-0.228265	0.979081	1.694693
Br353	Br	-1.000012	0.926279	0.207574
Br354	Br	-0.750012	1.176279	0.457574
Br355	Br	-0.500012	1.426279	0.707574
Br356	Br	-0.250012	1.676279	0.957574
Br357	Br	-0.893808	0.434915	0.725076
Br358	Br	-0.643808	0.684915	0.975076
Br359	Br	-0.393808	0.934915	1.225076
Br360	Br	-0.143808	1.184915	1.475076
H361	H	-0.465143	0.199486	0.293104
H362	H	-0.215143	0.449486	0.543104
H363	H	0.034857	0.699486	0.793104
H364	H	0.284857	0.949486	1.043104
Br365	Br	-0.281060	0.396513	0.396175
Br366	Br	-0.031060	0.646513	0.646175
Br367	Br	0.218940	0.896513	0.896175
Br368	Br	0.468940	1.146513	1.146175
Br369	Br	-0.772370	0.724598	0.313424
Br370	Br	-0.522370	0.974598	0.563424
Br371	Br	-0.272370	1.224598	0.813424
Br372	Br	-0.022370	1.474598	1.063424
H373	H	-0.832648	0.540456	0.374504
H374	H	-0.582648	0.790456	0.624504
H375	H	-0.332648	1.040456	0.874504
H376	H	-0.082648	1.290456	1.124504
H377	H	-0.896495	0.404219	0.861546
H378	H	-0.646495	0.654219	1.111546
H379	H	-0.396495	0.904219	1.361546
H380	H	-0.146495	1.154219	1.611546
Br381	Br	-1.000026	0.207480	0.523303
Br382	Br	-0.750026	0.457480	0.773303
Br383	Br	-0.500026	0.707480	1.023303
Br384	Br	-0.250026	0.957480	1.273303
Br385	Br	-0.810987	0.396345	0.523220
Br386	Br	-0.560987	0.646345	0.773220
Br387	Br	-0.310987	0.896345	1.023220
Br388	Br	-0.060987	1.146345	1.273220
Br389	Br	-0.482816	0.435005	0.313291
Br390	Br	-0.232816	0.685005	0.563291
Br391	Br	0.017184	0.935005	0.813291
Br392	Br	0.267184	1.185005	1.063291
H393	H	-0.832767	0.374549	0.659708
H394	H	-0.582767	0.624549	0.909708
H395	H	-0.332767	0.874549	1.159708
H396	H	-0.082767	1.124549	1.409708
H397	H	-0.666929	0.374718	0.374435
H398	H	-0.416929	0.624718	0.624435
H399	H	-0.166929	0.874718	0.874435
H400	H	0.083071	1.124718	1.124435
Br401	Br	-0.811002	0.396155	1.081094
Br402	Br	-0.561002	0.646155	1.331094
Br403	Br	-0.311002	0.896155	1.581094
Br404	Br	-0.061002	1.146155	1.831094
H405	H	-0.914547	0.199421	0.742846
H406	H	-0.664547	0.449421	0.992846
H407	H	-0.414547	0.699421	1.242846
H408	H	-0.164547	0.949421	1.492846
H409	H	-0.548214	0.229118	0.229302
H410	H	-0.298214	0.479118	0.479302
H411	H	-0.048214	0.729118	0.729302
H412	H	0.201786	0.979118	0.979302
H413	H	-0.978154	0.659121	0.229259
H414	H	-0.728154	0.909121	0.479259
H415	H	-0.478154	1.159121	0.729259
H416	H	-0.228154	1.409121	0.979259
H417	H	-0.346439	0.199492	0.293093
H418	H	-0.096439	0.449492	0.543093
H419	H	0.153561	0.699492	0.793093
H420	H	0.403561	0.949492	1.043093
Br421	Br	-0.281046	0.207351	0.207597
Br422	Br	-0.031046	0.457351	0.457597
Br423	Br	0.218954	0.707351	0.707597
Br424	Br	0.468954	0.957351	0.957597
H425	H	-0.978105	0.540412	0.229229
H426	H	-0.728105	0.790412	0.479229
H427	H	-0.478105	1.040412	0.729229
H428	H	-0.228105	1.290412	0.979229
Br429	Br	-0.126808	0.207361	0.207599
Br430	Br	0.123192	0.457361	0.457599
Br431	Br	0.373192	0.707361	0.707599
Br432	Br	0.623192	0.957361	0.957599
H433	H	-1.007875	0.742168	0.293034
H434	H	-0.757875	0.992168	0.543034
H435	H	-0.507875	1.242168	0.793034
H436	H	-0.257875	1.492168	1.043034
Br437	Br	-1.038577	0.878614	0.290406
Br438	Br	-0.788577	1.128614	0.540406
Br439	Br	-0.538577	1.378614	0.790406
Br440	Br	-0.288577	1.628614	1.040406
H441	H	-0.978313	1.062757	0.229353
H442	H	-0.728313	1.312757	0.479353
H443	H	-0.478313	1.562757	0.729353
H444	H	-0.228313	1.812757	0.979353
Br445	Br	-0.811089	1.080573	0.396355
Br446	Br	-0.561089	1.330573	0.646355
Br447	Br	-0.311089	1.580573	0.896355
Br448	Br	-0.061089	1.830573	1.146355
H449	H	-0.978260	0.229035	1.063401
H450	H	-0.728260	0.479035	1.313401
H451	H	-0.478260	0.729035	1.563401
H452	H	-0.228260	0.979035	1.813401
