data_functionalizedCrystal
_audit_creation_method	'MofGen! by Chris Wilmer'
_symmetry_space_group_name_H-M	'P1'
_symmetry_Int_Tables_number	1
_symmetry_cell_setting	triclinic
loop_
_symmetry_equiv_pos_as_xyz
  x,y,z
_cell_length_a	6.817900
_cell_length_b	17.982865
_cell_length_c	17.982856
_cell_angle_alpha	95.933657
_cell_angle_beta	102.449936
_cell_angle_gamma	102.450232
loop_
_atom_site_label
_atom_site_type_symbol
_atom_site_fract_x
_atom_site_fract_y
_atom_site_fract_z
V1	V	-4.009917	-0.106138	-0.237879
O2	O	-4.003017	0.004356	-0.233014
O3	O	-3.956484	-0.209738	-0.236575
O4	O	-3.956481	-0.104831	-0.341478
O5	O	-4.003021	-0.101276	-0.127385
V6	V	-4.494850	-0.092883	-0.224623
O7	O	-4.268083	-0.135213	-0.266955
O8	O	-4.686881	-0.063807	-0.195547
O9	O	-4.325076	0.010717	-0.225927
O10	O	-4.619146	-0.203377	-0.229488
O11	O	-4.619143	-0.097744	-0.335117
O12	O	-4.325079	-0.094189	-0.121024
C13	C	-3.800423	-0.234983	-0.232906
C14	C	-3.837989	-0.319679	-0.232531
C15	C	-4.032237	-0.828458	-0.160349
C16	C	-3.996940	-0.748878	-0.160712
C17	C	-4.015573	-0.720188	-0.230700
C18	C	-4.069486	-0.771082	-0.300330
C19	C	-4.104768	-0.850660	-0.299967
C20	C	-3.927199	-0.450154	-0.301798
C21	C	-3.891918	-0.370569	-0.302157
C22	C	-3.819372	-0.348371	-0.162544
C23	C	-3.854653	-0.427949	-0.162180
C24	C	-3.908552	-0.478836	-0.231809
C25	C	-3.946821	-0.565126	-0.231415
C26	C	-3.977320	-0.633901	-0.231095
C27	C	-3.800418	-0.101164	-0.366719
C28	C	-3.837978	-0.100781	-0.451414
C29	C	-3.891894	-0.170407	-0.502301
C30	C	-3.927194	-0.170046	-0.581881
C31	C	-3.908563	-0.100059	-0.610573
C32	C	-3.854648	-0.030428	-0.559680
C33	C	-3.819363	-0.030789	-0.480102
C34	C	-3.996948	-0.028967	-0.880610
C35	C	-4.032231	-0.028611	-0.960194
C36	C	-4.104779	-0.168224	-0.982389
C37	C	-4.069494	-0.168586	-0.902811
C38	C	-4.015593	-0.098956	-0.851925
C39	C	-3.977321	-0.099348	-0.765636
C40	C	-3.946819	-0.099666	-0.696861
C41	C	-4.144484	-0.097859	-0.095779
C42	C	-4.086163	-0.098238	-0.011083
C43	C	-4.144479	0.035959	-0.229594
C44	C	-4.086151	0.120654	-0.229974
H45	H	-3.775471	-0.306929	-0.105848
H46	H	-3.907102	-0.347214	-0.359153
H47	H	-3.775463	0.025907	-0.438670
H48	H	-3.839486	-0.451304	-0.105188
H49	H	-3.971090	-0.491577	-0.358495
H50	H	-4.017069	-0.851810	-0.103357
N51	N	-4.012121	0.046879	-0.991142
H52	H	-3.972621	0.090936	-0.946832
H53	H	-4.148772	0.047473	-1.026329
H54	H	-3.971104	-0.226743	-0.623311
N55	N	-3.938650	-0.693987	-0.085614
H56	H	-3.932168	-0.724237	-0.041221
H57	H	-4.045952	-0.663105	-0.085283
N58	N	-3.911989	-0.245894	-0.471358
H59	H	-3.951510	-0.289947	-0.515673
H60	H	-4.022528	-0.251676	-0.441473
H61	H	-4.084642	-0.747717	-0.357316
H62	H	-4.084659	-0.225577	-0.879455
N63	N	-4.162907	-0.905550	-0.375061
H64	H	-4.169361	-0.875302	-0.419454
H65	H	-4.302720	-0.941702	-0.380548
N66	N	-4.162928	-0.243329	-1.037274
H67	H	-4.182464	-0.232485	-1.092041
H68	H	-4.296193	-0.276472	-1.030855
H69	H	-3.953061	0.027730	-0.839188
H70	H	-3.839492	0.026557	-0.583047
