data_functionalizedCrystal
_audit_creation_method	'MofGen! by Chris Wilmer'
_symmetry_space_group_name_H-M	'P1'
_symmetry_Int_Tables_number	1
_symmetry_cell_setting	triclinic
loop_
_symmetry_equiv_pos_as_xyz
  x,y,z
_cell_length_a	10.654545
_cell_length_b	14.044190
_cell_length_c	9.130313
_cell_angle_alpha	89.990619
_cell_angle_beta	89.996934
_cell_angle_gamma	88.837428
loop_
_atom_site_label
_atom_site_type_symbol
_atom_site_fract_x
_atom_site_fract_y
_atom_site_fract_z
O1	O	1.681234	0.133211	-0.121803
O2	O	1.317031	0.145909	-0.121811
O3	O	1.493661	0.001540	-0.121778
O4	O	1.504604	0.277581	-0.121836
O5	O	1.493647	0.001535	0.121821
O6	O	1.317017	0.145905	0.121788
O7	O	1.681220	0.133207	0.121796
Cu8	Cu	1.499117	0.139556	0.144034
Cu9	Cu	1.499133	0.139561	-0.144050
O10	O	1.504590	0.277577	0.121763
C11	C	1.270132	0.144976	-0.000012
C12	C	1.130409	0.142189	-0.000014
C13	C	1.064765	0.140875	0.132773
C14	C	0.933481	0.138241	0.132774
C15	C	0.933495	0.138239	-0.132811
C16	C	1.064778	0.140866	-0.132810
C17	C	1.488867	-0.033808	0.000025
C18	C	1.474588	-0.139128	0.000038
C19	C	1.549753	-0.388921	-0.000018
C20	C	1.448503	-0.331957	-0.000010
C21	C	1.463020	-0.224657	0.000017
C22	C	1.535238	-0.496231	-0.000045
C23	C	1.728119	0.134141	-0.000006
C24	C	1.867842	0.136927	-0.000014
C25	C	1.509384	0.312925	-0.000044
C26	C	1.523663	0.418244	-0.000066
N27	N	1.499115	0.139552	0.346657
N28	N	1.499145	0.139557	-0.346672
C29	C	1.577359	0.075652	0.423323
C30	C	1.577371	0.075652	0.576660
C31	C	1.420893	0.203460	0.576651
C32	C	1.420875	0.203454	0.423317
H33	H	1.118198	0.141952	0.240904
O34	O	1.128355	0.142183	-0.261939
C35	C	1.042281	0.140436	-0.379148
H36	H	0.946851	0.168543	-0.340236
H37	H	1.032992	0.064191	-0.419959
C38	C	1.206923	0.169035	-0.552413
C39	C	1.089717	0.203564	-0.504622
H40	H	1.236185	0.207972	-0.629814
H41	H	1.264915	0.170208	-0.473448
H42	H	1.199166	0.105498	-0.586411
H43	H	1.097478	0.267096	-0.470608
H44	H	1.031728	0.202403	-0.583585
H45	H	1.647332	-0.357107	-0.000001
H46	H	1.357193	0.255490	0.639083
H47	H	0.880039	0.137171	0.240902
H48	H	1.641082	0.023618	0.639078
H49	H	1.357154	0.255490	0.360891
H50	H	0.880043	0.137163	-0.240929
H51	H	1.350917	-0.363772	-0.000021
O52	O	1.653386	0.013482	0.349082
C53	C	1.722469	-0.042902	0.449638
H54	H	1.670834	-0.044329	0.558951
H55	H	1.819279	-0.011447	0.465915
C56	C	1.800324	-0.143303	0.255570
C57	C	1.736900	-0.145062	0.389827
H58	H	1.809232	-0.206319	0.218675
H59	H	1.753786	-0.105314	0.187822
H60	H	1.880993	-0.117086	0.269152
H61	H	1.656227	-0.171267	0.376239
H62	H	1.783425	-0.183057	0.457572
