data_functionalizedCrystal
_audit_creation_method	'MofGen! by Chris Wilmer'
_symmetry_space_group_name_H-M	'P1'
_symmetry_Int_Tables_number	1
_symmetry_cell_setting	triclinic
loop_
_symmetry_equiv_pos_as_xyz
  x,y,z
_cell_length_a	16.120530
_cell_length_b	18.050589
_cell_length_c	18.050582
_cell_angle_alpha	90.018005
_cell_angle_beta	87.088397
_cell_angle_gamma	92.869593
loop_
_atom_site_label
_atom_site_type_symbol
_atom_site_fract_x
_atom_site_fract_y
_atom_site_fract_z
Zn1	Zn	1.274424	0.353356	-0.477435
Zn2	Zn	1.774424	0.853356	0.022565
Zn3	Zn	1.274308	0.477534	-0.353250
Zn4	Zn	1.774308	0.977534	0.146750
Zn5	Zn	1.135021	0.347061	-0.346970
Zn6	Zn	1.635021	0.847061	0.153030
Zn7	Zn	1.134947	0.471199	-0.471111
Zn8	Zn	1.634947	0.971199	0.028889
O9	O	1.204675	0.412287	-0.412191
O10	O	1.704675	0.912287	0.087809
O11	O	1.391073	0.375113	-0.466237
O12	O	1.891073	0.875113	0.033763
O13	O	1.255814	0.460243	-0.248491
O14	O	1.755814	0.960243	0.251509
O15	O	1.153592	0.243975	-0.364295
O16	O	1.653592	0.743975	0.135705
O17	O	1.390988	0.466346	-0.374998
O18	O	1.890988	0.966346	0.125002
O19	O	1.256011	0.248600	-0.460147
O20	O	1.756011	0.748600	0.039853
O21	O	1.153480	0.364386	-0.243877
O22	O	1.653480	0.864386	0.256123
O23	O	1.018347	0.358243	-0.358162
O24	O	1.518347	0.858243	0.141838
O25	O	1.153466	0.455550	-0.575875
O26	O	1.653466	0.955550	-0.075875
O27	O	1.018292	0.449446	-0.449368
O28	O	1.518292	0.949446	0.050632
O29	O	1.255940	0.368971	-0.580522
O30	O	1.755940	0.868971	-0.080522
O31	O	1.255742	0.580614	-0.368866
O32	O	1.755742	1.080614	0.131134
O33	O	1.153354	0.575960	-0.455458
O34	O	1.653354	1.075960	0.044542
C35	C	0.988070	0.402475	-0.402398
C36	C	1.488070	0.902475	0.097602
C37	C	0.895405	0.398295	-0.398226
C38	C	1.395405	0.898295	0.101774
C39	C	0.725746	0.390646	-0.390615
C40	C	1.225746	0.890646	0.109385
C41	C	0.684444	0.433983	-0.433822
C42	C	1.184444	0.933983	0.066178
C43	C	0.590040	0.429727	-0.429587
C44	C	1.090040	0.929727	0.070413
C45	C	0.820159	0.394901	-0.394849
C46	C	1.320159	0.894901	0.105151
C47	C	1.204550	0.605234	-0.412174
C48	C	1.704550	1.105234	0.087826
C49	C	1.204572	0.687781	-0.412195
C50	C	1.704572	1.187781	0.087805
C51	C	1.148923	0.884729	-0.459268
C52	C	1.648923	1.384729	0.040732
C53	C	1.128600	0.933243	-0.390584
C54	C	1.628600	1.433243	0.109416
C55	C	1.204635	0.838914	-0.412208
C56	C	1.704635	1.338914	0.087792
C57	C	1.224980	0.937482	-0.480901
C58	C	1.724980	1.437482	0.019099
C59	C	1.204694	0.984902	-0.412227
C60	C	1.704694	1.484902	0.087773
C61	C	1.184273	0.886339	-0.343486
C62	C	1.684273	1.386339	0.156514
C63	C	1.280688	0.890575	-0.433851
C64	C	1.780688	1.390575	0.066149
C65	C	1.260394	0.939069	-0.365121
C66	C	1.760394	1.439069	0.134879
C67	C	1.204599	0.754814	-0.412198
C68	C	1.704599	1.254814	0.087802
C69	C	1.204730	1.069000	-0.412229
C70	C	1.704730	1.569000	0.087771
C71	C	1.422126	0.422139	-0.422024
C72	C	1.922126	0.922139	0.077976
C73	C	1.514790	0.426337	-0.426214
C74	C	2.014790	0.926337	0.073786
C75	C	1.204707	0.412256	-0.605899
C76	C	1.704707	0.912256	-0.105899
C77	C	1.204721	0.412242	-0.688445
C78	C	1.704721	0.912242	-0.188445
C79	C	1.204791	1.218587	-0.412225
C80	C	1.704791	1.718587	0.087775
C81	C	1.204759	1.136040	-0.412239
C82	C	1.704759	1.636040	0.087761
C83	C	1.149039	0.459258	-0.885371
C84	C	1.649039	0.959258	-0.385371
C85	C	1.225098	0.480852	-0.938195
C86	C	1.725098	0.980852	-0.438195
C87	C	1.204763	0.412188	-0.839577
C88	C	1.704763	0.912188	-0.339577
C89	C	1.128746	0.390575	-0.933837
C90	C	1.628746	0.890575	-0.433837
C91	C	1.204796	0.412136	-0.985564
C92	C	1.704796	0.912136	-0.485564
C93	C	1.280861	0.433819	-0.891316
C94	C	1.780861	0.933819	-0.391316
C95	C	1.184458	0.343508	-0.886951
C96	C	1.684458	0.843508	-0.386951
C97	C	1.260569	0.365078	-0.939755
C98	C	1.760569	0.865078	-0.439755
C99	C	1.204742	0.412219	-0.755478
C100	C	1.704742	0.912219	-0.255478
C101	C	1.204824	0.412104	-1.069662
C102	C	1.704824	0.912104	-0.569662
C103	C	1.204690	0.412267	-0.219240
C104	C	1.704690	0.912267	0.280760
C105	C	1.204838	0.412079	-0.136701
C106	C	1.704838	0.912079	0.363299
H107	H	1.101748	0.860948	-0.499003
H108	H	1.601748	1.360948	0.000997
C109	C	1.041878	0.365905	-0.959219
C110	C	1.541878	0.865905	-0.459219
N111	N	0.976448	0.347329	-0.978334
N112	N	1.476448	0.847329	-0.478334
H113	H	1.101960	0.499121	-0.861578
H114	H	1.601960	0.999121	-0.361578
H115	H	1.345180	0.452143	-0.872617
H116	H	1.845180	0.952143	-0.372617
H117	H	1.064314	0.952115	-0.372295
H118	H	1.564314	1.452115	0.127705
H119	H	1.167014	0.863992	-0.285381
H120	H	1.667014	1.363992	0.214619
H121	H	1.242165	0.959915	-0.538987
H122	H	1.742165	1.459915	-0.038987
H123	H	0.690208	0.350352	-0.350446
H124	H	1.190208	0.850352	0.149554
C125	C	1.248324	0.559287	-0.968568
C126	C	1.748324	1.059287	-0.468568
N127	N	1.265812	0.618365	-0.991443
N128	N	1.765812	1.118365	-0.491443
C129	C	1.324074	0.971015	-0.311303
C130	C	1.824074	1.471015	0.188697
N131	N	1.372034	0.995079	-0.270765
N132	N	1.872034	1.495079	0.229235
C133	C	1.324322	0.311275	-0.971724
C134	C	1.824322	0.811275	-0.471724
N135	N	1.372342	0.270753	-0.995805
N136	N	1.872342	0.770753	-0.495805
H137	H	1.344960	0.871704	-0.452172
H138	H	1.844960	1.371704	0.047828
C139	C	1.161197	0.265094	-0.856553
C140	C	1.661197	0.765094	-0.356553
N141	N	1.143668	0.206032	-0.833654
N142	N	1.643668	0.706032	-0.333654
C143	C	0.732456	0.488430	-0.488087
C144	C	1.232456	0.988430	0.011913
N145	N	0.768622	0.529440	-0.528955
N146	N	1.268622	1.029440	-0.028955
