data_functionalizedCrystal
_audit_creation_method	'MofGen! by Chris Wilmer'
_symmetry_space_group_name_H-M	'P1'
_symmetry_Int_Tables_number	1
_symmetry_cell_setting	triclinic
loop_
_symmetry_equiv_pos_as_xyz
  x,y,z
_cell_length_a	14.908571
_cell_length_b	12.759394
_cell_length_c	14.908308
_cell_angle_alpha	93.268403
_cell_angle_beta	90.175053
_cell_angle_gamma	86.711101
loop_
_atom_site_label
_atom_site_type_symbol
_atom_site_fract_x
_atom_site_fract_y
_atom_site_fract_z
Zn1	Zn	1.345341	-0.548282	-0.587592
Zn2	Zn	1.353935	-0.714462	-0.437236
Zn3	Zn	1.203654	-0.528102	-0.428590
Zn4	Zn	1.194963	-0.713213	-0.578887
O5	O	1.274473	-0.626015	-0.508076
O6	O	1.472308	-0.579294	-0.574908
O7	O	1.341234	-0.681818	-0.310264
O8	O	1.222490	-0.383762	-0.449706
O9	O	1.478622	-0.701385	-0.464442
O10	O	1.326587	-0.398588	-0.566525
O11	O	1.230824	-0.544900	-0.303912
O12	O	1.076675	-0.543690	-0.441266
O13	O	1.207676	-0.699258	-0.705867
O14	O	1.070289	-0.679690	-0.551688
O15	O	1.318159	-0.578083	-0.712262
O16	O	1.332806	-0.861313	-0.456001
O17	O	1.216010	-0.860396	-0.560072
C18	C	1.040856	-0.609365	-0.494595
C19	C	0.940913	-0.602270	-0.488849
C20	C	0.746516	-0.730752	-0.592880
C21	C	0.652610	-0.724088	-0.587484
C22	C	0.659192	-0.582274	-0.472666
C23	C	0.753098	-0.588938	-0.478062
C24	C	0.796757	-0.663180	-0.538170
C25	C	0.890665	-0.669848	-0.543561
C26	C	0.897246	-0.528030	-0.428748
C27	C	0.803340	-0.521366	-0.423352
C28	C	1.274420	-0.898977	-0.508051
C29	C	1.274478	-1.015759	-0.508075
C30	C	1.396180	-1.016672	-0.399798
C31	C	1.457053	-1.071992	-0.345671
C32	C	1.457105	-1.181719	-0.345698
C33	C	1.396278	-1.236129	-0.399860
C34	C	1.335404	-1.180809	-0.453987
C35	C	1.335358	-1.071079	-0.453952
C36	C	1.213709	-1.179897	-0.562269
C37	C	1.213651	-1.070169	-0.562238
C38	C	1.152882	-1.234306	-0.616431
C39	C	1.092002	-1.178986	-0.670555
C40	C	1.091953	-1.069252	-0.670524
C41	C	1.152778	-1.014849	-0.616365
C42	C	1.509002	-0.642730	-0.521611
C43	C	1.608945	-0.649853	-0.527378
C44	C	1.260989	-0.640782	-0.742602
C45	C	1.255243	-0.647075	-0.842543
C46	C	1.274549	-0.351989	-0.508122
C47	C	1.274582	-0.235216	-0.508142
C48	C	1.359488	-0.532697	-1.037003
C49	C	1.354092	-0.538606	-1.130907
C50	C	1.239051	-0.664798	-1.124254
C51	C	1.244447	-0.658888	-1.030351
C52	C	1.304669	-0.592837	-0.986729
C53	C	1.310069	-0.586934	-0.892824
C54	C	1.195024	-0.713118	-0.886173
C55	C	1.189627	-0.719028	-0.980077
C56	C	1.287956	-0.611232	-0.274466
C57	C	1.293877	-0.604656	-0.174536
H58	H	0.782063	-0.791208	-0.641817
C59	C	0.951638	-0.454599	-0.369239
C60	C	0.893301	-0.388176	-0.315432
C61	C	0.943374	-0.320531	-0.260593
H62	H	0.986312	-0.413555	-0.405704
H63	H	0.990495	-0.494821	-0.332057
H64	H	0.854459	-0.347957	-0.352610
H65	H	0.858625	-0.429191	-0.278948
H66	H	0.982232	-0.360754	-0.223411
H67	H	0.978047	-0.279494	-0.297065
H68	H	0.903801	-0.275462	-0.224073
H69	H	0.926210	-0.730302	-0.592502
C70	C	1.522990	-1.012724	-0.286895
C71	C	1.509905	-0.904786	-0.298433
C72	C	1.570622	-0.850160	-0.244297
H73	H	1.582685	-1.035645	-0.303532
H74	H	1.513347	-1.025952	-0.225700
H75	H	1.519555	-0.891565	-0.359614
H76	H	1.450223	-0.881834	-0.281790
H77	H	1.560979	-0.863388	-0.183102
H78	H	1.630313	-0.873090	-0.260938
H79	H	1.561747	-0.776918	-0.252111
H80	H	1.396332	-1.325475	-0.399886
H81	H	1.396133	-0.927325	-0.399758
H82	H	0.611707	-0.779110	-0.632037
C83	C	0.611616	-0.501738	-0.407473
C84	C	0.518624	-0.510367	-0.414465
C85	C	0.474767	-0.436187	-0.354430
H86	H	0.626164	-0.433061	-0.421587
H87	H	0.630389	-0.514258	-0.347883
H88	H	0.499858	-0.497839	-0.474041
H89	H	0.504050	-0.579027	-0.400343
H90	H	0.493541	-0.448707	-0.294840
H91	H	0.489323	-0.367515	-0.368549
H92	H	0.411669	-0.442038	-0.359160
H93	H	0.767780	-0.460918	-0.374416
H94	H	1.359106	-0.533153	-0.857308
C95	C	1.523234	-1.241594	-0.286837
C96	C	1.576480	-1.170464	-0.239383
C97	C	1.637400	-1.225581	-0.185143
H98	H	1.560510	-1.289303	-0.323437
H99	H	1.491159	-1.279511	-0.245617
H100	H	1.608554	-1.132564	-0.280597
H101	H	1.539230	-1.122753	-0.202765
H102	H	1.605325	-1.263499	-0.143924
H103	H	1.674669	-1.273288	-0.221750
H104	H	1.673529	-1.177328	-0.152933
H105	H	1.152931	-1.323652	-0.616454
C106	C	1.026009	-1.238244	-0.729258
C107	C	1.039075	-1.346177	-0.717687
C108	C	0.978289	-1.400800	-0.771741
H109	H	1.035580	-1.225076	-0.790466
H110	H	0.966335	-1.215261	-0.712552
H111	H	1.098735	-1.369152	-0.734399
H112	H	1.029497	-1.359376	-0.656491
H113	H	0.918614	-1.377817	-0.755035
H114	H	0.987864	-1.387624	-0.832946
H115	H	0.987140	-1.474037	-0.763892
H116	H	1.042386	-1.024217	-0.714605
H117	H	1.140595	-0.772803	-1.015607
H118	H	1.150388	-0.762092	-0.845230
C119	C	1.152554	-0.895711	-0.616420
C120	C	1.086213	-0.858903	-0.675397
C121	C	1.085977	-0.749157	-0.675462
H122	H	1.209606	-0.875805	-0.635378
H123	H	1.140325	-0.866139	-0.557496
H124	H	1.098448	-0.888464	-0.734310
H125	H	1.029151	-0.878780	-0.656454
H126	H	1.073748	-0.719585	-0.616537
H127	H	1.143032	-0.729262	-0.694418
H128	H	1.040960	-0.724168	-0.715470
C129	C	1.424897	-0.460891	-0.989800
C130	C	1.471741	-0.409472	-1.053927
C131	C	1.531995	-0.343305	-1.010478
H132	H	1.466247	-0.501456	-0.955423
H133	H	1.392637	-0.410304	-0.951211
H134	H	1.503999	-0.460051	-1.092500
H135	H	1.430415	-0.368887	-1.088308
H136	H	1.499735	-0.292719	-0.971890
H137	H	1.573339	-0.383878	-0.976103
H138	H	1.563780	-0.308402	-1.053981
C139	C	1.173581	-0.736525	-1.171458
C140	C	1.126708	-0.787914	-1.107332
C141	C	1.066381	-0.853987	-1.150782
H142	H	1.205760	-0.787137	-1.210069
H143	H	1.132261	-0.695864	-1.205809
H144	H	1.168022	-0.828572	-1.072996
H145	H	1.094510	-0.737328	-1.068718
H146	H	1.025061	-0.813326	-1.185133
H147	H	1.098567	-0.904592	-1.189392
H148	H	1.034564	-0.888855	-1.107280
H149	H	1.398730	-0.489631	-1.171837
