data_functionalizedCrystal
_audit_creation_method	'MofGen! by Chris Wilmer'
_symmetry_space_group_name_H-M	'P1'
_symmetry_Int_Tables_number	1
_symmetry_cell_setting	triclinic
loop_
_symmetry_equiv_pos_as_xyz
  x,y,z
_cell_length_a	6.817900
_cell_length_b	19.551823
_cell_length_c	12.200875
_cell_angle_alpha	94.912032
_cell_angle_beta	107.143593
_cell_angle_gamma	101.663376
loop_
_atom_site_label
_atom_site_type_symbol
_atom_site_fract_x
_atom_site_fract_y
_atom_site_fract_z
V1	V	-4.059385	-0.096834	-0.358198
O2	O	-4.055454	0.004490	-0.350828
O3	O	-4.001853	-0.191848	-0.356279
O4	O	-4.029239	-0.095416	-0.514179
O5	O	-4.027878	-0.092610	-0.191835
V6	V	-4.541831	-0.084706	-0.338235
O7	O	-4.323006	-0.123438	-0.401988
O8	O	-4.728407	-0.058102	-0.294445
O9	O	-4.376156	0.010308	-0.340154
O10	O	-4.663159	-0.186030	-0.345606
O11	O	-4.690734	-0.088930	-0.504598
O12	O	-4.348770	-0.086124	-0.182255
C13	C	-3.844042	-0.215008	-0.350765
C14	C	-3.878411	-0.292684	-0.350236
C15	C	-4.076995	-0.332732	-0.355724
C16	C	-4.109295	-0.405718	-0.355238
C17	C	-3.942988	-0.438651	-0.349241
C18	C	-3.744379	-0.398594	-0.343759
C19	C	-3.712091	-0.325611	-0.344257
C20	C	-3.821247	-0.545106	-0.276501
C21	C	-3.853539	-0.618088	-0.275996
C22	C	-4.042571	-0.663756	-0.347712
C23	C	-4.199334	-0.636433	-0.419918
C24	C	-4.167046	-0.563450	-0.420416
C25	C	-3.977979	-0.517789	-0.348702
C26	C	-4.276191	-0.782944	-0.352675
C27	C	-4.308488	-0.855932	-0.352197
C28	C	-3.943561	-0.848805	-0.340706
C29	C	-3.911276	-0.775820	-0.341197
C30	C	-4.077596	-0.742894	-0.347176
C31	C	-3.878974	-0.091999	-0.552180
C32	C	-3.935549	-0.091468	-0.679699
C33	C	-4.039090	-0.090498	-0.913168
C34	C	-3.981464	-0.091037	-0.783249
C35	C	-4.197308	0.033465	-0.345665
C36	C	-4.142178	0.111140	-0.346202
C37	C	-4.162376	-0.089543	-0.144247
C38	C	-4.085040	-0.090070	-0.016728
H39	H	-4.271010	-0.438332	-0.359707
Cl40	Cl	-3.734490	-0.890201	-0.333181
H41	H	-3.725897	-0.640328	-0.217195
H42	H	-3.550378	-0.293004	-0.339789
Cl43	Cl	-4.364100	-0.529103	-0.511193
Cl44	Cl	-3.535311	-0.439995	-0.336227
Cl45	Cl	-4.286076	-0.291341	-0.363224
Cl46	Cl	-4.485285	-0.741550	-0.360218
Cl47	Cl	-4.436990	-0.693837	-0.510080
H48	H	-3.667300	-0.507928	-0.218105
Cl49	Cl	-3.661608	-0.725470	-0.334287
H50	H	-4.470206	-0.888539	-0.356673
