data_functionalizedCrystal
_audit_creation_method	'MofGen! by Chris Wilmer'
_symmetry_space_group_name_H-M	'P1'
_symmetry_Int_Tables_number	1
_symmetry_cell_setting	triclinic
loop_
_symmetry_equiv_pos_as_xyz
  x,y,z
_cell_length_a	23.532407
_cell_length_b	23.532407
_cell_length_c	10.268362
_cell_angle_alpha	89.986236
_cell_angle_beta	89.999248
_cell_angle_gamma	97.151287
loop_
_atom_site_label
_atom_site_type_symbol
_atom_site_fract_x
_atom_site_fract_y
_atom_site_fract_z
O1	O	0.755260	-0.069135	0.108161
O2	O	0.589396	-0.079138	0.108203
O3	O	0.677329	0.008795	0.108144
O4	O	0.667326	-0.157069	0.108220
O5	O	0.677322	0.008798	-0.108456
O6	O	0.589389	-0.079135	-0.108398
O7	O	0.755252	-0.069132	-0.108439
Cu8	Cu	0.672320	-0.074133	-0.128196
Cu9	Cu	0.672329	-0.074137	0.127960
O10	O	0.667319	-0.157065	-0.108381
C11	C	0.568176	-0.078882	-0.000093
C12	C	0.504959	-0.078116	-0.000078
C13	C	0.105856	-0.125350	-0.000116
C14	C	0.046456	-0.124638	-0.000124
O15	O	0.009711	-0.168424	-0.000152
N16	N	0.023830	-0.072362	-0.000146
C17	C	0.060607	-0.020794	-0.000172
O18	O	0.035908	0.023737	-0.000193
C19	C	0.120006	-0.021506	-0.000173
C20	C	0.142629	-0.073785	-0.000139
C21	C	0.128480	-0.177625	-0.000082
C22	C	0.187876	-0.178336	-0.000072
C23	C	0.224649	-0.126772	-0.000094
C24	C	0.202025	-0.074496	-0.000128
C25	C	0.156783	0.030062	-0.000209
C26	C	0.216185	0.029345	-0.000211
C27	C	0.238808	-0.022934	-0.000176
C28	C	0.298194	-0.023643	-0.000140
N29	N	0.320821	-0.075920	-0.000118
C30	C	0.284048	-0.127484	-0.000095
C31	C	-0.064135	-0.019302	-0.000173
C32	C	-0.123533	-0.018589	-0.000162
C33	C	-0.137680	-0.122434	-0.000116
C34	C	-0.078281	-0.123146	-0.000117
C35	C	-0.041509	-0.071578	-0.000151
C36	C	0.408784	-0.128974	-0.000072
C37	C	0.468186	-0.129680	-0.000056
C38	C	0.482329	-0.025836	-0.000108
C39	C	0.422932	-0.025129	-0.000118
C40	C	0.386160	-0.076702	-0.000104
O41	O	0.334974	0.020119	-0.000118
O42	O	0.308756	-0.172007	-0.000092
C43	C	0.677071	0.030013	-0.000162
C44	C	0.676305	0.093230	-0.000182
C45	C	0.776472	-0.069388	-0.000141
C46	C	0.839689	-0.070154	-0.000146
C47	C	0.667577	-0.178283	-0.000071
C48	C	0.668343	-0.241500	-0.000043
N49	N	0.672317	-0.074130	-0.308362
C50	C	0.621110	0.359397	-0.000087
C51	C	0.621821	0.299997	-0.000097
O52	O	0.578035	0.263252	-0.000045
N53	N	0.674097	0.277371	-0.000125
C54	C	0.725666	0.314148	-0.000130
O55	O	0.770196	0.289449	-0.000153
C56	C	0.724954	0.373547	-0.000110
C57	C	0.672674	0.396170	-0.000095
C58	C	0.568834	0.382020	-0.000071
C59	C	0.568123	0.441417	-0.000063
C60	C	0.619687	0.478189	-0.000071
C61	C	0.671963	0.455566	-0.000088
C62	C	0.776521	0.410324	-0.000106
C63	C	0.775805	0.469726	-0.000085
C64	C	0.723525	0.492349	-0.000070
C65	C	0.722816	0.551735	-0.000088
N66	N	0.670539	0.574361	-0.000060
C67	C	0.618975	0.537589	-0.000052
C68	C	0.727157	0.189406	-0.000169
C69	C	0.727870	0.130008	-0.000197
C70	C	0.624025	0.115861	-0.000162
C71	C	0.623313	0.175260	-0.000143
C72	C	0.674881	0.212032	-0.000140
C73	C	0.617486	0.662325	-0.000037
C74	C	0.616779	0.721727	-0.000034
C75	C	0.720623	0.735869	-0.000063
C76	C	0.721330	0.676473	-0.000072
C77	C	0.669757	0.639701	-0.000054
O78	O	0.766579	0.588514	-0.000135
O79	O	0.574452	0.562296	-0.000011
C80	C	0.672326	-0.074136	-0.574032
C81	C	0.672319	-0.074134	-0.426194
N82	N	0.672335	-0.074136	0.308125
H83	H	0.206289	-0.220908	-0.000043
H84	H	0.762606	0.765820	-0.000076
H85	H	-0.167632	-0.164421	-0.000104
N86	N	0.832913	0.385941	-0.000099
H87	H	0.835525	0.361604	0.080194
H88	H	0.835502	0.361652	-0.080447
H89	H	0.525552	0.459830	-0.000039
H90	H	0.575489	0.632392	-0.000022
N91	N	0.513214	0.342363	-0.000058
H92	H	0.479995	0.365718	-0.000044
H93	H	0.511241	0.317425	-0.080365
H94	H	0.246123	0.071339	-0.000240
N95	N	0.777716	0.652068	-0.000110
H96	H	0.810273	0.684379	-0.000120
H97	H	0.780277	0.627724	0.080186
H98	H	0.486602	-0.172255	-0.000027
H99	H	0.580742	0.193674	-0.000136
H100	H	0.378852	-0.170970	-0.000065
N101	N	0.088822	-0.233245	-0.000132
H102	H	0.112177	-0.266464	-0.000135
H103	H	0.063855	-0.235238	0.080145
N104	N	0.568407	0.076192	-0.000155
H105	H	0.576795	0.035132	-0.000166
H106	H	0.545612	0.083471	0.080151
N107	N	-0.053883	-0.179533	-0.000076
H108	H	-0.086197	-0.212087	-0.000056
H109	H	-0.029547	-0.182094	-0.080371
H110	H	0.770441	0.111594	-0.000230
N111	N	0.782780	0.229066	-0.000181
H112	H	0.816001	0.205714	-0.000205
H113	H	0.784744	0.254031	-0.080473
H114	H	0.817799	0.499664	-0.000076
H115	H	-0.141947	0.023982	-0.000170
N116	N	-0.024480	0.036324	-0.000185
H117	H	0.000479	0.038345	0.080109
H118	H	0.000444	0.038319	-0.080532
N119	N	0.132392	0.086450	-0.000253
H120	H	0.164709	0.119002	-0.000278
H121	H	0.108060	0.089007	-0.080557
H122	H	0.574205	0.740143	-0.000028
N123	N	0.398521	0.031253	-0.000143
H124	H	0.411944	0.053829	0.080143
H125	H	0.411962	0.053784	-0.080498
N126	N	0.521994	0.029779	-0.000140
H127	H	0.546955	0.031799	0.080150
H128	H	0.546916	0.031758	-0.080491
