data_functionalizedCrystal
_audit_creation_method	'MofGen! by Chris Wilmer'
_symmetry_space_group_name_H-M	'P1'
_symmetry_Int_Tables_number	1
_symmetry_cell_setting	triclinic
loop_
_symmetry_equiv_pos_as_xyz
  x,y,z
_cell_length_a	12.827893
_cell_length_b	12.827892
_cell_length_c	12.827885
_cell_angle_alpha	90.029786
_cell_angle_beta	89.980728
_cell_angle_gamma	89.984638
loop_
_atom_site_label
_atom_site_type_symbol
_atom_site_fract_x
_atom_site_fract_y
_atom_site_fract_z
Zn1	Zn	1.597670	0.415983	-0.590849
Zn2	Zn	1.597564	0.590761	-0.416109
Zn3	Zn	1.422911	0.416034	-0.416122
Zn4	Zn	1.422896	0.590683	-0.590809
O5	O	1.510260	0.503365	-0.503472
O6	O	1.743892	0.439179	-0.567680
O7	O	1.574357	0.567637	-0.269875
O8	O	1.446144	0.269791	-0.439322
O9	O	1.743814	0.567587	-0.439300
O10	O	1.574538	0.269754	-0.567693
O11	O	1.446041	0.439266	-0.269884
O12	O	1.276673	0.439190	-0.439284
O13	O	1.446118	0.567455	-0.737050
O14	O	1.276662	0.567504	-0.567625
O15	O	1.574524	0.439104	-0.737080
O16	O	1.574343	0.736986	-0.439261
O17	O	1.446016	0.736929	-0.567612
C18	C	1.238750	0.503345	-0.503452
C19	C	1.122597	0.503362	-0.503469
C20	C	1.070835	0.566954	-0.566878
C21	C	0.950784	0.566973	-0.566896
C22	C	1.510195	0.774875	-0.503454
C23	C	1.510262	0.891028	-0.503481
C24	C	1.510354	0.230795	-0.503514
C25	C	1.510394	0.114642	-0.503531
C26	C	1.782830	0.503386	-0.503493
C27	C	1.898983	0.503395	-0.503502
C28	C	1.573838	0.942807	-0.440039
C29	C	1.573910	1.062857	-0.440066
C30	C	1.510331	0.503265	-0.776043
C31	C	1.510362	0.503222	-0.892196
C32	C	1.573907	0.439697	-0.943995
C33	C	1.573940	0.439652	-1.064045
C34	C	1.510249	0.503390	-0.231962
C35	C	1.510422	0.503138	-0.115810
H36	H	0.943491	0.448952	-0.449208
H37	H	1.078036	0.448927	-0.449199
O38	O	1.638796	0.374619	-1.117063
C39	C	1.615990	0.270450	-1.090501
H40	H	1.575867	0.268241	-1.011225
H41	H	1.691427	0.223594	-1.086887
H42	H	1.562237	0.235282	-1.151910
H43	H	1.628220	0.898262	-0.385708
H44	H	1.628336	1.107385	-0.385748
O45	O	1.445604	1.061488	-0.568447
C46	C	1.505083	0.998230	-0.635904
H47	H	1.587374	1.031112	-0.642468
H48	H	1.467245	0.996855	-0.716291
H49	H	1.508726	0.915572	-0.603501
O50	O	1.124102	0.631748	-0.631681
C51	C	1.187256	0.572262	-0.699228
H52	H	1.203489	0.493006	-0.662491
H53	H	1.264056	0.614761	-0.713078
H54	H	1.145295	0.560920	-0.776735
O55	O	1.445243	0.944048	-0.568255
C56	C	1.341061	0.917583	-0.545325
H57	H	1.338796	0.838341	-0.505204
H58	H	1.294156	0.913945	-0.620706
H59	H	1.305987	0.979062	-0.491527
O60	O	1.638642	0.374805	-0.890765
C61	C	1.579097	0.307367	-0.827653
H62	H	1.499868	0.344234	-0.811401
H63	H	1.621577	0.293470	-0.750860
H64	H	1.567698	0.229867	-0.869661
O65	O	1.445659	0.568078	-1.062564
C66	C	1.505178	0.635560	-0.999445
H67	H	1.584396	0.598700	-0.983216
H68	H	1.462662	0.649521	-0.922642
H69	H	1.516605	0.713026	-1.041436
H70	H	1.455975	0.557567	-0.936725
H71	H	0.906270	0.621420	-0.621181
