data_functionalizedCrystal
_audit_creation_method	'MofGen! by Chris Wilmer'
_symmetry_space_group_name_H-M	'P1'
_symmetry_Int_Tables_number	1
_symmetry_cell_setting	triclinic
loop_
_symmetry_equiv_pos_as_xyz
  x,y,z
_cell_length_a	31.640172
_cell_length_b	19.377369
_cell_length_c	19.377372
_cell_angle_alpha	62.058157
_cell_angle_beta	90.000920
_cell_angle_gamma	48.633885
loop_
_atom_site_label
_atom_site_type_symbol
_atom_site_fract_x
_atom_site_fract_y
_atom_site_fract_z
Zr1	Zr	0.331136	0.759380	0.055874
O2	O	0.233092	0.943826	-0.042071
O3	O	0.369178	0.607566	0.064542
O4	O	0.332792	0.806412	-0.072850
O5	O	0.289096	0.696501	0.227993
O6	O	0.402353	0.806392	-0.072836
O7	O	0.269478	0.744980	0.095321
O8	O	0.467441	0.450692	0.172935
O9	O	0.224008	1.052200	-0.017778
O10	O	0.427667	0.657908	0.094053
O11	O	0.390394	0.621744	0.193053
O12	O	0.347555	0.855860	0.031291
O13	O	0.310282	0.819695	0.130291
Zr14	Zr	0.473365	0.682030	0.267492
Zr15	Zr	0.442078	0.759348	0.055897
Zr16	Zr	0.362424	0.682062	0.267469
Zr17	Zr	0.316648	0.932225	0.094619
Zr18	Zr	0.487854	0.509185	0.228747
O19	O	0.435324	0.833844	0.258823
O20	O	0.390836	0.943780	-0.042038
O21	O	0.277579	0.833889	0.258790
O22	O	0.571410	0.497584	0.365437
O23	O	0.526923	0.607520	0.064576
O24	O	0.413665	0.497629	0.365404
O25	O	0.515406	0.744909	0.095373
O26	O	0.471710	0.634997	0.396216
O27	O	0.402149	0.635018	0.396202
O28	O	0.535024	0.696430	0.228044
O29	O	0.312191	1.052175	-0.017759
O30	O	0.492310	0.389235	0.341125
O31	O	0.580494	0.389209	0.341144
O32	O	0.555625	0.450667	0.172953
O33	O	0.248877	0.990743	0.150412
O34	O	0.337061	0.990717	0.150431
O35	O	0.456947	0.585550	0.292075
O36	O	0.494219	0.621714	0.193075
O37	O	0.414107	0.819665	0.130313
O38	O	0.376835	0.783501	0.229313
C39	C	0.420374	0.504502	0.113218
C40	C	0.426525	0.431125	0.096770
C41	C	0.349737	0.094999	0.301338
C42	C	0.355598	0.025933	0.285953
C43	C	0.394507	0.063696	0.182604
C44	C	0.388653	0.132761	0.197984
C45	C	0.366266	0.148408	0.257351
C46	C	0.405182	0.186170	0.153997
C47	C	0.399324	0.255234	0.169373
C48	C	0.376938	0.270890	0.228735
C49	C	0.360409	0.217472	0.272727
C50	C	0.427564	0.170529	0.094626
C51	C	0.444093	0.223937	0.050639
C52	C	0.438240	0.292996	0.066019
C53	C	0.415853	0.308652	0.125381
C54	C	0.454768	0.346414	0.022027
C55	C	0.448911	0.415479	0.037403
C56	C	0.409995	0.377717	0.140757
C57	C	0.263480	0.720745	0.161654
C58	C	0.216383	0.720758	0.161644
C59	C	-0.033792	0.617360	0.194462
C60	C	-0.210773	0.617337	0.194478
O61	O	-0.198089	0.529446	0.222376
N62	N	-0.274720	0.720665	0.161715
C63	C	-0.294422	0.824005	0.128952
O64	O	-0.352873	0.911889	0.101094
C65	C	-0.117441	0.824025	0.128942
C66	C	-0.053494	0.720693	0.161699
C67	C	0.030151	0.514036	0.227217
C68	C	0.074393	0.514044	0.227208
C69	C	0.054691	0.617377	0.194445
C70	C	-0.009253	0.720701	0.161690
C71	C	-0.137142	0.927361	0.096185
C72	C	-0.092890	0.927356	0.096187
C73	C	-0.028943	0.824024	0.128944
C74	C	0.015287	0.824042	0.128918
N75	N	0.079234	0.720714	0.161680
C76	C	0.098936	0.617381	0.194444
C77	C	-0.387337	0.823988	0.128958
C78	C	-0.431583	0.823984	0.128959
C79	C	-0.347930	0.617314	0.194486
C80	C	-0.303685	0.617322	0.194479
C81	C	-0.323390	0.720659	0.161720
C82	C	0.191843	0.617407	0.194422
C83	C	0.236085	0.617426	0.194407
C84	C	0.152429	0.824093	0.128884
C85	C	0.108191	0.824076	0.128894
C86	C	0.127903	0.720723	0.161669
O87	O	0.002650	0.911884	0.101043
O88	O	0.157392	0.529504	0.222315
C89	C	-0.078034	0.617352	0.194471
C90	C	-0.141977	0.720676	0.161716
C91	C	-0.161679	0.824008	0.128953
C92	C	-0.186223	0.720672	0.161717
C93	C	-0.166521	0.617339	0.194480
C94	C	-0.102573	0.514010	0.227243
C95	C	-0.058332	0.514019	0.227234
C96	C	-0.225627	0.927337	0.096190
C97	C	-0.269865	0.927320	0.096200
C98	C	-0.250163	0.823988	0.128964
C99	C	0.541022	0.720665	0.161712
C100	C	0.588119	0.720651	0.161722
C101	C	0.363115	0.817418	-0.102991
C102	C	0.349832	0.850242	-0.192819
C103	C	0.384128	0.936907	0.210148
C104	C	0.377977	1.010284	0.226596
C105	C	0.515218	0.441563	-0.324449
C106	C	0.502723	0.472433	-0.408865
C107	C	0.419093	0.679080	-0.474374
C108	C	0.431582	0.648227	-0.389963
C109	C	0.479645	0.529467	-0.315005
C110	C	0.396009	0.736130	-0.380519
C111	C	0.408495	0.705280	-0.296114
C112	C	0.456555	0.586525	-0.221154
C113	C	0.492131	0.498616	-0.230601
C114	C	0.347944	0.854890	-0.455477
C115	C	0.312371	0.942793	-0.446033
C116	C	0.324860	0.911943	-0.361628
C117	C	0.372919	0.793189	-0.286667
C118	C	0.289283	0.999852	-0.352180
C119	C	0.301769	0.969002	-0.267776
C120	C	0.385405	0.762338	-0.202263
C121	C	0.441387	0.623991	0.426357
C122	C	0.454669	0.591168	0.516185
C123	C	0.559145	0.504462	0.113247
C124	C	0.612393	0.431071	0.096809
C125	C	0.459510	0.407789	0.377892
C126	C	0.478943	0.301588	0.451271
C127	C	0.598281	0.407749	0.377921
C128	C	0.664812	0.301535	0.451310
C129	C	0.206221	1.033661	-0.054555
C130	C	0.139690	1.139875	-0.127945
C131	C	0.245357	0.936947	0.210118
C132	C	0.192109	1.010338	0.226557
C133	C	0.344992	1.033620	-0.054526
C134	C	0.325558	1.139821	-0.127906
C135	C	0.602658	0.415503	0.037392
C136	C	0.652682	0.346561	0.021928
C137	C	0.712443	0.293182	0.065888
C138	C	0.722177	0.308758	0.125308
C139	C	0.672151	0.377705	0.140766
C140	C	0.522810	0.232819	0.537428
C141	C	0.541068	0.133039	0.606386
C142	C	0.515462	0.102025	0.589184
C143	C	0.471589	0.170805	0.503019
C144	C	0.453329	0.270588	0.434064
C145	C	0.715515	0.270533	0.434098
C146	C	0.778030	0.170745	0.503049
C147	C	0.789841	0.101957	0.589211
C148	C	0.739131	0.132967	0.606423
C149	C	0.676617	0.232757	0.537474
C150	C	0.088986	1.170885	-0.110730
C151	C	0.026469	1.270694	-0.179676
C152	C	0.014658	1.339486	-0.265838
C153	C	0.065369	1.308472	-0.283051
C154	C	0.127884	1.208669	-0.214104
C155	C	0.201842	1.025917	0.285967
C156	C	0.151812	1.094886	0.301411
C157	C	0.092051	1.148268	0.257450
C158	C	0.082318	1.132689	0.198033
C159	C	0.132346	1.063727	0.182584
C160	C	0.351177	1.170801	-0.110677
C161	C	0.332929	1.270576	-0.179618
C162	C	0.289060	1.339374	-0.265787
C163	C	0.263442	1.308386	-0.283016
C164	C	0.281693	1.208608	-0.214076
H165	H	0.391767	0.390455	0.189100
H166	H	-0.483651	0.908132	0.102272
Br167	Br	0.424883	0.042461	0.102032
Br168	Br	0.436844	0.128698	0.479688
H169	H	0.462370	0.458967	0.001583
Br170	Br	0.521559	0.487937	-0.022282
Br171	Br	0.755170	0.039599	0.723363
Br172	Br	0.367702	1.312611	-0.156216
Br173	Br	0.264296	1.474786	-0.359339
Br174	Br	0.699504	0.363874	0.317172
Br175	Br	0.540251	-0.033400	0.682778
Br176	Br	0.224048	1.161020	-0.453914
Br177	Br	0.607810	0.274812	0.560849
H178	H	0.554358	0.344857	-0.263413
H179	H	0.250499	0.982454	0.321774
H180	H	0.159750	1.107556	0.349796
Br181	Br	0.024162	1.241856	0.278426
H182	H	0.046205	0.429884	0.253901
H183	H	0.227721	1.364416	-0.353183
H184	H	0.372166	0.327132	0.241249
H185	H	0.417611	0.326571	0.363912
H186	H	0.033654	1.176162	0.162243
Br187	Br	0.104997	1.077541	0.006196
Br188	Br	0.474468	0.202703	-0.029933
H189	H	0.840747	0.020704	0.645346
H190	H	0.531693	0.400843	-0.416545
Br191	Br	0.333157	-0.046543	0.345651
Br192	Br	0.319363	0.116228	0.381918
H193	H	-0.014813	1.295927	-0.165644
Br194	Br	0.846840	0.128682	0.479669
Br195	Br	-0.321200	0.477078	0.238950
H196	H	0.260826	1.183397	-0.228116
Br197	Br	0.119127	1.042589	0.101956
H198	H	-0.006265	0.429874	0.253910
H199	H	0.770840	0.265287	0.161095
H200	H	-0.036248	1.420748	-0.321970
Br201	Br	0.410715	1.077453	0.006260
Br202	Br	0.049329	1.401843	-0.399990
H203	H	0.753171	0.237043	0.053294
Br204	Br	0.330035	0.238701	0.353306
Br205	Br	0.485136	0.325190	-0.058553
Br206	Br	0.685376	0.398816	0.221413
H207	H	0.543666	0.258056	0.551452
Br208	Br	0.322870	0.477181	0.238861
Br209	Br	0.196692	1.166594	-0.237484
Br210	Br	-0.223918	1.067604	0.051735
H211	H	0.432327	0.114298	0.082104
H212	H	0.576793	0.077048	0.676540
Br213	Br	0.218603	0.477141	0.238902
H214	H	-0.251618	0.533176	0.221161
Br215	Br	0.161175	0.373797	0.271673
H216	H	-0.403392	0.908144	0.102275
H217	H	0.056119	0.908222	0.102209
Br218	Br	0.125704	0.964317	0.084437
Br219	Br	-0.119637	1.067607	0.051730
H220	H	-0.086539	0.429875	0.253914
H221	H	-0.241678	1.011485	0.069508
Br222	Br	0.450656	0.601162	-0.100527
Br223	Br	-0.356651	1.067573	0.051736
H224	H	0.531271	0.401910	-0.169565
Br225	Br	0.353862	0.840248	-0.576106
Br226	Br	0.247140	1.103962	-0.547765
H227	H	0.337778	0.880004	-0.524203
Br228	Br	0.639458	0.325437	-0.058713
H229	H	0.466717	0.561409	-0.152428
Br230	Br	0.253499	1.088299	-0.254954
