data_functionalizedCrystal
_audit_creation_method	'MofGen! by Chris Wilmer'
_symmetry_space_group_name_H-M	'P1'
_symmetry_Int_Tables_number	1
_symmetry_cell_setting	triclinic
loop_
_symmetry_equiv_pos_as_xyz
  x,y,z
_cell_length_a	27.440280
_cell_length_b	16.704494
_cell_length_c	16.704479
_cell_angle_alpha	60.173839
_cell_angle_beta	89.995343
_cell_angle_gamma	56.625476
loop_
_atom_site_label
_atom_site_type_symbol
_atom_site_fract_x
_atom_site_fract_y
_atom_site_fract_z
Zr1	Zr	0.439859	0.885008	-0.063068
O2	O	0.352485	1.065379	-0.188396
O3	O	0.470058	0.714239	-0.030912
O4	O	0.459082	0.898839	-0.197437
O5	O	0.368235	0.866522	0.116612
O6	O	0.539284	0.898826	-0.197443
O7	O	0.363461	0.880780	-0.021871
O8	O	0.558919	0.568611	0.100439
O9	O	0.348601	1.196737	-0.181269
O10	O	0.538667	0.780914	-0.009634
O11	O	0.482376	0.770283	0.093719
O12	O	0.469453	0.987625	-0.102342
O13	O	0.413162	0.976994	0.001011
Zr14	Zr	0.575387	0.862250	0.157789
Zr15	Zr	0.567772	0.884989	-0.063077
Zr16	Zr	0.447474	0.862269	0.157798
Zr17	Zr	0.433665	1.094509	-0.051702
Zr18	Zr	0.581581	0.652749	0.146423
O19	O	0.545188	1.033019	0.125633
O20	O	0.534361	1.065352	-0.188409
O21	O	0.363312	1.033047	0.125646
O22	O	0.662762	0.681879	0.283117
O23	O	0.651934	0.714211	-0.030925
O24	O	0.480886	0.681907	0.283130
O25	O	0.647011	0.880736	-0.021891
O26	O	0.556164	0.848419	0.292158
O27	O	0.475962	0.848432	0.292164
O28	O	0.651786	0.866479	0.116592
O29	O	0.450275	1.196722	-0.181277
O30	O	0.564971	0.550536	0.275998
O31	O	0.666645	0.550521	0.275991
O32	O	0.660593	0.568595	0.100432
O33	O	0.354654	1.178663	-0.005711
O34	O	0.456328	1.178647	-0.005718
O35	O	0.545793	0.759633	0.197063
O36	O	0.602084	0.770264	0.093710
O37	O	0.532870	0.976976	0.001002
O38	O	0.476579	0.966344	0.104355
C39	C	0.515371	0.611575	0.033144
C40	C	0.518000	0.522637	0.028319
C41	C	0.464157	0.344430	0.127145
C42	C	0.466624	0.260866	0.122613
C43	C	0.525400	0.271949	0.014717
C44	C	0.522932	0.355513	0.019249
C45	C	0.492310	0.391749	0.075467
C46	C	0.489846	0.475309	0.080004
C47	C	0.548618	0.486397	-0.027897
C48	C	0.551086	0.402833	-0.032429
C49	C	0.347623	0.873654	0.047372
C50	C	0.293321	0.873662	0.047376
C51	C	-0.046006	0.881459	-0.028934
C52	C	-0.097024	0.881451	-0.028935
O53	O	-0.125634	0.888086	-0.093799
N54	N	-0.119911	0.873598	0.047356
C55	C	-0.091774	0.865741	0.123658
O56	O	-0.115926	0.859060	0.188549
C57	C	-0.040755	0.865741	0.123662
C58	C	-0.017874	0.873606	0.047360
C59	C	-0.023125	0.889322	-0.105228
C60	C	0.027889	0.889332	-0.105228
C61	C	0.056021	0.881479	-0.028933
C62	C	0.033139	0.873616	0.047361
C63	C	-0.012616	0.857875	0.199967
C64	C	0.038407	0.857875	0.199964
C65	C	0.061288	0.865740	0.123663
C66	C	0.112285	0.865773	0.123656
N67	N	0.135172	0.873626	0.047365
C68	C	0.107040	0.881479	-0.028930
C69	C	-0.198918	0.865741	0.123644
C70	C	-0.249940	0.865750	0.123638
C71	C	-0.255185	0.881457	-0.028954
C72	C	-0.204166	0.881456	-0.028951
C73	C	-0.176031	0.873593	0.047354
C74	C	0.214172	0.881500	-0.028924
C75	C	0.265189	0.881515	-0.028919
C76	C	0.270431	0.865801	0.123676
C77	C	0.219417	0.865793	0.123668
C78	C	0.191290	0.873639	0.047364
O79	O	0.140928	0.859136	0.188489
O80	O	0.131204	0.888143	-0.093803
C81	C	0.667623	0.873605	0.047349
C82	C	0.721926	0.873596	0.047345
C83	C	0.498098	0.902072	-0.228908
C84	C	0.494865	0.911726	-0.322671
C85	C	0.499875	1.135683	0.061577
C86	C	0.497246	1.224621	0.066402
C87	C	0.454184	1.033223	-0.503216
C88	C	0.457218	1.024161	-0.415120
C89	C	0.529480	0.808346	-0.318320
C90	C	0.526445	0.817408	-0.406416
C91	C	0.488797	0.929851	-0.498862
C92	C	0.485767	0.938912	-0.586958
C93	C	0.558025	0.723099	-0.490158
C94	C	0.561059	0.714036	-0.402062
C95	C	0.517148	0.845186	0.323629
C96	C	0.520381	0.835532	0.417393
C97	C	0.675371	0.611551	0.033133
C98	C	0.732303	0.522604	0.028304
C99	C	0.524896	0.583132	0.309413
C100	C	0.530758	0.484540	0.398351
C101	C	0.684896	0.583108	0.309402
C102	C	0.745061	0.484507	0.398336
C103	C	0.330350	1.164150	-0.214680
C104	C	0.270186	1.262751	-0.303615
C105	C	0.339876	1.135707	0.061588
C106	C	0.282943	1.224654	0.066417
C107	C	0.490350	1.164126	-0.214692
C108	C	0.484488	1.262718	-0.303630
C109	C	0.725935	0.486394	-0.027918
C110	C	0.779423	0.402832	-0.032475
C111	C	0.839278	0.355476	0.019196
C112	C	0.845644	0.391695	0.075420
C113	C	0.792157	0.475261	0.079971
C114	C	0.566615	0.432681	0.494072
C115	C	0.572120	0.340054	0.577648
C116	C	0.541773	0.299283	0.565501
C117	C	0.505912	0.351152	0.469771
C118	C	0.500403	0.443782	0.386197
C119	C	0.802703	0.443753	0.386151
C120	C	0.859239	0.351120	0.469707
C121	C	0.858130	0.299237	0.565446
C122	C	0.800481	0.340000	0.577629
C123	C	0.743947	0.432637	0.494075
C124	C	0.212543	1.303515	-0.291430
C125	C	0.156007	1.396174	-0.374984
C126	C	0.157115	1.448061	-0.470722
C127	C	0.214764	1.407293	-0.482906
C128	C	0.271298	1.314641	-0.399352
C129	C	0.289310	1.260874	0.122630
C130	C	0.235821	1.344461	0.127164
C131	C	0.175966	1.391820	0.075490
C132	C	0.169600	1.355597	0.019271
C133	C	0.223088	1.272018	0.014731
C134	C	0.514843	1.303459	-0.291452
C135	C	0.509348	1.396085	-0.375011
C136	C	0.473492	1.447973	-0.470747
C137	C	0.443136	1.407224	-0.482924
C138	C	0.448636	1.314594	-0.399366
H139	H	0.443698	0.222344	0.164693
H140	H	0.904169	0.223807	0.633472
H141	H	0.799589	0.297744	0.655590
H142	H	0.803618	0.485983	0.308203
Br143	Br	0.211021	1.233114	-0.161509
Br144	Br	0.937467	0.295817	0.453149
Br145	Br	0.612147	0.561444	-0.276596
Br146	Br	0.580559	0.655759	-0.192850
H147	H	0.200782	0.859406	0.185792
H148	H	0.774227	0.373354	-0.078258
Br149	Br	0.605013	0.582799	-0.484249
H150	H	0.423533	1.124778	-0.578488
Br151	Br	-0.160744	0.855079	0.227205
H152	H	0.882826	0.287431	0.015483
H153	H	0.677202	0.524952	-0.070007
H154	H	0.481205	0.317942	0.459895
H155	H	0.894385	0.353126	0.117487
H156	H	0.469019	1.523398	-0.538777
H157	H	0.697015	0.465807	0.504009
H158	H	0.293343	0.859413	0.185792
Br159	Br	0.077778	1.451480	-0.358426
Br160	Br	0.080382	1.573804	-0.584108
H161	H	0.215658	1.449551	-0.560866
H162	H	0.546264	0.223856	0.633560
H163	H	0.550326	0.242444	-0.031061
Br164	Br	0.800810	0.524387	0.156284
Br165	Br	0.088363	1.419878	-0.050850
H166	H	0.241017	1.373939	0.172948
H167	H	0.413943	1.449486	-0.560883
H168	H	0.576015	0.373323	-0.078203
H169	H	-0.268572	0.859364	0.185760
H170	H	0.464912	0.504811	0.125778
H171	H	0.191277	0.887887	-0.091057
Br172	Br	0.407429	1.259323	-0.415912
Br173	Br	0.586839	0.550602	-0.098020
Br174	Br	0.607810	0.487986	0.510584
Br175	Br	0.349525	1.259325	-0.415908
Br176	Br	0.620792	0.269678	0.707554
Br177	Br	0.434677	1.091510	-0.712420
H178	H	0.471207	0.485996	0.308260
H179	H	0.046517	0.895731	-0.167357
Br180	Br	0.563508	1.233059	-0.161534
H181	H	0.534067	1.429252	-0.365076
Br182	Br	0.370536	1.196623	0.192765
Br183	Br	0.296236	0.892196	-0.132480
Br184	Br	0.422608	0.393598	0.203450
H185	H	0.217896	1.242530	-0.031041
Br186	Br	-0.061295	0.899978	-0.208783
Br187	Br	-0.293375	0.892114	-0.132497
Br188	Br	-0.173119	0.892131	-0.132505
Br189	Br	-0.043657	0.847200	0.303523
Br190	Br	0.103380	1.505249	0.081661
H191	H	0.061314	0.851468	0.262103
Br192	Br	0.410237	1.164457	-0.421032
