data_functionalizedCrystal
_audit_creation_method	'MofGen! by Chris Wilmer'
_symmetry_space_group_name_H-M	'P1'
_symmetry_Int_Tables_number	1
_symmetry_cell_setting	triclinic
loop_
_symmetry_equiv_pos_as_xyz
  x,y,z
_cell_length_a	13.032831
_cell_length_b	13.031981
_cell_length_c	13.032268
_cell_angle_alpha	89.068348
_cell_angle_beta	90.886977
_cell_angle_gamma	89.102241
loop_
_atom_site_label
_atom_site_type_symbol
_atom_site_fract_x
_atom_site_fract_y
_atom_site_fract_z
Zn1	Zn	1.423902	-0.684142	-0.684409
Zn2	Zn	1.757235	-0.350809	-0.351076
Zn3	Zn	2.090568	-0.017476	-0.017743
Zn4	Zn	1.429191	-0.835076	-0.491156
Zn5	Zn	1.762524	-0.501743	-0.157823
Zn6	Zn	2.095858	-0.168409	0.175511
Zn7	Zn	1.278373	-0.641823	-0.496615
Zn8	Zn	1.611707	-0.308490	-0.163281
Zn9	Zn	1.945040	0.024843	0.170052
Zn10	Zn	1.236036	-0.829599	-0.642053
Zn11	Zn	1.569370	-0.496265	-0.308720
Zn12	Zn	1.902703	-0.162932	0.024613
O13	O	1.341876	-0.747660	-0.578558
O14	O	1.675209	-0.414327	-0.245225
O15	O	2.008542	-0.080993	0.088108
O16	O	1.566344	-0.724167	-0.674215
O17	O	1.899677	-0.390834	-0.340882
O18	O	2.233010	-0.057500	-0.007549
O19	O	1.429117	-0.794022	-0.350137
O20	O	1.762450	-0.460689	-0.016803
O21	O	2.095783	-0.127356	0.316530
O22	O	1.313183	-0.505686	-0.541537
O23	O	1.646516	-0.172353	-0.208203
O24	O	1.979849	0.160980	0.125130
O25	O	1.570230	-0.835057	-0.532233
O26	O	1.903563	-0.501724	-0.198900
O27	O	2.236896	-0.168391	0.134434
O28	O	1.420102	-0.536778	-0.679509
O29	O	1.753435	-0.203444	-0.346175
O30	O	2.086768	0.129889	-0.012842
O31	O	1.318311	-0.652040	-0.354147
O32	O	1.651645	-0.318707	-0.020814
O33	O	1.984978	0.014626	0.312520
O34	O	1.131017	-0.646729	-0.500466
O35	O	1.464350	-0.313396	-0.167133
O36	O	1.797684	0.019937	0.166201
O37	O	1.241025	-0.825722	-0.789415
O38	O	1.574359	-0.492389	-0.456082
O39	O	1.907692	-0.159055	-0.122749
O40	O	1.099912	-0.784687	-0.607319
O41	O	1.433246	-0.451354	-0.273986
O42	O	1.766579	-0.118020	0.059348
O43	O	1.379049	-0.718856	-0.820534
O44	O	1.712383	-0.385523	-0.487201
O45	O	2.045716	-0.052189	-0.153868
O46	O	1.388064	-0.976100	-0.491162
O47	O	1.721397	-0.642767	-0.157829
O48	O	2.054731	-0.309434	0.175504
O49	O	1.246154	-0.972076	-0.602026
O50	O	1.579487	-0.638743	-0.268692
O51	O	1.912821	-0.305410	0.064641
C52	C	1.078713	-0.710522	-0.549889
C53	C	1.412046	-0.377189	-0.216556
C54	C	1.745380	-0.043856	0.116778
C55	C	0.966125	-0.694662	-0.537645
C56	C	1.299458	-0.361328	-0.204311
C57	C	1.632791	-0.027995	0.129022
C58	C	0.900569	-0.755938	-0.584949
C59	C	1.233902	-0.422605	-0.251615
C60	C	1.567236	-0.089271	0.081718
C61	C	0.784203	-0.739547	-0.572295
C62	C	1.117536	-0.406213	-0.238961
C63	C	1.450869	-0.072880	0.094372
C64	C	1.313113	-1.010849	-0.541431
C65	C	1.646446	-0.677516	-0.208097
C66	C	1.979780	-0.344182	0.125236
C67	C	1.300896	-1.123459	-0.525591
C68	C	1.634230	-0.790126	-0.192258
C69	C	1.967563	-0.456792	0.141076
C70	C	1.348303	-1.188965	-0.586851
C71	C	1.681636	-0.855632	-0.253518
C72	C	2.014969	-0.522298	0.079815
C73	C	1.335677	-1.305354	-0.570482
C74	C	1.669010	-0.972021	-0.237148
C75	C	2.002344	-0.638687	0.096185
C76	C	1.606066	-0.784944	-0.607340
C77	C	1.939399	-0.451610	-0.274007
C78	C	2.272732	-0.118277	0.059327
C79	C	1.718648	-0.800832	-0.619605
C80	C	2.051981	-0.467498	-0.286272
C81	C	2.385315	-0.134165	0.047062
C82	C	1.304725	-0.776399	-0.842755
C83	C	1.638058	-0.443065	-0.509422
C84	C	1.971391	-0.109732	-0.176088
C85	C	1.288893	-0.788645	-0.955340
C86	C	1.622226	-0.455312	-0.622007
C87	C	1.955560	-0.121979	-0.288673
C88	C	1.370775	-0.483450	-0.615856
C89	C	1.704108	-0.150117	-0.282523
C90	C	2.037442	0.183217	0.050810
C91	C	1.383090	-0.370859	-0.631750
C92	C	1.716423	-0.037526	-0.298417
C93	C	2.049757	0.295807	0.034916
C94	C	1.350126	-0.741230	-1.020931
C95	C	1.683460	-0.407897	-0.687597
C96	C	2.016793	-0.074563	-0.354264
C97	C	1.333765	-0.753886	-1.137293
C98	C	1.667099	-0.420553	-0.803960
C99	C	2.000432	-0.087220	-0.470627
C100	C	1.378948	-0.718969	-0.315406
C101	C	1.712282	-0.385635	0.017927
C102	C	2.045615	-0.052302	0.351261
C103	C	1.395007	-0.706464	-0.202883
C104	C	1.728340	-0.373131	0.130450
C105	C	2.061674	-0.039798	0.463783
H106	H	0.936100	-0.630062	-0.487783
H107	H	1.269433	-0.296729	-0.154450
H108	H	1.602767	0.036604	0.178884
F109	F	1.204532	-0.853947	-0.994536
F110	F	1.537865	-0.520614	-0.661202
F111	F	1.871199	-0.187281	-0.327869
H112	H	0.748666	-0.865427	-0.669482
H113	H	1.081999	-0.532094	-0.336149
H114	H	1.415332	-0.198760	-0.002816
H115	H	1.250958	-1.153542	-0.461030
H116	H	1.584291	-0.820209	-0.127696
H117	H	1.917624	-0.486876	0.205637
H118	H	1.285735	-1.335432	-0.505916
H119	H	1.619068	-1.002099	-0.172583
H120	H	1.952401	-0.668766	0.160751
H121	H	1.459544	-0.656490	-1.172898
H122	H	1.792877	-0.323157	-0.839565
H123	H	2.126210	0.010176	-0.506231
H124	H	1.414660	-0.691262	-0.990939
H125	H	1.747993	-0.357929	-0.657605
H126	H	2.081327	-0.024595	-0.324272
F127	F	0.939807	-0.840374	-0.650126
F128	F	1.273141	-0.507041	-0.316793
F129	F	1.606474	-0.173708	0.016541
F130	F	1.249400	-0.819192	-1.176484
F131	F	1.582733	-0.485859	-0.843151
F132	F	1.916066	-0.152525	-0.509818
H133	H	0.754183	-0.674943	-0.522429
H134	H	1.087516	-0.341610	-0.189096
H135	H	1.420850	-0.008276	0.144237
H136	H	1.398232	-1.158884	-0.651421
H137	H	1.731565	-0.825551	-0.318088
H138	H	2.064899	-0.492217	0.015246
H139	H	1.433023	-1.340782	-0.696324
H140	H	1.766356	-1.007448	-0.362991
H141	H	2.099689	-0.674115	-0.029658
