data_functionalizedCrystal
_audit_creation_method	'MofGen! by Chris Wilmer'
_symmetry_space_group_name_H-M	'P1'
_symmetry_Int_Tables_number	1
_symmetry_cell_setting	triclinic
loop_
_symmetry_equiv_pos_as_xyz
  x,y,z
_cell_length_a	10.967954
_cell_length_b	10.967862
_cell_length_c	13.596369
_cell_angle_alpha	102.136236
_cell_angle_beta	102.126704
_cell_angle_gamma	82.168187
loop_
_atom_site_label
_atom_site_type_symbol
_atom_site_fract_x
_atom_site_fract_y
_atom_site_fract_z
O1	O	-0.175039	-1.657240	-0.392374
O2	O	-0.191787	-1.294079	-0.333654
O3	O	-0.001841	-1.484030	-0.333658
O4	O	-0.364986	-1.467289	-0.392371
O5	O	-0.001851	-1.484007	-0.170073
O6	O	-0.191798	-1.294056	-0.170069
O7	O	-0.175050	-1.657217	-0.228789
Zn8	Zn	-0.183425	-1.475632	-0.173457
Zn9	Zn	-0.183412	-1.475663	-0.388987
O10	O	-0.364996	-1.467266	-0.228786
C11	C	-0.190573	-1.247567	-0.243773
C12	C	-0.186923	-1.109009	-0.219668
C13	C	0.044653	-1.482798	-0.243779
C14	C	0.183204	-1.479145	-0.219683
C15	C	-0.181531	-0.904046	-0.268770
C16	C	-0.185294	-1.047254	-0.293677
C17	C	0.388180	-1.473760	-0.268777
C18	C	0.244979	-1.477531	-0.293688
C19	C	0.588510	-1.468497	-0.318667
C20	C	0.449958	-1.472145	-0.342772
N21	N	-0.183434	-1.475620	-0.026364
C22	C	-0.176262	-0.703730	-0.318669
C23	C	-0.179903	-0.842289	-0.342769
N24	N	-0.183393	-1.475685	-0.536079
C25	C	-0.183437	-1.475627	0.062632
C26	C	-0.183428	-1.475639	0.174283
C27	C	-0.183414	-1.475655	0.263273
C28	C	-0.183407	-1.475669	0.374930
H29	H	-0.180146	-0.850898	-0.186980
O30	O	0.246363	-1.477415	-0.122033
C31	C	0.232900	-1.477824	0.052525
C32	C	0.161215	-1.479758	-0.058011
H33	H	0.164092	-1.479745	0.104314
H34	H	0.283148	-1.389016	0.080563
H35	H	0.304556	-1.563378	0.054511
H36	H	0.089499	-1.394265	-0.060083
H37	H	0.111053	-1.568622	-0.086002
H38	H	0.191858	-1.478930	-0.375484
O39	O	-0.187126	-1.110760	-0.391248
C40	C	-0.298948	-1.244670	-0.536274
C41	C	-0.297016	-1.172832	-0.425772
H42	H	-0.387798	-1.294852	-0.564228
H43	H	-0.213434	-1.316373	-0.538342
H44	H	-0.297074	-1.175884	-0.588086
H45	H	-0.298932	-1.241523	-0.373895
H46	H	-0.382522	-1.101111	-0.423786
O47	O	-0.185097	-1.045785	-0.122017
C48	C	-0.076087	-1.018839	0.053391
C49	C	-0.078017	-1.090552	-0.057147
H50	H	0.010492	-1.054987	0.105866
H51	H	-0.163878	-1.033729	0.080056
H52	H	-0.073409	-0.914634	0.056066
H53	H	-0.080652	-1.194779	-0.059908
H54	H	0.009769	-1.075558	-0.083765
O55	O	0.451465	-1.471860	-0.171148
C56	C	0.478282	-1.362903	0.004285
C57	C	0.406538	-1.364884	-0.106239
H58	H	0.441968	-1.276436	0.056799
H59	H	0.582488	-1.360080	0.007060
H60	H	0.463445	-1.450792	0.030829
H61	H	0.421272	-1.277013	-0.132853
H62	H	0.302358	-1.367772	-0.108951
H63	H	-0.181302	-0.895436	-0.424561
H64	H	0.396832	-1.473545	-0.424563
