data_functionalizedCrystal
_audit_creation_method	'MofGen! by Chris Wilmer'
_symmetry_space_group_name_H-M	'P1'
_symmetry_Int_Tables_number	1
_symmetry_cell_setting	triclinic
loop_
_symmetry_equiv_pos_as_xyz
  x,y,z
_cell_length_a	16.120566
_cell_length_b	17.077402
_cell_length_c	17.077396
_cell_angle_alpha	90.029784
_cell_angle_beta	92.919707
_cell_angle_gamma	87.118933
loop_
_atom_site_label
_atom_site_type_symbol
_atom_site_fract_x
_atom_site_fract_y
_atom_site_fract_z
Zn1	Zn	-1.274550	0.373429	-0.504679
Zn2	Zn	-0.774550	0.873429	-0.004679
Zn3	Zn	-1.274451	0.504699	-0.373405
Zn4	Zn	-0.774451	1.004699	0.126595
Zn5	Zn	-1.135133	0.366792	-0.366772
Zn6	Zn	-0.635133	0.866792	0.133228
Zn7	Zn	-1.135099	0.497991	-0.497977
Zn8	Zn	-0.635099	0.997991	0.002023
O9	O	-1.204808	0.435728	-0.435708
O10	O	-0.704808	0.935728	0.064292
O11	O	-1.391202	0.396427	-0.492847
O12	O	-0.891202	0.896427	0.007153
O13	O	-1.255943	0.486435	-0.262677
O14	O	-0.755943	0.986435	0.237323
O15	O	-1.153682	0.257828	-0.385094
O16	O	-0.653682	0.757828	0.114906
O17	O	-1.391130	0.492871	-0.396400
O18	O	-0.891130	0.992871	0.103600
O19	O	-1.256111	0.262704	-0.486414
O20	O	-0.756111	0.762704	0.013586
O21	O	-1.153587	0.385116	-0.257803
O22	O	-0.653587	0.885116	0.242197
O23	O	-1.018463	0.378611	-0.378595
O24	O	-0.518463	0.878611	0.121405
O25	O	-1.153624	0.481438	-0.608714
O26	O	-0.653624	0.981438	-0.108714
O27	O	-1.018438	0.475003	-0.474991
O28	O	-0.518438	0.975003	0.025009
O29	O	-1.256078	0.389923	-0.613638
O30	O	-0.756078	0.889923	-0.113638
O31	O	-1.255910	0.613654	-0.389901
O32	O	-0.755910	1.113654	0.110099
O33	O	-1.153529	0.608725	-0.481423
O34	O	-0.653529	1.108725	0.018577
C35	C	-0.988200	0.425359	-0.425346
C36	C	-0.488200	0.925359	0.074654
C37	C	-0.895534	0.420943	-0.420932
C38	C	-0.395534	0.920943	0.079068
C39	C	-0.725872	0.412861	-0.412879
C40	C	-0.225872	0.912861	0.087121
C41	C	-0.684584	0.458663	-0.458543
C42	C	-0.184584	0.958663	0.041457
C43	C	-0.590179	0.454166	-0.454063
C44	C	-0.090179	0.954166	0.045937
C45	C	-0.820286	0.417356	-0.417359
C46	C	-0.320286	0.917356	0.082641
C47	C	-1.204728	0.639672	-0.435673
C48	C	-0.704728	1.139672	0.064327
C49	C	-1.204770	0.726924	-0.435688
C50	C	-0.704770	1.226924	0.064312
C51	C	-1.204859	0.435672	-0.640455
C52	C	-0.704859	0.935672	-0.140455
C53	C	-1.204880	0.435649	-0.727706
C54	C	-0.704880	0.935649	-0.227706
C55	C	-0.422262	0.446140	-0.446098
C56	C	0.077738	0.946140	0.053902
C57	C	-0.514928	0.450583	-0.450493
C58	C	-0.014928	0.950583	0.049507
C59	C	-1.204912	0.230989	-0.435762
C60	C	-0.704912	0.730989	0.064238
C61	C	-1.204956	0.143741	-0.435785
C62	C	-0.704956	0.643741	0.064215
C63	C	-1.258134	0.770457	-0.388089
C64	C	-0.758134	1.270457	0.111911
C65	C	-1.258175	0.852439	-0.388111
C66	C	-0.758175	1.352439	0.111889
C67	C	-1.204846	0.890887	-0.435728
C68	C	-0.704846	1.390887	0.064272
C69	C	-1.151479	0.847348	-0.483333
C70	C	-0.651479	1.347348	0.016667
C71	C	-1.151443	0.765367	-0.483314
C72	C	-0.651443	1.265367	0.016686
C73	C	-1.151557	1.018222	-0.483366
C74	C	-0.651557	1.518222	0.016634
C75	C	-1.151591	1.100208	-0.483384
C76	C	-0.651591	1.600208	0.016616
C77	C	-1.258288	1.105293	-0.388163
C78	C	-0.758288	1.605293	0.111837
C79	C	-1.258252	1.023313	-0.388144
C80	C	-0.758252	1.523313	0.111856
C81	C	-1.204884	0.979780	-0.435748
C82	C	-0.704884	1.479780	0.064252
C83	C	-1.258230	0.387993	-0.771261
C84	C	-0.758230	0.887993	-0.271261
C85	C	-1.258240	0.387967	-0.853242
C86	C	-0.758240	0.887967	-0.353242
C87	C	-1.204904	0.435602	-0.891666
C88	C	-0.704904	0.935602	-0.391666
C89	C	-1.151548	0.483260	-0.848105
C90	C	-0.651548	0.983260	-0.348105
C91	C	-1.151535	0.483281	-0.766125
C92	C	-0.651535	0.983281	-0.266125
C93	C	-1.151582	0.483215	-1.018977
C94	C	-0.651582	0.983215	-0.518977
C95	C	-1.151596	0.483195	-1.100962
C96	C	-0.651596	0.983195	-0.600962
C97	C	-1.258287	0.387901	-1.106094
C98	C	-0.758287	0.887901	-0.606094
C99	C	-1.258273	0.387921	-1.024114
C100	C	-0.758273	0.887921	-0.524114
C101	C	-1.204919	0.435581	-0.980558
C102	C	-0.704919	0.935581	-0.480558
C103	C	-1.204806	0.435729	-0.231760
C104	C	-0.704806	0.935729	0.268240
C105	C	-1.204946	0.435539	-0.144518
C106	C	-0.704946	0.935539	0.355482
H107	H	-1.301557	0.739158	-0.349310
H108	H	-0.801557	1.239158	0.150690
H109	H	-1.301665	0.349205	-0.739983
H110	H	-0.801665	0.849205	-0.239983
H111	H	-0.690321	0.370275	-0.370423
H112	H	-0.190321	0.870275	0.129577
H113	H	-0.720138	0.501252	-0.501003
H114	H	-0.220138	1.001252	-0.001003
H115	H	-1.301629	0.887880	-0.349350
H116	H	-0.801629	1.387880	0.150650
H117	H	-1.108163	0.521982	-1.132244
H118	H	-0.608163	1.021982	-0.632244
H119	H	-1.301672	0.992009	-0.349367
H120	H	-0.801672	1.492009	0.150633
H121	H	-1.301745	1.140742	-0.349405
H122	H	-0.801745	1.640742	0.150595
H123	H	-1.108182	1.131511	-0.522173
H124	H	-0.608182	1.631511	-0.022173
H125	H	-1.108101	0.982780	-0.522133
H126	H	-0.608101	1.482780	-0.022133
H127	H	-1.108062	0.878659	-0.522107
H128	H	-0.608062	1.378659	-0.022107
H129	H	-1.107990	0.729924	-0.522075
H130	H	-0.607990	1.229924	-0.022075
H131	H	-1.301684	0.349163	-0.888702
H132	H	-0.801684	0.849163	-0.388702
H133	H	-1.301709	0.349137	-0.992832
H134	H	-0.801709	0.849137	-0.492832
H135	H	-1.108083	0.522080	-0.730663
H136	H	-0.608083	1.022080	-0.230663
H137	H	-1.108122	0.522011	-0.983515
H138	H	-0.608122	1.022011	-0.483515
H139	H	-1.108118	0.522043	-0.879396
H140	H	-0.608118	1.022043	-0.379396
H141	H	-1.301729	0.349093	-1.141561
H142	H	-0.801729	0.849093	-0.641561
