data_functionalizedCrystal
_audit_creation_method	'MofGen! by Chris Wilmer'
_symmetry_space_group_name_H-M	'P1'
_symmetry_Int_Tables_number	1
_symmetry_cell_setting	triclinic
loop_
_symmetry_equiv_pos_as_xyz
  x,y,z
_cell_length_a	13.339070
_cell_length_b	15.944551
_cell_length_c	11.804365
_cell_angle_alpha	101.830656
_cell_angle_beta	74.875130
_cell_angle_gamma	99.564016
loop_
_atom_site_label
_atom_site_type_symbol
_atom_site_fract_x
_atom_site_fract_y
_atom_site_fract_z
O1	O	1.362759	0.408901	-0.099080
O2	O	1.068226	0.353629	-0.099072
O3	O	1.223533	0.260866	-0.099066
O4	O	1.207452	0.501664	-0.099087
O5	O	1.182647	0.285253	0.098989
O6	O	1.027340	0.378016	0.098982
O7	O	1.321872	0.433288	0.098974
Cu8	Cu	1.170873	0.407879	0.117062
Cu9	Cu	1.219226	0.379038	-0.117160
O10	O	1.166565	0.526051	0.098968
C11	C	1.010093	0.356486	-0.000044
C12	C	0.897788	0.328657	-0.000040
C13	C	0.533018	0.545045	-0.000078
C14	C	0.638534	0.571194	-0.000085
C15	C	0.703352	0.510562	-0.000073
C16	C	0.662645	0.423776	-0.000055
C17	C	0.557121	0.397622	-0.000058
C18	C	0.727455	0.363140	-0.000053
C19	C	0.686748	0.276354	-0.000035
C20	C	0.581234	0.250205	-0.000037
C21	C	0.516415	0.310837	-0.000048
C22	C	0.832980	0.389293	-0.000051
C23	C	0.857083	0.241871	-0.000031
C24	C	0.751567	0.215721	-0.000024
C25	C	1.202422	0.241610	-0.000038
C26	C	1.200420	0.147897	-0.000038
C27	C	1.099370	-0.090508	-0.000051
C28	C	1.126136	-0.128567	0.097600
C29	C	1.196800	-0.023674	-0.000047
C30	C	1.166470	-0.152588	-0.097666
C31	C	1.193297	-0.189405	-0.000060
C32	C	1.223576	-0.060489	0.097685
C33	C	1.263915	-0.084518	-0.097668
C34	C	1.290747	-0.122540	0.000007
C35	C	1.198815	0.071799	-0.000038
C36	C	1.191288	-0.284874	-0.000061
C37	C	1.380006	0.430430	-0.000057
C38	C	1.492312	0.458259	-0.000068
C39	C	1.187677	0.545307	-0.000062
C40	C	1.189681	0.639019	-0.000071
N41	N	1.136871	0.428165	0.281801
N42	N	1.253235	0.358748	-0.281899
C43	C	1.334885	0.310017	0.655758
C44	C	1.360606	0.294667	0.531097
C45	C	1.304674	0.328040	0.468767
C46	C	1.223018	0.376766	0.531110
C47	C	1.197300	0.392123	0.655783
C48	C	1.167089	0.410146	0.468792
C49	C	1.085432	0.458872	0.531135
C50	C	1.059718	0.474226	0.655795
C51	C	1.115650	0.440854	0.718126
C52	C	1.192807	0.394789	0.344119
C53	C	1.055221	0.476895	0.344144
C54	C	1.029500	0.492245	0.468805
H55	H	0.671672	0.641854	-0.000109
N56	N	0.998075	0.511001	0.280510
N57	N	0.996590	0.590679	0.294424
H58	H	0.956236	0.614768	0.249478
N59	N	1.136161	-0.202589	-0.201244
N60	N	1.196988	-0.250730	-0.274371
H61	H	1.175578	-0.286041	-0.347521
H62	H	1.247689	-0.020727	0.180333
N63	N	1.330954	0.312375	0.341430
N64	N	1.420587	0.337676	0.285766
H65	H	1.439148	0.326610	0.195829
H66	H	1.259292	0.355116	0.293371
H67	H	1.094705	0.453348	0.819635
H68	H	0.480236	0.594401	-0.000097
N69	N	0.709961	0.127078	-0.000000
N70	N	0.615746	0.103745	0.000004
H71	H	0.586359	0.041140	0.000022
H72	H	0.909859	0.192498	-0.000026
N73	N	0.408627	0.284139	-0.000041
N74	N	0.350771	0.338286	-0.000047
H75	H	0.274644	0.319434	-0.000045
N76	N	1.392277	-0.140460	0.000078
N77	N	1.433778	-0.104707	0.083995
H78	H	1.505482	-0.117363	0.084050
H79	H	0.548096	0.179536	-0.000035
N80	N	1.444114	0.245006	0.467438
N81	N	1.494112	0.215285	0.523099
H82	H	1.553132	0.180248	0.478140
N83	N	1.053066	-0.153078	0.201177
N84	N	1.001857	-0.098225	0.274679
H85	H	0.950245	-0.115535	0.347827
N86	N	0.997888	-0.072355	0.000077
N87	N	0.921639	-0.087643	0.083799
H88	H	0.849968	-0.074821	0.083894
H89	H	1.322133	-0.064960	-0.180231
H90	H	0.866112	0.459956	-0.000061
H91	H	1.380423	0.282855	0.706515
H92	H	0.993236	0.513910	0.706555
N93	N	0.946093	0.542011	0.532511
N94	N	0.923143	0.555710	0.643819
H95	H	0.864235	0.590857	0.688814
H96	H	0.789268	0.531858	-0.000082
