data_functionalizedCrystal
_audit_creation_method	'MofGen! by Chris Wilmer'
_symmetry_space_group_name_H-M	'P1'
_symmetry_Int_Tables_number	1
_symmetry_cell_setting	triclinic
loop_
_symmetry_equiv_pos_as_xyz
  x,y,z
_cell_length_a	21.395361
_cell_length_b	21.395362
_cell_length_c	21.395355
_cell_angle_alpha	89.956060
_cell_angle_beta	90.021511
_cell_angle_gamma	89.953415
loop_
_atom_site_label
_atom_site_type_symbol
_atom_site_fract_x
_atom_site_fract_y
_atom_site_fract_z
Zn1	Zn	-0.249246	-0.957859	0.354573
Zn2	Zn	0.250754	-0.457859	0.854573
Zn3	Zn	-0.354005	-0.957762	0.249790
Zn4	Zn	0.145995	-0.457762	0.749790
Zn5	Zn	-0.249275	-0.853074	0.249774
Zn6	Zn	0.250725	-0.353074	0.749774
Zn7	Zn	-0.354018	-0.853044	0.354494
Zn8	Zn	0.145982	-0.353044	0.854494
O9	O	-0.301636	-0.905435	0.302158
O10	O	0.198364	-0.405435	0.802158
O11	O	-0.263125	-1.045524	0.340712
O12	O	0.236875	-0.545524	0.840712
O13	O	-0.340119	-0.943847	0.162110
O14	O	0.159881	-0.443847	0.662110
O15	O	-0.161593	-0.867028	0.263702
O16	O	0.338407	-0.367028	0.763702
O17	O	-0.340091	-1.045453	0.263729
O18	O	0.159909	-0.545453	0.763729
O19	O	-0.161572	-0.944013	0.340697
O20	O	0.338428	-0.444013	0.840697
O21	O	-0.263174	-0.866934	0.162098
O22	O	0.236826	-0.366934	0.662098
O23	O	-0.263187	-0.765392	0.263626
O24	O	0.236813	-0.265392	0.763626
O25	O	-0.340113	-0.866976	0.442183
O26	O	0.159887	-0.366976	0.942183
O27	O	-0.340141	-0.765370	0.340564
O28	O	0.159859	-0.265370	0.840564
O29	O	-0.263137	-0.943983	0.442240
O30	O	0.236863	-0.443983	0.942240
O31	O	-0.441685	-0.943817	0.263653
O32	O	0.058315	-0.443817	0.763653
O33	O	-0.441695	-0.866881	0.340579
O34	O	0.058305	-0.366881	0.840579
C35	C	-0.301669	-0.742647	0.302085
C36	C	0.198331	-0.242647	0.802085
C37	C	-0.301698	-0.673006	0.302069
C38	C	0.198302	-0.173006	0.802069
C39	C	-0.464424	-0.905352	0.302123
C40	C	0.035576	-0.405352	0.802123
C41	C	-0.534065	-0.905374	0.302129
C42	C	-0.034065	-0.405374	0.802129
C43	C	-0.301623	-0.905487	0.465581
C44	C	0.198377	-0.405487	0.965581
C45	C	-0.301618	-0.905509	0.535222
C46	C	0.198382	-0.405509	1.035222
C47	C	-0.566752	-0.945470	0.262114
C48	C	-0.066752	-0.445470	0.762114
C49	C	-0.632188	-0.945499	0.262128
C50	C	-0.132188	-0.445499	0.762128
C51	C	-0.664933	-0.905421	0.302150
C52	C	-0.164933	-0.405421	0.802150
C53	C	-0.632238	-0.865322	0.342172
C54	C	-0.132238	-0.365322	0.842172
C55	C	-0.566804	-0.865299	0.342162
C56	C	-0.066804	-0.365299	0.842162
C57	C	-0.768664	-0.849006	0.307041
C58	C	-0.268664	-0.349006	0.807041
C59	C	-0.834097	-0.849029	0.307047
C60	C	-0.334097	-0.349029	0.807047
C61	C	-0.866754	-0.905494	0.302187
C62	C	-0.366754	-0.405494	0.802187
C63	C	-0.833970	-0.961939	0.297307
C64	C	-0.333970	-0.461939	0.797307
C65	C	-0.768536	-0.961915	0.297296
C66	C	-0.268536	-0.461915	0.797296
C67	C	-0.735886	-0.905443	0.302167
C68	C	-0.235886	-0.405443	0.802167
C69	C	-0.970394	-0.945625	0.262186
C70	C	-0.470394	-0.445625	0.762186
C71	C	-1.035830	-0.945655	0.262204
C72	C	-0.535830	-0.445655	0.762204
C73	C	-1.035879	-0.865473	0.342245
C74	C	-0.535879	-0.365473	0.842245
C75	C	-0.970444	-0.865448	0.342230
C76	C	-0.470444	-0.365448	0.842230
C77	C	-0.937705	-0.905524	0.302197
C78	C	-0.437705	-0.405524	0.802197
C79	C	-0.138213	-0.905535	0.302206
C80	C	0.361787	-0.405535	0.802206
C81	C	-0.068571	-0.905578	0.302227
C82	C	0.431429	-0.405578	0.802227
C83	C	-0.301603	-1.068858	0.302231
C84	C	0.198397	-0.568858	0.802231
C85	C	-0.301589	-1.138499	0.302262
C86	C	0.198411	-0.638499	0.802262
C87	C	-0.341822	-0.640297	0.342070
C88	C	0.158178	-0.140297	0.842070
C89	C	-0.341806	-0.574862	0.342098
C90	C	0.158194	-0.074862	0.842098
C91	C	-0.301674	-0.542138	0.302113
C92	C	0.198326	-0.042138	0.802113
C93	C	-0.261543	-0.574854	0.262109
C94	C	0.238457	-0.074854	0.762109
C95	C	-0.261555	-0.640288	0.262087
C96	C	0.238445	-0.140288	0.762087
C97	C	-0.296627	-0.438413	0.245708
C98	C	0.203373	0.061587	0.745708
C99	C	-0.296619	-0.372980	0.245730
C100	C	0.203381	0.127020	0.745730
C101	C	-0.301633	-0.340317	0.302182
C102	C	0.198367	0.159683	0.802182
C103	C	-0.306668	-0.373095	0.358616
C104	C	0.193332	0.126905	0.858616
C105	C	-0.306681	-0.438529	0.358594
C106	C	0.193319	0.061471	0.858594
C107	C	-0.301656	-0.471185	0.302133
C108	C	0.198344	0.028815	0.802133
C109	C	-0.341742	-0.236656	0.342218
C110	C	0.158258	0.263344	0.842218
C111	C	-0.341723	-0.171219	0.342247
C112	C	0.158277	0.328781	0.842247
C113	C	-0.261462	-0.171213	0.262252
C114	C	0.238538	0.328787	0.762252
C115	C	-0.261479	-0.236648	0.262229
C116	C	0.238521	0.263352	0.762229
C117	C	-0.301622	-0.269366	0.302211
C118	C	0.198378	0.230634	0.802211
C119	C	-0.301603	-0.905419	0.139370
C120	C	0.198397	-0.405419	0.639370
C121	C	-0.301432	-0.905518	0.069729
C122	C	0.198568	-0.405518	0.569729
C123	C	-0.261535	-0.945605	0.567966
C124	C	0.238465	-0.445605	1.067966
C125	C	-0.261508	-0.945604	0.633402
C126	C	0.238492	-0.445604	1.133402
C127	C	-0.301575	-0.905514	0.666091
C128	C	0.198425	-0.405514	1.166091
C129	C	-0.341661	-0.865410	0.633339
C130	C	0.158339	-0.365410	1.133339
C131	C	-0.341682	-0.865407	0.567904
C132	C	0.158318	-0.365407	1.067904
C133	C	-0.357992	-0.900538	0.769752
C134	C	0.142008	-0.400538	1.269752
C135	C	-0.357972	-0.900545	0.835185
C136	C	0.142028	-0.400545	1.335185
C137	C	-0.301509	-0.905518	0.867911
C138	C	0.198491	-0.405518	1.367911
C139	C	-0.245065	-0.910497	0.835197
C140	C	0.254935	-0.410497	1.335197
C141	C	-0.245086	-0.910495	0.769763
C142	C	0.254914	-0.410495	1.269763
C143	C	-0.301556	-0.905512	0.737043
C144	C	0.198444	-0.405512	1.237043
C145	C	-0.261393	-0.945615	0.971608
C146	C	0.238607	-0.445615	1.471608
C147	C	-0.261365	-0.945610	1.037045
C148	C	0.238635	-0.445610	1.537045
C149	C	-0.341524	-0.865419	1.036980
C150	C	0.158476	-0.365419	1.536980
C151	C	-0.341547	-0.865421	0.971545
C152	C	0.158453	-0.365421	1.471545
C153	C	-0.301482	-0.905522	0.938863
C154	C	0.198518	-0.405522	1.438863
H155	H	-0.540098	-0.978103	0.229519
H156	H	-0.040098	-0.478103	0.729519
Cl157	Cl	-0.673289	-0.995909	0.211820
Cl158	Cl	-0.173289	-0.495909	0.711820
H159	H	-0.658904	-0.832691	0.374760
H160	H	-0.158904	-0.332691	0.874760
Cl161	Cl	-0.392078	-0.814997	0.526738
Cl162	Cl	0.107922	-0.314997	1.026738
H163	H	-0.403932	-0.896494	0.861815
H164	H	0.096068	-0.396494	1.361815
H165	H	-0.199128	-0.914547	0.743130
H166	H	0.300872	-0.414547	1.243130
H167	H	-0.292523	-0.346297	0.199778
H168	H	0.207477	0.153703	0.699778
H169	H	-0.741844	-1.007873	0.293325
H170	H	-0.241844	-0.507873	0.793325
H171	H	-0.860558	-1.007918	0.293349
H172	H	-0.360558	-0.507918	0.793349
H173	H	-1.062443	-0.978310	0.229621
H174	H	-0.562443	-0.478310	0.729621
Cl175	Cl	-0.727616	-0.778015	0.313152
Cl176	Cl	-0.227616	-0.278015	0.813152
H177	H	-0.374509	-0.666932	0.374627
H178	H	0.125491	-0.166932	0.874627
H179	H	-0.310751	-0.346502	0.404585
H180	H	0.189249	0.153498	0.904585
Cl181	Cl	-0.929349	-0.815036	0.392534
Cl182	Cl	-0.429349	-0.315036	0.892534
H183	H	-0.374282	-0.832766	0.659958
H184	H	0.125718	-0.332766	1.159958
Cl185	Cl	-0.525709	-0.814887	0.392469
Cl186	Cl	-0.025709	-0.314887	0.892469
H187	H	-0.374479	-0.548226	0.374674
H188	H	0.125521	-0.048226	0.874674
H189	H	-0.228866	-0.548206	0.229554
H190	H	0.271134	-0.048206	0.729554
H191	H	-0.860785	-0.803068	0.311015
H192	H	-0.360785	-0.303068	0.811015
Cl193	Cl	-0.313006	-0.479734	0.429535
Cl194	Cl	0.186994	0.020266	0.929535
Cl195	Cl	-0.290325	-0.479468	0.174732
Cl196	Cl	0.209675	0.020532	0.674732
H197	H	-0.374426	-0.263296	0.374776
H198	H	0.125574	0.236704	0.874776
Cl199	Cl	-0.174078	-0.916752	0.876332
Cl200	Cl	0.325922	-0.416752	1.376332
H201	H	-0.228880	-0.666919	0.229513
H202	H	0.271120	-0.166919	0.729513
Cl203	Cl	-1.077039	-0.815092	0.392563
Cl204	Cl	-0.577039	-0.315092	0.892563
H205	H	-0.228809	-0.263280	0.229652
H206	H	0.271191	0.236720	0.729652
H207	H	-0.374190	-0.832774	0.944885
H208	H	0.125810	-0.332774	1.444885
H209	H	-0.374395	-0.144589	0.374824
H210	H	0.125605	0.355411	0.874824
H211	H	-0.943737	-0.978259	0.229590
H212	H	-0.443737	-0.478259	0.729590
H213	H	-0.228783	-0.144569	0.229699
H214	H	0.271217	0.355431	0.729699
Cl215	Cl	-0.211164	-0.996015	0.526883
Cl216	Cl	0.288836	-0.496015	1.026883
H217	H	-0.228767	-0.978265	0.944997
H218	H	0.271233	-0.478265	1.444997
Cl219	Cl	-0.210980	-0.996031	1.078209
Cl220	Cl	0.289020	-0.496031	1.578209
H221	H	-0.228864	-0.978254	0.660067
H222	H	0.271136	-0.478254	1.160067
H223	H	-0.374141	-0.832770	1.063595
H224	H	0.125859	-0.332770	1.563595
H225	H	-0.403959	-0.896321	0.743111
H226	H	0.096041	-0.396321	1.243111
