data_functionalizedCrystal
_audit_creation_method	'MofGen! by Chris Wilmer'
_symmetry_space_group_name_H-M	'P1'
_symmetry_Int_Tables_number	1
_symmetry_cell_setting	triclinic
loop_
_symmetry_equiv_pos_as_xyz
  x,y,z
_cell_length_a	14.044220
_cell_length_b	11.026607
_cell_length_c	9.482900
_cell_angle_alpha	78.599815
_cell_angle_beta	79.851548
_cell_angle_gamma	79.112553
loop_
_atom_site_label
_atom_site_type_symbol
_atom_site_fract_x
_atom_site_fract_y
_atom_site_fract_z
O1	O	1.320314	-0.280341	-0.120884
O2	O	1.570314	-0.030341	0.129116
O3	O	1.820314	0.219659	0.379116
O4	O	2.070314	0.469659	0.629116
O5	O	1.042510	-0.269584	-0.120888
O6	O	1.292510	-0.019584	0.129112
O7	O	1.542510	0.230416	0.379112
O8	O	1.792510	0.480416	0.629112
O9	O	1.158387	-0.095818	-0.120881
O10	O	1.408387	0.154182	0.129119
O11	O	1.658387	0.404182	0.379119
O12	O	1.908387	0.654182	0.629119
O13	O	1.204437	-0.454107	-0.120891
O14	O	1.454437	-0.204107	0.129109
O15	O	1.704437	0.045893	0.379109
O16	O	1.954437	0.295893	0.629109
O17	O	1.134877	-0.131268	0.120910
O18	O	1.384877	0.118732	0.370910
O19	O	1.634877	0.368732	0.620910
O20	O	1.884877	0.618732	0.870910
O21	O	1.018999	-0.305035	0.120903
O22	O	1.268999	-0.055035	0.370903
O23	O	1.518999	0.194965	0.620903
O24	O	1.768999	0.444965	0.870903
O25	O	1.296803	-0.315791	0.120907
O26	O	1.546803	-0.065791	0.370907
O27	O	1.796803	0.184209	0.620907
O28	O	2.046803	0.434209	0.870907
Cu29	Cu	1.155754	-0.313650	0.142982
Cu30	Cu	1.405754	-0.063650	0.392982
Cu31	Cu	1.655754	0.186350	0.642982
Cu32	Cu	1.905754	0.436350	0.892982
Cu33	Cu	1.183559	-0.271725	-0.142964
Cu34	Cu	1.433559	-0.021725	0.107036
Cu35	Cu	1.683559	0.228275	0.357036
Cu36	Cu	1.933559	0.478275	0.607036
O37	O	1.180926	-0.489558	0.120900
O38	O	1.430926	-0.239558	0.370900
O39	O	1.680926	0.010442	0.620900
O40	O	1.930926	0.260442	0.870900
C41	C	0.994637	-0.282601	0.000007
C42	C	1.244637	-0.032601	0.250007
C43	C	1.494637	0.217399	0.500007
C44	C	1.744637	0.467399	0.750007
C45	C	0.887015	-0.268557	0.000005
C46	C	1.137015	-0.018557	0.250005
C47	C	1.387015	0.231443	0.500005
C48	C	1.637015	0.481443	0.750005
C49	C	1.344677	-0.302774	0.000009
C50	C	1.594677	-0.052774	0.250009
C51	C	1.844677	0.197226	0.500009
C52	C	2.094677	0.447226	0.750009
C53	C	1.452300	-0.316816	0.000001
C54	C	1.702300	-0.066816	0.250001
C55	C	1.952300	0.183184	0.500001
C56	C	2.202300	0.433184	0.750001
C57	C	1.138137	-0.067412	0.000012
C58	C	1.388137	0.182588	0.250012
C59	C	1.638137	0.432588	0.500012
C60	C	1.888137	0.682588	0.750012
C61	C	1.112813	0.070044	0.000007
C62	C	1.362813	0.320044	0.250007
C63	C	1.612813	0.570044	0.500007
C64	C	1.862813	0.820044	0.750007
C65	C	1.649342	-0.342492	0.000001
C66	C	1.899342	-0.092492	0.250001
C67	C	2.149342	0.157508	0.500001
C68	C	2.399342	0.407508	0.750001
C69	C	1.689979	-0.242888	0.000004
C70	C	1.939979	0.007112	0.250004
C71	C	2.189979	0.257112	0.500004
C72	C	2.439979	0.507112	0.750004
C73	C	1.799620	-0.257174	0.000005
C74	C	2.049620	-0.007174	0.250005
C75	C	2.299620	0.242826	0.500005
C76	C	2.549620	0.492826	0.750005
C77	C	1.539691	-0.328207	0.000001
C78	C	1.789691	-0.078207	0.250001
C79	C	2.039691	0.171793	0.500001
C80	C	2.289691	0.421793	0.750001
C81	C	1.201177	-0.517963	0.000003
C82	C	1.451177	-0.267963	0.250003
C83	C	1.701177	-0.017963	0.500003
C84	C	1.951177	0.232037	0.750003
C85	C	1.226501	-0.655417	-0.000001
C86	C	1.476501	-0.405417	0.249999
C87	C	1.726501	-0.155417	0.499999
C88	C	1.976501	0.094583	0.749999
N89	N	1.136205	-0.343137	0.344101
N90	N	1.386205	-0.093137	0.594101
N91	N	1.636205	0.156863	0.844101
N92	N	1.886205	0.406863	1.094101
C93	C	1.182738	0.136280	0.000006
C94	C	1.432738	0.386280	0.250006
C95	C	1.682738	0.636280	0.500006
C96	C	1.932738	0.886280	0.750006
C97	C	1.156566	0.278349	-0.000000
C98	C	1.406566	0.528349	0.250000
C99	C	1.656566	0.778349	0.500000
C100	C	1.906566	1.028349	0.750000
N101	N	1.203114	-0.242229	-0.344083
N102	N	1.453114	0.007771	-0.094083
N103	N	1.703114	0.257771	0.155917
N104	N	1.953114	0.507771	0.405917
C105	C	1.177785	-0.280416	0.416303
C106	C	1.427785	-0.030416	0.666303
C107	C	1.677785	0.219584	0.916303
C108	C	1.927785	0.469584	1.166303
C109	C	1.161528	-0.304960	0.583719
C110	C	1.411528	-0.054960	0.833719
C111	C	1.661528	0.195040	1.083719
C112	C	1.911528	0.445040	1.333719
H113	H	1.642437	-0.146869	-0.000098
H114	H	1.892437	0.103131	0.249902
H115	H	2.142437	0.353131	0.499902
H116	H	2.392437	0.603131	0.749902
H117	H	1.696892	-0.438486	-0.000003
H118	H	1.946892	-0.188486	0.249997
H119	H	2.196892	0.061514	0.499997
H120	H	2.446892	0.311514	0.749997
F121	F	1.099258	-0.398898	0.664913
F122	F	1.349258	-0.148898	0.914913
F123	F	1.599258	0.101102	1.164913
F124	F	1.849258	0.351102	1.414913
H125	H	1.261978	0.087810	0.000016
H126	H	1.511978	0.337810	0.250016
H127	H	1.761978	0.587810	0.500016
H128	H	2.011978	0.837810	0.750016
H129	H	1.077322	0.326814	-0.000011
H130	H	1.327322	0.576814	0.249989
H131	H	1.577322	0.826814	0.499989
H132	H	1.827322	1.076814	0.749989
H133	H	1.250746	-0.170350	0.593796
H134	H	1.500746	0.079650	0.843796
H135	H	1.750746	0.329650	1.093796
H136	H	2.000746	0.579650	1.343796
F137	F	1.330083	0.281245	-0.000006
F138	F	1.580083	0.531245	0.249994
F139	F	1.830083	0.781245	0.499994
F140	F	2.080083	1.031245	0.749994
F141	F	1.009239	0.133392	-0.000008
F142	F	1.259239	0.383392	0.249992
F143	F	1.509239	0.633392	0.499992
F144	F	1.759239	0.883392	0.749992
H145	H	1.088568	-0.415002	0.406228
H146	H	1.338568	-0.165002	0.656228
H147	H	1.588568	0.084998	0.906228
H148	H	1.838568	0.334998	1.156228
F149	F	1.239837	-0.186239	0.335104
F150	F	1.489837	0.063761	0.585104
F151	F	1.739837	0.313761	0.835104
F152	F	1.989837	0.563761	1.085104
