data_functionalizedCrystal
_audit_creation_method	'MofGen! by Chris Wilmer'
_symmetry_space_group_name_H-M	'P1'
_symmetry_Int_Tables_number	1
_symmetry_cell_setting	triclinic
loop_
_symmetry_equiv_pos_as_xyz
  x,y,z
_cell_length_a	11.792241
_cell_length_b	14.519731
_cell_length_c	10.868271
_cell_angle_alpha	89.993880
_cell_angle_beta	89.999461
_cell_angle_gamma	96.058865
loop_
_atom_site_label
_atom_site_type_symbol
_atom_site_fract_x
_atom_site_fract_y
_atom_site_fract_z
O1	O	-1.506220	0.126403	-0.102187
O2	O	-1.256220	0.376403	0.147813
O3	O	-1.006220	0.626403	0.397813
O4	O	-0.756220	0.876403	0.647813
O5	O	-1.175807	0.139430	-0.102220
O6	O	-0.925807	0.389430	0.147780
O7	O	-0.675807	0.639430	0.397780
O8	O	-0.425807	0.889430	0.647780
O9	O	-1.349761	-0.001288	-0.102192
O10	O	-1.099761	0.248712	0.147808
O11	O	-0.849761	0.498712	0.397808
O12	O	-0.599761	0.748712	0.647808
O13	O	-1.332266	0.267122	-0.102216
O14	O	-1.082266	0.517122	0.147784
O15	O	-0.832266	0.767122	0.397784
O16	O	-0.582266	1.017122	0.647784
O17	O	-1.349747	-0.001294	0.102453
O18	O	-1.099747	0.248706	0.352453
O19	O	-0.849747	0.498706	0.602453
O20	O	-0.599747	0.748706	0.852453
O21	O	-1.175793	0.139425	0.102424
O22	O	-0.925793	0.389425	0.352424
O23	O	-0.675793	0.639425	0.602424
O24	O	-0.425793	0.889425	0.852424
O25	O	-1.506205	0.126398	0.102457
O26	O	-1.256205	0.376398	0.352457
O27	O	-1.006205	0.626398	0.602457
O28	O	-0.756205	0.876398	0.852457
Zn29	Zn	-1.340997	0.132910	0.134933
Zn30	Zn	-1.090997	0.382910	0.384933
Zn31	Zn	-0.840997	0.632910	0.634933
Zn32	Zn	-0.590997	0.882910	0.884933
Zn33	Zn	-1.341016	0.132918	-0.134696
Zn34	Zn	-1.091016	0.382918	0.115304
Zn35	Zn	-0.841016	0.632918	0.365304
Zn36	Zn	-0.591016	0.882918	0.615304
O37	O	-1.332251	0.267116	0.102429
O38	O	-1.082251	0.517116	0.352429
O39	O	-0.832251	0.767116	0.602429
O40	O	-0.582251	1.017116	0.852429
C41	C	-1.133514	0.138609	0.000098
C42	C	-0.883514	0.388609	0.250098
C43	C	-0.633514	0.638609	0.500098
C44	C	-0.383514	0.888609	0.750098
C45	C	-1.007513	0.136160	0.000086
C46	C	-0.757513	0.386160	0.250086
C47	C	-0.507513	0.636160	0.500086
C48	C	-0.257513	0.886160	0.750086
C49	C	-0.776826	0.131656	0.000119
C50	C	-0.526826	0.381656	0.250119
C51	C	-0.276826	0.631656	0.500119
C52	C	-0.026826	0.881656	0.750119
C53	C	-0.905197	0.134159	0.000100
C54	C	-0.655197	0.384159	0.250100
C55	C	-0.405197	0.634159	0.500100
C56	C	-0.155197	0.884159	0.750100
C57	C	-1.348934	-0.035654	0.000131
C58	C	-1.098934	0.214346	0.250131
C59	C	-0.848934	0.464346	0.500131
C60	C	-0.598934	0.714346	0.750131
C61	C	-1.346478	-0.138043	0.000131
C62	C	-1.096478	0.111957	0.250131
C63	C	-0.846478	0.361957	0.500131
C64	C	-0.596478	0.611957	0.750131
C65	C	-1.344482	-0.221194	0.000128
C66	C	-1.094482	0.028806	0.250128
C67	C	-0.844482	0.278806	0.500128
C68	C	-0.594482	0.528806	0.750128
C69	C	-1.341988	-0.325512	0.000119
C70	C	-1.091988	-0.075512	0.250119
C71	C	-0.841988	0.174488	0.500119
C72	C	-0.591988	0.424488	0.750119
C73	C	-1.340008	-0.408658	0.000110
C74	C	-1.090008	-0.158658	0.250110
C75	C	-0.840008	0.091342	0.500110
C76	C	-0.590008	0.341342	0.750110
C77	C	-1.337514	-0.512983	0.000103
C78	C	-1.087514	-0.262983	0.250103
C79	C	-0.837514	-0.012983	0.500103
C80	C	-0.587514	0.237017	0.750103
C81	C	-0.548499	0.127219	0.000133
C82	C	-0.298499	0.377219	0.250133
C83	C	-0.048499	0.627219	0.500133
C84	C	0.201501	0.877219	0.750133
C85	C	-0.674499	0.129668	0.000128
C86	C	-0.424499	0.379668	0.250128
C87	C	-0.174499	0.629668	0.500128
C88	C	0.075501	0.879668	0.750128
C89	C	-1.333078	0.301482	0.000104
C90	C	-1.083078	0.551482	0.250104
C91	C	-0.833078	0.801482	0.500104
C92	C	-0.583078	1.051482	0.750104
C93	C	-1.335535	0.403871	0.000095
C94	C	-1.085535	0.653871	0.250095
C95	C	-0.835535	0.903871	0.500095
C96	C	-0.585535	1.153871	0.750095
N97	N	-1.340992	0.132905	0.318947
N98	N	-1.090992	0.382905	0.568947
N99	N	-0.840992	0.632905	0.818947
N100	N	-0.590992	0.882905	1.068947
N101	N	-1.341029	0.132916	-0.318710
N102	N	-1.091029	0.382916	-0.068710
N103	N	-0.841029	0.632916	0.181290
N104	N	-0.591029	0.882916	0.431290
C105	C	-1.341010	0.132916	0.569953
C106	C	-1.091010	0.382916	0.819953
C107	C	-0.841010	0.632916	1.069953
C108	C	-0.591010	0.882916	1.319953
C109	C	-1.340996	0.132912	0.430275
C110	C	-1.090996	0.382912	0.680275
C111	C	-0.840996	0.632912	0.930275
C112	C	-0.590996	0.882912	1.180275
