data_functionalizedCrystal
_audit_creation_method	'MofGen! by Chris Wilmer'
_symmetry_space_group_name_H-M	'P1'
_symmetry_Int_Tables_number	1
_symmetry_cell_setting	triclinic
loop_
_symmetry_equiv_pos_as_xyz
  x,y,z
_cell_length_a	13.262529
_cell_length_b	11.026607
_cell_length_c	12.376457
_cell_angle_alpha	76.198797
_cell_angle_beta	116.830330
_cell_angle_gamma	96.044903
loop_
_atom_site_label
_atom_site_type_symbol
_atom_site_fract_x
_atom_site_fract_y
_atom_site_fract_z
O1	O	-1.517502	-0.025382	-0.560538
O2	O	-1.017502	0.474618	-0.060538
O3	O	-1.198866	-0.067328	-0.462580
O4	O	-0.698866	0.432672	0.037420
O5	O	-1.331775	0.128421	-0.503436
O6	O	-0.831775	0.628421	-0.003436
O7	O	-1.384593	-0.221131	-0.519682
O8	O	-0.884593	0.278869	-0.019682
O9	O	-1.298550	0.079549	-0.305210
O10	O	-0.798550	0.579549	0.194790
O11	O	-1.165641	-0.116201	-0.264354
O12	O	-0.665641	0.383799	0.235646
O13	O	-1.484276	-0.074255	-0.362313
O14	O	-0.984276	0.425745	0.137687
Zn15	Zn	-1.319683	-0.102988	-0.281861
Zn16	Zn	-0.819683	0.397012	0.218139
Zn17	Zn	-1.363459	-0.038595	-0.543032
Zn18	Zn	-0.863459	0.461405	-0.043032
O19	O	-1.351367	-0.270004	-0.321456
O20	O	-0.851367	0.229996	0.178544
C21	C	-1.140827	-0.093908	-0.350731
C22	C	-0.640827	0.406092	0.149269
C23	C	-1.017387	-0.100281	-0.312782
C24	C	-0.517387	0.399719	0.187218
C25	C	-1.305419	0.148504	-0.401329
C26	C	-0.805419	0.648504	0.098671
C27	C	-1.276373	0.281156	-0.392404
C28	C	-0.776373	0.781156	0.107596
C29	C	-0.941290	-0.129919	-0.186894
C30	C	-0.441290	0.370081	0.313106
C31	C	-0.825309	-0.135898	-0.151229
C32	C	-0.325309	0.364102	0.348771
C33	C	-0.785415	-0.112248	-0.241448
C34	C	-0.285415	0.387752	0.258552
C35	C	-0.861514	-0.082618	-0.367339
C36	C	-0.361514	0.417382	0.132661
C37	C	-0.977505	-0.076629	-0.403008
C38	C	-0.477505	0.423371	0.096992
C39	C	-0.821630	-0.058958	-0.457562
C40	C	-0.321630	0.441042	0.042438
C41	C	-0.897728	-0.029328	-0.583452
C42	C	-0.397728	0.470672	-0.083452
C43	C	-1.013708	-0.023342	-0.619115
C44	C	-0.513708	0.476658	-0.119115
C45	C	-1.053602	-0.046991	-0.528896
C46	C	-0.553602	0.453009	-0.028896
C47	C	-0.705639	-0.064947	-0.421893
C48	C	-0.205639	0.435053	0.078107
C49	C	-0.741854	-0.011657	-0.638007
C50	C	-0.241854	0.488343	-0.138007
C51	C	-0.857834	-0.005679	-0.673672
C52	C	-0.357834	0.494321	-0.173672
N53	N	-1.393335	0.005359	-0.721274
N54	N	-0.893335	0.505359	-0.221274
C55	C	-0.542316	-0.047673	-0.474163
C56	C	-0.042316	0.452327	0.025837
C57	C	-0.665756	-0.041295	-0.512119
C58	C	-0.165756	0.458705	-0.012119
C59	C	-1.377724	-0.290086	-0.423566
C60	C	-0.877724	0.209914	0.076434
C61	C	-1.406771	-0.422737	-0.432499
C62	C	-0.906771	0.077263	0.067501
C63	C	-1.356575	0.360658	-0.417062
C64	C	-0.856575	0.860658	0.082938
C65	C	-1.326557	0.497762	-0.407838
C66	C	-0.826557	0.997762	0.092162
N67	N	-1.289815	-0.146932	-0.103621
N68	N	-0.789815	0.353068	0.396379
C69	C	-1.220488	-0.248967	-0.023126
C70	C	-0.720488	0.251033	0.476874
C71	C	-1.199601	-0.279733	0.101635
C72	C	-0.699601	0.220267	0.601635
C73	C	-1.248032	-0.208462	0.145914
C74	C	-0.748032	0.291538	0.645914
C75	C	-1.317354	-0.106420	0.065420
C76	C	-0.817354	0.393580	0.565420
C77	C	-1.338250	-0.075657	-0.059355
C78	C	-0.838250	0.424343	0.440645
C79	C	-1.365795	-0.035152	0.109685
C80	C	-0.865795	0.464848	0.609685
C81	C	-1.435117	0.066889	0.029191
C82	C	-0.935117	0.566889	0.529191
C83	C	-1.456009	0.097648	-0.095571
C84	C	-0.956009	0.597648	0.404429
C85	C	-1.407578	0.026378	-0.139850
C86	C	-0.907578	0.526378	0.360150
C87	C	-1.344899	-0.065916	0.234460
C88	C	-0.844899	0.434084	0.734460
C89	C	-1.462662	0.107394	0.198231
C90	C	-0.962662	0.607394	0.698231
C91	C	-1.483549	0.138160	0.073471
C92	C	-0.983549	0.638160	0.573471
H93	H	-0.643691	-0.089082	-0.319392
H94	H	-0.143691	0.410918	0.180608
F95	F	-1.557326	0.246759	-0.012209
F96	F	-1.057326	0.746759	0.487791
F97	F	-0.661978	-0.118620	-0.203487
F98	F	-0.161978	0.381380	0.296513
F99	F	-1.429802	0.059126	-0.272635
F100	F	-0.929802	0.559126	0.227365
H101	H	-1.148042	-0.042129	-0.557928
H102	H	-0.648042	0.457871	-0.057928
H103	H	-1.143161	-0.362815	0.167168
H104	H	-0.643161	0.137185	0.667168
F105	F	-1.525578	0.533577	-0.469029
F106	F	-1.025578	1.033577	0.030971
F107	F	-1.529801	0.206239	-0.181243
F108	F	-1.029801	0.706239	0.318757
F109	F	-1.271124	-0.174513	0.320113
F110	F	-0.771124	0.325487	0.820113
H111	H	-1.447461	0.327220	-0.444996
H112	H	-0.947461	0.827220	0.055004
F113	F	-1.514214	0.183247	0.245349
F114	F	-1.014214	0.683247	0.745349
F115	F	-1.225800	-0.241207	0.278697
F116	F	-0.725800	0.258793	0.778697
F117	F	-1.168960	-0.324816	-0.070259
F118	F	-0.668960	0.175184	0.429741
H119	H	-1.235665	0.531194	-0.379902
H120	H	-0.735665	1.031194	0.120098
H121	H	-0.973783	-0.149162	-0.113451
H122	H	-0.473783	0.350838	0.386549
F123	F	-0.744330	-0.167445	-0.017253
F124	F	-0.244330	0.332555	0.482747
F125	F	-1.094693	0.008214	-0.753099
F126	F	-0.594693	0.508214	-0.253099
H127	H	-0.709374	0.007598	-0.711471
H128	H	-0.209374	0.507598	-0.211471
F129	F	-0.938836	0.025859	-0.807651
F130	F	-0.438836	0.525859	-0.307651
F131	F	-1.157576	0.324856	-0.355892
F132	F	-0.657576	0.824856	0.144108
