data_functionalizedCrystal
_audit_creation_method	'MofGen! by Chris Wilmer'
_symmetry_space_group_name_H-M	'P1'
_symmetry_Int_Tables_number	1
_symmetry_cell_setting	triclinic
loop_
_symmetry_equiv_pos_as_xyz
  x,y,z
_cell_length_a	23.532355
_cell_length_b	23.532407
_cell_length_c	22.010155
_cell_angle_alpha	89.999577
_cell_angle_beta	89.997414
_cell_angle_gamma	82.838088
loop_
_atom_site_label
_atom_site_type_symbol
_atom_site_fract_x
_atom_site_fract_y
_atom_site_fract_z
O1	O	0.755283	0.068986	-0.050449
O2	O	1.088616	0.402320	0.282885
O3	O	1.421950	0.735653	0.616218
O4	O	0.589415	0.079020	-0.050469
O5	O	0.922749	0.412354	0.282865
O6	O	1.256082	0.745687	0.616198
O7	O	0.677351	-0.008929	-0.050447
O8	O	1.010684	0.324404	0.282886
O9	O	1.344018	0.657737	0.616220
O10	O	0.667347	0.156936	-0.050470
O11	O	1.000681	0.490269	0.282863
O12	O	1.334014	0.823603	0.616196
O13	O	0.677335	-0.008916	0.050603
O14	O	1.010668	0.324417	0.383937
O15	O	1.344002	0.657750	0.717270
O16	O	0.589399	0.079033	0.050582
O17	O	0.922733	0.412367	0.383915
O18	O	1.256066	0.745700	0.717248
O19	O	0.755267	0.068999	0.050602
O20	O	1.088600	0.402333	0.383935
O21	O	1.421934	0.735666	0.717268
Cu22	Cu	0.672332	0.074018	0.059818
Cu23	Cu	1.005665	0.407351	0.393152
Cu24	Cu	1.338998	0.740684	0.726485
Cu25	Cu	0.672351	0.074002	-0.059685
Cu26	Cu	1.005684	0.407335	0.273648
Cu27	Cu	1.339017	0.740669	0.606981
O28	O	0.667331	0.156949	0.050580
O29	O	1.000665	0.490282	0.383913
O30	O	1.333998	0.823616	0.717247
C31	C	0.568191	0.078776	0.000054
C32	C	0.901524	0.412109	0.333387
C33	C	1.234857	0.745443	0.666721
C34	C	0.504972	0.078022	0.000047
C35	C	0.838305	0.411355	0.333380
C36	C	1.171639	0.744689	0.666713
C37	C	0.112950	0.073291	0.055155
C38	C	0.446283	0.406624	0.388489
C39	C	0.779616	0.739958	0.721822
C40	C	0.053550	0.072574	0.055158
C41	C	0.386884	0.405907	0.388491
C42	C	0.720217	0.739240	0.721824
O43	O	0.022824	0.072189	0.102003
O44	O	0.356158	0.405523	0.435336
O45	O	0.689491	0.738856	0.768670
N46	N	0.023850	0.072211	0.000076
N47	N	0.357184	0.405544	0.333409
N48	N	0.690517	0.738877	0.666742
C49	C	0.053554	0.072559	-0.055013
C50	C	0.386887	0.405893	0.278321
C51	C	0.720221	0.739226	0.611654
O52	O	0.022838	0.072184	-0.101864
O53	O	0.356171	0.405518	0.231469
O54	O	0.689504	0.738851	0.564802
C55	C	0.112953	0.073273	-0.055015
C56	C	0.446286	0.406606	0.278319
C57	C	0.779619	0.739939	0.611652
C58	C	0.142649	0.073641	0.000071
C59	C	0.475982	0.406975	0.333405
C60	C	0.809315	0.740308	0.666738
C61	C	0.142646	0.073659	0.110237
C62	C	0.475979	0.406992	0.443570
C63	C	0.809312	0.740326	0.776903
C64	C	0.202041	0.074378	0.110234
C65	C	0.535374	0.407711	0.443567
C66	C	0.868707	0.741044	0.776901
C67	C	0.231740	0.074728	0.055150
C68	C	0.565073	0.408061	0.388483
C69	C	0.898407	0.741395	0.721817
C70	C	0.202044	0.074360	0.000069
C71	C	0.535377	0.407693	0.333402
C72	C	0.868711	0.741027	0.666735
C73	C	0.142656	0.073617	-0.110102
C74	C	0.475989	0.406951	0.223231
C75	C	0.809322	0.740284	0.556564
C76	C	0.202059	0.074330	-0.110099
C77	C	0.535392	0.407664	0.223234
C78	C	0.868725	0.740997	0.556567
C79	C	0.231755	0.074699	-0.055014
C80	C	0.565088	0.408032	0.278320
C81	C	0.898421	0.741366	0.611653
C82	C	0.291138	0.075429	-0.055018
C83	C	0.624471	0.408762	0.278315
C84	C	0.957805	0.742096	0.611648
N85	N	0.320838	0.075792	0.000064
N86	N	0.654171	0.409125	0.333397
N87	N	0.987505	0.742458	0.666731
C88	C	0.291139	0.075441	0.055148
C89	C	0.624472	0.408775	0.388482
C90	C	0.957805	0.742108	0.721815
C91	C	-0.071188	0.071060	-0.055005
C92	C	0.262146	0.404394	0.278329
C93	C	0.595479	0.737727	0.611662
C94	C	-0.130586	0.070351	-0.055004
C95	C	0.202747	0.403684	0.278330
C96	C	0.536081	0.737018	0.611663
C97	C	-0.130585	0.070364	0.055167
C98	C	0.202748	0.403698	0.388501
C99	C	0.536081	0.737031	0.721834
C100	C	-0.071187	0.071078	0.055165
C101	C	0.262147	0.404411	0.388499
C102	C	0.595480	0.737744	0.721832
C103	C	-0.041488	0.071423	0.000077
C104	C	0.291846	0.404757	0.333411
C105	C	0.625179	0.738090	0.666744
C106	C	0.415873	0.076951	0.055138
C107	C	0.749206	0.410284	0.388472
C108	C	1.082540	0.743617	0.721805
C109	C	0.475273	0.077672	0.055131
C110	C	0.808606	0.411005	0.388464
C111	C	1.141940	0.744338	0.721797
C112	C	0.475268	0.077655	-0.055040
C113	C	0.808601	0.410989	0.278294
C114	C	1.141934	0.744322	0.611627
C115	C	0.415872	0.076938	-0.055032
C116	C	0.749206	0.410271	0.278301
C117	C	1.082539	0.743604	0.611634
C118	C	0.386177	0.076583	0.000061
C119	C	0.719510	0.409917	0.333395
C120	C	1.052843	0.743250	0.666728
O121	O	0.321902	0.075811	-0.101839
O122	O	0.655236	0.409145	0.231494
O123	O	0.988569	0.742478	0.564827
O124	O	0.321863	0.075809	0.101992
O125	O	0.655197	0.409142	0.435325
O126	O	0.988530	0.742476	0.768659
C127	C	0.677088	-0.030139	0.000080
C128	C	1.010421	0.303195	0.333413
C129	C	1.343755	0.636528	0.666746
C130	C	0.676322	-0.093356	0.000084
C131	C	1.009656	0.239978	0.333418
C132	C	1.342989	0.573311	0.666751
C133	C	0.723557	-0.492468	0.000057
C134	C	1.056890	-0.159134	0.333390
C135	C	1.390224	0.174199	0.666723
C136	C	0.722845	-0.551868	0.000052
C137	C	1.056179	-0.218534	0.333385
C138	C	1.389512	0.114799	0.666719
O139	O	0.766632	-0.588620	0.000035
O140	O	1.099966	-0.255287	0.333368
O141	O	1.433299	0.078046	0.666702
N142	N	0.670568	-0.574484	0.000046
N143	N	1.003901	-0.241151	0.333379
N144	N	1.337234	0.092183	0.666713
C145	C	0.618998	-0.537697	0.000039
C146	C	0.952332	-0.204364	0.333372
C147	C	1.285665	0.128970	0.666705
O148	O	0.574467	-0.562388	0.000033
O149	O	0.907800	-0.229055	0.333366
O150	O	1.241133	0.104278	0.666699
C151	C	0.619710	-0.478298	0.000039
C152	C	0.953044	-0.144965	0.333372
C153	C	1.286377	0.188369	0.666706
C154	C	0.671991	-0.455685	0.000051
C155	C	1.005325	-0.122352	0.333384
C156	C	1.338658	0.210982	0.666718
C157	C	0.775834	-0.469854	0.000068
C158	C	1.109167	-0.136521	0.333401
C159	C	1.442500	0.196813	0.666735
C160	C	0.776545	-0.410458	0.000074
C161	C	1.109878	-0.077125	0.333407
C162	C	1.443212	0.256209	0.666741
C163	C	0.724979	-0.373676	0.000068
C164	C	1.058313	-0.040342	0.333402
C165	C	1.391646	0.292991	0.666735
C166	C	0.672703	-0.396289	0.000057
C167	C	1.006036	-0.062956	0.333390
C168	C	1.339369	0.270378	0.666724
C169	C	0.568141	-0.441512	0.000027
C170	C	0.901475	-0.108179	0.333361
C171	C	1.234808	0.225155	0.666694
C172	C	0.568858	-0.382110	0.000027
C173	C	0.902191	-0.048776	0.333361
C174	C	1.235525	0.284557	0.666694
C175	C	0.621139	-0.359497	0.000039
C176	C	0.954472	-0.026163	0.333373
C177	C	1.287806	0.307170	0.666706
C178	C	0.621848	-0.300110	0.000057
C179	C	0.955182	0.033223	0.333391
C180	C	1.288515	0.366556	0.666724
N181	N	0.674126	-0.277494	0.000063
N182	N	1.007459	0.055839	0.333397
N183	N	1.340793	0.389173	0.666730
C184	C	0.725691	-0.314277	0.000069
C185	C	1.059025	0.019057	0.333402
C186	C	1.392358	0.352390	0.666735
C187	C	0.617507	-0.662439	0.000037
C188	C	0.950840	-0.329106	0.333370
C189	C	1.284173	0.004228	0.666704
C190	C	0.616794	-0.721837	0.000041
C191	C	0.950127	-0.388504	0.333374
C192	C	1.283461	-0.055170	0.666708
C193	C	0.720642	-0.736004	0.000053
C194	C	1.053975	-0.402670	0.333386
C195	C	1.387308	-0.069337	0.666720
C196	C	0.721354	-0.676605	0.000053
C197	C	1.054687	-0.343271	0.333387
C198	C	1.388020	-0.009938	0.666720
C199	C	0.669784	-0.639823	0.000043
C200	C	1.003118	-0.306489	0.333376
C201	C	1.336451	0.026844	0.666710
C202	C	0.727181	-0.189540	0.000082
C203	C	1.060514	0.143793	0.333415
C204	C	1.393848	0.477127	0.666748
C205	C	0.727888	-0.130138	0.000090
C206	C	1.061221	0.203195	0.333423
C207	C	1.394554	0.536528	0.666757
C208	C	0.624041	-0.115977	0.000074
C209	C	0.957374	0.217357	0.333408
C210	C	1.290707	0.550690	0.666741
C211	C	0.623334	-0.175373	0.000069
C212	C	0.956667	0.157960	0.333403
C213	C	1.290000	0.491293	0.666736
C214	C	0.674909	-0.212154	0.000071
C215	C	1.008242	0.121179	0.333404
C216	C	1.341575	0.454512	0.666737
O217	O	0.578084	-0.263323	0.000072
O218	O	0.911418	0.070010	0.333405
O219	O	1.244751	0.403344	0.666739
O220	O	0.770216	-0.289577	0.000067
O221	O	1.103549	0.043756	0.333400
O222	O	1.436882	0.377090	0.666733
C223	C	0.776491	0.069244	0.000078
C224	C	1.109825	0.402577	0.333411
C225	C	1.443158	0.735910	0.666744
C226	C	0.839710	0.069998	0.000081
C227	C	1.173043	0.403331	0.333414
C228	C	1.506377	0.736664	0.666748
C229	C	0.667594	0.178158	0.000052
C230	C	1.000927	0.511492	0.333385
C231	C	1.334261	0.844825	0.666719
C232	C	0.668360	0.241375	0.000043
C233	C	1.001693	0.574709	0.333377
C234	C	1.335027	0.908042	0.666710
N235	N	0.672323	0.074028	0.143871
N236	N	1.005656	0.407362	0.477204
N237	N	1.338989	0.740695	0.810537
N238	N	0.672364	0.073987	-0.143738
N239	N	1.005698	0.407320	0.189595
N240	N	1.339031	0.740654	0.522929
C241	C	0.711291	0.035063	0.563660
C242	C	1.044624	0.368397	0.896993
C243	C	1.377957	0.701730	1.230327
C244	C	0.711293	0.035059	0.627267
C245	C	1.044627	0.368393	0.960601
C246	C	1.377960	0.701726	1.293934
O247	O	0.744402	0.001938	0.660167
O248	O	1.077736	0.335271	0.993500
O249	O	1.411069	0.668604	1.326834
N250	N	0.672350	0.073990	0.659078
N251	N	1.005684	0.407323	0.992411
N252	N	1.339017	0.740657	1.325745
C253	C	0.633398	0.112923	0.627277
C254	C	0.966732	0.446257	0.960611
C255	C	1.300065	0.779590	1.293944
O256	O	0.600274	0.146036	0.660175
O257	O	0.933607	0.479370	0.993509
O258	O	1.266941	0.812703	1.326842
C259	C	0.633393	0.112924	0.563671
C260	C	0.966727	0.446257	0.897004
C261	C	1.300060	0.779591	1.230338
C262	C	0.672343	0.073995	0.531864
C263	C	1.005676	0.407328	0.865197
C264	C	1.339009	0.740661	1.198531
C265	C	0.750236	-0.003863	0.531853
C266	C	1.083570	0.329470	0.865186
C267	C	1.416903	0.662803	1.198519
C268	C	0.750234	-0.003858	0.468249
C269	C	1.083568	0.329475	0.801583
C270	C	1.416901	0.662808	1.134916
C271	C	0.711286	0.035073	0.436453
C272	C	1.044620	0.368406	0.769787
C273	C	1.377953	0.701740	1.103120
C274	C	0.672341	0.074000	0.468261
C275	C	1.005674	0.407333	0.801594
C276	C	1.339007	0.740666	1.134927
C277	C	0.594439	0.151854	0.531872
C278	C	0.927772	0.485188	0.865205
C279	C	1.261106	0.818521	1.198538
C280	C	0.594437	0.151851	0.468261
C281	C	0.927770	0.485185	0.801594
C282	C	1.261104	0.818518	1.134928
C283	C	0.633387	0.112922	0.436454
C284	C	0.966720	0.446255	0.769787
C285	C	1.300053	0.779589	1.103120
C286	C	0.633391	0.112936	0.372861
C287	C	0.966724	0.446269	0.706195
C288	C	1.300057	0.779602	1.039528
N289	N	0.672334	0.074005	0.341051
N290	N	1.005667	0.407338	0.674384
N291	N	1.339000	0.740672	1.007718
C292	C	0.711282	0.035074	0.372847
C293	C	1.044615	0.368407	0.706180
C294	C	1.377948	0.701740	1.039514
C295	C	0.633411	0.112918	0.760855
C296	C	0.966744	0.446251	1.094189
C297	C	1.300078	0.779585	1.427522
C298	C	0.633418	0.112921	0.824461
C299	C	0.966751	0.446254	1.157794
C300	C	1.300085	0.779587	1.491127
C301	C	0.711313	0.035056	0.824446
C302	C	1.044646	0.368389	1.157779
C303	C	1.377979	0.701722	1.491113
C304	C	0.711308	0.035057	0.760840
C305	C	1.044641	0.368390	1.094173
C306	C	1.377974	0.701723	1.427506
C307	C	0.672354	0.073988	0.729045
C308	C	1.005687	0.407321	1.062378
C309	C	1.339021	0.740654	1.395711
C310	C	0.711275	0.035087	0.239276
C311	C	1.044608	0.368420	0.572609
C312	C	1.377941	0.701754	0.905942
C313	C	0.711270	0.035097	0.175667
C314	C	1.044604	0.368430	0.509000
C315	C	1.377937	0.701764	0.842333
C316	C	0.633374	0.112959	0.175687
C317	C	0.966708	0.446293	0.509020
C318	C	1.300041	0.779626	0.842353
C319	C	0.633380	0.112952	0.239290
C320	C	0.966713	0.446285	0.572623
C321	C	1.300047	0.779618	0.905957
C322	C	0.672332	0.074011	0.271083
C323	C	1.005666	0.407344	0.604416
C324	C	1.338999	0.740678	0.937750
O325	O	0.600297	0.146039	0.339921
O326	O	0.933630	0.479372	0.673255
O327	O	1.266963	0.812706	1.006588
O328	O	0.744395	0.001961	0.339941
O329	O	1.077729	0.335295	0.673275
O330	O	1.411062	0.668628	1.006608
H331	H	-0.047012	0.071378	0.100021
H332	H	0.286321	0.404712	0.433355
H333	H	0.619655	0.738045	0.766688
H334	H	0.601691	0.144625	0.734971
H335	H	0.935025	0.477958	1.068304
H336	H	1.268358	0.811292	1.401638
H337	H	0.562723	0.183554	0.557760
H338	H	0.896056	0.516887	0.891094
H339	H	1.229389	0.850220	1.224427
H340	H	0.817827	-0.499797	0.000070
H341	H	1.151160	-0.166464	0.333404
H342	H	1.484494	0.166869	0.666737
H343	H	0.526863	-0.352164	0.000018
H344	H	0.860196	-0.018830	0.333351
H345	H	1.193530	0.314503	0.666684
Cl346	Cl	0.792019	-0.235770	0.000084
Cl347	Cl	1.125352	0.097564	0.333418
Cl348	Cl	1.458686	0.430897	0.666751
H349	H	0.763925	-0.658198	0.000063
H350	H	1.097259	-0.324864	0.333396
H351	H	1.430592	0.008469	0.666729
Cl352	Cl	0.545462	0.200796	0.428295
Cl353	Cl	0.878795	0.534129	0.761628
Cl354	Cl	1.212129	0.867462	1.094962
Cl355	Cl	-0.167932	0.069921	0.124417
Cl356	Cl	0.165401	0.403255	0.457750
Cl357	Cl	0.498734	0.736588	0.791083
Cl358	Cl	0.557608	-0.203802	0.000066
Cl359	Cl	0.890942	0.129531	0.333399
Cl360	Cl	1.224275	0.462865	0.666732
Cl361	Cl	-0.167912	0.069899	-0.124257
Cl362	Cl	0.165421	0.403232	0.209076
Cl363	Cl	0.498754	0.736566	0.542409
Cl364	Cl	0.512601	0.078137	0.124387
Cl365	Cl	0.845934	0.411470	0.457720
Cl366	Cl	1.179268	0.744803	0.791054
H367	H	0.391701	0.076667	0.100001
H368	H	0.725034	0.410001	0.433334
H369	H	1.058368	0.743334	0.766668
H370	H	0.582057	-0.086018	0.000072
H371	H	0.915391	0.247316	0.333405
H372	H	1.248724	0.580649	0.666739
Cl373	Cl	0.760240	-0.013845	0.135684
Cl374	Cl	1.093573	0.319488	0.469017
Cl375	Cl	1.426906	0.652821	0.802351
Cl376	Cl	-0.033859	0.071502	-0.124265
Cl377	Cl	0.299474	0.404835	0.209068
Cl378	Cl	0.632808	0.738168	0.542401
Cl379	Cl	0.584419	0.161899	0.279274
Cl380	Cl	0.917753	0.495232	0.612608
Cl381	Cl	1.251086	0.828566	0.945941
Cl382	Cl	0.512615	0.078092	-0.124285
Cl383	Cl	0.845949	0.411426	0.209049
Cl384	Cl	1.179282	0.744759	0.542382
H385	H	0.742992	0.003377	0.265154
H386	H	1.076326	0.336710	0.598488
H387	H	1.409659	0.670044	0.931821
Cl388	Cl	0.105320	0.073222	0.179495
Cl389	Cl	0.438653	0.406555	0.512828
Cl390	Cl	0.771987	0.739889	0.846162
Cl391	Cl	0.105339	0.073152	-0.179358
Cl392	Cl	0.438672	0.406485	0.153975
Cl393	Cl	0.772005	0.739818	0.487309
H394	H	0.743025	0.003355	0.850346
H395	H	1.076359	0.336688	1.183679
H396	H	1.409692	0.670022	1.517013
H397	H	0.226236	0.074612	-0.154960
H398	H	0.559570	0.407945	0.178374
H399	H	0.892903	0.741279	0.511707
Cl400	Cl	0.584413	0.161900	0.135705
Cl401	Cl	0.917747	0.495234	0.469038
Cl402	Cl	1.251080	0.828567	0.802371
H403	H	0.391691	0.076647	-0.099888
H404	H	0.725025	0.409980	0.233445
H405	H	1.058358	0.743313	0.566779
Cl406	Cl	0.793617	-0.101715	0.000104
Cl407	Cl	1.126951	0.231618	0.333437
Cl408	Cl	1.460284	0.564952	0.666771
Cl409	Cl	0.842273	-0.382040	0.000072
Cl410	Cl	1.175607	-0.048706	0.333405
Cl411	Cl	1.508940	0.284627	0.666739
Cl412	Cl	0.785467	-0.782256	0.000056
Cl413	Cl	1.118801	-0.448922	0.333389
Cl414	Cl	1.452134	-0.115589	0.666723
H415	H	0.781949	-0.035560	0.442356
H416	H	1.115282	0.297774	0.775689
H417	H	1.448615	0.631107	1.109022
Cl418	Cl	0.551067	-0.750257	0.000037
Cl419	Cl	0.884400	-0.416923	0.333371
Cl420	Cl	1.217733	-0.083590	0.666704
Cl421	Cl	0.552670	-0.616204	0.000030
Cl422	Cl	0.886003	-0.282871	0.333364
Cl423	Cl	1.219337	0.050463	0.666697
Cl424	Cl	0.799206	-0.052812	0.571814
Cl425	Cl	1.132540	0.280522	0.905148
Cl426	Cl	1.465873	0.613855	1.238481
Cl427	Cl	0.760273	-0.013886	0.720861
Cl428	Cl	1.093607	0.319447	1.054194
Cl429	Cl	1.426940	0.652780	1.387527
H430	H	0.525569	-0.459912	0.000014
H431	H	0.858902	-0.126579	0.333347
H432	H	1.192235	0.206754	0.666680
H433	H	0.226214	0.074674	0.155091
H434	H	0.559548	0.408008	0.488424
H435	H	0.892881	0.741341	0.821757
Cl436	Cl	0.584459	0.161870	0.864440
Cl437	Cl	0.917792	0.495203	1.197773
Cl438	Cl	1.251125	0.828536	1.531106
