data_functionalizedCrystal
_audit_creation_method	'MofGen! by Chris Wilmer'
_symmetry_space_group_name_H-M	'P1'
_symmetry_Int_Tables_number	1
_symmetry_cell_setting	triclinic
loop_
_symmetry_equiv_pos_as_xyz
  x,y,z
_cell_length_a	12.759400
_cell_length_b	21.395362
_cell_length_c	21.395356
_cell_angle_alpha	89.957023
_cell_angle_beta	89.976983
_cell_angle_gamma	90.030564
loop_
_atom_site_label
_atom_site_type_symbol
_atom_site_fract_x
_atom_site_fract_y
_atom_site_fract_z
Zn1	Zn	-0.417848	0.957923	-0.354606
Zn2	Zn	0.082152	1.457923	0.145394
Zn3	Zn	-0.593540	0.957857	-0.249837
Zn4	Zn	-0.093540	1.457857	0.250163
Zn5	Zn	-0.417925	0.853140	-0.249807
Zn6	Zn	0.082075	1.353140	0.250193
Zn7	Zn	-0.593534	0.853137	-0.354542
Zn8	Zn	-0.093534	1.353137	0.145458
O9	O	-0.505711	0.905514	-0.302198
O10	O	-0.005711	1.405514	0.197802
O11	O	-0.441124	1.045592	-0.340747
O12	O	0.058876	1.545592	0.159253
O13	O	-0.570279	0.943939	-0.162155
O14	O	-0.070279	1.443939	0.337845
O15	O	-0.270893	0.867069	-0.263723
O16	O	0.229107	1.367069	0.236277
O17	O	-0.570205	1.045544	-0.263774
O18	O	-0.070205	1.545544	0.236226
O19	O	-0.270837	0.944053	-0.340719
O20	O	0.229163	1.444053	0.159281
O21	O	-0.441255	0.867004	-0.162133
O22	O	0.058745	1.367004	0.337867
O23	O	-0.441249	0.765462	-0.263661
O24	O	0.058751	1.265462	0.236339
O25	O	-0.570194	0.867063	-0.442228
O26	O	-0.070194	1.367063	0.057772
O27	O	-0.570268	0.765459	-0.340609
O28	O	-0.070268	1.265459	0.159391
O29	O	-0.441118	0.944050	-0.442275
O30	O	0.058882	1.444050	0.057725
O31	O	-0.740560	0.943936	-0.263712
O32	O	-0.240560	1.443936	0.236288
O33	O	-0.740556	0.866999	-0.340638
O34	O	-0.240556	1.366999	0.159362
C35	C	-0.505767	0.742727	-0.302125
C36	C	-0.005767	1.242727	0.197875
C37	C	-0.505816	0.673085	-0.302109
C38	C	-0.005816	1.173085	0.197891
C39	C	-0.778679	0.905477	-0.302185
C40	C	-0.278679	1.405477	0.197815
C41	C	-0.895455	0.905518	-0.302200
C42	C	-0.395455	1.405518	0.197800
C43	C	-0.573086	0.640387	-0.342116
C44	C	-0.073086	1.140387	0.157884
C45	C	-0.573060	0.574952	-0.342144
C46	C	-0.073060	1.074952	0.157856
C47	C	-0.505776	0.542217	-0.302154
C48	C	-0.005776	1.042217	0.197846
C49	C	-0.438493	0.574923	-0.262144
C50	C	0.061507	1.074923	0.237856
C51	C	-0.438513	0.640357	-0.262122
C52	C	0.061487	1.140357	0.237878
C53	C	-0.497327	0.438492	-0.245748
C54	C	0.002673	0.938492	0.254252
C55	C	-0.497314	0.373059	-0.245769
C56	C	0.002686	0.873059	0.254231
C57	C	-0.505707	0.340396	-0.302223
C58	C	-0.005707	0.840396	0.197777
C59	C	-0.514135	0.373175	-0.358657
C60	C	-0.014135	0.873175	0.141343
C61	C	-0.514155	0.438609	-0.358635
C62	C	-0.014155	0.938609	0.141365
C63	C	-0.505746	0.471265	-0.302174
C64	C	-0.005746	0.971265	0.197826
C65	C	-0.572952	0.236746	-0.342263
C66	C	-0.072952	0.736746	0.157737
C67	C	-0.572919	0.171309	-0.342292
C68	C	-0.072919	0.671309	0.157708
C69	C	-0.438358	0.171281	-0.262287
C70	C	0.061642	0.671281	0.237713
C71	C	-0.438386	0.236717	-0.262264
C72	C	0.061614	0.736717	0.237736
C73	C	-0.505688	0.269445	-0.302251
C74	C	-0.005688	0.769445	0.197749
C75	C	-0.950285	0.945624	-0.262189
C76	C	-0.450285	1.445624	0.237811
C77	C	-1.060009	0.945663	-0.262209
C78	C	-0.560009	1.445663	0.237791
C79	C	-1.060064	0.865484	-0.342252
C80	C	-0.560064	1.365484	0.157748
C81	C	-0.950342	0.865449	-0.342235
C82	C	-0.450342	1.365449	0.157765
C83	C	-0.895398	0.985693	-0.222154
C84	C	-0.395398	1.485693	0.277846
C85	C	-0.950228	1.025802	-0.182139
C86	C	-0.450228	1.525802	0.317861
C87	C	-1.059952	1.025840	-0.182159
C88	C	-0.559952	1.525840	0.317841
C89	C	-1.114846	0.985770	-0.222193
C90	C	-0.614846	1.485770	0.277807
C91	C	-0.231678	0.905569	-0.302225
C92	C	0.268322	1.405569	0.197775
C93	C	-0.114902	0.905592	-0.302236
C94	C	0.385098	1.405592	0.197764
C95	C	-0.505646	0.905563	-0.465621
C96	C	-0.005646	1.405563	0.034379
C97	C	-0.505619	0.905584	-0.535263
C98	C	-0.005619	1.405584	-0.035263
C99	C	-0.505656	1.068938	-0.302271
C100	C	-0.005656	1.568938	0.197729
C101	C	-0.505633	1.138579	-0.302303
C102	C	-0.005633	1.638579	0.197697
C103	C	-0.438428	0.865535	-0.567955
C104	C	0.061572	1.365535	-0.067955
C105	C	-0.438409	0.865533	-0.633390
C106	C	0.061591	1.365533	-0.133390
C107	C	-0.505569	0.905591	-0.666131
C108	C	-0.005569	1.405591	-0.166131
C109	C	-0.572772	0.945644	-0.633431
C110	C	-0.072772	1.445644	-0.133431
C111	C	-0.572797	0.945640	-0.567997
C112	C	-0.072797	1.445640	-0.067997
C113	C	-0.513802	0.962045	-0.769837
C114	C	-0.013802	1.462045	-0.269837
C115	C	-0.513770	0.962049	-0.835270
C116	C	-0.013770	1.462049	-0.335270
C117	C	-0.505498	0.905602	-0.867952
C118	C	-0.005498	1.405602	-0.367952
C119	C	-0.497236	0.849148	-0.835193
C120	C	0.002764	1.349148	-0.335193
C121	C	-0.497261	0.849144	-0.769759
C122	C	0.002739	1.349144	-0.269759
C123	C	-0.505549	0.905599	-0.737083
C124	C	-0.005549	1.405599	-0.237083
C125	C	-0.438283	0.865547	-0.971596
C126	C	0.061717	1.365547	-0.471596
C127	C	-0.438270	0.865543	-1.037033
C128	C	0.061730	1.365543	-0.537033
C129	C	-0.572628	0.945660	-1.037073
C130	C	-0.072628	1.445660	-0.537073
C131	C	-0.572646	0.945657	-0.971638
C132	C	-0.072646	1.445657	-0.471638
C133	C	-0.505467	0.905602	-0.938903
C134	C	-0.005467	1.405602	-0.438903
C135	C	-0.505701	0.905501	-0.139410
C136	C	-0.005701	1.405501	0.360590
C137	C	-0.505432	0.905602	-0.069770
C138	C	-0.005432	1.405602	0.430230
H139	H	-0.627887	0.667031	-0.374678
H140	H	-0.127887	1.167031	0.125322
C141	C	-1.120452	0.821404	-0.386280
C142	C	-0.620452	1.321404	0.113720
N143	N	-1.165937	0.788200	-0.419441
N144	N	-0.665937	1.288200	0.080559
H145	H	-0.383583	0.832931	-0.944943
H146	H	0.116417	1.332931	-0.444943
H147	H	-0.490536	0.803178	-0.743089
H148	H	0.009464	1.303178	-0.243089
C149	C	-0.774700	0.985663	-0.222138
C150	C	-0.274700	1.485663	0.277862
N151	N	-0.683790	0.985643	-0.222130
N152	N	-0.183790	1.485643	0.277870
H153	H	-0.383559	0.832926	-1.063650
H154	H	0.116441	1.332926	-0.563650
H155	H	-0.383708	0.548266	-0.229585
H156	H	0.116292	1.048266	0.270415
H157	H	-0.905527	1.058429	-0.149548
H158	H	-0.405527	1.558429	0.350452
C159	C	-0.488146	0.787050	-0.871138
C160	C	0.011854	1.287050	-0.371138
N161	N	-0.481301	0.740279	-0.898215
N162	N	0.018699	1.240279	-0.398215
H163	H	-0.490488	0.465080	-0.199774
H164	H	0.009512	0.965080	0.300226
C165	C	-0.646458	0.989753	-1.073084
C166	C	-0.146458	1.489753	-0.573084
N167	N	-0.702053	1.022975	-1.100211
N168	N	-0.202053	1.522975	-0.600211
C169	C	-1.120262	1.069961	-0.138143
C170	C	-0.620262	1.569961	0.361857
N171	N	-1.165685	1.103191	-0.104986
N172	N	-0.665685	1.603191	0.395014
C173	C	-0.646693	0.989712	-0.532035
C174	C	-0.146693	1.489712	-0.032035
N175	N	-0.702345	1.022914	-0.504947
N176	N	-0.202345	1.522914	-0.004947
H177	H	-0.627357	0.978271	-0.945020
H178	H	-0.127357	1.478271	-0.445020
C179	C	-0.364514	0.676326	-0.218106
C180	C	0.135486	1.176326	0.281894
N181	N	-0.308779	0.703418	-0.184951
N182	N	0.191221	1.203418	0.315049
C183	C	-1.235547	0.985817	-0.222214
C184	C	-0.735547	1.485817	0.277786
N185	N	-1.326457	0.985851	-0.222227
N186	N	-0.826457	1.485851	0.277773
C187	C	-0.488036	0.337009	-0.183692
C188	C	0.011964	0.837009	0.316308
N189	N	-0.481042	0.309858	-0.136933
N190	N	0.018958	0.809858	0.363067
H191	H	-0.521014	0.465294	-0.404585
H192	H	-0.021014	0.965294	0.095415
H193	H	-0.905700	0.832792	-0.374817
H194	H	-0.405700	1.332792	0.125183
H195	H	-0.627454	0.978259	-0.660093
H196	H	-0.127454	1.478259	-0.160093
C197	C	-0.646974	0.272749	-0.386257
C198	C	-0.146974	0.772749	0.113743
N199	N	-0.702725	0.299865	-0.419395
N200	N	-0.202725	0.799865	0.080605
C201	C	-0.364538	0.821468	-0.531950
C202	C	0.135462	1.321468	-0.031950
N203	N	-0.308886	0.788274	-0.504831
N204	N	0.191114	1.288274	-0.004831
H205	H	-0.383689	0.832921	-0.660013
H206	H	0.116311	1.332921	-0.160013
H207	H	-0.520530	1.008015	-0.743233
H208	H	-0.020530	1.508015	-0.243233
C209	C	-0.647068	0.538977	-0.386154
C210	C	-0.147068	1.038977	0.113846
N211	N	-0.702812	0.511882	-0.419302
N212	N	-0.202812	1.011882	0.080698
C213	C	-0.523364	0.337251	-0.420761
C214	C	-0.023364	0.837251	0.079239
N215	N	-0.530315	0.310190	-0.467537
N216	N	-0.030315	0.810190	0.032463
H217	H	-0.520492	1.008017	-0.861937
H218	H	-0.020492	1.508017	-0.361937
H219	H	-0.383569	0.144629	-0.229729
H220	H	0.116431	0.644629	0.270271
C221	C	-0.364392	0.272686	-0.218247
C222	C	0.135608	0.772686	0.281753
N223	N	-0.308656	0.299778	-0.185091
N224	N	0.191344	0.799778	0.314909
C225	C	-0.646934	0.135342	-0.386300
C226	C	-0.146934	0.635342	0.113700
N227	N	-0.702688	0.108250	-0.419445
N228	N	-0.202688	0.608250	0.080555
