data_functionalizedCrystal
_audit_creation_method	'MofGen! by Chris Wilmer'
_symmetry_space_group_name_H-M	'P1'
_symmetry_Int_Tables_number	1
_symmetry_cell_setting	triclinic
loop_
_symmetry_equiv_pos_as_xyz
  x,y,z
_cell_length_a	8.559649
_cell_length_b	10.967829
_cell_length_c	7.088929
_cell_angle_alpha	71.681627
_cell_angle_beta	95.324505
_cell_angle_gamma	77.415441
loop_
_atom_site_label
_atom_site_type_symbol
_atom_site_fract_x
_atom_site_fract_y
_atom_site_fract_z
O1	O	2.104388	-0.028762	-0.149504
O2	O	1.637657	0.037593	-0.171370
O3	O	1.888072	-0.183875	-0.098395
O4	O	1.853972	0.192706	-0.222479
O5	O	1.921539	-0.213531	0.229353
O6	O	1.671124	0.007936	0.156378
O7	O	2.137855	-0.058418	0.178243
Cu8	Cu	1.907545	-0.027949	0.197236
Cu9	Cu	1.867966	0.007123	-0.190363
O10	O	1.887439	0.163049	0.105268
C11	C	1.594744	0.027793	-0.009153
C12	C	1.417020	0.042761	-0.014086
C13	C	1.904853	-0.246467	0.081213
C14	C	1.904975	-0.388786	0.128096
C15	C	1.887693	-0.436868	-0.020787
C16	C	1.887819	-0.583962	0.027664
C17	C	2.180766	-0.048618	0.016022
C18	C	2.358490	-0.063585	0.020942
C19	C	1.870658	0.225642	-0.074344
C20	C	1.870534	0.367962	-0.121240
N21	N	1.935394	-0.052619	0.469853
N22	N	1.840130	0.031782	-0.462976
H23	H	1.444355	-0.166091	0.054717
H24	H	2.034142	-0.140081	0.580328
O25	O	1.869753	-0.355896	-0.215578
C26	C	1.729651	-0.249393	-0.260929
H27	H	1.699128	-0.234140	-0.115428
H28	H	1.753147	-0.154813	-0.365235
H29	H	1.623392	-0.273102	-0.338796
O30	O	1.314387	0.164944	-0.054279
C31	C	1.153828	0.153198	-0.050490
H32	H	1.156230	0.047262	0.044613
H33	H	1.086049	0.225833	0.017878
H34	H	1.089374	0.177003	-0.210893
O35	O	1.852436	-0.551278	-0.316195
C36	C	1.702420	-0.545922	-0.423412
H37	H	1.616046	-0.572502	-0.313237
H38	H	1.647398	-0.441156	-0.536452
H39	H	1.722509	-0.619773	-0.507247
O40	O	1.905300	-0.664637	0.222554
C41	C	1.777453	-0.613673	0.311290
H42	H	1.669641	-0.547663	0.188189
H43	H	1.739142	-0.699533	0.418035
H44	H	1.820193	-0.552617	0.399402
O45	O	1.922686	-0.469385	0.323065
C46	C	1.938775	-0.396128	0.452093
H47	H	1.882575	-0.285731	0.365096
H48	H	1.873671	-0.430367	0.584526
H49	H	2.073086	-0.413050	0.510991
O50	O	1.722304	0.136227	0.405514
C51	C	1.638211	0.210690	0.512050
H52	H	1.718771	0.192422	0.660796
H53	H	1.605522	0.321055	0.417704
H54	H	1.522340	0.178808	0.543796
