data_functionalizedCrystal
_audit_creation_method	'MofGen! by Chris Wilmer'
_symmetry_space_group_name_H-M	'P1'
_symmetry_Int_Tables_number	1
_symmetry_cell_setting	triclinic
loop_
_symmetry_equiv_pos_as_xyz
  x,y,z
_cell_length_a	8.559649
_cell_length_b	15.944551
_cell_length_c	7.681481
_cell_angle_alpha	84.256492
_cell_angle_beta	94.913240
_cell_angle_gamma	76.638701
loop_
_atom_site_label
_atom_site_type_symbol
_atom_site_fract_x
_atom_site_fract_y
_atom_site_fract_z
O1	O	2.105021	-0.019570	-0.146399
O2	O	1.639821	0.023810	-0.146411
O3	O	1.885126	-0.120976	-0.146389
O4	O	1.859716	0.125215	-0.146421
O5	O	1.915319	-0.138833	0.146471
O6	O	1.670014	0.005953	0.146450
O7	O	2.135214	-0.037427	0.146461
Zn8	Zn	1.907408	-0.018572	0.192953
Zn9	Zn	1.867627	0.004955	-0.192903
O10	O	1.889909	0.107359	0.146439
C11	C	1.595387	0.018169	0.000018
C12	C	1.418008	0.027954	0.000014
C13	C	1.899168	-0.161130	0.000042
C14	C	1.896006	-0.254172	0.000042
C15	C	1.736394	-0.458726	0.000014
C16	C	1.825398	-0.533331	0.144414
C17	C	1.890284	-0.424528	0.000029
C18	C	1.795667	-0.515712	-0.144323
C19	C	1.884744	-0.589082	0.000008
C20	C	1.979342	-0.497915	0.144548
C21	C	1.949576	-0.480280	-0.144319
C22	C	2.038696	-0.554877	0.000116
C23	C	1.893471	-0.329732	0.000042
C24	C	1.881571	-0.683878	0.000007
C25	C	2.179647	-0.031786	0.000028
C26	C	2.357025	-0.041570	0.000021
C27	C	1.875866	0.147513	0.000005
C28	C	1.879027	0.240556	-0.000008
N29	N	1.934569	-0.034630	0.456290
N30	N	1.840479	0.021005	-0.456240
H31	H	1.772895	-0.556682	0.266489
O32	O	2.049378	-0.102308	0.545924
C33	C	2.202998	-0.096228	0.500935
H34	H	2.198764	-0.025977	0.450136
H35	H	2.295595	-0.118436	0.622242
H36	H	2.238856	-0.139353	0.394053
O37	O	1.725688	0.088719	0.454245
C38	C	1.572059	0.082612	0.499157
H39	H	1.585877	0.042134	0.633064
H40	H	1.494158	0.150470	0.505279
H41	H	1.511915	0.050295	0.395448
H42	H	1.440515	-0.108579	0.000021
O43	O	2.071822	-0.488063	0.290536
C44	C	2.006663	-0.515740	0.442351
H45	H	1.930373	-0.563034	0.408707
H46	H	2.109099	-0.549458	0.548972
H47	H	1.927832	-0.457109	0.492136
O48	O	2.191171	-0.604283	-0.000135
C49	C	2.199853	-0.646903	-0.152503
H50	H	2.099664	-0.609652	-0.258520
H51	H	2.322267	-0.649847	-0.202796
H52	H	2.184652	-0.715673	-0.119404
O53	O	1.583930	-0.409241	-0.000061
C54	C	1.486691	-0.418857	-0.150887
H55	H	1.541197	-0.483040	-0.200693
H56	H	1.359750	-0.418420	-0.115938
H57	H	1.480497	-0.362891	-0.257991
O58	O	1.318187	0.107836	0.000075
C59	C	1.157358	0.100159	0.000020
H60	H	1.156827	0.031193	0.055474
H61	H	1.090515	0.148089	0.085032
H62	H	1.094681	0.114988	-0.140484
O63	O	2.012178	-0.452253	-0.289821
C64	C	2.015589	-0.364414	-0.286924
H65	H	2.015862	-0.348338	-0.145609
H66	H	2.129291	-0.352756	-0.342063
H67	H	1.904378	-0.321119	-0.370757
O68	O	1.702985	-0.525637	-0.290095
C69	C	1.639699	-0.444139	-0.391434
H70	H	1.719321	-0.398205	-0.359387
H71	H	1.636731	-0.452334	-0.537328
H72	H	1.511872	-0.415978	-0.359535
