data_functionalizedCrystal
_audit_creation_method	'MofGen! by Chris Wilmer'
_symmetry_space_group_name_H-M	'P1'
_symmetry_Int_Tables_number	1
_symmetry_cell_setting	triclinic
loop_
_symmetry_equiv_pos_as_xyz
  x,y,z
_cell_length_a	10.723024
_cell_length_b	14.044220
_cell_length_c	9.798715
_cell_angle_alpha	89.995876
_cell_angle_beta	89.996609
_cell_angle_gamma	88.828373
loop_
_atom_site_label
_atom_site_type_symbol
_atom_site_fract_x
_atom_site_fract_y
_atom_site_fract_z
O1	O	1.670498	0.133040	-0.113486
O2	O	1.308619	0.145774	-0.113491
O3	O	1.484127	0.001387	-0.113476
O4	O	1.494990	0.277427	-0.113502
O5	O	1.484112	0.001387	0.113507
O6	O	1.308605	0.145774	0.113491
O7	O	1.670483	0.133039	0.113496
Zn8	Zn	1.489542	0.139407	0.149532
Zn9	Zn	1.489561	0.139407	-0.149527
O10	O	1.494976	0.277427	0.113480
C11	C	1.262020	0.144847	-0.000001
C12	C	1.123188	0.142075	-0.000002
C13	C	1.056288	0.222866	-0.000011
C14	C	0.912798	0.220002	-0.000013
C15	C	1.479364	-0.033958	0.000016
C16	C	1.465180	-0.139276	0.000018
C17	C	1.439248	-0.332106	-0.000002
C18	C	1.539849	-0.389085	-0.000005
C19	C	1.525420	-0.496383	-0.000016
C20	C	1.453675	-0.224799	0.000009
C21	C	1.717083	0.133966	0.000002
C22	C	1.855914	0.136739	-0.000005
C23	C	1.499738	0.312772	-0.000015
C24	C	1.513923	0.418090	-0.000025
N25	N	1.489538	0.139406	0.353631
N26	N	1.489573	0.139401	-0.353627
C27	C	1.563202	0.078514	0.421415
C28	C	1.563222	0.078511	0.578578
H29	H	0.855286	0.289166	-0.000026
H30	H	1.426508	0.191538	0.588091
C31	C	1.121619	0.317899	-0.000296
C32	C	1.196200	0.324375	-0.117087
C33	C	1.256386	0.411913	-0.117403
H34	H	1.172385	0.322545	0.078767
H35	H	1.061080	0.368246	-0.000375
H36	H	1.256732	0.274043	-0.116996
H37	H	1.145464	0.319747	-0.196169
H38	H	1.195846	0.462260	-0.117482
H39	H	1.307145	0.416552	-0.038335
H40	H	1.306986	0.416323	-0.196650
C41	C	1.309931	-0.374451	-0.000282
C42	C	1.245246	-0.344097	-0.117069
C43	C	1.126126	-0.383108	-0.117377
H44	H	1.265694	-0.353981	0.078784
H45	H	1.317245	-0.441982	-0.000360
H46	H	1.237927	-0.276580	-0.116979
H47	H	1.289445	-0.364565	-0.196154
H48	H	1.133439	-0.450639	-0.117455
H49	H	1.081901	-0.362636	-0.038307
H50	H	1.082226	-0.362526	-0.196622
H51	H	1.426481	0.191531	0.411950
H52	H	1.636814	-0.357284	-0.000095
C53	C	1.647122	0.008870	0.343703
C54	C	1.616203	-0.084452	0.378307
C55	C	1.693476	-0.148625	0.306721
H56	H	1.731715	0.019434	0.366963
H57	H	1.635902	0.018069	0.248399
H58	H	1.627433	-0.093647	0.473589
H59	H	1.531624	-0.095046	0.355044
H60	H	1.682256	-0.139426	0.211417
H61	H	1.778064	-0.138053	0.329986
H62	H	1.672500	-0.211951	0.330180
C63	C	0.932738	0.044580	-0.000210
C64	C	1.007966	0.041116	-0.116970
C65	C	1.078775	-0.043759	-0.117196
H66	H	0.878584	-0.008107	-0.000275
H67	H	0.983916	0.042051	0.078903
H68	H	0.956793	0.043636	-0.196062
H69	H	1.062144	0.093783	-0.116929
H70	H	1.129952	-0.046288	-0.038083
H71	H	1.024611	-0.096439	-0.117258
H72	H	1.129833	-0.046117	-0.196409
C73	C	1.647530	0.009101	0.656217
C74	C	1.772041	0.025061	0.621557
C75	C	1.849743	-0.038857	0.693066
H76	H	1.626869	-0.054308	0.632932
H77	H	1.636452	0.018341	0.751532
H78	H	1.783113	0.015813	0.526263
H79	H	1.792741	0.088457	0.644845
H80	H	1.838665	-0.029617	0.788380
H81	H	1.829071	-0.102262	0.669775
H82	H	1.934232	-0.028031	0.669568
H83	H	1.074234	0.070786	-0.000030
