data_functionalizedCrystal
_audit_creation_method	'MofGen! by Chris Wilmer'
_symmetry_space_group_name_H-M	'P1'
_symmetry_Int_Tables_number	1
_symmetry_cell_setting	triclinic
loop_
_symmetry_equiv_pos_as_xyz
  x,y,z
_cell_length_a	27.731993
_cell_length_b	26.809956
_cell_length_c	19.288865
_cell_angle_alpha	89.999100
_cell_angle_beta	97.121679
_cell_angle_gamma	89.997216
loop_
_atom_site_label
_atom_site_type_symbol
_atom_site_fract_x
_atom_site_fract_y
_atom_site_fract_z
O1	O	0.641197	0.041351	-0.082458
O2	O	0.974531	0.374684	0.250875
O3	O	1.307864	0.708018	0.584209
O4	O	0.500438	0.041382	-0.095064
O5	O	0.833772	0.374716	0.238269
O6	O	1.167105	0.708049	0.571602
O7	O	0.574885	0.041356	0.012396
O8	O	0.908218	0.374689	0.345729
O9	O	1.241552	0.708022	0.679062
O10	O	0.566751	0.041377	-0.189918
O11	O	0.900084	0.374711	0.143415
O12	O	1.233417	0.708044	0.476749
O13	O	0.574871	-0.041603	0.012379
O14	O	0.908204	0.291730	0.345713
O15	O	1.241538	0.625063	0.679046
O16	O	0.500424	-0.041577	-0.095081
O17	O	0.833758	0.291756	0.238253
O18	O	1.167091	0.625090	0.571586
O19	O	0.641183	-0.041608	-0.082474
O20	O	0.974517	0.291725	0.250859
O21	O	1.307850	0.625058	0.584192
Zn22	Zn	0.570802	-0.054764	-0.088780
Zn23	Zn	0.904135	0.278569	0.244553
Zn24	Zn	1.237468	0.611902	0.577886
Zn25	Zn	0.570820	0.054538	-0.088759
Zn26	Zn	0.904153	0.387871	0.244575
Zn27	Zn	1.237487	0.721205	0.577908
O28	O	0.566737	-0.041582	-0.189934
O29	O	0.900070	0.291751	0.143399
O30	O	1.233403	0.625085	0.476732
C31	C	0.482423	-0.000094	-0.094814
C32	C	0.815756	0.333240	0.238519
C33	C	1.149090	0.666573	0.571853
C34	C	0.428764	-0.000082	-0.094035
C35	C	0.762098	0.333251	0.239299
C36	C	1.095431	0.666585	0.572632
N37	N	0.570792	-0.129360	-0.088794
N38	N	0.904126	0.203973	0.244539
N39	N	1.237459	0.537306	0.577872
C40	C	0.045595	0.045114	-0.088378
C41	C	0.378928	0.378448	0.244956
C42	C	0.712261	0.711781	0.578289
C43	C	0.247261	0.045128	-0.091348
C44	C	0.580595	0.378461	0.241986
C45	C	0.913928	0.711795	0.575319
O46	O	0.273342	0.083588	-0.091696
O47	O	0.606675	0.416921	0.241637
O48	O	0.940009	0.750254	0.574970
N49	N	0.272475	-0.000092	-0.091728
N50	N	0.605808	0.333241	0.241605
N51	N	0.939142	0.666575	0.574938
C52	C	0.247269	-0.045319	-0.091362
C53	C	0.580603	0.288015	0.241972
C54	C	0.913936	0.621348	0.575305
O55	O	0.273343	-0.083781	-0.091746
O56	O	0.606677	0.249553	0.241587
O57	O	0.940010	0.582886	0.574920
C58	C	0.045604	-0.045332	-0.088387
C59	C	0.378938	0.288001	0.244947
C60	C	0.712271	0.621335	0.578280
C61	C	0.020393	-0.000109	-0.088013
C62	C	0.353726	0.333224	0.245320
C63	C	0.687059	0.666558	0.578654
C64	C	0.020383	0.090334	-0.088003
C65	C	0.353716	0.423667	0.245330
C66	C	0.687050	0.757000	0.578663
C67	C	-0.030031	0.090330	-0.087265
C68	C	0.303302	0.423663	0.246069
C69	C	0.636636	0.756996	0.579402
C70	C	-0.055233	0.045106	-0.086900
C71	C	0.278100	0.378440	0.246433
C72	C	0.611434	0.711773	0.579766
C73	C	-0.030021	-0.000113	-0.087274
C74	C	0.303312	0.333220	0.246059
C75	C	0.636645	0.666554	0.579392
C76	C	0.020400	-0.090558	-0.088015
C77	C	0.353734	0.242775	0.245318
C78	C	0.687067	0.576109	0.578652
C79	C	-0.030019	-0.090557	-0.087269
C80	C	0.303314	0.242776	0.246064
C81	C	0.636648	0.576109	0.579397
C82	C	-0.055231	-0.045334	-0.086896
C83	C	0.278103	0.287999	0.246437
C84	C	0.611436	0.621332	0.579771
C85	C	-0.105637	-0.045340	-0.086171
C86	C	0.227696	0.287993	0.247162
C87	C	0.561029	0.621327	0.580495
N88	N	-0.130851	-0.000120	-0.085791
N89	N	0.202482	0.333213	0.247543
N90	N	0.535816	0.666547	0.580876
C91	C	-0.105649	0.045103	-0.086155
C92	C	0.227684	0.378437	0.247178
C93	C	0.561018	0.711770	0.580512
C94	C	0.353146	-0.045308	-0.092925
C95	C	0.686480	0.288025	0.240408
C96	C	1.019813	0.621358	0.573742
C97	C	0.403562	-0.045305	-0.093670
C98	C	0.736896	0.288028	0.239663
C99	C	1.070229	0.621361	0.572996
C100	C	0.403551	0.045142	-0.093655
C101	C	0.736884	0.378475	0.239679
C102	C	1.070217	0.711808	0.573012
C103	C	0.353133	0.045138	-0.092915
C104	C	0.686467	0.378471	0.240419
C105	C	1.019800	0.711805	0.573752
C106	C	0.327933	-0.000088	-0.092545
C107	C	0.661266	0.333245	0.240789
C108	C	0.994599	0.666578	0.574122
C109	C	-0.211522	0.045092	-0.084604
C110	C	0.121811	0.378425	0.248729
C111	C	0.455145	0.711758	0.582062
C112	C	-0.261941	0.045084	-0.083869
C113	C	0.071393	0.378417	0.249465
C114	C	0.404726	0.711750	0.582798
C115	C	-0.261924	-0.045363	-0.083880
C116	C	0.071409	0.287970	0.249453
C117	C	0.404742	0.621304	0.582786
C118	C	-0.211510	-0.045355	-0.084620
C119	C	0.121823	0.287978	0.248714
C120	C	0.455156	0.621311	0.582047
C121	C	-0.186310	-0.000124	-0.084979
C122	C	0.147023	0.333209	0.248354
C123	C	0.480356	0.666543	0.581687
O124	O	-0.131748	-0.083780	-0.085814
O125	O	0.201585	0.249554	0.247519
O126	O	0.534918	0.582887	0.580852
O127	O	-0.131730	0.083560	-0.085755
O128	O	0.201603	0.416893	0.247578
O129	O	0.534937	0.750226	0.580912
C130	C	0.096009	0.045118	-0.089116
C131	C	0.429342	0.378451	0.244217
C132	C	0.762675	0.711785	0.577550
C133	C	0.121220	-0.000101	-0.089491
C134	C	0.454554	0.333232	0.243843
C135	C	0.787887	0.666565	0.577176
C136	C	0.096018	-0.045324	-0.089126
C137	C	0.429352	0.288009	0.244207
C138	C	0.762685	0.621342	0.577541
C139	C	0.171636	-0.000098	-0.090236
C140	C	0.504970	0.333235	0.243098
C141	C	0.838303	0.666569	0.576431
C142	C	0.196839	0.045125	-0.090600
C143	C	0.530172	0.378459	0.242733
C144	C	0.863505	0.711792	0.576067
C145	C	0.171625	0.090345	-0.090219
C146	C	0.504958	0.423679	0.243114
C147	C	0.838291	0.757012	0.576447
C148	C	0.121211	0.090341	-0.089481
C149	C	0.454544	0.423675	0.243853
C150	C	0.787878	0.757008	0.577186
C151	C	0.121232	-0.090544	-0.089507
C152	C	0.454565	0.242789	0.243827
C153	C	0.787899	0.576122	0.577160
C154	C	0.171646	-0.090537	-0.090246
C155	C	0.504979	0.242797	0.243087
C156	C	0.838313	0.576130	0.576421
C157	C	0.196848	-0.045314	-0.090611
C158	C	0.530181	0.288020	0.242723
C159	C	0.863515	0.621353	0.576056
C160	C	0.603781	-0.473998	-0.041187
C161	C	0.937114	-0.140665	0.292146
C162	C	1.270448	0.192669	0.625480
C163	C	0.603792	-0.682876	-0.041176
C164	C	0.937126	-0.349542	0.292157
C165	C	1.270459	-0.016209	0.625490
O166	O	0.631821	-0.709889	-0.000703
O167	O	0.965154	-0.376556	0.332630
O168	O	1.298487	-0.043223	0.665964
N169	N	0.570823	-0.708987	-0.088743
N170	N	0.904156	-0.375654	0.244590
N171	N	1.237489	-0.042321	0.577923
C172	C	0.537846	-0.682876	-0.136313
C173	C	0.871179	-0.349543	0.197020
C174	C	1.204512	-0.016210	0.530353
O175	O	0.509800	-0.709879	-0.176767
O176	O	0.843133	-0.376545	0.156567
O177	O	1.176467	-0.043212	0.489900
C178	C	0.537832	-0.474000	-0.136320
C179	C	0.871166	-0.140666	0.197013
C180	C	1.204499	0.192667	0.530347
C181	C	0.570807	-0.447891	-0.088755
C182	C	0.904141	-0.114557	0.244579
C183	C	1.237474	0.218776	0.577912
C184	C	0.636753	-0.447889	0.006375
C185	C	0.970086	-0.114556	0.339708
C186	C	1.303420	0.218778	0.673042
C187	C	0.636751	-0.395673	0.006369
C188	C	0.970085	-0.062339	0.339703
C189	C	1.303418	0.270994	0.673036
C190	C	0.603778	-0.369565	-0.041198
C191	C	0.937111	-0.036232	0.292135
C192	C	1.270445	0.297101	0.625468
C193	C	0.570806	-0.395674	-0.088760
C194	C	0.904139	-0.062341	0.244573
C195	C	1.237473	0.270992	0.577906
C196	C	0.504853	-0.447890	-0.183886
C197	C	0.838187	-0.114556	0.149447
C198	C	1.171520	0.218777	0.482781
C199	C	0.504852	-0.395667	-0.183882
C200	C	0.838186	-0.062334	0.149451
C201	C	1.171519	0.271000	0.482784
C202	C	0.537827	-0.369558	-0.136317
C203	C	0.871161	-0.036225	0.197016
C204	C	1.204494	0.297109	0.530350
C205	C	0.537831	-0.317351	-0.136334
C206	C	0.871164	0.015983	0.197000
C207	C	1.204498	0.349316	0.530333
N208	N	0.570801	-0.291239	-0.088767
N209	N	0.904134	0.042094	0.244567
N210	N	1.237467	0.375428	0.577900
C211	C	0.603774	-0.317346	-0.041199
C212	C	0.937108	0.015987	0.292134
C213	C	1.270441	0.349320	0.625468
C214	C	0.537856	-0.792540	-0.136307
C215	C	0.871189	-0.459206	0.197026
C216	C	1.204522	-0.125873	0.530359
C217	C	0.537860	-0.844759	-0.136306
C218	C	0.871193	-0.511425	0.197027
C219	C	1.204526	-0.178092	0.530360
C220	C	0.603806	-0.844754	-0.041168
C221	C	0.937139	-0.511421	0.292165
C222	C	1.270472	-0.178088	0.625498
C223	C	0.603804	-0.792534	-0.041173
C224	C	0.937137	-0.459201	0.292160
C225	C	1.270470	-0.125868	0.625494
C226	C	0.570825	-0.766428	-0.088740
C227	C	0.904159	-0.433095	0.244593
C228	C	1.237492	-0.099761	0.577926
C229	C	0.603769	-0.207688	-0.041215
C230	C	0.937102	0.125645	0.292118
C231	C	1.270436	0.458978	0.625452
C232	C	0.603766	-0.155467	-0.041227
C233	C	0.937099	0.177866	0.292107
C234	C	1.270433	0.511199	0.625440
C235	C	0.537818	-0.155476	-0.136362
C236	C	0.871152	0.177857	0.196971
C237	C	1.204485	0.511190	0.530305
C238	C	0.537823	-0.207693	-0.136353
C239	C	0.871156	0.125641	0.196980
C240	C	1.204489	0.458974	0.530314
C241	C	0.570800	-0.233797	-0.088774
C242	C	0.904133	0.099536	0.244560
C243	C	1.237467	0.432869	0.577893
O244	O	0.509814	-0.290305	-0.176780
O245	O	0.843147	0.043029	0.156553
O246	O	1.176480	0.376362	0.489886
O247	O	0.631809	-0.290335	-0.000741
O248	O	0.965142	0.042998	0.332592
O249	O	1.298475	0.376332	0.665925
C250	C	0.603782	-0.526214	-0.041181
C251	C	0.937116	-0.192881	0.292152
C252	C	1.270449	0.140452	0.625485
C253	C	0.570810	-0.552323	-0.088743
C254	C	0.904144	-0.218990	0.244590
C255	C	1.237477	0.114343	0.577923
C256	C	0.537837	-0.526216	-0.136311
C257	C	0.871170	-0.192883	0.197022
C258	C	1.204503	0.140451	0.530356
C259	C	0.570814	-0.604542	-0.088743
C260	C	0.904147	-0.271209	0.244591
C261	C	1.237481	0.062124	0.577924
C262	C	0.603788	-0.630649	-0.041175
C263	C	0.937121	-0.297316	0.292158
C264	C	1.270454	0.036017	0.625492
C265	C	0.636757	-0.604538	0.006392
C266	C	0.970091	-0.271204	0.339725
C267	C	1.303424	0.062129	0.673059
C268	C	0.636756	-0.552322	0.006386
C269	C	0.970089	-0.218988	0.339720
C270	C	1.303422	0.114345	0.673053
C271	C	0.504867	-0.552328	-0.183878
C272	C	0.838201	-0.218994	0.149455
C273	C	1.171534	0.114339	0.482789
C274	C	0.504872	-0.604544	-0.183869
C275	C	0.838205	-0.271211	0.149464
C276	C	1.171538	0.062123	0.482798
C277	C	0.537845	-0.630651	-0.136301
C278	C	0.871178	-0.297318	0.197032
C279	C	1.204512	0.036015	0.530365
C280	C	0.659199	-0.000131	-0.082725
C281	C	0.992532	0.333202	0.250608
C282	C	1.325865	0.666535	0.583942
C283	C	0.712857	-0.000140	-0.083504
C284	C	1.046191	0.333194	0.249829
C285	C	1.379524	0.666527	0.583163
C286	C	0.574616	-0.000125	0.038262
C287	C	0.907950	0.333208	0.371596
C288	C	1.241283	0.666541	0.704929
C289	C	0.573831	-0.000129	0.115361
C290	C	0.907164	0.333204	0.448694
C291	C	1.240497	0.666537	0.782027
N292	N	0.570833	0.129134	-0.088739
N293	N	0.904166	0.462467	0.244595
N294	N	1.237500	0.795801	0.577928
C295	C	0.567005	-0.000100	-0.215801
C296	C	0.900339	0.333234	0.117532
C297	C	1.233672	0.666567	0.450866
C298	C	0.567791	-0.000092	-0.292899
C299	C	0.901124	0.333241	0.040434
C300	C	1.234458	0.666574	0.373767
C301	C	0.617513	-0.000142	0.160342
C302	C	0.950846	0.333192	0.493675
C303	C	1.284179	0.666525	0.827008
C304	C	0.616775	-0.000134	0.232784
C305	C	0.950108	0.333200	0.566117
C306	C	1.283441	0.666533	0.899451
C307	C	0.572352	-0.000123	0.260242
C308	C	0.905685	0.333210	0.593575
C309	C	1.239018	0.666543	0.926909
C310	C	0.528664	-0.000108	0.215251
C311	C	0.861997	0.333225	0.548584
C312	C	1.195331	0.666558	0.881918
C313	C	0.529403	-0.000111	0.142810
C314	C	0.862737	0.333222	0.476144
C315	C	1.196070	0.666555	0.809477
C316	C	0.537425	-0.029174	0.368296
C317	C	0.870759	0.304159	0.701629
C318	C	1.204092	0.637492	1.034963
C319	C	0.536688	-0.029174	0.440736
C320	C	0.870021	0.304159	0.774069
C321	C	1.203355	0.637492	1.107402
C322	C	0.570069	-0.000112	0.483673
C323	C	0.903403	0.333222	0.817006
C324	C	1.236736	0.666555	1.150339
C325	C	0.604197	0.028945	0.454163
C326	C	0.937530	0.362278	0.787496
C327	C	1.270863	0.695611	1.120829
C328	C	0.604936	0.028942	0.381722
C329	C	0.938269	0.362275	0.715055
C330	C	1.271603	0.695608	1.048389
C331	C	0.571545	-0.000120	0.338791
C332	C	0.904878	0.333214	0.672124
C333	C	1.238212	0.666547	1.005457
C334	C	0.612954	-0.000114	0.607204
C335	C	0.946287	0.333219	0.940538
C336	C	1.279621	0.666552	1.273871
C337	C	0.612214	-0.000103	0.679648
C338	C	0.945547	0.333230	1.012981
C339	C	1.278881	0.666563	1.346314
C340	C	0.524102	-0.000083	0.662113
C341	C	0.857436	0.333250	0.995446
C342	C	1.190769	0.666584	1.328780
C343	C	0.524844	-0.000089	0.589671
C344	C	0.858177	0.333244	0.923005
C345	C	1.191510	0.666577	1.256338
C346	C	0.569271	-0.000107	0.562222
C347	C	0.902604	0.333226	0.895555
C348	C	1.235937	0.666559	1.228888
H349	H	-0.191010	0.081923	-0.084898
H350	H	0.142323	0.415256	0.248435
H351	H	0.475657	0.748590	0.581768
N352	N	0.641740	0.060279	0.349891
N353	N	0.975074	0.393612	0.683225
N354	N	1.308407	0.726945	1.016558
H355	H	0.662777	0.078692	0.388079
H356	H	0.996111	0.412025	0.721412
H357	H	1.329444	0.745358	1.054745
H358	H	0.624262	0.085106	0.316294
H359	H	0.957596	0.418439	0.649627
H360	H	1.290929	0.751773	0.982961
H361	H	-0.050535	-0.127387	-0.086974
H362	H	0.282798	0.205946	0.246359
H363	H	0.616131	0.539280	0.579693
N364	N	0.672322	-0.632702	0.057697
N365	N	1.005656	-0.299369	0.391030
N366	N	1.338989	0.033965	0.724364
H367	H	0.706611	-0.623619	0.050045
H368	H	1.039944	-0.290285	0.383379
H369	H	1.373278	0.043048	0.716712
H370	H	0.667274	-0.669734	0.050449
H371	H	1.000607	-0.336401	0.383783
H372	H	1.333940	-0.003067	0.717116
H373	H	0.508897	-0.052831	0.464756
H374	H	0.842231	0.280502	0.798090
H375	H	1.175564	0.613836	1.131423
H376	H	0.477996	-0.374414	-0.222617
H377	H	0.811329	-0.041080	0.110717
H378	H	1.144662	0.292253	0.444050
N379	N	0.502257	-0.235850	-0.187660
N380	N	0.835591	0.097483	0.145673
N381	N	1.168924	0.430816	0.479006
H382	H	0.480913	-0.257512	-0.161332
H383	H	0.814246	0.075822	0.172002
H384	H	1.147580	0.409155	0.505335
H385	H	0.520691	-0.257491	-0.218216
H386	H	0.854025	0.075842	0.115118
H387	H	1.187358	0.409175	0.448451
N388	N	0.502296	-0.872917	-0.187610
N389	N	0.835629	-0.539584	0.145723
N390	N	1.168962	-0.206250	0.479056
H391	H	0.507749	-0.863828	-0.236854
H392	H	0.841083	-0.530494	0.096479
H393	H	1.174416	-0.197161	0.429813
H394	H	0.468025	-0.863814	-0.179892
H395	H	0.801359	-0.530481	0.153442
H396	H	1.134692	-0.197148	0.486775
N397	N	0.663888	-0.000155	0.281315
N398	N	0.997222	0.333178	0.614649
N399	N	1.330555	0.666512	0.947982
H400	H	0.665554	0.030597	0.311764
H401	H	0.998888	0.363930	0.645097
H402	H	1.332221	0.697263	0.978430
H403	H	0.692119	-0.000186	0.252888
H404	H	1.025452	0.333147	0.586221
H405	H	1.358785	0.666480	0.919555
H406	H	-0.190983	-0.082180	-0.084938
H407	H	0.142350	0.251154	0.248396
H408	H	0.475684	0.584487	0.581729
H409	H	0.478002	-0.469140	-0.222618
H410	H	0.811335	-0.135807	0.110716
H411	H	1.144669	0.197526	0.444049
N412	N	0.660870	-0.000132	0.577594
N413	N	0.994203	0.333202	0.910927
N414	N	1.327536	0.666535	1.244260
H415	H	0.663134	-0.030890	0.547938
H416	H	0.996467	0.302443	0.881271
H417	H	1.329800	0.635776	1.214604
H418	H	0.688401	-0.000117	0.617125
H419	H	1.021735	0.333216	0.950458
H420	H	1.355068	0.666550	1.283792
N421	N	0.659331	-0.000114	0.728167
N422	N	0.992664	0.333219	1.061501
N423	N	1.325997	0.666552	1.394834
H424	H	0.687585	-0.000128	0.699782
H425	H	1.020918	0.333206	1.033116
H426	H	1.354252	0.666539	1.366449
H427	H	0.660933	-0.030867	0.758608
H428	H	0.994267	0.302466	1.091942
H429	H	1.327600	0.635800	1.425275
H430	H	0.510973	-0.134212	-0.175093
H431	H	0.844306	0.199122	0.158240
H432	H	1.177640	0.532455	0.491574
H433	H	0.040898	0.127162	-0.088298
H434	H	0.374231	0.460495	0.245036
H435	H	0.707564	0.793828	0.578369
H436	H	0.100688	0.127167	-0.089177
H437	H	0.434021	0.460500	0.244157
H438	H	0.767355	0.793833	0.577490
N439	N	0.198811	0.139124	-0.090605
N440	N	0.532144	0.472457	0.242729
N441	N	0.865477	0.805790	0.576062
H442	H	0.186024	0.158902	-0.133545
H443	H	0.519358	0.492235	0.199788
H444	H	0.852691	0.825569	0.533121
H445	H	0.234568	0.132219	-0.091102
H446	H	0.567902	0.465553	0.242232
H447	H	0.901235	0.798886	0.575565
N448	N	0.665431	-0.000158	0.130743
N449	N	0.998765	0.333176	0.464077
N450	N	1.332098	0.666509	0.797410
H451	H	0.684567	0.030591	0.147184
H452	H	1.017900	0.363925	0.480518
H453	H	1.351233	0.697258	0.813851
H454	H	0.659237	-0.000176	0.078031
H455	H	0.992570	0.333157	0.411364
H456	H	1.325903	0.666490	0.744697
N457	N	0.639371	-0.872917	0.010137
N458	N	0.972705	-0.539584	0.343470
N459	N	1.306038	-0.206251	0.676804
H460	H	0.634367	-0.909959	0.002915
H461	H	0.967700	-0.576626	0.336249
H462	H	1.301034	-0.243292	0.669582
H463	H	0.633893	-0.863792	0.059356
H464	H	0.967226	-0.530459	0.392689
H465	H	1.300560	-0.197126	0.726023
N466	N	-0.289133	0.093862	-0.083466
N467	N	0.044200	0.427195	0.249867
N468	N	0.377533	0.760528	0.583201
H469	H	-0.265514	0.122510	-0.083806
H470	H	0.067819	0.455843	0.249528
H471	H	0.401153	0.789176	0.582861
H472	H	-0.306036	0.095826	-0.040083
H473	H	0.027297	0.429160	0.293251
H474	H	0.360631	0.762493	0.626584
H475	H	0.478020	-0.625798	-0.222608
H476	H	0.811354	-0.292465	0.110725
H477	H	1.144687	0.040868	0.444058
N478	N	0.198835	-0.139316	-0.090657
N479	N	0.532168	0.194017	0.242676
N480	N	0.865502	0.527350	0.576009
H481	H	0.175215	-0.167963	-0.090314
H482	H	0.508548	0.165370	0.243020
H483	H	0.841881	0.498704	0.576353
H484	H	0.223767	-0.141290	-0.047888
H485	H	0.557101	0.192043	0.285446
H486	H	0.890434	0.525377	0.618779
H487	H	0.478016	-0.531075	-0.222613
H488	H	0.811349	-0.197742	0.110721
H489	H	1.144682	0.135592	0.444054
H490	H	0.631379	0.052611	0.489121
H491	H	0.964712	0.385944	0.822454
H492	H	1.298046	0.719277	1.155788
H493	H	0.487933	-0.000072	0.684468
H494	H	0.821266	0.333261	1.017802
H495	H	1.154599	0.666594	1.351135
H496	H	0.100718	-0.127371	-0.089206
H497	H	0.434051	0.205962	0.244127
H498	H	0.767385	0.539295	0.577460
N499	N	0.672322	-0.524165	0.057689
N500	N	1.005655	-0.190831	0.391022
N501	N	1.338989	0.142502	0.724356
H502	H	0.693207	-0.548634	0.087820
H503	H	1.026541	-0.215301	0.421153
H504	H	1.359874	0.118033	0.754487
H505	H	0.653887	-0.502499	0.088212
H506	H	0.987220	-0.169165	0.421545
H507	H	1.320553	0.164168	0.754878
N508	N	0.477729	-0.000079	0.541151
N509	N	0.811062	0.333254	0.874484
N510	N	1.144396	0.666588	1.207817
H511	H	0.449475	-0.000072	0.569535
H512	H	0.782808	0.333262	0.902868
H513	H	1.116141	0.666595	1.236202
H514	H	0.476112	-0.030834	0.510715
H515	H	0.809445	0.302499	0.844048
H516	H	1.142779	0.635833	1.177382
N517	N	0.501421	-0.060533	0.322000
N518	N	0.834754	0.272801	0.655333
N519	N	1.168088	0.606134	0.988667
H520	H	0.519480	-0.085392	0.295484
H521	H	0.852813	0.247941	0.628817
H522	H	1.186147	0.581275	0.962150
H523	H	0.480973	-0.038240	0.287849
H524	H	0.814307	0.295093	0.621182
H525	H	1.147640	0.628426	0.954515
H526	H	-0.050554	0.127155	-0.086957
H527	H	0.282780	0.460488	0.246376
H528	H	0.616113	0.793822	0.579709
H529	H	0.493831	-0.000102	0.106186
H530	H	0.827164	0.333232	0.439519
H531	H	1.160498	0.666565	0.772853
N532	N	0.639327	-0.127309	0.010089
N533	N	0.972660	0.206024	0.343422
N534	N	1.305993	0.539358	0.676756
H535	H	0.634324	-0.090266	0.002872
H536	H	0.967658	0.243067	0.336206
H537	H	1.300991	0.576400	0.669539
H538	H	0.673600	-0.136437	0.002420
H539	H	1.006934	0.196896	0.335754
H540	H	1.340267	0.530229	0.669087
H541	H	0.492495	-0.000099	0.237612
H542	H	0.825828	0.333234	0.570945
H543	H	1.159161	0.666568	0.904279
H544	H	0.511000	-0.771287	-0.175044
H545	H	0.844333	-0.437954	0.158289
H546	H	1.177667	-0.104621	0.491623
N547	N	0.325943	0.093913	-0.092510
N548	N	0.659276	0.427247	0.240823
N549	N	0.992609	0.760580	0.574157
H550	H	0.349563	0.122560	-0.092856
H551	H	0.682896	0.455893	0.240478
H552	H	1.016229	0.789226	0.573811
H553	H	0.309043	0.095880	-0.049124
H554	H	0.642377	0.429214	0.284210
H555	H	0.975710	0.762547	0.617543
H556	H	0.424084	-0.082130	-0.093986
H557	H	0.757418	0.251203	0.239348
H558	H	1.090751	0.584536	0.572681
N559	N	0.430737	0.093919	-0.094049
N560	N	0.764071	0.427253	0.239285
N561	N	1.097404	0.760586	0.572618
H562	H	0.466500	0.087055	-0.094577
H563	H	0.799834	0.420388	0.238757
H564	H	1.133167	0.753721	0.572090
H565	H	0.425942	0.113660	-0.050837
H566	H	0.759276	0.446993	0.282497
H567	H	1.092609	0.780327	0.615830
N568	N	0.325969	-0.094091	-0.092527
N569	N	0.659302	0.239242	0.240807
N570	N	0.992635	0.572575	0.574140
H571	H	0.349638	-0.122733	-0.092414
H572	H	0.682971	0.210601	0.240919
H573	H	1.016304	0.543934	0.574253
H574	H	0.301255	-0.096206	-0.135530
H575	H	0.634588	0.237127	0.197803
H576	H	0.967922	0.570461	0.531137
H577	H	0.040919	-0.127384	-0.088317
H578	H	0.374253	0.205950	0.245016
H579	H	0.707586	0.539283	0.578350
H580	H	-0.282453	-0.082183	-0.083586
H581	H	0.050880	0.251151	0.249747
H582	H	0.384213	0.584484	0.583080
H583	H	0.630621	-0.228937	-0.002471
H584	H	0.963955	0.104396	0.330863
H585	H	1.297288	0.437730	0.664196
H586	H	0.663604	-0.469141	0.045114
H587	H	0.996937	-0.135808	0.378447
H588	H	1.330271	0.197526	0.711780
N589	N	0.672316	-0.367516	0.057675
N590	N	1.005649	-0.034183	0.391008
N591	N	1.338982	0.299151	0.724342
H592	H	0.693200	-0.391985	0.087807
H593	H	1.026534	-0.058652	0.421140
H594	H	1.359867	0.274682	0.754474
H595	H	0.653878	-0.345851	0.088196
H596	H	0.987211	-0.012518	0.421529
H597	H	1.320544	0.320815	0.754863
H598	H	0.630655	-0.771280	-0.002441
H599	H	0.963988	-0.437946	0.330892
H600	H	1.297321	-0.104613	0.664226
