data_functionalizedCrystal
_audit_creation_method	'MofGen! by Chris Wilmer'
_symmetry_space_group_name_H-M	'P1'
_symmetry_Int_Tables_number	1
_symmetry_cell_setting	triclinic
loop_
_symmetry_equiv_pos_as_xyz
  x,y,z
_cell_length_a	19.288856
_cell_length_b	18.366186
_cell_length_c	19.288865
_cell_angle_alpha	89.988521
_cell_angle_beta	96.865496
_cell_angle_gamma	90.011039
loop_
_atom_site_label
_atom_site_type_symbol
_atom_site_fract_x
_atom_site_fract_y
_atom_site_fract_z
O1	O	-0.921356	-0.060591	0.086620
O2	O	-0.588023	0.272742	0.419954
O3	O	-0.254690	0.606075	0.753287
O4	O	-0.719095	-0.060586	0.098315
O5	O	-0.385762	0.272747	0.431649
O6	O	-0.052428	0.606080	0.764982
O7	O	-0.826070	-0.060575	-0.008663
O8	O	-0.492737	0.272759	0.324671
O9	O	-0.159403	0.606092	0.658004
O10	O	-0.814381	-0.060603	0.193598
O11	O	-0.481048	0.272730	0.526932
O12	O	-0.147715	0.606064	0.860265
O13	O	-0.826052	0.060525	-0.008668
O14	O	-0.492719	0.393858	0.324666
O15	O	-0.159385	0.727191	0.657999
O16	O	-0.719077	0.060513	0.098310
O17	O	-0.385744	0.393846	0.431643
O18	O	-0.052410	0.727180	0.764977
O19	O	-0.921338	0.060508	0.086615
O20	O	-0.588005	0.393842	0.419949
O21	O	-0.254672	0.727175	0.753282
Zn22	Zn	-0.820205	0.079738	0.092462
Zn23	Zn	-0.486871	0.413071	0.425795
Zn24	Zn	-0.153538	0.746404	0.759129
Zn25	Zn	-0.820229	-0.079816	0.092469
Zn26	Zn	-0.486895	0.253517	0.425802
Zn27	Zn	-0.153562	0.586851	0.759135
O28	O	-0.814363	0.060496	0.193593
O29	O	-0.481030	0.393830	0.526927
O30	O	-0.147697	0.727163	0.860260
C31	C	-0.693209	-0.000036	0.097937
C32	C	-0.359876	0.333297	0.431271
C33	C	-0.026543	0.666631	0.764604
C34	C	-0.616106	-0.000034	0.096811
C35	C	-0.282772	0.333300	0.430144
C36	C	0.050561	0.666633	0.763477
C37	C	-0.052064	-0.000031	0.151959
C38	C	0.281269	0.333302	0.485292
C39	C	0.614602	0.666636	0.818626
C40	C	-0.124511	-0.000036	0.153024
C41	C	0.208823	0.333297	0.486357
C42	C	0.542156	0.666630	0.819690
C43	C	-0.169218	-0.000027	0.090254
C44	C	0.164116	0.333306	0.423587
C45	C	0.497449	0.666640	0.756921
C46	C	-0.141472	-0.000031	0.026415
C47	C	0.191861	0.333303	0.359748
C48	C	0.525194	0.666636	0.693081
C49	C	-0.069027	-0.000033	0.025352
C50	C	0.264306	0.333301	0.358685
C51	C	0.597640	0.666634	0.692019
C52	C	-0.290482	0.042406	0.043438
C53	C	0.042852	0.375740	0.376771
C54	C	0.376185	0.709073	0.710105
C55	C	-0.362925	0.042413	0.044504
C56	C	-0.029592	0.375746	0.377837
C57	C	0.303741	0.709079	0.711170
C58	C	-0.392664	-0.000025	0.093530
C59	C	-0.059330	0.333309	0.426863
C60	C	0.274003	0.666642	0.760196
C61	C	-0.349948	-0.042459	0.141502
C62	C	-0.016614	0.290875	0.474835
C63	C	0.316719	0.624208	0.808168
C64	C	-0.277502	-0.042461	0.140439
C65	C	0.055831	0.290873	0.473772
C66	C	0.389164	0.624206	0.807106
C67	C	-0.247773	-0.000025	0.091399
C68	C	0.085560	0.333308	0.424733
C69	C	0.418893	0.666641	0.758066
C70	C	-0.498955	-0.000032	0.158519
C71	C	-0.165622	0.333302	0.491852
C72	C	0.167711	0.666635	0.825186
C73	C	-0.571404	-0.000042	0.159581
C74	C	-0.238070	0.333292	0.492914
C75	C	0.095263	0.666625	0.826248
C76	C	-0.588364	-0.000029	0.032971
C77	C	-0.255031	0.333304	0.366304
C78	C	0.078302	0.666638	0.699637
C79	C	-0.515917	-0.000026	0.031910
C80	C	-0.182584	0.333307	0.365244
C81	C	0.150750	0.666640	0.698577
C82	C	-0.471217	-0.000024	0.094687
C83	C	-0.137883	0.333309	0.428020
C84	C	0.195450	0.666642	0.761353
C85	C	-0.825685	-0.000023	-0.034542
C86	C	-0.492352	0.333311	0.298792
C87	C	-0.159018	0.666644	0.632125
C88	C	-0.824556	-0.000016	-0.111645
C89	C	-0.491223	0.333317	0.221688
C90	C	-0.157889	0.666650	0.555021
C91	C	0.052776	-0.000039	0.086995
C92	C	0.386110	0.333295	0.420329
C93	C	0.719443	0.666628	0.753662
C94	C	-0.024327	-0.000031	0.088128
C95	C	0.309007	0.333303	0.421462
C96	C	0.642340	0.666636	0.754795
N97	N	-0.820194	0.188629	0.092457
N98	N	-0.486860	0.521962	0.425790
N99	N	-0.153527	0.855295	0.759123
N100	N	-0.820245	-0.188707	0.092468
N101	N	-0.486912	0.144626	0.425802
N102	N	-0.153579	0.477960	0.759135
C103	C	-0.867578	0.226734	0.045110
C104	C	-0.534244	0.560068	0.378443
C105	C	-0.200911	0.893401	0.711777
C106	C	-0.867582	0.302962	0.045107
C107	C	-0.534249	0.636296	0.378440
C108	C	-0.200915	0.969629	0.711774
C109	C	-0.820209	0.341082	0.092462
C110	C	-0.486876	0.674415	0.425796
C111	C	-0.153542	1.007748	0.759129
C112	C	-0.772816	0.302967	0.139813
C113	C	-0.439483	0.636300	0.473146
C114	C	-0.106149	0.969633	0.806479
C115	C	-0.772808	0.226740	0.139810
C116	C	-0.439475	0.560074	0.473143
C117	C	-0.106142	0.893407	0.806476
C118	C	-0.810911	0.461833	0.155751
C119	C	-0.477577	0.795166	0.489084
C120	C	-0.144244	1.128500	0.822417
C121	C	-0.810923	0.538058	0.155754
C122	C	-0.477590	0.871391	0.489088
C123	C	-0.144257	1.204725	0.822421
C124	C	-0.820229	0.576189	0.092471
C125	C	-0.486895	0.909522	0.425804
C126	C	-0.153562	1.242856	0.759138
C127	C	-0.829536	0.538086	0.029181
C128	C	-0.496203	0.871419	0.362515
C129	C	-0.162870	1.204752	0.695848
C130	C	-0.829529	0.461859	0.029178
C131	C	-0.496195	0.795193	0.362512
C132	C	-0.162862	1.128526	0.695845
C133	C	-0.820212	0.423736	0.092471
C134	C	-0.486878	0.757070	0.425804
C135	C	-0.153545	1.090403	0.759137
C136	C	-0.867620	0.696950	0.045117
C137	C	-0.534287	1.030283	0.378451
C138	C	-0.200953	1.363616	0.711784
C139	C	-0.867620	0.773179	0.045113
C140	C	-0.534286	1.106512	0.378446
C141	C	-0.200953	1.439846	0.711780
C142	C	-0.772857	0.773182	0.139825
C143	C	-0.439524	1.106515	0.473158
C144	C	-0.106190	1.439848	0.806492
C145	C	-0.772854	0.696954	0.139823
C146	C	-0.439521	1.030287	0.473156
C147	C	-0.106187	1.363621	0.806490
C148	C	-0.820239	0.658843	0.092470
C149	C	-0.486906	0.992176	0.425803
C150	C	-0.153573	1.325509	0.759136
C151	C	-0.887324	-0.000014	-0.156343
C152	C	-0.553991	0.333319	0.176990
C153	C	-0.220657	0.666653	0.510323
C154	C	-0.886263	-0.000026	-0.228790
C155	C	-0.552930	0.333308	0.104543
C156	C	-0.219597	0.666641	0.437876
C157	C	-0.822431	-0.000025	-0.256536
C158	C	-0.489098	0.333309	0.076797
C159	C	-0.155764	0.666642	0.410131
C160	C	-0.759655	-0.000031	-0.211828
C161	C	-0.426321	0.333302	0.121505
C162	C	-0.092988	0.666636	0.454839
C163	C	-0.760717	-0.000027	-0.139383
C164	C	-0.427384	0.333307	0.193951
C165	C	-0.094050	0.666640	0.527284
C166	C	-0.772245	0.042395	-0.364824
C167	C	-0.438912	0.375728	-0.031490
C168	C	-0.105578	0.709062	0.301843
C169	C	-0.771185	0.042395	-0.437268
C170	C	-0.437852	0.375729	-0.103935
C171	C	-0.104518	0.709062	0.229398
C172	C	-0.819151	-0.000041	-0.479982
C173	C	-0.485818	0.333292	-0.146648
C174	C	-0.152485	0.666626	0.186685
C175	C	-0.868189	-0.042468	-0.450243
C176	C	-0.534856	0.290865	-0.116910
C177	C	-0.201523	0.624199	0.216424
C178	C	-0.869252	-0.042464	-0.377798
C179	C	-0.535918	0.290870	-0.044464
C180	C	-0.202585	0.624203	0.288869
C181	C	-0.821272	-0.000030	-0.335090
C182	C	-0.487939	0.333304	-0.001757
C183	C	-0.154605	0.666637	0.331577
C184	C	-0.880774	-0.000052	-0.603236
C185	C	-0.547440	0.333281	-0.269902
C186	C	-0.214107	0.666614	0.063431
C187	C	-0.879710	-0.000068	-0.675684
C188	C	-0.546377	0.333265	-0.342350
C189	C	-0.213044	0.666598	-0.009017
C190	C	-0.753100	-0.000066	-0.658720
C191	C	-0.419766	0.333267	-0.325386
C192	C	-0.086433	0.666601	0.007947
C193	C	-0.754165	-0.000057	-0.586273
C194	C	-0.420832	0.333276	-0.252940
C195	C	-0.087498	0.666609	0.080393
C196	C	-0.818004	-0.000047	-0.558536
C197	C	-0.484670	0.333286	-0.225203
C198	C	-0.151337	0.666620	0.108131
C199	C	-0.814748	-0.000057	0.219472
C200	C	-0.481415	0.333276	0.552806
C201	C	-0.148082	0.666609	0.886139
C202	C	-0.815877	-0.000068	0.296576
C203	C	-0.482544	0.333265	0.629909
C204	C	-0.149211	0.666598	0.963242
H205	H	-0.242726	-0.077013	0.179498
H206	H	0.090607	0.256320	0.512832
H207	H	0.423941	0.589653	0.846165
H208	H	-0.837113	0.569130	-0.022350
H209	H	-0.503780	0.902464	0.310983
H210	H	-0.170447	1.235797	0.644317
N211	N	-0.154441	-0.000028	0.221871
N212	N	0.178892	0.333305	0.555204
N213	N	0.512225	0.666639	0.888537
H214	H	-0.184131	-0.044918	0.225141
H215	H	0.149203	0.288416	0.558475
H216	H	0.482536	0.621749	0.891808
H217	H	-0.115094	-0.000000	0.261437
H218	H	0.218240	0.333333	0.594771
H219	H	0.551573	0.666667	0.928104
H220	H	-0.374158	-0.077013	0.181425
H221	H	-0.040825	0.256320	0.514758
H222	H	0.292508	0.589653	0.848092
H223	H	-0.906202	0.665918	0.006557
H224	H	-0.572869	0.999251	0.339891
H225	H	-0.239535	1.332585	0.673224
H226	H	-0.906203	0.804205	0.006554
H227	H	-0.572870	1.137538	0.339887
H228	H	-0.239537	1.470872	0.673221
N229	N	-0.953965	-0.000025	-0.277013
N230	N	-0.620632	0.333308	0.056320
N231	N	-0.287299	0.666642	0.389654
H232	H	-0.994567	-0.000019	-0.248448
H233	H	-0.661234	0.333314	0.084885
H234	H	-0.327901	0.666648	0.418218
H235	H	-0.956268	0.044868	-0.307449
H236	H	-0.622935	0.378201	0.025885
H237	H	-0.289602	0.711534	0.359218
H238	H	-0.593985	-0.000048	0.211562
H239	H	-0.260652	0.333285	0.544895
H240	H	0.072682	0.666619	0.878228
N241	N	-0.450737	-0.000038	0.226223
N242	N	-0.117404	0.333296	0.559556
N243	N	0.215930	0.666629	0.892889
H244	H	-0.479305	-0.000046	0.266823
H245	H	-0.145971	0.333287	0.600156
H246	H	0.187362	0.666620	0.933489
H247	H	-0.420318	-0.044931	0.228539
H248	H	-0.086984	0.288402	0.561873
H249	H	0.246349	0.621736	0.895206
N250	N	-0.721745	0.655856	0.190895
N251	N	-0.388412	0.989189	0.524228
N252	N	-0.055079	1.322522	0.857561
H253	H	-0.729588	0.669106	0.240173
H254	H	-0.396254	1.002439	0.573507
H255	H	-0.062921	1.335772	0.906840
H256	H	-0.728950	0.601795	0.183649
H257	H	-0.395617	0.935129	0.516982
H258	H	-0.062283	1.268462	0.850315
H259	H	-0.624764	-0.000027	-0.018138
H260	H	-0.291431	0.333306	0.315196
H261	H	0.041903	0.666640	0.648529
H262	H	-0.909179	-0.077011	-0.353588
H263	H	-0.575845	0.256323	-0.020254
H264	H	-0.242512	0.589656	0.313079
N265	N	-0.485995	-0.000020	-0.036936
N266	N	-0.152661	0.333313	0.296397
N267	N	0.180672	0.666647	0.629730
H268	H	-0.525307	-0.000014	-0.076540
H269	H	-0.191974	0.333319	0.256793
H270	H	0.141359	0.666653	0.590126
H271	H	-0.456298	0.044873	-0.040137
H272	H	-0.122964	0.378207	0.293196
H273	H	0.210369	0.711540	0.626530
N274	N	-0.686461	-0.000047	-0.538063
N275	N	-0.353127	0.333286	-0.204730
N276	N	-0.019794	0.666619	0.128603
H277	H	-0.684074	0.044846	-0.507638
H278	H	-0.350741	0.378180	-0.174305
H279	H	-0.017408	0.711513	0.159028
H280	H	-0.684124	-0.044967	-0.507662
H281	H	-0.350791	0.288367	-0.174329
H282	H	-0.017458	0.621700	0.159005
N283	N	-0.947413	-0.000061	-0.723899
N284	N	-0.614080	0.333272	-0.390566
N285	N	-0.280746	0.666606	-0.057233
H286	H	-0.949807	-0.044956	-0.754323
H287	H	-0.616474	0.288378	-0.420990
H288	H	-0.283141	0.621711	-0.087657
H289	H	-0.987974	-0.000024	-0.695283
H290	H	-0.654640	0.333310	-0.361950
H291	H	-0.321307	0.666643	-0.028617
H292	H	-0.906160	0.195706	0.006551
H293	H	-0.572826	0.529040	0.339884
H294	H	-0.239493	0.862373	0.673217
H295	H	-0.731253	0.076938	-0.461475
H296	H	-0.397919	0.410271	-0.128142
H297	H	-0.064586	0.743604	0.205192
N298	N	-0.956176	-0.000004	-0.126426
N299	N	-0.622842	0.333329	0.206907
N300	N	-0.289509	0.666662	0.540240
H301	H	-0.995778	-0.000005	-0.165740
H302	H	-0.662445	0.333328	0.167593
H303	H	-0.329112	0.666661	0.500926
H304	H	-0.959384	-0.044896	-0.096729
H305	H	-0.626051	0.288437	0.236605
H306	H	-0.292717	0.621771	0.569938
N307	N	-0.258401	0.088190	-0.009430
N308	N	0.074932	0.421523	0.323903
N309	N	0.408266	0.754856	0.657236
H310	H	-0.232343	0.055700	-0.039703
H311	H	0.100991	0.389033	0.293631
H312	H	0.434324	0.722367	0.626964
H313	H	-0.296483	0.115076	-0.039607
H314	H	0.036851	0.448410	0.293726
H315	H	0.370184	0.781743	0.627060
H316	H	-0.907248	-0.077024	-0.485019
H317	H	-0.573915	0.256309	-0.151686
H318	H	-0.240581	0.589643	0.181647
H319	H	-0.733183	0.076956	-0.330052
H320	H	-0.399850	0.410289	0.003282
H321	H	-0.066517	0.743622	0.336615
H322	H	-0.707682	-0.000032	-0.234423
H323	H	-0.374348	0.333302	0.098910
H324	H	-0.041015	0.666635	0.432244
H325	H	-0.177877	-0.000025	-0.024693
H326	H	0.155456	0.333308	0.308641
H327	H	0.488789	0.666641	0.641974
H328	H	-0.397699	0.076969	0.005445
H329	H	-0.064366	0.410302	0.338778
H330	H	0.268968	0.743636	0.672112
N331	N	-0.949624	-0.000044	-0.573312
N332	N	-0.616290	0.333289	-0.239978
N333	N	-0.282957	0.666622	0.093355
H334	H	-0.989228	-0.000051	-0.612624
H335	H	-0.655895	0.333283	-0.279291
H336	H	-0.322561	0.666616	0.054042
H337	H	-0.952829	-0.044933	-0.543610
H338	H	-0.619495	0.288400	-0.210276
H339	H	-0.286162	0.621733	0.123057
N340	N	-0.693015	-0.000029	-0.091167
N341	N	-0.359681	0.333304	0.242167
N342	N	-0.026348	0.666637	0.575500
H343	H	-0.652414	-0.000033	-0.119733
H344	H	-0.319081	0.333300	0.213600
H345	H	0.014253	0.666634	0.546933
H346	H	-0.690691	0.044867	-0.060751
H347	H	-0.357357	0.378200	0.272582
H348	H	-0.024024	0.711534	0.605915
H349	H	-0.046445	-0.000033	-0.026628
H350	H	0.286888	0.333301	0.306705
H351	H	0.620222	0.666634	0.640038
H352	H	-0.837105	0.430839	-0.022354
H353	H	-0.503772	0.764172	0.310979
H354	H	-0.170439	1.097505	0.644313
H355	H	-0.015673	-0.000033	0.203076
H356	H	0.317660	0.333301	0.536410
H357	H	0.650994	0.666634	0.869743
N358	N	-0.721755	0.814285	0.190897
N359	N	-0.388422	1.147618	0.524231
N360	N	-0.055088	1.480951	0.857564
H361	H	-0.728948	0.868357	0.183714
H362	H	-0.395614	1.201690	0.517048
H363	H	-0.062281	1.535024	0.850381
H364	H	-0.729619	0.800947	0.240153
H365	H	-0.396285	1.134281	0.573486
H366	H	-0.062952	1.467614	0.906820
H367	H	-0.906169	0.333994	0.006550
H368	H	-0.572836	0.667327	0.339883
H369	H	-0.239502	1.000660	0.673217
H370	H	-0.803349	0.569076	0.207288
H371	H	-0.470016	0.902409	0.540622
H372	H	-0.136682	1.235743	0.873955
N373	N	-0.800875	0.420709	0.224010
N374	N	-0.467541	0.754043	0.557344
N375	N	-0.134208	1.087376	0.890677
H376	H	-0.794988	0.456412	0.264102
H377	H	-0.461654	0.789745	0.597436
H378	H	-0.128321	1.123079	0.930769
H379	H	-0.843056	0.389070	0.227952
H380	H	-0.509722	0.722403	0.561286
H381	H	-0.176389	1.055737	0.894619
H382	H	-0.734243	0.334007	0.178369
H383	H	-0.400910	0.667340	0.511703
H384	H	-0.067576	1.000674	0.845036
H385	H	-0.734222	0.195714	0.178366
H386	H	-0.400888	0.529047	0.511699
H387	H	-0.067555	0.862381	0.845032
N388	N	-0.684250	-0.000073	-0.688634
N389	N	-0.350917	0.333260	-0.355301
N390	N	-0.017583	0.666593	-0.021967
H391	H	-0.693100	-0.000078	-0.741311
H392	H	-0.359767	0.333255	-0.407978
H393	H	-0.026434	0.666589	-0.074645
H394	H	-0.656784	0.044820	-0.672279
H395	H	-0.323450	0.378154	-0.338946
H396	H	0.009883	0.711487	-0.005613
