data_functionalizedCrystal
_audit_creation_method	'MofGen! by Chris Wilmer'
_symmetry_space_group_name_H-M	'P1'
_symmetry_Int_Tables_number	1
_symmetry_cell_setting	triclinic
loop_
_symmetry_equiv_pos_as_xyz
  x,y,z
_cell_length_a	29.999520
_cell_length_b	29.998686
_cell_length_c	29.995014
_cell_angle_alpha	60.005185
_cell_angle_beta	60.010401
_cell_angle_gamma	59.993433
loop_
_atom_site_label
_atom_site_type_symbol
_atom_site_fract_x
_atom_site_fract_y
_atom_site_fract_z
O1	O	0.061772	-0.651300	0.544623
O2	O	0.023267	-0.507084	0.438819
O3	O	0.114589	-0.598332	0.438743
O4	O	-0.029550	-0.560051	0.544699
O5	O	0.144886	-0.568039	0.468961
O6	O	0.053564	-0.476791	0.469038
O7	O	0.092069	-0.621007	0.574841
Zn8	Zn	0.077627	-0.544089	0.526737
Zn9	Zn	0.037709	-0.584002	0.486923
O10	O	0.000748	-0.529758	0.574918
N11	N	0.104871	-0.516854	0.553912
N12	N	0.010470	-0.611242	0.459748
C13	C	0.143162	-0.478782	0.827124
C14	C	0.378203	-0.478734	0.591892
C15	C	0.143005	-0.478752	0.591997
C16	C	0.142986	-0.243586	0.592008
C17	C	0.180857	-0.357087	0.629814
C18	C	0.180866	-0.440920	0.629807
C19	C	0.201840	-0.419964	0.650755
C20	C	0.293272	-0.404201	0.602606
C21	C	0.350426	-0.423248	0.583534
C22	C	0.350451	-0.515727	0.618798
C23	C	0.293297	-0.496678	0.637872
C24	C	0.194628	-0.328499	0.573626
C25	C	0.175551	-0.271340	0.554591
C26	C	0.128936	-0.271362	0.647935
C27	C	0.148014	-0.328521	0.666970
C28	C	0.124672	-0.427119	0.643641
C29	C	0.105611	-0.446170	0.624592
C30	C	0.198934	-0.492820	0.577889
C31	C	0.217998	-0.473770	0.596931
C32	C	0.124740	-0.427136	0.742229
C33	C	0.105728	-0.446202	0.799386
C34	C	0.199085	-0.492863	0.799337
C35	C	0.218096	-0.473798	0.742178
C36	C	0.180923	-0.440933	0.713626
C37	C	0.264710	-0.440915	0.629773
C38	C	0.121509	-0.499370	0.889991
C39	C	0.441068	-0.498953	0.570621
C40	C	0.121297	-0.499349	0.571429
C41	C	0.121653	-0.180715	0.571802
C42	C	-0.111071	-0.648912	0.421584
C43	C	-0.027286	-0.649018	0.421777
C44	C	-0.048200	-0.669944	0.400740
C45	C	-0.064036	-0.761340	0.448814
C46	C	-0.045033	-0.818500	0.467893
C47	C	0.047447	-0.818609	0.432797
C48	C	0.028444	-0.761451	0.413717
C49	C	-0.139731	-0.662677	0.477755
C50	C	-0.196885	-0.643554	0.496701
C51	C	-0.196717	-0.596907	0.403303
C52	C	-0.139562	-0.616030	0.384357
C53	C	-0.041053	-0.592827	0.407952
C54	C	-0.022041	-0.573809	0.427083
C55	C	0.024504	-0.667167	0.473848
C56	C	0.005492	-0.686188	0.454725
C57	C	-0.040886	-0.592836	0.309259
C58	C	-0.021740	-0.573821	0.252102
C59	C	0.024886	-0.667185	0.252163
C60	C	0.005743	-0.686199	0.309322
C61	C	-0.027145	-0.649023	0.337868
C62	C	-0.027299	-0.732818	0.421728
N63	N	0.492511	-0.516826	0.553742
O64	O	0.679283	-0.525926	0.419277
O65	O	0.679465	-0.632059	0.563349
O66	O	0.679393	-0.631817	0.471975
O67	O	0.679355	-0.526168	0.510650
O68	O	0.588593	-0.601610	0.502313
O69	O	0.588665	-0.601852	0.593686
O70	O	0.588483	-0.495720	0.449614
Zn71	Zn	0.574158	-0.543990	0.526467
Zn72	Zn	0.693790	-0.583788	0.486496
O73	O	0.588555	-0.495962	0.540987
N74	N	0.775436	-0.610952	0.459215
N75	N	0.104844	-0.129269	0.553931
O76	O	-0.029548	0.057600	0.544709
O77	O	0.114530	0.057617	0.438578
O78	O	0.023130	0.057594	0.438850
O79	O	0.061852	0.057623	0.544437
O80	O	0.053431	-0.033213	0.469115
O81	O	0.144831	-0.033190	0.468843
O82	O	0.000753	-0.033207	0.574974
Zn83	Zn	0.077603	-0.047616	0.526714
Zn84	Zn	0.037680	0.072026	0.486838
O85	O	0.092153	-0.033184	0.574702
N86	N	0.010432	0.153679	0.459622
N87	N	0.105130	-0.516904	0.941437
O88	O	0.095923	-0.651280	1.128292
O89	O	-0.010184	-0.507155	1.128318
O90	O	-0.009938	-0.598539	1.128284
O91	O	0.095677	-0.559897	1.128326
O92	O	0.020315	-0.568257	1.037481
O93	O	0.020068	-0.476874	1.037515
O94	O	0.126176	-0.620999	1.037489
Zn95	Zn	0.077925	-0.544128	1.023085
Zn96	Zn	0.038066	-0.584026	1.142722
O97	O	0.125929	-0.529616	1.037523
N98	N	0.010860	-0.611256	1.224371
C99	C	0.034807	-0.473765	0.439352
C100	C	0.147897	-0.586765	0.439257
C101	C	0.080529	-0.654326	0.574308
C102	C	-0.032561	-0.541326	0.574403
C103	C	0.634087	-0.631571	0.596668
C104	C	0.633999	-0.631272	0.483513
C105	C	0.633858	-0.496206	0.416295
C106	C	0.633949	-0.496507	0.529449
C107	C	0.147793	0.012327	0.439058
C108	C	0.034644	0.012187	0.439432
C109	C	-0.032548	0.012195	0.574457
C110	C	0.080639	0.012222	0.574120
C111	C	-0.009670	-0.473857	1.082920
C112	C	-0.009359	-0.587018	1.082860
C113	C	0.125662	-0.654297	1.082887
C114	C	0.125358	-0.541129	1.082927
H115	H	0.059977	-0.434960	0.822668
O116	O	-0.081924	-0.531539	0.614116
C117	C	-0.091695	-0.487344	0.626713
H118	H	-0.051156	-0.482958	0.614636
H119	H	-0.118045	-0.448205	0.603273
C120	C	-0.171326	-0.503252	0.703287
C121	C	-0.121535	-0.497868	0.688458
H122	H	-0.189735	-0.509742	0.741373
H123	H	-0.164745	-0.533026	0.694799
H124	H	-0.193278	-0.470634	0.683749
H125	H	-0.099581	-0.530488	0.707990
H126	H	-0.128113	-0.468099	0.696951
O127	O	0.164997	-0.531368	1.082957
C128	C	0.212119	-0.578253	1.082934
H129	H	0.200202	-0.615788	1.100116
H130	H	0.241801	-0.573845	1.039369
C131	C	0.254233	-0.538615	1.097443
C132	C	0.239596	-0.584718	1.118551
H133	H	0.271184	-0.542603	1.119412
H134	H	0.222487	-0.507027	1.097457
H135	H	0.278966	-0.534947	1.061140
H136	H	0.214859	-0.588382	1.154851
H137	H	0.271339	-0.616307	1.118544
H138	H	0.026581	-0.432337	0.406123
O139	O	0.090428	0.012252	0.613749
C140	C	0.043567	0.012233	0.660877
H141	H	0.006018	0.029417	0.648967
H142	H	0.047993	-0.031333	0.690568
C143	C	0.083238	0.026743	0.702965
C144	C	0.037120	0.047854	0.688337
H145	H	0.079262	0.048714	0.719905
H146	H	0.114810	0.026754	0.671215
H147	H	0.086922	-0.009561	0.727705
H148	H	0.033441	0.084154	0.663592
H149	H	0.005547	0.047849	0.720083
H150	H	0.189085	0.012584	0.405656
O151	O	-0.081951	0.012295	0.614159
C152	C	-0.123125	0.059314	0.595491
H153	H	-0.104529	0.092182	0.561483
H154	H	-0.142437	0.048673	0.579210
C155	C	-0.189971	0.040283	0.684800
C156	C	-0.167133	0.080653	0.643034
H157	H	-0.217119	0.053444	0.714127
H158	H	-0.162232	0.008603	0.697377
H159	H	-0.206060	0.031419	0.671226
H160	H	-0.151038	0.089511	0.656606
H161	H	-0.194870	0.112334	0.630460
O162	O	0.024681	0.012138	0.399930
C163	C	-0.028988	0.012135	0.419827
H164	H	-0.043337	-0.005039	0.466333
H165	H	-0.057249	0.055692	0.406010
C166	C	-0.012430	-0.002415	0.340285
C167	C	-0.030052	-0.023513	0.397404
H168	H	-0.013088	-0.024402	0.326452
H169	H	0.023727	-0.002411	0.326879
H170	H	-0.035983	0.033882	0.328778
H171	H	-0.006496	-0.059807	0.408910
H172	H	-0.066206	-0.023524	0.410812
H173	H	0.088756	-0.695753	0.607538
H174	H	0.186762	-0.248063	0.508836
O175	O	-0.049363	-0.424455	1.082952
C176	C	-0.029707	-0.390477	1.082955
H177	H	0.005343	-0.416735	1.100148
H178	H	-0.014554	-0.362903	1.039397
C179	C	-0.119102	-0.322892	1.097456
C180	C	-0.076055	-0.355142	1.118577
H181	H	-0.147692	-0.301093	1.119427
H182	H	-0.132344	-0.345782	1.097452
H183	H	-0.106467	-0.299918	1.061158
H184	H	-0.088689	-0.378120	1.154872
H185	H	-0.062816	-0.332255	1.118588
O186	O	0.634053	-0.671310	0.646052
C187	C	0.587060	-0.686014	0.670233
H188	H	0.554153	-0.650959	0.652205
H189	H	0.597712	-0.723919	0.661870
C190	C	0.606208	-0.741280	0.754439
C191	C	0.565790	-0.698223	0.732301
H192	H	0.593089	-0.748814	0.792726
H193	H	0.637869	-0.731376	0.738148
H194	H	0.615081	-0.772863	0.747465
H195	H	0.556923	-0.666640	0.739269
H196	H	0.534127	-0.708123	0.748595
H197	H	-0.042525	-0.595273	1.082811
H198	H	0.221368	-0.351757	0.543370
O199	O	0.633991	-0.670800	0.473562
C200	C	0.633950	-0.650914	0.419899
H201	H	0.616719	-0.604408	0.405552
H202	H	0.677500	-0.664696	0.391626
C203	C	0.619515	-0.730517	0.436475
C204	C	0.598347	-0.673397	0.418855
H205	H	0.597556	-0.744387	0.435829
H206	H	0.619544	-0.743916	0.472628
H207	H	0.655806	-0.741994	0.412911
H208	H	0.562060	-0.661920	0.442422
H209	H	0.598311	-0.659996	0.382706
O210	O	0.165389	-0.703673	1.082804
C211	C	0.178077	-0.713459	1.035758
H212	H	0.141986	-0.687979	1.020077
H213	H	0.215505	-0.701704	1.002835
C214	C	0.234453	-0.805741	1.069282
C215	C	0.190125	-0.774450	1.050026
H216	H	0.241888	-0.843363	1.078082
H217	H	0.225908	-0.799148	1.100977
H218	H	0.265639	-0.795939	1.041843
H219	H	0.158939	-0.784247	1.077467
H220	H	0.198665	-0.781046	1.018335
H221	H	0.633799	-0.462884	0.374920
H222	H	0.189295	-0.594927	0.405983
H223	H	0.094465	-0.400370	0.718985
O224	O	0.633910	-0.456963	0.539416
C225	C	0.633982	-0.476859	0.593069
H226	H	0.616832	-0.511927	0.618903
H227	H	0.677555	-0.492064	0.592232
C228	C	0.619428	-0.387611	0.586180
C229	C	0.598360	-0.430679	0.617911
H230	H	0.597457	-0.359126	0.601503
H231	H	0.619382	-0.374207	0.550032
H232	H	0.655738	-0.400289	0.585485
H233	H	0.562053	-0.418003	0.618600
H234	H	0.598399	-0.444081	0.654059
H235	H	0.263847	-0.485039	0.718893
O236	O	0.235271	-0.524793	0.826984
C237	C	0.288935	-0.532864	0.789479
H238	H	0.288804	-0.526475	0.748744
H239	H	0.305301	-0.502435	0.783392
C240	C	0.325787	-0.599266	0.861789
C241	C	0.325626	-0.591423	0.811759
H242	H	0.348421	-0.635386	0.875533
H243	H	0.289633	-0.593827	0.887058
H244	H	0.339424	-0.573904	0.856710
H245	H	0.311984	-0.616779	0.816839
H246	H	0.361780	-0.596867	0.786491
H247	H	0.094434	-0.400372	0.670409
H248	H	0.059853	-0.434921	0.635844
H249	H	0.263756	-0.485001	0.585661
O250	O	0.235079	-0.524709	0.545943
C251	C	0.288763	-0.532815	0.537836
H252	H	0.288660	-0.498356	0.544225
H253	H	0.305163	-0.573536	0.568245
C254	C	0.325517	-0.575531	0.471425
C255	C	0.325391	-0.533206	0.479268
H256	H	0.348112	-0.575775	0.435299
H257	H	0.289349	-0.570072	0.476888
H258	H	0.339182	-0.609461	0.496769
H259	H	0.311720	-0.499277	0.453929
H260	H	0.361558	-0.538659	0.473799
H261	H	0.270043	-0.526578	0.659994
H262	H	0.373728	-0.561133	0.625383
H263	H	0.373680	-0.393351	0.561411
H264	H	0.102202	-0.248101	0.678192
O265	O	0.265564	-0.350011	0.594644
C266	C	0.279486	-0.320519	0.538211
H267	H	0.320978	-0.345492	0.515693
H268	H	0.247302	-0.311992	0.522649
C269	C	0.231160	-0.235416	0.555664
C270	C	0.282123	-0.266086	0.528007
H271	H	0.232784	-0.201838	0.549369
H272	H	0.221778	-0.255285	0.593684
H273	H	0.204345	-0.228316	0.542692
H274	H	0.308936	-0.273191	0.540984
H275	H	0.291510	-0.246217	0.489989
O276	O	0.134607	-0.356210	0.721572
C277	C	0.101515	-0.318739	0.750285
H278	H	0.108787	-0.277989	0.723029
H279	H	0.056747	-0.312669	0.762625
C280	C	0.107085	-0.391106	0.835275
C281	C	0.116021	-0.341057	0.801800
H282	H	0.116031	-0.404873	0.867053
H283	H	0.129378	-0.416351	0.815931
H284	H	0.069778	-0.386040	0.845552
H285	H	0.153328	-0.346125	0.791518
H286	H	0.093734	-0.315813	0.821144
H287	H	-0.032937	-0.528066	0.228816
H288	H	-0.067667	-0.562559	0.332499
H289	H	0.016937	-0.731954	0.332612
O290	O	0.056838	-0.703372	0.224522
C291	C	0.064844	-0.757041	0.262033
H292	H	0.058394	-0.756926	0.302798
H293	H	0.034422	-0.773368	0.268041
C294	C	0.131319	-0.793907	0.189757
C295	C	0.123401	-0.793767	0.239824
H296	H	0.167439	-0.816562	0.176057
H297	H	0.125924	-0.757749	0.164485
H298	H	0.105964	-0.807512	0.194771
H299	H	0.148751	-0.780156	0.234809
H300	H	0.128802	-0.829923	0.265095
H301	H	-0.067739	-0.562558	0.381123
H302	H	0.051198	-0.697438	0.500669
O303	O	-0.035333	-0.519222	0.413558
C304	C	-0.015693	-0.495532	0.356312
H305	H	0.019556	-0.528119	0.337944
H306	H	-0.049929	-0.477440	0.339292
C307	C	-0.038900	-0.410048	0.364144
C308	C	0.004397	-0.450072	0.341585
H309	H	-0.026510	-0.382005	0.355059
H310	H	-0.052133	-0.426008	0.402712
H311	H	-0.067426	-0.394978	0.349958
H312	H	0.032919	-0.465147	0.355776
H313	H	0.017636	-0.434114	0.303019
O314	O	0.018935	-0.740789	0.468179
C315	C	0.051932	-0.769520	0.501371
H316	H	0.072715	-0.742297	0.494137
H317	H	0.025500	-0.781807	0.546115
C318	C	0.070084	-0.854517	0.495844
C319	C	0.095613	-0.821083	0.486956
H320	H	0.097027	-0.886325	0.486954
H321	H	0.047851	-0.835161	0.473483
H322	H	0.048058	-0.864750	0.533131
H323	H	0.117633	-0.810845	0.449668
H324	H	0.117850	-0.840438	0.509310
H325	H	0.092838	-0.841923	0.426277
O326	O	0.064193	-0.733804	0.387350
C327	C	0.103040	-0.747804	0.340255
H328	H	0.105718	-0.789293	0.345404
H329	H	0.090193	-0.715634	0.303186
C330	C	0.155924	-0.699553	0.325605
C331	C	0.159216	-0.750512	0.331931
H332	H	0.190575	-0.701221	0.320469
H333	H	0.129751	-0.690118	0.357332
H334	H	0.145215	-0.672750	0.294715
H335	H	0.169917	-0.777313	0.362825
H336	H	0.185392	-0.759952	0.300209
O337	O	-0.080805	-0.846122	0.494279
C338	C	-0.134083	-0.808593	0.497282
H339	H	-0.136266	-0.767844	0.493477
H340	H	-0.144752	-0.802549	0.462661
C341	C	-0.172239	-0.880858	0.557142
C342	C	-0.174921	-0.830810	0.552473
H343	H	-0.197431	-0.894562	0.591185
H344	H	-0.136344	-0.906142	0.555117
H345	H	-0.181129	-0.875814	0.528288
H346	H	-0.166025	-0.835855	0.581323
H347	H	-0.210816	-0.805526	0.554504
H348	H	-0.109425	-0.738032	0.455342
H349	H	-0.116534	-0.689457	0.508068
H350	H	-0.219915	-0.570138	0.372989
O351	O	-0.224706	-0.657019	0.551274
C352	C	-0.210788	-0.714265	0.575030
H353	H	-0.195026	-0.732699	0.542477
H354	H	-0.177667	-0.731229	0.593160
C355	C	-0.280975	-0.706336	0.660441
C356	C	-0.261620	-0.728978	0.620461
H357	H	-0.312329	-0.715413	0.688467
H358	H	-0.290351	-0.667769	0.644437
H359	H	-0.253370	-0.720475	0.675544
H360	H	-0.289223	-0.714834	0.605354
H361	H	-0.252250	-0.767543	0.636463
O362	O	-0.111804	-0.602632	0.329771
C363	C	-0.149207	-0.569497	0.300977
H364	H	-0.189977	-0.576733	0.328165
H365	H	-0.155249	-0.524737	0.288650
C366	C	-0.076752	-0.575105	0.216053
C367	C	-0.126826	-0.583996	0.249446
H368	H	-0.062946	-0.584046	0.184265
H369	H	-0.051552	-0.597427	0.235452
H370	H	-0.081794	-0.537805	0.205787
H371	H	-0.121782	-0.621296	0.259717
H372	H	-0.152024	-0.561680	0.230047
