data_functionalizedCrystal
_audit_creation_method	'MofGen! by Chris Wilmer'
_symmetry_space_group_name_H-M	'P1'
_symmetry_Int_Tables_number	1
_symmetry_cell_setting	triclinic
loop_
_symmetry_equiv_pos_as_xyz
  x,y,z
_cell_length_a	19.121725
_cell_length_b	12.594517
_cell_length_c	19.121307
_cell_angle_alpha	87.555995
_cell_angle_beta	85.240410
_cell_angle_gamma	92.411109
loop_
_atom_site_label
_atom_site_type_symbol
_atom_site_fract_x
_atom_site_fract_y
_atom_site_fract_z
Zn1	Zn	-0.297184	-1.672673	0.409801
Zn2	Zn	-0.409798	-1.672580	0.297158
Zn3	Zn	-0.292158	-1.486805	0.292152
Zn4	Zn	-0.414803	-1.502543	0.414780
O5	O	-0.353486	-1.583650	0.353473
O6	O	-0.312130	-1.821608	0.394871
O7	O	-0.389995	-1.641311	0.198032
O8	O	-0.194368	-1.504914	0.303580
O9	O	-0.394867	-1.821539	0.312112
O10	O	-0.198060	-1.641470	0.390016
O11	O	-0.303566	-1.504823	0.194354
O12	O	-0.308419	-1.339946	0.308407
O13	O	-0.403398	-1.531737	0.512581
O14	O	-0.398525	-1.351509	0.398501
O15	O	-0.316984	-1.656731	0.508924
O16	O	-0.508918	-1.656571	0.316939
O17	O	-0.512595	-1.531646	0.403356
C18	C	-0.353471	-1.307107	0.353451
C19	C	-0.353482	-1.188803	0.353460
C20	C	-0.536286	-1.595836	0.361246
C21	C	-0.614490	-1.601148	0.364595
C22	C	-0.361310	-1.596000	0.536996
C23	C	-0.364644	-1.601262	0.615203
C24	C	-0.649369	-1.532607	0.321137
C25	C	-0.722850	-1.537609	0.324287
C26	C	-0.761451	-1.611149	0.370899
C27	C	-0.726566	-1.679698	0.414360
C28	C	-0.653086	-1.674700	0.411206
C29	C	-0.983405	-1.629798	0.382672
C30	C	-1.056890	-1.634788	0.385824
C31	C	-1.053169	-1.492700	0.295749
C32	C	-0.979688	-1.487705	0.292603
C33	C	-0.944810	-1.556257	0.336060
C34	C	-0.836560	-1.616261	0.374122
C35	C	-0.869702	-1.551149	0.332834
C36	C	-0.169972	-1.571447	0.345684
C37	C	-0.091769	-1.566247	0.342365
C38	C	-0.353501	-1.861274	0.353495
C39	C	-0.353508	-1.979580	0.353504
C40	C	-0.304413	-1.113232	0.304544
C41	C	-0.367847	-1.045566	0.289971
C42	C	-0.290079	-1.045673	0.368046
C43	C	-0.416949	-1.122695	0.338855
C44	C	-0.339139	-1.122808	0.416957
C45	C	-0.402619	-1.055178	0.402411
C46	C	-0.385795	-1.634652	1.057623
C47	C	-0.382658	-1.629692	0.984139
C48	C	-0.336087	-1.556156	0.945490
C49	C	-0.292655	-1.487569	0.980328
C50	C	-0.295797	-1.492525	1.053811
C51	C	-0.324354	-1.537631	0.723524
C52	C	-0.321215	-1.532683	0.650037
C53	C	-0.411218	-1.674805	0.653853
C54	C	-0.414352	-1.679759	0.727336
C55	C	-0.370924	-1.611168	0.762169
C56	C	-0.332877	-1.551086	0.870377
C57	C	-0.374137	-1.616234	0.837280
C58	C	-0.345705	-1.571340	1.170663
C59	C	-0.342365	-1.566073	1.092456
H60	H	-0.617946	-1.472718	0.283183
H61	H	-0.294958	-1.491214	0.838901
F62	F	-0.249570	-1.419537	1.090883
H63	H	-0.867997	-1.676136	0.412075
F64	F	-1.097970	-1.713071	0.435433
H65	H	-0.254739	-1.427689	0.948854
F66	F	-0.457435	-1.747798	0.616777
F67	F	-0.463924	-1.758019	0.768465
H68	H	-0.751246	-1.481797	0.288896
F69	F	-0.456930	-1.021848	0.456507
F70	F	-0.323236	-1.167044	0.487100
H71	H	-0.948261	-1.427823	0.254647
F72	F	-1.090294	-1.419747	0.249502
F73	F	-0.487064	-1.166605	0.322672
F74	F	-0.946294	-1.702754	0.428927
H75	H	-0.758000	-1.739580	0.452310
F76	F	-0.615965	-1.747655	0.457458
H77	H	-0.262953	-1.138929	0.263131
F78	F	-0.828619	-1.472889	0.283225
H79	H	-0.379995	-1.011744	0.236292
F80	F	-0.219983	-1.001578	0.384147
H81	H	-0.423715	-1.694538	1.089086
H82	H	-0.418031	-1.685524	0.955782
H83	H	-0.283286	-1.472802	0.618570
F84	F	-0.278158	-1.464594	0.760587
F85	F	-0.423703	-1.694489	0.878415
