data_functionalizedCrystal
_audit_creation_method	'MofGen! by Chris Wilmer'
_symmetry_space_group_name_H-M	'P1'
_symmetry_Int_Tables_number	1
_symmetry_cell_setting	triclinic
loop_
_symmetry_equiv_pos_as_xyz
  x,y,z
_cell_length_a	14.044220
_cell_length_b	22.610064
_cell_length_c	14.044220
_cell_angle_alpha	89.996475
_cell_angle_beta	93.188878
_cell_angle_gamma	90.004031
loop_
_atom_site_label
_atom_site_type_symbol
_atom_site_fract_x
_atom_site_fract_y
_atom_site_fract_z
O1	O	1.277173	0.049124	0.230155
O2	O	1.000502	0.049139	0.221849
O3	O	1.134685	0.049126	0.087667
O4	O	1.142991	0.049137	0.364338
O5	O	1.134661	-0.049243	0.087686
O6	O	1.000478	-0.049230	0.221869
O7	O	1.277149	-0.049245	0.230174
Zn8	Zn	1.138810	-0.064856	0.226025
Zn9	Zn	1.138842	0.064750	0.225999
O10	O	1.142966	-0.049232	0.364357
C11	C	0.964868	-0.000044	0.218223
C12	C	0.858725	-0.000038	0.207379
N13	N	1.138795	-0.153308	0.226042
C14	C	0.664388	-0.000051	0.187553
C15	C	0.613258	-0.000050	0.264467
C16	C	0.505122	-0.000057	0.253435
C17	C	0.772534	-0.000044	0.198583
C18	C	1.198262	-0.561956	0.166593
C19	C	1.198266	-0.623876	0.166587
O20	O	1.248787	-0.655899	0.116052
N21	N	1.138839	-0.654846	0.225979
C22	C	1.079397	-0.623893	0.285375
O23	O	1.028850	-0.655921	0.335892
C24	C	1.079389	-0.561974	0.285376
C25	C	1.138826	-0.531007	0.225987
C26	C	1.257694	-0.530989	0.107208
C27	C	1.257690	-0.469073	0.107216
C28	C	1.198255	-0.438124	0.166609
C29	C	1.138823	-0.469091	0.225995
C30	C	1.019943	-0.531022	0.344766
C31	C	1.019939	-0.469099	0.344762
C32	C	1.079376	-0.438132	0.285372
C33	C	1.079385	-0.376227	0.285396
N34	N	1.138811	-0.345257	0.226004
C35	C	1.198247	-0.376206	0.166610
C36	C	1.079418	-0.753926	0.285368
C37	C	1.079431	-0.815844	0.285373
C38	C	1.198299	-0.815823	0.166582
C39	C	1.198290	-0.753904	0.166583
C40	C	1.138845	-0.722956	0.225975
C41	C	1.198236	-0.246178	0.166632
C42	C	1.198230	-0.184257	0.166648
C43	C	1.079360	-0.184284	0.285434
C44	C	1.079368	-0.246199	0.285422
C45	C	1.138810	-0.277145	0.226013
O46	O	1.028887	-0.344164	0.335902
O47	O	1.248776	-0.344170	0.116093
C48	C	1.312783	-0.000061	0.233800
C49	C	1.418926	-0.000063	0.244645
C50	C	1.131037	-0.000059	0.052054
C51	C	1.120193	-0.000059	-0.054088
N52	N	1.138863	0.153202	0.225975
C53	C	1.100366	-0.000049	-0.248426
C54	C	1.177281	-0.000052	-0.299556
C55	C	1.166249	-0.000046	-0.407692
C56	C	1.111397	-0.000055	-0.140280
C57	C	1.146614	-0.000046	0.399969
C58	C	1.157459	-0.000042	0.506112
H59	H	0.650697	-0.000044	0.338600
N60	N	1.015330	-0.849240	0.349434
H61	H	0.977679	-0.820233	0.387055
H62	H	0.970035	-0.874928	0.309284
H63	H	0.626951	-0.000057	0.113425
H64	H	1.251414	-0.000016	-0.262117
N65	N	1.262343	-0.150857	0.102593
H66	H	1.299992	-0.179863	0.064966
H67	H	1.222228	-0.125165	0.057276
N68	N	1.002172	-0.000043	-0.298008
H69	H	1.008113	-0.000042	-0.369348
H70	H	0.966356	-0.036511	-0.278877
H71	H	1.246637	-0.271367	0.118255
H72	H	1.306087	-0.443863	0.058853
H73	H	1.031014	-0.728732	0.333740
N74	N	1.321820	-0.564363	0.043159
H75	H	1.359468	-0.535341	0.005550
H76	H	1.367117	-0.590043	0.083319
H77	H	1.246693	-0.841032	0.118220
N78	N	1.262397	-0.720506	0.102529
H79	H	1.300048	-0.749513	0.064908
H80	H	1.222280	-0.694818	0.057205
N81	N	0.955818	-0.564412	0.408807
H82	H	0.918161	-0.535401	0.446416
H83	H	0.910529	-0.590096	0.368644
H84	H	1.030979	-0.271413	0.333793
N85	N	0.955817	-0.435720	0.408817
H86	H	0.918168	-0.464737	0.446434
H87	H	0.995924	-0.410029	0.454143
N88	N	1.015257	-0.150897	0.349492
H89	H	1.024275	-0.106974	0.340476
H90	H	0.946600	-0.161724	0.332689
