data_functionalizedCrystal
_audit_creation_method	'MofGen! by Chris Wilmer'
_symmetry_space_group_name_H-M	'P1'
_symmetry_Int_Tables_number	1
_symmetry_cell_setting	triclinic
loop_
_symmetry_equiv_pos_as_xyz
  x,y,z
_cell_length_a	14.971486
_cell_length_b	19.288857
_cell_length_c	13.448316
_cell_angle_alpha	89.991240
_cell_angle_beta	89.998199
_cell_angle_gamma	83.373619
loop_
_atom_site_label
_atom_site_type_symbol
_atom_site_fract_x
_atom_site_fract_y
_atom_site_fract_z
O1	O	1.186455	0.090518	-0.082582
O2	O	1.686455	0.590518	0.417418
O3	O	0.925996	0.101357	-0.082610
O4	O	1.425996	0.601357	0.417390
O5	O	1.063755	-0.005169	-0.082583
O6	O	1.563755	0.494831	0.417417
O7	O	1.048696	0.197044	-0.082609
O8	O	1.548696	0.697044	0.417391
O9	O	1.063738	-0.005175	0.082800
O10	O	1.563738	0.494825	0.582800
O11	O	0.925978	0.101351	0.082774
O12	O	1.425978	0.601351	0.582774
O13	O	1.186438	0.090511	0.082801
O14	O	1.686438	0.590511	0.582801
Cu15	Cu	1.056206	0.095930	0.097888
Cu16	Cu	1.556206	0.595930	0.597888
Cu17	Cu	1.056227	0.095938	-0.097697
Cu18	Cu	1.556227	0.595938	0.402303
O19	O	1.048678	0.197037	0.082775
O20	O	1.548678	0.697037	0.582775
C21	C	0.892665	0.100869	0.000078
C22	C	1.392665	0.600869	0.500078
C23	C	0.793376	0.099417	0.000068
C24	C	1.293376	0.599417	0.500068
C25	C	0.735810	0.161998	0.000062
C26	C	1.235810	0.661998	0.500062
C27	C	0.642518	0.160629	0.000077
C28	C	1.142518	0.660629	0.500077
C29	C	0.606794	0.096678	0.000091
C30	C	1.106794	0.596678	0.500091
C31	C	0.664367	0.034092	0.000101
C32	C	1.164367	0.534092	0.500101
C33	C	0.757657	0.035462	0.000093
C34	C	1.257657	0.535462	0.500093
C35	C	0.469920	0.031241	0.000115
C36	C	0.969920	0.531241	0.500115
C37	C	0.376623	0.029871	0.000121
C38	C	0.876623	0.529871	0.500121
C39	C	0.354781	0.156408	0.000099
C40	C	0.854781	0.656408	0.500099
C41	C	0.448071	0.157778	0.000091
C42	C	0.948071	0.657778	0.500091
C43	C	0.505638	0.095192	0.000099
C44	C	1.005638	0.595192	0.500099
C45	C	1.063263	-0.031050	0.000109
C46	C	1.563263	0.468950	0.500109
C47	C	1.061812	-0.108159	0.000112
C48	C	1.561812	0.391841	0.500112
C49	C	1.061144	-0.144368	-0.090039
C50	C	1.561144	0.355632	0.409961
C51	C	1.059768	-0.216818	-0.090046
C52	C	1.559768	0.283182	0.409954
C53	C	1.059077	-0.253059	0.000102
C54	C	1.559077	0.246941	0.500102
C55	C	1.059740	-0.216840	0.090265
C56	C	1.559740	0.283160	0.590265
C57	C	1.061107	-0.144390	0.090270
C58	C	1.561107	0.355610	0.590270
C59	C	1.109294	-0.373129	0.069167
C60	C	1.609294	0.126871	0.569167
C61	C	1.107932	-0.445578	0.069158
C62	C	1.607932	0.054422	0.569158
C63	C	1.054856	-0.476518	0.000090
C64	C	1.554856	0.023482	0.500090
C65	C	1.003154	-0.435001	-0.068985
C66	C	1.503154	0.064999	0.431015
C67	C	1.004521	-0.362551	-0.068980
C68	C	1.504521	0.137449	0.431020
C69	C	1.057594	-0.331618	0.000107
C70	C	1.557594	0.168382	0.500107
C71	C	1.052695	-0.591286	-0.090075
C72	C	1.552695	-0.091286	0.409925
C73	C	1.051313	-0.663738	-0.090079
C74	C	1.551313	-0.163738	0.409921
C75	C	1.051295	-0.663759	0.090235
C76	C	1.551295	-0.163759	0.590235
C77	C	1.052668	-0.591308	0.090236
C78	C	1.552668	-0.091308	0.590236
C79	C	1.053372	-0.555077	0.000079
C80	C	1.553372	-0.055077	0.500079
C81	C	1.219768	0.090999	0.000111
C82	C	1.719768	0.590999	0.500111
C83	C	1.319057	0.092452	0.000114
C84	C	1.819057	0.592452	0.500114
C85	C	1.049170	0.222919	0.000080
C86	C	1.549170	0.722919	0.500080
C87	C	1.050622	0.300027	0.000071
C88	C	1.550622	0.800027	0.500071
N89	N	1.056199	0.095924	0.235453
N90	N	1.556199	0.595924	0.735453
N91	N	1.056242	0.095939	-0.235261
N92	N	1.556242	0.595939	0.264739
C93	C	1.117217	0.048774	0.287505
C94	C	1.617217	0.548774	0.787505
C95	C	1.117223	0.048774	0.391608
C96	C	1.617223	0.548774	0.891608
C97	C	1.056213	0.095927	0.443657
C98	C	1.556213	0.595927	0.943657
C99	C	0.995188	0.143080	0.391598
C100	C	1.495188	0.643080	0.891598
C101	C	0.995179	0.143076	0.287497
C102	C	1.495179	0.643076	0.787497
C103	C	0.995213	0.143084	0.608578
C104	C	1.495213	0.643084	1.108578
C105	C	0.995223	0.143089	0.712686
C106	C	1.495223	0.643089	1.212686
C107	C	1.117257	0.048782	0.712690
C108	C	1.617257	0.548782	1.212690
C109	C	1.117248	0.048778	0.608588
C110	C	1.617248	0.548778	1.108588
C111	C	1.056223	0.095932	0.556536
C112	C	1.556223	0.595932	1.056536
H113	H	0.635273	-0.017978	0.000127
H114	H	1.135273	0.482022	0.500127
H115	H	0.945518	0.181480	0.566200
H116	H	1.445518	0.681480	1.066200
Cl117	Cl	0.282412	0.235088	0.000091
Cl118	Cl	0.782412	0.735088	0.500091
Cl119	Cl	1.050422	-0.709311	0.203566
Cl120	Cl	1.550422	-0.209311	0.703566
H121	H	0.804527	-0.015499	0.000098
H122	H	1.304527	0.484501	0.500098
H123	H	0.347540	-0.022204	0.000134
H124	H	0.847540	0.477796	0.500134
Cl125	Cl	0.918520	0.202369	0.778112
Cl126	Cl	1.418520	0.702369	1.278112
Cl127	Cl	1.053573	-0.545734	-0.203414
Cl128	Cl	1.553573	-0.045734	0.296586
H129	H	0.477154	0.209852	0.000070
H130	H	0.977154	0.709852	0.500070
Cl131	Cl	1.058928	-0.262348	-0.203388
Cl132	Cl	1.558928	0.237652	0.296612
Cl133	Cl	0.918463	0.202352	0.222060
Cl134	Cl	1.418463	0.702352	0.722060
H135	H	0.764889	0.214074	0.000049
H136	H	1.264889	0.714074	0.500049
Cl137	Cl	1.193950	-0.010496	0.543153
Cl138	Cl	1.693950	0.489504	1.043153
Cl139	Cl	0.570153	0.239306	0.000063
Cl140	Cl	1.070153	0.739306	0.500063
Cl141	Cl	1.058865	-0.262398	0.203595
Cl142	Cl	1.558865	0.237602	0.703595
Cl143	Cl	1.061946	-0.098867	0.203612
Cl144	Cl	1.561946	0.401133	0.703612
Cl145	Cl	1.172932	-0.497764	0.155991
Cl146	Cl	1.672932	0.002236	0.655991
H147	H	0.945509	0.181471	0.433982
H148	H	1.445509	0.681471	0.933982
H149	H	1.050765	-0.693218	-0.163494
H150	H	1.550765	-0.193218	0.336506
Cl151	Cl	0.542288	-0.047440	0.000126
Cl152	Cl	1.042288	0.452560	0.500126
Cl153	Cl	1.053507	-0.545785	0.203576
Cl154	Cl	1.553507	-0.045785	0.703576
Cl155	Cl	1.193972	-0.010495	0.778130
Cl156	Cl	1.693972	0.489505	1.278130
Cl157	Cl	1.062023	-0.098823	-0.203380
Cl158	Cl	1.562023	0.401177	0.296620
H159	H	1.152514	-0.347944	0.125417
H160	H	1.652514	0.152056	0.625417
H161	H	1.166902	0.010379	0.245133
H162	H	1.666902	0.510379	0.745133
Cl163	Cl	0.936421	-0.473888	-0.155815
Cl164	Cl	1.436421	0.026112	0.344185
Cl165	Cl	0.939523	-0.310360	-0.155809
Cl166	Cl	1.439523	0.189640	0.344191
H167	H	1.166908	0.010380	0.433988
H168	H	1.666908	0.510380	0.933988
