data_functionalizedCrystal
_audit_creation_method	'MofGen! by Chris Wilmer'
_symmetry_space_group_name_H-M	'P1'
_symmetry_Int_Tables_number	1
_symmetry_cell_setting	triclinic
loop_
_symmetry_equiv_pos_as_xyz
  x,y,z
_cell_length_a	15.944499
_cell_length_b	14.044220
_cell_length_c	13.101018
_cell_angle_alpha	93.664297
_cell_angle_beta	86.638363
_cell_angle_gamma	88.333243
loop_
_atom_site_label
_atom_site_type_symbol
_atom_site_fract_x
_atom_site_fract_y
_atom_site_fract_z
O1	O	0.198273	1.262891	0.085092
O2	O	0.698273	1.762891	0.585092
O3	O	0.190964	0.986924	0.085118
O4	O	0.690964	1.486924	0.585118
O5	O	0.072906	1.132469	0.085106
O6	O	0.572906	1.632469	0.585106
O7	O	0.316330	1.117346	0.085104
O8	O	0.816330	1.617346	0.585104
O9	O	0.081384	1.122014	-0.085323
O10	O	0.581384	1.622014	0.414677
O11	O	0.199441	0.976469	-0.085311
O12	O	0.699441	1.476469	0.414689
O13	O	0.206750	1.252436	-0.085338
O14	O	0.706750	1.752436	0.414662
Zn15	Zn	0.204442	1.112793	-0.112384
Zn16	Zn	0.704442	1.612793	0.387616
Zn17	Zn	0.193272	1.126567	0.112165
Zn18	Zn	0.693272	1.626567	0.612165
O19	O	0.324807	1.106891	-0.085325
O20	O	0.824807	1.606891	0.414675
C21	C	0.192004	0.946383	-0.000093
C22	C	0.692004	1.446383	0.499907
C23	C	0.182462	0.841159	-0.000082
C24	C	0.682462	1.341159	0.499918
C25	C	0.045804	1.126623	-0.000106
C26	C	0.545804	1.626623	0.499894
C27	C	-0.047584	1.124767	-0.000098
C28	C	0.452416	1.624767	0.499902
C29	C	-0.332787	1.209324	-0.000112
C30	C	0.167213	1.709324	0.499888
C31	C	-0.270874	1.160214	-0.084142
C32	C	0.229126	1.660214	0.415858
C33	C	-0.383725	1.118022	-0.000109
C34	C	0.116275	1.618022	0.499891
C35	C	-0.279240	1.170497	0.083888
C36	C	0.220760	1.670497	0.583888
C37	C	-0.218568	1.121341	-0.000102
C38	C	0.281432	1.621341	0.499898
C39	C	-0.323037	1.068882	-0.084209
C40	C	0.176963	1.568882	0.415791
C41	C	-0.331413	1.079183	0.083897
C42	C	0.168587	1.579183	0.583897
C43	C	-0.269521	1.030005	-0.000154
C44	C	0.230479	1.530005	0.499846
C45	C	-0.478867	1.116113	-0.000114
C46	C	0.021133	1.616113	0.499886
C47	C	-0.123426	1.123243	-0.000104
C48	C	0.376574	1.623243	0.499896
C49	C	0.165019	0.648499	-0.000103
C50	C	0.665019	1.148499	0.499897
C51	C	0.232691	0.590856	-0.000108
C52	C	0.732691	1.090856	0.499892
C53	C	0.222985	0.483653	-0.000119
C54	C	0.722985	0.983653	0.499881
C55	C	0.174723	0.755712	-0.000091
C56	C	0.674723	1.255712	0.499909
C57	C	0.351910	1.112737	-0.000111
C58	C	0.851910	1.612737	0.499889
C59	C	0.445297	1.114594	-0.000112
C60	C	0.945297	1.614594	0.499888
C61	C	0.205710	1.292977	-0.000124
C62	C	0.705710	1.792977	0.499876
C63	C	0.215252	1.398201	-0.000128
C64	C	0.715252	1.898201	0.499872
N65	N	0.212065	1.103399	-0.265632
N66	N	0.712065	1.603399	0.234368
C67	C	0.175268	1.148744	-0.525545
C68	C	0.675268	1.648744	-0.025545
C69	C	0.222437	1.090626	-0.474667
C70	C	0.722437	1.590626	0.025333
C71	C	0.216665	1.097735	-0.358349
C72	C	0.716665	1.597735	0.141651
C73	C	0.181040	1.141637	-0.641874
C74	C	0.681040	1.641637	-0.141874
N75	N	0.185643	1.135969	0.265413
N76	N	0.685643	1.635969	0.765413
H77	H	-0.360439	1.285091	-0.000199
H78	H	0.139561	1.785091	0.499801
H79	H	0.297915	0.622018	-0.000103
H80	H	0.797915	1.122018	0.499897
H81	H	-0.259800	1.213488	0.154923
H82	H	0.240200	1.713488	0.654923
C83	C	0.076909	0.606403	-0.000100
C84	C	0.576909	1.106403	0.499900
N85	N	0.010544	0.574686	-0.000092
N86	N	0.510544	1.074686	0.499908
C87	C	0.282859	1.016204	-0.533837
C88	C	0.782859	1.516204	-0.033837
N89	N	0.328372	0.960155	-0.578408
N90	N	0.828372	1.460155	-0.078408
H91	H	-0.244357	1.194474	-0.155188
H92	H	0.255643	1.694474	0.344812
C93	C	0.114852	1.223163	-0.466376
C94	C	0.614852	1.723163	0.033624
N95	N	0.069345	1.279214	-0.421798
N96	N	0.569345	1.779214	0.078202
H97	H	-0.242015	0.954165	-0.000196
H98	H	0.257985	1.454165	0.499804
C99	C	-0.349153	1.010867	-0.180288
C100	C	0.150847	1.510867	0.319712
N101	N	-0.368826	0.967175	-0.252655
N102	N	0.131174	1.467175	0.247345
H103	H	-0.357949	1.044955	0.154947
H104	H	0.142051	1.544955	0.654947
