data_functionalizedCrystal
_audit_creation_method	'MofGen! by Chris Wilmer'
_symmetry_space_group_name_H-M	'P1'
_symmetry_Int_Tables_number	1
_symmetry_cell_setting	triclinic
loop_
_symmetry_equiv_pos_as_xyz
  x,y,z
_cell_length_a	15.297327
_cell_length_b	12.827893
_cell_length_c	12.827885
_cell_angle_alpha	90.021379
_cell_angle_beta	99.642748
_cell_angle_gamma	80.294845
loop_
_atom_site_label
_atom_site_type_symbol
_atom_site_fract_x
_atom_site_fract_y
_atom_site_fract_z
Zn1	Zn	-0.359158	-1.525596	-0.662833
Zn2	Zn	0.140842	-1.025596	-0.162833
Zn3	Zn	-0.510042	-1.495210	-0.518312
Zn4	Zn	-0.010042	-0.995210	-0.018312
Zn5	Zn	-0.359197	-1.350829	-0.488109
Zn6	Zn	0.140803	-0.850829	0.011891
Zn7	Zn	-0.509970	-1.320557	-0.692992
Zn8	Zn	-0.009970	-0.820557	-0.192992
O9	O	-0.434592	-1.423048	-0.590562
O10	O	0.065408	-0.923048	-0.090562
O11	O	-0.379187	-1.667798	-0.643681
O12	O	0.120813	-1.167798	-0.143681
O13	O	-0.490079	-1.476009	-0.368079
O14	O	0.009921	-0.976009	0.131921
O15	O	-0.232947	-1.399397	-0.486025
O16	O	0.267053	-0.899397	0.013975
O17	O	-0.490041	-1.645474	-0.537502
O18	O	0.009959	-1.145474	-0.037502
O19	O	-0.232919	-1.527798	-0.614394
O20	O	0.267081	-1.027798	-0.114394
O21	O	-0.379254	-1.369933	-0.345889
O22	O	0.120746	-0.869933	0.154111
O23	O	-0.379184	-1.200580	-0.515268
O24	O	0.120816	-0.700580	-0.015268
O25	O	-0.489918	-1.347804	-0.835218
O26	O	0.010082	-0.847804	-0.335218
O27	O	-0.489956	-1.178339	-0.665795
O28	O	0.010044	-0.678339	-0.165795
O29	O	-0.379117	-1.498445	-0.813061
O30	O	0.120883	-0.998445	-0.313061
O31	O	-0.636277	-1.446656	-0.566746
O32	O	-0.136277	-0.946656	-0.066746
O33	O	-0.636224	-1.318340	-0.695082
O34	O	-0.136224	-0.818340	-0.195082
C35	C	-0.434567	-1.151543	-0.590528
C36	C	0.065433	-0.651543	-0.090528
C37	C	-0.434579	-1.035387	-0.590542
C38	C	0.065421	-0.535387	-0.090542
C39	C	-0.379820	-0.994630	-0.643199
C40	C	0.120180	-0.494630	-0.143199
C41	C	-0.379831	-0.874578	-0.643216
C42	C	0.120169	-0.374578	-0.143216
C43	C	-0.668985	-1.375944	-0.637487
C44	C	-0.168985	-0.875944	-0.137487
C45	C	-0.769259	-1.355889	-0.657596
C46	C	-0.269259	-0.855889	-0.157596
C47	C	-1.051900	-1.566818	-0.447191
C48	C	-0.551900	-1.066818	0.052809
C49	C	-0.957687	-1.585660	-0.428292
C50	C	-0.457687	-1.085660	0.071708
C51	C	-0.910575	-1.528219	-0.485616
C52	C	-0.410575	-1.028219	0.014384
C53	C	-0.957685	-1.451932	-0.561843
C54	C	-0.457685	-0.951932	-0.061843
C55	C	-1.051907	-1.433082	-0.580739
C56	C	-0.551907	-0.933082	-0.080739
C57	C	-0.910583	-1.394484	-0.619164
C58	C	-0.410583	-0.894484	-0.119164
C59	C	-0.957693	-1.318196	-0.695391
C60	C	-0.457693	-0.818196	-0.195391
C61	C	-1.051906	-1.299350	-0.714284
C62	C	-0.551906	-0.799350	-0.214284
C63	C	-1.099017	-1.356791	-0.656959
C64	C	-0.599017	-0.856791	-0.156959
C65	C	-0.816361	-1.413334	-0.600269
C66	C	-0.316361	-0.913334	-0.100269
C67	C	-0.816369	-1.279598	-0.733816
C68	C	-0.316369	-0.779598	-0.233816
C69	C	-0.910582	-1.260755	-0.752716
C70	C	-0.410582	-0.760755	-0.252716
C71	C	-0.199284	-1.470364	-0.543476
C72	C	0.300716	-0.970364	-0.043476
C73	C	-0.099010	-1.490527	-0.523411
C74	C	0.400990	-0.990527	-0.023411
C75	C	-0.434505	-1.423137	-0.863115
C76	C	0.065495	-0.923137	-0.363115
C77	C	-0.434468	-1.423175	-0.979260
C78	C	0.065532	-0.923175	-0.479260
C79	C	-0.434610	-0.695614	-0.590586
C80	C	0.065390	-0.195614	-0.090586
C81	C	-0.434599	-0.811770	-0.590572
C82	C	0.065401	-0.311770	-0.090572
C83	C	-0.379618	-1.370708	-1.020063
C84	C	0.120382	-0.870708	-0.520063
C85	C	-0.379578	-1.370746	-1.140105
C86	C	0.120422	-0.870746	-0.640105
C87	C	-0.434613	-1.423032	-0.319056
C88	C	0.065387	-0.923032	0.180944
C89	C	-0.434396	-1.423247	-0.202860
C90	C	0.065604	-0.923247	0.297140
H91	H	-0.481465	-0.981403	-0.545470
H92	H	0.018535	-0.481403	-0.045470
O93	O	-0.317369	-1.311248	-1.186634
O94	O	0.182631	-0.811248	-0.686634
H95	H	-0.277215	-1.272791	-1.122396
H96	H	0.222785	-0.772791	-0.622396
O97	O	-1.102715	-1.217063	-0.796494
O98	O	-0.602715	-0.717063	-0.296494
H99	H	-1.145698	-1.155314	-0.758291
H100	H	-0.645698	-0.655314	-0.258291
O101	O	-0.496600	-1.482756	-1.156333
O102	O	0.003400	-0.982756	-0.656333
H103	H	-0.481136	-1.567905	-1.174132
H104	H	0.018864	-1.067905	-0.674132
O105	O	-0.317720	-0.828110	-0.702930
O106	O	0.182280	-0.328110	-0.202930
H107	H	-0.327468	-0.741110	-0.693563
H108	H	0.172532	-0.241110	-0.193563
H109	H	-0.332691	-1.325755	-0.966125
H110	H	0.167309	-0.825755	-0.466125
H111	H	-0.481487	-0.846854	-0.545495
H112	H	0.018513	-0.346854	-0.045495
H113	H	-0.833863	-1.543565	-0.470223
H114	H	-0.333863	-1.043565	0.029777
O115	O	-0.317704	-1.066124	-0.702903
O116	O	0.182296	-0.566124	-0.202903
H117	H	-0.327447	-1.149198	-0.693526
H118	H	0.172553	-0.649198	-0.193526
O119	O	-0.765550	-1.495624	-0.518074
O120	O	-0.265550	-0.995624	-0.018074
H121	H	-0.783698	-1.474127	-0.439678
H122	H	-0.283698	-0.974127	0.060322
H123	H	-0.481400	-1.468121	-1.033199
H124	H	0.018600	-0.968121	-0.533199
H125	H	-0.919333	-1.647772	-0.366227
H126	H	-0.419333	-1.147772	0.133773
O127	O	-1.102725	-1.628777	-0.385399
O128	O	-0.602725	-1.128777	0.114601
H129	H	-1.145731	-1.573438	-0.340822
H130	H	-0.645731	-1.073438	0.159178
O131	O	-1.200636	-1.336453	-0.677337
O132	O	-0.700636	-0.836453	-0.177337
H133	H	-1.225476	-1.389209	-0.624664
H134	H	-0.725476	-0.889209	-0.124664
H135	H	-0.948952	-1.198641	-0.814780
H136	H	-0.448952	-0.698641	-0.314780
H137	H	-0.778011	-1.232822	-0.780493
H138	H	-0.278011	-0.732822	-0.280493
