data_functionalizedCrystal
_audit_creation_method	'MofGen! by Chris Wilmer'
_symmetry_space_group_name_H-M	'P1'
_symmetry_Int_Tables_number	1
_symmetry_cell_setting	triclinic
loop_
_symmetry_equiv_pos_as_xyz
  x,y,z
_cell_length_a	17.052862
_cell_length_b	12.970454
_cell_length_c	12.970454
_cell_angle_alpha	59.999644
_cell_angle_beta	89.999968
_cell_angle_gamma	50.259530
loop_
_atom_site_label
_atom_site_type_symbol
_atom_site_fract_x
_atom_site_fract_y
_atom_site_fract_z
Zr1	Zr	0.914392	0.765897	0.046006
O2	O	0.762832	1.041093	-0.148672
O3	O	0.960853	0.532380	0.105686
O4	O	0.960852	0.747472	-0.109406
O5	O	0.762834	0.826000	0.236088
O6	O	1.117054	0.685527	-0.078433
O7	O	0.762833	0.826001	0.066420
O8	O	1.117055	0.300766	0.306327
O9	O	0.762832	1.210760	-0.148673
O10	O	1.097239	0.566763	0.154253
O11	O	0.980669	0.612991	0.257759
O12	O	0.980668	0.866234	0.004516
O13	O	0.864097	0.912463	0.108022
Zr14	Zr	1.163516	0.667099	0.366004
Zr15	Zr	1.163515	0.667100	0.095404
Zr16	Zr	0.914393	0.765895	0.316606
Zr17	Zr	0.914392	1.036496	0.046005
Zr18	Zr	1.163516	0.396499	0.366006
O19	O	1.117055	0.900615	0.306324
O20	O	1.117054	0.900618	-0.078434
O21	O	0.762834	1.041090	0.236087
O22	O	1.315076	0.391902	0.560682
O23	O	1.315074	0.391905	0.175924
O24	O	0.960855	0.532378	0.490445
O25	O	1.315074	0.606996	0.175922
O26	O	1.117056	0.685523	0.521416
O27	O	0.960855	0.747468	0.490444
O28	O	1.315075	0.606995	0.345590
O29	O	0.960852	1.132231	-0.109408
O30	O	1.117056	0.300765	0.521418
O31	O	1.315076	0.222235	0.560683
O32	O	1.315075	0.222236	0.345592
O33	O	0.762833	1.210759	0.066418
O34	O	0.960853	1.132229	0.105683
O35	O	1.097241	0.566761	0.407495
O36	O	1.213811	0.520532	0.303988
O37	O	1.097240	0.820004	0.154251
O38	O	0.980669	0.866233	0.257758
C39	C	1.038954	0.378018	0.206007
C40	C	1.038954	0.263142	0.206007
C41	C	0.727339	0.840076	0.144216
C42	C	0.621579	0.882018	0.123245
C43	C	0.566864	0.374944	0.376779
C44	C	0.666233	0.335532	0.396477
C45	C	0.655075	0.472150	0.328171
C46	C	0.544538	0.648187	0.240163
C47	C	0.445160	0.687603	0.220455
C48	C	0.533370	0.784808	0.171847
C49	C	0.422833	0.960845	0.083839
C50	C	0.323466	1.000253	0.064136
C51	C	0.334624	0.863636	0.132441
C52	C	0.632748	0.745393	0.191555
C53	C	0.511044	1.058051	0.035232
C54	C	0.411675	1.097463	0.015534
C55	C	1.350569	0.592919	0.267794
C56	C	1.456329	0.550977	0.288765
C57	C	1.038953	0.716500	-0.132474
C58	C	1.038952	0.716501	-0.247351
C59	C	1.038954	1.054977	0.206003
C60	C	1.038954	1.169854	0.206003
C61	C	1.038955	0.716495	0.544485
C62	C	1.038956	0.716495	0.659362
C63	C	1.350569	0.254440	0.267796
C64	C	1.456329	0.097621	0.288767
C65	C	1.038955	0.378016	0.544486
C66	C	1.038956	0.263139	0.659364
C67	C	1.350571	0.254437	0.606276
C68	C	1.456330	0.097618	0.742124
C69	C	0.727338	1.178558	-0.194265
C70	C	0.621578	1.335377	-0.330113
C71	C	0.727339	1.178556	0.144214
C72	C	0.621580	1.335374	0.123243
C73	C	1.038953	1.054979	-0.132476
C74	C	1.038952	1.169857	-0.247354
C75	C	1.445145	0.048109	0.220444
C76	C	1.544508	-0.099219	0.240121
C77	C	1.655053	-0.197041	0.328130
C78	C	1.666234	-0.147518	0.396455
C79	C	1.566873	-0.000184	0.376770
C80	C	1.566856	-0.000160	0.751892
C81	C	1.666238	-0.147497	0.879527
C82	C	1.655092	-0.197060	0.997393
C83	C	1.544555	-0.099266	0.987619
C84	C	1.445176	0.048076	0.859986
C85	C	0.511053	1.433169	-0.339882
C86	C	0.411670	1.580539	-0.467517
C87	C	0.422816	1.630107	-0.585382
C88	C	0.533353	1.532306	-0.575609
C89	C	0.632732	1.384946	-0.447975
C90	C	0.632763	1.384897	0.191555
C91	C	0.533401	1.532256	0.171848
C92	C	0.422855	1.630081	0.083835
C93	C	0.411674	1.580553	0.015515
C94	C	0.511036	1.433204	0.035216
H95	H	0.722741	0.602061	0.263222
C96	C	0.277340	1.376090	-0.211934
C97	C	0.290168	1.290959	-0.081218
H98	H	0.202328	1.495547	-0.271662
H99	H	0.286060	1.318311	-0.242829
H100	H	0.334924	1.372171	-0.209962
H101	H	0.232588	1.294866	-0.083188
H102	H	0.281436	1.348755	-0.050316
H103	H	0.756226	0.192202	0.468118
C104	C	0.313558	1.916225	-0.797649
C105	C	0.313569	1.792081	-0.725675
H106	H	0.246107	2.016220	-0.884252
H107	H	0.380966	1.865088	-0.808709
H108	H	0.313574	1.951581	-0.748802
H109	H	0.313562	1.756715	-0.774516
H110	H	0.246143	1.843226	-0.714619
H111	H	0.321655	1.660224	-0.056146
H112	H	0.501954	1.169297	-0.020391
H113	H	0.575934	0.263729	0.432378
C114	C	0.126012	1.090320	0.019121
C115	C	0.225392	0.906961	0.110795
H116	H	0.058580	1.117059	0.005770
H117	H	0.126013	1.139128	-0.065081
H118	H	0.126038	1.139121	0.054518
H119	H	0.225370	0.858161	0.075393
H120	H	0.225391	0.858133	0.195014
C121	C	0.380772	1.495720	-0.245893
C122	C	0.498780	1.378728	-0.210337
H123	H	0.373191	1.462129	-0.165919
H124	H	0.344539	1.492389	-0.297912
H125	H	0.344560	1.611984	-0.297943
H126	H	0.534991	1.262465	-0.158294
H127	H	0.535028	1.382041	-0.158295
C128	C	0.437855	1.340863	-0.003784
C129	C	0.498730	1.378761	-0.039863
H130	H	0.430259	1.307250	-0.050133
H131	H	0.362875	1.442618	-0.028111
H132	H	0.479161	1.246997	0.091363
H133	H	0.457420	1.472637	-0.135009
H134	H	0.573724	1.276995	-0.015545
H135	H	0.321676	1.660148	-0.475449
C136	C	1.764342	-0.483161	1.209664
C137	C	1.764334	-0.359021	1.137689
H138	H	1.831782	-0.583142	1.296278
H139	H	1.764338	-0.518531	1.160836
H140	H	1.696917	-0.432003	1.220711
H141	H	1.831755	-0.410175	1.126634
H142	H	1.764349	-0.323651	1.186529
C143	C	0.767020	1.386647	-0.500859
C144	C	0.754214	1.277470	-0.437273
H145	H	0.842012	1.320306	-0.494269
H146	H	0.758339	1.432155	-0.457710
H147	H	0.709402	1.481510	-0.593729
H148	H	0.811827	1.182614	-0.344399
H149	H	0.762906	1.231935	-0.480418
C150	C	1.310816	0.046469	0.169262
C151	C	1.323641	0.155621	0.123693
H152	H	1.235808	0.112841	0.109520
H153	H	1.319524	0.000917	0.257932
H154	H	1.368408	-0.048364	0.171214
H155	H	1.266053	0.250448	0.121751
H156	H	1.314921	0.201201	0.034999
H157	H	0.735989	0.440050	0.344215
H158	H	0.722766	1.305257	0.263231
C159	C	0.313687	1.916128	0.010057
C160	C	0.313648	1.792040	0.062202
H161	H	0.246274	2.016104	-0.003282
H162	H	0.313667	1.951521	-0.074154
H163	H	0.381139	1.864918	0.072259
H164	H	0.246199	1.843246	-0.000005
H165	H	0.313656	1.756647	0.146425
H166	H	0.233464	1.143595	-0.007538
H167	H	1.575995	0.040108	0.432417
H168	H	1.575953	0.040169	0.655934
H169	H	1.535381	-0.139519	0.184479
H170	H	1.735950	-0.317007	0.344149
H171	H	1.756253	-0.227185	0.468112
C172	C	1.776513	-0.180376	0.759835
C173	C	1.787730	-0.254988	0.890248
H174	H	1.851516	-0.246743	0.766455
H175	H	1.735223	-0.062110	0.712297
H176	H	1.735208	-0.181704	0.712319
H177	H	1.829028	-0.253648	0.937761
H178	H	1.829038	-0.373285	0.937806
H179	H	1.535498	-0.139642	1.083603
H180	H	1.355185	0.127674	0.852050
H181	H	0.542527	1.572554	0.227491
H182	H	0.542414	1.572684	-0.671590
