data_functionalizedCrystal
_audit_creation_method	'MofGen! by Chris Wilmer'
_symmetry_space_group_name_H-M	'P1'
_symmetry_Int_Tables_number	1
_symmetry_cell_setting	triclinic
loop_
_symmetry_equiv_pos_as_xyz
  x,y,z
_cell_length_a	12.759401
_cell_length_b	19.120786
_cell_length_c	19.121242
_cell_angle_alpha	90.074134
_cell_angle_beta	87.547575
_cell_angle_gamma	92.465685
loop_
_atom_site_label
_atom_site_type_symbol
_atom_site_fract_x
_atom_site_fract_y
_atom_site_fract_z
Zn1	Zn	1.611729	-0.296024	-0.384439
Zn2	Zn	1.596655	-0.408272	-0.262197
Zn3	Zn	1.428896	-0.291048	-0.267220
Zn4	Zn	1.428187	-0.413231	-0.379398
O5	O	1.516367	-0.352144	-0.323314
O6	O	1.756751	-0.310921	-0.368230
O7	O	1.568390	-0.388564	-0.164759
O8	O	1.459754	-0.193597	-0.286981
O9	O	1.745676	-0.393389	-0.278420
O10	O	1.594081	-0.197253	-0.373101
O11	O	1.445138	-0.302440	-0.168449
O12	O	1.281781	-0.307249	-0.282094
O13	O	1.458546	-0.401841	-0.478172
O14	O	1.281260	-0.397016	-0.364511
O15	O	1.593394	-0.315729	-0.481875
O16	O	1.567702	-0.507041	-0.273533
O17	O	1.443929	-0.510684	-0.359640
C18	C	1.243399	-0.352131	-0.323301
C19	C	1.126623	-0.352143	-0.323311
C20	C	1.504132	-0.534302	-0.315510
C21	C	1.498996	-0.612231	-0.312195
C22	C	0.956266	-0.395022	-0.276502
C23	C	1.065990	-0.395011	-0.276490
C24	C	1.077526	-0.309279	-0.370144
C25	C	0.967804	-0.309287	-0.370152
C26	C	1.209175	-0.416415	-0.192688
C27	C	1.258268	-0.459286	-0.145864
C28	C	1.217400	-0.527221	-0.132060
C29	C	1.127441	-0.552300	-0.165091
C30	C	1.078354	-0.509433	-0.211920
C31	C	1.119220	-0.441487	-0.225711
C32	C	0.824617	-0.287890	-0.453955
C33	C	0.775528	-0.245026	-0.500788
C34	C	0.816393	-0.177090	-0.514599
C35	C	0.906356	-0.152014	-0.481580
C36	C	0.955445	-0.194878	-0.434747
C37	C	0.914572	-0.262813	-0.420935
C38	C	1.566472	-0.650687	-0.355511
C39	C	1.561642	-0.723910	-0.352398
C40	C	1.489340	-0.758675	-0.305963
C41	C	1.421857	-0.720214	-0.262645
C42	C	1.426683	-0.646993	-0.265762
C43	C	1.471268	-0.979664	-0.294308
C44	C	1.466449	-1.052891	-0.291192
C45	C	1.606233	-1.056581	-0.380946
C46	C	1.611057	-0.983358	-0.384057
C47	C	1.543570	-0.944904	-0.340741
C48	C	1.484403	-0.833521	-0.302778
C49	C	1.548503	-0.870060	-0.343930
C50	C	1.790400	-0.352157	-0.323327
C51	C	1.907177	-0.352162	-0.323333
C52	C	1.527572	-0.359894	-0.506172
C53	C	1.532347	-0.363196	-0.584096
C54	C	1.528678	-0.169275	-0.331164
C55	C	1.533925	-0.091347	-0.334509
C56	C	1.562629	-0.384159	-1.024718
C57	C	1.558127	-0.381052	-0.951500
C58	C	1.491712	-0.334654	-0.916821
C59	C	1.429787	-0.291367	-0.955363
C60	C	1.434284	-0.294478	-1.028578
C61	C	1.474919	-0.323020	-0.695853
C62	C	1.470429	-0.319910	-0.622632
C63	C	1.598768	-0.409596	-0.618775
C64	C	1.603264	-0.412701	-0.691992
C65	C	1.541335	-0.369416	-0.730528
C66	C	1.487111	-0.331476	-0.841981
C67	C	1.545931	-0.372599	-0.805366
C68	C	1.505269	-0.344373	-0.141169
C69	C	1.500711	-0.340873	-0.063254
H70	H	0.906906	-0.429933	-0.238378
N71	N	1.353903	-0.605512	-0.219045
H72	H	1.307368	-0.638645	-0.189154
H73	H	1.396722	-0.573743	-0.187920
H74	H	1.416319	-0.948360	-0.259037
N75	N	1.358146	-0.241327	-0.917962
H76	H	1.364694	-0.245921	-0.865733
H77	H	1.378659	-0.191800	-0.932917
N78	N	1.355286	-0.432243	-0.110231
H79	H	1.412444	-0.419451	-0.146722
H80	H	1.338141	-0.389470	-0.081621
N81	N	1.398782	-0.269870	-0.585228
H82	H	1.405337	-0.274466	-0.532999
H83	H	1.419289	-0.220342	-0.600181
H84	H	0.939633	-0.096696	-0.492828
N85	N	1.634269	-0.434198	-1.062119
H86	H	1.672809	-0.461149	-1.026594
H87	H	1.591182	-0.467931	-1.091102
N88	N	1.415483	-0.281429	-0.804580
H89	H	1.363011	-0.308627	-0.772977
H90	H	1.458586	-0.247666	-0.775639
N91	N	0.763457	-0.130860	-0.565120
H92	H	0.700270	-0.157052	-0.583949
H93	H	0.740283	-0.087272	-0.540042
N94	N	0.678504	-0.272073	-0.536411
H95	H	0.660057	-0.321614	-0.520554
H96	H	0.618188	-0.241300	-0.523716
N97	N	1.367494	-0.247798	-1.070147
H98	H	1.386398	-0.197161	-1.059569
H99	H	1.380449	-0.256874	-1.121774
N100	N	0.981337	-0.536473	-0.247548
H101	H	0.962896	-0.586018	-0.231702
H102	H	0.921020	-0.505704	-0.234843
H103	H	1.600003	-0.410377	-0.833605
N104	N	1.665558	-0.456281	-0.577212
H105	H	1.652524	-0.447341	-0.525566
H106	H	1.646718	-0.506893	-0.587931
H107	H	1.669931	-0.955054	-0.421868
N108	N	1.253250	-0.343135	-0.207560
H109	H	1.327490	-0.345270	-0.227758
H110	H	1.208430	-0.319817	-0.242213
H111	H	1.616596	-0.755217	-0.387665
H112	H	1.607367	-0.841752	-0.381740
H113	H	1.126902	-0.274373	-0.408264
H114	H	1.424490	-0.287775	-0.727220
H115	H	1.028841	-0.174514	-0.407987
H116	H	1.094181	-0.607623	-0.153854
H117	H	1.257380	-0.562127	-0.093934
H118	H	1.407567	-1.081195	-0.253379
N119	N	0.780535	-0.361166	-0.439053
H120	H	0.716102	-0.370549	-0.467082
H121	H	0.835156	-0.395986	-0.452586
H122	H	1.661176	-1.087899	-0.416212
H123	H	1.625352	-0.622386	-0.393320
H124	H	1.608534	-0.416308	-0.920127
H125	H	1.362983	-0.748526	-0.224839
H126	H	1.425538	-0.861835	-0.264969
N127	N	1.674895	-0.462745	-0.729395
H128	H	1.713437	-0.489697	-0.693872
H129	H	1.631804	-0.496476	-0.758377
