data_functionalizedCrystal
_audit_creation_method	'MofGen! by Chris Wilmer'
_symmetry_space_group_name_H-M	'P1'
_symmetry_Int_Tables_number	1
_symmetry_cell_setting	triclinic
loop_
_symmetry_equiv_pos_as_xyz
  x,y,z
_cell_length_a	18.215407
_cell_length_b	14.908178
_cell_length_c	18.215399
_cell_angle_alpha	86.671900
_cell_angle_beta	89.985640
_cell_angle_gamma	93.311467
loop_
_atom_site_label
_atom_site_type_symbol
_atom_site_fract_x
_atom_site_fract_y
_atom_site_fract_z
Zn1	Zn	1.108177	-0.359236	-0.399150
Zn2	Zn	1.101004	-0.510123	-0.268978
Zn3	Zn	0.985114	-0.359264	-0.276101
Zn4	Zn	0.977991	-0.510058	-0.392011
O5	O	1.043072	-0.434670	-0.334060
O6	O	1.210209	-0.379267	-0.381889
O7	O	1.085611	-0.490150	-0.166937
O8	O	1.007422	-0.233006	-0.298393
O9	O	1.204939	-0.490122	-0.286252
O10	O	1.097835	-0.232985	-0.388796
O11	O	1.000467	-0.379314	-0.172170
O12	O	0.881186	-0.379252	-0.291471
O13	O	0.995281	-0.490013	-0.495944
O14	O	0.875952	-0.490040	-0.376629
O15	O	1.090928	-0.379204	-0.501189
O16	O	1.078704	-0.636369	-0.279330
O17	O	0.988326	-0.636321	-0.369722
C18	C	0.851867	-0.434642	-0.334049
C19	C	0.770067	-0.434652	-0.334060
C20	C	0.584611	-0.377049	-0.383927
C21	C	0.507752	-0.377056	-0.383929
C22	C	0.502284	-0.492317	-0.284205
C23	C	0.579142	-0.492304	-0.284200
C24	C	0.620303	-0.434671	-0.334065
C25	C	0.466586	-0.434692	-0.334072
C26	C	0.383252	-0.434701	-0.334074
C27	C	0.703642	-0.434661	-0.334062
C28	C	1.031984	-0.669081	-0.322994
C29	C	1.027308	-0.769363	-0.318285
C30	C	1.112597	-0.957632	-0.403673
C31	C	1.108205	-1.051856	-0.399251
C32	C	1.014131	-1.052037	-0.305022
C33	C	1.018522	-0.957813	-0.309444
C34	C	1.067757	-0.910614	-0.358771
C35	C	1.072152	-0.816388	-0.363189
C36	C	0.978074	-0.816570	-0.268964
C37	C	0.973683	-0.910794	-0.264542
C38	C	1.235023	-0.434699	-0.334072
C39	C	1.316822	-0.434711	-0.334077
C40	C	1.043110	-0.434598	-0.526017
C41	C	1.043126	-0.434567	-0.607817
C42	C	1.054223	-0.199344	-0.345185
C43	C	1.058975	-0.099062	-0.349926
C44	C	0.998833	-0.376817	-0.798739
C45	C	0.998847	-0.376798	-0.875598
C46	C	1.087512	-0.492211	-0.870138
C47	C	1.087494	-0.492233	-0.793280
C48	C	1.043156	-0.434531	-0.757582
C49	C	1.043188	-0.434490	-0.911300
C50	C	1.043203	-0.434471	-0.994635
C51	C	1.043140	-0.434551	-0.674242
C52	C	1.043079	-0.434677	-0.142854
C53	C	1.043217	-0.434453	-0.061066
H54	H	1.112243	-0.777960	-0.403351
C55	C	0.468490	-0.313677	-0.438783
C56	C	0.383949	-0.313684	-0.438792
C57	C	0.344688	-0.250303	-0.493650
C58	C	0.389967	-0.186915	-0.548499
C59	C	0.474512	-0.186905	-0.548492
C60	C	0.513773	-0.250286	-0.493634
H61	H	0.350427	-0.360610	-0.398188
H62	H	0.282102	-0.250311	-0.493655
H63	H	0.360903	-0.139996	-0.589108
H64	H	0.508034	-0.139979	-0.589096
H65	H	0.576360	-0.250279	-0.493629
H66	H	1.123588	-0.539234	-0.759769
H67	H	0.618122	-0.330117	-0.424528
C68	C	0.618409	-0.555695	-0.229350
C69	C	0.573136	-0.619098	-0.174507
C70	C	0.612404	-0.682483	-0.119658
C71	C	0.696945	-0.682466	-0.119652
C72	C	0.742223	-0.619060	-0.174497
C73	C	0.702955	-0.555675	-0.229346
H74	H	0.510549	-0.619114	-0.174510
H75	H	0.578886	-0.729420	-0.079058
H76	H	0.726013	-0.729387	-0.079049
H77	H	0.804809	-0.619045	-0.174494
H78	H	0.736473	-0.508738	-0.269946
H79	H	0.941565	-0.778277	-0.232399
C80	C	0.457002	-0.555718	-0.229362
C81	C	0.405990	-0.516550	-0.173490
C82	C	0.360710	-0.579955	-0.118648
C83	C	0.366442	-0.682527	-0.119678
C84	C	0.417457	-0.721700	-0.175552
C85	C	0.462737	-0.658296	-0.230394
H86	H	0.401744	-0.440615	-0.172726
H87	H	0.322945	-0.550956	-0.077287
H88	H	0.332923	-0.729463	-0.079081
H89	H	0.421703	-0.797635	-0.176317
H90	H	0.500502	-0.687295	-0.271756
C91	C	1.166757	-0.905705	-0.457924
C92	C	1.249822	-0.918579	-0.451385
C93	C	1.303985	-0.866652	-0.505634
C94	C	1.275082	-0.801852	-0.566423
C95	C	1.192012	-0.788976	-0.572965
C96	C	1.137850	-0.840902	-0.518715
H97	H	1.271222	-0.966550	-0.406383
H98	H	1.365479	-0.876184	-0.500791
H99	H	1.315176	-0.763413	-0.606582
H100	H	1.170613	-0.741004	-0.617967
H101	H	1.076356	-0.831370	-0.523558
C102	C	0.950056	-0.313354	-0.759470
C103	C	0.950033	-0.313372	-0.674929
C104	C	0.901252	-0.249910	-0.635663
C105	C	0.852494	-0.186431	-0.680938
C106	C	0.852515	-0.186411	-0.765484
C107	C	0.901296	-0.249872	-0.804750
H108	H	0.986128	-0.360365	-0.641410
H109	H	0.901237	-0.249926	-0.573077
H110	H	0.816383	-0.139453	-0.651871
H111	H	0.816420	-0.139417	-0.799003
H112	H	0.901312	-0.249857	-0.867337
H113	H	1.144715	-1.090135	-0.435819
C114	C	0.959976	-1.103971	-0.250771
C115	C	0.988888	-1.168775	-0.189989
C116	C	0.934733	-1.220713	-0.135739
C117	C	0.851666	-1.207847	-0.142269
C118	C	0.822749	-1.143040	-0.203053
C119	C	0.876904	-1.091103	-0.257304
H120	H	1.050383	-1.178302	-0.185153
H121	H	0.956139	-1.268687	-0.090743
H122	H	0.811577	-1.246295	-0.102110
H123	H	0.761254	-1.133514	-0.207890
H124	H	0.855498	-1.043128	-0.302300
H125	H	0.933595	-0.949236	-0.224383
C126	C	0.950094	-0.313308	-0.920870
C127	C	0.866082	-0.320657	-0.909947
C128	C	0.817326	-0.257163	-0.955218
C129	C	0.852582	-0.186321	-1.011412
C130	C	0.936598	-0.178969	-1.022338
C131	C	0.985354	-0.242463	-0.977067
H132	H	0.839980	-0.373101	-0.868346
H133	H	0.755132	-0.262606	-0.947129
H134	H	0.816490	-0.139320	-1.044924
H135	H	0.962701	-0.126525	-1.063939
H136	H	1.047549	-0.237020	-0.985155
H137	H	1.123611	-0.539189	-0.899212
