data_functionalizedCrystal
_audit_creation_method	'MofGen! by Chris Wilmer'
_symmetry_space_group_name_H-M	'P1'
_symmetry_Int_Tables_number	1
_symmetry_cell_setting	triclinic
loop_
_symmetry_equiv_pos_as_xyz
  x,y,z
_cell_length_a	11.026607
_cell_length_b	17.699083
_cell_length_c	16.776229
_cell_angle_alpha	90.001114
_cell_angle_beta	89.996140
_cell_angle_gamma	84.065484
loop_
_atom_site_label
_atom_site_type_symbol
_atom_site_fract_x
_atom_site_fract_y
_atom_site_fract_z
O1	O	0.153399	-1.025155	-0.066172
O2	O	0.173356	-0.807518	-0.066197
O3	O	-0.013222	-0.898299	-0.066184
O4	O	0.339978	-0.934374	-0.066186
O5	O	-0.013234	-0.898282	0.066393
O6	O	0.173345	-0.807501	0.066379
O7	O	0.153387	-1.025138	0.066405
Zn8	Zn	0.163364	-0.916317	0.087441
Zn9	Zn	0.163379	-0.916339	-0.087234
O10	O	0.339966	-0.934357	0.066391
C11	C	0.172636	-0.779214	0.000087
C12	C	0.170490	-0.694902	0.000078
C13	C	-0.058419	-0.891635	0.000103
C14	C	-0.193075	-0.871796	0.000097
C15	C	0.154108	-1.053441	0.000118
C16	C	0.156254	-1.137754	0.000123
C17	C	-0.267042	-0.926576	0.000103
C18	C	-0.406216	-0.906072	0.000097
C19	C	0.385163	-0.941021	0.000103
C20	C	0.519819	-0.960860	0.000103
N21	N	0.163353	-0.916307	0.206652
C22	C	0.280008	-0.661328	0.000077
C23	C	0.277985	-0.582106	0.000088
C24	C	0.166443	-0.536460	0.000092
C25	C	0.056917	-0.570039	0.000095
C26	C	0.058941	-0.649259	0.000090
C27	C	0.048751	-0.250554	0.000115
C28	C	0.046735	-0.171329	0.000117
C29	C	0.267794	-0.183402	0.000112
C30	C	0.269819	-0.262621	0.000107
C31	C	0.160293	-0.296194	0.000114
C32	C	0.162488	-0.382094	0.000104
C33	C	0.164247	-0.450561	0.000096
N34	N	0.163381	-0.916354	-0.206445
C35	C	0.080770	-0.956525	0.248375
C36	C	0.080769	-0.956529	0.331828
C37	C	0.163358	-0.916319	0.373555
C38	C	0.245945	-0.876096	0.331826
C39	C	0.245939	-0.876088	0.248376
C40	C	0.245969	-0.876127	0.668374
C41	C	0.245971	-0.876140	0.751830
C42	C	0.080799	-0.956568	0.751826
C43	C	0.080793	-0.956560	0.668375
C44	C	0.163375	-0.916334	0.626653
C45	C	0.163374	-0.916329	0.536165
C46	C	0.163366	-0.916328	0.464042
H47	H	-0.445918	-0.843990	0.000085
N48	N	-0.245649	-0.789562	0.000094
H49	H	-0.217270	-0.763513	-0.049053
H50	H	-0.337609	-0.786632	0.000124
N51	N	-0.008299	-0.999920	0.623371
H52	H	0.004228	-0.993811	0.564175
H53	H	0.005598	-1.055506	0.637947
H54	H	-0.044102	-0.134166	0.000122
H55	H	0.367165	-0.554775	0.000086
H56	H	-0.440480	-1.022943	0.000050
N57	N	0.335022	-0.832730	0.376836
H58	H	0.421097	-0.853168	0.362303
H59	H	0.321053	-0.777135	0.362307
N60	N	-0.008320	-0.999879	0.203364
H61	H	0.037955	-1.039691	0.168727
H62	H	-0.060627	-1.025307	0.242505
N63	N	-0.214457	-1.008808	0.000120
H64	H	-0.242841	-1.034849	0.049270
H65	H	-0.242834	-1.034807	-0.049054
N66	N	0.400315	-0.710558	0.000063
H67	H	0.469386	-0.677264	0.000065
H68	H	0.405971	-0.743693	0.049207
N69	N	0.390123	-0.311854	0.000091
H70	H	0.459198	-0.278563	0.000092
H71	H	0.395778	-0.344989	0.049235
H72	H	-0.040432	-0.277879	0.000121
H73	H	0.013552	-0.989319	0.785804
H74	H	-0.033903	-0.532868	0.000110
H75	H	0.013523	-0.989277	0.365798
H76	H	0.356975	-0.156058	0.000111
H77	H	-0.030240	-0.676594	0.000090
H78	H	0.313227	-0.843393	0.785803
N79	N	0.335029	-0.832738	0.623380
H80	H	0.387348	-0.807268	0.662479
H81	H	0.388601	-0.868998	0.588743
N82	N	0.335004	-0.832706	0.203370
H83	H	0.387326	-0.807234	0.242466
H84	H	0.388573	-0.868969	0.168735
