data_functionalizedCrystal
_audit_creation_method	'MofGen! by Chris Wilmer'
_symmetry_space_group_name_H-M	'P1'
_symmetry_Int_Tables_number	1
_symmetry_cell_setting	triclinic
loop_
_symmetry_equiv_pos_as_xyz
  x,y,z
_cell_length_a	9.065218
_cell_length_b	10.268362
_cell_length_c	11.792241
_cell_angle_alpha	90.005428
_cell_angle_beta	84.604650
_cell_angle_gamma	90.004643
loop_
_atom_site_label
_atom_site_type_symbol
_atom_site_fract_x
_atom_site_fract_y
_atom_site_fract_z
O1	O	1.958842	0.108304	0.166432
O2	O	2.458842	0.608304	0.666432
O3	O	1.529429	0.108306	0.180084
O4	O	2.029429	0.608306	0.680084
O5	O	1.754556	0.108296	0.008145
O6	O	2.254556	0.608296	0.508145
O7	O	1.733715	0.108314	0.338371
O8	O	2.233715	0.608314	0.838371
O9	O	1.754536	-0.108305	0.008138
O10	O	2.254536	0.391695	0.508138
O11	O	1.529409	-0.108294	0.180076
O12	O	2.029409	0.391706	0.680076
O13	O	1.958822	-0.108296	0.166425
O14	O	2.458822	0.391704	0.666425
Cu15	Cu	1.744114	-0.128073	0.173250
Cu16	Cu	2.244114	0.371927	0.673250
Cu17	Cu	1.744137	0.128083	0.173259
Cu18	Cu	2.244137	0.628083	0.673259
O19	O	1.733695	-0.108286	0.338364
O20	O	2.233695	0.391714	0.838364
C21	C	1.474445	0.000006	0.178768
C22	C	1.974445	0.500006	0.678768
C23	C	1.310639	0.000007	0.174845
C24	C	1.810639	0.500007	0.674845
N25	N	1.744108	-0.308239	0.173243
N26	N	2.244108	0.191761	0.673243
C27	C	1.744130	-0.573909	0.173256
C28	C	2.244130	-0.073909	0.673256
C29	C	1.744113	-0.426071	0.173252
C30	C	2.244113	0.073929	0.673252
C31	C	2.013806	0.000007	0.167741
C32	C	2.513806	0.500007	0.667741
C33	C	2.177612	0.000015	0.171664
C34	C	2.677612	0.500015	0.671664
C35	C	1.753237	-0.000004	-0.034156
C36	C	2.253237	0.499996	0.465844
C37	C	1.749319	-0.000002	-0.160192
C38	C	2.249319	0.499998	0.339808
N39	N	1.744155	0.308249	0.173257
N40	N	2.244155	0.808249	0.673257
C41	C	1.742113	0.000019	-0.390944
C42	C	2.242113	0.500019	0.109056
C43	C	1.746117	0.000007	-0.262537
C44	C	2.246117	0.500007	0.237463
C45	C	1.735014	0.000017	0.380665
C46	C	2.235014	0.500017	0.880665
C47	C	1.738933	0.000024	0.506701
C48	C	2.238933	0.500024	1.006701
