data_functionalizedCrystal
_audit_creation_method	'MofGen! by Chris Wilmer'
_symmetry_space_group_name_H-M	'P1'
_symmetry_Int_Tables_number	1
_symmetry_cell_setting	triclinic
loop_
_symmetry_equiv_pos_as_xyz
  x,y,z
_cell_length_a	19.805407
_cell_length_b	13.032721
_cell_length_c	13.033431
_cell_angle_alpha	74.837288
_cell_angle_beta	97.186722
_cell_angle_gamma	97.204665
loop_
_atom_site_label
_atom_site_type_symbol
_atom_site_fract_x
_atom_site_fract_y
_atom_site_fract_z
Zn1	Zn	1.047385	-0.499355	0.654288
Zn2	Zn	1.021831	-0.654376	0.499226
Zn3	Zn	0.921480	-0.476777	0.476692
Zn4	Zn	0.921412	-0.676922	0.676774
O5	O	0.978027	-0.576858	0.576745
O6	O	1.138712	-0.519933	0.633739
O7	O	0.997853	-0.611933	0.347607
O8	O	0.948904	-0.331134	0.481409
O9	O	1.119938	-0.633826	0.519815
O10	O	1.041406	-0.347722	0.611889
O11	O	0.924126	-0.481451	0.331051
O12	O	0.826754	-0.503313	0.503213
O13	O	0.948788	-0.672252	0.822421
O14	O	0.826704	-0.650358	0.650212
O15	O	1.041340	-0.541794	0.805901
O16	O	0.997787	-0.806005	0.541619
O17	O	0.924010	-0.822569	0.672063
C18	C	0.802170	-0.576833	0.576708
C19	C	0.726937	-0.576851	0.576721
C20	C	0.691570	-0.653506	0.653166
C21	C	0.620882	-0.653510	0.653181
C22	C	0.585563	-0.576862	0.576745
C23	C	0.620936	-0.500200	0.500296
C24	C	0.691623	-0.500192	0.500286
C25	C	0.335863	-0.500228	0.500334
C26	C	0.265171	-0.500243	0.500347
C27	C	0.265123	-0.653545	0.653229
C28	C	0.335810	-0.653538	0.653220
C29	C	0.371177	-0.576872	0.576774
C30	C	0.447825	-0.576868	0.576760
C31	C	0.508916	-0.576871	0.576754
C32	C	0.958138	-0.852830	0.611749
C33	C	0.949694	-0.970897	0.626759
C34	C	0.982473	-1.015311	0.568959
C35	C	0.973747	-1.137339	0.584471
C36	C	1.154571	-0.576883	0.576783
C37	C	1.229803	-0.576894	0.576799
C38	C	0.997907	-0.612056	0.853776
C39	C	1.006379	-0.627056	0.971830
C40	C	0.998013	-0.299810	0.541627
C41	C	1.006530	-0.181749	0.526662
C42	C	0.982436	-0.584684	1.138291
C43	C	0.973675	-0.569178	1.016275
C44	C	0.958215	-0.541818	1.300794
C45	C	0.949738	-0.526814	1.182739
H46	H	0.720321	-0.715924	0.715406
H47	H	0.592089	-0.715931	0.715430
C48	C	1.028514	-0.665887	1.208021
C49	C	1.080785	-0.613785	1.264067
C50	C	1.123249	-0.688555	1.328300
H51	H	1.002450	-0.717656	1.257243
H52	H	1.047936	-0.700170	1.164345
H53	H	1.061363	-0.579519	1.307740
H54	H	1.106865	-0.562023	1.214872
H55	H	1.142672	-0.722838	1.284624
H56	H	1.097180	-0.740319	1.377515
H57	H	1.158723	-0.653213	1.366327
C58	C	0.927751	-0.487820	0.946397
C59	C	0.928209	-0.488590	0.839265
C60	C	0.885920	-0.413649	0.774862
H61	H	0.882414	-0.505561	0.966353
H62	H	0.944103	-0.418710	0.955414
H63	H	0.911855	-0.557684	0.830254
H64	H	0.973536	-0.470836	0.819277
H65	H	0.902271	-0.344539	0.783878
H66	H	0.840585	-0.431397	0.794827
H67	H	0.886230	-0.414154	0.702165
H68	H	0.939224	-1.189653	0.645449
H69	H	1.041059	-1.129438	0.465692
H70	H	0.915255	-0.465794	1.130462
C71	C	1.052363	-0.708524	1.041343
C72	C	1.080818	-0.758924	0.976689
C73	C	1.123174	-0.833987	1.040688
H74	H	1.087922	-0.673478	1.079489
H75	H	1.026227	-0.760318	1.090460
H76	H	1.106953	-0.707139	0.927592
H77	H	1.045275	-0.793992	0.938544
H78	H	1.097038	-0.885780	1.089804
H79	H	1.158729	-0.798931	1.078830
H80	H	1.142481	-0.868199	0.996831
C81	C	0.374039	-0.736810	0.736331
C82	C	0.327938	-0.803926	0.803303
C83	C	0.363131	-0.880637	0.879889
H84	H	0.395363	-0.777962	0.701616
H85	H	0.407855	-0.702161	0.777584
H86	H	0.294134	-0.838572	0.762054
H87	H	0.306612	-0.762804	0.838042
H88	H	0.396947	-0.845989	0.921143
H89	H	0.384454	-0.921782	0.845165
H90	H	0.331858	-0.926179	0.925345
H91	H	0.236319	-0.715967	0.715478
H92	H	0.915174	-1.023214	0.687733
C93	C	1.028445	-0.945675	0.487501
C94	C	1.004311	-0.959305	0.385801
C95	C	1.046647	-0.895186	0.310735
H96	H	1.028224	-0.872894	0.487735
H97	H	1.073758	-0.965731	0.505327
H98	H	0.959009	-0.939243	0.367979
H99	H	1.004534	-1.032072	0.385532
H100	H	1.091960	-0.915242	0.328561
H101	H	1.046424	-0.822410	0.310979
H102	H	1.030282	-0.904433	0.241725
H103	H	0.720419	-0.437767	0.438041
H104	H	0.236417	-0.437821	0.438103
H105	H	0.364650	-0.437809	0.438080
H106	H	0.592174	-0.437788	0.438064
