data_functionalizedCrystal
_audit_creation_method	'MofGen! by Chris Wilmer'
_symmetry_space_group_name_H-M	'P1'
_symmetry_Int_Tables_number	1
_symmetry_cell_setting	triclinic
loop_
_symmetry_equiv_pos_as_xyz
  x,y,z
_cell_length_a	10.654554
_cell_length_b	14.853567
_cell_length_c	9.130313
_cell_angle_alpha	90.002541
_cell_angle_beta	89.999583
_cell_angle_gamma	84.060887
loop_
_atom_site_label
_atom_site_type_symbol
_atom_site_fract_x
_atom_site_fract_y
_atom_site_fract_z
O1	O	1.666515	0.126642	-0.121792
O2	O	1.300912	0.138702	-0.121792
O3	O	1.493479	0.001495	-0.121797
O4	O	1.473948	0.263849	-0.121788
O5	O	1.493477	0.001498	0.121802
O6	O	1.300910	0.138706	0.121807
O7	O	1.666513	0.126646	0.121807
Cu8	Cu	1.483711	0.132676	0.144049
Cu9	Cu	1.483714	0.132672	-0.144035
O10	O	1.473945	0.263853	0.121811
C11	C	1.254122	0.137817	0.000007
C12	C	1.114707	0.135165	0.000006
C13	C	0.933036	0.049393	-0.000009
C14	C	1.064032	0.051885	0.000002
C15	C	1.034378	0.215961	0.000015
C16	C	0.903385	0.213469	0.000015
C17	C	0.882369	-0.033893	-0.000029
C18	C	0.962688	-0.114688	-0.000035
C19	C	1.093684	-0.112197	-0.000024
C20	C	1.144360	-0.028911	-0.000007
C21	C	1.492593	-0.032097	-0.000001
C22	C	1.489941	-0.132195	-0.000014
C23	C	1.364341	-0.545403	0.000014
C24	C	1.593116	-0.565456	0.000014
C25	C	1.595609	-0.471409	0.000005
C26	C	1.482467	-0.414354	0.000003
C27	C	1.366831	-0.451346	0.000009
C28	C	1.711243	-0.434409	0.000013
C29	C	1.713741	-0.340357	0.000006
C30	C	1.600598	-0.283300	-0.000006
C31	C	1.484957	-0.320298	-0.000001
C32	C	1.371815	-0.263243	-0.000003
C33	C	1.256173	-0.300239	-0.000009
C34	C	1.253688	-0.394290	-0.000003
C35	C	1.603083	-0.189250	-0.000012
C36	C	1.374305	-0.169187	-0.000008
C37	C	1.713302	0.127530	0.000004
C38	C	1.852718	0.130182	-0.000005
C39	C	1.474831	0.297445	0.000013
C40	C	1.477483	0.397543	0.000016
N41	N	1.483718	0.132679	0.346672
N42	N	1.483716	0.132662	-0.346657
C43	C	1.569008	0.071944	0.423322
C44	C	1.569005	0.071933	0.576659
C45	C	1.398417	0.193399	0.576682
C46	C	1.398415	0.193405	0.423348
C47	C	1.654311	0.011218	0.346646
C48	C	1.739610	-0.049521	0.423296
C49	C	1.739606	-0.049532	0.576633
C50	C	1.654305	0.011196	0.653319
H51	H	0.837988	0.279254	0.000024
H52	H	1.809051	-0.098994	0.639040
O53	O	1.822270	-0.108581	0.348677
C54	C	1.754891	-0.164659	0.260034
H55	H	1.656707	-0.129381	0.237039
H56	H	1.746198	-0.231328	0.319160
C57	C	1.946254	-0.226839	0.142637
C58	C	1.825666	-0.183507	0.114385
H59	H	1.989913	-0.238470	0.052797
H60	H	1.991650	-0.189061	0.202361
H61	H	1.938992	-0.282392	0.191913
H62	H	1.832929	-0.127950	0.065127
H63	H	1.780273	-0.221276	0.054649
H64	H	0.775707	-0.035930	-0.000041
H65	H	0.921418	-0.182498	-0.000061
O66	O	1.315523	0.252492	0.349107
C67	C	1.240220	0.306080	0.449660
H68	H	1.291704	0.307443	0.558964
H69	H	1.146886	0.276181	0.465961
C70	C	1.151265	0.401493	0.255577
C71	C	1.214503	0.403172	0.389822
H72	H	1.135396	0.461383	0.218665
H73	H	1.201994	0.365387	0.187831
H74	H	1.073494	0.376572	0.269179
H75	H	1.292280	0.428081	0.376215
H76	H	1.163787	0.439284	0.457565
H77	H	1.328969	0.242843	0.639130
O78	O	1.141442	-0.430336	-0.000191
C79	C	1.133146	-0.484133	-0.126362
H80	H	1.232088	-0.506927	-0.168427
H81	H	1.077649	-0.442948	-0.214708
C82	C	0.943874	-0.539745	-0.036354
C83	C	1.065397	-0.567747	-0.088012
H84	H	0.902079	-0.591321	-0.012702
H85	H	0.949460	-0.503499	0.048647
H86	H	0.897643	-0.505424	-0.109985
H87	H	1.111631	-0.602057	-0.014376
H88	H	1.059818	-0.604001	-0.173001
H89	H	1.159077	-0.177985	-0.000015
H90	H	1.251027	-0.026889	0.000015
H91	H	1.075650	0.283769	0.000027
H92	H	1.282170	-0.122738	-0.000016
H93	H	1.164054	-0.253773	-0.000001
H94	H	1.270189	-0.575529	0.000003
H95	H	1.685231	-0.611915	0.000027
H96	H	1.803357	-0.480870	0.000029
H97	H	1.807903	-0.310243	0.000009
H98	H	1.697237	-0.159132	0.000002
H99	H	1.654324	0.011223	0.221791
H100	H	1.654301	0.011176	0.778177
