data_functionalizedCrystal
_audit_creation_method	'MofGen! by Chris Wilmer'
_symmetry_space_group_name_H-M	'P1'
_symmetry_Int_Tables_number	1
_symmetry_cell_setting	triclinic
loop_
_symmetry_equiv_pos_as_xyz
  x,y,z
_cell_length_a	16.120484
_cell_length_b	19.077367
_cell_length_c	19.076919
_cell_angle_alpha	94.478002
_cell_angle_beta	84.953390
_cell_angle_gamma	84.897376
loop_
_atom_site_label
_atom_site_type_symbol
_atom_site_fract_x
_atom_site_fract_y
_atom_site_fract_z
Zn1	Zn	-0.299614	-1.048308	0.368771
Zn2	Zn	-0.433770	-1.046978	0.256868
Zn3	Zn	-0.299634	-0.935162	0.255624
Zn4	Zn	-0.445438	-0.923886	0.379953
O5	O	-0.369614	-0.988583	0.315304
O6	O	-0.312518	-1.146998	0.349769
O7	O	-0.411102	-1.036308	0.157839
O8	O	-0.182467	-0.955447	0.265432
O9	O	-0.411083	-1.146021	0.267554
O10	O	-0.182452	-1.038575	0.348562
O11	O	-0.312553	-0.954157	0.156925
O12	O	-0.323867	-0.834800	0.276275
O13	O	-0.430968	-0.936228	0.477334
O14	O	-0.430988	-0.826515	0.367620
O15	O	-0.323832	-1.027641	0.469119
O16	O	-0.552482	-1.025373	0.278397
O17	O	-0.561055	-0.934938	0.368827
C18	C	-0.378696	-0.805023	0.323026
C19	C	-0.382603	-0.726493	0.326347
C20	C	-0.328589	-0.693893	0.280420
C21	C	-0.332267	-0.620105	0.283540
C22	C	-0.389955	-0.578919	0.332592
C23	C	-0.443975	-0.611525	0.378522
C24	C	-0.440301	-0.685311	0.375397
C25	C	-0.406937	-0.357782	0.347026
C26	C	-0.410606	-0.283991	0.350149
C27	C	-0.298898	-0.292577	0.255166
C28	C	-0.295225	-0.366364	0.252049
C29	C	-0.349248	-0.398963	0.297976
N30	N	-0.393714	-0.503497	0.335785
N31	N	-0.345492	-0.474384	0.294779
C32	C	-0.587148	-0.978806	0.324975
C33	C	-0.680208	-0.974687	0.329132
C34	C	-0.850589	-0.967170	0.336738
C35	C	-0.887792	-1.010123	0.293877
C36	C	-0.982599	-1.005940	0.298109
C37	C	-0.755775	-0.971352	0.332507
C38	C	-0.151230	-0.998417	0.305611
C39	C	-0.058168	-1.002608	0.301480
C40	C	-0.378699	-0.980825	0.499578
C41	C	-0.382571	-0.977519	0.578104
C42	C	-0.360492	-0.172861	0.307546
C43	C	-0.356591	-0.251391	0.304221
C44	C	-0.360501	-0.996355	0.131743
C45	C	-0.356387	-0.999809	0.053201
C46	C	-0.328612	-1.023557	0.610720
C47	C	-0.332247	-1.020442	0.684504
C48	C	-0.389846	-0.971292	0.725671
C49	C	-0.443807	-0.925249	0.693050
C50	C	-0.440167	-0.928361	0.619268
C51	C	-0.406709	-0.956878	0.946797
C52	C	-0.410346	-0.953771	1.020585
C53	C	-0.298785	-1.048963	1.012034
C54	C	-0.295154	-1.052073	0.938250
C55	C	-0.349112	-1.006028	0.905635
N56	N	-0.393564	-0.968108	0.801091
N57	N	-0.345388	-1.009209	0.830217
H58	H	-0.484285	-0.711852	0.412796
C59	C	-0.834633	-1.064040	0.240005
N60	N	-0.794590	-1.104646	0.199427
C61	C	-0.903748	-0.913245	0.390594
N62	N	-0.943797	-0.872625	0.431155
H63	H	-0.281712	-1.063582	0.577207
C64	C	-0.272889	-1.071089	0.720378
N65	N	-0.228178	-1.109238	0.747398
C66	C	-0.474067	-0.238688	0.404114
N67	N	-0.521861	-0.204566	0.444762
H68	H	-0.281606	-0.727421	0.240482
C69	C	-0.473709	-0.899697	1.065868
N70	N	-0.521432	-0.858972	1.099974
C71	C	-0.466364	-0.393631	0.397548
N72	N	-0.511128	-0.420634	0.435603
H73	H	-0.490950	-0.577985	0.418458
C74	C	-0.239425	-1.099601	1.047916
N75	N	-0.194709	-1.137740	1.074942
H76	H	-0.248253	-1.092099	0.904736
H77	H	-0.450657	-0.919394	0.920252
C78	C	-0.507158	-0.871177	0.738337
N79	N	-0.554875	-0.830448	0.772446
C80	C	-0.499528	-0.877717	0.583391
N81	N	-0.544238	-0.839568	0.556369
H82	H	-0.288287	-0.593566	0.246138
H83	H	-0.248254	-0.399893	0.212101
H84	H	-0.254916	-0.266027	0.217774
