data_functionalizedCrystal
_audit_creation_method	'MofGen! by Chris Wilmer'
_symmetry_space_group_name_H-M	'P1'
_symmetry_Int_Tables_number	1
_symmetry_cell_setting	triclinic
loop_
_symmetry_equiv_pos_as_xyz
  x,y,z
_cell_length_a	12.759401
_cell_length_b	21.295417
_cell_length_c	12.759393
_cell_angle_alpha	89.961877
_cell_angle_beta	89.981433
_cell_angle_gamma	90.028746
loop_
_atom_site_label
_atom_site_type_symbol
_atom_site_fract_x
_atom_site_fract_y
_atom_site_fract_z
Zn1	Zn	1.606146	-0.250588	-0.593935
Zn2	Zn	1.605994	-0.355872	-0.418235
Zn3	Zn	1.430448	-0.250619	-0.418275
Zn4	Zn	1.430390	-0.355822	-0.593877
O5	O	1.518245	-0.303225	-0.506081
O6	O	1.753147	-0.264563	-0.570637
O7	O	1.582668	-0.341944	-0.271219
O8	O	1.453842	-0.162526	-0.441617
O9	O	1.753035	-0.341914	-0.441551
O10	O	1.582927	-0.162503	-0.570675
O11	O	1.453695	-0.264615	-0.271248
O12	O	1.283419	-0.264566	-0.441560
O13	O	1.453744	-0.341828	-0.740906
O14	O	1.283377	-0.341858	-0.570574
O15	O	1.582871	-0.264514	-0.740949
O16	O	1.582612	-0.443955	-0.441494
O17	O	1.453597	-0.443918	-0.570536
C18	C	1.245277	-0.303210	-0.506066
C19	C	1.128501	-0.303219	-0.506085
C20	C	1.073690	-0.263018	-0.573404
C21	C	0.963966	-0.263030	-0.573410
C22	C	0.963873	-0.343450	-0.438776
C23	C	1.073595	-0.343434	-0.438765
C24	C	1.128595	-0.222803	-0.640724
C25	C	1.073784	-0.182600	-0.708049
C26	C	0.964060	-0.182612	-0.708056
C27	C	0.909147	-0.222828	-0.640737
C28	C	1.518111	-0.466777	-0.506027
C29	C	1.518150	-0.536745	-0.506040
C30	C	1.585325	-0.569543	-0.573288
C31	C	1.585362	-0.635285	-0.573314
C32	C	1.518235	-0.668227	-0.506073
C33	C	1.451046	-0.635422	-0.438820
C34	C	1.451003	-0.569681	-0.438803
N35	N	1.510296	-0.771497	-0.414126
N36	N	1.510342	-0.833948	-0.414145
C37	C	1.518357	-0.866302	-0.506120
N38	N	1.526345	-0.833846	-0.598078
N39	N	1.526303	-0.771388	-0.598058
C40	C	1.518273	-0.739513	-0.506084
C41	C	1.585577	-0.970385	-0.573402
C42	C	1.585607	-1.036129	-0.573430
C43	C	1.451296	-1.036265	-0.438927
C44	C	1.451260	-0.970522	-0.438908
C45	C	1.518407	-0.937586	-0.506145
C46	C	1.792278	-0.303241	-0.506096
C47	C	1.909054	-0.303247	-0.506102
C48	C	1.518318	-0.303162	-0.780114
C49	C	1.518350	-0.303135	-0.896891
C50	C	1.518408	-0.139035	-0.506157
C51	C	1.518477	-0.069067	-0.506189
C52	C	1.585595	-0.262873	-0.951777
C53	C	1.585620	-0.262850	-1.061501
C54	C	1.451151	-0.343356	-1.061443
C55	C	1.451122	-0.343375	-0.951721
C56	C	1.652823	-0.222633	-0.896947
C57	C	1.720075	-0.182368	-0.951833
C58	C	1.720100	-0.182345	-1.061557
C59	C	1.652873	-0.222587	-1.116395
C60	C	1.518232	-0.303243	-0.233113
C61	C	1.518404	-0.303093	-0.116337
H62	H	0.819802	-0.222821	-0.640725
H63	H	1.396632	-1.063086	-0.384184
F64	F	1.657035	-0.935331	-0.644963
F65	F	1.379550	-0.386226	-0.893304
H66	H	1.396564	-0.943816	-0.384144
F67	F	1.379611	-0.386183	-1.119809
F68	F	1.379501	-0.534774	-0.367227
H69	H	1.396388	-0.662248	-0.384074
F70	F	1.656784	-0.534494	-0.644852
F71	F	1.245372	-0.222790	-0.640726
H72	H	1.118501	-0.149854	-0.762851
H73	H	1.118223	-0.376169	-0.383947
H74	H	1.774802	-0.149601	-0.907177
H75	H	1.652813	-0.222648	-0.807604
F76	F	0.905729	-0.139820	-0.779701
F77	F	1.656868	-0.670198	-0.644887
H78	H	0.919154	-0.376193	-0.383970
F79	F	1.657098	-1.071035	-0.645020
F80	F	1.791674	-0.139494	-1.119968
F81	F	1.652890	-0.222553	-1.233175
