data_functionalizedCrystal
_audit_creation_method	'MofGen! by Chris Wilmer'
_symmetry_space_group_name_H-M	'P1'
_symmetry_Int_Tables_number	1
_symmetry_cell_setting	triclinic
loop_
_symmetry_equiv_pos_as_xyz
  x,y,z
_cell_length_a	25.639242
_cell_length_b	29.839125
_cell_length_c	25.639239
_cell_angle_alpha	89.983129
_cell_angle_beta	90.030990
_cell_angle_gamma	89.986798
loop_
_atom_site_label
_atom_site_type_symbol
_atom_site_fract_x
_atom_site_fract_y
_atom_site_fract_z
Zn1	Zn	0.799219	-0.254022	-0.208331
Zn2	Zn	1.299219	0.245978	0.291669
Zn3	Zn	0.799144	-0.178893	-0.295747
Zn4	Zn	1.299144	0.321107	0.204253
Zn5	Zn	0.711797	-0.178903	-0.208316
Zn6	Zn	1.211797	0.321097	0.291684
Zn7	Zn	0.711740	-0.253993	-0.295726
Zn8	Zn	1.211740	0.246007	0.204274
O9	O	0.755475	-0.216453	-0.252030
O10	O	1.255475	0.283547	0.247970
O11	O	0.872374	-0.244064	-0.219943
O12	O	1.372374	0.255936	0.280057
O13	O	0.787550	-0.116028	-0.284152
O14	O	1.287550	0.383972	0.215848
O15	O	0.723449	-0.188885	-0.135153
O16	O	1.223449	0.311115	0.364847
O17	O	0.872319	-0.188867	-0.284167
O18	O	1.372319	0.311133	0.215833
O19	O	0.787677	-0.244074	-0.135164
O20	O	1.287677	0.255926	0.364836
O21	O	0.723376	-0.116035	-0.219917
O22	O	1.223376	0.383965	0.280083
O23	O	0.638624	-0.188856	-0.219896
O24	O	1.138624	0.311144	0.280104
O25	O	0.723352	-0.316864	-0.284130
O26	O	1.223352	0.183136	0.215870
O27	O	0.638583	-0.244025	-0.284115
O28	O	1.138583	0.255975	0.215885
O29	O	0.787622	-0.316886	-0.219922
O30	O	1.287622	0.183114	0.280078
O31	O	0.787495	-0.188839	-0.368910
O32	O	1.287495	0.311161	0.131090
O33	O	0.723280	-0.244015	-0.368894
O34	O	1.223280	0.255985	0.131106
C35	C	0.619633	-0.216439	-0.252002
C36	C	1.119633	0.283561	0.247998
C37	C	0.561519	-0.216443	-0.252002
C38	C	1.061519	0.283557	0.247998
C39	C	0.755489	-0.333632	-0.252026
C40	C	1.255489	0.166368	0.247974
C41	C	0.755495	-0.383566	-0.252024
C42	C	1.255495	0.116434	0.247976
C43	C	0.310362	-0.245247	-0.218648
C44	C	0.810362	0.254753	0.281352
C45	C	0.364966	-0.245244	-0.218643
C46	C	0.864966	0.254756	0.281357
O47	O	0.393234	-0.269731	-0.190261
O48	O	0.893234	0.230269	0.309739
N49	N	0.392245	-0.216458	-0.252024
N50	N	0.892245	0.283542	0.247976
C51	C	0.364916	-0.187676	-0.285416
C52	C	0.864916	0.312324	0.214584
O53	O	0.393133	-0.163192	-0.313810
O54	O	0.893133	0.336808	0.186190
C55	C	0.310313	-0.187682	-0.285424
C56	C	0.810313	0.312318	0.214576
C57	C	0.283037	-0.216466	-0.252037
C58	C	0.783037	0.283534	0.247963
C59	C	0.283086	-0.274029	-0.185264
C60	C	0.783086	0.225971	0.314736
C61	C	0.228485	-0.274031	-0.185269
C62	C	0.728485	0.225969	0.314731
C63	C	0.201161	-0.245250	-0.218657
C64	C	0.701161	0.254750	0.281343
C65	C	0.228437	-0.216468	-0.252041
C66	C	0.728437	0.283532	0.247959
C67	C	0.282985	-0.158902	-0.318818
C68	C	0.782985	0.341098	0.181182
C69	C	0.228378	-0.158910	-0.318823
C70	C	0.728378	0.341090	0.181177
C71	C	0.201103	-0.187695	-0.285436
C72	C	0.701103	0.312305	0.214564
C73	C	0.146511	-0.187689	-0.285434
C74	C	0.646511	0.312311	0.214566
N75	N	0.119233	-0.216475	-0.252053
N76	N	0.619233	0.283525	0.247947
C77	C	0.146557	-0.245256	-0.218665
C78	C	0.646557	0.254744	0.281335
C79	C	0.479587	-0.187668	-0.285399
C80	C	0.979587	0.312332	0.214601
C81	C	0.534189	-0.187661	-0.285389
C82	C	1.034189	0.312339	0.214611
C83	C	0.534235	-0.245229	-0.218616
C84	C	1.034235	0.254771	0.281384
C85	C	0.479632	-0.245234	-0.218624
C86	C	0.979632	0.254766	0.281376
C87	C	0.452308	-0.216454	-0.252018
C88	C	0.952308	0.283546	0.247982
C89	C	0.031892	-0.245257	-0.218677
C90	C	0.531892	0.254743	0.281323
C91	C	-0.022713	-0.245255	-0.218683
C92	C	0.477287	0.254745	0.281317
C93	C	-0.022754	-0.187688	-0.285457
C94	C	0.477246	0.312312	0.214543
C95	C	0.031846	-0.187689	-0.285449
C96	C	0.531846	0.312311	0.214551
C97	C	0.059168	-0.216477	-0.252057
C98	C	0.559168	0.283523	0.247943
O99	O	0.118209	-0.163216	-0.313803
O100	O	0.618209	0.336784	0.186197
O101	O	0.118334	-0.269740	-0.190281
O102	O	0.618334	0.230260	0.309719
C103	C	0.788996	-0.693224	-0.218503
C104	C	1.288996	-0.193224	0.281497
C105	C	0.789022	-0.880897	-0.218458
C106	C	1.289022	-0.380897	0.281542
O107	O	0.817467	-0.905174	-0.190007
O108	O	1.317467	-0.405174	0.309993
N109	N	0.755565	-0.904351	-0.251883
N110	N	1.255565	-0.404351	0.248117
C111	C	0.722096	-0.880885	-0.285320
C112	C	1.222096	-0.380885	0.214680
O113	O	0.693636	-0.905140	-0.313746
O114	O	1.193636	-0.405140	0.186254
C115	C	0.722068	-0.693212	-0.285362
C116	C	1.222068	-0.193212	0.214638
C117	C	0.755531	-0.669760	-0.251938
C118	C	1.255531	-0.169760	0.248062
C119	C	0.822456	-0.669771	-0.185081
C120	C	1.322456	-0.169771	0.314919
C121	C	0.822451	-0.622856	-0.185095
C122	C	1.322451	-0.122856	0.314905
C123	C	0.788986	-0.599393	-0.218530
C124	C	1.288986	-0.099393	0.281470
C125	C	0.755526	-0.622845	-0.251951
C126	C	1.255526	-0.122845	0.248049
C127	C	0.688597	-0.669747	-0.318795
C128	C	1.188597	-0.169747	0.181205
C129	C	0.688592	-0.622826	-0.318802
C130	C	1.188592	-0.122826	0.181198
C131	C	0.722055	-0.599374	-0.285378
C132	C	1.222055	-0.099374	0.214622
C133	C	0.722057	-0.552466	-0.285400
C134	C	1.222057	-0.052466	0.214600
N135	N	0.755514	-0.529012	-0.251974
N136	N	1.255514	-0.029012	0.248026
C137	C	0.788979	-0.552475	-0.218539
C138	C	1.288979	-0.052475	0.281461
C139	C	0.722114	-0.979415	-0.285297
C140	C	1.222114	-0.479415	0.214703
C141	C	0.722122	-1.026333	-0.285287
C142	C	1.222122	-0.526333	0.214713
C143	C	0.789047	-1.026342	-0.218424
C144	C	1.289047	-0.526342	0.281576
C145	C	0.789042	-0.979423	-0.218437
C146	C	1.289042	-0.479423	0.281563
C147	C	0.755571	-0.955961	-0.251871
C148	C	1.255571	-0.455961	0.248129
C149	C	0.788967	-0.453949	-0.218570
C150	C	1.288967	0.046051	0.281430
C151	C	0.788960	-0.407029	-0.218588
C152	C	1.288960	0.092971	0.281412
C153	C	0.722033	-0.407025	-0.285449
C154	C	1.222033	0.092975	0.214551
C155	C	0.722041	-0.453940	-0.285433
C156	C	1.222041	0.046060	0.214567
C157	C	0.755510	-0.477401	-0.251990
C158	C	1.255510	0.022599	0.248010
O159	O	0.693623	-0.528160	-0.313832
O160	O	1.193623	-0.028160	0.186168
O161	O	0.817427	-0.528211	-0.190110
O162	O	1.317427	-0.028211	0.309890
C163	C	0.789001	-0.740139	-0.218489
C164	C	1.289001	-0.240139	0.281511
C165	C	0.755541	-0.763591	-0.251911
C166	C	1.255541	-0.263591	0.248089
C167	C	0.722076	-0.740128	-0.285346
C168	C	1.222076	-0.240128	0.214654
C169	C	0.755548	-0.810509	-0.251901
C170	C	1.255548	-0.310509	0.248099
C171	C	0.789013	-0.833972	-0.218466
C172	C	1.289013	-0.333972	0.281534
C173	C	0.822471	-0.810518	-0.185041
C174	C	1.322471	-0.310518	0.314959
C175	C	0.822466	-0.763602	-0.185054
C176	C	1.322466	-0.263602	0.314946
C177	C	0.688619	-0.763582	-0.318771
C178	C	1.188619	-0.263582	0.181229
C179	C	0.688627	-0.810498	-0.318755
C180	C	1.188627	-0.310498	0.181245
C181	C	0.722092	-0.833961	-0.285320
C182	C	1.222092	-0.333961	0.214680
C183	C	0.891848	-0.216468	-0.252059
C184	C	1.391848	0.283532	0.247941
C185	C	0.949962	-0.216474	-0.252071
C186	C	1.449962	0.283526	0.247929
C187	C	0.755387	-0.216433	-0.387873
C188	C	1.255387	0.283567	0.112127
C189	C	0.755398	-0.216439	-0.445987
C190	C	1.255398	0.283561	0.054013
C191	C	0.755491	-0.099731	-0.251997
C192	C	1.255491	0.400269	0.248003
C193	C	0.755587	-0.049797	-0.251852
C194	C	1.255587	0.450203	0.248148
C195	C	0.788999	-0.187772	-0.806345
C196	C	1.288999	0.312228	-0.306345
C197	C	0.789020	-0.187778	-0.860950
C198	C	1.289020	0.312222	-0.360950
O199	O	0.817498	-0.163382	-0.889183
O200	O	1.317498	0.336618	-0.389183
N201	N	0.755567	-0.216483	-0.888269
N202	N	1.255567	0.283517	-0.388269
C203	C	0.722096	-0.245187	-0.860982
C204	C	1.222096	0.254813	-0.360982
O205	O	0.693644	-0.269603	-0.889233
O206	O	1.193644	0.230397	-0.389233
C207	C	0.722079	-0.245183	-0.806378
C208	C	1.222079	0.254817	-0.306378
C209	C	0.755530	-0.216473	-0.779062
C210	C	1.255530	0.283527	-0.279062
C211	C	0.822448	-0.159065	-0.779029
C212	C	1.322448	0.340935	-0.279029
C213	C	0.822427	-0.159059	-0.724428
C214	C	1.322427	0.340941	-0.224428
C215	C	0.788957	-0.187759	-0.697144
C216	C	1.288957	0.312241	-0.197144
C217	C	0.755509	-0.216466	-0.724461
C218	C	1.255509	0.283534	-0.224461
C219	C	0.688611	-0.273888	-0.779092
C220	C	1.188611	0.226112	-0.279092
C221	C	0.688597	-0.273882	-0.724485
C222	C	1.188597	0.226118	-0.224485
C223	C	0.722047	-0.245172	-0.697168
C224	C	1.222047	0.254828	-0.197168
C225	C	0.722018	-0.245161	-0.642577
C226	C	1.222018	0.254839	-0.142577
N227	N	0.755470	-0.216456	-0.615257
N228	N	1.255470	0.283544	-0.115257
C229	C	0.788940	-0.187755	-0.642541
C230	C	1.288940	0.312245	-0.142541
C231	C	0.722135	-0.245194	-0.975652
C232	C	1.222135	0.254806	-0.475652
C233	C	0.722150	-0.245196	-1.030254
C234	C	1.222150	0.254804	-0.530254
C235	C	0.789074	-0.187788	-1.030219
C236	C	1.289074	0.312212	-0.530219
C237	C	0.789057	-0.187784	-0.975616
C238	C	1.289057	0.312216	-0.475616
C239	C	0.755588	-0.216489	-0.948333
C240	C	1.255588	0.283511	-0.448333
C241	C	0.788893	-0.187743	-0.527876
C242	C	1.288893	0.312257	-0.027876
C243	C	0.788867	-0.187738	-0.473271
C244	C	1.288867	0.312262	0.026729
C245	C	0.721945	-0.245148	-0.473311
C246	C	1.221945	0.254852	0.026689
C247	C	0.721968	-0.245152	-0.527912
C248	C	1.221968	0.254848	-0.027912
C249	C	0.755447	-0.216448	-0.555193
C250	C	1.255447	0.283552	-0.055193
O251	O	0.693556	-0.269545	-0.614309
O252	O	1.193556	0.230455	-0.114309
O253	O	0.817392	-0.163347	-0.614283
O254	O	1.317392	0.336653	-0.114283
C255	C	0.755578	-0.216484	-0.115657
C256	C	1.255578	0.283516	0.384343
C257	C	0.755621	-0.216497	-0.057543
C258	C	1.255621	0.283503	0.442457
H259	H	-0.044919	-0.268695	-0.191492
H260	H	0.455081	0.231305	0.308508
O261	O	0.058347	-0.273235	-0.186190
O262	O	0.558347	0.226765	0.313810
C263	C	0.022555	-0.298644	-0.156739
C264	C	0.522555	0.201356	0.343261
H265	H	-0.016371	-0.280243	-0.154905
H266	H	0.483629	0.219757	0.345095
H267	H	0.038346	-0.303501	-0.115549
H268	H	0.538346	0.196499	0.384451
H269	H	0.016748	-0.332734	-0.175946
H270	H	0.516748	0.167266	0.324054
O271	O	0.689518	-0.384297	-0.317984
O272	O	1.189518	0.115703	0.182016
C273	C	0.659977	-0.415054	-0.347479
C274	C	1.159977	0.084946	0.152521
H275	H	0.681388	-0.448504	-0.349280
H276	H	1.181388	0.051496	0.150720
H277	H	0.654379	-0.401494	-0.388677
H278	H	1.154379	0.098506	0.111323
H279	H	0.620278	-0.420033	-0.328331
H280	H	1.120278	0.079967	0.171669
O281	O	0.854893	-0.740778	-0.152551
O282	O	1.354893	-0.240778	0.347449
C283	C	0.825145	-0.713652	-0.118770
C284	C	1.325145	-0.213652	0.381230
H285	H	0.785512	-0.706609	-0.137210
H286	H	1.285512	-0.206609	0.362790
H287	H	0.846446	-0.680666	-0.111760
H288	H	1.346446	-0.180666	0.388240
H289	H	0.819421	-0.731745	-0.080026
H290	H	1.319421	-0.231745	0.419974
O291	O	0.201918	-0.130910	-0.351279
O292	O	0.701918	0.369090	0.148721
C293	C	0.237706	-0.105515	-0.380753
C294	C	0.737706	0.394485	0.119247
H295	H	0.276637	-0.103991	-0.359329
H296	H	0.776637	0.396009	0.140671
H297	H	0.221917	-0.070110	-0.386273
H298	H	0.721917	0.429890	0.113727
H299	H	0.243502	-0.121907	-0.420488
H300	H	0.743502	0.378093	0.079512
H301	H	0.849721	-0.829630	-0.157818
H302	H	1.349721	-0.329630	0.342182
H303	H	0.694732	-0.268531	-0.550154
H304	H	1.194732	0.231469	-0.050154
O305	O	0.821680	-0.159990	-1.056733
O306	O	1.321680	0.340010	-0.556733
C307	C	0.855424	-0.185628	-1.088258
C308	C	1.355424	0.314372	-0.588258
H309	H	0.858564	-0.221014	-1.071778
H310	H	1.358564	0.278986	-0.571778
H311	H	0.895694	-0.169448	-1.088820
H312	H	1.395694	0.330552	-0.588820
H313	H	0.839301	-0.187155	-1.129666
H314	H	1.339301	0.312845	-0.629666
O315	O	0.854950	-0.131236	-0.697838
O316	O	1.354950	0.368764	-0.197838
C317	C	0.888698	-0.156838	-0.666223
C318	C	1.388698	0.343162	-0.166223
H319	H	0.870225	-0.190867	-0.658038
H320	H	1.370225	0.309133	-0.158038
H321	H	0.895713	-0.138540	-0.627831
H322	H	1.395713	0.361460	-0.127831
H323	H	0.927444	-0.161812	-0.687235
H324	H	1.427444	0.338188	-0.187235
O325	O	0.855049	-0.131205	-0.805453
O326	O	1.355049	0.368795	-0.305453
C327	C	0.907137	-0.141085	-0.792042
C328	C	1.407137	0.358915	-0.292042
H329	H	0.908164	-0.158370	-0.752397
H330	H	1.408164	0.341630	-0.252397
H331	H	0.930613	-0.108686	-0.790134
H332	H	1.430613	0.391314	-0.290134
H333	H	0.924752	-0.164189	-0.822750
H334	H	1.424752	0.335811	-0.322750
O335	O	0.560807	-0.273239	-0.186260
O336	O	1.060807	0.226761	0.313740
C337	C	0.592398	-0.302195	-0.216081
C338	C	1.092398	0.197805	0.283919
H339	H	0.575921	-0.304905	-0.257265
H340	H	1.075921	0.195095	0.242735
H341	H	0.593043	-0.336799	-0.197235
H342	H	1.093043	0.163201	0.302765
H343	H	0.633774	-0.288297	-0.217856
H344	H	1.133774	0.211703	0.282144
H345	H	0.661378	-0.829589	-0.345978
H346	H	1.161378	-0.329589	0.154022
H347	H	0.661368	-0.744483	-0.345999
H348	H	1.161368	-0.244483	0.154001
O349	O	0.821413	-0.159834	-0.446817
O350	O	1.321413	0.340166	0.053183
C351	C	0.850949	-0.134498	-0.482612
C352	C	1.350949	0.365502	0.017388
H353	H	0.852758	-0.152907	-0.521523
H354	H	1.352758	0.347093	-0.021523
H355	H	0.892143	-0.129736	-0.466802
H356	H	1.392143	0.370264	0.033198
H357	H	0.831833	-0.100364	-0.488455
H358	H	1.331833	0.399636	0.011545
O359	O	0.689390	-0.273045	-0.446883
O360	O	1.189390	0.226955	0.053117
C361	C	0.659880	-0.298399	-0.482698
C362	C	1.159880	0.201601	0.017302
H363	H	0.658085	-0.280001	-0.521631
H364	H	1.158085	0.219999	-0.021631
H365	H	0.618681	-0.303166	-0.466948
H366	H	1.118681	0.196834	0.033052
H367	H	0.679010	-0.332530	-0.488475
H368	H	1.179010	0.167470	0.011525
H369	H	0.661343	-0.297259	-0.702273
H370	H	1.161343	0.202741	-0.202273
O371	O	0.202075	-0.302038	-0.152823
O372	O	0.702075	0.197962	0.347177
C373	C	0.237910	-0.327429	-0.123348
C374	C	0.737910	0.172571	0.376652
H375	H	0.276823	-0.328942	-0.144766
H376	H	0.776823	0.171058	0.355234
H377	H	0.222156	-0.362837	-0.117837
H378	H	0.722156	0.137163	0.382163
H379	H	0.243730	-0.311041	-0.083609
H380	H	0.743730	0.188959	0.416391
H381	H	0.816212	-0.387937	-0.191370
H382	H	1.316212	0.112063	0.308630
O383	O	0.689597	-0.273017	-1.056810
O384	O	1.189597	0.226983	-0.556810
C385	C	0.655866	-0.247420	-1.088450
C386	C	1.155866	0.252580	-0.588450
H387	H	0.652659	-0.212031	-1.072019
H388	H	1.152659	0.287969	-0.572019
H389	H	0.615617	-0.263637	-1.089094
H390	H	1.115617	0.236363	-0.589094
H391	H	0.672046	-0.245894	-1.129819
H392	H	1.172046	0.254106	-0.629819
H393	H	0.305328	-0.297468	-0.158075
H394	H	0.805328	0.202532	0.341925
H395	H	0.816296	-1.045454	-0.191200
H396	H	1.316296	-0.545454	0.308800
O397	O	0.821504	-0.476784	-0.186158
O398	O	1.321504	0.023216	0.313842
C399	C	0.855265	-0.503916	-0.215924
C400	C	1.355265	-0.003916	0.284076
H401	H	0.836795	-0.510947	-0.255539
H402	H	1.336795	-0.010947	0.244461
H403	H	0.862298	-0.536908	-0.194616
H404	H	1.362298	-0.036908	0.305384
H405	H	0.894002	-0.485835	-0.221687
H406	H	1.394002	0.014165	0.278313
O407	O	0.689645	-1.049061	-0.317833
O408	O	1.189645	-0.549061	0.182167
C409	C	0.701041	-1.037596	-0.369947
C410	C	1.201041	-0.537596	0.130053
H411	H	0.721139	-1.003535	-0.371037
H412	H	1.221139	-0.503535	0.128963
H413	H	0.663289	-1.035979	-0.393383
H414	H	1.163289	-0.535979	0.106617
H415	H	0.727909	-1.064004	-0.387561
H416	H	1.227909	-0.564004	0.112439
H417	H	0.816289	-0.960332	-0.191219
H418	H	1.316289	-0.460332	0.308781
O419	O	0.689567	-0.273090	-0.949232
O420	O	1.189567	0.226910	-0.449232
C421	C	0.660058	-0.298432	-0.985059
C422	C	1.160058	0.201568	-0.485059
H423	H	0.658280	-0.280029	-1.023990
H424	H	1.158280	0.219971	-0.523990
H425	H	0.618852	-0.303190	-0.969321
H426	H	1.118852	0.196810	-0.469321
H427	H	0.679177	-0.332567	-0.990836
H428	H	1.179177	0.167433	-0.490836
O429	O	0.656101	-0.301822	-0.805537
O430	O	1.156101	0.198178	-0.305537
C431	C	0.626554	-0.327143	-0.769736
C432	C	1.126554	0.172857	-0.269736
H433	H	0.647960	-0.328703	-0.730796
H434	H	1.147960	0.171297	-0.230796
H435	H	0.620957	-0.362539	-0.785493
H436	H	1.120957	0.137461	-0.285493
H437	H	0.586855	-0.310662	-0.763971
H438	H	1.086855	0.189338	-0.263971
O439	O	0.453219	-0.273240	-0.186179
O440	O	0.953219	0.226760	0.313821
C441	C	0.489053	-0.298630	-0.156700
C442	C	0.989053	0.201370	0.343300
H443	H	0.527967	-0.300144	-0.178114
H444	H	1.027967	0.199856	0.321886
H445	H	0.473298	-0.334038	-0.151187
H446	H	0.973298	0.165962	0.348813
H447	H	0.494869	-0.282240	-0.116961
H448	H	0.994869	0.217760	0.383039
O449	O	0.560601	-0.159682	-0.317867
O450	O	1.060601	0.340318	0.182133
C451	C	0.524767	-0.134273	-0.347325
C452	C	1.024767	0.365727	0.152675
H453	H	0.485851	-0.152676	-0.349167
H454	H	0.985851	0.347324	0.150833
H455	H	0.540519	-0.129415	-0.388511
H456	H	1.040519	0.370585	0.111489
H457	H	0.518956	-0.100184	-0.328117
H458	H	1.018956	0.399816	0.171883
H459	H	0.694859	-0.960316	-0.312526
H460	H	1.194859	-0.460316	0.187474
O461	O	0.452989	-0.159683	-0.317762
O462	O	0.952989	0.340317	0.182238
C463	C	0.421416	-0.130707	-0.287949
C464	C	0.921416	0.369293	0.212051
H465	H	0.413252	-0.146615	-0.248357
H466	H	0.913252	0.353385	0.251643
H467	H	0.383010	-0.124652	-0.309243
H468	H	0.883010	0.375348	0.190757
H469	H	0.442453	-0.097424	-0.282139
H470	H	0.942453	0.402576	0.217861
H471	H	0.661348	-0.688833	-0.346012
H472	H	1.161348	-0.188833	0.153988
O473	O	0.656068	-0.600104	-0.351337
O474	O	1.156068	-0.100104	0.148663
C475	C	0.626531	-0.630869	-0.380825
C476	C	1.126531	-0.130869	0.119175
H477	H	0.647948	-0.664317	-0.382622
H478	H	1.147948	-0.164317	0.117378
H479	H	0.620928	-0.617315	-0.422025
H480	H	1.120928	-0.117315	0.077975
H481	H	0.586834	-0.635852	-0.361674
H482	H	1.086834	-0.135852	0.138326
O483	O	0.058404	-0.159789	-0.317903
O484	O	0.558404	0.340211	0.182097
C485	C	0.089968	-0.185315	-0.351725
C486	C	0.589968	0.314685	0.148275
H487	H	0.098165	-0.219390	-0.333344
H488	H	0.598165	0.280610	0.166656
H489	H	0.128357	-0.167007	-0.358698
H490	H	0.628357	0.332993	0.141302
H491	H	0.068905	-0.190191	-0.390480
H492	H	0.568905	0.309809	0.109520
H493	H	0.816296	-0.164406	-0.953378
H494	H	1.316296	0.335594	-0.453378
O495	O	0.309529	-0.131006	-0.351281
O496	O	0.809529	0.368994	0.148719
C497	C	0.341094	-0.156530	-0.385103
C498	C	0.841094	0.343470	0.114897
H499	H	0.349304	-0.190600	-0.366717
H500	H	0.849304	0.309400	0.133283
H501	H	0.379477	-0.138214	-0.392086
H502	H	0.879477	0.361786	0.107914
H503	H	0.320027	-0.161416	-0.423854
H504	H	0.820027	0.338584	0.076146
H505	H	0.816155	-0.164371	-0.550082
H506	H	1.316155	0.335629	-0.050082
O507	O	-0.049246	-0.159756	-0.317963
O508	O	0.450754	0.340244	0.182037
C509	C	-0.035936	-0.169504	-0.370090
C510	C	0.464064	0.330496	0.129910
H511	H	0.003719	-0.186765	-0.371200
H512	H	0.503719	0.313235	0.128800
H513	H	-0.034097	-0.137047	-0.393482
H514	H	0.465903	0.362953	0.106518
H515	H	-0.066664	-0.192582	-0.387737
H516	H	0.433336	0.307418	0.112263
O517	O	0.854897	-0.600104	-0.152541
O518	O	1.354897	-0.100104	0.347459
C519	C	0.843507	-0.611594	-0.100434
C520	C	1.343507	-0.111594	0.399566
H521	H	0.801738	-0.624481	-0.097796
H522	H	1.301738	-0.124481	0.402204
H523	H	0.848028	-0.580751	-0.074598
H524	H	1.348028	-0.080751	0.425402
H525	H	0.871543	-0.638841	-0.086773
H526	H	1.371543	-0.138841	0.413227
H527	H	0.849707	-0.688870	-0.157851
H528	H	1.349707	-0.188870	0.342149
O529	O	0.689510	-0.476772	-0.317829
O530	O	1.189510	0.023228	0.182171
C531	C	0.655755	-0.503894	-0.288043
C532	C	1.155755	-0.003894	0.211957
H533	H	0.674228	-0.510929	-0.248423
H534	H	1.174228	-0.010929	0.251577
H535	H	0.648727	-0.536884	-0.309327
H536	H	1.148727	-0.036884	0.190673
H537	H	0.617016	-0.485802	-0.282292
H538	H	1.117016	0.014198	0.217708
