data_functionalizedCrystal
_audit_creation_method	'MofGen! by Chris Wilmer'
_symmetry_space_group_name_H-M	'P1'
_symmetry_Int_Tables_number	1
_symmetry_cell_setting	triclinic
loop_
_symmetry_equiv_pos_as_xyz
  x,y,z
_cell_length_a	25.639242
_cell_length_b	25.639239
_cell_length_c	12.759387
_cell_angle_alpha	89.963582
_cell_angle_beta	89.968918
_cell_angle_gamma	90.033587
loop_
_atom_site_label
_atom_site_type_symbol
_atom_site_fract_x
_atom_site_fract_y
_atom_site_fract_z
Zn1	Zn	0.799274	-0.208194	-0.594260
Zn2	Zn	1.299274	0.291806	-0.094260
Zn3	Zn	0.799183	-0.295640	-0.418563
Zn4	Zn	1.299183	0.204360	0.081437
Zn5	Zn	0.711836	-0.208213	-0.418565
Zn6	Zn	1.211836	0.291787	0.081435
Zn7	Zn	0.711796	-0.295593	-0.594170
Zn8	Zn	1.211796	0.204407	-0.094170
O9	O	0.755522	-0.251910	-0.506390
O10	O	1.255522	0.248090	-0.006390
O11	O	0.872427	-0.219806	-0.570991
O12	O	1.372427	0.280194	-0.070991
O13	O	0.787575	-0.284070	-0.271542
O14	O	1.287575	0.215930	0.228458
O15	O	0.723490	-0.135045	-0.441909
O16	O	1.223490	0.364955	0.058091
O17	O	0.872360	-0.284052	-0.441907
O18	O	1.372360	0.215948	0.058093
O19	O	0.787730	-0.135031	-0.570992
O20	O	1.287730	0.364969	-0.070992
O21	O	0.723402	-0.219838	-0.271543
O22	O	1.223402	0.280162	0.228457
O23	O	0.638665	-0.219792	-0.441822
O24	O	1.138665	0.280208	0.058178
O25	O	0.723421	-0.283972	-0.741203
O26	O	1.223421	0.216028	-0.241203
O27	O	0.638636	-0.283989	-0.570839
O28	O	1.138636	0.216011	-0.070839
O29	O	0.787691	-0.219760	-0.741270
O30	O	1.287691	0.280240	-0.241270
O31	O	0.787536	-0.368799	-0.441820
O32	O	1.287536	0.131201	0.058180
O33	O	0.723333	-0.368764	-0.570837
O34	O	1.223333	0.131236	-0.070837
C35	C	0.619680	-0.251888	-0.506321
C36	C	1.119680	0.248112	-0.006321
C37	C	0.561566	-0.251891	-0.506317
C38	C	1.061566	0.248109	-0.006317
C39	C	0.310379	-0.218426	-0.439327
C40	C	0.810379	0.281574	0.060673
C41	C	0.364983	-0.218422	-0.439314
C42	C	0.864983	0.281578	0.060686
O43	O	0.393225	-0.189938	-0.382297
O44	O	0.893225	0.310062	0.117703
N45	N	0.392292	-0.251897	-0.506370
N46	N	0.892292	0.248103	-0.006370
C47	C	0.364993	-0.285377	-0.573451
C48	C	0.864993	0.214623	-0.073451
O49	O	0.393235	-0.313850	-0.630487
O50	O	0.893235	0.186150	-0.130487
C51	C	0.310390	-0.285379	-0.573469
C52	C	0.810390	0.214621	-0.073469
C53	C	0.283084	-0.251904	-0.506401
C54	C	0.783084	0.248096	-0.006401
C55	C	0.283073	-0.184954	-0.372265
C56	C	0.783073	0.315046	0.127735
C57	C	0.228472	-0.184960	-0.372277
C58	C	0.728472	0.315040	0.127723
C59	C	0.201178	-0.218438	-0.439351
C60	C	0.701178	0.281562	0.060649
C61	C	0.228484	-0.251910	-0.506413
C62	C	0.728484	0.248090	-0.006413
C63	C	0.283092	-0.318855	-0.640555
C64	C	0.783092	0.181145	-0.140555
C65	C	0.228485	-0.318853	-0.640568
C66	C	0.728485	0.181147	-0.140568
C67	C	0.201179	-0.285379	-0.573500
C68	C	0.701179	0.214621	-0.073500
C69	C	0.146588	-0.285393	-0.573499
C70	C	0.646588	0.214607	-0.073499
N71	N	0.119280	-0.251917	-0.506443
N72	N	0.619280	0.248083	-0.006443
C73	C	0.146574	-0.218439	-0.439369
C74	C	0.646574	0.281561	0.060631
C75	C	0.479664	-0.285370	-0.573410
C76	C	0.979664	0.214630	-0.073410
C77	C	0.534266	-0.285371	-0.573388
C78	C	1.034266	0.214629	-0.073388
C79	C	0.534252	-0.218415	-0.439251
C80	C	1.034252	0.281585	0.060749
C81	C	0.479649	-0.218417	-0.439269
C82	C	0.979649	0.281583	0.060731
C83	C	0.452355	-0.251894	-0.506354
C84	C	0.952355	0.248106	-0.006354
C85	C	0.031909	-0.218454	-0.439399
C86	C	0.531909	0.281546	0.060601
C87	C	-0.022696	-0.218464	-0.439414
C88	C	0.477304	0.281536	0.060586
C89	C	-0.022678	-0.285418	-0.573554
C90	C	0.477322	0.214582	-0.073554
C91	C	0.031923	-0.285410	-0.573536
C92	C	0.531923	0.214590	-0.073536
C93	C	0.059215	-0.251924	-0.506455
C94	C	0.559215	0.248076	-0.006455
O95	O	0.118311	-0.313861	-0.630490
O96	O	0.618311	0.186139	-0.130490
O97	O	0.118326	-0.189966	-0.382353
O98	O	0.618326	0.310034	0.117647
C99	C	0.755434	-0.387753	-0.506342
C100	C	1.255434	0.112247	-0.006342
C101	C	0.755444	-0.445867	-0.506356
C102	C	1.255444	0.054133	-0.006356
C103	C	0.789040	-0.806235	-0.439325
C104	C	1.289040	-0.306235	0.060675
C105	C	0.789060	-0.860839	-0.439339
C106	C	1.289060	-0.360839	0.060661
O107	O	0.817533	-0.889081	-0.382294
O108	O	1.317533	-0.389081	0.117706
N109	N	0.755614	-0.888149	-0.506459
N110	N	1.255614	-0.388149	-0.006459
C111	C	0.722149	-0.860851	-0.573578
C112	C	1.222149	-0.360851	-0.073578
O113	O	0.693703	-0.889094	-0.630671
O114	O	1.193703	-0.389094	-0.130671
C115	C	0.722132	-0.806248	-0.573568
C116	C	1.222132	-0.306248	-0.073568
C117	C	0.755577	-0.778941	-0.506436
C118	C	1.255577	-0.278941	-0.006436
C119	C	0.822482	-0.778928	-0.372199
C120	C	1.322482	-0.278928	0.127801
C121	C	0.822461	-0.724328	-0.372184
C122	C	1.322461	-0.224328	0.127816
C123	C	0.788998	-0.697034	-0.439294
C124	C	1.288998	-0.197034	0.060706
C125	C	0.755555	-0.724341	-0.506421
C126	C	1.255555	-0.224341	-0.006421
C127	C	0.688670	-0.778952	-0.640691
C128	C	1.188670	-0.278952	-0.140691
C129	C	0.688656	-0.724344	-0.640676
C130	C	1.188656	-0.224344	-0.140676
C131	C	0.722101	-0.697038	-0.573544
C132	C	1.222101	-0.197038	-0.073544
C133	C	0.722071	-0.642447	-0.573516
C134	C	1.222071	-0.142447	-0.073516
N135	N	0.755517	-0.615137	-0.506396
N136	N	1.255517	-0.115137	-0.006396
C137	C	0.788981	-0.642431	-0.439285
C138	C	1.288981	-0.142431	0.060715
C139	C	0.722189	-0.975522	-0.573594
C140	C	1.222189	-0.475522	-0.073594
C141	C	0.722203	-1.030124	-0.573599
C142	C	1.222203	-0.530124	-0.073599
C143	C	0.789115	-1.030109	-0.439361
C144	C	1.289115	-0.530109	0.060639
C145	C	0.789098	-0.975505	-0.439352
C146	C	1.289098	-0.475505	0.060648
C147	C	0.755635	-0.948212	-0.506473
C148	C	1.255635	-0.448212	-0.006473
C149	C	0.788934	-0.527766	-0.439257
C150	C	1.288934	-0.027766	0.060743
C151	C	0.788908	-0.473160	-0.439245
C152	C	1.288908	0.026840	0.060755
C153	C	0.721998	-0.473181	-0.573486
C154	C	1.221998	0.026819	-0.073486
C155	C	0.722021	-0.527781	-0.573495
C156	C	1.222021	-0.027781	-0.073495
C157	C	0.755493	-0.555072	-0.506377
C158	C	1.255493	-0.055072	-0.006377
O159	O	0.693614	-0.614170	-0.630535
O160	O	1.193614	-0.114170	-0.130535
O161	O	0.817427	-0.614181	-0.382211
O162	O	1.317427	-0.114181	0.117789
C163	C	0.891895	-0.251932	-0.506459
C164	C	1.391895	0.248068	-0.006459
C165	C	0.950009	-0.251942	-0.506489
C166	C	1.450009	0.248058	-0.006489
C167	C	0.755562	-0.251859	-0.780423
C168	C	1.255562	0.248141	-0.280423
C169	C	0.755579	-0.251837	-0.897200
C170	C	1.255579	0.248163	-0.397200
C171	C	0.755625	-0.115537	-0.506461
C172	C	1.255625	0.384463	-0.006461
C173	C	0.755668	-0.057423	-0.506491
C174	C	1.255668	0.442577	-0.006491
C175	C	0.822508	-0.184978	-0.897289
C176	C	1.322508	0.315022	-0.397289
C177	C	0.855979	-0.151541	-0.952194
C178	C	1.355979	0.348459	-0.452194
C179	C	0.855992	-0.151522	-1.061916
C180	C	1.355992	0.348478	-0.561916
C181	C	0.822528	-0.184942	-1.116735
C182	C	1.322528	0.315058	-0.616735
C183	C	0.789056	-0.218380	-1.061830
C184	C	1.289056	0.281620	-0.561830
C185	C	0.789048	-0.218396	-0.952105
C186	C	1.289048	0.281604	-0.452105
C187	C	0.722126	-0.285235	-1.061741
C188	C	1.222126	0.214765	-0.561741
C189	C	0.722115	-0.285258	-0.952019
C190	C	1.222115	0.214742	-0.452019
C191	C	0.688662	-0.318656	-1.116560
C192	C	1.188662	0.181344	-0.616560
C193	C	0.655192	-0.352096	-1.061655
C194	C	1.155192	0.147904	-0.561655
C195	C	0.655181	-0.352114	-0.951926
C196	C	1.155181	0.147886	-0.451926
C197	C	0.688643	-0.318695	-0.897114
C198	C	1.188643	0.181305	-0.397114
C199	C	0.755513	-0.251923	-0.233422
C200	C	1.255513	0.248077	0.266578
C201	C	0.755597	-0.251798	-0.116646
C202	C	1.255597	0.248202	0.383354
H203	H	0.054124	-0.191184	-0.384781
H204	H	0.554124	0.308816	0.115219
H205	H	0.556486	-0.191154	-0.384638
H206	H	1.056486	0.308846	0.115362
Cl207	Cl	0.568587	-0.327462	-0.657690
Cl208	Cl	1.068587	0.172538	-0.157690
H209	H	0.883224	-0.124330	-0.907548
H210	H	1.383224	0.375670	-0.407548
H211	H	0.816143	-0.450929	-0.384574
H212	H	1.316143	0.049071	0.115426
H213	H	0.849735	-0.801145	-0.317549
H214	H	1.349735	-0.301145	0.182451
Cl215	Cl	0.688634	-0.318717	-0.759177
Cl216	Cl	1.188634	0.181283	-0.259177
Cl217	Cl	0.831144	-0.941182	-0.354955
Cl218	Cl	1.331144	-0.441182	0.145045
Cl219	Cl	0.445357	-0.327464	-0.657745
Cl220	Cl	0.945357	0.172536	-0.157745
Cl221	Cl	0.317406	-0.360939	-0.724877
Cl222	Cl	0.817406	0.139061	-0.224877
Cl223	Cl	0.194176	-0.360941	-0.724911
Cl224	Cl	0.694176	0.139059	-0.224911
Cl225	Cl	0.445327	-0.176332	-0.354954
Cl226	Cl	0.945327	0.323668	0.145046
H227	H	0.206245	-0.157701	-0.317664
H228	H	0.706245	0.342299	0.182336
Cl229	Cl	0.831012	-0.562066	-0.354878
Cl230	Cl	1.331012	-0.062066	0.145122
H231	H	0.661433	-0.801175	-0.695352
H232	H	1.161433	-0.301175	-0.195352
H233	H	0.054157	-0.312672	-0.628140
H234	H	0.554157	0.187328	-0.128140
Cl235	Cl	-0.057001	-0.327509	-0.657858
Cl236	Cl	0.442999	0.172491	-0.157858
H237	H	0.849696	-0.702098	-0.317522
H238	H	1.349696	-0.202098	0.182478
Cl239	Cl	0.831183	-1.064431	-0.354991
Cl240	Cl	1.331183	-0.564431	0.145009
Cl241	Cl	0.680150	-1.064446	-0.657985
Cl242	Cl	1.180150	-0.564446	-0.157985
H243	H	0.694790	-0.550016	-0.628163
H244	H	1.194790	-0.050016	-0.128163
Cl245	Cl	0.317377	-0.142861	-0.287933
Cl246	Cl	0.817377	0.357139	0.212067
H247	H	0.694935	-0.953303	-0.628249
H248	H	1.194935	-0.453303	-0.128249
Cl249	Cl	0.646586	-0.690037	-0.725065
Cl250	Cl	1.146586	-0.190037	-0.225065
Cl251	Cl	0.679935	-0.438859	-0.657855
Cl252	Cl	1.179935	0.061141	-0.157855
H253	H	0.822505	-0.184995	-0.807948
H254	H	1.322505	0.315005	-0.307948
Cl255	Cl	0.613096	-0.394150	-0.882912
Cl256	Cl	1.113096	0.105850	-0.382912
Cl257	Cl	0.898063	-0.109478	-1.130942
Cl258	Cl	1.398063	0.390522	-0.630942
Cl259	Cl	0.822541	-0.184913	-1.254672
Cl260	Cl	1.322541	0.315087	-0.754672
H261	H	-0.044926	-0.191205	-0.384797
H262	H	0.455074	0.308795	0.115203
Cl263	Cl	0.688678	-0.318632	-1.254497
Cl264	Cl	1.188678	0.181368	-0.754497
H265	H	0.627946	-0.379302	-1.106297
H266	H	1.127946	0.120698	-0.606297
