data_functionalizedCrystal
_audit_creation_method	'MofGen! by Chris Wilmer'
_symmetry_space_group_name_H-M	'P1'
_symmetry_Int_Tables_number	1
_symmetry_cell_setting	triclinic
loop_
_symmetry_equiv_pos_as_xyz
  x,y,z
_cell_length_a	12.759401
_cell_length_b	12.759399
_cell_length_c	21.395355
_cell_angle_alpha	89.986209
_cell_angle_beta	89.978602
_cell_angle_gamma	90.016494
loop_
_atom_site_label
_atom_site_type_symbol
_atom_site_fract_x
_atom_site_fract_y
_atom_site_fract_z
Zn1	Zn	1.606274	-0.418380	-0.354229
Zn2	Zn	2.106274	0.081620	0.145771
Zn3	Zn	1.606155	-0.594045	-0.249460
Zn4	Zn	2.106155	-0.094045	0.250540
Zn5	Zn	1.430567	-0.418381	-0.249472
Zn6	Zn	1.930567	0.081619	0.250528
Zn7	Zn	1.430560	-0.594019	-0.354206
Zn8	Zn	1.930560	-0.094019	0.145794
O9	O	1.518389	-0.506206	-0.301842
O10	O	2.018389	-0.006206	0.198158
O11	O	1.753279	-0.441693	-0.340336
O12	O	2.253279	0.058307	0.159664
O13	O	1.582816	-0.570754	-0.161784
O14	O	2.082816	-0.070754	0.338216
O15	O	1.453928	-0.271360	-0.263382
O16	O	1.953928	0.228640	0.236618
O17	O	1.753192	-0.570753	-0.263363
O18	O	2.253192	-0.070753	0.236637
O19	O	1.583019	-0.271359	-0.340347
O20	O	2.083019	0.228641	0.159653
O21	O	1.453812	-0.441695	-0.161792
O22	O	1.953812	0.058305	0.338208
O23	O	1.283545	-0.441669	-0.263360
O24	O	1.783545	0.058331	0.236640
O25	O	1.453915	-0.570708	-0.441887
O26	O	1.953915	-0.070708	0.058113
O27	O	1.283540	-0.570709	-0.340308
O28	O	1.783540	-0.070709	0.159692
O29	O	1.583012	-0.441668	-0.441904
O30	O	2.083012	0.058332	0.058096
O31	O	1.582809	-0.741062	-0.263341
O32	O	2.082809	-0.241062	0.236659
O33	O	1.453800	-0.741043	-0.340297
O34	O	1.953800	-0.241043	0.159703
C35	C	1.245422	-0.506187	-0.301833
C36	C	1.745422	-0.006187	0.198167
C37	C	1.128645	-0.506205	-0.301845
C38	C	1.628645	-0.006205	0.198155
C39	C	0.964077	-0.573514	-0.341853
C40	C	1.464077	-0.073514	0.158147
C41	C	1.073801	-0.573502	-0.341846
C42	C	1.573801	-0.073502	0.158154
C43	C	1.073759	-0.438922	-0.261842
C44	C	1.573759	0.061078	0.238158
C45	C	0.964037	-0.438940	-0.261846
C46	C	1.464037	0.061060	0.238154
C47	C	1.223751	-0.697439	-0.364099
C48	C	1.723751	-0.197439	0.135901
C49	C	1.278633	-0.764710	-0.404107
C50	C	1.778633	-0.264710	0.095893
C51	C	1.243064	-0.780998	-0.465227
C52	C	1.743064	-0.280998	0.034773
C53	C	1.152616	-0.730001	-0.486353
C54	C	1.652616	-0.230001	0.013647
C55	C	1.097740	-0.662723	-0.446348
C56	C	1.597740	-0.162723	0.053652
C57	C	1.133307	-0.646454	-0.385219
C58	C	1.633307	-0.146454	0.114781
C59	C	0.814085	-0.315002	-0.239599
C60	C	1.314085	0.184998	0.260401
C61	C	0.759207	-0.247717	-0.199598
C62	C	1.259207	0.252283	0.300402
C63	C	0.794773	-0.231418	-0.138476
C64	C	1.294773	0.268582	0.361524
C65	C	0.885225	-0.282397	-0.117353
C66	C	1.385225	0.217603	0.382647
C67	C	0.940103	-0.349681	-0.157355
C68	C	1.440103	0.150319	0.342645
C69	C	0.904529	-0.365982	-0.218476
C70	C	1.404529	0.134018	0.281524
C71	C	1.518319	-0.779174	-0.301829
C72	C	2.018319	-0.279174	0.198171
C73	C	1.518386	-0.895950	-0.301844
C74	C	2.018386	-0.395950	0.198156
C75	C	1.451264	-0.950906	-0.261751
C76	C	1.951264	-0.450906	0.238249
C77	C	1.451338	-1.060630	-0.261767
C78	C	1.951338	-0.560630	0.238233
C79	C	1.585659	-1.060433	-0.341975
C80	C	2.085659	-0.560433	0.158025
C81	C	1.585589	-0.950711	-0.341955
C82	C	2.085589	-0.450711	0.158045
C83	C	1.413954	-1.210681	-0.187882
C84	C	1.913954	-0.710681	0.312118
C85	C	1.346816	-1.265641	-0.147795
C86	C	1.846816	-0.765641	0.352205
C87	C	1.244287	-1.230133	-0.138117
C88	C	1.744287	-0.730133	0.361883
C89	C	1.208875	-1.139668	-0.168535
C90	C	1.708875	-0.639668	0.331465
C91	C	1.276008	-1.084715	-0.208628
C92	C	1.776008	-0.584715	0.291372
C93	C	1.378552	-1.120220	-0.218294
C94	C	1.878552	-0.620220	0.281706
C95	C	1.622962	-0.800658	-0.415841
C96	C	2.122962	-0.300658	0.084159
C97	C	1.690090	-0.745702	-0.455937
C98	C	2.190090	-0.245702	0.044063
C99	C	1.792621	-0.781207	-0.465622
C100	C	2.292621	-0.281207	0.034378
C101	C	1.828029	-0.871676	-0.435214
C102	C	2.328029	-0.371676	0.064786
C103	C	1.760901	-0.926631	-0.395118
C104	C	2.260901	-0.426631	0.104882
C105	C	1.658371	-0.891118	-0.385432
C106	C	2.158371	-0.391118	0.114568
C107	C	1.792422	-0.506226	-0.301851
C108	C	2.292422	-0.006226	0.198149
C109	C	1.909199	-0.506234	-0.301855
C110	C	2.409199	-0.006234	0.198145
C111	C	1.518476	-0.506185	-0.465265
C112	C	2.018476	-0.006185	0.034735
C113	C	1.518513	-0.506176	-0.534907
C114	C	2.018513	-0.006176	-0.034907
C115	C	1.518487	-0.232173	-0.301869
C116	C	2.018487	0.267827	0.198131
C117	C	1.518529	-0.115396	-0.301880
C118	C	2.018529	0.384604	0.198120
C119	C	1.585731	-0.438982	-0.567629
C120	C	2.085731	0.061018	-0.067629
C121	C	1.585729	-0.438936	-0.633065
C122	C	2.085729	0.061064	-0.133065
C123	C	1.518521	-0.506104	-0.665775
C124	C	2.018521	-0.006104	-0.165775
C125	C	1.451291	-0.573303	-0.633044
C126	C	1.951291	-0.073303	-0.133044
C127	C	1.451287	-0.573339	-0.567610
C128	C	1.951287	-0.073339	-0.067610
C129	C	1.510202	-0.600703	-0.769445
C130	C	2.010202	-0.100703	-0.269445
C131	C	1.510213	-0.600669	-0.834878
C132	C	2.010213	-0.100669	-0.334878
C133	C	1.518528	-0.505993	-0.867596
C134	C	2.018528	-0.005993	-0.367596
C135	C	1.526853	-0.411348	-0.834872
C136	C	2.026853	0.088652	-0.334872
C137	C	1.526849	-0.411384	-0.769438
C138	C	2.026849	0.088616	-0.269438
C139	C	1.518518	-0.506073	-0.736727
C140	C	2.018518	-0.006073	-0.236727
C141	C	1.585748	-0.438744	-0.971271
C142	C	2.085748	0.061256	-0.471271
C143	C	1.585739	-0.438697	-1.036708
C144	C	2.085739	0.061303	-0.536708
C145	C	1.451306	-0.573074	-1.036686
C146	C	1.951306	-0.073074	-0.536686
C147	C	1.451309	-0.573111	-0.971251
C148	C	1.951309	-0.073111	-0.471251
C149	C	1.518536	-0.505948	-0.938547
C150	C	2.018536	-0.005948	-0.438547
C151	C	1.518363	-0.506152	-0.139054
C152	C	2.018363	-0.006152	0.360946
C153	C	1.518529	-0.505865	-0.069413
C154	C	2.018529	-0.005865	0.430587
H155	H	1.123670	-0.743259	-0.536126
H156	H	1.623670	-0.243259	-0.036126
Cl157	Cl	1.231501	-0.970994	-0.246866
Cl158	Cl	1.731501	-0.470994	0.253134
H159	H	1.118422	-0.384132	-0.229270
H160	H	1.618422	0.115868	0.270730
H161	H	1.640471	-0.384291	-0.541006
H162	H	2.140471	0.115709	-0.041006
Cl163	Cl	1.670217	-0.354436	-0.674211
Cl164	Cl	2.170217	0.145564	-0.174211
H165	H	1.539481	-0.771723	-0.407945
H166	H	2.039481	-0.271723	0.092055
H167	H	0.750088	-0.176619	-0.105910
H168	H	1.250088	0.323381	0.394090
Cl169	Cl	0.645499	-0.183621	-0.226155
Cl170	Cl	1.145499	0.316379	0.273845
H171	H	1.013756	-0.391188	-0.140152
H172	H	1.513756	0.108812	0.359848
H173	H	1.847275	-0.736453	-0.498273
H174	H	2.347275	-0.236453	0.001727
H175	H	1.252712	-0.684196	-0.314328
H176	H	1.752712	-0.184196	0.185672
Cl177	Cl	0.769372	-0.335480	-0.316443
Cl178	Cl	1.269372	0.164520	0.183557
H179	H	1.533626	-0.334321	-0.742797
H180	H	2.033626	0.165679	-0.242797
Cl181	Cl	1.537312	-0.292319	-0.875995
Cl182	Cl	2.037312	0.207681	-0.375995
Cl183	Cl	0.929946	-0.261903	-0.040514
Cl184	Cl	1.429946	0.238097	0.459486
Cl185	Cl	1.366806	-0.657594	-0.930111
Cl186	Cl	1.866806	-0.157594	-0.430111
Cl187	Cl	1.366786	-0.882067	-0.211323
Cl188	Cl	1.866786	-0.382067	0.288677
Cl189	Cl	1.391334	-1.379362	-0.109554
Cl190	Cl	1.891334	-0.879362	0.390446
H191	H	1.125381	-1.110772	-0.160658
H192	H	1.625381	-0.610772	0.339342
Cl193	Cl	1.670253	-0.354307	-0.930155
Cl194	Cl	2.170253	0.145693	-0.430155
Cl195	Cl	1.159876	-1.299247	-0.087737
Cl196	Cl	1.659876	-0.799247	0.412263
Cl197	Cl	1.542858	-1.255320	-0.200040
Cl198	Cl	2.042858	-0.755320	0.299960
Cl199	Cl	1.366797	-0.657739	-0.674164
Cl200	Cl	1.866797	-0.157739	-0.174164
H201	H	1.640474	-0.383974	-1.063350
H202	H	2.140474	0.116026	-0.563350
H203	H	1.503440	-0.677735	-0.861517
H204	H	2.003440	-0.177735	-0.361517
H205	H	1.396573	-0.627752	-1.063318
H206	H	1.896573	-0.127752	-0.563318
H207	H	1.503150	-0.677780	-0.742813
H208	H	2.003150	-0.177780	-0.242813
Cl209	Cl	1.670133	-1.129283	-0.392400
Cl210	Cl	2.170133	-0.629283	0.107600
H211	H	1.396545	-0.628055	-0.540967
H212	H	1.896545	-0.128055	-0.040967
H213	H	0.919430	-0.628310	-0.374430
H214	H	1.419430	-0.128310	0.125570
H215	H	1.024101	-0.621199	-0.463549
H216	H	1.524101	-0.121199	0.036451
Cl217	Cl	1.805415	-1.040366	-0.356890
Cl218	Cl	2.305415	-0.540366	0.143110
H219	H	1.911491	-0.900634	-0.443139
H220	H	2.411491	-0.400634	0.056861
H221	H	1.287757	-0.835772	-0.497802
H222	H	1.787757	-0.335772	0.002198
H223	H	1.661251	-0.672038	-0.480697
H224	H	2.161251	-0.172038	0.019303
H225	H	1.352276	-0.806231	-0.386901
H226	H	1.852276	-0.306231	0.113099
