data_functionalizedCrystal
_audit_creation_method	'MofGen! by Chris Wilmer'
_symmetry_space_group_name_H-M	'P1'
_symmetry_Int_Tables_number	1
_symmetry_cell_setting	triclinic
loop_
_symmetry_equiv_pos_as_xyz
  x,y,z
_cell_length_a	14.908558
_cell_length_b	16.625546
_cell_length_c	14.908308
_cell_angle_alpha	86.735930
_cell_angle_beta	89.824401
_cell_angle_gamma	86.717541
loop_
_atom_site_label
_atom_site_type_symbol
_atom_site_fract_x
_atom_site_fract_y
_atom_site_fract_z
Zn1	Zn	1.345283	-0.420797	0.587545
Zn2	Zn	1.353858	-0.548332	0.437178
Zn3	Zn	1.203598	-0.405308	0.428545
Zn4	Zn	1.194886	-0.547372	0.578831
O5	O	1.274406	-0.480452	0.508025
O6	O	1.472246	-0.444599	0.574858
O7	O	1.341161	-0.523279	0.310208
O8	O	1.222450	-0.294535	0.449671
O9	O	1.478547	-0.538298	0.464384
O10	O	1.326545	-0.305915	0.566488
O11	O	1.230766	-0.418200	0.303866
O12	O	1.076617	-0.417269	0.441221
O13	O	1.207601	-0.536662	0.705811
O14	O	1.070216	-0.521643	0.551635
O15	O	1.318097	-0.443668	0.712213
O16	O	1.332713	-0.661032	0.455934
O17	O	1.215917	-0.660327	0.560006
C18	C	1.040791	-0.467672	0.494546
C19	C	0.940848	-0.462224	0.488801
C20	C	0.803284	-0.400134	0.423312
C21	C	0.897189	-0.405248	0.428706
C22	C	0.890594	-0.514089	0.543509
C23	C	0.796688	-0.508975	0.538115
C24	C	0.753037	-0.451997	0.478013
C25	C	0.659130	-0.446887	0.472615
C26	C	0.652536	-0.555723	0.587422
C27	C	0.746441	-0.560837	0.592816
C28	C	1.274323	-0.689937	0.507982
C29	C	1.274368	-0.779561	0.507999
C30	C	1.274520	-1.107750	0.508101
C31	C	1.274475	-1.016437	0.508075
C32	C	1.274443	-0.943658	0.508049
C33	C	1.274400	-0.852340	0.508024
C34	C	1.508934	-0.493284	0.521556
C35	C	1.608876	-0.498751	0.527322
C36	C	1.260921	-0.491785	0.742549
C37	C	1.255174	-0.496615	0.842490
C38	C	1.274513	-0.270152	0.508088
C39	C	1.274558	-0.180535	0.508116
C40	C	1.287891	-0.469108	0.274415
C41	C	1.293812	-0.464061	0.174485
C42	C	1.359432	-0.408837	1.036957
C43	C	1.354035	-0.413372	1.130860
C44	C	1.238980	-0.510216	1.124201
C45	C	1.244377	-0.505680	1.030298
C46	C	1.304606	-0.454990	0.986679
C47	C	1.310006	-0.450460	0.892775
C48	C	1.194947	-0.547299	0.886117
C49	C	1.189550	-0.551834	0.980020
H50	H	1.359049	-0.409187	0.857262
H51	H	1.189944	-0.551485	1.159731
O52	O	1.417959	-0.359536	0.994721
C53	C	1.465216	-0.319791	1.059237
H54	H	1.424542	-0.318215	1.124052
H55	H	1.532916	-0.353537	1.073153
C56	C	1.530283	-0.234855	0.943749
C57	C	1.480324	-0.232913	1.023354
H58	H	1.539607	-0.181266	0.921614
H59	H	1.498449	-0.261634	0.900283
H60	H	1.586694	-0.262980	0.955357
H61	H	1.423910	-0.204797	1.011743
H62	H	1.512150	-0.206128	1.066817
H63	H	0.623590	-0.400492	0.423678
H64	H	1.398678	-0.375787	1.171793
O65	O	1.131099	-0.601182	1.022299
C66	C	1.152052	-0.681510	1.000486
H67	H	1.190536	-0.681777	0.934299
H68	H	1.195233	-0.713741	1.055996
C69	C	1.017361	-0.725025	1.072373
C70	C	1.064620	-0.725354	0.991077
H71	H	0.963429	-0.752073	1.066573
H72	H	1.003245	-0.670908	1.087072
H73	H	1.053354	-0.751884	1.118623
H74	H	1.028631	-0.698487	0.944832
H75	H	1.078727	-0.779468	0.976370
O76	O	0.946102	-0.354988	0.375528
C77	C	1.003723	-0.400960	0.320465
H78	H	1.015968	-0.464400	0.352864
H79	H	0.971345	-0.404534	0.251735
C80	C	1.078822	-0.282732	0.269604
C81	C	1.093867	-0.360649	0.309400
H82	H	1.134426	-0.257866	0.262774
H83	H	1.040000	-0.251759	0.306698
H84	H	1.051838	-0.285721	0.212333
H85	H	1.120840	-0.357658	0.366674
H86	H	1.132696	-0.391621	0.272316
H87	H	0.767742	-0.353742	0.374374
O88	O	0.933105	-0.569326	0.601937
C89	C	0.984083	-0.529261	0.663234
H90	H	0.999960	-0.467350	0.632451
H91	H	0.944081	-0.521751	0.727809
C92	C	1.052855	-0.655315	0.722353
C93	C	1.072362	-0.579277	0.684541
H94	H	1.107308	-0.686168	0.735500
H95	H	1.018508	-0.682308	0.681058
H96	H	1.019518	-0.649046	0.776161
H97	H	1.105688	-0.585547	0.630728
H98	H	1.106716	-0.552286	0.725827
O99	O	0.788802	-0.616101	0.651320
C100	C	0.760709	-0.601705	0.739652
H101	H	0.734639	-0.536119	0.742842
H102	H	0.704852	-0.643132	0.759935
C103	C	0.872711	-0.699168	0.800516
C104	C	0.840698	-0.618612	0.804436
H105	H	0.922050	-0.709600	0.840480
H106	H	0.891636	-0.708870	0.741005
H107	H	0.826156	-0.733681	0.817417
H108	H	0.887250	-0.584100	0.787525
H109	H	0.821783	-0.608905	0.863946
H110	H	1.150305	-0.584882	0.845170
O111	O	0.603588	-0.606021	0.640527
C112	C	0.511344	-0.589308	0.622862
H113	H	0.500208	-0.524927	0.592803
H114	H	0.487436	-0.633297	0.573350
C115	C	0.471597	-0.677673	0.747972
C116	C	0.457919	-0.598596	0.711060
H117	H	0.438641	-0.683405	0.802375
H118	H	0.533743	-0.688935	0.759871
H119	H	0.451674	-0.714321	0.706703
H120	H	0.477853	-0.561950	0.752323
H121	H	0.395775	-0.587328	0.699169
