data_functionalizedCrystal
_audit_creation_method	'MofGen! by Chris Wilmer'
_symmetry_space_group_name_H-M	'P1'
_symmetry_Int_Tables_number	1
_symmetry_cell_setting	triclinic
loop_
_symmetry_equiv_pos_as_xyz
  x,y,z
_cell_length_a	14.908571
_cell_length_b	21.395361
_cell_length_c	21.395355
_cell_angle_alpha	90.019049
_cell_angle_beta	86.683490
_cell_angle_gamma	93.273486
loop_
_atom_site_label
_atom_site_type_symbol
_atom_site_fract_x
_atom_site_fract_y
_atom_site_fract_z
Zn1	Zn	1.379191	0.304881	-0.409428
Zn2	Zn	1.379052	0.409635	-0.304644
Zn3	Zn	1.228315	0.298823	-0.298629
Zn4	Zn	1.228271	0.403565	-0.403353
O5	O	1.303707	0.354226	-0.354014
O6	O	1.505417	0.323851	-0.400588
O7	O	1.359016	0.394941	-0.216167
O8	O	1.248406	0.211952	-0.313353
O9	O	1.505315	0.400814	-0.323603
O10	O	1.359254	0.216402	-0.394756
O11	O	1.248270	0.313528	-0.211748
O12	O	1.102065	0.307643	-0.307462
O13	O	1.248331	0.390469	-0.491838
O14	O	1.102032	0.384596	-0.384401
O15	O	1.359212	0.317966	-0.496302
O16	O	1.358973	0.496504	-0.317712
O17	O	1.248195	0.492045	-0.390233
C18	C	1.069315	0.344804	-0.344620
C19	C	0.969040	0.340788	-0.340616
C20	C	1.303589	0.517009	-0.353981
C21	C	1.303621	0.586651	-0.353991
C22	C	1.303782	0.354216	-0.517440
C23	C	1.303814	0.354212	-0.587082
C24	C	0.780629	0.413498	-0.413103
C25	C	0.686413	0.409727	-0.409343
C26	C	0.686389	0.329472	-0.329341
C27	C	0.780606	0.333243	-0.333101
C28	C	0.827722	0.375258	-0.374982
C29	C	0.921941	0.379032	-0.378738
C30	C	0.921915	0.298775	-0.298740
C31	C	0.827699	0.295003	-0.294980
C32	C	1.539015	0.363685	-0.363444
C33	C	1.639289	0.367716	-0.367463
C34	C	1.361354	0.621668	-0.316274
C35	C	1.361396	0.687105	-0.316293
C36	C	1.303689	0.717522	-0.354021
C37	C	1.245952	0.682498	-0.391746
C38	C	1.245918	0.617063	-0.391731
C39	C	1.222460	0.817977	-0.355686
C40	C	1.222493	0.883411	-0.355697
C41	C	1.303795	0.919347	-0.354071
C42	C	1.385067	0.889842	-0.352421
C43	C	1.385033	0.824406	-0.352406
C44	C	1.303720	0.788476	-0.354042
C45	C	1.361579	1.025318	-0.316372
C46	C	1.361623	1.090757	-0.316395
C47	C	1.246170	1.086148	-0.391844
C48	C	1.246135	1.020712	-0.391825
C49	C	1.303838	0.990300	-0.354085
C50	C	1.303852	1.190808	-0.354072
C51	C	1.303916	1.121170	-0.354124
C52	C	1.361547	0.316458	-0.622121
C53	C	1.361546	0.316431	-0.687556
C54	C	1.303821	0.354170	-0.717951
C55	C	1.246077	0.391926	-0.682905
C56	C	1.246073	0.391948	-0.617470
C57	C	1.296657	0.410297	-0.821330
C58	C	1.296666	0.410278	-0.886763
C59	C	1.303827	0.354104	-0.919772
C60	C	1.310996	0.297949	-0.887341
C61	C	1.310992	0.297970	-0.821906
C62	C	1.303818	0.354151	-0.788903
C63	C	1.361561	0.316317	-1.025763
C64	C	1.361554	0.316289	-1.091199
C65	C	1.246090	0.391790	-1.086547
C66	C	1.246092	0.391812	-1.021112
C67	C	1.303833	0.354077	-0.990724
C68	C	1.303685	0.354193	-0.191225
C69	C	1.303827	0.354027	-0.121590
H70	H	0.960302	0.413244	-0.412839
Cl71	Cl	1.434118	0.987084	-0.268928
Cl72	Cl	1.173630	1.124382	-0.439280
H73	H	0.818993	0.447712	-0.447201
Cl74	Cl	1.434112	0.268951	-0.731612
H75	H	1.199119	0.992199	-0.422535
Cl76	Cl	1.434130	0.269015	-0.583922
H77	H	1.408413	0.715621	-0.285579
H78	H	0.960269	0.267638	-0.267698
H79	H	0.648010	0.295262	-0.295247
H80	H	1.451207	0.800384	-0.351065
Cl81	Cl	1.173489	0.439415	-0.573420
Cl82	Cl	1.319998	0.227379	-0.781137
H83	H	1.156315	0.907429	-0.357034
Cl84	Cl	1.320002	0.227326	-0.928831
H85	H	1.408642	1.119266	-0.285682
H86	H	1.156248	0.788723	-0.357013
H87	H	1.408572	0.285587	-1.001020
H88	H	1.408566	0.285541	-1.119727
Cl89	Cl	0.768458	0.242185	-0.242335
Cl90	Cl	1.287662	0.480872	-0.927527
Cl91	Cl	1.173410	0.720737	-0.439179
Cl92	Cl	1.487283	0.935012	-0.350371
Cl93	Cl	1.433908	0.583440	-0.268840
Cl94	Cl	0.627213	0.457801	-0.457269
Cl95	Cl	1.173332	0.573040	-0.439150
Cl96	Cl	1.173512	0.439228	-1.124751
H97	H	1.199085	0.422560	-0.992583
H98	H	1.290585	0.456019	-0.794449
H99	H	1.199074	0.422652	-0.707656
