data_functionalizedCrystal
_audit_creation_method	'MofGen! by Chris Wilmer'
_symmetry_space_group_name_H-M	'P1'
_symmetry_Int_Tables_number	1
_symmetry_cell_setting	triclinic
loop_
_symmetry_equiv_pos_as_xyz
  x,y,z
_cell_length_a	12.759401
_cell_length_b	25.639239
_cell_length_c	25.639234
_cell_angle_alpha	89.975416
_cell_angle_beta	89.984962
_cell_angle_gamma	90.038847
loop_
_atom_site_label
_atom_site_type_symbol
_atom_site_fract_x
_atom_site_fract_y
_atom_site_fract_z
Zn1	Zn	1.606044	-0.208182	-0.295575
Zn2	Zn	1.605876	-0.295610	-0.208140
Zn3	Zn	1.430357	-0.208190	-0.208158
Zn4	Zn	1.430261	-0.295589	-0.295548
O5	O	1.518135	-0.251893	-0.251855
O6	O	1.753043	-0.219785	-0.283981
O7	O	1.582562	-0.284026	-0.134977
O8	O	1.453773	-0.135024	-0.219773
O9	O	1.752919	-0.284018	-0.219742
O10	O	1.582850	-0.135018	-0.283998
O11	O	1.453609	-0.219799	-0.134990
O12	O	1.283323	-0.219779	-0.219746
O13	O	1.453610	-0.283982	-0.368717
O14	O	1.283253	-0.283990	-0.283951
O15	O	1.582757	-0.219764	-0.368737
O16	O	1.582470	-0.368772	-0.219716
O17	O	1.453447	-0.368757	-0.283934
C18	C	1.245167	-0.251883	-0.251848
C19	C	1.128391	-0.251892	-0.251858
C20	C	1.517958	-0.387735	-0.251831
C21	C	1.517978	-0.445849	-0.251839
C22	C	1.073520	-0.285380	-0.285234
C23	C	0.963795	-0.285386	-0.285240
C24	C	0.963823	-0.218415	-0.218488
C25	C	1.073545	-0.218406	-0.218485
C26	C	1.073503	-0.324047	-0.323771
C27	C	0.963779	-0.324053	-0.323776
C28	C	1.585492	-0.806208	-0.218474
C29	C	1.585533	-0.860812	-0.218481
O30	O	1.642752	-0.889045	-0.190086
N31	N	1.518319	-0.888132	-0.251890
C32	C	1.451068	-0.860844	-0.285298
O33	O	1.393902	-0.889095	-0.313716
C34	C	1.451033	-0.806241	-0.285293
C35	C	1.518244	-0.778924	-0.251878
C36	C	1.652698	-0.778891	-0.185062
C37	C	1.652656	-0.724291	-0.185054
C38	C	1.585407	-0.697007	-0.218459
C39	C	1.518202	-0.724324	-0.251871
C40	C	1.383788	-0.778954	-0.318704
C41	C	1.383760	-0.724347	-0.318696
C42	C	1.450970	-0.697030	-0.285281
C43	C	1.450911	-0.642439	-0.285268
N44	N	1.518125	-0.615120	-0.251858
C45	C	1.585373	-0.642403	-0.218454
C46	C	1.451147	-0.975515	-0.285306
C47	C	1.451176	-1.030117	-0.285309
C48	C	1.585642	-1.030081	-0.218492
C49	C	1.585608	-0.975478	-0.218487
C50	C	1.518361	-0.948195	-0.251897
C51	C	1.585278	-0.527738	-0.218440
C52	C	1.585227	-0.473133	-0.218434
C53	C	1.450765	-0.473174	-0.285253
C54	C	1.450812	-0.527774	-0.285257
C55	C	1.518077	-0.555055	-0.251849
O56	O	1.393724	-0.614172	-0.313649
O57	O	1.642539	-0.614145	-0.190045
C58	C	1.792168	-0.251903	-0.251863
C59	C	1.908944	-0.251907	-0.251866
C60	C	1.518192	-0.251870	-0.388228
C61	C	1.518216	-0.251860	-0.446342
C62	C	1.518341	-0.115520	-0.251891
C63	C	1.518428	-0.057406	-0.251906
C64	C	1.585389	-0.285260	-0.697521
C65	C	1.585378	-0.285271	-0.642917
O66	O	1.642443	-0.313726	-0.614668
N67	N	1.518239	-0.251834	-0.615616
C68	C	1.451098	-0.218389	-0.642923
O69	O	1.393989	-0.189950	-0.614687
C70	C	1.451105	-0.218381	-0.697526
C71	C	1.518256	-0.251816	-0.724824
C72	C	1.652534	-0.318692	-0.724820
C73	C	1.652547	-0.318680	-0.779420
C74	C	1.585414	-0.285236	-0.806723
C75	C	1.518268	-0.251804	-0.779425
C76	C	1.383960	-0.184939	-0.724831
C77	C	1.383972	-0.184934	-0.779438
C78	C	1.451123	-0.218368	-0.806736
C79	C	1.451148	-0.218348	-0.861328
N80	N	1.518287	-0.251784	-0.888628
C81	C	1.585420	-0.285228	-0.861326
C82	C	1.451088	-0.218409	-0.528252
C83	C	1.451086	-0.218414	-0.473650
C84	C	1.585365	-0.285296	-0.473648
C85	C	1.585372	-0.285288	-0.528251
C86	C	1.518228	-0.251845	-0.555553
C87	C	1.585441	-0.285201	-0.975991
C88	C	1.585451	-0.285184	-1.030596
C89	C	1.451168	-0.218304	-1.030593
C90	C	1.451163	-0.218318	-0.975993
C91	C	1.518303	-0.251771	-0.948693
O92	O	1.394109	-0.189909	-0.889611
O93	O	1.642510	-0.313667	-0.889568
C94	C	1.518138	-0.251878	-0.116013
C95	C	1.518318	-0.251740	-0.057899
H96	H	1.118217	-0.191134	-0.191311
H97	H	1.640027	-0.312529	-0.451408
N98	N	1.113001	-0.309752	-0.377432
H99	H	1.192158	-0.309743	-0.377451
H100	H	1.086551	-0.336053	-0.403630
N101	N	0.918789	-0.304909	-0.374771
H102	H	0.874203	-0.333219	-0.390841
H103	H	0.874321	-0.273005	-0.368209
H104	H	1.707387	-0.702052	-0.157846
H105	H	1.707466	-0.801100	-0.157860
H106	H	0.933950	-0.364535	-0.312858
H107	H	1.640052	-0.312514	-0.550474
N108	N	1.378740	-0.182258	-0.946545
H109	H	1.421462	-0.158034	-0.923896
H110	H	1.336230	-0.161103	-0.972162
H111	H	0.919155	-0.191152	-0.191318
N112	N	1.657723	-0.443670	-0.182394
H113	H	1.700334	-0.469243	-0.161236
H114	H	1.706300	-0.420978	-0.203696
N115	N	1.658101	-0.946017	-0.182449
H116	H	1.700703	-0.971592	-0.161290
H117	H	1.706686	-0.923329	-0.203751
N118	N	1.378666	-1.059573	-0.321343
H119	H	1.394929	-1.050038	-0.358705
H120	H	1.388916	-1.098296	-0.316239
N121	N	1.724946	-0.354768	-0.695377
H122	H	1.767475	-0.375943	-0.720964
H123	H	1.773602	-0.333492	-0.672735
H124	H	1.329001	-0.702136	-0.345904
N125	N	1.378675	-0.182330	-0.557697
H126	H	1.329951	-0.203571	-0.580339
H127	H	1.336218	-0.161160	-0.532079
N128	N	1.118531	-0.374963	-0.304460
H129	H	1.059585	-0.399571	-0.295133
H130	H	1.163110	-0.391062	-0.332740
H131	H	1.640054	-0.549944	-0.191237
N132	N	1.658177	-1.059514	-0.182461
H133	H	1.647997	-1.098249	-0.187538
H134	H	1.733196	-1.049929	-0.190630
H135	H	1.396378	-0.953304	-0.312511
H136	H	1.396087	-0.550017	-0.312468
H137	H	1.396417	-0.191182	-0.451428
N138	N	1.311291	-0.808408	-0.354742
H139	H	1.268694	-0.782831	-0.375901
H140	H	1.354038	-0.831029	-0.378961
H141	H	1.396008	-0.450951	-0.312449
N142	N	1.657883	-0.321246	-1.060039
H143	H	1.700405	-0.342435	-1.034454
H144	H	1.615086	-0.345437	-1.082686
N145	N	1.657854	-0.321282	-0.946552
H146	H	1.700386	-0.342455	-0.972139
H147	H	1.706507	-0.300008	-0.923907
H148	H	1.707225	-0.345908	-0.801641
H149	H	1.329294	-0.157700	-0.801665
H150	H	1.396513	-0.191074	-1.052833
N151	N	1.311546	-0.148869	-0.695397
H152	H	1.269026	-0.127685	-0.720987
H153	H	1.262881	-0.170147	-0.672730
