data_functionalizedCrystal
_audit_creation_method	'MofGen! by Chris Wilmer'
_symmetry_space_group_name_H-M	'P1'
_symmetry_Int_Tables_number	1
_symmetry_cell_setting	triclinic
loop_
_symmetry_equiv_pos_as_xyz
  x,y,z
_cell_length_a	10.654550
_cell_length_b	16.109304
_cell_length_c	9.130313
_cell_angle_alpha	90.001562
_cell_angle_beta	89.996220
_cell_angle_gamma	83.973770
loop_
_atom_site_label
_atom_site_type_symbol
_atom_site_fract_x
_atom_site_fract_y
_atom_site_fract_z
O1	O	1.666252	0.116770	-0.121910
O2	O	1.300622	0.127895	-0.121885
O3	O	1.493479	0.001362	-0.121899
O4	O	1.473395	0.243304	-0.121896
O5	O	1.493477	0.001365	0.121700
O6	O	1.300620	0.127899	0.121714
O7	O	1.666249	0.116773	0.121689
Cu8	Cu	1.483434	0.122336	0.143944
Cu9	Cu	1.483437	0.122332	-0.144140
O10	O	1.473392	0.243307	0.121703
C11	C	1.253834	0.127080	-0.000083
C12	C	1.114424	0.124636	-0.000074
C13	C	1.492664	-0.029616	-0.000103
C14	C	1.490223	-0.121926	-0.000113
C15	C	1.033929	0.199137	-0.000094
C16	C	0.902939	0.196836	-0.000120
C17	C	0.932953	0.045526	-0.000110
C18	C	1.063940	0.047828	-0.000074
C19	C	1.016600	0.286495	-0.000106
C20	C	0.885610	0.284194	-0.000131
C21	C	1.484585	-0.334299	-0.132893
C22	C	1.482280	-0.421033	-0.132891
C23	C	1.482283	-0.421026	0.132694
C24	C	1.484579	-0.334293	0.132691
C25	C	1.485737	-0.290932	-0.000107
C26	C	1.481135	-0.464399	-0.000102
C27	C	1.478636	-0.558440	-0.000100
C28	C	1.488234	-0.196885	-0.000110
C29	C	1.713037	0.117589	-0.000117
C30	C	1.852448	0.120033	-0.000135
C31	C	1.474208	0.274285	-0.000097
C32	C	1.476649	0.366595	-0.000096
N33	N	1.483442	0.122339	0.346567
N34	N	1.483440	0.122324	-0.346763
C35	C	1.568860	0.066329	0.423212
C36	C	1.568857	0.066319	0.576549
C37	C	1.398012	0.178336	0.576581
C38	C	1.398011	0.178341	0.423247
C39	C	1.667500	0.001659	0.423195
C40	C	1.667497	0.001649	0.576532
H41	H	0.891833	-0.017009	-0.000133
H42	H	1.481339	-0.456338	-0.241019
N43	N	1.481063	-0.467798	0.275917
H44	H	1.403665	-0.446419	0.333989
H45	H	1.479490	-0.529313	0.255645
H46	H	1.485510	-0.298982	0.240827
N47	N	1.054852	0.331759	0.134924
H48	H	0.977444	0.350293	0.195163
H49	H	1.115230	0.293065	0.195089
N50	N	1.305859	0.238737	0.340575
H51	H	1.251741	0.274210	0.412422
H52	H	1.353897	0.275798	0.276950
N53	N	1.305869	0.238734	0.659286
H54	H	1.318827	0.230231	0.768054
H55	H	1.320341	0.297808	0.632498
N56	N	1.063349	0.323332	-0.139413
H57	H	0.989592	0.339440	-0.206748
H58	H	1.106604	0.374467	-0.115083
N59	N	1.640249	-0.082984	0.368048
H60	H	1.628080	-0.120759	0.454036
H61	H	1.561027	-0.076703	0.306559
H62	H	0.839580	0.310596	0.105037
H63	H	1.758409	0.021908	0.375631
H64	H	1.637802	-0.058739	0.624081
H65	H	1.485523	-0.298997	-0.241025
H66	H	1.763815	0.015894	0.618143
H67	H	1.129476	-0.012838	-0.000037
H68	H	0.843432	0.317107	-0.102084
