data_functionalizedCrystal
_audit_creation_method	'MofGen! by Chris Wilmer'
_symmetry_space_group_name_H-M	'P1'
_symmetry_Int_Tables_number	1
_symmetry_cell_setting	triclinic
loop_
_symmetry_equiv_pos_as_xyz
  x,y,z
_cell_length_a	19.805407
_cell_length_b	12.759394
_cell_length_c	19.805399
_cell_angle_alpha	90.022273
_cell_angle_beta	90.017803
_cell_angle_gamma	90.011172
loop_
_atom_site_label
_atom_site_type_symbol
_atom_site_fract_x
_atom_site_fract_y
_atom_site_fract_z
Zn1	Zn	1.034795	-0.418366	0.382713
Zn2	Zn	1.034734	-0.594059	0.269535
Zn3	Zn	0.921609	-0.418387	0.269541
Zn4	Zn	0.921598	-0.593995	0.382685
O5	O	0.978184	-0.506202	0.326118
O6	O	1.129503	-0.441690	0.367708
O7	O	1.019708	-0.570792	0.174819
O8	O	0.936654	-0.271363	0.284567
O9	O	1.129459	-0.570771	0.284557
O10	O	1.019811	-0.271348	0.367714
O11	O	0.936595	-0.441726	0.174823
O12	O	0.826891	-0.441664	0.284541
O13	O	0.936634	-0.570662	0.477405
O14	O	0.826883	-0.570682	0.367667
O15	O	1.019799	-0.441628	0.477426
O16	O	1.019696	-0.741072	0.284531
O17	O	0.936575	-0.741025	0.367662
C18	C	0.802328	-0.506169	0.326102
C19	C	0.727096	-0.506180	0.326111
C20	C	0.691776	-0.439087	0.369474
C21	C	0.621087	-0.439092	0.369476
C22	C	0.585720	-0.506197	0.326119
C23	C	0.621046	-0.573294	0.282752
C24	C	0.691733	-0.573282	0.282746
C25	C	0.335972	-0.573341	0.282772
C26	C	0.265280	-0.573350	0.282783
C27	C	0.265327	-0.439151	0.369502
C28	C	0.336014	-0.439139	0.369497
C29	C	0.371333	-0.506232	0.326127
C30	C	0.447981	-0.506223	0.326124
C31	C	0.509073	-0.506212	0.326125
C32	C	0.978146	-0.779169	0.326107
C33	C	0.978192	-0.895946	0.326125
C34	C	1.064719	-0.895772	0.412771
C35	C	1.108003	-0.950546	0.456099
C36	C	1.108043	-1.060267	0.456113
C37	C	1.064793	-1.115218	0.412797
C38	C	1.021508	-1.060444	0.369469
C39	C	1.021474	-0.950720	0.369457
C40	C	0.934980	-1.060618	0.282827
C41	C	0.934942	-0.950896	0.282808
C42	C	0.891729	-1.115568	0.239511
C43	C	0.848447	-1.060795	0.196178
C44	C	0.848409	-0.951066	0.196165
C45	C	0.891657	-0.896123	0.239480
C46	C	1.154727	-0.506236	0.326135
C47	C	1.229959	-0.506250	0.326142
C48	C	0.978222	-0.506136	0.502661
C49	C	0.978238	-0.506108	0.577893
C50	C	0.978240	-0.232169	0.326144
C51	C	0.978264	-0.115392	0.326155
C52	C	0.978185	-0.506192	0.150262
C53	C	0.978300	-0.505924	0.075031
C54	C	1.021543	-0.438916	0.613249
C55	C	1.021550	-0.438886	0.683937
C56	C	0.978255	-0.506053	0.719269
C57	C	0.934945	-0.573247	0.683908
C58	C	0.934935	-0.573271	0.613221
C59	C	0.934983	-0.573149	0.968982
C60	C	0.934998	-0.573122	1.039674
C61	C	1.021598	-0.438763	1.039698
C62	C	1.021588	-0.438788	0.969011
C63	C	0.978276	-0.505978	0.933656
C64	C	0.978268	-0.506009	0.857008
C65	C	0.978266	-0.506028	0.795916
H66	H	0.364721	-0.627973	0.247459
H67	H	1.143282	-1.104864	0.491402
C68	C	0.800876	-1.121239	0.148536
C69	C	0.800914	-1.241929	0.148555
C70	C	0.753342	-1.302378	0.100911
C71	C	0.705732	-1.242136	0.053247
C72	C	0.705692	-1.121440	0.053225
C73	C	0.753264	-1.060991	0.100869
H74	H	0.836159	-1.286529	0.183841
H75	H	0.753372	-1.391726	0.100927
H76	H	0.670517	-1.286884	0.017977
H77	H	0.670447	-1.076839	0.017939
H78	H	0.753234	-0.971643	0.100853
C79	C	0.800794	-0.890819	0.148503
C80	C	0.747613	-0.815423	0.177779
C81	C	0.699996	-0.755181	0.130116
C82	C	0.705560	-0.770336	0.053177
C83	C	0.758744	-0.845736	0.023897
C84	C	0.806360	-0.905977	0.071560
H85	H	0.743492	-0.804202	0.234737
H86	H	0.660626	-0.699365	0.151791
H87	H	0.670312	-0.725741	0.017894
H88	H	0.762865	-0.856957	-0.033061
H89	H	0.845730	-0.961794	0.049885
C90	C	0.887332	-0.647024	0.930083
C91	C	0.916612	-0.729520	0.881461
C92	C	0.868953	-0.803381	0.842552
C93	C	0.792013	-0.794745	0.852264
C94	C	0.762729	-0.712245	0.900888
C95	C	0.810389	-0.638384	0.939798
H96	H	0.973571	-0.735916	0.874269
H97	H	0.890631	-0.864453	0.806557
H98	H	0.756733	-0.849421	0.823461
H99	H	0.705771	-0.705848	0.908080
H100	H	0.788711	-0.577312	0.975793
H101	H	0.899665	-0.627975	0.584435
H102	H	0.236487	-0.627998	0.247473
H103	H	1.064697	-0.806431	0.412757
H104	H	1.064824	-1.204559	0.412818
H105	H	1.056815	-0.384174	0.712721
C106	C	1.069170	-0.365030	0.574387
C107	C	1.063669	-0.245590	0.584118
C108	C	1.111295	-0.171698	0.545258
C109	C	1.164421	-0.217248	0.496668
C110	C	1.169923	-0.336694	0.486935
C111	C	1.122298	-0.410585	0.525795
H112	H	1.024341	-0.211866	0.620089
H113	H	1.107222	-0.083276	0.552463
H114	H	1.199677	-0.162549	0.467902
H115	H	1.209252	-0.370418	0.450964
H116	H	1.126371	-0.499008	0.518590
C117	C	0.582143	-0.647112	0.235058
C118	C	0.533526	-0.601489	0.181975
C119	C	0.494624	-0.675311	0.134283
C120	C	0.504341	-0.794756	0.139674
C121	C	0.552961	-0.840385	0.192759
C122	C	0.591862	-0.766563	0.240451
H123	H	0.526331	-0.513062	0.177983
H124	H	0.458633	-0.641532	0.094986
H125	H	0.475544	-0.849404	0.104369
H126	H	0.560156	-0.928812	0.196752
H127	H	0.627854	-0.800342	0.279748
H128	H	1.143216	-0.905796	0.491368
H129	H	0.364806	-0.384499	0.404805
H130	H	0.891763	-1.204910	0.239528
H131	H	0.891634	-0.806782	0.239471
H132	H	1.056846	-0.384097	0.940248
C133	C	1.069238	-0.364842	1.078589
C134	C	1.069251	-0.364801	1.156343
C135	C	1.116891	-0.290884	1.195232
C136	C	1.164517	-0.217008	1.156368
C137	C	1.164506	-0.217046	1.078610
C138	C	1.116866	-0.290963	1.039721
H139	H	1.033994	-0.419491	1.185116
H140	H	1.116899	-0.290857	1.252793
H141	H	1.199783	-0.162291	1.185156
H142	H	1.199763	-0.162357	1.049837
H143	H	1.116858	-0.290991	0.982160
H144	H	0.592332	-0.384460	0.404788
C145	C	0.730676	-0.365268	0.417168
C146	C	0.691821	-0.291462	0.464863
C147	C	0.730718	-0.217638	0.512557
C148	C	0.808472	-0.217621	0.512556
C149	C	0.847331	-0.291431	0.464860
C150	C	0.808433	-0.365254	0.417166
H151	H	0.634259	-0.291472	0.464865
H152	H	0.701952	-0.163000	0.547866
H153	H	0.837266	-0.162973	0.547863
H154	H	0.904893	-0.291420	0.464857
H155	H	0.837200	-0.419892	0.381857
H156	H	0.236561	-0.384517	0.404814
H157	H	0.720490	-0.627916	0.247435
H158	H	0.899739	-0.627819	1.068439
H159	H	0.899691	-0.627932	0.712681
