data_functionalizedCrystal
_audit_creation_method	'MofGen! by Chris Wilmer'
_symmetry_space_group_name_H-M	'P1'
_symmetry_Int_Tables_number	1
_symmetry_cell_setting	triclinic
loop_
_symmetry_equiv_pos_as_xyz
  x,y,z
_cell_length_a	19.188905
_cell_length_b	19.188930
_cell_length_c	18.266242
_cell_angle_alpha	90.011475
_cell_angle_beta	89.983837
_cell_angle_gamma	96.860332
loop_
_atom_site_label
_atom_site_type_symbol
_atom_site_fract_x
_atom_site_fract_y
_atom_site_fract_z
O1	O	0.926160	-0.087085	-0.061010
O2	O	0.722847	-0.098838	-0.060986
O3	O	0.830371	0.008694	-0.060984
O4	O	0.818636	-0.194618	-0.061011
O5	O	0.830353	0.008700	0.060778
O6	O	0.722828	-0.098833	0.060776
O7	O	0.926142	-0.087080	0.060752
Zn8	Zn	0.824482	-0.092955	0.080097
Zn9	Zn	0.824506	-0.092963	-0.080330
O10	O	0.818618	-0.194612	0.060751
C11	C	0.696826	-0.098458	-0.000102
C12	C	0.619321	-0.097324	-0.000092
C13	C	0.582939	-0.096782	-0.066466
C14	C	0.510115	-0.095709	-0.066475
C15	C	0.473678	-0.095164	-0.000106
C16	C	0.510068	-0.095709	0.066277
C17	C	0.582890	-0.096789	0.066284
N18	N	0.364651	-0.053733	0.049292
N19	N	0.295474	-0.052705	0.049280
C20	C	0.254272	-0.091911	-0.000123
N21	N	0.284861	-0.132174	-0.049526
N22	N	0.354045	-0.133199	-0.049517
C23	C	0.394716	-0.093993	-0.000106
C24	C	0.138926	-0.090207	-0.066512
C25	C	0.066100	-0.089138	-0.066518
C26	C	0.066056	-0.089132	0.066236
C27	C	0.138879	-0.090207	0.066240
C28	C	0.175310	-0.090742	-0.000136
C29	C	0.829982	0.034708	-0.000101
C30	C	0.828841	0.112213	-0.000095
C31	C	0.952163	-0.087460	-0.000134
C32	C	1.029668	-0.088594	-0.000148
C33	C	0.819007	-0.220626	-0.000134
C34	C	0.820148	-0.298131	-0.000145
N35	N	0.824471	-0.092950	0.189583
C36	C	0.891933	0.157142	-0.000099
C37	C	0.890861	0.229966	-0.000110
C38	C	0.826694	0.257857	-0.000103
C39	C	0.763594	0.212917	-0.000103
C40	C	0.764668	0.140095	-0.000099
N41	N	0.777640	0.365859	0.041341
N42	N	0.776624	0.435038	0.041338
C43	C	0.823456	0.477265	-0.000118
N44	N	0.871352	0.447702	-0.041561
N45	N	0.872369	0.378517	-0.041556
C46	C	0.825523	0.336819	-0.000108
C47	C	0.885390	0.601159	-0.000135
C48	C	0.884315	0.673984	-0.000151
C49	C	0.757047	0.656933	-0.000137
C50	C	0.758123	0.584110	-0.000128
C51	C	0.822296	0.556228	-0.000124
N52	N	0.824523	-0.092962	-0.189817
C53	C	0.872098	-0.045358	0.227893
C54	C	0.872103	-0.045355	0.304538
C55	C	0.824487	-0.092956	0.342870
C56	C	0.776851	-0.140551	0.304552
C57	C	0.776843	-0.140549	0.227908
N58	N	0.815411	-0.154764	0.463195
N59	N	0.815423	-0.154764	0.536003
C60	C	0.824506	-0.092966	0.573793
N61	N	0.833592	-0.031165	0.536024
N62	N	0.833584	-0.031165	0.463209
C63	C	0.824490	-0.092963	0.425977
C64	C	0.872141	-0.045366	0.695210
C65	C	0.872141	-0.045362	0.771856
C66	C	0.776892	-0.140565	0.771868
C67	C	0.776889	-0.140563	0.695223
C68	C	0.824517	-0.092964	0.656898
H69	H	0.036389	-0.088692	0.120275
N70	N	0.472854	-0.095136	0.134071
N71	N	0.487568	-0.046049	0.178520
H72	H	0.461285	-0.045646	0.226402
N73	N	0.176157	-0.090759	-0.134301
N74	N	0.223394	-0.042158	-0.149102
H75	H	0.249689	-0.042549	-0.196977
N76	N	0.728184	-0.189168	0.188783
N77	N	0.685667	-0.231662	0.223013
H78	H	0.651301	-0.266002	0.195380
H79	H	0.713289	0.103513	-0.000096
H80	H	0.910921	-0.006606	0.664004
N81	N	0.620045	-0.097348	0.134094
N82	N	0.587507	-0.096869	0.193349
H83	H	0.613748	-0.097263	0.241241
N84	N	0.920792	0.003266	0.810979
N85	N	0.963309	0.045759	0.776748
H86	H	0.997671	0.080104	0.804379
N87	N	0.472933	-0.095143	-0.134271
N88	N	0.407915	-0.094174	-0.134265
H89	H	0.381655	-0.093773	-0.182145
N90	N	0.920801	0.003246	0.188793
N91	N	0.920114	0.067788	0.197377
H92	H	0.954532	0.102106	0.169776
N93	N	0.028944	-0.088595	-0.134328
N94	N	0.061484	-0.089076	-0.193583
H95	H	0.035242	-0.088693	-0.241476
H96	H	0.704801	0.679641	-0.000135
N97	N	0.176036	-0.090755	0.134048
N98	N	0.143498	-0.090269	0.193302
H99	H	0.169739	-0.090657	0.241195
N100	N	0.728234	-0.189183	0.656098
N101	N	0.685719	-0.231678	0.690328
H102	H	0.651352	-0.266017	0.662697
H103	H	0.706747	0.547527	-0.000121
N104	N	0.620140	-0.097329	-0.134272
N105	N	0.587641	-0.096846	-0.193531
H106	H	0.613915	-0.097233	-0.241420
N107	N	0.728241	-0.189178	0.811012
N108	N	0.684974	-0.167135	0.853799
H109	H	0.650609	-0.201467	0.881447
H110	H	0.937644	0.578456	-0.000135
H111	H	0.935694	0.710565	-0.000158
H112	H	0.944187	0.134445	-0.000097
H113	H	0.942239	0.266555	-0.000116
H114	H	0.711349	0.235631	-0.000099
H115	H	0.910888	-0.006598	0.335735
H116	H	0.738080	-0.179308	0.335766
