data_functionalizedCrystal
_audit_creation_method	'MofGen! by Chris Wilmer'
_symmetry_space_group_name_H-M	'P1'
_symmetry_Int_Tables_number	1
_symmetry_cell_setting	triclinic
loop_
_symmetry_equiv_pos_as_xyz
  x,y,z
_cell_length_a	15.995350
_cell_length_b	15.995350
_cell_length_c	15.072220
_cell_angle_alpha	89.998899
_cell_angle_beta	89.991149
_cell_angle_gamma	96.507625
loop_
_atom_site_label
_atom_site_type_symbol
_atom_site_fract_x
_atom_site_fract_y
_atom_site_fract_z
O1	O	1.110996	-0.107921	-0.073703
O2	O	0.867221	-0.121249	-0.073721
O3	O	0.995772	0.007303	-0.073710
O4	O	0.982444	-0.236472	-0.073713
O5	O	0.995740	0.007296	0.073855
O6	O	0.867189	-0.121256	0.073844
O7	O	1.110964	-0.107928	0.073862
Zn8	Zn	0.989071	-0.114593	0.097283
Zn9	Zn	0.989113	-0.114584	-0.097141
O10	O	0.982413	-0.236480	0.073852
C11	C	0.836010	-0.120701	0.000060
C12	C	0.743060	-0.119049	0.000053
C13	C	0.405312	-0.113117	0.000071
C14	C	0.452746	-0.021565	0.000401
C15	C	0.549436	-0.023217	0.000063
C16	C	0.572873	-0.116060	0.000063
C17	C	0.531804	-0.161212	-0.084201
C18	C	0.435168	-0.158912	-0.084266
C19	C	0.434793	-0.160812	0.083543
C20	C	0.531738	-0.160790	0.084651
C21	C	0.667570	-0.117727	0.000055
C22	C	0.310614	-0.111452	0.000073
C23	C	0.995205	0.038494	0.000070
C24	C	0.993553	0.131444	0.000065
C25	C	1.142175	-0.108476	0.000080
C26	C	1.235125	-0.110127	0.000081
C27	C	0.982980	-0.267671	0.000069
C28	C	0.984631	-0.360621	0.000069
N29	N	0.989049	-0.114599	0.229971
C30	C	0.987621	0.469192	0.000068
C31	C	0.896069	0.421758	-0.000270
C32	C	0.897721	0.325068	0.000063
C33	C	0.990564	0.301631	0.000066
C34	C	1.035702	0.342705	0.084335
C35	C	1.033402	0.439341	0.084405
C36	C	1.035330	0.439707	-0.083404
C37	C	1.035308	0.342761	-0.084518
C38	C	0.992231	0.206934	0.000068
C39	C	0.985956	0.563890	0.000072
N40	N	0.989142	-0.114571	-0.229830
C41	C	0.989112	-0.114580	0.589173
C42	C	0.920095	-0.183135	0.551560
C43	C	0.920254	-0.183385	0.448735
C44	C	0.989080	-0.114590	0.410969
C45	C	1.076445	-0.133671	0.448266
C46	C	1.076058	-0.134159	0.551124
C47	C	0.971542	-0.026741	0.551272
C48	C	0.969537	-0.027327	0.448409
C49	C	0.989067	-0.114593	0.310255
C50	C	0.989130	-0.114579	0.689886
H51	H	0.577852	0.012275	0.060467
H52	H	0.859626	0.441349	0.059819
H53	H	0.577307	0.012521	-0.060446
H54	H	0.559041	-0.127829	0.146989
C55	C	1.147489	-0.068018	0.415218
C56	C	1.239070	-0.074238	0.443554
C57	C	1.310112	-0.008583	0.410504
C58	C	1.289574	0.063293	0.349119
C59	C	1.197988	0.069517	0.320779
C60	C	1.126946	0.003861	0.353829
H61	H	1.254278	-0.127448	0.488998
H62	H	1.377910	-0.013191	0.431483
H63	H	1.342164	0.111895	0.324653
H64	H	1.182781	0.122726	0.275335
H65	H	1.059148	0.008469	0.332850
H66	H	1.102831	0.471468	-0.083968
C67	C	0.832523	-0.168036	0.414662
C68	C	0.815482	-0.165262	0.314211
C69	C	0.727747	-0.149916	0.280144
C70	C	0.657053	-0.137344	0.346528
C71	C	0.674092	-0.140118	0.446985
C72	C	0.761827	-0.155464	0.481052
H73	H	0.867815	-0.174569	0.265064
H74	H	0.715134	-0.147863	0.205779
H75	H	0.592107	-0.125984	0.321310
H76	H	0.621759	-0.130811	0.496132
H77	H	0.774441	-0.157517	0.555418
H78	H	0.861974	0.297200	0.060568
H79	H	0.434211	0.015027	0.060830
C80	C	0.426295	0.027658	-0.080778
C81	C	0.361870	-0.014912	-0.147274
C82	C	0.335418	0.034308	-0.228454
C83	C	0.373392	0.126098	-0.243139
C84	C	0.437822	0.168673	-0.176641
C85	C	0.464273	0.119453	-0.095460
H86	H	0.333756	-0.082866	-0.136405
H87	H	0.287723	0.002790	-0.277680
H88	H	0.353811	0.162533	-0.303234
H89	H	0.465936	0.236626	-0.187510
H90	H	0.511968	0.150970	-0.046234
C91	C	0.410447	-0.114417	-0.169355
C92	C	0.447055	-0.022837	-0.187793
C93	C	0.422339	0.021660	-0.272884
C94	C	0.361016	-0.025421	-0.339536
C95	C	0.324404	-0.117006	-0.321099
C96	C	0.349120	-0.161504	-0.236009
H97	H	0.492453	0.012020	-0.138452
H98	H	0.449442	0.089458	-0.286531
H99	H	0.342720	0.007519	-0.402525
H100	H	0.279006	-0.151863	-0.370441
H101	H	0.322017	-0.229301	-0.222361
H102	H	0.931473	-0.248570	0.424121
H103	H	0.854945	-0.171953	0.576317
C104	C	0.391596	-0.249711	-0.089458
C105	C	0.444766	-0.324079	-0.093537
C106	C	0.401199	-0.414875	-0.098744
C107	C	0.304463	-0.431302	-0.099873
C108	C	0.251288	-0.356932	-0.095794
C109	C	0.294855	-0.266136	-0.090587
H110	H	0.516380	-0.311921	-0.092701
H111	H	0.440563	-0.469929	-0.101763
H112	H	0.272212	-0.498515	-0.103727
H113	H	0.179674	-0.369090	-0.096630
H114	H	0.255491	-0.211082	-0.087568
C115	C	0.550884	-0.253358	-0.088444
C116	C	0.604106	-0.288761	-0.015268
C117	C	0.623187	-0.380907	-0.019508
C118	C	0.589046	-0.437650	-0.096924
C119	C	0.535821	-0.402247	-0.170106
C120	C	0.516740	-0.310101	-0.165866
H121	H	0.629382	-0.246756	0.042046
H122	H	0.662588	-0.407114	0.034667
H123	H	0.603171	-0.505862	-0.100063
H124	H	0.510545	-0.444252	-0.227419
H125	H	0.477339	-0.283894	-0.220041
C126	C	0.570134	-0.118830	-0.168924
C127	C	0.638646	-0.043315	-0.161825
C128	C	0.676971	-0.000924	-0.246545
C129	C	0.646785	-0.034049	-0.338365
C130	C	0.578270	-0.109569	-0.345469
C131	C	0.539945	-0.151960	-0.260748
H132	H	0.660994	-0.018790	-0.093850
H133	H	0.727690	0.054981	-0.241286
H134	H	0.675155	-0.002669	-0.401080
H135	H	0.555921	-0.134094	-0.413443
H136	H	0.489225	-0.207865	-0.266007
H137	H	1.092297	-0.197002	0.422498
H138	H	0.931160	-0.247952	0.577399
C139	C	0.391885	-0.252000	0.084324
C140	C	0.445614	-0.325991	0.081716
C141	C	0.402701	-0.417174	0.082490
C142	C	0.306060	-0.434366	0.085870
C143	C	0.252325	-0.360373	0.088478
C144	C	0.295237	-0.269190	0.087705
H145	H	0.517159	-0.313266	0.079214
H146	H	0.442480	-0.471948	0.080559
H147	H	0.274293	-0.501865	0.086443
H148	H	0.180780	-0.373098	0.090981
H149	H	0.255459	-0.214415	0.089635
C150	C	1.096966	-0.220701	0.583530
C151	C	1.113899	-0.288887	0.515818
C152	C	1.134805	-0.375432	0.548219
C153	C	1.138778	-0.393790	0.648332
C154	C	1.121845	-0.325603	0.716051
C155	C	1.100939	-0.239058	0.683650
H156	H	1.110958	-0.275298	0.441702
H157	H	1.147340	-0.425909	0.498088
H158	H	1.154254	-0.457856	0.672317
H159	H	1.124786	-0.339191	0.790166
H160	H	1.088404	-0.188581	0.733780
H161	H	0.414244	-0.130885	0.147414
H162	H	0.547102	-0.228494	0.089741
H163	H	1.004325	0.314320	0.147042
C164	C	0.849770	0.286666	-0.081530
C165	C	0.809704	0.343972	-0.147449
C166	C	0.761741	0.305574	-0.229039
C167	C	0.753844	0.209869	-0.244711
C168	C	0.793911	0.152557	-0.178790
C169	C	0.841874	0.190955	-0.097200
H170	H	0.815548	0.414824	-0.135850
H171	H	0.732080	0.348001	-0.277838
H172	H	0.718339	0.181445	-0.305109
H173	H	0.788067	0.081705	-0.190390
H174	H	0.871535	0.148528	-0.048401
H175	H	1.129019	-0.086195	0.576003
H176	H	0.909219	-0.008392	0.577258
H177	H	0.905271	-0.012846	0.424032
H178	H	1.005411	0.460250	-0.147274
C179	C	0.846649	0.446783	-0.081913
C180	C	0.888814	0.510599	-0.149277
C181	C	0.839396	0.535623	-0.230929
C182	C	0.747813	0.496833	-0.245216
C183	C	0.705643	0.433013	-0.177851
C184	C	0.755061	0.407989	-0.096199
H185	H	0.956614	0.539317	-0.138702
H186	H	0.870614	0.582867	-0.280797
H187	H	0.711230	0.515358	-0.305659
H188	H	0.637843	0.404295	-0.188425
H189	H	0.723843	0.360745	-0.046331
C190	C	1.127846	0.323622	0.088583
C191	C	1.163261	0.270394	0.015406
C192	C	1.255405	0.251309	0.019652
C193	C	1.312134	0.285452	0.097075
C194	C	1.276720	0.338683	0.170257
C195	C	1.184576	0.357768	0.166011
H196	H	1.121266	0.245116	-0.041912
H197	H	1.281620	0.211904	-0.034522
H198	H	1.380344	0.271324	0.100218
H199	H	1.318715	0.363960	0.227575
H200	H	1.158361	0.397173	0.220186
H201	H	1.016540	0.026078	0.422704
H202	H	1.002306	0.315516	-0.146857
C203	C	1.039525	0.042185	0.584135
C204	C	1.051477	0.058381	0.684291
C205	C	1.119460	0.127300	0.717159
C206	C	1.175492	0.180023	0.649871
C207	C	1.163542	0.163828	0.549708
C208	C	1.095558	0.094909	0.516839
H209	H	1.009997	0.019352	0.734108
H210	H	1.128306	0.139288	0.791307
H211	H	1.225817	0.231040	0.674202
H212	H	1.205021	0.202858	0.499891
H213	H	1.086712	0.082921	0.442692
C214	C	0.988890	0.464067	0.169492
C215	C	0.955681	0.395914	0.236903
C216	C	0.911165	0.420635	0.321990
C217	C	0.899857	0.513507	0.339665
C218	C	0.933067	0.581666	0.272252
C219	C	0.977584	0.556945	0.187165
H220	H	0.964051	0.327159	0.223820
H221	H	0.886581	0.370179	0.371893
H222	H	0.866904	0.531807	0.402652
H223	H	0.924698	0.650421	0.285335
H224	H	1.002168	0.607401	0.137262
C225	C	1.126775	0.322009	-0.091391
C226	C	1.189952	0.348974	-0.016839
C227	C	1.281422	0.328221	-0.023704
C228	C	1.309715	0.280502	-0.105120
C229	C	1.246537	0.253535	-0.179678
C230	C	1.155067	0.274288	-0.172813
H231	H	1.169008	0.384301	0.043435
H232	H	1.328190	0.348184	0.031489
H233	H	1.377427	0.265139	-0.110201
H234	H	1.267481	0.218208	-0.239952
H235	H	1.108299	0.254324	-0.228006
H236	H	1.100617	0.471588	0.088231
