data_functionalizedCrystal
_audit_creation_method	'MofGen! by Chris Wilmer'
_symmetry_space_group_name_H-M	'P1'
_symmetry_Int_Tables_number	1
_symmetry_cell_setting	triclinic
loop_
_symmetry_equiv_pos_as_xyz
  x,y,z
_cell_length_a	21.395362
_cell_length_b	12.759400
_cell_length_c	21.395355
_cell_angle_alpha	90.012729
_cell_angle_beta	90.043940
_cell_angle_gamma	90.029045
loop_
_atom_site_label
_atom_site_type_symbol
_atom_site_fract_x
_atom_site_fract_y
_atom_site_fract_z
Zn1	Zn	0.957936	-0.417943	0.354611
Zn2	Zn	1.457936	0.082057	0.854611
Zn3	Zn	0.957870	-0.593607	0.249844
Zn4	Zn	1.457870	-0.093607	0.749844
Zn5	Zn	0.853151	-0.417992	0.249812
Zn6	Zn	1.353151	0.082008	0.749812
Zn7	Zn	0.853152	-0.593629	0.354549
Zn8	Zn	1.353152	-0.093629	0.854549
O9	O	0.905527	-0.505793	0.302204
O10	O	1.405527	-0.005793	0.802204
O11	O	1.045605	-0.441215	0.340753
O12	O	1.545605	0.058785	0.840753
O13	O	0.943951	-0.570323	0.162162
O14	O	1.443951	-0.070323	0.662162
O15	O	0.867078	-0.270964	0.263727
O16	O	1.367078	0.229036	0.763727
O17	O	1.045557	-0.570275	0.263781
O18	O	1.545557	-0.070275	0.763781
O19	O	0.944063	-0.270928	0.340722
O20	O	1.444063	0.229072	0.840722
O21	O	0.867014	-0.441299	0.162138
O22	O	1.367014	0.058701	0.662138
O23	O	0.765473	-0.441320	0.263666
O24	O	1.265473	0.058680	0.763666
O25	O	0.867080	-0.570312	0.442235
O26	O	1.367080	-0.070312	0.942235
O27	O	0.765474	-0.570360	0.340616
O28	O	1.265474	-0.070360	0.840616
O29	O	0.944064	-0.441236	0.442281
O30	O	1.444064	0.058764	0.942281
O31	O	0.943952	-0.740631	0.263721
O32	O	1.443952	-0.240631	0.763721
O33	O	0.867016	-0.740647	0.340647
O34	O	1.367016	-0.240647	0.840647
C35	C	0.742740	-0.505848	0.302131
C36	C	1.242740	-0.005848	0.802131
C37	C	0.673098	-0.505897	0.302115
C38	C	1.173098	-0.005897	0.802115
C39	C	0.640402	-0.573177	0.342123
C40	C	1.140402	-0.073177	0.842123
C41	C	0.574967	-0.573152	0.342150
C42	C	1.074967	-0.073152	0.842150
C43	C	0.542230	-0.505857	0.302160
C44	C	1.042230	-0.005857	0.802160
C45	C	0.574934	-0.438564	0.262149
C46	C	1.074934	0.061436	0.762149
C47	C	0.640368	-0.438584	0.262127
C48	C	1.140368	0.061416	0.762127
C49	C	0.438504	-0.497393	0.245754
C50	C	0.938504	0.002607	0.745754
C51	C	0.373071	-0.497380	0.245775
C52	C	0.873071	0.002620	0.745775
C53	C	0.340409	-0.505788	0.302229
C54	C	0.840409	-0.005788	0.802229
C55	C	0.373189	-0.514231	0.358663
C56	C	0.873189	-0.014231	0.858663
C57	C	0.438623	-0.514251	0.358641
C58	C	0.938623	-0.014251	0.858641
C59	C	0.471278	-0.505827	0.302180
C60	C	0.971278	-0.005827	0.802180
C61	C	0.236761	-0.573044	0.342270
C62	C	0.736761	-0.073044	0.842270
C63	C	0.171324	-0.573011	0.342299
C64	C	0.671324	-0.073011	0.842299
C65	C	0.171293	-0.438428	0.262292
C66	C	0.671293	0.061572	0.762292
C67	C	0.236728	-0.438456	0.262269
C68	C	0.736728	0.061544	0.762269
C69	C	0.269458	-0.505769	0.302257
C70	C	0.769458	-0.005769	0.802257
C71	C	0.905494	-0.778760	0.302194
C72	C	1.405494	-0.278760	0.802194
C73	C	0.905538	-0.895537	0.302211
C74	C	1.405538	-0.395537	0.802211
C75	C	0.945604	-0.950300	0.342335
C76	C	1.445604	-0.450300	0.842335
C77	C	0.945633	-1.060024	0.342350
C78	C	1.445633	-0.560024	0.842350
C79	C	0.865528	-1.060211	0.262112
C80	C	1.365528	-0.560211	0.762112
C81	C	0.865496	-0.950489	0.262100
C82	C	1.365496	-0.450489	0.762100
C83	C	0.985645	-0.895347	0.382446
C84	C	1.485645	-0.395347	0.882446
C85	C	1.025715	-0.950111	0.422573
C86	C	1.525715	-0.450111	0.922573
C87	C	1.025744	-1.059835	0.422588
C88	C	1.525744	-0.559835	0.922588
C89	C	0.985703	-1.114795	0.382476
C90	C	1.485703	-0.614795	0.882476
C91	C	1.068951	-0.505738	0.302277
C92	C	1.568951	-0.005738	0.802277
C93	C	1.138592	-0.505714	0.302308
C94	C	1.638592	-0.005714	0.802308
C95	C	0.905579	-0.505771	0.465627
C96	C	1.405579	-0.005771	0.965627
C97	C	0.905601	-0.505762	0.535269
C98	C	1.405601	-0.005762	1.035269
C99	C	0.905577	-0.231759	0.302228
C100	C	1.405577	0.268241	0.802228
C101	C	0.905599	-0.114983	0.302238
C102	C	1.405599	0.385017	0.802238
C103	C	0.905511	-0.505738	0.139416
C104	C	1.405511	-0.005738	0.639416
C105	C	0.905611	-0.505451	0.069775
C106	C	1.405611	-0.005451	0.569775
C107	C	0.945685	-0.438550	0.568006
C108	C	1.445685	0.061450	1.068006
C109	C	0.945685	-0.438504	0.633442
C110	C	1.445685	0.061496	1.133442
C111	C	0.905606	-0.505691	0.666137
C112	C	1.405606	-0.005691	1.166137
C113	C	0.865515	-0.572908	0.633391
C114	C	1.365515	-0.072908	1.133391
C115	C	0.865512	-0.572944	0.567957
C116	C	1.365512	-0.072944	1.067957
C117	C	0.900648	-0.600292	0.769806
C118	C	1.400648	-0.100292	1.269806
C119	C	0.900654	-0.600258	0.835239
C120	C	1.400654	-0.100258	1.335239
C121	C	0.905610	-0.505580	0.867958
C122	C	1.405610	-0.005580	1.367958
C123	C	0.910572	-0.410932	0.835235
C124	C	1.410572	0.089068	1.335235
C125	C	0.910570	-0.410968	0.769801
C126	C	1.410570	0.089032	1.269801
C127	C	0.905604	-0.505659	0.737089
C128	C	1.405604	-0.005659	1.237089
C129	C	0.945695	-0.438312	0.971648
C130	C	1.445695	0.061688	1.471648
C131	C	0.945690	-0.438265	1.037085
C132	C	1.445690	0.061735	1.537085
C133	C	0.865523	-0.572678	1.037033
C134	C	1.365523	-0.072678	1.537033
C135	C	0.865525	-0.572716	0.971597
C136	C	1.365525	-0.072716	1.471597
C137	C	0.905615	-0.505534	0.938909
C138	C	1.405615	-0.005534	1.438909
H139	H	0.465309	-0.521123	0.404591
H140	H	0.965309	-0.021123	0.904591
H141	H	0.832888	-0.627454	0.944942
H142	H	1.332888	-0.127454	1.444942
H143	H	0.914608	-0.333903	0.743161
H144	H	1.414608	0.166097	1.243161
C145	C	0.916022	-0.306777	0.871220
C146	C	1.416022	0.193223	1.371220
N147	N	0.920128	-0.228331	0.898327
N148	N	1.420128	0.271669	1.398327
C149	C	0.337266	-0.523477	0.420767
C150	C	0.837266	-0.023477	0.920767
N151	N	0.310206	-0.530441	0.467543
N152	N	0.810206	-0.030441	0.967543
C153	C	0.985615	-0.774649	0.382435
C154	C	1.485615	-0.274649	0.882435
N155	N	0.985591	-0.683739	0.382426
N156	N	1.485591	-0.183739	0.882426
H157	H	0.978335	-0.383603	0.945032
H158	H	1.478335	0.116397	1.445032
H159	H	0.144704	-0.627796	0.374882
H160	H	0.644704	-0.127796	0.874882
H161	H	0.548340	-0.627939	0.374732
H162	H	1.048340	-0.127939	0.874732
H163	H	0.263411	-0.627849	0.374834
H164	H	0.763411	-0.127849	0.874834
C165	C	0.135286	-0.364402	0.218302
C166	C	0.635286	0.135598	0.718302
N167	N	0.108163	-0.308642	0.185168
N168	N	0.608163	0.191358	0.685168
C169	C	0.337020	-0.488085	0.183697
C170	C	0.837020	0.011915	0.683697
N171	N	0.309867	-0.481079	0.136939
N172	N	0.809867	0.018921	0.636939
C173	C	0.989787	-0.364320	1.073096
C174	C	1.489787	0.135680	1.573096
N175	N	1.023002	-0.308624	1.100221
N176	N	1.523002	0.191376	1.600221
C177	C	1.069756	-0.889653	0.466694
C178	C	1.569756	-0.389653	0.966694
N179	N	1.102929	-0.844117	0.499927
N180	N	1.602929	-0.344117	0.999927
H181	H	0.832870	-0.905900	0.229428
H182	H	1.332870	-0.405900	0.729428
C183	C	0.821437	-0.646585	1.072994
C184	C	1.321437	-0.146585	1.572994
N185	N	0.788230	-0.702253	1.100082
N186	N	1.288230	-0.202253	1.600082
H187	H	0.263350	-0.383674	0.229687
H188	H	0.763350	0.116326	0.729687
H189	H	0.896618	-0.677325	0.861877
H190	H	1.396618	-0.177325	1.361877
H191	H	0.896444	-0.677371	0.743173
H192	H	1.396444	-0.177371	1.243173
H193	H	0.832868	-0.627675	0.541302
H194	H	1.332868	-0.127675	1.041302
H195	H	0.667047	-0.627988	0.374685
H196	H	1.167047	-0.127988	0.874685
H197	H	0.832881	-0.627608	0.660016
H198	H	1.332881	-0.127608	1.160016
H199	H	0.548276	-0.383770	0.229589
H200	H	1.048276	0.116230	0.729589
C201	C	0.474425	-0.488147	0.183646
C202	C	0.974425	0.011853	0.683646
N203	N	0.501480	-0.481185	0.136868
N204	N	1.001480	0.018815	0.636868
C205	C	0.676335	-0.364573	0.218110
C206	C	1.176335	0.135427	0.718110
N207	N	0.703426	-0.308829	0.184954
N208	N	1.203426	0.191171	0.684954
C209	C	1.069822	-1.120072	0.466727
C210	C	1.569822	-0.620072	0.966727
N211	N	1.103026	-1.165441	0.499971
N212	N	1.603026	-0.665441	0.999971
C213	C	0.985734	-1.235496	0.382499
C214	C	1.485734	-0.735496	0.882499
N215	N	0.985760	-1.326406	0.382515
N216	N	1.485760	-0.826406	0.882515
H217	H	0.832929	-1.104969	0.229454
H218	H	1.332929	-0.604969	0.729454
H219	H	0.978324	-0.383766	0.660102
H220	H	1.478324	0.116234	1.160102
C221	C	0.989777	-0.364634	0.532053
C222	C	1.489777	0.135366	1.032053
N223	N	1.022984	-0.308955	0.504972
N224	N	1.522984	0.191045	1.004972
