data_functionalizedCrystal
_audit_creation_method	'MofGen! by Chris Wilmer'
_symmetry_space_group_name_H-M	'P1'
_symmetry_Int_Tables_number	1
_symmetry_cell_setting	triclinic
loop_
_symmetry_equiv_pos_as_xyz
  x,y,z
_cell_length_a	27.732064
_cell_length_b	27.732046
_cell_length_c	10.065875
_cell_angle_alpha	81.290399
_cell_angle_beta	81.333551
_cell_angle_gamma	97.354298
loop_
_atom_site_label
_atom_site_type_symbol
_atom_site_fract_x
_atom_site_fract_y
_atom_site_fract_z
O1	O	0.648033	-0.050412	-0.113263
O2	O	1.148033	0.449588	0.386737
O3	O	0.507244	-0.059145	-0.113322
O4	O	1.007244	0.440855	0.386678
O5	O	0.582010	0.015616	-0.113260
O6	O	1.082010	0.515616	0.386740
O7	O	0.573267	-0.125173	-0.113325
O8	O	1.073267	0.374827	0.386675
O9	O	0.567752	0.001303	0.113717
O10	O	1.067752	0.501303	0.613717
O11	O	0.492987	-0.073458	0.113655
O12	O	0.992987	0.426542	0.613655
O13	O	0.633776	-0.064725	0.113714
O14	O	1.133776	0.435275	0.613714
Zn15	Zn	0.561118	-0.071364	0.149722
Zn16	Zn	1.061118	0.428636	0.649722
Zn17	Zn	0.579902	-0.052506	-0.149330
Zn18	Zn	1.079902	0.447494	0.350670
O19	O	0.559010	-0.139486	0.113652
O20	O	1.059010	0.360514	0.613652
C21	C	0.482109	-0.066117	0.000159
C22	C	0.982109	0.433883	0.500159
C23	C	0.428456	-0.065559	0.000138
C24	C	0.928456	0.434441	0.500138
C25	C	0.051377	-0.017598	0.000238
C26	C	0.551377	0.482402	0.500238
C27	C	0.253040	-0.019642	0.000202
C28	C	0.753040	0.480358	0.500202
O29	O	0.284288	0.017574	0.000270
O30	O	0.784288	0.517574	0.500270
N31	N	0.272169	-0.063975	0.000175
N32	N	0.772169	0.436025	0.500175
C33	C	0.240878	-0.107800	0.000167
C34	C	0.740878	0.392200	0.500167
O35	O	0.261775	-0.145556	0.000157
O36	O	0.761775	0.354444	0.500157
C37	C	0.039216	-0.105756	0.000213
C38	C	0.539216	0.394244	0.500213
C39	C	0.020091	-0.061420	0.000226
C40	C	0.520091	0.438580	0.500226
C41	C	0.032252	0.026734	0.000252
C42	C	0.532252	0.526734	0.500252
C43	C	-0.018161	0.027245	0.000254
C44	C	0.481839	0.527245	0.500254
C45	C	-0.049447	-0.016576	0.000242
C46	C	0.450553	0.483424	0.500242
C47	C	-0.030321	-0.060909	0.000227
C48	C	0.469679	0.439091	0.500227
C49	C	0.007925	-0.149582	0.000214
C50	C	0.507925	0.350418	0.500214
C51	C	-0.042493	-0.149067	0.000229
C52	C	0.457507	0.350933	0.500229
C53	C	-0.061618	-0.104731	0.000242
C54	C	0.438382	0.395269	0.500242
C55	C	-0.112020	-0.104220	0.000216
C56	C	0.387980	0.395780	0.500216
N57	N	-0.131149	-0.059887	0.000243
N58	N	0.368851	0.440113	0.500243
C59	C	-0.099863	-0.016065	0.000256
C60	C	0.400137	0.483935	0.500256
C61	C	0.346754	-0.108870	0.000140
C62	C	0.846754	0.391130	0.500140
C63	C	0.397170	-0.109381	0.000126
C64	C	0.897170	0.390619	0.500126
C65	C	0.409328	-0.021223	0.000163
C66	C	0.909328	0.478777	0.500163
C67	C	0.358912	-0.020712	0.000168
C68	C	0.858912	0.479288	0.500168
C69	C	0.327625	-0.064537	0.000166
C70	C	0.827625	0.435463	0.500166
C71	C	-0.205732	-0.014996	0.000258
C72	C	0.294268	0.485004	0.500258
C73	C	-0.256149	-0.014488	0.000254
C74	C	0.243851	0.485512	0.500254
C75	C	-0.268303	-0.102646	0.000223
C76	C	0.231697	0.397354	0.500223
C77	C	-0.217891	-0.103154	0.000220
C78	C	0.282109	0.396846	0.500220
C79	C	-0.186606	-0.059325	0.000242
C80	C	0.313394	0.440675	0.500242
O81	O	-0.143298	-0.141418	0.000164
O82	O	0.356702	0.358582	0.500164
O83	O	-0.120771	0.021683	0.000295
O84	O	0.379229	0.521683	0.500295
C85	C	0.101790	-0.018109	0.000237
C86	C	0.601790	0.481891	0.500237
C87	C	0.120915	-0.062442	0.000222
C88	C	0.620915	0.437558	0.500222
C89	C	0.089629	-0.106264	0.000210
C90	C	0.589629	0.393736	0.500210
C91	C	0.171331	-0.062953	0.000208
C92	C	0.671331	0.437047	0.500208
C93	C	0.202617	-0.019131	0.000221
C94	C	0.702617	0.480869	0.500221
C95	C	0.183488	0.025201	0.000247
C96	C	0.683488	0.525201	0.500247
C97	C	0.133076	0.025712	0.000249
C98	C	0.633076	0.525712	0.500249
C99	C	0.108757	-0.150596	0.000183
C100	C	0.608757	0.349404	0.500183
C101	C	0.159170	-0.151104	0.000180
C102	C	0.659170	0.348896	0.500180
C103	C	0.190457	-0.107282	0.000193
C104	C	0.690457	0.392718	0.500193
C105	C	0.574697	0.026466	0.000233
C106	C	1.074697	0.526466	0.500233
C107	C	0.574144	0.080120	0.000248
C108	C	1.074144	0.580120	0.500248
C109	C	0.614851	0.418935	0.000217
C110	C	1.114851	0.918935	0.500217
C111	C	0.612802	0.620595	0.000211
C112	C	1.112802	1.120595	0.500211
O113	O	0.650025	0.651851	0.000168
O114	O	1.150025	1.151851	0.500168
N115	N	0.568468	0.639723	0.000195
N116	N	1.068468	1.139723	0.500195
C117	C	0.524644	0.608432	0.000172
C118	C	1.024644	1.108432	0.500172
O119	O	0.486889	0.629329	0.000144
O120	O	0.986889	1.129329	0.500144
C121	C	0.526695	0.406773	0.000168
C122	C	1.026695	0.906773	0.500168
C123	C	0.571030	0.387648	0.000198
C124	C	1.071030	0.887648	0.500198
C125	C	0.659183	0.399809	0.000245
C126	C	1.159183	0.899809	0.500245
C127	C	0.659695	0.349397	0.000254
C128	C	1.159695	0.849397	0.500254
C129	C	0.615874	0.318110	0.000235
C130	C	1.115874	0.818110	0.500235
C131	C	0.571542	0.337236	0.000207
C132	C	1.071542	0.837236	0.500207
C133	C	0.482872	0.375484	0.000136
C134	C	0.982872	0.875484	0.500136
C135	C	0.483389	0.325067	0.000131
C136	C	0.983389	0.825067	0.500131
C137	C	0.527724	0.305942	0.000161
C138	C	1.027724	0.805942	0.500161
C139	C	0.528232	0.255536	0.000197
C140	C	1.028232	0.755536	0.500197
N141	N	0.572566	0.236409	0.000213
N142	N	1.072566	0.736409	0.500213
C143	C	0.616387	0.267696	0.000232
C144	C	1.116387	0.767696	0.500232
C145	C	0.523571	0.714306	0.000176
C146	C	1.023571	1.214306	0.500176
C147	C	0.523058	0.764720	0.000180
C148	C	1.023058	1.264720	0.500180
C149	C	0.611216	0.776880	0.000216
C150	C	1.111216	1.276880	0.500216
C151	C	0.611727	0.726464	0.000222
C152	C	1.111727	1.226464	0.500222
C153	C	0.567904	0.695179	0.000192
C154	C	1.067904	1.195179	0.500192
C155	C	0.617457	0.161825	0.000252
C156	C	1.117457	0.661825	0.500252
C157	C	0.617965	0.111407	0.000267
C158	C	1.117965	0.611407	0.500267
C159	C	0.529807	0.099252	0.000223
C160	C	1.029807	0.599252	0.500223
C161	C	0.529299	0.149665	0.000216
C162	C	1.029299	0.649665	0.500216
C163	C	0.573129	0.180951	0.000226
C164	C	1.073129	0.680951	0.500226
O165	O	0.491030	0.224253	0.000224
O166	O	0.991030	0.724253	0.500224
O167	O	0.654138	0.246791	0.000229
O168	O	1.154138	0.746791	0.500229
C169	C	0.614340	0.469348	0.000208
C170	C	1.114340	0.969348	0.500208
C171	C	0.570008	0.488473	0.000180
C172	C	1.070008	0.988473	0.500180
C173	C	0.526187	0.457186	0.000161
C174	C	1.026187	0.957186	0.500161
C175	C	0.569495	0.538888	0.000183
C176	C	1.069495	1.038888	0.500183
C177	C	0.613315	0.570174	0.000202
C178	C	1.113315	1.070174	0.500202
C179	C	0.657649	0.551047	0.000218
C180	C	1.157649	1.051047	0.500218
C181	C	0.658161	0.500635	0.000227
C182	C	1.158161	1.000635	0.500227
C183	C	0.481853	0.476314	0.000145
C184	C	0.981853	0.976314	0.500145
C185	C	0.481345	0.526727	0.000138
C186	C	0.981345	1.026727	0.500138
C187	C	0.525166	0.558014	0.000157
C188	C	1.025166	1.058014	0.500157
C189	C	0.658911	-0.057753	0.000229
C190	C	1.158911	0.442247	0.500229
C191	C	0.712564	-0.058310	0.000241
C192	C	1.212564	0.441690	0.500241
N193	N	0.548301	-0.084233	0.353817
N194	N	1.048301	0.415767	0.853817
C195	C	0.566323	0.849663	0.000172
C196	C	1.066323	1.349663	0.500172
C197	C	0.566878	0.796007	0.000199
C198	C	1.066878	1.296007	0.500199
N199	N	0.592722	-0.039633	-0.353425
N200	N	1.092722	0.460367	0.146575
C201	C	0.575440	-0.056981	0.421618
C202	C	1.075440	0.443019	0.921618
C203	C	0.565580	-0.066889	0.578777
C204	C	1.065580	0.433111	1.078777
H205	H	-0.271717	0.021618	0.000261
H206	H	0.228283	0.521618	0.500261
H207	H	0.653148	0.187293	0.000255
H208	H	1.153148	0.687293	0.500255
H209	H	-0.293785	-0.138324	0.000206
H210	H	0.206215	0.361676	0.500206
H211	H	0.654069	0.095838	0.000294
H212	H	1.154069	0.595838	0.500294
H213	H	0.343344	0.015391	0.000179
H214	H	0.843344	0.515391	0.500179
H215	H	0.694263	0.485068	0.000251
H216	H	1.194263	0.985068	0.500251
N217	N	0.313028	-0.156153	0.000145
N218	N	0.813028	0.343847	0.500145
H219	H	0.297113	-0.152618	-0.083984
H220	H	0.797113	0.347382	0.416016
H221	H	0.286592	-0.163196	0.084353
H222	H	0.786592	0.336804	0.584353
H223	H	0.517765	-0.114899	0.412117
H224	H	1.017765	0.385101	0.912117
H225	H	0.486954	0.780286	0.000179
H226	H	0.986954	1.280286	0.500179
N227	N	0.434587	0.442572	0.000123
N228	N	0.934587	0.942572	0.500123
H229	H	0.406427	0.462344	0.000112
H230	H	0.906427	0.962344	0.500112
H231	H	0.427592	0.416091	0.084272
H232	H	0.927592	0.916091	0.584272
N233	N	0.704914	0.584800	0.000226
N234	N	1.204914	1.084800	0.500226
H235	H	0.733081	0.565038	0.000239
H236	H	1.233081	1.065038	0.500239
H237	H	0.701335	0.600683	0.084366
H238	H	1.201335	1.100683	0.584366
N239	N	0.179796	-0.198926	0.000145
N240	N	0.679796	0.301074	0.500145
H241	H	0.152322	-0.226606	0.000138
H242	H	0.652322	0.273394	0.500138
H243	H	0.195167	-0.206365	0.084287
H244	H	0.695167	0.293635	0.584287
H245	H	0.412737	-0.145483	0.000096
H246	H	0.912737	0.354517	0.500096
H247	H	-0.067965	-0.184757	0.000235
H248	H	0.432035	0.315243	0.500235
H249	H	0.695798	0.333830	0.000273
H250	H	1.195798	0.833830	0.500273
N251	N	0.476301	0.680565	0.000146
N252	N	0.976301	1.180565	0.500146
H253	H	0.448142	0.700337	0.000141
H254	H	0.948142	1.200337	0.500141
H255	H	0.469306	0.654081	0.084289
H256	H	0.969306	1.154081	0.584289
N257	N	0.706449	0.433552	0.000275
N258	N	1.206449	0.933552	0.500275
H259	H	0.731096	0.432736	-0.083851
H260	H	1.231096	0.932736	0.416149
H261	H	0.720475	0.422108	0.084485
H262	H	1.220475	0.922108	0.584485
N263	N	0.436118	0.291323	0.000137
N264	N	0.936118	0.791323	0.500137
H265	H	0.443165	0.256481	0.000152
H266	H	0.943165	0.756481	0.500152
H267	H	0.422061	0.302777	-0.084011
H268	H	0.922061	0.802777	0.415989
H269	H	0.535042	-0.097557	0.637073
H270	H	1.035042	0.402443	1.137073
N271	N	-0.171994	0.032275	0.000286
N272	N	0.328006	0.532275	0.500286
H273	H	-0.191767	0.060434	0.000294
H274	H	0.308233	0.560434	0.500294
H275	H	-0.145532	0.039291	-0.083858
H276	H	0.354468	0.539291	0.416142
H277	H	0.117510	0.061816	0.000260
H278	H	0.617510	0.561816	0.500260
N279	N	0.659546	0.705838	0.000255
N280	N	1.159546	1.205838	0.500255
H281	H	0.687225	0.733312	0.000272
H282	H	1.187225	1.233312	0.500272
H283	H	0.666968	0.690489	-0.083890
H284	H	1.166968	1.190489	0.416110
H285	H	0.494129	0.073769	0.000213
H286	H	0.994129	0.573769	0.500213
N287	N	0.633169	0.000996	0.569373
N288	N	1.133169	0.500996	1.069373
H289	H	0.634480	0.002317	0.468047
H290	H	1.134480	0.502317	0.968047
H291	H	0.665891	-0.005817	0.594268
H292	H	1.165891	0.494183	1.094268
H293	H	-0.033727	0.063348	0.000270
H294	H	0.466273	0.563348	0.500270
N295	N	0.658480	0.810630	0.000240
N296	N	1.158480	1.310630	0.500240
H297	H	0.651424	0.845468	0.000238
H298	H	1.151424	1.345468	0.500238
H299	H	0.683102	0.809777	-0.083900
H300	H	1.183102	1.309777	0.416100
H301	H	0.493195	0.165235	0.000230
H302	H	0.993195	0.665235	0.500230
N303	N	0.065992	0.074003	0.000276
N304	N	0.565992	0.574003	0.500276
H305	H	0.046217	0.102160	0.000290
H306	H	0.546217	0.602160	0.500290
H307	H	0.092452	0.081020	-0.083873
H308	H	0.592452	0.581020	0.416127
H309	H	0.605972	-0.026311	0.363319
H310	H	1.105972	0.473689	0.863319
N311	N	0.443077	0.026043	0.000176
N312	N	0.943077	0.526043	0.500176
H313	H	0.477916	0.018987	0.000166
H314	H	0.977916	0.518987	0.500166
H315	H	0.431643	0.040073	0.084335
H316	H	0.931643	0.540073	0.584335
N317	N	0.028546	-0.197401	0.000186
N318	N	0.528546	0.302599	0.500186
H319	H	0.001069	-0.225080	0.000184
H320	H	0.501069	0.274920	0.500184
H321	H	0.043919	-0.204843	0.084323
H322	H	0.543919	0.295157	0.584323
H323	H	0.208971	0.060883	0.000250
H324	H	0.708971	0.560883	0.500250
N325	N	-0.197258	-0.150971	0.000187
N326	N	0.302742	0.349029	0.500187
H327	H	-0.224729	-0.178653	0.000174
H328	H	0.275271	0.321347	0.500174
H329	H	-0.181889	-0.158408	0.084334
H330	H	0.318111	0.341592	0.584334
H331	H	0.083288	-0.186282	0.000175
H332	H	0.583288	0.313718	0.500175
N333	N	0.435051	0.396103	0.000121
N334	N	0.935051	0.896103	0.500121
H335	H	0.407373	0.368627	0.000106
H336	H	0.907373	0.868627	0.500106
H337	H	0.438199	0.422057	-0.084021
H338	H	0.938199	0.922057	0.415979
N339	N	0.433521	0.547350	0.000128
N340	N	0.933521	1.047350	0.500128
H341	H	0.405841	0.519876	0.000118
H342	H	0.905841	1.019876	0.500118
H343	H	0.436671	0.573302	-0.084019
H344	H	0.936671	1.073302	0.415981
