data_functionalizedCrystal
_audit_creation_method	'MofGen! by Chris Wilmer'
_symmetry_space_group_name_H-M	'P1'
_symmetry_Int_Tables_number	1
_symmetry_cell_setting	triclinic
loop_
_symmetry_equiv_pos_as_xyz
  x,y,z
_cell_length_a	17.019372
_cell_length_b	17.038272
_cell_length_c	9.565339
_cell_angle_alpha	89.999258
_cell_angle_beta	86.127368
_cell_angle_gamma	87.242864
loop_
_atom_site_label
_atom_site_type_symbol
_atom_site_fract_x
_atom_site_fract_y
_atom_site_fract_z
O1	O	1.053348	0.099574	-0.010443
O2	O	1.553348	0.599574	0.489557
O3	O	0.824539	0.112279	0.017083
O4	O	1.324539	0.612279	0.517083
O5	O	0.937584	-0.007888	0.003472
O6	O	1.437584	0.492112	0.503472
O7	O	0.940304	0.219741	0.003167
O8	O	1.440304	0.719741	0.503167
O9	O	0.937574	-0.007878	-0.229047
O10	O	1.437574	0.492122	0.270953
O11	O	0.824529	0.112288	-0.215436
O12	O	1.324529	0.612288	0.284564
O13	O	1.053339	0.099583	-0.242962
O14	O	1.553339	0.599583	0.257038
Zn15	Zn	0.938932	0.105937	-0.266117
Zn16	Zn	1.438932	0.605937	0.233883
Zn17	Zn	0.938945	0.105925	0.040237
Zn18	Zn	1.438945	0.605925	0.540237
O19	O	0.940294	0.219750	-0.229352
O20	O	1.440294	0.719750	0.270648
C21	C	0.795113	0.111803	-0.095638
C22	C	1.295113	0.611803	0.404362
C23	C	0.707447	0.110360	-0.085092
C24	C	1.207447	0.610360	0.414908
C25	C	0.211628	0.102175	-0.018994
C26	C	0.711628	0.602175	0.481006
C27	C	0.294000	0.103530	-0.028922
C28	C	0.794000	0.603530	0.471078
C29	C	0.335172	0.104219	-0.160633
C30	C	0.835172	0.604219	0.339367
C31	C	0.293968	0.103544	-0.282424
C32	C	0.793968	0.603544	0.217576
C33	C	0.211599	0.102183	-0.272495
C34	C	0.711599	0.602183	0.227505
C35	C	0.583874	0.108324	-0.196954
C36	C	1.083874	0.608324	0.303046
C37	C	0.666250	0.109688	-0.206874
C38	C	1.166250	0.609688	0.293126
C39	C	0.666275	0.109672	0.046630
C40	C	1.166275	0.609672	0.546630
C41	C	0.583903	0.108316	0.056548
C42	C	1.083903	0.608316	0.556548
C43	C	0.542708	0.107637	-0.065244
C44	C	1.042708	0.607637	0.434756
C45	C	0.419368	0.105607	-0.170784
C46	C	0.919368	0.605607	0.329216
C47	C	0.458513	0.106243	-0.055091
C48	C	0.958513	0.606243	0.444909
C49	C	0.935105	-0.037009	-0.112490
C50	C	1.435105	0.462991	0.387510
C51	C	0.927725	-0.123796	-0.111601
C52	C	1.427725	0.376204	0.388399
C53	C	0.995484	-0.173969	-0.119754
C54	C	1.495484	0.326031	0.380246
C55	C	0.988545	-0.255514	-0.118906
C56	C	1.488545	0.244486	0.381094
C57	C	0.913846	-0.286883	-0.109915
C58	C	1.413846	0.213117	0.390085
C59	C	0.846082	-0.236703	-0.101757
C60	C	1.346082	0.263297	0.398243
C61	C	0.853022	-0.155160	-0.102595
C62	C	1.353022	0.344840	0.397405
C63	C	0.889328	-0.532619	-0.106946
C64	C	1.389328	-0.032619	0.393054
C65	C	0.882393	-0.614169	-0.106113
C66	C	1.382393	-0.114169	0.393887
C67	C	1.024858	-0.632974	-0.123259
C68	C	1.524858	-0.132974	0.376741
C69	C	1.031791	-0.551429	-0.124105
C70	C	1.531791	-0.051429	0.375895
C71	C	0.964027	-0.501256	-0.115940
C72	C	1.464027	-0.001256	0.384060
C73	C	0.906751	-0.370234	-0.109052
C74	C	1.406751	0.129766	0.390948
C75	C	0.971122	-0.417906	-0.116793
C76	C	1.471122	0.082094	0.383207
C77	C	1.082765	0.100059	-0.130239
C78	C	1.582765	0.600059	0.369761
C79	C	1.170431	0.101502	-0.140776
C80	C	1.670431	0.601502	0.359224
C81	C	0.942772	0.248871	-0.113387
C82	C	1.442772	0.748871	0.386613
C83	C	0.950153	0.335658	-0.114266
C84	C	1.450153	0.835658	0.385734
N85	N	0.938929	0.105945	-0.475196
N86	N	1.438929	0.605945	0.024804
C87	C	0.887136	0.161942	-0.653333
C88	C	1.387136	0.661942	-0.153333
C89	C	0.866457	0.091536	-0.557626
C90	C	1.366457	0.591536	-0.057626
C91	C	0.959573	0.176346	-0.568829
C92	C	1.459573	0.676346	-0.068829
C93	C	0.918237	0.035469	-0.657025
C94	C	1.418237	0.535469	-0.157025
C95	C	1.011388	0.120325	-0.668241
C96	C	1.511388	0.620325	-0.168241
C97	C	0.990735	0.049867	-0.572579
C98	C	1.490735	0.549867	-0.072579
N99	N	0.938954	0.105911	0.249315
N100	N	1.438954	0.605911	0.749315
H101	H	0.550387	0.107754	0.163801
H102	H	1.050387	0.607754	0.663801
F103	F	0.895337	-0.042387	-0.707533
F104	F	1.395337	0.457613	-0.207533
H105	H	0.699769	0.110254	-0.314134
H106	H	1.199769	0.610254	0.185866
H107	H	1.031942	-0.392362	-0.124082
H108	H	1.531942	0.107638	0.375918
F109	F	0.786378	0.075612	-0.494488
F110	F	1.286378	0.575612	0.005512
F111	F	1.091445	0.136278	-0.731415
F112	F	1.591445	0.636278	-0.231415
H113	H	0.178056	0.101643	-0.371663
H114	H	0.678056	0.601643	0.128337
H115	H	1.056312	-0.148435	-0.127084
H116	H	1.556312	0.351565	0.372916
H117	H	0.424987	0.105679	0.052147
H118	H	0.924987	0.605679	0.552147
F119	F	1.047998	-0.012112	-0.526306
F120	F	1.547998	0.487888	-0.026306
H121	H	0.977034	0.235900	-0.530030
H122	H	1.477034	0.735900	-0.030030
F123	F	1.060664	-0.308909	-0.127586
F124	F	1.560664	0.191091	0.372414
H125	H	0.327539	0.104073	0.070246
H126	H	0.827539	0.604073	0.570246
H127	H	0.178111	0.101619	0.088260
H128	H	0.678111	0.601619	0.588260
F129	F	0.829830	0.223788	-0.699939
F130	F	1.329830	0.723788	-0.199939
F131	F	0.710124	0.110390	0.176239
F132	F	1.210124	0.610390	0.676239
H133	H	0.550343	0.107760	-0.296125
H134	H	1.050343	0.607760	0.203875
F135	F	0.337789	0.104274	-0.422602
F136	F	0.837789	0.604274	0.077398
H137	H	0.452900	0.106169	-0.278024
H138	H	0.952900	0.606169	0.221976
F139	F	1.111296	-0.518050	-0.133639
F140	F	1.611296	-0.018050	0.366361
H141	H	1.080027	-0.673833	-0.129904
H142	H	1.580027	-0.173833	0.370096
H143	H	0.797845	-0.114309	-0.095956
H144	H	1.297845	0.385691	0.404044
H145	H	0.821561	-0.639706	-0.098814
H146	H	1.321561	-0.139706	0.401186
H147	H	0.834149	-0.491778	-0.100298
H148	H	1.334149	0.008222	0.399702
H149	H	0.785260	-0.262250	-0.094428
H150	H	1.285260	0.237750	0.405572
F151	F	0.827253	-0.403627	-0.099478
F152	F	1.327253	0.096373	0.400522
