data_functionalizedCrystal
_audit_creation_method	'MofGen! by Chris Wilmer'
_symmetry_space_group_name_H-M	'P1'
_symmetry_Int_Tables_number	1
_symmetry_cell_setting	triclinic
loop_
_symmetry_equiv_pos_as_xyz
  x,y,z
_cell_length_a	17.699083
_cell_length_b	17.038272
_cell_length_c	16.776229
_cell_angle_alpha	89.993292
_cell_angle_beta	89.998886
_cell_angle_gamma	87.197286
loop_
_atom_site_label
_atom_site_type_symbol
_atom_site_fract_x
_atom_site_fract_y
_atom_site_fract_z
O1	O	1.010620	0.098861	-0.066177
O2	O	1.343953	0.432194	0.267157
O3	O	1.677287	0.765528	0.600490
O4	O	0.791093	0.111723	-0.066203
O5	O	1.124426	0.445056	0.267131
O6	O	1.457759	0.778390	0.600464
O7	O	0.899552	-0.008521	-0.066184
O8	O	1.232885	0.324812	0.267150
O9	O	1.566218	0.658145	0.600483
O10	O	0.902161	0.219105	-0.066196
O11	O	1.235494	0.552438	0.267137
O12	O	1.568828	0.885772	0.600471
O13	O	0.899536	-0.008529	0.066393
O14	O	1.232869	0.324805	0.399726
O15	O	1.566202	0.658138	0.733060
O16	O	0.791077	0.111716	0.066374
O17	O	1.124410	0.445049	0.399707
O18	O	1.457743	0.778382	0.733040
O19	O	1.010604	0.098854	0.066400
O20	O	1.343937	0.432187	0.399733
O21	O	1.677271	0.765520	0.733067
Zn22	Zn	0.900838	0.105283	0.087436
Zn23	Zn	1.234171	0.438617	0.420770
Zn24	Zn	1.567505	0.771950	0.754103
Zn25	Zn	0.900859	0.105293	-0.087239
Zn26	Zn	1.234192	0.438626	0.246094
Zn27	Zn	1.567526	0.771960	0.579428
O28	O	0.902145	0.219098	0.066381
O29	O	1.235479	0.552431	0.399714
O30	O	1.568812	0.885764	0.733047
C31	C	0.762857	0.111258	0.000082
C32	C	1.096191	0.444592	0.333416
C33	C	1.429524	0.777925	0.666749
C34	C	0.678748	0.109876	0.000072
C35	C	1.012081	0.443209	0.333406
C36	C	1.345414	0.776542	0.666739
C37	C	0.897170	-0.037649	0.000104
C38	C	1.230504	0.295684	0.333438
C39	C	1.563837	0.629017	0.666771
C40	C	0.890090	-0.124431	0.000103
C41	C	1.223423	0.208903	0.333437
C42	C	1.556756	0.542236	0.666770
C43	C	0.634797	0.180457	0.000069
C44	C	0.968130	0.513790	0.333402
C45	C	1.301464	0.847123	0.666735
C46	C	0.555767	0.179153	0.000079
C47	C	0.889101	0.512486	0.333412
C48	C	1.222434	0.845819	0.666746
C49	C	0.520690	0.107267	0.000087
C50	C	0.854023	0.440601	0.333421
C51	C	1.187357	0.773934	0.666754
C52	C	0.564647	0.036681	0.000093
C53	C	0.897980	0.370014	0.333427
C54	C	1.231313	0.703348	0.666760
C55	C	0.643675	0.037986	0.000089
C56	C	0.977008	0.371319	0.333422
C57	C	1.310341	0.704652	0.666755
C58	C	0.245935	0.031418	0.000113
C59	C	0.579269	0.364752	0.333447
C60	C	0.912602	0.698085	0.666780
C61	C	0.166901	0.030119	0.000116
C62	C	0.500235	0.363452	0.333449
C63	C	0.833568	0.696786	0.666782
C64	C	0.158028	0.172585	0.000104
C65	C	0.491361	0.505919	0.333437
C66	C	0.824695	0.839252	0.666770
C67	C	0.237056	0.173890	0.000099
C68	C	0.570390	0.507223	0.333432
C69	C	0.903723	0.840557	0.666766
C70	C	0.281006	0.103304	0.000109
C71	C	0.614339	0.436637	0.333443
C72	C	0.947672	0.769971	0.666776
C73	C	0.366699	0.104719	0.000100
C74	C	0.700032	0.438052	0.333433
C75	C	1.033365	0.771385	0.666766
C76	C	0.434999	0.105852	0.000091
C77	C	0.768332	0.439185	0.333425
C78	C	1.101665	0.772519	0.666758
C79	C	0.955100	-0.174651	0.000112
C80	C	1.288433	0.158683	0.333445
C81	C	1.621767	0.492016	0.666779
C82	C	0.948442	-0.256191	0.000103
C83	C	1.281776	0.077143	0.333437
C84	C	1.615109	0.410476	0.666770
C85	C	0.876773	-0.287509	0.000092
C86	C	1.210107	0.045825	0.333426
C87	C	1.543440	0.379158	0.666759
C88	C	0.811758	-0.237282	0.000081
C89	C	1.145092	0.096051	0.333415
C90	C	1.478425	0.429385	0.666748
C91	C	0.818417	-0.155744	0.000084
C92	C	1.151750	0.177589	0.333417
C93	C	1.485083	0.510923	0.666751
C94	C	0.853251	-0.533228	0.000079
C95	C	1.186584	-0.199895	0.333412
C96	C	1.519917	0.133439	0.666745
C97	C	0.846597	-0.614773	0.000078
C98	C	1.179930	-0.281439	0.333412
C99	C	1.513264	0.051894	0.666745
C100	C	0.983282	-0.633676	0.000099
C101	C	1.316615	-0.300342	0.333432
C102	C	1.649948	0.032991	0.666766
C103	C	0.989934	-0.552135	0.000106
C104	C	1.323267	-0.218802	0.333440
C105	C	1.656600	0.114532	0.666773
C106	C	0.924919	-0.501916	0.000091
C107	C	1.258252	-0.168582	0.333425
C108	C	1.591585	0.164751	0.666758
C109	C	0.869967	-0.370855	0.000086
C110	C	1.203300	-0.037522	0.333420
C111	C	1.536633	0.295812	0.666753
C112	C	0.931726	-0.418571	0.000092
C113	C	1.265059	-0.085238	0.333425
C114	C	1.598393	0.248096	0.666758
C115	C	1.038840	0.099318	0.000113
C116	C	1.372173	0.432651	0.333447
C117	C	1.705506	0.765985	0.666780
C118	C	1.122949	0.100701	0.000118
C119	C	1.456282	0.434034	0.333451
C120	C	1.789616	0.767367	0.666784
C121	C	0.904526	0.248226	0.000091
C122	C	1.237860	0.581559	0.333424
C123	C	1.571193	0.914893	0.666758
C124	C	0.911607	0.335007	0.000087
C125	C	1.244941	0.668341	0.333420
C126	C	1.578274	1.001674	0.666754
N127	N	0.900829	0.105276	0.206647
N128	N	1.234162	0.438610	0.539981
N129	N	1.567496	0.771943	0.873314
N130	N	0.900873	0.105294	-0.206450
N131	N	1.234207	0.438627	0.126883
N132	N	1.567540	0.771961	0.460216
C133	C	0.948872	0.052054	0.248373
C134	C	1.282205	0.385387	0.581706
C135	C	1.615539	0.718721	0.915040
C136	C	0.948876	0.052053	0.331825
C137	C	1.282209	0.385387	0.665159
C138	C	1.615543	0.718720	0.998492
C139	C	0.900841	0.105279	0.373550
C140	C	1.234174	0.438613	0.706884
C141	C	1.567507	0.771946	1.040217
C142	C	0.852793	0.158504	0.331819
C143	C	1.186126	0.491838	0.665152
C144	C	1.519459	0.825171	0.998486
C145	C	0.852785	0.158501	0.248368
C146	C	1.186119	0.491834	0.581702
C147	C	1.519452	0.825167	0.915035
C148	C	0.852821	0.158520	0.668366
C149	C	1.186154	0.491853	1.001699
C150	C	1.519488	0.825186	1.335033
C151	C	0.852834	0.158521	0.751823
C152	C	1.186167	0.491854	1.085156
C153	C	1.519501	0.825187	1.418489
C154	C	0.948912	0.052072	0.751823
C155	C	1.282245	0.385406	1.085156
C156	C	1.615579	0.718739	1.418490
C157	C	0.948904	0.052069	0.668372
C158	C	1.282238	0.385402	1.001706
C159	C	1.615571	0.718735	1.335039
C160	C	0.900854	0.105290	0.626648
C161	C	1.234187	0.438624	0.959982
C162	C	1.567521	0.771957	1.293315
C163	C	0.900849	0.105289	0.536160
C164	C	1.234182	0.438623	0.869493
C165	C	1.567516	0.771956	1.202827
C166	C	0.900849	0.105285	0.464037
C167	C	1.234182	0.438618	0.797370
C168	C	1.567516	0.771951	1.130704
H169	H	0.663351	0.238994	0.000061
H170	H	0.996684	0.572327	0.333395
H171	H	1.330018	0.905661	0.666728
H172	H	0.519986	0.236627	0.000075
H173	H	0.853319	0.569960	0.333409
H174	H	1.186653	0.903294	0.666742
H175	H	0.265612	0.232426	0.000089
H176	H	0.598945	0.565760	0.333422
H177	H	0.932279	0.899093	0.666755
F178	F	1.000050	-0.004574	0.796235
F179	F	1.333383	0.328759	1.129568
F180	F	1.666716	0.662092	1.462902
F181	F	1.000007	-0.004593	0.376233
F182	F	1.333341	0.328741	0.709566
F183	F	1.666674	0.662074	1.042900
H184	H	0.679459	-0.019489	0.000091
H185	H	1.012792	0.313845	0.333424
H186	H	1.346125	0.647178	0.666758
F187	F	0.770314	-0.648101	0.000070
F188	F	1.103647	-0.314768	0.333404
F189	F	1.436981	0.018566	0.666737
F190	F	0.801685	0.215163	0.623967
F191	F	1.135018	0.548497	0.957300
F192	F	1.468352	0.881830	1.290633
H193	H	0.138344	-0.028422	0.000123
H194	H	0.471678	0.304911	0.333457
H195	H	0.805011	0.638245	0.666790
F196	F	1.031380	-0.141328	0.000132
F197	F	1.364713	0.192006	0.333465
F198	F	1.698047	0.525339	0.666798
H199	H	0.122235	0.230060	0.000100
H200	H	0.455568	0.563393	0.333433
H201	H	0.788901	0.896726	0.666766
H202	H	0.990079	-0.393068	0.000083
H203	H	1.323412	-0.059735	0.333416
H204	H	1.656745	0.273599	0.666750
F205	F	0.801649	0.215145	0.203962
F206	F	1.134982	0.548478	0.537295
F207	F	1.468316	0.881812	0.870629
F208	F	0.749223	-0.102296	0.000072
F209	F	1.082557	0.231037	0.333406
F210	F	1.415890	0.564371	0.666739
F211	F	1.000032	-0.004579	0.623969
F212	F	1.333366	0.328755	0.957302
F213	F	1.666699	0.662088	1.290635
H214	H	0.281710	-0.026057	0.000122
H215	H	0.615043	0.307276	0.333456
H216	H	0.948377	0.640609	0.666789
F217	F	1.017636	-0.309636	0.000114
F218	F	1.350969	0.023698	0.333447
F219	F	1.684302	0.357031	0.666781
F220	F	0.801665	0.215149	0.376226
F221	F	1.134999	0.548482	0.709560
F222	F	1.468332	0.881815	1.042893
H223	H	0.536080	-0.021849	0.000112
H224	H	0.869414	0.311484	0.333445
H225	H	1.202747	0.644817	0.666778
F226	F	1.066213	-0.518811	0.000098
F227	F	1.399547	-0.185477	0.333432
F228	F	1.732880	0.147856	0.666765
F229	F	0.801705	0.215173	0.796228
F230	F	1.135038	0.548507	1.129561
F231	F	1.468372	0.881840	1.462895
H232	H	0.800310	-0.492349	0.000066
H233	H	1.133643	-0.159015	0.333400
H234	H	1.466977	0.174318	0.666733
F235	F	1.052470	-0.687128	0.000114
F236	F	1.385804	-0.353794	0.333447
F237	F	1.719137	-0.020461	0.666781
H238	H	0.753404	-0.262788	0.000067
H239	H	1.086737	0.070546	0.333400
H240	H	1.420071	0.403879	0.666734
F241	F	0.793693	-0.404193	0.000071
F242	F	1.127026	-0.070860	0.333404
F243	F	1.460360	0.262473	0.666738
F244	F	1.000003	-0.004594	0.203974
F245	F	1.333336	0.328739	0.537307
F246	F	1.666669	0.662073	0.870641
