data_POSCAR
  _audit_creation_date              2014-09-24
  _audit_creation_method            'ToBaCCo'
  _symmetry_space_group_name_H-M    'P1'
  _symmetry_Int_Tables_number       1
  _symmetry_cell_setting            triclinic
  loop_
  _symmetry_equiv_pos_as_xyz
 x,y,z
_cell_length_a 102.5272
_cell_length_b 102.5272
_cell_length_c 102.5272
_cell_angle_alpha 90.000000
_cell_angle_beta 90.000000
_cell_angle_gamma 90.000000
loop_
  _atom_site_label
  _atom_site_type_symbol
  _atom_site_fract_x
  _atom_site_fract_y
  _atom_site_fract_z
C1 C 0.32286 0.42753 0.91095
 N2 N 0.33393 0.43282 0.91664
 C3 C 0.33969 0.42757 0.92772
 N4 N 0.33390 0.41657 0.93308
 C5 C 0.32282 0.41084 0.92783
 N6 N 0.31752 0.41654 0.91676
 C7 C 0.42789 0.83994 0.42773
 N8 N 0.41680 0.83420 0.43297
 C9 C 0.41108 0.82315 0.42766
 N10 N 0.41688 0.81781 0.41667
 C11 C 0.42796 0.82309 0.41098
 N12 N 0.43324 0.83415 0.41673
 C13 C 0.92795 0.91088 0.82288
 N14 N 0.91695 0.91670 0.81756
 C15 C 0.91123 0.92776 0.82286
 N16 N 0.91696 0.93301 0.83394
 C17 C 0.92797 0.92766 0.83974
 N18 N 0.93324 0.91659 0.83397
 C19 C 0.42773 -0.08927 0.32216
 N20 N 0.43299 -0.08356 0.33325
 C21 C 0.42764 -0.07258 0.33907
 N22 N 0.41658 -0.06729 0.33336
 C23 C 0.41085 -0.07254 0.32228
 N24 N 0.41665 -0.08353 0.31691
 C25 C 0.82267 0.32236 0.33894
 N26 N 0.83374 0.31707 0.33323
 C27 C 0.83954 0.32241 0.32224
 N28 N 0.83384 0.33349 0.31696
 C29 C 0.82277 0.33922 0.32223
 N30 N 0.81741 0.33344 0.33322
 C31 C -0.17827 0.83945 0.82200
 N32 N -0.16715 0.83375 0.81678
 C33 C -0.16138 0.82274 0.82213
 N34 N -0.16716 0.81742 0.83315
 C35 C -0.17827 0.82266 0.83883
 N36 N -0.18360 0.83368 0.83303
 C37 C 0.92803 0.33942 0.42743
 N38 N 0.91704 0.33359 0.43277
 C39 C 0.91135 0.32250 0.42749
 N40 N 0.91709 0.31724 0.41642
 C41 C 0.92807 0.32261 0.41064
 N42 N 0.93333 0.33369 0.41636
 C43 C 0.42743 0.42711 0.83991
 N44 N 0.43271 0.41605 0.83415
 C45 C 0.42740 0.41032 0.82310
 N46 N 0.41636 0.41607 0.81780
 C47 C 0.41063 0.42713 0.82311
 N48 N 0.41638 0.43242 0.83415
 C49 C 0.82269 0.91134 0.92828
 N50 N 0.81737 0.91712 0.91725
 C51 C 0.82268 0.92813 0.91147
 N52 N 0.83379 0.93339 0.91714
 C53 C 0.83959 0.92808 0.92817
 N54 N 0.83381 0.91706 0.93350
 C55 C 0.32225 0.83994 0.32204
 N56 N 0.31698 0.83423 0.33313
 C57 C 0.32226 0.82317 0.33887
 N58 N 0.33325 0.81781 0.33309
 C59 C 0.33896 0.82306 0.32200
 N60 N 0.33324 0.83412 0.31670
 C61 C 0.82288 0.41092 0.42755
 N62 N 0.83396 0.41666 0.43280
 C63 C 0.83974 0.42767 0.42745
 N64 N 0.83398 0.43293 0.41638
 C65 C 0.82291 0.42763 0.41068
 N66 N 0.81758 0.41663 0.41648
 C67 C 0.92819 0.83997 -0.07277
 N68 N 0.91718 0.83416 -0.06746
 C69 C 0.91145 0.82311 -0.07277
 N70 N 0.91717 0.81786 -0.08385
 C71 C 0.92818 0.82321 -0.08963
 N72 N 0.93347 0.83426 -0.08386
 C73 C 0.32250 0.33912 0.82254
 N74 N 0.31712 0.33334 0.83353
 C75 C 0.32238 0.32226 0.83925
 N76 N 0.33345 0.31697 0.83355
 C77 C 0.33926 0.32231 0.82256
 N78 N 0.33357 0.33338 0.81727
 C79 C 0.16151 0.57195 0.57156
 N80 N 0.16725 0.56663 0.58261
 C81 C 0.17828 0.57193 0.58837
 N82 N 0.18358 0.58300 0.58266
 C83 C 0.17828 0.58876 0.57162
 N84 N 0.16724 0.58301 0.56629
 C85 C 0.58945 0.67780 0.07218
 N86 N 0.58365 0.66680 0.06684
 C87 C 0.57258 0.66109 0.07213
 N88 N 0.56731 0.66682 0.08321
 C89 C 0.57267 0.67782 0.08898
 N90 N 0.58374 0.68309 0.08325
 C91 C 0.67779 0.17701 0.66083
 N92 N 0.66680 0.18235 0.66665
 C93 C 0.66111 0.17706 0.67772
 N94 N 0.66684 0.16599 0.68298
 C95 C 0.67783 0.16019 0.67761
 N96 N 0.68308 0.16593 0.66653
 C97 C 1.08884 0.07112 0.17803
 N98 N 1.08307 0.08217 0.18330
 C99 C 1.07202 0.08790 0.17799
 N100 N 1.06673 0.08213 0.16695
 C101 C 1.07203 0.07108 0.16121
 N102 N 1.08309 0.06580 0.16698
 C103 C 0.07201 0.16066 1.07226
 N104 N 0.06671 0.16645 1.08330
 C105 C 0.07203 0.17748 1.08907
 N106 N 0.08313 0.18272 1.08335
 C107 C 0.08889 0.17738 1.07233
 N108 N 0.08311 0.16636 1.06701
 C109 C 0.16154 0.67870 0.67833
 N110 N 0.16728 0.66764 0.68361
 C111 C 0.17833 0.66190 0.67829
 N112 N 0.18362 0.66766 0.66725
 C113 C 0.17832 0.67872 0.66153
 N114 N 0.16728 0.68402 0.66729
 C115 C 1.17842 0.16071 0.17759
 N116 N 1.16740 0.16650 0.18292
 C117 C 1.16164 0.17752 0.17760
 N118 N 1.16732 0.18278 0.16651
 C119 C 1.17833 0.17746 0.16071
 N120 N 1.18365 0.16642 0.16648
 C121 C 0.66074 1.07265 0.57203
 N122 N 0.66646 1.06737 0.58312
 C123 C 0.67746 1.07269 0.58893
 N124 N 0.68277 1.08376 0.58321
 C125 C 0.67753 1.08951 0.57212
 N126 N 0.66651 1.08373 0.56677
 C127 C 0.57198 0.57221 0.16109
 N128 N 0.56673 0.58332 0.16676
 C129 C 0.57206 0.58911 0.17777
 N130 N 0.58308 0.58335 0.18311
 C131 C 0.58877 0.57224 0.17787
 N132 N 0.58300 0.56690 0.16686
 C133 C 0.66093 0.67789 0.17723
 N134 N 0.66675 0.66690 0.18257
 C135 C 0.67782 0.66120 0.17728
 N136 N 0.68308 0.66693 0.16620
 C137 C 0.67770 0.67792 0.16042
 N138 N 0.66663 0.68318 0.16616
 C139 C 0.16104 0.07157 1.07215
 N140 N 0.16681 0.06622 1.08318
 C141 C 0.17784 0.07152 1.08899
 N142 N 0.18310 0.08263 1.08331
 C143 C 0.17778 0.08843 1.07229
 N144 N 0.16676 0.08268 1.06694
 C145 C 0.58917 0.17792 0.57217
 N146 N 0.58341 0.18326 0.58318
 C147 C 0.57231 0.17802 0.58887
 N148 N 0.56697 0.16701 0.58311
 C149 C 0.57229 0.16124 0.57210
 N150 N 0.58339 0.16691 0.56684
 C151 C 0.08846 0.57205 0.67821
 N152 N 0.08273 0.56673 0.66717
 C153 C 0.07169 0.57203 0.66140
 N154 N 0.06638 0.58309 0.66712
 C155 C 0.07168 0.58885 0.67817
 N156 N 0.08272 0.58311 0.68349
 C157 C 0.66130 0.57246 0.07158
 N158 N 0.66700 0.58357 0.06634
 C159 C 0.67801 0.58934 0.07168
 N160 N 0.68333 0.58356 0.08270
 C161 C 0.67808 0.57246 0.08838
 N162 N 0.66706 0.56713 0.08260
 C163 C 0.07159 0.67856 0.58837
 N164 N 0.06629 0.66749 0.58266
 C165 C 0.07159 0.66172 0.57162
 N166 N 0.08263 0.66747 0.56630
 C167 C 0.08837 0.67853 0.57157
 N168 N 0.08263 0.68385 0.58261
 C169 C 0.57177 1.07203 0.66089
 N170 N 0.58288 1.06681 0.66661
 C171 C 0.58865 1.07214 0.67763
 N172 N 0.58286 1.08316 0.68295
 C173 C 0.57175 1.08886 0.67771
 N174 N 0.56644 1.08307 0.66667
 C175 C 0.42787 0.33947 0.92780
 N176 N 0.43315 0.33373 0.91672
 C177 C 0.42788 0.32265 0.91101
 N178 N 0.41689 0.31730 0.91680
 C179 C 0.41117 0.32257 0.92787
 N180 N 0.41687 0.33366 0.93314
 C181 C 0.92757 0.42708 0.33970
 N182 N 0.91652 0.43239 0.33394
 C183 C 0.91077 0.42711 0.32289
 N184 N 0.91650 0.41607 0.31757
 C185 C 0.92754 0.41030 0.32286
 N186 N 0.93285 0.41603 0.33392
 C187 C 0.32320 0.92797 0.40991
 N188 N 0.31791 0.91693 0.41571
 C189 C 0.32321 0.91120 0.42676
 N190 N 0.33426 0.91695 0.43205
 C191 C 0.34003 0.92799 0.42674
 N192 N 0.33427 0.93327 0.41567
 O193 O 0.21494 0.51842 0.74788
 O194 O 0.21954 0.51483 0.77147
 O195 O 0.24773 0.53529 0.73188
 O196 O 0.27048 0.53168 0.73518
 O197 O 0.23200 0.50241 0.71489
 O198 O 0.23504 0.47865 0.71963
 O199 O 0.28466 0.49732 0.76886
 O200 O 0.28120 0.52078 0.76441
 O201 O 0.25292 0.48147 0.78468
 O202 O 0.22819 0.48484 0.78022
 O203 O 0.26861 0.46548 0.75290
 O204 O 0.26543 0.47001 0.72820
 O205 O 0.28461 0.48163 0.75321
 O206 O 0.28021 0.48525 0.72823
 O207 O 0.25298 0.46547 0.76857
 O208 O 0.22807 0.47004 0.76495
 O209 O 0.26869 0.49701 0.78464
 O210 O 0.26341 0.52129 0.78073
 O211 O 0.21485 0.50261 0.73225
 O212 O 0.21957 0.47865 0.73539
 O213 O 0.24773 0.51808 0.71484
 O214 O 0.27178 0.51444 0.71979
 O215 O 0.23202 0.53532 0.74757
 O216 O 0.23685 0.53062 0.77151
 Zr217 Zr 0.23406 0.51631 0.75688
 O218 O 0.24588 0.50423 0.76967
 Zr219 Zr 0.25687 0.51624 0.73393
 O220 O 0.26966 0.50431 0.74596
 Zr221 Zr 0.23393 0.49338 0.73401
 O222 O 0.24588 0.48049 0.74587
 Zr223 Zr 0.26603 0.50690 0.76612
 O224 O 0.25428 0.52000 0.75416
 Zr225 Zr 0.24319 0.48408 0.76604
 O226 O 0.23030 0.49610 0.75420
 Zr227 Zr 0.26606 0.48415 0.74324
 O228 O 0.25413 0.49603 0.73026
 O229 O 0.23742 0.51283 0.73740
 O230 O 0.26277 0.48732 0.76282
 C231 C 0.20936 0.51260 0.73799
 C232 C 0.23779 0.54084 0.73763
 C233 C 0.23779 0.51232 0.70932
 C234 C 0.29001 0.48720 0.76331
 C235 C 0.26306 0.48697 0.79004
 C236 C 0.26305 0.46009 0.76298
 H237 H 0.24395 0.50632 0.77889
 H238 H 0.24384 0.47131 0.74381
 H239 H 0.23188 0.51832 0.73185
 H240 H 0.27890 0.50632 0.74410
 H241 H 0.27696 0.52909 0.76191
 H242 H 0.27858 0.52803 0.73892
 H243 H 0.23107 0.46288 0.75921
 H244 H 0.21505 0.48003 0.74381
 H245 H 0.27112 0.52084 0.78654
 H246 H 0.22932 0.53668 0.77112
 H247 H 0.25907 0.46323 0.73078
 H248 H 0.24370 0.47959 0.71546
 H249 H 0.21525 0.50627 0.77023
 H250 H 0.23087 0.49112 0.78704
 H251 H 0.26998 0.50631 0.71490
 H252 H 0.28737 0.49094 0.73130
 O253 O 0.21478 0.01828 0.24755
 O254 O 0.21943 0.01476 0.27116
 O255 O 0.24754 0.03513 0.23144
 O256 O 0.27029 0.03154 0.23471
 O257 O 0.23174 0.00223 0.21460
 O258 O 0.23488 -0.02155 0.21940
 O259 O 0.28459 -0.00269 0.26841
 O260 O 0.28106 0.02077 0.26394
 O261 O 0.25297 -0.01859 0.28439
 O262 O 0.22817 -0.01510 0.28002
 O263 O 0.26849 -0.03460 0.25262
 O264 O 0.26523 -0.03015 0.22792
 O265 O 0.28450 -0.01843 0.25281
 O266 O 0.28001 -0.01492 0.22785
 O267 O 0.25289 -0.03459 0.26832
 O268 O 0.22800 -0.03003 0.26484
 O269 O 0.26871 -0.00302 0.28427
 O270 O 0.26334 0.02125 0.28033
 O271 O 0.21466 0.00242 0.23198
 O272 O 0.21941 -0.02151 0.23518
 O273 O 0.24747 0.01790 0.21447
 O274 O 0.27155 0.01425 0.21936
 O275 O 0.23185 0.03520 0.24716
 O276 O 0.23673 0.03057 0.27112
 Zr277 Zr 0.23392 0.01622 0.25654
 O278 O 0.24579 0.00418 0.26935
 Zr279 Zr 0.25668 0.01609 0.23354
 O280 O 0.26950 0.00421 0.24557
 Zr281 Zr 0.23376 -0.00678 0.23373
 O282 O 0.24574 -0.01962 0.24562
 Zr283 Zr 0.26593 0.00685 0.26573
 O284 O 0.25414 0.01991 0.25376
 Zr285 Zr 0.24312 -0.01598 0.26579
 O286 O 0.23019 -0.00401 0.25393
 Zr287 Zr 0.26591 -0.01596 0.24291
 O288 O 0.25394 -0.00413 0.22992
 O289 O 0.23724 0.01267 0.23706
 O290 O 0.26268 -0.01274 0.26250
 C291 C 0.20918 0.01243 0.23769
 C292 C 0.23760 0.04069 0.23719
 C293 C 0.23750 0.01213 0.20900
 C294 C 0.28993 -0.01282 0.26287
 C295 C 0.26314 -0.01308 0.28970
 C296 C 0.26296 -0.03997 0.26272
 H297 H 0.24388 0.00630 0.27856
 H298 H 0.24370 -0.02881 0.24359
 H299 H 0.23168 0.01815 0.23152
 H300 H 0.27874 0.00621 0.24368
 H301 H 0.27679 0.02906 0.26144
 H302 H 0.27841 0.02790 0.23843
 H303 H 0.23091 -0.03714 0.25901
 H304 H 0.21494 -0.02014 0.24363
 H305 H 0.27107 0.02083 0.28612
 H306 H 0.22919 0.03662 0.27071
 H307 H 0.25888 -0.03693 0.23053
 H308 H 0.24348 -0.02055 0.21514
 H309 H 0.21513 0.00620 0.26994
 H310 H 0.23100 -0.00898 0.28693
 H311 H 0.26971 0.00613 0.21447
 H312 H 0.28714 -0.00916 0.23085
 O313 O 0.49785 0.76881 0.28498
 O314 O 0.52145 0.76520 0.28037
 O315 O 0.48179 0.78565 0.25225
 O316 O 0.48518 0.78208 0.22947
 O317 O 0.46485 0.75282 0.26795
 O318 O 0.46956 0.72905 0.26490
 O319 O 0.51877 0.74771 0.21525
 O320 O 0.51437 0.77115 0.21874
 O321 O 0.53461 0.73183 0.24702
 O322 O 0.53016 0.73519 0.27174
 O323 O 0.50280 0.71584 0.23134
 O324 O 0.47812 0.72039 0.23450
 O325 O 0.50312 0.73202 0.21531
 O326 O 0.47815 0.73561 0.21973
 O327 O 0.51847 0.71582 0.24698
 O328 O 0.51488 0.72042 0.27187
 O329 O 0.53458 0.74736 0.23125
 O330 O 0.53068 0.77164 0.23651
 O331 O 0.48219 0.75301 0.28508
 O332 O 0.48534 0.72904 0.28037
 O333 O 0.46481 0.76848 0.25220
 O334 O 0.46974 0.76484 0.22815
 O335 O 0.49749 0.78567 0.26796
 O336 O 0.52145 0.78101 0.26305
 Zr337 Zr 0.50684 0.76669 0.26587
 O338 O 0.51962 0.75459 0.25405
 Zr339 Zr 0.48389 0.76662 0.24306
 O340 O 0.49590 0.75468 0.23028
 Zr341 Zr 0.48396 0.74376 0.26601
 O342 O 0.49580 0.73087 0.25405
 Zr343 Zr 0.51606 0.75726 0.23390
 O344 O 0.50412 0.77038 0.24564
 Zr345 Zr 0.51597 0.73444 0.25674
 O346 O 0.50414 0.74648 0.26963
 Zr347 Zr 0.49317 0.73452 0.23387
 O348 O 0.48020 0.74641 0.24581
 O349 O 0.48736 0.76319 0.26250
 O350 O 0.51276 0.73768 0.23715
 C351 C 0.48794 0.76301 0.29055
 C352 C 0.48752 0.79118 0.26221
 C353 C 0.45930 0.76274 0.26216
 C354 C 0.51321 0.73760 0.20990
 C355 C 0.53997 0.73732 0.23688
 C356 C 0.51287 0.71043 0.23691
 H357 H 0.52884 0.75667 0.25598
 H358 H 0.49374 0.72168 0.25609
 H359 H 0.48181 0.76868 0.26805
 H360 H 0.49404 0.75669 0.22103
 H361 H 0.51187 0.77946 0.22298
 H362 H 0.48887 0.77841 0.22135
 H363 H 0.50911 0.71327 0.26890
 H364 H 0.49374 0.73043 0.28490
 H365 H 0.53649 0.77119 0.22880
 H366 H 0.52106 0.78706 0.27058
 H367 H 0.48066 0.71363 0.24090
 H368 H 0.46538 0.73000 0.25625
 H369 H 0.52020 0.75665 0.28467
 H370 H 0.53696 0.74149 0.26907
 H371 H 0.46485 0.75671 0.22995
 H372 H 0.48119 0.74135 0.21259
 O373 O 0.03509 0.73238 0.74786
 O374 O 0.03050 0.73594 0.77145
 O375 O 0.00229 0.71548 0.73186
 O376 O -0.02047 0.71910 0.73522
 O377 O 0.01801 0.74834 0.71485
 O378 O 0.01495 0.77211 0.71958
 O379 O -0.03465 0.75341 0.76878
 O380 O -0.03112 0.72999 0.76446
 O381 O -0.00278 0.76931 0.78468
 O382 O 0.02191 0.76598 0.78015
 O383 O -0.01864 0.78528 0.75302
 O384 O -0.01525 0.78082 0.72822
 O385 O -0.03465 0.76907 0.75309
 O386 O -0.03016 0.76573 0.72820
 O387 O -0.00294 0.78531 0.76862
 O388 O 0.02198 0.78076 0.76483
 O389 O -0.01862 0.75384 0.78463
 O390 O -0.01336 0.72955 0.78076
 O391 O 0.03517 0.74818 0.73222
 O392 O 0.03044 0.77213 0.73532
 O393 O 0.00227 0.73268 0.71483
 O394 O -0.02177 0.73632 0.71979
 O395 O 0.01802 0.71546 0.74753
 O396 O 0.01317 0.72017 0.77149
 Zr397 Zr 0.01597 0.73447 0.75685
 O398 O 0.00418 0.74657 0.76965
 Zr399 Zr -0.00685 0.73454 0.73393
 O400 O -0.01961 0.74649 0.74596
 Zr401 Zr 0.01608 0.75740 0.73397
 O402 O 0.00416 0.77030 0.74584
 Zr403 Zr -0.01598 0.74390 0.76612
 O404 O -0.00425 0.73079 0.75415
 Zr405 Zr 0.00687 0.76672 0.76601
 O406 O 0.01973 0.75468 0.75416
 Zr407 Zr -0.01603 0.76666 0.74324
 O408 O -0.00412 0.75475 0.73025
 O409 O 0.01260 0.73795 0.73738
 O410 O -0.01272 0.76349 0.76282
 C411 C 0.04066 0.73820 0.73797
 C412 C 0.01224 0.70994 0.73760
 C413 C 0.01222 0.73843 0.70930
 C414 C -0.04004 0.76348 0.76317
 C415 C -0.01295 0.76386 0.79003
 C416 C -0.01306 0.79067 0.76309
 H417 H 0.00611 0.74449 0.77887
 H418 H 0.00620 0.77949 0.74378
 H419 H 0.01814 0.73245 0.73182
 H420 H -0.02886 0.74448 0.74411
 H421 H -0.02688 0.72169 0.76194
 H422 H -0.02857 0.72277 0.73895
 H423 H 0.01890 0.78799 0.75922
 H424 H 0.03497 0.77077 0.74374
 H425 H -0.02106 0.73002 0.78658
 H426 H 0.02070 0.71410 0.77109
 H427 H -0.00919 0.78778 0.73101
 H428 H 0.00631 0.77115 0.71539
 H429 H 0.03478 0.74451 0.77022
 H430 H 0.01929 0.75963 0.78692
 H431 H -0.02001 0.74448 0.71493
 H432 H -0.03712 0.75967 0.73104
 O433 O 0.03540 0.01827 0.00240
 O434 O 0.03079 0.01472 -0.02123
 O435 O 0.00264 0.03508 0.01846
 O436 O -0.02013 0.03149 0.01511
 O437 O 0.01837 0.00215 0.03533
 O438 O 0.01530 -0.02160 0.03051
 O439 O -0.03438 -0.00277 -0.01858
 O440 O -0.03085 0.02067 -0.01415
 O441 O -0.00259 -0.01863 -0.03453
 O442 O 0.02214 -0.01519 -0.03006
 O443 O -0.01830 -0.03465 -0.00285
 O444 O -0.01499 -0.03024 0.02191
 O445 O -0.03433 -0.01848 -0.00296
 O446 O -0.02985 -0.01508 0.02197
 O447 O -0.00263 -0.03464 -0.01849
 O448 O 0.02227 -0.03007 -0.01482
 O449 O -0.01840 -0.00313 -0.03443
 O450 O -0.01310 0.02116 -0.03049
 O451 O 0.03549 0.00241 0.01799
 O452 O 0.03078 -0.02154 0.01474
 O453 O 0.00264 0.01783 0.03543
 O454 O -0.02143 0.01420 0.03048
 O455 O 0.01834 0.03515 0.00276
 O456 O 0.01348 0.03053 -0.02120
 Zr457 Zr 0.01628 0.01618 -0.00662
 O458 O 0.00445 0.00412 -0.01945
 Zr459 Zr -0.00652 0.01603 0.01633
 O460 O -0.01931 0.00413 0.00427
 Zr461 Zr 0.01642 -0.00683 0.01618
 O462 O 0.00446 -0.01968 0.00428
 Zr463 Zr -0.01571 0.00677 -0.01589
 O464 O -0.00395 0.01984 -0.00389
 Zr465 Zr 0.00714 -0.01604 -0.01589
 O466 O 0.02004 -0.00405 -0.00400
 Zr467 Zr -0.01572 -0.01604 0.00693
 O468 O -0.00378 -0.00419 0.01994
 O469 O 0.01292 0.01263 0.01284
 O470 O -0.01244 -0.01282 -0.01265
 C471 C 0.04098 0.01243 0.01229
 C472 C 0.01258 0.04064 0.01273
 C473 C 0.01259 0.01205 0.04092
 C474 C -0.03975 -0.01287 -0.01303
 C475 C -0.01276 -0.01315 -0.03986
 C476 C -0.01273 -0.04002 -0.01294
 H477 H 0.00638 0.00624 -0.02866
 H478 H 0.00650 -0.02887 0.00631
 H479 H 0.01846 0.01811 0.01841
 H480 H -0.02855 0.00614 0.00614
 H481 H -0.02659 0.02897 -0.01163
 H482 H -0.02823 0.02784 0.01137
 H483 H 0.01927 -0.03726 -0.00912
 H484 H 0.03532 -0.02011 0.00634
 H485 H -0.02081 0.02071 -0.03630
 H486 H 0.02102 0.03658 -0.02080
 H487 H -0.00879 -0.03711 0.01919
 H488 H 0.00666 -0.02065 0.03472
 H489 H 0.03512 0.00618 -0.01997
 H490 H 0.01942 -0.00895 -0.03689
 H491 H -0.01963 0.00605 0.03533
 H492 H -0.03690 -0.00917 0.01905
 O493 O 0.03507 0.51819 0.50192
 O494 O 0.03048 0.51460 0.47835
 O495 O 0.00224 0.53499 0.51796
 O496 O -0.02051 0.53133 0.51471
 O497 O 0.01819 0.50238 0.53486
 O498 O 0.01528 0.47829 0.53012
 O499 O -0.03466 0.49713 0.48094
 O500 O -0.03112 0.52055 0.48532
 O501 O -0.00287 0.48114 0.46515
 O502 O 0.02189 0.48456 0.46966
 O503 O -0.01873 0.46526 0.49679
 O504 O -0.01493 0.46822 0.51988
 O505 O -0.03466 0.48147 0.49662
 O506 O -0.02988 0.48526 0.52181
 O507 O -0.00295 0.46517 0.48126
 O508 O 0.02190 0.46969 0.48494
 O509 O -0.01865 0.49667 0.46515
 O510 O -0.01332 0.52098 0.46903
 O511 O 0.03519 0.50238 0.51755
 O512 O 0.03049 0.47842 0.51437
 O513 O 0.00228 0.51785 0.53498
 O514 O -0.02181 0.51405 0.53001
 O515 O 0.01794 0.53506 0.50226
 O516 O 0.01311 0.53034 0.47830
 Zr517 Zr 0.01595 0.51605 0.49293
 O518 O 0.00417 0.50393 0.48013
 Zr519 Zr -0.00686 0.51591 0.51590
 O520 O -0.01963 0.50401 0.50381
 Zr521 Zr 0.01612 0.49313 0.51583
 O522 O 0.00412 0.48027 0.50398
 Zr523 Zr -0.01598 0.50662 0.48365
 O524 O -0.00428 0.51971 0.49567
 Zr525 Zr 0.00685 0.48378 0.48379
 O526 O 0.01972 0.49584 0.49563
 Zr527 Zr -0.01605 0.48385 0.50651
 O528 O -0.00411 0.49566 0.51963
 O529 O 0.01259 0.51255 0.51241
 O530 O -0.01274 0.48705 0.48695
 C531 C 0.04066 0.51238 0.51180
 C532 C 0.01217 0.54057 0.51220
 C533 C 0.01231 0.51221 0.54046
 C534 C -0.04004 0.48705 0.48652
 C535 C -0.01302 0.48661 0.45978
 C536 C -0.01310 0.45983 0.48676
 H537 H 0.00612 0.50601 0.47091
 H538 H 0.00601 0.47106 0.50615
 H539 H 0.01813 0.51808 0.51793
 H540 H -0.02888 0.50600 0.50567
 H541 H -0.02686 0.52884 0.48785
 H542 H -0.02856 0.52769 0.51084
 H543 H 0.01895 0.46266 0.49086
 H544 H 0.03502 0.47985 0.50597
 H545 H -0.02100 0.52052 0.46319
 H546 H 0.02062 0.53642 0.47870
 H547 H -0.01013 0.47158 0.52754
 H548 H 0.00827 0.48076 0.53628
 H549 H 0.03475 0.50602 0.47956
 H550 H 0.01917 0.49076 0.46278
 H551 H -0.01979 0.50612 0.53514
 H552 H -0.03733 0.49047 0.51859
 O553 O 0.53520 0.01864 0.50251
 O554 O 0.53072 0.01499 0.47860
 O555 O 0.50244 0.03524 0.51821
 O556 O 0.47972 0.03164 0.51494
 O557 O 0.51824 0.00240 0.53521
 O558 O 0.51527 -0.02135 0.53046
 O559 O 0.46558 -0.00266 0.48113
 O560 O 0.46912 0.02080 0.48555
 O561 O 0.49729 -0.01874 0.46550
 O562 O 0.52036 -0.01483 0.46844
 O563 O 0.48154 -0.03456 0.49727
 O564 O 0.48454 -0.03002 0.52186
 O565 O 0.46558 -0.01837 0.49675
 O566 O 0.46996 -0.01454 0.52185
 O567 O 0.49722 -0.03462 0.48165
 O568 O 0.52235 -0.02976 0.48562
 O569 O 0.48163 -0.00308 0.46541
 O570 O 0.48699 0.02118 0.46928
 O571 O 0.53538 0.00268 0.51798
 O572 O 0.53066 -0.02138 0.51461
 O573 O 0.50248 0.01805 0.53525
 O574 O 0.47839 0.01434 0.53026
 O575 O 0.51817 0.03529 0.50254
 O576 O 0.51333 0.03055 0.47858
 Zr577 Zr 0.51621 0.01629 0.49324
 O578 O 0.50442 0.00414 0.48048
 Zr579 Zr 0.49333 0.01619 0.51615
 O580 O 0.48054 0.00430 0.50408
 Zr581 Zr 0.51632 -0.00664 0.51607
 O582 O 0.50429 -0.01952 0.50426
 Zr583 Zr 0.48425 0.00686 0.48392
 O584 O 0.49597 0.01996 0.49593
 Zr585 Zr 0.50700 -0.01600 0.48409
 O586 O 0.52002 -0.00395 0.49585
 Zr587 Zr 0.48409 -0.01585 0.50684
 O588 O 0.49610 -0.00402 0.51981
 O589 O 0.51278 0.01278 0.51270
 O590 O 0.48743 -0.01271 0.48727
 C591 C 0.54081 0.01278 0.51236
 C592 C 0.51238 0.04079 0.51247
 C593 C 0.51245 0.01231 0.54077
 C594 C 0.46021 -0.01278 0.48664
 C595 C 0.48720 -0.01319 0.46008
 C596 C 0.48712 -0.03998 0.48721
 H597 H 0.50648 0.00607 0.47124
 H598 H 0.50633 -0.02871 0.50631
 H599 H 0.51827 0.01830 0.51828
 H600 H 0.47130 0.00632 0.50591
 H601 H 0.47339 0.02910 0.48806
 H602 H 0.47166 0.02802 0.51108
 H603 H 0.51910 -0.03727 0.49072
 H604 H 0.53553 -0.01966 0.50645
 H605 H 0.47928 0.02077 0.46346
 H606 H 0.52076 0.03672 0.47903
 H607 H 0.49119 -0.03660 0.51952
 H608 H 0.50655 -0.02055 0.53452
 H609 H 0.53684 0.00804 0.48133
 H610 H 0.52810 -0.01020 0.47185
 H611 H 0.48031 0.00630 0.53526
 H612 H 0.46265 -0.00915 0.51859
 O613 O 0.53509 0.51820 0.00194
 O614 O 0.53047 0.51458 -0.02166
 O615 O 0.50238 0.53507 0.01800
 O616 O 0.47960 0.53149 0.01462
 O617 O 0.51807 0.50222 0.03497
 O618 O 0.51503 0.47846 0.03025
 O619 O 0.46534 0.49710 -0.01892
 O620 O 0.46885 0.52055 -0.01455
 O621 O 0.49710 0.48118 -0.03478
 O622 O 0.52183 0.48458 -0.03035
 O623 O 0.48141 0.46526 -0.00300
 O624 O 0.48467 0.46979 0.02171
 O625 O 0.46540 0.48143 -0.00325
 O626 O 0.46985 0.48499 0.02169
 O627 O 0.49705 0.46521 -0.01867
 O628 O 0.52196 0.46979 -0.01504
 O629 O 0.48131 0.49670 -0.03474
 O630 O 0.48661 0.52099 -0.03089
 O631 O 0.53520 0.50242 0.01760
 O632 O 0.53049 0.47844 0.01447
 O633 O 0.50232 0.51789 0.03500
 O634 O 0.47827 0.51427 0.03007
 O635 O 0.51808 0.53507 0.00230
 O636 O 0.51315 0.53039 -0.02166
 Zr637 Zr 0.51598 0.51608 -0.00704
 O638 O 0.50415 0.50397 -0.01981
 Zr639 Zr 0.49319 0.51603 0.01592
 O640 O 0.48039 0.50408 0.00392
 Zr641 Zr 0.51612 0.49316 0.01586
 O642 O 0.50416 0.48026 0.00402
 Zr643 Zr 0.48400 0.50665 -0.01624
 O644 O 0.49575 0.51977 -0.00431
 Zr645 Zr 0.50684 0.48382 -0.01615
 O646 O 0.51974 0.49587 -0.00434
 Zr647 Zr 0.48398 0.48392 0.00666
 O648 O 0.49593 0.49582 0.01962
 O649 O 0.51263 0.51260 0.01244
 O650 O 0.48726 0.48707 -0.01292
 C651 C 0.54068 0.51241 0.01184
 C652 C 0.51234 0.54059 0.01226
 C653 C 0.51228 0.51214 0.04051
 C654 C 0.45999 0.48700 -0.01334
 C655 C 0.48693 0.48665 -0.04012
 C656 C 0.48696 0.45985 -0.01308
 H657 H 0.50607 0.50605 -0.02903
 H658 H 0.50620 0.47108 0.00609
 H659 H 0.51818 0.51809 0.01799
 H660 H 0.47115 0.50610 0.00579
 H661 H 0.47310 0.52886 -0.01208
 H662 H 0.47148 0.52783 0.01093
 H663 H 0.51895 0.46262 -0.00932
 H664 H 0.53502 0.47984 0.00606
 H665 H 0.47889 0.52053 -0.03670
 H666 H 0.52068 0.53644 -0.02128
 H667 H 0.49094 0.46295 0.01907
 H668 H 0.50638 0.47939 0.03443
 H669 H 0.53478 0.50603 -0.02040
 H670 H 0.51913 0.49083 -0.03718
 H671 H 0.48005 0.50613 0.03495
 H672 H 0.46275 0.49080 0.01870
 O673 O 0.76896 0.28478 0.49758
 O674 O 0.76542 0.28017 0.52149
 O675 O 0.78546 0.25210 0.48162
 O676 O 0.78183 0.22935 0.48486
 O677 O 0.75281 0.26812 0.46492
 O678 O 0.72873 0.26528 0.46975
 O679 O 0.74758 0.21512 0.51872
 O680 O 0.77105 0.21863 0.51428
 O681 O 0.73161 0.24683 0.53450
 O682 O 0.73559 0.26991 0.53162
 O683 O 0.71576 0.23114 0.50277
 O684 O 0.71879 0.23492 0.47971
 O685 O 0.73191 0.21518 0.50306
 O686 O 0.73585 0.21995 0.47784
 O687 O 0.71567 0.24691 0.51832
 O688 O 0.72059 0.27196 0.51451
 O689 O 0.74724 0.23114 0.53451
 O690 O 0.77151 0.23645 0.53061
 O691 O 0.75294 0.28506 0.48216
 O692 O 0.72894 0.28039 0.48558
 O693 O 0.76826 0.25218 0.46469
 O694 O 0.76447 0.22806 0.46962
 O695 O 0.78560 0.26775 0.49738
 O696 O 0.78096 0.26275 0.52133
 Zr697 Zr 0.76663 0.26575 0.50675
 O698 O 0.75448 0.25395 0.51951
 Zr699 Zr 0.76639 0.24298 0.48375
 O700 O 0.75452 0.23017 0.49583
 Zr701 Zr 0.74363 0.26602 0.48398
 O702 O 0.73080 0.25394 0.49576
 Zr703 Zr 0.75715 0.23378 0.51599
 O704 O 0.77023 0.24551 0.50397
 Zr705 Zr 0.73434 0.25660 0.51594
 O706 O 0.74640 0.26963 0.50421
 Zr707 Zr 0.73438 0.23377 0.49314
 O708 O 0.74615 0.24579 0.48007
 O709 O 0.76305 0.26241 0.48731
 O710 O 0.73758 0.23703 0.51271
 C711 C 0.76306 0.29044 0.48778
 C712 C 0.79105 0.26202 0.48738
 C713 C 0.76262 0.26225 0.45928
 C714 C 0.73747 0.20976 0.51315
 C715 C 0.73714 0.23671 0.53988
 C716 C 0.71032 0.23679 0.51278
 H717 H 0.75643 0.25598 0.52874
 H718 H 0.72159 0.25585 0.49362
 H719 H 0.76857 0.26792 0.48176
 H720 H 0.75651 0.22093 0.49394
 H721 H 0.77935 0.22289 0.51177
 H722 H 0.77822 0.22129 0.48875
 H723 H 0.71323 0.26885 0.50910
 H724 H 0.73068 0.28520 0.49376
 H725 H 0.77109 0.22873 0.53641
 H726 H 0.78714 0.27017 0.52090
 H727 H 0.72219 0.23968 0.47206
 H728 H 0.73115 0.25829 0.46355
 H729 H 0.75849 0.28634 0.51882
 H730 H 0.74017 0.27767 0.52821
 H731 H 0.75657 0.23013 0.46448
 H732 H 0.74088 0.21241 0.48114
 O733 O 0.76869 0.78576 -0.00259
 O734 O 0.76508 0.78108 0.02104
 O735 O 0.78543 0.75305 -0.01874
 O736 O 0.78182 0.73029 -0.01547
 O737 O 0.75254 0.76886 -0.03559
 O738 O 0.72878 0.76586 -0.03079
 O739 O 0.74752 0.71599 0.01817
 O740 O 0.77094 0.71947 0.01380
 O741 O 0.73157 0.74785 0.03417
 O742 O 0.73555 0.77263 0.02959
 O743 O 0.71567 0.73207 0.00238
 O744 O 0.72008 0.73546 -0.02230
 O745 O 0.73183 0.71608 0.00251
 O746 O 0.73536 0.72065 -0.02245
 O747 O 0.71578 0.74751 0.01824
 O748 O 0.71955 0.77181 0.01308
 O749 O 0.74709 0.73204 0.03403
 O750 O 0.77145 0.73719 0.03014
 O751 O 0.75286 0.78594 -0.01821
 O752 O 0.72886 0.78127 -0.01497
 O753 O 0.76819 0.75310 -0.03572
 O754 O 0.76455 0.72903 -0.03084
 O755 O 0.78550 0.76870 -0.00299
 O756 O 0.78084 0.76375 0.02096
 Zr757 Zr 0.76652 0.76663 0.00637
 O758 O 0.75442 0.75478 0.01910
 Zr759 Zr 0.76638 0.74390 -0.01665
 O760 O 0.75446 0.73108 -0.00466
 Zr761 Zr 0.74355 0.76688 -0.01645
 O762 O 0.73069 0.75487 -0.00462
 Zr763 Zr 0.75707 0.73465 0.01552
 O764 O 0.77018 0.74641 0.00357
 Zr765 Zr 0.73425 0.75751 0.01553
 O766 O 0.74630 0.77045 0.00375
 Zr767 Zr 0.73430 0.73469 -0.00735
 O768 O 0.74617 0.74669 -0.02029
 O769 O 0.76299 0.76334 -0.01311
 O770 O 0.73751 0.73794 0.01222
 C771 C 0.76289 0.79138 -0.01246
 C772 C 0.79098 0.76298 -0.01297
 C773 C 0.76243 0.76308 -0.04119
 C774 C 0.73742 0.71064 0.01259
 C775 C 0.73707 0.73767 0.03947
 C776 C 0.71035 0.73750 0.01258
 H777 H 0.75651 0.75668 0.02832
 H778 H 0.72149 0.75700 -0.00655
 H779 H 0.76848 0.76888 -0.01866
 H780 H 0.75646 0.72184 -0.00655
 H781 H 0.77924 0.72371 0.01127
 H782 H 0.77818 0.72218 -0.01173
 H783 H 0.71340 0.77096 0.02050
 H784 H 0.73044 0.78594 -0.00667
 H785 H 0.77092 0.72950 0.03597
 H786 H 0.78692 0.77126 0.02058
 H787 H 0.71334 0.74184 -0.01966
 H788 H 0.72968 0.75722 -0.03499
 H789 H 0.75668 0.78562 0.01962
 H790 H 0.74124 0.76956 0.03676
 H791 H 0.75643 0.73087 -0.03573
 H792 H 0.74111 0.71350 -0.01947
 O793 O 1.00251 0.21448 0.23153
 O794 O 0.97891 0.21911 0.23512
 O795 O 1.01856 0.24719 0.21457
 O796 O 1.01520 0.26997 0.21812
 O797 O 1.03553 0.23155 0.24746
 O798 O 1.03082 0.23464 0.27122
 O799 O 0.98159 0.28425 0.25254
 O800 O 0.98604 0.28077 0.22908
 O801 O 0.96577 0.25251 0.26841
 O802 O 0.97023 0.22781 0.26517
 O803 O 0.99759 0.26827 0.28436
 O804 O 1.02229 0.26503 0.27981
 O805 O 0.99727 0.28423 0.26821
 O806 O 1.02225 0.27981 0.26454
 O807 O 0.98189 0.25267 0.28441
 O808 O 0.98557 0.22773 0.27990
 O809 O 0.96581 0.26826 0.25285
 O810 O 0.96972 0.26298 0.22858
 O811 O 1.01816 0.21441 0.24732
 O812 O 1.01504 0.21919 0.27127
 O813 O 1.03557 0.24726 0.23176
 O814 O 1.03065 0.27131 0.23534
 O815 O 1.00285 0.23149 0.21460
 O816 O 0.97890 0.23640 0.21929
 Zr817 Zr 0.99353 0.23361 0.23360
 O818 O 0.98077 0.24546 0.24568
 Zr819 Zr 1.01649 0.25640 0.23360
 O820 O 1.00449 0.26923 0.24553
 Zr821 Zr 1.01642 0.23351 0.25652
 O822 O 1.00459 0.24550 0.26939
 Zr823 Zr 0.98433 0.26560 0.24296
 O824 O 0.99626 0.25382 0.22986
 Zr825 Zr 0.98442 0.24281 0.26584
 O826 O 0.99623 0.22989 0.25381
 Zr827 Zr 1.00723 0.26567 0.26569
 O828 O 1.02018 0.25370 0.25382
 O829 O 1.01301 0.23696 0.23707
 O830 O 0.98765 0.26238 0.26255
 C831 C 1.01240 0.20891 0.23735
 C832 C 1.01280 0.23723 0.20906
 C833 C 1.04108 0.23732 0.23753
 C834 C 0.98716 0.28961 0.26265
 C835 C 0.96042 0.26264 0.26290
 C836 C 0.98750 0.26275 0.28976
 H837 H 0.97155 0.24353 0.24360
 H838 H 1.00666 0.24347 0.27858
 H839 H 1.01856 0.23140 0.23158
 H840 H 1.00636 0.27846 0.24350
 H841 H 0.98852 0.27652 0.22077
 H842 H 1.01152 0.27810 0.22177
 H843 H 0.99122 0.23079 0.28710
 H844 H 1.00663 0.21465 0.26990
 H845 H 0.96391 0.27070 0.22902
 H846 H 0.97929 0.22886 0.21324
 H847 H 1.01970 0.25872 0.28663
 H848 H 1.03500 0.24329 0.27026
 H849 H 0.98015 0.21484 0.24369
 H850 H 0.96349 0.23039 0.25877
 H851 H 1.03552 0.26954 0.24348
 H852 H 1.01917 0.28697 0.25885
 O853 O 0.78510 0.99769 0.76855
 O854 O 0.78044 1.02161 0.76484
 O855 O 0.75244 0.98183 0.78524
 O856 O 0.72968 0.98517 0.78166
 O857 O 0.76816 0.96490 0.75236
 O858 O 0.76517 0.96968 0.72858
 O859 O 0.71537 1.01874 0.74729
 O860 O 0.71892 1.01444 0.77074
 O861 O 0.74724 1.03461 0.73121
 O862 O 0.77051 1.03133 0.73582
 O863 O 0.73140 1.00284 0.71543
 O864 O 0.73471 0.97817 0.71991
 O865 O 0.71541 1.00305 0.73164
 O866 O 0.71994 0.97807 0.73523
 O867 O 0.74695 1.01860 0.71543
 O868 O 0.77125 1.01343 0.71939
 O869 O 0.73148 1.03457 0.74678
 O870 O 0.73670 1.03076 0.77111
 O871 O 0.78528 0.98217 0.75264
 O872 O 0.78059 0.98547 0.72861
 O873 O 0.75240 0.96482 0.76801
 O874 O 0.72834 0.96976 0.76441
 O875 O 0.76813 0.99754 0.78526
 O876 O 0.76318 1.02146 0.78057
 Zr877 Zr 0.76606 1.00685 0.76626
 O878 O 0.75420 1.01955 0.75412
 Zr879 Zr 0.74326 0.98391 0.76619
 O880 O 0.73044 0.99590 0.75426
 Zr881 Zr 0.76623 0.98403 0.74333
 O882 O 0.75419 0.99583 0.73047
 Zr883 Zr 0.73405 1.01607 0.75681
 O884 O 0.74583 1.00414 0.76993
 Zr885 Zr 0.75684 1.01599 0.73398
 O886 O 0.76990 1.00426 0.74602
 Zr887 Zr 0.73401 0.99316 0.73410
 O888 O 0.74602 0.98023 0.74598
 O889 O 0.76269 0.98739 0.76276
 O890 O 0.73727 1.01273 0.73726
 C891 C 0.79071 0.98783 0.76271
 C892 C 0.76239 0.98758 0.79077
 C893 C 0.76237 0.95933 0.76226
 C894 C 0.71000 1.01314 0.73720
 C895 C 0.73710 1.03996 0.73672
 C896 C 0.73689 1.01297 0.71005
 H897 H 0.75622 1.02879 0.75607
 H898 H 0.75630 0.99388 0.72127
 H899 H 0.76820 0.98183 0.76826
 H900 H 0.72120 0.99404 0.75629
 H901 H 0.72319 1.01195 0.77904
 H902 H 0.72158 0.98893 0.77802
 H903 H 0.77084 1.02120 0.71365
 H904 H 0.78539 0.99369 0.73027
 H905 H 0.72899 1.03658 0.77062
 H906 H 0.77068 1.02107 0.78667
 H907 H 0.74113 0.98075 0.71319
 H908 H 0.75652 0.96550 0.72948
 H909 H 0.78642 1.01901 0.75772
 H910 H 0.77895 1.02718 0.73800
 H911 H 0.73015 0.96486 0.75629
 H912 H 0.71280 0.98110 0.74097
 O913 O 0.74799 0.53527 0.23148
 O914 O 0.77161 0.53069 0.23510
 O915 O 0.73199 0.50254 0.21461
 O916 O 0.73533 0.47977 0.21818
 O917 O 0.71502 0.51822 0.24750
 O918 O 0.71977 0.51516 0.27126
 O919 O 0.76893 0.46552 0.25251
 O920 O 0.76456 0.46906 0.22906
 O921 O 0.78479 0.49726 0.26847
 O922 O 0.78035 0.52201 0.26504
 O923 O 0.75307 0.48156 0.28438
 O924 O 0.72833 0.48483 0.27989
 O925 O 0.75327 0.46556 0.26820
 O926 O 0.72834 0.47001 0.26470
 O927 O 0.76871 0.49722 0.28443
 O928 O 0.76507 0.52213 0.27987
 O929 O 0.78474 0.48148 0.25293
 O930 O 0.78089 0.48682 0.22864
 O931 O 0.73235 0.53535 0.24728
 O932 O 0.73554 0.53064 0.27125
 O933 O 0.71497 0.50250 0.23182
 O934 O 0.71992 0.47844 0.23542
 O935 O 0.74768 0.51824 0.21460
 O936 O 0.77164 0.51337 0.21928
 Zr937 Zr 0.75701 0.51617 0.23359
 O938 O 0.76980 0.50434 0.24568
 Zr939 Zr 0.73407 0.49336 0.23365
 O940 O 0.74608 0.48057 0.24557
 Zr941 Zr 0.73414 0.51628 0.25653
 O942 O 0.74600 0.50432 0.26941
 Zr943 Zr 0.76625 0.48419 0.24299
 O944 O 0.75429 0.49594 0.22989
 Zr945 Zr 0.76617 0.50701 0.26583
 O946 O 0.75433 0.51991 0.25381
 Zr947 Zr 0.74336 0.48414 0.26574
 O948 O 0.73039 0.49609 0.25386
 O949 O 0.73754 0.51280 0.23708
 O950 O 0.76294 0.48743 0.26257
 C951 C 0.73808 0.54083 0.23728
 C952 C 0.73773 0.51249 0.20908
 C953 C 0.70946 0.51244 0.23759
 C954 C 0.76336 0.46016 0.26261
 C955 C 0.79013 0.48710 0.26299
 C956 C 0.76314 0.48712 0.28979
 H957 H 0.77902 0.50627 0.24359
 H958 H 0.74394 0.50636 0.27860
 H959 H 0.73198 0.51834 0.23159
 H960 H 0.74422 0.47133 0.24356
 H961 H 0.76207 0.47332 0.22076
 H962 H 0.73907 0.47166 0.22184
 H963 H 0.75934 0.51913 0.28703
 H964 H 0.74394 0.53518 0.26984
 H965 H 0.78670 0.47911 0.22910
 H966 H 0.77125 0.52091 0.21324
 H967 H 0.73100 0.49107 0.28675
 H968 H 0.71558 0.50651 0.27031
 H969 H 0.77033 0.53500 0.24364
 H970 H 0.78722 0.51927 0.25883
 H971 H 0.71505 0.48022 0.24356
 H972 H 0.73130 0.46294 0.25885
 O973 O 0.53523 0.23122 0.74794
 O974 O 0.53064 0.23473 0.77156
 O975 O 0.50248 0.21444 0.73184
 O976 O 0.47972 0.21804 0.73524
 O977 O 0.51820 0.24739 0.71502
 O978 O 0.51522 0.27111 0.71982
 O979 O 0.46553 0.25235 0.76891
 O980 O 0.46901 0.22891 0.76451
 O981 O 0.49738 0.26816 0.78483
 O982 O 0.52203 0.26486 0.78036
 O983 O 0.48157 0.28419 0.75312
 O984 O 0.48490 0.27976 0.72837
 O985 O 0.46558 0.26804 0.75326
 O986 O 0.47004 0.26460 0.72833
 O987 O 0.49721 0.28417 0.76878
 O988 O 0.52218 0.27960 0.76499
 O989 O 0.48153 0.25271 0.78474
 O990 O 0.48677 0.22841 0.78083
 O991 O 0.53534 0.24707 0.73234
 O992 O 0.53067 0.27104 0.73561
 O993 O 0.50245 0.23173 0.71492
 O994 O 0.47839 0.23532 0.71989
 O995 O 0.51819 0.21435 0.74753
 O996 O 0.51328 0.21898 0.77152
 Zr997 Zr 0.51613 0.23333 0.75695
 O998 O 0.50434 0.24542 0.76976
 Zr999 Zr 0.49332 0.23349 0.73401
 O1000 O 0.48055 0.24542 0.74606
 Zr1001 Zr 0.51629 0.25635 0.73416
 O1002 O 0.50434 0.26922 0.74602
 Zr1003 Zr 0.48418 0.24279 0.76621
 O1004 O 0.49590 0.22968 0.75423
 Zr1005 Zr 0.50704 0.26559 0.76617
 O1006 O 0.51991 0.25355 0.75433
 Zr1007 Zr 0.48416 0.26558 0.74337
 O1008 O 0.49609 0.25371 0.73038
 O1009 O 0.51277 0.23689 0.73749
 O1010 O 0.48745 0.26237 0.76295
 C1011 C 0.54081 0.23704 0.73805
 C1012 C 0.51243 0.20888 0.73756
 C1013 C 0.51240 0.23750 0.70943
 C1014 C 0.46018 0.26245 0.76334
 C1015 C 0.48720 0.26271 0.79016
 C1016 C 0.48712 0.28956 0.76322
 H1017 H 0.50626 0.24332 0.77897
 H1018 H 0.50639 0.27841 0.74398
 H1019 H 0.51830 0.23141 0.73191
 H1020 H 0.47131 0.24341 0.74419
 H1021 H 0.47325 0.22060 0.76200
 H1022 H 0.47162 0.22169 0.73901
 H1023 H 0.51907 0.28689 0.75949
 H1024 H 0.53526 0.26955 0.74397
 H1025 H 0.47907 0.22888 0.78665
 H1026 H 0.52078 0.21289 0.77110
 H1027 H 0.49110 0.28664 0.73108
 H1028 H 0.50656 0.27023 0.71565
 H1029 H 0.53492 0.24330 0.77038
 H1030 H 0.51947 0.25840 0.78705
 H1031 H 0.48018 0.24347 0.71503
 H1032 H 0.46298 0.25872 0.73126
 O1033 O 0.21489 0.73232 0.50207
 O1034 O 0.21949 0.73590 0.47848
 O1035 O 0.24767 0.71543 0.51808
 O1036 O 0.27042 0.71904 0.51476
 O1037 O 0.23195 0.74833 0.53507
 O1038 O 0.23498 0.77208 0.53033
 O1039 O 0.28463 0.75338 0.48117
 O1040 O 0.28114 0.72994 0.48554
 O1041 O 0.25278 0.76922 0.46525
 O1042 O 0.22812 0.76602 0.46978
 O1043 O 0.26868 0.78520 0.49697
 O1044 O 0.26525 0.78076 0.52174
 O1045 O 0.28463 0.76902 0.49687
 O1046 O 0.28013 0.76560 0.52178
 O1047 O 0.25304 0.78523 0.48130
 O1048 O 0.22807 0.78074 0.48516
 O1049 O 0.26861 0.75374 0.46533
 O1050 O 0.26337 0.72946 0.46923
 O1051 O 0.21480 0.74812 0.51771
 O1052 O 0.21952 0.77208 0.51456
 O1053 O 0.24769 0.73265 0.53512
 O1054 O 0.27173 0.73626 0.53018
 O1055 O 0.23196 0.71541 0.50239
 O1056 O 0.23681 0.72013 0.47844
 Zr1057 Zr 0.23401 0.73442 0.49308
 O1058 O 0.24583 0.74652 0.48030
 Zr1059 Zr 0.25681 0.73449 0.51602
 O1060 O 0.26960 0.74643 0.50401
 Zr1061 Zr 0.23388 0.75736 0.51595
 O1062 O 0.24584 0.77026 0.50410
 Zr1063 Zr 0.26598 0.74384 0.48385
 O1064 O 0.25423 0.73073 0.49580
 Zr1065 Zr 0.24315 0.76668 0.48393
 O1066 O 0.23026 0.75464 0.49576
 Zr1067 Zr 0.26602 0.76659 0.50673
 O1068 O 0.25408 0.75470 0.51970
 O1069 O 0.23737 0.73791 0.51256
 O1070 O 0.26273 0.76342 0.48715
 C1071 C 0.20931 0.73813 0.51196
 C1072 C 0.23773 0.70989 0.51233
 C1073 C 0.23775 0.73842 0.54063
 C1074 C 0.29001 0.76346 0.48677
 C1075 C 0.26294 0.76374 0.45991
 C1076 C 0.26316 0.79058 0.48686
 H1077 H 0.24390 0.74443 0.47108
 H1078 H 0.24380 0.77944 0.50616
 H1079 H 0.23182 0.73241 0.51811
 H1080 H 0.27884 0.74441 0.50587
 H1081 H 0.27689 0.72164 0.48805
 H1082 H 0.27853 0.72270 0.51104
 H1083 H 0.23123 0.78804 0.49063
 H1084 H 0.21498 0.77067 0.50616
 H1085 H 0.27108 0.72992 0.46342
 H1086 H 0.22929 0.71406 0.47884
 H1087 H 0.25918 0.78772 0.51895
 H1088 H 0.24364 0.77115 0.53450
 H1089 H 0.21522 0.74448 0.47970
 H1090 H 0.23063 0.75952 0.46311
 H1091 H 0.26996 0.74442 0.53503
 H1092 H 0.28716 0.75965 0.51888
 O1093 O 0.26869 0.28482 0.99790
 O1094 O 0.26514 0.28023 1.02182
 O1095 O 0.28532 0.25220 0.98200
 O1096 O 0.28176 0.22944 0.98532
 O1097 O 0.25240 0.26795 0.96519
 O1098 O 0.22865 0.26496 0.96998
 O1099 O 0.24747 0.21511 1.01897
 O1100 O 0.27092 0.21869 1.01460
 O1101 O 0.23143 0.24677 1.03485
 O1102 O 0.23530 0.26983 1.03199
 O1103 O 0.21554 0.23117 1.00300
 O1104 O 0.22007 0.23433 0.97839
 O1105 O 0.23178 0.21517 1.00333
 O1106 O 0.23543 0.21969 0.97833
 O1107 O 0.21548 0.24679 1.01868
 O1108 O 0.22039 0.27194 1.01486
 O1109 O 0.24708 0.23111 1.03483
 O1110 O 0.27131 0.23647 1.03096
 O1111 O 0.25269 0.28504 0.98247
 O1112 O 0.22868 0.28032 0.98585
 O1113 O 0.26806 0.25220 0.96506
 O1114 O 0.26446 0.22811 0.96998
 O1115 O 0.28538 0.26786 0.99774
 O1116 O 0.28071 0.26285 1.02170
 Zr1117 Zr 0.26640 0.26580 1.00710
 O1118 O 0.25427 0.25396 1.01984
 Zr1119 Zr 0.26628 0.24302 0.98413
 O1120 O 0.25439 0.23019 0.99614
 Zr1121 Zr 0.24341 0.26598 0.98433
 O1122 O 0.23055 0.25392 0.99612
 Zr1123 Zr 0.25698 0.23380 1.01631
 O1124 O 0.27008 0.24557 1.00435
 Zr1125 Zr 0.23412 0.25655 1.01629
 O1126 O 0.24615 0.26961 1.00456
 Zr1127 Zr 0.23423 0.23376 0.99341
 O1128 O 0.24607 0.24579 0.98049
 O1129 O 0.26285 0.26244 0.98765
 O1130 O 0.23740 0.23699 1.01300
 C1131 C 0.26280 0.29045 0.98809
 C1132 C 0.29086 0.26214 0.98776
 C1133 C 0.26230 0.26218 0.95959
 C1134 C 0.23737 0.20975 1.01339
 C1135 C 0.23699 0.23667 1.04022
 C1136 C 0.21011 0.23673 1.01307
 H1137 H 0.25622 0.25598 1.02908
 H1138 H 0.22136 0.25597 0.99408
 H1139 H 0.26834 0.26796 0.98208
 H1140 H 0.25642 0.22096 0.99426
 H1141 H 0.27922 0.22296 1.01212
 H1142 H 0.27814 0.22134 0.98910
 H1143 H 0.21288 0.26874 1.00972
 H1144 H 0.23038 0.28513 0.99405
 H1145 H 0.27092 0.22872 1.03673
 H1146 H 0.28688 0.27028 1.02127
 H1147 H 0.21343 0.24089 0.98083
 H1148 H 0.22951 0.25629 0.96582
 H1149 H 0.25819 0.28638 1.01914
 H1150 H 0.24000 0.27755 1.02865
 H1151 H 0.25637 0.22997 0.96504
 H1152 H 0.24105 0.21249 0.98141
 C1153 C 0.30442 0.37560 0.80440
 C1154 C 0.31577 0.36943 0.79927
 C1155 C 0.32147 0.35793 0.80499
 C1156 C 0.31626 0.35172 0.81627
 C1157 C 0.30492 0.35789 0.82140
 C1158 C 0.29922 0.36939 0.81569
 C1159 C 0.29818 0.38820 0.79814
 N1160 N 0.28725 0.39403 0.80322
 N1161 N 0.28189 0.40482 0.79784
 C1162 C 0.28701 0.41067 0.78695
 N1163 N 0.29794 0.40485 0.78187
 N1164 N 0.30330 0.39405 0.78725
 C1165 C 0.28075 0.42326 0.78068
 C1166 C 0.28594 0.42946 0.76938
 C1167 C 0.28025 0.44097 0.76369
 C1168 C 0.26892 0.44714 0.76884
 C1169 C 0.26375 0.44096 0.78016
 C1170 C 0.26944 0.42945 0.78585
 H1171 H 0.32036 0.37352 0.79069
 H1172 H 0.33009 0.35388 0.80046
 H1173 H 0.30032 0.35381 0.82998
 H1174 H 0.29059 0.37345 0.82022
 H1175 H 0.29457 0.42542 0.76485
 H1176 H 0.28490 0.44514 0.75517
 H1177 H 0.25522 0.44511 0.78479
 H1178 H 0.26489 0.42540 0.79447
 C1179 C 0.30447 -0.12435 0.30423
 C1180 C 0.29935 -0.13048 0.31559
 C1181 C 0.30506 -0.14196 0.32132
 C1182 C 0.31635 -0.14822 0.31613
 C1183 C 0.32146 -0.14206 0.30475
 C1184 C 0.31574 -0.13057 0.29903
 C1185 C 0.29820 -0.11177 0.29795
 N1186 N 0.30326 -0.10597 0.28700
 N1187 N 0.29788 -0.09519 0.28161
 C1188 C 0.28699 -0.08933 0.28674
 N1189 N 0.28193 -0.09512 0.29769
 N1190 N 0.28731 -0.10590 0.30307
 C1191 C 0.28071 -0.07676 0.28045
 C1192 C 0.26942 -0.07055 0.28565
 C1193 C 0.26372 -0.05905 0.27995
 C1194 C 0.26884 -0.05291 0.26859
 C1195 C 0.28015 -0.05910 0.26341
 C1196 C 0.28585 -0.07060 0.26911
 H1197 H 0.29077 -0.12637 0.32017
 H1198 H 0.30049 -0.14594 0.32997
 H1199 H 0.33004 -0.14612 0.30012
 H1200 H 0.32026 -0.12654 0.29039
 H1201 H 0.26491 -0.07457 0.29430
 H1202 H 0.25521 -0.05488 0.28461
 H1203 H 0.28476 -0.05496 0.25486
 H1204 H 0.29447 -0.07466 0.26456
 C1205 C 0.80382 0.87501 0.80397
 C1206 C 0.81521 0.86888 0.79891
 C1207 C 0.82098 0.85745 0.80470
 C1208 C 0.81579 0.85125 0.81603
 C1209 C 0.80438 0.85740 0.82108
 C1210 C 0.79863 0.86883 0.81528
 C1211 C 0.79751 0.88753 0.79761
 N1212 N 0.78653 0.89332 0.80262
 N1213 N 0.78112 0.90405 0.79716
 C1214 C 0.78625 0.90988 0.78626
 N1215 N 0.79724 0.90409 0.78126
 N1216 N 0.80264 0.89336 0.78671
 C1217 C 0.77994 0.92240 0.77991
 C1218 C 0.78515 0.92860 0.76862
 C1219 C 0.77946 0.94010 0.76289
 C1220 C 0.76808 0.94624 0.76798
 C1221 C 0.76287 0.94004 0.77927
 C1222 C 0.76857 0.92855 0.78500
 H1223 H 0.81980 0.87295 0.79032
 H1224 H 0.82964 0.85347 0.80017
 H1225 H 0.79975 0.85338 0.82968
 H1226 H 0.78996 0.87286 0.81976
 H1227 H 0.79383 0.92459 0.76414
 H1228 H 0.78416 0.94429 0.75442
 H1229 H 0.75433 0.94418 0.78388
 H1230 H 0.76400 0.92449 0.79360
 C1231 C 0.44574 0.87525 0.30408
 C1232 C 0.45086 0.88138 0.31544
 C1233 C 0.44507 0.89278 0.32126
 C1234 C 0.43370 0.89896 0.31616
 C1235 C 0.42858 0.89281 0.30478
 C1236 C 0.43439 0.88140 0.29897
 C1237 C 0.45209 0.86276 0.29770
 N1238 N 0.44703 0.85697 0.28675
 N1239 N 0.45248 0.84627 0.28129
 C1240 C 0.46344 0.84047 0.28633
 N1241 N 0.46850 0.84625 0.29729
 N1242 N 0.46305 0.85696 0.30275
 C1243 C 0.46979 0.82797 0.27996
 C1244 C 0.48114 0.82182 0.28508
 C1245 C 0.48688 0.81036 0.27934
 C1246 C 0.48174 0.80420 0.26799
 C1247 C 0.47038 0.81035 0.26287
 C1248 C 0.46465 0.82182 0.26862
 H1249 H 0.45950 0.87732 0.31996
 H1250 H 0.44965 0.89676 0.32990
 H1251 H 0.41995 0.89681 0.30021
 H1252 H 0.42986 0.87737 0.29033
 H1253 H 0.48566 0.82584 0.29373
 H1254 H 0.49541 0.80621 0.28397
 H1255 H 0.46573 0.80620 0.25435
 H1256 H 0.45599 0.82584 0.26412
 C1257 C -0.05434 0.87512 0.80495
 C1258 C -0.04918 0.88124 0.81630
 C1259 C -0.05486 0.89273 0.82208
 C1260 C -0.06617 0.89902 0.81694
 C1261 C -0.07132 0.89287 0.80556
 C1262 C -0.06562 0.88138 0.79981
 C1263 C -0.04811 0.86253 0.79862
 N1264 N -0.05323 0.85674 0.78768
 N1265 N -0.04789 0.84596 0.78226
 C1266 C -0.03698 0.84007 0.78732
 N1267 N -0.03186 0.84585 0.79825
 N1268 N -0.03720 0.85663 0.80368
 C1269 C -0.03074 0.82748 0.78098
 C1270 C -0.01942 0.82126 0.78610
 C1271 C -0.01374 0.80976 0.78035
 C1272 C -0.01893 0.80361 0.76901
 C1273 C -0.03027 0.80981 0.76392
 C1274 C -0.03594 0.82132 0.76966
 H1275 H -0.04060 0.87712 0.82085
 H1276 H -0.05026 0.89669 0.83071
 H1277 H -0.07990 0.89694 0.80096
 H1278 H -0.07018 0.87736 0.79117
 H1279 H -0.01485 0.82527 0.79472
 H1280 H -0.00521 0.80559 0.78495
 H1281 H -0.03494 0.80569 0.75539
 H1282 H -0.04458 0.82538 0.76516
 C1283 C -0.05407 -0.12433 -0.05483
 C1284 C -0.04892 -0.13044 -0.06619
 C1285 C -0.05461 -0.14192 -0.07197
 C1286 C -0.06592 -0.14819 -0.06683
 C1287 C -0.07106 -0.14205 -0.05545
 C1288 C -0.06536 -0.13057 -0.04969
 C1289 C -0.04782 -0.11176 -0.04850
 N1290 N -0.05293 -0.10599 -0.03755
 N1291 N -0.04758 -0.09522 -0.03212
 C1292 C -0.03667 -0.08934 -0.03718
 N1293 N -0.03157 -0.09511 -0.04813
 N1294 N -0.03692 -0.10587 -0.05356
 C1295 C -0.03042 -0.07678 -0.03084
 C1296 C -0.01911 -0.07055 -0.03597
 C1297 C -0.01343 -0.05907 -0.03022
 C1298 C -0.01860 -0.05295 -0.01887
 C1299 C -0.02993 -0.05915 -0.01376
 C1300 C -0.03561 -0.07064 -0.01951
 H1301 H -0.04033 -0.12632 -0.07074
 H1302 H -0.05001 -0.14588 -0.08061
 H1303 H -0.07965 -0.14611 -0.05085
 H1304 H -0.06991 -0.12656 -0.04105
 H1305 H -0.01456 -0.07455 -0.04462
 H1306 H -0.00490 -0.05489 -0.03483
 H1307 H -0.03458 -0.05503 -0.00522
 H1308 H -0.04424 -0.07471 -0.01500
 C1309 C -0.05431 0.37524 0.44523
 C1310 C -0.06558 0.36900 0.45040
 C1311 C -0.07126 0.35748 0.44468
 C1312 C -0.06611 0.35130 0.43333
 C1313 C -0.05481 0.35758 0.42816
 C1314 C -0.04914 0.36909 0.43389
 C1315 C -0.04808 0.38786 0.45150
 N1316 N -0.03718 0.39373 0.44642
 N1317 N -0.03184 0.40453 0.45181
 C1318 C -0.03697 0.41036 0.46271
 N1319 N -0.04788 0.40449 0.46779
 N1320 N -0.05321 0.39369 0.46241
 C1321 C -0.03074 0.42297 0.46899
 C1322 C -0.03597 0.42918 0.48027
 C1323 C -0.03031 0.44071 0.48597
 C1324 C -0.01896 0.44688 0.48087
 C1325 C -0.01374 0.44068 0.46958
 C1326 C -0.01941 0.42916 0.46387
 H1327 H -0.07014 0.37304 0.45902
 H1328 H -0.07984 0.35342 0.44930
 H1329 H -0.05021 0.35359 0.41954
 H1330 H -0.04056 0.37321 0.42933
 H1331 H -0.04462 0.42514 0.48477
 H1332 H -0.03500 0.44487 0.49447
 H1333 H -0.00520 0.44483 0.46498
 H1334 H -0.01482 0.42510 0.45527
 C1335 C 0.44566 -0.12435 0.44560
 C1336 C 0.45086 -0.13055 0.43432
 C1337 C 0.44516 -0.14203 0.42857
 C1338 C 0.43378 -0.14821 0.43366
 C1339 C 0.42857 -0.14198 0.44496
 C1340 C 0.43429 -0.13050 0.45070
 C1341 C 0.45192 -0.11177 0.45190
 N1342 N 0.44678 -0.10592 0.46279
 N1343 N 0.45215 -0.09515 0.46819
 C1344 C 0.46311 -0.08934 0.46315
 N1345 N 0.46825 -0.09519 0.45226
 N1346 N 0.46287 -0.10596 0.44686
 C1347 C 0.46938 -0.07677 0.46945
 C1348 C 0.48073 -0.07061 0.46433
 C1349 C 0.48643 -0.05911 0.47004
 C1350 C 0.48125 -0.05292 0.48135
 C1351 C 0.46988 -0.05907 0.48646
 C1352 C 0.46418 -0.07056 0.48074
 H1353 H 0.45951 -0.12650 0.42981
 H1354 H 0.44980 -0.14607 0.41999
 H1355 H 0.41993 -0.14598 0.44951
 H1356 H 0.42970 -0.12641 0.45928
 H1357 H 0.48529 -0.07467 0.45572
 H1358 H 0.49498 -0.05498 0.46543
 H1359 H 0.46522 -0.05489 0.49496
 H1360 H 0.45552 -0.07458 0.48524
 C1361 C 0.44560 0.37528 -0.05445
 C1362 C 0.45073 0.36912 -0.06579
 C1363 C 0.44504 0.35761 -0.07151
 C1364 C 0.43375 0.35135 -0.06632
 C1365 C 0.42862 0.35754 -0.05496
 C1366 C 0.43432 0.36905 -0.04926
 C1367 C 0.45184 0.38789 -0.04820
 N1368 N 0.44676 0.39371 -0.03727
 N1369 N 0.45211 0.40451 -0.03191
 C1370 C 0.46300 0.41038 -0.03702
 N1371 N 0.46809 0.40456 -0.04795
 N1372 N 0.46273 0.39376 -0.05332
 C1373 C 0.46926 0.42298 -0.03076
 C1374 C 0.48056 0.42919 -0.03595
 C1375 C 0.48624 0.44071 -0.03026
 C1376 C 0.48109 0.44689 -0.01893
 C1377 C 0.46978 0.44070 -0.01377
 C1378 C 0.46409 0.42918 -0.01945
 H1379 H 0.45931 0.37322 -0.07038
 H1380 H 0.44963 0.35361 -0.08014
 H1381 H 0.42004 0.35348 -0.05033
 H1382 H 0.42978 0.37309 -0.04063
 H1383 H 0.48509 0.42515 -0.04458
 H1384 H 0.49476 0.44487 -0.03492
 H1385 H 0.46514 0.44486 -0.00524
 H1386 H 0.45547 0.42512 -0.01490
 C1387 C 0.80461 0.37467 0.44597
 C1388 C 0.81601 0.38080 0.45102
 C1389 C 0.82177 0.39222 0.44522
 C1390 C 0.81657 0.39840 0.43391
 C1391 C 0.80518 0.39227 0.42885
 C1392 C 0.79942 0.38084 0.43466
 C1393 C 0.79830 0.36215 0.45233
 N1394 N 0.78727 0.35641 0.44738
 N1395 N 0.78185 0.34569 0.45283
 C1396 C 0.78702 0.33982 0.46370
 N1397 N 0.79805 0.34556 0.46866
 N1398 N 0.80346 0.35629 0.46320
 C1399 C 0.78070 0.32730 0.47006
 C1400 C 0.78599 0.32102 0.48127
 C1401 C 0.78028 0.30954 0.48701
 C1402 C 0.76882 0.30349 0.48202
 C1403 C 0.76354 0.30976 0.47080
 C1404 C 0.76925 0.32124 0.46506
 H1405 H 0.82060 0.37673 0.45962
 H1406 H 0.83043 0.39625 0.44970
 H1407 H 0.80059 0.39633 0.42025
 H1408 H 0.79075 0.37682 0.43018
 H1409 H 0.79473 0.32497 0.48568
 H1410 H 0.78504 0.30529 0.49543
 H1411 H 0.75492 0.30569 0.46627
 H1412 H 0.76461 0.32536 0.45652
 C1413 C 0.80469 0.87575 -0.05381
 C1414 C 0.81609 0.88185 -0.04871
 C1415 C 0.82188 0.89329 -0.05446
 C1416 C 0.81673 0.89954 -0.06577
 C1417 C 0.80532 0.89341 -0.07087
 C1418 C 0.79954 0.88198 -0.06510
 C1419 C 0.79833 0.86322 -0.04751
 N1420 N 0.78733 0.85749 -0.05255
 N1421 N 0.78188 0.84675 -0.04715
 C1422 C 0.78698 0.84085 -0.03627
 N1423 N 0.79798 0.84658 -0.03123
 N1424 N 0.80343 0.85732 -0.03662
 C1425 C 0.78062 0.82832 -0.02997
 C1426 C 0.78580 0.82203 -0.01872
 C1427 C 0.78006 0.81053 -0.01304
 C1428 C 0.76866 0.80446 -0.01815
 C1429 C 0.76347 0.81074 -0.02941
 C1430 C 0.76921 0.82224 -0.03508
 H1431 H 0.82065 0.87774 -0.04012
 H1432 H 0.83055 0.89724 -0.04990
 H1433 H 0.80071 0.89746 -0.07946
 H1434 H 0.79087 0.87798 -0.06962
 H1435 H 0.79450 0.82599 -0.01423
 H1436 H 0.78475 0.80628 -0.00459
 H1437 H 0.75490 0.80666 -0.03403
 H1438 H 0.76465 0.82636 -0.04367
 C1439 C 0.80429 0.30399 0.37514
 C1440 C 0.81562 0.29884 0.36896
 C1441 C 0.82141 0.30463 0.35756
 C1442 C 0.81632 0.31602 0.35144
 C1443 C 0.80499 0.32117 0.35762
 C1444 C 0.79920 0.31538 0.36903
 C1445 C 0.79795 0.29764 0.38764
 N1446 N 0.78705 0.30275 0.39349
 N1447 N 0.78161 0.29730 0.40421
 C1448 C 0.78662 0.28629 0.40994
 N1449 N 0.79751 0.28118 0.40408
 N1450 N 0.80295 0.28663 0.39337
 C1451 C 0.78027 0.27994 0.42244
 C1452 C 0.78533 0.26851 0.42851
 C1453 C 0.77961 0.26278 0.43998
 C1454 C 0.76836 0.26801 0.44623
 C1455 C 0.76330 0.27944 0.44017
 C1456 C 0.76902 0.28517 0.42869
 H1457 H 0.82012 0.29018 0.37298
 H1458 H 0.83002 0.30007 0.35349
 H1459 H 0.80049 0.32983 0.35360
 H1460 H 0.79059 0.31994 0.37310
 H1461 H 0.79391 0.26393 0.42441
 H1462 H 0.78419 0.25419 0.44407
 H1463 H 0.75486 0.28415 0.44440
 H1464 H 0.76458 0.29389 0.42474
 C1465 C 0.80381 0.80471 -0.12558
 C1466 C 0.79862 0.81601 -0.13177
 C1467 C 0.80438 0.82179 -0.14321
 C1468 C 0.81578 0.81671 -0.14936
 C1469 C 0.82095 0.80539 -0.14314
 C1470 C 0.81519 0.79962 -0.13170
 C1471 C 0.79750 0.79837 -0.11304
 N1472 N 0.80260 0.78745 -0.10723
 N1473 N 0.79719 0.78202 -0.09649
 C1474 C 0.78624 0.78706 -0.09067
 N1475 N 0.78114 0.79798 -0.09649
 N1476 N 0.78654 0.80342 -0.10723
 C1477 C 0.77994 0.78072 -0.07814
 C1478 C 0.76863 0.78587 -0.07193
 C1479 C 0.76295 0.78015 -0.06043
 C1480 C 0.76811 0.76881 -0.05428
 C1481 C 0.77943 0.76367 -0.06048
 C1482 C 0.78511 0.76939 -0.07199
 H1483 H 0.78997 0.82051 -0.12774
 H1484 H 0.79975 0.83038 -0.14724
 H1485 H 0.82961 0.80084 -0.14711
 H1486 H 0.81976 0.79103 -0.12762
 H1487 H 0.76409 0.79451 -0.07595
 H1488 H 0.75445 0.78480 -0.05623
 H1489 H 0.78410 0.75515 -0.05634
 H1490 H 0.79374 0.76487 -0.07605
 C1491 C 0.30465 0.44559 0.87448
 C1492 C 0.29948 0.43432 0.88073
 C1493 C 0.30521 0.42862 0.89222
 C1494 C 0.31657 0.43377 0.89835
 C1495 C 0.32175 0.44504 0.89210
 C1496 C 0.31601 0.45073 0.88060
 C1497 C 0.29836 0.45183 0.86189
 N1498 N 0.30348 0.46271 0.85599
 N1499 N 0.29808 0.46806 0.84520
 C1500 C 0.28713 0.46298 0.83942
 N1501 N 0.28202 0.45210 0.84531
 N1502 N 0.28741 0.44675 0.85610
 C1503 C 0.28084 0.46924 0.82684
 C1504 C 0.26949 0.46409 0.82069
 C1505 C 0.26377 0.46978 0.80918
 C1506 C 0.26895 0.48108 0.80297
 C1507 C 0.28032 0.48620 0.80910
 C1508 C 0.28603 0.48051 0.82060
 H1509 H 0.29084 0.42977 0.87671
 H1510 H 0.30064 0.42005 0.89634
 H1511 H 0.33039 0.44959 0.89612
 H1512 H 0.32059 0.45931 0.87648
 H1513 H 0.26493 0.45549 0.82477
 H1514 H 0.25522 0.46516 0.80507
 H1515 H 0.28497 0.49470 0.80491
 H1516 H 0.29469 0.48503 0.82460
 C1517 C 0.30521 -0.05432 0.37415
 C1518 C 0.31656 -0.04914 0.38028
 C1519 C 0.32235 -0.05482 0.39177
 C1520 C 0.31725 -0.06615 0.39805
 C1521 C 0.30589 -0.07132 0.39189
 C1522 C 0.30011 -0.06563 0.38040
 C1523 C 0.29886 -0.04810 0.36155
 N1524 N 0.28791 -0.05322 0.35578
 N1525 N 0.28246 -0.04789 0.34501
 C1526 C 0.28750 -0.03699 0.33909
 N1527 N 0.29845 -0.03187 0.34485
 N1528 N 0.30390 -0.03720 0.35563
 C1529 C 0.28114 -0.03076 0.32650
 C1530 C 0.28626 -0.01946 0.32022
 C1531 C 0.28048 -0.01380 0.30873
 C1532 C 0.26911 -0.01896 0.30263
 C1533 C 0.26400 -0.03027 0.30888
 C1534 C 0.26978 -0.03594 0.32038
 H1535 H 0.32108 -0.04054 0.37617
 H1536 H 0.33097 -0.05019 0.39574
 H1537 H 0.30131 -0.07993 0.39595
 H1538 H 0.29149 -0.07022 0.37638
 H1539 H 0.29491 -0.01491 0.32419
 H1540 H 0.28510 -0.00528 0.30452
 H1541 H 0.25545 -0.03492 0.30480
 H1542 H 0.26527 -0.04455 0.32448
 C1543 C -0.05424 -0.05461 -0.12444
 C1544 C -0.04911 -0.06594 -0.13063
 C1545 C -0.05482 -0.07165 -0.14214
 C1546 C -0.06613 -0.06646 -0.14838
 C1547 C -0.07125 -0.05511 -0.14216
 C1548 C -0.06553 -0.04942 -0.13065
 C1549 C -0.04797 -0.04835 -0.11182
 N1550 N -0.05307 -0.03745 -0.10596
 N1551 N -0.04770 -0.03209 -0.09516
 C1552 C -0.03678 -0.03718 -0.08932
 N1553 N -0.03168 -0.04808 -0.09518
 N1554 N -0.03705 -0.05345 -0.10598
 C1555 C -0.03050 -0.03091 -0.07672
 C1556 C -0.01916 -0.03604 -0.07054
 C1557 C -0.01347 -0.03035 -0.05902
 C1558 C -0.01865 -0.01905 -0.05281
 C1559 C -0.03001 -0.01394 -0.05896
 C1560 C -0.03570 -0.01963 -0.07048
 H1561 H -0.04052 -0.07052 -0.12655
 H1562 H -0.05023 -0.08026 -0.14616
 H1563 H -0.07984 -0.05048 -0.14619
 H1564 H -0.07007 -0.04081 -0.12658
 H1565 H -0.01460 -0.04465 -0.07461
 H1566 H -0.00491 -0.03496 -0.05490
 H1567 H -0.03468 -0.00544 -0.05478
 H1568 H -0.04436 -0.01512 -0.07450
 C1569 C -0.05458 0.44491 0.37542
 C1570 C -0.06591 0.45006 0.36924
 C1571 C -0.07165 0.44433 0.35776
 C1572 C -0.06651 0.43299 0.35155
 C1573 C -0.05516 0.42785 0.35775
 C1574 C -0.04943 0.43359 0.36923
 C1575 C -0.04829 0.45120 0.38800
 N1576 N -0.03736 0.44613 0.39383
 N1577 N -0.03197 0.45153 0.40460
 C1578 C -0.03707 0.46244 0.41044
 N1579 N -0.04801 0.46751 0.40462
 N1580 N -0.05340 0.46211 0.39384
 C1581 C -0.03078 0.46874 0.42301
 C1582 C -0.03597 0.48004 0.42921
 C1583 C -0.03027 0.48578 0.44070
 C1584 C -0.01890 0.48068 0.44685
 C1585 C -0.01373 0.46936 0.44068
 C1586 C -0.01944 0.46362 0.42919
 H1587 H -0.07046 0.45867 0.37331
 H1588 H -0.08026 0.44893 0.35375
 H1589 H -0.05056 0.41924 0.35373
 H1590 H -0.04082 0.42904 0.37329
 H1591 H -0.04463 0.48455 0.42518
 H1592 H -0.03493 0.49429 0.44485
 H1593 H -0.00518 0.46475 0.44482
 H1594 H -0.01488 0.45500 0.42515
 C1595 C 0.44577 -0.05454 0.37557
 C1596 C 0.43444 -0.04938 0.36942
 C1597 C 0.42872 -0.05507 0.35791
 C1598 C 0.43390 -0.06635 0.35168
 C1599 C 0.44524 -0.07151 0.35783
 C1600 C 0.45095 -0.06583 0.36934
 C1601 C 0.45203 -0.04831 0.38818
 N1602 N 0.46295 -0.05342 0.39401
 N1603 N 0.46832 -0.04807 0.40481
 C1604 C 0.46322 -0.03717 0.41067
 N1605 N 0.45230 -0.03206 0.40484
 N1606 N 0.44693 -0.03741 0.39404
 C1607 C 0.46949 -0.03092 0.42326
 C1608 C 0.46432 -0.01960 0.42945
 C1609 C 0.47002 -0.01392 0.44096
 C1610 C 0.48133 -0.01909 0.44715
 C1611 C 0.48647 -0.03043 0.44099
 C1612 C 0.48078 -0.03611 0.42947
 H1613 H 0.42986 -0.04080 0.37352
 H1614 H 0.42010 -0.05051 0.35387
 H1615 H 0.44981 -0.08010 0.35373
 H1616 H 0.45957 -0.07038 0.37339
 H1617 H 0.45571 -0.01505 0.42540
 H1618 H 0.46539 -0.00538 0.44511
 H1619 H 0.49499 -0.03508 0.44515
 H1620 H 0.48531 -0.04475 0.42543
 C1621 C 0.44530 0.44495 -0.12440
 C1622 C 0.43397 0.45010 -0.13057
 C1623 C 0.42822 0.44437 -0.14204
 C1624 C 0.43335 0.43303 -0.14825
 C1625 C 0.44470 0.42788 -0.14205
 C1626 C 0.45044 0.43362 -0.13058
 C1627 C 0.45159 0.45124 -0.11183
 N1628 N 0.46253 0.44617 -0.10602
 N1629 N 0.46793 0.45157 -0.09525
 C1630 C 0.46283 0.46248 -0.08941
 N1631 N 0.45189 0.46755 -0.09523
 N1632 N 0.44650 0.46216 -0.10599
 C1633 C 0.46913 0.46879 -0.07685
 C1634 C 0.46395 0.48009 -0.07065
 C1635 C 0.46966 0.48582 -0.05917
 C1636 C 0.48104 0.48072 -0.05304
 C1637 C 0.48621 0.46940 -0.05921
 C1638 C 0.48049 0.46366 -0.07069
 H1639 H 0.42942 0.45872 -0.12650
 H1640 H 0.41960 0.44898 -0.14605
 H1641 H 0.44929 0.41927 -0.14607
 H1642 H 0.45905 0.42907 -0.12652
 H1643 H 0.45529 0.48459 -0.07467
 H1644 H 0.46501 0.49433 -0.05502
 H1645 H 0.49476 0.46479 -0.05508
 H1646 H 0.48504 0.45505 -0.07474
 C1647 C 0.44633 0.80474 0.37476
 C1648 C 0.43498 0.79961 0.38091
 C1649 C 0.42919 0.80540 0.39233
 C1650 C 0.43431 0.81676 0.39847
 C1651 C 0.44566 0.82189 0.39232
 C1652 C 0.45145 0.81610 0.38090
 C1653 C 0.45267 0.79839 0.36225
 N1654 N 0.46360 0.80347 0.35642
 N1655 N 0.46904 0.79802 0.34570
 C1656 C 0.46399 0.78705 0.33993
 N1657 N 0.45307 0.78197 0.34576
 N1658 N 0.44763 0.78742 0.35648
 C1659 C 0.47033 0.78070 0.32742
 C1660 C 0.46522 0.76932 0.32131
 C1661 C 0.47093 0.76359 0.30983
 C1662 C 0.48222 0.76876 0.30361
 C1663 C 0.48734 0.78014 0.30973
 C1664 C 0.48162 0.78587 0.32121
 H1665 H 0.43045 0.79097 0.37687
 H1666 H 0.42056 0.80086 0.39637
 H1667 H 0.45019 0.83053 0.39636
 H1668 H 0.46008 0.82064 0.37685
 H1669 H 0.45660 0.76477 0.32538
 H1670 H 0.46630 0.75504 0.30571
 H1671 H 0.49581 0.78482 0.30552
 H1672 H 0.48611 0.79455 0.32520
 C1673 C -0.05412 0.80544 0.87457
 C1674 C -0.04895 0.81676 0.88074
 C1675 C -0.05463 0.82249 0.89225
 C1676 C -0.06594 0.81732 0.89849
 C1677 C -0.07110 0.80599 0.89229
 C1678 C -0.06541 0.80028 0.88079
 C1679 C -0.04789 0.79917 0.86196
 N1680 N -0.05303 0.78827 0.85613
 N1681 N -0.04769 0.78289 0.84533
 C1682 C -0.03678 0.78795 0.83947
 N1683 N -0.03164 0.79885 0.84530
 N1684 N -0.03697 0.80424 0.85610
 C1685 C -0.03055 0.78167 0.82687
 C1686 C -0.01921 0.78678 0.82068
 C1687 C -0.01355 0.78106 0.80916
 C1688 C -0.01878 0.76977 0.80298
 C1689 C -0.03014 0.76468 0.80915
 C1690 C -0.03579 0.77039 0.82067
 H1691 H -0.04035 0.82132 0.87664
 H1692 H -0.05002 0.83110 0.89626
 H1693 H -0.07970 0.80137 0.89634
 H1694 H -0.06997 0.79167 0.87673
 H1695 H -0.01462 0.79537 0.82473
 H1696 H -0.00500 0.78565 0.80501
 H1697 H -0.03483 0.75618 0.80499
 H1698 H -0.04445 0.76591 0.82471
 C1699 C 0.37515 0.80461 0.30369
 C1700 C 0.36902 0.81595 0.29853
 C1701 C 0.35761 0.82177 0.30430
 C1702 C 0.35146 0.81669 0.31568
 C1703 C 0.35760 0.80535 0.32084
 C1704 C 0.36901 0.79953 0.31507
 C1705 C 0.38765 0.79823 0.29737
 N1706 N 0.39344 0.78729 0.30247
 N1707 N 0.40415 0.78182 0.29705
 C1708 C 0.40995 0.78683 0.28608
 N1709 N 0.40416 0.79777 0.28098
 N1710 N 0.39345 0.80324 0.28640
 C1711 C 0.42245 0.78046 0.27976
 C1712 C 0.42861 0.78556 0.26840
 C1713 C 0.44008 0.77981 0.26270
 C1714 C 0.44624 0.76849 0.26788
 C1715 C 0.44008 0.76338 0.27924
 C1716 C 0.42861 0.76913 0.28494
 H1717 H 0.37307 0.82045 0.28988
 H1718 H 0.35357 0.83040 0.29974
 H1719 H 0.35355 0.80084 0.32949
 H1720 H 0.37304 0.79091 0.31963
 H1721 H 0.42459 0.79419 0.26386
 H1722 H 0.44425 0.78443 0.25417
 H1723 H 0.44424 0.75488 0.28392
 H1724 H 0.42457 0.76465 0.29361
 C1725 C -0.12479 0.80471 0.80419
 C1726 C -0.13099 0.81600 0.79899
 C1727 C -0.14252 0.82169 0.80464
 C1728 C -0.14874 0.81652 0.81594
 C1729 C -0.14254 0.80523 0.82115
 C1730 C -0.13100 0.79955 0.81549
 C1731 C -0.11215 0.79848 0.79800
 N1732 N -0.10630 0.78760 0.80314
 N1733 N -0.09547 0.78225 0.79782
 C1734 C -0.08961 0.78735 0.78692
 N1735 N -0.09546 0.79823 0.78178
 N1736 N -0.10629 0.80358 0.78710
 C1737 C -0.07698 0.78111 0.78072
 C1738 C -0.07076 0.78628 0.76942
 C1739 C -0.05921 0.78062 0.76378
 C1740 C -0.05303 0.76932 0.76899
 C1741 C -0.05922 0.76417 0.78030
 C1742 C -0.07077 0.76983 0.78594
 H1743 H -0.12690 0.82056 0.79039
 H1744 H -0.14660 0.83027 0.80005
 H1745 H -0.14663 0.80067 0.82974
 H1746 H -0.12692 0.79096 0.82008
 H1747 H -0.07482 0.79489 0.76485
 H1748 H -0.05504 0.78525 0.75527
 H1749 H -0.05506 0.75566 0.78497
 H1750 H -0.07484 0.76530 0.79456
 C1751 C 0.87516 0.30400 0.44578
 C1752 C 0.88132 0.29893 0.43441
 C1753 C 0.89273 0.30476 0.42865
 C1754 C 0.89885 0.31612 0.43381
 C1755 C 0.89268 0.32120 0.44518
 C1756 C 0.88127 0.31536 0.45094
 C1757 C 0.86266 0.29760 0.45210
 N1758 N 0.85686 0.30260 0.46308
 N1759 N 0.84615 0.29711 0.46850
 C1760 C 0.84036 0.28618 0.46338
 N1761 N 0.84616 0.28119 0.45240
 N1762 N 0.85687 0.28667 0.44698
 C1763 C 0.82786 0.27979 0.46970
 C1764 C 0.82168 0.26849 0.46449
 C1765 C 0.81021 0.26272 0.47021
 C1766 C 0.80408 0.26779 0.48160
 C1767 C 0.81027 0.27909 0.48680
 C1768 C 0.82173 0.28485 0.48109
 H1769 H 0.87730 0.29030 0.42985
 H1770 H 0.89678 0.30027 0.42000
 H1771 H 0.89670 0.32982 0.44974
 H1772 H 0.87721 0.31985 0.45959
 H1773 H 0.82568 0.26403 0.45580
 H1774 H 0.80603 0.25424 0.46551
 H1775 H 0.80614 0.28368 0.49537
 H1776 H 0.82577 0.29346 0.48566
 C1777 C 0.87521 0.80473 -0.05450
 C1778 C 0.88135 0.79964 -0.06587
 C1779 C 0.89278 0.80544 -0.07163
 C1780 C 0.89893 0.81677 -0.06646
 C1781 C 0.89279 0.82186 -0.05509
 C1782 C 0.88136 0.81606 -0.04933
 C1783 C 0.86269 0.79837 -0.04818
 N1784 N 0.85690 0.80339 -0.03721
 N1785 N 0.84617 0.79794 -0.03180
 C1786 C 0.84036 0.78702 -0.03691
 N1787 N 0.84615 0.78200 -0.04788
 N1788 N 0.85688 0.78745 -0.05329
 C1789 C 0.82784 0.78067 -0.03060
 C1790 C 0.82166 0.76936 -0.03579
 C1791 C 0.81017 0.76363 -0.03009
 C1792 C 0.80403 0.76873 -0.01872
 C1793 C 0.81021 0.78004 -0.01353
 C1794 C 0.82169 0.78577 -0.01923
 H1795 H 0.87730 0.79103 -0.07044
 H1796 H 0.89682 0.80093 -0.08028
 H1797 H 0.89684 0.83047 -0.05052
 H1798 H 0.87732 0.82056 -0.04068
 H1799 H 0.82568 0.76488 -0.04446
 H1800 H 0.80600 0.75514 -0.03477
 H1801 H 0.80606 0.78465 -0.00499
 H1802 H 0.82574 0.79439 -0.01468
 C1803 C -0.12451 -0.05420 -0.05419
 C1804 C -0.13071 -0.06550 -0.04901
 C1805 C -0.14225 -0.07120 -0.05467
 C1806 C -0.14850 -0.06604 -0.06598
 C1807 C -0.14227 -0.05473 -0.07116
 C1808 C -0.13074 -0.04904 -0.06549
 C1809 C -0.11187 -0.04795 -0.04797
 N1810 N -0.10603 -0.03705 -0.05309
 N1811 N -0.09520 -0.03170 -0.04776
 C1812 C -0.08933 -0.03680 -0.03687
 N1813 N -0.09517 -0.04771 -0.03175
 N1814 N -0.10599 -0.05306 -0.03708
 C1815 C -0.07669 -0.03055 -0.03064
 C1816 C -0.07045 -0.03573 -0.01936
 C1817 C -0.05891 -0.03006 -0.01371
 C1818 C -0.05273 -0.01873 -0.01887
 C1819 C -0.05895 -0.01357 -0.03017
 C1820 C -0.07050 -0.01924 -0.03583
 H1821 H -0.12662 -0.07006 -0.04041
 H1822 H -0.14627 -0.07979 -0.05004
 H1823 H -0.14632 -0.05012 -0.07976
 H1824 H -0.12667 -0.04044 -0.07006
 H1825 H -0.07449 -0.04436 -0.01481
 H1826 H -0.05473 -0.03471 -0.00520
 H1827 H -0.05480 -0.00504 -0.03482
 H1828 H -0.07457 -0.01469 -0.04444
 C1829 C -0.12451 0.44550 0.44517
 C1830 C -0.13070 0.43421 0.45037
 C1831 C -0.14220 0.42847 0.44468
 C1832 C -0.14840 0.43358 0.43332
 C1833 C -0.14217 0.44489 0.42812
 C1834 C -0.13068 0.45061 0.43383
 C1835 C -0.11191 0.45178 0.45142
 N1836 N -0.10607 0.46267 0.44628
 N1837 N -0.09528 0.46806 0.45164
 C1838 C -0.08945 0.46300 0.46258
 N1839 N -0.09530 0.45211 0.46771
 N1840 N -0.10608 0.44672 0.46235
 C1841 C -0.07687 0.46929 0.46883
 C1842 C -0.07068 0.46415 0.48016
 C1843 C -0.05917 0.46986 0.48585
 C1844 C -0.05300 0.48118 0.48066
 C1845 C -0.05916 0.48630 0.46932
 C1846 C -0.07067 0.48059 0.46363
 H1847 H -0.12664 0.42969 0.45900
 H1848 H -0.14623 0.41989 0.44932
 H1849 H -0.14619 0.44946 0.41949
 H1850 H -0.12660 0.45920 0.42924
 H1851 H -0.07473 0.45554 0.48472
 H1852 H -0.05502 0.46524 0.49439
 H1853 H -0.05500 0.49481 0.46465
 H1854 H -0.07471 0.48510 0.45499
 C1855 C 0.37579 -0.05421 0.44467
 C1856 C 0.36956 -0.06553 0.44979
 C1857 C 0.35808 -0.07124 0.44403
 C1858 C 0.35189 -0.06610 0.43267
 C1859 C 0.35814 -0.05476 0.42756
 C1860 C 0.36963 -0.04905 0.43333
 C1861 C 0.38838 -0.04795 0.45101
 N1862 N 0.39426 -0.03703 0.44597
 N1863 N 0.40503 -0.03167 0.45140
 C1864 C 0.41083 -0.03679 0.46233
 N1865 N 0.40495 -0.04771 0.46737
 N1866 N 0.39418 -0.05307 0.46194
 C1867 C 0.42341 -0.03052 0.46868
 C1868 C 0.42958 -0.03571 0.48000
 C1869 C 0.44107 -0.03003 0.48577
 C1870 C 0.44727 -0.01867 0.48069
 C1871 C 0.44113 -0.01350 0.46934
 C1872 C 0.42964 -0.01919 0.46358
 H1873 H 0.37360 -0.07009 0.45841
 H1874 H 0.35404 -0.07985 0.44862
 H1875 H 0.35416 -0.05015 0.41894
 H1876 H 0.37372 -0.04045 0.42879
 H1877 H 0.42552 -0.04436 0.48450
 H1878 H 0.44519 -0.03469 0.49430
 H1879 H 0.44529 -0.00496 0.46474
 H1880 H 0.42563 -0.01463 0.45494
 C1881 C 0.37548 0.44540 -0.05460
 C1882 C 0.36930 0.45050 -0.06594
 C1883 C 0.35780 0.44478 -0.07163
 C1884 C 0.35156 0.43348 -0.06642
 C1885 C 0.35777 0.42838 -0.05506
 C1886 C 0.36928 0.43412 -0.04938
 C1887 C 0.38808 0.45168 -0.04836
 N1888 N 0.39393 0.44663 -0.03743
 N1889 N 0.40472 0.45202 -0.03209
 C1890 C 0.41056 0.46291 -0.03723
 N1891 N 0.40471 0.46797 -0.04816
 N1892 N 0.39392 0.46258 -0.05351
 C1893 C 0.42315 0.46921 -0.03099
 C1894 C 0.42934 0.48051 -0.03619
 C1895 C 0.44085 0.48622 -0.03052
 C1896 C 0.44704 0.48110 -0.01919
 C1897 C 0.44088 0.46978 -0.01400
 C1898 C 0.42936 0.46407 -0.01967
 H1899 H 0.37338 0.45908 -0.07054
 H1900 H 0.35378 0.44934 -0.08026
 H1901 H 0.35374 0.41980 -0.05041
 H1902 H 0.37334 0.42960 -0.04075
 H1903 H 0.42528 0.48502 -0.04483
 H1904 H 0.44499 0.49474 -0.03519
 H1905 H 0.44504 0.46516 -0.00547
 H1906 H 0.42533 0.45544 -0.01511
 C1907 C 0.37425 0.44540 0.80492
 C1908 C 0.38044 0.45053 0.81625
 C1909 C 0.39190 0.44477 0.82198
 C1910 C 0.39806 0.43343 0.81682
 C1911 C 0.39187 0.42830 0.80550
 C1912 C 0.38040 0.43406 0.79976
 C1913 C 0.36169 0.45172 0.79863
 N1914 N 0.35584 0.44664 0.78771
 N1915 N 0.34508 0.45206 0.78232
 C1916 C 0.33928 0.46300 0.78741
 N1917 N 0.34512 0.46807 0.79833
 N1918 N 0.35588 0.46265 0.80372
 C1919 C 0.32673 0.46932 0.78111
 C1920 C 0.32057 0.48066 0.78627
 C1921 C 0.30910 0.48640 0.78055
 C1922 C 0.30292 0.48128 0.76921
 C1923 C 0.30905 0.46992 0.76407
 C1924 C 0.32053 0.46417 0.76979
 H1925 H 0.37639 0.45915 0.82080
 H1926 H 0.39597 0.44932 0.83059
 H1927 H 0.39591 0.41968 0.80094
 H1928 H 0.37633 0.42952 0.79115
 H1929 H 0.32462 0.48518 0.79490
 H1930 H 0.30497 0.49495 0.78518
 H1931 H 0.30489 0.46529 0.75555
 H1932 H 0.32454 0.45552 0.76527
 C1933 C 0.37438 -0.05437 0.30421
 C1934 C 0.38056 -0.04925 0.31555
 C1935 C 0.39205 -0.05498 0.32125
 C1936 C 0.39826 -0.06627 0.31604
 C1937 C 0.39208 -0.07139 0.30470
 C1938 C 0.38059 -0.06566 0.29900
 C1939 C 0.36179 -0.04809 0.29796
 N1940 N 0.35595 -0.05317 0.28704
 N1941 N 0.34516 -0.04778 0.28168
 C1942 C 0.33933 -0.03687 0.28680
 N1943 N 0.34517 -0.03180 0.29773
 N1944 N 0.35596 -0.03719 0.30308
 C1945 C 0.32674 -0.03059 0.28055
 C1946 C 0.32058 -0.01926 0.28572
 C1947 C 0.30907 -0.01355 0.28004
 C1948 C 0.30287 -0.01870 0.26872
 C1949 C 0.30902 -0.03005 0.26357
 C1950 C 0.32053 -0.03575 0.26925
 H1951 H 0.37648 -0.04067 0.32014
 H1952 H 0.39611 -0.05045 0.32988
 H1953 H 0.39616 -0.07997 0.30010
 H1954 H 0.37653 -0.07019 0.29037
 H1955 H 0.32464 -0.01473 0.29434
 H1956 H 0.30494 -0.00501 0.28468
 H1957 H 0.30484 -0.03469 0.25506
 H1958 H 0.32455 -0.04440 0.26472
 C1959 C 0.12483 0.55388 0.69651
 C1960 C 0.11867 0.56523 0.70161
 C1961 C 0.10720 0.57096 0.69584
 C1962 C 0.10103 0.56577 0.68453
 C1963 C 0.10719 0.55442 0.67942
 C1964 C 0.11865 0.54869 0.68519
 C1965 C 0.13739 0.54759 0.70283
 N1966 N 0.14319 0.53663 0.69780
 N1967 N 0.15395 0.53125 0.70322
 C1968 C 0.15980 0.53638 0.71411
 N1969 N 0.15399 0.54735 0.71914
 N1970 N 0.14323 0.55273 0.71372
 C1971 C 0.17236 0.53010 0.72043
 C1972 C 0.17859 0.53533 0.73169
 C1973 C 0.19011 0.52966 0.73739
 C1974 C 0.19626 0.51830 0.73229
 C1975 C 0.19003 0.51307 0.72102
 C1976 C 0.17851 0.51874 0.71533
 H1977 H 0.12273 0.56981 0.71021
 H1978 H 0.10315 0.57960 0.70036
 H1979 H 0.10313 0.54984 0.67082
 H1980 H 0.12271 0.54005 0.68068
 H1981 H 0.17457 0.54401 0.73618
 H1982 H 0.19432 0.53438 0.74585
 H1983 H 0.19417 0.50452 0.71641
 H1984 H 0.17443 0.51415 0.70674
 C1985 C 0.12455 0.05340 0.19602
 C1986 C 0.11840 0.04819 0.18471
 C1987 C 0.10692 0.05388 0.17891
 C1988 C 0.10068 0.06523 0.18399
 C1989 C 0.10686 0.07043 0.19533
 C1990 C 0.11834 0.06474 0.20110
 C1991 C 0.13712 0.04717 0.20237
 N1992 N 0.14294 0.05235 0.21326
 N1993 N 0.15371 0.04701 0.21870
 C1994 C 0.15956 0.03604 0.21371
 N1995 N 0.15374 0.03087 0.20282
 N1996 N 0.14297 0.03621 0.19738
 C1997 C 0.17213 0.02981 0.22006
 C1998 C 0.17831 0.01844 0.21500
 C1999 C 0.18984 0.01281 0.22072
 C2000 C 0.19607 0.01809 0.23197
 C2001 C 0.18989 0.02947 0.23703
 C2002 C 0.17835 0.03510 0.23131
 H2003 H 0.12249 0.03957 0.18020
 H2004 H 0.10293 0.04924 0.17031
 H2005 H 0.10282 0.07906 0.19988
 H2006 H 0.12237 0.06933 0.20970
 H2007 H 0.17425 0.01382 0.20643
 H2008 H 0.19400 0.00426 0.21614
 H2009 H 0.19409 0.03422 0.24547
 H2010 H 0.17432 0.04378 0.23576
 C2011 C 0.62445 0.69594 0.19539
 C2012 C 0.63069 0.68467 0.20058
 C2013 C 0.64219 0.67898 0.19486
 C2014 C 0.64833 0.68412 0.18350
 C2015 C 0.64208 0.69539 0.17831
 C2016 C 0.63058 0.70108 0.18404
 C2017 C 0.61185 0.70218 0.20167
 N2018 N 0.60596 0.71305 0.19654
 N2019 N 0.59516 0.71841 0.20192
 C2020 C 0.58937 0.71334 0.21287
 N2021 N 0.59527 0.70246 0.21800
 N2022 N 0.60606 0.69711 0.21262
 C2023 C 0.57679 0.71959 0.21915
 C2024 C 0.57063 0.71445 0.23050
 C2025 C 0.55912 0.72014 0.23620
 C2026 C 0.55291 0.73143 0.23101
 C2027 C 0.55904 0.73655 0.21964
 C2028 C 0.57055 0.73086 0.21394
 H2029 H 0.62667 0.68013 0.20922
 H2030 H 0.64631 0.67041 0.19944
 H2031 H 0.64610 0.69993 0.16967
 H2032 H 0.62646 0.70965 0.17946
 H2033 H 0.57471 0.70585 0.23506
 H2034 H 0.55500 0.71553 0.24475
 H2035 H 0.55486 0.74505 0.21497
 H2036 H 0.57456 0.73537 0.20529
 C2037 C 0.12518 0.69689 0.69658
 C2038 C 0.13137 0.70207 0.68527
 C2039 C 0.14283 0.69633 0.67952
 C2040 C 0.14898 0.68498 0.68463
 C2041 C 0.14280 0.67980 0.69595
 C2042 C 0.13134 0.68553 0.70170
 C2043 C 0.11263 0.70317 0.70289
 N2044 N 0.10678 0.69805 0.71378
 N2045 N 0.09602 0.70344 0.71919
 C2046 C 0.09022 0.71440 0.71415
 N2047 N 0.09607 0.71953 0.70325
 N2048 N 0.10683 0.71413 0.69785
 C2049 C 0.07766 0.72069 0.72045
 C2050 C 0.07151 0.73204 0.71533
 C2051 C 0.05999 0.73772 0.72101
 C2052 C 0.05376 0.73250 0.73228
 C2053 C 0.05991 0.72114 0.73740
 C2054 C 0.07143 0.71547 0.73172
 H2055 H 0.12732 0.71070 0.68075
 H2056 H 0.14689 0.70091 0.67092
 H2057 H 0.14685 0.67116 0.70047
 H2058 H 0.12727 0.68096 0.71030
 H2059 H 0.07559 0.73662 0.70674
 H2060 H 0.05585 0.74626 0.71639
 H2061 H 0.05570 0.71643 0.74586
 H2062 H 0.07545 0.70680 0.73621
 C2063 C 0.62570 0.19584 0.55410
 C2064 C 0.61951 0.20106 0.56538
 C2065 C 0.60799 0.19541 0.57109
 C2066 C 0.60178 0.18411 0.56593
 C2067 C 0.60797 0.17888 0.55465
 C2068 C 0.61949 0.18453 0.54895
 C2069 C 0.63831 0.20202 0.54785
 N2070 N 0.64416 0.19685 0.53699
 N2071 N 0.65498 0.20216 0.53162
 C2072 C 0.66083 0.21308 0.53668
 N2073 N 0.65498 0.21825 0.54755
 N2074 N 0.64416 0.21294 0.55292
 C2075 C 0.67343 0.21927 0.53043
 C2076 C 0.67961 0.23060 0.53556
 C2077 C 0.69115 0.23624 0.52988
 C2078 C 0.69735 0.23099 0.51861
 C2079 C 0.69119 0.21964 0.51350
 C2080 C 0.67965 0.21401 0.51918
 H2081 H 0.62361 0.20967 0.56992
 H2082 H 0.60392 0.20002 0.57967
 H2083 H 0.60388 0.17027 0.55011
 H2084 H 0.62357 0.17993 0.54037
 H2085 H 0.67554 0.23520 0.54414
 H2086 H 0.69530 0.24478 0.53448
 H2087 H 0.69538 0.21493 0.50503
 H2088 H 0.67561 0.20535 0.51469
 C2089 C 0.62592 0.69593 0.05403
 C2090 C 0.61968 0.68466 0.04883
 C2091 C 0.60819 0.67894 0.05455
 C2092 C 0.60205 0.68406 0.06591
 C2093 C 0.60829 0.69533 0.07111
 C2094 C 0.61978 0.70105 0.06540
 C2095 C 0.63851 0.70220 0.04777
 N2096 N 0.64441 0.71306 0.05292
 N2097 N 0.65520 0.71844 0.04755
 C2098 C 0.66098 0.71341 0.03658
 N2099 N 0.65509 0.70255 0.03142
 N2100 N 0.64430 0.69717 0.03679
 C2101 C 0.67356 0.71969 0.03031
 C2102 C 0.67970 0.71460 0.01892
 C2103 C 0.69120 0.72032 0.01323
 C2104 C 0.69743 0.73158 0.01846
 C2105 C 0.69132 0.73665 0.02986
 C2106 C 0.67982 0.73093 0.03555
 H2107 H 0.62372 0.68014 0.04018
 H2108 H 0.60408 0.67037 0.04995
 H2109 H 0.60426 0.69986 0.07976
 H2110 H 0.62389 0.70962 0.06999
 H2111 H 0.67561 0.70603 0.01433
 H2112 H 0.69530 0.71575 0.00464
 H2113 H 0.69551 0.74512 0.03456
 H2114 H 0.67582 0.73540 0.04424
 C2115 C 0.12542 0.05373 0.05410
 C2116 C 0.13160 0.04852 0.06539
 C2117 C 0.14304 0.05424 0.07121
 C2118 C 0.14922 0.06565 0.06617
 C2119 C 0.14301 0.07086 0.05485
 C2120 C 0.13157 0.06512 0.04906
 C2121 C 0.11287 0.04745 0.04773
 N2122 N 0.10703 0.05261 0.03685
 N2123 N 0.09628 0.04723 0.03139
 C2124 C 0.09049 0.03623 0.03636
 N2125 N 0.09633 0.03107 0.04724
 N2126 N 0.10707 0.03645 0.05270
 C2127 C 0.07794 0.02995 0.02999
 C2128 C 0.07180 0.01856 0.03503
 C2129 C 0.06029 0.01289 0.02929
 C2130 C 0.05407 0.01814 0.01804
 C2131 C 0.06021 0.02954 0.01299
 C2132 C 0.07172 0.03521 0.01873
 H2133 H 0.12755 0.03985 0.06987
 H2134 H 0.14706 0.04959 0.07979
 H2135 H 0.14701 0.07952 0.05033
 H2136 H 0.12750 0.06972 0.04047
 H2137 H 0.07587 0.01394 0.04361
 H2138 H 0.05616 0.00432 0.03387
 H2139 H 0.05601 0.03428 0.00455
 H2140 H 0.07572 0.04391 0.01429
 C2141 C 0.12515 0.55374 0.55327
 C2142 C 0.13131 0.56510 0.54817
 C2143 C 0.14277 0.57084 0.55394
 C2144 C 0.14895 0.56566 0.56525
 C2145 C 0.14279 0.55430 0.57035
 C2146 C 0.13134 0.54856 0.56458
 C2147 C 0.11260 0.54745 0.54695
 N2148 N 0.10681 0.53648 0.55198
 N2149 N 0.09605 0.53108 0.54656
 C2150 C 0.09020 0.53621 0.53567
 N2151 N 0.09600 0.54719 0.53064
 N2152 N 0.10675 0.55258 0.53606
 C2153 C 0.07765 0.52992 0.52935
 C2154 C 0.07141 0.53515 0.51809
 C2155 C 0.05989 0.52947 0.51240
 C2156 C 0.05376 0.51809 0.51750
 C2157 C 0.05999 0.51287 0.52876
 C2158 C 0.07151 0.51855 0.53445
 H2159 H 0.12724 0.56968 0.53957
 H2160 H 0.14681 0.57948 0.54942
 H2161 H 0.14686 0.54972 0.57895
 H2162 H 0.12729 0.53992 0.56910
 H2163 H 0.07542 0.54383 0.51361
 H2164 H 0.05568 0.53418 0.50394
 H2165 H 0.05586 0.50432 0.53338
 H2166 H 0.07560 0.51397 0.54304
 C2167 C 0.62514 0.05462 0.55403
 C2168 C 0.63129 0.06599 0.54891
 C2169 C 0.64273 0.07179 0.55468
 C2170 C 0.64893 0.06668 0.56605
 C2171 C 0.64275 0.05530 0.57116
 C2172 C 0.63132 0.04951 0.56537
 C2173 C 0.61261 0.04826 0.54769
 N2174 N 0.60685 0.03727 0.55272
 N2175 N 0.59612 0.03182 0.54730
 C2176 C 0.59025 0.03690 0.53639
 N2177 N 0.59601 0.04789 0.53136
 N2178 N 0.60674 0.05334 0.53678
 C2179 C 0.57771 0.03054 0.53006
 C2180 C 0.57144 0.03573 0.51879
 C2181 C 0.55995 0.02999 0.51308
 C2182 C 0.55387 0.01857 0.51814
 C2183 C 0.56013 0.01337 0.52940
 C2184 C 0.57162 0.01912 0.53512
 H2185 H 0.62724 0.07052 0.54028
 H2186 H 0.64672 0.08042 0.55010
 H2187 H 0.64675 0.05072 0.57979
 H2188 H 0.62728 0.04088 0.56991
 H2189 H 0.57540 0.04444 0.51433
 H2190 H 0.55573 0.03470 0.50462
 H2191 H 0.55604 0.00479 0.53400
 H2192 H 0.57572 0.01454 0.54371
 C2193 C 0.62502 0.55412 0.05329
 C2194 C 0.63123 0.54895 0.06459
 C2195 C 0.64267 0.55474 0.07035
 C2196 C 0.64877 0.56613 0.06526
 C2197 C 0.64256 0.57130 0.05395
 C2198 C 0.63112 0.56551 0.04819
 C2199 C 0.61249 0.54777 0.04697
 N2200 N 0.60661 0.55287 0.03608
 N2201 N 0.59588 0.54743 0.03067
 C2202 C 0.59013 0.53644 0.03570
 N2203 N 0.59601 0.53134 0.04659
 N2204 N 0.60674 0.53678 0.05201
 C2205 C 0.57760 0.53009 0.02939
 C2206 C 0.57150 0.51871 0.03451
 C2207 C 0.56000 0.51298 0.02882
 C2208 C 0.55376 0.51816 0.01754
 C2209 C 0.55986 0.52955 0.01243
 C2210 C 0.57136 0.53528 0.01812
 H2211 H 0.62723 0.54029 0.06910
 H2212 H 0.64676 0.55017 0.07894
 H2213 H 0.64656 0.57996 0.04944
 H2214 H 0.62703 0.57008 0.03960
 H2215 H 0.57559 0.51415 0.04310
 H2216 H 0.55590 0.50442 0.03344
 H2217 H 0.55563 0.53424 0.00397
 H2218 H 0.57533 0.54396 0.01363
 C2219 C 0.05414 0.05323 0.12552
 C2220 C 0.04901 0.06456 0.13171
 C2221 C 0.05476 0.07030 0.14317
 C2222 C 0.06611 0.06515 0.14937
 C2223 C 0.07123 0.05380 0.14315
 C2224 C 0.06547 0.04808 0.13168
 C2225 C 0.04781 0.04695 0.11295
 N2226 N 0.05288 0.03603 0.10709
 N2227 N 0.04746 0.03066 0.09633
 C2228 C 0.03652 0.03575 0.09053
 N2229 N 0.03146 0.04667 0.09639
 N2230 N 0.03688 0.05205 0.10715
 C2231 C 0.03020 0.02948 0.07796
 C2232 C 0.01887 0.03466 0.07180
 C2233 C 0.01317 0.02901 0.06027
 C2234 C 0.01832 0.01771 0.05403
 C2235 C 0.02965 0.01253 0.06019
 C2236 C 0.03535 0.01819 0.07172
 H2237 H 0.04039 0.06911 0.12766
 H2238 H 0.05016 0.07891 0.14719
 H2239 H 0.07985 0.04920 0.14716
 H2240 H 0.07001 0.03946 0.12761
 H2241 H 0.01434 0.04328 0.07588
 H2242 H 0.00466 0.03369 0.05613
 H2243 H 0.03431 0.00405 0.05598
 H2244 H 0.04399 0.01364 0.07574
 C2245 C 0.05352 0.55374 0.62502
 C2246 C 0.06487 0.54863 0.63120
 C2247 C 0.07059 0.55439 0.64266
 C2248 C 0.06541 0.56571 0.64883
 C2249 C 0.05407 0.57083 0.64265
 C2250 C 0.04835 0.56506 0.63118
 C2251 C 0.04725 0.54742 0.61245
 N2252 N 0.03629 0.55245 0.60664
 N2253 N 0.03091 0.54703 0.59587
 C2254 C 0.03605 0.53614 0.59003
 N2255 N 0.04701 0.53111 0.59584
 N2256 N 0.05239 0.53653 0.60661
 C2257 C 0.02978 0.52982 0.57746
 C2258 C 0.03503 0.51857 0.57123
 C2259 C 0.02938 0.51286 0.55971
 C2260 C 0.01800 0.51794 0.55355
 C2261 C 0.01275 0.52920 0.55978
 C2262 C 0.01841 0.53490 0.57131
 H2263 H 0.06944 0.54003 0.62714
 H2264 H 0.07922 0.54987 0.64673
 H2265 H 0.04949 0.57943 0.64670
 H2266 H 0.03972 0.56959 0.62712
 H2267 H 0.04371 0.51409 0.57525
 H2268 H 0.03411 0.50441 0.55550
 H2269 H 0.00420 0.53380 0.55563
 H2270 H 0.01381 0.54348 0.57538
 C2271 C 0.55387 0.05402 0.62525
 C2272 C 0.54868 0.06533 0.63144
 C2273 C 0.55443 0.07112 0.64289
 C2274 C 0.56583 0.06606 0.64907
 C2275 C 0.57101 0.05474 0.64285
 C2276 C 0.56525 0.04896 0.63140
 C2277 C 0.54756 0.04767 0.61270
 N2278 N 0.55269 0.03676 0.60686
 N2279 N 0.54729 0.03132 0.59612
 C2280 C 0.53631 0.03633 0.59032
 N2281 N 0.53119 0.04723 0.59615
 N2282 N 0.53659 0.05268 0.60690
 C2283 C 0.53001 0.02998 0.57776
 C2284 C 0.51865 0.03507 0.57159
 C2285 C 0.51296 0.02934 0.56008
 C2286 C 0.51816 0.01805 0.55387
 C2287 C 0.52952 0.01295 0.56004
 C2288 C 0.53521 0.01868 0.57156
 H2289 H 0.54003 0.06982 0.62741
 H2290 H 0.54979 0.07972 0.64692
 H2291 H 0.57967 0.05020 0.64683
 H2292 H 0.56984 0.04036 0.62733
 H2293 H 0.51407 0.04368 0.57564
 H2294 H 0.50442 0.03397 0.55592
 H2295 H 0.53422 0.00448 0.55586
 H2296 H 0.54388 0.01419 0.57558
 C2297 C 0.55371 0.55384 0.12483
 C2298 C 0.56503 0.54870 0.13102
 C2299 C 0.57079 0.55449 0.14246
 C2300 C 0.56567 0.56587 0.14856
 C2301 C 0.55435 0.57101 0.14236
 C2302 C 0.54859 0.56522 0.13093
 C2303 C 0.54740 0.54748 0.11230
 N2304 N 0.53648 0.55254 0.10646
 N2305 N 0.53107 0.54710 0.09573
 C2306 C 0.53614 0.53614 0.08996
 N2307 N 0.54707 0.53108 0.09580
 N2308 N 0.55248 0.53652 0.10653
 C2309 C 0.52984 0.52979 0.07743
 C2310 C 0.53501 0.51846 0.07128
 C2311 C 0.52931 0.51273 0.05978
 C2312 C 0.51799 0.51787 0.05360
 C2313 C 0.51282 0.52920 0.05975
 C2314 C 0.51851 0.53492 0.07124
 H2315 H 0.56956 0.54005 0.12701
 H2316 H 0.57940 0.54994 0.14654
 H2317 H 0.54982 0.57966 0.14637
 H2318 H 0.53998 0.56976 0.12684
 H2319 H 0.54365 0.51394 0.07533
 H2320 H 0.53398 0.50422 0.05563
 H2321 H 0.50431 0.53384 0.05557
 H2322 H 0.51397 0.54356 0.07527
 C2323 C 0.19648 0.55368 0.62475
 C2324 C 0.20162 0.56502 0.61860
 C2325 C 0.19589 0.57078 0.60713
 C2326 C 0.18456 0.56563 0.60094
 C2327 C 0.17942 0.55429 0.60710
 C2328 C 0.18515 0.54854 0.61857
 C2329 C 0.20276 0.54738 0.63732
 N2330 N 0.19767 0.53645 0.64314
 N2331 N 0.20307 0.53105 0.65390
 C2332 C 0.21399 0.53613 0.65973
 N2333 N 0.21908 0.54706 0.65391
 N2334 N 0.21369 0.55246 0.64315
 C2335 C 0.22028 0.52983 0.67230
 C2336 C 0.23160 0.53499 0.67849
 C2337 C 0.23727 0.52931 0.69001
 C2338 C 0.23209 0.51800 0.69621
 C2339 C 0.22077 0.51284 0.69003
 C2340 C 0.21510 0.51852 0.67850
 H2341 H 0.21023 0.56957 0.62267
 H2342 H 0.20044 0.57940 0.60309
 H2343 H 0.17080 0.54974 0.60303
 H2344 H 0.18060 0.53992 0.62261
 H2345 H 0.23615 0.54361 0.67444
 H2346 H 0.24578 0.53397 0.69419
 H2347 H 0.21610 0.50435 0.69421
 H2348 H 0.20647 0.51400 0.67445
 C2349 C 0.19580 0.05356 0.12459
 C2350 C 0.20089 0.06494 0.11846
 C2351 C 0.19512 0.07071 0.10702
 C2352 C 0.18379 0.06556 0.10080
 C2353 C 0.17870 0.05416 0.10696
 C2354 C 0.18449 0.04840 0.11840
 C2355 C 0.20214 0.04724 0.13713
 N2356 N 0.19710 0.03629 0.14295
 N2357 N 0.20253 0.03088 0.15369
 C2358 C 0.21347 0.03597 0.15950
 N2359 N 0.21851 0.04693 0.15368
 N2360 N 0.21307 0.05234 0.14295
 C2361 C 0.21981 0.02967 0.17204
 C2362 C 0.23115 0.03483 0.17820
 C2363 C 0.23688 0.02914 0.18970
 C2364 C 0.23174 0.01782 0.19591
 C2365 C 0.22040 0.01266 0.18976
 C2366 C 0.21468 0.01834 0.17825
 H2367 H 0.20949 0.06950 0.12254
 H2368 H 0.19968 0.07937 0.10305
 H2369 H 0.17010 0.04954 0.10292
 H2370 H 0.17998 0.03974 0.12243
 H2371 H 0.23567 0.04346 0.17414
 H2372 H 0.24539 0.03381 0.19384
 H2373 H 0.21576 0.00416 0.19395
 H2374 H 0.20603 0.01381 0.17424
 C2375 C 0.69583 0.19517 0.62434
 C2376 C 0.70098 0.18383 0.63048
 C2377 C 0.69530 0.17810 0.64198
 C2378 C 0.68402 0.18328 0.64823
 C2379 C 0.67886 0.19462 0.64208
 C2380 C 0.68455 0.20035 0.63058
 C2381 C 0.70206 0.20145 0.61174
 N2382 N 0.69695 0.21238 0.60594
 N2383 N 0.70230 0.21776 0.59514
 C2384 C 0.71319 0.21266 0.58927
 N2385 N 0.71829 0.20173 0.59507
 N2386 N 0.71295 0.19635 0.60586
 C2387 C 0.71944 0.21895 0.57668
 C2388 C 0.73074 0.21378 0.57046
 C2389 C 0.73642 0.21949 0.55896
 C2390 C 0.73126 0.23082 0.55280
 C2391 C 0.71994 0.23597 0.55899
 C2392 C 0.71426 0.23026 0.57050
 H2393 H 0.70956 0.17926 0.62637
 H2394 H 0.69985 0.16947 0.64601
 H2395 H 0.67028 0.19920 0.64620
 H2396 H 0.67999 0.20898 0.62655
 H2397 H 0.73528 0.20515 0.57450
 H2398 H 0.74494 0.21485 0.55479
 H2399 H 0.71529 0.24450 0.55485
 H2400 H 0.70563 0.23479 0.57456
 C2401 C 0.69575 0.69610 0.12394
 C2402 C 0.68442 0.70123 0.13013
 C2403 C 0.67873 0.69550 0.14163
 C2404 C 0.68393 0.68420 0.14782
 C2405 C 0.69526 0.67907 0.14162
 C2406 C 0.70095 0.68480 0.13012
 C2407 C 0.70199 0.70238 0.11134
 N2408 N 0.71288 0.69729 0.10547
 N2409 N 0.71823 0.70268 0.09468
 C2410 C 0.71313 0.71360 0.08887
 N2411 N 0.70223 0.71869 0.09474
 N2412 N 0.69688 0.71330 0.10553
 C2413 C 0.71938 0.71989 0.07628
 C2414 C 0.71423 0.73124 0.07014
 C2415 C 0.71991 0.73696 0.05863
 C2416 C 0.73120 0.73178 0.05241
 C2417 C 0.73632 0.72041 0.05852
 C2418 C 0.73064 0.71470 0.07003
 H2419 H 0.67983 0.70982 0.12607
 H2420 H 0.67011 0.70003 0.14570
 H2421 H 0.69985 0.67047 0.14569
 H2422 H 0.70956 0.68026 0.12604
 H2423 H 0.70563 0.73580 0.07423
 H2424 H 0.71529 0.74551 0.05453
 H2425 H 0.74482 0.71575 0.05433
 H2426 H 0.73516 0.70604 0.07404
 C2427 C 0.55458 0.69601 0.12545
 C2428 C 0.56592 0.70113 0.11927
 C2429 C 0.57162 0.69540 0.10778
 C2430 C 0.56642 0.68410 0.10158
 C2431 C 0.55508 0.67898 0.10776
 C2432 C 0.54938 0.68471 0.11926
 C2433 C 0.54833 0.70229 0.13804
 N2434 N 0.53740 0.69722 0.14389
 N2435 N 0.53204 0.70261 0.15467
 C2436 C 0.53716 0.71351 0.16051
 N2437 N 0.54809 0.71858 0.15467
 N2438 N 0.55345 0.71319 0.14388
 C2439 C 0.53090 0.71981 0.17309
 C2440 C 0.53609 0.73112 0.17927
 C2441 C 0.53040 0.73684 0.19078
 C2442 C 0.51907 0.73170 0.19696
 C2443 C 0.51391 0.72037 0.19080
 C2444 C 0.51959 0.71465 0.17930
 H2445 H 0.57050 0.70972 0.12335
 H2446 H 0.58024 0.69993 0.10372
 H2447 H 0.55049 0.67039 0.10369
 H2448 H 0.54076 0.68018 0.12332
 H2449 H 0.54472 0.73564 0.17522
 H2450 H 0.53505 0.74536 0.19492
 H2451 H 0.50538 0.71574 0.19497
 H2452 H 0.51504 0.70602 0.17526
 C2453 C 0.05342 0.69687 0.62475
 C2454 C 0.06475 0.70199 0.61855
 C2455 C 0.07048 0.69622 0.60708
 C2456 C 0.06531 0.68488 0.60094
 C2457 C 0.05398 0.67975 0.60714
 C2458 C 0.04826 0.68553 0.61860
 C2459 C 0.04715 0.70320 0.63731
 N2460 N 0.03622 0.69815 0.64316
 N2461 N 0.03084 0.70358 0.65392
 C2462 C 0.03595 0.71451 0.65972
 N2463 N 0.04688 0.71956 0.65387
 N2464 N 0.05226 0.71413 0.64311
 C2465 C 0.02968 0.72084 0.67228
 C2466 C 0.03488 0.73214 0.67846
 C2467 C 0.02922 0.73785 0.68999
 C2468 C 0.01790 0.73272 0.69619
 C2469 C 0.01270 0.72141 0.69001
 C2470 C 0.01836 0.71570 0.67849
 H2471 H 0.06932 0.71061 0.62258
 H2472 H 0.07909 0.70075 0.60301
 H2473 H 0.04942 0.67113 0.60311
 H2474 H 0.03965 0.68099 0.62268
 H2475 H 0.04352 0.73666 0.67440
 H2476 H 0.03391 0.74634 0.69415
 H2477 H 0.00419 0.71677 0.69420
 H2478 H 0.01380 0.70708 0.67446
 C2479 C 0.55404 0.62570 0.19576
 C2480 C 0.56534 0.61950 0.20094
 C2481 C 0.57102 0.60797 0.19527
 C2482 C 0.56583 0.60175 0.18398
 C2483 C 0.55453 0.60795 0.17880
 C2484 C 0.54885 0.61948 0.18447
 C2485 C 0.54781 0.63833 0.20197
 N2486 N 0.53691 0.64418 0.19685
 N2487 N 0.53157 0.65501 0.20219
 C2488 C 0.53669 0.66087 0.21308
 N2489 N 0.54759 0.65502 0.21819
 N2490 N 0.55293 0.64420 0.21286
 C2491 C 0.53046 0.67350 0.21930
 C2492 C 0.53566 0.67971 0.23059
 C2493 C 0.53000 0.69126 0.23625
 C2494 C 0.51869 0.69745 0.23108
 C2495 C 0.51351 0.69126 0.21977
 C2496 C 0.51917 0.67971 0.21411
 H2497 H 0.56991 0.62359 0.20953
 H2498 H 0.57962 0.60390 0.19984
 H2499 H 0.54996 0.60386 0.17021
 H2500 H 0.54026 0.62355 0.17989
 H2501 H 0.54428 0.67566 0.23514
 H2502 H 0.53466 0.69543 0.24475
 H2503 H 0.50500 0.69542 0.21512
 H2504 H 0.51462 0.67565 0.20550
 C2505 C 0.05349 0.62529 0.69632
 C2506 C 0.06481 0.61911 0.70148
 C2507 C 0.07054 0.60762 0.69575
 C2508 C 0.06539 0.60144 0.68443
 C2509 C 0.05407 0.60762 0.67927
 C2510 C 0.04834 0.61910 0.68499
 C2511 C 0.04721 0.63787 0.70259
 N2512 N 0.03630 0.64371 0.69750
 N2513 N 0.03092 0.65449 0.70288
 C2514 C 0.03600 0.66032 0.71380
 N2515 N 0.04692 0.65449 0.71889
 N2516 N 0.05230 0.64371 0.71351
 C2517 C 0.02973 0.67291 0.72007
 C2518 C 0.03490 0.67910 0.73138
 C2519 C 0.02924 0.69064 0.73705
 C2520 C 0.01794 0.69685 0.73188
 C2521 C 0.01277 0.69066 0.72057
 C2522 C 0.01843 0.67912 0.71490
 H2523 H 0.06937 0.62317 0.71009
 H2524 H 0.07915 0.60356 0.70032
 H2525 H 0.04952 0.60355 0.67065
 H2526 H 0.03973 0.62317 0.68043
 H2527 H 0.04353 0.67504 0.73593
 H2528 H 0.03391 0.69481 0.74556
 H2529 H 0.00427 0.69484 0.71590
 H2530 H 0.01389 0.67507 0.70627
 C2531 C 0.05408 0.12504 0.05434
 C2532 C 0.04892 0.13123 0.06565
 C2533 C 0.05467 0.14268 0.07142
 C2534 C 0.06606 0.14884 0.06632
 C2535 C 0.07122 0.14262 0.05499
 C2536 C 0.06545 0.13117 0.04924
 C2537 C 0.04776 0.11249 0.04801
 N2538 N 0.05285 0.10666 0.03709
 N2539 N 0.04744 0.09592 0.03167
 C2540 C 0.03649 0.09011 0.03672
 N2541 N 0.03140 0.09594 0.04765
 N2542 N 0.03681 0.10668 0.05307
 C2543 C 0.03018 0.07757 0.03040
 C2544 C 0.01885 0.07137 0.03554
 C2545 C 0.01316 0.05987 0.02983
 C2546 C 0.01832 0.05370 0.01850
 C2547 C 0.02964 0.05989 0.01335
 C2548 C 0.03534 0.07139 0.01907
 H2549 H 0.04027 0.12720 0.07017
 H2550 H 0.05006 0.14671 0.08002
 H2551 H 0.07987 0.14660 0.05043
 H2552 H 0.07001 0.12709 0.04063
 H2553 H 0.01432 0.07540 0.04418
 H2554 H 0.00465 0.05569 0.03448
 H2555 H 0.03430 0.05574 0.00484
 H2556 H 0.04397 0.07544 0.01455
 C2557 C 0.05341 0.62526 0.55347
 C2558 C 0.04827 0.63145 0.56480
 C2559 C 0.05399 0.64294 0.57052
 C2560 C 0.06531 0.64913 0.56535
 C2561 C 0.07045 0.64294 0.55403
 C2562 C 0.06472 0.63145 0.54831
 C2563 C 0.04713 0.61267 0.54720
 N2564 N 0.05220 0.60684 0.53627
 N2565 N 0.04682 0.59606 0.53090
 C2566 C 0.03592 0.59021 0.53600
 N2567 N 0.03084 0.59604 0.54694
 N2568 N 0.03622 0.60682 0.55231
 C2569 C 0.02964 0.57762 0.52973
 C2570 C 0.01836 0.57139 0.53492
 C2571 C 0.01270 0.55984 0.52926
 C2572 C 0.01786 0.55367 0.51793
 C2573 C 0.02914 0.55990 0.51274
 C2574 C 0.03480 0.57144 0.51841
 H2575 H 0.03966 0.62738 0.56937
 H2576 H 0.04944 0.64700 0.57914
 H2577 H 0.07906 0.64700 0.54946
 H2578 H 0.06927 0.62739 0.53969
 H2579 H 0.01383 0.57542 0.54356
 H2580 H 0.00422 0.55564 0.53394
 H2581 H 0.03380 0.55574 0.50422
 H2582 H 0.04341 0.57551 0.51385
 C2583 C 0.55396 0.12501 0.55388
 C2584 C 0.54881 0.13120 0.56519
 C2585 C 0.55459 0.14262 0.57094
 C2586 C 0.56596 0.14872 0.56581
 C2587 C 0.57112 0.14253 0.55450
 C2588 C 0.56534 0.13110 0.54875
 C2589 C 0.54763 0.11250 0.54758
 N2590 N 0.55270 0.10666 0.53667
 N2591 N 0.54727 0.09593 0.53126
 C2592 C 0.53631 0.09016 0.53633
 N2593 N 0.53123 0.09599 0.54726
 N2594 N 0.53667 0.10673 0.55266
 C2595 C 0.52998 0.07765 0.53004
 C2596 C 0.51865 0.07150 0.53521
 C2597 C 0.51293 0.06001 0.52951
 C2598 C 0.51810 0.05384 0.51820
 C2599 C 0.52943 0.05998 0.51303
 C2600 C 0.53514 0.07147 0.51872
 H2601 H 0.54016 0.12718 0.56972
 H2602 H 0.55004 0.14671 0.57954
 H2603 H 0.57977 0.14654 0.54997
 H2604 H 0.56988 0.12701 0.54015
 H2605 H 0.51413 0.07555 0.54384
 H2606 H 0.50442 0.05585 0.53417
 H2607 H 0.53408 0.05580 0.50453
 H2608 H 0.54378 0.07550 0.51420
 C2609 C 0.55416 0.62483 0.05383
 C2610 C 0.54906 0.63100 0.06519
 C2611 C 0.55487 0.64242 0.07096
 C2612 C 0.56622 0.64856 0.06581
 C2613 C 0.57132 0.64240 0.05446
 C2614 C 0.56552 0.63097 0.04869
 C2615 C 0.54780 0.61231 0.04751
 N2616 N 0.55284 0.60649 0.03656
 N2617 N 0.54738 0.59577 0.03114
 C2618 C 0.53644 0.58998 0.03623
 N2619 N 0.53140 0.59579 0.04718
 N2620 N 0.53686 0.60652 0.05260
 C2621 C 0.53008 0.57745 0.02991
 C2622 C 0.51874 0.57129 0.03507
 C2623 C 0.51300 0.55981 0.02936
 C2624 C 0.51812 0.55364 0.01802
 C2625 C 0.52945 0.55980 0.01285
 C2626 C 0.53519 0.57128 0.01856
 H2627 H 0.54044 0.62697 0.06974
 H2628 H 0.55035 0.64648 0.07959
 H2629 H 0.57995 0.64643 0.04990
 H2630 H 0.57004 0.62691 0.04006
 H2631 H 0.51424 0.57533 0.04373
 H2632 H 0.50449 0.55566 0.03403
 H2633 H 0.53408 0.55563 0.00433
 H2634 H 0.54383 0.57530 0.01402
 C2635 C 0.69550 0.12528 0.55442
 C2636 C 0.68420 0.11910 0.54920
 C2637 C 0.67842 0.10761 0.55487
 C2638 C 0.68348 0.10138 0.56625
 C2639 C 0.69479 0.10759 0.57146
 C2640 C 0.70056 0.11908 0.56577
 C2641 C 0.70185 0.13788 0.54818
 N2642 N 0.71275 0.14370 0.55334
 N2643 N 0.71819 0.15448 0.54801
 C2644 C 0.71318 0.16034 0.53706
 N2645 N 0.70227 0.15453 0.53190
 N2646 N 0.69683 0.14375 0.53724
 C2647 C 0.71953 0.17293 0.53082
 C2648 C 0.71444 0.17916 0.51949
 C2649 C 0.72020 0.19067 0.51382
 C2650 C 0.73153 0.19681 0.51902
 C2651 C 0.73661 0.19061 0.53037
 C2652 C 0.73084 0.17910 0.53604
 H2653 H 0.67971 0.12318 0.54056
 H2654 H 0.66983 0.10360 0.55021
 H2655 H 0.69934 0.10357 0.58010
 H2656 H 0.70915 0.12313 0.57038
 H2657 H 0.70582 0.17515 0.51491
 H2658 H 0.71561 0.19484 0.50528
 H2659 H 0.74512 0.19473 0.53505
 H2660 H 0.73533 0.17504 0.54469
 C2661 C 0.69607 0.62593 0.05369
 C2662 C 0.68477 0.61973 0.04850
 C2663 C 0.67907 0.60820 0.05417
 C2664 C 0.68424 0.60198 0.06547
 C2665 C 0.69555 0.60818 0.07065
 C2666 C 0.70124 0.61971 0.06499
 C2667 C 0.70231 0.63856 0.04748
 N2668 N 0.71322 0.64440 0.05260
 N2669 N 0.71857 0.65522 0.04727
 C2670 C 0.71347 0.66110 0.03638
 N2671 N 0.70256 0.65526 0.03126
 N2672 N 0.69720 0.64444 0.03659
 C2673 C 0.71972 0.67372 0.03016
 C2674 C 0.71454 0.67997 0.01888
 C2675 C 0.72022 0.69151 0.01324
 C2676 C 0.73155 0.69767 0.01841
 C2677 C 0.73671 0.69144 0.02970
 C2678 C 0.73103 0.67990 0.03535
 H2679 H 0.68020 0.62383 0.03991
 H2680 H 0.67048 0.60413 0.04959
 H2681 H 0.70011 0.60409 0.07925
 H2682 H 0.70983 0.62378 0.06956
 H2683 H 0.70591 0.67594 0.01433
 H2684 H 0.71557 0.69570 0.00473
 H2685 H 0.74524 0.69558 0.03436
 H2686 H 0.73558 0.67582 0.04396
 C2687 C 0.19651 0.62547 0.69642
 C2688 C 0.20166 0.63166 0.68509
 C2689 C 0.19593 0.64314 0.67938
 C2690 C 0.18461 0.64932 0.68455
 C2691 C 0.17946 0.64313 0.69587
 C2692 C 0.18519 0.63165 0.70158
 C2693 C 0.20280 0.61289 0.70268
 N2694 N 0.19771 0.60706 0.71360
 N2695 N 0.20310 0.59628 0.71898
 C2696 C 0.21402 0.59045 0.71387
 N2697 N 0.21910 0.59628 0.70295
 N2698 N 0.21371 0.60706 0.69758
 C2699 C 0.22029 0.57786 0.72014
 C2700 C 0.23159 0.57166 0.71495
 C2701 C 0.23726 0.56012 0.72061
 C2702 C 0.23209 0.55393 0.73192
 C2703 C 0.22079 0.56013 0.73711
 C2704 C 0.21513 0.57167 0.73145
 H2705 H 0.21027 0.62760 0.68053
 H2706 H 0.20048 0.64721 0.67076
 H2707 H 0.17085 0.64719 0.70044
 H2708 H 0.18065 0.62757 0.71020
 H2709 H 0.23612 0.57571 0.70632
 H2710 H 0.24575 0.55594 0.71593
 H2711 H 0.21613 0.55596 0.74561
 H2712 H 0.20651 0.57573 0.73600
 C2713 C 0.19628 0.12509 0.19553
 C2714 C 0.18499 0.13131 0.20069
 C2715 C 0.17924 0.14276 0.19493
 C2716 C 0.18435 0.14889 0.18353
 C2717 C 0.19566 0.14265 0.17837
 C2718 C 0.20139 0.13120 0.18415
 C2719 C 0.20257 0.11255 0.20186
 N2720 N 0.21347 0.10667 0.19677
 N2721 N 0.21886 0.09592 0.20221
 C2722 C 0.21379 0.09016 0.21318
 N2723 N 0.20290 0.09604 0.21827
 N2724 N 0.19751 0.10679 0.21284
 C2725 C 0.22008 0.07762 0.21951
 C2726 C 0.21492 0.07149 0.23087
 C2727 C 0.22060 0.05998 0.23659
 C2728 C 0.23189 0.05375 0.23142
 C2729 C 0.23704 0.05988 0.22007
 C2730 C 0.23136 0.07138 0.21435
 H2731 H 0.18047 0.12730 0.20935
 H2732 H 0.17065 0.14681 0.19954
 H2733 H 0.20023 0.14661 0.16971
 H2734 H 0.20998 0.12709 0.17959
 H2735 H 0.20631 0.07557 0.23541
 H2736 H 0.21595 0.05586 0.24512
 H2737 H 0.24552 0.05567 0.21540
 H2738 H 0.23589 0.07538 0.20569
 C2739 C 0.69562 1.12442 0.69532
 C2740 C 0.70074 1.13058 0.68397
 C2741 C 0.69503 1.14208 0.67827
 C2742 C 0.68373 1.14832 0.68348
 C2743 C 0.67862 1.14213 0.69484
 C2744 C 0.68435 1.13063 0.70053
 C2745 C 0.70189 1.11182 0.70157
 N2746 N 0.69681 1.10599 0.71249
 N2747 N 0.70219 1.09520 0.71785
 C2748 C 0.71309 1.08935 0.71273
 N2749 N 0.71816 1.09518 0.70180
 N2750 N 0.71279 1.10597 0.69644
 C2751 C 0.71936 1.07676 0.71899
 C2752 C 0.73067 1.07058 0.71381
 C2753 C 0.73637 1.05907 0.71951
 C2754 C 0.73122 1.05289 0.73083
 C2755 C 0.71988 1.05905 0.73598
 C2756 C 0.71419 1.07056 0.73029
 H2757 H 0.70931 1.12649 0.67938
 H2758 H 0.69959 1.14609 0.66964
 H2759 H 0.67005 1.14617 0.69949
 H2760 H 0.67983 1.12657 0.70916
 H2761 H 0.73521 1.07463 0.70519
 H2762 H 0.74491 1.05492 0.71487
 H2763 H 0.71524 1.05490 0.74450
 H2764 H 0.70555 1.07460 0.73482
 C2765 C 0.69627 0.62499 0.19562
 C2766 C 0.70135 0.63114 0.18424
 C2767 C 0.69554 0.64255 0.17846
 C2768 C 0.68419 0.64869 0.18361
 C2769 C 0.67911 0.64255 0.19499
 C2770 C 0.68492 0.63114 0.20077
 C2771 C 0.70264 0.61249 0.20196
 N2772 N 0.69763 0.60671 0.21294
 N2773 N 0.70309 0.59600 0.21838
 C2774 C 0.71402 0.59019 0.21328
 N2775 N 0.71903 0.59597 0.20229
 N2776 N 0.71356 0.60668 0.19686
 C2777 C 0.72038 0.57769 0.21962
 C2778 C 0.73168 0.57149 0.21442
 C2779 C 0.73742 0.56001 0.22014
 C2780 C 0.73234 0.55389 0.23153
 C2781 C 0.72104 0.56009 0.23673
 C2782 C 0.71530 0.57156 0.23100
 H2783 H 0.70997 0.62709 0.17968
 H2784 H 0.70004 0.64658 0.16981
 H2785 H 0.67048 0.64659 0.19954
 H2786 H 0.68042 0.62710 0.20942
 H2787 H 0.73615 0.57548 0.20573
 H2788 H 0.74590 0.55582 0.21545
 H2789 H 0.71644 0.55596 0.24528
 H2790 H 0.70669 0.57562 0.23557
 C2791 C 0.55384 0.12448 0.69571
 C2792 C 0.54866 0.11830 0.68440
 C2793 C 0.55441 0.10685 0.67860
 C2794 C 0.56580 0.10068 0.68367
 C2795 C 0.57097 0.10689 0.69500
 C2796 C 0.56521 0.11833 0.70078
 C2797 C 0.54753 0.13703 0.70207
 N2798 N 0.55265 0.14284 0.71299
 N2799 N 0.54725 0.15358 0.71844
 C2800 C 0.53629 0.15941 0.71342
 N2801 N 0.53118 0.15360 0.70249
 N2802 N 0.53658 0.14286 0.69705
 C2803 C 0.53000 0.17195 0.71978
 C2804 C 0.51866 0.17816 0.71467
 C2805 C 0.51298 0.18967 0.72042
 C2806 C 0.51816 0.19582 0.73175
 C2807 C 0.52949 0.18961 0.73686
 C2808 C 0.53518 0.17811 0.73111
 H2809 H 0.54001 0.12234 0.67990
 H2810 H 0.54978 0.10283 0.67000
 H2811 H 0.57963 0.10291 0.69955
 H2812 H 0.56980 0.12240 0.70938
 H2813 H 0.51411 0.17415 0.70604
 H2814 H 0.50446 0.19385 0.71579
 H2815 H 0.53417 0.19375 0.74537
 H2816 H 0.54382 0.17406 0.73561
 C2817 C 1.05377 0.12430 0.19613
 C2818 C 1.04865 0.11812 0.18479
 C2819 C 1.05440 0.10664 0.17907
 C2820 C 1.06572 0.10047 0.18425
 C2821 C 1.07084 0.10665 0.19559
 C2822 C 1.06509 0.11813 0.20131
 C2823 C 1.04747 0.13687 0.20240
 N2824 N 1.05252 0.14269 0.21335
 N2825 N 1.04711 0.15346 0.21873
 C2826 C 1.03621 0.15930 0.21360
 N2827 N 1.03116 0.15348 0.20265
 N2828 N 1.03657 0.14271 0.19728
 C2829 C 1.02991 0.17187 0.21987
 C2830 C 1.01864 0.17809 0.21465
 C2831 C 1.01296 0.18963 0.22031
 C2832 C 1.01809 0.19579 0.23166
 C2833 C 1.02936 0.18957 0.23688
 C2834 C 1.03504 0.17803 0.23122
 H2835 H 1.04004 0.12218 0.18022
 H2836 H 1.04987 0.10258 0.17045
 H2837 H 1.07945 0.10260 0.20016
 H2838 H 1.06962 0.12219 0.20993
 H2839 H 1.01415 0.17407 0.20599
 H2840 H 1.00450 0.19384 0.21561
 H2841 H 1.03399 0.19372 0.24541
 H2842 H 1.04363 0.17396 0.23580
 C2843 C 0.19646 0.62521 0.55350
 C2844 C 0.20160 0.61902 0.56483
 C2845 C 0.19587 0.60753 0.57054
 C2846 C 0.18456 0.60135 0.56536
 C2847 C 0.17941 0.60754 0.55404
 C2848 C 0.18514 0.61903 0.54833
 C2849 C 0.20274 0.63780 0.54724
 N2850 N 0.19766 0.64364 0.53632
 N2851 N 0.20304 0.65442 0.53096
 C2852 C 0.21395 0.66026 0.53607
 N2853 N 0.21903 0.65442 0.54699
 N2854 N 0.21365 0.64363 0.55236
 C2855 C 0.22023 0.67285 0.52981
 C2856 C 0.23153 0.67905 0.53500
 C2857 C 0.23719 0.69060 0.52935
 C2858 C 0.23203 0.69679 0.51803
 C2859 C 0.22073 0.69059 0.51284
 C2860 C 0.21507 0.67905 0.51850
 H2861 H 0.21021 0.62308 0.56940
 H2862 H 0.20042 0.60346 0.57915
 H2863 H 0.17081 0.60348 0.54947
 H2864 H 0.18060 0.62310 0.53972
 H2865 H 0.23606 0.67500 0.54363
 H2866 H 0.24568 0.69478 0.53403
 H2867 H 0.21607 0.69477 0.50434
 H2868 H 0.20645 0.67499 0.51394
 C2869 C 0.19591 0.12502 1.05438
 C2870 C 0.18461 0.11885 1.04917
 C2871 C 0.17889 0.10732 1.05481
 C2872 C 0.18404 0.10107 1.06610
 C2873 C 0.19534 0.10724 1.07131
 C2874 C 0.20106 0.11877 1.06567
 C2875 C 0.20218 0.13766 1.04819
 N2876 N 0.21308 0.14348 1.05333
 N2877 N 0.21846 0.15430 1.04803
 C2878 C 0.21337 0.16019 1.03713
 N2879 N 0.20247 0.15437 1.03199
 N2880 N 0.19709 0.14355 1.03730
 C2881 C 0.21965 0.17282 1.03094
 C2882 C 0.21449 0.17907 1.01965
 C2883 C 0.22018 0.19061 1.01402
 C2884 C 0.23150 0.19677 1.01921
 C2885 C 0.23664 0.19054 1.03052
 C2886 C 0.23095 0.17900 1.03615
 H2887 H 0.18006 0.12296 1.04058
 H2888 H 0.17029 0.10327 1.05022
 H2889 H 0.19990 0.10314 1.07991
 H2890 H 0.20965 0.12283 1.07026
 H2891 H 0.20586 0.17504 1.01508
 H2892 H 0.21555 0.19480 1.00551
 H2893 H 0.24516 0.19468 1.03519
 H2894 H 0.23548 0.17491 1.04476
 C2895 C 0.19650 0.69699 0.62517
 C2896 C 0.18517 0.70213 0.63136
 C2897 C 0.17944 0.69637 0.64282
 C2898 C 0.18460 0.68503 0.64897
 C2899 C 0.19593 0.67990 0.64278
 C2900 C 0.20166 0.68566 0.63132
 C2901 C 0.20278 0.70331 0.61261
 N2902 N 0.21371 0.69824 0.60678
 N2903 N 0.21909 0.70366 0.59602
 C2904 C 0.21399 0.71458 0.59021
 N2905 N 0.20306 0.71965 0.59604
 N2906 N 0.19767 0.71423 0.60680
 C2907 C 0.22027 0.72089 0.57765
 C2908 C 0.21508 0.73219 0.57146
 C2909 C 0.22074 0.73788 0.55993
 C2910 C 0.23206 0.73273 0.55374
 C2911 C 0.23725 0.72143 0.55993
 C2912 C 0.23159 0.71574 0.57146
 H2913 H 0.18061 0.71075 0.62731
 H2914 H 0.17082 0.70091 0.64689
 H2915 H 0.20049 0.67128 0.64683
 H2916 H 0.21027 0.68112 0.62725
 H2917 H 0.20644 0.73671 0.57550
 H2918 H 0.21606 0.74637 0.55575
 H2919 H 0.24576 0.71678 0.55576
 H2920 H 0.23614 0.70712 0.57550
 C2921 C 0.19593 0.19520 1.12486
 C2922 C 0.18465 0.20036 1.13109
 C2923 C 0.17898 0.19466 1.14261
 C2924 C 0.18417 0.18333 1.14882
 C2925 C 0.19548 0.17818 1.14255
 C2926 C 0.20113 0.18390 1.13103
 C2927 C 0.20213 0.20146 1.11223
 N2928 N 0.21303 0.19638 1.10634
 N2929 N 0.21834 0.20175 1.09553
 C2930 C 0.21320 0.21265 1.08971
 N2931 N 0.20230 0.21774 1.09559
 N2932 N 0.19699 0.21236 1.10641
 C2933 C 0.21940 0.21893 1.07709
 C2934 C 0.21419 0.23022 1.07091
 C2935 C 0.21983 0.23592 1.05937
 C2936 C 0.23114 0.23078 1.05317
 C2937 C 0.23634 0.21947 1.05933
 C2938 C 0.23070 0.21377 1.07086
 H2939 H 0.18007 0.20896 1.12703
 H2940 H 0.17039 0.19926 1.14667
 H2941 H 0.20011 0.16958 1.14656
 H2942 H 0.20972 0.17934 1.12692
 H2943 H 0.20556 0.23474 1.07498
 H2944 H 0.21516 0.24444 1.05523
 H2945 H 0.24486 0.21485 1.05515
 H2946 H 0.23527 0.20515 1.07489
 C2947 C 0.69631 0.55413 0.12470
 C2948 C 0.70143 0.56551 0.11859
 C2949 C 0.69569 0.57129 0.10714
 C2950 C 0.68438 0.56613 0.10093
 C2951 C 0.67926 0.55476 0.10704
 C2952 C 0.68500 0.54898 0.11849
 C2953 C 0.70261 0.54780 0.13724
 N2954 N 0.69754 0.53684 0.14302
 N2955 N 0.70294 0.53140 0.15377
 C2956 C 0.71386 0.53648 0.15962
 N2957 N 0.71893 0.54744 0.15384
 N2958 N 0.71353 0.55287 0.14309
 C2959 C 0.72015 0.53015 0.17216
 C2960 C 0.73147 0.53530 0.17836
 C2961 C 0.73716 0.52958 0.18986
 C2962 C 0.73200 0.51824 0.19602
 C2963 C 0.72068 0.51309 0.18982
 C2964 C 0.71499 0.51881 0.17832
 H2965 H 0.71003 0.57006 0.12268
 H2966 H 0.70022 0.57994 0.10313
 H2967 H 0.67066 0.55020 0.10296
 H2968 H 0.68048 0.54033 0.12250
 H2969 H 0.73600 0.54394 0.17434
 H2970 H 0.74566 0.53423 0.19404
 H2971 H 0.71602 0.50458 0.19397
 H2972 H 0.70636 0.51429 0.17426
 C2973 C 0.69552 1.05451 0.62546
 C2974 C 0.70067 1.06585 0.61930
 C2975 C 0.69498 1.07158 0.60780
 C2976 C 0.68369 1.06641 0.60155
 C2977 C 0.67854 1.05507 0.60770
 C2978 C 0.68423 1.04934 0.61921
 C2979 C 0.70176 1.04822 0.63808
 N2980 N 0.69667 1.03728 0.64388
 N2981 N 0.70202 1.03190 0.65468
 C2982 C 0.71290 1.03701 0.66057
 N2983 N 0.71799 1.04794 0.65477
 N2984 N 0.71264 1.05333 0.64397
 C2985 C 0.71916 1.03072 0.67318
 C2986 C 0.73044 1.03590 0.67942
 C2987 C 0.73613 1.03020 0.69093
 C2988 C 0.73100 1.01885 0.69709
 C2989 C 0.71970 1.01368 0.69088
 C2990 C 0.71401 1.01938 0.67936
 H2991 H 0.70925 1.07042 0.62341
 H2992 H 0.69954 1.08021 0.60376
 H2993 H 0.66996 1.05050 0.60360
 H2994 H 0.67967 1.04072 0.62325
 H2995 H 0.73497 1.04455 0.67540
 H2996 H 0.74463 1.03486 0.69511
 H2997 H 0.71507 1.00514 0.69501
 H2998 H 0.70540 1.01483 0.67528
 C2999 C 0.55400 0.19625 0.62512
 C3000 C 0.56538 0.20137 0.61903
 C3001 C 0.57116 0.19562 0.60759
 C3002 C 0.56599 0.18432 0.60139
 C3003 C 0.55461 0.17920 0.60749
 C3004 C 0.54884 0.18495 0.61892
 C3005 C 0.54767 0.20254 0.63764
 N3006 N 0.53670 0.19747 0.64339
 N3007 N 0.53126 0.20287 0.65413
 C3008 C 0.53634 0.21377 0.65999
 N3009 N 0.54731 0.21884 0.65424
 N3010 N 0.55275 0.21344 0.64350
 C3011 C 0.53001 0.22005 0.67251
 C3012 C 0.53518 0.23134 0.67873
 C3013 C 0.52946 0.23701 0.69023
 C3014 C 0.51811 0.23185 0.69635
 C3015 C 0.51294 0.22056 0.69012
 C3016 C 0.51866 0.21489 0.67862
 H3017 H 0.56994 0.20996 0.62313
 H3018 H 0.57982 0.20014 0.60358
 H3019 H 0.55005 0.17061 0.60340
 H3020 H 0.54018 0.18043 0.62293
 H3021 H 0.54384 0.23586 0.67473
 H3022 H 0.53413 0.24549 0.69445
 H3023 H 0.50441 0.21590 0.69426
 H3024 H 0.51412 0.20628 0.67454
 C3025 C 1.05417 0.19548 0.12468
 C3026 C 1.06554 0.20056 0.11853
 C3027 C 1.07128 0.19478 0.10708
 C3028 C 1.06610 0.18345 0.10088
 C3029 C 1.05471 0.17838 0.10706
 C3030 C 1.04898 0.18417 0.11851
 C3031 C 1.04787 0.20183 0.13722
 N3032 N 1.03691 0.19681 0.14304
 N3033 N 1.03152 0.20226 0.15379
 C3034 C 1.03665 0.21317 0.15960
 N3035 N 1.04761 0.21819 0.15378
 N3036 N 1.05300 0.21275 0.14304
 C3037 C 1.03036 0.21952 0.17214
 C3038 C 1.03556 0.23083 0.17831
 C3039 C 1.02988 0.23657 0.18982
 C3040 C 1.01853 0.23146 0.19600
 C3041 C 1.01334 0.22014 0.18983
 C3042 C 1.01902 0.21441 0.17833
 H3043 H 1.07012 0.20916 0.12259
 H3044 H 1.07993 0.19932 0.10308
 H3045 H 1.05008 0.16978 0.10305
 H3046 H 1.04033 0.17967 0.12256
 H3047 H 1.04421 0.23533 0.17427
 H3048 H 1.03456 0.24506 0.19397
 H3049 H 1.00481 0.21552 0.19400
 H3050 H 1.01446 0.20579 0.17430
 C3051 C 0.62493 0.19540 0.69618
 C3052 C 0.63107 0.20056 0.68484
 C3053 C 0.64247 0.19478 0.67902
 C3054 C 0.64861 0.18340 0.68410
 C3055 C 0.64247 0.17824 0.69544
 C3056 C 0.63106 0.18402 0.70126
 C3057 C 0.61243 0.20174 0.70256
 N3058 N 0.60662 0.19663 0.71348
 N3059 N 0.59591 0.20206 0.71895
 C3060 C 0.59014 0.21305 0.71395
 N3061 N 0.59595 0.21817 0.70303
 N3062 N 0.60666 0.21273 0.69756
 C3063 C 0.57764 0.21939 0.72033
 C3064 C 0.57153 0.23079 0.71526
 C3065 C 0.56006 0.23651 0.72101
 C3066 C 0.55386 0.23130 0.73229
 C3067 C 0.55997 0.21990 0.73736
 C3068 C 0.57144 0.21418 0.73161
 H3069 H 0.62703 0.20921 0.68034
 H3070 H 0.64651 0.19934 0.67040
 H3071 H 0.64651 0.16958 0.69994
 H3072 H 0.62702 0.17946 0.70988
 H3073 H 0.57559 0.23536 0.70666
 H3074 H 0.55594 0.24508 0.71642
 H3075 H 0.55577 0.21520 0.74583
 H3076 H 0.57543 0.20548 0.73607
 C3077 C 1.12538 0.19581 0.19595
 C3078 C 1.13157 0.18449 0.20110
 C3079 C 1.14300 0.17872 0.19531
 C3080 C 1.14911 0.18384 0.18394
 C3081 C 1.14293 0.19516 0.17879
 C3082 C 1.13150 0.20092 0.18457
 C3083 C 1.11286 0.20213 0.20229
 N3084 N 1.10703 0.21305 0.19721
 N3085 N 1.09630 0.21847 0.20264
 C3086 C 1.09052 0.21341 0.21360
 N3087 N 1.09635 0.20249 0.21868
 N3088 N 1.10708 0.19707 0.21325
 C3089 C 1.07799 0.21973 0.21994
 C3090 C 1.07184 0.21458 0.23127
 C3091 C 1.06034 0.22028 0.23698
 C3092 C 1.05416 0.23160 0.23182
 C3093 C 1.06032 0.23675 0.22049
 C3094 C 1.07181 0.23105 0.21478
 H3095 H 1.12755 0.17996 0.20974
 H3096 H 1.14707 0.17011 0.19987
 H3097 H 1.14694 0.19968 0.17014
 H3098 H 1.12742 0.20953 0.18002
 H3099 H 1.07588 0.20594 0.23580
 H3100 H 1.05618 0.21563 0.24550
 H3101 H 1.05614 0.24525 0.21583
 H3102 H 1.07584 0.23557 0.20613
 C3103 C 0.12475 0.69674 0.55332
 C3104 C 0.11860 0.68539 0.54821
 C3105 C 0.10714 0.67964 0.55396
 C3106 C 0.10094 0.68482 0.56527
 C3107 C 0.10710 0.69617 0.57038
 C3108 C 0.11856 0.70192 0.56463
 C3109 C 0.13732 0.70304 0.54702
 N3110 N 0.14311 0.71401 0.55207
 N3111 N 0.15387 0.71940 0.54667
 C3112 C 0.15973 0.71429 0.53577
 N3113 N 0.15394 0.70332 0.53073
 N3114 N 0.14318 0.69792 0.53613
 C3115 C 0.17230 0.72058 0.52948
 C3116 C 0.17854 0.71537 0.51821
 C3117 C 0.19006 0.72106 0.51253
 C3118 C 0.19621 0.73242 0.51766
 C3119 C 0.18997 0.73763 0.52892
 C3120 C 0.17844 0.73195 0.53460
 H3121 H 0.12268 0.68082 0.53961
 H3122 H 0.10310 0.67101 0.54943
 H3123 H 0.10302 0.70075 0.57898
 H3124 H 0.12260 0.71055 0.56916
 H3125 H 0.17453 0.70671 0.51371
 H3126 H 0.19428 0.71635 0.50407
 H3127 H 0.19410 0.74617 0.53355
 H3128 H 0.17435 0.73652 0.54319
 C3129 C 0.12544 0.19542 1.05427
 C3130 C 0.11924 0.18412 1.04910
 C3131 C 0.10772 0.17843 1.05479
 C3132 C 0.10151 0.18361 1.06609
 C3133 C 0.10772 0.19491 1.07126
 C3134 C 0.11924 0.20060 1.06557
 C3135 C 0.13806 0.20166 1.04803
 N3136 N 0.14391 0.21256 1.05314
 N3137 N 0.15472 0.21791 1.04779
 C3138 C 0.16058 0.21280 1.03689
 N3139 N 0.15473 0.20190 1.03178
 N3140 N 0.14392 0.19655 1.03713
 C3141 C 0.17319 0.21905 1.03066
 C3142 C 0.17942 0.21388 1.01936
 C3143 C 0.19095 0.21955 1.01370
 C3144 C 0.19713 0.23087 1.01888
 C3145 C 0.19093 0.23603 1.03019
 C3146 C 0.17939 0.23035 1.03585
 H3147 H 0.12332 0.17955 1.04050
 H3148 H 0.10364 0.16983 1.05022
 H3149 H 0.10364 0.19949 1.07986
 H3150 H 0.12332 0.20920 1.07014
 H3151 H 0.17537 0.20525 1.01481
 H3152 H 0.19513 0.21491 1.00519
 H3153 H 0.19508 0.24455 1.03485
 H3154 H 0.17533 0.23489 1.04447
 C3155 C 0.62507 0.55396 0.19616
 C3156 C 0.61895 0.56534 0.20125
 C3157 C 0.60751 0.57111 0.19549
 C3158 C 0.60131 0.56593 0.18419
 C3159 C 0.60743 0.55455 0.17909
 C3160 C 0.61887 0.54879 0.18485
 C3161 C 0.63760 0.54764 0.20247
 N3162 N 0.64338 0.53667 0.19742
 N3163 N 0.65413 0.53125 0.20283
 C3164 C 0.65997 0.53635 0.21374
 N3165 N 0.65419 0.54732 0.21879
 N3166 N 0.64345 0.55274 0.21338
 C3167 C 0.67251 0.53003 0.22005
 C3168 C 0.67872 0.53521 0.23135
 C3169 C 0.69022 0.52950 0.23704
 C3170 C 0.69637 0.51816 0.23190
 C3171 C 0.69017 0.51298 0.22060
 C3172 C 0.67866 0.51869 0.21491
 H3173 H 0.62304 0.56991 0.20985
 H3174 H 0.60349 0.57977 0.20000
 H3175 H 0.60334 0.54998 0.17050
 H3176 H 0.62289 0.54013 0.18034
 H3177 H 0.67470 0.54386 0.23586
 H3178 H 0.69442 0.53418 0.24553
 H3179 H 0.69431 0.50446 0.21595
 H3180 H 0.67460 0.51414 0.20629
 C3181 C 0.62525 1.05418 0.69574
 C3182 C 0.61906 1.04898 0.68444
 C3183 C 0.60753 1.05464 0.67873
 C3184 C 0.60129 1.06594 0.68388
 C3185 C 0.60748 1.07114 0.69518
 C3186 C 0.61901 1.06548 0.70089
 C3187 C 0.63789 1.04798 0.70200
 N3188 N 0.64372 1.05313 0.71290
 N3189 N 0.65455 1.04781 0.71827
 C3190 C 0.66043 1.03691 0.71319
 N3191 N 0.65460 1.03177 0.70230
 N3192 N 0.64377 1.03708 0.69692
 C3193 C 0.67306 1.03071 0.71947
 C3194 C 0.67930 1.01941 0.71432
 C3195 C 0.69084 1.01377 0.72002
 C3196 C 0.69702 1.01897 0.73133
 C3197 C 0.69080 1.03029 0.73646
 C3198 C 0.67925 1.03592 0.73076
 H3199 H 0.62316 1.04039 0.67988
 H3200 H 0.60347 1.05005 0.67013
 H3201 H 0.60338 1.07974 0.69973
 H3202 H 0.62307 1.07008 0.70948
 H3203 H 0.67526 1.01483 0.70570
 H3204 H 0.69502 1.00525 0.71539
 H3205 H 0.69494 1.03496 0.74497
 H3206 H 0.67518 1.04455 0.73528
 C3207 C 0.87438 0.44537 0.30469
 C3208 C 0.88054 0.43403 0.29955
 C3209 C 0.89200 0.42828 0.30528
 C3210 C 0.89820 0.43342 0.31661
 C3211 C 0.89204 0.44476 0.32176
 C3212 C 0.88057 0.45051 0.31602
 C3213 C 0.86181 0.45168 0.29840
 N3214 N 0.85601 0.46263 0.30347
 N3215 N 0.84525 0.46803 0.29807
 C3216 C 0.83940 0.46294 0.28716
 N3217 N 0.84521 0.45200 0.28209
 N3218 N 0.85597 0.44659 0.28749
 C3219 C 0.82685 0.46926 0.28085
 C3220 C 0.82064 0.46408 0.26955
 C3221 C 0.80917 0.46981 0.26382
 C3222 C 0.80304 0.48118 0.26892
 C3223 C 0.80922 0.48634 0.28024
 C3224 C 0.82070 0.48061 0.28598
 H3225 H 0.87647 0.42948 0.29093
 H3226 H 0.89605 0.41965 0.30073
 H3227 H 0.89610 0.44931 0.33037
 H3228 H 0.87652 0.45913 0.32057
 H3229 H 0.82466 0.45541 0.26505
 H3230 H 0.80501 0.46516 0.25530
 H3231 H 0.80510 0.49490 0.28485
 H3232 H 0.82475 0.48516 0.29460
 C3233 C 0.87497 0.94614 0.80449
 C3234 C 0.88116 0.93482 0.79934
 C3235 C 0.89258 0.92903 0.80513
 C3236 C 0.89870 0.93411 0.81652
 C3237 C 0.89251 0.94543 0.82168
 C3238 C 0.88108 0.95122 0.81589
 C3239 C 0.86245 0.95248 0.79814
 N3240 N 0.85657 0.96337 0.80325
 N3241 N 0.84585 0.96881 0.79781
 C3242 C 0.84011 0.96381 0.78679
 N3243 N 0.84598 0.95292 0.78168
 N3244 N 0.85671 0.94748 0.78713
 C3245 C 0.82759 0.97015 0.78044
 C3246 C 0.82151 0.96509 0.76901
 C3247 C 0.81003 0.97082 0.76327
 C3248 C 0.80377 0.98207 0.76849
 C3249 C 0.80984 0.98713 0.77992
 C3250 C 0.82132 0.98140 0.78566
 H3251 H 0.87715 0.93031 0.79068
 H3252 H 0.89665 0.92042 0.80056
 H3253 H 0.89652 0.94994 0.83034
 H3254 H 0.87701 0.95982 0.82045
 H3255 H 0.82561 0.95652 0.76442
 H3256 H 0.80595 0.96624 0.75468
 H3257 H 0.80561 0.99557 0.78463
 H3258 H 0.82528 0.98585 0.79437
 C3259 C 0.37573 0.30410 0.80454
 C3260 C 0.36948 0.29894 0.81582
 C3261 C 0.35798 0.30468 0.82150
 C3262 C 0.35186 0.31603 0.81634
 C3263 C 0.35811 0.32120 0.80506
 C3264 C 0.36960 0.31545 0.79938
 C3265 C 0.38832 0.29781 0.79832
 N3266 N 0.39421 0.30290 0.78743
 N3267 N 0.40500 0.29750 0.78210
 C3268 C 0.41078 0.28656 0.78720
 N3269 N 0.40489 0.28147 0.79809
 N3270 N 0.39410 0.28687 0.80343
 C3271 C 0.42336 0.28025 0.78097
 C3272 C 0.42951 0.26893 0.78616
 C3273 C 0.44102 0.26320 0.78049
 C3274 C 0.44723 0.26835 0.76918
 C3275 C 0.44111 0.27969 0.76401
 C3276 C 0.42960 0.28542 0.76968
 H3277 H 0.37350 0.29030 0.82038
 H3278 H 0.35386 0.30011 0.83008
 H3279 H 0.35409 0.32983 0.80050
 H3280 H 0.37373 0.32002 0.79080
 H3281 H 0.42543 0.26440 0.79477
 H3282 H 0.44514 0.25467 0.78514
 H3283 H 0.44529 0.28433 0.75550
 H3284 H 0.42559 0.29406 0.76514
 C3285 C 0.87600 0.30423 0.30420
 C3286 C 0.86976 0.29905 0.31548
 C3287 C 0.85826 0.30478 0.32117
 C3288 C 0.85214 0.31614 0.31601
 C3289 C 0.85838 0.32132 0.30473
 C3290 C 0.86987 0.31558 0.29905
 C3291 C 0.88859 0.29794 0.29797
 N3292 N 0.89448 0.30304 0.28709
 N3293 N 0.90526 0.29765 0.28174
 C3294 C 0.91105 0.28670 0.28683
 N3295 N 0.90516 0.28160 0.29771
 N3296 N 0.89437 0.28699 0.30306
 C3297 C 0.92362 0.28041 0.28059
 C3298 C 0.92977 0.26907 0.28575
 C3299 C 0.94128 0.26336 0.28007
 C3300 C 0.94748 0.26852 0.26877
 C3301 C 0.94136 0.27988 0.26363
 C3302 C 0.92986 0.28559 0.26931
 H3303 H 0.87378 0.29042 0.32003
 H3304 H 0.85415 0.30021 0.32974
 H3305 H 0.85436 0.32995 0.30018
 H3306 H 0.87399 0.32015 0.29047
 H3307 H 0.92569 0.26453 0.29436
 H3308 H 0.94540 0.25481 0.28470
 H3309 H 0.94554 0.28453 0.25512
 H3310 H 0.92585 0.29425 0.26478
 C3311 C 0.37457 0.80500 0.44565
 C3312 C 0.38081 0.79983 0.43437
 C3313 C 0.39231 0.80556 0.42870
 C3314 C 0.39847 0.81688 0.43388
 C3315 C 0.39222 0.82205 0.44516
 C3316 C 0.38072 0.81632 0.45083
 C3317 C 0.36196 0.79872 0.45186
 N3318 N 0.35608 0.80380 0.46276
 N3319 N 0.34528 0.79841 0.46809
 C3320 C 0.33947 0.78750 0.46296
 N3321 N 0.34535 0.78242 0.45206
 N3322 N 0.35615 0.78780 0.44674
 C3323 C 0.32687 0.78121 0.46918
 C3324 C 0.32070 0.76991 0.46397
 C3325 C 0.30917 0.76420 0.46962
 C3326 C 0.30297 0.76933 0.48094
 C3327 C 0.30913 0.78065 0.48613
 C3328 C 0.32065 0.78636 0.48048
 H3329 H 0.37677 0.79122 0.42980
 H3330 H 0.39642 0.80099 0.42011
 H3331 H 0.39626 0.83067 0.44974
 H3332 H 0.37660 0.82088 0.45942
 H3333 H 0.32477 0.76539 0.45534
 H3334 H 0.30503 0.75569 0.46495
 H3335 H 0.30495 0.78528 0.49466
 H3336 H 0.32468 0.79498 0.48505
 C3337 C 0.37497 0.30411 0.94618
 C3338 C 0.38109 0.31547 0.95133
 C3339 C 0.39250 0.32130 0.94556
 C3340 C 0.39866 0.31621 0.93420
 C3341 C 0.39254 0.30485 0.92905
 C3342 C 0.38113 0.29902 0.93482
 C3343 C 0.36247 0.29772 0.95250
 N3344 N 0.35669 0.28678 0.94740
 N3345 N 0.34598 0.28130 0.95282
 C3346 C 0.34017 0.28631 0.96378
 N3347 N 0.34595 0.29726 0.96888
 N3348 N 0.35666 0.30274 0.96346
 C3349 C 0.32767 0.27993 0.97010
 C3350 C 0.32151 0.28501 0.98146
 C3351 C 0.31004 0.27925 0.98718
 C3352 C 0.30389 0.26793 0.98199
 C3353 C 0.31005 0.26284 0.97063
 C3354 C 0.32151 0.26860 0.96492
 H3355 H 0.37703 0.31998 0.95997
 H3356 H 0.39652 0.32993 0.95011
 H3357 H 0.39660 0.30033 0.92041
 H3358 H 0.37711 0.29039 0.93027
 H3359 H 0.32553 0.29365 0.98602
 H3360 H 0.30589 0.28386 0.99572
 H3361 H 0.30589 0.25433 0.96595
 H3362 H 0.32554 0.26412 0.95625
 C3363 C 0.80471 0.44571 0.37422
 C3364 C 0.81605 0.45087 0.38037
 C3365 C 0.82179 0.44517 0.39186
 C3366 C 0.81662 0.43387 0.39808
 C3367 C 0.80528 0.42872 0.39194
 C3368 C 0.79955 0.43442 0.38044
 C3369 C 0.79842 0.45197 0.36163
 N3370 N 0.78749 0.44687 0.35582
 N3371 N 0.78210 0.45223 0.34503
 C3372 C 0.78719 0.46314 0.33917
 N3373 N 0.79812 0.46823 0.34499
 N3374 N 0.80351 0.46287 0.35577
 C3375 C 0.78090 0.46940 0.32659
 C3376 C 0.78606 0.48071 0.32040
 C3377 C 0.78035 0.48640 0.30889
 C3378 C 0.76902 0.48125 0.30273
 C3379 C 0.76388 0.46991 0.30890
 C3380 C 0.76959 0.46422 0.32041
 H3381 H 0.82062 0.45946 0.37627
 H3382 H 0.83041 0.44972 0.39589
 H3383 H 0.80071 0.42013 0.39603
 H3384 H 0.79092 0.42987 0.37641
 H3385 H 0.79469 0.48525 0.32443
 H3386 H 0.78498 0.49493 0.30474
 H3387 H 0.75535 0.46527 0.30476
 H3388 H 0.76506 0.45559 0.32446
 C3389 C 0.80427 0.94631 0.87515
 C3390 C 0.81564 0.95146 0.88124
 C3391 C 0.82145 0.94573 0.89269
 C3392 C 0.81633 0.93442 0.89892
 C3393 C 0.80496 0.92928 0.89282
 C3394 C 0.79915 0.93500 0.88138
 C3395 C 0.79789 0.95258 0.86261
 N3396 N 0.78694 0.94748 0.85685
 N3397 N 0.78147 0.95285 0.84611
 C3398 C 0.78651 0.96378 0.84023
 N3399 N 0.79746 0.96888 0.84599
 N3400 N 0.80293 0.96351 0.85673
 C3401 C 0.78014 0.97005 0.82769
 C3402 C 0.78525 0.98137 0.82148
 C3403 C 0.77950 0.98704 0.80998
 C3404 C 0.76817 0.98185 0.80384
 C3405 C 0.76306 0.97052 0.81005
 C3406 C 0.76881 0.96486 0.82155
 H3407 H 0.82018 0.96006 0.87714
 H3408 H 0.83010 0.95028 0.89668
 H3409 H 0.80042 0.92067 0.89693
 H3410 H 0.79050 0.93045 0.87739
 H3411 H 0.79388 0.98593 0.82548
 H3412 H 0.78412 0.99556 0.80579
 H3413 H 0.75455 0.96584 0.80591
 H3414 H 0.76431 0.95621 0.82561
 C3415 C 0.30420 0.80512 0.37538
 C3416 C 0.31549 0.79993 0.36918
 C3417 C 0.32119 0.80563 0.35767
 C3418 C 0.31602 0.81694 0.35148
 C3419 C 0.30473 0.82213 0.35769
 C3420 C 0.29903 0.81643 0.36920
 C3421 C 0.29796 0.79887 0.38798
 N3422 N 0.28704 0.80397 0.39382
 N3423 N 0.28169 0.79861 0.40462
 C3424 C 0.28682 0.78771 0.41048
 N3425 N 0.29773 0.78263 0.40464
 N3426 N 0.30308 0.78798 0.39384
 C3427 C 0.28057 0.78146 0.42307
 C3428 C 0.28580 0.77019 0.42929
 C3429 C 0.28014 0.76450 0.44082
 C3430 C 0.26878 0.76962 0.44696
 C3431 C 0.26357 0.78090 0.44076
 C3432 C 0.26924 0.78659 0.42924
 H3433 H 0.32005 0.79133 0.37325
 H3434 H 0.32978 0.80105 0.35359
 H3435 H 0.30017 0.83074 0.35362
 H3436 H 0.29044 0.82101 0.37328
 H3437 H 0.29446 0.76569 0.42526
 H3438 H 0.28482 0.75601 0.44499
 H3439 H 0.25502 0.78551 0.44490
 H3440 H 0.26466 0.79519 0.42517
 C3441 C 0.30397 0.30390 0.87544
 C3442 C 0.29887 0.31528 0.86931
 C3443 C 0.30467 0.32107 0.85790
 C3444 C 0.31602 0.31592 0.85175
 C3445 C 0.32112 0.30455 0.85789
 C3446 C 0.31531 0.29876 0.86930
 C3447 C 0.29761 0.29756 0.88794
 N3448 N 0.30264 0.28658 0.89371
 N3449 N 0.29719 0.28113 0.90442
 C3450 C 0.28626 0.28622 0.91024
 N3451 N 0.28123 0.29720 0.90447
 N3452 N 0.28668 0.30264 0.89376
 C3453 C 0.27991 0.27987 0.92274
 C3454 C 0.26861 0.28504 0.92894
 C3455 C 0.26289 0.27931 0.94042
 C3456 C 0.26800 0.26793 0.94653
 C3457 C 0.27930 0.26276 0.94032
 C3458 C 0.28502 0.26849 0.92885
 H3459 H 0.29025 0.31983 0.87336
 H3460 H 0.30016 0.32972 0.85387
 H3461 H 0.32974 0.30000 0.85384
 H3462 H 0.31983 0.29012 0.87333
 H3463 H 0.26412 0.29372 0.92495
 H3464 H 0.25441 0.28398 0.94462
 H3465 H 0.28393 0.25421 0.94445
 H3466 H 0.29364 0.26395 0.92479
 C3467 C 0.44595 0.30445 0.87456
 C3468 C 0.43465 0.29930 0.88078
 C3469 C 0.42896 0.30504 0.89227
 C3470 C 0.43413 0.31638 0.89842
 C3471 C 0.44543 0.32153 0.89220
 C3472 C 0.45112 0.31578 0.88071
 C3473 C 0.45219 0.29815 0.86197
 N3474 N 0.46312 0.30320 0.85612
 N3475 N 0.46846 0.29779 0.84534
 C3476 C 0.46332 0.28689 0.83952
 N3477 N 0.45239 0.28184 0.84537
 N3478 N 0.44704 0.28725 0.85615
 C3479 C 0.46956 0.28057 0.82694
 C3480 C 0.46431 0.26930 0.82074
 C3481 C 0.46997 0.26357 0.80924
 C3482 C 0.48135 0.26863 0.80309
 C3483 C 0.48659 0.27992 0.80927
 C3484 C 0.48092 0.28566 0.82077
 H3485 H 0.43008 0.29068 0.87674
 H3486 H 0.42036 0.30049 0.89636
 H3487 H 0.45000 0.33015 0.89624
 H3488 H 0.45972 0.32033 0.87661
 H3489 H 0.45564 0.26483 0.82477
 H3490 H 0.46528 0.25508 0.80508
 H3491 H 0.49515 0.28449 0.80513
 H3492 H 0.48551 0.29425 0.82482
 C3493 C 0.94619 0.30443 0.37418
 C3494 C 0.95133 0.31579 0.38032
 C3495 C 0.94562 0.32153 0.39181
 C3496 C 0.93434 0.31634 0.39805
 C3497 C 0.92920 0.30499 0.39190
 C3498 C 0.93491 0.29925 0.38042
 C3499 C 0.95244 0.29814 0.36160
 N3500 N 0.94734 0.28720 0.35580
 N3501 N 0.95270 0.28180 0.34502
 C3502 C 0.96359 0.28690 0.33914
 N3503 N 0.96869 0.29784 0.34493
 N3504 N 0.96333 0.30324 0.35572
 C3505 C 0.96985 0.28059 0.32656
 C3506 C 0.98115 0.28574 0.32034
 C3507 C 0.98682 0.28000 0.30884
 C3508 C 0.98166 0.26866 0.30270
 C3509 C 0.97033 0.26353 0.30891
 C3510 C 0.96466 0.26926 0.32041
 H3511 H 0.95991 0.32037 0.37621
 H3512 H 0.95016 0.33016 0.39584
 H3513 H 0.92062 0.30041 0.39601
 H3514 H 0.93037 0.29062 0.37639
 H3515 H 0.98570 0.29438 0.32435
 H3516 H 0.99534 0.28463 0.30466
 H3517 H 0.96568 0.25500 0.30478
 H3518 H 0.95603 0.26474 0.32448
 C3519 C 0.44557 0.37390 0.80489
 C3520 C 0.45072 0.38006 0.81622
 C3521 C 0.44499 0.39154 0.82196
 C3522 C 0.43367 0.39774 0.81681
 C3523 C 0.42852 0.39157 0.80548
 C3524 C 0.43424 0.38009 0.79974
 C3525 C 0.45184 0.36132 0.79859
 N3526 N 0.44676 0.35550 0.78766
 N3527 N 0.45214 0.34473 0.78226
 C3528 C 0.46306 0.33889 0.78735
 N3529 N 0.46814 0.34470 0.79828
 N3530 N 0.46276 0.35547 0.80368
 C3531 C 0.46935 0.32632 0.78104
 C3532 C 0.48066 0.32012 0.78621
 C3533 C 0.48637 0.30863 0.78048
 C3534 C 0.48123 0.30248 0.76913
 C3535 C 0.46990 0.30866 0.76399
 C3536 C 0.46419 0.32015 0.76971
 H3537 H 0.45933 0.37599 0.82077
 H3538 H 0.44955 0.39559 0.83058
 H3539 H 0.41991 0.39564 0.80092
 H3540 H 0.42969 0.37603 0.79112
 H3541 H 0.48518 0.32414 0.79485
 H3542 H 0.49489 0.30447 0.78512
 H3543 H 0.46527 0.30453 0.75545
 H3544 H 0.45556 0.32420 0.76518
 C3545 C 0.94568 0.37390 0.30456
 C3546 C 0.95086 0.38005 0.31589
 C3547 C 0.94514 0.39152 0.32166
 C3548 C 0.93381 0.39773 0.31655
 C3549 C 0.92864 0.39158 0.30521
 C3550 C 0.93435 0.38011 0.29944
 C3551 C 0.95195 0.36133 0.29822
 N3552 N 0.94683 0.35553 0.28729
 N3553 N 0.95220 0.34477 0.28186
 C3554 C 0.96313 0.33891 0.28691
 N3555 N 0.96825 0.34471 0.29784
 N3556 N 0.96288 0.35548 0.30327
 C3557 C 0.96941 0.32635 0.28057
 C3558 C 0.98074 0.32015 0.28569
 C3559 C 0.98644 0.30867 0.27993
 C3560 C 0.98127 0.30253 0.26859
 C3561 C 0.96992 0.30871 0.26349
 C3562 C 0.96422 0.32019 0.26925
 H3563 H 0.95947 0.37597 0.32042
 H3564 H 0.94971 0.39556 0.33028
 H3565 H 0.92002 0.39565 0.30068
 H3566 H 0.92978 0.37607 0.29083
 H3567 H 0.98529 0.32416 0.29432
 H3568 H 0.99498 0.30451 0.28454
 H3569 H 0.96526 0.30458 0.25496
 H3570 H 0.95557 0.32424 0.26474
 C3571 C 0.30495 0.87482 0.44505
 C3572 C 0.31629 0.88100 0.45019
 C3573 C 0.32204 0.89246 0.44442
 C3574 C 0.31691 0.89863 0.43308
 C3575 C 0.30557 0.89245 0.42795
 C3576 C 0.29982 0.88099 0.43371
 C3577 C 0.29864 0.86226 0.45137
 N3578 N 0.28771 0.85643 0.44630
 N3579 N 0.28230 0.84568 0.45172
 C3580 C 0.28737 0.83986 0.46265
 N3581 N 0.29831 0.84568 0.46773
 N3582 N 0.30372 0.85644 0.46231
 C3583 C 0.28105 0.82730 0.46898
 C3584 C 0.28619 0.82112 0.48032
 C3585 C 0.28045 0.80965 0.48606
 C3586 C 0.26909 0.80350 0.48093
 C3587 C 0.26397 0.80965 0.46958
 C3588 C 0.26972 0.82113 0.46384
 H3589 H 0.32084 0.87695 0.45881
 H3590 H 0.33066 0.89652 0.44897
 H3591 H 0.30102 0.89650 0.41933
 H3592 H 0.29120 0.87693 0.42917
 H3593 H 0.29484 0.82515 0.48484
 H3594 H 0.28507 0.80551 0.49460
 H3595 H 0.25543 0.80552 0.46495
 H3596 H 0.26519 0.82515 0.45519
 C3597 C 0.30448 0.37462 0.94626
 C3598 C 0.31588 0.38073 0.95132
 C3599 C 0.32166 0.39215 0.94552
 C3600 C 0.31649 0.39833 0.93420
 C3601 C 0.30509 0.39221 0.92913
 C3602 C 0.29931 0.38079 0.93494
 C3603 C 0.29814 0.36211 0.95263
 N3604 N 0.28712 0.35637 0.94765
 N3605 N 0.28168 0.34566 0.95311
 C3606 C 0.28682 0.33980 0.96399
 N3607 N 0.29785 0.34553 0.96896
 N3608 N 0.30328 0.35625 0.96351
 C3609 C 0.28048 0.32729 0.97035
 C3610 C 0.28574 0.32103 0.98158
 C3611 C 0.28001 0.30955 0.98733
 C3612 C 0.26856 0.30349 0.98231
 C3613 C 0.26330 0.30975 0.97108
 C3614 C 0.26903 0.32122 0.96533
 H3615 H 0.32045 0.37667 0.95993
 H3616 H 0.33033 0.39617 0.95001
 H3617 H 0.30052 0.39627 0.92053
 H3618 H 0.29064 0.37677 0.93045
 H3619 H 0.29447 0.32497 0.98600
 H3620 H 0.28475 0.30532 0.99576
 H3621 H 0.25470 0.30568 0.96653
 H3622 H 0.26442 0.32533 0.95677
 C3623 C 0.80470 0.37569 0.30409
 C3624 C 0.81604 0.36952 0.29896
 C3625 C 0.82174 0.35803 0.30468
 C3626 C 0.81653 0.35182 0.31596
 C3627 C 0.80520 0.35799 0.32109
 C3628 C 0.79950 0.36949 0.31538
 C3629 C 0.79845 0.38829 0.29782
 N3630 N 0.78753 0.39412 0.30290
 N3631 N 0.78217 0.40491 0.29752
 C3632 C 0.78729 0.41076 0.28662
 N3633 N 0.79822 0.40493 0.28155
 N3634 N 0.80358 0.39413 0.28692
 C3635 C 0.78104 0.42334 0.28034
 C3636 C 0.78623 0.42953 0.26904
 C3637 C 0.78054 0.44104 0.26334
 C3638 C 0.76921 0.44722 0.26848
 C3639 C 0.76404 0.44105 0.27981
 C3640 C 0.76973 0.42954 0.28551
 H3641 H 0.82063 0.37361 0.29037
 H3642 H 0.83037 0.35397 0.30014
 H3643 H 0.80060 0.35391 0.32968
 H3644 H 0.79087 0.37355 0.31991
 H3645 H 0.79486 0.42548 0.26451
 H3646 H 0.78520 0.44519 0.25482
 H3647 H 0.75552 0.44521 0.28444
 H3648 H 0.76518 0.42550 0.29413
   
