data_POSCAR
  _audit_creation_date              2014-09-24
  _audit_creation_method            'ToBaCCo'
  _symmetry_space_group_name_H-M    'P1'
  _symmetry_Int_Tables_number       1
  _symmetry_cell_setting            triclinic
  loop_
  _symmetry_equiv_pos_as_xyz
 x,y,z
_cell_length_a 50.1537
_cell_length_b 50.1576
_cell_length_c 50.0907
_cell_angle_alpha 90.141300
_cell_angle_beta 90.219400
_cell_angle_gamma 90.231500
loop_
  _atom_site_label
  _atom_site_type_symbol
  _atom_site_fract_x
  _atom_site_fract_y
  _atom_site_fract_z
C1 C 0.72502 0.66957 0.96782
 H2 H 0.74430 0.66966 0.95821
 C3 C 0.70372 0.68343 0.95639
 H4 H 0.70661 0.69438 0.93801
 C5 C 0.69710 0.65378 1.00253
 H6 H 0.69427 0.64151 1.01996
 C7 C 0.67534 0.66735 0.99180
 H8 H 0.65598 0.66567 1.00120
 N9 N 0.72131 0.65494 0.99036
 C10 C 0.79901 0.63796 1.02570
 H11 H 0.79650 0.61666 1.02805
 C12 C 0.82236 0.65031 1.03456
 H13 H 0.83788 0.63852 1.04384
 C14 C 0.78178 0.67934 1.01077
 H15 H 0.76582 0.69051 1.00160
 C16 C 0.80493 0.69254 1.01941
 H17 H 0.80681 0.71390 1.01687
 Zn18 Zn 0.74930 0.63267 1.00236
 N19 N 0.77945 0.65246 1.01381
 C20 C 0.78431 0.61148 0.96391
 N21 N 0.75891 0.61047 0.97333
 C22 C 0.73979 0.59559 0.96083
 C23 C 0.74600 0.58094 0.93787
 C24 C 0.79133 0.59714 0.94116
 C25 C 0.73318 0.62662 1.05480
 C26 C 0.72392 0.61380 1.07763
 C27 C 0.72477 0.57197 1.05349
 C28 C 0.73409 0.58565 1.03104
 N29 N 0.73766 0.61256 1.03202
 H30 H 0.79907 0.62395 0.97354
 H31 H 0.71961 0.59559 0.96838
 H32 H 0.73064 0.56945 0.92777
 H33 H 0.81152 0.59840 0.93363
 H34 H 0.73646 0.64795 1.05504
 H35 H 0.71999 0.62539 1.09549
 H36 H 0.72152 0.55061 1.05240
 H37 H 0.73818 0.57482 1.01285
 C38 C 0.82542 0.67780 1.03129
 C39 C 0.67858 0.68200 0.96834
 C40 C 0.71945 0.58626 1.07695
 C41 C 0.77200 0.58190 0.92791
 C42 C 0.72957 0.33712 0.52341
 H43 H 0.74883 0.33611 0.53314
 C44 C 0.70795 0.32283 0.53370
 H45 H 0.71056 0.31064 0.55134
 C46 C 0.70211 0.35544 0.48949
 H47 H 0.69962 0.36879 0.47281
 C48 C 0.68003 0.34149 0.49911
 H49 H 0.66076 0.34397 0.48961
 N50 N 0.72627 0.35315 0.50177
 C51 C 0.80484 0.36962 0.46837
 H52 H 0.80353 0.39113 0.46756
 C53 C 0.82738 0.35680 0.45855
 H54 H 0.84352 0.36845 0.45012
 C55 C 0.78521 0.32815 0.48000
 H56 H 0.76859 0.31711 0.48813
 C57 C 0.80748 0.31448 0.47034
 H58 H 0.80804 0.29291 0.47111
 Zn59 Zn 0.75498 0.37532 0.49113
 N60 N 0.78444 0.35526 0.47903
 C61 C 0.79033 0.39427 0.53101
 N62 N 0.76506 0.39604 0.52121
 C63 C 0.74621 0.41089 0.53382
 C64 C 0.75259 0.42485 0.55722
 C65 C 0.79752 0.40790 0.55426
 C66 C 0.73910 0.38410 0.43891
 C67 C 0.73002 0.39813 0.41670
 C68 C 0.73214 0.43876 0.44271
 C69 C 0.74126 0.42392 0.46451
 N70 N 0.74406 0.39702 0.46232
 H71 H 0.80485 0.38183 0.52123
 H72 H 0.72612 0.41149 0.52592
 H73 H 0.73745 0.43640 0.56732
 H74 H 0.81762 0.40613 0.56205
 H75 H 0.74175 0.36273 0.43770
 H76 H 0.72556 0.38756 0.39832
 H77 H 0.72937 0.46008 0.44467
 H78 H 0.74574 0.43386 0.48316
 C79 C 0.82876 0.32901 0.45957
 C80 C 0.68290 0.32529 0.52157
 C81 C 0.72627 0.42565 0.41869
 C82 C 0.77848 0.42320 0.56755
 C83 C 0.22946 -0.16255 0.02316
 H84 H 0.24873 -0.16351 0.03287
 C85 C 0.20786 -0.17683 0.03352
 H86 H 0.21051 -0.18897 0.05118
 C87 C 0.20194 -0.14437 -0.01079
 H88 H 0.19942 -0.13108 -0.02751
 C89 C 0.17989 -0.15832 -0.00112
 H90 H 0.16061 -0.15590 -0.01060
 N91 N 0.22611 -0.14659 0.00147
 C92 C 0.30456 -0.13017 -0.03223
 H93 H 0.30320 -0.10867 -0.03314
 C94 C 0.32710 -0.14299 -0.04204
 H95 H 0.34319 -0.13136 -0.05057
 C96 C 0.28506 -0.17162 -0.02030
 H97 H 0.26849 -0.18265 -0.01206
 C98 C 0.30733 -0.18529 -0.02996
 H99 H 0.30794 -0.20685 -0.02906
 Zn100 Zn 0.25478 -0.12444 -0.00931
 N101 N 0.28423 -0.14451 -0.02143
 C102 C 0.29026 -0.10536 0.03038
 N103 N 0.26495 -0.10361 0.02066
 C104 C 0.24615 -0.08873 0.03330
 C105 C 0.25262 -0.07472 0.05665
 C106 C 0.29754 -0.09168 0.05356
 C107 C 0.23883 -0.11590 -0.06153
 C108 C 0.22965 -0.10202 -0.08378
 C109 C 0.23162 -0.06124 -0.05792
 C110 C 0.24086 -0.07597 -0.03609
 N111 N 0.24377 -0.10287 -0.03818
 H112 H 0.30473 -0.11784 0.02058
 H113 H 0.22603 -0.08814 0.02548
 H114 H 0.23753 -0.06314 0.06678
 H115 H 0.31766 -0.09345 0.06129
 H116 H 0.24158 -0.13726 -0.06264
 H117 H 0.22524 -0.11280 -0.10207
 H118 H 0.22879 -0.03991 -0.05591
 H119 H 0.24532 -0.06596 -0.01748
 C120 C 0.32854 -0.17077 -0.04087
 C121 C 0.18280 -0.17445 0.02140
 C122 C 0.22573 -0.07447 -0.08192
 C123 C 0.27855 -0.07634 0.06689
 C124 C 0.22544 0.16954 0.46723
 H125 H 0.24472 0.16978 0.45764
 C126 C 0.20407 0.18337 0.45586
 H127 H 0.20693 0.19445 0.43756
 C128 C 0.19755 0.15340 0.50181
 H129 H 0.19477 0.14100 0.51916
 C130 C 0.17574 0.16694 0.49115
 H131 H 0.15638 0.16511 0.50052
 N132 N 0.22177 0.15474 0.48968
 C133 C 0.29952 0.13786 0.52496
 H134 H 0.29707 0.11654 0.52717
 C135 C 0.32282 0.15023 0.53392
 H136 H 0.33836 0.13843 0.54315
 C137 C 0.28217 0.17928 0.51027
 H138 H 0.26619 0.19046 0.50115
 C139 C 0.30527 0.19250 0.51902
 H140 H 0.30709 0.21388 0.51662
 Zn141 Zn 0.24984 0.13253 0.50159
 N142 N 0.27992 0.15237 0.51313
 C143 C 0.28495 0.11165 0.46304
 N144 N 0.25955 0.11048 0.47247
 C145 C 0.24051 0.09552 0.45995
 C146 C 0.24679 0.08094 0.43696
 C147 C 0.29204 0.09740 0.44026
 C148 C 0.23373 0.12622 0.55400
 C149 C 0.22459 0.11326 0.57679
 C150 C 0.22569 0.07154 0.55255
 C151 C 0.23489 0.08533 0.53011
 N152 N 0.23829 0.11226 0.53116
 H153 H 0.29964 0.12418 0.47268
 H154 H 0.22034 0.09539 0.46751
 H155 H 0.23149 0.06938 0.42685
 H156 H 0.31222 0.09878 0.43273
 H157 H 0.23687 0.14758 0.55430
 H158 H 0.22056 0.12464 0.59473
 H159 H 0.22255 0.05018 0.55153
 H160 H 0.23904 0.07457 0.51190
 C161 C 0.32580 0.17774 0.53084
 C162 C 0.17893 0.18175 0.46779
 C163 C 0.22033 0.08572 0.57601
 C164 C 0.27279 0.08207 0.42699
 C165 C 0.17037 0.46717 0.22542
 H166 H 0.17054 0.45766 0.24478
 C167 C 0.18420 0.45572 0.20411
 H168 H 0.19521 0.43742 0.20708
 C169 C 0.15440 0.50163 0.19730
 H170 H 0.14205 0.51897 0.19440
 C171 C 0.16794 0.49088 0.17554
 H172 H 0.16617 0.50015 0.15610
 N173 N 0.15565 0.48959 0.22161
 C174 C 0.13850 0.52491 0.29929
 H175 H 0.11718 0.52707 0.29677
 C176 C 0.15078 0.53395 0.32262
 H177 H 0.13893 0.54316 0.33812
 C178 C 0.17999 0.51033 0.28208
 H179 H 0.19123 0.50124 0.26614
 C180 C 0.19313 0.51916 0.30522
 H181 H 0.21452 0.51683 0.30710
 Zn182 Zn 0.13335 0.50153 0.24959
 N183 N 0.15308 0.51312 0.27975
 C184 C 0.11228 0.46305 0.28474
 N185 N 0.11123 0.47245 0.25930
 C186 C 0.09634 0.45994 0.24019
 C187 C 0.08171 0.43698 0.24644
 C188 C 0.09797 0.44029 0.29181
 C189 C 0.12712 0.55384 0.23325
 C190 C 0.11416 0.57659 0.22407
 C191 C 0.07242 0.55235 0.22529
 C192 C 0.08620 0.52996 0.23452
 N193 N 0.11313 0.53103 0.23789
 H194 H 0.12476 0.47269 0.29949
 H195 H 0.09631 0.46749 0.21998
 H196 H 0.07021 0.42687 0.23109
 H197 H 0.09926 0.43277 0.31204
 H198 H 0.14847 0.55416 0.23638
 H199 H 0.12555 0.59451 0.22000
 H200 H 0.05105 0.55132 0.22219
 H201 H 0.07542 0.51178 0.23874
 C202 C 0.17830 0.53096 0.32569
 C203 C 0.18266 0.46753 0.17887
 C204 C 0.08662 0.57579 0.21987
 C205 C 0.08272 0.42703 0.27250
 C206 C -0.16382 0.02395 0.22866
 H207 H -0.16489 0.03363 0.24795
 C208 C -0.17800 0.03429 0.20696
 H209 H -0.19016 0.05191 0.20961
 C210 C -0.14545 -0.00987 0.20121
 H211 H -0.13211 -0.02651 0.19876
 C212 C -0.15928 -0.00022 0.17905
 H213 H -0.15669 -0.00972 0.15978
 N214 N -0.14781 0.00235 0.22539
 C215 C -0.13137 -0.03114 0.30404
 H216 H -0.10986 -0.03195 0.30267
 C217 C -0.14414 -0.04099 0.32664
 H218 H -0.13247 -0.04944 0.34276
 C219 C -0.17287 -0.01945 0.28452
 H220 H -0.18394 -0.01128 0.26792
 C221 C -0.18650 -0.02914 0.30686
 H222 H -0.20807 -0.02835 0.30749
 Zn223 Zn -0.12570 -0.00829 0.25417
 N224 N -0.14576 -0.02044 0.28367
 C225 C -0.10674 0.03146 0.28961
 N226 N -0.10494 0.02172 0.26430
 C227 C -0.09000 0.03433 0.24547
 C228 C -0.07595 0.05764 0.25193
 C229 C -0.09303 0.05462 0.29687
 C230 C -0.11695 -0.06043 0.23830
 C231 C -0.10291 -0.08260 0.22930
 C232 C -0.06224 -0.05663 0.23153
 C233 C -0.07708 -0.03486 0.24057
 N234 N -0.10401 -0.03704 0.24328
 H235 H -0.11927 0.02169 0.30410
 H236 H -0.08937 0.02649 0.22535
 H237 H -0.06430 0.06773 0.23682
 H238 H -0.09481 0.06235 0.31700
 H239 H -0.13832 -0.06163 0.24089
 H240 H -0.11349 -0.10096 0.22482
 H241 H -0.04091 -0.05467 0.22882
 H242 H -0.06714 -0.01624 0.24507
 C243 C -0.17193 -0.03995 0.32811
 C244 C -0.17546 0.02224 0.18185
 C245 C -0.07537 -0.08062 0.22563
 C246 C -0.07760 0.06788 0.27787
 C247 C 0.33654 0.52369 0.72978
 H248 H 0.33553 0.53332 0.74909
 C249 C 0.32226 0.53406 0.70816
 H250 H 0.31009 0.55165 0.71083
 C251 C 0.35483 0.48995 0.70218
 H252 H 0.36817 0.47332 0.69963
 C253 C 0.34089 0.49964 0.68010
 H254 H 0.34337 0.49025 0.66077
 N255 N 0.35255 0.50210 0.72640
 C256 C 0.36909 0.46848 0.80497
 H257 H 0.39060 0.46774 0.80363
 C258 C 0.35630 0.45851 0.82750
 H259 H 0.36796 0.45004 0.84361
 C260 C 0.32759 0.48006 0.78538
 H261 H 0.31653 0.48822 0.76877
 C262 C 0.31395 0.47024 0.80764
 H263 H 0.29237 0.47093 0.80821
 Zn264 Zn 0.37473 0.49139 0.75509
 N265 N 0.35471 0.47918 0.78459
 C266 C 0.39380 0.53111 0.79053
 N267 N 0.39551 0.52139 0.76521
 C268 C 0.41036 0.53402 0.74633
 C269 C 0.42439 0.55736 0.75273
 C270 C 0.40750 0.55430 0.79774
 C271 C 0.38342 0.43930 0.73907
 C272 C 0.39743 0.41714 0.72996
 C273 C 0.43811 0.44309 0.73217
 C274 C 0.42330 0.46484 0.74131
 N275 N 0.39638 0.46266 0.74408
 H276 H 0.38136 0.52131 0.80507
 H277 H 0.41092 0.52619 0.72620
 H278 H 0.43595 0.56748 0.73757
 H279 H 0.40577 0.56203 0.81788
 H280 H 0.36205 0.43809 0.74170
 H281 H 0.38682 0.39880 0.72546
 H282 H 0.45944 0.44504 0.72942
 H283 H 0.43327 0.48344 0.74584
 C284 C 0.32850 0.45941 0.82889
 C285 C 0.32472 0.52206 0.68304
 C286 C 0.42495 0.41912 0.72624
 C287 C 0.42281 0.56761 0.77867
 C288 C 0.67101 0.96779 0.72604
 H289 H 0.67125 0.95818 0.74535
 C290 C 0.68479 0.95645 0.70463
 H291 H 0.69583 0.93816 0.70748
 C292 C 0.65489 1.00235 0.69813
 H293 H 0.64250 1.01967 0.69535
 C294 C 0.66838 0.99172 0.67627
 H295 H 0.66653 1.00109 0.65689
 N296 N 0.65623 0.99020 0.72238
 C297 C 0.63905 1.02513 0.80025
 H298 H 0.61773 1.02724 0.79775
 C299 C 0.65132 1.03412 0.82361
 H300 H 0.63938 1.04324 0.83912
 C301 C 0.68057 1.01073 0.78296
 H302 H 0.69182 1.00173 0.76697
 C303 C 0.69372 1.01951 0.80611
 H304 H 0.71512 1.01721 0.80791
 Zn305 Zn 0.63394 1.00195 0.75045
 N306 N 0.65365 1.01345 0.78065
 C307 C 0.61292 0.96328 0.78544
 N308 N 0.61188 0.97278 0.76003
 C309 C 0.59702 0.96032 0.74086
 C310 C 0.58240 0.93733 0.74702
 C311 C 0.59862 0.94048 0.79242
 C312 C 0.62755 1.05432 0.73434
 C313 C 0.61454 1.07703 0.72514
 C314 C 0.57288 1.05264 0.72618
 C315 C 0.58671 1.03029 0.73543
 N316 N 0.61363 1.03145 0.73887
 H317 H 0.62537 0.97288 0.80024
 H318 H 0.59701 0.96795 0.72068
 H319 H 0.57091 0.92728 0.73163
 H320 H 0.59988 0.93290 0.81262
 H321 H 0.64889 1.05471 0.73752
 H322 H 0.62588 1.09500 0.72111
 H323 H 0.55153 1.05153 0.72299
 H324 H 0.57599 1.01206 0.73957
 C325 C 0.67887 1.03120 0.82666
 C326 C 0.68315 0.96837 0.67945
 C327 C 0.58701 1.07613 0.72082
 C328 C 0.58338 0.92729 0.77304
 C329 C 0.02319 0.22885 -0.16251
 H330 H 0.03287 0.24813 -0.16342
 C331 C 0.03361 0.20730 -0.17679
 H332 H 0.05128 0.21001 -0.18887
 C333 C -0.01071 0.20122 -0.14445
 H334 H -0.02742 0.19864 -0.13120
 C335 C -0.00097 0.17923 -0.15840
 H336 H -0.01042 0.15992 -0.15601
 N337 N 0.00151 0.22542 -0.14661
 C338 C -0.03215 0.30378 -0.12997
 H339 H -0.03303 0.30232 -0.10844
 C340 C -0.04198 0.32637 -0.14275
 H341 H -0.05049 0.34240 -0.13105
 C342 C -0.02030 0.28446 -0.17153
 H343 H -0.01208 0.26794 -0.18262
 C344 C -0.02997 0.30679 -0.18515
 H345 H -0.02911 0.30749 -0.20675
 Zn346 Zn -0.00928 0.25398 -0.12437
 N347 N -0.02138 0.28352 -0.14439
 C348 C 0.03040 0.28935 -0.10511
 N349 N 0.02066 0.26404 -0.10345
 C350 C 0.03329 0.24517 -0.08860
 C351 C 0.05664 0.25154 -0.07456
 C352 C 0.05359 0.29654 -0.09140
 C353 C -0.06143 0.23797 -0.11593
 C354 C -0.08367 0.22876 -0.10208
 C355 C -0.05785 0.23063 -0.06120
 C356 C -0.03604 0.23988 -0.07590
 N357 N -0.03811 0.24286 -0.10284
 H358 H 0.02062 0.30390 -0.11756
 H359 H 0.02545 0.22505 -0.08808
 H360 H 0.06676 0.23637 -0.06303
 H361 H 0.06134 0.31665 -0.09311
 H362 H -0.06253 0.24077 -0.13732
 H363 H -0.10194 0.22440 -0.11291
 H364 H -0.05586 0.22776 -0.03984
 H365 H -0.01745 0.24432 -0.06584
 C366 C -0.04086 0.32793 -0.17056
 C367 C 0.02155 0.18221 -0.17446
 C368 C -0.08182 0.22480 -0.07449
 C369 C 0.06690 0.27746 -0.07612
 C370 C 0.46808 0.22540 0.17003
 H371 H 0.45846 0.24467 0.17017
 C372 C 0.45674 0.20404 0.18390
 H373 H 0.43842 0.20688 0.19492
 C374 C 0.50269 0.19756 0.15407
 H375 H 0.52005 0.19479 0.14171
 C376 C 0.49205 0.17575 0.16766
 H377 H 0.50144 0.15641 0.16590
 N378 N 0.49053 0.22176 0.15529
 C379 C 0.52550 0.29956 0.13794
 H380 H 0.52769 0.29703 0.11660
 C381 C 0.53439 0.32294 0.15019
 H382 H 0.54353 0.33847 0.13828
 C383 C 0.51096 0.28232 0.17951
 H384 H 0.50193 0.26635 0.19080
 C385 C 0.51964 0.30550 0.19262
 H386 H 0.51728 0.30740 0.21402
 Zn387 Zn 0.50231 0.24978 0.13290
 N388 N 0.51379 0.27997 0.15258
 C389 C 0.46366 0.28465 0.11178
 N390 N 0.47314 0.25929 0.11079
 C391 C 0.46064 0.24012 0.09599
 C392 C 0.43760 0.24622 0.08141
 C393 C 0.44082 0.29158 0.09751
 C394 C 0.55469 0.23377 0.12658
 C395 C 0.57743 0.22463 0.11360
 C396 C 0.55307 0.22554 0.07187
 C397 C 0.53070 0.23473 0.08567
 N398 N 0.53183 0.23823 0.11262
 H399 H 0.47330 0.29946 0.12419
 H400 H 0.46825 0.21996 0.09600
 H401 H 0.42750 0.23082 0.06999
 H402 H 0.43324 0.31174 0.09876
 H403 H 0.55506 0.23699 0.14795
 H404 H 0.59539 0.22068 0.12499
 H405 H 0.55199 0.22232 0.05050
 H406 H 0.51246 0.23881 0.07491
 C407 C 0.53134 0.32602 0.17773
 C408 C 0.46868 0.17892 0.18239
 C409 C 0.57657 0.22028 0.08605
 C410 C 0.42756 0.27219 0.08236
 C411 C 0.96686 0.72515 0.67085
 H412 H 0.95729 0.74445 0.67111
 C413 C 0.95552 0.70377 0.68470
 H414 H 0.93727 0.70662 0.69582
 C415 C 1.00133 0.69728 0.65463
 H416 H 1.01862 0.69451 0.64219
 C417 C 0.99070 0.67545 0.66819
 H418 H 1.00003 0.65609 0.66634
 N419 N 0.98923 0.72150 0.65600
 C420 C 1.02439 0.79928 0.63900
 H421 H 1.02650 0.79687 0.61765
 C422 C 1.03342 0.82255 0.65136
 H423 H 1.04259 0.83811 0.63952
 C424 C 1.00993 0.78186 0.68052
 H425 H 1.00089 0.76585 0.69175
 C426 C 1.01876 0.80493 0.69374
 H427 H 1.01648 0.80670 0.71516
 Zn428 Zn 1.00107 0.74960 0.63374
 N429 N 1.01266 0.77966 0.65357
 C430 C 0.96252 0.78470 0.61283
 N431 N 0.97195 0.75932 0.61167
 C432 C 0.95946 0.74030 0.59667
 C433 C 0.93651 0.74658 0.58203
 C434 C 0.93977 0.79180 0.59851
 C435 C 1.05340 0.73348 0.62736
 C436 C 1.07614 0.72440 0.61433
 C437 C 1.05184 0.72569 0.57258
 C438 C 1.02946 0.73481 0.58643
 N439 N 1.03056 0.73809 0.61340
 H440 H 0.97214 0.79938 0.62540
 H441 H 0.96702 0.72013 0.59655
 H442 H 0.92643 0.73130 0.57042
 H443 H 0.93225 0.81198 0.59988
 H444 H 1.05375 0.73653 0.64875
 H445 H 1.09408 0.72034 0.62570
 H446 H 1.05078 0.72265 0.55118
 H447 H 1.01125 0.73901 0.57568
 C448 C 1.03049 0.82548 0.67893
 C449 C 0.96740 0.67863 0.68305
 C450 C 1.07530 0.72028 0.58675
 C451 C 0.92655 0.77257 0.58313
 C452 C 0.52343 0.73037 0.33574
 H453 H 0.53313 0.74964 0.33470
 C454 C 0.53372 0.70876 0.32147
 H455 H 0.55132 0.71140 0.30926
 C456 C 0.48963 0.70285 0.35414
 H457 H 0.47300 0.70033 0.36752
 C458 C 0.49924 0.68079 0.34020
 H459 H 0.48979 0.66150 0.34272
 N460 N 0.50186 0.72702 0.35181
 C461 C 0.46849 0.80551 0.36848
 H462 H 0.46774 0.80409 0.39001
 C463 C 0.45861 0.82810 0.35574
 H464 H 0.45021 0.84413 0.36753
 C465 C 0.48003 0.78610 0.32687
 H466 H 0.48814 0.76954 0.31576
 C467 C 0.47030 0.80842 0.31326
 H468 H 0.47104 0.80902 0.29165
 Zn469 Zn 0.49125 0.75568 0.37403
 N470 N 0.47912 0.78521 0.35402
 C471 C 0.53108 0.79100 0.39310
 N472 N 0.52130 0.76572 0.39482
 C473 C 0.53387 0.74686 0.40973
 C474 C 0.55718 0.75324 0.42383
 C475 C 0.55424 0.79820 0.40686
 C476 C 0.43911 0.73974 0.38280
 C477 C 0.41694 0.73067 0.39685
 C478 C 0.44293 0.73282 0.43756
 C479 C 0.46469 0.74192 0.42270
 N480 N 0.46250 0.74470 0.39575
 H481 H 0.52133 0.80553 0.38060
 H482 H 0.52599 0.72676 0.41030
 H483 H 0.56724 0.73810 0.43545
 H484 H 0.56201 0.81831 0.40514
 H485 H 0.43789 0.74238 0.36140
 H486 H 0.39857 0.72621 0.38627
 H487 H 0.44489 0.73006 0.45891
 H488 H 0.48332 0.74641 0.43265
 C489 C 0.45953 0.82962 0.32789
 C490 C 0.52165 0.68369 0.32397
 C491 C 0.41893 0.72694 0.42442
 C492 C 0.56746 0.77915 0.42226
 C493 C 0.36268 0.00306 0.24900
 C494 C 0.12235 1.00708 0.75092
 C495 C 0.62205 0.50835 0.24935
 C496 C 0.86178 0.50268 0.74999
 C497 C 0.24912 0.36101 0.00333
 C498 C 0.75085 0.12203 1.00718
 C499 C 0.24991 0.62288 0.50758
 C500 C 0.74906 0.86261 0.50325
 C501 C 0.00314 0.24912 0.36218
 C502 C 1.00753 0.75030 0.12185
 C503 C 0.50763 0.25013 0.62209
 C504 C 0.50318 0.74938 0.86214
 C505 C 0.42733 -0.10488 0.29447
 C506 C 0.40888 -0.09116 0.31460
 C507 C 0.39693 -0.06886 0.30490
 C508 C 0.40457 -0.06239 0.27601
 C509 C 0.39786 -0.08777 0.26009
 C510 C 0.40982 -0.11010 0.26980
 C511 C 0.44713 -0.08312 0.28585
 C512 C 0.43515 -0.06076 0.27612
 C513 C 0.43983 -0.12892 0.30537
 C514 C 0.44939 -0.14854 0.31540
 C515 C 0.39119 -0.03851 0.26586
 C516 C 0.37899 -0.01937 0.25802
 H517 H 0.40550 -0.09833 0.33474
 H518 H 0.38334 -0.05693 0.31675
 H519 H 0.38490 -0.08814 0.24267
 H520 H 0.40712 -0.12961 0.26071
 H521 H 0.46864 -0.08513 0.28721
 H522 H 0.44638 -0.04359 0.26917
 C523 C 0.92644 0.39475 0.79544
 C524 C 0.94389 0.41992 0.79763
 C525 C 0.93191 0.44229 0.78795
 C526 C 0.90369 0.43727 0.77704
 C527 C 0.88850 0.42419 0.80012
 C528 C 0.90044 0.40188 0.80978
 C529 C 0.91885 0.39272 0.76578
 C530 C 0.90688 0.41509 0.75610
 C531 C 0.93894 0.37068 0.80629
 C532 C 0.94850 0.35103 0.81625
 C533 C 0.89031 0.46115 0.76691
 C534 C 0.87811 0.48029 0.75906
 H535 H 0.96389 0.42013 0.80601
 H536 H 0.94164 0.46167 0.78803
 H537 H 0.86996 0.43182 0.80820
 H538 H 0.89211 0.39039 0.82611
 H539 H 0.92258 0.37530 0.75347
 H540 H 0.90035 0.41683 0.73549
 C541 C 0.05642 1.11525 0.79393
 C542 C 0.07471 1.10214 0.81469
 C543 C 0.08692 1.07970 0.80566
 C544 C 0.07968 1.07250 0.77673
 C545 C 0.08642 1.09755 0.76048
 C546 C 0.07419 1.12003 0.76953
 C547 C 0.03688 1.09316 0.78532
 C548 C 0.04912 1.07065 0.77626
 C549 C 0.04353 1.13944 0.80406
 C550 C 0.03335 1.15913 0.81330
 C551 C 0.09333 1.04850 0.76722
 C552 C 0.10573 1.02936 0.75973
 H553 H 0.07779 1.10981 0.83476
 H554 H 0.10045 1.06814 0.81799
 H555 H 0.09960 1.09761 0.74333
 H556 H 0.07689 1.13933 0.76014
 H557 H 0.01534 1.09504 0.78623
 H558 H 0.03810 1.05325 0.76941
 C559 C 0.55625 0.61659 0.29235
 C560 C 0.57406 0.62132 0.26797
 C561 C 0.58622 0.59881 0.25892
 C562 C 0.57939 0.57377 0.27514
 C563 C 0.54883 0.57202 0.27464
 C564 C 0.53664 0.59456 0.28371
 C565 C 0.57448 0.60341 0.31312
 C566 C 0.58663 0.58093 0.30408
 C567 C 0.54343 0.64082 0.30248
 C568 C 0.53334 0.66055 0.31173
 C569 C 0.59298 0.54974 0.26563
 C570 C 0.60538 0.53059 0.25814
 H571 H 0.57683 0.64062 0.25860
 H572 H 0.59942 0.59884 0.24178
 H573 H 0.53775 0.55466 0.26777
 H574 H 0.51512 0.59651 0.28459
 H575 H 0.57756 0.61105 0.33319
 H576 H 0.60010 0.56932 0.31642
 C577 C 0.56052 0.39604 0.20911
 C578 C 0.57952 0.39284 0.23296
 C579 C 0.59051 0.41626 0.24148
 C580 C 0.58144 0.44060 0.22532
 C581 C 0.55086 0.44011 0.22676
 C582 C 0.53985 0.41664 0.21822
 C583 C 0.57704 0.41036 0.18772
 C584 C 0.58802 0.43374 0.19623
 C585 C 0.54915 0.37079 0.19943
 C586 C 0.54064 0.35019 0.19026
 C587 C 0.59393 0.46558 0.23422
 C588 C 0.60574 0.48542 0.24118
 H589 H 0.58389 0.37388 0.24238
 H590 H 0.60431 0.41735 0.25821
 H591 H 0.53895 0.45668 0.23386
 H592 H 0.51848 0.41309 0.21802
 H593 H 0.57985 0.40280 0.16760
 H594 H 0.60020 0.44621 0.18340
 C595 C 0.06019 0.89517 0.71056
 C596 C 0.07921 0.89178 0.73436
 C597 C 0.09036 0.91510 0.74293
 C598 C 0.08140 0.93955 0.72686
 C599 C 0.05083 0.93924 0.72836
 C600 C 0.03965 0.91587 0.71977
 C601 C 0.07675 0.90945 0.68918
 C602 C 0.08788 0.93274 0.69774
 C603 C 0.04863 0.87003 0.70082
 C604 C 0.03997 0.84952 0.69157
 C605 C 0.09406 0.96443 0.73581
 C606 C 0.10597 0.98421 0.74277
 H607 H 0.08348 0.87275 0.74370
 H608 H 0.10420 0.91606 0.75963
 H609 H 0.03903 0.95586 0.73554
 H610 H 0.01827 0.91245 0.71960
 H611 H 0.07947 0.90193 0.66903
 H612 H 0.10012 0.94517 0.68492
 C613 C 0.93012 0.61168 0.71209
 C614 C 0.91252 0.59902 0.69031
 C615 C 0.89967 0.57648 0.69832
 C616 C 0.90565 0.56874 0.72734
 C617 C 0.89856 0.59353 0.74388
 C618 C 0.91143 0.61611 0.73586
 C619 C 0.94902 0.58934 0.72097
 C620 C 0.93614 0.56674 0.72900
 C621 C 0.94375 0.63594 0.70302
 C622 C 0.95465 0.65563 0.69454
 C623 C 0.89139 0.54461 0.73573
 C624 C 0.87864 0.52529 0.74229
 H625 H 0.91035 0.60706 0.67032
 H626 H 0.88651 0.56522 0.68519
 H627 H 0.88470 0.59335 0.76048
 H628 H 0.90859 0.63526 0.74556
 H629 H 0.97060 0.59112 0.72098
 H630 H 0.94668 0.54917 0.73589
 C631 C 0.43124 0.11198 0.21128
 C632 C 0.41364 0.09941 0.18946
 C633 C 0.40074 0.07688 0.19741
 C634 C 0.40667 0.06907 0.22642
 C635 C 0.39961 0.09385 0.24300
 C636 C 0.41254 0.11641 0.23503
 C637 C 0.45009 0.08959 0.22014
 C638 C 0.43715 0.06701 0.22811
 C639 C 0.44495 0.13623 0.20227
 C640 C 0.45588 0.15592 0.19383
 C641 C 0.39235 0.04496 0.23476
 C642 C 0.37956 0.02564 0.24129
 H643 H 0.41151 0.10749 0.16948
 H644 H 0.38757 0.06567 0.18425
 H645 H 0.38573 0.09367 0.25958
 H646 H 0.40973 0.13555 0.24477
 H647 H 0.47167 0.09133 0.22019
 H648 H 0.44764 0.04940 0.23498
 C649 C 0.29445 0.42621 -0.10449
 C650 C 0.31458 0.40770 -0.09081
 C651 C 0.30491 0.39562 -0.06855
 C652 C 0.27604 0.40318 -0.06208
 C653 C 0.26015 0.39660 -0.08754
 C654 C 0.26983 0.40871 -0.10984
 C655 C 0.28582 0.44587 -0.08263
 C656 C 0.27612 0.43374 -0.06030
 C657 C 0.30532 0.43888 -0.12850
 C658 C 0.31529 0.44858 -0.14808
 C659 C 0.26591 0.38965 -0.03824
 C660 C 0.25810 0.37738 -0.01911
 H661 H 0.33470 0.40440 -0.09798
 H662 H 0.31675 0.38197 -0.05665
 H663 H 0.24277 0.38362 -0.08799
 H664 H 0.26076 0.40611 -0.12939
 H665 H 0.28717 0.46739 -0.08454
 H666 H 0.26917 0.44486 -0.04308
 C667 C 0.79420 0.92732 0.39506
 C668 C 0.76950 0.90986 0.38994
 C669 C 0.75991 0.89790 0.41235
 C670 C 0.77595 0.90456 0.43769
 C671 C 0.77613 0.93514 0.43931
 C672 C 0.78574 0.94712 0.41686
 C673 C 0.81435 0.90883 0.40873
 C674 C 0.80477 0.89688 0.43110
 C675 C 0.80498 0.93983 0.37092
 C676 C 0.81489 0.94939 0.35124
 C677 C 0.76591 0.89117 0.46164
 C678 C 0.75811 0.87896 0.48082
 H679 H 0.76032 0.90719 0.37045
 H680 H 0.74249 0.88497 0.41206
 H681 H 0.76930 0.94636 0.45652
 H682 H 0.78714 0.96862 0.41484
 H683 H 0.83442 0.90543 0.40147
 H684 H 0.81664 0.88326 0.44301
 C685 C 0.79371 0.05629 1.11579
 C686 C 0.81448 0.07447 1.10258
 C687 C 0.80547 0.08662 1.08003
 C688 C 0.77656 0.07943 1.07285
 C689 C 0.76037 0.08631 1.09789
 C690 C 0.76939 0.07415 1.12046
 C691 C 0.78503 0.03669 1.09377
 C692 C 0.77600 0.04887 1.07117
 C693 C 0.80381 0.04347 1.14009
 C694 C 0.81305 0.03336 1.15987
 C695 C 0.76707 0.09301 1.04874
 C696 C 0.75962 0.10539 1.02952
 H697 H 0.83454 0.07753 1.11025
 H698 H 0.81782 0.10007 1.06840
 H699 H 0.74328 0.09954 1.09786
 H700 H 0.76004 0.07695 1.13978
 H701 H 0.78587 0.01516 1.09577
 H702 H 0.76911 0.03779 1.05380
 C703 C 0.29307 0.55689 0.61592
 C704 C 0.31377 0.57521 0.60278
 C705 C 0.30472 0.58743 0.58030
 C706 C 0.27582 0.58017 0.57310
 C707 C 0.25962 0.58688 0.59817
 C708 C 0.26869 0.57464 0.62069
 C709 C 0.28445 0.53736 0.59382
 C710 C 0.27537 0.54961 0.57127
 C711 C 0.30322 0.54400 0.64016
 C712 C 0.31247 0.53383 0.65990
 C713 C 0.26628 0.59382 0.54906
 C714 C 0.25876 0.60624 0.52988
 H715 H 0.33383 0.57829 0.61046
 H716 H 0.31701 0.60097 0.56872
 H717 H 0.24249 0.60005 0.59822
 H718 H 0.25934 0.57732 0.64002
 H719 H 0.28537 0.51583 0.59572
 H720 H 0.26851 0.53859 0.55386
 C721 C 0.20973 0.56069 0.39552
 C722 C 0.18834 0.57722 0.40973
 C723 C 0.19684 0.58837 0.43306
 C724 C 0.22593 0.58193 0.43996
 C725 C 0.24200 0.59091 0.41552
 C726 C 0.23348 0.57974 0.39216
 C727 C 0.21893 0.54017 0.41631
 C728 C 0.22746 0.55136 0.43972
 C729 C 0.20006 0.54911 0.37034
 C730 C 0.19087 0.54044 0.34979
 C731 C 0.23482 0.59460 0.46488
 C732 C 0.24176 0.60651 0.48468
 H733 H 0.16822 0.57991 0.40214
 H734 H 0.18401 0.60059 0.44544
 H735 H 0.25866 0.60477 0.41649
 H736 H 0.24284 0.58402 0.37313
 H737 H 0.21880 0.51879 0.41292
 H738 H 0.23463 0.53958 0.45640
 C739 C 0.71001 0.06019 0.89516
 C740 C 0.71919 0.03958 0.91587
 C741 C 0.72788 0.05068 0.93927
 C742 C 0.72650 0.08125 0.93959
 C743 C 0.69742 0.08785 0.93282
 C744 C 0.68876 0.07679 0.90951
 C745 C 0.73384 0.07913 0.89175
 C746 C 0.74251 0.09020 0.91510
 C747 C 0.70016 0.04872 0.87000
 C748 C 0.69081 0.04014 0.84947
 C749 C 0.73556 0.09383 0.96450
 C750 C 0.74260 0.10569 0.98430
 H751 H 0.71893 0.01820 0.91244
 H752 H 0.73505 0.03882 0.95589
 H753 H 0.68470 0.10011 0.94529
 H754 H 0.66863 0.07961 0.90201
 H755 H 0.74314 0.08340 0.87268
 H756 H 0.75925 0.10397 0.91603
 C757 C 0.71172 0.93100 0.61238
 C758 C 0.73542 0.91223 0.61676
 C759 C 0.74327 0.89934 0.59415
 C760 C 0.72666 0.90648 0.56937
 C761 C 0.72842 0.93697 0.56732
 C762 C 0.72055 0.94987 0.58995
 C763 C 0.68985 0.91347 0.59981
 C764 C 0.69770 0.90060 0.57723
 C765 C 0.70283 0.94467 0.63668
 C766 C 0.69449 0.95559 0.65641
 C767 C 0.73489 0.89220 0.54521
 C768 C 0.74137 0.87945 0.52586
 H769 H 0.74519 0.90936 0.63591
 H770 H 0.75980 0.88542 0.59393
 H771 H 0.73525 0.94747 0.54968
 H772 H 0.72065 0.97145 0.59170
 H773 H 0.66992 0.91136 0.60794
 H774 H 0.68449 0.88748 0.56602
 C775 C 0.21148 0.42980 0.11211
 C776 C 0.22031 0.44857 0.08959
 C777 C 0.22827 0.43555 0.06706
 C778 C 0.22659 0.40507 0.06929
 C779 C 0.19763 0.39915 0.07712
 C780 C 0.18969 0.41214 0.09960
 C781 C 0.23522 0.41113 0.11666
 C782 C 0.24317 0.39812 0.09415
 C783 C 0.20250 0.44359 0.13631
 C784 C 0.19408 0.45462 0.15594
 C785 C 0.23491 0.39068 0.04522
 C786 C 0.24143 0.37788 0.02593
 H787 H 0.22035 0.47015 0.09121
 H788 H 0.23511 0.44597 0.04938
 H789 H 0.18448 0.38594 0.06595
 H790 H 0.16974 0.41003 0.10769
 H791 H 0.24496 0.40839 0.13585
 H792 H 0.25973 0.38425 0.09405
 C793 C -0.10457 0.29482 0.42690
 C794 C -0.09074 0.31489 0.40841
 C795 C -0.06847 0.30515 0.39648
 C796 C -0.06214 0.27627 0.40417
 C797 C -0.08758 0.26044 0.39744
 C798 C -0.10989 0.27020 0.40939
 C799 C -0.08287 0.28614 0.44675
 C800 C -0.06053 0.27637 0.43478
 C801 C -0.12859 0.30576 0.43938
 C802 C -0.14819 0.31577 0.44893
 C803 C -0.03830 0.26606 0.39078
 C804 C -0.01921 0.25818 0.37856
 H805 H -0.09782 0.33503 0.40501
 H806 H -0.05648 0.31695 0.38287
 H807 H -0.08802 0.24306 0.38448
 H808 H -0.12943 0.26118 0.40667
 H809 H -0.08490 0.28750 0.46828
 H810 H -0.04341 0.26937 0.44604
 C811 C 0.39528 0.79506 0.92657
 C812 C 0.40911 0.81513 0.90808
 C813 C 0.43141 0.80541 0.89620
 C814 C 0.43777 0.77655 0.90393
 C815 C 0.41236 0.76068 0.89717
 C816 C 0.39002 0.77042 0.90908
 C817 C 0.41696 0.78643 0.94647
 C818 C 0.43933 0.77668 0.93454
 C819 C 0.37123 0.80598 0.93901
 C820 C 0.35161 0.81598 0.94853
 C821 C 0.46164 0.76636 0.89060
 C822 C 0.48078 0.75847 0.87844
 H823 H 0.40201 0.83526 0.90465
 H824 H 0.44341 0.81721 0.88259
 H825 H 0.41197 0.74329 0.88423
 H826 H 0.37050 0.76138 0.90634
 H827 H 0.41490 0.78782 0.96799
 H828 H 0.45644 0.76972 0.94584
 C829 C 1.11574 0.79372 0.05603
 C830 C 1.10251 0.81437 0.07429
 C831 C 1.08003 0.80524 0.08644
 C832 C 1.07293 0.77634 0.07916
 C833 C 1.09799 0.76020 0.08600
 C834 C 1.12050 0.76934 0.07384
 C835 C 1.09373 0.78506 0.03638
 C836 C 1.07120 0.77591 0.04856
 C837 C 1.13996 0.80394 0.04321
 C838 C 1.15968 0.81325 0.03311
 C839 C 1.04891 0.76673 0.09275
 C840 C 1.02976 0.75918 0.10515
 H841 H 1.11012 0.83444 0.07740
 H842 H 1.06840 0.81750 0.09994
 H843 H 1.09804 0.74306 0.09919
 H844 H 1.13981 0.76004 0.07661
 H845 H 1.09569 0.78600 0.01482
 H846 H 1.05386 0.76901 0.03745
 C847 C 0.61581 0.29350 0.55619
 C848 C 0.60257 0.31418 0.57441
 C849 C 0.58011 0.30506 0.58658
 C850 C 0.57302 0.27614 0.57936
 C851 C 0.59809 0.26003 0.58623
 C852 C 0.62059 0.26915 0.57404
 C853 C 0.59380 0.28479 0.53656
 C854 C 0.57128 0.27565 0.54876
 C855 C 0.64002 0.30371 0.54335
 C856 C 0.65975 0.31300 0.53325
 C857 C 0.54901 0.26654 0.59298
 C858 C 0.52987 0.25899 0.60539
 H859 H 0.61017 0.33425 0.57748
 H860 H 0.56847 0.31733 0.60007
 H861 H 0.59816 0.24291 0.59946
 H862 H 0.63991 0.25987 0.57682
 H863 H 0.59576 0.28569 0.51500
 H864 H 0.55394 0.26872 0.53768
 C865 C 0.39559 0.20945 0.56027
 C866 C 0.39225 0.23325 0.57924
 C867 C 0.41561 0.24187 0.59031
 C868 C 0.44003 0.22585 0.58133
 C869 C 0.43965 0.22728 0.55071
 C870 C 0.41624 0.21864 0.53962
 C871 C 0.40992 0.18816 0.57688
 C872 C 0.43324 0.19677 0.58793
 C873 C 0.37042 0.19966 0.54880
 C874 C 0.34988 0.19040 0.54022
 C875 C 0.46495 0.23486 0.59390
 C876 C 0.48474 0.24188 0.60575
 H877 H 0.37324 0.24257 0.58354
 H878 H 0.41660 0.25859 0.60411
 H879 H 0.45623 0.23445 0.53883
 H880 H 0.41277 0.21842 0.51821
 H881 H 0.40241 0.16803 0.57970
 H882 H 0.44570 0.18401 0.60020
 C883 C 0.89535 0.70954 0.06037
 C884 C 0.91591 0.71870 0.03963
 C885 C 0.93936 0.72738 0.05062
 C886 C 0.93986 0.72600 0.08124
 C887 C 0.93311 0.69692 0.08792
 C888 C 0.90976 0.68828 0.07697
 C889 C 0.89207 0.73337 0.07932
 C890 C 0.91546 0.74202 0.09029
 C891 C 0.87014 0.69972 0.04902
 C892 C 0.84956 0.69044 0.04055
 C893 C 0.96481 0.73504 0.09371
 C894 C 0.98463 0.74207 0.10552
 H895 H 0.91236 0.71845 0.01824
 H896 H 0.95590 0.73454 0.03866
 H897 H 0.94563 0.68420 0.10015
 H898 H 0.90227 0.66815 0.07984
 H899 H 0.87307 0.74268 0.08367
 H900 H 0.91649 0.75876 0.10405
 C901 C 0.61182 0.71113 0.93083
 C902 C 0.59912 0.68943 0.91320
 C903 C 0.57665 0.69750 0.90027
 C904 C 0.56901 0.72649 0.90622
 C905 C 0.59389 0.74295 0.89917
 C906 C 0.61639 0.73487 0.91211
 C907 C 0.58947 0.72005 0.94970
 C908 C 0.56694 0.72813 0.93675
 C909 C 0.63601 0.70202 0.94455
 C910 C 0.65564 0.69351 0.95551
 C911 C 0.54495 0.73494 0.89189
 C912 C 0.52569 0.74157 0.87907
 H913 H 0.60709 0.66945 0.91105
 H914 H 0.56536 0.68442 0.88708
 H915 H 0.59381 0.75953 0.88528
 H916 H 0.63559 0.74452 0.90931
 H917 H 0.59120 0.72005 0.97131
 H918 H 0.54937 0.73505 0.94725
 C919 C 0.11203 0.21085 0.43048
 C920 C 0.09931 0.18916 0.41285
 C921 C 0.07679 0.19721 0.40001
 C922 C 0.06913 0.22619 0.40602
 C923 C 0.09397 0.24269 0.39892
 C924 C 0.11653 0.23462 0.41178
 C925 C 0.08973 0.21971 0.44943
 C926 C 0.06715 0.22779 0.43655
 C927 C 0.13628 0.20174 0.44412
 C928 C 0.15595 0.19324 0.45502
 C929 C 0.04503 0.23464 0.39177
 C930 C 0.02572 0.24128 0.37903
 H931 H 0.10729 0.16918 0.41066
 H932 H 0.06548 0.18414 0.38683
 H933 H 0.09383 0.25929 0.38505
 H934 H 0.13571 0.24429 0.40893
 H935 H 0.09152 0.21968 0.47103
 H936 H 0.04960 0.23467 0.44712
 C937 C 0.55284 0.14240 0.68730
 C938 C 0.52862 0.13679 0.66930
 C939 C 0.51887 0.15896 0.65706
 C940 C 0.53431 0.18456 0.66403
 C941 C 0.56340 0.17852 0.65697
 C942 C 0.57313 0.15638 0.66919
 C943 C 0.54355 0.16404 0.70688
 C944 C 0.53380 0.18624 0.69463
 C945 C 0.56377 0.11855 0.70010
 C946 C 0.57379 0.09907 0.70991
 C947 C 0.52416 0.20830 0.65041
 C948 C 0.51641 0.22746 0.63820
 H949 H 0.51985 0.11715 0.66647
 H950 H 0.50175 0.15833 0.64374
 H951 H 0.57534 0.19060 0.64355
 H952 H 0.59341 0.14950 0.66623
 H953 H 0.54451 0.16207 0.72844
 H954 H 0.52639 0.20330 0.70568
 C955 C 1.05257 0.64228 0.18665
 C956 C 1.02831 0.63681 0.16867
 C957 C 1.01861 0.65906 0.15654
 C958 C 1.03413 0.68459 0.16359
 C959 C 1.06320 0.67849 0.15645
 C960 C 1.07288 0.65627 0.16857
 C961 C 1.04338 0.66386 0.20634
 C962 C 1.03367 0.68614 0.19420
 C963 C 1.06346 0.61834 0.19934
 C964 C 1.07343 0.59879 0.20905
 C965 C 1.02403 0.70840 0.15008
 C966 C 1.01631 0.72761 0.13792
 H967 H 1.01948 0.61721 0.16578
 H968 H 1.00146 0.65853 0.14324
 H969 H 1.07515 0.69059 0.14307
 H970 H 1.09313 0.64934 0.16555
 H971 H 1.04437 0.66180 0.22789
 H972 H 1.02634 0.70318 0.20533
 C973 C 0.96121 0.85503 0.19101
 C974 C 0.97197 0.83353 0.20995
 C975 C 0.98231 0.81195 0.19704
 C976 C 0.98083 0.81406 0.16649
 C977 C 0.99497 0.84038 0.15974
 C978 C 0.98465 0.86194 0.17264
 C979 C 0.94101 0.84046 0.17304
 C980 C 0.95131 0.81896 0.16017
 C981 C 0.94957 0.87820 0.20443
 C982 C 0.93883 0.89712 0.21456
 C983 C 0.99146 0.79099 0.15209
 C984 C 0.99923 0.77235 0.13907
 H985 H 0.97155 0.83514 0.23156
 H986 H 0.99075 0.79506 0.20756
 H987 H 1.01168 0.84194 0.14610
 H988 H 0.99250 0.88196 0.17005
 H989 H 0.92037 0.84650 0.17066
 H990 H 0.93950 0.80658 0.14676
 C991 C 0.46143 0.35482 0.69140
 C992 C 0.48486 0.36174 0.67302
 C993 C 0.49515 0.34020 0.66007
 C994 C 0.48098 0.31388 0.66678
 C995 C 0.45146 0.31883 0.66049
 C996 C 0.44120 0.34032 0.67341
 C997 C 0.47217 0.33327 0.71029
 C998 C 0.48248 0.31171 0.69732
 C999 C 0.44983 0.37798 0.70488
 C1000 C 0.43912 0.39689 0.71508
 C1001 C 0.49157 0.29083 0.65233
 C1002 C 0.49932 0.27219 0.63930
 H1003 H 0.49274 0.38177 0.67047
 H1004 H 0.51185 0.34177 0.64642
 H1005 H 0.43962 0.30649 0.64707
 H1006 H 0.42056 0.34638 0.67106
 H1007 H 0.47177 0.33484 0.73190
 H1008 H 0.49091 0.29479 0.70780
 C1009 C 0.45712 0.63787 0.80351
 C1010 C 0.48202 0.63392 0.82094
 C1011 C 0.49204 0.65705 0.83125
 C1012 C 0.47618 0.68188 0.82312
 C1013 C 0.44741 0.67599 0.83165
 C1014 C 0.43741 0.65290 0.82135
 C1015 C 0.46552 0.65811 0.78213
 C1016 C 0.47557 0.68131 0.79247
 C1017 C 0.44594 0.61286 0.79307
 C1018 C 0.43586 0.59220 0.78583
 C1019 C 0.48661 0.70657 0.83497
 C1020 C 0.49447 0.72631 0.84635
 H1021 H 0.49105 0.61466 0.82477
 H1022 H 0.50965 0.65761 0.84391
 H1023 H 0.43586 0.68889 0.84461
 H1024 H 0.41730 0.64601 0.82551
 H1025 H 0.46378 0.65454 0.76081
 H1026 H 0.48243 0.69762 0.78002
 C1027 C -0.04312 0.13794 0.30305
 C1028 C -0.01819 0.13384 0.32040
 C1029 C -0.00813 0.15689 0.33085
 C1030 C -0.02398 0.18179 0.32293
 C1031 C -0.05274 0.17588 0.33146
 C1032 C -0.06278 0.15286 0.32103
 C1033 C -0.03473 0.15832 0.28179
 C1034 C -0.02465 0.18143 0.29227
 C1035 C -0.05436 0.11301 0.29246
 C1036 C -0.06448 0.09242 0.28511
 C1037 C -0.01351 0.20640 0.33491
 C1038 C -0.00561 0.22609 0.34636
 H1039 H -0.00918 0.11455 0.32408
 H1040 H 0.00950 0.15734 0.34349
 H1041 H -0.06425 0.18870 0.34454
 H1042 H -0.08289 0.14597 0.32518
 H1043 H -0.03652 0.15490 0.26045
 H1044 H -0.01779 0.19782 0.27992
 C1045 C 0.04816 0.35760 0.29843
 C1046 C 0.04011 0.33625 0.27784
 C1047 C 0.03028 0.31345 0.28905
 C1048 C 0.02951 0.31436 0.31970
 C1049 C 0.01333 0.33936 0.32653
 C1050 C 0.02313 0.36208 0.31535
 C1051 C 0.06795 0.34367 0.31716
 C1052 C 0.05816 0.32099 0.32832
 C1053 C 0.05919 0.38223 0.28719
 C1054 C 0.06933 0.40267 0.27961
 C1055 C 0.01933 0.29020 0.33258
 C1056 C 0.01167 0.27110 0.34499
 H1057 H 0.04192 0.33882 0.25641
 H1058 H 0.02367 0.29648 0.27725
 H1059 H -0.00435 0.33920 0.33898
 H1060 H 0.01385 0.38139 0.31821
 H1061 H 0.08796 0.35097 0.32126
 H1062 H 0.06980 0.30887 0.34197
 C1063 C 0.54862 0.85784 0.79869
 C1064 C 0.54064 0.83655 0.77802
 C1065 C 0.53071 0.81374 0.78914
 C1066 C 0.52979 0.81459 0.81978
 C1067 C 0.51362 0.83961 0.82658
 C1068 C 0.52352 0.86234 0.81549
 C1069 C 0.56829 0.84384 0.81749
 C1070 C 0.55841 0.82116 0.82855
 C1071 C 0.55975 0.88248 0.78756
 C1072 C 0.56995 0.90292 0.78006
 C1073 C 0.51951 0.79043 0.83258
 C1074 C 0.51177 0.77134 0.84495
 H1075 H 0.54256 0.83916 0.75661
 H1076 H 0.52412 0.79680 0.77727
 H1077 H 0.49588 0.83946 0.83894
 H1078 H 0.51426 0.88166 0.81835
 H1079 H 0.58830 0.85110 0.82170
 H1080 H 0.56996 0.80899 0.84223
 C1081 C 0.68698 0.55341 0.14131
 C1082 C 0.66896 0.52921 0.13576
 C1083 C 0.65678 0.51949 0.15800
 C1084 C 0.66382 0.53494 0.18360
 C1085 C 0.65680 0.56403 0.17749
 C1086 C 0.66896 0.57374 0.15529
 C1087 C 0.70659 0.54412 0.16297
 C1088 C 0.69439 0.53439 0.18524
 C1089 C 0.69972 0.56433 0.11739
 C1090 C 0.70948 0.57437 0.09786
 C1091 C 0.65027 0.52482 0.20740
 C1092 C 0.63810 0.51710 0.22662
 H1093 H 0.66608 0.52044 0.11612
 H1094 H 0.64345 0.50238 0.15742
 H1095 H 0.64346 0.57600 0.18958
 H1096 H 0.66602 0.59401 0.14836
 H1097 H 0.72812 0.54505 0.16097
 H1098 H 0.70546 0.52699 0.20233
 C1099 C 0.18710 1.05178 0.64262
 C1100 C 0.16910 1.07215 0.65655
 C1101 C 0.15698 1.06254 0.67882
 C1102 C 0.16403 1.03347 0.68503
 C1103 C 0.19460 1.03293 0.68661
 C1104 C 0.20675 1.04257 0.66428
 C1105 C 0.16907 1.02755 0.63720
 C1106 C 0.15693 1.01792 0.65951
 C1107 C 0.19979 1.06260 0.61863
 C1108 C 0.20952 1.07255 0.59905
 C1109 C 0.15052 1.02344 0.70890
 C1110 C 0.13838 1.01578 0.72816
 H1111 H 0.16613 1.09240 0.64955
 H1112 H 0.14365 1.07454 0.69088
 H1113 H 0.20570 1.02559 0.70371
 H1114 H 0.22827 1.04350 0.66224
 H1115 H 0.16615 1.01870 0.61760
 H1116 H 0.14361 1.00081 0.65902
 C1117 C 0.19176 0.96078 0.85575
 C1118 C 0.21060 0.97157 0.83417
 C1119 C 0.19760 0.98191 0.81258
 C1120 C 0.16711 0.98041 0.81476
 C1121 C 0.16045 0.99452 0.84113
 C1122 C 0.17342 0.98420 0.86269
 C1123 C 0.17378 0.94058 0.84122
 C1124 C 0.16083 0.95088 0.81971
 C1125 C 0.20527 0.94912 0.87893
 C1126 C 0.21547 0.93833 0.89784
 C1127 C 0.15263 0.99103 0.79168
 C1128 C 0.13958 0.99879 0.77302
 H1129 H 0.23218 0.97117 0.83573
 H1130 H 0.20805 0.99037 0.79563
 H1131 H 0.14682 1.01121 0.84271
 H1132 H 0.17091 0.99203 0.88274
 H1133 H 0.17143 0.91993 0.84729
 H1134 H 0.14741 0.93906 0.80736
 C1135 C 0.69142 0.46218 0.35426
 C1136 C 0.67343 0.44196 0.33976
 C1137 C 0.66050 0.45224 0.31823
 C1138 C 0.66678 0.48176 0.31324
 C1139 C 0.69728 0.48326 0.31107
 C1140 C 0.71026 0.47294 0.33268
 C1141 C 0.67307 0.48561 0.36117
 C1142 C 0.66011 0.49591 0.33959
 C1143 C 0.70491 0.45057 0.37747
 C1144 C 0.71511 0.43984 0.39641
 C1145 C 0.65231 0.49235 0.29014
 C1146 C 0.63927 0.50009 0.27147
 H1147 H 0.67109 0.42133 0.34585
 H1148 H 0.64708 0.44040 0.30589
 H1149 H 0.70773 0.49170 0.29412
 H1150 H 0.73185 0.47254 0.33425
 H1151 H 0.67055 0.49347 0.38121
 H1152 H 0.64648 0.51260 0.34114
 C1153 C 0.80329 0.45720 0.63804
 C1154 C 0.78200 0.46398 0.65893
 C1155 C 0.79233 0.47389 0.68221
 C1156 C 0.82289 0.47600 0.68221
 C1157 C 0.82968 0.49290 0.65763
 C1158 C 0.81938 0.48302 0.63441
 C1159 C 0.82238 0.43799 0.65222
 C1160 C 0.83266 0.44786 0.67540
 C1161 C 0.79286 0.44614 0.61294
 C1162 C 0.78562 0.43617 0.59222
 C1163 C 0.83472 0.48629 0.70699
 C1164 C 0.84606 0.49406 0.72682
 H1165 H 0.76074 0.46129 0.65571
 H1166 H 0.77993 0.47970 0.69894
 H1167 H 0.84147 0.51110 0.65841
 H1168 H 0.82234 0.49273 0.61529
 H1169 H 0.82736 0.41831 0.64472
 H1170 H 0.84644 0.43663 0.68775
 C1171 C 0.30369 -0.04232 0.13725
 C1172 C 0.32108 -0.01740 0.13334
 C1173 C 0.33151 -0.00753 0.15651
 C1174 C 0.32352 -0.02354 0.18133
 C1175 C 0.33199 -0.05227 0.17527
 C1176 C 0.32158 -0.06213 0.15214
 C1177 C 0.28245 -0.03404 0.15765
 C1178 C 0.29290 -0.02415 0.18088
 C1179 C 0.29313 -0.05337 0.11220
 C1180 C 0.28579 -0.06335 0.09152
 C1181 C 0.33548 -0.01327 0.20606
 C1182 C 0.34690 -0.00552 0.22585
 H1183 H 0.32481 -0.00826 0.11408
 H1184 H 0.34416 0.01008 0.15710
 H1185 H 0.34500 -0.06390 0.18808
 H1186 H 0.32569 -0.08220 0.14514
 H1187 H 0.26114 -0.03576 0.15414
 H1188 H 0.28056 -0.01738 0.19729
 C1189 C 0.29882 0.04769 0.35751
 C1190 C 0.31759 0.06751 0.34369
 C1191 C 0.32878 0.05780 0.32100
 C1192 C 0.32015 0.02919 0.31426
 C1193 C 0.28955 0.02999 0.31323
 C1194 C 0.27830 0.03975 0.33603
 C1195 C 0.31567 0.02262 0.36202
 C1196 C 0.32688 0.01290 0.33929
 C1197 C 0.28754 0.05865 0.38216
 C1198 C 0.27993 0.06874 0.40261
 C1199 C 0.33307 0.01909 0.29009
 C1200 C 0.34549 0.01149 0.27099
 H1201 H 0.32169 0.08749 0.35106
 H1202 H 0.34246 0.06946 0.30894
 H1203 H 0.27779 0.02346 0.29617
 H1204 H 0.25689 0.04158 0.33852
 H1205 H 0.31846 0.01327 0.38135
 H1206 H 0.33929 -0.00479 0.33914
 C1207 C 0.79789 0.54740 0.85844
 C1208 C 0.81413 0.52191 0.86285
 C1209 C 0.82532 0.51216 0.84012
 C1210 C 0.81919 0.52884 0.81520
 C1211 C 0.82839 0.55719 0.82230
 C1212 C 0.81722 0.56692 0.84498
 C1213 C 0.77739 0.54013 0.83671
 C1214 C 0.78863 0.53034 0.81391
 C1215 C 0.78664 0.55839 0.88308
 C1216 C 0.77907 0.56852 0.90353
 C1217 C 0.83210 0.51871 0.79104
 C1218 C 0.84454 0.51111 0.77195
 H1219 H 0.81653 0.51231 0.88210
 H1220 H 0.83733 0.49419 0.83990
 H1221 H 0.84244 0.56866 0.81048
 H1222 H 0.82171 0.58674 0.85259
 H1223 H 0.75601 0.54241 0.83903
 H1224 H 0.77688 0.52424 0.79668
 C1225 C 0.14178 0.68731 0.55257
 C1226 C 0.15583 0.66930 0.57292
 C1227 C 0.17805 0.65727 0.56322
 C1228 C 0.18412 0.66439 0.53410
 C1229 C 0.18562 0.69496 0.53358
 C1230 C 0.16333 0.70703 0.54331
 C1231 C 0.13631 0.66932 0.52832
 C1232 C 0.15858 0.65726 0.51860
 C1233 C 0.11784 0.69991 0.56348
 C1234 C 0.09830 0.70956 0.57350
 C1235 C 0.20794 0.65096 0.52400
 C1236 C 0.22718 0.63886 0.51630
 H1237 H 0.14892 0.66628 0.59321
 H1238 H 0.19018 0.64394 0.57521
 H1239 H 0.20264 0.70612 0.52619
 H1240 H 0.16124 0.72855 0.54425
 H1241 H 0.11671 0.66637 0.51950
 H1242 H 0.15805 0.64398 0.50146
 C1243 C 0.64297 0.18699 1.05203
 C1244 C 0.65692 0.16895 1.07242
 C1245 C 0.67910 0.15681 1.06276
 C1246 C 0.68523 0.16387 1.03364
 C1247 C 0.68687 0.19443 1.03308
 C1248 C 0.66461 0.20661 1.04277
 C1249 C 0.63745 0.16900 1.02779
 C1250 C 0.65968 0.15684 1.01812
 C1251 C 0.61906 0.19971 1.06290
 C1252 C 0.59954 0.20945 1.07287
 C1253 C 0.70901 0.15032 1.02356
 C1254 C 0.72819 0.13814 1.01588
 H1255 H 0.64998 0.16598 1.09271
 H1256 H 0.69116 0.14345 1.07477
 H1257 H 0.70394 0.20551 1.02570
 H1258 H 0.66262 0.22814 1.04369
 H1259 H 0.61785 0.16612 1.01897
 H1260 H 0.65911 0.14353 1.00099
 C1261 C 0.85579 0.19103 0.96076
 C1262 C 0.83433 0.20995 0.97152
 C1263 C 0.81271 0.19705 0.98188
 C1264 C 0.81476 0.16654 0.98042
 C1265 C 0.84107 0.15977 0.99458
 C1266 C 0.86265 0.17265 0.98423
 C1267 C 0.84119 0.17311 0.94054
 C1268 C 0.81965 0.16026 0.95086
 C1269 C 0.87899 0.20443 0.94909
 C1270 C 0.89792 0.21458 0.93830
 C1271 C 0.79165 0.15217 0.99106
 C1272 C 0.77297 0.13919 0.99884
 H1273 H 0.83598 0.23153 0.97109
 H1274 H 0.79584 0.20756 0.99033
 H1275 H 0.84259 0.14614 1.01131
 H1276 H 0.88268 0.17005 0.99210
 H1277 H 0.84722 0.17074 0.91988
 H1278 H 0.80725 0.14689 0.93903
 C1279 C 0.35459 0.69220 0.46109
 C1280 C 0.33304 0.71107 0.47178
 C1281 C 0.31147 0.69812 0.48216
 C1282 C 0.31364 0.66762 0.48079
 C1283 C 0.33997 0.66099 0.49500
 C1284 C 0.36151 0.67393 0.48463
 C1285 C 0.34008 0.67416 0.44092
 C1286 C 0.31859 0.66126 0.45126
 C1287 C 0.37776 0.70566 0.44941
 C1288 C 0.39667 0.71582 0.43864
 C1289 C 0.29058 0.65318 0.49146
 C1290 C 0.27195 0.64013 0.49925
 H1291 H 0.33461 0.73265 0.47128
 H1292 H 0.29455 0.70859 0.49056
 H1293 H 0.34153 0.64741 0.51177
 H1294 H 0.38153 0.67143 0.49252
 H1295 H 0.34614 0.67176 0.42027
 H1296 H 0.30624 0.64780 0.43946
 C1297 C 0.63758 0.80404 0.45690
 C1298 C 0.63354 0.82131 0.48188
 C1299 C 0.65664 0.83164 0.49200
 C1300 C 0.68152 0.82367 0.47615
 C1301 C 0.67569 0.83230 0.44736
 C1302 C 0.65263 0.82199 0.43726
 C1303 C 0.65784 0.78271 0.46529
 C1304 C 0.68100 0.79306 0.47543
 C1305 C 0.61262 0.79358 0.44560
 C1306 C 0.59201 0.78632 0.43543
 C1307 C 0.70618 0.83553 0.48666
 C1308 C 0.72593 0.84688 0.49456
 H1309 H 0.61425 0.82504 0.49089
 H1310 H 0.65713 0.84420 0.50967
 H1311 H 0.68859 0.84534 0.43586
 H1312 H 0.64579 0.82622 0.41712
 H1313 H 0.65431 0.76142 0.46347
 H1314 H 0.69731 0.78065 0.48230
 C1315 C 0.13733 0.30231 -0.04208
 C1316 C 0.13353 0.31964 -0.01710
 C1317 C 0.15672 0.32998 -0.00723
 C1318 C 0.18145 0.32197 -0.02330
 C1319 C 0.17535 0.33053 -0.05205
 C1320 C 0.15220 0.32022 -0.06191
 C1321 C 0.15766 0.28099 -0.03383
 C1322 C 0.18091 0.29136 -0.02393
 C1323 C 0.11225 0.29184 -0.05313
 C1324 C 0.09155 0.28459 -0.06312
 C1325 C 0.20620 0.33385 -0.01302
 C1326 C 0.22599 0.34524 -0.00527
 H1327 H 0.11433 0.32340 -0.00793
 H1328 H 0.15739 0.34259 0.01041
 H1329 H 0.18815 0.34354 -0.06369
 H1330 H 0.14517 0.32440 -0.08199
 H1331 H 0.15410 0.25970 -0.03557
 H1332 H 0.19728 0.27896 -0.01719
 C1333 C 0.35789 0.29770 0.04801
 C1334 C 0.33655 0.27704 0.04012
 C1335 C 0.31367 0.28814 0.03036
 C1336 C 0.31450 0.31874 0.02950
 C1337 C 0.33941 0.32564 0.01315
 C1338 C 0.36221 0.31458 0.02288
 C1339 C 0.34401 0.31638 0.06784
 C1340 C 0.32125 0.32742 0.05813
 C1341 C 0.38261 0.28660 0.05897
 C1342 C 0.40312 0.27915 0.06905
 C1343 C 0.29026 0.33151 0.01940
 C1344 C 0.27112 0.34386 0.01179
 H1345 H 0.33918 0.25566 0.04198
 H1346 H 0.29669 0.27627 0.02385
 H1347 H 0.33913 0.33804 -0.00459
 H1348 H 0.38147 0.31750 0.01348
 H1349 H 0.35140 0.32053 0.08783
 H1350 H 0.30915 0.34102 0.06980
 C1351 C 0.85727 0.79864 0.54838
 C1352 C 0.83581 0.77814 0.54040
 C1353 C 0.81307 0.78940 0.53051
 C1354 C 0.81414 0.82000 0.52963
 C1355 C 0.83919 0.82669 0.51340
 C1356 C 0.86185 0.81546 0.52326
 C1357 C 0.84343 0.81744 0.56813
 C1358 C 0.82081 0.82864 0.55829
 C1359 C 0.88184 0.78735 0.55948
 C1360 C 0.90223 0.77973 0.56968
 C1361 C 0.79004 0.83293 0.51941
 C1362 C 0.77100 0.84538 0.51173
 H1363 H 0.83827 0.75673 0.54229
 H1364 H 0.79604 0.77766 0.52393
 H1365 H 0.83910 0.83908 0.49566
 H1366 H 0.88118 0.81823 0.51396
 H1367 H 0.85075 0.82155 0.58815
 H1368 H 0.80876 0.84235 0.56989
   
