data_POSCAR
  _audit_creation_date              2014-09-24
  _audit_creation_method            'ToBaCCo'
  _symmetry_space_group_name_H-M    'P1'
  _symmetry_Int_Tables_number       1
  _symmetry_cell_setting            triclinic
  loop_
  _symmetry_equiv_pos_as_xyz
 x,y,z
_cell_length_a 62.9219
_cell_length_b 62.9605
_cell_length_c 63.2036
_cell_angle_alpha 90.003000
_cell_angle_beta 89.522400
_cell_angle_gamma 90.088800
loop_
  _atom_site_label
  _atom_site_type_symbol
  _atom_site_fract_x
  _atom_site_fract_y
  _atom_site_fract_z
N1 N 0.21349 0.20115 0.20484
 N2 N 0.70351 0.70427 0.70526
 N3 N 0.29088 0.78996 0.71381
 N4 N 0.78246 0.28802 0.21300
 N5 N 0.79237 0.70901 0.29485
 N6 N 0.29276 0.20635 -0.20391
 N7 N 0.71297 0.29052 -0.20829
 N8 N 0.20885 0.78969 0.29286
 N9 N 0.45579 0.46000 0.45838
 N10 N -0.03706 -0.04532 0.95786
 N11 N 1.03744 0.54229 0.95588
 N12 N 0.53883 0.04145 0.46953
 N13 N -0.03805 0.04071 0.53376
 N14 N 0.45587 0.54013 0.04054
 N15 N 0.54938 -0.04364 0.04814
 N16 N 1.03505 0.46030 0.52839
 C17 C 0.41397 0.00803 0.22976
 H18 H 0.41419 0.02182 0.23996
 C19 C 0.42859 0.00635 0.21312
 H20 H 0.43987 0.01909 0.21043
 C21 C 0.39890 -0.02531 0.22095
 H22 H 0.38758 -0.03779 0.22429
 C23 C 0.41320 -0.02761 0.20409
 H24 H 0.41271 -0.04191 0.19459
 N25 N 0.39941 -0.00759 0.23325
 C26 C 0.34687 0.02252 0.26710
 H27 H 0.34591 0.01254 0.28101
 C28 C 0.33231 0.03899 0.26437
 H29 H 0.32033 0.04179 0.27643
 C30 C 0.36373 0.03089 0.23448
 H31 H 0.37572 0.02744 0.22265
 C32 C 0.34954 0.04756 0.23114
 H33 H 0.35079 0.05678 0.21672
 Zn34 Zn 0.38086 -0.00425 0.25672
 N35 N 0.36228 0.01890 0.25233
 C36 C 0.39577 0.01812 0.29290
 N37 N 0.39807 0.00049 0.28066
 C38 C 0.41356 -0.01400 0.28454
 C39 C 0.42733 -0.01122 0.30150
 C40 C 0.40918 0.02150 0.31008
 C41 C 0.34948 -0.03363 0.24545
 C42 C 0.33619 -0.05128 0.24775
 C43 C 0.35253 -0.05851 0.28144
 C44 C 0.36548 -0.04070 0.27852
 N45 N 0.36389 -0.02881 0.26064
 H46 H 0.38371 0.02971 0.28926
 H47 H 0.41520 -0.02773 0.27438
 H48 H 0.43938 -0.02308 0.30449
 H49 H 0.40728 0.03573 0.31952
 H50 H 0.34836 -0.02373 0.23152
 H51 H 0.32504 -0.05504 0.23534
 H52 H 0.35388 -0.06766 0.29587
 H53 H 0.37661 -0.03632 0.29068
 C54 C 0.33356 0.05178 0.24620
 C55 C 0.42831 -0.01165 0.20002
 C56 C 0.33766 -0.06401 0.26592
 C57 C 0.42525 0.00674 0.31453
 C58 C 0.09097 -0.00600 0.71605
 H59 H 0.08728 -0.01912 0.72651
 C60 C 0.07834 -0.00216 0.69840
 H61 H 0.06502 -0.01256 0.69524
 C62 C 0.11310 0.02329 0.70736
 H63 H 0.12671 0.03311 0.71091
 C64 C 0.10094 0.02765 0.68949
 H65 H 0.10516 0.04106 0.67959
 N66 N 0.10793 0.00670 0.72020
 C67 C 0.15422 -0.03079 0.75509
 H68 H 0.15477 -0.02248 0.77005
 C69 C 0.16710 -0.04853 0.75176
 H70 H 0.17713 -0.05399 0.76448
 C71 C 0.14039 -0.03368 0.72047
 H72 H 0.13017 -0.02768 0.70819
 C73 C 0.15314 -0.05139 0.71641
 H74 H 0.15263 -0.05871 0.70092
 Zn75 Zn 0.12425 0.00087 0.74449
 N76 N 0.14109 -0.02378 0.73959
 C77 C 0.10645 -0.02126 0.77998
 N78 N 0.10513 -0.00359 0.76764
 C79 C 0.08965 0.01110 0.77110
 C80 C 0.07538 0.00884 0.78800
 C81 C 0.09251 -0.02415 0.79706
 C82 C 0.16389 0.02213 0.74840
 C83 C 0.17743 0.03929 0.75212
 C84 C 0.14669 0.06123 0.75881
 C85 C 0.13373 0.04362 0.75506
 N86 N 0.14243 0.02446 0.75008
 H87 H 0.11825 -0.03322 0.77671
 H88 H 0.08807 0.02444 0.76050
 H89 H 0.06314 0.02069 0.79037
 H90 H 0.09421 -0.03806 0.80697
 H91 H 0.17063 0.00706 0.74379
 H92 H 0.19443 0.03714 0.75042
 H93 H 0.13942 0.07628 0.76290
 H94 H 0.11672 0.04541 0.75585
 C95 C 0.16675 -0.05907 0.73217
 C96 C 0.08327 0.01487 0.68484
 C97 C 0.16886 0.05918 0.75740
 C98 C 0.07683 -0.00888 0.80138
 C99 C 0.58829 0.49585 0.22114
 H100 H 0.58494 0.48302 0.23206
 C101 C 0.57529 0.49899 0.20363
 H102 H 0.56205 0.48832 0.20105
 C103 C 0.60999 0.52502 0.21108
 H104 H 0.62360 0.53506 0.21404
 C105 C 0.59742 0.52872 0.19335
 H106 H 0.60131 0.54184 0.18295
 N107 N 0.60527 0.50876 0.22449
 C108 C 0.65284 0.47246 0.25895
 H109 H 0.65457 0.48174 0.27325
 C110 C 0.66518 0.45427 0.25595
 H111 H 0.67614 0.44948 0.26817
 C112 C 0.63644 0.46746 0.22572
 H113 H 0.62543 0.47276 0.21382
 C114 C 0.64840 0.44914 0.22211
 H115 H 0.64650 0.44059 0.20737
 Zn116 Zn 0.62225 0.50365 0.24848
 N117 N 0.63872 0.47866 0.24398
 C118 C 0.60575 0.48327 0.28554
 N119 N 0.60371 0.50007 0.27217
 C120 C 0.58773 0.51439 0.27482
 C121 C 0.57347 0.51251 0.29176
 C122 C 0.59183 0.48078 0.30269
 C123 C 0.66197 0.52516 0.25032
 C124 C 0.67552 0.54245 0.25345
 C125 C 0.64489 0.56416 0.26134
 C126 C 0.63193 0.54645 0.25816
 N127 N 0.64058 0.52734 0.25291
 H128 H 0.61808 0.47167 0.28299
 H129 H 0.58571 0.52706 0.26350
 H130 H 0.56074 0.52396 0.29342
 H131 H 0.59399 0.46750 0.31334
 H132 H 0.66860 0.51010 0.24551
 H133 H 0.69246 0.54042 0.25110
 H134 H 0.63768 0.57915 0.26573
 H135 H 0.61494 0.54807 0.25976
 C136 C 0.66300 0.44230 0.23734
 C137 C 0.57980 0.51560 0.18943
 C138 C 0.66701 0.56228 0.25906
 C139 C 0.57547 0.49557 0.30604
 C140 C 0.90798 0.51425 0.71511
 H141 H 0.90794 0.52839 0.72484
 C142 C 0.92163 0.51290 0.69764
 H143 H 0.93178 0.52628 0.69383
 C144 C 0.89450 0.47980 0.70826
 H145 H 0.88419 0.46678 0.71268
 C146 C 0.90801 0.47770 0.69075
 H147 H 0.90792 0.46297 0.68191
 N148 N 0.89457 0.49797 0.71989
 C149 C 0.84358 0.52732 0.75670
 H150 H 0.84366 0.51722 0.77055
 C151 C 0.82856 0.54350 0.75501
 H152 H 0.81730 0.54599 0.76782
 C153 C 0.85814 0.53616 0.72313
 H154 H 0.86932 0.53292 0.71050
 C155 C 0.84342 0.55255 0.72081
 H156 H 0.84352 0.56183 0.70638
 Zn157 Zn 0.87689 0.50086 0.74407
 N158 N 0.85808 0.52405 0.74096
 C159 C 0.89342 0.52265 0.77983
 N160 N 0.89486 0.50494 0.76757
 C161 C 0.90992 0.48994 0.77118
 C162 C 0.92408 0.49222 0.78790
 C163 C 0.90726 0.52557 0.79675
 C164 C 0.84518 0.47229 0.73261
 C165 C 0.83118 0.45521 0.73479
 C166 C 0.84741 0.44689 0.76829
 C167 C 0.86109 0.46418 0.76549
 N168 N 0.85979 0.47640 0.74780
 H169 H 0.88174 0.53468 0.77638
 H170 H 0.91088 0.47614 0.76100
 H171 H 0.93574 0.47993 0.79070
 H172 H 0.90603 0.53988 0.80619
 H173 H 0.84432 0.48245 0.71884
 H174 H 0.81977 0.45211 0.72243
 H175 H 0.84841 0.43755 0.78263
 H176 H 0.87242 0.46802 0.77764
 C177 C 0.82834 0.55636 0.73686
 C178 C 0.92176 0.49443 0.68515
 C179 C 0.83213 0.44229 0.75287
 C180 C 0.92285 0.51023 0.80097
 C181 C 0.21796 0.40864 0.01202
 H182 H 0.22822 0.40949 0.02565
 C183 C 0.20124 0.42302 0.00994
 H184 H 0.19854 0.43472 0.02222
 C185 C 0.20912 0.39230 -0.02052
 H186 H 0.21252 0.38064 -0.03260
 C187 C 0.19219 0.40633 -0.02321
 H188 H 0.18269 0.40526 -0.03738
 N189 N 0.22146 0.39355 -0.00299
 C190 C 0.25636 0.34359 0.02948
 H191 H 0.27011 0.34228 0.01917
 C192 C 0.25429 0.33019 0.04698
 H193 H 0.26669 0.31878 0.05021
 C194 C 0.22354 0.36018 0.03773
 H195 H 0.21139 0.37159 0.03385
 C196 C 0.22085 0.34714 0.05543
 H197 H 0.20660 0.34869 0.06502
 Zn198 Zn 0.24503 0.37533 0.00087
 N199 N 0.24120 0.35834 0.02531
 C200 C 0.28157 0.39232 0.02118
 N201 N 0.26930 0.39289 0.00357
 C202 C 0.27337 0.40689 -0.01234
 C203 C 0.29051 0.42091 -0.01103
 C204 C 0.29892 0.40604 0.02312
 C205 C 0.23226 0.34275 -0.02641
 C206 C 0.23401 0.32828 -0.04308
 C207 C 0.26904 0.34216 -0.05076
 C208 C 0.26655 0.35647 -0.03405
 N209 N 0.24828 0.35665 -0.02240
 H210 H 0.27778 0.38147 0.03390
 H211 H 0.26318 0.40717 -0.02605
 H212 H 0.29361 0.43177 -0.02398
 H213 H 0.30832 0.40557 0.03738
 H214 H 0.21805 0.34299 -0.01666
 H215 H 0.22083 0.31771 -0.04627
 H216 H 0.28387 0.34205 -0.05957
 H217 H 0.27937 0.36719 -0.03023
 C218 C 0.23636 0.33190 0.06025
 C219 C 0.18808 0.42196 -0.00786
 C220 C 0.25261 0.32783 -0.05554
 C221 C 0.30354 0.42063 0.00690
 C222 C 0.73164 0.08878 -0.00922
 H223 H 0.74236 0.08729 -0.02260
 C224 C 0.71538 0.07395 -0.00620
 H225 H 0.71355 0.06116 -0.01749
 C226 C 0.72087 0.10756 0.02155
 H227 H 0.72311 0.12072 0.03230
 C228 C 0.70436 0.09312 0.02514
 H229 H 0.69412 0.09516 0.03885
 N230 N 0.73405 0.10517 0.00456
 C231 C 0.76367 0.15802 -0.02918
 H232 H 0.77787 0.16051 -0.01997
 C233 C 0.75962 0.17096 -0.04660
 H234 H 0.77095 0.18322 -0.05086
 C235 C 0.73186 0.13875 -0.03493
 H236 H 0.72098 0.12629 -0.03026
 C237 C 0.72722 0.15129 -0.05252
 H238 H 0.71272 0.14839 -0.06116
 Zn239 Zn 0.75651 0.12455 -0.00027
 N240 N 0.74997 0.14213 -0.02379
 C241 C 0.79361 0.11261 -0.02362
 N242 N 0.78147 0.10847 -0.00617
 C243 C 0.78606 0.09184 0.00676
 C244 C 0.80365 0.07895 0.00263
 C245 C 0.81134 0.10012 -0.02834
 C246 C 0.75479 0.16261 0.02370
 C247 C 0.75730 0.17543 0.04154
 C248 C 0.77067 0.14502 0.06046
 C249 C 0.76791 0.13278 0.04225
 N250 N 0.76029 0.14171 0.02425
 H251 H 0.78954 0.12543 -0.03412
 H252 H 0.77568 0.08815 0.01996
 H253 H 0.80679 0.06559 0.01293
 H254 H 0.82090 0.10386 -0.04217
 H255 H 0.74822 0.16939 0.00950
 H256 H 0.75312 0.19208 0.04062
 H257 H 0.77654 0.13750 0.07466
 H258 H 0.77173 0.11610 0.04263
 C259 C 0.74125 0.16758 -0.05861
 C260 C 0.70146 0.07602 0.01116
 C261 C 0.76540 0.16668 0.06024
 C262 C 0.81655 0.08300 -0.01515
 C263 C 0.21838 0.59458 0.49380
 H264 H 0.22816 0.59315 0.47971
 C265 C 0.20100 0.58107 0.49679
 H266 H 0.19759 0.56913 0.48496
 C267 C 0.21147 0.61151 0.52663
 H268 H 0.21574 0.62319 0.53835
 C269 C 0.19396 0.59831 0.53027
 H270 H 0.18468 0.60032 0.54463
 N271 N 0.22313 0.60958 0.50851
 C272 C 0.25921 0.65700 0.47284
 H273 H 0.27369 0.65760 0.48194
 C274 C 0.25711 0.66971 0.45488
 H275 H 0.27002 0.68013 0.45021
 C276 C 0.22459 0.64299 0.46814
 H277 H 0.21186 0.63274 0.47349
 C278 C 0.22170 0.65565 0.45026
 H279 H 0.20685 0.65474 0.44175
 Zn280 Zn 0.24724 0.62690 0.50339
 N281 N 0.24324 0.64368 0.47887
 C282 C 0.28248 0.60836 0.48164
 N283 N 0.27083 0.60849 0.49987
 C284 C 0.27508 0.59469 0.51584
 C285 C 0.29192 0.58037 0.51403
 C286 C 0.29948 0.59432 0.47917
 C287 C 0.23624 0.66062 0.52990
 C288 C 0.23816 0.67494 0.54663
 C289 C 0.27178 0.65883 0.55537
 C290 C 0.26921 0.64480 0.53845
 N291 N 0.25148 0.64574 0.52632
 H292 H 0.27855 0.61899 0.46887
 H293 H 0.26527 0.59479 0.52998
 H294 H 0.29490 0.56939 0.52685
 H295 H 0.30875 0.59474 0.46467
 H296 H 0.22248 0.66125 0.51976
 H297 H 0.22586 0.68670 0.54916
 H298 H 0.28578 0.65754 0.56513
 H299 H 0.28137 0.63317 0.53511
 C300 C 0.23816 0.66908 0.44334
 C301 C 0.18850 0.58286 0.51522
 C302 C 0.25606 0.67408 0.55973
 C303 C 0.30443 0.58009 0.49551
 C304 C 0.72351 0.90936 0.51453
 H305 H 0.73333 0.90927 0.52850
 C306 C 0.70714 0.92416 0.51270
 H307 H 0.70428 0.93528 0.52548
 C308 C 0.71525 0.89473 0.48104
 H309 H 0.71868 0.88350 0.46857
 C310 C 0.69863 0.90919 0.47860
 H311 H 0.68938 0.90889 0.46423
 N312 N 0.72708 0.89487 0.49895
 C313 C 0.75871 0.84342 0.53231
 H314 H 0.77337 0.84232 0.52331
 C315 C 0.75533 0.83017 0.54972
 H316 H 0.76744 0.81882 0.55409
 C317 C 0.72493 0.85934 0.53734
 H318 H 0.71303 0.87057 0.53234
 C319 C 0.72075 0.84616 0.55466
 H320 H 0.70577 0.84760 0.56309
 Zn321 Zn 0.74965 0.87551 0.50310
 N322 N 0.74379 0.85795 0.52675
 C323 C 0.78542 0.89051 0.52607
 N324 N 0.77453 0.89184 0.50762
 C325 C 0.78052 0.90570 0.49217
 C326 C 0.79838 0.91860 0.49476
 C327 C 0.80342 0.90306 0.52930
 C328 C 0.73657 0.84448 0.47436
 C329 C 0.73827 0.83035 0.45742
 C330 C 0.77424 0.84256 0.45150
 C331 C 0.77179 0.85657 0.46848
 N332 N 0.75309 0.85741 0.47940
 H333 H 0.78005 0.87999 0.53849
 H334 H 0.77137 0.90669 0.47778
 H335 H 0.80307 0.92932 0.48216
 H336 H 0.81175 0.90193 0.54418
 H337 H 0.72199 0.84522 0.48354
 H338 H 0.72472 0.82056 0.45343
 H339 H 0.78938 0.84189 0.44326
 H340 H 0.78497 0.86649 0.47311
 C341 C 0.73616 0.83151 0.56114
 C342 C 0.69435 0.92410 0.49461
 C343 C 0.75732 0.82921 0.44571
 C344 C 0.81012 0.91732 0.51352
 C345 C 0.01162 0.22236 0.39886
 H346 H 0.02597 0.23183 0.39816
 C347 C 0.00952 0.20636 0.41403
 H348 H 0.02247 0.20341 0.42481
 C349 C -0.02268 0.21479 0.38558
 H350 H -0.03538 0.21840 0.37480
 C351 C -0.02541 0.19856 0.40043
 H352 H -0.04023 0.18980 0.40086
 N353 N -0.00426 0.22611 0.38488
 C354 C 0.02645 0.25639 0.33062
 H355 H 0.01670 0.27046 0.32930
 C356 C 0.04300 0.25295 0.31620
 H357 H 0.04606 0.26459 0.30393
 C358 C 0.03440 0.22430 0.34846
 H359 H 0.03082 0.21303 0.36086
 C360 C 0.05118 0.22027 0.33443
 H361 H 0.06038 0.20586 0.33619
 Zn362 Zn -0.00006 0.24854 0.36529
 N363 N 0.02265 0.24230 0.34651
 C364 C 0.02476 0.28396 0.37825
 N365 N 0.00618 0.27323 0.38114
 C366 C -0.00820 0.27936 0.39610
 C367 C -0.00435 0.29720 0.40861
 C368 C 0.02926 0.30190 0.39042
 C369 C -0.03135 0.23681 0.33606
 C370 C -0.04876 0.23967 0.32279
 C371 C -0.05134 0.27596 0.33496
 C372 C -0.03407 0.27233 0.34820
 N373 N -0.02453 0.25296 0.34860
 H374 H 0.03619 0.27861 0.36659
 H375 H -0.02268 0.27031 0.39831
 H376 H -0.01591 0.30170 0.42057
 H377 H 0.04399 0.31041 0.38767
 H378 H -0.02314 0.22173 0.33629
 H379 H -0.05393 0.22670 0.31282
 H380 H -0.05875 0.29147 0.33482
 H381 H -0.02809 0.28515 0.35782
 C382 C 0.05571 0.23475 0.31809
 C383 C -0.00916 0.19415 0.41489
 C384 C -0.05888 0.25950 0.32206
 C385 C 0.01459 0.30875 0.40584
 C386 C -0.01041 0.71732 0.09606
 H387 H -0.02462 0.72693 0.09534
 C388 C -0.00837 0.69945 0.08314
 H389 H -0.02108 0.69534 0.07243
 C390 C 0.02370 0.71133 0.11053
 H391 H 0.03626 0.71616 0.12104
 C392 C 0.02653 0.69352 0.09764
 H393 H 0.04117 0.68455 0.09858
 N394 N 0.00535 0.72270 0.10966
 C395 C -0.02692 0.76107 0.15761
 H396 H -0.01676 0.77495 0.15757
 C397 C -0.04414 0.75989 0.17163
 H398 H -0.04707 0.77292 0.18244
 C399 C -0.03479 0.72687 0.14413
 H400 H -0.03088 0.71384 0.13371
 C401 C -0.05216 0.72501 0.15789
 H402 H -0.06174 0.71072 0.15750
 Zn403 Zn 0.00159 0.74739 0.12632
 N404 N -0.02270 0.74480 0.14407
 C405 C -0.01894 0.78300 0.10766
 N406 N -0.00131 0.77053 0.10745
 C407 C 0.01456 0.77366 0.09305
 C408 C 0.01329 0.79016 0.07836
 C409 C -0.02087 0.79969 0.09325
 C410 C 0.02846 0.73661 0.15943
 C411 C 0.04491 0.73906 0.17391
 C412 C 0.05428 0.77221 0.15695
 C413 C 0.03759 0.76915 0.14282
 N414 N 0.02516 0.75150 0.14425
 H415 H -0.03161 0.77999 0.11890
 H416 H 0.02822 0.76324 0.09298
 H417 H 0.02601 0.79224 0.06691
 H418 H -0.03488 0.80964 0.09389
 H419 H 0.01817 0.72285 0.16035
 H420 H 0.04737 0.72696 0.18581
 H421 H 0.06379 0.78651 0.15581
 H422 H 0.03439 0.78108 0.13099
 C423 C -0.05704 0.74166 0.17190
 C424 C 0.01031 0.68734 0.08383
 C425 C 0.05803 0.75709 0.17282
 C426 C -0.00460 0.80347 0.07836
 C427 C 0.49021 0.21691 0.61022
 H428 H 0.47607 0.21724 0.62000
 C429 C 0.49352 0.19991 0.59637
 H430 H 0.48180 0.18733 0.59571
 C431 C 0.52196 0.23345 0.59828
 H432 H 0.53290 0.24670 0.59908
 C433 C 0.52594 0.21674 0.58429
 H434 H 0.54020 0.21713 0.57459
 N435 N 0.50450 0.23311 0.61110
 C436 C 0.45951 0.26732 0.64602
 H437 H 0.46065 0.28129 0.63617
 C438 C 0.44160 0.26439 0.65888
 H439 H 0.42912 0.27621 0.65872
 C440 C 0.47489 0.23569 0.65915
 H441 H 0.48806 0.22466 0.65922
 C442 C 0.45723 0.23207 0.67217
 H443 H 0.45682 0.21798 0.68198
 Zn444 Zn 0.50028 0.25667 0.62925
 N445 N 0.47558 0.25290 0.64617
 C446 C 0.48115 0.28121 0.59796
 N447 N 0.49760 0.28092 0.61176
 C448 C 0.51204 0.29701 0.61230
 C449 C 0.50988 0.31454 0.59895
 C450 C 0.47828 0.29850 0.58447
 C451 C 0.53940 0.24521 0.64842
 C452 C 0.55609 0.24751 0.66267
 C453 C 0.53948 0.27947 0.67594
 C454 C 0.52304 0.27647 0.66154
 N455 N 0.52344 0.25974 0.64794
 H456 H 0.47010 0.26804 0.59762
 H457 H 0.52542 0.29618 0.62286
 H458 H 0.52173 0.32702 0.59943
 H459 H 0.46473 0.29862 0.57405
 H460 H 0.53909 0.23163 0.63800
 H461 H 0.56846 0.23559 0.66300
 H462 H 0.53908 0.29319 0.68625
 H463 H 0.50997 0.28760 0.66106
 C464 C 0.44022 0.24650 0.67213
 C465 C 0.51163 0.19963 0.58321
 C466 C 0.55634 0.26488 0.67664
 C467 C 0.49275 0.31552 0.58485
 C468 C 0.51174 0.72336 0.90950
 H469 H 0.52672 0.73180 0.90879
 C470 C 0.50907 0.70649 0.92361
 H471 H 0.52227 0.70182 0.93345
 C472 C 0.47646 0.71925 0.89734
 H473 H 0.46365 0.72453 0.88737
 C474 C 0.47305 0.70238 0.91132
 H475 H 0.45755 0.69491 0.91194
 N476 N 0.49563 0.72924 0.89656
 C477 C 0.52604 0.76201 0.84352
 H478 H 0.51675 0.77645 0.84341
 C479 C 0.54196 0.75891 0.82834
 H480 H 0.54502 0.77120 0.81671
 C481 C 0.53338 0.72856 0.85900
 H482 H 0.52975 0.71660 0.87073
 C483 C 0.54951 0.72484 0.84415
 H484 H 0.55818 0.71001 0.84464
 Zn485 Zn 0.50024 0.75276 0.87842
 N486 N 0.52224 0.74705 0.85862
 C487 C 0.52604 0.78709 0.89242
 N488 N 0.50759 0.77622 0.89563
 C489 C 0.49404 0.78146 0.91165
 C490 C 0.49854 0.79860 0.92489
 C491 C 0.53113 0.80440 0.90524
 C492 C 0.46895 0.74414 0.84843
 C493 C 0.45137 0.74811 0.83569
 C494 C 0.44759 0.78237 0.85251
 C495 C 0.46526 0.77776 0.86490
 N496 N 0.47547 0.75884 0.86275
 H497 H 0.53690 0.78236 0.87998
 H498 H 0.47960 0.77237 0.91401
 H499 H 0.48733 0.80280 0.93729
 H500 H 0.54591 0.81283 0.90249
 H501 H 0.47760 0.72939 0.84678
 H502 H 0.44668 0.73634 0.82415
 H503 H 0.43955 0.79742 0.85463
 H504 H 0.47090 0.78943 0.87605
 C505 C 0.55402 0.74017 0.82860
 C506 C 0.48950 0.69574 0.92470
 C507 C 0.44046 0.76748 0.83759
 C508 C 0.51725 0.81040 0.92167
 C509 C 0.19884 0.20180 0.24127
 C510 C 0.18173 0.20409 0.25531
 C511 C 0.16130 0.20859 0.24779
 C512 C 0.15823 0.21031 0.22581
 C513 C 0.17535 0.20794 0.21178
 C514 C 0.19582 0.20372 0.21937
 C515 C 0.14362 0.21072 0.26330
 C516 C 0.12599 0.22207 0.25958
 C517 C 0.10825 0.22464 0.27502
 C518 C 0.08868 0.23219 0.26763
 C519 C 0.07159 0.23532 0.28154
 C520 C 0.07370 0.23102 0.30322
 C521 C 0.09327 0.22352 0.31069
 C522 C 0.11040 0.22046 0.29681
 H523 H 0.21449 0.19863 0.24750
 H524 H 0.18450 0.20253 0.27213
 H525 H 0.14262 0.21300 0.21931
 H526 H 0.17259 0.20911 0.19493
 H527 H 0.14567 0.20294 0.27837
 H528 H 0.12427 0.22996 0.24448
 H529 H 0.08657 0.23563 0.25099
 H530 H 0.05665 0.24094 0.27528
 H531 H 0.09549 0.22050 0.32739
 H532 H 0.12530 0.21531 0.30342
 C533 C 0.69140 0.70451 0.74263
 C534 C 0.67538 0.70722 0.75784
 C535 C 0.65476 0.71300 0.75184
 C536 C 0.65035 0.71562 0.73019
 C537 C 0.66636 0.71284 0.71499
 C538 C 0.68704 0.70724 0.72104
 C539 C 0.63821 0.71543 0.76851
 C540 C 0.62097 0.72774 0.76626
 C541 C 0.60416 0.73038 0.78270
 C542 C 0.58468 0.73930 0.77668
 C543 C 0.56839 0.74239 0.79151
 C544 C 0.57122 0.73668 0.81278
 C545 C 0.59072 0.72785 0.81889
 C546 C 0.60706 0.72482 0.80408
 H547 H 0.70725 0.70037 0.74772
 H548 H 0.67917 0.70498 0.77438
 H549 H 0.63451 0.71932 0.72483
 H550 H 0.66253 0.71473 0.69843
 H551 H 0.64077 0.70695 0.78312
 H552 H 0.61882 0.73635 0.75163
 H553 H 0.58200 0.74381 0.76038
 H554 H 0.55347 0.74905 0.78628
 H555 H 0.59351 0.72370 0.83526
 H556 H 0.62195 0.71855 0.80968
 C557 C 0.31215 0.76512 0.73521
 C558 C 0.32887 0.76109 0.74904
 C559 C 0.34180 0.77771 0.75633
 C560 C 0.33780 0.79852 0.74915
 C561 C 0.32105 0.80251 0.73532
 C562 C 0.30805 0.78587 0.72827
 C563 C 0.35954 0.77246 0.77076
 C564 C 0.36951 0.78674 0.78295
 C565 C 0.38742 0.78126 0.79703
 C566 C 0.40201 0.79722 0.80238
 C567 C 0.41919 0.79277 0.81553
 C568 C 0.42204 0.77227 0.82383
 C569 C 0.40720 0.75637 0.81880
 C570 C 0.39005 0.76081 0.80560
 H571 H 0.30230 0.75205 0.72996
 H572 H 0.33165 0.74492 0.75416
 H573 H 0.34774 0.81173 0.75370
 H574 H 0.31837 0.81857 0.72985
 H575 H 0.36443 0.75600 0.77127
 H576 H 0.36489 0.80326 0.78244
 H577 H 0.40028 0.81313 0.79611
 H578 H 0.43044 0.80533 0.81889
 H579 H 0.40868 0.74055 0.82534
 H580 H 0.37872 0.74827 0.80254
 C581 C -0.20358 0.28113 0.24873
 C582 C -0.18675 0.27617 0.26214
 C583 C -0.16619 0.27314 0.25391
 C584 C -0.16289 0.27450 0.23190
 C585 C -0.17979 0.27920 0.21849
 C586 C -0.20022 0.28272 0.22682
 C587 C -0.14865 0.26818 0.26856
 C588 C -0.12860 0.27451 0.26498
 C589 C -0.11110 0.27035 0.27991
 C590 C -0.09426 0.28491 0.28106
 C591 C -0.07742 0.28148 0.29490
 C592 C -0.07688 0.26317 0.30757
 C593 C -0.09353 0.24837 0.30616
 C594 C -0.11055 0.25195 0.29252
 H595 H -0.21930 0.28363 0.25538
 H596 H -0.18970 0.27500 0.27901
 H597 H -0.14735 0.27167 0.22499
 H598 H -0.17694 0.28030 0.20161
 H599 H -0.15270 0.26037 0.28332
 H600 H -0.12503 0.28427 0.25128
 H601 H -0.09424 0.29909 0.27134
 H602 H -0.06462 0.29299 0.29547
 H603 H -0.09347 0.23412 0.31577
 H604 H -0.12302 0.24013 0.29161
 C605 C -0.17819 0.69369 0.27376
 C606 C -0.16142 0.69593 0.25931
 C607 C -0.15625 0.71591 0.25082
 C608 C -0.16856 0.73363 0.25683
 C609 C -0.18535 0.73135 0.27129
 C610 C -0.19026 0.71139 0.27995
 C611 C -0.13830 0.71730 0.23548
 C612 C -0.12801 0.73538 0.23066
 C613 C -0.10988 0.73640 0.21552
 C614 C -0.10533 0.75577 0.20546
 C615 C -0.08827 0.75749 0.19125
 C616 C -0.07524 0.73987 0.18692
 C617 C -0.07961 0.72055 0.19722
 C618 C -0.09667 0.71882 0.21141
 H619 H -0.18168 0.67815 0.28026
 H620 H -0.15233 0.68200 0.25488
 H621 H -0.16566 0.74919 0.25019
 H622 H -0.19471 0.74513 0.27558
 H623 H -0.13331 0.70260 0.22813
 H624 H -0.13299 0.75020 0.23775
 H625 H -0.11515 0.76958 0.20846
 H626 H -0.08543 0.77255 0.18345
 H627 H -0.06955 0.70684 0.19463
 H628 H -0.09907 0.70384 0.21944
 C629 C 0.32406 0.19254 0.77672
 C630 C 0.34151 0.19568 0.76326
 C631 C 0.34545 0.21568 0.75423
 C632 C 0.33168 0.23262 0.75914
 C633 C 0.31430 0.22949 0.77270
 C634 C 0.31038 0.20944 0.78165
 C635 C 0.36453 0.21852 0.74063
 C636 C 0.36601 0.23341 0.72550
 C637 C 0.38521 0.23628 0.71207
 C638 C 0.38301 0.24497 0.69178
 C639 C 0.40080 0.24817 0.67877
 C640 C 0.42126 0.24301 0.68591
 C641 C 0.42348 0.23459 0.70639
 C642 C 0.40567 0.23127 0.71934
 H643 H 0.32139 0.17701 0.78361
 H644 H 0.35198 0.18244 0.75989
 H645 H 0.33453 0.24841 0.75298
 H646 H 0.30392 0.24272 0.77635
 H647 H 0.37739 0.20731 0.74260
 H648 H 0.35237 0.24323 0.72204
 H649 H 0.36743 0.24909 0.68589
 H650 H 0.39848 0.25446 0.66302
 H651 H 0.43904 0.23094 0.71258
 H652 H 0.40807 0.22525 0.73517
 C653 C 0.69944 0.28889 0.75508
 C654 C 0.68290 0.28561 0.74083
 C655 C 0.66240 0.28032 0.74808
 C656 C 0.65892 0.27804 0.77002
 C657 C 0.67545 0.28148 0.78426
 C658 C 0.69588 0.28697 0.77696
 C659 C 0.64545 0.27690 0.73218
 C660 C 0.62458 0.27648 0.73683
 C661 C 0.60761 0.27333 0.72091
 C662 C 0.58658 0.27822 0.72669
 C663 C 0.56998 0.27546 0.71240
 C664 C 0.57399 0.26770 0.69191
 C665 C 0.59500 0.26258 0.68615
 C666 C 0.61160 0.26522 0.70048
 H667 H 0.71510 0.29282 0.74901
 H668 H 0.68614 0.28726 0.72405
 H669 H 0.64365 0.27335 0.77640
 H670 H 0.67229 0.27989 0.80105
 H671 H 0.65061 0.27557 0.71588
 H672 H 0.61936 0.27944 0.75289
 H673 H 0.58296 0.28424 0.74237
 H674 H 0.55395 0.27916 0.71753
 H675 H 0.59868 0.25670 0.67045
 H676 H 0.62737 0.26062 0.69543
 C677 C 0.19698 0.78694 0.25572
 C678 C 0.18127 0.78244 0.24086
 C679 C 0.16102 0.77555 0.24738
 C680 C 0.15702 0.77262 0.26915
 C681 C 0.17272 0.77716 0.28399
 C682 C 0.19280 0.78455 0.27745
 C683 C 0.14478 0.77132 0.23098
 C684 C 0.12380 0.77089 0.23494
 C685 C 0.10757 0.76703 0.21850
 C686 C 0.08760 0.75922 0.22481
 C687 C 0.07163 0.75580 0.20997
 C688 C 0.07519 0.76036 0.18847
 C689 C 0.09510 0.76838 0.18214
 C690 C 0.11113 0.77171 0.19697
 H691 H 0.21244 0.79228 0.25025
 H692 H 0.18489 0.78458 0.22421
 H693 H 0.14195 0.76661 0.27490
 H694 H 0.16913 0.77510 0.30064
 H695 H 0.15052 0.76887 0.21498
 H696 H 0.11796 0.77326 0.25090
 H697 H 0.08435 0.75573 0.24131
 H698 H 0.05633 0.74996 0.21540
 H699 H 0.09831 0.77200 0.16567
 H700 H 0.12605 0.77837 0.19152
 C701 C 0.25068 0.18847 0.20538
 C702 C 0.26555 0.17241 0.20886
 C703 C 0.25898 0.15217 0.21559
 C704 C 0.23710 0.14814 0.21825
 C705 C 0.22224 0.16419 0.21468
 C706 C 0.22888 0.18453 0.20832
 C707 C 0.27532 0.13561 0.21900
 C708 C 0.27251 0.11904 0.23211
 C709 C 0.28865 0.10226 0.23557
 C710 C 0.28197 0.08279 0.24420
 C711 C 0.29652 0.06645 0.24773
 C712 C 0.31815 0.06924 0.24279
 C713 C 0.32494 0.08883 0.23447
 C714 C 0.31041 0.10520 0.23098
 H715 H 0.25617 0.20404 0.20054
 H716 H 0.28227 0.17588 0.20652
 H717 H 0.23132 0.13256 0.22264
 H718 H 0.20549 0.16069 0.21668
 H719 H 0.29020 0.13754 0.21055
 H720 H 0.25761 0.11737 0.24061
 H721 H 0.26536 0.08012 0.24801
 H722 H 0.29076 0.05148 0.25399
 H723 H 0.34158 0.09160 0.23094
 H724 H 0.31645 0.12015 0.22506
 C725 C 0.74043 0.69123 0.70192
 C726 C 0.75551 0.67513 0.70403
 C727 C 0.74963 0.65509 0.71185
 C728 C 0.72814 0.65128 0.71699
 C729 C 0.71304 0.66737 0.71479
 C730 C 0.71906 0.68756 0.70738
 C731 C 0.76624 0.63856 0.71380
 C732 C 0.76485 0.62218 0.72733
 C733 C 0.78154 0.60571 0.72950
 C734 C 0.77594 0.58607 0.73847
 C735 C 0.79109 0.57008 0.74090
 C736 C 0.81228 0.57342 0.73452
 C737 C 0.81800 0.59318 0.72582
 C738 C 0.80285 0.60919 0.72342
 H739 H 0.74549 0.70665 0.69619
 H740 H 0.77190 0.67843 0.69979
 H741 H 0.72279 0.63583 0.72231
 H742 H 0.69658 0.66404 0.71867
 H743 H 0.78023 0.64039 0.70392
 H744 H 0.75084 0.62045 0.73722
 H745 H 0.75969 0.58300 0.74343
 H746 H 0.78614 0.55496 0.74748
 H747 H 0.83430 0.59637 0.72119
 H748 H 0.80809 0.62432 0.71720
 C749 C 0.74998 0.30378 0.79144
 C750 C 0.76475 0.32005 0.78808
 C751 C 0.75816 0.34008 0.78094
 C752 C 0.73635 0.34364 0.77761
 C753 C 0.72158 0.32736 0.78104
 C754 C 0.72826 0.30727 0.78794
 C755 C 0.77438 0.35695 0.77796
 C756 C 0.77187 0.37352 0.76486
 C757 C 0.78783 0.39069 0.76199
 C758 C 0.78114 0.41007 0.75336
 C759 C 0.79549 0.42677 0.75037
 C760 C 0.81696 0.42443 0.75583
 C761 C 0.82378 0.40495 0.76419
 C762 C 0.80943 0.38821 0.76716
 H763 H 0.75550 0.28840 0.79671
 H764 H 0.78141 0.31694 0.79093
 H765 H 0.73050 0.35904 0.77287
 H766 H 0.70487 0.33052 0.77863
 H767 H 0.78891 0.35530 0.78681
 H768 H 0.75733 0.37494 0.75596
 H769 H 0.76465 0.41240 0.74913
 H770 H 0.78969 0.44166 0.74409
 H771 H 0.84031 0.40254 0.76814
 H772 H 0.81550 0.37335 0.77312
 C773 C 0.21417 -0.17282 0.28228
 C774 C 0.22737 -0.15518 0.27937
 C775 C 0.24913 -0.15634 0.28397
 C776 C 0.25733 -0.17546 0.29210
 C777 C 0.24411 -0.19309 0.29499
 C778 C 0.22244 -0.19200 0.28998
 C779 C 0.26247 -0.13715 0.28062
 C780 C 0.28367 -0.13771 0.27810
 C781 C 0.29697 -0.11851 0.27481
 C782 C 0.31857 -0.11944 0.28008
 C783 C 0.33176 -0.10178 0.27722
 C784 C 0.32367 -0.08282 0.26880
 C785 C 0.30212 -0.08197 0.26317
 C786 C 0.28891 -0.09961 0.26609
 H787 H 0.19745 -0.17149 0.27863
 H788 H 0.22058 -0.14060 0.27336
 H789 H 0.27380 -0.17687 0.29658
 H790 H 0.25081 -0.20767 0.30107
 H791 H 0.25427 -0.12207 0.27999
 H792 H 0.29191 -0.15275 0.27875
 H793 H 0.32525 -0.13386 0.28657
 H794 H 0.34837 -0.10304 0.28138
 H795 H 0.29541 -0.06756 0.25670
 H796 H 0.27254 -0.09842 0.26117
 C797 C 0.27072 -0.18655 0.73816
 C798 C 0.25738 -0.16917 0.74172
 C799 C 0.24935 -0.15745 0.72470
 C800 C 0.25523 -0.16323 0.70397
 C801 C 0.26876 -0.18048 0.70041
 C802 C 0.27665 -0.19236 0.71746
 C803 C 0.23570 -0.13882 0.72919
 C804 C 0.22084 -0.13182 0.71580
 C805 C 0.20722 -0.11320 0.72045
 C806 C 0.18680 -0.11228 0.71177
 C807 C 0.17360 -0.09485 0.71569
 C808 C 0.18068 -0.07775 0.72812
 C809 C 0.20131 -0.07855 0.73652
 C810 C 0.21442 -0.09606 0.73275
 H811 H 0.27643 -0.19548 0.75159
 H812 H 0.25319 -0.16496 0.75784
 H813 H 0.24988 -0.15414 0.69050
 H814 H 0.27336 -0.18436 0.68433
 H815 H 0.23729 -0.13132 0.74452
 H816 H 0.21771 -0.14060 0.70143
 H817 H 0.18094 -0.12522 0.70213
 H818 H 0.15775 -0.09490 0.70916
 H819 H 0.20750 -0.06544 0.74569
 H820 H 0.23034 -0.09590 0.73909
 C821 C 0.77869 0.32502 0.22566
 C822 C 0.76619 0.34281 0.23008
 C823 C 0.74425 0.34253 0.22631
 C824 C 0.73493 0.32379 0.21848
 C825 C 0.74744 0.30594 0.21413
 C826 C 0.76947 0.30641 0.21756
 C827 C 0.73171 0.36185 0.23129
 C828 C 0.71317 0.36656 0.22204
 C829 C 0.70076 0.38612 0.22658
 C830 C 0.67922 0.38660 0.22098
 C831 C 0.66694 0.40475 0.22455
 C832 C 0.67597 0.42293 0.23374
 C833 C 0.69756 0.42256 0.23923
 C834 C 0.70986 0.40443 0.23561
 H835 H 0.79563 0.32583 0.22840
 H836 H 0.77375 0.35696 0.23625
 H837 H 0.71798 0.32262 0.21607
 H838 H 0.73990 0.29165 0.20830
 H839 H 0.73847 0.37269 0.24267
 H840 H 0.70656 0.35567 0.21060
 H841 H 0.67181 0.37281 0.21389
 H842 H 0.65031 0.40447 0.22031
 H843 H 0.70507 0.43648 0.24592
 H844 H 0.72654 0.40514 0.23949
 C845 C 0.77183 0.67912 0.31014
 C846 C 0.75817 0.66177 0.30776
 C847 C 0.75004 0.65651 0.28780
 C848 C 0.75617 0.66879 0.27015
 C849 C 0.76988 0.68608 0.27255
 C850 C 0.77782 0.69142 0.29254
 C851 C 0.73602 0.63767 0.28585
 C852 C 0.72181 0.63535 0.27030
 C853 C 0.70792 0.61645 0.26814
 C854 C 0.68875 0.61849 0.25714
 C855 C 0.67540 0.60097 0.25433
 C856 C 0.68108 0.58093 0.26225
 C857 C 0.70039 0.57881 0.27306
 C858 C 0.71369 0.59636 0.27597
 H859 H 0.77800 0.68280 0.32566
 H860 H 0.75390 0.65243 0.32155
 H861 H 0.75082 0.66486 0.25441
 H862 H 0.77438 0.69531 0.25876
 H863 H 0.73688 0.62581 0.29822
 H864 H 0.71948 0.64818 0.25915
 H865 H 0.68405 0.63371 0.25072
 H866 H 0.66079 0.60303 0.24563
 H867 H 0.70516 0.56358 0.27939
 H868 H 0.72863 0.59400 0.28398
 C869 C 0.27252 0.17597 0.81082
 C870 C 0.25920 0.15841 0.80809
 C871 C 0.25183 0.15292 0.78791
 C872 C 0.25849 0.16509 0.77037
 C873 C 0.27187 0.18259 0.77311
 C874 C 0.27892 0.18826 0.79335
 C875 C 0.23787 0.13408 0.78565
 C876 C 0.22400 0.13181 0.76979
 C877 C 0.20998 0.11303 0.76740
 C878 C 0.19115 0.11518 0.75585
 C879 C 0.17771 0.09779 0.75279
 C880 C 0.18295 0.07775 0.76101
 C881 C 0.20190 0.07552 0.77241
 C882 C 0.21530 0.09295 0.77556
 H883 H 0.27802 0.17989 0.82653
 H884 H 0.25453 0.14915 0.82181
 H885 H 0.25374 0.16097 0.75448
 H886 H 0.27670 0.19179 0.75941
 H887 H 0.23839 0.12227 0.79808
 H888 H 0.22202 0.14462 0.75856
 H889 H 0.18681 0.13041 0.74919
 H890 H 0.16340 0.09993 0.74364
 H891 H 0.20632 0.06028 0.77898
 H892 H 0.22997 0.09048 0.78401
 C893 C 0.22179 0.20713 0.16699
 C894 C 0.22407 0.22070 0.14963
 C895 C 0.22051 0.24261 0.15174
 C896 C 0.21418 0.25063 0.17163
 C897 C 0.21194 0.23704 0.18900
 C898 C 0.21577 0.21518 0.18687
 C899 C 0.22308 0.25627 0.13274
 C900 C 0.22595 0.27739 0.13349
 C901 C 0.22861 0.29084 0.11438
 C902 C 0.22349 0.31249 0.11574
 C903 C 0.22591 0.32579 0.09818
 C904 C 0.23375 0.31777 0.07890
 C905 C 0.23918 0.29616 0.07760
 C906 C 0.23670 0.28283 0.09513
 H907 H 0.22458 0.19030 0.16491
 H908 H 0.22874 0.21404 0.13449
 H909 H 0.21060 0.26726 0.17391
 H910 H 0.20725 0.24359 0.20417
 H911 H 0.22281 0.24835 0.11755
 H912 H 0.22609 0.28547 0.14858
 H913 H 0.21748 0.31911 0.13043
 H914 H 0.22191 0.34244 0.09977
 H915 H 0.24519 0.28949 0.06294
 H916 H 0.24150 0.26642 0.09358
 C917 C 0.70576 0.71017 0.66673
 C918 C 0.70738 0.72383 0.64937
 C919 C 0.70847 0.74589 0.65237
 C920 C 0.70714 0.75412 0.67304
 C921 C 0.70519 0.74045 0.69037
 C922 C 0.70472 0.71839 0.68734
 C923 C 0.71071 0.75989 0.63370
 C924 C 0.72195 0.77797 0.63416
 C925 C 0.72521 0.79146 0.61526
 C926 C 0.74431 0.80281 0.61307
 C927 C 0.74795 0.81565 0.59537
 C928 C 0.73233 0.81775 0.57977
 C929 C 0.71303 0.80675 0.58216
 C930 C 0.70952 0.79363 0.59969
 H931 H 0.70526 0.69318 0.66416
 H932 H 0.70818 0.71717 0.63359
 H933 H 0.70739 0.77108 0.67581
 H934 H 0.70435 0.74701 0.70619
 H935 H 0.70424 0.75433 0.61886
 H936 H 0.73032 0.78231 0.64844
 H937 H 0.75654 0.80153 0.62496
 H938 H 0.76285 0.82418 0.59400
 H939 H 0.70075 0.80813 0.57033
 H940 H 0.69441 0.78550 0.60121
 C941 C 0.80752 0.73274 0.32214
 C942 C 0.80497 0.74738 0.33858
 C943 C 0.78460 0.75334 0.34552
 C944 C 0.76675 0.74468 0.33537
 C945 C 0.76931 0.73017 0.31880
 C946 C 0.78972 0.72399 0.31204
 C947 C 0.78259 0.76908 0.36284
 C948 C 0.76587 0.76973 0.37613
 C949 C 0.76412 0.78519 0.39374
 C950 C 0.75225 0.77964 0.41179
 C951 C 0.75014 0.79383 0.42868
 C952 C 0.75961 0.81407 0.42775
 C953 C 0.77123 0.81974 0.40949
 C954 C 0.77346 0.80547 0.39267
 H955 H 0.82343 0.72817 0.31736
 H956 H 0.81896 0.75393 0.34605
 H957 H 0.75081 0.74941 0.33984
 H958 H 0.75534 0.72395 0.31106
 H959 H 0.79592 0.77964 0.36540
 H960 H 0.75355 0.75778 0.37493
 H961 H 0.74480 0.76415 0.41294
 H962 H 0.74132 0.78881 0.44258
 H963 H 0.77830 0.83536 0.40803
 H964 H 0.78213 0.81056 0.37870
 C965 C 0.30644 0.23077 -0.17647
 C966 C 0.30303 0.24552 -0.16030
 C967 C 0.28233 0.25080 -0.15383
 C968 C 0.26501 0.24127 -0.16412
 C969 C 0.26843 0.22666 -0.18045
 C970 C 0.28918 0.22123 -0.18680
 C971 C 0.27943 0.26683 -0.13692
 C972 C 0.26256 0.26713 -0.12384
 C973 C 0.26013 0.28295 -0.10665
 C974 C 0.24900 0.27726 -0.08819
 C975 C 0.24659 0.29176 -0.07159
 C976 C 0.25497 0.31243 -0.07326
 C977 C 0.26571 0.31824 -0.09199
 C978 C 0.26828 0.30368 -0.10850
 H979 H 0.32260 0.22679 -0.18092
 H980 H 0.31662 0.25273 -0.15270
 H981 H 0.24883 0.24545 -0.15996
 H982 H 0.25485 0.21984 -0.18838
 H983 H 0.29228 0.27801 -0.13447
 H984 H 0.25074 0.25465 -0.12482
 H985 H 0.24247 0.26142 -0.08646
 H986 H 0.23845 0.28663 -0.05732
 H987 H 0.27189 0.33417 -0.09405
 H988 H 0.27632 0.30883 -0.12281
 C989 C 0.71957 0.28658 -0.17000
 C990 C 0.72173 0.27389 -0.15203
 C991 C 0.71933 0.25175 -0.15328
 C992 C 0.71419 0.24259 -0.17294
 C993 C 0.71206 0.25531 -0.19093
 C994 C 0.71483 0.27740 -0.18965
 C995 C 0.72206 0.23905 -0.13370
 C996 C 0.72604 0.21811 -0.13353
 C997 C 0.72945 0.20577 -0.11387
 C998 C 0.72563 0.18381 -0.11414
 C999 C 0.72920 0.17146 -0.09615
 C1000 C 0.73692 0.18080 -0.07753
 C1001 C 0.74089 0.20277 -0.07728
 C1002 C 0.73725 0.21513 -0.09525
 H1003 H 0.72154 0.30360 -0.16860
 H1004 H 0.72548 0.28141 -0.13709
 H1005 H 0.71152 0.22572 -0.17459
 H1006 H 0.70837 0.24791 -0.20592
 H1007 H 0.72114 0.24759 -0.11887
 H1008 H 0.72679 0.20937 -0.14824
 H1009 H 0.71987 0.17617 -0.12834
 H1010 H 0.72632 0.15452 -0.09694
 H1011 H 0.74679 0.21042 -0.06314
 H1012 H 0.74106 0.23187 -0.09455
 C1013 C 0.21149 0.78600 0.33162
 C1014 C 0.21346 0.77337 0.34968
 C1015 C 0.21554 0.75126 0.34788
 C1016 C 0.21510 0.74191 0.32766
 C1017 C 0.21284 0.75453 0.30963
 C1018 C 0.21112 0.77667 0.31147
 C1019 C 0.21743 0.73837 0.36734
 C1020 C 0.22847 0.72020 0.36803
 C1021 C 0.23069 0.70751 0.38760
 C1022 C 0.24926 0.69561 0.39058
 C1023 C 0.25179 0.68333 0.40880
 C1024 C 0.23559 0.68236 0.42419
 C1025 C 0.21684 0.69399 0.42106
 C1026 C 0.21442 0.70651 0.40298
 H1027 H 0.20999 0.80304 0.33332
 H1028 H 0.21355 0.78091 0.36509
 H1029 H 0.21609 0.72485 0.32577
 H1030 H 0.21251 0.74708 0.29419
 H1031 H 0.21055 0.74473 0.38177
 H1032 H 0.23722 0.71500 0.35414
 H1033 H 0.26191 0.69597 0.37885
 H1034 H 0.26628 0.67430 0.41072
 H1035 H 0.20412 0.69352 0.43270
 H1036 H 0.19968 0.71506 0.40089
 C1037 C 0.30599 0.77004 0.68357
 C1038 C 0.30356 0.75665 0.66614
 C1039 C 0.28334 0.74940 0.66024
 C1040 C 0.26556 0.75562 0.67243
 C1041 C 0.26803 0.76902 0.68989
 C1042 C 0.28826 0.77637 0.69560
 C1043 C 0.28176 0.73490 0.64178
 C1044 C 0.26379 0.73148 0.63100
 C1045 C 0.26242 0.71682 0.61267
 C1046 C 0.24257 0.70813 0.60755
 C1047 C 0.24050 0.69426 0.59042
 C1048 C 0.25825 0.68892 0.57787
 C1049 C 0.27808 0.69788 0.58277
 C1050 C 0.28015 0.71174 0.59992
 H1051 H 0.32174 0.77554 0.68766
 H1052 H 0.31753 0.75202 0.65715
 H1053 H 0.24978 0.74987 0.66896
 H1054 H 0.25419 0.77342 0.69919
 H1055 H 0.29620 0.72689 0.63694
 H1056 H 0.24925 0.73930 0.63582
 H1057 H 0.22863 0.71188 0.61701
 H1058 H 0.22504 0.68747 0.58720
 H1059 H 0.29195 0.69447 0.57311
 H1060 H 0.29557 0.71871 0.60279
 C1061 C 0.77333 0.28463 0.17510
 C1062 C 0.76998 0.27214 0.15714
 C1063 C 0.77214 0.24997 0.15808
 C1064 C 0.77718 0.24046 0.17756
 C1065 C 0.78048 0.25296 0.19551
 C1066 C 0.77866 0.27516 0.19447
 C1067 C 0.76846 0.23731 0.13866
 C1068 C 0.77705 0.21807 0.13539
 C1069 C 0.77371 0.20542 0.11589
 C1070 C 0.78871 0.18983 0.11045
 C1071 C 0.78607 0.17734 0.09238
 C1072 C 0.76824 0.18002 0.07942
 C1073 C 0.75307 0.19547 0.08500
 C1074 C 0.75572 0.20799 0.10306
 H1075 H 0.77199 0.30172 0.17385
 H1076 H 0.76596 0.27985 0.14239
 H1077 H 0.77824 0.22340 0.17915
 H1078 H 0.78426 0.24528 0.21034
 H1079 H 0.75930 0.24469 0.12625
 H1080 H 0.78789 0.21163 0.14694
 H1081 H 0.80263 0.18743 0.12012
 H1082 H 0.79815 0.16574 0.08842
 H1083 H 0.73892 0.19759 0.07561
 H1084 H 0.74342 0.21929 0.10710
 C1085 C 0.44145 0.42961 0.47868
 C1086 C 0.44437 0.41241 0.49232
 C1087 C 0.46447 0.40813 0.50078
 C1088 C 0.48173 0.42123 0.49507
 C1089 C 0.47883 0.43831 0.48128
 C1090 C 0.45867 0.44264 0.47297
 C1091 C 0.46705 0.38940 0.51469
 C1092 C 0.48192 0.38820 0.52971
 C1093 C 0.48439 0.36941 0.54355
 C1094 C 0.49244 0.37216 0.56399
 C1095 C 0.49507 0.35473 0.57742
 C1096 C 0.49003 0.33409 0.57056
 C1097 C 0.48235 0.33133 0.54990
 C1098 C 0.47954 0.34878 0.53655
 H1099 H 0.42583 0.43257 0.47227
 H1100 H 0.43088 0.40243 0.49632
 H1101 H 0.49757 0.41805 0.50080
 H1102 H 0.49231 0.44817 0.47699
 H1103 H 0.45562 0.37663 0.51309
 H1104 H 0.49194 0.40183 0.53281
 H1105 H 0.49643 0.38788 0.56969
 H1106 H 0.50079 0.35750 0.59330
 H1107 H 0.47883 0.31563 0.54388
 H1108 H 0.47400 0.34599 0.52062
 C1109 C -0.05249 0.92532 -0.02107
 C1110 C -0.05019 0.90809 -0.00738
 C1111 C -0.02996 0.90156 -0.00081
 C1112 C -0.01199 0.91282 -0.00820
 C1113 C -0.01434 0.93006 -0.02194
 C1114 C -0.03460 0.93650 -0.02844
 C1115 C -0.02858 0.88349 0.01424
 C1116 C -0.01071 0.87260 0.01815
 C1117 C -0.00970 0.85481 0.03350
 C1118 C 0.00988 0.85000 0.04281
 C1119 C 0.01154 0.83340 0.05738
 C1120 C -0.00634 0.82109 0.06283
 C1121 C -0.02588 0.82567 0.05325
 C1122 C -0.02755 0.84228 0.03869
 H1123 H -0.06827 0.92997 -0.02596
 H1124 H -0.06430 0.89982 -0.00190
 H1125 H 0.00386 0.90885 -0.00314
 H1126 H -0.00035 0.93867 -0.02721
 H1127 H -0.04311 0.87911 0.02242
 H1128 H 0.00400 0.87696 0.01032
 H1129 H 0.02389 0.85929 0.03899
 H1130 H 0.02679 0.83040 0.06461
 H1131 H -0.03982 0.81615 0.05671
 H1132 H -0.04275 0.84491 0.03127
 C1133 C 0.03481 0.58094 -0.03823
 C1134 C 0.03323 0.59835 -0.02460
 C1135 C 0.03189 0.59533 -0.00263
 C1136 C 0.03269 0.57456 0.00554
 C1137 C 0.03459 0.55718 -0.00809
 C1138 C 0.03554 0.56023 -0.03007
 C1139 C 0.03033 0.61412 0.01134
 C1140 C 0.01963 0.61386 0.02977
 C1141 C 0.01760 0.63283 0.04343
 C1142 C -0.00099 0.63557 0.05552
 C1143 C -0.00343 0.65337 0.06853
 C1144 C 0.01291 0.66850 0.07006
 C1145 C 0.03172 0.66553 0.05832
 C1146 C 0.03403 0.64790 0.04505
 H1147 H 0.03573 0.58356 -0.05514
 H1148 H 0.03284 0.61421 -0.03123
 H1149 H 0.03226 0.57174 0.02243
 H1150 H 0.03521 0.54129 -0.00156
 H1151 H 0.03710 0.62890 0.00563
 H1152 H 0.01095 0.59971 0.03441
 H1153 H -0.01376 0.62405 0.05468
 H1154 H -0.01799 0.65519 0.07762
 H1155 H 0.04453 0.67699 0.05923
 H1156 H 0.04878 0.64594 0.03634
 C1157 C 0.53981 0.05583 0.50597
 C1158 C 0.53697 0.07257 0.52024
 C1159 C 0.53060 0.09271 0.51316
 C1160 C 0.52689 0.09565 0.49140
 C1161 C 0.52986 0.07894 0.47715
 C1162 C 0.53629 0.05884 0.48427
 C1163 C 0.52725 0.10982 0.52902
 C1164 C 0.52637 0.13056 0.52413
 C1165 C 0.52272 0.14773 0.53987
 C1166 C 0.52751 0.16871 0.53400
 C1167 C 0.52397 0.18551 0.54802
 C1168 C 0.51546 0.18174 0.56831
 C1169 C 0.51051 0.16076 0.57418
 C1170 C 0.51397 0.14395 0.56011
 H1171 H 0.54451 0.04042 0.51191
 H1172 H 0.53972 0.06976 0.53690
 H1173 H 0.52130 0.11062 0.48523
 H1174 H 0.52704 0.08167 0.46049
 H1175 H 0.52626 0.10497 0.54541
 H1176 H 0.52918 0.13552 0.50797
 H1177 H 0.53401 0.17215 0.51844
 H1178 H 0.52759 0.20150 0.54283
 H1179 H 0.50405 0.15728 0.58973
 H1180 H 0.50942 0.12818 0.56516
 C1181 C -0.03419 0.05367 0.49701
 C1182 C -0.02986 0.06994 0.48258
 C1183 C -0.02398 0.09025 0.48961
 C1184 C -0.02189 0.09375 0.51154
 C1185 C -0.02627 0.07744 0.52597
 C1186 C -0.03266 0.05732 0.51885
 C1187 C -0.02019 0.10705 0.47350
 C1188 C -0.01955 0.12793 0.47778
 C1189 C -0.01667 0.14440 0.46122
 C1190 C -0.00774 0.16402 0.46685
 C1191 C -0.00515 0.18011 0.45181
 C1192 C -0.01173 0.17702 0.43084
 C1193 C -0.02094 0.15749 0.42525
 C1194 C -0.02342 0.14135 0.44026
 H1195 H -0.03884 0.03821 0.49113
 H1196 H -0.03139 0.06669 0.46583
 H1197 H -0.01680 0.10889 0.51774
 H1198 H -0.02495 0.08061 0.54274
 H1199 H -0.01831 0.10183 0.45728
 H1200 H -0.02101 0.13347 0.49390
 H1201 H -0.00267 0.16687 0.48294
 H1202 H 0.00170 0.19511 0.45666
 H1203 H -0.02612 0.15463 0.40920
 H1204 H -0.03103 0.12674 0.43544
 C1205 C 0.45987 0.55308 1.00382
 C1206 C 0.46315 0.56961 0.98939
 C1207 C 0.46596 0.59059 0.99643
 C1208 C 0.46509 0.59469 1.01836
 C1209 C 0.46195 0.57812 1.03276
 C1210 C 0.45931 0.55718 1.02563
 C1211 C 0.46908 0.60759 0.98037
 C1212 C 0.47661 0.62706 0.98480
 C1213 C 0.47974 0.64414 0.96881
 C1214 C 0.49195 0.66192 0.97439
 C1215 C 0.49515 0.67860 0.96013
 C1216 C 0.48618 0.67793 0.93985
 C1217 C 0.47383 0.66020 0.93425
 C1218 C 0.47053 0.64356 0.94857
 H1219 H 0.45791 0.53703 0.99800
 H1220 H 0.46357 0.56596 0.97264
 H1221 H 0.46640 0.61062 1.02458
 H1222 H 0.46123 0.58164 1.04952
 H1223 H 0.46571 0.60338 0.96417
 H1224 H 0.48151 0.63069 1.00074
 H1225 H 0.49905 0.66297 0.98992
 H1226 H 0.50439 0.69219 0.96514
 H1227 H 0.46680 0.65908 0.91872
 H1228 H 0.46051 0.63054 0.94366
 C1229 C 0.54283 0.91798 1.04313
 C1230 C 0.54048 0.90033 1.02997
 C1231 C 0.54287 0.90228 1.00795
 C1232 C 0.54836 0.92224 0.99941
 C1233 C 0.55068 0.93990 1.01261
 C1234 C 0.54774 0.93798 1.03457
 C1235 C 0.53961 0.88309 0.99470
 C1236 C 0.53531 0.88370 0.97394
 C1237 C 0.53112 0.86444 0.96112
 C1238 C 0.53476 0.86528 0.93920
 C1239 C 0.53048 0.84769 0.92644
 C1240 C 0.52219 0.82893 0.93530
 C1241 C 0.51836 0.82812 0.95722
 C1242 C 0.52273 0.84568 0.97001
 H1243 H 0.54075 0.91607 1.06005
 H1244 H 0.53648 0.88514 1.03702
 H1245 H 0.55106 0.92439 0.98264
 H1246 H 0.55453 0.95516 1.00567
 H1247 H 0.54027 0.86791 1.00268
 H1248 H 0.53481 0.89875 0.96575
 H1249 H 0.54095 0.87962 0.93193
 H1250 H 0.53327 0.84891 0.90955
 H1251 H 0.51204 0.81386 0.96451
 H1252 H 0.51904 0.84459 0.98671
 C1253 C 0.01054 0.43947 0.50613
 C1254 C 0.00670 0.42275 0.49214
 C1255 C 0.02338 0.40968 0.48507
 C1256 C 0.04407 0.41365 0.49249
 C1257 C 0.04789 0.43040 0.50647
 C1258 C 0.03116 0.44339 0.51348
 C1259 C 0.01829 0.39170 0.47079
 C1260 C 0.03272 0.38170 0.45863
 C1261 C 0.02754 0.36331 0.44494
 C1262 C 0.04383 0.34909 0.43947
 C1263 C 0.03967 0.33141 0.42679
 C1264 C 0.01910 0.32767 0.41910
 C1265 C 0.00286 0.34213 0.42422
 C1266 C 0.00702 0.35980 0.43693
 H1267 H -0.00257 0.44937 0.51127
 H1268 H -0.00940 0.42000 0.48681
 H1269 H 0.05731 0.40362 0.48807
 H1270 H 0.06386 0.43298 0.51220
 H1271 H 0.00187 0.38661 0.47045
 H1272 H 0.04918 0.38663 0.45896
 H1273 H 0.05980 0.35148 0.44531
 H1274 H 0.05249 0.32048 0.42329
 H1275 H -0.01303 0.33995 0.41813
 H1276 H -0.00581 0.37080 0.44007
 C1277 C 0.42630 0.48121 0.44377
 C1278 C 0.40920 0.49510 0.44654
 C1279 C 0.40344 0.50237 0.46680
 C1280 C 0.41546 0.49563 0.48428
 C1281 C 0.43254 0.48171 0.48148
 C1282 C 0.43812 0.47437 0.46121
 C1283 C 0.38524 0.51727 0.46876
 C1284 C 0.37494 0.52144 0.48698
 C1285 C 0.35684 0.53644 0.48860
 C1286 C 0.35255 0.54617 0.50814
 C1287 C 0.33560 0.56035 0.51040
 C1288 C 0.32240 0.56495 0.49317
 C1289 C 0.32647 0.55492 0.47368
 C1290 C 0.34344 0.54079 0.47141
 H1291 H 0.43022 0.47566 0.42800
 H1292 H 0.40033 0.50008 0.43279
 H1293 H 0.41214 0.50128 0.50010
 H1294 H 0.44163 0.47686 0.49512
 H1295 H 0.38016 0.52501 0.45438
 H1296 H 0.37998 0.51403 0.50152
 H1297 H 0.36251 0.54299 0.52167
 H1298 H 0.33303 0.56793 0.52558
 H1299 H 0.31628 0.55772 0.46024
 H1300 H 0.34567 0.53300 0.45630
 C1301 C 0.94297 -0.02319 -0.01654
 C1302 C 0.92678 -0.00874 -0.01187
 C1303 C 0.91403 -0.00044 -0.02800
 C1304 C 0.91773 -0.00710 -0.04900
 C1305 C 0.93393 -0.02159 -0.05364
 C1306 C 0.94666 -0.02982 -0.03745
 C1307 C 0.89657 0.01427 -0.02208
 C1308 C 0.88753 0.02790 -0.03562
 C1309 C 0.86964 0.04214 -0.02976
 C1310 C 0.85661 0.04994 -0.04591
 C1311 C 0.83945 0.06321 -0.04119
 C1312 C 0.83500 0.06915 -0.02019
 C1313 C 0.84825 0.06167 -0.00403
 C1314 C 0.86544 0.04840 -0.00874
 H1315 H 0.95263 -0.02926 -0.00380
 H1316 H 0.92420 -0.00400 0.00443
 H1317 H 0.90787 -0.00170 -0.06183
 H1318 H 0.93627 -0.02676 -0.06983
 H1319 H 0.89111 0.01368 -0.00582
 H1320 H 0.89298 0.02848 -0.05188
 H1321 H 0.85955 0.04549 -0.06223
 H1322 H 0.82942 0.06853 -0.05398
 H1323 H 0.84550 0.06635 0.01225
 H1324 H 0.87552 0.04345 0.00411
 C1325 C 0.56225 -0.00651 0.04676
 C1326 C 0.57860 0.00825 0.04375
 C1327 C 0.59925 0.00152 0.03858
 C1328 C 0.60333 -0.02041 0.03691
 C1329 C 0.58697 -0.03516 0.03998
 C1330 C 0.56626 -0.02837 0.04489
 C1331 C 0.61611 0.01780 0.03575
 C1332 C 0.63383 0.01463 0.02421
 C1333 C 0.65078 0.03083 0.02125
 C1334 C 0.67098 0.02406 0.01451
 C1335 C 0.68743 0.03868 0.01130
 C1336 C 0.68402 0.06047 0.01465
 C1337 C 0.66376 0.06732 0.02119
 C1338 C 0.64728 0.05271 0.02437
 H1339 H 0.54640 -0.00087 0.05045
 H1340 H 0.57505 0.02501 0.04529
 H1341 H 0.61916 -0.02632 0.03371
 H1342 H 0.59052 -0.05195 0.03882
 H1343 H 0.61343 0.03298 0.04330
 H1344 H 0.63633 -0.00057 0.01661
 H1345 H 0.67411 0.00735 0.01187
 H1346 H 0.70291 0.03288 0.00643
 H1347 H 0.66053 0.08406 0.02346
 H1348 H 0.63183 0.05879 0.02880
 C1349 C 0.05811 0.48196 0.50500
 C1350 C 0.07560 0.49533 0.50193
 C1351 C 0.08836 0.50138 0.51903
 C1352 C 0.08347 0.49336 0.53931
 C1353 C 0.06597 0.47997 0.54236
 C1354 C 0.05308 0.47421 0.52526
 C1355 C 0.10684 0.51549 0.51484
 C1356 C 0.11628 0.52732 0.52974
 C1357 C 0.13471 0.54144 0.52541
 C1358 C 0.14804 0.54697 0.54223
 C1359 C 0.16551 0.56033 0.53895
 C1360 C 0.16994 0.56864 0.51875
 C1361 C 0.15643 0.56336 0.50194
 C1362 C 0.13896 0.54998 0.50522
 H1363 H 0.04838 0.47774 0.49159
 H1364 H 0.07908 0.50111 0.48613
 H1365 H 0.09327 0.49695 0.55281
 H1366 H 0.06261 0.47385 0.55805
 H1367 H 0.11260 0.51619 0.49868
 H1368 H 0.11063 0.52661 0.54592
 H1369 H 0.14505 0.54073 0.55796
 H1370 H 0.17572 0.56394 0.55218
 H1371 H 0.15914 0.56990 0.48631
 H1372 H 0.12866 0.54682 0.49198
 C1373 C 0.04980 0.50498 -0.04357
 C1374 C 0.06581 0.48999 -0.04038
 C1375 C 0.08615 0.49634 -0.03392
 C1376 C 0.09026 0.51815 -0.03107
 C1377 C 0.07426 0.53313 -0.03430
 C1378 C 0.05388 0.52672 -0.04060
 C1379 C 0.10276 0.47992 -0.03114
 C1380 C 0.11971 0.48252 -0.01862
 C1381 C 0.13677 0.46648 -0.01607
 C1382 C 0.15638 0.47316 -0.00797
 C1383 C 0.17300 0.45875 -0.00529
 C1384 C 0.17035 0.43724 -0.01055
 C1385 C 0.15065 0.43044 -0.01840
 C1386 C 0.13400 0.44485 -0.02105
 H1387 H 0.03419 0.49964 -0.04829
 H1388 H 0.06227 0.47333 -0.04283
 H1389 H 0.10589 0.52382 -0.02686
 H1390 H 0.07788 0.54981 -0.03224
 H1391 H 0.10064 0.46521 -0.03968
 H1392 H 0.12155 0.49724 -0.00999
 H1393 H 0.15895 0.48968 -0.00390
 H1394 H 0.18805 0.46453 0.00060
 H1395 H 0.14800 0.41387 -0.02217
 H1396 H 0.11898 0.43879 -0.02663
 C1397 C 0.55274 1.00476 0.46839
 C1398 C 0.56952 0.99038 0.46998
 C1399 C 0.58998 0.99738 0.47528
 C1400 C 0.59339 1.01923 0.47868
 C1401 C 0.57659 1.03363 0.47699
 C1402 C 0.55610 1.02654 0.47182
 C1403 C 0.60735 0.98153 0.47627
 C1404 C 0.62498 0.98419 0.48779
 C1405 C 0.64244 0.96836 0.48901
 C1406 C 0.66212 0.97494 0.49704
 C1407 C 0.67899 0.96065 0.49877
 C1408 C 0.67655 0.93938 0.49253
 C1409 C 0.65686 0.93271 0.48460
 C1410 C 0.63995 0.94696 0.48295
 H1411 H 0.53708 0.99890 0.46446
 H1412 H 0.56649 0.97368 0.46716
 H1413 H 0.60905 1.02538 0.48208
 H1414 H 0.57964 1.05039 0.47933
 H1415 H 0.60508 0.96708 0.46735
 H1416 H 0.62696 0.99866 0.49680
 H1417 H 0.66450 0.99127 0.50192
 H1418 H 0.69404 0.96631 0.50480
 H1419 H 0.65438 0.91630 0.48009
 H1420 H 0.62495 0.94089 0.47736
 C1421 C 0.92447 1.03654 0.52299
 C1422 C 0.90673 1.02378 0.51921
 C1423 C 0.90753 1.00178 0.52270
 C1424 C 0.92668 0.99271 0.52969
 C1425 C 0.94445 1.00549 0.53339
 C1426 C 0.94351 1.02753 0.53011
 C1427 C 0.88835 0.98888 0.51823
 C1428 C 0.88427 0.97012 0.52752
 C1429 C 0.86506 0.95707 0.52334
 C1430 C 0.86514 0.93566 0.52956
 C1431 C 0.84739 0.92274 0.52629
 C1432 C 0.82908 0.93097 0.51676
 C1433 C 0.82889 0.95241 0.51062
 C1434 C 0.84661 0.96537 0.51395
 H1435 H 0.92334 1.05350 0.52042
 H1436 H 0.89224 1.03114 0.51369
 H1437 H 0.92822 0.97575 0.53186
 H1438 H 0.95908 0.99816 0.53853
 H1439 H 0.87719 0.99550 0.50714
 H1440 H 0.89549 0.96379 0.53875
 H1441 H 0.87905 0.92885 0.53691
 H1442 H 0.84808 0.90623 0.53104
 H1443 H 0.81483 0.95930 0.50364
 H1444 H 0.84545 0.98189 0.50953
 C1445 C 0.44258 0.50313 0.04142
 C1446 C 0.42634 0.48830 0.03840
 C1447 C 0.40652 0.49464 0.03061
 C1448 C 0.40317 0.51630 0.02614
 C1449 C 0.41941 0.53112 0.02921
 C1450 C 0.43926 0.52471 0.03692
 C1451 C 0.38958 0.47841 0.02828
 C1452 C 0.37306 0.48054 0.01515
 C1453 C 0.35572 0.46465 0.01316
 C1454 C 0.33636 0.47118 0.00441
 C1455 C 0.31948 0.45692 0.00233
 C1456 C 0.32159 0.43570 0.00885
 C1457 C 0.34105 0.42902 0.01730
 C1458 C 0.35798 0.44328 0.01936
 H1459 H 0.45778 0.49777 0.04728
 H1460 H 0.42931 0.47177 0.04211
 H1461 H 0.38793 0.52201 0.02082
 H1462 H 0.41636 0.54772 0.02596
 H1463 H 0.39107 0.46422 0.03778
 H1464 H 0.37176 0.49472 0.00559
 H1465 H 0.33420 0.48749 -0.00060
 H1466 H 0.30462 0.46261 -0.00406
 H1467 H 0.34331 0.41266 0.02204
 H1468 H 0.37280 0.43730 0.02546
 C1469 C 0.47787 0.44490 0.42955
 C1470 C 0.49202 0.44741 0.41259
 C1471 C 0.49888 0.46772 0.40636
 C1472 C 0.49155 0.48551 0.41778
 C1473 C 0.47740 0.48296 0.43477
 C1474 C 0.47037 0.46264 0.44079
 C1475 C 0.51406 0.46945 0.38833
 C1476 C 0.51688 0.48717 0.37684
 C1477 C 0.53199 0.48871 0.35874
 C1478 C 0.53945 0.50884 0.35266
 C1479 C 0.55357 0.51108 0.33562
 C1480 C 0.56045 0.49321 0.32415
 C1481 C 0.55276 0.47307 0.33003
 C1482 C 0.53863 0.47082 0.34707
 H1483 H 0.47263 0.42907 0.43383
 H1484 H 0.49751 0.43343 0.40419
 H1485 H 0.49696 0.50138 0.41403
 H1486 H 0.47212 0.49684 0.44344
 H1487 H 0.52298 0.45531 0.38436
 H1488 H 0.50806 0.50137 0.38081
 H1489 H 0.53448 0.52289 0.36126
 H1490 H 0.55933 0.52680 0.33159
 H1491 H 0.55736 0.45906 0.32119
 H1492 H 0.53266 0.45511 0.35065
 C1493 C -0.01779 -0.06039 0.92707
 C1494 C -0.00459 -0.05792 0.90935
 C1495 C 0.00314 -0.03779 0.90356
 C1496 C -0.00231 -0.02016 0.91620
 C1497 C -0.01550 -0.02266 0.93394
 C1498 C -0.02342 -0.04277 0.93952
 C1499 C 0.01730 -0.03608 0.88473
 C1500 C 0.02041 -0.01801 0.87385
 C1501 C 0.03474 -0.01630 0.85514
 C1502 C 0.04274 0.00378 0.84958
 C1503 C 0.05633 0.00620 0.83214
 C1504 C 0.06211 -0.01142 0.81973
 C1505 C 0.05381 -0.03148 0.82505
 C1506 C 0.04022 -0.03391 0.84250
 H1507 H -0.02376 -0.07605 0.93099
 H1508 H -0.00053 -0.07179 0.90001
 H1509 H 0.00388 -0.00449 0.91282
 H1510 H -0.01932 -0.00890 0.94352
 H1511 H 0.02523 -0.05047 0.87969
 H1512 H 0.01249 -0.00362 0.87888
 H1513 H 0.03867 0.01763 0.85894
 H1514 H 0.06259 0.02184 0.82859
 H1515 H 0.05757 -0.04527 0.81551
 H1516 H 0.03379 -0.04952 0.84569
 C1517 C -0.03479 0.03269 0.57190
 C1518 C -0.02238 0.02898 0.58974
 C1519 C -0.00012 0.03005 0.58847
 C1520 C 0.00952 0.03465 0.56880
 C1521 C -0.00293 0.03831 0.55093
 C1522 C -0.02520 0.03734 0.55230
 C1523 C 0.01233 0.02548 0.60779
 C1524 C 0.03234 0.03222 0.61077
 C1525 C 0.04484 0.02755 0.63005
 C1526 C 0.06706 0.02937 0.62896
 C1527 C 0.07954 0.02523 0.64668
 C1528 C 0.07004 0.01928 0.66599
 C1529 C 0.04779 0.01770 0.66720
 C1530 C 0.03530 0.02189 0.64949
 H1531 H -0.05193 0.03196 0.57338
 H1532 H -0.03021 0.02534 0.60464
 H1533 H 0.02661 0.03492 0.56692
 H1534 H 0.00483 0.04152 0.53591
 H1535 H 0.00437 0.01635 0.61999
 H1536 H 0.04021 0.04139 0.59853
 H1537 H 0.07484 0.03382 0.61425
 H1538 H 0.09665 0.02642 0.64518
 H1539 H 0.03998 0.01362 0.68199
 H1540 H 0.01823 0.02106 0.65136
 C1541 C 0.45972 0.53374 0.07893
 C1542 C 0.47236 0.53202 0.09691
 C1543 C 0.49444 0.53505 0.09557
 C1544 C 0.50357 0.54047 0.07587
 C1545 C 0.49090 0.54221 0.05789
 C1546 C 0.46889 0.53870 0.05921
 C1547 C 0.50717 0.53280 0.11510
 C1548 C 0.52800 0.52820 0.11505
 C1549 C 0.54068 0.52535 0.13454
 C1550 C 0.56287 0.52743 0.13316
 C1551 C 0.57554 0.52444 0.15096
 C1552 C 0.56631 0.51910 0.17058
 C1553 C 0.54411 0.51686 0.17197
 C1554 C 0.53143 0.51987 0.15416
 H1555 H 0.44274 0.53127 0.08038
 H1556 H 0.46488 0.52809 0.11191
 H1557 H 0.52039 0.54367 0.07424
 H1558 H 0.49829 0.54616 0.04286
 H1559 H 0.49875 0.53454 0.12997
 H1560 H 0.53639 0.52644 0.10014
 H1561 H 0.57044 0.53139 0.11821
 H1562 H 0.59261 0.52593 0.14928
 H1563 H 0.53651 0.51284 0.18687
 H1564 H 0.51449 0.51744 0.15587
 C1565 C 0.51230 -0.04452 0.06140
 C1566 C 0.49743 -0.04194 0.07772
 C1567 C 0.50381 -0.03508 0.09782
 C1568 C 0.52553 -0.03117 0.10138
 C1569 C 0.54042 -0.03382 0.08505
 C1570 C 0.53395 -0.04053 0.06492
 C1571 C 0.48747 -0.03304 0.11474
 C1572 C 0.48964 -0.02033 0.13164
 C1573 C 0.47345 -0.01836 0.14875
 C1574 C 0.47976 -0.01006 0.16833
 C1575 C 0.46515 -0.00787 0.18496
 C1576 C 0.44382 -0.01386 0.18233
 C1577 C 0.43739 -0.02192 0.16267
 C1578 C 0.45198 -0.02406 0.14602
 H1579 H 0.50693 -0.04962 0.04598
 H1580 H 0.48084 -0.04520 0.07459
 H1581 H 0.53123 -0.02658 0.11681
 H1582 H 0.55707 -0.03100 0.08821
 H1583 H 0.47312 -0.04227 0.11283
 H1584 H 0.50401 -0.01106 0.13335
 H1585 H 0.49613 -0.00543 0.17086
 H1586 H 0.47063 -0.00178 0.19998
 H1587 H 0.42095 -0.02624 0.16005
 H1588 H 0.44618 -0.02978 0.13102
 C1589 C 1.01244 0.44532 0.55697
 C1590 C 0.99861 0.44795 0.57416
 C1591 C 0.99339 0.46833 0.58147
 C1592 C 1.00199 0.48613 0.57098
 C1593 C 1.01568 0.48349 0.55364
 C1594 C 1.02108 0.46306 0.54646
 C1595 C 0.97837 0.47042 0.59950
 C1596 C 0.97861 0.48688 0.61294
 C1597 C 0.96380 0.48858 0.63119
 C1598 C 0.97036 0.49945 0.64937
 C1599 C 0.95681 0.50128 0.66690
 C1600 C 0.93621 0.49255 0.66649
 C1601 C 0.92952 0.48203 0.64808
 C1602 C 0.94314 0.48005 0.63062
 H1603 H 1.01644 0.42939 0.55187
 H1604 H 0.99209 0.43401 0.58190
 H1605 H 0.99780 0.50209 0.57579
 H1606 H 1.02182 0.49742 0.54561
 H1607 H 0.96756 0.45731 0.60241
 H1608 H 0.99083 0.49893 0.61137
 H1609 H 0.98616 0.50626 0.65012
 H1610 H 0.96259 0.50926 0.68089
 H1611 H 0.91360 0.47560 0.64701
 H1612 H 0.93730 0.47221 0.61658
 C1613 C 1.00144 0.54534 0.94078
 C1614 C 0.98747 0.54324 0.92385
 C1615 C 0.99470 0.53581 0.90414
 C1616 C 1.01643 0.53102 0.90155
 C1617 C 1.03041 0.53317 0.91849
 C1618 C 1.02303 0.54020 0.93832
 C1619 C 0.97922 0.53382 0.88667
 C1620 C 0.98194 0.52077 0.87008
 C1621 C 0.96639 0.51854 0.85269
 C1622 C 0.97344 0.51024 0.83325
 C1623 C 0.95937 0.50761 0.81647
 C1624 C 0.93783 0.51307 0.81879
 C1625 C 0.93068 0.52117 0.83830
 C1626 C 0.94475 0.52380 0.85511
 H1627 H 0.99536 0.55079 0.95591
 H1628 H 0.97088 0.54722 0.92623
 H1629 H 1.02285 0.52603 0.88643
 H1630 H 1.04707 0.52956 0.91608
 H1631 H 0.96494 0.54329 0.88795
 H1632 H 0.99622 0.51129 0.86889
 H1633 H 0.98996 0.50594 0.83098
 H1634 H 0.96541 0.50152 0.80157
 H1635 H 0.91409 0.52509 0.84072
 H1636 H 0.93843 0.52949 0.87001
 C1637 C 0.50215 0.04120 0.45576
 C1638 C 0.48792 0.03869 0.43908
 C1639 C 0.49531 0.03365 0.41868
 C1640 C 0.51735 0.03171 0.41516
 C1641 C 0.53156 0.03428 0.43183
 C1642 C 0.52410 0.03895 0.45230
 C1643 C 0.47965 0.03115 0.40146
 C1644 C 0.48327 0.01923 0.38419
 C1645 C 0.46789 0.01650 0.36671
 C1646 C 0.47546 0.00874 0.34724
 C1647 C 0.46166 0.00564 0.33032
 C1648 C 0.43990 0.01013 0.33250
 C1649 C 0.43223 0.01776 0.35201
 C1650 C 0.44602 0.02083 0.36898
 H1651 H 0.49605 0.04475 0.47143
 H1652 H 0.47105 0.04045 0.44218
 H1653 H 0.52376 0.02864 0.39953
 H1654 H 0.54845 0.03285 0.42875
 H1655 H 0.46460 0.03917 0.40350
 H1656 H 0.49832 0.01109 0.38250
 H1657 H 0.49217 0.00519 0.34505
 H1658 H 0.46810 -0.00004 0.31542
 H1659 H 0.41546 0.02096 0.35428
 H1660 H 0.43930 0.02615 0.38384
   
