data_POSCAR
  _audit_creation_date              2014-09-24
  _audit_creation_method            'ToBaCCo'
  _symmetry_space_group_name_H-M    'P1'
  _symmetry_Int_Tables_number       1
  _symmetry_cell_setting            triclinic
  loop_
  _symmetry_equiv_pos_as_xyz
 x,y,z
_cell_length_a 95.2740
_cell_length_b 93.4379
_cell_length_c 94.2374
_cell_angle_alpha 89.856200
_cell_angle_beta 89.832700
_cell_angle_gamma 90.264700
loop_
  _atom_site_label
  _atom_site_type_symbol
  _atom_site_fract_x
  _atom_site_fract_y
  _atom_site_fract_z
C1 C 0.31644 0.45085 0.93021
 C2 C 0.31078 0.45682 0.91780
 C3 C 0.29857 0.45102 0.91169
 C4 C 0.29189 0.43932 0.91826
 C5 C 0.29745 0.43321 0.93059
 C6 C 0.30982 0.43893 0.93656
 C7 C 0.32886 0.45635 0.93607
 C8 C 0.33506 0.45000 0.94816
 C9 C 0.32816 0.43810 0.95441
 C10 C 0.31571 0.43255 0.94870
 C11 C 0.30920 0.42049 0.95479
 C12 C 0.29695 0.41464 0.94879
 C13 C 0.29109 0.42116 0.93676
 H14 H 0.31593 0.46591 0.91282
 H15 H 0.28261 0.43464 0.91348
 H16 H 0.33403 0.46511 0.93059
 H17 H 0.33221 0.43325 0.96400
 H18 H 0.31373 0.41557 0.96413
 H19 H 0.28182 0.41656 0.93189
 C20 C 0.44883 0.81751 0.42679
 C21 C 0.45602 0.82898 0.43308
 C22 C 0.45114 0.83525 0.44580
 C23 C 0.43899 0.82937 0.45224
 C24 C 0.43176 0.81786 0.44608
 C25 C 0.43666 0.81191 0.43329
 C26 C 0.45344 0.81184 0.41385
 C27 C 0.44603 0.80065 0.40725
 C28 C 0.43404 0.79490 0.41394
 C29 C 0.42929 0.80049 0.42689
 C30 C 0.41708 0.79510 0.43339
 C31 C 0.41209 0.80106 0.44612
 C32 C 0.41957 0.81235 0.45244
 H33 H 0.46495 0.83346 0.42748
 H34 H 0.43522 0.83343 0.46229
 H35 H 0.46281 0.81616 0.40886
 H36 H 0.42820 0.78637 0.40885
 H37 H 0.41126 0.78651 0.42835
 H38 H 0.41585 0.81689 0.46233
 C39 C 0.95086 0.93042 0.82119
 C40 C 0.95712 0.91873 0.81437
 C41 C 0.95074 0.91215 0.80252
 C42 C 0.93805 0.91799 0.79742
 C43 C 0.93174 0.92971 0.80412
 C44 C 0.93810 0.93589 0.81611
 C45 C 0.95700 0.93635 0.83334
 C46 C 0.95054 0.94769 0.84077
 C47 C 0.93781 0.95320 0.83536
 C48 C 0.93161 0.94742 0.82313
 C49 C 0.91888 0.95284 0.81793
 C50 C 0.91248 0.94673 0.80595
 C51 C 0.91903 0.93520 0.79908
 H52 H 0.96656 0.91432 0.81896
 H53 H 0.93312 0.91370 0.78800
 H54 H 0.96644 0.93142 0.83739
 H55 H 0.93279 0.96225 0.84038
 H56 H 0.91378 0.96160 0.82340
 H57 H 0.91421 0.93052 0.78976
 C58 C 0.43668 -0.08122 0.33010
 C59 C 0.44310 -0.09334 0.32425
 C60 C 0.43747 -0.10004 0.31218
 C61 C 0.42525 -0.09442 0.30597
 C62 C 0.41870 -0.08230 0.31171
 C63 C 0.42445 -0.07565 0.32381
 C64 C 0.44228 -0.07465 0.34220
 C65 C 0.43583 -0.06256 0.34817
 C66 C 0.42367 -0.05700 0.34178
 C67 C 0.41794 -0.06347 0.32966
 C68 C 0.40572 -0.05803 0.32338
 C69 C 0.39987 -0.06462 0.31134
 C70 C 0.40646 -0.07674 0.30556
 H71 H 0.45237 -0.09771 0.32927
 H72 H 0.42090 -0.09942 0.29658
 H73 H 0.45176 -0.07889 0.34692
 H74 H 0.41854 -0.04779 0.34640
 H75 H 0.40061 -0.04881 0.32802
 H76 H 0.40214 -0.08178 0.29618
 C77 C 0.82915 0.30766 0.32369
 C78 C 0.82322 0.30202 0.33614
 C79 C 0.81143 0.30845 0.34244
 C80 C 0.80543 0.32054 0.33595
 C81 C 0.81125 0.32633 0.32347
 C82 C 0.82320 0.31989 0.31736
 C83 C 0.84107 0.30138 0.31761
 C84 C 0.84724 0.30723 0.30531
 C85 C 0.84124 0.31941 0.29903
 C86 C 0.82930 0.32578 0.30498
 C87 C 0.82346 0.33804 0.29882
 C88 C 0.81162 0.34458 0.30486
 C89 C 0.80550 0.33859 0.31714
 H90 H 0.82777 0.29257 0.34094
 H91 H 0.79643 0.32565 0.34081
 H92 H 0.84577 0.29213 0.32265
 H93 H 0.84585 0.32390 0.28947
 H94 H 0.82813 0.34249 0.28926
 H95 H 0.79647 0.34368 0.32195
 C96 C -0.19320 0.82502 0.82278
 C97 C -0.19936 0.83741 0.81709
 C98 C -0.19383 0.84409 0.80478
 C99 C -0.18192 0.83788 0.79830
 C100 C -0.17559 0.82563 0.80396
 C101 C -0.18123 0.81915 0.81623
 C102 C -0.19876 0.81849 0.83502
 C103 C -0.19242 0.80626 0.84088
 C104 C -0.18044 0.80053 0.83428
 C105 C -0.17480 0.80688 0.82202
 C106 C -0.16270 0.80129 0.81558
 C107 C -0.15689 0.80786 0.80346
 C108 C -0.16350 0.81995 0.79766
 H109 H -0.20876 0.84148 0.82211
 H110 H -0.17694 0.84295 0.78924
 H111 H -0.20786 0.82311 0.84017
 H112 H -0.17556 0.79104 0.83866
 H113 H -0.15761 0.79205 0.82021
 H114 H -0.15921 0.82494 0.78819
 C115 C 0.92615 0.32179 0.44172
 C116 C 0.93176 0.33463 0.44704
 C117 C 0.94318 0.34159 0.44022
 C118 C 0.94900 0.33504 0.42803
 C119 C 0.94353 0.32221 0.42266
 C120 C 0.93207 0.31556 0.42950
 C121 C 0.91452 0.31523 0.44827
 C122 C 0.90873 0.30253 0.44275
 C123 C 0.91481 0.29634 0.43064
 C124 C 0.92641 0.30275 0.42400
 C125 C 0.93225 0.29669 0.41175
 C126 C 0.94370 0.30326 0.40487
 C127 C 0.94933 0.31598 0.41045
 H128 H 0.92666 0.33947 0.45610
 H129 H 0.95814 0.33959 0.42285
 H130 H 0.90995 0.32000 0.45768
 H131 H 0.91028 0.28671 0.42615
 H132 H 0.92768 0.28702 0.40739
 H133 H 0.95824 0.32105 0.40527
 C134 C 0.42855 0.44961 0.82244
 C135 C 0.43346 0.45484 0.83544
 C136 C 0.44499 0.44846 0.84220
 C137 C 0.45181 0.43691 0.83563
 C138 C 0.44702 0.43157 0.82260
 C139 C 0.43530 0.43789 0.81601
 C140 C 0.41680 0.45573 0.81594
 C141 C 0.41156 0.45019 0.80315
 C142 C 0.41835 0.43853 0.79675
 C143 C 0.43018 0.43234 0.80310
 C144 C 0.43682 0.42055 0.79687
 C145 C 0.44848 0.41415 0.80341
 C146 C 0.45355 0.41979 0.81624
 H147 H 0.42827 0.46388 0.84034
 H148 H 0.46060 0.43182 0.84085
 H149 H 0.41146 0.46455 0.82107
 H150 H 0.41441 0.43426 0.78684
 H151 H 0.43292 0.41633 0.78693
 H152 H 0.46237 0.41476 0.82148
 C153 C 0.82022 0.93466 0.95275
 C154 C 0.81429 0.92228 0.95879
 C155 C 0.80183 0.91618 0.95332
 C156 C 0.79526 0.92315 0.94179
 C157 C 0.80102 0.93559 0.93576
 C158 C 0.81355 0.94137 0.94125
 C159 C 0.83296 0.94017 0.95785
 C160 C 0.83930 0.95240 0.95165
 C161 C 0.83221 0.95922 0.94035
 C162 C 0.81953 0.95373 0.93508
 C163 C 0.81298 0.96017 0.92339
 C164 C 0.80057 0.95436 0.91772
 C165 C 0.79457 0.94216 0.92409
 H166 H 0.81998 0.91701 0.96723
 H167 H 0.78540 0.91919 0.93763
 H168 H 0.83769 0.93502 0.96695
 H169 H 0.83688 0.96831 0.93496
 H170 H 0.81760 0.96965 0.91862
 H171 H 0.78513 0.93747 0.91965
 C172 C 0.32276 0.82258 0.30371
 C173 C 0.31652 0.83477 0.29786
 C174 C 0.30453 0.84102 0.30412
 C175 C 0.29889 0.83450 0.31646
 C176 C 0.30499 0.82218 0.32235
 C177 C 0.31699 0.81621 0.31597
 C178 C 0.33488 0.81683 0.29756
 C179 C 0.34136 0.80474 0.30348
 C180 C 0.33543 0.79825 0.31558
 C181 C 0.32332 0.80395 0.32191
 C182 C 0.31756 0.79772 0.33418
 C183 C 0.30557 0.80359 0.34065
 C184 C 0.29933 0.81580 0.33462
 H185 H 0.32161 0.83975 0.28881
 H186 H 0.28944 0.83862 0.32133
 H187 H 0.33929 0.82174 0.28810
 H188 H 0.34043 0.78897 0.32025
 H189 H 0.32236 0.78825 0.33867
 H190 H 0.29023 0.82053 0.33966
 C191 C 0.81974 0.43176 0.45097
 C192 C 0.81239 0.42010 0.45677
 C193 C 0.80042 0.41458 0.45002
 C194 C 0.79554 0.42116 0.43755
 C195 C 0.80274 0.43290 0.43168
 C196 C 0.81493 0.43818 0.43838
 C197 C 0.83199 0.43685 0.45745
 C198 C 0.83986 0.44823 0.45145
 C199 C 0.83473 0.45468 0.43890
 C200 C 0.82243 0.44972 0.43235
 C201 C 0.81775 0.45586 0.41963
 C202 C 0.80568 0.45059 0.41281
 C203 C 0.79818 0.43916 0.41898
 H204 H 0.81612 0.41517 0.46647
 H205 H 0.78642 0.41684 0.43217
 H206 H 0.83512 0.43201 0.46739
 H207 H 0.84063 0.46307 0.43362
 H208 H 0.82351 0.46476 0.41500
 H209 H 0.78901 0.43486 0.41367
 C210 C 0.94189 0.81815 -0.07522
 C211 C 0.94766 0.83034 -0.06872
 C212 C 0.94132 0.83632 -0.05660
 C213 C 0.92908 0.82995 -0.05104
 C214 C 0.92319 0.81779 -0.05742
 C215 C 0.92966 0.81182 -0.06951
 C216 C 0.94818 0.81222 -0.08735
 C217 C 0.94250 0.79991 -0.09397
 C218 C 0.93025 0.79372 -0.08799
 C219 C 0.92382 0.79959 -0.07595
 C220 C 0.91145 0.79353 -0.07041
 C221 C 0.90483 0.79949 -0.05847
 C222 C 0.91085 0.81159 -0.05198
 H223 H 0.95715 0.83512 -0.07301
 H224 H 0.92397 0.83462 -0.04187
 H225 H 0.95782 0.81701 -0.09124
 H226 H 0.92516 0.78470 -0.09303
 H227 H 0.90680 0.78433 -0.07561
 H228 H 0.90594 0.81616 -0.04265
 C229 C 0.32853 0.32368 0.80224
 C230 C 0.32289 0.33628 0.79660
 C231 C 0.31141 0.34300 0.80316
 C232 C 0.30537 0.33677 0.81537
 C233 C 0.31091 0.32412 0.82115
 C234 C 0.32257 0.31758 0.81457
 C235 C 0.34019 0.31722 0.79585
 C236 C 0.34610 0.30478 0.80169
 C237 C 0.34006 0.29870 0.81393
 C238 C 0.32839 0.30505 0.82042
 C239 C 0.32264 0.29919 0.83284
 C240 C 0.31114 0.30568 0.83958
 C241 C 0.30523 0.31808 0.83359
 H242 H 0.32747 0.34090 0.78708
 H243 H 0.29661 0.34196 0.82056
 H244 H 0.34471 0.32191 0.78633
 H245 H 0.34470 0.28925 0.81865
 H246 H 0.32712 0.28953 0.83730
 H247 H 0.29644 0.32321 0.83881
 C248 C 0.17837 0.54614 0.56702
 C249 C 0.16699 0.53941 0.56036
 C250 C 0.16136 0.54502 0.54776
 C251 C 0.16744 0.55735 0.54170
 C252 C 0.17883 0.56419 0.54824
 C253 C 0.18432 0.55860 0.56097
 C254 C 0.18364 0.54081 0.57983
 C255 C 0.19477 0.54776 0.58677
 C256 C 0.20079 0.56008 0.58061
 C257 C 0.19558 0.56560 0.56780
 C258 C 0.20120 0.57818 0.56187
 C259 C 0.19570 0.58390 0.54923
 C260 C 0.18458 0.57675 0.54243
 H261 H 0.16221 0.53007 0.56526
 H262 H 0.16322 0.56167 0.53192
 H263 H 0.17905 0.53122 0.58444
 H264 H 0.20927 0.56558 0.58600
 H265 H 0.20985 0.58356 0.56712
 H266 H 0.18011 0.58120 0.53284
 C267 C 0.56752 0.69452 0.06754
 C268 C 0.57930 0.70100 0.06119
 C269 C 0.58593 0.69463 0.04945
 C270 C 0.58059 0.68170 0.04404
 C271 C 0.56888 0.67509 0.05030
 C272 C 0.56228 0.68151 0.06206
 C273 C 0.56100 0.70073 0.07939
 C274 C 0.54933 0.69409 0.08586
 C275 C 0.54415 0.68116 0.08027
 C276 C 0.55056 0.67482 0.06847
 C277 C 0.54561 0.66173 0.06316
 C278 C 0.55226 0.65518 0.05155
 C279 C 0.56382 0.66200 0.04511
 H280 H 0.58331 0.71101 0.06537
 H281 H 0.58580 0.67658 0.03518
 H282 H 0.56500 0.71074 0.08358
 H283 H 0.53533 0.67584 0.08535
 H284 H 0.53680 0.65645 0.06829
 H285 H 0.56889 0.65712 0.03603
 C286 C 0.70212 0.18660 0.68267
 C287 C 0.70741 0.19201 0.66981
 C288 C 0.70114 0.20390 0.66325
 C289 C 0.68962 0.21051 0.66982
 C290 C 0.68421 0.20519 0.68264
 C291 C 0.69049 0.19322 0.68912
 C292 C 0.70812 0.17450 0.68899
 C293 C 0.70267 0.16869 0.70175
 C294 C 0.69110 0.17562 0.70815
 C295 C 0.68496 0.18769 0.70189
 C296 C 0.67301 0.19397 0.70794
 C297 C 0.66649 0.20570 0.70135
 C298 C 0.67232 0.21139 0.68882
 H299 H 0.71635 0.18691 0.66483
 H300 H 0.68456 0.21951 0.66469
 H301 H 0.71731 0.16989 0.68403
 H302 H 0.68622 0.17122 0.71760
 H303 H 0.66847 0.18940 0.71750
 H304 H 0.66747 0.22055 0.68378
 C305 C 1.06905 0.04993 0.18118
 C306 C 1.08112 0.04380 0.18711
 C307 C 1.08759 0.04999 0.19902
 C308 C 1.08170 0.06230 0.20512
 C309 C 1.06967 0.06856 0.19929
 C310 C 1.06336 0.06240 0.18723
 C311 C 1.06285 0.04397 0.16906
 C312 C 1.05099 0.05030 0.16264
 C313 C 1.04538 0.06276 0.16898
 C314 C 1.05147 0.06882 0.18111
 C315 C 1.04593 0.08133 0.18713
 C316 C 1.05220 0.08757 0.19913
 C317 C 1.06404 0.08105 0.20518
 H318 H 1.08570 0.03443 0.18222
 H319 H 1.08652 0.06704 0.21441
 H320 H 1.06786 0.03477 0.16429
 H321 H 1.03597 0.06765 0.16482
 H322 H 1.03674 0.08622 0.18246
 H323 H 1.06910 0.08592 0.21427
 C324 C 0.05360 0.17677 1.06770
 C325 C 0.04845 0.16387 1.06213
 C326 C 0.05512 0.15710 1.05053
 C327 C 0.06702 0.16392 1.04447
 C328 C 0.07225 0.17684 1.04993
 C329 C 0.06554 0.18327 1.06160
 C330 C 0.04710 0.18311 1.07948
 C331 C 0.05251 0.19579 1.08536
 C332 C 0.06436 0.20229 1.07913
 C333 C 0.07091 0.19611 1.06732
 C334 C 0.08294 0.20241 1.06134
 C335 C 0.08978 0.19600 1.04977
 C336 C 0.08431 0.18324 1.04408
 H337 H 0.03897 0.15943 1.06672
 H338 H 0.07283 0.15891 1.03595
 H339 H 0.03810 0.17792 1.08436
 H340 H 0.06851 0.21215 1.08352
 H341 H 0.08722 0.21210 1.06596
 H342 H 0.08946 0.17830 1.03507
 C343 C 0.17743 0.68048 0.69828
 C344 C 0.16529 0.68704 0.70355
 C345 C 0.15922 0.69866 0.69637
 C346 C 0.16557 0.70385 0.68385
 C347 C 0.17777 0.69744 0.67846
 C348 C 0.18369 0.68567 0.68569
 C349 C 0.18324 0.66863 0.70525
 C350 C 0.19521 0.66182 0.69976
 C351 C 0.20145 0.66713 0.68727
 C352 C 0.19576 0.67896 0.68021
 C353 C 0.20180 0.68397 0.66758
 C354 C 0.19596 0.69562 0.66027
 C355 C 0.18400 0.70240 0.66584
 H356 H 0.16033 0.68282 0.71306
 H357 H 0.16100 0.71287 0.67831
 H358 H 0.17844 0.66468 0.71495
 H359 H 0.21052 0.66179 0.68281
 H360 H 0.21112 0.67881 0.66342
 H361 H 0.17937 0.71129 0.66016
 C362 C 1.20004 0.17945 0.17895
 C363 C 1.20637 0.16858 0.18688
 C364 C 1.20015 0.16330 0.19949
 C365 C 1.18744 0.16957 0.20412
 C366 C 1.18108 0.18062 0.19635
 C367 C 1.18737 0.18552 0.18368
 C368 C 1.20603 0.18403 0.16612
 C369 C 1.19951 0.19461 0.15788
 C370 C 1.18703 0.20088 0.16278
 C371 C 1.18089 0.19636 0.17560
 C372 C 1.16823 0.20229 0.18029
 C373 C 1.16184 0.19747 0.19290
 C374 C 1.16838 0.18668 0.20092
 H375 H 1.21574 0.16369 0.18259
 H376 H 1.18258 0.16618 0.21398
 H377 H 1.21576 0.17930 0.16248
 H378 H 1.18187 0.20896 0.15641
 H379 H 1.16335 0.21070 0.17411
 H380 H 1.16341 0.18276 0.21054
 C381 C 0.67813 1.07341 0.55864
 C382 C 0.66621 1.06713 0.55242
 C383 C 0.65980 1.05501 0.55859
 C384 C 0.66561 1.04905 0.57095
 C385 C 0.67745 1.05521 0.57729
 C386 C 0.68372 1.06746 0.57116
 C387 C 0.68431 1.08574 0.55272
 C388 C 0.69603 1.09244 0.55917
 C389 C 0.70154 1.08614 0.57164
 C390 C 0.69550 1.07382 0.57763
 C391 C 0.70098 1.06785 0.59012
 C392 C 0.69473 1.05569 0.59635
 C393 C 0.68300 1.04940 0.58980
 H394 H 0.66171 1.07187 0.54297
 H395 H 0.66089 1.03958 0.57565
 H396 H 0.67943 1.09043 0.54347
 H397 H 0.71088 1.09047 0.57657
 H398 H 0.70991 1.07288 0.59522
 H399 H 0.67820 1.03993 0.59443
 C400 C 0.54778 0.56023 0.18539
 C401 C 0.54279 0.55408 0.17279
 C402 C 0.54930 0.54192 0.16702
 C403 C 0.56071 0.53575 0.17417
 C404 C 0.56581 0.54176 0.18675
 C405 C 0.55934 0.55405 0.19240
 C406 C 0.54169 0.57270 0.19086
 C407 C 0.54703 0.57911 0.20322
 C408 C 0.55842 0.57277 0.21024
 C409 C 0.56466 0.56036 0.20487
 C410 C 0.57644 0.55446 0.21150
 C411 C 0.58309 0.54237 0.20578
 C412 C 0.57758 0.53596 0.19352
 H413 H 0.53413 0.55904 0.16723
 H414 H 0.56570 0.52629 0.16986
 H415 H 0.53285 0.57750 0.18544
 H416 H 0.56277 0.57781 0.21961
 H417 H 0.58058 0.55939 0.22102
 H418 H 0.58279 0.52678 0.18891
 C419 C 0.67456 0.69566 0.17525
 C420 C 0.66194 0.70145 0.18024
 C421 C 0.65557 0.69616 0.19269
 C422 C 0.66214 0.68507 0.20029
 C423 C 0.67479 0.67914 0.19542
 C424 C 0.68100 0.68445 0.18283
 C425 C 0.68071 0.70075 0.16266
 C426 C 0.69316 0.69468 0.15743
 C427 C 0.69956 0.68356 0.16508
 C428 C 0.69358 0.67843 0.17772
 C429 C 0.69987 0.66720 0.18519
 C430 C 0.69377 0.66178 0.19771
 C431 C 0.68121 0.66784 0.20277
 H432 H 0.65707 0.71013 0.17443
 H433 H 0.65722 0.68082 0.20980
 H434 H 0.67561 0.70920 0.15671
 H435 H 0.70925 0.67894 0.16120
 H436 H 0.70937 0.66241 0.18103
 H437 H 0.67647 0.66376 0.21245
 C438 C 0.17530 0.05405 1.07594
 C439 C 0.16353 0.04806 1.06920
 C440 C 0.15827 0.05381 1.05638
 C441 C 0.16534 0.06577 1.05044
 C442 C 0.17711 0.07183 1.05707
 C443 C 0.18214 0.06594 1.06984
 C444 C 0.18030 0.04826 1.08871
 C445 C 0.19210 0.05417 1.09570
 C446 C 0.19888 0.06608 1.08931
 C447 C 0.19396 0.07199 1.07654
 C448 C 0.20054 0.08407 1.07052
 C449 C 0.19544 0.09017 1.05788
 C450 C 0.18377 0.08389 1.05119
 H451 H 0.15883 0.03858 1.07386
 H452 H 0.16139 0.07094 1.04098
 H453 H 0.17515 0.03878 1.09285
 H454 H 0.20762 0.07130 1.09451
 H455 H 0.20943 0.08892 1.07583
 H456 H 0.17991 0.08838 1.04133
 C457 C 0.56932 0.17890 0.54513
 C458 C 0.58201 0.18374 0.53927
 C459 C 0.58889 0.19580 0.54485
 C460 C 0.58271 0.20327 0.55619
 C461 C 0.56996 0.19857 0.56213
 C462 C 0.56325 0.18631 0.55660
 C463 C 0.56282 0.16653 0.53991
 C464 C 0.55041 0.16126 0.54616
 C465 C 0.54427 0.16881 0.55745
 C466 C 0.55063 0.18128 0.56273
 C467 C 0.54481 0.18851 0.57433
 C468 C 0.55148 0.20068 0.58000
 C469 C 0.56401 0.20569 0.57376
 H470 H 0.58662 0.17803 0.53042
 H471 H 0.58804 0.21248 0.56067
 H472 H 0.56752 0.16087 0.53108
 H473 H 0.53481 0.16471 0.56246
 H474 H 0.53531 0.18441 0.57925
 H475 H 0.56917 0.21511 0.57802
 C476 C 0.07526 0.55352 0.67589
 C477 C 0.08735 0.54722 0.68159
 C478 C 0.09402 0.55322 0.69349
 C479 C 0.08833 0.56555 0.69978
 C480 C 0.07624 0.57194 0.69422
 C481 C 0.06968 0.56593 0.68222
 C482 C 0.06878 0.54772 0.66383
 C483 C 0.05680 0.55418 0.65797
 C484 C 0.05126 0.56650 0.66441
 C485 C 0.05763 0.57243 0.67645
 C486 C 0.05228 0.58489 0.68268
 C487 C 0.05881 0.59100 0.69460
 C488 C 0.07075 0.58439 0.70035
 H489 H 0.09178 0.53785 0.67654
 H490 H 0.09331 0.57015 0.70905
 H491 H 0.07304 0.53815 0.65901
 H492 H 0.04217 0.57168 0.65984
 H493 H 0.04298 0.58982 0.67827
 H494 H 0.07599 0.58915 0.70940
 C495 C 0.66738 0.57846 0.06126
 C496 C 0.65526 0.57278 0.05492
 C497 C 0.64847 0.56070 0.06075
 C498 C 0.65399 0.55432 0.07305
 C499 C 0.66607 0.55989 0.07952
 C500 C 0.67282 0.57198 0.07360
 C501 C 0.67410 0.59056 0.05550
 C502 C 0.68619 0.59633 0.06191
 C503 C 0.69156 0.58975 0.07419
 C504 C 0.68497 0.57764 0.08008
 C505 C 0.69023 0.57120 0.09244
 C506 C 0.68348 0.55921 0.09846
 C507 C 0.67143 0.55360 0.09188
 H508 H 0.65116 0.57768 0.04536
 H509 H 0.64871 0.54516 0.07776
 H510 H 0.66998 0.59543 0.04594
 H511 H 0.70074 0.59423 0.07934
 H512 H 0.69944 0.57569 0.09753
 H513 H 0.66627 0.54424 0.09634
 C514 C 0.05636 0.68029 0.56952
 C515 C 0.05109 0.68702 0.58169
 C516 C 0.05802 0.69895 0.58753
 C517 C 0.07027 0.70421 0.58094
 C518 C 0.07569 0.69758 0.56877
 C519 C 0.06873 0.68555 0.56305
 C520 C 0.04965 0.66817 0.56392
 C521 C 0.05516 0.66118 0.55194
 C522 C 0.06740 0.66659 0.54547
 C523 C 0.07424 0.67867 0.55097
 C524 C 0.08666 0.68379 0.54473
 C525 C 0.09376 0.69566 0.55045
 C526 C 0.08812 0.70258 0.56240
 H527 H 0.04178 0.68275 0.58683
 H528 H 0.07560 0.71348 0.58528
 H529 H 0.04034 0.66394 0.56911
 H530 H 0.07163 0.66137 0.53614
 H531 H 0.09084 0.67849 0.53542
 H532 H 0.09363 0.71163 0.56699
 C533 C 0.56283 1.07708 0.67453
 C534 C 0.55643 1.07084 0.66265
 C535 C 0.56217 1.05858 0.65606
 C536 C 0.57450 1.05265 0.66194
 C537 C 0.58094 1.05874 0.67388
 C538 C 0.57512 1.07102 0.68017
 C539 C 0.55723 1.08947 0.68069
 C540 C 0.56374 1.09590 0.69246
 C541 C 0.57591 1.08968 0.69813
 C542 C 0.58166 1.07732 0.69205
 C543 C 0.59394 1.07126 0.69757
 C544 C 0.59982 1.05899 0.69137
 C545 C 0.59321 1.05277 0.67955
 H546 H 0.54734 1.07610 0.65821
 H547 H 0.57895 1.04294 0.65763
 H548 H 0.54774 1.09410 0.67637
 H549 H 0.58111 1.09466 0.70708
 H550 H 0.59887 1.07605 0.70677
 H551 H 0.59780 1.04344 0.67457
 C552 C 0.42758 0.31684 0.94078
 C553 C 0.43436 0.32862 0.94701
 C554 C 0.44598 0.33535 0.94034
 C555 C 0.45076 0.32967 0.92729
 C556 C 0.44413 0.31786 0.92101
 C557 C 0.43247 0.31144 0.92775
 C558 C 0.41578 0.31055 0.94730
 C559 C 0.40884 0.29889 0.94096
 C560 C 0.41391 0.29348 0.92803
 C561 C 0.42563 0.29968 0.92137
 C562 C 0.43050 0.29443 0.90833
 C563 C 0.44212 0.30077 0.90153
 C564 C 0.44892 0.31245 0.90799
 H565 H 0.43000 0.33290 0.95672
 H566 H 0.45997 0.33406 0.92210
 H567 H 0.41200 0.31470 0.95733
 H568 H 0.40851 0.28464 0.92295
 H569 H 0.42528 0.28534 0.90351
 H570 H 0.45776 0.31753 0.90271
 C571 C 0.92177 0.44219 0.32559
 C572 C 0.92838 0.44735 0.33783
 C573 C 0.94068 0.44086 0.34317
 C574 C 0.94625 0.42907 0.33566
 C575 C 0.93979 0.42390 0.32332
 C576 C 0.92748 0.43044 0.31827
 C577 C 0.90937 0.44849 0.32068
 C578 C 0.90257 0.44325 0.30852
 C579 C 0.90844 0.43164 0.30114
 C580 C 0.92083 0.42518 0.30596
 C581 C 0.92659 0.41343 0.29877
 C582 C 0.93891 0.40687 0.30373
 C583 C 0.94544 0.41221 0.31600
 H584 H 0.92342 0.45601 0.34353
 H585 H 0.95594 0.42414 0.33902
 H586 H 0.90502 0.45758 0.32629
 H587 H 0.90320 0.42745 0.29184
 H588 H 0.92154 0.40947 0.28926
 H589 H 0.95479 0.40705 0.32003
 C590 C 0.33028 0.94372 0.42700
 C591 C 0.32408 0.95049 0.41530
 C592 C 0.31171 0.94501 0.40926
 C593 C 0.30543 0.93274 0.41520
 C594 C 0.31147 0.92591 0.42694
 C595 C 0.32396 0.93140 0.43287
 C596 C 0.34277 0.94904 0.43280
 C597 C 0.34930 0.94224 0.44445
 C598 C 0.34269 0.92997 0.45031
 C599 C 0.33019 0.92450 0.44455
 C600 C 0.32396 0.91203 0.45013
 C601 C 0.31157 0.90644 0.44419
 C602 C 0.30536 0.91350 0.43264
 H603 H 0.32890 0.96004 0.41088
 H604 H 0.29601 0.92830 0.41048
 H605 H 0.34707 0.95883 0.42839
 H606 H 0.34754 0.92413 0.45892
 H607 H 0.32873 0.90669 0.45912
 H608 H 0.29595 0.90913 0.42786
 O609 O 0.21665 0.52136 0.74786
 O610 O 0.22260 0.52045 0.77264
 O611 O 0.25373 0.53950 0.72926
 O612 O 0.27664 0.53434 0.72842
 O613 O 0.23425 0.50231 0.71064
 O614 O 0.23433 0.47728 0.71672
 O615 O 0.29040 0.49919 0.76487
 O616 O 0.28746 0.52434 0.76167
 O617 O 0.25477 0.48436 0.78560
 O618 O 0.22891 0.48665 0.78105
 O619 O 0.26948 0.46347 0.74959
 O620 O 0.26745 0.46806 0.72356
 O621 O 0.28901 0.48176 0.74817
 O622 O 0.28317 0.48248 0.72266
 O623 O 0.25324 0.46467 0.76722
 O624 O 0.22820 0.47057 0.76694
 O625 O 0.27247 0.50067 0.78432
 O626 O 0.27206 0.52611 0.77909
 O627 O 0.21525 0.50383 0.73124
 O628 O 0.21918 0.47853 0.73296
 O629 O 0.25170 0.51896 0.70976
 O630 O 0.27665 0.51566 0.71416
 O631 O 0.23739 0.54047 0.74686
 O632 O 0.23876 0.53565 0.77172
 Zr633 Zr 0.23725 0.51985 0.75577
 O634 O 0.24951 0.50708 0.76927
 Zr635 Zr 0.26099 0.51825 0.72994
 O636 O 0.27433 0.50536 0.74232
 Zr637 Zr 0.23518 0.49422 0.73153
 O638 O 0.24733 0.48023 0.74400
 Zr639 Zr 0.27083 0.50942 0.76391
 O640 O 0.25869 0.52363 0.75153
 Zr641 Zr 0.24501 0.48541 0.76557
 O642 O 0.23146 0.49826 0.75319
 Zr643 Zr 0.26873 0.48372 0.73972
 O644 O 0.25647 0.49654 0.72598
 O645 O 0.23974 0.51579 0.73426
 O646 O 0.26636 0.48774 0.76132
 C647 C 0.20997 0.51425 0.73834
 C648 C 0.24450 0.54618 0.73670
 C649 C 0.24154 0.51192 0.70411
 C650 C 0.29555 0.48857 0.75798
 C651 C 0.26535 0.49103 0.79092
 C652 C 0.26279 0.45807 0.76021
 H653 H 0.24761 0.50975 0.77922
 H654 H 0.24451 0.47024 0.74206
 H655 H 0.23387 0.52208 0.72829
 H656 H 0.28424 0.50721 0.73972
 H657 H 0.28345 0.53300 0.75718
 H658 H 0.28502 0.53085 0.73352
 H659 H 0.22839 0.46461 0.75829
 H660 H 0.21507 0.47939 0.74258
 H661 H 0.26357 0.52568 0.78513
 H662 H 0.24831 0.53979 0.77096
 H663 H 0.25906 0.46207 0.72545
 H664 H 0.24352 0.47719 0.71180
 H665 H 0.21751 0.51119 0.77250
 H666 H 0.23097 0.49492 0.78724
 H667 H 0.27469 0.50647 0.70933
 H668 H 0.28953 0.49085 0.72327
 O669 O 0.24671 0.04090 0.23968
 O670 O 0.27133 0.03533 0.24091
 O671 O 0.23009 0.00429 0.21799
 O672 O 0.22972 -0.01946 0.22122
 O673 O 0.20971 0.02044 0.25546
 O674 O 0.21441 0.01820 0.28036
 O675 O 0.26472 -0.03552 0.25666
 O676 O 0.26271 -0.03051 0.23184
 O677 O 0.28320 -0.00013 0.27512
 O678 O 0.27862 0.02595 0.27462
 O679 O 0.24716 -0.01774 0.29265
 O680 O 0.22158 -0.01595 0.28702
 O681 O 0.24726 -0.03601 0.27311
 O682 O 0.22199 -0.03085 0.27160
 O683 O 0.26403 -0.00053 0.29356
 O684 O 0.26317 0.02579 0.28917
 O685 O 0.28343 -0.01680 0.25764
 O686 O 0.27950 -0.01408 0.23205
 O687 O 0.22966 0.04029 0.25662
 O688 O 0.23007 0.03398 0.28123
 O689 O 0.20989 0.00409 0.23764
 O690 O 0.21495 -0.02159 0.23911
 O691 O 0.24686 0.02165 0.21904
 O692 O 0.27138 0.02006 0.22455
 Zr693 Zr 0.25500 0.02000 0.23972
 O694 O 0.26814 0.00686 0.25204
 Zr695 Zr 0.23011 -0.00494 0.23841
 O696 O 0.24221 -0.01926 0.25062
 Zr697 Zr 0.22991 0.01919 0.26429
 O698 O 0.24188 0.00601 0.27767
 Zr699 Zr 0.26367 -0.01479 0.24792
 O700 O 0.25164 -0.00162 0.23425
 Zr701 Zr 0.26332 0.00948 0.27362
 O702 O 0.25134 0.02397 0.26140
 Zr703 Zr 0.23840 -0.01551 0.27229
 O704 O 0.22507 -0.00234 0.26002
 O705 O 0.23366 0.01654 0.24273
 O706 O 0.25984 -0.01213 0.26951
 C707 C 0.23692 0.04680 0.24705
 C708 C 0.23725 0.01461 0.21245
 C709 C 0.20381 0.01375 0.24515
 C710 C 0.25754 -0.04179 0.26646
 C711 C 0.28910 -0.01029 0.26818
 C712 C 0.25711 -0.01101 0.29901
 H713 H 0.27806 0.00927 0.25005
 H714 H 0.23940 0.00798 0.28766
 H715 H 0.22787 0.02294 0.23678
 H716 H 0.24004 -0.02924 0.24790
 H717 H 0.25856 -0.02586 0.22340
 H718 H 0.23510 -0.02800 0.22410
 H719 H 0.25491 0.02420 0.29537
 H720 H 0.23946 0.03857 0.28115
 H721 H 0.28536 -0.00548 0.23363
 H722 H 0.27101 0.01064 0.21977
 H723 H 0.22298 -0.00798 0.29377
 H724 H 0.20976 0.00875 0.27945
 H725 H 0.27082 0.03953 0.25053
 H726 H 0.28482 0.02504 0.26624
 H727 H 0.20957 -0.02041 0.24803
 H728 H 0.22316 -0.03651 0.26283
 O729 O 0.49753 0.70755 0.22730
 O730 O 0.47316 0.71234 0.22709
 O731 O 0.51475 0.74664 0.21007
 O732 O 0.51479 0.76979 0.21548
 O733 O 0.53323 0.72704 0.24697
 O734 O 0.52716 0.72653 0.27140
 O735 O 0.47636 0.78126 0.24950
 O736 O 0.47972 0.77883 0.22491
 O737 O 0.45822 0.74370 0.26412
 O738 O 0.46364 0.71808 0.26187
 O739 O 0.49277 0.76062 0.28514
 O740 O 0.51805 0.76099 0.28104
 O741 O 0.49233 0.78077 0.26733
 O742 O 0.51856 0.77648 0.26606
 O743 O 0.47614 0.74321 0.28362
 O744 O 0.47847 0.71730 0.27703
 O745 O 0.45838 0.76193 0.24814
 O746 O 0.46422 0.76142 0.22230
 O747 O 0.51368 0.70671 0.24499
 O748 O 0.51145 0.71081 0.27029
 O749 O 0.53376 0.74513 0.23080
 O750 O 0.52761 0.77068 0.23455
 O751 O 0.49856 0.72877 0.20848
 O752 O 0.47345 0.72951 0.21275
 Zr753 Zr 0.48900 0.72817 0.22866
 O754 O 0.47473 0.73949 0.24145
 Zr755 Zr 0.51327 0.75365 0.23119
 O756 O 0.49982 0.76642 0.24366
 Zr757 Zr 0.51250 0.72702 0.25462
 O758 O 0.49949 0.73874 0.26840
 Zr759 Zr 0.47873 0.76149 0.23934
 O760 O 0.49214 0.75025 0.22535
 Zr761 Zr 0.47845 0.73500 0.26296
 O762 O 0.49143 0.72210 0.25007
 Zr763 Zr 0.50245 0.76083 0.26509
 O764 O 0.51695 0.74904 0.25271
 O765 O 0.51003 0.73175 0.23324
 O766 O 0.48136 0.75700 0.26082
 C767 C 0.50696 0.70105 0.23457
 C768 C 0.50833 0.73673 0.20318
 C769 C 0.53960 0.73486 0.23771
 C770 C 0.48235 0.78679 0.26038
 C771 C 0.45236 0.75426 0.25776
 C772 C 0.48261 0.75318 0.29035
 H773 H 0.46504 0.73695 0.23871
 H774 H 0.50149 0.73594 0.27831
 H775 H 0.51633 0.72607 0.22710
 H776 H 0.50176 0.77667 0.24190
 H777 H 0.48498 0.77542 0.21650
 H778 H 0.50831 0.77753 0.21827
 H779 H 0.48608 0.71879 0.28400
 H780 H 0.50241 0.70574 0.26889
 H781 H 0.45787 0.75310 0.22346
 H782 H 0.47432 0.73916 0.20847
 H783 H 0.51759 0.75167 0.28602
 H784 H 0.53134 0.73624 0.27192
 H785 H 0.47267 0.70757 0.23647
 H786 H 0.45803 0.71942 0.25316
 H787 H 0.53280 0.76847 0.24336
 H788 H 0.51672 0.78373 0.25864
 O789 O -0.02041 0.78810 0.74657
 O790 O -0.02092 0.78248 0.72198
 O791 O -0.03784 0.74978 0.76527
 O792 O -0.03277 0.72648 0.76570
 O793 O -0.00091 0.76950 0.78294
 O794 O 0.02335 0.76927 0.77642
 O795 O 0.00019 0.71332 0.72723
 O796 O -0.02414 0.71628 0.73096
 O797 O 0.01476 0.75008 0.70730
 O798 O 0.01284 0.77608 0.71218
 O799 O 0.03596 0.73410 0.74230
 O800 O 0.03229 0.73498 0.76813
 O801 O 0.01799 0.71418 0.74319
 O802 O 0.01757 0.71945 0.76929
 O803 O 0.03439 0.75110 0.72513
 O804 O 0.02834 0.77697 0.72655
 O805 O -0.00127 0.73205 0.70835
 O806 O -0.02652 0.73288 0.71450
 O807 O -0.00275 0.78912 0.76272
 O808 O 0.02212 0.78477 0.76023
 O809 O -0.01724 0.75172 0.78408
 O810 O -0.01383 0.72602 0.77886
 O811 O -0.03936 0.76709 0.74835
 O812 O -0.03550 0.76569 0.72305
 Zr813 Zr -0.01949 0.76718 0.73847
 O814 O -0.00728 0.75516 0.72424
 Zr815 Zr -0.01706 0.74244 0.76370
 O816 O -0.00500 0.72910 0.75042
 Zr817 Zr 0.00649 0.76871 0.76189
 O818 O 0.01978 0.75649 0.74882
 Zr819 Zr -0.00956 0.73331 0.72903
 O820 O -0.02306 0.74525 0.74234
 Zr821 Zr 0.01410 0.75953 0.72751
 O822 O 0.00179 0.77302 0.74050
 Zr823 Zr 0.01632 0.73456 0.75256
 O824 O 0.00435 0.74688 0.76704
 O825 O -0.01475 0.76419 0.75975
 O826 O 0.01179 0.73766 0.73119
 C827 C -0.01305 0.79473 0.75592
 C828 C -0.04459 0.75954 0.75852
 C829 C -0.01025 0.76211 0.78962
 C830 C 0.01088 0.70785 0.73344
 C831 C 0.00818 0.73941 0.70183
 C832 C 0.04103 0.74121 0.73176
 H833 H -0.01012 0.75738 0.71441
 H834 H 0.02964 0.75926 0.75057
 H835 H -0.02069 0.77015 0.76600
 H836 H -0.00683 0.71894 0.75276
 H837 H -0.03236 0.72009 0.73616
 H838 H -0.02988 0.71830 0.75976
 H839 H 0.03506 0.77593 0.73446
 H840 H 0.02081 0.78943 0.75089
 H841 H -0.02565 0.74124 0.70810
 H842 H -0.03972 0.75604 0.72407
 H843 H 0.03757 0.74405 0.76696
 H844 H 0.02360 0.75974 0.78103
 H845 H -0.01162 0.78723 0.72139
 H846 H 0.00431 0.77441 0.70645
 H847 H -0.00493 0.72825 0.78380
 H848 H 0.00970 0.71260 0.76821
 O849 O 0.03920 0.01196 0.00504
 O850 O 0.03358 0.01244 -0.01987
 O851 O 0.00276 0.02996 0.02420
 O852 O -0.02025 0.02546 0.02498
 O853 O 0.02095 -0.00884 0.04074
 O854 O 0.01952 -0.03350 0.03343
 O855 O -0.03533 -0.00663 -0.01359
 O856 O -0.03121 0.01811 -0.00912
 O857 O -0.00031 -0.02168 -0.03502
 O858 O 0.02552 -0.02060 -0.03050
 O859 O -0.01619 -0.04399 -0.00041
 O860 O -0.01403 -0.04134 0.02573
 O861 O -0.03483 -0.02502 0.00220
 O862 O -0.02881 -0.02619 0.02777
 O863 O 0.00031 -0.04239 -0.01777
 O864 O 0.02577 -0.03727 -0.01697
 O865 O -0.01727 -0.00481 -0.03293
 O866 O -0.01563 0.02033 -0.02633
 O867 O 0.03985 -0.00689 0.02033
 O868 O 0.03478 -0.03192 0.01718
 O869 O 0.00401 0.00812 0.04259
 O870 O -0.02114 0.00594 0.03790
 O871 O 0.01914 0.03155 0.00666
 O872 O 0.01796 0.02810 -0.01842
 Zr873 Zr 0.01867 0.01143 -0.00324
 O874 O 0.00595 -0.00007 -0.01748
 Zr875 Zr -0.00527 0.00901 0.02239
 O876 O -0.01908 -0.00255 0.00924
 Zr877 Zr 0.01952 -0.01573 0.01950
 O878 O 0.00681 -0.02849 0.00626
 Zr879 Zr -0.01528 0.00271 -0.01209
 O880 O -0.00263 0.01566 0.00114
 Zr881 Zr 0.00946 -0.02209 -0.01497
 O882 O 0.02351 -0.01049 -0.00188
 Zr883 Zr -0.01444 -0.02450 0.01066
 O884 O -0.00168 -0.01304 0.02514
 O885 O 0.01587 0.00612 0.01798
 O886 O -0.01180 -0.01924 -0.01066
 C887 C 0.04554 0.00395 0.01410
 C888 C 0.01216 0.03685 0.01708
 C889 C 0.01400 0.00056 0.04779
 C890 C -0.04103 -0.01736 -0.00720
 C891 C -0.01060 -0.01435 -0.03999
 C892 C -0.00967 -0.04900 -0.01127
 H893 H 0.00800 0.00311 -0.02727
 H894 H 0.00918 -0.03868 0.00764
 H895 H 0.02194 0.01188 0.02429
 H896 H -0.02890 -0.00048 0.01193
 H897 H -0.02685 0.02630 -0.00411
 H898 H -0.02863 0.02279 0.01938
 H899 H 0.02499 -0.04403 -0.00890
 H900 H 0.03901 -0.03058 0.00767
 H901 H -0.00729 0.01977 -0.03257
 H902 H 0.00855 0.03248 -0.01757
 H903 H -0.00572 -0.04731 0.02369
 H904 H 0.01030 -0.03351 0.03831
 H905 H 0.03823 0.00299 -0.02017
 H906 H 0.02405 -0.01169 -0.03596
 H907 H -0.01944 -0.00348 0.04239
 H908 H -0.03493 -0.01767 0.02752
 O909 O 0.03781 0.51589 0.49634
 O910 O 0.03073 0.51547 0.47216
 O911 O 0.00365 0.53794 0.51632
 O912 O -0.01947 0.53506 0.51871
 O913 O 0.02035 0.49946 0.53498
 O914 O 0.01745 0.47464 0.52993
 O915 O -0.03847 0.50126 0.48358
 O916 O -0.03270 0.52564 0.48518
 O917 O -0.00534 0.48183 0.46185
 O918 O 0.02032 0.48129 0.46491
 O919 O -0.02083 0.46358 0.49913
 O920 O -0.01759 0.46836 0.52454
 O921 O -0.03823 0.48381 0.50040
 O922 O -0.03101 0.48490 0.52599
 O923 O -0.00519 0.46259 0.48093
 O924 O 0.02074 0.46638 0.48020
 O925 O -0.02148 0.49959 0.46327
 O926 O -0.01753 0.52546 0.46757
 O927 O 0.03829 0.49870 0.51345
 O928 O 0.03146 0.47370 0.51264
 O929 O 0.00470 0.51769 0.53632
 O930 O -0.02097 0.51663 0.53294
 O931 O 0.01933 0.53703 0.49811
 O932 O 0.01586 0.53186 0.47329
 Zr933 Zr 0.01681 0.51636 0.48964
 O934 O 0.00287 0.50440 0.47707
 Zr935 Zr -0.00568 0.51751 0.51659
 O936 O -0.02083 0.50590 0.50504
 Zr937 Zr 0.01745 0.49109 0.51449
 O938 O 0.00324 0.47812 0.50316
 Zr939 Zr -0.01782 0.50904 0.48317
 O940 O -0.00389 0.52225 0.49476
 Zr941 Zr 0.00522 0.48249 0.48139
 O942 O 0.02055 0.49435 0.49260
 Zr943 Zr -0.01750 0.48389 0.50815
 O944 O -0.00324 0.49556 0.52095
 O945 O 0.01498 0.51293 0.51135
 O946 O -0.01559 0.48709 0.48636
 C947 C 0.04422 0.50836 0.50571
 C948 C 0.01326 0.54356 0.50843
 C949 C 0.01446 0.50986 0.54160
 C950 C -0.04444 0.49130 0.49085
 C951 C -0.01555 0.48915 0.45677
 C952 C -0.01510 0.45719 0.48855
 H953 H 0.00462 0.50657 0.46695
 H954 H 0.00507 0.46795 0.50535
 H955 H 0.02177 0.51872 0.51683
 H956 H -0.03035 0.50887 0.50797
 H957 H -0.02777 0.53384 0.48960
 H958 H -0.02809 0.53272 0.51335
 H959 H 0.01962 0.46007 0.48857
 H960 H 0.03552 0.47424 0.50297
 H961 H -0.01009 0.52330 0.46057
 H962 H 0.00693 0.53706 0.47463
 H963 H -0.00941 0.46205 0.52305
 H964 H 0.00840 0.47533 0.53505
 H965 H 0.03451 0.50563 0.47196
 H966 H 0.01947 0.49002 0.45903
 H967 H -0.01940 0.50763 0.53826
 H968 H -0.03703 0.49343 0.52488
 O969 O 0.50768 0.03337 0.51647
 O970 O 0.48331 0.02746 0.51802
 O971 O 0.52668 -0.00307 0.53668
 O972 O 0.52744 -0.02667 0.53343
 O973 O 0.54321 0.01381 0.49740
 O974 O 0.53630 0.01102 0.47309
 O975 O 0.48884 -0.04335 0.50260
 O976 O 0.49301 -0.03804 0.52676
 O977 O 0.46822 -0.00811 0.48559
 O978 O 0.47297 0.01797 0.48496
 O979 O 0.50249 -0.02561 0.46441
 O980 O 0.52815 -0.02384 0.46712
 O981 O 0.50412 -0.04369 0.48406
 O982 O 0.52990 -0.03797 0.48325
 O983 O 0.48524 -0.00894 0.46515
 O984 O 0.48674 0.01753 0.46878
 O985 O 0.46996 -0.02496 0.50290
 O986 O 0.47644 -0.02166 0.52809
 O987 O 0.52299 0.03307 0.49792
 O988 O 0.52022 0.02642 0.47342
 O989 O 0.54489 -0.00262 0.51513
 O990 O 0.53991 -0.02861 0.51409
 O991 O 0.50995 0.01421 0.53720
 O992 O 0.48489 0.01209 0.53420
 Zr993 Zr 0.49974 0.01234 0.51748
 O994 O 0.48551 -0.00098 0.50666
 Zr995 Zr 0.52485 -0.01217 0.51638
 O996 O 0.51161 -0.02674 0.50574
 Zr997 Zr 0.52228 0.01188 0.49049
 O998 O 0.50914 -0.00165 0.47853
 Zr999 Zr 0.49053 -0.02249 0.51063
 O1000 O 0.50384 -0.00915 0.52281
 Zr1001 Zr 0.48818 0.00153 0.48467
 O1002 O 0.50119 0.01628 0.49550
 Zr1003 Zr 0.51319 -0.02312 0.48375
 O1004 O 0.52765 -0.00959 0.49436
 O1005 O 0.52069 0.00924 0.51233
 O1006 O 0.49213 -0.01998 0.48872
 C1007 C 0.51659 0.03946 0.50812
 C1008 C 0.52012 0.00721 0.54284
 C1009 C 0.55009 0.00731 0.50719
 C1010 C 0.49477 -0.04958 0.49205
 C1011 C 0.46316 -0.01841 0.49311
 C1012 C 0.49172 -0.01933 0.45912
 H1013 H 0.47584 0.00134 0.50963
 H1014 H 0.51059 0.00024 0.46831
 H1015 H 0.52693 0.01579 0.51764
 H1016 H 0.51409 -0.03666 0.50835
 H1017 H 0.49815 -0.03334 0.53460
 H1018 H 0.52143 -0.03509 0.53149
 H1019 H 0.49424 0.01580 0.46172
 H1020 H 0.51085 0.03084 0.47442
 H1021 H 0.47000 -0.01352 0.52666
 H1022 H 0.48599 0.00279 0.53913
 H1023 H 0.52674 -0.01530 0.46108
 H1024 H 0.54104 0.00163 0.47365
 H1025 H 0.48266 0.03153 0.50834
 H1026 H 0.46763 0.01712 0.49394
 H1027 H 0.54459 -0.02712 0.50481
 H1028 H 0.52907 -0.04416 0.49174
 O1029 O 0.47826 0.45408 0.00476
 O1030 O 0.47858 0.45934 0.02963
 O1031 O 0.45904 0.49110 -0.01305
 O1032 O 0.46279 0.51463 -0.01349
 O1033 O 0.49683 0.47398 -0.03164
 O1034 O 0.52106 0.47531 -0.02539
 O1035 O 0.49580 0.53000 0.02402
 O1036 O 0.47153 0.52543 0.02083
 O1037 O 0.51225 0.49396 0.04385
 O1038 O 0.51208 0.46821 0.03896
 O1039 O 0.53218 0.51158 0.00825
 O1040 O 0.52825 0.51012 -0.01755
 O1041 O 0.51312 0.53021 0.00742
 O1042 O 0.51281 0.52468 -0.01850
 O1043 O 0.53180 0.49465 0.02556
 O1044 O 0.52716 0.46819 0.02401
 O1045 O 0.49548 0.51113 0.04301
 O1046 O 0.47042 0.50892 0.03756
 O1047 O 0.49589 0.45406 -0.01155
 O1048 O 0.52057 0.45971 -0.00925
 O1049 O 0.47972 0.49083 -0.03238
 O1050 O 0.48136 0.51648 -0.02704
 O1051 O 0.45854 0.47405 0.00420
 O1052 O 0.46306 0.47517 0.02926
 Zr1053 Zr 0.47868 0.47488 0.01329
 O1054 O 0.49049 0.48771 0.02722
 Zr1055 Zr 0.47941 0.49977 -0.01191
 O1056 O 0.49101 0.51385 0.00103
 Zr1057 Zr 0.50429 0.47495 -0.01067
 O1058 O 0.51717 0.48801 0.00208
 Zr1059 Zr 0.48704 0.50940 0.02251
 O1060 O 0.47394 0.49657 0.00958
 Zr1061 Zr 0.51202 0.48470 0.02353
 O1062 O 0.50019 0.47040 0.01084
 Zr1063 Zr 0.51251 0.50967 -0.00164
 O1064 O 0.50094 0.49661 -0.01577
 O1065 O 0.48288 0.47820 -0.00810
 O1066 O 0.50854 0.50639 0.01987
 C1067 C 0.48574 0.44793 -0.00481
 C1068 C 0.45279 0.48119 -0.00590
 C1069 C 0.48726 0.48105 -0.03816
 C1070 C 0.50593 0.53616 0.01732
 C1071 C 0.50520 0.50421 0.04944
 C1072 C 0.53776 0.50498 0.01877
 H1073 H 0.48791 0.48531 0.03710
 H1074 H 0.52713 0.48588 0.00012
 H1075 H 0.47711 0.47201 -0.01431
 H1076 H 0.48862 0.52387 -0.00131
 H1077 H 0.46337 0.52100 0.01603
 H1078 H 0.46530 0.52298 -0.00758
 H1079 H 0.53388 0.46989 0.01616
 H1080 H 0.51959 0.45506 0.00015
 H1081 H 0.47161 0.50042 0.04370
 H1082 H 0.45841 0.48460 0.02858
 H1083 H 0.53424 0.50162 -0.01622
 H1084 H 0.52096 0.48489 -0.02989
 H1085 H 0.48797 0.45484 0.02952
 H1086 H 0.50310 0.46868 0.04422
 H1087 H 0.49037 0.51502 -0.03209
 H1088 H 0.50460 0.53102 -0.01735
 O1089 O 0.76780 0.28869 0.50071
 O1090 O 0.76706 0.28142 0.52510
 O1091 O 0.78710 0.25254 0.48074
 O1092 O 0.78278 0.22893 0.47913
 O1093 O 0.75051 0.27180 0.46245
 O1094 O 0.72591 0.27030 0.46785
 O1095 O 0.74803 0.21212 0.51471
 O1096 O 0.77256 0.21601 0.51197
 O1097 O 0.73213 0.24702 0.53613
 O1098 O 0.73367 0.27350 0.53268
 O1099 O 0.71256 0.23304 0.49904
 O1100 O 0.71782 0.23575 0.47335
 O1101 O 0.73090 0.21361 0.49807
 O1102 O 0.73236 0.22021 0.47254
 O1103 O 0.71310 0.24879 0.51733
 O1104 O 0.71842 0.27448 0.51814
 O1105 O 0.74876 0.22975 0.53474
 O1106 O 0.77384 0.23129 0.52974
 O1107 O 0.75090 0.29017 0.48379
 O1108 O 0.72617 0.28496 0.48476
 O1109 O 0.76719 0.25454 0.46105
 O1110 O 0.76462 0.22874 0.46460
 O1111 O 0.78725 0.26854 0.49888
 O1112 O 0.78237 0.26552 0.52366
 Zr1113 Zr 0.76699 0.26729 0.50762
 O1114 O 0.75458 0.25385 0.52047
 Zr1115 Zr 0.76650 0.24416 0.48092
 O1116 O 0.75407 0.22958 0.49268
 Zr1117 Zr 0.74217 0.26946 0.48305
 O1118 O 0.72863 0.25605 0.49480
 Zr1119 Zr 0.75757 0.23244 0.51446
 O1120 O 0.77136 0.24577 0.50268
 Zr1121 Zr 0.73329 0.25780 0.51651
 O1122 O 0.74572 0.27255 0.50487
 Zr1123 Zr 0.73273 0.23454 0.48991
 O1124 O 0.74514 0.24808 0.47680
 O1125 O 0.76339 0.26552 0.48598
 O1126 O 0.73623 0.23629 0.51164
 C1127 C 0.76075 0.29565 0.49136
 C1128 C 0.79320 0.26202 0.48851
 C1129 C 0.76020 0.26502 0.45576
 C1130 C 0.73765 0.20683 0.50776
 C1131 C 0.73895 0.23640 0.54132
 C1132 C 0.70688 0.23936 0.50969
 H1133 H 0.75697 0.25550 0.53053
 H1134 H 0.71881 0.25867 0.49274
 H1135 H 0.76944 0.27206 0.48035
 H1136 H 0.75620 0.21965 0.48984
 H1137 H 0.78099 0.22048 0.50761
 H1138 H 0.77953 0.22006 0.48388
 H1139 H 0.71258 0.27431 0.50948
 H1140 H 0.72682 0.28896 0.49446
 H1141 H 0.77304 0.23965 0.53610
 H1142 H 0.78685 0.25607 0.52240
 H1143 H 0.71195 0.24428 0.47505
 H1144 H 0.72631 0.26121 0.46250
 H1145 H 0.75778 0.28615 0.52519
 H1146 H 0.74181 0.27152 0.53887
 H1147 H 0.75557 0.23052 0.45978
 H1148 H 0.74057 0.21383 0.47337
 O1149 O 0.76255 0.79080 -0.00323
 O1150 O 0.76141 0.78551 0.02167
 O1151 O 0.78141 0.75295 -0.02016
 O1152 O 0.77678 0.72935 -0.01995
 O1153 O 0.74529 0.77130 -0.04008
 O1154 O 0.72065 0.77042 -0.03498
 O1155 O 0.74129 0.71587 0.01669
 O1156 O 0.76596 0.71905 0.01382
 O1157 O 0.72575 0.75256 0.03492
 O1158 O 0.72763 0.77852 0.02962
 O1159 O 0.70663 0.73554 -0.00081
 O1160 O 0.71188 0.73661 -0.02678
 O1161 O 0.72472 0.71614 -0.00057
 O1162 O 0.72634 0.72089 -0.02646
 O1163 O 0.70712 0.75284 0.01606
 O1164 O 0.71283 0.77881 0.01448
 O1165 O 0.74213 0.73498 0.03515
 O1166 O 0.76746 0.73587 0.03025
 O1167 O 0.74549 0.79125 -0.02006
 O1168 O 0.72075 0.78626 -0.01923
 O1169 O 0.76177 0.75378 -0.04006
 O1170 O 0.75868 0.72825 -0.03457
 O1171 O 0.78167 0.77028 -0.00327
 O1172 O 0.77650 0.76925 0.02166
 Zr1173 Zr 0.76131 0.77001 0.00537
 O1174 O 0.74855 0.75781 0.01909
 Zr1175 Zr 0.76070 0.74489 -0.01948
 O1176 O 0.74799 0.73142 -0.00672
 Zr1177 Zr 0.73667 0.77058 -0.01951
 O1178 O 0.72282 0.75829 -0.00694
 Zr1179 Zr 0.75128 0.73593 0.01483
 O1180 O 0.76538 0.74810 0.00215
 Zr1181 Zr 0.72735 0.76172 0.01458
 O1182 O 0.74012 0.77533 0.00202
 Zr1183 Zr 0.72675 0.73641 -0.01013
 O1184 O 0.73944 0.74875 -0.02411
 O1185 O 0.75781 0.76662 -0.01609
 O1186 O 0.73007 0.73987 0.01140
 C1187 C 0.75546 0.79716 -0.01297
 C1188 C 0.78760 0.76291 -0.01309
 C1189 C 0.75499 0.76397 -0.04615
 C1190 C 0.73104 0.71014 0.00988
 C1191 C 0.73226 0.74222 0.04100
 C1192 C 0.70098 0.74265 0.00936
 H1193 H 0.75085 0.76021 0.02902
 H1194 H 0.71304 0.76082 -0.00927
 H1195 H 0.76399 0.77265 -0.02212
 H1196 H 0.75001 0.72127 -0.00877
 H1197 H 0.77448 0.72298 0.00916
 H1198 H 0.77340 0.72094 -0.01451
 H1199 H 0.70652 0.77749 0.00627
 H1200 H 0.72123 0.79092 -0.00982
 H1201 H 0.76650 0.74455 0.03614
 H1202 H 0.78083 0.75965 0.02118
 H1203 H 0.70590 0.74514 -0.02553
 H1204 H 0.72087 0.76085 -0.03946
 H1205 H 0.75219 0.79033 0.02129
 H1206 H 0.73589 0.77714 0.03580
 H1207 H 0.74983 0.72994 -0.03978
 H1208 H 0.73453 0.71456 -0.02515
 O1209 O 1.03989 0.23307 0.24598
 O1210 O 1.03400 0.23369 0.27054
 O1211 O 1.00253 0.21507 0.22766
 O1212 O 0.97982 0.22032 0.22657
 O1213 O 1.02236 0.25208 0.20865
 O1214 O 1.02261 0.27687 0.21421
 O1215 O 0.96644 0.25566 0.26354
 O1216 O 0.96915 0.23063 0.26090
 O1217 O 1.00233 0.27083 0.28325
 O1218 O 1.02765 0.26885 0.27888
 O1219 O 0.98706 0.29107 0.24718
 O1220 O 0.98871 0.28648 0.22147
 O1221 O 0.96767 0.27292 0.24657
 O1222 O 0.97347 0.27144 0.22060
 O1223 O 1.00330 0.29009 0.26472
 O1224 O 1.02905 0.28378 0.26346
 O1225 O 0.98443 0.25471 0.28266
 O1226 O 0.98515 0.22871 0.27771
 O1227 O 1.04139 0.25051 0.22916
 O1228 O 1.03733 0.27603 0.23071
 O1229 O 1.00483 0.23551 0.20793
 O1230 O 0.97957 0.23913 0.21283
 O1231 O 1.01920 0.21397 0.24483
 O1232 O 1.01733 0.21894 0.26996
 Zr1233 Zr 1.01927 0.23461 0.25384
 O1234 O 1.00733 0.24774 0.26734
 Zr1235 Zr 0.99549 0.23634 0.22821
 O1236 O 0.98225 0.24920 0.24076
 Zr1237 Zr 1.02146 0.26021 0.22939
 O1238 O 1.00928 0.27437 0.24161
 Zr1239 Zr 0.98596 0.24540 0.26240
 O1240 O 0.99779 0.23102 0.24986
 Zr1241 Zr 1.01182 0.26939 0.26318
 O1242 O 1.02522 0.25618 0.25102
 Zr1243 Zr 0.98784 0.27077 0.23768
 O1244 O 1.00014 0.25797 0.22398
 O1245 O 1.01678 0.23867 0.23233
 O1246 O 0.99045 0.26700 0.25928
 C1247 C 1.04664 0.24016 0.23642
 C1248 C 1.01191 0.20834 0.23480
 C1249 C 1.01507 0.24249 0.20221
 C1250 C 0.96126 0.26626 0.25665
 C1251 C 0.99167 0.26451 0.28885
 C1252 C 0.99364 0.29656 0.25774
 H1253 H 1.00932 0.24523 0.27731
 H1254 H 1.01207 0.28434 0.23948
 H1255 H 1.02264 0.23235 0.22637
 H1256 H 0.97232 0.24731 0.23836
 H1257 H 0.97292 0.22198 0.25621
 H1258 H 0.97181 0.22336 0.23252
 H1259 H 1.02775 0.29079 0.25570
 H1260 H 1.04171 0.27494 0.24017
 H1261 H 0.99326 0.22980 0.28415
 H1262 H 1.00787 0.21465 0.26894
 H1263 H 0.99743 0.29210 0.22278
 H1264 H 1.01326 0.27736 0.20970
 H1265 H 1.03880 0.24310 0.27070
 H1266 H 1.02628 0.26002 0.28454
 H1267 H 0.98191 0.24795 0.20746
 H1268 H 0.96655 0.26363 0.22201
 O1269 O 0.77184 0.96918 0.75850
 O1270 O 0.77150 0.97301 0.73338
 O1271 O 0.79252 1.00701 0.77357
 O1272 O 0.78937 1.03059 0.77242
 O1273 O 0.75487 0.99161 0.79387
 O1274 O 0.73043 0.99337 0.78810
 O1275 O 0.75630 1.04418 0.73470
 O1276 O 0.78047 1.03919 0.73763
 O1277 O 0.73821 1.00746 0.71755
 O1278 O 0.73822 0.98177 0.72412
 O1279 O 0.71955 1.02731 0.75216
 O1280 O 0.72390 1.02753 0.77789
 O1281 O 0.73900 1.04559 0.75126
 O1282 O 0.73977 1.04183 0.77757
 O1283 O 0.71920 1.00932 0.73602
 O1284 O 0.72320 0.98303 0.73913
 O1285 O 0.75547 1.02430 0.71697
 O1286 O 0.78067 1.02171 0.72198
 O1287 O 0.75447 0.97056 0.77504
 O1288 O 0.73006 0.97669 0.77313
 O1289 O 0.77232 1.00826 0.79316
 O1290 O 0.77109 1.03358 0.78618
 O1291 O 0.79223 0.98871 0.75770
 O1292 O 0.78748 0.98853 0.73261
 Zr1293 Zr 0.77202 0.98948 0.74872
 O1294 O 0.76032 1.00162 0.73412
 Zr1295 Zr 0.77237 1.01594 0.77216
 O1296 O 0.76091 1.02937 0.75850
 Zr1297 Zr 0.74684 0.99158 0.77307
 O1298 O 0.73408 1.00399 0.75963
 Zr1299 Zr 0.76441 1.02349 0.73731
 O1300 O 0.77739 1.01126 0.75087
 Zr1301 Zr 0.73878 0.99925 0.73836
 O1302 O 0.75043 0.98559 0.75185
 Zr1303 Zr 0.73935 1.02574 0.76180
 O1304 O 0.75084 1.01344 0.77662
 O1305 O 0.76827 0.99423 0.76989
 O1306 O 0.74290 1.02104 0.74052
 C1307 C 0.76425 0.96376 0.76849
 C1308 C 0.79834 0.99643 0.76717
 C1309 C 0.76480 0.99887 0.79969
 C1310 C 0.74629 1.05084 0.74098
 C1311 C 0.74532 1.01733 0.71123
 C1312 C 0.71363 1.02016 0.74220
 H1313 H 0.76264 0.99858 0.72437
 H1314 H 0.72410 1.00216 0.76189
 H1315 H 0.77396 0.98827 0.77637
 H1316 H 0.76359 1.03947 0.76013
 H1317 H 0.78858 1.03487 0.74257
 H1318 H 0.78694 1.03859 0.76601
 H1319 H 0.71674 0.98525 0.74705
 H1320 H 0.73053 0.97156 0.76397
 H1321 H 0.77901 1.01297 0.71633
 H1322 H 0.79230 0.99793 0.73257
 H1323 H 0.71781 1.01894 0.77740
 H1324 H 0.73111 1.00313 0.79210
 H1325 H 0.76191 0.96889 0.73372
 H1326 H 0.74680 0.98221 0.71820
 H1327 H 0.76215 1.03258 0.79149
 H1328 H 0.74806 1.04799 0.77577
 O1329 O 0.74499 0.54040 0.23761
 O1330 O 0.76977 0.53514 0.23765
 O1331 O 0.72743 0.50400 0.21689
 O1332 O 0.72757 0.48019 0.21979
 O1333 O 0.70923 0.51936 0.25584
 O1334 O 0.71569 0.51733 0.28031
 O1335 O 0.76461 0.46398 0.25285
 O1336 O 0.76094 0.46923 0.22826
 O1337 O 0.78402 0.49921 0.27047
 O1338 O 0.77928 0.52533 0.27053
 O1339 O 0.74893 0.48154 0.29020
 O1340 O 0.72317 0.48292 0.28593
 O1341 O 0.74839 0.46332 0.27055
 O1342 O 0.72292 0.46815 0.27047
 O1343 O 0.76588 0.49870 0.29024
 O1344 O 0.76486 0.52488 0.28611
 O1345 O 0.78320 0.48288 0.25269
 O1346 O 0.77771 0.48567 0.22760
 O1347 O 0.72887 0.53950 0.25543
 O1348 O 0.73129 0.53326 0.28004
 O1349 O 0.70849 0.50319 0.23786
 O1350 O 0.71383 0.47771 0.23851
 O1351 O 0.74434 0.52125 0.21700
 O1352 O 0.76913 0.52003 0.22114
 Zr1353 Zr 0.75357 0.51962 0.23718
 O1354 O 0.76749 0.50641 0.24851
 Zr1355 Zr 0.72881 0.49448 0.23713
 O1356 O 0.74166 0.48012 0.24843
 Zr1357 Zr 0.73003 0.51843 0.26318
 O1358 O 0.74285 0.50518 0.27566
 Zr1359 Zr 0.76287 0.48479 0.24442
 O1360 O 0.75002 0.49804 0.23166
 Zr1361 Zr 0.76402 0.50878 0.27037
 O1362 O 0.75124 0.52335 0.25908
 Zr1363 Zr 0.73918 0.48368 0.27032
 O1364 O 0.72508 0.49689 0.25903
 O1365 O 0.73247 0.51595 0.24143
 O1366 O 0.76041 0.48719 0.26625
 C1367 C 0.73542 0.54611 0.24541
 C1368 C 0.73433 0.51430 0.21097
 C1369 C 0.70276 0.51261 0.24592
 C1370 C 0.75822 0.45762 0.26314
 C1371 C 0.78952 0.48925 0.26292
 C1372 C 0.75915 0.48828 0.29608
 H1373 H 0.77725 0.50889 0.24590
 H1374 H 0.74094 0.50707 0.28580
 H1375 H 0.72623 0.52228 0.23589
 H1376 H 0.73940 0.47015 0.24576
 H1377 H 0.75633 0.47398 0.22011
 H1378 H 0.73300 0.47156 0.22232
 H1379 H 0.75667 0.52354 0.29246
 H1380 H 0.74056 0.53803 0.27920
 H1381 H 0.78345 0.49443 0.22873
 H1382 H 0.76855 0.51070 0.21622
 H1383 H 0.72478 0.49092 0.29259
 H1384 H 0.71101 0.50788 0.27970
 H1385 H 0.76966 0.53932 0.24729
 H1386 H 0.78491 0.52455 0.26174
 H1387 H 0.70921 0.47854 0.24790
 H1388 H 0.72378 0.46241 0.26171
 O1389 O 0.52228 0.25732 0.70383
 O1390 O 0.52051 0.28218 0.70938
 O1391 O 0.54131 0.24023 0.74142
 O1392 O 0.53647 0.23892 0.76451
 O1393 O 0.50551 0.21916 0.72241
 O1394 O 0.48090 0.22367 0.72294
 O1395 O 0.50089 0.27461 0.77849
 O1396 O 0.52537 0.27316 0.77496
 O1397 O 0.48442 0.29374 0.74228
 O1398 O 0.48636 0.28913 0.71652
 O1399 O 0.46622 0.25678 0.75855
 O1400 O 0.47167 0.23101 0.75714
 O1401 O 0.48448 0.25691 0.77787
 O1402 O 0.48660 0.23087 0.77224
 O1403 O 0.46624 0.27412 0.74163
 O1404 O 0.47204 0.27330 0.71582
 O1405 O 0.50047 0.29386 0.76005
 O1406 O 0.52617 0.29004 0.75863
 O1407 O 0.50576 0.23971 0.70298
 O1408 O 0.48080 0.24012 0.70769
 O1409 O 0.52213 0.21931 0.73967
 O1410 O 0.51868 0.22416 0.76522
 O1411 O 0.54131 0.25757 0.72445
 O1412 O 0.53538 0.28248 0.72569
 Zr1413 Zr 0.52070 0.26549 0.72456
 O1414 O 0.50759 0.27864 0.73683
 Zr1415 Zr 0.52052 0.23976 0.74897
 O1416 O 0.50762 0.25196 0.76251
 Zr1417 Zr 0.49663 0.23969 0.72336
 O1418 O 0.48250 0.25159 0.73581
 Zr1419 Zr 0.51044 0.27389 0.75842
 O1420 O 0.52478 0.26178 0.74622
 Zr1421 Zr 0.48651 0.27350 0.73284
 O1422 O 0.49960 0.26162 0.71912
 Zr1423 Zr 0.48647 0.24797 0.75746
 O1424 O 0.49939 0.23456 0.74492
 O1425 O 0.51769 0.24365 0.72747
 O1426 O 0.48930 0.26987 0.75446
 C1427 C 0.51559 0.24732 0.69733
 C1428 C 0.54743 0.24783 0.73181
 C1429 C 0.51538 0.21318 0.72954
 C1430 C 0.49089 0.26725 0.78413
 C1431 C 0.49055 0.29968 0.75288
 C1432 C 0.46030 0.26698 0.75166
 H1433 H 0.50963 0.28879 0.73466
 H1434 H 0.47277 0.24900 0.73324
 H1435 H 0.52408 0.23791 0.72148
 H1436 H 0.50974 0.24967 0.77252
 H1437 H 0.53392 0.26871 0.77096
 H1438 H 0.53333 0.24478 0.77263
 H1439 H 0.46593 0.26479 0.71696
 H1440 H 0.48138 0.24964 0.70309
 H1441 H 0.52455 0.29659 0.75055
 H1442 H 0.53957 0.28204 0.73528
 H1443 H 0.46602 0.23201 0.74841
 H1444 H 0.48092 0.21910 0.73242
 H1445 H 0.51125 0.28171 0.70465
 H1446 H 0.49459 0.29546 0.71790
 H1447 H 0.51018 0.21841 0.76314
 H1448 H 0.49455 0.23244 0.77880
 O1449 O 0.25081 0.70943 0.52047
 O1450 O 0.27544 0.71278 0.52008
 O1451 O 0.23640 0.74903 0.53839
 O1452 O 0.23762 0.77220 0.53328
 O1453 O 0.21601 0.73109 0.50174
 O1454 O 0.22161 0.73068 0.47712
 O1455 O 0.27580 0.78235 0.49888
 O1456 O 0.27293 0.77943 0.52346
 O1457 O 0.29164 0.74418 0.48322
 O1458 O 0.28467 0.71881 0.48516
 O1459 O 0.25791 0.76354 0.46323
 O1460 O 0.23282 0.76484 0.46746
 O1461 O 0.25934 0.78315 0.48152
 O1462 O 0.23292 0.77972 0.48297
 O1463 O 0.27339 0.74516 0.46407
 O1464 O 0.26958 0.71920 0.47023
 O1465 O 0.29277 0.76205 0.49947
 O1466 O 0.28753 0.76133 0.52531
 O1467 O 0.23428 0.70968 0.50312
 O1468 O 0.23641 0.71407 0.47780
 O1469 O 0.21698 0.74888 0.51811
 O1470 O 0.22450 0.77410 0.51453
 O1471 O 0.25158 0.73036 0.53951
 O1472 O 0.27662 0.72968 0.53459
 Zr1473 Zr 0.26063 0.72953 0.51907
 O1474 O 0.27528 0.74033 0.50613
 Zr1475 Zr 0.23789 0.75629 0.51735
 O1476 O 0.25179 0.76857 0.50480
 Zr1477 Zr 0.23657 0.73007 0.49362
 O1478 O 0.24999 0.74140 0.47971
 Zr1479 Zr 0.27262 0.76246 0.50865
 O1480 O 0.25887 0.75165 0.52276
 Zr1481 Zr 0.27091 0.73653 0.48462
 O1482 O 0.25744 0.72403 0.49763
 Zr1483 Zr 0.24840 0.76354 0.48336
 O1484 O 0.23348 0.75226 0.49587
 O1485 O 0.23976 0.73429 0.51499
 O1486 O 0.26933 0.75859 0.48716
 C1487 C 0.24082 0.70355 0.51340
 C1488 C 0.24240 0.73873 0.54507
 C1489 C 0.21036 0.73908 0.51125
 C1490 C 0.26973 0.78854 0.48840
 C1491 C 0.29819 0.75429 0.48966
 C1492 C 0.26756 0.75576 0.45771
 H1493 H 0.28486 0.73724 0.50863
 H1494 H 0.24768 0.73893 0.46980
 H1495 H 0.23326 0.72887 0.52122
 H1496 H 0.25044 0.77886 0.50676
 H1497 H 0.26767 0.77606 0.53192
 H1498 H 0.24451 0.77963 0.53048
 H1499 H 0.26196 0.72127 0.46344
 H1500 H 0.24521 0.70860 0.47892
 H1501 H 0.29325 0.75263 0.52399
 H1502 H 0.27643 0.73927 0.53904
 H1503 H 0.23251 0.75552 0.46253
 H1504 H 0.21806 0.74061 0.47677
 H1505 H 0.27544 0.70820 0.51062
 H1506 H 0.29049 0.71965 0.49379
 H1507 H 0.21888 0.77226 0.50590
 H1508 H 0.23524 0.78676 0.49043
 O1509 O 0.28698 0.25094 0.97954
 O1510 O 0.28208 0.22591 0.97943
 O1511 O 0.25078 0.26844 0.95915
 O1512 O 0.22775 0.26882 0.96240
 O1513 O 0.26664 0.28716 0.99782
 O1514 O 0.26496 0.28086 1.02215
 O1515 O 0.21239 0.23001 0.99518
 O1516 O 0.21741 0.23314 0.97089
 O1517 O 0.24708 0.21101 1.01353
 O1518 O 0.27209 0.21558 1.01370
 O1519 O 0.22946 0.24660 1.03254
 O1520 O 0.23015 0.27233 1.02837
 O1521 O 0.21158 0.24640 1.01292
 O1522 O 0.21647 0.27297 1.01213
 O1523 O 0.24653 0.22973 1.03294
 O1524 O 0.27270 0.23153 1.02807
 O1525 O 0.23090 0.21136 0.99588
 O1526 O 0.23422 0.21700 0.97017
 O1527 O 0.28634 0.26732 0.99732
 O1528 O 0.28013 0.26471 1.02222
 O1529 O 0.25064 0.28789 0.98000
 O1530 O 0.22523 0.28184 0.98126
 O1531 O 0.26793 0.25160 0.95905
 O1532 O 0.26664 0.22604 0.96354
 Zr1533 Zr 0.26663 0.24207 0.97934
 O1534 O 0.25401 0.22770 0.99108
 Zr1535 Zr 0.24194 0.26707 0.97953
 O1536 O 0.22800 0.25357 0.99076
 Zr1537 Zr 0.26569 0.26602 1.00527
 O1538 O 0.25264 0.25299 1.01794
 Zr1539 Zr 0.23280 0.23199 0.98699
 O1540 O 0.24543 0.24548 0.97407
 Zr1541 Zr 0.25633 0.23146 1.01292
 O1542 O 0.27050 0.24447 1.00122
 Zr1543 Zr 0.23148 0.25632 1.01258
 O1544 O 0.24449 0.27089 1.00135
 O1545 O 0.26305 0.26355 0.98355
 O1546 O 0.23513 0.23473 1.00878
 C1547 C 0.29271 0.26065 0.98728
 C1548 C 0.26084 0.26166 0.95309
 C1549 C 0.26003 0.29374 0.98792
 C1550 C 0.20608 0.23634 1.00545
 C1551 C 0.23720 0.20519 1.00628
 C1552 C 0.23622 0.23646 1.03864
 H1553 H 0.25651 0.21776 0.98863
 H1554 H 0.25449 0.25507 1.02804
 H1555 H 0.26921 0.26995 0.97790
 H1556 H 0.21821 0.25568 0.98805
 H1557 H 0.22176 0.23835 0.96282
 H1558 H 0.21988 0.26216 0.96436
 H1559 H 0.27068 0.23915 1.03504
 H1560 H 0.28528 0.25561 1.02101
 H1561 H 0.24198 0.21033 0.97222
 H1562 H 0.25756 0.22682 0.95852
 H1563 H 0.23866 0.27164 1.03432
 H1564 H 0.25553 0.28525 1.02187
 H1565 H 0.28594 0.22565 0.98917
 H1566 H 0.27232 0.21079 1.00437
 H1567 H 0.22665 0.28720 0.99020
 H1568 H 0.21014 0.27124 1.00400
 C1569 C 0.31546 0.36739 0.79277
 C1570 C 0.31053 0.38018 0.78700
 C1571 C 0.29608 0.38270 0.78576
 C1572 C 0.28660 0.37201 0.79035
 C1573 C 0.29155 0.35919 0.79617
 C1574 C 0.30604 0.35672 0.79738
 C1575 C 0.29149 0.39643 0.77932
 C1576 C 0.27861 0.40195 0.78090
 C1577 C 0.27451 0.41607 0.77500
 C1578 C 0.26351 0.42355 0.78150
 C1579 C 0.25958 0.43706 0.77659
 C1580 C 0.26649 0.44339 0.76492
 C1581 C 0.27723 0.43571 0.75812
 C1582 C 0.28117 0.42218 0.76306
 H1583 H 0.32668 0.36588 0.79373
 H1584 H 0.31807 0.38818 0.78355
 H1585 H 0.27539 0.37330 0.78922
 H1586 H 0.28406 0.35107 0.79942
 H1587 H 0.29941 0.40257 0.77370
 H1588 H 0.27100 0.39651 0.78756
 H1589 H 0.25811 0.41903 0.79062
 H1590 H 0.25122 0.44262 0.78207
 H1591 H 0.28269 0.44019 0.74904
 H1592 H 0.28934 0.41656 0.75741
 C1593 C 0.30016 -0.14295 0.28372
 C1594 C 0.29502 -0.13016 0.27814
 C1595 C 0.28807 -0.12031 0.28680
 C1596 C 0.28627 -0.12359 0.30127
 C1597 C 0.29134 -0.13643 0.30689
 C1598 C 0.29860 -0.14632 0.29828
 C1599 C 0.28355 -0.10652 0.28047
 C1600 C 0.27385 -0.09799 0.28632
 C1601 C 0.26968 -0.08395 0.28029
 C1602 C 0.25700 -0.07790 0.28485
 C1603 C 0.25293 -0.06438 0.28010
 C1604 C 0.26148 -0.05653 0.27067
 C1605 C 0.27412 -0.06262 0.26597
 C1606 C 0.27823 -0.07614 0.27078
 H1607 H 0.30501 -0.15032 0.27638
 H1608 H 0.29649 -0.12797 0.26694
 H1609 H 0.28142 -0.11610 0.30848
 H1610 H 0.29023 -0.13806 0.31820
 H1611 H 0.28818 -0.10360 0.27037
 H1612 H 0.26832 -0.10152 0.29575
 H1613 H 0.25026 -0.08360 0.29224
 H1614 H 0.24313 -0.06003 0.28398
 H1615 H 0.28105 -0.05677 0.25888
 H1616 H 0.28829 -0.08016 0.26732
 C1617 C 0.80158 0.86045 0.78470
 C1618 C 0.79649 0.87338 0.77940
 C1619 C 0.78984 0.88323 0.78833
 C1620 C 0.78817 0.87970 0.80276
 C1621 C 0.79316 0.86669 0.80809
 C1622 C 0.80023 0.85688 0.79922
 C1623 C 0.78560 0.89725 0.78222
 C1624 C 0.77721 0.90669 0.78877
 C1625 C 0.77380 0.92100 0.78282
 C1626 C 0.76204 0.92827 0.78811
 C1627 C 0.75879 0.94203 0.78331
 C1628 C 0.76728 0.94890 0.77310
 C1629 C 0.77903 0.94161 0.76776
 C1630 C 0.78231 0.92788 0.77261
 H1631 H 0.80627 0.85315 0.77719
 H1632 H 0.79786 0.87573 0.76821
 H1633 H 0.78348 0.88708 0.81018
 H1634 H 0.79218 0.86487 0.81938
 H1635 H 0.78951 0.89971 0.77171
 H1636 H 0.77230 0.90386 0.79874
 H1637 H 0.75537 0.92332 0.79607
 H1638 H 0.74968 0.94733 0.78770
 H1639 H 0.78591 0.94663 0.76003
 H1640 H 0.79175 0.92294 0.76858
 C1641 C 0.45899 0.88601 0.30545
 C1642 C 0.46539 0.87368 0.30017
 C1643 C 0.45727 0.86209 0.29539
 C1644 C 0.44254 0.86303 0.29623
 C1645 C 0.43614 0.87536 0.30153
 C1646 C 0.44428 0.88699 0.30621
 C1647 C 0.46451 0.84909 0.29012
 C1648 C 0.45857 0.83984 0.28104
 C1649 C 0.46555 0.82672 0.27570
 C1650 C 0.46036 0.82040 0.26328
 C1651 C 0.46606 0.80767 0.25816
 C1652 C 0.47706 0.80084 0.26539
 C1653 C 0.48235 0.80721 0.27779
 C1654 C 0.47665 0.81999 0.28292
 H1655 H 0.46556 0.89483 0.30885
 H1656 H 0.47675 0.87322 0.29973
 H1657 H 0.43590 0.85415 0.29315
 H1658 H 0.42480 0.87565 0.30227
 H1659 H 0.47527 0.84754 0.29338
 H1660 H 0.44829 0.84218 0.27681
 H1661 H 0.45177 0.82527 0.25755
 H1662 H 0.46164 0.80307 0.24861
 H1663 H 0.49071 0.80217 0.28373
 H1664 H 0.48070 0.82428 0.29275
 C1665 C -0.02877 0.89698 0.79702
 C1666 C -0.02311 0.88441 0.79148
 C1667 C -0.03171 0.87419 0.78494
 C1668 C -0.04619 0.87687 0.78398
 C1669 C -0.05187 0.88947 0.78942
 C1670 C -0.04332 0.89975 0.79623
 C1671 C -0.02535 0.86057 0.78011
 C1672 C -0.03153 0.85166 0.77086
 C1673 C -0.02581 0.83748 0.76685
 C1674 C -0.03135 0.83063 0.75486
 C1675 C -0.02702 0.81688 0.75115
 C1676 C -0.01703 0.80962 0.75939
 C1677 C -0.01133 0.81653 0.77130
 C1678 C -0.01572 0.83026 0.77506
 H1679 H -0.02154 0.90465 0.80157
 H1680 H -0.01191 0.88264 0.79235
 H1681 H -0.05334 0.86907 0.77955
 H1682 H -0.06315 0.89059 0.78898
 H1683 H -0.01509 0.85802 0.78426
 H1684 H -0.04117 0.85485 0.76576
 H1685 H -0.03920 0.83588 0.74840
 H1686 H -0.03163 0.81188 0.74190
 H1687 H -0.00374 0.81118 0.77797
 H1688 H -0.01147 0.83489 0.78463
 C1689 C -0.05209 -0.14946 -0.03500
 C1690 C -0.04681 -0.13705 -0.02864
 C1691 C -0.04188 -0.12558 -0.03694
 C1692 C -0.04248 -0.12676 -0.05183
 C1693 C -0.04774 -0.13918 -0.05819
 C1694 C -0.05266 -0.15065 -0.04985
 C1695 C -0.03681 -0.11243 -0.02968
 C1696 C -0.02832 -0.10270 -0.03580
 C1697 C -0.02344 -0.08937 -0.02873
 C1698 C -0.01173 -0.08216 -0.03438
 C1699 C -0.00710 -0.06925 -0.02854
 C1700 C -0.01412 -0.06314 -0.01690
 C1701 C -0.02582 -0.07038 -0.01118
 C1702 C -0.03047 -0.08331 -0.01704
 H1703 H -0.05568 -0.15816 -0.02827
 H1704 H -0.04656 -0.13643 -0.01716
 H1705 H -0.03926 -0.11801 -0.05865
 H1706 H -0.04832 -0.13966 -0.06965
 H1707 H -0.03986 -0.11111 -0.01869
 H1708 H -0.02428 -0.10470 -0.04635
 H1709 H -0.00617 -0.08650 -0.04343
 H1710 H 0.00191 -0.06397 -0.03329
 H1711 H -0.03160 -0.06592 -0.00233
 H1712 H -0.03979 -0.08823 -0.01260
 C1713 C -0.04468 0.36464 0.43607
 C1714 C -0.03933 0.37762 0.44104
 C1715 C -0.04049 0.38136 0.45537
 C1716 C -0.04710 0.37170 0.46474
 C1717 C -0.05256 0.35871 0.45978
 C1718 C -0.05142 0.35484 0.44533
 C1719 C -0.03431 0.39523 0.45999
 C1720 C -0.03712 0.40162 0.47242
 C1721 C -0.03104 0.41567 0.47656
 C1722 C -0.03797 0.42385 0.48688
 C1723 C -0.03274 0.43725 0.49090
 C1724 C -0.02038 0.44275 0.48473
 C1725 C -0.01326 0.43441 0.47464
 C1726 C -0.01845 0.42100 0.47067
 H1727 H -0.04396 0.36271 0.42479
 H1728 H -0.03434 0.38486 0.43354
 H1729 H -0.04783 0.37387 0.47597
 H1730 H -0.05706 0.35148 0.46754
 H1731 H -0.02762 0.40066 0.45239
 H1732 H -0.04472 0.39689 0.47960
 H1733 H -0.04760 0.41996 0.49170
 H1734 H -0.03851 0.44337 0.49871
 H1735 H -0.00361 0.43823 0.46981
 H1736 H -0.01244 0.41484 0.46312
 C1737 C 0.47244 -0.14995 0.44925
 C1738 C 0.47897 -0.13766 0.45454
 C1739 C 0.47141 -0.12765 0.46248
 C1740 C 0.45707 -0.13021 0.46506
 C1741 C 0.45052 -0.14251 0.45986
 C1742 C 0.45801 -0.15261 0.45170
 C1743 C 0.47859 -0.11433 0.46707
 C1744 C 0.47374 -0.10581 0.47741
 C1745 C 0.48017 -0.09186 0.48126
 C1746 C 0.47624 -0.08550 0.49415
 C1747 C 0.48123 -0.07193 0.49781
 C1748 C 0.49027 -0.06437 0.48865
 C1749 C 0.49438 -0.07079 0.47583
 C1750 C 0.48933 -0.08434 0.47212
 H1751 H 0.47892 -0.15749 0.44357
 H1752 H 0.49004 -0.13598 0.45239
 H1753 H 0.45066 -0.12251 0.47062
 H1754 H 0.43934 -0.14353 0.46161
 H1755 H 0.48834 -0.11167 0.46177
 H1756 H 0.46469 -0.10916 0.48355
 H1757 H 0.46912 -0.09098 0.50134
 H1758 H 0.47782 -0.06729 0.50776
 H1759 H 0.50118 -0.06519 0.46843
 H1760 H 0.49231 -0.08856 0.46189
 C1761 C 0.45951 0.35787 -0.06209
 C1762 C 0.46555 0.37010 -0.05613
 C1763 C 0.46485 0.37258 -0.04149
 C1764 C 0.45827 0.36226 -0.03282
 C1765 C 0.45213 0.35004 -0.03875
 C1766 C 0.45251 0.34760 -0.05355
 C1767 C 0.47115 0.38598 -0.03584
 C1768 C 0.46795 0.39155 -0.02312
 C1769 C 0.47334 0.40560 -0.01809
 C1770 C 0.46580 0.41281 -0.00751
 C1771 C 0.47002 0.42637 -0.00294
 C1772 C 0.48197 0.43305 -0.00880
 C1773 C 0.48984 0.42560 -0.01902
 C1774 C 0.48563 0.41200 -0.02357
 H1775 H 0.45980 0.35697 -0.07352
 H1776 H 0.47056 0.37784 -0.06310
 H1777 H 0.45799 0.36339 -0.02141
 H1778 H 0.44758 0.34229 -0.03152
 H1779 H 0.47794 0.39192 -0.04296
 H1780 H 0.46026 0.38626 -0.01645
 H1781 H 0.45639 0.40808 -0.00298
 H1782 H 0.46371 0.43175 0.00499
 H1783 H 0.49919 0.43033 -0.02365
 H1784 H 0.49207 0.40661 -0.03134
 C1785 C 0.77881 0.40017 0.45593
 C1786 C 0.77245 0.38757 0.46084
 C1787 C 0.78064 0.37606 0.46556
 C1788 C 0.79536 0.37733 0.46507
 C1789 C 0.80170 0.38989 0.46019
 C1790 C 0.79351 0.40146 0.45558
 C1791 C 0.77362 0.36263 0.47010
 C1792 C 0.77966 0.35319 0.47890
 C1793 C 0.77360 0.33901 0.48253
 C1794 C 0.77919 0.33153 0.49413
 C1795 C 0.77475 0.31761 0.49723
 C1796 C 0.76462 0.31080 0.48876
 C1797 C 0.75879 0.31838 0.47732
 C1798 C 0.76326 0.33230 0.47418
 H1799 H 0.77224 0.40893 0.45247
 H1800 H 0.76110 0.38680 0.46095
 H1801 H 0.80207 0.36850 0.46802
 H1802 H 0.81304 0.39042 0.45967
 H1803 H 0.76312 0.36069 0.46620
 H1804 H 0.78957 0.35592 0.48380
 H1805 H 0.78722 0.33639 0.50068
 H1806 H 0.77947 0.31210 0.50614
 H1807 H 0.75105 0.31342 0.47049
 H1808 H 0.75894 0.33747 0.46491
 C1809 C 0.79878 0.89910 -0.02682
 C1810 C 0.79372 0.88609 -0.02148
 C1811 C 0.78600 0.87675 -0.03009
 C1812 C 0.78347 0.88069 -0.04425
 C1813 C 0.78842 0.89373 -0.04959
 C1814 C 0.79630 0.90319 -0.04103
 C1815 C 0.78146 0.86274 -0.02414
 C1816 C 0.77128 0.85464 -0.02985
 C1817 C 0.76722 0.84021 -0.02459
 C1818 C 0.75466 0.83413 -0.02955
 C1819 C 0.75073 0.82026 -0.02560
 C1820 C 0.75929 0.81211 -0.01658
 C1821 C 0.77179 0.81822 -0.01147
 C1822 C 0.77578 0.83207 -0.01549
 H1823 H 0.80428 0.90607 -0.01954
 H1824 H 0.79584 0.88333 -0.01052
 H1825 H 0.77810 0.87358 -0.05148
 H1826 H 0.78670 0.89586 -0.06073
 H1827 H 0.78660 0.85925 -0.01453
 H1828 H 0.76535 0.85877 -0.03873
 H1829 H 0.74791 0.84009 -0.03664
 H1830 H 0.74102 0.81590 -0.02973
 H1831 H 0.77871 0.81217 -0.00463
 H1832 H 0.78574 0.83608 -0.01172
 C1833 C 0.81474 0.29819 0.36680
 C1834 C 0.80942 0.29250 0.37944
 C1835 C 0.79489 0.29125 0.38164
 C1836 C 0.78574 0.29572 0.37080
 C1837 C 0.79109 0.30143 0.35812
 C1838 C 0.80565 0.30267 0.35597
 C1839 C 0.78988 0.28482 0.39518
 C1840 C 0.77688 0.28648 0.40044
 C1841 C 0.77241 0.28039 0.41431
 C1842 C 0.76156 0.28707 0.42187
 C1843 C 0.75741 0.28196 0.43521
 C1844 C 0.76396 0.26994 0.44125
 C1845 C 0.77450 0.26296 0.43345
 C1846 C 0.77864 0.26808 0.42012
 H1847 H 0.82600 0.29918 0.36555
 H1848 H 0.81671 0.28912 0.38757
 H1849 H 0.77449 0.29456 0.37187
 H1850 H 0.78383 0.30458 0.34987
 H1851 H 0.79758 0.27911 0.40140
 H1852 H 0.76949 0.29327 0.39496
 H1853 H 0.75647 0.29647 0.41757
 H1854 H 0.74922 0.28758 0.44087
 H1855 H 0.77966 0.25358 0.43768
 H1856 H 0.78666 0.26228 0.41441
 C1857 C 0.81092 0.79502 -0.13516
 C1858 C 0.80557 0.78894 -0.12269
 C1859 C 0.79103 0.78739 -0.12067
 C1860 C 0.78194 0.79178 -0.13159
 C1861 C 0.78731 0.79791 -0.14405
 C1862 C 0.80186 0.79964 -0.14595
 C1863 C 0.78592 0.78100 -0.10714
 C1864 C 0.77284 0.78271 -0.10207
 C1865 C 0.76813 0.77715 -0.08806
 C1866 C 0.75674 0.78378 -0.08132
 C1867 C 0.75228 0.77932 -0.06787
 C1868 C 0.75906 0.76799 -0.06086
 C1869 C 0.77016 0.76100 -0.06782
 C1870 C 0.77462 0.76549 -0.08128
 H1871 H 0.82218 0.79632 -0.13624
 H1872 H 0.81282 0.78559 -0.11452
 H1873 H 0.77071 0.79035 -0.13072
 H1874 H 0.78008 0.80110 -0.15231
 H1875 H 0.79358 0.77546 -0.10073
 H1876 H 0.76551 0.78932 -0.10784
 H1877 H 0.75145 0.79268 -0.08635
 H1878 H 0.74366 0.78492 -0.06289
 H1879 H 0.77554 0.75216 -0.06280
 H1880 H 0.78310 0.75973 -0.08631
 C1881 C 0.27871 0.45833 0.89585
 C1882 C 0.27363 0.46271 0.88265
 C1883 C 0.28290 0.46554 0.87137
 C1884 C 0.29741 0.46384 0.87357
 C1885 C 0.30249 0.45951 0.88678
 C1886 C 0.29319 0.45662 0.89803
 C1887 C 0.27703 0.46952 0.85736
 C1888 C 0.28444 0.47650 0.84737
 C1889 C 0.27886 0.48022 0.83318
 C1890 C 0.28560 0.49110 0.82544
 C1891 C 0.28111 0.49468 0.81182
 C1892 C 0.26978 0.48738 0.80554
 C1893 C 0.26304 0.47643 0.81325
 C1894 C 0.26755 0.47284 0.82692
 H1895 H 0.27132 0.45623 0.90436
 H1896 H 0.26241 0.46384 0.88122
 H1897 H 0.30490 0.46538 0.86505
 H1898 H 0.31367 0.45795 0.88806
 H1899 H 0.26609 0.46700 0.85550
 H1900 H 0.29494 0.48020 0.84978
 H1901 H 0.29441 0.49686 0.82995
 H1902 H 0.28661 0.50314 0.80619
 H1903 H 0.25438 0.47049 0.80867
 H1904 H 0.26235 0.46407 0.83233
 C1905 C 0.31428 -0.04338 0.38539
 C1906 C 0.30851 -0.03725 0.37322
 C1907 C 0.29393 -0.03588 0.37180
 C1908 C 0.28518 -0.04044 0.38302
 C1909 C 0.29096 -0.04656 0.39521
 C1910 C 0.30556 -0.04816 0.39650
 C1911 C 0.28836 -0.02942 0.35863
 C1912 C 0.27532 -0.03176 0.35378
 C1913 C 0.27030 -0.02584 0.34012
 C1914 C 0.25976 -0.03317 0.33268
 C1915 C 0.25525 -0.02825 0.31944
 C1916 C 0.26112 -0.01579 0.31343
 C1917 C 0.27130 -0.00817 0.32115
 C1918 C 0.27579 -0.01308 0.33437
 H1919 H 0.32555 -0.04461 0.38599
 H1920 H 0.31548 -0.03375 0.36478
 H1921 H 0.27392 -0.03912 0.38254
 H1922 H 0.28401 -0.04988 0.40373
 H1923 H 0.29567 -0.02325 0.35223
 H1924 H 0.26841 -0.03906 0.35938
 H1925 H 0.25525 -0.04294 0.33696
 H1926 H 0.24736 -0.03436 0.31381
 H1927 H 0.27592 0.00158 0.31695
 H1928 H 0.28352 -0.00682 0.34004
 C1929 C -0.02896 -0.04800 -0.14377
 C1930 C -0.02328 -0.04367 -0.13083
 C1931 C -0.03185 -0.03811 -0.12010
 C1932 C -0.04633 -0.03683 -0.12268
 C1933 C -0.05204 -0.04107 -0.13567
 C1934 C -0.04352 -0.04700 -0.14643
 C1935 C -0.02539 -0.03456 -0.10622
 C1936 C -0.03148 -0.02620 -0.09644
 C1937 C -0.02532 -0.02315 -0.08231
 C1938 C -0.03045 -0.01142 -0.07465
 C1939 C -0.02551 -0.00845 -0.06104
 C1940 C -0.01530 -0.01719 -0.05470
 C1941 C -0.01009 -0.02891 -0.06237
 C1942 C -0.01508 -0.03192 -0.07599
 H1943 H -0.02174 -0.05181 -0.15178
 H1944 H -0.01208 -0.04471 -0.12918
 H1945 H -0.05345 -0.03308 -0.11458
 H1946 H -0.06332 -0.04048 -0.13677
 H1947 H -0.01503 -0.03879 -0.10423
 H1948 H -0.04127 -0.02095 -0.09892
 H1949 H -0.03841 -0.00455 -0.07919
 H1950 H -0.02979 0.00066 -0.05546
 H1951 H -0.00236 -0.03597 -0.05773
 H1952 H -0.01115 -0.04134 -0.08129
 C1953 C -0.04499 0.43673 0.36459
 C1954 C -0.03900 0.44165 0.37718
 C1955 C -0.04063 0.45590 0.38147
 C1956 C -0.04813 0.46527 0.37264
 C1957 C -0.05423 0.46036 0.36008
 C1958 C -0.05288 0.44594 0.35580
 C1959 C -0.03413 0.46050 0.39503
 C1960 C -0.03783 0.47237 0.40210
 C1961 C -0.03166 0.47665 0.41592
 C1962 C -0.03898 0.48645 0.42441
 C1963 C -0.03370 0.49065 0.43759
 C1964 C -0.02092 0.48515 0.44258
 C1965 C -0.01344 0.47555 0.43397
 C1966 C -0.01867 0.47142 0.42076
 H1967 H -0.04391 0.42547 0.36222
 H1968 H -0.03325 0.43419 0.38375
 H1969 H -0.04914 0.47650 0.37515
 H1970 H -0.05950 0.46815 0.35350
 H1971 H -0.02654 0.45331 0.39964
 H1972 H -0.04627 0.47893 0.39812
 H1973 H -0.04893 0.49076 0.42091
 H1974 H -0.03974 0.49806 0.44394
 H1975 H -0.00347 0.47125 0.43741
 H1976 H -0.01239 0.46428 0.41438
 C1977 C 0.44252 -0.04090 0.36249
 C1978 C 0.44832 -0.03467 0.37463
 C1979 C 0.45360 -0.04322 0.38565
 C1980 C 0.45260 -0.05821 0.38442
 C1981 C 0.44681 -0.06443 0.37229
 C1982 C 0.44178 -0.05586 0.36114
 C1983 C 0.45959 -0.03618 0.39840
 C1984 C 0.46890 -0.04254 0.40700
 C1985 C 0.47484 -0.03580 0.41994
 C1986 C 0.48714 -0.04154 0.42577
 C1987 C 0.49278 -0.03602 0.43830
 C1988 C 0.48621 -0.02463 0.44537
 C1989 C 0.47392 -0.01881 0.43950
 C1990 C 0.46826 -0.02435 0.42697
 H1991 H 0.43882 -0.03401 0.35406
 H1992 H 0.44883 -0.02311 0.37536
 H1993 H 0.45601 -0.06519 0.39289
 H1994 H 0.44606 -0.07598 0.37173
 H1995 H 0.45663 -0.02519 0.40029
 H1996 H 0.47280 -0.05305 0.40427
 H1997 H 0.49236 -0.05043 0.42066
 H1998 H 0.50221 -0.04083 0.44253
 H1999 H 0.46848 -0.01015 0.44474
 H2000 H 0.45855 -0.01987 0.42312
 C2001 C 0.43964 0.45703 -0.13322
 C2002 C 0.44390 0.46169 -0.11985
 C2003 C 0.45820 0.46290 -0.11654
 C2004 C 0.46822 0.45962 -0.12704
 C2005 C 0.46394 0.45495 -0.14045
 C2006 C 0.44961 0.45358 -0.14366
 C2007 C 0.46212 0.46793 -0.10218
 C2008 C 0.47459 0.46536 -0.09612
 C2009 C 0.47799 0.46990 -0.08146
 C2010 C 0.48806 0.46221 -0.07378
 C2011 C 0.49121 0.46590 -0.05978
 C2012 C 0.48440 0.47745 -0.05318
 C2013 C 0.47462 0.48541 -0.06104
 C2014 C 0.47150 0.48173 -0.07503
 H2015 H 0.42852 0.45591 -0.13531
 H2016 H 0.43597 0.46421 -0.11199
 H2017 H 0.47933 0.46087 -0.12508
 H2018 H 0.47185 0.45261 -0.14838
 H2019 H 0.45401 0.47320 -0.09609
 H2020 H 0.48226 0.45889 -0.10161
 H2021 H 0.49332 0.45316 -0.07855
 H2022 H 0.49885 0.45957 -0.05407
 H2023 H 0.46933 0.49449 -0.05638
 H2024 H 0.46409 0.48828 -0.08077
 C2025 C 0.45503 0.80504 0.38263
 C2026 C 0.45965 0.80014 0.36946
 C2027 C 0.45991 0.78546 0.36643
 C2028 C 0.45550 0.77569 0.37697
 C2029 C 0.45084 0.78061 0.39018
 C2030 C 0.45064 0.79533 0.39317
 C2031 C 0.46539 0.78091 0.35242
 C2032 C 0.46298 0.76804 0.34661
 C2033 C 0.46846 0.76405 0.33242
 C2034 C 0.46123 0.75375 0.32441
 C2035 C 0.46589 0.75005 0.31082
 C2036 C 0.47797 0.75652 0.30500
 C2037 C 0.48543 0.76652 0.31320
 C2038 C 0.48078 0.77018 0.32677
 H2039 H 0.45480 0.81646 0.38455
 H2040 H 0.46302 0.80790 0.36158
 H2041 H 0.45591 0.76427 0.37524
 H2042 H 0.44771 0.77288 0.39818
 H2043 H 0.47114 0.78888 0.34637
 H2044 H 0.45614 0.76045 0.35191
 H2045 H 0.45180 0.74875 0.32858
 H2046 H 0.45991 0.74229 0.30481
 H2047 H 0.49487 0.77158 0.30914
 H2048 H 0.48697 0.77773 0.33282
 C2049 C -0.05289 0.77936 0.89023
 C2050 C -0.04730 0.77371 0.87774
 C2051 C -0.03986 0.78238 0.86815
 C2052 C -0.03801 0.79694 0.87145
 C2053 C -0.04351 0.80263 0.88401
 C2054 C -0.05126 0.79401 0.89360
 C2055 C -0.03496 0.77591 0.85461
 C2056 C -0.02564 0.78207 0.84575
 C2057 C -0.02147 0.77594 0.83181
 C2058 C -0.00947 0.78143 0.82500
 C2059 C -0.00560 0.77669 0.81148
 C2060 C -0.01368 0.76632 0.80441
 C2061 C -0.02559 0.76064 0.81129
 C2062 C -0.02950 0.76545 0.82477
 H2063 H -0.05814 0.77200 0.89738
 H2064 H -0.04885 0.76243 0.87555
 H2065 H -0.03276 0.80419 0.86421
 H2066 H -0.04230 0.81402 0.88565
 H2067 H -0.03915 0.76546 0.85207
 H2068 H -0.02056 0.79196 0.84880
 H2069 H -0.00313 0.78958 0.83009
 H2070 H 0.00362 0.78133 0.80650
 H2071 H -0.03217 0.75278 0.80608
 H2072 H -0.03907 0.76119 0.82932
 C2073 C 0.36514 0.80864 0.29279
 C2074 C 0.37738 0.80352 0.28647
 C2075 C 0.37930 0.78880 0.28433
 C2076 C 0.36855 0.77927 0.28855
 C2077 C 0.35630 0.78441 0.29494
 C2078 C 0.35446 0.79915 0.29708
 C2079 C 0.39251 0.78403 0.27748
 C2080 C 0.39737 0.77059 0.27812
 C2081 C 0.41111 0.76629 0.27210
 C2082 C 0.41786 0.75433 0.27787
 C2083 C 0.43111 0.75025 0.27301
 C2084 C 0.43789 0.75801 0.26214
 C2085 C 0.43091 0.76970 0.25600
 C2086 C 0.41764 0.77377 0.26087
 H2087 H 0.36407 0.82006 0.29443
 H2088 H 0.38544 0.81111 0.28331
 H2089 H 0.36935 0.76789 0.28673
 H2090 H 0.34812 0.77690 0.29794
 H2091 H 0.39888 0.79223 0.27247
 H2092 H 0.39169 0.76259 0.28417
 H2093 H 0.41301 0.74829 0.28642
 H2094 H 0.43612 0.74116 0.27798
 H2095 H 0.43576 0.77583 0.24752
 H2096 H 0.41256 0.78273 0.25576
 C2097 C -0.13327 0.81197 0.79236
 C2098 C -0.12091 0.80693 0.78620
 C2099 C -0.11861 0.79219 0.78464
 C2100 C -0.12911 0.78255 0.78920
 C2101 C -0.14151 0.78761 0.79539
 C2102 C -0.14372 0.80238 0.79701
 C2103 C -0.10530 0.78749 0.77792
 C2104 C -0.09987 0.77434 0.77942
 C2105 C -0.08608 0.77024 0.77335
 C2106 C -0.07841 0.75931 0.77992
 C2107 C -0.06508 0.75561 0.77495
 C2108 C -0.05915 0.76270 0.76316
 C2109 C -0.06707 0.77327 0.75624
 C2110 C -0.08040 0.77697 0.76123
 H2111 H -0.13458 0.82340 0.79363
 H2112 H -0.11304 0.81460 0.78275
 H2113 H -0.12797 0.77114 0.78781
 H2114 H -0.14948 0.77998 0.79865
 H2115 H -0.09934 0.79557 0.77224
 H2116 H -0.10509 0.76659 0.78617
 H2117 H -0.08260 0.75385 0.78917
 H2118 H -0.05932 0.74737 0.78052
 H2119 H -0.06292 0.77884 0.74704
 H2120 H -0.08620 0.78506 0.75552
 C2121 C 0.89469 0.28100 0.45037
 C2122 C 0.88231 0.27479 0.45553
 C2123 C 0.87102 0.28337 0.45980
 C2124 C 0.87237 0.29835 0.45878
 C2125 C 0.88474 0.30456 0.45358
 C2126 C 0.89599 0.29595 0.44922
 C2127 C 0.85780 0.27637 0.46448
 C2128 C 0.84850 0.28273 0.47308
 C2129 C 0.83488 0.27626 0.47730
 C2130 C 0.82813 0.28153 0.48942
 C2131 C 0.81482 0.27657 0.49328
 C2132 C 0.80783 0.26626 0.48500
 C2133 C 0.81468 0.26077 0.47296
 C2134 C 0.82805 0.26574 0.46911
 H2135 H 0.90323 0.27408 0.44721
 H2136 H 0.88152 0.26324 0.45615
 H2137 H 0.86375 0.30533 0.46149
 H2138 H 0.88530 0.31609 0.45253
 H2139 H 0.85595 0.26548 0.46103
 H2140 H 0.85106 0.29306 0.47759
 H2141 H 0.83310 0.28969 0.49586
 H2142 H 0.80989 0.28107 0.50261
 H2143 H 0.80956 0.25293 0.46628
 H2144 H 0.83272 0.26167 0.45947
 C2145 C 0.88941 0.77839 -0.05243
 C2146 C 0.87667 0.77262 -0.04763
 C2147 C 0.86574 0.78159 -0.04318
 C2148 C 0.86775 0.79652 -0.04384
 C2149 C 0.88047 0.80228 -0.04865
 C2150 C 0.89145 0.79329 -0.05300
 C2151 C 0.85225 0.77508 -0.03850
 C2152 C 0.84333 0.78167 -0.02964
 C2153 C 0.82954 0.77571 -0.02516
 C2154 C 0.82301 0.78158 -0.01317
 C2155 C 0.80960 0.77711 -0.00903
 C2156 C 0.80230 0.76668 -0.01686
 C2157 C 0.80892 0.76058 -0.02875
 C2158 C 0.82237 0.76508 -0.03289
 H2159 H 0.89769 0.77117 -0.05561
 H2160 H 0.87537 0.76110 -0.04734
 H2161 H 0.85943 0.80382 -0.04103
 H2162 H 0.88159 0.81380 -0.04929
 H2163 H 0.84995 0.76434 -0.04209
 H2164 H 0.84637 0.79184 -0.02507
 H2165 H 0.82823 0.78983 -0.00705
 H2166 H 0.80486 0.78207 0.00017
 H2167 H 0.80356 0.75263 -0.03510
 H2168 H 0.82684 0.76052 -0.04241
 C2169 C -0.14338 -0.02807 -0.04518
 C2170 C -0.13013 -0.02332 -0.04089
 C2171 C -0.12044 -0.03282 -0.03493
 C2172 C -0.12427 -0.04729 -0.03345
 C2173 C -0.13754 -0.05206 -0.03762
 C2174 C -0.14739 -0.04258 -0.04365
 C2175 C -0.10631 -0.02737 -0.03101
 C2176 C -0.09771 -0.03420 -0.02202
 C2177 C -0.08337 -0.02918 -0.01833
 C2178 C -0.07674 -0.03537 -0.00655
 C2179 C -0.06307 -0.03146 -0.00288
 C2180 C -0.05565 -0.02123 -0.01093
 C2181 C -0.06225 -0.01500 -0.02274
 C2182 C -0.07592 -0.01898 -0.02646
 H2183 H -0.15057 -0.02015 -0.04926
 H2184 H -0.12746 -0.01210 -0.04218
 H2185 H -0.11696 -0.05516 -0.02952
 H2186 H -0.13965 -0.06341 -0.03678
 H2187 H -0.10321 -0.01714 -0.03542
 H2188 H -0.10137 -0.04378 -0.01670
 H2189 H -0.08215 -0.04333 -0.00016
 H2190 H -0.05831 -0.03649 0.00628
 H2191 H -0.05677 -0.00723 -0.02928
 H2192 H -0.08039 -0.01424 -0.03588
 C2193 C -0.13906 0.44323 0.46582
 C2194 C -0.12618 0.44748 0.47145
 C2195 C -0.12101 0.46136 0.46925
 C2196 C -0.12907 0.47098 0.46121
 C2197 C -0.14198 0.46676 0.45555
 C2198 C -0.14725 0.45275 0.45764
 C2199 C -0.10690 0.46500 0.47484
 C2200 C -0.10199 0.47840 0.47622
 C2201 C -0.08745 0.48165 0.48071
 C2202 C -0.08109 0.49425 0.47571
 C2203 C -0.06718 0.49745 0.47913
 C2204 C -0.05938 0.48820 0.48783
 C2205 C -0.06591 0.47581 0.49325
 C2206 C -0.07981 0.47256 0.48974
 H2207 H -0.14210 0.43218 0.46736
 H2208 H -0.12010 0.43977 0.47742
 H2209 H -0.12543 0.48172 0.45895
 H2210 H -0.14790 0.47476 0.44985
 H2211 H -0.10020 0.45611 0.47767
 H2212 H -0.10847 0.48740 0.47331
 H2213 H -0.08680 0.50148 0.46885
 H2214 H -0.06253 0.50714 0.47485
 H2215 H -0.06022 0.46850 0.50005
 H2216 H -0.08453 0.46299 0.49419
 C2217 C 0.37170 -0.04479 0.44123
 C2218 C 0.38435 -0.03954 0.44657
 C2219 C 0.38806 -0.04177 0.46078
 C2220 C 0.37870 -0.04935 0.46962
 C2221 C 0.36604 -0.05471 0.46427
 C2222 C 0.36221 -0.05248 0.44995
 C2223 C 0.40158 -0.03568 0.46579
 C2224 C 0.40788 -0.03926 0.47802
 C2225 C 0.42170 -0.03331 0.48231
 C2226 C 0.43013 -0.04120 0.49166
 C2227 C 0.44348 -0.03624 0.49545
 C2228 C 0.44865 -0.02321 0.48999
 C2229 C 0.44001 -0.01507 0.48104
 C2230 C 0.42666 -0.01999 0.47733
 H2231 H 0.36978 -0.04322 0.43003
 H2232 H 0.39136 -0.03380 0.43947
 H2233 H 0.38088 -0.05095 0.48076
 H2234 H 0.35902 -0.06001 0.47166
 H2235 H 0.40688 -0.02838 0.45861
 H2236 H 0.40334 -0.04745 0.48475
 H2237 H 0.42651 -0.05140 0.49579
 H2238 H 0.44985 -0.04278 0.50238
 H2239 H 0.44358 -0.00489 0.47683
 H2240 H 0.42028 -0.01327 0.47060
 C2241 C 0.35226 0.46957 -0.04830
 C2242 C 0.36520 0.47447 -0.04329
 C2243 C 0.37437 0.46525 -0.03616
 C2244 C 0.37029 0.45090 -0.03419
 C2245 C 0.35732 0.44598 -0.03910
 C2246 C 0.34803 0.45517 -0.04637
 C2247 C 0.38827 0.47083 -0.03163
 C2248 C 0.39640 0.46438 -0.02193
 C2249 C 0.41061 0.46949 -0.01784
 C2250 C 0.41666 0.46397 -0.00543
 C2251 C 0.43026 0.46789 -0.00145
 C2252 C 0.43816 0.47746 -0.00982
 C2253 C 0.43210 0.48308 -0.02221
 C2254 C 0.41852 0.47909 -0.02623
 H2255 H 0.34546 0.47731 -0.05330
 H2256 H 0.36805 0.48559 -0.04496
 H2257 H 0.37723 0.44322 -0.02930
 H2258 H 0.35507 0.43470 -0.03784
 H2259 H 0.39166 0.48085 -0.03630
 H2260 H 0.39245 0.45504 -0.01638
 H2261 H 0.41088 0.45648 0.00119
 H2262 H 0.43459 0.46334 0.00816
 H2263 H 0.43795 0.49034 -0.02900
 H2264 H 0.41452 0.48329 -0.03611
 C2265 C 0.39657 0.47113 0.79639
 C2266 C 0.38404 0.47679 0.79119
 C2267 C 0.37333 0.46773 0.78626
 C2268 C 0.37543 0.45282 0.78665
 C2269 C 0.38798 0.44718 0.79180
 C2270 C 0.39864 0.45626 0.79683
 C2271 C 0.35990 0.47421 0.78162
 C2272 C 0.35048 0.46742 0.77346
 C2273 C 0.33674 0.47360 0.76940
 C2274 C 0.32961 0.46772 0.75778
 C2275 C 0.31636 0.47272 0.75393
 C2276 C 0.30987 0.48370 0.76170
 C2277 C 0.31701 0.48962 0.77335
 C2278 C 0.33026 0.48459 0.77721
 H2279 H 0.40464 0.47839 0.80012
 H2280 H 0.38268 0.48829 0.79110
 H2281 H 0.36730 0.44541 0.78344
 H2282 H 0.38917 0.43567 0.79229
 H2283 H 0.35797 0.48514 0.78483
 H2284 H 0.35298 0.45701 0.76917
 H2285 H 0.33428 0.45916 0.75166
 H2286 H 0.31115 0.46787 0.74493
 H2287 H 0.31226 0.49796 0.77968
 H2288 H 0.33514 0.48910 0.78653
 C2289 C 0.37615 -0.06829 0.30027
 C2290 C 0.36378 -0.06295 0.29437
 C2291 C 0.36167 -0.04815 0.29301
 C2292 C 0.37241 -0.03877 0.29742
 C2293 C 0.38478 -0.04412 0.30335
 C2294 C 0.38678 -0.05894 0.30490
 C2295 C 0.34829 -0.04304 0.28670
 C2296 C 0.34317 -0.02981 0.28863
 C2297 C 0.32949 -0.02492 0.28287
 C2298 C 0.32284 -0.01324 0.28933
 C2299 C 0.30986 -0.00838 0.28446
 C2300 C 0.30322 -0.01502 0.27289
 C2301 C 0.31002 -0.02652 0.26619
 C2302 C 0.32302 -0.03139 0.27107
 H2303 H 0.37731 -0.07976 0.30143
 H2304 H 0.35575 -0.07044 0.29099
 H2305 H 0.37147 -0.02732 0.29611
 H2306 H 0.39289 -0.03665 0.30654
 H2307 H 0.34211 -0.05083 0.28095
 H2308 H 0.34873 -0.02242 0.29544
 H2309 H 0.32763 -0.00797 0.29834
 H2310 H 0.30498 0.00051 0.28989
 H2311 H 0.30527 -0.03184 0.25719
 H2312 H 0.32797 -0.04011 0.26547
 C2313 C 0.10863 0.53194 0.70024
 C2314 C 0.12109 0.52602 0.70536
 C2315 C 0.13227 0.53485 0.70958
 C2316 C 0.13081 0.54979 0.70836
 C2317 C 0.11836 0.55571 0.70325
 C2318 C 0.10713 0.54686 0.69914
 C2319 C 0.14548 0.52813 0.71449
 C2320 C 0.15488 0.53488 0.72272
 C2321 C 0.16851 0.52863 0.72706
 C2322 C 0.17572 0.53481 0.73850
 C2323 C 0.18900 0.52992 0.74240
 C2324 C 0.19546 0.51875 0.73488
 C2325 C 0.18817 0.51242 0.72353
 C2326 C 0.17489 0.51733 0.71961
 H2327 H 0.10013 0.52485 0.69724
 H2328 H 0.12198 0.51449 0.70607
 H2329 H 0.13935 0.55698 0.71095
 H2330 H 0.11765 0.56722 0.70220
 H2331 H 0.14722 0.51711 0.71149
 H2332 H 0.15246 0.54541 0.72678
 H2333 H 0.17111 0.54358 0.74435
 H2334 H 0.19430 0.53508 0.75117
 H2335 H 0.19287 0.50389 0.71741
 H2336 H 0.16995 0.51253 0.71047
 C2337 C 0.10254 0.02900 0.20591
 C2338 C 0.11511 0.02333 0.21102
 C2339 C 0.12612 0.03239 0.21523
 C2340 C 0.12437 0.04729 0.21401
 C2341 C 0.11182 0.05295 0.20890
 C2342 C 0.10076 0.04388 0.20480
 C2343 C 0.13946 0.02599 0.22015
 C2344 C 0.14849 0.03288 0.22866
 C2345 C 0.16223 0.02700 0.23313
 C2346 C 0.16885 0.03298 0.24500
 C2347 C 0.18219 0.02845 0.24910
 C2348 C 0.18929 0.01786 0.24133
 C2349 C 0.18259 0.01175 0.22951
 C2350 C 0.16924 0.01630 0.22541
 H2351 H 0.09418 0.02174 0.20291
 H2352 H 0.11623 0.01181 0.21174
 H2353 H 0.13278 0.05464 0.21660
 H2354 H 0.11090 0.06445 0.20782
 H2355 H 0.14160 0.01509 0.21698
 H2356 H 0.14564 0.04323 0.23290
 H2357 H 0.16375 0.04131 0.25107
 H2358 H 0.18702 0.03342 0.25825
 H2359 H 0.18779 0.00367 0.22320
 H2360 H 0.16471 0.01170 0.21595
 C2361 C 0.63129 0.70505 0.18762
 C2362 C 0.61846 0.71069 0.19204
 C2363 C 0.61585 0.71338 0.20645
 C2364 C 0.62651 0.71052 0.21637
 C2365 C 0.63937 0.70485 0.21193
 C2366 C 0.64190 0.70206 0.19750
 C2367 C 0.60199 0.71934 0.21053
 C2368 C 0.59649 0.71827 0.22362
 C2369 C 0.58216 0.72327 0.22729
 C2370 C 0.57517 0.71681 0.23877
 C2371 C 0.56146 0.72074 0.24228
 C2372 C 0.55445 0.73137 0.23447
 C2373 C 0.56163 0.73820 0.22327
 C2374 C 0.57534 0.73423 0.21973
 H2375 H 0.63285 0.70287 0.17645
 H2376 H 0.61047 0.71283 0.18416
 H2377 H 0.62513 0.71285 0.22751
 H2378 H 0.64745 0.70290 0.21976
 H2379 H 0.59573 0.72392 0.20211
 H2380 H 0.60215 0.71254 0.23177
 H2381 H 0.58021 0.70845 0.24487
 H2382 H 0.55632 0.71530 0.25104
 H2383 H 0.55660 0.74651 0.21711
 H2384 H 0.58055 0.73982 0.21113
 C2385 C 0.14391 0.70718 0.71632
 C2386 C 0.13108 0.71223 0.72145
 C2387 C 0.12002 0.71528 0.71213
 C2388 C 0.12211 0.71322 0.69747
 C2389 C 0.13496 0.70819 0.69234
 C2390 C 0.14595 0.70498 0.70172
 C2391 C 0.10633 0.71974 0.71819
 C2392 C 0.09633 0.72643 0.71073
 C2393 C 0.08244 0.73032 0.71673
 C2394 C 0.07471 0.74121 0.71014
 C2395 C 0.06138 0.74488 0.71512
 C2396 C 0.05539 0.73765 0.72678
 C2397 C 0.06310 0.72669 0.73335
 C2398 C 0.07644 0.72303 0.72836
 H2399 H 0.15222 0.70492 0.72380
 H2400 H 0.12976 0.71365 0.73278
 H2401 H 0.11376 0.71498 0.68993
 H2402 H 0.13614 0.70634 0.68106
 H2403 H 0.10467 0.71771 0.72938
 H2404 H 0.09844 0.72968 0.69990
 H2405 H 0.07901 0.74690 0.70107
 H2406 H 0.05573 0.75331 0.70973
 H2407 H 0.05876 0.72077 0.74224
 H2408 H 0.08182 0.71424 0.73345
 C2409 C 0.61295 0.18987 0.53586
 C2410 C 0.62609 0.19395 0.53061
 C2411 C 0.62945 0.20845 0.52865
 C2412 C 0.61921 0.21883 0.53171
 C2413 C 0.60604 0.21474 0.53696
 C2414 C 0.60279 0.20022 0.53914
 C2415 C 0.64363 0.21222 0.52327
 C2416 C 0.64981 0.22489 0.52569
 C2417 C 0.66436 0.22835 0.52118
 C2418 C 0.67168 0.23904 0.52854
 C2419 C 0.68545 0.24258 0.52481
 C2420 C 0.69221 0.23559 0.51351
 C2421 C 0.68480 0.22504 0.50596
 C2422 C 0.67100 0.22147 0.50972
 H2423 H 0.61082 0.17861 0.53758
 H2424 H 0.63374 0.18574 0.52829
 H2425 H 0.62121 0.23009 0.52987
 H2426 H 0.59832 0.22293 0.53914
 H2427 H 0.64948 0.20385 0.51803
 H2428 H 0.64446 0.23277 0.53211
 H2429 H 0.66678 0.24457 0.53733
 H2430 H 0.69079 0.25081 0.53083
 H2431 H 0.68964 0.21952 0.49713
 H2432 H 0.66556 0.21350 0.50349
 C2433 C 0.60057 0.70145 0.02828
 C2434 C 0.61298 0.70681 0.02231
 C2435 C 0.62377 0.71207 0.03098
 C2436 C 0.62189 0.71184 0.04581
 C2437 C 0.60947 0.70650 0.05177
 C2438 C 0.59872 0.70114 0.04307
 C2439 C 0.63706 0.71695 0.02422
 C2440 C 0.64619 0.72584 0.03052
 C2441 C 0.65980 0.73028 0.02415
 C2442 C 0.66651 0.74249 0.02954
 C2443 C 0.67970 0.74668 0.02451
 C2444 C 0.68657 0.73869 0.01396
 C2445 C 0.67981 0.72651 0.00844
 C2446 C 0.66660 0.72231 0.01351
 H2447 H 0.59242 0.69749 0.02130
 H2448 H 0.61417 0.70678 0.01088
 H2449 H 0.63012 0.71531 0.05291
 H2450 H 0.60847 0.70612 0.06321
 H2451 H 0.63907 0.71335 0.01350
 H2452 H 0.64352 0.73047 0.04068
 H2453 H 0.66157 0.74877 0.03781
 H2454 H 0.68458 0.75609 0.02905
 H2455 H 0.68488 0.72000 0.00045
 H2456 H 0.66202 0.71258 0.00936
 C2457 C 0.14381 0.04942 0.03501
 C2458 C 0.13170 0.04395 0.02864
 C2459 C 0.12151 0.03671 0.03667
 C2460 C 0.12365 0.03514 0.05134
 C2461 C 0.13576 0.04057 0.05776
 C2462 C 0.14612 0.04792 0.04976
 C2463 C 0.10852 0.03166 0.02954
 C2464 C 0.10025 0.02122 0.03477
 C2465 C 0.08679 0.01661 0.02825
 C2466 C 0.08083 0.00355 0.03263
 C2467 C 0.06767 -0.00078 0.02768
 C2468 C 0.06008 0.00789 0.01824
 C2469 C 0.06616 0.02083 0.01359
 C2470 C 0.07932 0.02519 0.01858
 H2471 H 0.15152 0.05441 0.02813
 H2472 H 0.13033 0.04533 0.01730
 H2473 H 0.11579 0.03016 0.05806
 H2474 H 0.13648 0.03959 0.06917
 H2475 H 0.10599 0.03654 0.01946
 H2476 H 0.10353 0.01550 0.04419
 H2477 H 0.08629 -0.00325 0.04011
 H2478 H 0.06333 -0.01080 0.03152
 H2479 H 0.06055 0.02786 0.00644
 H2480 H 0.08328 0.03550 0.01519
 C2481 C 0.14705 0.52347 0.54090
 C2482 C 0.13466 0.51735 0.53575
 C2483 C 0.12369 0.52602 0.53090
 C2484 C 0.12534 0.54100 0.53133
 C2485 C 0.13771 0.54710 0.53648
 C2486 C 0.14866 0.53842 0.54141
 C2487 C 0.11035 0.51921 0.52640
 C2488 C 0.10129 0.52559 0.51759
 C2489 C 0.08723 0.51976 0.51408
 C2490 C 0.08019 0.52543 0.50230
 C2491 C 0.06641 0.52136 0.49932
 C2492 C 0.05927 0.51155 0.50812
 C2493 C 0.06642 0.50557 0.51972
 C2494 C 0.08023 0.50967 0.52272
 H2495 H 0.15535 0.51651 0.54455
 H2496 H 0.13361 0.50580 0.53564
 H2497 H 0.11694 0.54808 0.52821
 H2498 H 0.13849 0.55865 0.53706
 H2499 H 0.10813 0.50857 0.53039
 H2500 H 0.10424 0.53561 0.51259
 H2501 H 0.08529 0.53327 0.49551
 H2502 H 0.06125 0.52617 0.49028
 H2503 H 0.06120 0.49808 0.52679
 H2504 H 0.08510 0.50532 0.53213
 C2505 C 0.63586 0.04414 0.56135
 C2506 C 0.62381 0.03782 0.55573
 C2507 C 0.62234 0.03599 0.54103
 C2508 C 0.63330 0.04060 0.53202
 C2509 C 0.64540 0.04694 0.53768
 C2510 C 0.64685 0.04870 0.55242
 C2511 C 0.60942 0.02885 0.53577
 C2512 C 0.60473 0.02971 0.52238
 C2513 C 0.59128 0.02308 0.51788
 C2514 C 0.58367 0.02937 0.50679
 C2515 C 0.57048 0.02399 0.50297
 C2516 C 0.56468 0.01209 0.51010
 C2517 C 0.57265 0.00537 0.52072
 C2518 C 0.58581 0.01075 0.52453
 H2519 H 0.63655 0.04554 0.57273
 H2520 H 0.61557 0.03438 0.56292
 H2521 H 0.63277 0.03905 0.52067
 H2522 H 0.65378 0.05016 0.53055
 H2523 H 0.60309 0.02329 0.54360
 H2524 H 0.61023 0.03633 0.51472
 H2525 H 0.58773 0.03876 0.50137
 H2526 H 0.56468 0.02941 0.49470
 H2527 H 0.56861 -0.00392 0.52631
 H2528 H 0.59162 0.00525 0.53272
 C2529 C 0.62496 0.56401 0.04921
 C2530 C 0.61259 0.55846 0.04342
 C2531 C 0.61042 0.54362 0.04253
 C2532 C 0.62112 0.53440 0.04721
 C2533 C 0.63348 0.53996 0.05301
 C2534 C 0.63551 0.55482 0.05417
 C2535 C 0.59703 0.53825 0.03644
 C2536 C 0.59178 0.52513 0.03901
 C2537 C 0.57811 0.52000 0.03336
 C2538 C 0.57116 0.50874 0.04038
 C2539 C 0.55817 0.50373 0.03557
 C2540 C 0.55185 0.50980 0.02352
 C2541 C 0.55898 0.52086 0.01629
 C2542 C 0.57197 0.52586 0.02109
 H2543 H 0.62615 0.57551 0.05006
 H2544 H 0.60459 0.56581 0.03981
 H2545 H 0.62012 0.52292 0.04624
 H2546 H 0.64155 0.53261 0.05645
 H2547 H 0.59095 0.54578 0.03029
 H2548 H 0.59722 0.51806 0.04623
 H2549 H 0.57571 0.50393 0.04977
 H2550 H 0.55301 0.49519 0.04141
 H2551 H 0.55451 0.52571 0.00689
 H2552 H 0.57718 0.53419 0.01506
 C2553 C 0.03776 0.05323 0.14031
 C2554 C 0.03236 0.04761 0.12773
 C2555 C 0.03406 0.03313 0.12435
 C2556 C 0.04101 0.02423 0.13406
 C2557 C 0.04649 0.02982 0.14665
 C2558 C 0.04509 0.04449 0.15003
 C2559 C 0.02823 0.02784 0.11073
 C2560 C 0.03230 0.01571 0.10433
 C2561 C 0.02694 0.01119 0.09025
 C2562 C 0.03523 0.00221 0.08177
 C2563 C 0.03089 -0.00162 0.06812
 C2564 C 0.01810 0.00343 0.06268
 C2565 C 0.00954 0.01192 0.07141
 C2566 C 0.01384 0.01568 0.08505
 H2567 H 0.03670 0.06462 0.14192
 H2568 H 0.02703 0.05473 0.12045
 H2569 H 0.04206 0.01287 0.13218
 H2570 H 0.05133 0.02238 0.15393
 H2571 H 0.02090 0.03481 0.10538
 H2572 H 0.04056 0.00934 0.10896
 H2573 H 0.04528 -0.00155 0.08557
 H2574 H 0.03773 -0.00820 0.06169
 H2575 H -0.00049 0.01580 0.06765
 H2576 H 0.00685 0.02209 0.09145
 C2577 C 0.03561 0.54765 0.64350
 C2578 C 0.02951 0.54262 0.63098
 C2579 C 0.03790 0.53804 0.61962
 C2580 C 0.05261 0.53869 0.62101
 C2581 C 0.05870 0.54372 0.63354
 C2582 C 0.05028 0.54831 0.64490
 C2583 C 0.03097 0.53342 0.60629
 C2584 C 0.03717 0.52509 0.59655
 C2585 C 0.03053 0.52100 0.58290
 C2586 C 0.03580 0.50913 0.57554
 C2587 C 0.03040 0.50532 0.56230
 C2588 C 0.01962 0.51338 0.55602
 C2589 C 0.01428 0.52523 0.56343
 C2590 C 0.01969 0.52904 0.57668
 H2591 H 0.02884 0.55100 0.65211
 H2592 H 0.01817 0.54232 0.63017
 H2593 H 0.05948 0.53577 0.61236
 H2594 H 0.07003 0.54439 0.63417
 H2595 H 0.02021 0.53672 0.60476
 H2596 H 0.04743 0.52069 0.59871
 H2597 H 0.04422 0.50282 0.58002
 H2598 H 0.03482 0.49617 0.55690
 H2599 H 0.00608 0.53177 0.55887
 H2600 H 0.01562 0.53853 0.58174
 C2601 C 0.54137 0.05419 0.64100
 C2602 C 0.53528 0.04856 0.62873
 C2603 C 0.54336 0.04107 0.61880
 C2604 C 0.55778 0.03939 0.62138
 C2605 C 0.56390 0.04494 0.63368
 C2606 C 0.55585 0.05256 0.64375
 C2607 C 0.53648 0.03585 0.60564
 C2608 C 0.54192 0.02571 0.59720
 C2609 C 0.53544 0.02090 0.58368
 C2610 C 0.54027 0.00817 0.57750
 C2611 C 0.53510 0.00357 0.56441
 C2612 C 0.52496 0.01162 0.55713
 C2613 C 0.52000 0.02429 0.56337
 C2614 C 0.52522 0.02893 0.57644
 H2615 H 0.53447 0.05940 0.64849
 H2616 H 0.52413 0.05002 0.62704
 H2617 H 0.56457 0.03422 0.61376
 H2618 H 0.57514 0.04385 0.63476
 H2619 H 0.52636 0.04037 0.60314
 H2620 H 0.55144 0.02034 0.60039
 H2621 H 0.54819 0.00181 0.58276
 H2622 H 0.53919 -0.00623 0.55992
 H2623 H 0.51232 0.03084 0.55799
 H2624 H 0.52147 0.03901 0.58052
 C2625 C 0.55445 0.53169 0.14303
 C2626 C 0.55009 0.52631 0.12996
 C2627 C 0.53576 0.52520 0.12672
 C2628 C 0.52583 0.52930 0.13702
 C2629 C 0.53021 0.53470 0.15011
 C2630 C 0.54457 0.53599 0.15324
 C2631 C 0.53172 0.51952 0.11263
 C2632 C 0.51932 0.52211 0.10645
 C2633 C 0.51572 0.51704 0.09201
 C2634 C 0.50548 0.52445 0.08428
 C2635 C 0.50199 0.52024 0.07052
 C2636 C 0.50860 0.50842 0.06419
 C2637 C 0.51862 0.50079 0.07206
 C2638 C 0.52210 0.50500 0.08583
 H2639 H 0.56559 0.53271 0.14506
 H2640 H 0.55795 0.52317 0.12226
 H2641 H 0.51469 0.52816 0.13514
 H2642 H 0.52236 0.53769 0.15788
 H2643 H 0.53970 0.51376 0.10681
 H2644 H 0.51182 0.52899 0.11167
 H2645 H 0.50031 0.53367 0.08883
 H2646 H 0.49419 0.52634 0.06479
 H2647 H 0.52381 0.49155 0.06759
 H2648 H 0.52966 0.49868 0.09161
 C2649 C 0.19009 0.53794 0.61108
 C2650 C 0.19471 0.53271 0.62414
 C2651 C 0.20910 0.53177 0.62713
 C2652 C 0.21882 0.53600 0.61661
 C2653 C 0.21418 0.54130 0.60355
 C2654 C 0.19977 0.54231 0.60065
 C2655 C 0.21337 0.52616 0.64122
 C2656 C 0.22610 0.52826 0.64691
 C2657 C 0.22998 0.52343 0.66139
 C2658 C 0.24120 0.53030 0.66820
 C2659 C 0.24503 0.52645 0.68197
 C2660 C 0.23778 0.51553 0.68927
 C2661 C 0.22677 0.50837 0.68232
 C2662 C 0.22294 0.51222 0.66851
 H2663 H 0.17891 0.53872 0.60920
 H2664 H 0.18698 0.52950 0.63199
 H2665 H 0.23000 0.53504 0.61824
 H2666 H 0.22187 0.54437 0.59560
 H2667 H 0.20532 0.52085 0.64745
 H2668 H 0.23380 0.53462 0.64123
 H2669 H 0.24690 0.53887 0.66294
 H2670 H 0.25361 0.53217 0.68694
 H2671 H 0.22105 0.49981 0.68756
 H2672 H 0.21456 0.50629 0.66347
 C2673 C 0.18761 0.04112 0.11814
 C2674 C 0.19226 0.03556 0.13107
 C2675 C 0.20630 0.03703 0.13525
 C2676 C 0.21570 0.04406 0.12601
 C2677 C 0.21105 0.04973 0.11309
 C2678 C 0.19689 0.04840 0.10884
 C2679 C 0.21057 0.03088 0.14917
 C2680 C 0.22254 0.03423 0.15593
 C2681 C 0.22635 0.02857 0.17018
 C2682 C 0.23645 0.03599 0.17814
 C2683 C 0.24015 0.03134 0.19173
 C2684 C 0.23388 0.01906 0.19770
 C2685 C 0.22402 0.01139 0.18960
 C2686 C 0.22035 0.01603 0.17597
 H2687 H 0.17653 0.04017 0.11588
 H2688 H 0.18474 0.03023 0.13795
 H2689 H 0.22673 0.04501 0.12848
 H2690 H 0.21885 0.05459 0.10622
 H2691 H 0.20306 0.02386 0.15432
 H2692 H 0.22956 0.04210 0.15135
 H2693 H 0.24135 0.04559 0.17392
 H2694 H 0.24779 0.03752 0.19762
 H2695 H 0.21909 0.00181 0.19379
 H2696 H 0.21291 0.00966 0.17006
 C2697 C 0.70743 0.22371 0.64636
 C2698 C 0.71152 0.22849 0.63290
 C2699 C 0.71449 0.21870 0.62204
 C2700 C 0.71320 0.20395 0.62492
 C2701 C 0.70916 0.19918 0.63839
 C2702 C 0.70617 0.20901 0.64922
 C2703 C 0.71820 0.22429 0.60777
 C2704 C 0.72488 0.21656 0.59788
 C2705 C 0.72834 0.22207 0.58352
 C2706 C 0.73915 0.21547 0.57584
 C2707 C 0.74262 0.22014 0.56218
 C2708 C 0.73527 0.23148 0.55583
 C2709 C 0.72431 0.23797 0.56344
 C2710 C 0.72083 0.23329 0.57711
 H2711 H 0.70525 0.23152 0.65454
 H2712 H 0.71234 0.23990 0.63096
 H2713 H 0.71488 0.19603 0.61676
 H2714 H 0.70796 0.18779 0.64021
 H2715 H 0.71572 0.23537 0.60561
 H2716 H 0.72856 0.20594 0.60048
 H2717 H 0.74499 0.20671 0.58046
 H2718 H 0.75107 0.21483 0.55662
 H2719 H 0.71831 0.24661 0.55881
 H2720 H 0.71210 0.23832 0.58245
 C2721 C 0.70432 0.68980 0.13384
 C2722 C 0.70990 0.69447 0.12090
 C2723 C 0.71052 0.70911 0.11760
 C2724 C 0.70575 0.71906 0.12772
 C2725 C 0.70013 0.71437 0.14065
 C2726 C 0.69931 0.69969 0.14381
 C2727 C 0.71639 0.71348 0.10363
 C2728 C 0.71374 0.72613 0.09745
 C2729 C 0.71898 0.73016 0.08314
 C2730 C 0.71194 0.74094 0.07564
 C2731 C 0.71632 0.74494 0.06204
 C2732 C 0.72793 0.73830 0.05563
 C2733 C 0.73518 0.72771 0.06325
 C2734 C 0.73081 0.72374 0.07688
 H2735 H 0.70371 0.67841 0.13594
 H2736 H 0.71357 0.68658 0.11336
 H2737 H 0.70651 0.73045 0.12585
 H2738 H 0.69660 0.72223 0.14827
 H2739 H 0.72238 0.70554 0.09793
 H2740 H 0.70670 0.73357 0.10258
 H2741 H 0.70288 0.74616 0.08025
 H2742 H 0.71049 0.75315 0.05650
 H2743 H 0.74425 0.72248 0.05870
 H2744 H 0.73685 0.71575 0.08247
 C2745 C 0.52813 0.70043 0.10040
 C2746 C 0.52203 0.70555 0.11288
 C2747 C 0.53040 0.71077 0.12397
 C2748 C 0.54510 0.71077 0.12228
 C2749 C 0.55120 0.70568 0.10977
 C2750 C 0.54280 0.70034 0.09875
 C2751 C 0.52349 0.71520 0.13739
 C2752 C 0.52958 0.72372 0.14705
 C2753 C 0.52312 0.72736 0.16093
 C2754 C 0.52841 0.73916 0.16843
 C2755 C 0.52335 0.74243 0.18196
 C2756 C 0.51290 0.73391 0.18839
 C2757 C 0.50745 0.72221 0.18080
 C2758 C 0.51253 0.71891 0.16727
 H2759 H 0.52138 0.69650 0.09204
 H2760 H 0.51070 0.70534 0.11393
 H2761 H 0.55199 0.71422 0.13071
 H2762 H 0.56254 0.70546 0.10892
 H2763 H 0.51285 0.71147 0.13912
 H2764 H 0.53969 0.72851 0.14471
 H2765 H 0.53663 0.74578 0.16386
 H2766 H 0.52783 0.75151 0.18748
 H2767 H 0.49950 0.71532 0.18547
 H2768 H 0.50844 0.70947 0.16210
 C2769 C 0.06201 0.70987 0.61150
 C2770 C 0.05697 0.71569 0.62416
 C2771 C 0.04251 0.71728 0.62646
 C2772 C 0.03315 0.71331 0.61562
 C2773 C 0.03819 0.70750 0.60294
 C2774 C 0.05267 0.70561 0.60078
 C2775 C 0.03768 0.72328 0.64018
 C2776 C 0.02488 0.72082 0.64569
 C2777 C 0.02047 0.72614 0.65983
 C2778 C 0.00990 0.71874 0.66724
 C2779 C 0.00574 0.72314 0.68078
 C2780 C 0.01201 0.73516 0.68717
 C2781 C 0.02231 0.74282 0.67955
 C2782 C 0.02646 0.73841 0.66602
 H2783 H 0.07321 0.70842 0.61023
 H2784 H 0.06441 0.71875 0.63229
 H2785 H 0.02196 0.71484 0.61676
 H2786 H 0.03076 0.70460 0.59475
 H2787 H 0.04536 0.72911 0.64636
 H2788 H 0.01765 0.71383 0.64018
 H2789 H 0.00501 0.70934 0.66266
 H2790 H -0.00225 0.71699 0.68631
 H2791 H 0.02727 0.75221 0.68406
 H2792 H 0.03428 0.74472 0.66045
 C2793 C 0.53931 0.59524 0.22300
 C2794 C 0.53476 0.60855 0.22790
 C2795 C 0.53200 0.61973 0.21835
 C2796 C 0.53392 0.61732 0.20372
 C2797 C 0.53843 0.60401 0.19883
 C2798 C 0.54127 0.59287 0.20841
 C2799 C 0.52790 0.63389 0.22405
 C2800 C 0.52111 0.64376 0.21637
 C2801 C 0.51741 0.65815 0.22175
 C2802 C 0.50678 0.66576 0.21484
 C2803 C 0.50329 0.67958 0.21912
 C2804 C 0.51045 0.68620 0.23038
 C2805 C 0.52113 0.67860 0.23732
 C2806 C 0.52462 0.66474 0.23303
 H2807 H 0.54135 0.58682 0.23062
 H2808 H 0.53346 0.61014 0.23921
 H2809 H 0.53242 0.62576 0.19602
 H2810 H 0.54017 0.60259 0.18756
 H2811 H 0.53023 0.63597 0.23509
 H2812 H 0.51761 0.64112 0.20577
 H2813 H 0.50114 0.66100 0.20605
 H2814 H 0.49503 0.68511 0.21348
 H2815 H 0.52695 0.68342 0.24594
 H2816 H 0.53319 0.65943 0.23835
 C2817 C 0.05278 0.60635 0.71561
 C2818 C 0.04788 0.61916 0.72140
 C2819 C 0.04336 0.63033 0.71257
 C2820 C 0.04411 0.62853 0.69776
 C2821 C 0.04901 0.61573 0.69197
 C2822 C 0.05338 0.60449 0.70082
 C2823 C 0.03846 0.64385 0.71911
 C2824 C 0.02965 0.65288 0.71258
 C2825 C 0.02479 0.66658 0.71878
 C2826 C 0.01267 0.67289 0.71319
 C2827 C 0.00801 0.68611 0.71815
 C2828 C 0.01544 0.69343 0.72880
 C2829 C 0.02757 0.68709 0.73446
 C2830 C 0.03223 0.67383 0.72949
 H2831 H 0.05600 0.59785 0.72270
 H2832 H 0.04752 0.62032 0.73283
 H2833 H 0.04125 0.63706 0.69057
 H2834 H 0.04967 0.61475 0.68054
 H2835 H 0.04178 0.64603 0.72986
 H2836 H 0.02532 0.64994 0.70238
 H2837 H 0.00680 0.66760 0.70487
 H2838 H -0.00133 0.69067 0.71348
 H2839 H 0.03364 0.69250 0.74255
 H2840 H 0.04185 0.66957 0.73379
 C2841 C 0.05287 0.13936 0.03120
 C2842 C 0.04842 0.12600 0.02627
 C2843 C 0.04102 0.11658 0.03516
 C2844 C 0.03824 0.12074 0.04919
 C2845 C 0.04270 0.13407 0.05417
 C2846 C 0.05020 0.14370 0.04531
 C2847 C 0.03707 0.10228 0.02964
 C2848 C 0.02632 0.09449 0.03479
 C2849 C 0.02261 0.07991 0.02971
 C2850 C 0.01380 0.07134 0.03820
 C2851 C 0.01025 0.05742 0.03407
 C2852 C 0.01545 0.05176 0.02130
 C2853 C 0.02402 0.06043 0.01265
 C2854 C 0.02749 0.07436 0.01673
 H2855 H 0.05802 0.14637 0.02364
 H2856 H 0.05068 0.12306 0.01540
 H2857 H 0.03307 0.11355 0.05657
 H2858 H 0.04087 0.13634 0.06526
 H2859 H 0.04337 0.09824 0.02100
 H2860 H 0.02002 0.09877 0.04334
 H2861 H 0.00978 0.07535 0.04819
 H2862 H 0.00361 0.05105 0.04099
 H2863 H 0.02804 0.05648 0.00264
 H2864 H 0.03388 0.08066 0.00956
 C2865 C 0.03373 0.64673 0.54569
 C2866 C 0.02746 0.63411 0.54080
 C2867 C 0.03573 0.62250 0.53649
 C2868 C 0.05043 0.62368 0.53739
 C2869 C 0.05668 0.63627 0.54227
 C2870 C 0.04842 0.64794 0.54647
 C2871 C 0.02870 0.60912 0.53183
 C2872 C 0.03488 0.59952 0.52332
 C2873 C 0.02838 0.58569 0.51923
 C2874 C 0.03372 0.57846 0.50736
 C2875 C 0.02859 0.56495 0.50365
 C2876 C 0.01802 0.55830 0.51179
 C2877 C 0.01254 0.56560 0.52359
 C2878 C 0.01768 0.57911 0.52731
 H2879 H 0.02709 0.65557 0.54877
 H2880 H 0.01612 0.63343 0.54034
 H2881 H 0.05716 0.61479 0.53471
 H2882 H 0.06801 0.63675 0.54310
 H2883 H 0.01797 0.60744 0.53526
 H2884 H 0.04509 0.60194 0.51883
 H2885 H 0.04203 0.58321 0.50102
 H2886 H 0.03309 0.55964 0.49452
 H2887 H 0.00449 0.56075 0.53018
 H2888 H 0.01355 0.58409 0.53677
 C2889 C 0.52972 0.14567 0.53997
 C2890 C 0.52412 0.13253 0.53563
 C2891 C 0.53298 0.12102 0.53243
 C2892 C 0.54756 0.12279 0.53395
 C2893 C 0.55315 0.13588 0.53830
 C2894 C 0.54431 0.14748 0.54131
 C2895 C 0.52674 0.10712 0.52823
 C2896 C 0.53365 0.09760 0.52023
 C2897 C 0.52819 0.08317 0.51675
 C2898 C 0.53420 0.07581 0.50531
 C2899 C 0.53019 0.06176 0.50228
 C2900 C 0.52012 0.05469 0.51073
 C2901 C 0.51395 0.06213 0.52209
 C2902 C 0.51797 0.07619 0.52511
 H2903 H 0.52266 0.15444 0.54218
 H2904 H 0.51284 0.13138 0.53469
 H2905 H 0.55470 0.11400 0.53217
 H2906 H 0.56440 0.13681 0.53963
 H2907 H 0.51607 0.10493 0.53157
 H2908 H 0.54376 0.10052 0.51578
 H2909 H 0.54217 0.08089 0.49878
 H2910 H 0.53519 0.05636 0.49347
 H2911 H 0.50624 0.05698 0.52888
 H2912 H 0.51337 0.08132 0.53427
 C2913 C 0.55713 0.63042 0.04269
 C2914 C 0.55258 0.61705 0.03793
 C2915 C 0.53821 0.61391 0.03684
 C2916 C 0.52842 0.62460 0.04033
 C2917 C 0.53298 0.63799 0.04510
 C2918 C 0.54738 0.64103 0.04636
 C2919 C 0.53397 0.59955 0.03170
 C2920 C 0.52136 0.59363 0.03428
 C2921 C 0.51746 0.57903 0.02953
 C2922 C 0.50689 0.57158 0.03690
 C2923 C 0.50306 0.55771 0.03290
 C2924 C 0.50967 0.55102 0.02134
 C2925 C 0.52004 0.55861 0.01376
 C2926 C 0.52384 0.57248 0.01775
 H2927 H 0.56829 0.63239 0.04369
 H2928 H 0.56035 0.60905 0.03524
 H2929 H 0.51727 0.62280 0.03917
 H2930 H 0.52524 0.64606 0.04760
 H2931 H 0.54191 0.59336 0.02629
 H2932 H 0.51385 0.59923 0.04085
 H2933 H 0.50171 0.57643 0.04592
 H2934 H 0.49501 0.55220 0.03897
 H2935 H 0.52523 0.55385 0.00470
 H2936 H 0.53166 0.57804 0.01145
 C2937 C 0.70916 0.11509 0.56222
 C2938 C 0.71490 0.12770 0.55668
 C2939 C 0.71369 0.13102 0.54223
 C2940 C 0.70673 0.12125 0.53333
 C2941 C 0.70090 0.10863 0.53886
 C2942 C 0.70198 0.10524 0.55346
 C2943 C 0.72007 0.14461 0.53702
 C2944 C 0.71692 0.15085 0.52458
 C2945 C 0.72287 0.16485 0.51999
 C2946 C 0.71549 0.17301 0.50998
 C2947 C 0.72042 0.18650 0.50577
 C2948 C 0.73292 0.19212 0.51144
 C2949 C 0.74055 0.18375 0.52112
 C2950 C 0.73564 0.17025 0.52529
 H2951 H 0.70991 0.11353 0.57356
 H2952 H 0.72017 0.13503 0.56382
 H2953 H 0.70598 0.12308 0.52203
 H2954 H 0.69610 0.10130 0.53144
 H2955 H 0.72709 0.15006 0.54423
 H2956 H 0.70901 0.14611 0.51783
 H2957 H 0.70571 0.16907 0.50561
 H2958 H 0.71427 0.19263 0.49828
 H2959 H 0.75030 0.18766 0.52557
 H2960 H 0.74196 0.16410 0.53258
 C2961 C 0.70779 0.61049 0.05534
 C2962 C 0.71424 0.62281 0.04984
 C2963 C 0.70616 0.63420 0.04466
 C2964 C 0.69142 0.63310 0.04534
 C2965 C 0.68499 0.62080 0.05084
 C2966 C 0.69308 0.60933 0.05589
 C2967 C 0.71344 0.64722 0.03922
 C2968 C 0.70755 0.65640 0.03003
 C2969 C 0.71449 0.66966 0.02471
 C2970 C 0.70912 0.67620 0.01246
 C2971 C 0.71473 0.68911 0.00745
 C2972 C 0.72585 0.69588 0.01462
 C2973 C 0.73134 0.68927 0.02682
 C2974 C 0.72571 0.67634 0.03184
 H2975 H 0.71434 0.60181 0.05903
 H2976 H 0.72559 0.62340 0.04955
 H2977 H 0.68480 0.64183 0.04198
 H2978 H 0.67364 0.62038 0.05143
 H2979 H 0.72418 0.64887 0.04251
 H2980 H 0.69727 0.65397 0.02578
 H2981 H 0.70043 0.67138 0.00681
 H2982 H 0.71017 0.69389 -0.00193
 H2983 H 0.73978 0.69426 0.03271
 H2984 H 0.72993 0.67192 0.04154
 C2985 C 0.19182 0.63810 0.71182
 C2986 C 0.19718 0.62548 0.71758
 C2987 C 0.21171 0.62321 0.71820
 C2988 C 0.22084 0.63409 0.71346
 C2989 C 0.21548 0.64674 0.70772
 C2990 C 0.20092 0.64881 0.70668
 C2991 C 0.21685 0.60942 0.72391
 C2992 C 0.22931 0.60376 0.72043
 C2993 C 0.23375 0.58938 0.72528
 C2994 C 0.24320 0.58156 0.71692
 C2995 C 0.24698 0.56764 0.72075
 C2996 C 0.24144 0.56128 0.73310
 C2997 C 0.23243 0.56936 0.74177
 C2998 C 0.22868 0.58326 0.73795
 H2999 H 0.18055 0.63930 0.71104
 H3000 H 0.18992 0.61731 0.72127
 H3001 H 0.23211 0.63296 0.71424
 H3002 H 0.22275 0.65494 0.70413
 H3003 H 0.20956 0.60325 0.73032
 H3004 H 0.23604 0.60924 0.71289
 H3005 H 0.24738 0.58611 0.70719
 H3006 H 0.25399 0.56175 0.71386
 H3007 H 0.22814 0.56490 0.75148
 H3008 H 0.22183 0.58915 0.74498
 C3009 C 0.22084 0.14893 0.20600
 C3010 C 0.22667 0.13669 0.21206
 C3011 C 0.21822 0.12673 0.21926
 C3012 C 0.20378 0.12951 0.22062
 C3013 C 0.19793 0.14182 0.21465
 C3014 C 0.20628 0.15160 0.20685
 C3015 C 0.22473 0.11319 0.22415
 C3016 C 0.21869 0.10415 0.23343
 C3017 C 0.22455 0.08996 0.23718
 C3018 C 0.21954 0.08309 0.24945
 C3019 C 0.22386 0.06925 0.25285
 C3020 C 0.23330 0.06190 0.24401
 C3021 C 0.23855 0.06885 0.23186
 C3022 C 0.23417 0.08269 0.22842
 H3023 H 0.22794 0.15637 0.20083
 H3024 H 0.23784 0.13491 0.21095
 H3025 H 0.19675 0.12195 0.22570
 H3026 H 0.18666 0.14298 0.21535
 H3027 H 0.23498 0.11069 0.21987
 H3028 H 0.20906 0.10719 0.23870
 H3029 H 0.21206 0.08837 0.25633
 H3030 H 0.21961 0.06423 0.26231
 H3031 H 0.24570 0.06343 0.22473
 H3032 H 0.23798 0.08736 0.21863
 C3033 C 0.70729 1.15309 0.72241
 C3034 C 0.71235 1.14031 0.72813
 C3035 C 0.71863 1.13001 0.71943
 C3036 C 0.71979 1.13278 0.70481
 C3037 C 0.71484 1.14559 0.69908
 C3038 C 0.70833 1.15598 0.70772
 C3039 C 0.72305 1.11626 0.72591
 C3040 C 0.73187 1.10704 0.71966
 C3041 C 0.73559 1.09292 0.72579
 C3042 C 0.74762 1.08595 0.72074
 C3043 C 0.75120 1.07237 0.72576
 C3044 C 0.74279 1.06542 0.73596
 C3045 C 0.73072 1.07238 0.74101
 C3046 C 0.72711 1.08592 0.73594
 H3047 H 0.70294 1.16081 0.72971
 H3048 H 0.71133 1.13847 0.73944
 H3049 H 0.72404 1.12494 0.69759
 H3050 H 0.71542 1.14681 0.68768
 H3051 H 0.71901 1.11388 0.73640
 H3052 H 0.73694 1.10996 0.70978
 H3053 H 0.75426 1.09102 0.71282
 H3054 H 0.76054 1.06731 0.72159
 H3055 H 0.72388 1.06725 0.74871
 H3056 H 0.71747 1.09062 0.73976
 C3057 C 0.71500 0.64859 0.20638
 C3058 C 0.72126 0.63643 0.21220
 C3059 C 0.71303 0.62490 0.21699
 C3060 C 0.69831 0.62584 0.21594
 C3061 C 0.69205 0.63801 0.21010
 C3062 C 0.70033 0.64944 0.20508
 C3063 C 0.72017 0.61176 0.22204
 C3064 C 0.71403 0.60202 0.23052
 C3065 C 0.72070 0.58835 0.23475
 C3066 C 0.71545 0.58109 0.24669
 C3067 C 0.72058 0.56763 0.25043
 C3068 C 0.73106 0.56101 0.24223
 C3069 C 0.73655 0.56840 0.23043
 C3070 C 0.73141 0.58189 0.22669
 H3071 H 0.72166 0.65729 0.20275
 H3072 H 0.73260 0.63597 0.21282
 H3073 H 0.69159 0.61703 0.21907
 H3074 H 0.68074 0.63823 0.20899
 H3075 H 0.73097 0.61029 0.21880
 H3076 H 0.70371 0.60417 0.23484
 H3077 H 0.70715 0.58575 0.25304
 H3078 H 0.71607 0.56227 0.25958
 H3079 H 0.74452 0.56358 0.22379
 H3080 H 0.73548 0.58692 0.21718
 C3081 C 0.55750 0.11133 0.71336
 C3082 C 0.55231 0.12406 0.71907
 C3083 C 0.54741 0.13501 0.71017
 C3084 C 0.54805 0.13305 0.69537
 C3085 C 0.55323 0.12032 0.68968
 C3086 C 0.55800 0.10931 0.69860
 C3087 C 0.54233 0.14852 0.71663
 C3088 C 0.53344 0.15743 0.71004
 C3089 C 0.52862 0.17126 0.71602
 C3090 C 0.51674 0.17773 0.71007
 C3091 C 0.51225 0.19115 0.71469
 C3092 C 0.51959 0.19850 0.72537
 C3093 C 0.53140 0.19196 0.73148
 C3094 C 0.53591 0.17853 0.72683
 H3095 H 0.56102 0.10301 0.72052
 H3096 H 0.55205 0.12534 0.73049
 H3097 H 0.54491 0.14141 0.68811
 H3098 H 0.55380 0.11923 0.67825
 H3099 H 0.54569 0.15082 0.72733
 H3100 H 0.52911 0.15437 0.69988
 H3101 H 0.51097 0.17244 0.70168
 H3102 H 0.50313 0.19584 0.70971
 H3103 H 0.53740 0.19737 0.73963
 H3104 H 0.54534 0.17416 0.73145
 C3105 C 1.04592 0.10325 0.21981
 C3106 C 1.04132 0.11628 0.22536
 C3107 C 1.03731 0.12749 0.21632
 C3108 C 1.03811 0.12541 0.20154
 C3109 C 1.04270 0.11238 0.19600
 C3110 C 1.04671 0.10117 0.20507
 C3111 C 1.03311 0.14137 0.22265
 C3112 C 1.02521 0.15104 0.21583
 C3113 C 1.02152 0.16527 0.22170
 C3114 C 1.01031 0.17275 0.21559
 C3115 C 1.00698 0.18656 0.22008
 C3116 C 1.01484 0.19329 0.23079
 C3117 C 1.02597 0.18575 0.23705
 C3118 C 1.02932 0.17192 0.23253
 H3119 H 1.04884 0.09478 0.22707
 H3120 H 1.04090 0.11762 0.23677
 H3121 H 1.03563 0.13392 0.19418
 H3122 H 1.04350 0.11122 0.18460
 H3123 H 1.03637 0.14340 0.23345
 H3124 H 1.02090 0.14838 0.20555
 H3125 H 1.00419 0.16794 0.20717
 H3126 H 0.99835 0.19203 0.21498
 H3127 H 1.03234 0.19065 0.24522
 H3128 H 1.03830 0.16675 0.23726
 C3129 C 0.20299 0.59949 0.52869
 C3130 C 0.20760 0.61262 0.52319
 C3131 C 0.21059 0.62413 0.53225
 C3132 C 0.20866 0.62229 0.54696
 C3133 C 0.20406 0.60917 0.55245
 C3134 C 0.20115 0.59763 0.54339
 C3135 C 0.21517 0.63798 0.52599
 C3136 C 0.22283 0.64761 0.53316
 C3137 C 0.22749 0.66158 0.52725
 C3138 C 0.23878 0.66859 0.53379
 C3139 C 0.24322 0.68204 0.52911
 C3140 C 0.23639 0.68894 0.51780
 C3141 C 0.22509 0.68192 0.51118
 C3142 C 0.22065 0.66839 0.51587
 H3143 H 0.20092 0.59077 0.52143
 H3144 H 0.20890 0.61377 0.51182
 H3145 H 0.21032 0.63104 0.55427
 H3146 H 0.20240 0.60819 0.56379
 H3147 H 0.21266 0.63991 0.51496
 H3148 H 0.22641 0.64499 0.54374
 H3149 H 0.24418 0.66365 0.54263
 H3150 H 0.25194 0.68710 0.53452
 H3151 H 0.21952 0.68697 0.50252
 H3152 H 0.21166 0.66354 0.51079
 C3153 C 0.21675 0.10486 1.05146
 C3154 C 0.22291 0.11720 1.04570
 C3155 C 0.21458 0.12817 1.04004
 C3156 C 0.19988 0.12663 1.04051
 C3157 C 0.19373 0.11430 1.04625
 C3158 C 0.20208 0.10325 1.05177
 C3159 C 0.22155 0.14128 1.03441
 C3160 C 0.21545 0.15027 1.02515
 C3161 C 0.22198 0.16381 1.02001
 C3162 C 0.21639 0.17045 1.00791
 C3163 C 0.22156 0.18368 1.00320
 C3164 C 0.23245 0.19063 1.01053
 C3165 C 0.23818 0.18390 1.02255
 C3166 C 0.23299 0.17070 1.02728
 H3167 H 0.22348 0.09650 1.05554
 H3168 H 0.23425 0.11815 1.04560
 H3169 H 0.19304 0.13504 1.03680
 H3170 H 0.18239 0.11354 1.04665
 H3171 H 0.23222 0.14325 1.03777
 H3172 H 0.20528 0.14754 1.02084
 H3173 H 0.20784 0.16547 1.00216
 H3174 H 0.21683 0.18856 0.99395
 H3175 H 0.24647 0.18900 1.02857
 H3176 H 0.23736 0.16625 1.03688
 C3177 C 0.20642 0.69028 0.63649
 C3178 C 0.21272 0.69464 0.62381
 C3179 C 0.21500 0.70921 0.62092
 C3180 C 0.21088 0.71938 0.63113
 C3181 C 0.20449 0.71500 0.64382
 C3182 C 0.20227 0.70040 0.64665
 C3183 C 0.22190 0.71313 0.60730
 C3184 C 0.22173 0.72630 0.60161
 C3185 C 0.22785 0.72967 0.58749
 C3186 C 0.22249 0.74131 0.57985
 C3187 C 0.22743 0.74444 0.56622
 C3188 C 0.23796 0.73604 0.55994
 C3189 C 0.24373 0.72471 0.56780
 C3190 C 0.23878 0.72158 0.58145
 H3191 H 0.20470 0.67896 0.63833
 H3192 H 0.21579 0.68657 0.61619
 H3193 H 0.21278 0.73069 0.62957
 H3194 H 0.20159 0.72300 0.65157
 H3195 H 0.22662 0.70449 0.60137
 H3196 H 0.21601 0.73476 0.60684
 H3197 H 0.21419 0.74781 0.58431
 H3198 H 0.22278 0.75330 0.56053
 H3199 H 0.25196 0.71812 0.56336
 H3200 H 0.24358 0.71286 0.58721
 C3201 C 0.21055 0.18822 1.13461
 C3202 C 0.21596 0.19203 1.12134
 C3203 C 0.21639 0.20640 1.11705
 C3204 C 0.21165 0.21699 1.12652
 C3205 C 0.20620 0.21317 1.13979
 C3206 C 0.20553 0.19875 1.14393
 C3207 C 0.22194 0.20988 1.10274
 C3208 C 0.21841 0.22177 1.09562
 C3209 C 0.22327 0.22507 1.08102
 C3210 C 0.21564 0.23502 1.07304
 C3211 C 0.21980 0.23862 1.05929
 C3212 C 0.23179 0.23240 1.05318
 C3213 C 0.23951 0.22248 1.06118
 C3214 C 0.23535 0.21889 1.07499
 H3215 H 0.21004 0.17700 1.13747
 H3216 H 0.21962 0.18368 1.11430
 H3217 H 0.21229 0.22824 1.12385
 H3218 H 0.20267 0.22152 1.14689
 H3219 H 0.22835 0.20187 1.09764
 H3220 H 0.21095 0.22909 1.10028
 H3221 H 0.20635 0.23999 1.07744
 H3222 H 0.21358 0.24630 1.05345
 H3223 H 0.24887 0.21760 1.05684
 H3224 H 0.24179 0.21151 1.08091
 C3225 C 0.67956 0.54827 0.12251
 C3226 C 0.68459 0.54205 0.13498
 C3227 C 0.69903 0.54007 0.13704
 C3228 C 0.70838 0.54425 0.12616
 C3229 C 0.70334 0.55052 0.11368
 C3230 C 0.68888 0.55261 0.11173
 C3231 C 0.70379 0.53344 0.15054
 C3232 C 0.71688 0.53474 0.15565
 C3233 C 0.72132 0.52885 0.16957
 C3234 C 0.73295 0.53504 0.17633
 C3235 C 0.73729 0.53017 0.18964
 C3236 C 0.73016 0.51888 0.19649
 C3237 C 0.71876 0.51238 0.18953
 C3238 C 0.71441 0.51727 0.17621
 H3239 H 0.66837 0.54986 0.12137
 H3240 H 0.67714 0.53888 0.14313
 H3241 H 0.71955 0.54250 0.12706
 H3242 H 0.71075 0.55350 0.10544
 H3243 H 0.69589 0.52804 0.15687
 H3244 H 0.72448 0.54122 0.14996
 H3245 H 0.73856 0.54387 0.17142
 H3246 H 0.74616 0.53541 0.19462
 H3247 H 0.71310 0.50358 0.19443
 H3248 H 0.70570 0.51186 0.17115
 C3249 C 0.69092 1.04539 0.62066
 C3250 C 0.69601 1.03990 0.63344
 C3251 C 0.71050 1.03872 0.63579
 C3252 C 0.71983 1.04290 0.62490
 C3253 C 0.71472 1.04843 0.61211
 C3254 C 0.70021 1.04976 0.60987
 C3255 C 0.71532 1.03287 0.64961
 C3256 C 0.72826 1.03492 0.65485
 C3257 C 0.73268 1.02976 0.66906
 C3258 C 0.74396 1.03664 0.67579
 C3259 C 0.74821 1.03246 0.68935
 C3260 C 0.74134 1.02119 0.69650
 C3261 C 0.73030 1.01401 0.68959
 C3262 C 0.72606 1.01819 0.67601
 H3263 H 0.67968 1.04641 0.61931
 H3264 H 0.68859 1.03672 0.64159
 H3265 H 0.73105 1.04173 0.62604
 H3266 H 0.72211 1.05146 0.60388
 H3267 H 0.70752 1.02743 0.65605
 H3268 H 0.73571 1.04145 0.64902
 H3269 H 0.74934 1.04548 0.67063
 H3270 H 0.75678 1.03822 0.69431
 H3271 H 0.72485 1.00521 0.69472
 H3272 H 0.71766 1.01225 0.67101
 C3273 C 0.53113 0.20962 0.59441
 C3274 C 0.52562 0.21539 0.60690
 C3275 C 0.53451 0.21944 0.61805
 C3276 C 0.54909 0.21762 0.61643
 C3277 C 0.55459 0.21187 0.60394
 C3278 C 0.54567 0.20769 0.59284
 C3279 C 0.52816 0.22457 0.63149
 C3280 C 0.53517 0.23237 0.64110
 C3281 C 0.52922 0.23656 0.65504
 C3282 C 0.53541 0.24801 0.66236
 C3283 C 0.53077 0.25173 0.67593
 C3284 C 0.51987 0.24399 0.68256
 C3285 C 0.51356 0.23261 0.67516
 C3286 C 0.51821 0.22890 0.66159
 H3287 H 0.52400 0.20660 0.58599
 H3288 H 0.51436 0.21658 0.60790
 H3289 H 0.55629 0.22012 0.62493
 H3290 H 0.56581 0.21022 0.60316
 H3291 H 0.51722 0.22198 0.63331
 H3292 H 0.54566 0.23613 0.63866
 H3293 H 0.54399 0.25401 0.65762
 H3294 H 0.53592 0.26052 0.68132
 H3295 H 0.50523 0.22634 0.67998
 H3296 H 0.51343 0.21972 0.65653
 C3297 C 1.03153 0.20242 0.10013
 C3298 C 1.02566 0.20773 0.11266
 C3299 C 1.03428 0.21271 0.12367
 C3300 C 1.04895 0.21210 0.12194
 C3301 C 1.05480 0.20682 0.10943
 C3302 C 1.04617 0.20189 0.09839
 C3303 C 1.02768 0.21770 0.13703
 C3304 C 1.03413 0.22659 0.14610
 C3305 C 1.02820 0.23095 0.15999
 C3306 C 1.03413 0.24282 0.16686
 C3307 C 1.02964 0.24677 0.18041
 C3308 C 1.01912 0.23888 0.18746
 C3309 C 1.01301 0.22711 0.18050
 C3310 C 1.01753 0.22314 0.16695
 H3311 H 1.02462 0.19875 0.09178
 H3312 H 1.01434 0.20796 0.11376
 H3313 H 1.05598 0.21527 0.13036
 H3314 H 1.06612 0.20621 0.10854
 H3315 H 1.01707 0.21414 0.13917
 H3316 H 1.04420 0.23116 0.14321
 H3317 H 1.04242 0.24898 0.16180
 H3318 H 1.03459 0.25589 0.18543
 H3319 H 1.00497 0.22071 0.18567
 H3320 H 1.01294 0.21367 0.16226
 C3321 C 0.65107 0.21313 0.72173
 C3322 C 0.63824 0.21810 0.72698
 C3323 C 0.62729 0.22161 0.71768
 C3324 C 0.62936 0.21984 0.70299
 C3325 C 0.64214 0.21488 0.69776
 C3326 C 0.65314 0.21147 0.70705
 C3327 C 0.61364 0.22627 0.72358
 C3328 C 0.60459 0.23433 0.71621
 C3329 C 0.59038 0.23818 0.72132
 C3330 C 0.58344 0.24959 0.71470
 C3331 C 0.56963 0.25294 0.71834
 C3332 C 0.56238 0.24487 0.72865
 C3333 C 0.56940 0.23356 0.73545
 C3334 C 0.58323 0.23021 0.73179
 H3335 H 0.65937 0.21063 0.72913
 H3336 H 0.63686 0.21922 0.73833
 H3337 H 0.62101 0.22185 0.69551
 H3338 H 0.64328 0.21333 0.68643
 H3339 H 0.61121 0.22319 0.73439
 H3340 H 0.60772 0.23853 0.70596
 H3341 H 0.58866 0.25583 0.70653
 H3342 H 0.56457 0.26171 0.71288
 H3343 H 0.56410 0.22705 0.74335
 H3344 H 0.58802 0.22107 0.73686
 C3345 C 1.13759 0.20623 0.18747
 C3346 C 1.12477 0.21206 0.19168
 C3347 C 1.12215 0.21522 0.20599
 C3348 C 1.13276 0.21262 0.21603
 C3349 C 1.14561 0.20678 0.21181
 C3350 C 1.14817 0.20354 0.19748
 C3351 C 1.10837 0.22148 0.20985
 C3352 C 1.10276 0.22073 0.22290
 C3353 C 1.08861 0.22629 0.22638
 C3354 C 1.08119 0.22015 0.23775
 C3355 C 1.06765 0.22475 0.24112
 C3356 C 1.06127 0.23575 0.23326
 C3357 C 1.06888 0.24222 0.22213
 C3358 C 1.08241 0.23757 0.21875
 H3359 H 1.13916 0.20369 0.17638
 H3360 H 1.11682 0.21400 0.18372
 H3361 H 1.13134 0.21533 0.22709
 H3362 H 1.15366 0.20507 0.21972
 H3363 H 1.10229 0.22608 0.20131
 H3364 H 1.10821 0.21494 0.23117
 H3365 H 1.08577 0.21155 0.24390
 H3366 H 1.06215 0.21958 0.24981
 H3367 H 1.06435 0.25080 0.21593
 H3368 H 1.08798 0.24293 0.21023
 C3369 C 0.11741 0.69043 0.54002
 C3370 C 0.13024 0.69489 0.53431
 C3371 C 0.13335 0.70950 0.53273
 C3372 C 0.12317 0.71961 0.53672
 C3373 C 0.11031 0.71513 0.54247
 C3374 C 0.10731 0.70049 0.54421
 C3375 C 0.14722 0.71360 0.52672
 C3376 C 0.15324 0.72647 0.52853
 C3377 C 0.16758 0.72997 0.52335
 C3378 C 0.17525 0.74073 0.53027
 C3379 C 0.18903 0.74390 0.52617
 C3380 C 0.19543 0.73643 0.51496
 C3381 C 0.18756 0.72602 0.50769
 C3382 C 0.17377 0.72287 0.51178
 H3383 H 0.11548 0.67907 0.54138
 H3384 H 0.13785 0.68686 0.53127
 H3385 H 0.12494 0.73095 0.53526
 H3386 H 0.10263 0.72312 0.54536
 H3387 H 0.15305 0.70525 0.52140
 H3388 H 0.14803 0.73444 0.53495
 H3389 H 0.17068 0.74648 0.53911
 H3390 H 0.19474 0.75202 0.53198
 H3391 H 0.19208 0.72018 0.49889
 H3392 H 0.16804 0.71490 0.50581
 C3393 C 0.10429 0.21727 1.04234
 C3394 C 0.11685 0.22327 1.03736
 C3395 C 0.12825 0.21452 1.03378
 C3396 C 0.12687 0.19959 1.03543
 C3397 C 0.11432 0.19361 1.04041
 C3398 C 0.10290 0.20238 1.04395
 C3399 C 0.14157 0.22133 1.02909
 C3400 C 0.15122 0.21454 1.02124
 C3401 C 0.16485 0.22099 1.01698
 C3402 C 0.17212 0.21503 1.00547
 C3403 C 0.18534 0.22022 1.00153
 C3404 C 0.19168 0.23146 1.00910
 C3405 C 0.18438 0.23750 1.02059
 C3406 C 0.17113 0.23231 1.02452
 H3407 H 0.09564 0.22430 1.04489
 H3408 H 0.11766 0.23479 1.03629
 H3409 H 0.13556 0.19250 1.03331
 H3410 H 0.11369 0.18212 1.04186
 H3411 H 0.14316 0.23245 1.03185
 H3412 H 0.14898 0.20389 1.01735
 H3413 H 0.16759 0.20623 0.99955
 H3414 H 0.19067 0.21524 0.99268
 H3415 H 0.18900 0.24607 1.02676
 H3416 H 0.16610 0.23692 1.03373
 C3417 C 0.59881 0.52227 0.21336
 C3418 C 0.61167 0.51732 0.21847
 C3419 C 0.62225 0.52699 0.22246
 C3420 C 0.61970 0.54177 0.22124
 C3421 C 0.60686 0.54670 0.21617
 C3422 C 0.59632 0.53702 0.21207
 C3423 C 0.63609 0.52133 0.22684
 C3424 C 0.64541 0.52890 0.23441
 C3425 C 0.65976 0.52384 0.23765
 C3426 C 0.66711 0.53025 0.24885
 C3427 C 0.68099 0.52645 0.25171
 C3428 C 0.68786 0.51620 0.24332
 C3429 C 0.68047 0.50972 0.23214
 C3430 C 0.66660 0.51353 0.22929
 H3431 H 0.59085 0.51456 0.21034
 H3432 H 0.61340 0.50589 0.21919
 H3433 H 0.62773 0.54960 0.22368
 H3434 H 0.60536 0.55812 0.21496
 H3435 H 0.63851 0.51046 0.22379
 H3436 H 0.64245 0.53921 0.23865
 H3437 H 0.66214 0.53832 0.25536
 H3438 H 0.68636 0.53169 0.26038
 H3439 H 0.68547 0.50188 0.22539
 H3440 H 0.66151 0.50868 0.22025
 C3441 C 0.61462 1.03792 0.69834
 C3442 C 0.62707 1.03216 0.70367
 C3443 C 0.63812 1.04113 0.70797
 C3444 C 0.63656 1.05604 0.70655
 C3445 C 0.62411 1.06180 0.70124
 C3446 C 0.61299 1.05281 0.69711
 C3447 C 0.65123 1.03456 0.71336
 C3448 C 0.66026 1.04145 0.72189
 C3449 C 0.67355 1.03518 0.72721
 C3450 C 0.68003 1.04153 0.73898
 C3451 C 0.69287 1.03648 0.74401
 C3452 C 0.69961 1.02496 0.73733
 C3453 C 0.69310 1.01852 0.72556
 C3454 C 0.68025 1.02360 0.72051
 H3455 H 0.60621 1.03072 0.69534
 H3456 H 0.62803 1.02064 0.70453
 H3457 H 0.64500 1.06332 0.70921
 H3458 H 0.62330 1.07330 0.70009
 H3459 H 0.65309 1.02349 0.71064
 H3460 H 0.65767 1.05206 0.72563
 H3461 H 0.67518 1.05053 0.74428
 H3462 H 0.69758 1.04176 0.75306
 H3463 H 0.69807 1.00974 0.72004
 H3464 H 0.67587 1.01865 0.71115
 C3465 C 0.87883 0.45352 0.31365
 C3466 C 0.86630 0.45977 0.30923
 C3467 C 0.86377 0.46237 0.29479
 C3468 C 0.87423 0.45877 0.28483
 C3469 C 0.88678 0.45247 0.28927
 C3470 C 0.88921 0.44979 0.30373
 C3471 C 0.85027 0.46908 0.29070
 C3472 C 0.84475 0.46827 0.27763
 C3473 C 0.83084 0.47427 0.27389
 C3474 C 0.82360 0.46842 0.26233
 C3475 C 0.81030 0.47342 0.25865
 C3476 C 0.80395 0.48451 0.26639
 C3477 C 0.81138 0.49066 0.27774
 C3478 C 0.82470 0.48564 0.28142
 H3479 H 0.88034 0.45145 0.32485
 H3480 H 0.85847 0.46248 0.31713
 H3481 H 0.87294 0.46101 0.27365
 H3482 H 0.89470 0.44995 0.28141
 H3483 H 0.84430 0.47410 0.29909
 H3484 H 0.85007 0.46215 0.26954
 H3485 H 0.82813 0.45975 0.25626
 H3486 H 0.80493 0.46844 0.24982
 H3487 H 0.80687 0.49929 0.28387
 H3488 H 0.83013 0.49079 0.29009
 C3489 C 0.88825 0.94251 0.79654
 C3490 C 0.87548 0.94751 0.79132
 C3491 C 0.87290 0.96224 0.79017
 C3492 C 0.88353 0.97192 0.79427
 C3493 C 0.89631 0.96690 0.79956
 C3494 C 0.89882 0.95214 0.80069
 C3495 C 0.85920 0.96690 0.78432
 C3496 C 0.85393 0.98010 0.78586
 C3497 C 0.83991 0.98431 0.78047
 C3498 C 0.83301 0.99585 0.78689
 C3499 C 0.81963 0.99992 0.78244
 C3500 C 0.81285 0.99259 0.77136
 C3501 C 0.81993 0.98130 0.76464
 C3502 C 0.83333 0.97725 0.76908
 H3503 H 0.88982 0.93107 0.79744
 H3504 H 0.86753 0.93980 0.78822
 H3505 H 0.88220 0.98335 0.79318
 H3506 H 0.90436 0.97456 0.80246
 H3507 H 0.85291 0.95877 0.77917
 H3508 H 0.85957 0.98795 0.79206
 H3509 H 0.83788 1.00158 0.79557
 H3510 H 0.81452 1.00870 0.78785
 H3511 H 0.81511 0.97553 0.75597
 H3512 H 0.83849 0.96866 0.76347
 C3513 C 0.36032 0.28352 0.79413
 C3514 C 0.37258 0.27760 0.78852
 C3515 C 0.38362 0.28645 0.78387
 C3516 C 0.38222 0.30139 0.78513
 C3517 C 0.36997 0.30729 0.79073
 C3518 C 0.35889 0.29843 0.79531
 C3519 C 0.39667 0.27979 0.77846
 C3520 C 0.40556 0.28654 0.76962
 C3521 C 0.41908 0.28046 0.76473
 C3522 C 0.42556 0.28653 0.75275
 C3523 C 0.43876 0.28189 0.74828
 C3524 C 0.44585 0.27109 0.75577
 C3525 C 0.43928 0.26486 0.76767
 C3526 C 0.42607 0.26952 0.77215
 H3527 H 0.35192 0.27643 0.79749
 H3528 H 0.37345 0.26607 0.78778
 H3529 H 0.39069 0.30857 0.78220
 H3530 H 0.36933 0.31880 0.79184
 H3531 H 0.39868 0.26884 0.78159
 H3532 H 0.40277 0.29696 0.76547
 H3533 H 0.42047 0.29504 0.74690
 H3534 H 0.44350 0.28697 0.73909
 H3535 H 0.44450 0.25663 0.77378
 H3536 H 0.42166 0.26484 0.78168
 C3537 C 0.86164 0.28591 0.29832
 C3538 C 0.87395 0.27994 0.29287
 C3539 C 0.88501 0.28873 0.28813
 C3540 C 0.88355 0.30368 0.28913
 C3541 C 0.87124 0.30965 0.29455
 C3542 C 0.86016 0.30084 0.29923
 C3543 C 0.89808 0.28192 0.28293
 C3544 C 0.90740 0.28858 0.27446
 C3545 C 0.92080 0.28207 0.26972
 C3546 C 0.92771 0.28795 0.25788
 C3547 C 0.94069 0.28265 0.25345
 C3548 C 0.94712 0.27136 0.26083
 C3549 C 0.94017 0.26542 0.27266
 C3550 C 0.92720 0.27074 0.27710
 H3551 H 0.85324 0.27885 0.30175
 H3552 H 0.87483 0.26840 0.29233
 H3553 H 0.89200 0.31085 0.28611
 H3554 H 0.87053 0.32118 0.29542
 H3555 H 0.89975 0.27087 0.28589
 H3556 H 0.90506 0.29915 0.27042
 H3557 H 0.92309 0.29677 0.25208
 H3558 H 0.94576 0.28755 0.24434
 H3559 H 0.94489 0.25684 0.27871
 H3560 H 0.92250 0.26619 0.28655
 C3561 C 0.38898 0.80557 0.45797
 C3562 C 0.37647 0.80072 0.46409
 C3563 C 0.37346 0.78603 0.46497
 C3564 C 0.38342 0.77622 0.45980
 C3565 C 0.39593 0.78109 0.45362
 C3566 C 0.39883 0.79581 0.45264
 C3567 C 0.35997 0.78153 0.47155
 C3568 C 0.35400 0.76866 0.46960
 C3569 C 0.34003 0.76475 0.47545
 C3570 C 0.33221 0.75401 0.46868
 C3571 C 0.31875 0.75041 0.47345
 C3572 C 0.31282 0.75743 0.48520
 C3573 C 0.32084 0.76786 0.49228
 C3574 C 0.33431 0.77143 0.48752
 H3575 H 0.39085 0.81699 0.45722
 H3576 H 0.36904 0.80852 0.46802
 H3577 H 0.38176 0.76480 0.46067
 H3578 H 0.40346 0.77333 0.44982
 H3579 H 0.35435 0.78959 0.47749
 H3580 H 0.35893 0.76099 0.46262
 H3581 H 0.33641 0.74859 0.45946
 H3582 H 0.31291 0.74231 0.46775
 H3583 H 0.31666 0.77336 0.50146
 H3584 H 0.34019 0.77937 0.49338
 C3585 C 0.39390 0.27774 0.94779
 C3586 C 0.38150 0.27192 0.95333
 C3587 C 0.37098 0.28080 0.95885
 C3588 C 0.37316 0.29572 0.95871
 C3589 C 0.38558 0.30154 0.95319
 C3590 C 0.39603 0.29263 0.94757
 C3591 C 0.35763 0.27417 0.96376
 C3592 C 0.34850 0.28069 0.97247
 C3593 C 0.33468 0.27452 0.97657
 C3594 C 0.32775 0.28009 0.98848
 C3595 C 0.31430 0.27533 0.99220
 C3596 C 0.30740 0.26491 0.98401
 C3597 C 0.31441 0.25917 0.97217
 C3598 C 0.32785 0.26396 0.96845
 H3599 H 0.40182 0.27059 0.94364
 H3600 H 0.38008 0.26041 0.95321
 H3601 H 0.36517 0.30301 0.96239
 H3602 H 0.38680 0.31307 0.95290
 H3603 H 0.35546 0.26339 0.96020
 H3604 H 0.35127 0.29091 0.97707
 H3605 H 0.33270 0.28831 0.99487
 H3606 H 0.30922 0.28003 1.00135
 H3607 H 0.30937 0.25124 0.96553
 H3608 H 0.33257 0.25967 0.95893
 C3609 C 0.81105 0.46005 0.38845
 C3610 C 0.80675 0.46532 0.37529
 C3611 C 0.79245 0.46725 0.37236
 C3612 C 0.78252 0.46423 0.38307
 C3613 C 0.78684 0.45896 0.39623
 C3614 C 0.80113 0.45670 0.39903
 C3615 C 0.78836 0.47263 0.35816
 C3616 C 0.77575 0.47012 0.35236
 C3617 C 0.77179 0.47502 0.33795
 C3618 C 0.76093 0.46784 0.33085
 C3619 C 0.75683 0.47211 0.31727
 C3620 C 0.76345 0.48376 0.31050
 C3621 C 0.77422 0.49108 0.31769
 C3622 C 0.77831 0.48681 0.33128
 H3623 H 0.82213 0.45829 0.39023
 H3624 H 0.81460 0.46767 0.36727
 H3625 H 0.77145 0.46609 0.38142
 H3626 H 0.77898 0.45677 0.40429
 H3627 H 0.79639 0.47805 0.35200
 H3628 H 0.76821 0.46350 0.35799
 H3629 H 0.75566 0.45881 0.33579
 H3630 H 0.74848 0.46624 0.31207
 H3631 H 0.77946 0.50018 0.31287
 H3632 H 0.78639 0.49294 0.33656
 C3633 C 0.77964 0.96176 0.90329
 C3634 C 0.77379 0.96699 0.89072
 C3635 C 0.78242 0.97124 0.87937
 C3636 C 0.79707 0.97003 0.88079
 C3637 C 0.80291 0.96481 0.89333
 C3638 C 0.79428 0.96057 0.90471
 C3639 C 0.77586 0.97607 0.86595
 C3640 C 0.78248 0.98464 0.85663
 C3641 C 0.77672 0.98872 0.84260
 C3642 C 0.78280 1.00038 0.83544
 C3643 C 0.77863 1.00393 0.82170
 C3644 C 0.76829 0.99582 0.81472
 C3645 C 0.76195 0.98431 0.82198
 C3646 C 0.76615 0.98075 0.83575
 H3647 H 0.77272 0.95865 0.91191
 H3648 H 0.76248 0.96769 0.88985
 H3649 H 0.80408 0.97264 0.87210
 H3650 H 0.81420 0.96366 0.89396
 H3651 H 0.76519 0.97265 0.86395
 H3652 H 0.79261 0.98910 0.85939
 H3653 H 0.79101 1.00665 0.84042
 H3654 H 0.78374 1.01287 0.81645
 H3655 H 0.75404 0.97777 0.81688
 H3656 H 0.76144 0.97145 0.84071
 C3657 C 0.28512 0.79585 0.35578
 C3658 C 0.27962 0.79019 0.36838
 C3659 C 0.28853 0.78560 0.37931
 C3660 C 0.30314 0.78688 0.37738
 C3661 C 0.30865 0.79253 0.36477
 C3662 C 0.29970 0.79714 0.35385
 C3663 C 0.28215 0.78038 0.39277
 C3664 C 0.28896 0.77233 0.40234
 C3665 C 0.28274 0.76783 0.41614
 C3666 C 0.28853 0.75608 0.42334
 C3667 C 0.28343 0.75194 0.43668
 C3668 C 0.27246 0.75953 0.44319
 C3669 C 0.26664 0.77127 0.43596
 C3670 C 0.27174 0.77541 0.42264
 H3671 H 0.27796 0.79917 0.34752
 H3672 H 0.26833 0.78942 0.36960
 H3673 H 0.31039 0.78395 0.38568
 H3674 H 0.31992 0.79366 0.36372
 H3675 H 0.27126 0.78305 0.39460
 H3676 H 0.29940 0.76851 0.39994
 H3677 H 0.29710 0.75014 0.41865
 H3678 H 0.28824 0.74291 0.44197
 H3679 H 0.25830 0.77749 0.44070
 H3680 H 0.26728 0.78482 0.41774
 C3681 C 0.31489 0.29501 0.86366
 C3682 C 0.30980 0.28898 0.87624
 C3683 C 0.29532 0.28744 0.87858
 C3684 C 0.28598 0.29199 0.86791
 C3685 C 0.29110 0.29809 0.85533
 C3686 C 0.30560 0.29961 0.85305
 C3687 C 0.29057 0.28081 0.89212
 C3688 C 0.27750 0.28192 0.89734
 C3689 C 0.27321 0.27601 0.91134
 C3690 C 0.26166 0.28211 0.91828
 C3691 C 0.25752 0.27729 0.93170
 C3692 C 0.26479 0.26613 0.93849
 C3693 C 0.27609 0.25970 0.93135
 C3694 C 0.28023 0.26453 0.91790
 H3695 H 0.32612 0.29618 0.86227
 H3696 H 0.31724 0.28556 0.88422
 H3697 H 0.27477 0.29063 0.86904
 H3698 H 0.28372 0.30134 0.84723
 H3699 H 0.29850 0.27552 0.89840
 H3700 H 0.26982 0.28823 0.89173
 H3701 H 0.25598 0.29085 0.91342
 H3702 H 0.24873 0.28247 0.93682
 H3703 H 0.28183 0.25100 0.93619
 H3704 H 0.28886 0.25918 0.91270
 C3705 C 0.43733 0.29162 0.87699
 C3706 C 0.44194 0.28674 0.86377
 C3707 C 0.45633 0.28558 0.86079
 C3708 C 0.46605 0.28906 0.87148
 C3709 C 0.46144 0.29396 0.88469
 C3710 C 0.44703 0.29536 0.88757
 C3711 C 0.46071 0.28049 0.84654
 C3712 C 0.47333 0.28337 0.84081
 C3713 C 0.47756 0.27886 0.82633
 C3714 C 0.48848 0.28633 0.81953
 C3715 C 0.49283 0.28254 0.80589
 C3716 C 0.48642 0.27106 0.79873
 C3717 C 0.47562 0.26342 0.80562
 C3718 C 0.47126 0.26722 0.81928
 H3719 H 0.42616 0.29270 0.87884
 H3720 H 0.43423 0.28405 0.85578
 H3721 H 0.47722 0.28781 0.86982
 H3722 H 0.46914 0.29646 0.89275
 H3723 H 0.45289 0.27493 0.84031
 H3724 H 0.48066 0.29007 0.84654
 H3725 H 0.49359 0.29526 0.82474
 H3726 H 0.50119 0.28867 0.80094
 H3727 H 0.47051 0.25445 0.80047
 H3728 H 0.46312 0.26088 0.82430
 C3729 C 0.95109 0.28215 0.39022
 C3730 C 0.95618 0.27630 0.37759
 C3731 C 0.95992 0.28518 0.36615
 C3732 C 0.95824 0.30008 0.36752
 C3733 C 0.95313 0.30592 0.38013
 C3734 C 0.94950 0.29703 0.39163
 C3735 C 0.96496 0.27857 0.35281
 C3736 C 0.97327 0.28548 0.34352
 C3737 C 0.97812 0.27922 0.32994
 C3738 C 0.99003 0.28515 0.32337
 C3739 C 0.99460 0.28015 0.31021
 C3740 C 0.98728 0.26913 0.30322
 C3741 C 0.97537 0.26313 0.30983
 C3742 C 0.97081 0.26813 0.32303
 H3743 H 0.94847 0.27503 0.39892
 H3744 H 0.95728 0.26480 0.37677
 H3745 H 0.96050 0.30725 0.35877
 H3746 H 0.95170 0.31739 0.38077
 H3747 H 0.96216 0.26750 0.35096
 H3748 H 0.97715 0.29606 0.34611
 H3749 H 0.99578 0.29378 0.32839
 H3750 H 1.00376 0.28510 0.30542
 H3751 H 0.96939 0.25474 0.30468
 H3752 H 0.96134 0.26357 0.32752
 C3753 C 0.46976 0.39980 0.79687
 C3754 C 0.47591 0.38746 0.79134
 C3755 C 0.46757 0.37638 0.78584
 C3756 C 0.45286 0.37784 0.78613
 C3757 C 0.44672 0.39019 0.79164
 C3758 C 0.45509 0.40129 0.79710
 C3759 C 0.47450 0.36322 0.78058
 C3760 C 0.46846 0.35418 0.77138
 C3761 C 0.47499 0.34066 0.76652
 C3762 C 0.46986 0.33422 0.75413
 C3763 C 0.47511 0.32108 0.74954
 C3764 C 0.48560 0.31401 0.75730
 C3765 C 0.49082 0.32050 0.76967
 C3766 C 0.48554 0.33364 0.77427
 H3767 H 0.47648 0.40822 0.80092
 H3768 H 0.48724 0.38656 0.79135
 H3769 H 0.44602 0.36935 0.78251
 H3770 H 0.43538 0.39089 0.79198
 H3771 H 0.48510 0.36127 0.78415
 H3772 H 0.45841 0.35689 0.76681
 H3773 H 0.46166 0.33932 0.74802
 H3774 H 0.47080 0.31639 0.74000
 H3775 H 0.49877 0.31528 0.77601
 H3776 H 0.48949 0.33797 0.78412
 C3777 C 0.93603 0.38332 0.29125
 C3778 C 0.94167 0.37120 0.28474
 C3779 C 0.95624 0.36967 0.28320
 C3780 C 0.96508 0.38078 0.28792
 C3781 C 0.95944 0.39290 0.29444
 C3782 C 0.94486 0.39425 0.29630
 C3783 C 0.96173 0.35647 0.27649
 C3784 C 0.97476 0.35148 0.27862
 C3785 C 0.97984 0.33777 0.27261
 C3786 C 0.99075 0.33054 0.27953
 C3787 C 0.99547 0.31732 0.27454
 C3788 C 0.98946 0.31108 0.26242
 C3789 C 0.97887 0.31859 0.25520
 C3790 C 0.97415 0.33179 0.26019
 H3791 H 0.92476 0.38397 0.29263
 H3792 H 0.93461 0.36286 0.28111
 H3793 H 0.97633 0.38029 0.28647
 H3794 H 0.96649 0.40130 0.29793
 H3795 H 0.95437 0.35018 0.27036
 H3796 H 0.98170 0.35703 0.28584
 H3797 H 0.99543 0.33498 0.28902
 H3798 H 1.00365 0.31187 0.28037
 H3799 H 0.97407 0.31418 0.24575
 H3800 H 0.96609 0.33727 0.25425
 C3801 C 0.29068 0.89155 0.45123
 C3802 C 0.28475 0.87862 0.45576
 C3803 C 0.29328 0.86684 0.45894
 C3804 C 0.30793 0.86824 0.45737
 C3805 C 0.31386 0.88118 0.45287
 C3806 C 0.30530 0.89295 0.44969
 C3807 C 0.28651 0.85319 0.46330
 C3808 C 0.29312 0.84310 0.47084
 C3809 C 0.28651 0.82940 0.47526
 C3810 C 0.29232 0.82199 0.48676
 C3811 C 0.28675 0.80885 0.49111
 C3812 C 0.27527 0.80272 0.48396
 C3813 C 0.26947 0.81010 0.47237
 C3814 C 0.27505 0.82329 0.46803
 H3815 H 0.28383 0.90047 0.44895
 H3816 H 0.27344 0.87781 0.45680
 H3817 H 0.31485 0.85929 0.45921
 H3818 H 0.32513 0.88186 0.45146
 H3819 H 0.27553 0.85180 0.46071
 H3820 H 0.30367 0.84512 0.47458
 H3821 H 0.30122 0.82638 0.49243
 H3822 H 0.29156 0.80345 0.50003
 H3823 H 0.26073 0.80561 0.46653
 H3824 H 0.27055 0.82844 0.45883
 C3825 C 0.27607 0.39953 0.95546
 C3826 C 0.27023 0.38653 0.95997
 C3827 C 0.27888 0.37505 0.96378
 C3828 C 0.29355 0.37681 0.96293
 C3829 C 0.29937 0.38978 0.95843
 C3830 C 0.29071 0.40125 0.95455
 C3831 C 0.27233 0.36119 0.96775
 C3832 C 0.27881 0.35144 0.97584
 C3833 C 0.27291 0.33713 0.97919
 C3834 C 0.27841 0.32963 0.99079
 C3835 C 0.27397 0.31571 0.99381
 C3836 C 0.26395 0.30887 0.98520
 C3837 C 0.25826 0.31644 0.97367
 C3838 C 0.26272 0.33041 0.97066
 H3839 H 0.26913 0.40822 0.95262
 H3840 H 0.25891 0.38543 0.96043
 H3841 H 0.30058 0.36806 0.96525
 H3842 H 0.31068 0.39067 0.95750
 H3843 H 0.26173 0.35921 0.96414
 H3844 H 0.28884 0.35409 0.98054
 H3845 H 0.28633 0.33451 0.99747
 H3846 H 0.27859 0.31022 1.00278
 H3847 H 0.25062 0.31146 0.96676
 H3848 H 0.25851 0.33566 0.96137
 C3849 C 0.81488 0.36880 0.29381
 C3850 C 0.80951 0.38127 0.28775
 C3851 C 0.79498 0.38312 0.28622
 C3852 C 0.78591 0.37202 0.29067
 C3853 C 0.79130 0.35955 0.29680
 C3854 C 0.80584 0.35782 0.29845
 C3855 C 0.78986 0.39668 0.27983
 C3856 C 0.77673 0.40156 0.28142
 C3857 C 0.77197 0.41565 0.27597
 C3858 C 0.76030 0.42204 0.28242
 C3859 C 0.75570 0.43551 0.27807
 C3860 C 0.76261 0.44292 0.26704
 C3861 C 0.77404 0.43633 0.26026
 C3862 C 0.77865 0.42282 0.26463
 H3863 H 0.82613 0.36783 0.29505
 H3864 H 0.81675 0.38959 0.28437
 H3865 H 0.77468 0.37274 0.28927
 H3866 H 0.78410 0.35114 0.30004
 H3867 H 0.79756 0.40327 0.27441
 H3868 H 0.76933 0.39559 0.28788
 H3869 H 0.75486 0.41671 0.29107
 H3870 H 0.74682 0.44020 0.28352
 H3871 H 0.77955 0.44168 0.25167
 H3872 H 0.78738 0.41806 0.25904
   
