data_POSCAR
  _audit_creation_date              2014-09-24
  _audit_creation_method            'ToBaCCo'
  _symmetry_space_group_name_H-M    'P1'
  _symmetry_Int_Tables_number       1
  _symmetry_cell_setting            triclinic
  loop_
  _symmetry_equiv_pos_as_xyz
 x,y,z
_cell_length_a 50.0600
_cell_length_b 50.2111
_cell_length_c 50.1356
_cell_angle_alpha 89.956900
_cell_angle_beta 89.954100
_cell_angle_gamma 89.993600
loop_
  _atom_site_label
  _atom_site_type_symbol
  _atom_site_fract_x
  _atom_site_fract_y
  _atom_site_fract_z
C1 C 0.33568 1.36918 0.33140
 C2 C 0.34945 1.37780 0.30859
 C3 C 0.37180 1.36370 0.29870
 C4 C 0.38106 1.34154 0.31345
 C5 C 0.36726 1.33250 0.33606
 C6 C 0.34448 1.34629 0.34502
 C7 C 0.31294 1.38288 0.34044
 C8 C 0.29896 1.37435 0.36344
 C9 C 0.30783 1.35100 0.37643
 C10 C 0.33044 1.33711 0.36755
 C11 C 0.33894 1.31396 0.38074
 C12 C 0.36121 1.29945 0.37147
 C13 C 0.37567 1.30951 0.34956
 H14 H 0.34261 1.39555 0.29831
 H15 H 0.39906 1.33112 0.30779
 H16 H 0.30600 1.39964 0.32884
 H17 H 0.29680 1.34333 0.39340
 H18 H 0.32814 1.30771 0.39829
 H19 H 0.39326 1.29897 0.34264
 C20 C 0.33505 0.86724 0.83052
 C21 C 0.34967 0.87666 0.80858
 C22 C 0.37254 0.86309 0.79942
 C23 C 0.38163 0.84078 0.81392
 C24 C 0.36724 0.83119 0.83594
 C25 C 0.34378 0.84432 0.84415
 C26 C 0.31156 0.88015 0.83863
 C27 C 0.29592 0.86997 0.85981
 C28 C 0.30576 0.84775 0.87404
 C29 C 0.32921 0.83468 0.86613
 C30 C 0.33795 0.81180 0.87963
 C31 C 0.36084 0.79785 0.87102
 C32 C 0.37572 0.80830 0.84957
 H33 H 0.34289 0.89432 0.79813
 H34 H 0.39986 0.83070 0.80845
 H35 H 0.30591 0.89817 0.82831
 H36 H 0.29477 0.84025 0.89113
 H37 H 0.32670 0.80521 0.89677
 H38 H 0.39374 0.79818 0.84314
 C39 C 0.83914 1.36978 0.83198
 C40 C 0.85390 1.37999 0.81050
 C41 C 0.87841 1.36841 0.80264
 C42 C 0.88722 1.34544 0.81638
 C43 C 0.87282 1.33526 0.83816
 C44 C 0.84876 1.34748 0.84602
 C45 C 0.81471 1.38138 0.83936
 C46 C 0.79928 1.37061 0.86032
 C47 C 0.80963 1.34882 0.87472
 C48 C 0.83402 1.33705 0.86758
 C49 C 0.84362 1.31470 0.88140
 C50 C 0.86799 1.30261 0.87414
 C51 C 0.88199 1.31274 0.85195
 H52 H 0.84602 1.39686 0.79950
 H53 H 0.90490 1.33483 0.81008
 H54 H 0.80816 1.39895 0.82880
 H55 H 0.79847 1.34085 0.89146
 H56 H 0.83156 1.30641 0.89726
 H57 H 0.90009 1.30294 0.84526
 C58 C 0.83702 0.86805 0.33048
 C59 C 0.85091 0.87716 0.30797
 C60 C 0.87408 0.86401 0.29875
 C61 C 0.88433 0.84280 0.31420
 C62 C 0.87072 0.83364 0.33688
 C63 C 0.84688 0.84612 0.34493
 C64 C 0.81311 0.88027 0.33837
 C65 C 0.79818 0.87025 0.36001
 C66 C 0.80875 0.84881 0.37482
 C67 C 0.83285 0.83661 0.36737
 C68 C 0.84285 0.81474 0.38170
 C69 C 0.86701 0.80238 0.37415
 C70 C 0.88047 0.81184 0.35135
 H71 H 0.84330 0.89429 0.29719
 H72 H 0.90305 0.83337 0.30910
 H73 H 0.80644 0.89758 0.32745
 H74 H 0.79800 0.84147 0.39210
 H75 H 0.83125 0.80704 0.39819
 H76 H 0.89839 0.80183 0.34453
 C77 C 0.66834 0.63146 0.33547
 C78 C 0.66048 0.61955 0.31139
 C79 C 0.64030 0.63106 0.29535
 C80 C 0.62681 0.65371 0.30524
 C81 C 0.63466 0.66595 0.32910
 C82 C 0.65558 0.65486 0.34421
 C83 C 0.68909 0.62050 0.35075
 C84 C 0.69725 0.63241 0.37487
 C85 C 0.68461 0.65612 0.38306
 C86 C 0.66377 0.66722 0.36805
 C87 C 0.65134 0.69084 0.37630
 C88 C 0.63093 0.70262 0.36097
 C89 C 0.62217 0.68941 0.33776
 H90 H 0.67004 0.60113 0.30563
 H91 H 0.61036 0.66220 0.29403
 H92 H 0.69931 0.60286 0.34360
 H93 H 0.69131 0.66660 0.40064
 H94 H 0.65772 0.70032 0.39464
 H95 H 0.60569 0.69707 0.32621
 C96 C 0.66588 0.12824 0.83877
 C97 C 0.65687 0.11549 0.81553
 C98 C 0.63506 0.12572 0.80095
 C99 C 0.62310 0.14957 0.80964
 C100 C 0.63206 0.16264 0.83264
 C101 C 0.65345 0.15189 0.84735
 C102 C 0.68742 0.11786 0.85333
 C103 C 0.69646 0.13024 0.87697
 C104 C 0.68421 0.15438 0.88480
 C105 C 0.66273 0.16507 0.87032
 C106 C 0.65071 0.18906 0.87823
 C107 C 0.62973 0.20043 0.86333
 C108 C 0.62011 0.18652 0.84088
 H109 H 0.66739 0.09797 0.80877
 H110 H 0.60694 0.15822 0.79814
 H111 H 0.69734 0.10010 0.84604
 H112 H 0.69165 0.16556 0.90165
 H113 H 0.65782 0.19911 0.89599
 H114 H 0.60319 0.19383 0.82973
 C115 C 1.16871 0.63098 0.83663
 C116 C 1.16080 0.61905 0.81258
 C117 C 1.14040 0.63038 0.79684
 C118 C 1.12693 0.65301 0.80657
 C119 C 1.13485 0.66531 0.83038
 C120 C 1.15588 0.65432 0.84543
 C121 C 1.18954 0.62007 0.85180
 C122 C 1.19774 0.63183 0.87606
 C123 C 1.18514 0.65572 0.88412
 C124 C 1.16418 0.66677 0.86917
 C125 C 1.15172 0.69042 0.87739
 C126 C 1.13115 0.70207 0.86216
 C127 C 1.12232 0.68874 0.83904
 H128 H 1.17049 0.60079 0.80655
 H129 H 1.11053 0.66139 0.79523
 H130 H 1.19974 0.60251 0.84441
 H131 H 1.19190 0.66642 0.90155
 H132 H 1.15818 0.70000 0.89565
 H133 H 1.10573 0.69627 0.82755
 C134 C 1.16737 0.13039 0.33733
 C135 C 1.15979 0.11930 0.31277
 C136 C 1.13924 0.13088 0.29725
 C137 C 1.12514 0.15273 0.30810
 C138 C 1.13251 0.16397 0.33262
 C139 C 1.15384 0.15289 0.34718
 C140 C 1.18857 0.11945 0.35203
 C141 C 1.19657 0.13051 0.37669
 C142 C 1.18342 0.15376 0.38563
 C143 C 1.16193 0.16461 0.37136
 C144 C 1.14862 0.18729 0.38083
 C145 C 1.12657 0.19799 0.36706
 C146 C 1.11911 0.18644 0.34255
 H147 H 1.16987 0.10143 0.30620
 H148 H 1.10839 0.16118 0.29732
 H149 H 1.19922 0.10246 0.34396
 H150 H 1.18999 0.16402 0.40340
 H151 H 1.15556 0.19671 0.39898
 H152 H 1.10337 0.19523 0.33068
 C153 C 0.66447 1.36900 0.66672
 C154 C 0.65187 1.37792 0.69010
 C155 C 0.62908 1.36488 0.70023
 C156 C 0.61822 1.34354 0.68560
 C157 C 0.63066 1.33434 0.66232
 C158 C 0.65387 1.34706 0.65283
 C159 C 0.68772 1.38149 0.65731
 C160 C 0.70050 1.37277 0.63371
 C161 C 0.69007 1.35008 0.62065
 C162 C 0.66673 1.33750 0.62975
 C163 C 0.65623 1.31530 0.61628
 C164 C 0.63256 1.30285 0.62519
 C165 C 0.62034 1.31234 0.64862
 H166 H 0.65987 1.39507 0.70049
 H167 H 0.59988 1.33410 0.69193
 H168 H 0.69605 1.39751 0.66905
 H169 H 0.70022 1.34203 0.60333
 H170 H 0.66693 1.30757 0.59921
 H171 H 0.60292 1.30224 0.65654
 C172 C 0.66087 0.87197 1.16464
 C173 C 0.64700 0.88249 1.18655
 C174 C 0.62271 0.87118 1.19538
 C175 C 0.61361 0.84776 1.18266
 C176 C 0.62729 0.83705 1.16070
 C177 C 0.65088 0.84930 1.15152
 C178 C 0.68477 0.88371 1.15590
 C179 C 0.69868 0.87351 1.13368
 C180 C 0.68883 0.85031 1.12125
 C181 C 0.66498 0.83832 1.12982
 C182 C 0.65516 0.81537 1.11717
 C183 C 0.63107 0.80340 1.12557
 C184 C 0.61782 0.81405 1.14797
 H185 H 0.65528 0.89956 1.19687
 H186 H 0.59621 0.83728 1.18996
 H187 H 0.69256 0.90047 1.16693
 H188 H 0.69985 0.84152 1.10485
 H189 H 0.66667 0.80671 1.10110
 H190 H 0.60008 0.80433 1.15563
 C191 C 1.16229 1.37016 1.16595
 C192 C 1.14777 1.38137 1.18709
 C193 C 1.12308 1.37055 1.19517
 C194 C 1.11356 1.34760 1.18212
 C195 C 1.12767 1.33644 1.16071
 C196 C 1.15212 1.34772 1.15257
 C197 C 1.18702 1.38088 1.15833
 C198 C 1.20251 1.36891 1.13802
 C199 C 1.19138 1.34712 1.12403
 C200 C 1.16657 1.33629 1.13137
 C201 C 1.15621 1.31393 1.11810
 C202 C 1.13141 1.30285 1.12563
 C203 C 1.11781 1.31388 1.14758
 H204 H 1.15598 1.39830 1.19769
 H205 H 1.09548 1.33788 1.18878
 H206 H 1.19379 1.39875 1.16825
 H207 H 1.20211 1.33843 1.10739
 H208 H 1.16791 1.30484 1.10240
 H209 H 1.09949 1.30480 1.15465
 C210 C 1.16714 0.86644 0.66897
 C211 C 1.15383 0.87663 0.69138
 C212 C 1.13032 0.86457 0.70102
 C213 C 1.11910 0.84341 0.68638
 C214 C 1.13202 0.83324 0.66376
 C215 C 1.15626 0.84459 0.65516
 C216 C 1.19142 0.87752 0.66054
 C217 C 1.20595 0.86628 0.63914
 C218 C 1.19410 0.84512 0.62479
 C219 C 1.16959 0.83409 0.63278
 C220 C 1.15845 0.81244 0.61898
 C221 C 1.13383 0.80130 0.62699
 C222 C 1.12118 0.81159 0.64987
 H223 H 1.16210 0.89371 0.70167
 H224 H 1.10016 0.83485 0.69224
 H225 H 1.19872 0.89496 0.67084
 H226 H 1.20403 0.83708 0.60734
 H227 H 1.16941 0.80394 0.60244
 H228 H 1.10303 0.80242 0.65725
 C229 C 0.33340 0.63023 0.66310
 C230 C 0.34230 0.61680 0.68600
 C231 C 0.36499 0.62573 0.70007
 C232 C 0.37813 0.64889 0.69111
 C233 C 0.36944 0.66251 0.66829
 C234 C 0.34704 0.65312 0.65420
 C235 C 0.31071 0.62142 0.64928
 C236 C 0.30105 0.63535 0.62685
 C237 C 0.31562 0.65752 0.61751
 C238 C 0.33817 0.66670 0.63128
 C239 C 0.35165 0.68965 0.62275
 C240 C 0.37347 0.69989 0.63721
 C241 C 0.38263 0.68562 0.65965
 H242 H 0.33091 0.59994 0.69304
 H243 H 0.39501 0.65656 0.70224
 H244 H 0.30027 0.60379 0.65617
 H245 H 0.30974 0.66783 0.59954
 H246 H 0.34479 0.70003 0.60506
 H247 H 0.40009 0.69203 0.67050
 C248 C 0.33062 0.13323 1.16651
 C249 C 0.33858 0.12085 1.19030
 C250 C 0.35973 0.13133 1.20575
 C251 C 0.37412 0.15325 1.19544
 C252 C 0.36637 0.16578 1.17169
 C253 C 0.34440 0.15587 1.15728
 C254 C 0.30867 0.12358 1.15207
 C255 C 0.29964 0.13671 1.12893
 C256 C 0.31437 0.15864 1.11931
 C257 C 0.33638 0.16846 1.13350
 C258 C 0.35011 0.19108 1.12453
 C259 C 0.37149 0.20184 1.13925
 C260 C 0.37998 0.18841 1.16246
 H261 H 0.32816 0.10300 1.19636
 H262 H 0.39121 0.16092 1.20627
 H263 H 0.29812 0.10612 1.15921
 H264 H 0.30905 0.16826 1.10079
 H265 H 0.34379 0.20080 1.10628
 H266 H 0.39706 0.19525 1.17363
 C267 C 0.83441 0.62964 1.16040
 C268 C 0.84164 0.61848 1.18502
 C269 C 0.86247 0.62957 1.20035
 C270 C 0.87700 0.65113 1.18967
 C271 C 0.87003 0.66245 1.16504
 C272 C 0.84853 0.65176 1.15044
 C273 C 0.81292 0.61925 1.14581
 C274 C 0.80517 0.63059 1.12128
 C275 C 0.81906 0.65315 1.11191
 C276 C 0.84080 0.66354 1.12614
 C277 C 0.85461 0.68587 1.11661
 C278 C 0.87673 0.69626 1.13049
 C279 C 0.88390 0.68463 1.15508
 H280 H 0.83103 0.60102 1.19183
 H281 H 0.89368 0.65930 1.20074
 H282 H 0.80180 0.60251 1.15379
 H283 H 0.81283 0.66323 1.09393
 H284 H 0.84792 0.69537 1.09839
 H285 H 0.89971 0.69318 1.16701
 C286 C 0.82910 0.13438 0.66694
 C287 C 0.83726 0.12192 0.69064
 C288 C 0.85855 0.13232 0.70595
 C289 C 0.87286 0.15426 0.69559
 C290 C 0.86495 0.16685 0.67190
 C291 C 0.84286 0.15699 0.65764
 C292 C 0.80704 0.12477 0.65265
 C293 C 0.79770 0.13797 0.62957
 C294 C 0.81268 0.15974 0.61977
 C295 C 0.83476 0.16954 0.63387
 C296 C 0.84856 0.19207 0.62475
 C297 C 0.87000 0.20284 0.63936
 C298 C 0.87857 0.18944 0.66257
 H299 H 0.82688 0.10406 0.69673
 H300 H 0.89006 0.16188 0.70628
 H301 H 0.79672 0.10719 0.65987
 H302 H 0.80756 0.16925 0.60113
 H303 H 0.84222 0.20172 0.60647
 H304 H 0.89577 0.19623 0.67359
 C305 C 1.36480 0.33204 0.67251
 C306 C 1.37290 0.34456 0.69615
 C307 C 1.35897 0.36679 0.70640
 C308 C 1.33800 0.37763 0.69093
 C309 C 1.32972 0.36532 0.66721
 C310 C 1.34302 0.34235 0.65810
 C311 C 1.37795 0.30909 0.66336
 C312 C 1.36907 0.29557 0.64027
 C313 C 1.34802 0.30701 0.62544
 C314 C 1.33478 0.32992 0.63435
 C315 C 1.31306 0.34023 0.62004
 C316 C 1.29874 0.36245 0.62956
 C317 C 1.30799 0.37541 0.65270
 H318 H 1.38993 0.33664 0.70692
 H319 H 1.32800 0.39574 0.69692
 H320 H 1.39509 0.30220 0.67445
 H321 H 1.34153 0.29763 0.60707
 H322 H 1.30761 0.33076 0.60148
 H323 H 1.29784 0.39314 0.65973
 C324 C 1.36667 0.83311 1.17057
 C325 C 1.37507 0.84592 1.19396
 C326 C 1.36141 0.86840 1.20381
 C327 C 1.34042 0.87918 1.18852
 C328 C 1.33182 0.86660 1.16511
 C329 C 1.34480 0.84335 1.15623
 C330 C 1.37952 0.80992 1.16167
 C331 C 1.37023 0.79604 1.13896
 C332 C 1.34902 0.80734 1.12421
 C333 C 1.33607 0.83054 1.13286
 C334 C 1.31414 0.84075 1.11875
 C335 C 1.30023 0.86334 1.12810
 C336 C 1.31001 0.87664 1.15079
 H337 H 1.39198 0.83803 1.20491
 H338 H 1.33059 0.89736 1.19455
 H339 H 1.39678 0.80313 1.17263
 H340 H 1.34220 0.79767 1.10611
 H341 H 1.30819 0.83091 1.10056
 H342 H 1.30012 0.89456 1.15769
 C343 C 0.86685 0.33396 1.16888
 C344 C 0.87479 0.34637 1.19266
 C345 C 0.86137 0.36909 1.20227
 C346 C 0.84107 0.38043 1.18645
 C347 C 0.83313 0.36839 1.16251
 C348 C 0.84587 0.34496 1.15380
 C349 C 0.87931 0.31045 1.16032
 C350 C 0.87034 0.29686 1.13731
 C351 C 0.84993 0.30879 1.12192
 C352 C 0.83758 0.33251 1.13006
 C353 C 0.81667 0.34364 1.11506
 C354 C 0.80406 0.36738 1.12331
 C355 C 0.81231 0.37929 1.14736
 H356 H 0.89115 0.33799 1.20406
 H357 H 0.83147 0.39878 1.19235
 H358 H 0.89601 0.30316 1.17181
 H359 H 0.84343 0.29936 1.10358
 H360 H 0.80989 0.33319 1.09749
 H361 H 0.80211 0.39692 1.15457
 C362 C 0.86880 0.83552 0.66775
 C363 C 0.87661 0.84717 0.69197
 C364 C 0.86228 0.86875 0.70291
 C365 C 0.84092 0.87960 0.68816
 C366 C 0.83268 0.86794 0.66416
 C367 C 0.84655 0.84577 0.65397
 C368 C 0.88258 0.81346 0.65739
 C369 C 0.87465 0.80164 0.63312
 C370 C 0.85195 0.81176 0.61999
 C371 C 0.83806 0.83378 0.63006
 C372 C 0.81553 0.84368 0.61675
 C373 C 0.80086 0.86522 0.62727
 C374 C 0.81036 0.87783 0.65048
 H375 H 0.89380 0.83929 0.70247
 H376 H 0.83052 0.89712 0.69512
 H377 H 0.89896 0.80518 0.66875
 H378 H 0.84472 0.80213 0.60206
 H379 H 0.80981 0.83459 0.59808
 H380 H 0.79992 0.89507 0.65828
 C381 C 0.63211 0.66797 0.66316
 C382 C 0.61822 0.65878 0.68567
 C383 C 0.62714 0.63620 0.69987
 C384 C 0.64933 0.62202 0.68999
 C385 C 0.66327 0.63084 0.66737
 C386 C 0.65474 0.65403 0.65403
 C387 C 0.62398 0.69123 0.64996
 C388 C 0.63853 0.70136 0.62813
 C389 C 0.66066 0.68675 0.61872
 C390 C 0.66893 0.66338 0.63166
 C391 C 0.69149 0.64945 0.62275
 C392 C 0.70013 0.62605 0.63564
 C393 C 0.68593 0.61711 0.65825
 H394 H 0.60050 0.66941 0.69178
 H395 H 0.65595 0.60417 0.70021
 H396 H 0.60651 0.70189 0.65702
 H397 H 0.67157 0.69308 0.60126
 H398 H 0.70271 0.65709 0.60589
 H399 H 0.69270 0.60000 0.66943
 C400 C 0.63247 1.17021 1.16395
 C401 C 0.61805 1.16065 1.18596
 C402 C 0.62707 1.13832 1.20047
 C403 C 0.64991 1.12471 1.19133
 C404 C 0.66451 1.13405 1.16936
 C405 C 0.65585 1.15700 1.15572
 C406 C 0.62409 1.19316 1.15040
 C407 C 0.63907 1.20380 1.12901
 C408 C 0.66181 1.18955 1.12025
 C409 C 0.67044 1.16659 1.13371
 C410 C 0.69380 1.15337 1.12576
 C411 C 0.70337 1.13108 1.13994
 C412 C 0.68793 1.12106 1.16123
 H413 H 0.59987 1.17082 1.19146
 H414 H 0.65666 1.10705 1.20181
 H415 H 0.60603 1.20319 1.15689
 H416 H 0.67304 1.19584 1.10299
 H417 H 0.70499 1.16077 1.10878
 H418 H 0.69377 1.10315 1.17162
 C419 C 0.12724 0.66553 1.16090
 C420 C 0.11272 0.65523 1.18256
 C421 C 0.12149 0.63221 1.19626
 C422 C 0.14599 0.62063 1.18842
 C423 C 0.16084 0.63095 1.16708
 C424 C 0.15135 0.65336 1.15313
 C425 C 0.11815 0.68813 1.14716
 C426 C 0.13222 0.69841 1.12497
 C427 C 0.15681 0.68640 1.11805
 C428 C 0.16628 0.66394 1.13179
 C429 C 0.19074 0.65219 1.12480
 C430 C 0.20090 0.63025 1.13911
 C431 C 0.18526 0.61934 1.15980
 H432 H 0.09499 0.66578 1.18883
 H433 H 0.15382 0.60372 1.19937
 H434 H 0.10006 0.69785 1.15397
 H435 H 0.16922 0.69478 1.10249
 H436 H 0.20205 0.66025 1.10821
 H437 H 0.19166 0.60163 1.17025
 C438 C 0.12892 1.16601 0.66170
 C439 C 0.11584 1.15736 0.68489
 C440 C 0.12590 1.13583 0.70004
 C441 C 0.14844 1.12205 0.69017
 C442 C 0.16163 1.13045 0.66697
 C443 C 0.15193 1.15260 0.65274
 C444 C 0.11948 1.18818 0.64755
 C445 C 0.13248 1.19720 0.62430
 C446 C 0.15590 1.18397 0.61594
 C447 C 0.16548 1.16161 0.62981
 C448 C 0.18864 1.14835 0.62131
 C449 C 0.19824 1.12572 0.63495
 C450 C 0.18469 1.11726 0.65812
 H451 H 0.09765 1.16743 0.69060
 H452 H 0.15590 1.10475 0.70077
 H453 H 0.10213 1.19880 0.65493
 H454 H 0.16720 1.19121 0.59905
 H455 H 0.19937 1.15573 0.60403
 H456 H 0.19231 1.10095 0.66995
 C457 C 1.37084 0.66730 0.33579
 C458 C 1.38548 0.65593 0.31475
 C459 C 1.37682 0.63221 0.30223
 C460 C 1.35232 0.62098 0.31057
 C461 C 1.33751 0.63217 0.33149
 C462 C 1.34688 0.65531 0.34425
 C463 C 1.37959 0.69082 0.34814
 C464 C 1.36460 0.70294 0.36875
 C465 C 1.34143 0.68971 0.37793
 C466 C 1.33222 0.66649 0.36543
 C467 C 1.30820 0.65460 0.37354
 C468 C 1.29785 0.63228 0.36007
 C469 C 1.31324 0.62070 0.33956
 H470 H 1.40314 0.66625 0.30788
 H471 H 1.34446 0.60361 0.30043
 H472 H 1.39811 0.69989 0.34153
 H473 H 1.33028 0.69709 0.39482
 H474 H 1.29717 0.66311 0.39009
 H475 H 1.30674 0.60258 0.32992
 C476 C 1.37327 1.16490 0.83899
 C477 C 1.38719 1.15397 0.81727
 C478 C 1.37734 1.13137 0.80378
 C479 C 1.35257 1.12068 0.81178
 C480 C 1.33830 1.13159 0.83323
 C481 C 1.34877 1.15367 0.84701
 C482 C 1.38334 1.18718 0.85252
 C483 C 1.36988 1.19803 0.87480
 C484 C 1.34491 1.18697 0.88199
 C485 C 1.33448 1.16485 0.86845
 C486 C 1.30969 1.15402 0.87579
 C487 C 1.29854 1.13247 0.86164
 C488 C 1.31354 1.12092 0.84083
 H489 H 1.40537 1.16358 0.81077
 H490 H 1.34416 1.10401 0.80093
 H491 H 1.40165 1.19623 0.84539
 H492 H 1.33303 1.19588 0.89766
 H493 H 1.29897 1.16246 0.89256
 H494 H 1.30632 1.10342 0.83057
 C495 C 0.87031 0.66612 0.83677
 C496 C 0.88494 0.65495 0.81565
 C497 C 0.87612 0.63152 0.80286
 C498 C 0.85177 0.62005 0.81109
 C499 C 0.83694 0.63100 0.83212
 C500 C 0.84631 0.65404 0.84510
 C501 C 0.87903 0.68951 0.84936
 C502 C 0.86403 0.70128 0.87004
 C503 C 0.84076 0.68821 0.87898
 C504 C 0.83159 0.66507 0.86633
 C505 C 0.80758 0.65312 0.87432
 C506 C 0.79729 0.63085 0.86070
 C507 C 0.81269 0.61944 0.84010
 H508 H 0.90272 0.66512 0.80889
 H509 H 0.84412 0.60271 0.80075
 H510 H 0.89746 0.69883 0.84286
 H511 H 0.82952 0.69574 0.89573
 H512 H 0.79651 0.66152 0.89089
 H513 H 0.80622 0.60140 0.83030
 C514 C 0.87167 1.16433 0.33747
 C515 C 0.88598 1.15346 0.31598
 C516 C 0.87793 1.12927 0.30396
 C517 C 0.85424 1.11707 0.31325
 C518 C 0.83989 1.12761 0.33483
 C519 C 0.84868 1.15128 0.34702
 C520 C 0.87974 1.18840 0.34923
 C521 C 0.86494 1.19996 0.37017
 C522 C 0.84253 1.18614 0.38010
 C523 C 0.83413 1.16221 0.36842
 C524 C 0.81110 1.14928 0.37764
 C525 C 0.80223 1.12539 0.36592
 C526 C 0.81662 1.11501 0.34408
 H527 H 0.90286 1.16450 0.30831
 H528 H 0.84674 1.09933 0.30349
 H529 H 0.89754 1.19833 0.34193
 H530 H 0.83153 1.19358 0.39706
 H531 H 0.79970 1.15808 0.39377
 H532 H 0.80965 1.09749 0.33371
 C533 C 0.63113 0.33811 0.33173
 C534 C 0.62241 0.35137 0.30870
 C535 C 0.63475 0.37512 0.29991
 C536 C 0.65696 0.38471 0.31443
 C537 C 0.66567 0.37179 0.33770
 C538 C 0.65271 0.34846 0.34639
 C539 C 0.61873 0.31445 0.34004
 C540 C 0.62802 0.30047 0.36262
 C541 C 0.64918 0.31148 0.37748
 C542 C 0.66169 0.33516 0.36945
 C543 C 0.68337 0.34541 0.38389
 C544 C 0.69621 0.36905 0.37576
 C545 C 0.68746 0.38168 0.35221
 H546 H 0.60610 0.34290 0.29728
 H547 H 0.66812 0.40183 0.30764
 H548 H 0.60176 0.30738 0.32884
 H549 H 0.65610 0.30134 0.39529
 H550 H 0.69051 0.33434 0.40094
 H551 H 0.69780 0.39928 0.34509
 C552 C 0.63146 0.83686 0.83200
 C553 C 0.62265 0.85056 0.80928
 C554 C 0.63569 0.87380 0.80037
 C555 C 0.65841 0.88272 0.81438
 C556 C 0.66742 0.86923 0.83719
 C557 C 0.65389 0.84627 0.84605
 C558 C 0.61839 0.81366 0.84061
 C559 C 0.62769 0.79934 0.86297
 C560 C 0.64953 0.80960 0.87737
 C561 C 0.66290 0.83262 0.86887
 C562 C 0.68548 0.84182 0.88258
 C563 C 0.69992 0.86409 0.87328
 C564 C 0.69013 0.87806 0.85094
 H565 H 0.60574 0.84290 0.79817
 H566 H 0.66975 0.89963 0.80736
 H567 H 0.60092 0.80722 0.82979
 H568 H 0.65651 0.79919 0.89500
 H569 H 0.69149 0.83145 0.90047
 H570 H 0.70049 0.89574 0.84407
 C571 C 0.13359 0.33382 0.82984
 C572 C 0.12602 0.34624 0.80593
 C573 C 0.13987 0.36868 0.79624
 C574 C 0.16038 0.37968 0.81206
 C575 C 0.16797 0.36762 0.83615
 C576 C 0.15471 0.34449 0.84495
 C577 C 0.12059 0.31062 0.83853
 C578 C 0.12909 0.29707 0.86176
 C579 C 0.14973 0.30864 0.87710
 C580 C 0.16262 0.33202 0.86882
 C581 C 0.18364 0.34278 0.88387
 C582 C 0.19677 0.36622 0.87557
 C583 C 0.18889 0.37820 0.85139
 H584 H 0.10958 0.33810 0.79449
 H585 H 0.17039 0.39778 0.80608
 H586 H 0.10386 0.30358 0.82696
 H587 H 0.15595 0.29918 0.89554
 H588 H 0.19005 0.33227 0.90154
 H589 H 0.19943 0.39566 0.84422
 C590 C 0.13260 0.83523 0.33171
 C591 C 0.12518 0.84702 0.30742
 C592 C 0.13999 0.86835 0.29639
 C593 C 0.16142 0.87880 0.31143
 C594 C 0.16930 0.86693 0.33549
 C595 C 0.15494 0.84503 0.34560
 C596 C 0.11827 0.81346 0.34203
 C597 C 0.12562 0.80152 0.36653
 C598 C 0.14860 0.81119 0.37965
 C599 C 0.16301 0.83288 0.36958
 C600 C 0.18566 0.84230 0.38302
 C601 C 0.20083 0.86354 0.37259
 C602 C 0.19173 0.87636 0.34931
 H603 H 0.10784 0.83943 0.29694
 H604 H 0.17217 0.89626 0.30482
 H605 H 0.10193 0.80555 0.33038
 H606 H 0.15568 0.80147 0.39762
 H607 H 0.19106 0.83310 0.40174
 H608 H 0.20257 0.89338 0.34158
 O609 O 0.96674 0.90455 0.86919
 O610 O 0.96502 0.87378 0.83788
 C611 C 0.95635 0.89528 0.84804
 C612 C 0.93344 0.90921 0.83564
 C613 C 0.92262 0.90010 0.81149
 H614 H 0.93207 0.88364 0.80120
 O615 O 1.01662 1.09695 0.86593
 O616 O 1.01430 1.12816 0.83505
 C617 C 1.02438 1.10665 0.84383
 C618 C 1.04619 1.09345 0.82883
 C619 C 1.05584 1.10466 0.80501
 H620 H 1.04553 1.12165 0.79681
 O621 O 0.86165 0.97328 0.91284
 O622 O 0.82859 0.97281 0.88380
 C623 C 0.83963 0.96370 0.90472
 C624 C 0.82732 0.94104 0.91916
 C625 C 0.80352 0.92953 0.90986
 H626 H 0.79337 0.93823 0.89289
 O627 O 1.12686 1.02810 0.89520
 O628 O 1.15607 1.02839 0.86225
 C629 C 1.14794 1.03734 0.88451
 C630 C 1.16265 1.05922 0.89779
 C631 C 1.18684 1.06873 0.88722
 H632 H 1.19539 1.05856 0.87028
 O633 O 0.90391 0.86668 0.98036
 O634 O 0.87322 0.83524 0.98243
 C635 C 0.89406 0.84501 0.97176
 C636 C 0.90640 0.83164 0.94846
 C637 C 0.89570 0.80778 0.93849
 H638 H 0.87967 0.79827 0.94934
 O639 O 1.09381 1.13305 0.96790
 O640 O 1.12466 1.16433 0.96596
 C641 C 1.10256 1.15470 0.95811
 C642 C 1.08735 1.16830 0.93670
 C643 C 1.09693 1.19206 0.92541
 H644 H 1.11467 1.20128 0.93359
 O645 O 0.89502 1.02589 0.87416
 O646 O 0.86199 1.02556 0.84509
 C647 C 0.88414 1.03493 0.85314
 C648 C 0.89699 1.05709 0.83841
 C649 C 0.88601 1.06649 0.81441
 H650 H 0.86918 1.05602 0.80605
 O651 O 1.08842 0.97582 0.86121
 O652 O 1.11755 0.97604 0.82818
 C653 C 1.09668 0.96659 0.83910
 C654 C 1.08253 0.94390 0.82660
 C655 C 1.09242 0.93232 0.80309
 H656 H 1.10953 0.94111 0.79320
 O657 O 1.02133 0.86819 0.90201
 O658 O 1.01946 0.83720 0.87091
 C659 C 1.03003 0.84667 0.89189
 C660 C 1.05333 0.83315 0.90406
 C661 C 1.06319 0.80929 0.89325
 H662 H 1.05222 0.79990 0.87728
 O663 O 0.96686 1.13299 0.90609
 O664 O 0.96456 1.16428 0.87529
 C665 C 0.95706 1.15471 0.89754
 C666 C 0.93628 1.16859 0.91334
 C667 C 0.92645 1.19349 0.90523
 H668 H 0.93460 1.20287 0.88753
 O669 O 0.86491 1.09553 0.98261
 O670 O 0.83362 1.12635 0.98485
 C671 C 0.84258 1.10484 0.97496
 C672 C 0.82731 1.09082 0.95386
 C673 C 0.80257 1.10074 0.94503
 H674 H 0.79480 1.11869 0.95401
 O675 O 1.13225 0.90550 0.96530
 O676 O 1.16385 0.87498 0.96308
 C677 C 1.15351 0.89655 0.95475
 C678 C 1.16581 0.91095 0.93205
 C679 C 1.18990 0.90203 0.92082
 H680 H 1.20019 0.88523 0.92969
 O681 O 0.96453 1.09660 0.86947
 O682 O 0.96215 1.12774 0.83853
 C683 C 0.95385 1.10598 0.84851
 C684 C 0.93105 1.09181 0.83614
 C685 C 0.91977 1.10097 0.81219
 H686 H 0.92864 1.11785 0.80205
 O687 O 1.01881 0.90500 0.86600
 O688 O 1.01709 0.87403 0.83489
 C689 C 1.02678 0.89562 0.84386
 C690 C 1.04838 0.90927 0.82896
 C691 C 1.05849 0.89808 0.80536
 H692 H 1.04860 0.88084 0.79718
 O693 O 1.12702 0.97621 0.89547
 O694 O 1.15623 0.97652 0.86252
 C695 C 1.14821 0.96732 0.88475
 C696 C 1.16320 0.94549 0.89785
 C697 C 1.18737 0.93632 0.88694
 H698 H 1.19559 0.94677 0.87003
 O699 O 0.86078 1.02537 0.91289
 O700 O 0.82765 1.02499 0.88393
 C701 C 0.83841 1.03428 0.90490
 C702 C 0.82528 1.05625 0.91967
 C703 C 0.80060 1.06644 0.91115
 H704 H 0.79089 1.05770 0.89396
 O705 O 0.90130 1.13223 0.98067
 O706 O 0.87014 1.16319 0.98301
 C707 C 0.89129 1.15398 0.97244
 C708 C 0.90410 1.16829 0.94995
 C709 C 0.89445 1.19320 0.94149
 H710 H 0.87758 1.20171 0.95181
 O711 O 1.09610 0.86862 0.96723
 O712 O 1.12761 0.83801 0.96486
 C713 C 1.10524 0.84723 0.95725
 C714 C 1.09011 0.83345 0.93598
 C715 C 1.09966 0.80958 0.92493
 H716 H 1.11740 0.80042 0.93321
 O717 O 1.08782 1.02792 0.86132
 O718 O 1.11694 1.02827 0.82830
 C719 C 1.09586 1.03728 0.83918
 C720 C 1.08114 1.05959 0.82657
 C721 C 1.09051 1.07112 0.80281
 H722 H 1.10772 1.06260 0.79287
 O723 O 0.89565 0.97395 0.87393
 O724 O 0.86267 0.97362 0.84480
 C725 C 0.88505 0.96478 0.85283
 C726 C 0.89853 0.94307 0.83799
 C727 C 0.88794 0.93364 0.81382
 H728 H 0.87090 0.94376 0.80540
 O729 O 1.01888 1.13308 0.90249
 O730 O 1.01660 1.16433 0.87165
 C731 C 1.02737 1.15474 0.89250
 C732 C 1.05065 1.16832 0.90465
 C733 C 1.06058 1.19206 0.89359
 H734 H 1.04970 1.20129 0.87745
 O735 O 0.96927 0.86788 0.90551
 O736 O 0.96740 0.83703 0.87429
 C737 C 0.95962 0.84627 0.89656
 C738 C 0.93845 0.83228 0.91173
 C739 C 0.92753 0.80839 0.90212
 H740 H 0.93591 0.79934 0.88439
 O741 O 1.13102 1.09728 0.96579
 O742 O 1.16195 1.12851 0.96411
 C743 C 1.15213 1.10686 0.95545
 C744 C 1.16477 1.09312 0.93257
 C745 C 1.18893 1.10239 0.92173
 H746 H 1.19913 1.11892 0.93115
 O747 O 0.86734 0.90289 0.98283
 O748 O 0.83661 0.87149 0.98481
 C749 C 0.84528 0.89318 0.97499
 C750 C 0.83009 0.90663 0.95349
 C751 C 0.80620 0.89548 0.94395
 H752 H 0.79817 0.87833 0.95411
 Cu753 Cu 0.99418 0.88949 0.88882
 Cu754 Cu 0.99202 0.85241 0.85135
 Cu755 Cu 0.99188 1.11177 0.88908
 Cu756 Cu 0.98910 1.14925 0.85201
 Cu757 Cu 0.88156 0.99967 0.89639
 Cu758 Cu 0.84187 0.99922 0.86153
 Cu759 Cu 1.10457 1.00201 0.88157
 Cu760 Cu 1.13956 1.00234 0.84194
 C761 C 0.92131 0.93077 0.84868
 H762 H 0.92928 0.93762 0.86754
 C763 C 0.89938 0.91160 0.80067
 C764 C 1.05890 1.07085 0.83937
 H765 H 1.05191 1.06245 0.85802
 C766 C 1.07863 1.09424 0.79223
 C767 C 0.84041 0.92948 0.94105
 H768 H 0.85910 0.93786 0.94798
 C769 C 0.79314 0.90620 0.92151
 C770 C 1.15186 1.07148 0.92049
 H771 H 1.13300 1.06452 0.92846
 C772 C 1.19990 1.09086 0.89857
 C773 C 0.92780 0.84370 0.93496
 H774 H 0.93579 0.86238 0.94221
 C775 C 0.90543 0.79642 0.91469
 C776 C 1.06415 1.15663 0.92622
 H777 H 1.05692 1.13804 0.93449
 C778 C 1.08433 1.20367 0.90315
 C779 C 0.91955 1.06981 0.84904
 H780 H 0.92784 1.06291 0.86776
 C781 C 0.89677 1.08895 0.80139
 C782 C 1.06046 0.93224 0.83937
 H783 H 1.05311 0.94064 0.85786
 C784 C 1.08123 0.90877 0.79276
 C785 C 1.06689 0.84503 0.92544
 H786 H 1.05969 0.86370 0.93353
 C787 C 1.08695 0.79773 0.90289
 C788 C 0.92526 1.15637 0.93597
 H789 H 0.93253 1.13701 0.94217
 C790 C 0.90589 1.20637 0.91942
 C791 C 0.83824 1.06832 0.94133
 H792 H 0.85747 1.06080 0.94778
 C793 C 0.78863 1.08833 0.92402
 C794 C 1.15266 0.93276 0.92046
 H795 H 1.13381 0.93946 0.92868
 C796 C 1.20064 0.91408 0.89782
 O797 O 1.03645 0.90349 1.13102
 O798 O 1.03855 0.87232 1.16196
 C799 C 1.04687 0.89413 1.15213
 C800 C 1.06938 0.90836 1.16488
 C801 C 1.08028 0.89917 1.18897
 H802 H 1.07115 0.88236 1.19900
 O803 O 0.98266 1.09533 1.13517
 O804 O 0.98427 1.12636 1.16622
 C805 C 0.97478 1.10459 1.15740
 C806 C 0.95384 1.09027 1.17268
 C807 C 0.94508 1.09995 1.19750
 H808 H 0.95405 1.11788 1.20532
 O809 O 0.87423 1.02478 1.10479
 O810 O 0.84510 1.02446 1.13781
 C811 C 0.85308 1.03369 1.11558
 C812 C 0.83802 1.05547 1.10247
 C813 C 0.81377 1.06451 1.11330
 H814 H 0.80565 1.05410 1.13027
 O815 O 1.13931 0.97464 1.08855
 O816 O 1.17253 0.97470 1.11741
 C817 C 1.16156 0.96545 1.09652
 C818 C 1.17421 0.94307 1.08191
 C819 C 1.19789 0.93140 1.09142
 H820 H 1.20770 0.93975 1.10876
 O821 O 1.09961 0.86788 1.01916
 O822 O 1.13090 0.83706 1.01679
 C823 C 1.10975 0.84618 1.02740
 C824 C 1.09713 0.83190 1.05002
 C825 C 1.10677 0.80696 1.05844
 H826 H 1.12349 0.79835 1.04795
 O827 O 0.90470 1.13158 1.03263
 O828 O 0.87340 1.16240 1.03502
 C829 C 0.89569 1.15300 1.04269
 C830 C 0.91081 1.16659 1.06414
 C831 C 0.90129 1.19051 1.07512
 H832 H 0.88373 1.19981 1.06663
 O833 O 0.91323 0.97260 1.13845
 O834 O 0.88400 0.97199 1.17137
 C835 C 0.90508 0.96302 1.16045
 C836 C 0.91970 0.94057 1.17291
 C837 C 0.91032 0.92902 1.19664
 H838 H 0.89310 0.93752 1.20660
 O839 O 1.10506 1.02645 1.12756
 O840 O 1.13819 1.02663 1.15653
 C841 C 1.11586 1.03565 1.14855
 C842 C 1.10269 1.05766 1.16327
 C843 C 1.11339 1.06709 1.18738
 H844 H 1.13026 1.05675 1.19588
 O845 O 0.98272 0.86671 1.09735
 O846 O 0.98498 0.83532 1.12807
 C847 C 0.97445 0.84483 1.10708
 C848 C 0.95194 0.83069 1.09421
 C849 C 0.94360 0.80568 1.10364
 H850 H 0.95403 0.79702 1.12034
 O851 O 1.03160 1.13260 1.09510
 O852 O 1.03331 1.16383 1.12595
 C853 C 1.04101 1.15447 1.10368
 C854 C 1.06158 1.16871 1.08782
 C855 C 1.07129 1.19366 1.09601
 H856 H 1.06325 1.20284 1.11383
 O857 O 0.87049 0.90271 1.03476
 O858 O 0.83955 0.87151 1.03677
 C859 C 0.84932 0.89331 1.04512
 C860 C 0.83622 0.90779 1.06728
 C861 C 0.81101 0.89991 1.07670
 H862 H 0.80109 0.88307 1.06757
 O863 O 1.13353 1.09675 1.01786
 O864 O 1.16421 1.12821 1.01617
 C865 C 1.15552 1.10648 1.02587
 C866 C 1.17063 1.09304 1.04745
 C867 C 1.19449 1.10421 1.05700
 H868 H 1.20252 1.12133 1.04680
 O869 O 1.03473 1.09635 1.13187
 O870 O 1.03643 1.12740 1.16289
 C871 C 1.04520 1.10585 1.15290
 C872 C 1.06821 1.09202 1.16536
 C873 C 1.07922 1.10121 1.18944
 H874 H 1.07001 1.11788 1.19959
 O875 O 0.98436 0.90318 1.13367
 O876 O 0.98640 0.87186 1.16447
 C877 C 0.97640 0.89341 1.15566
 C878 C 0.95455 0.90663 1.17058
 C879 C 0.94492 0.89543 1.19439
 H880 H 0.95523 0.87844 1.20257
 O881 O 1.13886 1.02673 1.08850
 O882 O 1.17209 1.02698 1.11733
 C883 C 1.16099 1.03616 1.09646
 C884 C 1.17334 1.05874 1.08192
 C885 C 1.19708 1.07033 1.09126
 H886 H 1.20714 1.06177 1.10836
 O887 O 0.87405 0.97287 1.10475
 O888 O 0.84468 0.97259 1.13756
 C889 C 0.85281 0.96375 1.11524
 C890 C 0.83779 0.94233 1.10149
 C891 C 0.81250 0.93422 1.11063
 H892 H 0.80418 0.94383 1.12803
 O893 O 1.09689 1.13314 1.01992
 O894 O 1.12752 1.16464 1.01794
 C895 C 1.10652 1.15496 1.02838
 C896 C 1.09355 1.16889 1.05099
 C897 C 1.10306 1.19376 1.05956
 H898 H 1.11992 1.20239 1.04929
 O899 O 0.90756 0.86659 1.03228
 O900 O 0.87683 0.83520 1.03440
 C901 C 0.89909 0.84476 1.04191
 C902 C 0.91505 0.83071 1.06242
 C903 C 0.90705 0.80567 1.07203
 H904 H 0.88929 0.79637 1.06398
 O905 O 1.10546 0.97445 1.12757
 O906 O 1.13857 0.97458 1.15656
 C907 C 1.11637 0.96532 1.14855
 C908 C 1.10345 0.94310 1.16315
 C909 C 1.11419 0.93355 1.18723
 H910 H 1.13099 0.94391 1.19584
 O911 O 0.91287 1.02470 1.13920
 O912 O 0.88386 1.02421 1.17232
 C913 C 0.90484 1.03359 1.16154
 C914 C 0.91964 1.05557 1.17467
 C915 C 0.91122 1.06555 1.19945
 H916 H 0.89407 1.05670 1.20920
 O917 O 0.97954 1.13179 1.09879
 O918 O 0.98119 1.16293 1.12972
 C919 C 0.97066 1.15328 1.10879
 C920 C 0.94731 1.16669 1.09648
 C921 C 0.93739 1.19057 1.10722
 H922 H 0.94819 1.19994 1.12333
 O923 O 1.03467 0.86735 1.09410
 O924 O 1.03690 0.83605 1.12490
 C925 C 1.04449 0.84565 1.10270
 C926 C 1.06528 0.83177 1.08691
 C927 C 1.07510 0.80687 1.09501
 H928 H 1.06704 0.79754 1.11277
 O929 O 1.13510 0.90531 1.01734
 O930 O 1.16647 0.87455 1.01515
 C931 C 1.15732 0.89594 1.02516
 C932 C 1.17213 0.90931 1.04694
 C933 C 1.19596 0.89817 1.05656
 H934 H 1.20433 0.88137 1.04611
 O935 O 0.86848 1.09492 1.03456
 O936 O 0.83705 1.12561 1.03688
 C937 C 0.84734 1.10401 1.04521
 C938 C 0.83515 1.08974 1.06803
 C939 C 0.81100 1.09856 1.07919
 H940 H 0.80060 1.11524 1.07022
 Cu941 Cu 1.00940 0.88833 1.11095
 Cu942 Cu 1.01197 0.85079 1.14799
 Cu943 Cu 1.00702 1.11091 1.11215
 Cu944 Cu 1.00899 1.14825 1.14929
 Cu945 Cu 0.89043 0.88785 1.00745
 Cu946 Cu 0.85347 0.85020 1.00991
 Cu947 Cu 1.11260 0.88989 0.99246
 Cu948 Cu 1.15041 0.85311 0.98973
 Cu949 Cu 0.88797 1.11048 1.00733
 Cu950 Cu 0.85041 1.14749 1.01015
 Cu951 Cu 1.11074 1.11190 0.99302
 Cu952 Cu 1.14768 1.14956 0.99089
 Cu953 Cu 0.89654 0.99878 1.11853
 Cu954 Cu 0.86155 0.99829 1.15814
 Cu955 Cu 1.11887 1.00054 1.10516
 Cu956 Cu 1.15872 1.00075 1.13981
 C957 C 1.08103 0.93040 1.15222
 H958 H 1.07296 0.93733 1.13341
 C959 C 1.10320 0.91105 1.20005
 C960 C 0.94127 1.06781 1.16168
 H961 H 0.94764 1.06048 1.14238
 C962 C 0.92417 1.08736 1.21149
 C963 C 0.84846 1.06811 1.07977
 H964 H 0.86735 1.06147 1.07159
 C965 C 0.80029 1.08653 1.10221
 C966 C 1.16148 0.93184 1.05964
 H967 H 1.14284 0.94023 1.05258
 C968 C 1.20850 0.90830 1.07952
 C969 C 1.07615 0.84391 1.06417
 H970 H 1.06886 0.86326 1.05798
 C971 C 1.09549 0.79387 1.08065
 C972 C 0.93388 1.15487 1.07493
 H973 H 0.94108 1.13618 1.06689
 C974 C 0.91378 1.20224 1.09734
 C975 C 0.94189 0.92926 1.16005
 H976 H 0.94890 0.93768 1.14142
 C977 C 0.92218 0.90588 1.20719
 C978 C 1.08008 1.07019 1.15250
 H979 H 1.07199 1.06326 1.13372
 C980 C 1.10228 1.08939 1.20040
 C981 C 0.93778 0.84284 1.07335
 H982 H 0.94390 0.86229 1.06625
 C983 C 0.92146 0.79260 1.09230
 C984 C 1.07256 1.15672 1.06501
 H985 H 1.06542 1.13736 1.05871
 C986 C 1.09166 1.20677 1.08168
 C987 C 0.84923 0.92927 1.07954
 H988 H 0.86880 0.93527 1.07253
 C989 C 0.79841 0.91354 1.09781
 C990 C 1.16029 1.07022 1.05994
 H991 H 1.14162 1.06181 1.05299
 C992 C 1.20748 1.09362 1.07954
 O993 O 0.96592 0.40470 0.36802
 O994 O 0.96408 0.37409 0.33655
 C995 C 0.95548 0.39556 0.34683
 C996 C 0.93262 0.40969 0.33455
 C997 C 0.92160 0.40078 0.31041
 H998 H 0.93070 0.38413 0.30010
 O999 O 1.01677 0.59733 0.36523
 O1000 O 1.01456 0.62848 0.33428
 C1001 C 1.02445 0.60685 0.34303
 C1002 C 1.04561 0.59296 0.32769
 C1003 C 1.05413 0.60281 0.30285
 H1004 H 1.04484 0.62059 0.29503
 O1005 O 0.86157 0.47416 0.41210
 O1006 O 0.82835 0.47417 0.38324
 C1007 C 0.83933 0.46494 0.40414
 C1008 C 0.82650 0.44275 0.41887
 C1009 C 0.80178 0.43259 0.41050
 H1010 H 0.79187 0.44146 0.39347
 O1011 O 1.12638 0.52787 0.39488
 O1012 O 1.15551 0.52804 0.36186
 C1013 C 1.14742 0.53707 0.38411
 C1014 C 1.16219 0.55899 0.39721
 C1015 C 1.18649 0.56815 0.38663
 H1016 H 1.19503 0.55759 0.36995
 O1017 O 0.90297 0.36686 0.47911
 O1018 O 0.87213 0.33558 0.48110
 C1019 C 0.89304 0.34525 0.47046
 C1020 C 0.90538 0.33185 0.44715
 C1021 C 0.89481 0.30787 0.43730
 H1022 H 0.87886 0.29831 0.44824
 O1023 O 1.09376 0.63409 0.46711
 O1024 O 1.12456 0.66543 0.46511
 C1025 C 1.10234 0.65589 0.45746
 C1026 C 1.08658 0.66985 0.43668
 C1027 C 1.09484 0.69468 0.42672
 H1028 H 1.11265 0.70395 0.43472
 O1029 O 0.89513 0.52663 0.37328
 O1030 O 0.86202 0.52654 0.34429
 C1031 C 0.88425 0.53574 0.35227
 C1032 C 0.89727 0.55773 0.33743
 C1033 C 0.88679 0.56667 0.31301
 H1034 H 0.87014 0.55603 0.30450
 O1035 O 1.08769 0.47575 0.36090
 O1036 O 1.11680 0.47591 0.32787
 C1037 C 1.09576 0.46671 0.33866
 C1038 C 1.08092 0.44485 0.32552
 C1039 C 1.08926 0.43511 0.30066
 H1040 H 1.10648 0.44395 0.29103
 O1041 O 1.02033 0.36812 0.40078
 O1042 O 1.01842 0.33724 0.36958
 C1043 C 1.02886 0.34653 0.39072
 C1044 C 1.05152 0.33245 0.40344
 C1045 C 1.06006 0.30757 0.39389
 H1046 H 1.04974 0.29896 0.37709
 O1047 O 0.96711 0.63333 0.40545
 O1048 O 0.96469 0.66462 0.37465
 C1049 C 0.95726 0.65505 0.39694
 C1050 C 0.93656 0.66891 0.41290
 C1051 C 0.92662 0.69381 0.40490
 H1052 H 0.93455 0.70319 0.38712
 O1053 O 0.86562 0.59616 0.48270
 O1054 O 0.83439 0.62704 0.48501
 C1055 C 0.84332 0.60554 0.47507
 C1056 C 0.82806 0.59160 0.45391
 C1057 C 0.80334 0.60157 0.44507
 H1058 H 0.79556 0.61949 0.45411
 O1059 O 1.13127 0.40490 0.46431
 O1060 O 1.16266 0.37419 0.46198
 C1061 C 1.15255 0.39595 0.45385
 C1062 C 1.16534 0.41082 0.43172
 C1063 C 1.19036 0.40302 0.42177
 H1064 H 1.20048 0.38611 0.43060
 O1065 O 0.96474 0.59721 0.36864
 O1066 O 0.96243 0.62830 0.33764
 C1067 C 0.95411 0.60657 0.34762
 C1068 C 0.93143 0.59233 0.33515
 C1069 C 0.92069 0.60103 0.31079
 H1070 H 0.92989 0.61762 0.30046
 O1071 O 1.01791 0.40502 0.36476
 O1072 O 1.01615 0.37430 0.33340
 C1073 C 1.02574 0.39591 0.34245
 C1074 C 1.04669 0.41027 0.32728
 C1075 C 1.05533 0.40082 0.30234
 H1076 H 1.04631 0.38299 0.29431
 O1077 O 1.12669 0.47593 0.39490
 O1078 O 1.15593 0.47616 0.36198
 C1079 C 1.14794 0.46706 0.38426
 C1080 C 1.16317 0.44561 0.39774
 C1081 C 1.18826 0.43754 0.38806
 H1082 H 1.19620 0.44725 0.37055
 O1083 O 0.86142 0.52622 0.41251
 O1084 O 0.82824 0.52623 0.38361
 C1085 C 0.83911 0.53531 0.40461
 C1086 C 0.82608 0.55721 0.41954
 C1087 C 0.80145 0.56746 0.41102
 H1088 H 0.79178 0.55885 0.39374
 O1089 O 0.90214 0.63259 0.48069
 O1090 O 0.87105 0.66361 0.48317
 C1091 C 0.89212 0.65434 0.47248
 C1092 C 0.90476 0.66859 0.44987
 C1093 C 0.89501 0.69347 0.44151
 H1094 H 0.87821 0.70194 0.45198
 O1095 O 1.09508 0.36793 0.46615
 O1096 O 1.12629 0.33703 0.46365
 C1097 C 1.10393 0.34639 0.45621
 C1098 C 1.08825 0.33243 0.43543
 C1099 C 1.09646 0.30752 0.42569
 H1100 H 1.11423 0.29825 0.43380
 O1101 O 1.08746 0.52775 0.36087
 O1102 O 1.11649 0.52793 0.32778
 C1103 C 1.09539 0.53694 0.33862
 C1104 C 1.08031 0.55880 0.32562
 C1105 C 1.08853 0.56895 0.30084
 H1106 H 1.10578 0.56035 0.29104
 O1107 O 0.89566 0.47467 0.37320
 O1108 O 0.86251 0.47464 0.34426
 C1109 C 0.88488 0.46564 0.35214
 C1110 C 0.89811 0.44392 0.33715
 C1111 C 0.88740 0.43479 0.31294
 H1112 H 0.87045 0.44518 0.30470
 O1113 O 1.01902 0.63372 0.40169
 O1114 O 1.01667 0.66501 0.37090
 C1115 C 1.02731 0.65552 0.39185
 C1116 C 1.04991 0.66965 0.40461
 C1117 C 1.05852 0.69444 0.39484
 H1118 H 1.04830 0.70291 0.37790
 O1119 O 0.96833 0.36800 0.40420
 O1120 O 0.96636 0.33726 0.37287
 C1121 C 0.95860 0.34645 0.39518
 C1122 C 0.93741 0.33247 0.41037
 C1123 C 0.92663 0.30847 0.40090
 H1124 H 0.93509 0.29936 0.38324
 O1125 O 1.13069 0.59797 0.46462
 O1126 O 1.16164 0.62915 0.46271
 C1127 C 1.15175 0.60748 0.45417
 C1128 C 1.16433 0.59347 0.43140
 C1129 C 1.18855 0.60248 0.42047
 H1130 H 1.19874 0.61920 0.42955
 O1131 O 0.86644 0.40325 0.48161
 O1132 O 0.83546 0.37208 0.48344
 C1133 C 0.84423 0.39382 0.47382
 C1134 C 0.82884 0.40796 0.45287
 C1135 C 0.80406 0.39807 0.44417
 H1136 H 0.79639 0.38007 0.45313
 Cu1137 Cu 0.99332 0.38954 0.38757
 Cu1138 Cu 0.99109 0.35263 0.34995
 Cu1139 Cu 0.99211 0.61226 0.38832
 Cu1140 Cu 0.98933 0.64972 0.35125
 Cu1141 Cu 0.88177 0.50043 0.39567
 Cu1142 Cu 0.84191 0.50039 0.36099
 Cu1143 Cu 1.10414 0.50179 0.38120
 Cu1144 Cu 1.13908 0.50200 0.34152
 C1145 C 0.92078 0.43133 0.34770
 H1146 H 0.92887 0.43802 0.36658
 C1147 C 0.89857 0.41274 0.29961
 C1148 C 1.05855 0.57068 0.33867
 H1149 H 1.05233 0.56320 0.35797
 C1150 C 1.07524 0.59057 0.28884
 C1151 C 0.83967 0.43056 0.44036
 H1152 H 0.85893 0.43807 0.44669
 C1153 C 0.78995 0.41060 0.42332
 C1154 C 1.15136 0.57169 0.41964
 H1155 H 1.13243 0.56492 0.42765
 C1156 C 1.19959 0.59042 0.39761
 C1157 C 0.92670 0.34395 0.43355
 H1158 H 0.93459 0.36272 0.44070
 C1159 C 0.90464 0.29640 0.41359
 C1160 C 1.06383 0.65772 0.42577
 H1161 H 1.05749 0.63844 0.43312
 C1162 C 1.08065 0.70755 0.40614
 C1163 C 0.91962 0.57062 0.34825
 H1164 H 0.92754 0.56407 0.36726
 C1165 C 0.89794 0.58881 0.29972
 C1166 C 1.05932 0.43259 0.33847
 H1167 H 1.05302 0.43977 0.35785
 C1168 C 1.07621 0.41353 0.28843
 C1169 C 1.06551 0.34451 0.42446
 H1170 H 1.05921 0.36385 0.43167
 C1171 C 1.08218 0.29449 0.40532
 C1172 C 0.92578 0.65668 0.43567
 H1173 H 0.93312 0.63733 0.44182
 C1174 C 0.90616 0.70665 0.41932
 C1175 C 0.83901 0.56915 0.44128
 H1176 H 0.85822 0.56158 0.44771
 C1177 C 0.78947 0.58929 0.42394
 C1178 C 1.15211 0.43240 0.41983
 H1179 H 1.13266 0.43835 0.42721
 C1180 C 1.20248 0.41667 0.40039
 O1181 O 1.03591 0.40364 0.62981
 O1182 O 1.03828 0.37251 0.66076
 C1183 C 1.04662 0.39423 0.65075
 C1184 C 1.06943 0.40840 0.66311
 C1185 C 1.08043 0.39952 0.68729
 H1186 H 1.07144 0.38277 0.69754
 O1187 O 0.98297 0.59506 0.63431
 O1188 O 0.98478 0.62591 0.66553
 C1189 C 0.97510 0.60429 0.65655
 C1190 C 0.95391 0.59016 0.67170
 C1191 C 0.94502 0.60004 0.69639
 H1192 H 0.95404 0.61796 0.70418
 O1193 O 0.87391 0.52444 0.60412
 O1194 O 0.84460 0.52420 0.63697
 C1195 C 0.85264 0.53330 0.61472
 C1196 C 0.83741 0.55468 0.60118
 C1197 C 0.81227 0.56264 0.61078
 H1198 H 0.80434 0.55293 0.62829
 O1199 O 1.13980 0.47433 0.58608
 O1200 O 1.17299 0.47430 0.61498
 C1201 C 1.16199 0.46503 0.59413
 C1202 C 1.17444 0.44239 0.57984
 C1203 C 1.19790 0.43058 0.58967
 H1204 H 1.20779 0.43918 0.60684
 O1205 O 1.09826 0.36753 0.51810
 O1206 O 1.12927 0.33643 0.51561
 C1207 C 1.10821 0.34574 0.52629
 C1208 C 1.09550 0.33149 0.54890
 C1209 C 1.10513 0.30657 0.55729
 H1210 H 1.12190 0.29800 0.54683
 O1211 O 0.90544 0.63220 0.53263
 O1212 O 0.87428 0.66314 0.53518
 C1213 C 0.89665 0.65375 0.54261
 C1214 C 0.91242 0.66764 0.56341
 C1215 C 0.90432 0.69258 0.57320
 H1216 H 0.88656 0.70192 0.56515
 O1217 O 0.91301 0.47258 0.63810
 O1218 O 0.88386 0.47230 0.67109
 C1219 C 0.90501 0.46334 0.66029
 C1220 C 0.92009 0.44152 0.67332
 C1221 C 0.91176 0.43131 0.69801
 H1222 H 0.89441 0.43981 0.70771
 O1223 O 1.10558 0.52601 0.62527
 O1224 O 1.13875 0.52599 0.65419
 C1225 C 1.11636 0.53498 0.64636
 C1226 C 1.10314 0.55663 0.66147
 C1227 C 1.11386 0.56560 0.68573
 H1228 H 1.13078 0.55511 0.69389
 O1229 O 0.98130 0.36745 0.59685
 O1230 O 0.98355 0.33625 0.62774
 C1231 C 0.97281 0.34580 0.60685
 C1232 C 0.94960 0.33212 0.59467
 C1233 C 0.93984 0.30836 0.60576
 H1234 H 0.95088 0.29924 0.62184
 O1235 O 1.03236 0.63229 0.59464
 O1236 O 1.03431 0.66321 0.62579
 C1237 C 1.04191 0.65403 0.60341
 C1238 C 1.06243 0.66841 0.58763
 C1239 C 1.07225 0.69322 0.59609
 H1240 H 1.06442 0.70210 0.61415
 O1241 O 0.86962 0.40304 0.53350
 O1242 O 0.83845 0.37205 0.53536
 C1243 C 0.84840 0.39373 0.54384
 C1244 C 0.83550 0.40808 0.56623
 C1245 C 0.81040 0.40010 0.57586
 H1246 H 0.80036 0.38337 0.56665
 O1247 O 1.13376 0.59750 0.51660
 O1248 O 1.16454 0.62886 0.51479
 C1249 C 1.15584 0.60713 0.52450
 C1250 C 1.17102 0.59350 0.54592
 C1251 C 1.19489 0.60457 0.55561
 H1252 H 1.20288 0.62186 0.54566
 O1253 O 1.03510 0.59562 0.63100
 O1254 O 1.03701 0.62638 0.66231
 C1255 C 1.04564 0.60489 0.65208
 C1256 C 1.06863 0.59085 0.66429
 C1257 C 1.07973 0.59968 0.68845
 H1258 H 1.07068 0.61630 0.69884
 O1259 O 0.98386 0.40325 0.63384
 O1260 O 0.98618 0.37215 0.66482
 C1261 C 0.97623 0.39375 0.65608
 C1262 C 0.95500 0.40756 0.67142
 C1263 C 0.94638 0.39765 0.69623
 H1264 H 0.95573 0.37993 0.70411
 O1265 O 1.13937 0.52655 0.58613
 O1266 O 1.17259 0.52661 0.61499
 C1267 C 1.16150 0.53594 0.59418
 C1268 C 1.17383 0.55869 0.57988
 C1269 C 1.19762 0.57013 0.58930
 H1270 H 1.20777 0.56126 0.60619
 O1271 O 0.87391 0.47257 0.60416
 O1272 O 0.84459 0.47236 0.63701
 C1273 C 0.85267 0.46349 0.61468
 C1274 C 0.83753 0.44216 0.60089
 C1275 C 0.81233 0.43395 0.61023
 H1276 H 0.80422 0.44334 0.62784
 O1277 O 1.09708 0.63369 0.51907
 O1278 O 1.12775 0.66515 0.51709
 C1279 C 1.10682 0.65541 0.52763
 C1280 C 1.09406 0.66910 0.55051
 C1281 C 1.10367 0.69384 0.55933
 H1282 H 1.12046 0.70262 0.54906
 O1283 O 0.90642 0.36687 0.53122
 O1284 O 0.87545 0.33572 0.53336
 C1285 C 0.89762 0.34530 0.54114
 C1286 C 0.91287 0.33183 0.56261
 C1287 C 0.90335 0.30812 0.57410
 H1288 H 0.88553 0.29886 0.56613
 O1289 O 1.10574 0.47412 0.62491
 O1290 O 1.13888 0.47418 0.65388
 C1291 C 1.11661 0.46501 0.64592
 C1292 C 1.10359 0.44302 0.66076
 C1293 C 1.11426 0.43394 0.68503
 H1294 H 1.13102 0.44450 0.69339
 O1295 O 0.91270 0.52463 0.63832
 O1296 O 0.88356 0.52447 0.67131
 C1297 C 0.90460 0.53372 0.66054
 C1298 C 0.91943 0.55573 0.67360
 C1299 C 0.91089 0.56592 0.69826
 H1300 H 0.89358 0.55726 0.70791
 O1301 O 0.98042 0.63176 0.59811
 O1302 O 0.98234 0.66274 0.62920
 C1303 C 0.97186 0.65337 0.60812
 C1304 C 0.94919 0.66743 0.59539
 C1305 C 0.94073 0.69232 0.60498
 H1306 H 0.95105 0.70084 0.62182
 O1307 O 1.03330 0.36710 0.59335
 O1308 O 1.03562 0.33580 0.62414
 C1309 C 1.04306 0.34533 0.60185
 C1310 C 1.06369 0.33135 0.58587
 C1311 C 1.07353 0.30641 0.59391
 H1312 H 1.06556 0.29710 0.61171
 O1313 O 1.13467 0.40405 0.51624
 O1314 O 1.16577 0.37302 0.51398
 C1315 C 1.15684 0.39449 0.52401
 C1316 C 1.17184 0.40785 0.54568
 C1317 C 1.19537 0.39640 0.55577
 H1318 H 1.20333 0.37905 0.54591
 O1319 O 0.86922 0.59531 0.53456
 O1320 O 0.83783 0.62603 0.53695
 C1321 C 0.84795 0.60427 0.54505
 C1322 C 0.83518 0.58939 0.56716
 C1323 C 0.81008 0.59708 0.57700
 H1324 H 0.79990 0.61392 0.56810
 Cu1325 Cu 1.00842 0.38850 0.61040
 Cu1326 Cu 1.01118 0.35104 0.64746
 Cu1327 Cu 1.00757 0.61057 0.61143
 Cu1328 Cu 1.00981 0.64762 0.64888
 Cu1329 Cu 0.88950 0.38807 0.50618
 Cu1330 Cu 0.85233 0.35067 0.50853
 Cu1331 Cu 1.11169 0.38919 0.49138
 Cu1332 Cu 1.14915 0.35208 0.48850
 Cu1333 Cu 0.88873 0.61099 0.50744
 Cu1334 Cu 0.85126 0.64807 0.51037
 Cu1335 Cu 1.11074 0.61267 0.49198
 Cu1336 Cu 1.14773 0.65028 0.48972
 Cu1337 Cu 0.89632 0.49856 0.61790
 Cu1338 Cu 0.86129 0.49830 0.65746
 Cu1339 Cu 1.11935 0.50026 0.60264
 Cu1340 Cu 1.15921 0.50029 0.63732
 C1341 C 1.08112 0.43022 0.65006
 H1342 H 1.07304 0.43691 0.63117
 C1343 C 1.10324 0.41173 0.69828
 C1344 C 0.94126 0.56774 0.66070
 H1345 H 0.94774 0.56025 0.64150
 C1346 C 0.92389 0.58770 0.71027
 C1347 C 0.84848 0.56790 0.57912
 H1348 H 0.86798 0.56203 0.57181
 C1349 C 0.79798 0.58341 0.59837
 C1350 C 1.16161 0.43090 0.55778
 H1351 H 1.14317 0.43950 0.55046
 C1352 C 1.20811 0.40700 0.57845
 C1353 C 1.07452 0.34350 0.56309
 H1354 H 1.06726 0.36288 0.55694
 C1355 C 1.09389 0.29344 0.57948
 C1356 C 0.93514 0.65545 0.57435
 H1357 H 0.94138 0.63611 0.56711
 C1358 C 0.91868 0.70552 0.59360
 C1359 C 0.94200 0.42978 0.66039
 H1360 H 0.94828 0.43731 0.64113
 C1361 C 0.92509 0.40977 0.71010
 C1362 C 1.08046 0.56926 0.65102
 H1363 H 1.07234 0.56264 0.63213
 C1364 C 1.10275 0.58760 0.69919
 C1365 C 0.93604 0.34365 0.57305
 H1366 H 0.94320 0.36224 0.56471
 C1367 C 0.91611 0.29663 0.59634
 C1368 C 1.07318 0.65675 0.56454
 H1369 H 1.06594 0.63749 0.55804
 C1370 C 1.09247 0.70654 0.58175
 C1371 C 0.84869 0.42937 0.57863
 H1372 H 0.86818 0.43544 0.57146
 C1373 C 0.79809 0.41342 0.59733
 C1374 C 1.16072 0.57049 0.55812
 H1375 H 1.14205 0.56216 0.55110
 C1376 C 1.20797 0.59361 0.57793
 O1377 O 0.46709 0.90513 0.36851
 O1378 O 0.46521 0.87448 0.33708
 C1379 C 0.45657 0.89592 0.34741
 C1380 C 0.43356 0.90990 0.33528
 C1381 C 0.42254 0.90093 0.31118
 H1382 H 0.43175 0.88439 0.30079
 O1383 O 0.51647 1.09755 0.36686
 O1384 O 0.51404 1.12868 0.33590
 C1385 C 0.52417 1.10721 0.34472
 C1386 C 0.54596 1.09405 0.32964
 C1387 C 0.55535 1.10530 0.30576
 H1388 H 0.54482 1.12218 0.29768
 O1389 O 0.36180 0.97329 0.41328
 O1390 O 0.32879 0.97284 0.38419
 C1391 C 0.33985 0.96365 0.40506
 C1392 C 0.32767 0.94082 0.41930
 C1393 C 0.30392 0.92927 0.40992
 H1394 H 0.29371 0.93807 0.39303
 O1395 O 0.62676 1.02743 0.39531
 O1396 O 0.65616 1.02796 0.36253
 C1397 C 0.64808 1.03651 0.38497
 C1398 C 0.66331 1.05749 0.39905
 C1399 C 0.68870 1.06527 0.39003
 H1400 H 0.69685 1.05579 0.37248
 O1401 O 0.40486 0.86601 0.47959
 O1402 O 0.37423 0.83451 0.48152
 C1403 C 0.39503 0.84438 0.47085
 C1404 C 0.40730 0.83124 0.44736
 C1405 C 0.39650 0.80751 0.43712
 H1406 H 0.38042 0.79790 0.44784
 O1407 O 0.59429 1.13359 0.46747
 O1408 O 0.62527 1.16472 0.46522
 C1409 C 0.60308 1.15517 0.45754
 C1410 C 0.58768 1.16886 0.43634
 C1411 C 0.59701 1.19278 0.42515
 H1412 H 0.61489 1.20194 0.43310
 O1413 O 0.39507 1.02616 0.37491
 O1414 O 0.36206 1.02584 0.34580
 C1415 C 0.38420 1.03520 0.35389
 C1416 C 0.39708 1.05730 0.33914
 C1417 C 0.38627 1.06646 0.31498
 H1418 H 0.36954 1.05586 0.30657
 O1419 O 0.58805 0.97617 0.36018
 O1420 O 0.61708 0.97692 0.32708
 C1421 C 0.59612 0.96746 0.33779
 C1422 C 0.58141 0.94552 0.32459
 C1423 C 0.58989 0.93561 0.29980
 H1424 H 0.60703 0.94453 0.29011
 O1425 O 0.52187 0.86892 0.40094
 O1426 O 0.52009 0.83810 0.36967
 C1427 C 0.53059 0.84748 0.39074
 C1428 C 0.55375 0.83385 0.40301
 C1429 C 0.56357 0.81001 0.39218
 H1430 H 0.55267 0.80075 0.37608
 O1431 O 0.46643 1.13367 0.40668
 O1432 O 0.46396 1.16475 0.37569
 C1433 C 0.45636 1.15519 0.39790
 C1434 C 0.43495 1.16865 0.41323
 C1435 C 0.42375 1.19262 0.40407
 H1436 H 0.43189 1.20208 0.38641
 O1437 O 0.36423 1.09581 0.48301
 O1438 O 0.33279 1.12650 0.48519
 C1439 C 0.34187 1.10501 0.47533
 C1440 C 0.32671 1.09086 0.45425
 C1441 C 0.30195 1.10061 0.44526
 H1442 H 0.29397 1.11854 0.45412
 O1443 O 0.63210 0.90569 0.46460
 O1444 O 0.66364 0.87508 0.46251
 C1445 C 0.65331 0.89660 0.45406
 C1446 C 0.66555 0.91075 0.43120
 C1447 C 0.68972 0.90184 0.42016
 H1448 H 0.70014 0.88531 0.42936
 O1449 O 0.46442 1.09713 0.37025
 O1450 O 0.46198 1.12811 0.33915
 C1451 C 0.45376 1.10637 0.34920
 C1452 C 0.43109 1.09205 0.33682
 C1453 C 0.41997 1.10098 0.31272
 H1454 H 0.42889 1.11779 0.30248
 O1455 O 0.51903 0.90531 0.36441
 O1456 O 0.51717 0.87458 0.33307
 C1457 C 0.52672 0.89623 0.34203
 C1458 C 0.54751 0.91064 0.32667
 C1459 C 0.55626 0.90100 0.30184
 H1460 H 0.54742 0.88300 0.29401
 O1461 O 0.62670 0.97564 0.39442
 O1462 O 0.65587 0.97617 0.36144
 C1463 C 0.64784 0.96676 0.38358
 C1464 C 0.66280 0.94484 0.39658
 C1465 C 0.68700 0.93562 0.38577
 H1466 H 0.69523 0.94592 0.36876
 O1467 O 0.36069 1.02542 0.41352
 O1468 O 0.32763 1.02498 0.38449
 C1469 C 0.33832 1.03427 0.40549
 C1470 C 0.32503 1.05616 0.42019
 C1471 C 0.30037 1.06620 0.41147
 H1472 H 0.29090 1.05743 0.39418
 O1473 O 0.40062 1.13241 0.48103
 O1474 O 0.36930 1.16320 0.48337
 C1475 C 0.39042 1.15403 0.47271
 C1476 C 0.40272 1.16807 0.44979
 C1477 C 0.39183 1.19208 0.44038
 H1478 H 0.37573 1.20107 0.45149
 O1479 O 0.59605 0.86881 0.46674
 O1480 O 0.62749 0.83813 0.46451
 C1481 C 0.60518 0.84740 0.45679
 C1482 C 0.59017 0.83376 0.43534
 C1483 C 0.59973 0.80992 0.42422
 H1484 H 0.61735 0.80062 0.43260
 O1485 O 0.58777 1.02821 0.36137
 O1486 O 0.61699 1.02913 0.32845
 C1487 C 0.59589 1.03798 0.33944
 C1488 C 0.58113 1.06043 0.32713
 C1489 C 0.59033 1.07212 0.30338
 H1490 H 0.60763 1.06385 0.29337
 O1491 O 0.39582 0.97429 0.37437
 O1492 O 0.36283 0.97405 0.34524
 C1493 C 0.38525 0.96526 0.35319
 C1494 C 0.39874 0.94377 0.33811
 C1495 C 0.38802 0.93459 0.31392
 H1496 H 0.37095 0.94481 0.30575
 O1497 O 0.51857 1.13398 0.40314
 O1498 O 0.51613 1.16514 0.37222
 C1499 C 0.52700 1.15562 0.39304
 C1500 C 0.55039 1.16919 0.40498
 C1501 C 0.56002 1.19311 0.39406
 H1502 H 0.54876 1.20250 0.37830
 O1503 O 0.46987 0.86804 0.40429
 O1504 O 0.46802 0.83729 0.37297
 C1505 C 0.46028 0.84641 0.39530
 C1506 C 0.43921 0.83226 0.41049
 C1507 C 0.42825 0.80847 0.40068
 H1508 H 0.43662 0.79959 0.38287
 O1509 O 0.63095 1.09708 0.46585
 O1510 O 0.66211 1.12807 0.46395
 C1511 C 0.65227 1.10627 0.45565
 C1512 C 0.66537 1.09161 0.43361
 C1513 C 0.69075 1.09914 0.42434
 H1514 H 0.70089 1.11579 0.43360
 O1515 O 0.36810 0.90211 0.48233
 O1516 O 0.33743 0.87064 0.48417
 C1517 C 0.34602 0.89243 0.47452
 C1518 C 0.33070 0.90605 0.45322
 C1519 C 0.30685 0.89489 0.44364
 H1520 H 0.29896 0.87758 0.45362
 Cu1521 Cu 0.49466 0.88993 0.38768
 Cu1522 Cu 0.49243 0.85300 0.35006
 Cu1523 Cu 0.49165 1.11249 0.38987
 Cu1524 Cu 0.48874 1.14980 0.35264
 Cu1525 Cu 0.38162 0.99983 0.39699
 Cu1526 Cu 0.34196 0.99941 0.36207
 Cu1527 Cu 0.60436 1.00181 0.38108
 Cu1528 Cu 0.63939 1.00264 0.34149
 C1529 C 0.42157 0.93140 0.34855
 H1530 H 0.42966 0.93812 0.36741
 C1531 C 0.39932 0.91264 0.30055
 C1532 C 0.55889 1.07153 0.34010
 H1533 H 0.55203 1.06306 0.35876
 C1534 C 0.57813 1.09510 0.29283
 C1535 C 0.34087 0.92909 0.44103
 H1536 H 0.35953 0.93749 0.44801
 C1537 C 0.29368 0.90578 0.42135
 C1538 C 0.65204 1.07046 0.42112
 H1539 H 0.63234 1.06472 0.42798
 C1540 C 0.70311 1.08553 0.40308
 C1541 C 0.42866 0.84342 0.43390
 H1542 H 0.43669 0.86203 0.44131
 C1543 C 0.40614 0.79641 0.41316
 C1544 C 0.56432 1.15727 0.42614
 H1545 H 0.55727 1.13857 0.43432
 C1546 C 0.58390 1.20469 0.40334
 C1547 C 0.41953 1.07015 0.34983
 H1548 H 0.42770 1.06342 0.36867
 C1549 C 0.39710 1.08881 0.30184
 C1550 C 0.55990 0.93318 0.33762
 H1551 H 0.55351 0.94048 0.35693
 C1552 C 0.57703 0.91376 0.28778
 C1553 C 0.56713 0.84552 0.42462
 H1554 H 0.55994 0.86418 0.43274
 C1555 C 0.58717 0.79829 0.40196
 C1556 C 0.42433 1.15660 0.43616
 H1557 H 0.43249 1.13783 0.44304
 C1558 C 0.40161 1.20420 0.41697
 C1559 C 0.33781 1.06835 0.44187
 H1560 H 0.35704 1.06094 0.44843
 C1561 C 0.28818 1.08801 0.42424
 C1562 C 0.65230 0.93232 0.41932
 H1563 H 0.63343 0.93904 0.42749
 C1564 C 0.70041 0.91362 0.39701
 O1565 O 0.53589 0.90456 0.63071
 O1566 O 0.53824 0.87371 0.66196
 C1567 C 0.54629 0.89554 0.65199
 C1568 C 0.56827 0.91039 0.66492
 C1569 C 0.57792 0.90267 0.69003
 H1570 H 0.56890 0.88584 0.70014
 O1571 O 0.48215 1.09585 0.63395
 O1572 O 0.48387 1.12671 0.66518
 C1573 C 0.47425 1.10506 0.65620
 C1574 C 0.45317 1.09081 0.67139
 C1575 C 0.44442 1.10048 0.69620
 H1576 H 0.45344 1.11837 0.70409
 O1577 O 0.37285 1.02444 0.60444
 O1578 O 0.34359 1.02394 0.63733
 C1579 C 0.35149 1.03310 0.61505
 C1580 C 0.33607 1.05438 0.60152
 C1581 C 0.31091 1.06236 0.61114
 H1582 H 0.30300 1.05265 0.62866
 O1583 O 0.63940 0.97533 0.58735
 O1584 O 0.67236 0.97529 0.61649
 C1585 C 0.66155 0.96609 0.59549
 C1586 C 0.67426 0.94373 0.58096
 C1587 C 0.69796 0.93220 0.59052
 H1588 H 0.70777 0.94072 0.60777
 O1589 O 0.59938 0.86861 0.51878
 O1590 O 0.63071 0.83781 0.51654
 C1591 C 0.60966 0.84707 0.52724
 C1592 C 0.59760 0.83325 0.55043
 C1593 C 0.60843 0.80919 0.55980
 H1594 H 0.62426 0.79997 0.54849
 O1595 O 0.40380 1.13201 0.53301
 O1596 O 0.37239 1.16269 0.53551
 C1597 C 0.39474 1.15339 0.54309
 C1598 C 0.41001 1.16703 0.56443
 C1599 C 0.40039 1.19070 0.57586
 H1600 H 0.38246 1.19980 0.56794
 O1601 O 0.41259 0.97299 0.63840
 O1602 O 0.38349 0.97246 0.67144
 C1603 C 0.40457 0.96352 0.66051
 C1604 C 0.41930 0.94114 0.67301
 C1605 C 0.40996 0.92948 0.69673
 H1606 H 0.39267 0.93786 0.70668
 O1607 O 0.60491 1.02692 0.62621
 O1608 O 0.63774 1.02703 0.65553
 C1609 C 0.61537 1.03587 0.64747
 C1610 C 0.60147 1.05702 0.66267
 C1611 C 0.61075 1.06493 0.68788
 H1612 H 0.62839 1.05547 0.69587
 O1613 O 0.48254 0.86703 0.59731
 O1614 O 0.48512 0.83592 0.62828
 C1615 C 0.47442 0.84521 0.60727
 C1616 C 0.45163 0.83106 0.59490
 C1617 C 0.44228 0.80703 0.60578
 H1618 H 0.45342 0.79806 0.62186
 O1619 O 0.53152 1.13313 0.59432
 O1620 O 0.53342 1.16409 0.62542
 C1621 C 0.54107 1.15487 0.60307
 C1622 C 0.56169 1.16916 0.58729
 C1623 C 0.57143 1.19409 0.59553
 H1624 H 0.56345 1.20317 0.61343
 O1625 O 0.37145 0.90183 0.53423
 O1626 O 0.34063 0.87050 0.53609
 C1627 C 0.35040 0.89223 0.54465
 C1628 C 0.33764 0.90610 0.56742
 C1629 C 0.31363 0.89656 0.57831
 H1630 H 0.30370 0.87982 0.56898
 O1631 O 0.63393 1.09771 0.51779
 O1632 O 0.66467 1.12911 0.51590
 C1633 C 0.65593 1.10749 0.52577
 C1634 C 0.67096 1.09418 0.54747
 C1635 C 0.69456 1.10558 0.55742
 H1636 H 0.70251 1.12291 0.54749
 O1637 O 0.53419 1.09644 0.63081
 O1638 O 0.53593 1.12720 0.66213
 C1639 C 0.54447 1.10561 0.65207
 C1640 C 0.56683 1.09114 0.66490
 C1641 C 0.57635 1.09880 0.69010
 H1642 H 0.56711 1.11545 0.70027
 O1643 O 0.48386 0.90373 0.63346
 O1644 O 0.48623 0.87265 0.66447
 C1645 C 0.47606 0.89407 0.65556
 C1646 C 0.45421 0.90725 0.67054
 C1647 C 0.44467 0.89602 0.69438
 H1648 H 0.45505 0.87904 0.70246
 O1649 O 0.63928 1.02745 0.58769
 O1650 O 0.67226 1.02765 0.61682
 C1651 C 0.66131 1.03691 0.59592
 C1652 C 0.67367 1.05964 0.58166
 C1653 C 0.69719 1.07138 0.59135
 H1654 H 0.70717 1.06274 0.60846
 O1655 O 0.37413 0.97249 0.60408
 O1656 O 0.34491 0.97196 0.63702
 C1657 C 0.35322 0.96294 0.61482
 C1658 C 0.33899 0.94058 0.60174
 C1659 C 0.31500 0.93066 0.61242
 H1660 H 0.30616 0.94078 0.62926
 O1661 O 0.59693 1.13362 0.51948
 O1662 O 0.62758 1.16508 0.51728
 C1663 C 0.60658 1.15546 0.52781
 C1664 C 0.59361 1.16943 0.55040
 C1665 C 0.60314 1.19428 0.55900
 H1666 H 0.62002 1.20293 0.54876
 O1667 O 0.40826 0.86562 0.53168
 O1668 O 0.37756 0.83419 0.53368
 C1669 C 0.39966 0.84389 0.54145
 C1670 C 0.41506 0.83039 0.56275
 C1671 C 0.40593 0.80641 0.57397
 H1672 H 0.38826 0.79694 0.56590
 O1673 O 0.60549 0.97520 0.62639
 O1674 O 0.63833 0.97536 0.65569
 C1675 C 0.61606 0.96631 0.64765
 C1676 C 0.60243 0.94496 0.66284
 C1677 C 0.61185 0.93699 0.68801
 H1678 H 0.62934 0.94666 0.69603
 O1679 O 0.41222 1.02509 0.63810
 O1680 O 0.38315 1.02470 0.67116
 C1681 C 0.40412 1.03411 0.66033
 C1682 C 0.41885 1.05621 0.67335
 C1683 C 0.41044 1.06621 0.69812
 H1684 H 0.39323 1.05743 0.70782
 O1685 O 0.47943 1.13244 0.59778
 O1686 O 0.48125 1.16339 0.62891
 C1687 C 0.47064 1.15388 0.60797
 C1688 C 0.44717 1.16730 0.59598
 C1689 C 0.43727 1.19100 0.60707
 H1690 H 0.44837 1.20034 0.62297
 O1691 O 0.53454 0.86812 0.59408
 O1692 O 0.53715 0.83716 0.62518
 C1693 C 0.54469 0.84668 0.60293
 C1694 C 0.56598 0.83315 0.58751
 C1695 C 0.57708 0.80912 0.59660
 H1696 H 0.56906 0.79978 0.61437
 O1697 O 0.63520 0.90565 0.51661
 O1698 O 0.66656 0.87488 0.51452
 C1699 C 0.65743 0.89631 0.52445
 C1700 C 0.67224 0.90977 0.54618
 C1701 C 0.69606 0.89869 0.55592
 H1702 H 0.70444 0.88178 0.54564
 O1703 O 0.36780 1.09499 0.53483
 O1704 O 0.33618 1.12551 0.53707
 C1705 C 0.34644 1.10384 0.54525
 C1706 C 0.33373 1.08900 0.56740
 C1707 C 0.30867 1.09671 0.57726
 H1708 H 0.29846 1.11351 0.56831
 Cu1709 Cu 0.50902 0.88896 0.61076
 Cu1710 Cu 0.51199 0.85174 0.64809
 Cu1711 Cu 0.50675 1.11140 0.61108
 Cu1712 Cu 0.50886 1.14847 0.64851
 Cu1713 Cu 0.39129 0.88699 0.50680
 Cu1714 Cu 0.35441 0.84928 0.50909
 Cu1715 Cu 0.61251 0.89025 0.49186
 Cu1716 Cu 0.65026 0.85340 0.48929
 Cu1717 Cu 0.38727 1.11076 0.50775
 Cu1718 Cu 0.34955 1.14761 0.51055
 Cu1719 Cu 0.61093 1.11237 0.49279
 Cu1720 Cu 0.64800 1.14990 0.49033
 Cu1721 Cu 0.39586 0.99887 0.61798
 Cu1722 Cu 0.36091 0.99829 0.65759
 Cu1723 Cu 0.61904 1.00119 0.60392
 Cu1724 Cu 0.65861 1.00134 0.63895
 C1725 C 0.58039 0.93183 0.65169
 H1726 H 0.57322 0.93770 0.63217
 C1727 C 0.59925 0.91627 0.70224
 C1728 C 0.44052 1.06839 0.66035
 H1729 H 0.44691 1.06104 0.64107
 C1730 C 0.42349 1.08793 0.71020
 C1731 C 0.34707 1.06756 0.57939
 H1732 H 0.36656 1.06171 0.57205
 C1733 C 0.29660 1.08314 0.59869
 C1734 C 0.66156 0.93236 0.55874
 H1735 H 0.64291 0.94069 0.55163
 C1736 C 0.70860 0.90905 0.57879
 C1737 C 0.57634 0.84501 0.56436
 H1738 H 0.56822 0.86380 0.55750
 C1739 C 0.59890 0.79727 0.58342
 C1740 C 0.43344 1.15551 0.57462
 H1741 H 0.44070 1.13696 0.56631
 C1742 C 0.41329 1.20242 0.59789
 C1743 C 0.44150 0.92989 0.66010
 H1744 H 0.44847 0.93834 0.64146
 C1745 C 0.42192 0.90637 0.70726
 C1746 C 0.57926 1.06995 0.65157
 H1747 H 0.57218 1.06408 0.63203
 C1748 C 0.59780 1.08529 0.70228
 C1749 C 0.43798 0.84249 0.57332
 H1750 H 0.44482 0.86128 0.56518
 C1751 C 0.41885 0.79489 0.59610
 C1752 C 0.57263 1.15725 0.56442
 H1753 H 0.56547 1.13790 0.55809
 C1754 C 0.59174 1.20726 0.58115
 C1755 C 0.35011 0.92816 0.57923
 H1756 H 0.36885 0.93538 0.57119
 C1757 C 0.30247 0.90808 0.60136
 C1758 C 0.66075 1.07115 0.55964
 H1759 H 0.64228 1.06257 0.55240
 C1760 C 0.70741 1.09493 0.58002
 O1761 O 0.46545 0.40340 0.86948
 O1762 O 0.46345 0.37247 0.83835
 C1763 C 0.45485 0.39402 0.84848
 C1764 C 0.43177 0.40793 0.83626
 C1765 C 0.42051 0.39870 0.81234
 H1766 H 0.42959 0.38200 0.80209
 O1767 O 0.51674 0.59633 0.86669
 O1768 O 0.51441 0.62749 0.83576
 C1769 C 0.52452 0.60601 0.84459
 C1770 C 0.54626 0.59278 0.82951
 C1771 C 0.55588 0.60405 0.80570
 H1772 H 0.54565 0.62116 0.79768
 O1773 O 0.36041 0.47327 0.91342
 O1774 O 0.32736 0.47328 0.88438
 C1775 C 0.33818 0.46411 0.90539
 C1776 C 0.32527 0.44201 0.92016
 C1777 C 0.30071 0.43160 0.91162
 H1778 H 0.29090 0.44030 0.89446
 O1779 O 0.62590 0.52643 0.89565
 O1780 O 0.65496 0.52682 0.86256
 C1781 C 0.64692 0.53571 0.88490
 C1782 C 0.66168 0.55760 0.89808
 C1783 C 0.68598 0.56670 0.88748
 H1784 H 0.69450 0.55611 0.87081
 O1785 O 0.40226 0.36676 0.98052
 O1786 O 0.37165 0.33526 0.98278
 C1787 C 0.39261 0.34489 0.97220
 C1788 C 0.40564 0.33088 0.94964
 C1789 C 0.39631 0.30590 0.94108
 H1790 H 0.37947 0.29713 0.95127
 O1791 O 0.59374 0.63310 0.96821
 O1792 O 0.62467 0.66428 0.96590
 C1793 C 0.60243 0.65473 0.95831
 C1794 C 0.58689 0.66834 0.93714
 C1795 C 0.59602 0.69233 0.92593
 H1796 H 0.61385 0.70165 0.93383
 O1797 O 0.39477 0.52499 0.87446
 O1798 O 0.36194 0.52492 0.84515
 C1799 C 0.38426 0.53388 0.85318
 C1800 C 0.39801 0.55513 0.83795
 C1801 C 0.38863 0.56306 0.81275
 H1802 H 0.37111 0.55342 0.80477
 O1803 O 0.58735 0.47438 0.86140
 O1804 O 0.61635 0.47471 0.82827
 C1805 C 0.59550 0.46525 0.83923
 C1806 C 0.58131 0.44260 0.82668
 C1807 C 0.59119 0.43110 0.80315
 H1808 H 0.60822 0.44001 0.79324
 O1809 O 0.52027 0.36720 0.90220
 O1810 O 0.51826 0.33610 0.87124
 C1811 C 0.52895 0.34565 0.89212
 C1812 C 0.55232 0.33217 0.90425
 C1813 C 0.56210 0.30822 0.89353
 H1814 H 0.55107 0.29879 0.87763
 O1815 O 0.46630 0.63209 0.90635
 O1816 O 0.46378 0.66307 0.87527
 C1817 C 0.45620 0.65356 0.89750
 C1818 C 0.43485 0.66711 0.91283
 C1819 C 0.42367 0.69105 0.90356
 H1820 H 0.43172 0.70034 0.88578
 O1821 O 0.36444 0.59521 0.98360
 O1822 O 0.33327 0.62618 0.98570
 C1823 C 0.34220 0.60462 0.97584
 C1824 C 0.32704 0.59076 0.95457
 C1825 C 0.30243 0.60085 0.94557
 H1826 H 0.29463 0.61875 0.95463
 O1827 O 0.63219 0.40446 0.96446
 O1828 O 0.66347 0.37359 0.96238
 C1829 C 0.65332 0.39519 0.95390
 C1830 C 0.66566 0.40935 0.93108
 C1831 C 0.68989 0.40054 0.92003
 H1832 H 0.70027 0.38390 0.92907
 O1833 O 0.46473 0.59540 0.86995
 O1834 O 0.46245 0.62626 0.83872
 C1835 C 0.45433 0.60444 0.84869
 C1836 C 0.43227 0.58963 0.83579
 C1837 C 0.42266 0.59730 0.81064
 H1838 H 0.43173 0.61406 0.80047
 O1839 O 0.51759 0.40379 0.86602
 O1840 O 0.51569 0.37274 0.83501
 C1841 C 0.52551 0.39431 0.84390
 C1842 C 0.54720 0.40788 0.82899
 C1843 C 0.55745 0.39665 0.80544
 H1844 H 0.54771 0.37931 0.79729
 O1845 O 0.62680 0.47453 0.89477
 O1846 O 0.65585 0.47498 0.86167
 C1847 C 0.64796 0.46568 0.88389
 C1848 C 0.66303 0.44382 0.89684
 C1849 C 0.68733 0.43481 0.88608
 H1850 H 0.69561 0.44535 0.86925
 O1851 O 0.36052 0.52533 0.91331
 O1852 O 0.32757 0.52541 0.88415
 C1853 C 0.33832 0.53454 0.90520
 C1854 C 0.32527 0.55655 0.91999
 C1855 C 0.30073 0.56694 0.91130
 H1856 H 0.29118 0.55842 0.89391
 O1857 O 0.40088 0.63168 0.98135
 O1858 O 0.36981 0.66273 0.98356
 C1859 C 0.39080 0.65330 0.97288
 C1860 C 0.40300 0.66704 0.94973
 C1861 C 0.39214 0.69101 0.94019
 H1862 H 0.37621 0.70023 0.95138
 O1863 O 0.59569 0.36796 0.96695
 O1864 O 0.62685 0.33698 0.96485
 C1865 C 0.60456 0.34635 0.95719
 C1866 C 0.58923 0.33252 0.93607
 C1867 C 0.59865 0.30855 0.92513
 H1868 H 0.61638 0.29936 0.93340
 O1869 O 0.58738 0.52654 0.86126
 O1870 O 0.61635 0.52697 0.82811
 C1871 C 0.59539 0.53604 0.83916
 C1872 C 0.58083 0.55858 0.82680
 C1873 C 0.59021 0.57022 0.80308
 H1874 H 0.60732 0.56165 0.79300
 O1875 O 0.39468 0.47310 0.87472
 O1876 O 0.36170 0.47308 0.84559
 C1877 C 0.38395 0.46398 0.85367
 C1878 C 0.39712 0.44206 0.83885
 C1879 C 0.38620 0.43261 0.81485
 H1880 H 0.36916 0.44285 0.80661
 O1881 O 0.51843 0.63253 0.90331
 O1882 O 0.51594 0.66370 0.87240
 C1883 C 0.52671 0.65427 0.89333
 C1884 C 0.54979 0.66815 0.90552
 C1885 C 0.55916 0.69219 0.89468
 H1886 H 0.54783 0.70138 0.87886
 O1887 O 0.46823 0.36697 0.90604
 O1888 O 0.46621 0.33588 0.87507
 C1889 C 0.45861 0.34524 0.89737
 C1890 C 0.43791 0.33109 0.91309
 C1891 C 0.42835 0.30613 0.90485
 H1892 H 0.43657 0.29699 0.88708
 O1893 O 0.63042 0.59685 0.96565
 O1894 O 0.66153 0.62788 0.96353
 C1895 C 0.65148 0.60623 0.95507
 C1896 C 0.66392 0.59213 0.93226
 C1897 C 0.68814 0.60108 0.92125
 H1898 H 0.69838 0.61780 0.93028
 O1899 O 0.36536 0.40293 0.98291
 O1900 O 0.33459 0.37157 0.98492
 C1901 C 0.34319 0.39333 0.97520
 C1902 C 0.32771 0.40731 0.95423
 C1903 C 0.30308 0.39716 0.94539
 H1904 H 0.29555 0.37907 0.95430
 Cu1905 Cu 0.49303 0.38846 0.88903
 Cu1906 Cu 0.49063 0.35121 0.85178
 Cu1907 Cu 0.49172 0.61099 0.88971
 Cu1908 Cu 0.48884 0.64828 0.85245
 Cu1909 Cu 0.38087 0.49921 0.89692
 Cu1910 Cu 0.34128 0.49921 0.86194
 Cu1911 Cu 0.60391 0.50042 0.88155
 Cu1912 Cu 0.63871 0.50093 0.84176
 C1913 C 0.41995 0.42966 0.84932
 H1914 H 0.42822 0.43661 0.86802
 C1915 C 0.39726 0.41040 0.80169
 C1916 C 0.55879 0.56999 0.83982
 H1917 H 0.55180 0.56152 0.85844
 C1918 C 0.57848 0.59351 0.79271
 C1919 C 0.33838 0.43000 0.94178
 H1920 H 0.35753 0.43768 0.94822
 C1921 C 0.28901 0.40952 0.92441
 C1922 C 0.65089 0.57034 0.92053
 H1923 H 0.63195 0.56362 0.92856
 C1924 C 0.69913 0.58896 0.89840
 C1925 C 0.42671 0.34308 0.93576
 H1926 H 0.43377 0.36248 0.94205
 C1927 C 0.40798 0.29292 0.91903
 C1928 C 0.56372 0.65646 0.92681
 H1929 H 0.55685 0.63767 0.93494
 C1930 C 0.58284 0.70409 0.90407
 C1931 C 0.42009 0.56825 0.84907
 H1932 H 0.42722 0.56241 0.86862
 C1933 C 0.40129 0.58370 0.79846
 C1934 C 0.55924 0.43089 0.83941
 H1935 H 0.55186 0.43930 0.85789
 C1936 C 0.58013 0.40751 0.79281
 C1937 C 0.56601 0.34412 0.92554
 H1938 H 0.55890 0.36286 0.93354
 C1939 C 0.58585 0.29662 0.90319
 C1940 C 0.42440 0.65530 0.93597
 H1941 H 0.43254 0.63657 0.94295
 C1942 C 0.40168 0.70282 0.91654
 C1943 C 0.33804 0.56834 0.94191
 H1944 H 0.35717 0.56068 0.94848
 C1945 C 0.28870 0.58873 0.92426
 C1946 C 0.65247 0.43104 0.91938
 H1947 H 0.63355 0.43766 0.92751
 C1948 C 0.70076 0.41270 0.89711
 O1949 O 0.53510 0.40432 1.13101
 O1950 O 0.53729 0.37332 1.16212
 C1951 C 0.54547 0.39515 1.15223
 C1952 C 0.56762 0.40981 1.16514
 C1953 C 0.57722 0.40211 1.19029
 H1954 H 0.56807 0.38538 1.20044
 O1955 O 0.48268 0.59526 1.13494
 O1956 O 0.48459 0.62615 1.16611
 C1957 C 0.47489 0.60451 1.15721
 C1958 C 0.45375 0.59042 1.17247
 C1959 C 0.44491 0.60040 1.19714
 H1960 H 0.45396 0.61834 1.20486
 O1961 O 0.37281 0.52507 1.10559
 O1962 O 0.34382 0.52486 1.13872
 C1963 C 0.35173 0.53407 1.11647
 C1964 C 0.33677 0.55596 1.10342
 C1965 C 0.31252 0.56517 1.11415
 H1966 H 0.30422 0.55482 1.13109
 O1967 O 0.63939 0.47389 1.08729
 O1968 O 0.67250 0.47385 1.11626
 C1969 C 0.66169 0.46478 1.09522
 C1970 C 0.67481 0.44299 1.08018
 C1971 C 0.69952 0.43273 1.08856
 H1972 H 0.70919 0.44119 1.10591
 O1973 O 0.59907 0.36822 1.01894
 O1974 O 0.63019 0.33721 1.01690
 C1975 C 0.60920 0.34668 1.02755
 C1976 C 0.59704 0.33307 1.05081
 C1977 C 0.60798 0.30919 1.06046
 H1978 H 0.62396 0.29995 1.04935
 O1979 O 0.40437 0.63143 1.03336
 O1980 O 0.37325 0.66243 1.03563
 C1981 C 0.39552 0.65296 1.04329
 C1982 C 0.41082 0.66658 1.06461
 C1983 C 0.40137 0.69043 1.07580
 H1984 H 0.38361 0.69967 1.06766
 O1985 O 0.41204 0.47293 1.13906
 O1986 O 0.38307 0.47258 1.17221
 C1987 C 0.40401 0.46347 1.16116
 C1988 C 0.41853 0.44090 1.17353
 C1989 C 0.40897 0.42919 1.19712
 H1990 H 0.39181 0.43776 1.20712
 O1991 O 0.60527 0.52597 1.12607
 O1992 O 0.63842 0.52604 1.15502
 C1993 C 0.61610 0.53511 1.14707
 C1994 C 0.60297 0.55698 1.16196
 C1995 C 0.61379 0.56620 1.18608
 H1996 H 0.63072 0.55579 1.19433
 O1997 O 0.48147 0.36745 1.09725
 O1998 O 0.48392 0.33615 1.12803
 C1999 C 0.47318 0.34567 1.10714
 C2000 C 0.45006 0.33187 1.09494
 C2001 C 0.44060 0.30792 1.10589
 H2002 H 0.45193 0.29868 1.12169
 O2003 O 0.53194 0.63251 1.09505
 O2004 O 0.53381 0.66356 1.12607
 C2005 C 0.54150 0.65427 1.10377
 C2006 C 0.56220 0.66849 1.08806
 C2007 C 0.57190 0.69343 1.09633
 H2008 H 0.56377 0.70256 1.11414
 O2009 O 0.36891 0.40308 1.03485
 O2010 O 0.33797 0.37189 1.03694
 C2011 C 0.34787 0.39360 1.04540
 C2012 C 0.33530 0.40759 1.06821
 C2013 C 0.31108 0.39848 1.07900
 H2014 H 0.30087 0.38194 1.06963
 O2015 O 0.63397 0.59666 1.01754
 O2016 O 0.66496 0.62780 1.01553
 C2017 C 0.65625 0.60605 1.02517
 C2018 C 0.67179 0.59180 1.04593
 C2019 C 0.69678 0.60144 1.05427
 H2020 H 0.70455 0.61937 1.04520
 O2021 O 0.53480 0.59580 1.13135
 O2022 O 0.53676 0.62670 1.16252
 C2023 C 0.54540 0.60517 1.15237
 C2024 C 0.56846 0.59123 1.16458
 C2025 C 0.57965 0.60028 1.18862
 H2026 H 0.57060 0.61697 1.19891
 O2027 O 0.48300 0.40345 1.13403
 O2028 O 0.48523 0.37215 1.16483
 C2029 C 0.47509 0.39363 1.15604
 C2030 C 0.45315 0.40672 1.17099
 C2031 C 0.44326 0.39529 1.19462
 H2032 H 0.45334 0.37808 1.20265
 O2033 O 0.63908 0.52589 1.08703
 O2034 O 0.67233 0.52592 1.11586
 C2035 C 0.66136 0.53505 1.09490
 C2036 C 0.67423 0.55705 1.07995
 C2037 C 0.69914 0.56698 1.08800
 H2038 H 0.70910 0.55810 1.10499
 O2039 O 0.37308 0.47307 1.10520
 O2040 O 0.34400 0.47284 1.13826
 C2041 C 0.35204 0.46382 1.11597
 C2042 C 0.33733 0.44181 1.10278
 C2043 C 0.31310 0.43232 1.11336
 H2044 H 0.30452 0.44253 1.13026
 O2045 O 0.59732 0.63304 1.02018
 O2046 O 0.62813 0.66435 1.01800
 C2047 C 0.60714 0.65479 1.02861
 C2048 C 0.59431 0.66872 1.05133
 C2049 C 0.60379 0.69361 1.05995
 H2050 H 0.62063 0.70230 1.04971
 O2051 O 0.40580 0.36701 1.03244
 O2052 O 0.37502 0.33568 1.03479
 C2053 C 0.39722 0.34535 1.04236
 C2054 C 0.41283 0.33178 1.06349
 C2055 C 0.40363 0.30787 1.07481
 H2056 H 0.38574 0.29861 1.06700
 O2057 O 0.60525 0.47411 1.12630
 O2058 O 0.63823 0.47421 1.15545
 C2059 C 0.61586 0.46526 1.14755
 C2060 C 0.60210 0.44407 1.16288
 C2061 C 0.61144 0.43616 1.18810
 H2062 H 0.62902 0.44572 1.19610
 O2063 O 0.41213 0.52504 1.13925
 O2064 O 0.38327 0.52480 1.17249
 C2065 C 0.40425 0.53406 1.16157
 C2066 C 0.41920 0.55606 1.17455
 C2067 C 0.41070 0.56637 1.19918
 H2068 H 0.39336 0.55781 1.20886
 O2069 O 0.47985 0.63169 1.09850
 O2070 O 0.48168 0.66267 1.12960
 C2071 C 0.47108 0.65316 1.10864
 C2072 C 0.44771 0.66666 1.09650
 C2073 C 0.43792 0.69050 1.10740
 H2074 H 0.44895 0.69982 1.12336
 O2075 O 0.53361 0.36800 1.09424
 O2076 O 0.53608 0.33689 1.12520
 C2077 C 0.54372 0.34651 1.10302
 C2078 C 0.56514 0.33302 1.08770
 C2079 C 0.57640 0.30915 1.09704
 H2080 H 0.56833 0.29986 1.11481
 O2081 O 0.63555 0.40457 1.01641
 O2082 O 0.66676 0.37364 1.01436
 C2083 C 0.65782 0.39521 1.02415
 C2084 C 0.67301 0.40909 1.04534
 C2085 C 0.69773 0.39908 1.05405
 H2086 H 0.70552 0.38129 1.04480
 O2087 O 0.36776 0.59505 1.03558
 O2088 O 0.33651 0.62594 1.03771
 C2089 C 0.34664 0.60432 1.04613
 C2090 C 0.33426 0.59020 1.06894
 C2091 C 0.31006 0.59914 1.07991
 H2092 H 0.29973 0.61575 1.07075
 Cu2093 Cu 0.50814 0.38893 1.11103
 Cu2094 Cu 0.51093 0.35147 1.14811
 Cu2095 Cu 0.50719 0.61072 1.11186
 Cu2096 Cu 0.50942 0.64787 1.14919
 Cu2097 Cu 0.38864 0.38808 1.00743
 Cu2098 Cu 0.35172 0.35046 1.01007
 Cu2099 Cu 0.61250 0.38941 0.99185
 Cu2100 Cu 0.64992 0.35222 0.98940
 Cu2101 Cu 0.38748 0.61024 1.00827
 Cu2102 Cu 0.35011 0.64746 1.01088
 Cu2103 Cu 0.61077 0.61182 0.99313
 Cu2104 Cu 0.64792 0.64922 0.99056
 Cu2105 Cu 0.39541 0.49909 1.11897
 Cu2106 Cu 0.36068 0.49878 1.15879
 Cu2107 Cu 0.61894 0.49990 1.10376
 Cu2108 Cu 0.65874 0.49997 1.13851
 C2109 C 0.57993 0.43108 1.15182
 H2110 H 0.57280 0.43693 1.13227
 C2111 C 0.59861 0.41567 1.20247
 C2112 C 0.44103 0.56797 1.16158
 H2113 H 0.44747 0.56041 1.14239
 C2114 C 0.42376 0.58817 1.21109
 C2115 C 0.34738 0.56854 1.08078
 H2116 H 0.36628 0.56181 1.07267
 C2117 C 0.29918 0.58723 1.10293
 C2118 C 0.66194 0.43131 1.05825
 H2119 H 0.64270 0.43886 1.05190
 C2120 C 0.71156 0.41110 1.07532
 C2121 C 0.57558 0.34480 1.06452
 H2122 H 0.56738 0.36348 1.05747
 C2123 C 0.59847 0.29745 1.08415
 C2124 C 0.43405 0.65488 1.07508
 H2125 H 0.44119 0.63622 1.06692
 C2126 C 0.41416 0.70214 1.09788
 C2127 C 0.44070 0.42956 1.16067
 H2128 H 0.44786 0.43814 1.14217
 C2129 C 0.42054 0.40581 1.20746
 C2130 C 0.58025 0.56953 1.15146
 H2131 H 0.57205 0.56272 1.13267
 C2132 C 0.60274 0.58834 1.19937
 C2133 C 0.43610 0.34360 1.07369
 H2134 H 0.44301 0.36234 1.06549
 C2135 C 0.41679 0.29618 1.09670
 C2136 C 0.57327 0.65655 1.06529
 H2137 H 0.56611 0.63721 1.05894
 C2138 C 0.59226 0.70662 1.08206
 C2139 C 0.34820 0.42933 1.08018
 H2140 H 0.36709 0.43621 1.07220
 C2141 C 0.30004 0.41014 1.10206
 C2142 C 0.66092 0.56932 1.05860
 H2143 H 0.64150 0.56199 1.05254
 C2144 C 0.71104 0.58877 1.07492
 C2145 C 1.13117 1.11996 1.27171
 C2146 C 1.15153 1.10187 1.25721
 C2147 C 1.14253 1.09171 1.23370
 C2148 C 1.11389 1.10044 1.22632
 C2149 C 1.09679 1.09294 1.25060
 C2150 C 1.10573 1.10303 1.27410
 C2151 C 1.12456 1.14123 1.25042
 C2152 C 1.11554 1.13107 1.22693
 H2153 H 1.17242 1.10001 1.26261
 H2154 H 1.15617 1.08163 1.22028
 H2155 H 1.07909 1.08050 1.24940
 H2156 H 1.09559 1.09915 1.29287
 H2157 H 1.12809 1.16241 1.25300
 H2158 H 1.11139 1.14368 1.20983
 C2159 C 1.13181 0.61836 0.77023
 C2160 C 1.12700 0.63929 0.74823
 C2161 C 1.11797 0.62896 0.72483
 C2162 C 1.11450 0.59848 0.72510
 C2163 C 1.14235 0.58824 0.73356
 C2164 C 1.15132 0.59858 0.75700
 C2165 C 1.10534 0.60313 0.77255
 C2166 C 1.09637 0.59280 0.74916
 H2167 H 1.13143 0.66033 0.75045
 H2168 H 1.11470 0.64128 0.70733
 H2169 H 1.15571 0.57677 0.72105
 H2170 H 1.17178 0.59538 0.76327
 H2171 H 1.09460 0.60051 0.79119
 H2172 H 1.07799 0.58139 0.74790
 C2173 C 0.62531 1.11308 0.77506
 C2174 C 0.59465 1.11118 0.77312
 C2175 C 0.58561 1.10154 0.74941
 C2176 C 0.60793 1.09454 0.72942
 C2177 C 0.62478 1.11995 0.72703
 C2178 C 0.63380 1.12955 0.75067
 C2179 C 0.63468 1.08445 0.76886
 C2180 C 0.62561 1.07481 0.74514
 H2181 H 0.58120 1.11582 0.78947
 H2182 H 0.56454 1.09798 0.74579
 H2183 H 0.62939 1.12953 0.70816
 H2184 H 0.64611 1.14731 0.75191
 H2185 H 0.64465 1.07143 0.78292
 H2186 H 0.62823 1.05400 0.73999
 C2187 C 0.63213 0.61960 1.27012
 C2188 C 0.60589 0.60393 1.27268
 C2189 C 0.59683 0.59350 1.24938
 C2190 C 0.61460 0.59944 1.22513
 C2191 C 0.61764 0.62995 1.22478
 C2192 C 0.62682 0.64044 1.24806
 C2193 C 0.65182 0.60012 1.25655
 C2194 C 0.64270 0.58962 1.23324
 H2195 H 0.59535 0.60110 1.29141
 H2196 H 0.57862 0.58182 1.24831
 H2197 H 0.61418 0.64218 1.20726
 H2198 H 0.63122 0.66152 1.25003
 H2199 H 0.67252 0.59747 1.26231
 H2200 H 0.65611 0.57853 1.22045
 C2201 C 0.88710 0.87332 1.27469
 C2202 C 0.86753 0.87923 1.25165
 C2203 C 0.87933 0.88945 1.22945
 C2204 C 0.90981 0.89291 1.23180
 C2205 C 0.91395 0.90970 1.25701
 C2206 C 0.90220 0.89957 1.27925
 C2207 C 0.90778 0.85453 1.26159
 C2208 C 0.91961 0.86473 1.23938
 H2209 H 0.84636 0.87453 1.25219
 H2210 H 0.86811 0.89345 1.21136
 H2211 H 0.92544 0.92804 1.25737
 H2212 H 0.90371 0.90931 1.29852
 H2213 H 0.91034 0.83367 1.26654
 H2214 H 0.93168 0.85203 1.22676
 C2215 C 0.89225 0.37886 0.77948
 C2216 C 0.87760 0.37159 0.75357
 C2217 C 0.88891 0.38169 0.73114
 C2218 C 0.91411 0.39833 0.73608
 C2219 C 0.90566 0.41961 0.75655
 C2220 C 0.89433 0.40952 0.77909
 C2221 C 0.92149 0.36988 0.77485
 C2222 C 0.93278 0.37997 0.75224
 H2223 H 0.85979 0.35925 0.75290
 H2224 H 0.88072 0.37796 0.71145
 H2225 H 0.90957 0.44075 0.75421
 H2226 H 0.88870 0.42220 0.79571
 H2227 H 0.93373 0.35961 0.78941
 H2228 H 0.95397 0.37768 0.74842
 C2229 C 0.38665 0.87320 0.77439
 C2230 C 0.36729 0.87872 0.75116
 C2231 C 0.37916 0.88911 0.72907
 C2232 C 0.40953 0.89320 0.73179
 C2233 C 0.41295 0.91013 0.75705
 C2234 C 0.40108 0.89976 0.77914
 C2235 C 0.40796 0.85490 0.76176
 C2236 C 0.41984 0.86526 0.73965
 H2237 H 0.34616 0.87390 0.75166
 H2238 H 0.36805 0.89308 0.71091
 H2239 H 0.42403 0.92871 0.75754
 H2240 H 0.40206 0.90952 0.79844
 H2241 H 0.41128 0.83428 0.76715
 H2242 H 0.43261 0.85284 0.72746
 C2243 C 0.38499 0.37300 1.27469
 C2244 C 0.40077 0.39881 1.27955
 C2245 C 0.41263 0.40902 1.25740
 C2246 C 0.40794 0.39274 1.23194
 C2247 C 0.41711 0.36424 1.23902
 C2248 C 0.40517 0.35395 1.26115
 C2249 C 0.36545 0.37976 1.25188
 C2250 C 0.37736 0.39003 1.22975
 H2251 H 0.40264 0.40821 1.29896
 H2252 H 0.42456 0.42707 1.25798
 H2253 H 0.42888 0.35152 1.22613
 H2254 H 0.40732 0.33296 1.26570
 H2255 H 0.34417 0.37564 1.25253
 H2256 H 0.36612 0.39459 1.21181
 C2257 C 0.86684 1.12062 0.73105
 C2258 C 0.87271 1.14139 0.75297
 C2259 C 0.88205 1.13080 0.77614
 C2260 C 0.88474 1.10024 0.77580
 C2261 C 0.85643 1.09076 0.76812
 C2262 C 0.84710 1.10136 0.74493
 C2263 C 0.89284 1.10462 0.72815
 C2264 C 0.90211 1.09409 0.75133
 H2265 H 0.86861 1.16253 0.75097
 H2266 H 0.88587 1.14300 0.79360
 H2267 H 0.84310 1.07984 0.78118
 H2268 H 0.82626 1.09899 0.73959
 H2269 H 0.90308 1.10164 0.70928
 H2270 H 0.92019 1.08218 0.75217
 C2271 C 0.87042 0.61823 0.22747
 C2272 C 0.85016 0.59958 0.24131
 C2273 C 0.85865 0.58976 0.26517
 C2274 C 0.88677 0.59934 0.27341
 C2275 C 0.90485 0.59223 0.24971
 C2276 C 0.89637 0.60202 0.22590
 C2277 C 0.87583 0.63973 0.24871
 C2278 C 0.88432 0.62993 0.27256
 H2279 H 0.82962 0.59691 0.23510
 H2280 H 0.84491 0.57921 0.27809
 H2281 H 0.92283 0.58027 0.25152
 H2282 H 0.90714 0.59841 0.20745
 H2283 H 0.87213 0.66082 0.24567
 H2284 H 0.88780 0.64274 0.28964
 C2285 C 0.36777 1.11981 0.23099
 C2286 C 0.39392 1.10398 0.22849
 C2287 C 0.40298 1.09366 0.25184
 C2288 C 0.38527 1.09983 0.27606
 C2289 C 0.38236 1.13036 0.27620
 C2290 C 0.37322 1.14075 0.25286
 C2291 C 0.34800 1.10048 0.24474
 C2292 C 0.35713 1.09009 0.26810
 H2293 H 0.40440 1.10096 0.20976
 H2294 H 0.42113 1.08188 0.25297
 H2295 H 0.38590 1.14269 0.29362
 H2296 H 0.36900 1.16185 0.25068
 H2297 H 0.32725 1.09793 0.23917
 H2298 H 0.34371 1.07917 0.28106
 C2299 C 0.37436 0.61261 0.72587
 C2300 C 0.36357 0.58451 0.73226
 C2301 C 0.37233 0.57443 0.75593
 C2302 C 0.39117 0.59323 0.77140
 C2303 C 0.41363 0.59905 0.75118
 C2304 C 0.40490 0.60912 0.72753
 C2305 C 0.36696 0.62952 0.75029
 C2306 C 0.37568 0.61948 0.77387
 H2307 H 0.35283 0.57202 0.71831
 H2308 H 0.36866 0.55379 0.76111
 H2309 H 0.43454 0.59452 0.75469
 H2310 H 0.41842 0.61310 0.71107
 H2311 H 0.35557 0.64788 0.74910
 H2312 H 0.37171 0.62930 0.79275
 C2313 C 1.11698 0.87526 0.72618
 C2314 C 1.13669 0.88347 0.74830
 C2315 C 1.12480 0.89403 0.77030
 C2316 C 1.09410 0.89556 0.76854
 C2317 C 1.08842 0.91084 0.74263
 C2318 C 1.10030 0.90030 0.72065
 C2319 C 1.09781 0.85598 0.74062
 C2320 C 1.08590 0.86650 0.76261
 H2321 H 1.15806 0.87989 0.74747
 H2322 H 1.13616 0.89943 0.78791
 H2323 H 1.07593 0.92850 0.74166
 H2324 H 1.09795 0.90899 0.70095
 H2325 H 1.09624 0.83488 0.73633
 H2326 H 1.07481 0.85379 0.77611
 C2327 C 1.10886 0.38220 0.21938
 C2328 C 1.07921 0.37460 0.22334
 C2329 C 1.06800 0.38501 0.24580
 C2330 C 1.08726 0.40219 0.26251
 C2331 C 1.11151 0.38426 0.26773
 C2332 C 1.12271 0.37390 0.24538
 C2333 C 1.10842 0.41288 0.22002
 C2334 C 1.09716 0.42329 0.24244
 H2335 H 1.06697 0.36476 0.20850
 H2336 H 1.04668 0.38356 0.24938
 H2337 H 1.11920 0.37996 0.28751
 H2338 H 1.13992 0.36077 0.24613
 H2339 H 1.11501 0.42537 0.20360
 H2340 H 1.09417 0.44456 0.24484
 C2341 C 0.60936 0.88223 0.21851
 C2342 C 0.57976 0.87447 0.22285
 C2343 C 0.56872 0.88489 0.24539
 C2344 C 0.58800 0.90232 0.26182
 C2345 C 0.61247 0.88464 0.26687
 C2346 C 0.62353 0.87422 0.24447
 C2347 C 0.60852 0.91298 0.21903
 C2348 C 0.59747 0.92339 0.24155
 H2349 H 0.56731 0.86470 0.20812
 H2350 H 0.54742 0.88342 0.24912
 H2351 H 0.62039 0.88053 0.28660
 H2352 H 0.64087 0.86124 0.24518
 H2353 H 0.61454 0.92553 0.20243
 H2354 H 0.59421 0.94464 0.24384
 C2355 C 0.61581 0.37502 0.72567
 C2356 C 0.63559 0.38329 0.74768
 C2357 C 0.62374 0.39346 0.76989
 C2358 C 0.59298 0.39462 0.76841
 C2359 C 0.58689 0.41005 0.74269
 C2360 C 0.59873 0.39988 0.72052
 C2361 C 0.59700 0.35535 0.74011
 C2362 C 0.58511 0.36553 0.76229
 H2363 H 0.65701 0.38009 0.74657
 H2364 H 0.63518 0.39888 0.78745
 H2365 H 0.57415 0.42753 0.74197
 H2366 H 0.59609 0.40871 0.70093
 H2367 H 0.59569 0.33426 0.73570
 H2368 H 0.57422 0.35261 0.77576
 C2369 C 1.27458 1.12658 1.11494
 C2370 C 1.26176 1.14514 1.09400
 C2371 C 1.23966 1.13484 1.08206
 C2372 C 1.23199 1.10672 1.09200
 C2373 C 1.25738 1.08995 1.08826
 C2374 C 1.27947 1.10025 1.10017
 C2375 C 1.25140 1.12069 1.13430
 C2376 C 1.22931 1.11036 1.12239
 H2377 H 1.26698 1.16586 1.09106
 H2378 H 1.22731 1.14741 1.06960
 H2379 H 1.25795 1.07152 1.07696
 H2380 H 1.29884 1.09059 1.09902
 H2381 H 1.25187 1.12529 1.15545
 H2382 H 1.21115 1.10620 1.13349
 C2383 C 1.27568 0.62564 0.61310
 C2384 C 1.25292 0.61907 0.63272
 C2385 C 1.23060 0.60907 0.62093
 C2386 C 1.23267 0.60638 0.59038
 C2387 C 1.24006 0.63482 0.58120
 C2388 C 1.26238 0.64481 0.59300
 C2389 C 1.28031 0.59980 0.59740
 C2390 C 1.25801 0.58982 0.58561
 H2391 H 1.25382 0.62300 0.65399
 H2392 H 1.21267 0.60455 0.63226
 H2393 H 1.22739 0.64770 0.56938
 H2394 H 1.26748 0.66564 0.59063
 H2395 H 1.29967 0.59023 0.59555
 H2396 H 1.25839 0.57176 0.57373
 C2397 C 0.77395 1.12829 0.61623
 C2398 C 0.76049 1.14721 0.59592
 C2399 C 0.73860 1.13674 0.58374
 C2400 C 0.73166 1.10817 0.59284
 C2401 C 0.75738 1.09210 0.58850
 C2402 C 0.77930 1.10252 0.60060
 C2403 C 0.75089 1.12136 0.63548
 C2404 C 0.72901 1.11087 0.62333
 H2405 H 0.76491 1.16825 0.59387
 H2406 H 0.72573 1.14940 0.57190
 H2407 H 0.75829 1.07404 0.57664
 H2408 H 0.79885 1.09327 0.59903
 H2409 H 0.75114 1.12558 0.65672
 H2410 H 0.71091 1.10618 0.63433
 C2411 C 0.78067 0.61955 1.10702
 C2412 C 0.75489 0.62688 1.12189
 C2413 C 0.73234 0.61678 1.11084
 C2414 C 0.73714 0.60008 1.08568
 C2415 C 0.75319 0.61839 1.06685
 C2416 C 0.77585 0.62854 1.07793
 C2417 C 0.78032 0.58893 1.10516
 C2418 C 0.75771 0.57880 1.09403
 H2419 H 0.75442 0.63922 1.13966
 H2420 H 0.71268 0.62050 1.11920
 H2421 H 0.74912 0.62078 1.04574
 H2422 H 0.79025 0.63911 1.06574
 H2423 H 0.79699 0.57635 1.11090
 H2424 H 0.75535 0.55764 1.09027
 C2425 C 1.27093 0.88201 0.86800
 C2426 C 1.25767 0.90197 0.84856
 C2427 C 1.23451 0.91278 0.85783
 C2428 C 1.22625 0.90278 0.88579
 C2429 C 1.22539 0.87231 0.88243
 C2430 C 1.24852 0.86152 0.87315
 C2431 C 1.27378 0.89738 0.89433
 C2432 C 1.25063 0.90812 0.90354
 H2433 H 1.26335 0.90476 0.82788
 H2434 H 1.22189 0.92427 0.84460
 H2435 H 1.20766 0.86033 0.88587
 H2436 H 1.25022 0.84043 0.86869
 H2437 H 1.29259 0.89983 0.90482
 H2438 H 1.24977 0.91967 0.92182
 C2439 C 1.27467 0.38712 0.37259
 C2440 C 1.24990 0.37056 0.36537
 C2441 C 1.22650 0.38081 0.37438
 C2442 C 1.22939 0.40694 0.38993
 C2443 C 1.24976 0.40082 0.41213
 C2444 C 1.27328 0.39059 0.40315
 C2445 C 1.26848 0.41544 0.36206
 C2446 C 1.24492 0.42569 0.37106
 H2447 H 1.25069 0.35226 0.35386
 H2448 H 1.20743 0.37124 0.37053
 H2449 H 1.24651 0.40542 0.43303
 H2450 H 1.28986 0.38661 0.41653
 H2451 H 1.28257 0.42806 0.35157
 H2452 H 1.23999 0.44643 0.36768
 C2453 C 0.77151 0.88239 0.36836
 C2454 C 0.75776 0.90127 0.34827
 C2455 C 0.73429 0.91173 0.35713
 C2456 C 0.72630 0.90250 0.38541
 C2457 C 0.72634 0.87188 0.38315
 C2458 C 0.74982 0.86145 0.37431
 C2459 C 0.77396 0.89871 0.39412
 C2460 C 0.75052 0.90913 0.40296
 H2461 H 0.76362 0.90369 0.32761
 H2462 H 0.72140 0.92255 0.34359
 H2463 H 0.70900 0.85951 0.38707
 H2464 H 0.75230 0.84027 0.37078
 H2465 H 0.79271 0.90195 0.40448
 H2466 H 0.74933 0.92126 0.42084
 C2467 C 0.77240 0.38243 0.86858
 C2468 C 0.75886 0.40173 0.84879
 C2469 C 0.73521 0.41187 0.85759
 C2470 C 0.72686 0.40193 0.88555
 C2471 C 0.72707 0.37140 0.88256
 C2472 C 0.75070 0.36127 0.87374
 C2473 C 0.77443 0.39812 0.89477
 C2474 C 0.75084 0.40823 0.90356
 H2475 H 0.76508 0.40473 0.82830
 H2476 H 0.72250 0.42299 0.84413
 H2477 H 0.70974 0.35887 0.88601
 H2478 H 0.75331 0.34019 0.86972
 H2479 H 0.79304 0.40119 0.90545
 H2480 H 0.74937 0.41991 0.92172
 C2481 C 0.72492 0.88575 1.12408
 C2482 C 0.73086 0.91458 1.13303
 C2483 C 0.75482 0.92416 1.12442
 C2484 C 0.77103 0.90423 1.10749
 C2485 C 0.77306 0.87907 1.12478
 C2486 C 0.74917 0.86949 1.13337
 C2487 C 0.72762 0.88717 1.09349
 C2488 C 0.75155 0.89679 1.08487
 H2489 H 0.71643 0.92773 1.14232
 H2490 H 0.75987 0.94502 1.12680
 H2491 H 0.79186 0.86961 1.12994
 H2492 H 0.74764 0.85188 1.14586
 H2493 H 0.71158 0.88236 1.07976
 H2494 H 0.75564 0.90012 1.06386
 C2495 C 0.72512 0.38477 0.62429
 C2496 C 0.73110 0.41351 0.63370
 C2497 C 0.75491 0.42335 0.62494
 C2498 C 0.77089 0.40386 0.60730
 C2499 C 0.77332 0.37834 0.62397
 C2500 C 0.74965 0.36846 0.63278
 C2501 C 0.72729 0.38702 0.59364
 C2502 C 0.75107 0.39688 0.58485
 H2503 H 0.71672 0.42648 0.64333
 H2504 H 0.75987 0.44419 0.62760
 H2505 H 0.79225 0.36886 0.62861
 H2506 H 0.74849 0.35056 0.64490
 H2507 H 0.71099 0.38279 0.58002
 H2508 H 0.75474 0.40086 0.56389
 C2509 C 0.23147 0.87701 0.63068
 C2510 C 0.25198 0.85575 0.62196
 C2511 C 0.27544 0.86596 0.61276
 C2512 C 0.27672 0.89664 0.61300
 C2513 C 0.25202 0.90573 0.59735
 C2514 C 0.22858 0.89559 0.60650
 C2515 C 0.24719 0.89341 0.65156
 C2516 C 0.27061 0.90365 0.64232
 H2517 H 0.24908 0.83446 0.62441
 H2518 H 0.29216 0.85324 0.60749
 H2519 H 0.25292 0.91922 0.58043
 H2520 H 0.20954 0.90046 0.59734
 H2521 H 0.24256 0.89404 0.67268
 H2522 H 0.28482 0.91267 0.65590
 C2523 C 0.22826 0.37959 1.13012
 C2524 C 0.24929 0.35826 1.12298
 C2525 C 0.27297 0.36838 1.11426
 C2526 C 0.27396 0.39906 1.11337
 C2527 C 0.24976 0.40727 1.09649
 C2528 C 0.22609 0.39720 1.10515
 C2529 C 0.24301 0.39697 1.15090
 C2530 C 0.26667 0.40714 1.14215
 H2531 H 0.24649 0.33703 1.12605
 H2532 H 0.28998 0.35568 1.10991
 H2533 H 0.25114 0.42013 1.07912
 H2534 H 0.20736 0.40153 1.09512
 H2535 H 0.23757 0.39836 1.17179
 H2536 H 0.28021 0.41679 1.15595
 C2537 C 0.71951 1.11950 0.89077
 C2538 C 0.74554 1.12628 0.87601
 C2539 C 0.76789 1.11609 0.88744
 C2540 C 0.76273 1.09984 0.91284
 C2541 C 0.74670 1.11860 0.93123
 C2542 C 0.72421 1.12879 0.91982
 C2543 C 0.71955 1.08884 0.89329
 C2544 C 0.74201 1.07866 0.90471
 H2545 H 0.74636 1.13832 0.85802
 H2546 H 0.78766 1.11946 0.87917
 H2547 H 0.75050 1.12112 0.95237
 H2548 H 0.70969 1.13944 0.93180
 H2549 H 0.70272 1.07627 0.88802
 H2550 H 0.74410 1.05756 0.90896
 C2551 C 0.72117 0.62094 0.38979
 C2552 C 0.72090 0.59035 0.39216
 C2553 C 0.74306 0.57997 0.40398
 C2554 C 0.76383 0.60098 0.41248
 C2555 C 0.76951 0.61721 0.38716
 C2556 C 0.74741 0.62755 0.37541
 C2557 C 0.72548 0.63026 0.41884
 C2558 C 0.74769 0.61987 0.43063
 H2559 H 0.70412 0.57798 0.38629
 H2560 H 0.74496 0.55883 0.40812
 H2561 H 0.78942 0.62045 0.37919
 H2562 H 0.74852 0.63959 0.35744
 H2563 H 0.71096 0.64128 0.43047
 H2564 H 0.75129 0.62251 0.45178
 C2565 C 0.21944 1.11950 0.39057
 C2566 C 0.21994 1.08878 0.39154
 C2567 C 0.24225 1.07840 0.40308
 C2568 C 0.26239 1.09948 0.41282
 C2569 C 0.26794 1.11706 0.38841
 C2570 C 0.24573 1.12744 0.37689
 C2571 C 0.22320 1.12738 0.42019
 C2572 C 0.24558 1.11701 0.43168
 H2573 H 0.20346 1.07624 0.38519
 H2574 H 0.24447 1.05716 0.40646
 H2575 H 0.28786 1.12114 0.38086
 H2576 H 0.24681 1.14037 0.35954
 H2577 H 0.20821 1.13713 0.43236
 H2578 H 0.24893 1.11858 0.45299
 C2579 C 0.22042 0.62080 0.89022
 C2580 C 0.22022 0.59012 0.89228
 C2581 C 0.24239 0.57962 0.90397
 C2582 C 0.26308 0.60055 0.91281
 C2583 C 0.26882 0.61714 0.88776
 C2584 C 0.24677 0.62764 0.87607
 C2585 C 0.22461 0.62964 0.91949
 C2586 C 0.24683 0.61914 0.93117
 H2587 H 0.20342 0.57774 0.88645
 H2588 H 0.24426 0.55845 0.90795
 H2589 H 0.28877 0.62052 0.87993
 H2590 H 0.24802 0.63996 0.85830
 H2591 H 0.20994 0.64019 0.93138
 H2592 H 0.25027 0.62133 0.95241
 C2593 C 1.12059 1.27773 1.11239
 C2594 C 1.12880 1.25260 1.12774
 C2595 C 1.11939 1.22957 1.11713
 C2596 C 1.10241 1.23330 1.09192
 C2597 C 1.08042 1.25318 1.09998
 C2598 C 1.08985 1.27631 1.11056
 C2599 C 1.12967 1.27274 1.08344
 C2600 C 1.12021 1.24967 1.07275
 H2601 H 1.14116 1.25291 1.14552
 H2602 H 1.12376 1.21026 1.12587
 H2603 H 1.05930 1.24999 1.09630
 H2604 H 1.07660 1.29269 1.11553
 H2605 H 1.14002 1.28731 1.07124
 H2606 H 1.12268 1.24559 1.05167
 C2607 C 1.12246 0.77663 0.61340
 C2608 C 1.13119 0.75107 0.62772
 C2609 C 1.12138 0.72835 0.61681
 C2610 C 1.10350 0.73280 0.59236
 C2611 C 1.08184 0.75245 0.60177
 C2612 C 1.09167 0.77527 0.61266
 C2613 C 1.13046 0.77246 0.58400
 C2614 C 1.12060 0.74969 0.57301
 H2615 H 1.14419 0.75087 0.64504
 H2616 H 1.12604 0.70881 0.62485
 H2617 H 1.06059 0.74940 0.59873
 H2618 H 1.07864 0.79151 0.61858
 H2619 H 1.14038 0.78736 0.57185
 H2620 H 1.12230 0.74613 0.55177
 C2621 C 0.62151 1.27791 0.61180
 C2622 C 0.62955 1.27332 0.58247
 C2623 C 0.61973 1.25035 0.57184
 C2624 C 0.60268 1.23370 0.59142
 C2625 C 0.62055 1.22967 0.61595
 C2626 C 0.63031 1.25258 0.62651
 C2627 C 0.59073 1.27644 0.61107
 C2628 C 0.58096 1.25343 0.60053
 H2629 H 0.63930 1.28807 0.57001
 H2630 H 0.62138 1.24652 0.55063
 H2631 H 0.62527 1.21026 0.62427
 H2632 H 0.64332 1.25267 0.64382
 H2633 H 0.57768 1.29268 0.61692
 H2634 H 0.55971 1.25024 0.59763
 C2635 C 0.62053 0.77804 1.11250
 C2636 C 0.62928 0.75302 1.12775
 C2637 C 0.62008 0.72984 1.11726
 C2638 C 0.60274 0.73330 1.09225
 C2639 C 0.58058 0.75290 1.10058
 C2640 C 0.58980 0.77616 1.11106
 C2641 C 0.62930 0.77313 1.08341
 C2642 C 0.62006 0.74989 1.07286
 H2643 H 0.64185 0.75352 1.14539
 H2644 H 0.62482 0.71061 1.12596
 H2645 H 0.55946 0.74941 1.09719
 H2646 H 0.57639 0.79232 1.11632
 H2647 H 0.63919 0.78783 1.07101
 H2648 H 0.62233 0.74578 1.05177
 C2649 C 0.87802 1.27745 0.88793
 C2650 C 0.87078 1.25241 0.87198
 C2651 C 0.87972 1.22934 0.88292
 C2652 C 0.89533 1.23292 0.90902
 C2653 C 0.91758 1.25302 0.90227
 C2654 C 0.90860 1.27618 0.89135
 C2655 C 0.86744 1.27210 0.91636
 C2656 C 0.87641 1.24894 0.92734
 H2657 H 0.85934 1.25281 0.85360
 H2658 H 0.87587 1.21009 0.87384
 H2659 H 0.93853 1.24985 0.90688
 H2660 H 0.92198 1.29260 0.88690
 H2661 H 0.85650 1.28648 0.92823
 H2662 H 0.87278 1.24459 0.94819
 C2663 C 0.87732 0.77741 0.38804
 C2664 C 0.87012 0.75226 0.37225
 C2665 C 0.87941 0.72930 0.38312
 C2666 C 0.89529 0.73310 0.40901
 C2667 C 0.91728 0.75337 0.40197
 C2668 C 0.90796 0.77642 0.39112
 C2669 C 0.86709 0.77206 0.41658
 C2670 C 0.87643 0.74901 0.42752
 H2671 H 0.85844 0.75250 0.35401
 H2672 H 0.87561 0.71000 0.37414
 H2673 H 0.93831 0.75036 0.40630
 H2674 H 0.92113 0.79295 0.38643
 H2675 H 0.85616 0.78637 0.42854
 H2676 H 0.87311 0.74472 0.44844
 C2677 C 0.37047 1.27354 0.38447
 C2678 C 0.39715 1.27688 0.39918
 C2679 C 0.40688 1.25403 0.41002
 C2680 C 0.38921 1.22948 0.40540
 C2681 C 0.36137 1.23758 0.41593
 C2682 C 0.35164 1.26047 0.40509
 C2683 C 0.37546 1.25112 0.36410
 C2684 C 0.38517 1.22825 0.37496
 H2685 H 0.40748 1.29579 0.40108
 H2686 H 0.42548 1.25349 0.42112
 H2687 H 0.34858 1.22505 0.42804
 H2688 H 0.33110 1.26623 0.40861
 H2689 H 0.37073 1.25273 0.34304
 H2690 H 0.38857 1.21051 0.36306
 C2691 C 0.37021 0.77200 0.88405
 C2692 C 0.39672 0.77553 0.89905
 C2693 C 0.40658 0.75271 0.90983
 C2694 C 0.38921 0.72802 0.90491
 C2695 C 0.36118 0.73577 0.91521
 C2696 C 0.35132 0.75862 0.90442
 C2697 C 0.37564 0.74976 0.86361
 C2698 C 0.38546 0.72692 0.87442
 H2699 H 0.40682 0.79454 0.90116
 H2700 H 0.42508 0.75230 0.92111
 H2701 H 0.34844 0.72302 0.92715
 H2702 H 0.33071 0.76417 0.90785
 H2703 H 0.37108 0.75144 0.84251
 H2704 H 0.38910 0.70928 0.86245
 C2705 C 1.11882 0.72824 0.87157
 C2706 C 1.13984 0.74940 0.87890
 C2707 C 1.12937 0.77240 0.88873
 C2708 C 1.09862 0.77249 0.89057
 C2709 C 1.08983 0.76606 0.86179
 C2710 C 1.10029 0.74307 0.85191
 C2711 C 1.10202 0.72460 0.89695
 C2712 C 1.09156 0.74755 0.90681
 H2713 H 1.16112 0.74700 0.87544
 H2714 H 1.14184 0.78946 0.89338
 H2715 H 1.07923 0.77976 0.84887
 H2716 H 1.09809 0.73833 0.83096
 H2717 H 1.09851 0.70542 0.90633
 H2718 H 1.07917 0.74793 0.92459
 C2719 C 1.11315 0.22323 0.37739
 C2720 C 1.11064 0.22479 0.40801
 C2721 C 1.09992 0.24801 0.41706
 C2722 C 1.09246 0.26786 0.39485
 C2723 C 1.11811 0.27137 0.37842
 C2724 C 1.12883 0.24823 0.36938
 C2725 C 1.08437 0.22837 0.36769
 C2726 C 1.07358 0.25158 0.37675
 H2727 H 1.11537 0.20848 0.42141
 H2728 H 1.09583 0.25134 0.43807
 H2729 H 1.12705 0.29060 0.37411
 H2730 H 1.14691 0.24776 0.35741
 H2731 H 1.07225 0.21383 0.35725
 H2732 H 1.05257 0.25581 0.37378
 C2733 C 0.61874 0.72881 0.37043
 C2734 C 0.60048 0.74389 0.35072
 C2735 C 0.59015 0.76689 0.36067
 C2736 C 0.59874 0.77306 0.38958
 C2737 C 0.59135 0.74808 0.40559
 C2738 C 0.60170 0.72512 0.39565
 C2739 C 0.63987 0.74976 0.37807
 C2740 C 0.62950 0.77277 0.38798
 H2741 H 0.59842 0.73927 0.32973
 H2742 H 0.57979 0.78078 0.34773
 H2743 H 0.57883 0.74843 0.42327
 H2744 H 0.59796 0.70590 0.40487
 H2745 H 0.66115 0.74724 0.37474
 H2746 H 0.64206 0.78970 0.39285
 C2747 C 0.61756 0.22675 0.87251
 C2748 C 0.63860 0.24805 0.87935
 C2749 C 0.62816 0.27117 0.88895
 C2750 C 0.59742 0.27123 0.89107
 C2751 C 0.58838 0.26438 0.86247
 C2752 C 0.59882 0.24128 0.85281
 C2753 C 0.60099 0.22344 0.89809
 C2754 C 0.59057 0.24650 0.90772
 H2755 H 0.65985 0.24565 0.87572
 H2756 H 0.64063 0.28832 0.89326
 H2757 H 0.57765 0.27789 0.84944
 H2758 H 0.59651 0.23626 0.83194
 H2759 H 0.59762 0.20439 0.90778
 H2760 H 0.57834 0.24710 0.92561
 C2761 C 0.89035 0.72142 1.12025
 C2762 C 0.89324 0.72286 1.08965
 C2763 C 0.90403 0.74607 1.08061
 C2764 C 0.91120 0.76599 1.10281
 C2765 C 0.88535 0.76953 1.11892
 C2766 C 0.87454 0.74643 1.12793
 C2767 C 0.91899 0.72661 1.13029
 C2768 C 0.92987 0.74980 1.12124
 H2769 H 0.88866 0.70650 1.07628
 H2770 H 0.90834 0.74935 1.05964
 H2771 H 0.87635 0.78877 1.12305
 H2772 H 0.85633 0.74599 1.13971
 H2773 H 0.93099 0.71212 1.14096
 H2774 H 0.95083 0.75406 1.12447
 C2775 C 0.88311 0.22841 0.62936
 C2776 C 0.90309 0.24243 0.64812
 C2777 C 0.91400 0.26499 0.63773
 C2778 C 0.90421 0.27181 0.60933
 C2779 C 0.90954 0.24660 0.59287
 C2780 C 0.89862 0.22408 0.60327
 C2781 C 0.86267 0.25042 0.62288
 C2782 C 0.87361 0.27296 0.61250
 H2783 H 0.90607 0.23756 0.66895
 H2784 H 0.92561 0.27821 0.65026
 H2785 H 0.92116 0.24647 0.57458
 H2786 H 0.90096 0.20477 0.59384
 H2787 H 0.84147 0.24886 0.62718
 H2788 H 0.86165 0.29047 0.60815
 C2789 C 0.38643 0.72575 0.62776
 C2790 C 0.40693 0.73905 0.64649
 C2791 C 0.41773 0.76189 0.63659
 C2792 C 0.40729 0.76969 0.60867
 C2793 C 0.41209 0.74500 0.59128
 C2794 C 0.40130 0.72221 0.60119
 C2795 C 0.36596 0.74805 0.62249
 C2796 C 0.37678 0.77087 0.61260
 H2797 H 0.41038 0.73348 0.66706
 H2798 H 0.42972 0.77459 0.64928
 H2799 H 0.42330 0.74541 0.57274
 H2800 H 0.40333 0.70320 0.59108
 H2801 H 0.34485 0.74642 0.62719
 H2802 H 0.36480 0.78853 0.60901
 C2803 C 0.38447 0.22752 1.12940
 C2804 C 0.40476 0.24132 1.14800
 C2805 C 0.41546 0.26403 1.13772
 C2806 C 0.40518 0.27119 1.10957
 C2807 C 0.41027 0.24620 1.09272
 C2808 C 0.39956 0.22354 1.10301
 C2809 C 0.36390 0.24958 1.12354
 C2810 C 0.37464 0.27226 1.11328
 H2811 H 0.40817 0.23618 1.16869
 H2812 H 0.42730 0.27709 1.15020
 H2813 H 0.42159 0.24632 1.07424
 H2814 H 0.40179 0.20435 1.09330
 H2815 H 0.34277 0.24792 1.12814
 H2816 H 0.36258 0.28980 1.10934
 C2817 C 1.11315 1.12666 0.72433
 C2818 C 1.13303 1.12027 0.74697
 C2819 C 1.12146 1.11011 0.76933
 C2820 C 1.09088 1.10716 0.76751
 C2821 C 1.08143 1.13554 0.76028
 C2822 C 1.09302 1.14570 0.73791
 C2823 C 1.09752 1.10069 0.71990
 C2824 C 1.08601 1.09060 0.74228
 H2825 H 1.15426 1.12461 0.74605
 H2826 H 1.13294 1.10584 0.78719
 H2827 H 1.06978 1.14832 0.77322
 H2828 H 1.09070 1.16663 0.73315
 H2829 H 1.09550 1.09109 0.70060
 H2830 H 1.07423 1.07245 0.74201
 C2831 C 1.10772 0.62170 0.21941
 C2832 C 1.10563 0.59102 0.21970
 C2833 C 1.09444 0.58085 0.24226
 C2834 C 1.08609 0.60206 0.26283
 C2835 C 1.11131 0.61868 0.26772
 C2836 C 1.12249 0.62887 0.24528
 C2837 C 1.07852 0.63068 0.22421
 C2838 C 1.06734 0.62047 0.24682
 H2839 H 1.11116 0.57842 0.20299
 H2840 H 1.09054 0.55970 0.24454
 H2841 H 1.11960 0.62233 0.28739
 H2842 H 1.14030 0.64122 0.24591
 H2843 H 1.06624 0.64104 0.20975
 H2844 H 1.04616 0.62274 0.25074
 C2845 C 0.61300 1.12826 0.22553
 C2846 C 0.63241 1.12314 0.24880
 C2847 C 0.62065 1.11276 0.27095
 C2848 C 0.59034 1.10828 0.26823
 C2849 C 0.57968 1.13603 0.26017
 C2850 C 0.59145 1.14639 0.23800
 C2851 C 0.59890 1.10150 0.22094
 C2852 C 0.58714 1.09113 0.24309
 H2853 H 0.65348 1.12820 0.24828
 H2854 H 0.63179 1.10904 0.28914
 H2855 H 0.56670 1.14837 0.27223
 H2856 H 0.58781 1.16691 0.23244
 H2857 H 0.59804 1.09161 0.20171
 H2858 H 0.57628 1.07242 0.24271
 C2859 C 0.61333 0.62630 0.72516
 C2860 C 0.63304 0.61997 0.74789
 C2861 C 0.62135 0.60973 0.77015
 C2862 C 0.59081 0.60655 0.76807
 C2863 C 0.58118 0.63486 0.76073
 C2864 C 0.59287 0.64510 0.73845
 C2865 C 0.59801 0.60022 0.72049
 C2866 C 0.58633 0.58998 0.74274
 H2867 H 0.65429 0.62419 0.74696
 H2868 H 0.63274 0.60530 0.78803
 H2869 H 0.56909 0.64750 0.77338
 H2870 H 0.59009 0.66587 0.73337
 H2871 H 0.59631 0.59069 0.70114
 H2872 H 0.57470 0.57174 0.74232
 C2873 C 0.87084 0.88045 0.72965
 C2874 C 0.89592 0.89784 0.72704
 C2875 C 0.90476 0.90816 0.75047
 C2876 C 0.88790 0.90035 0.77484
 C2877 C 0.85908 0.90853 0.76760
 C2878 C 0.85022 0.89818 0.74415
 C2879 C 0.87801 0.85933 0.75078
 C2880 C 0.88686 0.86966 0.77425
 H2881 H 0.90585 0.90181 0.70819
 H2882 H 0.92223 0.92093 0.75158
 H2883 H 0.84534 0.91847 0.78101
 H2884 H 0.82933 0.89976 0.73869
 H2885 H 0.87510 0.83809 0.74804
 H2886 H 0.89142 0.85712 0.79130
 C2887 C 0.86985 0.38128 0.22880
 C2888 C 0.89620 0.39672 0.22639
 C2889 C 0.90505 0.40728 0.24971
 C2890 C 0.88693 0.40161 0.27379
 C2891 C 0.85902 0.41159 0.26526
 C2892 C 0.85016 0.40100 0.24190
 C2893 C 0.87481 0.36054 0.25093
 C2894 C 0.88370 0.37110 0.27427
 H2895 H 0.90695 0.39928 0.20775
 H2896 H 0.92333 0.41885 0.25092
 H2897 H 0.84559 0.42305 0.27769
 H2898 H 0.82966 0.40395 0.23563
 H2899 H 0.87052 0.33945 0.24885
 H2900 H 0.88700 0.35893 0.29187
 C2901 C 0.37013 0.88075 0.23017
 C2902 C 0.39615 0.89666 0.22736
 C2903 C 0.40517 0.90735 0.25056
 C2904 C 0.38754 0.90133 0.27490
 C2905 C 0.35932 0.91080 0.26684
 C2906 C 0.35028 0.90008 0.24362
 C2907 C 0.37581 0.86007 0.25218
 C2908 C 0.38486 0.87076 0.27540
 H2909 H 0.40655 0.89944 0.20855
 H2910 H 0.42326 0.91925 0.25149
 H2911 H 0.34585 0.92193 0.27955
 H2912 H 0.32961 0.90261 0.23774
 H2913 H 0.37188 0.83891 0.25014
 H2914 H 0.38863 0.85863 0.29293
 C2915 C 0.36735 0.37846 0.73147
 C2916 C 0.39317 0.39471 0.72844
 C2917 C 0.40243 0.40533 0.75158
 C2918 C 0.38524 0.39900 0.77614
 C2919 C 0.35680 0.40819 0.76857
 C2920 C 0.34747 0.39749 0.74543
 C2921 C 0.37354 0.35774 0.75340
 C2922 C 0.38288 0.36842 0.77652
 H2923 H 0.40331 0.39778 0.70953
 H2924 H 0.42040 0.41742 0.75233
 H2925 H 0.34339 0.41895 0.78166
 H2926 H 0.32660 0.39964 0.74012
 H2927 H 0.36959 0.33656 0.75148
 H2928 H 0.38690 0.35625 0.79397
 C2929 C 1.13201 0.87966 1.27100
 C2930 C 1.10668 0.89676 1.27360
 C2931 C 1.09777 0.90713 1.25020
 C2932 C 1.11479 0.89973 1.22584
 C2933 C 1.14346 0.90823 1.23318
 C2934 C 1.15247 0.89777 1.25657
 C2935 C 1.12521 0.85864 1.24962
 C2936 C 1.11626 0.86907 1.22621
 H2937 H 1.09662 0.90056 1.29242
 H2938 H 1.08017 0.91972 1.24913
 H2939 H 1.15709 0.91835 1.21977
 H2940 H 1.17342 0.89937 1.26175
 H2941 H 1.12851 0.83741 1.25210
 H2942 H 1.11202 0.85662 1.20903
 C2943 C 1.13162 0.38082 0.76957
 C2944 C 1.10505 0.39594 0.77161
 C2945 C 1.09631 0.40632 0.74814
 C2946 C 1.11476 0.40081 0.72429
 C2947 C 1.14245 0.41116 0.73309
 C2948 C 1.15119 0.40076 0.75660
 C2949 C 1.12715 0.35997 0.74748
 C2950 C 1.11838 0.37034 0.72399
 H2951 H 1.09408 0.39846 0.79013
 H2952 H 1.07791 0.41767 0.74669
 H2953 H 1.15586 0.42277 0.72076
 H2954 H 1.17156 0.40404 0.76309
 H2955 H 1.13161 0.33893 0.74974
 H2956 H 1.11537 0.35807 0.70642
 C2957 C 0.62625 0.88703 0.77465
 C2958 C 0.63372 0.87030 0.75014
 C2959 C 0.62498 0.88045 0.72662
 C2960 C 0.60939 0.90663 0.72924
 C2961 C 0.58695 0.90060 0.74942
 C2962 C 0.59571 0.89041 0.77301
 C2963 C 0.63693 0.91522 0.76844
 C2964 C 0.62816 0.92541 0.74482
 H2965 H 0.64519 0.85197 0.75122
 H2966 H 0.62900 0.87077 0.70768
 H2967 H 0.56602 0.90510 0.74594
 H2968 H 0.58220 0.88629 0.78945
 H2969 H 0.64760 0.92768 0.78248
 H2970 H 0.63175 0.94609 0.73975
 C2971 C 0.62571 0.38738 1.27534
 C2972 C 0.63403 0.37088 1.25088
 C2973 C 0.62517 0.38067 1.22725
 C2974 C 0.60868 0.40630 1.22962
 C2975 C 0.58622 0.39960 1.24957
 C2976 C 0.59504 0.38982 1.27330
 C2977 C 0.63541 0.41599 1.26913
 C2978 C 0.62657 0.42576 1.24535
 H2979 H 0.64613 0.35297 1.25206
 H2980 H 0.62973 0.37109 1.20837
 H2981 H 0.56522 0.40356 1.24592
 H2982 H 0.58143 0.38553 1.28963
 H2983 H 0.64514 0.42907 1.28328
 H2984 H 0.62935 0.44656 1.24026
 C2985 C 0.89147 1.11843 1.28084
 C2986 C 0.92072 1.12723 1.27615
 C2987 C 0.93194 1.11703 1.25359
 C2988 C 0.91316 1.09875 1.23747
 C2989 C 0.90464 1.07754 1.25800
 C2990 C 0.89344 1.08773 1.28055
 C2991 C 0.87679 1.12570 1.25495
 C2992 C 0.88802 1.11550 1.23252
 H2993 H 0.93290 1.13760 1.29070
 H2994 H 0.95314 1.11921 1.24973
 H2995 H 0.90857 1.05639 1.25577
 H2996 H 0.88803 1.07510 1.29730
 H2997 H 0.85899 1.13805 1.25428
 H2998 H 0.87977 1.11917 1.21284
 C2999 C 0.89065 0.61982 0.77881
 C3000 C 0.91996 0.62833 0.77444
 C3001 C 0.93141 0.61772 0.75218
 C3002 C 0.91266 0.59945 0.73599
 C3003 C 0.90358 0.57856 0.75664
 C3004 C 0.89214 0.58915 0.77889
 C3005 C 0.87638 0.62698 0.75269
 C3006 C 0.88778 0.61643 0.73052
 H3007 H 0.93192 0.63901 0.78893
 H3008 H 0.95266 0.61976 0.74853
 H3009 H 0.90712 0.55733 0.75463
 H3010 H 0.88600 0.57684 0.79561
 H3011 H 0.85874 0.63953 0.75172
 H3012 H 0.87983 0.61999 0.71068
 C3013 C 0.39139 1.11970 0.77943
 C3014 C 0.42098 1.12731 0.77513
 C3015 C 0.43199 1.11675 0.75263
 C3016 C 0.41260 1.09944 0.73616
 C3017 C 0.40288 1.07847 0.75644
 C3018 C 0.39185 1.08901 0.77892
 C3019 C 0.37730 1.12784 0.75349
 C3020 C 0.38828 1.11734 0.73108
 H3021 H 0.43336 1.13727 0.78976
 H3022 H 0.45328 1.11818 0.74887
 H3023 H 0.40578 1.05718 0.75409
 H3024 H 0.38536 1.07661 0.79544
 H3025 H 0.36008 1.14097 0.75283
 H3026 H 0.38041 1.12152 0.71135
 C3027 C 0.39062 0.62086 1.27949
 C3028 C 0.42015 0.62891 1.27522
 C3029 C 0.43151 0.61814 1.25298
 C3030 C 0.41257 0.60010 1.23676
 C3031 C 0.40318 0.57937 1.25740
 C3032 C 0.39184 0.59012 1.27962
 C3033 C 0.37659 0.62815 1.25324
 C3034 C 0.38794 0.61739 1.23116
 H3035 H 0.43235 0.63915 1.28982
 H3036 H 0.45281 0.61977 1.24943
 H3037 H 0.40661 0.55811 1.25551
 H3038 H 0.38575 0.57786 1.29641
 H3039 H 0.35913 0.64094 1.25210
 H3040 H 0.38014 0.62101 1.21128
 C3041 C 1.11700 1.27245 0.87084
 C3042 C 1.13773 1.25096 0.87833
 C3043 C 1.12695 1.22825 0.88849
 C3044 C 1.09622 1.22863 0.89045
 C3045 C 1.08955 1.25382 0.90640
 C3046 C 1.10026 1.27653 0.89624
 C3047 C 1.09820 1.25759 0.85138
 C3048 C 1.08743 1.23488 0.86162
 H3049 H 1.15902 1.25286 0.87465
 H3050 H 1.13917 1.21103 0.89324
 H3051 H 1.07717 1.25380 0.92419
 H3052 H 1.09693 1.29584 0.90541
 H3053 H 1.09622 1.26181 0.83029
 H3054 H 1.07675 1.22110 0.84886
 C3055 C 1.11234 0.77799 0.37669
 C3056 C 1.08341 0.77298 0.36719
 C3057 C 1.07242 0.75004 0.37675
 C3058 C 1.09116 0.73389 0.39514
 C3059 C 1.11672 0.72978 0.37875
 C3060 C 1.12768 0.75258 0.36920
 C3061 C 1.10974 0.77701 0.40740
 C3062 C 1.09884 0.75406 0.41694
 H3063 H 1.07122 0.78752 0.35681
 H3064 H 1.05132 0.74607 0.37409
 H3065 H 1.12541 0.71036 0.37481
 H3066 H 1.14572 0.75252 0.35714
 H3067 H 1.11453 0.79354 0.42050
 H3068 H 1.09468 0.75118 0.43800
 C3069 C 0.61558 1.27431 0.37195
 C3070 C 0.63649 1.25262 0.37798
 C3071 C 0.62601 1.22960 0.38780
 C3072 C 0.59538 1.23001 0.39093
 C3073 C 0.58947 1.25471 0.40793
 C3074 C 0.59992 1.27769 0.39808
 C3075 C 0.59595 1.26026 0.35281
 C3076 C 0.58550 1.23724 0.36268
 H3077 H 0.65765 1.25474 0.37375
 H3078 H 0.63835 1.21225 0.39172
 H3079 H 0.57781 1.25418 0.42620
 H3080 H 0.59713 1.29672 0.40797
 H3081 H 0.59292 1.26554 0.33210
 H3082 H 0.57413 1.22405 0.34990
 C3083 C 0.61487 0.77342 0.87241
 C3084 C 0.63545 0.75116 0.87748
 C3085 C 0.62477 0.72828 0.88738
 C3086 C 0.59429 0.72934 0.89152
 C3087 C 0.58952 0.75396 0.90901
 C3088 C 0.60016 0.77682 0.89909
 C3089 C 0.59428 0.76010 0.85378
 C3090 C 0.58364 0.73720 0.86369
 H3091 H 0.65652 0.75287 0.87263
 H3092 H 0.63683 0.71064 0.89081
 H3093 H 0.57845 0.75347 0.92763
 H3094 H 0.59814 0.79579 0.90928
 H3095 H 0.59066 0.76574 0.83326
 H3096 H 0.57160 0.72448 0.85105
 C3097 C 0.88192 1.27189 1.12851
 C3098 C 0.86085 1.25093 1.12055
 C3099 C 0.87132 1.22792 1.11074
 C3100 C 0.90210 1.22752 1.10958
 C3101 C 0.90982 1.25251 1.09375
 C3102 C 0.89941 1.27550 1.10355
 C3103 C 0.89980 1.25657 1.14850
 C3104 C 0.91026 1.23358 1.13861
 H3105 H 0.83953 1.25335 1.12374
 H3106 H 0.85879 1.21099 1.10582
 H3107 H 0.92263 1.25213 1.07627
 H3108 H 0.90343 1.29470 1.09439
 H3109 H 0.90127 1.26078 1.16963
 H3110 H 0.92028 1.21954 1.15165
 C3111 C 0.88808 0.77655 0.62247
 C3112 C 0.91701 0.77141 0.63166
 C3113 C 0.92768 0.74829 0.62223
 C3114 C 0.90852 0.73208 0.60433
 C3115 C 0.88316 0.72841 0.62117
 C3116 C 0.87257 0.75146 0.63055
 C3117 C 0.89008 0.77521 0.59179
 C3118 C 0.90065 0.75206 0.58238
 H3119 H 0.92929 0.78590 0.64196
 H3120 H 0.94876 0.74410 0.62475
 H3121 H 0.87432 0.70914 0.62548
 H3122 H 0.85471 0.75181 0.64284
 H3123 H 0.88505 0.79160 0.57860
 H3124 H 0.90437 0.74887 0.56129
 C3125 C 0.38106 1.27103 0.63089
 C3126 C 0.36023 1.24954 0.62366
 C3127 C 0.37086 1.22690 0.61322
 C3128 C 0.40154 1.22732 0.61081
 C3129 C 0.40796 1.25259 0.59485
 C3130 C 0.39740 1.27525 0.60525
 C3131 C 0.40015 1.25610 0.65001
 C3132 C 0.41075 1.23343 0.63954
 H3133 H 0.33899 1.25140 0.62770
 H3134 H 0.35858 1.20969 0.60861
 H3135 H 0.42005 1.25266 0.57686
 H3136 H 0.40057 1.29460 0.59609
 H3137 H 0.40246 1.26027 0.67107
 H3138 H 0.42160 1.21959 0.65211
 C3139 C 0.38207 0.77130 1.12988
 C3140 C 0.36119 0.74981 1.12284
 C3141 C 0.37178 0.72699 1.11275
 C3142 C 0.40248 0.72726 1.11046
 C3143 C 0.40906 0.75231 1.09420
 C3144 C 0.39853 0.77513 1.10426
 C3145 C 0.40102 0.75652 1.14927
 C3146 C 0.41160 0.73370 1.13914
 H3147 H 0.33995 0.75179 1.12677
 H3148 H 0.35946 0.70977 1.10829
 H3149 H 0.42122 0.75210 1.07627
 H3150 H 0.40179 0.79435 1.09486
 H3151 H 0.40318 0.76091 1.17031
 H3152 H 0.42231 0.71996 1.15195
 C3153 C 0.87373 0.72732 0.88239
 C3154 C 0.88178 0.74834 0.86149
 C3155 C 0.89175 0.77122 0.87208
 C3156 C 0.89304 0.77132 0.90282
 C3157 C 0.86397 0.76531 0.91110
 C3158 C 0.85392 0.74247 0.90052
 C3159 C 0.89878 0.72333 0.89960
 C3160 C 0.90880 0.74616 0.91018
 H3161 H 0.87860 0.74601 0.84021
 H3162 H 0.89678 0.78822 0.85967
 H3163 H 0.85105 0.77923 0.92145
 H3164 H 0.83282 0.73807 0.90230
 H3165 H 0.90784 0.70403 0.90326
 H3166 H 0.92639 0.74630 0.92283
 C3167 C 0.87417 0.22638 0.38208
 C3168 C 0.88166 0.24737 0.36094
 C3169 C 0.89122 0.27055 0.37127
 C3170 C 0.89265 0.27096 0.40201
 C3171 C 0.86375 0.26443 0.41049
 C3172 C 0.85414 0.24129 0.40016
 C3173 C 0.89938 0.22308 0.39919
 C3174 C 0.90897 0.24620 0.40951
 H3175 H 0.87841 0.24479 0.33969
 H3176 H 0.89585 0.28754 0.35869
 H3177 H 0.85060 0.27817 0.42078
 H3178 H 0.83314 0.23643 0.40204
 H3179 H 0.90887 0.20400 0.40297
 H3180 H 0.92662 0.24682 0.42206
 C3181 C 0.37393 0.72764 0.38044
 C3182 C 0.39850 0.72336 0.39832
 C3183 C 0.40868 0.74607 0.40897
 C3184 C 0.39361 0.77146 0.40106
 C3185 C 0.39303 0.77120 0.37030
 C3186 C 0.38284 0.74847 0.35960
 C3187 C 0.35397 0.74343 0.39796
 C3188 C 0.36425 0.76611 0.40867
 H3189 H 0.40713 0.70393 0.40239
 H3190 H 0.42596 0.74597 0.42205
 H3191 H 0.39843 0.78810 0.35791
 H3192 H 0.37988 0.74627 0.33826
 H3193 H 0.33267 0.73972 0.39902
 H3194 H 0.35142 0.78044 0.41857
 C3195 C 0.37997 0.22182 0.88765
 C3196 C 0.37099 0.22643 0.91679
 C3197 C 0.38007 0.24960 0.92765
 C3198 C 0.39757 0.26633 0.90859
 C3199 C 0.41982 0.24681 0.90032
 C3200 C 0.41073 0.22365 0.88953
 C3201 C 0.37140 0.24705 0.87261
 C3202 C 0.38051 0.27008 0.88346
 H3203 H 0.36113 0.21156 0.92904
 H3204 H 0.37763 0.25352 0.94876
 H3205 H 0.44089 0.25017 0.90419
 H3206 H 0.42424 0.20746 0.88462
 H3207 H 0.35901 0.24684 0.85483
 H3208 H 0.37585 0.28941 0.87493
 C3209 C 1.12284 0.72240 1.11192
 C3210 C 1.13036 0.74739 1.12786
 C3211 C 1.12160 0.77056 1.11700
 C3212 C 1.10588 0.76720 1.09095
 C3213 C 1.12456 0.75106 1.07251
 C3214 C 1.13330 0.72774 1.08337
 C3215 C 1.09221 0.72400 1.10848
 C3216 C 1.08345 0.74729 1.09768
 H3217 H 1.14188 0.74692 1.14621
 H3218 H 1.12568 0.78975 1.12609
 H3219 H 1.12806 0.75540 1.05164
 H3220 H 1.14380 0.71323 1.07126
 H3221 H 1.07864 0.70766 1.11264
 H3222 H 1.06255 0.75064 1.09300
 C3223 C 1.12234 0.22235 0.61052
 C3224 C 1.13007 0.24744 0.62616
 C3225 C 1.12089 0.27050 0.61540
 C3226 C 1.10458 0.26687 0.58974
 C3227 C 1.12296 0.25071 0.57099
 C3228 C 1.13218 0.22756 0.58181
 C3229 C 1.09168 0.22371 0.60792
 C3230 C 1.08247 0.24685 0.59716
 H3231 H 1.14203 0.24709 0.64422
 H3232 H 1.12505 0.28977 0.62429
 H3233 H 1.12598 0.25495 0.55002
 H3234 H 1.14270 0.21312 0.56965
 H3235 H 1.07838 0.20737 0.61292
 H3236 H 1.06141 0.25010 0.59316
 C3237 C 0.62950 0.72745 0.61535
 C3238 C 0.60271 0.72448 0.60074
 C3239 C 0.59317 0.74749 0.59011
 C3240 C 0.61110 0.77183 0.59480
 C3241 C 0.61531 0.77282 0.62523
 C3242 C 0.62482 0.74977 0.63589
 C3243 C 0.64836 0.74049 0.59472
 C3244 C 0.63881 0.76354 0.58408
 H3245 H 0.59219 0.70568 0.59876
 H3246 H 0.57452 0.74829 0.57909
 H3247 H 0.61217 0.79051 0.63727
 H3248 H 0.62965 0.74798 0.65692
 H3249 H 0.66882 0.73455 0.59105
 H3250 H 0.65163 0.77604 0.57198
 C3251 C 0.63023 0.22839 1.11670
 C3252 C 0.60399 0.22472 1.10121
 C3253 C 0.59405 0.24750 1.09046
 C3254 C 0.61104 0.27233 1.09583
 C3255 C 0.61433 0.27330 1.12637
 C3256 C 0.62429 0.25053 1.13719
 C3257 C 0.64932 0.24223 1.09673
 C3258 C 0.63931 0.26502 1.08592
 H3259 H 0.59410 0.20563 1.09871
 H3260 H 0.57573 0.24779 1.07888
 H3261 H 0.61047 0.29087 1.13837
 H3262 H 0.62874 0.24893 1.15833
 H3263 H 0.67018 0.23730 1.09388
 H3264 H 0.65211 0.27814 1.07445
 C3265 C 1.27151 1.12124 0.87014
 C3266 C 1.27383 1.10363 0.89507
 C3267 C 1.25020 1.09362 0.90388
 C3268 C 1.22592 1.10193 0.88715
 C3269 C 1.22700 1.13260 0.88632
 C3270 C 1.25068 1.14264 0.87749
 C3271 C 1.25672 1.10391 0.84947
 C3272 C 1.23305 1.09387 0.85829
 H3273 H 1.29263 1.09930 0.90493
 H3274 H 1.24889 1.08076 0.92125
 H3275 H 1.21012 1.14536 0.89095
 H3276 H 1.25371 1.16385 0.87463
 H3277 H 1.26228 1.10234 0.82863
 H3278 H 1.21946 1.08421 0.84454
 C3279 C 1.27102 0.62071 0.36872
 C3280 C 1.27332 0.60455 0.39460
 C3281 C 1.24976 0.59447 0.40356
 C3282 C 1.22560 0.60130 0.38600
 C3283 C 1.22599 0.63188 0.38353
 C3284 C 1.24956 0.64197 0.37453
 C3285 C 1.25704 0.60193 0.34878
 C3286 C 1.23345 0.59184 0.35774
 H3287 H 1.29204 0.60118 0.40498
 H3288 H 1.24844 0.58252 0.42157
 H3289 H 1.20877 0.64447 0.38731
 H3290 H 1.25219 0.66308 0.37065
 H3291 H 1.26297 0.59937 0.32815
 H3292 H 1.22037 0.58123 0.34423
 C3293 C 0.77624 1.11295 0.37578
 C3294 C 0.75189 1.12920 0.36674
 C3295 C 0.72813 1.11973 0.37574
 C3296 C 0.73039 1.09467 0.39310
 C3297 C 0.74633 1.07461 0.37602
 C3298 C 0.77017 1.08412 0.36698
 C3299 C 0.77399 1.11165 0.40641
 C3300 C 0.75016 1.10215 0.41542
 H3301 H 0.75325 1.14672 0.35411
 H3302 H 0.70927 1.12919 0.37078
 H3303 H 0.74119 1.05376 0.37380
 H3304 H 0.78439 1.07094 0.35744
 H3305 H 0.79024 1.11653 0.41988
 H3306 H 0.74635 1.09894 0.43650
 C3307 C 0.77050 0.61922 0.86935
 C3308 C 0.74896 0.64045 0.87496
 C3309 C 0.72541 0.63036 0.88401
 C3310 C 0.72512 0.59980 0.88672
 C3311 C 0.73304 0.59015 0.85854
 C3312 C 0.75662 0.60023 0.84954
 C3313 C 0.77280 0.60326 0.89536
 C3314 C 0.74927 0.59319 0.90437
 H3315 H 0.75154 0.66154 0.87094
 H3316 H 0.70815 0.64293 0.88769
 H3317 H 0.72002 0.57940 0.84508
 H3318 H 0.76258 0.59753 0.82894
 H3319 H 0.79153 0.60002 0.90578
 H3320 H 0.74796 0.58137 0.92246
 C3321 C 1.27523 0.87400 1.11439
 C3322 C 1.26149 0.85554 1.09401
 C3323 C 1.23946 0.86632 1.08238
 C3324 C 1.23283 0.89483 1.09195
 C3325 C 1.23060 0.89168 1.12244
 C3326 C 1.25260 0.88086 1.13409
 C3327 C 1.28061 0.89998 1.09911
 C3328 C 1.25860 0.91078 1.08747
 H3329 H 1.26601 0.83461 1.09137
 H3330 H 1.22635 0.85391 1.07054
 H3331 H 1.21276 0.89645 1.13380
 H3332 H 1.25332 0.87648 1.15528
 H3333 H 1.30022 0.90904 1.09745
 H3334 H 1.25947 0.92905 1.07591
 C3335 C 1.27401 0.37307 0.61528
 C3336 C 1.27978 0.39876 0.59970
 C3337 C 1.25807 0.40940 0.58737
 C3338 C 1.23215 0.39358 0.59153
 C3339 C 1.23892 0.36494 0.58255
 C3340 C 1.26063 0.35430 0.59490
 C3341 C 1.25098 0.38029 0.63435
 C3342 C 1.22926 0.39094 0.62202
 H3343 H 1.29945 0.40777 0.59835
 H3344 H 1.25926 0.42746 0.57551
 H3345 H 1.22613 0.35241 0.57050
 H3346 H 1.26515 0.33331 0.59274
 H3347 H 1.25121 0.37626 0.65563
 H3348 H 1.21118 0.39593 0.63290
 C3349 C 0.77565 0.87566 0.61382
 C3350 C 0.76191 0.85682 0.59378
 C3351 C 0.73978 0.86729 0.58207
 C3352 C 0.73302 0.89587 0.59130
 C3353 C 0.73094 0.89311 0.62184
 C3354 C 0.75307 0.88260 0.63355
 C3355 C 0.78079 0.90145 0.59819
 C3356 C 0.75867 0.91193 0.58649
 H3357 H 0.76660 0.83587 0.59149
 H3358 H 0.72669 0.85466 0.57043
 H3359 H 0.71309 0.89781 0.63320
 H3360 H 0.75384 0.87838 0.65477
 H3361 H 0.80033 0.91064 0.59636
 H3362 H 0.75937 0.93006 0.57469
 C3363 C 0.78006 0.37896 1.10863
 C3364 C 0.75392 0.37236 1.12321
 C3365 C 0.73176 0.38287 1.11174
 C3366 C 0.73727 0.39925 1.08648
 C3367 C 0.75816 0.42013 1.09493
 C3368 C 0.78041 0.40959 1.10643
 C3369 C 0.77547 0.36982 1.07960
 C3370 C 0.75322 0.38040 1.06807
 H3371 H 0.75292 0.36020 1.14110
 H3372 H 0.71191 0.37966 1.11987
 H3373 H 0.75626 0.44131 1.09098
 H3374 H 0.79729 0.42187 1.11219
 H3375 H 0.78984 0.35874 1.06784
 H3376 H 0.74950 0.37793 1.04692
 C3377 C 0.72970 1.11837 1.13141
 C3378 C 0.72715 1.10343 1.10483
 C3379 C 0.75038 1.09270 1.09583
 C3380 C 0.77452 1.09770 1.11404
 C3381 C 0.77541 1.12812 1.11780
 C3382 C 0.75216 1.13885 1.12683
 C3383 C 0.74247 1.09807 1.15073
 C3384 C 0.76575 1.08731 1.14171
 H3385 H 0.70846 1.10128 1.09407
 H3386 H 0.75147 1.08141 1.07740
 H3387 H 0.79318 1.14012 1.11463
 H3388 H 0.75028 1.15992 1.13133
 H3389 H 0.73612 1.09470 1.17110
 H3390 H 0.77793 1.07534 1.15491
 C3391 C 0.72576 0.61271 0.62606
 C3392 C 0.72710 0.60922 0.59556
 C3393 C 0.75063 0.59901 0.58658
 C3394 C 0.77104 0.59305 0.60878
 C3395 C 0.77385 0.61927 0.62421
 C3396 C 0.75040 0.62945 0.63317
 C3397 C 0.73205 0.58457 0.63679
 C3398 C 0.75561 0.57433 0.62778
 H3399 H 0.71051 0.61333 0.58224
 H3400 H 0.75392 0.59447 0.56566
 H3401 H 0.79287 0.62896 0.62798
 H3402 H 0.74946 0.64780 0.64458
 H3403 H 0.71811 0.57216 0.64770
 H3404 H 0.76069 0.55367 0.63142
 C3405 C 0.22406 1.11255 0.62558
 C3406 C 0.24855 1.12958 0.63248
 C3407 C 0.27213 1.11936 0.62384
 C3408 C 0.26957 1.09282 0.60889
 C3409 C 0.25419 1.07437 0.62816
 C3410 C 0.23051 1.08462 0.63682
 C3411 C 0.22557 1.10851 0.59516
 C3412 C 0.24920 1.09825 0.58649
 H3413 H 0.24743 1.14816 0.64349
 H3414 H 0.29106 1.12924 0.62750
 H3415 H 0.25939 1.05382 0.63221
 H3416 H 0.21656 1.07229 0.64782
 H3417 H 0.20902 1.11224 0.58168
 H3418 H 0.25261 1.09333 0.56568
 C3419 C 0.22773 0.61826 1.13100
 C3420 C 0.22564 0.60233 1.10496
 C3421 C 0.24918 0.59196 1.09634
 C3422 C 0.27315 0.59826 1.11435
 C3423 C 0.27316 0.62883 1.11705
 C3424 C 0.24957 0.63922 1.12569
 C3425 C 0.24110 0.59905 1.15102
 C3426 C 0.26468 0.58864 1.14237
 H3427 H 0.20704 0.59931 1.09426
 H3428 H 0.25061 0.58009 1.07830
 H3429 H 0.29060 0.64120 1.11356
 H3430 H 0.24712 0.66035 1.12953
 H3431 H 0.23483 0.59634 1.17153
 H3432 H 0.27729 0.57754 1.15595
 C3433 C 0.72533 0.87387 0.88689
 C3434 C 0.73868 0.85488 0.90712
 C3435 C 0.76104 0.86497 0.91874
 C3436 C 0.76841 0.89332 0.90925
 C3437 C 0.77038 0.89034 0.87873
 C3438 C 0.74802 0.88024 0.86712
 C3439 C 0.72076 0.89985 0.90237
 C3440 C 0.74310 0.90994 0.91397
 H3441 H 0.73358 0.83408 0.90973
 H3442 H 0.77377 0.85219 0.93062
 H3443 H 0.78827 0.89475 0.86730
 H3444 H 0.74703 0.87612 0.84589
 H3445 H 0.70140 0.90944 0.90420
 H3446 H 0.74277 0.92811 0.92568
 C3447 C 0.72065 0.37997 0.39026
 C3448 C 0.72055 0.41049 0.39342
 C3449 C 0.74307 0.42050 0.40485
 C3450 C 0.76399 0.39921 0.41225
 C3451 C 0.74828 0.37988 0.43035
 C3452 C 0.72573 0.36986 0.41892
 C3453 C 0.74646 0.37367 0.37499
 C3454 C 0.76892 0.38364 0.38638
 H3455 H 0.70368 0.42307 0.38830
 H3456 H 0.74519 0.44152 0.40942
 H3457 H 0.75238 0.37670 0.45134
 H3458 H 0.71150 0.35858 0.43067
 H3459 H 0.74703 0.36211 0.35671
 H3460 H 0.78859 0.38057 0.37779
 C3461 C 0.22615 0.87348 0.38622
 C3462 C 0.23928 0.85451 0.40659
 C3463 C 0.26153 0.86458 0.41843
 C3464 C 0.26904 0.89290 0.40894
 C3465 C 0.27131 0.88984 0.37845
 C3466 C 0.24906 0.87974 0.36664
 C3467 C 0.22146 0.89951 0.40155
 C3468 C 0.24371 0.90958 0.41336
 H3469 H 0.23404 0.83372 0.40914
 H3470 H 0.27408 0.85178 0.43047
 H3471 H 0.28934 0.89416 0.36720
 H3472 H 0.24835 0.87545 0.34544
 H3473 H 0.20212 0.90915 0.40313
 H3474 H 0.24329 0.92779 0.42502
 C3475 C 0.22074 0.37756 0.89050
 C3476 C 0.22016 0.40811 0.89330
 C3477 C 0.24232 0.41858 0.90502
 C3478 C 0.26340 0.39768 0.91303
 C3479 C 0.24764 0.37832 0.93108
 C3480 C 0.22545 0.36784 0.91936
 C3481 C 0.24693 0.37146 0.87578
 C3482 C 0.26901 0.38189 0.88745
 H3483 H 0.20321 0.42039 0.88770
 H3484 H 0.24405 0.43968 0.90937
 H3485 H 0.25145 0.37541 0.95216
 H3486 H 0.21121 0.35645 0.93099
 H3487 H 0.24800 0.35968 0.85766
 H3488 H 0.28889 0.37899 0.87925
   
