data_POSCAR
  _audit_creation_date              2014-09-24
  _audit_creation_method            'ToBaCCo'
  _symmetry_space_group_name_H-M    'P1'
  _symmetry_Int_Tables_number       1
  _symmetry_cell_setting            triclinic
  loop_
  _symmetry_equiv_pos_as_xyz
 x,y,z
_cell_length_a 65.9383
_cell_length_b 66.1273
_cell_length_c 66.5802
_cell_angle_alpha 90.209200
_cell_angle_beta 90.179900
_cell_angle_gamma 89.157800
loop_
  _atom_site_label
  _atom_site_type_symbol
  _atom_site_fract_x
  _atom_site_fract_y
  _atom_site_fract_z
C1 C 0.34037 1.36656 0.33795
 C2 C 0.34750 1.37542 0.32032
 C3 C 0.36374 1.36668 0.30942
 C4 C 0.37305 1.34890 0.31707
 C5 C 0.36577 1.33968 0.33456
 C6 C 0.34928 1.34850 0.34498
 C7 C 0.32419 1.37550 0.34843
 C8 C 0.31617 1.36648 0.36581
 C9 C 0.32503 1.34807 0.37250
 C10 C 0.34158 1.33918 0.36232
 C11 C 0.35047 1.32102 0.36913
 C12 C 0.36689 1.31203 0.35879
 C13 C 0.37449 1.32155 0.34156
 H14 H 0.34067 1.38961 0.31554
 H15 H 0.38524 1.34147 0.30889
 H16 H 0.31719 1.38902 0.34221
 H17 H 0.31965 1.34094 0.38605
 H18 H 0.34435 1.31366 0.38226
 H19 H 0.38726 1.31485 0.33363
 C20 C 0.34275 0.87026 0.83976
 C21 C 0.35040 0.87746 0.82164
 C22 C 0.36539 0.86654 0.81114
 C23 C 0.37341 0.84853 0.81934
 C24 C 0.36581 0.84101 0.83751
 C25 C 0.35026 0.85187 0.84762
 C26 C 0.32705 0.88077 0.84960
 C27 C 0.31807 0.87288 0.86706
 C28 C 0.32602 0.85461 0.87496
 C29 C 0.34186 0.84412 0.86535
 C30 C 0.34899 0.82565 0.87295
 C31 C 0.36428 0.81462 0.86298
 C32 C 0.37288 0.82249 0.84539
 H33 H 0.34442 0.89149 0.81545
 H34 H 0.38496 0.84005 0.81120
 H35 H 0.32096 0.89435 0.84268
 H36 H 0.32016 0.84854 0.88883
 H37 H 0.34247 0.81969 0.88661
 H38 H 0.38456 0.81390 0.83756
 C39 C 0.83665 1.36498 0.83694
 C40 C 0.84334 1.37472 0.81959
 C41 C 0.86106 1.36814 0.80946
 C42 C 0.87216 1.35155 0.81753
 C43 C 0.86551 1.34153 0.83482
 C44 C 0.84768 1.34829 0.84454
 C45 C 0.81889 1.37158 0.84667
 C46 C 0.81187 1.36152 0.86380
 C47 C 0.82295 1.34490 0.87130
 C48 C 0.84073 1.33821 0.86177
 C49 C 0.85147 1.32137 0.86904
 C50 C 0.86899 1.31419 0.85924
 C51 C 0.87611 1.32451 0.84227
 H52 H 0.83491 1.38791 0.81447
 H53 H 0.88543 1.34558 0.80987
 H54 H 0.81022 1.38424 0.84064
 H55 H 0.81771 1.33718 0.88461
 H56 H 0.84611 1.31375 0.88236
 H57 H 0.88956 1.31897 0.83458
 C58 C 0.84669 0.87281 0.34319
 C59 C 0.85336 0.88116 0.32513
 C60 C 0.86994 0.87261 0.31454
 C61 C 0.88002 0.85559 0.32295
 C62 C 0.87332 0.84695 0.34094
 C63 C 0.85653 0.85554 0.35107
 C64 C 0.83007 0.88138 0.35331
 C65 C 0.82286 0.87276 0.37111
 C66 C 0.83257 0.85537 0.37883
 C67 C 0.84939 0.84671 0.36893
 C68 C 0.85900 0.82922 0.37641
 C69 C 0.87565 0.82043 0.36630
 C70 C 0.88281 0.82951 0.34867
 H71 H 0.84586 0.89477 0.31974
 H72 H 0.89239 0.84820 0.31502
 H73 H 0.82235 0.89452 0.34704
 H74 H 0.82707 0.84863 0.39256
 H75 H 0.85352 0.82242 0.39012
 H76 H 0.89545 0.82264 0.34065
 C77 C 0.64684 0.62308 0.34678
 C78 C 0.63786 0.61502 0.32943
 C79 C 0.61971 0.62342 0.32145
 C80 C 0.61059 0.63993 0.33169
 C81 C 0.61956 0.64825 0.34888
 C82 C 0.63778 0.63988 0.35645
 C83 C 0.66497 0.61475 0.35441
 C84 C 0.67433 0.62316 0.37145
 C85 C 0.66527 0.64006 0.38091
 C86 C 0.64709 0.64850 0.37350
 C87 C 0.63824 0.66562 0.38266
 C88 C 0.62018 0.67421 0.37498
 C89 C 0.61086 0.66529 0.35822
 H90 H 0.64486 0.60182 0.32255
 H91 H 0.59711 0.64730 0.32571
 H92 H 0.67207 0.60198 0.34680
 H93 H 0.67234 0.64658 0.39410
 H94 H 0.64543 0.67234 0.39569
 H95 H 0.59714 0.67204 0.35202
 C96 C 0.66562 0.13889 0.83265
 C97 C 0.65785 0.13172 0.81446
 C98 C 0.63987 0.13990 0.80638
 C99 C 0.62944 0.15534 0.81685
 C100 C 0.63712 0.16273 0.83513
 C101 C 0.65524 0.15437 0.84311
 C102 C 0.68372 0.13082 0.84039
 C103 C 0.69198 0.13796 0.85862
 C104 C 0.68124 0.15332 0.86913
 C105 C 0.66311 0.16161 0.86142
 C106 C 0.65303 0.17742 0.87151
 C107 C 0.63521 0.18615 0.86351
 C108 C 0.62723 0.17858 0.84540
 H109 H 0.66578 0.11963 0.80655
 H110 H 0.61564 0.16182 0.81057
 H111 H 0.69093 0.11841 0.83235
 H112 H 0.68739 0.15970 0.88281
 H113 H 0.65941 0.18338 0.88530
 H114 H 0.61337 0.18510 0.83926
 C115 C 1.14599 0.62117 0.84791
 C116 C 1.13679 0.61352 0.83047
 C117 C 1.11952 0.62311 0.82219
 C118 C 1.11122 0.64028 0.83179
 C119 C 1.12026 0.64813 0.84917
 C120 C 1.13775 0.63860 0.85721
 C121 C 1.16365 0.61203 0.85577
 C122 C 1.17366 0.62032 0.87266
 C123 C 1.16493 0.63762 0.88193
 C124 C 1.14722 0.64674 0.87435
 C125 C 1.13912 0.66422 0.88342
 C126 C 1.12184 0.67392 0.87540
 C127 C 1.11240 0.66569 0.85832
 H128 H 1.14316 0.60016 0.82324
 H129 H 1.09810 0.64793 0.82534
 H130 H 1.17014 0.59916 0.84785
 H131 H 1.17153 0.64386 0.89546
 H132 H 1.14668 0.67071 0.89636
 H133 H 1.09899 0.67304 0.85211
 C134 C 1.18133 0.15440 0.31662
 C135 C 1.17382 0.14519 0.29922
 C136 C 1.15473 0.15076 0.29118
 C137 C 1.14355 0.16635 0.30086
 C138 C 1.15113 0.17593 0.31812
 C139 C 1.16994 0.16968 0.32624
 C140 C 1.19991 0.14804 0.32474
 C141 C 1.20739 0.15638 0.34278
 C142 C 1.19580 0.17178 0.35233
 C143 C 1.17732 0.17864 0.34402
 C144 C 1.16615 0.19441 0.35313
 C145 C 1.14771 0.20125 0.34468
 C146 C 1.14018 0.19171 0.32734
 H147 H 1.18252 0.13281 0.29271
 H148 H 1.12923 0.17163 0.29466
 H149 H 1.20790 0.13562 0.31745
 H150 H 1.20139 0.17899 0.36584
 H151 H 1.17204 0.20169 0.36649
 H152 H 1.12574 0.19658 0.32105
 C153 C 0.66635 1.35834 0.66517
 C154 C 0.65652 1.36854 0.68095
 C155 C 0.63916 1.36048 0.68993
 C156 C 0.63148 1.34204 0.68275
 C157 C 0.64114 1.33163 0.66694
 C158 C 0.65874 1.33977 0.65824
 C159 C 0.68388 1.36628 0.65648
 C160 C 0.69427 1.35585 0.64095
 C161 C 0.68632 1.33729 0.63419
 C162 C 0.66879 1.32928 0.64269
 C163 C 0.66121 1.31086 0.63577
 C164 C 0.64372 1.30260 0.64424
 C165 C 0.63366 1.31313 0.65978
 H166 H 0.66269 1.38258 0.68658
 H167 H 0.61797 1.33583 0.68944
 H168 H 0.68984 1.38018 0.66262
 H169 H 0.69323 1.32924 0.62173
 H170 H 0.66887 1.30296 0.62360
 H171 H 0.62024 1.30675 0.66649
 C172 C 0.66643 0.86288 1.16491
 C173 C 0.65611 0.87247 1.18068
 C174 C 0.63858 0.86403 1.18919
 C175 C 0.63155 0.84551 1.18120
 C176 C 0.64156 0.83593 1.16502
 C177 C 0.65913 0.84464 1.15692
 C178 C 0.68423 0.87117 1.15729
 C179 C 0.69488 0.86155 1.14165
 C180 C 0.68730 0.84362 1.13333
 C181 C 0.66955 0.83504 1.14095
 C182 C 0.66220 0.81692 1.13301
 C183 C 0.64465 0.80807 1.14084
 C184 C 0.63438 0.81772 1.15684
 H185 H 0.66258 0.88607 1.18697
 H186 H 0.61787 0.83882 1.18697
 H187 H 0.68985 0.88520 1.16352
 H188 H 0.69551 0.83608 1.12129
 H189 H 0.67009 0.80973 1.12056
 H190 H 0.62099 0.81087 1.16313
 C191 C 1.16622 1.36069 1.16698
 C192 C 1.15552 1.36928 1.18309
 C193 C 1.13771 1.36044 1.19020
 C194 C 1.13073 1.34259 1.18111
 C195 C 1.14124 1.33388 1.16481
 C196 C 1.15899 1.34307 1.15764
 C197 C 1.18404 1.36956 1.16015
 C198 C 1.19491 1.36138 1.14371
 C199 C 1.18722 1.34392 1.13418
 C200 C 1.16956 1.33463 1.14119
 C201 C 1.16245 1.31687 1.13215
 C202 C 1.14494 1.30738 1.13934
 C203 C 1.13436 1.31609 1.15564
 H204 H 1.16122 1.38277 1.19033
 H205 H 1.11699 1.33569 1.18654
 H206 H 1.18888 1.38345 1.16726
 H207 H 1.19543 1.33684 1.12190
 H208 H 1.17052 1.31045 1.11942
 H209 H 1.12099 1.30881 1.16144
 C210 C 1.16628 0.85847 0.66472
 C211 C 1.15914 0.86642 0.68307
 C212 C 1.14348 0.85681 0.69354
 C213 C 1.13481 0.83935 0.68535
 C214 C 1.14168 0.83133 0.66710
 C215 C 1.15741 0.84092 0.65668
 C216 C 1.18224 0.86765 0.65441
 C217 C 1.18949 0.85971 0.63595
 C218 C 1.18012 0.84228 0.62805
 C219 C 1.16437 0.83282 0.63831
 C220 C 1.15579 0.81504 0.63067
 C221 C 1.14031 0.80527 0.64119
 C222 C 1.13319 0.81369 0.65928
 H223 H 1.16600 0.87981 0.68942
 H224 H 1.12256 0.83202 0.69320
 H225 H 1.18848 0.88139 0.66060
 H226 H 1.18572 0.83523 0.61442
 H227 H 1.16150 0.80853 0.61680
 H228 H 1.12101 0.80646 0.66731
 C229 C 0.33699 0.63456 0.65903
 C230 C 0.34456 0.62492 0.67628
 C231 C 0.36195 0.63211 0.68608
 C232 C 0.37190 0.64904 0.67829
 C233 C 0.36454 0.65883 0.66102
 C234 C 0.34698 0.65160 0.65137
 C235 C 0.31937 0.62765 0.64954
 C236 C 0.31153 0.63753 0.63247
 C237 C 0.32167 0.65440 0.62482
 C238 C 0.33928 0.66152 0.63419
 C239 C 0.34919 0.67853 0.62674
 C240 C 0.36666 0.68592 0.63631
 C241 C 0.37429 0.67589 0.65339
 H242 H 0.33664 0.61207 0.68235
 H243 H 0.38544 0.65455 0.68565
 H244 H 0.31148 0.61483 0.65572
 H245 H 0.31586 0.66197 0.61154
 H246 H 0.34335 0.68601 0.61342
 H247 H 0.38758 0.68163 0.66102
 C248 C 0.32552 0.14866 1.17255
 C249 C 0.33363 0.13964 1.18983
 C250 C 0.35103 0.14741 1.19943
 C251 C 0.36041 0.16445 1.19082
 C252 C 0.35221 0.17389 1.17363
 C253 C 0.33467 0.16594 1.16452
 C254 C 0.30823 0.14068 1.16325
 C255 C 0.29978 0.14993 1.14613
 C256 C 0.30885 0.16729 1.13834
 C257 C 0.32616 0.17535 1.14743
 C258 C 0.33493 0.19280 1.13975
 C259 C 0.35215 0.20112 1.14885
 C260 C 0.36094 0.19143 1.16562
 H261 H 0.32662 0.12602 1.19530
 H262 H 0.37346 0.17116 1.19799
 H263 H 0.30110 0.12747 1.16954
 H264 H 0.30252 0.17444 1.12505
 H265 H 0.32833 0.19998 1.12660
 H266 H 0.37421 0.19784 1.17271
 C267 C 0.83509 0.63733 1.16107
 C268 C 0.84205 0.62798 1.17871
 C269 C 0.85941 0.63501 1.18870
 C270 C 0.86997 0.65145 1.18069
 C271 C 0.86319 0.66098 1.16305
 C272 C 0.84564 0.65393 1.15323
 C273 C 0.81756 0.63053 1.15131
 C274 C 0.81031 0.64021 1.13388
 C275 C 0.82095 0.65670 1.12613
 C276 C 0.83852 0.66363 1.13569
 C277 C 0.84893 0.68025 1.12811
 C278 C 0.86633 0.68749 1.13788
 C279 C 0.87345 0.67767 1.15529
 H280 H 0.83398 0.61517 1.18466
 H281 H 0.88321 0.65714 1.18845
 H282 H 0.80928 0.61800 1.15754
 H283 H 0.81556 0.66411 1.11259
 H284 H 0.84350 0.68757 1.11453
 H285 H 0.88670 0.68331 1.16304
 C286 C 0.82783 0.14817 0.67279
 C287 C 0.83869 0.13892 0.68857
 C288 C 0.85718 0.14698 0.69569
 C289 C 0.86457 0.16455 0.68633
 C290 C 0.85374 0.17412 0.67083
 C291 C 0.83525 0.16600 0.66415
 C292 C 0.80958 0.13994 0.66559
 C293 C 0.79824 0.14967 0.65022
 C294 C 0.80589 0.16769 0.64208
 C295 C 0.82417 0.17577 0.64881
 C296 C 0.83155 0.19350 0.64024
 C297 C 0.84990 0.20174 0.64682
 C298 C 0.86099 0.19192 0.66209
 H299 H 0.83295 0.12502 0.69477
 H300 H 0.87826 0.17164 0.69174
 H301 H 0.80390 0.12642 0.67261
 H302 H 0.79820 0.17513 0.62969
 H303 H 0.82309 0.20081 0.62825
 H304 H 0.87509 0.19832 0.66737
 C305 C 1.37750 0.35020 0.65238
 C306 C 1.38586 0.35973 0.66923
 C307 C 1.37594 0.37629 0.67863
 C308 C 1.35734 0.38332 0.67033
 C309 C 1.34898 0.37413 0.65317
 C310 C 1.35906 0.35740 0.64430
 C311 C 1.38711 0.33312 0.64396
 C312 C 1.37843 0.32271 0.62756
 C313 C 1.36020 0.33053 0.61927
 C314 C 1.35058 0.34770 0.62746
 C315 C 1.33243 0.35514 0.61915
 C316 C 1.32238 0.37200 0.62760
 C317 C 1.33066 0.38133 0.64475
 H318 H 1.39961 0.35329 0.67563
 H319 H 1.34960 0.39638 0.67670
 H320 H 1.40075 0.32733 0.65114
 H321 H 1.35359 0.32365 0.60604
 H322 H 1.32587 0.34756 0.60626
 H323 H 1.32298 0.39432 0.65137
 C324 C 1.38147 0.85422 1.14986
 C325 C 1.39029 0.86317 1.16680
 C326 C 1.38104 0.87998 1.17615
 C327 C 1.36302 0.88817 1.16801
 C328 C 1.35406 0.87941 1.15098
 C329 C 1.36320 0.86221 1.14201
 C330 C 1.39035 0.83695 1.14114
 C331 C 1.38109 0.82701 1.12477
 C332 C 1.36280 0.83532 1.11698
 C333 C 1.35391 0.85280 1.12541
 C334 C 1.33571 0.86089 1.11765
 C335 C 1.32658 0.87815 1.12638
 C336 C 1.33588 0.88730 1.14307
 H337 H 1.40401 0.85660 1.17318
 H338 H 1.35591 0.90127 1.17504
 H339 H 1.40389 0.83066 1.14808
 H340 H 1.35563 0.82860 1.10397
 H341 H 1.32869 0.85380 1.10473
 H342 H 1.32874 0.90034 1.15016
 C343 C 0.87120 0.34458 1.15555
 C344 C 0.88086 0.35231 1.17268
 C345 C 0.87337 0.36987 1.18223
 C346 C 0.85633 0.38002 1.17414
 C347 C 0.84652 0.37249 1.15703
 C348 C 0.85391 0.35462 1.14779
 C349 C 0.87815 0.32655 1.14653
 C350 C 0.86785 0.31804 1.12993
 C351 C 0.85077 0.32858 1.12218
 C352 C 0.84377 0.34661 1.13099
 C353 C 0.82646 0.35651 1.12344
 C354 C 0.81884 0.37417 1.13268
 C355 C 0.82909 0.38222 1.14937
 H356 H 0.89382 0.34427 1.17900
 H357 H 0.85061 0.39370 1.18129
 H358 H 0.89090 0.31865 1.15335
 H359 H 0.84302 0.32312 1.10891
 H360 H 0.81877 0.35036 1.11041
 H361 H 0.82315 0.39568 1.15675
 C362 C 0.88041 0.85290 0.65009
 C363 C 0.88925 0.86159 0.66717
 C364 C 0.88031 0.87863 0.67642
 C365 C 0.86255 0.88722 0.66813
 C366 C 0.85354 0.87870 0.65103
 C367 C 0.86242 0.86139 0.64202
 C368 C 0.88901 0.83554 0.64128
 C369 C 0.87983 0.82638 0.62456
 C370 C 0.86192 0.83495 0.61652
 C371 C 0.85314 0.85239 0.62515
 C372 C 0.83509 0.86080 0.61740
 C373 C 0.82614 0.87806 0.62632
 C374 C 0.83555 0.88695 0.64308
 H375 H 0.90277 0.85470 0.67365
 H376 H 0.85569 0.90050 0.67505
 H377 H 0.90259 0.82880 0.64780
 H378 H 0.85482 0.82802 0.60355
 H379 H 0.82799 0.85393 0.60439
 H380 H 0.82856 0.90003 0.65027
 C381 C 0.62328 0.65072 0.65540
 C382 C 0.61384 0.64112 0.67147
 C383 C 0.62188 0.62303 0.67933
 C384 C 0.63937 0.61433 0.67064
 C385 C 0.64887 0.62368 0.65435
 C386 C 0.64084 0.64201 0.64673
 C387 C 0.61573 0.66923 0.64828
 C388 C 0.62552 0.67934 0.63264
 C389 C 0.64276 0.67041 0.62368
 C390 C 0.65055 0.65185 0.63072
 C391 C 0.66817 0.64322 0.62236
 C392 C 0.67638 0.62500 0.62992
 C393 C 0.66655 0.61529 0.64587
 H394 H 0.60061 0.64812 0.67838
 H395 H 0.64562 0.60035 0.67667
 H396 H 0.60226 0.67592 0.65504
 H397 H 0.65046 0.67823 0.61169
 H398 H 0.67552 0.65071 0.60995
 H399 H 0.67296 0.60145 0.65204
 C400 C 0.63416 1.16045 1.16475
 C401 C 0.62535 1.15012 1.18073
 C402 C 0.63454 1.13256 1.18859
 C403 C 0.65288 1.12535 1.18027
 C404 C 0.66183 1.13546 1.16408
 C405 C 0.65234 1.15305 1.15625
 C406 C 0.62507 1.17818 1.15731
 C407 C 0.63367 1.18877 1.14113
 C408 C 0.65166 1.18089 1.13245
 C409 C 0.66111 1.16336 1.14005
 C410 C 0.67944 1.15623 1.13192
 C411 C 0.68923 1.13894 1.13976
 C412 C 0.68020 1.12849 1.15573
 H413 H 0.61147 1.15600 1.18739
 H414 H 0.66006 1.11182 1.18630
 H415 H 0.61082 1.18324 1.16379
 H416 H 0.65909 1.18893 1.12045
 H417 H 0.68615 1.16415 1.11941
 H418 H 0.68772 1.11522 1.16194
 C419 C 0.12409 0.65009 1.15745
 C420 C 0.11463 0.64075 1.17370
 C421 C 0.12266 0.62279 1.18217
 C422 C 0.14030 0.61413 1.17346
 C423 C 0.14967 0.62316 1.15692
 C424 C 0.14156 0.64124 1.14890
 C425 C 0.11651 0.66848 1.15001
 C426 C 0.12605 0.67844 1.13395
 C427 C 0.14316 0.66897 1.12501
 C428 C 0.15107 0.65064 1.13253
 C429 C 0.16868 0.64183 1.12428
 C430 C 0.17696 0.62383 1.13225
 C431 C 0.16726 0.61454 1.14850
 H432 H 0.10167 0.64835 1.18045
 H433 H 0.14654 0.59999 1.17907
 H434 H 0.10275 0.67469 1.15656
 H435 H 0.15120 0.67633 1.11298
 H436 H 0.17598 0.64901 1.11166
 H437 H 0.17373 0.60085 1.15495
 C438 C 0.12667 1.15503 0.65899
 C439 C 0.11695 1.14567 0.67503
 C440 C 0.12486 1.12773 0.68360
 C441 C 0.14264 1.11906 0.67516
 C442 C 0.15224 1.12806 0.65870
 C443 C 0.14431 1.14621 0.65067
 C444 C 0.11926 1.17346 0.65156
 C445 C 0.12920 1.18332 0.63588
 C446 C 0.14644 1.17420 0.62711
 C447 C 0.15414 1.15572 0.63450
 C448 C 0.17170 1.14678 0.62629
 C449 C 0.17966 1.12855 0.63412
 C450 C 0.16981 1.11933 0.65034
 H451 H 0.10389 1.15327 0.68160
 H452 H 0.14879 1.10494 0.68092
 H453 H 0.10575 1.18029 0.65810
 H454 H 0.15416 1.18179 0.61499
 H455 H 0.17912 1.15395 0.61374
 H456 H 0.17607 1.10552 0.65672
 C457 C 1.35917 0.66395 0.33709
 C458 C 1.36637 0.65612 0.31871
 C459 C 1.35605 0.64044 0.30854
 C460 C 1.33843 0.63264 0.31755
 C461 C 1.33126 0.64011 0.33594
 C462 C 1.34167 0.65577 0.34577
 C463 C 1.36908 0.68000 0.34682
 C464 C 1.36202 0.68774 0.36544
 C465 C 1.34466 0.67896 0.37397
 C466 C 1.33444 0.66333 0.36425
 C467 C 1.31679 0.65541 0.37263
 C468 C 1.30623 0.63993 0.36284
 C469 C 1.31368 0.63221 0.34458
 H470 H 1.37952 0.66297 0.31200
 H471 H 1.33056 0.62008 0.31077
 H472 H 1.38270 0.68591 0.34011
 H473 H 1.33821 0.68499 0.38772
 H474 H 1.31125 0.66125 0.38687
 H475 H 1.30549 0.62038 0.33685
 C476 C 1.36788 1.15928 0.84473
 C477 C 1.37638 1.15179 0.82685
 C478 C 1.36859 1.13447 0.81743
 C479 C 1.35182 1.12478 0.82601
 C480 C 1.34319 1.13202 0.84399
 C481 C 1.35143 1.14922 0.85346
 C482 C 1.37564 1.17666 0.85401
 C483 C 1.36745 1.18414 0.87225
 C484 C 1.35122 1.17359 0.88093
 C485 C 1.34316 1.15643 0.87164
 C486 C 1.32668 1.14656 0.88022
 C487 C 1.31820 1.12957 0.87090
 C488 C 1.32651 1.12237 0.85272
 H489 H 1.38900 1.15958 0.82013
 H490 H 1.34575 1.11140 0.81889
 H491 H 1.38861 1.18382 0.84727
 H492 H 1.34398 1.17921 0.89445
 H493 H 1.32013 1.15239 0.89403
 H494 H 1.32012 1.10918 0.84552
 C495 C 0.86134 0.66150 0.83622
 C496 C 0.86819 0.65195 0.81863
 C497 C 0.85773 0.63546 0.81045
 C498 C 0.84032 0.62844 0.82022
 C499 C 0.83326 0.63786 0.83783
 C500 C 0.84376 0.65450 0.84584
 C501 C 0.87157 0.67819 0.84410
 C502 C 0.86443 0.68812 0.86144
 C503 C 0.84695 0.68102 0.87102
 C504 C 0.83655 0.66431 0.86332
 C505 C 0.81894 0.65741 0.87268
 C506 C 0.80835 0.64086 0.86477
 C507 C 0.81569 0.63111 0.84738
 H508 H 0.88141 0.65769 0.81102
 H509 H 0.83228 0.61561 0.81412
 H510 H 0.88484 0.68378 0.83645
 H511 H 0.84145 0.68850 0.88451
 H512 H 0.81348 0.66489 0.88618
 H513 H 0.80744 0.61856 0.84100
 C514 C 0.86878 1.15649 0.34334
 C515 C 0.87823 1.14702 0.32695
 C516 C 0.86910 1.13071 0.31675
 C517 C 0.85008 1.12397 0.32374
 C518 C 0.84056 1.13315 0.34042
 C519 C 0.84992 1.14957 0.35013
 C520 C 0.87780 1.17313 0.35274
 C521 C 0.86822 1.18302 0.36891
 C522 C 0.84955 1.17585 0.37585
 C523 C 0.84035 1.15925 0.36655
 C524 C 0.82162 1.15233 0.37331
 C525 C 0.81216 1.13590 0.36390
 C526 C 0.82177 1.12630 0.34749
 H527 H 0.89228 1.15327 0.32158
 H528 H 0.84287 1.11113 0.31673
 H529 H 0.89206 1.17873 0.34712
 H530 H 0.84217 1.18321 0.38849
 H531 H 0.81443 1.15966 0.38609
 H532 H 0.81445 1.11375 0.34004
 C533 C 0.63332 0.33490 0.33962
 C534 C 0.62404 0.34279 0.32228
 C535 C 0.63111 0.36066 0.31316
 C536 C 0.64771 0.37058 0.32221
 C537 C 0.65692 0.36305 0.33975
 C538 C 0.64974 0.34512 0.34843
 C539 C 0.62666 0.31673 0.34812
 C540 C 0.63632 0.30864 0.36523
 C541 C 0.65236 0.31918 0.37413
 C542 C 0.65908 0.33732 0.36590
 C543 C 0.67515 0.34765 0.37482
 C544 C 0.68228 0.36564 0.36646
 C545 C 0.67321 0.37320 0.34881
 H546 H 0.61191 0.33429 0.31543
 H547 H 0.65310 0.38470 0.31617
 H548 H 0.61429 0.30862 0.34117
 H549 H 0.65960 0.31323 0.38755
 H550 H 0.68238 0.34149 0.38816
 H551 H 0.67867 0.38709 0.34229
 C552 C 0.63976 0.83244 0.83648
 C553 C 0.63014 0.83919 0.81888
 C554 C 0.63699 0.85642 0.80880
 C555 C 0.65358 0.86705 0.81667
 C556 C 0.66339 0.86046 0.83426
 C557 C 0.65650 0.84304 0.84418
 C558 C 0.63300 0.81514 0.84639
 C559 C 0.64278 0.80815 0.86389
 C560 C 0.65952 0.81876 0.87145
 C561 C 0.66644 0.83614 0.86171
 C562 C 0.68322 0.84665 0.86915
 C563 C 0.69024 0.86399 0.85931
 C564 C 0.68016 0.87084 0.84191
 H565 H 0.61720 0.83108 0.81306
 H566 H 0.65911 0.88021 0.80885
 H567 H 0.62033 0.80686 0.84024
 H568 H 0.66706 0.81356 0.88501
 H569 H 0.69078 0.84141 0.88269
 H570 H 0.68563 0.88403 0.83410
 C571 C 0.13207 0.34181 0.84054
 C572 C 0.12302 0.35166 0.82405
 C573 C 0.13240 0.36828 0.81506
 C574 C 0.15094 0.37508 0.82279
 C575 C 0.16021 0.36529 0.83911
 C576 C 0.15080 0.34856 0.84804
 C577 C 0.12279 0.32513 0.84938
 C578 C 0.13196 0.31466 0.86563
 C579 C 0.15083 0.32167 0.87290
 C580 C 0.16022 0.33851 0.86431
 C581 C 0.17896 0.34543 0.87162
 C582 C 0.18847 0.36201 0.86260
 C583 C 0.17890 0.37187 0.84643
 H584 H 0.10864 0.34644 0.81823
 H585 H 0.15842 0.38769 0.81575
 H586 H 0.10884 0.31980 0.84275
 H587 H 0.15805 0.31457 0.88574
 H588 H 0.18636 0.33770 0.88403
 H589 H 0.18600 0.38482 0.83959
 C590 C 0.14099 0.82910 0.33573
 C591 C 0.13072 0.83638 0.31863
 C592 C 0.13815 0.85295 0.30762
 C593 C 0.15594 0.86237 0.31465
 C594 C 0.16621 0.85536 0.33176
 C595 C 0.15882 0.83856 0.34226
 C596 C 0.13389 0.81217 0.34610
 C597 C 0.14447 0.80423 0.36291
 C598 C 0.16222 0.81415 0.36933
 C599 C 0.16934 0.83121 0.35925
 C600 C 0.18691 0.84100 0.36587
 C601 C 0.19424 0.85791 0.35558
 C602 C 0.18380 0.86494 0.33850
 H603 H 0.11749 0.82835 0.31345
 H604 H 0.16159 0.87573 0.30729
 H605 H 0.12065 0.80463 0.34025
 H606 H 0.17028 0.80915 0.38265
 H607 H 0.19508 0.83528 0.37887
 H608 H 0.18928 0.87806 0.33057
 O609 O 1.07481 1.01475 1.09981
 O610 O 1.09879 1.01414 1.12298
 C611 C 1.08211 1.02126 1.11626
 C612 C 1.07136 1.03767 1.12730
 C613 C 1.07872 1.04461 1.14589
 H614 H 1.09189 1.03738 1.15267
 O615 O 0.93005 0.97861 1.10031
 O616 O 0.90657 0.97827 1.12381
 C617 C 0.92316 0.97153 1.11658
 C618 C 0.93440 0.95501 1.12692
 C619 C 0.92893 0.94895 1.14635
 H620 H 0.91692 0.95703 1.15419
 O621 O 1.02173 1.09824 1.07569
 O622 O 1.02228 1.12120 1.09979
 C623 C 1.02889 1.11437 1.08314
 C624 C 1.04525 1.12511 1.07248
 C625 C 1.05200 1.14394 1.07946
 H626 H 1.04503 1.15076 1.09260
 O627 O 0.98173 0.89631 1.07111
 O628 O 0.98152 0.87247 1.09418
 C629 C 0.97450 0.88007 1.07804
 C630 C 0.95742 0.87033 1.06745
 C631 C 0.94884 0.85257 1.07497
 H632 H 0.95503 0.84565 1.08843
 O633 O 1.10116 1.07096 1.02045
 O634 O 1.12502 1.09398 1.02122
 C635 C 1.11772 1.07750 1.02756
 C636 C 1.12830 1.06617 1.04376
 C637 C 1.14676 1.07313 1.05155
 H638 H 1.15375 1.08630 1.04505
 O639 O 0.90180 0.92731 1.01810
 O640 O 0.87783 0.90440 1.01757
 C641 C 0.88522 0.92053 1.02476
 C642 C 0.87470 0.93116 1.04140
 C643 C 0.85569 0.92462 1.04795
 H644 H 0.84853 0.91201 1.04046
 O645 O 0.98176 1.07129 1.10277
 O646 O 0.98217 1.09421 1.12690
 C647 C 0.97492 1.07821 1.11931
 C648 C 0.95801 1.06771 1.12938
 C649 C 0.94969 1.07509 1.14751
 H650 H 0.95598 1.08838 1.15459
 O651 O 1.02246 0.92213 1.09827
 O652 O 1.02272 0.89820 1.12125
 C653 C 1.02975 0.91452 1.11427
 C654 C 1.04690 0.92456 1.12450
 C655 C 1.05554 0.91632 1.14206
 H656 H 1.04940 0.90266 1.14840
 O657 O 1.10258 0.97580 1.07101
 O658 O 1.12672 0.97517 1.09401
 C659 C 1.11923 0.96856 1.07770
 C660 C 1.12953 0.95183 1.06669
 C661 C 1.14854 0.94432 1.07302
 H662 H 1.15605 0.95118 1.08578
 O663 O 0.90197 1.01880 1.07364
 O664 O 0.87818 1.01826 1.09684
 C665 C 0.88538 1.02561 1.08079
 C666 C 0.87466 1.04258 1.07065
 C667 C 0.85542 1.04902 1.07721
 H668 H 0.84819 1.04121 1.08947
 O669 O 0.92936 1.10176 1.02280
 O670 O 0.90567 1.12565 1.02355
 C671 C 0.92235 1.11825 1.02995
 C672 C 0.93357 1.12850 1.04623
 C673 C 0.92802 1.14806 1.05265
 H674 H 0.91592 1.15616 1.04495
 O675 O 1.07289 0.89541 1.01709
 O676 O 1.09659 0.87155 1.01594
 C677 C 1.08015 0.87862 1.02318
 C678 C 1.06956 0.86754 1.03918
 C679 C 1.07618 0.84820 1.04512
 H680 H 1.08907 0.84117 1.03768
 O681 O 0.92950 1.01807 1.10130
 O682 O 0.90578 1.01770 1.12457
 C683 C 0.92216 1.02477 1.11768
 C684 C 0.93234 1.04141 1.12848
 C685 C 0.92435 1.04888 1.14658
 H686 H 0.91138 1.04161 1.15321
 O687 O 1.07509 0.97529 1.09861
 O688 O 1.09916 0.97467 1.12168
 C689 C 1.08266 0.96792 1.11461
 C690 C 1.07260 0.95084 1.12468
 C691 C 1.08087 0.94253 1.14231
 H692 H 1.09395 0.94947 1.14919
 O693 O 1.02110 0.89494 1.07028
 O694 O 1.02109 0.87084 1.09310
 C695 C 1.02774 0.87807 1.07677
 C696 C 1.04379 0.86719 1.06541
 C697 C 1.05043 0.84775 1.07105
 H698 H 1.04293 0.84012 1.08326
 O699 O 0.98228 1.09906 1.07546
 O700 O 0.98281 1.12214 1.09945
 C701 C 0.97579 1.11562 1.08289
 C702 C 0.95970 1.12713 1.07225
 C703 C 0.95390 1.14662 1.07861
 H704 H 0.96143 1.15337 1.09141
 O705 O 0.90167 1.07430 1.02296
 O706 O 0.87780 1.09800 1.02379
 C707 C 0.88516 1.08133 1.03013
 C708 C 0.87462 1.07005 1.04615
 C709 C 0.85537 1.07634 1.05301
 H710 H 0.84786 1.08930 1.04621
 O711 O 1.10071 0.92272 1.01801
 O712 O 1.12450 0.89896 1.01687
 C713 C 1.11741 0.91529 1.02433
 C714 C 1.12848 0.92561 1.04075
 C715 C 1.14750 0.91831 1.04727
 H716 H 1.15447 0.90544 1.03975
 O717 O 0.98297 0.92386 1.09870
 O718 O 0.98308 0.90020 1.12196
 C719 C 0.97635 0.91694 1.11514
 C720 C 0.96042 0.92832 1.12617
 C721 C 0.95466 0.92239 1.14550
 H722 H 0.96212 0.90948 1.15244
 O723 O 1.02129 1.06909 1.10161
 O724 O 1.02183 1.09192 1.12583
 C725 C 1.02842 1.07547 1.11813
 C726 C 1.04497 1.06402 1.12819
 C727 C 1.05244 1.07059 1.14677
 H728 H 1.04562 1.08372 1.15399
 O729 O 0.90201 0.97932 1.07279
 O730 O 0.87840 0.97881 1.09616
 C731 C 0.88555 0.97236 1.07960
 C732 C 0.87488 0.95634 1.06833
 C733 C 0.85584 0.94955 1.07470
 H734 H 0.84854 0.95661 1.08754
 O735 O 1.10194 1.01540 1.07172
 O736 O 1.12597 1.01474 1.09481
 C737 C 1.11844 1.02212 1.07880
 C738 C 1.12868 1.03909 1.06871
 C739 C 1.14714 1.04632 1.07624
 H740 H 1.15415 1.03910 1.08915
 O741 O 0.92893 0.89857 1.01764
 O742 O 0.90497 0.87566 1.01718
 C743 C 0.92148 0.88229 1.02429
 C744 C 0.93164 0.87139 1.04101
 C745 C 0.92333 0.85361 1.04870
 H746 H 0.91010 0.84719 1.04157
 O747 O 1.07405 1.09966 1.02142
 O748 O 1.09776 1.12281 1.02215
 C749 C 1.08132 1.11572 1.02888
 C750 C 1.07081 1.12586 1.04593
 C751 C 1.07739 1.14465 1.05321
 H752 H 1.08974 1.15223 1.04580
 Cu753 Cu 1.08621 0.99539 1.08296
 Cu754 Cu 1.11508 0.99465 1.11068
 Cu755 Cu 0.91826 0.99867 1.08467
 Cu756 Cu 0.88986 0.99816 1.11269
 Cu757 Cu 1.00168 1.08211 1.08650
 Cu758 Cu 1.00237 1.10963 1.11546
 Cu759 Cu 1.00208 0.91169 1.08229
 Cu760 Cu 1.00208 0.88303 1.10997
 C761 C 1.05434 1.04736 1.11866
 H762 H 1.04882 1.04241 1.10415
 C763 C 1.06930 1.06106 1.15569
 C764 C 0.95032 0.94476 1.11707
 H765 H 0.95449 0.94921 1.10201
 C766 C 0.93904 0.93267 1.15580
 C767 C 1.05463 1.11631 1.05559
 H768 H 1.04965 1.10170 1.05025
 C769 C 1.06801 1.15386 1.06991
 C770 C 0.94881 0.87952 1.05037
 H771 H 0.95511 0.89341 1.04470
 C772 C 0.93169 0.84418 1.06576
 C773 C 1.11946 1.04901 1.05233
 H774 H 1.10505 1.04375 1.04665
 C775 C 1.15623 1.06337 1.06784
 C776 C 0.88408 0.94716 1.05155
 H777 H 0.89888 0.95209 1.04673
 C778 C 0.84613 0.93371 1.06456
 C779 C 0.94927 1.05079 1.12011
 H780 H 0.95531 1.04522 1.10599
 C781 C 0.93272 1.06581 1.15613
 C782 C 1.05548 0.94188 1.11601
 H783 H 1.04918 0.94808 1.10227
 C784 C 1.07263 0.92516 1.15101
 C785 C 1.11974 0.94247 1.05044
 H786 H 1.10496 0.94801 1.04565
 C787 C 1.15765 0.92755 1.06340
 C788 C 0.88405 1.05306 1.05498
 H789 H 0.89899 1.04827 1.04999
 C790 C 0.84561 1.06582 1.06846
 C791 C 0.94957 1.11830 1.05597
 H792 H 0.95378 1.10313 1.05122
 C793 C 0.93816 1.15728 1.06882
 C794 C 1.05327 0.87680 1.04930
 H795 H 1.04836 0.89189 1.04500
 C796 C 1.06667 0.83811 1.06100
 O797 O 1.07291 0.98088 0.89964
 O798 O 1.09663 0.98093 0.87636
 C799 C 1.08009 0.97422 0.88315
 C800 C 1.06941 0.95816 0.87198
 C801 C 1.07651 0.95165 0.85315
 H802 H 1.08955 0.95881 0.84652
 O803 O 0.92711 1.02304 0.90146
 O804 O 0.90282 1.02410 0.87863
 C805 C 0.91942 1.03068 0.88563
 C806 C 0.92945 1.04780 0.87554
 C807 C 0.92086 1.05623 0.85814
 H808 H 0.90759 1.04939 0.85152
 O809 O 0.98105 1.10275 0.92980
 O810 O 0.98068 1.12678 0.90692
 C811 C 0.97395 1.11937 0.92316
 C812 C 0.95718 1.12971 0.93407
 C813 C 0.94879 1.14789 0.92675
 H814 H 0.95505 1.15469 0.91340
 O815 O 1.01962 0.90018 0.92425
 O816 O 1.01944 0.87718 0.90018
 C817 C 1.02639 0.88376 0.91676
 C818 C 1.04282 0.87248 0.92721
 C819 C 1.04959 0.85369 0.91984
 H820 H 1.04214 0.84703 0.90694
 O821 O 1.09965 0.92475 0.97905
 O822 O 1.12344 0.90097 0.97790
 C823 C 1.11614 0.91780 0.97188
 C824 C 1.12674 0.92903 0.95600
 C825 C 1.14551 0.92193 0.94891
 H826 H 1.15269 0.90891 0.95594
 O827 O 0.90128 1.07442 0.98391
 O828 O 0.87731 1.09803 0.98468
 C829 C 0.88451 1.08159 0.97753
 C830 C 0.87353 1.07093 0.96136
 C831 C 0.85435 1.07790 0.95506
 H832 H 0.84740 1.09091 0.96235
 O833 O 1.01981 1.07495 0.90103
 O834 O 1.01973 1.09873 0.87791
 C835 C 1.02664 1.08206 0.88475
 C836 C 1.04320 1.07101 0.87420
 C837 C 1.05082 1.07793 0.85577
 H838 H 1.04422 1.09129 0.84883
 O839 O 0.98028 0.92919 0.89738
 O840 O 0.98007 0.90646 0.87307
 C841 C 0.97330 0.92282 0.88077
 C842 C 0.95677 0.93434 0.87071
 C843 C 0.94930 0.92831 0.85185
 H844 H 0.95603 0.91535 0.84426
 O845 O 1.10072 1.01961 0.92808
 O846 O 1.12439 1.01937 0.90475
 C847 C 1.11721 1.02633 0.92108
 C848 C 1.12786 1.04287 0.93159
 C849 C 1.14600 1.05036 0.92382
 H850 H 1.15274 1.04329 0.91068
 O851 O 0.90007 0.98232 0.92737
 O852 O 0.87595 0.98333 0.90437
 C853 C 0.88357 0.97564 0.92017
 C854 C 0.87357 0.95831 0.92992
 C855 C 0.85594 0.94988 0.92154
 H856 H 0.84920 0.95645 0.90816
 O857 O 1.07357 1.10045 0.98203
 O858 O 1.09741 1.12347 0.98273
 C859 C 1.08090 1.11682 0.97553
 C860 C 1.07057 1.12782 0.95892
 C861 C 1.07853 1.14592 0.95159
 H862 H 1.09156 1.15247 0.95896
 O863 O 0.92906 0.89962 0.97826
 O864 O 0.90520 0.87659 0.97792
 C865 C 0.92159 0.88358 0.97098
 C866 C 0.93153 0.87345 0.95368
 C867 C 0.92327 0.85585 0.94542
 H868 H 0.91034 0.84897 0.95253
 O869 O 0.92770 0.98356 0.89989
 O870 O 0.90360 0.98468 0.87685
 C871 C 0.92028 0.97739 0.88338
 C872 C 0.93085 0.96112 0.87205
 C873 C 0.92360 0.95489 0.85323
 H874 H 0.91078 0.96276 0.84648
 O875 O 1.07246 1.02029 0.90096
 O876 O 1.09614 1.02018 0.87764
 C877 C 1.07962 1.02724 0.88476
 C878 C 1.06901 1.04408 0.87437
 C879 C 1.07623 1.05105 0.85595
 H880 H 1.08889 1.04328 0.84883
 O881 O 0.98019 0.90042 0.92369
 O882 O 0.97983 0.87752 0.89954
 C883 C 0.97311 0.88431 0.91615
 C884 C 0.95654 0.87380 0.92665
 C885 C 0.94804 0.85613 0.91859
 H886 H 0.95397 0.84971 0.90477
 O887 O 1.02061 1.10263 0.92863
 O888 O 1.02050 1.12661 0.90571
 C889 C 1.02765 1.11902 0.92181
 C890 C 1.04469 1.12892 0.93249
 C891 C 1.05301 1.14699 0.92528
 H892 H 1.04666 1.15405 0.91197
 O893 O 0.90132 0.92769 0.97888
 O894 O 0.87753 0.90460 0.97850
 C895 C 0.88479 0.92094 0.97186
 C896 C 0.87427 0.93167 0.95526
 C897 C 0.85667 0.92356 0.94674
 H898 H 0.85019 0.91007 0.95312
 O899 O 1.10166 1.07263 0.98133
 O900 O 1.12557 1.09558 0.98199
 C901 C 1.11822 1.07951 0.97463
 C902 C 1.12853 1.06895 0.95772
 C903 C 1.14679 1.07621 0.94970
 H904 H 1.15386 1.08936 0.95629
 O905 O 1.01979 0.92812 0.89723
 O906 O 1.01975 0.90531 0.87298
 C907 C 1.02675 0.92138 0.88070
 C908 C 1.04348 0.93215 0.87075
 C909 C 1.05095 0.92569 0.85199
 H910 H 1.04399 0.91309 0.84431
 O911 O 0.98017 1.07628 0.90122
 O912 O 0.97984 1.10015 0.87818
 C913 C 0.97280 1.08385 0.88520
 C914 C 0.95542 1.07387 0.87517
 C915 C 0.94639 1.08223 0.85780
 H916 H 0.95247 1.09585 0.85132
 O917 O 0.90024 1.02178 0.92978
 O918 O 0.87590 1.02275 0.90699
 C919 C 0.88346 1.02896 0.92345
 C920 C 0.87297 1.04514 0.93499
 C921 C 0.85376 1.05228 0.92896
 H922 H 0.84611 1.04517 0.91642
 O923 O 1.10026 0.98001 0.92772
 O924 O 1.12399 0.97989 0.90444
 C925 C 1.11671 0.97286 0.92058
 C926 C 1.12712 0.95582 0.93085
 C927 C 1.14584 0.94827 0.92376
 H928 H 1.15295 0.95524 0.91093
 O929 O 1.07261 0.89680 0.97791
 O930 O 1.09629 0.87291 0.97675
 C931 C 1.07973 0.88054 0.97029
 C932 C 1.06887 0.87079 0.95340
 C933 C 1.07544 0.85195 0.94577
 H934 H 1.08828 0.84418 0.95259
 O935 O 0.92857 1.10217 0.98361
 O936 O 0.90471 1.12588 0.98429
 C937 C 0.92110 1.11869 0.97701
 C938 C 0.93127 1.12930 0.96031
 C939 C 0.92315 1.14751 0.95275
 H940 H 0.90994 1.15435 0.95982
 Cu941 Cu 1.08424 1.00017 0.91648
 Cu942 Cu 1.11269 1.00009 0.88849
 Cu943 Cu 0.91619 1.00256 0.91694
 Cu944 Cu 0.88715 1.00387 0.88941
 Cu945 Cu 1.08521 1.08366 1.00122
 Cu946 Cu 1.11379 1.11130 1.00212
 Cu947 Cu 1.08403 0.91226 0.99818
 Cu948 Cu 1.11259 0.88370 0.99674
 Cu949 Cu 0.91763 1.08583 1.00330
 Cu950 Cu 0.88899 1.11430 1.00416
 Cu951 Cu 0.91772 0.91558 0.99829
 Cu952 Cu 0.88902 0.88798 0.99778
 Cu953 Cu 1.00048 1.08676 0.91741
 Cu954 Cu 1.00019 1.11547 0.88988
 Cu955 Cu 0.99995 0.91679 0.91303
 Cu956 Cu 0.99976 0.88931 0.88400
 C957 C 1.05274 0.94849 0.88053
 H958 H 1.04734 0.95333 0.89515
 C959 C 1.06742 0.93544 0.84307
 C960 C 0.94685 1.05659 0.88384
 H961 H 0.95339 1.05029 0.89743
 C962 C 0.92896 1.07358 0.84929
 C963 C 0.94842 1.12063 0.95097
 H964 H 0.95457 1.10642 0.95648
 C965 C 0.93172 1.15683 0.93591
 C966 C 1.05243 0.88083 0.94411
 H967 H 1.04747 0.89549 0.94970
 C968 C 1.06589 0.84334 0.92896
 C969 C 1.11775 0.94615 0.94707
 H970 H 1.10311 0.95156 0.95233
 C971 C 1.15504 0.93124 0.93267
 C972 C 0.88264 1.05441 0.95136
 H973 H 0.89761 1.04920 0.95591
 C974 C 0.84440 1.06870 0.93885
 C975 C 1.05235 1.05398 0.88328
 H976 H 1.04689 1.04877 0.89766
 C977 C 1.06744 1.06805 0.84661
 C978 C 0.94757 0.95090 0.88055
 H979 H 0.95302 0.95544 0.89523
 C980 C 0.93267 0.93848 0.84305
 C981 C 1.11934 1.05216 0.94863
 H982 H 1.10514 1.04664 0.95447
 C983 C 1.15550 1.06706 0.93261
 C984 C 0.88251 0.94915 0.94686
 H985 H 0.89629 0.95528 0.95317
 C986 C 0.84754 0.93235 0.92975
 C987 C 1.05353 1.11957 0.94940
 H988 H 1.04749 1.10547 0.95483
 C989 C 1.07003 1.15555 0.93468
 C990 C 0.94827 0.88220 0.94431
 H991 H 0.95447 0.89600 0.95043
 C992 C 0.93128 0.84719 0.92782
 O993 O 0.97667 0.42474 0.40208
 O994 O 0.97587 0.40060 0.37916
 C995 C 0.96950 0.41756 0.38587
 C996 C 0.95323 0.42882 0.37505
 C997 C 0.94561 0.42162 0.35665
 H998 H 0.95196 0.40796 0.35002
 O999 O 1.02019 0.56950 0.39929
 O1000 O 1.02106 0.59251 0.37543
 C1001 C 1.02742 0.57590 0.38288
 C1002 C 1.04365 0.56404 0.37263
 C1003 C 1.05122 0.57022 0.35394
 H1004 H 1.04500 0.58366 0.34682
 O1005 O 0.89649 0.48270 0.42703
 O1006 O 0.87318 0.48327 0.40321
 C1007 C 0.87993 0.47634 0.41973
 C1008 C 0.86876 0.46023 0.43018
 C1009 C 0.85068 0.45284 0.42203
 H1010 H 0.84430 0.45974 0.40865
 O1011 O 1.09976 0.51268 0.42724
 O1012 O 1.12323 0.51153 0.40372
 C1013 C 1.11627 0.51900 0.41996
 C1014 C 1.12716 0.53554 0.43024
 C1015 C 1.14590 0.54214 0.42295
 H1016 H 1.15260 0.53482 0.40994
 O1017 O 0.92120 0.40248 0.48138
 O1018 O 0.89703 0.37980 0.48190
 C1019 C 0.91372 0.38608 0.47498
 C1020 C 0.92431 0.37447 0.45901
 C1021 C 0.91649 0.35608 0.45209
 H1022 H 0.90310 0.34995 0.45906
 O1023 O 1.07445 0.59664 0.47878
 O1024 O 1.09863 0.61933 0.47849
 C1025 C 1.08190 0.61277 0.47179
 C1026 C 1.07114 0.62368 0.45544
 C1027 C 1.07770 0.64268 0.44887
 H1028 H 1.09030 0.64984 0.45640
 O1029 O 0.92570 0.52032 0.39917
 O1030 O 0.90241 0.52083 0.37533
 C1031 C 0.91902 0.52712 0.38255
 C1032 C 0.93048 0.54281 0.37179
 C1033 C 0.92435 0.54935 0.35262
 H1034 H 0.91159 0.54229 0.34526
 O1035 O 1.07134 0.47339 0.40057
 O1036 O 1.09473 0.47203 0.37699
 C1037 C 1.07821 0.46580 0.38436
 C1038 C 1.06711 0.44917 0.37441
 C1039 C 1.07428 0.44045 0.35643
 H1040 H 1.08778 0.44626 0.34940
 O1041 O 1.01561 0.39620 0.43031
 O1042 O 1.01494 0.37198 0.40747
 C1043 C 1.02228 0.37941 0.42352
 C1044 C 1.03930 0.36887 0.43394
 C1045 C 1.04693 0.35034 0.42658
 H1046 H 1.03962 0.34315 0.41388
 O1047 O 0.98113 0.59939 0.42582
 O1048 O 0.98163 0.62245 0.40200
 C1049 C 0.97445 0.61587 0.41839
 C1050 C 0.95776 0.62704 0.42867
 C1051 C 0.95015 0.64547 0.42100
 H1052 H 0.95687 0.65193 0.40769
 O1053 O 0.89897 0.57546 0.47914
 O1054 O 0.87586 0.59991 0.47881
 C1055 C 0.88263 0.58311 0.47215
 C1056 C 0.87175 0.57267 0.45572
 C1057 C 0.85299 0.58013 0.44874
 H1058 H 0.84594 0.59305 0.45611
 O1059 O 1.09922 0.42284 0.48228
 O1060 O 1.12226 0.39833 0.48289
 C1061 C 1.11553 0.41489 0.47569
 C1062 C 1.12635 0.42463 0.45899
 C1063 C 1.14495 0.41675 0.45220
 H1064 H 1.15203 0.40418 0.46006
 O1065 O 0.98071 0.57118 0.39878
 O1066 O 0.98151 0.59410 0.37482
 C1067 C 0.97415 0.57810 0.38218
 C1068 C 0.95750 0.56769 0.37160
 C1069 C 0.95117 0.57403 0.35244
 H1070 H 0.95882 0.58640 0.34518
 O1071 O 1.01621 0.42283 0.40203
 O1072 O 1.01541 0.39866 0.37914
 C1073 C 1.02290 0.41492 0.38590
 C1074 C 1.04002 0.42433 0.37526
 C1075 C 1.04742 0.41583 0.35734
 H1076 H 1.03991 0.40293 0.35075
 O1077 O 1.09964 0.47332 0.42773
 O1078 O 1.12314 0.47208 0.40425
 C1079 C 1.11605 0.46585 0.42078
 C1080 C 1.12660 0.44942 0.43192
 C1081 C 1.14522 0.44126 0.42520
 H1082 H 1.15224 0.44730 0.41186
 O1083 O 0.89776 0.52207 0.42652
 O1084 O 0.87434 0.52268 0.40281
 C1085 C 0.88150 0.52951 0.41919
 C1086 C 0.87117 0.54653 0.42969
 C1087 C 0.85239 0.55421 0.42288
 H1088 H 0.84512 0.54741 0.40995
 O1089 O 0.92770 0.60176 0.47871
 O1090 O 0.90463 0.62624 0.47830
 C1091 C 0.92091 0.61830 0.47153
 C1092 C 0.93165 0.62810 0.45472
 C1093 C 0.92434 0.64647 0.44685
 H1094 H 0.91144 0.65398 0.45381
 O1095 O 1.07067 0.39644 0.48220
 O1096 O 1.09363 0.37184 0.48262
 C1097 C 1.07734 0.37958 0.47558
 C1098 C 1.06630 0.36908 0.45924
 C1099 C 1.07366 0.35056 0.45164
 H1100 H 1.08728 0.34377 0.45800
 O1101 O 1.07166 0.51290 0.40011
 O1102 O 1.09499 0.51160 0.37646
 C1103 C 1.07875 0.51925 0.38362
 C1104 C 1.06844 0.53616 0.37298
 C1105 C 1.07558 0.54243 0.35424
 H1106 H 1.08783 0.53405 0.34708
 O1107 O 0.92499 0.48087 0.40047
 O1108 O 0.90172 0.48138 0.37660
 C1109 C 0.91786 0.47385 0.38419
 C1110 C 0.92807 0.45639 0.37429
 C1111 C 0.92071 0.44895 0.35596
 H1112 H 0.90816 0.45665 0.34856
 O1113 O 1.02073 0.59792 0.42616
 O1114 O 1.02134 0.62111 0.40246
 C1115 C 1.02803 0.61400 0.41893
 C1116 C 1.04473 0.62423 0.42962
 C1117 C 1.05156 0.64312 0.42316
 H1118 H 1.04433 0.65034 0.41038
 O1119 O 0.97585 0.39754 0.43000
 O1120 O 0.97514 0.37329 0.40720
 C1121 C 0.96837 0.38126 0.42326
 C1122 C 0.95114 0.37194 0.43385
 C1123 C 0.94309 0.35353 0.42713
 H1124 H 0.94994 0.34570 0.41448
 O1125 O 1.10099 0.56731 0.47918
 O1126 O 1.12528 0.58987 0.47878
 C1127 C 1.11762 0.57361 0.47217
 C1128 C 1.12783 0.56220 0.45578
 C1129 C 1.14660 0.56850 0.44833
 H1130 H 1.15412 0.58120 0.45529
 O1131 O 0.89380 0.43091 0.48063
 O1132 O 0.86952 0.40834 0.48102
 C1133 C 0.87719 0.42422 0.47373
 C1134 C 0.86726 0.43469 0.45658
 C1135 C 0.84914 0.42745 0.44815
 H1136 H 0.84187 0.41443 0.45465
 Cu1137 Cu 0.99611 0.41271 0.41843
 Cu1138 Cu 0.99523 0.38368 0.39099
 Cu1139 Cu 1.00062 0.58222 0.41492
 Cu1140 Cu 1.00148 0.60988 0.38630
 Cu1141 Cu 0.91357 0.50151 0.41568
 Cu1142 Cu 0.88559 0.50212 0.38708
 Cu1143 Cu 1.08325 0.49312 0.41626
 Cu1144 Cu 1.11134 0.49171 0.38794
 C1145 C 0.94445 0.44633 0.38365
 H1146 H 0.95000 0.45180 0.39797
 C1147 C 0.92928 0.43155 0.34709
 C1148 C 1.05231 0.54691 0.38198
 H1149 H 1.04689 0.54227 0.39657
 C1150 C 1.06725 0.55952 0.34468
 C1151 C 0.87681 0.45121 0.44756
 H1152 H 0.89095 0.45666 0.45371
 C1153 C 0.84085 0.43637 0.43076
 C1154 C 1.11834 0.54557 0.44676
 H1155 H 1.10373 0.54079 0.45225
 C1156 C 1.15570 0.55863 0.43187
 C1157 C 0.94175 0.38217 0.44992
 H1158 H 0.94766 0.39652 0.45498
 C1159 C 0.92571 0.34556 0.43612
 C1160 C 1.05451 0.61472 0.44586
 H1161 H 1.04949 0.60000 0.45070
 C1162 C 1.06794 0.65257 0.43276
 C1163 C 0.94719 0.55195 0.38105
 H1164 H 0.95182 0.54717 0.39594
 C1165 C 0.93464 0.56494 0.34281
 C1166 C 1.04985 0.44110 0.38358
 H1167 H 1.04440 0.44751 0.39759
 C1168 C 1.06457 0.42369 0.34788
 C1169 C 1.04899 0.37803 0.45040
 H1170 H 1.04343 0.39249 0.45596
 C1171 C 1.06416 0.34112 0.43527
 C1172 C 0.94848 0.61860 0.44564
 H1173 H 0.95399 0.60425 0.45145
 C1174 C 0.93334 0.65519 0.42994
 C1175 C 0.88061 0.55577 0.44623
 H1176 H 0.89522 0.55012 0.45138
 C1177 C 0.84319 0.57104 0.43232
 C1178 C 1.11743 0.44110 0.44892
 H1179 H 1.10292 0.44704 0.45398
 C1180 C 1.15448 0.42486 0.43527
 O1181 O 1.01691 0.42747 0.59978
 O1182 O 1.01624 0.40402 0.62322
 C1183 C 1.02365 0.42011 0.61612
 C1184 C 1.04063 0.43001 0.62670
 C1185 C 1.04805 0.42211 0.64485
 H1186 H 1.04066 0.40929 0.65160
 O1187 O 0.98060 0.57532 0.59908
 O1188 O 0.98130 0.59933 0.62214
 C1189 C 0.97400 0.58297 0.61536
 C1190 C 0.95740 0.57288 0.62619
 C1191 C 0.95107 0.57978 0.64517
 H1192 H 0.95859 0.59246 0.65215
 O1193 O 0.89823 0.52455 0.57264
 O1194 O 0.87472 0.52593 0.59611
 C1195 C 0.88193 0.53220 0.57961
 C1196 C 0.87159 0.54882 0.56855
 C1197 C 0.85277 0.55662 0.57502
 H1198 H 0.84551 0.55018 0.58804
 O1199 O 1.09915 0.47718 0.57347
 O1200 O 1.12268 0.47697 0.59708
 C1201 C 1.11547 0.46990 0.58084
 C1202 C 1.12587 0.45267 0.57079
 C1203 C 1.14425 0.44496 0.57842
 H1204 H 1.15131 0.45229 0.59118
 O1205 O 1.07016 0.39710 0.52118
 O1206 O 1.09295 0.37235 0.52162
 C1207 C 1.07653 0.38028 0.52803
 C1208 C 1.06489 0.36999 0.54380
 C1209 C 1.07029 0.35035 0.54978
 H1210 H 1.08289 0.34257 0.54256
 O1211 O 0.92770 0.60269 0.51797
 O1212 O 0.90463 0.62717 0.51750
 C1213 C 0.92094 0.61953 0.52454
 C1214 C 0.93176 0.63008 0.54095
 C1215 C 0.92465 0.64890 0.54793
 H1216 H 0.91179 0.65617 0.54062
 O1217 O 0.92522 0.48456 0.60047
 O1218 O 0.90198 0.48580 0.62421
 C1219 C 0.91822 0.47819 0.61700
 C1220 C 0.92894 0.46148 0.62758
 C1221 C 0.92298 0.45546 0.64690
 H1222 H 0.91087 0.46360 0.65453
 O1223 O 1.07194 0.51824 0.59997
 O1224 O 1.09539 0.51782 0.62366
 C1225 C 1.07913 0.52520 0.61627
 C1226 C 1.06882 0.54241 0.62647
 C1227 C 1.07594 0.54940 0.64507
 H1228 H 1.08844 0.54156 0.65242
 O1229 O 0.97626 0.40158 0.57233
 O1230 O 0.97555 0.37821 0.59585
 C1231 C 0.96881 0.38556 0.57950
 C1232 C 0.95181 0.37560 0.56901
 C1233 C 0.94485 0.35687 0.57571
 H1234 H 0.95229 0.34946 0.58828
 O1235 O 1.02060 0.60057 0.57083
 O1236 O 1.02135 0.62484 0.59362
 C1237 C 1.02799 0.61692 0.57745
 C1238 C 1.04480 0.62649 0.56645
 C1239 C 1.05221 0.64534 0.57258
 H1240 H 1.04508 0.65333 0.58499
 O1241 O 0.89427 0.43223 0.51992
 O1242 O 0.86999 0.40965 0.52046
 C1243 C 0.87771 0.42588 0.52706
 C1244 C 0.86779 0.43709 0.54372
 C1245 C 0.84920 0.43065 0.55147
 H1246 H 0.84149 0.41810 0.54444
 O1247 O 1.10139 0.56841 0.51844
 O1248 O 1.12575 0.59089 0.51810
 C1249 C 1.11809 0.57495 0.52525
 C1250 C 1.12838 0.56419 0.54200
 C1251 C 1.14754 0.57027 0.54880
 H1252 H 1.15527 0.58235 0.54117
 O1253 O 1.02005 0.57397 0.59924
 O1254 O 1.02087 0.59805 0.62222
 C1255 C 1.02725 0.58113 0.61544
 C1256 C 1.04353 0.56982 0.62617
 C1257 C 1.05087 0.57659 0.64484
 H1258 H 1.04431 0.59000 0.65177
 O1259 O 0.97739 0.42919 0.60001
 O1260 O 0.97678 0.40589 0.62362
 C1261 C 0.97042 0.42262 0.61647
 C1262 C 0.95453 0.43436 0.62722
 C1263 C 0.94838 0.42857 0.64647
 H1264 H 0.95553 0.41556 0.65354
 O1265 O 1.09988 0.51659 0.57269
 O1266 O 1.12345 0.51636 0.59626
 C1267 C 1.11651 0.52306 0.57970
 C1268 C 1.12759 0.53885 0.56865
 C1269 C 1.14675 0.54516 0.57523
 H1270 H 1.15365 0.53818 0.58832
 O1271 O 0.89714 0.48525 0.57316
 O1272 O 0.87375 0.48651 0.59675
 C1273 C 0.88052 0.47915 0.58040
 C1274 C 0.86925 0.46302 0.56992
 C1275 C 0.85068 0.45631 0.57750
 H1276 H 0.84436 0.46326 0.59089
 O1277 O 1.07402 0.59689 0.51786
 O1278 O 1.09826 0.61952 0.51759
 C1279 C 1.08153 0.61320 0.52444
 C1280 C 1.07093 0.62469 0.54050
 C1281 C 1.07805 0.64359 0.54679
 H1282 H 1.09116 0.65002 0.53957
 O1283 O 0.92116 0.40333 0.52038
 O1284 O 0.89702 0.38060 0.52098
 C1285 C 0.91378 0.38726 0.52755
 C1286 C 0.92470 0.37648 0.54388
 C1287 C 0.91783 0.35778 0.55095
 H1288 H 0.90470 0.35087 0.54410
 O1289 O 1.07133 0.47872 0.60072
 O1290 O 1.09478 0.47825 0.62440
 C1291 C 1.07827 0.47171 0.61714
 C1292 C 1.06732 0.45529 0.62740
 C1293 C 1.07458 0.44711 0.64558
 H1294 H 1.08800 0.45325 0.65259
 O1295 O 0.92619 0.52396 0.60001
 O1296 O 0.90286 0.52527 0.62365
 C1297 C 0.91944 0.53138 0.61633
 C1298 C 0.93075 0.54759 0.62663
 C1299 C 0.92466 0.55464 0.64561
 H1300 H 0.91212 0.54754 0.65316
 O1301 O 0.98106 0.60250 0.57123
 O1302 O 0.98164 0.62670 0.59410
 C1303 C 0.97447 0.61936 0.57794
 C1304 C 0.95790 0.63013 0.56709
 C1305 C 0.95055 0.64904 0.57386
 H1306 H 0.95739 0.65618 0.58684
 O1307 O 1.01583 0.39908 0.57287
 O1308 O 1.01503 0.37557 0.59626
 C1309 C 1.02216 0.38230 0.57995
 C1310 C 1.03833 0.37086 0.56927
 C1311 C 1.04406 0.35119 0.57522
 H1312 H 1.03613 0.34391 0.58739
 O1313 O 1.09922 0.42309 0.52150
 O1314 O 1.12216 0.39850 0.52219
 C1315 C 1.11540 0.41535 0.52876
 C1316 C 1.12601 0.42591 0.54535
 C1317 C 1.14450 0.41841 0.55319
 H1318 H 1.15152 0.40499 0.54674
 O1319 O 0.89919 0.57613 0.51842
 O1320 O 0.87608 0.60058 0.51800
 C1321 C 0.88289 0.58404 0.52518
 C1322 C 0.87209 0.57416 0.54190
 C1323 C 0.85330 0.58178 0.54862
 H1324 H 0.84621 0.59448 0.54096
 Cu1325 Cu 0.99669 0.41665 0.58386
 Cu1326 Cu 0.99580 0.38858 0.61211
 Cu1327 Cu 1.00050 0.58570 0.58280
 Cu1328 Cu 1.00137 0.61469 0.61030
 Cu1329 Cu 0.90997 0.41956 0.50052
 Cu1330 Cu 0.88090 0.39237 0.50116
 Cu1331 Cu 1.08258 0.41240 0.50178
 Cu1332 Cu 1.11009 0.38280 0.50241
 Cu1333 Cu 0.91569 0.58654 0.49860
 Cu1334 Cu 0.88801 0.61594 0.49812
 Cu1335 Cu 1.08531 0.58003 0.49858
 Cu1336 Cu 1.11446 0.60713 0.49821
 Cu1337 Cu 0.91405 0.50444 0.58423
 Cu1338 Cu 0.88597 0.50601 0.61256
 Cu1339 Cu 1.08320 0.49773 0.58437
 Cu1340 Cu 1.11142 0.49737 0.61275
 C1341 C 1.05023 0.44672 0.61820
 H1342 H 1.04474 0.45268 0.60403
 C1343 C 1.06508 0.43041 0.65432
 C1344 C 0.94725 0.55667 0.61713
 H1345 H 0.95187 0.55145 0.60238
 C1346 C 0.93471 0.57073 0.65500
 C1347 C 0.88101 0.55758 0.55186
 H1348 H 0.89563 0.55182 0.54693
 C1349 C 0.84352 0.57310 0.56514
 C1350 C 1.11697 0.44316 0.55416
 H1351 H 1.10261 0.44888 0.54842
 C1352 C 1.15364 0.42783 0.56983
 C1353 C 1.04874 0.38003 0.55343
 H1354 H 1.04465 0.39530 0.54897
 C1355 C 1.05994 0.34079 0.56539
 C1356 C 0.94851 0.62089 0.55050
 H1357 H 0.95385 0.60619 0.54538
 C1358 C 0.93382 0.65844 0.56441
 C1359 C 0.94487 0.45095 0.61798
 H1360 H 0.94939 0.45532 0.60300
 C1361 C 0.93273 0.43906 0.65650
 C1362 C 1.05249 0.55260 0.61722
 H1363 H 1.04713 0.54745 0.60271
 C1364 C 1.06715 0.56649 0.65434
 C1365 C 0.94180 0.38519 0.55293
 H1366 H 0.94701 0.39975 0.54782
 C1367 C 0.92792 0.34785 0.56678
 C1368 C 1.05416 0.61637 0.55028
 H1369 H 1.04874 0.60167 0.54566
 C1370 C 1.06881 0.65398 0.56283
 C1371 C 0.87758 0.45344 0.55292
 H1372 H 0.89208 0.45829 0.54722
 C1373 C 0.84059 0.44008 0.56843
 C1374 C 1.11863 0.54834 0.55191
 H1375 H 1.10373 0.54375 0.54692
 C1376 C 1.15685 0.56085 0.56540
 O1377 O 0.57253 1.01669 0.60132
 O1378 O 0.59560 1.01615 0.62537
 C1379 C 0.57923 1.02330 0.61797
 C1380 C 0.56801 1.03972 0.62855
 C1381 C 0.57424 1.04636 0.64766
 H1382 H 0.58703 1.03908 0.65506
 O1383 O 0.42580 0.98116 0.59984
 O1384 O 0.40222 0.98130 0.62325
 C1385 C 0.41879 0.97431 0.61616
 C1386 C 0.42989 0.95776 0.62663
 C1387 C 0.42415 0.95155 0.64595
 H1388 H 0.41182 0.95930 0.65363
 O1389 O 0.51933 1.09799 0.57397
 O1390 O 0.51966 1.12169 0.59735
 C1391 C 0.52655 1.11423 0.58107
 C1392 C 0.54338 1.12440 0.57057
 C1393 C 0.55012 1.14323 0.57741
 H1394 H 0.54273 1.15047 0.59011
 O1395 O 0.47830 0.89806 0.57204
 O1396 O 0.47796 0.87453 0.59541
 C1397 C 0.47108 0.88185 0.57910
 C1398 C 0.45417 0.87181 0.56846
 C1399 C 0.44587 0.85386 0.57592
 H1400 H 0.45220 0.84698 0.58934
 O1401 O 0.60247 1.06958 0.52151
 O1402 O 0.62599 1.09293 0.52210
 C1403 C 0.61876 1.07657 0.52881
 C1404 C 0.62885 1.06588 0.54576
 C1405 C 0.64698 1.07308 0.55416
 H1406 H 0.65427 1.08604 0.54758
 O1407 O 0.39767 0.92755 0.51898
 O1408 O 0.37375 0.90460 0.51861
 C1409 C 0.38117 0.92070 0.52584
 C1410 C 0.37097 0.93127 0.54283
 C1411 C 0.35317 0.92351 0.55134
 H1412 H 0.34653 0.90996 0.54514
 O1413 O 0.47867 1.07255 0.60153
 O1414 O 0.47898 1.09619 0.62497
 C1415 C 0.47169 1.08003 0.61777
 C1416 C 0.45454 1.07003 0.62794
 C1417 C 0.44637 1.07776 0.64599
 H1418 H 0.45297 1.09097 0.65294
 O1419 O 0.51843 0.92469 0.59955
 O1420 O 0.51828 0.90113 0.62291
 C1421 C 0.52531 0.91743 0.61591
 C1422 C 0.54185 0.92793 0.62666
 C1423 C 0.54828 0.92146 0.64578
 H1424 H 0.54072 0.90903 0.65303
 O1425 O 0.60090 0.97711 0.57405
 O1426 O 0.62418 0.97644 0.59790
 C1427 C 0.61724 0.96980 0.58136
 C1428 C 0.62783 0.95304 0.57067
 C1429 C 0.64673 0.94555 0.57739
 H1430 H 0.65399 0.95240 0.59030
 O1431 O 0.39796 1.02087 0.57236
 O1432 O 0.37407 1.02114 0.59546
 C1433 C 0.38143 1.02806 0.57930
 C1434 C 0.37118 1.04511 0.56873
 C1435 C 0.35271 1.05327 0.57578
 H1436 H 0.34549 1.04667 0.58875
 O1437 O 0.42770 1.10088 0.51990
 O1438 O 0.40441 1.12515 0.51961
 C1439 C 0.42075 1.11759 0.52661
 C1440 C 0.43140 1.12802 0.54314
 C1441 C 0.42437 1.14688 0.55006
 H1442 H 0.41180 1.15434 0.54245
 O1443 O 0.57224 0.89734 0.51994
 O1444 O 0.59543 0.87294 0.52000
 C1445 C 0.57888 0.88048 0.52652
 C1446 C 0.56741 0.86971 0.54211
 C1447 C 0.57308 0.85001 0.54776
 H1448 H 0.58579 0.84254 0.54043
 O1449 O 0.42533 1.02064 0.60030
 O1450 O 0.40151 1.02079 0.62348
 C1451 C 0.41797 1.02763 0.61658
 C1452 C 0.42831 1.04429 0.62725
 C1453 C 0.42040 1.05216 0.64525
 H1454 H 0.40724 1.04527 0.65191
 O1455 O 0.57224 0.97729 0.60051
 O1456 O 0.59536 0.97672 0.62452
 C1457 C 0.57899 0.97016 0.61695
 C1458 C 0.56793 0.95383 0.62718
 C1459 C 0.57406 0.94722 0.64629
 H1460 H 0.58674 0.95436 0.65371
 O1461 O 0.51785 0.89739 0.57158
 O1462 O 0.51761 0.87366 0.59476
 C1463 C 0.52453 0.88070 0.57847
 C1464 C 0.54084 0.86973 0.56757
 C1465 C 0.54676 0.85002 0.57311
 H1466 H 0.53881 0.84240 0.58504
 O1467 O 0.47981 1.09982 0.57375
 O1468 O 0.48010 1.12356 0.59709
 C1469 C 0.47322 1.11657 0.58068
 C1470 C 0.45697 1.12762 0.56973
 C1471 C 0.44963 1.14649 0.57658
 H1472 H 0.45624 1.15337 0.58982
 O1473 O 0.39946 1.07400 0.51983
 O1474 O 0.37615 1.09826 0.51958
 C1475 C 0.38302 1.08165 0.52655
 C1476 C 0.37211 1.07139 0.54299
 C1477 C 0.35366 1.07932 0.55026
 H1478 H 0.34689 1.09253 0.54319
 O1479 O 0.60045 0.92428 0.52092
 O1480 O 0.62371 0.89997 0.52109
 C1481 C 0.61674 0.91661 0.52796
 C1482 C 0.62743 0.92695 0.54458
 C1483 C 0.64628 0.91966 0.55150
 H1484 H 0.65345 0.90684 0.54406
 O1485 O 0.47895 0.92647 0.59892
 O1486 O 0.47879 0.90307 0.62244
 C1487 C 0.47214 0.91973 0.61535
 C1488 C 0.45610 0.93120 0.62615
 C1489 C 0.45027 0.92535 0.64546
 H1490 H 0.45781 0.91258 0.65259
 O1491 O 0.51822 1.07031 0.60134
 O1492 O 0.51858 1.09387 0.62488
 C1493 C 0.52513 1.07714 0.61779
 C1494 C 0.54134 1.06581 0.62849
 C1495 C 0.54762 1.07205 0.64763
 H1496 H 0.54015 1.08483 0.65483
 O1497 O 0.39818 0.98131 0.57205
 O1498 O 0.37448 0.98150 0.59534
 C1499 C 0.38176 0.97447 0.57906
 C1500 C 0.37134 0.95767 0.56867
 C1501 C 0.35348 0.94985 0.57673
 H1502 H 0.34671 0.95701 0.58979
 O1503 O 0.60067 1.01659 0.57420
 O1504 O 0.62385 1.01599 0.59814
 C1505 C 0.61702 1.02317 0.58173
 C1506 C 0.62790 1.03972 0.57162
 C1507 C 0.64603 1.04708 0.57972
 H1508 H 0.65234 1.04026 0.59317
 O1509 O 0.42548 0.89956 0.51863
 O1510 O 0.40163 0.87653 0.51805
 C1511 C 0.41810 0.88326 0.52525
 C1512 C 0.42836 0.87249 0.54201
 C1513 C 0.42032 0.85456 0.54965
 H1514 H 0.40721 0.84794 0.54248
 O1515 O 0.57434 1.09724 0.52148
 O1516 O 0.59768 1.12077 0.52198
 C1517 C 0.58121 1.11362 0.52863
 C1518 C 0.57016 1.12415 0.54513
 C1519 C 0.57677 1.14295 0.55241
 H1520 H 0.58967 1.15015 0.54557
 Cu1521 Cu 0.58429 0.99699 0.58511
 Cu1522 Cu 0.61209 0.99628 0.61388
 Cu1523 Cu 0.41418 1.00098 0.58382
 Cu1524 Cu 0.38565 1.00116 0.61168
 Cu1525 Cu 0.49891 1.08279 0.58532
 Cu1526 Cu 0.49945 1.11120 0.61343
 Cu1527 Cu 0.49842 0.91397 0.58316
 Cu1528 Cu 0.49812 0.88572 0.61122
 C1529 C 0.55143 1.04945 0.61918
 H1530 H 0.54677 1.04472 0.60429
 C1531 C 0.56403 1.06245 0.65729
 C1532 C 0.44601 0.94758 0.61695
 H1533 H 0.45035 0.95204 0.60194
 C1534 C 0.43441 0.93544 0.65551
 C1535 C 0.55334 1.11506 0.55426
 H1536 H 0.54833 1.10043 0.54901
 C1537 C 0.56674 1.15262 0.56847
 C1538 C 0.44540 0.88087 0.55139
 H1539 H 0.45148 0.89488 0.54576
 C1540 C 0.42886 0.84520 0.56667
 C1541 C 0.61956 1.04907 0.55452
 H1542 H 0.60541 1.04363 0.54839
 C1543 C 0.65568 1.06375 0.57116
 C1544 C 0.37986 0.94842 0.55159
 H1545 H 0.39381 0.95422 0.54546
 C1546 C 0.34444 0.93262 0.56844
 C1547 C 0.44547 1.05321 0.61884
 H1548 H 0.45144 1.04736 0.60481
 C1549 C 0.42919 1.06896 0.65470
 C1550 C 0.55168 0.94423 0.61757
 H1551 H 0.54700 0.94914 0.60274
 C1552 C 0.56430 0.93112 0.65575
 C1553 C 0.61844 0.94375 0.55415
 H1554 H 0.60376 0.94925 0.54904
 C1555 C 0.65605 0.92882 0.56788
 C1556 C 0.38063 1.05418 0.55221
 H1557 H 0.39501 1.04818 0.54687
 C1558 C 0.34388 1.07043 0.56667
 C1559 C 0.44785 1.11862 0.55289
 H1560 H 0.45314 1.10391 0.54775
 C1561 C 0.43323 1.15617 0.56685
 C1562 C 0.55114 0.87935 0.55193
 H1563 H 0.54686 0.89466 0.54777
 C1564 C 0.56281 0.84002 0.56317
 O1565 O 0.57493 0.97735 0.40108
 O1566 O 0.59867 0.97668 0.37783
 C1567 C 0.58211 0.97013 0.38482
 C1568 C 0.57128 0.95359 0.37438
 C1569 C 0.57879 0.94516 0.35635
 H1570 H 0.59244 0.95107 0.34970
 O1571 O 0.42691 1.02090 0.39920
 O1572 O 0.40344 1.02142 0.37554
 C1573 C 0.41994 1.02797 0.38280
 C1574 C 0.43095 1.04437 0.37250
 C1575 C 0.42393 1.05232 0.35412
 H1576 H 0.41085 1.04575 0.34687
 O1577 O 0.48160 1.09931 0.42767
 O1578 O 0.48203 1.12318 0.40464
 C1579 C 0.47489 1.11602 0.42079
 C1580 C 0.45832 1.12696 0.43149
 C1581 C 0.45167 1.14619 0.42507
 H1582 H 0.45917 1.15343 0.41262
 O1583 O 0.51911 0.89825 0.42767
 O1584 O 0.51921 0.87461 0.40422
 C1585 C 0.52603 0.88165 0.42064
 C1586 C 0.54266 0.87089 0.43141
 C1587 C 0.55002 0.85202 0.42456
 H1588 H 0.54310 0.84487 0.41163
 O1589 O 0.60115 0.92447 0.48173
 O1590 O 0.62445 0.90020 0.48196
 C1591 C 0.61764 0.91687 0.47512
 C1592 C 0.62866 0.92720 0.45891
 C1593 C 0.64741 0.91960 0.45218
 H1594 H 0.65434 0.90667 0.45960
 O1595 O 0.39975 1.07372 0.48061
 O1596 O 0.37648 1.09803 0.48042
 C1597 C 0.38344 1.08137 0.47361
 C1598 C 0.37282 1.07122 0.45689
 C1599 C 0.35474 1.07951 0.44917
 H1600 H 0.34821 1.09301 0.45597
 O1601 O 0.52133 1.07103 0.40027
 O1602 O 0.52195 1.09484 0.37720
 C1603 C 0.52868 1.07819 0.38421
 C1604 C 0.54567 1.06732 0.37407
 C1605 C 0.55401 1.07473 0.35614
 H1606 H 0.54759 1.08817 0.34920
 O1607 O 0.48026 0.92698 0.39962
 O1608 O 0.48026 0.90352 0.37600
 C1609 C 0.47343 0.92011 0.38312
 C1610 C 0.45696 0.93129 0.37254
 C1611 C 0.44975 0.92467 0.35375
 H1612 H 0.45667 0.91160 0.34652
 O1613 O 0.60249 1.01650 0.42902
 O1614 O 0.62638 1.01591 0.40591
 C1615 C 0.61909 1.02306 0.42216
 C1616 C 0.62975 1.03949 0.43292
 C1617 C 0.64873 1.04602 0.42629
 H1618 H 0.65581 1.03868 0.41348
 O1619 O 0.39889 0.98201 0.42657
 O1620 O 0.37522 0.98248 0.40310
 C1621 C 0.38233 0.97545 0.41945
 C1622 C 0.37155 0.95916 0.43013
 C1623 C 0.35251 0.95257 0.42338
 H1624 H 0.34526 0.95989 0.41066
 O1625 O 0.57472 1.09760 0.48227
 O1626 O 0.59806 1.12113 0.48263
 C1627 C 0.58165 1.11408 0.47561
 C1628 C 0.57065 1.12484 0.45927
 C1629 C 0.57663 1.14416 0.45301
 H1630 H 0.58905 1.15161 0.46056
 O1631 O 0.42514 0.89962 0.47937
 O1632 O 0.40124 0.87667 0.47866
 C1633 C 0.41782 0.88351 0.47204
 C1634 C 0.42852 0.87310 0.45525
 C1635 C 0.42099 0.85511 0.44683
 H1636 H 0.40744 0.84843 0.45292
 O1637 O 0.42719 0.98147 0.39970
 O1638 O 0.40368 0.98188 0.37607
 C1639 C 0.42012 0.97468 0.38331
 C1640 C 0.43084 0.95793 0.37281
 C1641 C 0.42384 0.95107 0.35414
 H1642 H 0.41106 0.95865 0.34700
 O1643 O 0.57480 1.01687 0.40139
 O1644 O 0.59858 1.01631 0.37817
 C1645 C 0.58211 1.02363 0.38517
 C1646 C 0.57176 1.04061 0.37470
 C1647 C 0.57983 1.04825 0.35687
 H1648 H 0.59307 1.04102 0.35023
 O1649 O 0.47945 0.89958 0.42735
 O1650 O 0.47959 0.87607 0.40379
 C1651 C 0.47244 0.88335 0.42001
 C1652 C 0.45536 0.87314 0.42998
 C1653 C 0.44774 0.85516 0.42193
 H1654 H 0.45517 0.84820 0.40911
 O1655 O 0.52116 1.09803 0.42863
 O1656 O 0.52152 1.12196 0.40566
 C1657 C 0.52815 1.11450 0.42202
 C1658 C 0.54439 1.12496 0.43323
 C1659 C 0.55049 1.14426 0.42732
 H1660 H 0.54302 1.15162 0.41474
 O1661 O 0.39829 0.92863 0.47972
 O1662 O 0.37424 0.90581 0.47928
 C1663 C 0.38169 0.92212 0.47269
 C1664 C 0.37123 0.93328 0.45630
 C1665 C 0.35220 0.92703 0.44941
 H1666 H 0.34493 0.91432 0.45647
 O1667 O 0.60279 1.06974 0.48220
 O1668 O 0.62635 1.09305 0.48256
 C1669 C 0.61927 1.07672 0.47545
 C1670 C 0.62990 1.06588 0.45884
 C1671 C 0.64887 1.07230 0.45182
 H1672 H 0.65625 1.08495 0.45901
 O1673 O 0.51990 0.92628 0.40066
 O1674 O 0.51986 0.90269 0.37716
 C1675 C 0.52699 0.91889 0.38446
 C1676 C 0.54417 0.92874 0.37430
 C1677 C 0.55179 0.92068 0.35629
 H1678 H 0.54426 0.90802 0.34928
 O1679 O 0.48159 1.07174 0.39996
 O1680 O 0.48215 1.09552 0.37686
 C1681 C 0.47485 1.07926 0.38369
 C1682 C 0.45791 1.06937 0.37298
 C1683 C 0.45063 1.07717 0.35470
 H1684 H 0.45780 1.09024 0.34822
 O1685 O 0.39933 1.02143 0.42684
 O1686 O 0.37574 1.02204 0.40330
 C1687 C 0.38294 1.02875 0.41970
 C1688 C 0.37257 1.04564 0.43034
 C1689 C 0.35451 1.05423 0.42274
 H1690 H 0.34754 1.04790 0.40942
 O1691 O 0.60257 0.97706 0.42885
 O1692 O 0.62644 0.97641 0.40572
 C1693 C 0.61911 0.96979 0.42200
 C1694 C 0.62949 0.95308 0.43285
 C1695 C 0.64830 0.94526 0.42629
 H1696 H 0.65566 0.95185 0.41340
 O1697 O 0.57268 0.89793 0.48087
 O1698 O 0.59596 0.87363 0.48102
 C1699 C 0.57965 0.88130 0.47400
 C1700 C 0.56895 0.87095 0.45740
 C1701 C 0.57609 0.85218 0.45031
 H1702 H 0.58898 0.84490 0.45755
 O1703 O 0.42795 1.10057 0.48070
 O1704 O 0.40472 1.12492 0.48052
 C1705 C 0.42114 1.11723 0.47379
 C1706 C 0.43216 1.12755 0.45747
 C1707 C 0.42580 1.14677 0.45087
 H1708 H 0.41298 1.15425 0.45802
 Cu1709 Cu 0.58632 0.99695 0.41739
 Cu1710 Cu 0.61488 0.99630 0.38955
 Cu1711 Cu 0.41542 1.00143 0.41544
 Cu1712 Cu 0.38715 1.00197 0.38713
 Cu1713 Cu 0.58629 1.08119 0.50179
 Cu1714 Cu 0.61439 1.10930 0.50234
 Cu1715 Cu 0.58432 0.91348 0.50089
 Cu1716 Cu 0.61224 0.88425 0.50106
 Cu1717 Cu 0.41605 1.08484 0.50030
 Cu1718 Cu 0.38809 1.11402 0.50001
 Cu1719 Cu 0.41403 0.91611 0.49921
 Cu1720 Cu 0.38532 0.88861 0.49856
 Cu1721 Cu 0.50138 1.08260 0.41639
 Cu1722 Cu 0.50199 1.11123 0.38874
 Cu1723 Cu 0.49965 0.91513 0.41618
 Cu1724 Cu 0.49972 0.88686 0.38794
 C1725 C 0.55387 0.94531 0.38313
 H1726 H 0.54819 0.95140 0.39719
 C1727 C 0.56918 0.92857 0.34730
 C1728 C 0.44809 1.05287 0.38164
 H1729 H 0.45344 1.04703 0.39591
 C1730 C 0.43368 1.06877 0.34509
 C1731 C 0.44856 1.11786 0.44781
 H1732 H 0.45339 1.10293 0.45268
 C1733 C 0.43546 1.15624 0.43473
 C1734 C 0.55212 0.88012 0.44797
 H1735 H 0.54675 0.89477 0.45318
 C1736 C 0.56682 0.84265 0.43389
 C1737 C 0.61994 0.94406 0.44931
 H1738 H 0.60530 0.94977 0.45426
 C1739 C 0.65731 0.92845 0.43585
 C1740 C 0.38149 1.05413 0.44755
 H1741 H 0.39562 1.04787 0.45328
 C1742 C 0.34554 1.07121 0.43208
 C1743 C 0.55457 1.05013 0.38310
 H1744 H 0.54850 1.04451 0.39707
 C1745 C 0.57121 1.06534 0.34757
 C1746 C 0.44751 0.94806 0.38182
 H1747 H 0.45276 0.95309 0.39642
 C1748 C 0.43312 0.93445 0.34454
 C1749 C 0.62058 1.04937 0.44934
 H1750 H 0.60584 1.04452 0.45441
 C1751 C 0.65846 1.06234 0.43563
 C1752 C 0.38069 0.94951 0.44672
 H1753 H 0.39550 0.95425 0.45182
 C1754 C 0.34270 0.93657 0.43300
 C1755 C 0.55439 1.11545 0.44936
 H1756 H 0.54986 1.10046 0.45386
 C1757 C 0.56649 1.15402 0.43713
 C1758 C 0.44579 0.88189 0.44676
 H1759 H 0.45147 0.89592 0.45285
 C1760 C 0.43047 0.84613 0.43003
 O1761 O 0.47669 0.42931 0.89819
 O1762 O 0.47628 0.40588 0.87455
 C1763 C 0.46944 0.42235 0.88190
 C1764 C 0.45248 0.43331 0.87188
 C1765 C 0.44491 0.42693 0.85314
 H1766 H 0.45185 0.41406 0.84560
 O1767 O 0.51710 0.57298 0.89894
 O1768 O 0.51654 0.59649 0.87554
 C1769 C 0.52363 0.57997 0.88246
 C1770 C 0.54013 0.56901 0.87177
 C1771 C 0.54754 0.57595 0.85326
 H1772 H 0.54068 0.58911 0.84620
 O1773 O 0.39622 0.48206 0.92926
 O1774 O 0.37175 0.48232 0.90661
 C1775 C 0.37959 0.47519 0.92262
 C1776 C 0.36962 0.45847 0.93346
 C1777 C 0.35060 0.45131 0.92722
 H1778 H 0.34277 0.45846 0.91474
 O1779 O 0.59820 0.51954 0.92633
 O1780 O 0.62187 0.51931 0.90300
 C1781 C 0.61465 0.52633 0.91932
 C1782 C 0.62529 0.54278 0.93005
 C1783 C 0.64435 0.54919 0.92345
 H1784 H 0.65140 0.54188 0.91061
 O1785 O 0.42658 0.40026 0.98123
 O1786 O 0.40295 0.37702 0.98151
 C1787 C 0.41916 0.38408 0.97421
 C1788 C 0.42915 0.37391 0.95690
 C1789 C 0.42165 0.35570 0.94898
 H1790 H 0.40874 0.34863 0.95593
 O1791 O 0.57114 0.60147 0.98017
 O1792 O 0.59483 0.62466 0.97972
 C1793 C 0.57824 0.61768 0.97306
 C1794 C 0.56736 0.62808 0.95645
 C1795 C 0.57388 0.64688 0.94938
 H1796 H 0.58639 0.65433 0.95678
 O1797 O 0.42277 0.52171 0.90160
 O1798 O 0.39842 0.52231 0.87882
 C1799 C 0.41513 0.52894 0.88558
 C1800 C 0.42562 0.54554 0.87507
 C1801 C 0.41769 0.55371 0.85715
 H1802 H 0.40401 0.54757 0.85063
 O1803 O 0.57105 0.47996 0.89856
 O1804 O 0.59472 0.47957 0.87524
 C1805 C 0.57826 0.47285 0.88227
 C1806 C 0.56759 0.45624 0.87181
 C1807 C 0.57557 0.44745 0.85417
 H1808 H 0.58941 0.45319 0.84774
 O1809 O 0.51678 0.40138 0.92538
 O1810 O 0.51632 0.37781 0.90186
 C1811 C 0.52359 0.38486 0.91810
 C1812 C 0.54058 0.37406 0.92820
 C1813 C 0.54829 0.35595 0.92007
 H1814 H 0.54110 0.34935 0.90699
 O1815 O 0.47858 0.60096 0.92798
 O1816 O 0.47801 0.62466 0.90474
 C1817 C 0.47159 0.61760 0.92123
 C1818 C 0.45554 0.62864 0.93243
 C1819 C 0.44949 0.64812 0.92649
 H1820 H 0.45692 0.65521 0.91391
 O1821 O 0.39773 0.57513 0.98236
 O1822 O 0.37415 0.59912 0.98271
 C1823 C 0.38102 0.58243 0.97591
 C1824 C 0.36973 0.57165 0.95999
 C1825 C 0.35053 0.57866 0.95376
 H1826 H 0.34350 0.59140 0.96143
 O1827 O 0.59896 0.42632 0.97859
 O1828 O 0.62281 0.40257 0.97812
 C1829 C 0.61557 0.41925 0.97172
 C1830 C 0.62628 0.43041 0.95586
 C1831 C 0.64584 0.42443 0.94974
 H1832 H 0.65351 0.41194 0.95719
 O1833 O 0.47744 0.57331 0.90048
 O1834 O 0.47682 0.59690 0.87715
 C1835 C 0.46991 0.58067 0.88446
 C1836 C 0.45250 0.57068 0.87459
 C1837 C 0.44435 0.57857 0.85673
 H1838 H 0.45150 0.59134 0.84963
 O1839 O 0.51645 0.42902 0.89808
 O1840 O 0.51602 0.40546 0.87456
 C1841 C 0.52329 0.42163 0.88178
 C1842 C 0.54050 0.43137 0.87157
 C1843 C 0.54868 0.42283 0.85402
 H1844 H 0.54156 0.40981 0.84723
 O1845 O 0.59850 0.48010 0.92651
 O1846 O 0.62228 0.47994 0.90327
 C1847 C 0.61515 0.47321 0.91960
 C1848 C 0.62608 0.45692 0.93045
 C1849 C 0.64562 0.45078 0.92452
 H1850 H 0.65290 0.45831 0.91210
 O1851 O 0.39566 0.52159 0.92960
 O1852 O 0.37116 0.52196 0.90697
 C1853 C 0.37889 0.52871 0.92310
 C1854 C 0.36865 0.54539 0.93415
 C1855 C 0.34956 0.55278 0.92793
 H1856 H 0.34212 0.54593 0.91513
 O1857 O 0.42571 0.60238 0.98160
 O1858 O 0.40224 0.62648 0.98186
 C1859 C 0.41861 0.61897 0.97483
 C1860 C 0.42941 0.62936 0.95841
 C1861 C 0.42341 0.64885 0.95209
 H1862 H 0.41102 0.65670 0.95958
 O1863 O 0.57091 0.39928 0.97805
 O1864 O 0.59461 0.37542 0.97728
 C1865 C 0.57805 0.38294 0.97067
 C1866 C 0.56725 0.37300 0.95382
 C1867 C 0.57474 0.35484 0.94542
 H1868 H 0.58823 0.34766 0.95163
 O1869 O 0.57023 0.51934 0.89897
 O1870 O 0.59381 0.51905 0.87553
 C1871 C 0.57726 0.52606 0.88262
 C1872 C 0.56641 0.54259 0.87205
 C1873 C 0.57361 0.54970 0.85367
 H1874 H 0.58659 0.54233 0.84668
 O1875 O 0.42290 0.48237 0.90080
 O1876 O 0.39858 0.48285 0.87798
 C1877 C 0.41538 0.47582 0.88449
 C1878 C 0.42602 0.45952 0.87328
 C1879 C 0.41875 0.45306 0.85455
 H1880 H 0.40583 0.46078 0.84783
 O1881 O 0.51805 0.60053 0.92681
 O1882 O 0.51743 0.62413 0.90349
 C1883 C 0.52471 0.61695 0.91970
 C1884 C 0.54129 0.62762 0.93025
 C1885 C 0.54804 0.64642 0.92339
 H1886 H 0.54090 0.65331 0.91037
 O1887 O 0.47729 0.40190 0.92606
 O1888 O 0.47687 0.37841 0.90247
 C1889 C 0.47035 0.38551 0.91903
 C1890 C 0.45418 0.37481 0.92992
 C1891 C 0.44665 0.35657 0.92239
 H1892 H 0.45348 0.34983 0.90914
 O1893 O 0.59885 0.57341 0.97970
 O1894 O 0.62271 0.59643 0.97934
 C1895 C 0.61529 0.58011 0.97259
 C1896 C 0.62562 0.56904 0.95603
 C1897 C 0.64470 0.57520 0.94919
 H1898 H 0.65226 0.58762 0.95660
 O1899 O 0.39884 0.42837 0.98210
 O1900 O 0.37514 0.40519 0.98256
 C1901 C 0.38211 0.42156 0.97562
 C1902 C 0.37089 0.43244 0.95952
 C1903 C 0.35183 0.42568 0.95318
 H1904 H 0.34514 0.41275 0.96042
 Cu1905 Cu 0.49676 0.41783 0.91423
 Cu1906 Cu 0.49629 0.38955 0.88598
 Cu1907 Cu 0.49793 0.58453 0.91583
 Cu1908 Cu 0.49713 0.61287 0.88785
 Cu1909 Cu 0.41179 0.50188 0.91761
 Cu1910 Cu 0.38251 0.50238 0.89033
 Cu1911 Cu 0.58212 0.49972 0.91493
 Cu1912 Cu 0.61054 0.49946 0.88690
 C1913 C 0.44301 0.44972 0.88170
 H1914 H 0.44851 0.45451 0.89628
 C1915 C 0.42800 0.43674 0.84437
 C1916 C 0.54955 0.55219 0.88089
 H1917 H 0.54417 0.54694 0.89529
 C1918 C 0.56440 0.56640 0.84423
 C1919 C 0.37955 0.44899 0.94972
 H1920 H 0.39435 0.45415 0.95443
 C1921 C 0.34157 0.43498 0.93709
 C1922 C 0.61612 0.55269 0.94646
 H1923 H 0.60131 0.54800 0.95148
 C1924 C 0.65419 0.56535 0.93293
 C1925 C 0.44549 0.38324 0.94731
 H1926 H 0.45111 0.39746 0.95304
 C1927 C 0.43028 0.34698 0.93162
 C1928 C 0.55095 0.61868 0.94690
 H1929 H 0.54601 0.60406 0.95211
 C1930 C 0.56430 0.65620 0.93287
 C1931 C 0.44313 0.55406 0.88357
 H1932 H 0.44916 0.54810 0.89753
 C1933 C 0.42691 0.57033 0.84798
 C1934 C 0.54994 0.44818 0.88025
 H1935 H 0.54390 0.45460 0.89401
 C1936 C 0.56629 0.43059 0.84532
 C1937 C 0.55005 0.38240 0.94518
 H1938 H 0.54437 0.39657 0.95132
 C1939 C 0.56543 0.34634 0.92843
 C1940 C 0.44560 0.61947 0.94855
 H1941 H 0.45013 0.60435 0.95308
 C1942 C 0.43354 0.65838 0.93624
 C1943 C 0.37853 0.55484 0.95028
 H1944 H 0.39343 0.54949 0.95489
 C1945 C 0.34034 0.56941 0.93765
 C1946 C 0.61663 0.44680 0.94626
 H1947 H 0.60143 0.45131 0.95072
 C1948 C 0.65565 0.43461 0.93411
 O1949 O 0.52161 0.42682 1.10020
 O1950 O 0.52212 0.40329 1.12358
 C1951 C 0.52896 0.41956 1.11637
 C1952 C 0.54591 0.42999 1.12654
 C1953 C 0.55423 0.42254 1.14461
 H1954 H 0.54802 0.40908 1.15130
 O1955 O 0.48062 0.57506 1.10088
 O1956 O 0.48106 0.59852 1.12449
 C1957 C 0.47396 0.58223 1.11736
 C1958 C 0.45749 0.57178 1.12809
 C1959 C 0.45066 0.57893 1.14680
 H1960 H 0.45775 0.59199 1.15353
 O1961 O 0.39958 0.52224 1.07447
 O1962 O 0.37617 0.52239 1.09804
 C1963 C 0.38312 0.52930 1.08169
 C1964 C 0.37239 0.54610 1.07119
 C1965 C 0.35371 0.55370 1.07830
 H1966 H 0.34672 0.54690 1.09129
 O1967 O 0.60017 0.47966 1.07065
 O1968 O 0.62451 0.47939 1.09345
 C1969 C 0.61682 0.47248 1.07734
 C1970 C 0.62699 0.45551 1.06660
 C1971 C 0.64562 0.44762 1.07355
 H1972 H 0.65285 0.45432 1.08655
 O1973 O 0.57154 0.39849 1.01731
 O1974 O 0.59507 0.37446 1.01663
 C1975 C 0.57876 0.38186 1.02384
 C1976 C 0.56837 0.37138 1.04039
 C1977 C 0.57518 0.35229 1.04691
 H1978 H 0.58798 0.34507 1.03950
 O1979 O 0.42665 0.60264 1.02081
 O1980 O 0.40309 0.62666 1.02103
 C1981 C 0.41968 0.61928 1.02767
 C1982 C 0.43062 0.62990 1.04393
 C1983 C 0.42372 0.64888 1.05068
 H1984 H 0.41102 0.65621 1.04317
 O1985 O 0.42832 0.48279 1.10154
 O1986 O 0.40512 0.48278 1.12532
 C1987 C 0.42163 0.47590 1.11798
 C1988 C 0.43294 0.45938 1.12830
 C1989 C 0.42708 0.45280 1.14745
 H1990 H 0.41475 0.46051 1.15517
 O1991 O 0.57302 0.51955 1.09876
 O1992 O 0.59731 0.51935 1.12162
 C1993 C 0.58057 0.52640 1.11493
 C1994 C 0.57007 0.54307 1.12580
 C1995 C 0.57721 0.54950 1.14458
 H1996 H 0.58984 0.54153 1.15156
 O1997 O 0.48112 0.40017 1.07328
 O1998 O 0.48155 0.37664 1.09668
 C1999 C 0.47434 0.38382 1.08045
 C2000 C 0.45764 0.37329 1.07005
 C2001 C 0.45059 0.35480 1.07734
 H2002 H 0.45773 0.34800 1.09040
 O2003 O 0.51994 0.60223 1.07311
 O2004 O 0.52025 0.62581 1.09661
 C2005 C 0.52693 0.61860 1.08015
 C2006 C 0.54332 0.62908 1.06934
 C2007 C 0.55027 0.64788 1.07612
 H2008 H 0.54328 0.65498 1.08910
 O2009 O 0.40030 0.42864 1.02126
 O2010 O 0.37658 0.40548 1.02166
 C2011 C 0.38394 0.42184 1.02840
 C2012 C 0.37350 0.43284 1.04493
 C2013 C 0.35464 0.42628 1.05178
 H2014 H 0.34774 0.41324 1.04479
 O2015 O 0.59948 0.57332 1.01881
 O2016 O 0.62335 0.59632 1.01853
 C2017 C 0.61621 0.57999 1.02537
 C2018 C 0.62717 0.56880 1.04141
 C2019 C 0.64644 0.57492 1.04787
 H2020 H 0.65371 0.58748 1.04054
 O2021 O 0.52020 0.57432 1.10029
 O2022 O 0.52074 0.59772 1.12396
 C2023 C 0.52746 0.58118 1.11659
 C2024 C 0.54420 0.56993 1.12670
 C2025 C 0.55166 0.57624 1.14547
 H2026 H 0.54492 0.58931 1.15286
 O2027 O 0.48200 0.42858 1.10015
 O2028 O 0.48244 0.40516 1.12365
 C2029 C 0.47544 0.42172 1.11664
 C2030 C 0.45924 0.43291 1.12754
 C2031 C 0.45307 0.42649 1.14658
 H2032 H 0.46041 0.41342 1.15334
 O2033 O 0.60055 0.51920 1.07103
 O2034 O 0.62491 0.51887 1.09380
 C2035 C 0.61727 0.52587 1.07769
 C2036 C 0.62768 0.54225 1.06687
 C2037 C 0.64694 0.54860 1.07311
 H2038 H 0.65437 0.54117 1.08566
 O2039 O 0.40003 0.48270 1.07443
 O2040 O 0.37660 0.48271 1.09799
 C2041 C 0.38370 0.47577 1.08158
 C2042 C 0.37323 0.45914 1.07089
 C2043 C 0.35424 0.45236 1.07745
 H2044 H 0.34676 0.45989 1.08992
 O2045 O 0.57227 0.60199 1.01946
 O2046 O 0.59596 0.62516 1.01914
 C2047 C 0.57962 0.61830 1.02631
 C2048 C 0.56923 0.62898 1.04311
 C2049 C 0.57610 0.64776 1.05024
 H2050 H 0.58876 0.65496 1.04297
 O2051 O 0.42731 0.39981 1.02064
 O2052 O 0.40371 0.37655 1.02099
 C2053 C 0.42026 0.38351 1.02768
 C2054 C 0.43114 0.37303 1.04428
 C2055 C 0.42415 0.35458 1.05195
 H2056 H 0.41113 0.34742 1.04516
 O2057 O 0.57379 0.48005 1.09937
 O2058 O 0.59809 0.47993 1.12220
 C2059 C 0.58148 0.47311 1.11552
 C2060 C 0.57139 0.45643 1.12620
 C2061 C 0.57929 0.44900 1.14439
 H2062 H 0.59207 0.45648 1.15127
 O2063 O 0.42752 0.52226 1.10186
 O2064 O 0.40428 0.52238 1.12560
 C2065 C 0.42057 0.52926 1.11830
 C2066 C 0.43133 0.54593 1.12862
 C2067 C 0.42473 0.55330 1.14739
 H2068 H 0.41214 0.54618 1.15484
 O2069 O 0.48041 0.60277 1.07351
 O2070 O 0.48062 0.62640 1.09696
 C2071 C 0.47354 0.61932 1.08065
 C2072 C 0.45681 0.63003 1.07000
 C2073 C 0.44957 0.64901 1.07666
 H2074 H 0.45651 0.65618 1.08957
 O2075 O 0.52049 0.39976 1.07194
 O2076 O 0.52095 0.37608 1.09519
 C2077 C 0.52734 0.38305 1.07864
 C2078 C 0.54322 0.37195 1.06724
 C2079 C 0.55000 0.35271 1.07337
 H2080 H 0.54276 0.34548 1.08597
 O2081 O 0.59885 0.42611 1.01759
 O2082 O 0.62253 0.40220 1.01717
 C2083 C 0.61541 0.41871 1.02427
 C2084 C 0.62621 0.42915 1.04077
 C2085 C 0.64483 0.42151 1.04793
 H2086 H 0.65174 0.40839 1.04079
 O2087 O 0.39895 0.57533 1.02149
 O2088 O 0.37532 0.59928 1.02184
 C2089 C 0.38263 0.58276 1.02864
 C2090 C 0.37231 0.57231 1.04532
 C2091 C 0.35370 0.57969 1.05268
 H2092 H 0.34644 0.59262 1.04557
 Cu2093 Cu 0.50130 0.41621 1.08409
 Cu2094 Cu 0.50179 0.38796 1.11216
 Cu2095 Cu 0.50026 0.58625 1.08460
 Cu2096 Cu 0.50072 0.61446 1.11288
 Cu2097 Cu 0.41570 0.41650 1.00127
 Cu2098 Cu 0.38725 0.38872 1.00174
 Cu2099 Cu 0.58265 0.41489 0.99790
 Cu2100 Cu 0.61110 0.38621 0.99723
 Cu2101 Cu 0.41464 0.58648 1.00147
 Cu2102 Cu 0.38634 0.61530 1.00187
 Cu2103 Cu 0.58302 0.58530 0.99961
 Cu2104 Cu 0.61158 0.61299 0.99915
 Cu2105 Cu 0.41617 0.50249 1.08573
 Cu2106 Cu 0.38819 0.50254 1.11409
 Cu2107 Cu 0.58445 0.49965 1.08267
 Cu2108 Cu 0.61365 0.49941 1.11004
 C2109 C 0.55455 0.44699 1.11757
 H2110 H 0.54852 0.45255 1.10345
 C2111 C 0.57099 0.43193 1.15368
 C2112 C 0.44784 0.55517 1.11922
 H2113 H 0.45287 0.54977 1.10466
 C2114 C 0.43435 0.56980 1.15663
 C2115 C 0.38145 0.55541 1.05457
 H2116 H 0.39597 0.54983 1.04916
 C2117 C 0.34431 0.57055 1.06916
 C2118 C 0.61750 0.44627 1.05009
 H2119 H 0.60299 0.45207 1.04484
 C2120 C 0.65459 0.43058 1.06436
 C2121 C 0.55230 0.38101 1.05056
 H2122 H 0.54727 0.39593 1.04586
 C2123 C 0.56607 0.34277 1.06336
 C2124 C 0.44730 0.62070 1.05352
 H2125 H 0.45252 0.60592 1.04851
 C2126 C 0.43295 0.65850 1.06709
 C2127 C 0.44921 0.44947 1.11859
 H2128 H 0.45368 0.45428 1.10373
 C2129 C 0.43709 0.43636 1.15673
 C2130 C 0.55343 0.55323 1.11707
 H2131 H 0.54801 0.54846 1.10245
 C2132 C 0.56820 0.56610 1.15451
 C2133 C 0.44799 0.38214 1.05336
 H2134 H 0.45324 0.39652 1.04781
 C2135 C 0.43388 0.34534 1.06844
 C2136 C 0.55274 0.61989 1.05270
 H2137 H 0.54756 0.60530 1.04753
 C2138 C 0.56660 0.65737 1.06667
 C2139 C 0.38262 0.44939 1.05447
 H2140 H 0.39733 0.45435 1.04943
 C2141 C 0.34479 0.43595 1.06791
 C2142 C 0.61801 0.55232 1.05089
 H2143 H 0.60304 0.54768 1.04618
 C2144 C 0.65646 0.56488 1.06370
 C2145 C 1.15248 1.12092 1.24345
 C2146 C 1.13146 1.11768 1.24107
 C2147 C 1.11826 1.12635 1.25560
 C2148 C 1.12592 1.13779 1.27166
 C2149 C 1.14691 1.14049 1.27416
 C2150 C 1.15996 1.13198 1.25963
 C2151 C 1.09744 1.12333 1.25428
 C2152 C 1.08931 1.11172 1.23894
 C2153 C 1.10175 1.10272 1.22406
 C2154 C 1.12314 1.10608 1.22491
 C2155 C 1.13546 1.09789 1.20949
 C2156 C 1.12724 1.08699 1.19369
 C2157 C 1.10650 1.08348 1.19272
 C2158 C 1.09346 1.09089 1.20807
 C2159 C 1.07260 1.08625 1.20660
 C2160 C 1.06499 1.07588 1.19001
 C2161 C 1.07784 1.06957 1.17444
 C2162 C 1.09867 1.07297 1.17615
 H2163 H 1.16370 1.11499 1.23322
 H2164 H 1.11540 1.14353 1.28284
 H2165 H 1.17617 1.13428 1.26027
 H2166 H 1.08724 1.12996 1.26531
 H2167 H 1.07307 1.11039 1.23903
 H2168 H 1.15161 1.09993 1.20887
 H2169 H 1.13727 1.08132 1.18202
 H2170 H 1.06168 1.09047 1.21791
 H2171 H 1.04887 1.07301 1.18920
 H2172 H 1.10872 1.06819 1.16412
 C2173 C 1.08133 0.60884 0.78202
 C2174 C 1.09386 0.60359 0.76548
 C2175 C 1.11516 0.60442 0.76839
 C2176 C 1.12333 0.61043 0.78693
 C2177 C 1.11069 0.61582 0.80299
 C2178 C 1.08965 0.61488 0.80037
 C2179 C 1.12829 0.59941 0.75276
 C2180 C 1.12088 0.59359 0.73415
 C2181 C 1.09983 0.59257 0.73031
 C2182 C 1.08608 0.59764 0.74624
 C2183 C 1.06504 0.59663 0.74237
 C2184 C 1.05763 0.59077 0.72373
 C2185 C 1.07079 0.58569 0.70811
 C2186 C 1.09208 0.58656 0.71110
 C2187 C 1.10471 0.58129 0.69466
 C2188 C 1.09652 0.57509 0.67636
 C2189 C 1.07552 0.57397 0.67364
 C2190 C 1.06272 0.57953 0.68953
 H2191 H 1.06502 0.60854 0.78135
 H2192 H 1.13964 0.61139 0.78870
 H2193 H 1.07955 0.61877 0.81263
 H2194 H 1.14458 0.60001 0.75492
 H2195 H 1.13220 0.58999 0.72306
 H2196 H 1.05373 0.60026 0.75349
 H2197 H 1.04135 0.59016 0.72153
 H2198 H 1.12101 0.58168 0.69533
 H2199 H 1.10674 0.57120 0.66419
 H2200 H 1.04642 0.57860 0.68757
 C2201 C 0.63934 1.11997 0.75317
 C2202 C 0.61908 1.11359 0.75071
 C2203 C 0.60532 1.11764 0.76663
 C2204 C 0.61196 1.12683 0.78449
 C2205 C 0.63229 1.13212 0.78692
 C2206 C 0.64576 1.12897 0.77099
 C2207 C 0.58507 1.11221 0.76480
 C2208 C 0.57803 1.10282 0.74751
 C2209 C 0.59112 1.09818 0.73131
 C2210 C 0.61206 1.10337 0.73308
 C2211 C 0.62536 1.09788 0.71732
 C2212 C 0.61845 1.08815 0.70020
 C2213 C 0.59804 1.08356 0.69796
 C2214 C 0.58401 1.08846 0.71342
 C2215 C 0.56339 1.08363 0.71012
 C2216 C 0.55710 1.07474 0.69216
 C2217 C 0.57105 1.07019 0.67696
 C2218 C 0.59155 1.07436 0.68008
 H2219 H 0.65069 1.11830 0.74167
 H2220 H 0.60145 1.12926 0.79679
 H2221 H 0.66146 1.13340 0.77237
 H2222 H 0.57448 1.11525 0.77691
 H2223 H 0.56219 1.09912 0.74749
 H2224 H 0.64139 1.10065 0.71778
 H2225 H 0.62924 1.08432 0.68849
 H2226 H 0.55162 1.08684 0.72088
 H2227 H 0.54116 1.07156 0.69006
 H2228 H 0.60238 1.07113 0.66822
 C2229 C 0.58197 0.61111 1.28121
 C2230 C 0.59435 0.60282 1.26586
 C2231 C 0.61545 0.60118 1.26971
 C2232 C 0.62358 0.60739 1.28821
 C2233 C 0.61120 0.61597 1.30329
 C2234 C 0.59023 0.61758 1.29941
 C2235 C 0.62850 0.59366 1.25497
 C2236 C 0.62121 0.58812 1.23623
 C2237 C 0.60036 0.58967 1.23147
 C2238 C 0.58661 0.59646 1.24675
 C2239 C 0.56561 0.59652 1.24246
 C2240 C 0.55829 0.59051 1.22383
 C2241 C 0.57153 0.58459 1.20856
 C2242 C 0.59277 0.58434 1.21203
 C2243 C 0.60555 0.57898 1.19575
 C2244 C 0.59750 0.57340 1.17720
 C2245 C 0.57649 0.57295 1.17409
 C2246 C 0.56359 0.57881 1.18982
 H2247 H 0.56581 0.61313 1.27960
 H2248 H 0.63988 0.60659 1.29020
 H2249 H 0.57984 0.62334 1.31067
 H2250 H 0.64465 0.59220 1.25788
 H2251 H 0.63238 0.58230 1.22587
 H2252 H 0.55428 0.60079 1.25334
 H2253 H 0.54204 0.59066 1.22131
 H2254 H 0.62184 0.57923 1.19667
 H2255 H 0.60784 0.56955 1.16512
 H2256 H 0.54730 0.57853 1.18759
 C2257 C 0.86744 0.89801 1.26446
 C2258 C 0.88768 0.89644 1.25765
 C2259 C 0.90214 0.88728 1.27065
 C2260 C 0.89624 0.87931 1.28925
 C2261 C 0.87597 0.88070 1.29579
 C2262 C 0.86179 0.89037 1.28306
 C2263 C 0.92249 0.88618 1.26512
 C2264 C 0.92893 0.89409 1.24698
 C2265 C 0.91511 0.90315 1.23336
 C2266 C 0.89405 0.90378 1.23851
 C2267 C 0.88003 0.91131 1.22420
 C2268 C 0.88631 0.91822 1.20562
 C2269 C 0.90680 0.91833 1.20064
 C2270 C 0.92157 0.91116 1.21452
 C2271 C 0.94222 0.91241 1.20893
 C2272 C 0.94776 0.91968 1.19012
 C2273 C 0.93303 0.92598 1.17618
 C2274 C 0.91256 0.92543 1.18168
 H2275 H 0.85553 0.90523 1.25588
 H2276 H 0.90781 0.87282 1.29895
 H2277 H 0.84588 0.89138 1.28693
 H2278 H 0.93365 0.87917 1.27497
 H2279 H 0.94488 0.89238 1.24387
 H2280 H 0.86390 0.91158 1.22664
 H2281 H 0.87494 0.92361 1.19504
 H2282 H 0.95451 0.90817 1.21881
 H2283 H 0.96374 0.92048 1.18651
 H2284 H 0.90099 0.93016 1.17101
 C2285 C 0.85896 0.39638 0.76082
 C2286 C 0.87955 0.39681 0.75501
 C2287 C 0.89401 0.38786 0.76816
 C2288 C 0.88788 0.37834 0.78593
 C2289 C 0.86730 0.37778 0.79150
 C2290 C 0.85305 0.38714 0.77861
 C2291 C 0.91460 0.38846 0.76357
 C2292 C 0.92126 0.39774 0.74619
 C2293 C 0.90750 0.40662 0.73240
 C2294 C 0.88626 0.40582 0.73669
 C2295 C 0.87243 0.41366 0.72235
 C2296 C 0.87903 0.42190 0.70442
 C2297 C 0.89964 0.42303 0.70013
 C2298 C 0.91423 0.41582 0.71419
 C2299 C 0.93496 0.41804 0.70932
 C2300 C 0.94080 0.42607 0.69092
 C2301 C 0.92630 0.43226 0.67672
 C2302 C 0.90572 0.43106 0.68162
 H2303 H 0.84693 0.40309 0.75202
 H2304 H 0.89945 0.37213 0.79582
 H2305 H 0.83695 0.38667 0.78166
 H2306 H 0.92576 0.38166 0.77356
 H2307 H 0.93740 0.39724 0.74380
 H2308 H 0.85624 0.41325 0.72424
 H2309 H 0.86781 0.42741 0.69375
 H2310 H 0.94711 0.41382 0.71938
 H2311 H 0.95684 0.42737 0.68775
 H2312 H 0.89434 0.43578 0.67075
 C2313 C 0.36255 0.88764 0.75862
 C2314 C 0.38317 0.89050 0.75368
 C2315 C 0.39802 0.88434 0.76799
 C2316 C 0.39226 0.87589 0.78643
 C2317 C 0.37176 0.87377 0.79116
 C2318 C 0.35704 0.87950 0.77703
 C2319 C 0.41854 0.88689 0.76397
 C2320 C 0.42478 0.89569 0.74618
 C2321 C 0.41066 0.90230 0.73151
 C2322 C 0.38952 0.89941 0.73520
 C2323 C 0.37542 0.90551 0.72029
 C2324 C 0.38166 0.91409 0.70243
 C2325 C 0.40213 0.91713 0.69864
 C2326 C 0.41697 0.91150 0.71315
 C2327 C 0.43753 0.91530 0.70855
 C2328 C 0.44300 0.92353 0.69013
 C2329 C 0.42828 0.92844 0.67569
 C2330 C 0.40783 0.92553 0.68019
 H2331 H 0.35019 0.89175 0.74879
 H2332 H 0.40371 0.87156 0.79739
 H2333 H 0.34107 0.87775 0.78032
 H2334 H 0.42995 0.88214 0.77479
 H2335 H 0.44092 0.89696 0.74438
 H2336 H 0.35931 0.90373 0.72181
 H2337 H 0.37026 0.91836 0.69139
 H2338 H 0.44982 0.91205 0.71877
 H2339 H 0.45891 0.92599 0.68710
 H2340 H 0.39635 0.92918 0.66903
 C2341 C 0.36255 0.39488 1.26084
 C2342 C 0.38291 0.39348 1.25438
 C2343 C 0.39698 0.38323 1.26702
 C2344 C 0.39057 0.37406 1.28488
 C2345 C 0.37023 0.37550 1.29117
 C2346 C 0.35643 0.38617 1.27881
 C2347 C 0.41745 0.38233 1.26188
 C2348 C 0.42440 0.39164 1.24461
 C2349 C 0.41097 0.40186 1.23141
 C2350 C 0.38978 0.40211 1.23598
 C2351 C 0.37614 0.41056 1.22182
 C2352 C 0.38292 0.41877 1.20396
 C2353 C 0.40356 0.41937 1.19965
 C2354 C 0.41795 0.41135 1.21348
 C2355 C 0.43875 0.41329 1.20877
 C2356 C 0.44483 0.42186 1.19069
 C2357 C 0.43050 0.42880 1.17663
 C2358 C 0.40986 0.42776 1.18140
 H2359 H 0.35094 0.40289 1.25255
 H2360 H 0.40182 0.36669 1.29436
 H2361 H 0.34048 0.38725 1.28249
 H2362 H 0.42831 0.37447 1.27143
 H2363 H 0.44040 0.39002 1.24173
 H2364 H 0.35994 0.41053 1.22377
 H2365 H 0.37185 0.42480 1.19341
 H2366 H 0.45073 0.40860 1.21883
 H2367 H 0.46090 0.42306 1.18770
 H2368 H 0.39859 0.43301 1.17066
 C2369 C 0.89956 1.13172 0.73044
 C2370 C 0.88929 1.12177 0.74609
 C2371 C 0.86795 1.12012 0.74433
 C2372 C 0.85758 1.12781 0.72745
 C2373 C 0.86788 1.13804 0.71210
 C2374 C 0.88908 1.13972 0.71396
 C2375 C 0.85692 1.11107 0.75960
 C2376 C 0.86648 1.10398 0.77684
 C2377 C 0.88768 1.10536 0.77944
 C2378 C 0.89938 1.11373 0.76350
 C2379 C 0.92073 1.11354 0.76543
 C2380 C 0.93033 1.10572 0.78239
 C2381 C 0.91912 1.09819 0.79836
 C2382 C 0.89762 1.09826 0.79730
 C2383 C 0.88695 1.09139 0.81430
 C2384 C 0.89720 1.08390 0.83110
 C2385 C 0.91845 1.08290 0.83170
 C2386 C 0.92932 1.09045 0.81536
 H2387 H 0.91571 1.13393 0.73057
 H2388 H 0.84120 1.12681 0.72703
 H2389 H 0.89797 1.14672 0.70233
 H2390 H 0.84061 1.10961 0.75831
 H2391 H 0.85677 1.09703 0.78771
 H2392 H 0.93060 1.11893 0.75384
 H2393 H 0.94676 1.10569 0.78305
 H2394 H 0.87065 1.09187 0.81530
 H2395 H 0.88837 1.07890 0.84379
 H2396 H 0.94576 1.08990 0.81567
 C2397 C 0.85832 0.61176 0.24063
 C2398 C 0.87911 0.60784 0.24473
 C2399 C 0.89332 0.61295 0.22969
 C2400 C 0.88684 0.62165 0.21149
 C2401 C 0.86622 0.62548 0.20778
 C2402 C 0.85208 0.62040 0.22250
 C2403 C 0.91396 0.60945 0.23284
 C2404 C 0.92100 0.60116 0.25071
 C2405 C 0.90759 0.59596 0.26631
 C2406 C 0.88627 0.59922 0.26321
 C2407 C 0.87284 0.59383 0.27873
 C2408 C 0.87990 0.58586 0.29672
 C2409 C 0.90057 0.58287 0.30010
 C2410 C 0.91478 0.58775 0.28497
 C2411 C 0.93561 0.58434 0.28931
 C2412 C 0.94190 0.57676 0.30789
 C2413 C 0.92778 0.57222 0.32280
 C2414 C 0.90710 0.57518 0.31870
 H2415 H 0.84641 0.60851 0.25109
 H2416 H 0.89789 0.62530 0.20009
 H2417 H 0.83606 0.62346 0.22014
 H2418 H 0.92488 0.61326 0.22136
 H2419 H 0.93718 0.59907 0.25178
 H2420 H 0.85664 0.59560 0.27753
 H2421 H 0.86898 0.58208 0.30821
 H2422 H 0.94751 0.58744 0.27879
 H2423 H 0.95797 0.57436 0.31058
 H2424 H 0.89604 0.57196 0.33023
 C2425 C 0.35265 1.11912 0.24805
 C2426 C 0.37350 1.11895 0.25301
 C2427 C 0.38687 1.12857 0.23957
 C2428 C 0.37942 1.13841 0.22225
 C2429 C 0.35862 1.13828 0.21733
 C2430 C 0.34546 1.12847 0.23065
 C2431 C 0.40770 1.12811 0.24329
 C2432 C 0.41566 1.11800 0.25987
 C2433 C 0.40300 1.10823 0.27377
 C2434 C 0.38152 1.10934 0.27066
 C2435 C 0.36877 1.10107 0.28544
 C2436 C 0.37665 1.09174 0.30245
 C2437 C 0.39752 1.08984 0.30533
 C2438 C 0.41105 1.09774 0.29091
 C2439 C 0.43209 1.09464 0.29424
 C2440 C 0.43925 1.08489 0.31149
 C2441 C 0.42583 1.07786 0.32609
 C2442 C 0.40492 1.08022 0.32273
 H2443 H 0.34141 1.11188 0.25712
 H2444 H 0.39015 1.14518 0.21210
 H2445 H 0.32924 1.12852 0.22815
 H2446 H 0.41805 1.13548 0.23314
 H2447 H 0.43188 1.11854 0.26161
 H2448 H 0.35247 1.10198 0.28459
 H2449 H 0.36622 1.08584 0.31347
 H2450 H 0.44344 1.09931 0.28370
 H2451 H 0.45547 1.08280 0.31337
 H2452 H 0.39433 1.07498 0.33392
 C2453 C 0.37692 0.59175 0.72391
 C2454 C 0.38303 0.60329 0.74081
 C2455 C 0.38214 0.62466 0.73908
 C2456 C 0.37544 0.63387 0.72123
 C2457 C 0.36942 0.62221 0.70473
 C2458 C 0.37022 0.60110 0.70627
 C2459 C 0.38786 0.63684 0.75516
 C2460 C 0.39456 0.62838 0.77305
 C2461 C 0.39585 0.60721 0.77567
 C2462 C 0.38999 0.59443 0.75928
 C2463 C 0.39135 0.57326 0.76189
 C2464 C 0.39836 0.56482 0.77972
 C2465 C 0.40425 0.57702 0.79575
 C2466 C 0.40296 0.59839 0.79406
 C2467 C 0.40899 0.61002 0.81090
 C2468 C 0.41641 0.60082 0.82829
 C2469 C 0.41805 0.57975 0.82968
 C2470 C 0.41166 0.56791 0.81344
 H2471 H 0.37709 0.57548 0.72375
 H2472 H 0.37459 0.65023 0.72030
 H2473 H 0.36582 0.59173 0.69365
 H2474 H 0.38719 0.65318 0.75391
 H2475 H 0.39872 0.63903 0.78455
 H2476 H 0.38720 0.56264 0.75036
 H2477 H 0.39926 0.54848 0.78093
 H2478 H 0.40828 0.62629 0.81124
 H2479 H 0.42086 0.61031 0.84080
 H2480 H 0.41293 0.55157 0.81437
 C2481 C 1.12382 0.85802 0.74683
 C2482 C 1.11828 0.87860 0.74963
 C2483 C 1.12275 0.89224 0.73389
 C2484 C 1.13155 0.88524 0.71589
 C2485 C 1.13604 0.86466 0.71312
 C2486 C 1.13244 0.85125 0.72890
 C2487 C 1.11812 0.91276 0.73604
 C2488 C 1.10905 0.92016 0.75343
 C2489 C 1.10396 0.90722 0.76943
 C2490 C 1.10845 0.88606 0.76739
 C2491 C 1.10265 0.87299 0.78303
 C2492 C 1.09311 0.88026 0.80018
 C2493 C 1.08902 0.90084 0.80261
 C2494 C 1.09440 0.91469 0.78736
 C2495 C 1.09009 0.93547 0.79085
 C2496 C 1.08107 0.94205 0.80871
 C2497 C 1.07587 0.92824 0.82366
 C2498 C 1.07973 0.90763 0.82040
 H2499 H 1.12174 0.84666 0.75815
 H2500 H 1.13431 0.89573 0.70375
 H2501 H 1.13624 0.83533 0.72731
 H2502 H 1.12150 0.92327 0.72409
 H2503 H 1.10596 0.93618 0.75368
 H2504 H 1.10501 0.85686 0.78245
 H2505 H 1.08896 0.86961 0.81175
 H2506 H 1.09372 0.94713 0.78027
 H2507 H 1.07815 0.95807 0.81086
 H2508 H 1.07603 0.89687 0.83205
 C2509 C 1.11517 0.40035 0.22471
 C2510 C 1.10911 0.38897 0.24160
 C2511 C 1.11146 0.36763 0.24050
 C2512 C 1.12012 0.35833 0.22347
 C2513 C 1.12676 0.36996 0.20731
 C2514 C 1.12388 0.39096 0.20798
 C2515 C 1.10553 0.35564 0.25653
 C2516 C 1.09758 0.36429 0.27388
 C2517 C 1.09532 0.38547 0.27600
 C2518 C 1.10106 0.39803 0.25953
 C2519 C 1.09886 0.41921 0.26167
 C2520 C 1.09147 0.42790 0.27922
 C2521 C 1.08591 0.41594 0.29541
 C2522 C 1.08764 0.39455 0.29408
 C2523 C 1.08167 0.38320 0.31102
 C2524 C 1.07432 0.39272 0.32832
 C2525 C 1.07267 0.41382 0.32947
 C2526 C 1.07858 0.42534 0.31297
 H2527 H 1.11361 0.41654 0.22391
 H2528 H 1.12237 0.34205 0.22310
 H2529 H 1.12853 0.40024 0.19549
 H2530 H 1.10718 0.33932 0.25574
 H2531 H 1.09349 0.35381 0.28546
 H2532 H 1.10287 0.42968 0.25006
 H2533 H 1.09015 0.44424 0.28014
 H2534 H 1.08247 0.36695 0.31152
 H2535 H 1.07010 0.38347 0.34099
 H2536 H 1.07717 0.44169 0.31368
 C2537 C 0.62163 0.90464 0.22493
 C2538 C 0.61252 0.89358 0.24052
 C2539 C 0.61130 0.87233 0.23805
 C2540 C 0.61899 0.86273 0.22070
 C2541 C 0.62887 0.87381 0.20569
 C2542 C 0.62965 0.89496 0.20803
 C2543 C 0.60284 0.86061 0.25314
 C2544 C 0.59610 0.86938 0.27094
 C2545 C 0.59735 0.89042 0.27434
 C2546 C 0.60499 0.90282 0.25859
 C2547 C 0.60483 0.92402 0.26144
 C2548 C 0.59786 0.93280 0.27914
 C2549 C 0.59109 0.92090 0.29491
 C2550 C 0.59096 0.89953 0.29288
 C2551 C 0.58465 0.88815 0.30965
 C2552 C 0.57805 0.89765 0.32723
 C2553 C 0.57746 0.91879 0.32887
 C2554 C 0.58431 0.93032 0.31271
 H2555 H 0.62323 0.92081 0.22540
 H2556 H 0.61845 0.84640 0.21973
 H2557 H 0.63612 0.90440 0.19653
 H2558 H 0.60166 0.84437 0.25131
 H2559 H 0.58971 0.85916 0.28167
 H2560 H 0.60973 0.93442 0.25010
 H2561 H 0.59792 0.94914 0.28054
 H2562 H 0.58487 0.87187 0.30984
 H2563 H 0.57343 0.88833 0.33971
 H2564 H 0.58398 0.94669 0.31383
 C2565 C 0.61909 0.40244 0.72381
 C2566 C 0.61319 0.39186 0.74126
 C2567 C 0.61526 0.37047 0.74098
 C2568 C 0.62331 0.36036 0.72413
 C2569 C 0.62950 0.37114 0.70721
 C2570 C 0.62713 0.39222 0.70718
 C2571 C 0.60952 0.35920 0.75759
 C2572 C 0.60176 0.36860 0.77463
 C2573 C 0.59949 0.38985 0.77586
 C2574 C 0.60538 0.40170 0.75893
 C2575 C 0.60343 0.42297 0.76030
 C2576 C 0.59587 0.43237 0.77746
 C2577 C 0.58987 0.42107 0.79397
 C2578 C 0.59157 0.39965 0.79347
 C2579 C 0.58515 0.38896 0.81066
 C2580 C 0.57724 0.39909 0.82734
 C2581 C 0.57544 0.42021 0.82765
 C2582 C 0.58201 0.43114 0.81098
 H2583 H 0.61776 0.41861 0.72243
 H2584 H 0.62525 0.34405 0.72440
 H2585 H 0.63148 0.40090 0.69416
 H2586 H 0.61106 0.34285 0.75745
 H2587 H 0.59778 0.35862 0.78667
 H2588 H 0.60772 0.43293 0.74836
 H2589 H 0.59466 0.44874 0.77775
 H2590 H 0.58588 0.37274 0.81178
 H2591 H 0.57256 0.39031 0.84018
 H2592 H 0.58057 0.44750 0.81107
 C2593 C 1.24840 1.14689 1.12083
 C2594 C 1.24626 1.12585 1.11743
 C2595 C 1.26229 1.11288 1.12391
 C2596 C 1.27956 1.12077 1.13333
 C2597 C 1.28139 1.14161 1.13646
 C2598 C 1.26566 1.15454 1.13014
 C2599 C 1.26110 1.09207 1.12091
 C2600 C 1.24433 1.08369 1.11160
 C2601 C 1.22790 1.09585 1.10486
 C2602 C 1.22886 1.11729 1.10786
 C2603 C 1.21238 1.12945 1.10124
 C2604 C 1.19555 1.12107 1.09210
 C2605 C 1.19436 1.10028 1.08908
 C2606 C 1.21048 1.08730 1.09531
 C2607 C 1.20837 1.06628 1.09175
 C2608 C 1.19094 1.05864 1.08270
 C2609 C 1.17505 1.07158 1.07678
 C2610 C 1.17694 1.09241 1.07995
 H2611 H 1.23708 1.15794 1.11651
 H2612 H 1.29179 1.11066 1.13797
 H2613 H 1.26660 1.17070 1.13261
 H2614 H 1.27331 1.08209 1.12583
 H2615 H 1.24476 1.06750 1.10999
 H2616 H 1.21190 1.14564 1.10293
 H2617 H 1.18326 1.13105 1.08735
 H2618 H 1.21982 1.05525 1.09577
 H2619 H 1.18993 1.04249 1.08021
 H2620 H 1.16459 1.10254 1.07570
 C2621 C 1.25941 0.63803 0.60823
 C2622 C 1.25534 0.61718 0.60575
 C2623 C 1.27053 0.60314 0.61202
 C2624 C 1.28882 0.60984 0.62044
 C2625 C 1.29246 0.63052 0.62293
 C2626 C 1.27762 0.64449 0.61667
 C2627 C 1.26741 0.58244 0.60998
 C2628 C 1.24941 0.57520 0.60210
 C2629 C 1.23365 0.58845 0.59583
 C2630 C 1.23675 0.60981 0.59747
 C2631 C 1.22114 0.62306 0.59086
 C2632 C 1.20304 0.61582 0.58321
 C2633 C 1.19965 0.59513 0.58180
 C2634 C 1.21485 0.58108 0.58802
 C2635 C 1.21043 0.56022 0.58630
 C2636 C 1.19176 0.55378 0.57888
 C2637 C 1.17684 0.56778 0.57286
 C2638 C 1.18096 0.58845 0.57431
 H2639 H 1.24882 0.64983 0.60405
 H2640 H 1.30032 0.59889 0.62500
 H2641 H 1.27991 0.66056 0.61867
 H2642 H 1.27901 0.57165 0.61467
 H2643 H 1.24838 0.55901 0.60115
 H2644 H 1.22235 0.63926 0.59136
 H2645 H 1.19149 0.62662 0.57841
 H2646 H 1.22095 0.54842 0.59062
 H2647 H 1.18904 0.53770 0.57772
 H2648 H 1.16940 0.59943 0.56997
 C2649 C 0.74715 1.14687 0.62592
 C2650 C 0.74406 1.12583 0.62429
 C2651 C 0.75905 1.11278 0.63270
 C2652 C 0.77644 1.12065 0.64208
 C2653 C 0.77982 1.14163 0.64270
 C2654 C 0.76460 1.15450 0.63481
 C2655 C 0.75689 1.09188 0.63130
 C2656 C 0.74045 1.08356 0.62132
 C2657 C 0.72527 1.09587 0.61236
 C2658 C 0.72682 1.11736 0.61435
 C2659 C 0.71114 1.12967 0.60626
 C2660 C 0.69469 1.12139 0.59633
 C2661 C 0.69320 1.10056 0.59380
 C2662 C 0.70848 1.08744 0.60162
 C2663 C 0.70630 1.06641 0.59821
 C2664 C 0.68944 1.05889 0.58803
 C2665 C 0.67421 1.07195 0.58079
 C2666 C 0.67632 1.09281 0.58358
 H2667 H 0.73657 1.15801 0.62023
 H2668 H 0.78793 1.11020 0.64764
 H2669 H 0.76579 1.17078 0.63586
 H2670 H 0.76820 1.08178 0.63781
 H2671 H 0.74005 1.06729 0.62102
 H2672 H 0.71092 1.14590 0.60746
 H2673 H 0.68301 1.13149 0.59046
 H2674 H 0.71735 1.05533 0.60308
 H2675 H 0.68834 1.04271 0.58578
 H2676 H 0.66453 1.10305 0.57822
 C2677 C 0.75871 0.64127 1.10867
 C2678 C 0.75453 0.62046 1.10601
 C2679 C 0.76953 0.60627 1.11241
 C2680 C 0.78764 0.61277 1.12134
 C2681 C 0.79136 0.63340 1.12404
 C2682 C 0.77679 0.64753 1.11752
 C2683 C 0.76639 0.58562 1.10998
 C2684 C 0.74861 0.57857 1.10147
 C2685 C 0.73303 0.59197 1.09505
 C2686 C 0.73603 0.61327 1.09736
 C2687 C 0.72036 0.62666 1.09115
 C2688 C 0.70233 0.61959 1.08320
 C2689 C 0.69911 0.59894 1.08095
 C2690 C 0.71443 0.58477 1.08663
 C2691 C 0.71033 0.56398 1.08377
 C2692 C 0.69173 0.55767 1.07610
 C2693 C 0.67655 0.57175 1.07093
 C2694 C 0.68047 0.59240 1.07322
 H2695 H 0.74838 0.65317 1.10418
 H2696 H 0.79898 0.60173 1.12608
 H2697 H 0.77922 0.66357 1.11960
 H2698 H 0.77783 0.57472 1.11480
 H2699 H 0.74752 0.56239 1.10032
 H2700 H 0.72140 0.64284 1.09239
 H2701 H 0.69069 0.63048 1.07883
 H2702 H 0.72109 0.55211 1.08729
 H2703 H 0.68923 0.54163 1.07415
 H2704 H 0.66876 0.60344 1.06945
 C2705 C 1.27981 0.91256 0.88180
 C2706 C 1.26459 0.90099 0.89104
 C2707 C 1.26795 0.87984 0.89247
 C2708 C 1.28588 0.87088 0.88526
 C2709 C 1.30078 0.88241 0.87573
 C2710 C 1.29742 0.90342 0.87421
 C2711 C 1.25322 0.86753 0.90075
 C2712 C 1.23482 0.87561 0.90705
 C2713 C 1.23052 0.89652 0.90562
 C2714 C 1.24600 0.90956 0.89843
 C2715 C 1.24242 0.93067 0.89908
 C2716 C 1.22419 0.93874 0.90608
 C2717 C 1.20859 0.92616 0.91214
 C2718 C 1.21136 0.90485 0.91156
 C2719 C 1.19468 0.89272 0.91665
 C2720 C 1.17648 0.90141 0.92306
 C2721 C 1.17417 0.92243 0.92467
 C2722 C 1.19021 0.93476 0.91885
 H2723 H 1.27840 0.92866 0.87973
 H2724 H 1.28741 0.85456 0.88593
 H2725 H 1.30863 0.91312 0.86758
 H2726 H 1.25581 0.85136 0.90212
 H2727 H 1.22443 0.86504 0.91348
 H2728 H 1.25365 0.94146 0.89474
 H2729 H 1.22221 0.95504 0.90655
 H2730 H 1.19499 0.87648 0.91543
 H2731 H 1.16404 0.89155 0.92668
 H2732 H 1.18851 0.95107 0.91988
 C2733 C 1.27881 0.40566 0.38357
 C2734 C 1.26374 0.39394 0.39281
 C2735 C 1.26712 0.37274 0.39377
 C2736 C 1.28482 0.36384 0.38570
 C2737 C 1.29930 0.37557 0.37575
 C2738 C 1.29607 0.39666 0.37521
 C2739 C 1.25257 0.36040 0.40235
 C2740 C 1.23438 0.36848 0.40939
 C2741 C 1.23004 0.38943 0.40835
 C2742 C 1.24529 0.40246 0.40066
 C2743 C 1.24156 0.42356 0.40104
 C2744 C 1.22338 0.43164 0.40809
 C2745 C 1.20802 0.41911 0.41476
 C2746 C 1.21102 0.39781 0.41488
 C2747 C 1.19464 0.38581 0.42121
 C2748 C 1.17643 0.39464 0.42758
 C2749 C 1.17377 0.41569 0.42790
 C2750 C 1.18964 0.42783 0.42133
 H2751 H 1.27763 0.42184 0.38212
 H2752 H 1.28645 0.34752 0.38604
 H2753 H 1.30715 0.40657 0.36866
 H2754 H 1.25512 0.34419 0.40335
 H2755 H 1.22409 0.35781 0.41581
 H2756 H 1.25252 0.43440 0.39621
 H2757 H 1.22125 0.44793 0.40810
 H2758 H 1.19522 0.36953 0.42111
 H2759 H 1.16422 0.38486 0.43207
 H2760 H 1.18777 0.44415 0.42156
 C2761 C 0.78476 0.91127 0.39085
 C2762 C 0.76829 0.89910 0.39668
 C2763 C 0.77081 0.87781 0.39493
 C2764 C 0.78886 0.86931 0.38730
 C2765 C 0.80467 0.88165 0.38101
 C2766 C 0.80254 0.90264 0.38312
 C2767 C 0.75517 0.86506 0.40045
 C2768 C 0.73682 0.87287 0.40729
 C2769 C 0.73327 0.89394 0.40890
 C2770 C 0.74938 0.90727 0.40383
 C2771 C 0.74599 0.92832 0.40592
 C2772 C 0.72750 0.93614 0.41247
 C2773 C 0.71157 0.92341 0.41713
 C2774 C 0.71414 0.90212 0.41542
 C2775 C 0.69733 0.88996 0.42019
 C2776 C 0.67904 0.89858 0.42662
 C2777 C 0.67672 0.91958 0.42849
 C2778 C 0.69303 0.93192 0.42357
 H2779 H 0.78439 0.92752 0.39176
 H2780 H 0.79032 0.85304 0.38555
 H2781 H 0.81467 0.91249 0.37860
 H2782 H 0.75707 0.84878 0.39929
 H2783 H 0.72568 0.86184 0.41120
 H2784 H 0.75735 0.93933 0.40264
 H2785 H 0.72565 0.95241 0.41381
 H2786 H 0.69765 0.87372 0.41903
 H2787 H 0.66653 0.88872 0.42997
 H2788 H 0.69139 0.94819 0.42510
 C2789 C 0.76030 0.35970 0.88842
 C2790 C 0.75558 0.38041 0.89180
 C2791 C 0.77016 0.39479 0.88592
 C2792 C 0.78844 0.38857 0.87691
 C2793 C 0.79271 0.36804 0.87358
 C2794 C 0.77853 0.35371 0.87949
 C2795 C 0.76645 0.41535 0.88898
 C2796 C 0.74846 0.42214 0.89756
 C2797 C 0.73327 0.40855 0.90345
 C2798 C 0.73693 0.38732 0.90060
 C2799 C 0.72174 0.37373 0.90647
 C2800 C 0.70349 0.38055 0.91447
 C2801 C 0.69958 0.40113 0.91709
 C2802 C 0.71443 0.41548 0.91184
 C2803 C 0.70962 0.43620 0.91505
 C2804 C 0.69076 0.44226 0.92256
 C2805 C 0.67606 0.42799 0.92725
 C2806 C 0.68069 0.40742 0.92471
 H2807 H 0.75028 0.34766 0.89238
 H2808 H 0.79948 0.39974 0.87260
 H2809 H 0.78141 0.33775 0.87688
 H2810 H 0.77758 0.42639 0.88459
 H2811 H 0.74692 0.43828 0.89921
 H2812 H 0.72333 0.35758 0.90495
 H2813 H 0.69222 0.36952 0.91855
 H2814 H 0.71996 0.44819 0.91183
 H2815 H 0.68765 0.45825 0.92472
 H2816 H 0.66933 0.39627 0.92813
 C2817 C 0.74663 0.88546 1.14172
 C2818 C 0.75072 0.88786 1.12100
 C2819 C 0.73588 0.88112 1.10712
 C2820 C 0.71791 0.87223 1.11387
 C2821 C 0.71413 0.87017 1.13443
 C2822 C 0.72866 0.87681 1.14822
 C2823 C 0.73892 0.88339 1.08657
 C2824 C 0.75631 0.89238 1.07934
 C2825 C 0.77159 0.89939 1.09245
 C2826 C 0.76890 0.89679 1.11362
 C2827 C 0.78453 0.90305 1.12669
 C2828 C 0.80213 0.91158 1.11945
 C2829 C 0.80487 0.91446 1.09894
 C2830 C 0.78961 0.90864 1.08510
 C2831 C 0.79312 0.91235 1.06446
 C2832 C 0.81122 0.92079 1.05796
 C2833 C 0.82642 0.92596 1.07169
 C2834 C 0.82301 0.92296 1.09220
 H2835 H 0.75682 0.89027 1.15339
 H2836 H 0.70661 0.86732 1.10311
 H2837 H 0.72614 0.87522 1.16421
 H2838 H 0.72766 0.87822 1.07589
 H2839 H 0.75739 0.89337 1.06325
 H2840 H 0.78384 0.90134 1.14274
 H2841 H 0.81376 0.91599 1.13008
 H2842 H 0.78224 0.90898 1.05289
 H2843 H 0.81333 0.92332 1.04204
 H2844 H 0.83475 0.92676 1.10296
 C2845 C 0.74473 0.35807 0.61552
 C2846 C 0.74835 0.37906 0.61465
 C2847 C 0.73340 0.39226 0.62286
 C2848 C 0.71579 0.38459 0.63171
 C2849 C 0.71226 0.36364 0.63238
 C2850 C 0.72713 0.35061 0.62413
 C2851 C 0.73596 0.41313 0.62206
 C2852 C 0.75297 0.42131 0.61318
 C2853 C 0.76835 0.40886 0.60477
 C2854 C 0.76616 0.38737 0.60581
 C2855 C 0.78188 0.37489 0.59808
 C2856 C 0.79903 0.38302 0.58948
 C2857 C 0.80124 0.40386 0.58802
 C2858 C 0.78596 0.41716 0.59551
 C2859 C 0.78901 0.43822 0.59333
 C2860 C 0.80657 0.44557 0.58444
 C2861 C 0.82166 0.43228 0.57733
 C2862 C 0.81882 0.41143 0.57916
 H2863 H 0.75513 0.34684 0.60966
 H2864 H 0.70443 0.39522 0.63717
 H2865 H 0.72577 0.33435 0.62493
 H2866 H 0.72459 0.42333 0.62834
 H2867 H 0.75365 0.43756 0.61333
 H2868 H 0.78159 0.35864 0.59859
 H2869 H 0.81071 0.37280 0.58383
 H2870 H 0.77812 0.44948 0.59819
 H2871 H 0.80827 0.46176 0.58296
 H2872 H 0.83055 0.40101 0.57398
 C2873 C 0.22462 0.87517 0.59476
 C2874 C 0.24026 0.88504 0.60536
 C2875 C 0.23838 0.88652 0.62651
 C2876 C 0.22140 0.87873 0.63640
 C2877 C 0.20605 0.86863 0.62577
 C2878 C 0.20801 0.86712 0.60475
 C2879 C 0.25361 0.89553 0.63784
 C2880 C 0.27095 0.90274 0.62875
 C2881 C 0.27371 0.90148 0.60776
 C2882 C 0.25779 0.89315 0.59578
 C2883 C 0.25988 0.89341 0.57466
 C2884 C 0.27699 0.90122 0.56556
 C2885 C 0.29295 0.90869 0.57703
 C2886 C 0.29171 0.90863 0.59831
 C2887 C 0.30871 0.91552 0.60925
 C2888 C 0.32570 0.92291 0.59947
 C2889 C 0.32651 0.92377 0.57846
 C2890 C 0.31014 0.91633 0.56732
 H2891 H 0.22483 0.87311 0.57871
 H2892 H 0.22094 0.87957 0.65264
 H2893 H 0.19637 0.86022 0.59564
 H2894 H 0.25221 0.89687 0.65402
 H2895 H 0.28178 0.90963 0.63868
 H2896 H 0.24830 0.88804 0.56462
 H2897 H 0.27779 0.90127 0.54929
 H2898 H 0.30957 0.91511 0.62539
 H2899 H 0.33842 0.92785 0.60848
 H2900 H 0.31061 0.91681 0.55105
 C2901 C 0.24330 0.39026 1.14423
 C2902 C 0.24921 0.38977 1.12385
 C2903 C 0.23637 0.37968 1.11008
 C2904 C 0.21883 0.36991 1.11673
 C2905 C 0.21303 0.37056 1.13706
 C2906 C 0.22561 0.38097 1.15061
 C2907 C 0.24093 0.37957 1.08965
 C2908 C 0.25780 0.38952 1.08246
 C2909 C 0.27117 0.39967 1.09555
 C2910 C 0.26722 0.39913 1.11666
 C2911 C 0.28162 0.40760 1.12988
 C2912 C 0.29915 0.41645 1.12277
 C2913 C 0.30285 0.41773 1.10223
 C2914 C 0.28870 0.40982 1.08828
 C2915 C 0.29270 0.41249 1.06760
 C2916 C 0.31051 0.42153 1.06117
 C2917 C 0.32500 0.42824 1.07501
 C2918 C 0.32084 0.42664 1.09557
 H2919 H 0.25180 0.39800 1.15567
 H2920 H 0.20916 0.36275 1.10570
 H2921 H 0.22232 0.38144 1.16652
 H2922 H 0.23123 0.37184 1.07903
 H2923 H 0.26027 0.38846 1.06651
 H2924 H 0.28013 0.40710 1.14597
 H2925 H 0.30992 0.42242 1.13353
 H2926 H 0.28228 0.40800 1.05597
 H2927 H 0.31298 0.42320 1.04519
 H2928 H 0.33189 0.43179 1.10647
 C2929 C 0.74374 1.11421 0.85970
 C2930 C 0.74812 1.11327 0.88047
 C2931 C 0.73322 1.12085 0.89392
 C2932 C 0.71492 1.12926 0.88670
 C2933 C 0.71065 1.12997 0.86598
 C2934 C 0.72546 1.12232 0.85269
 C2935 C 0.73649 1.11984 0.91458
 C2936 C 0.75417 1.11124 0.92230
 C2937 C 0.76952 1.10345 0.90957
 C2938 C 0.76664 1.10492 0.88830
 C2939 C 0.78244 1.09813 0.87555
 C2940 C 0.80027 1.08992 0.88321
 C2941 C 0.80308 1.08790 0.90383
 C2942 C 0.78777 1.09446 0.91738
 C2943 C 0.79142 1.09163 0.93818
 C2944 C 0.80963 1.08310 0.94506
 C2945 C 0.82476 1.07703 0.93154
 C2946 C 0.82132 1.07942 0.91094
 H2947 H 0.75399 1.10869 0.84833
 H2948 H 0.70364 1.13429 0.89748
 H2949 H 0.72346 1.12321 0.83658
 H2950 H 0.72518 1.12566 0.92497
 H2951 H 0.75541 1.11119 0.93842
 H2952 H 0.78171 1.09919 0.85944
 H2953 H 0.81199 1.08501 0.87282
 H2954 H 0.78052 1.09565 0.94957
 H2955 H 0.81183 1.08112 0.96107
 H2956 H 0.83306 1.07500 0.90036
 C2957 C 0.71518 0.58527 0.38689
 C2958 C 0.73147 0.59781 0.39264
 C2959 C 0.72829 0.61904 0.39147
 C2960 C 0.70965 0.62715 0.38480
 C2961 C 0.69379 0.61449 0.37905
 C2962 C 0.69675 0.59352 0.38021
 C2963 C 0.74374 0.63216 0.39683
 C2964 C 0.76244 0.62478 0.40330
 C2965 C 0.76653 0.60380 0.40471
 C2966 C 0.75075 0.59008 0.39940
 C2967 C 0.75477 0.56910 0.40105
 C2968 C 0.77345 0.56173 0.40760
 C2969 C 0.78898 0.57486 0.41274
 C2970 C 0.78585 0.59608 0.41133
 C2971 C 0.80226 0.60865 0.41661
 C2972 C 0.82071 0.60046 0.42324
 C2973 C 0.82360 0.57951 0.42482
 C2974 C 0.80767 0.56679 0.41940
 H2975 H 0.71610 0.56902 0.38727
 H2976 H 0.70762 0.64341 0.38370
 H2977 H 0.68466 0.58339 0.37605
 H2978 H 0.74137 0.64840 0.39600
 H2979 H 0.77337 0.63608 0.40716
 H2980 H 0.74373 0.55782 0.39744
 H2981 H 0.77576 0.54550 0.40866
 H2982 H 0.80148 0.62489 0.41579
 H2983 H 0.83289 0.61064 0.42697
 H2984 H 0.80970 0.55055 0.42071
 C2985 C 0.25833 1.13136 0.34700
 C2986 C 0.26078 1.12922 0.36798
 C2987 C 0.24554 1.13779 0.38050
 C2988 C 0.22853 1.14777 0.37218
 C2989 C 0.22571 1.14875 0.35125
 C2990 C 0.24118 1.14079 0.33890
 C2991 C 0.24701 1.13585 0.40129
 C2992 C 0.26290 1.12499 0.40999
 C2993 C 0.27820 1.11572 0.39819
 C2994 C 0.27752 1.11849 0.37688
 C2995 C 0.29353 1.11035 0.36518
 C2996 C 0.30943 1.09954 0.37386
 C2997 C 0.30995 1.09610 0.39447
 C2998 C 0.29430 1.10395 0.40698
 C2999 C 0.29541 1.09950 0.42775
 C3000 C 0.31172 1.08846 0.43571
 C3001 C 0.32739 1.08134 0.42332
 C3002 C 0.32626 1.08500 0.40266
 H3003 H 0.26912 1.12553 0.33627
 H3004 H 0.21680 1.15337 0.38220
 H3005 H 0.24032 1.14208 0.32271
 H3006 H 0.23554 1.14253 0.41099
 H3007 H 0.26281 1.12431 0.42614
 H3008 H 0.29446 1.11225 0.34917
 H3009 H 0.32142 1.09368 0.36426
 H3010 H 0.28390 1.10418 0.43829
 H3011 H 0.31210 1.08550 0.45170
 H3012 H 0.33843 1.07970 0.39297
 C3013 C 0.21529 0.58302 0.88479
 C3014 C 0.22979 0.59526 0.89451
 C3015 C 0.22525 0.61618 0.89632
 C3016 C 0.20674 0.62419 0.88933
 C3017 C 0.19225 0.61190 0.87988
 C3018 C 0.19702 0.59121 0.87756
 C3019 C 0.23927 0.62917 0.90498
 C3020 C 0.25794 0.62197 0.91166
 C3021 C 0.26328 0.60127 0.91024
 C3022 C 0.24869 0.58757 0.90221
 C3023 C 0.25337 0.56666 0.90245
 C3024 C 0.27178 0.55940 0.90987
 C3025 C 0.28648 0.57262 0.91691
 C3026 C 0.28261 0.59377 0.91693
 C3027 C 0.29841 0.60654 0.92339
 C3028 C 0.31694 0.59859 0.93000
 C3029 C 0.32048 0.57766 0.93054
 C3030 C 0.30512 0.56476 0.92390
 H3031 H 0.21765 0.56707 0.88227
 H3032 H 0.20422 0.64038 0.89044
 H3033 H 0.18634 0.58091 0.87081
 H3034 H 0.23584 0.64519 0.90651
 H3035 H 0.26769 0.63306 0.91834
 H3036 H 0.24288 0.55538 0.89740
 H3037 H 0.27461 0.54320 0.90989
 H3038 H 0.29719 0.62280 0.92307
 H3039 H 0.32872 0.60898 0.93438
 H3040 H 0.30760 0.54853 0.92427
 C3041 C 1.14544 1.25490 1.11600
 C3042 C 1.12459 1.25120 1.11261
 C3043 C 1.11052 1.26660 1.11829
 C3044 C 1.11720 1.28483 1.12681
 C3045 C 1.13790 1.28820 1.13003
 C3046 C 1.15189 1.27304 1.12453
 C3047 C 1.08980 1.26378 1.11550
 C3048 C 1.08257 1.24589 1.10741
 C3049 C 1.09584 1.22997 1.10161
 C3050 C 1.11723 1.23278 1.10399
 C3051 C 1.13053 1.21710 1.09763
 C3052 C 1.12329 1.19920 1.08955
 C3053 C 1.10254 1.19606 1.08751
 C3054 C 1.08845 1.21133 1.09349
 C3055 C 1.06754 1.20714 1.09124
 C3056 C 1.06107 1.18866 1.08351
 C3057 C 1.07508 1.17367 1.07766
 C3058 C 1.09583 1.17756 1.07961
 H3059 H 1.15724 1.24405 1.11246
 H3060 H 1.10623 1.29653 1.13079
 H3061 H 1.16795 1.27505 1.12716
 H3062 H 1.07898 1.27553 1.11973
 H3063 H 1.06635 1.24512 1.10582
 H3064 H 1.14677 1.21814 1.09858
 H3065 H 1.13413 1.18762 1.08494
 H3066 H 1.05571 1.21770 1.09544
 H3067 H 1.04494 1.18613 1.08198
 H3068 H 1.10681 1.16596 1.07539
 C3069 C 1.11960 0.75221 0.64029
 C3070 C 1.11466 0.74929 0.61978
 C3071 C 1.11905 0.76515 0.60626
 C3072 C 1.12744 0.78329 0.61324
 C3073 C 1.13181 0.78602 0.63366
 C3074 C 1.12798 0.77024 0.64702
 C3075 C 1.11500 0.76290 0.58583
 C3076 C 1.10682 0.74516 0.57836
 C3077 C 1.10208 0.72891 0.59115
 C3078 C 1.10568 0.73118 0.61226
 C3079 C 1.09994 0.71539 0.62519
 C3080 C 1.09140 0.69783 0.61782
 C3081 C 1.08834 0.69513 0.59729
 C3082 C 1.09369 0.71052 0.58358
 C3083 C 1.09057 0.70668 0.56284
 C3084 C 1.08243 0.68845 0.55620
 C3085 C 1.07704 0.67348 0.56990
 C3086 C 1.08001 0.67697 0.59043
 H3087 H 1.11747 0.74083 0.65157
 H3088 H 1.13030 0.79544 0.60277
 H3089 H 1.13171 0.77175 0.66281
 H3090 H 1.11827 0.77500 0.57543
 H3091 H 1.10414 0.74483 0.56241
 H3092 H 1.10156 0.71617 0.64126
 H3093 H 1.08722 0.68615 0.62835
 H3094 H 1.09445 0.71728 0.55129
 H3095 H 1.08022 0.68610 0.54024
 H3096 H 1.07622 0.66527 0.60111
 C3097 C 0.64334 1.24900 0.62418
 C3098 C 0.62276 1.24634 0.61873
 C3099 C 0.60891 1.26235 0.62318
 C3100 C 0.61565 1.28039 0.63207
 C3101 C 0.63620 1.28297 0.63660
 C3102 C 0.64985 1.26700 0.63286
 C3103 C 0.58842 1.26044 0.61848
 C3104 C 0.58126 1.24304 0.60935
 C3105 C 0.59439 1.22673 0.60433
 C3106 C 0.61553 1.22846 0.60899
 C3107 C 0.62875 1.21237 0.60353
 C3108 C 0.62166 1.19509 0.59414
 C3109 C 0.60112 1.19301 0.58978
 C3110 C 0.58713 1.20875 0.59477
 C3111 C 0.56642 1.20567 0.59008
 C3112 C 0.56001 1.18770 0.58122
 C3113 C 0.57391 1.17219 0.57656
 C3114 C 0.59450 1.17507 0.58066
 H3115 H 0.65488 1.23755 0.62194
 H3116 H 0.60498 1.29271 0.63487
 H3117 H 0.66576 1.26847 0.63662
 H3118 H 0.57775 1.27261 0.62187
 H3119 H 0.56523 1.24299 0.60626
 H3120 H 0.64485 1.21263 0.60618
 H3121 H 0.63242 1.18315 0.59030
 H3122 H 0.55468 1.21669 0.59324
 H3123 H 0.54402 1.18587 0.57803
 H3124 H 0.60533 1.16303 0.57732
 C3125 C 0.64446 0.75522 1.11848
 C3126 C 0.62369 0.75219 1.11405
 C3127 C 0.60978 0.76787 1.11942
 C3128 C 0.61660 0.78584 1.12841
 C3129 C 0.63727 0.78871 1.13224
 C3130 C 0.65103 0.77314 1.12735
 C3131 C 0.58913 0.76563 1.11568
 C3132 C 0.58182 0.74816 1.10677
 C3133 C 0.59495 0.73209 1.10103
 C3134 C 0.61627 0.73422 1.10457
 C3135 C 0.62945 0.71837 1.09838
 C3136 C 0.62216 0.70094 1.08939
 C3137 C 0.60146 0.69845 1.08618
 C3138 C 0.58750 0.71395 1.09190
 C3139 C 0.56663 0.71048 1.08837
 C3140 C 0.56005 0.69236 1.07990
 C3141 C 0.57391 0.67706 1.07451
 C3142 C 0.59465 0.68034 1.07748
 H3143 H 0.65610 0.74407 1.11538
 H3144 H 0.60581 0.79783 1.13202
 H3145 H 0.66705 0.77477 1.13051
 H3146 H 0.57843 0.77756 1.11972
 H3147 H 0.56567 0.74785 1.10448
 H3148 H 0.64566 0.71893 1.10016
 H3149 H 0.63291 0.68919 1.08498
 H3150 H 0.55489 0.72130 1.09215
 H3151 H 0.54394 0.69029 1.07757
 H3152 H 0.60549 0.66849 1.07356
 C3153 C 0.90997 1.27729 0.87665
 C3154 C 0.89852 1.26060 0.88332
 C3155 C 0.87716 1.26180 0.88093
 C3156 C 0.86787 1.27902 0.87260
 C3157 C 0.87935 1.29559 0.86665
 C3158 C 0.90048 1.29445 0.86848
 C3159 C 0.86505 1.24592 0.88706
 C3160 C 0.87352 1.22887 0.89594
 C3161 C 0.89465 1.22694 0.89908
 C3162 C 0.90741 1.24293 0.89239
 C3163 C 0.92858 1.24072 0.89509
 C3164 C 0.93702 1.22365 0.90409
 C3165 C 0.92480 1.20810 0.91091
 C3166 C 0.90343 1.20951 0.90862
 C3167 C 0.89177 1.19337 0.91610
 C3168 C 0.90098 1.17657 0.92508
 C3169 C 0.92209 1.17519 0.92706
 C3170 C 0.93390 1.19109 0.91999
 H3171 H 0.92624 1.27777 0.87778
 H3172 H 0.85151 1.27959 0.87083
 H3173 H 0.90969 1.30710 0.86405
 H3174 H 0.84872 1.24674 0.88511
 H3175 H 0.86294 1.21741 0.90013
 H3176 H 0.93918 1.25195 0.89034
 H3177 H 0.95337 1.22265 0.90578
 H3178 H 0.87548 1.19312 0.91529
 H3179 H 0.89150 1.16439 0.93017
 H3180 H 0.95026 1.19027 0.92168
 C3181 C 0.91520 0.78077 0.38078
 C3182 C 0.90321 0.76441 0.38722
 C3183 C 0.88183 0.76711 0.38665
 C3184 C 0.87305 0.78540 0.38007
 C3185 C 0.88515 0.80137 0.37375
 C3186 C 0.90627 0.79886 0.37414
 C3187 C 0.86921 0.75154 0.39257
 C3188 C 0.87723 0.73319 0.39904
 C3189 C 0.89838 0.72959 0.39994
 C3190 C 0.91162 0.74552 0.39412
 C3191 C 0.93277 0.74208 0.39553
 C3192 C 0.94077 0.72383 0.40244
 C3193 C 0.92812 0.70815 0.40808
 C3194 C 0.90674 0.71068 0.40672
 C3195 C 0.89464 0.69410 0.41228
 C3196 C 0.90338 0.67621 0.41945
 C3197 C 0.92445 0.67402 0.42130
 C3198 C 0.93677 0.68997 0.41527
 H3199 H 0.93152 0.78014 0.38054
 H3200 H 0.85668 0.78707 0.37950
 H3201 H 0.91597 0.81103 0.36943
 H3202 H 0.85286 0.75355 0.39220
 H3203 H 0.86627 0.72217 0.40344
 H3204 H 0.94371 0.75330 0.39160
 H3205 H 0.95711 0.72199 0.40341
 H3206 H 0.87835 0.69433 0.41128
 H3207 H 0.89353 0.66392 0.42352
 H3208 H 0.95310 0.68842 0.41665
 C3209 C 0.38958 1.25897 0.35822
 C3210 C 0.39317 1.25503 0.37885
 C3211 C 0.38779 1.27046 0.39280
 C3212 C 0.37932 1.28892 0.38621
 C3213 C 0.37593 1.29253 0.36574
 C3214 C 0.38114 1.27736 0.35187
 C3215 C 0.39087 1.26744 0.41328
 C3216 C 0.39901 1.24936 0.42041
 C3217 C 0.40453 1.23341 0.40725
 C3218 C 0.40174 1.23637 0.38610
 C3219 C 0.40761 1.22056 0.37292
 C3220 C 0.41560 1.20242 0.38005
 C3221 C 0.41809 1.19917 0.40058
 C3222 C 0.41267 1.21457 0.41453
 C3223 C 0.41550 1.21032 0.43521
 C3224 C 0.42308 1.19159 0.44160
 C3225 C 0.42821 1.17641 0.42773
 C3226 C 0.42582 1.18041 0.40720
 H3227 H 0.39293 1.24817 0.34653
 H3228 H 0.37554 1.30063 0.39707
 H3229 H 0.37839 1.27960 0.33598
 H3230 H 0.38685 1.27920 0.42400
 H3231 H 0.40079 1.24844 0.43645
 H3232 H 0.40628 1.22166 0.35685
 H3233 H 0.41979 1.19073 0.36932
 H3234 H 0.41189 1.22102 0.44693
 H3235 H 0.42500 1.18898 0.45755
 H3236 H 0.42951 1.16868 0.39633
 C3237 C 0.36140 0.76226 0.88520
 C3238 C 0.38201 0.75714 0.88885
 C3239 C 0.39684 0.77125 0.88287
 C3240 C 0.39109 0.78966 0.87382
 C3241 C 0.37060 0.79459 0.87088
 C3242 C 0.35589 0.78066 0.87646
 C3243 C 0.41734 0.76707 0.88618
 C3244 C 0.42358 0.74930 0.89551
 C3245 C 0.40949 0.73480 0.90193
 C3246 C 0.38836 0.73867 0.89832
 C3247 C 0.37431 0.72394 0.90428
 C3248 C 0.38057 0.70603 0.91331
 C3249 C 0.40103 0.70204 0.91696
 C3250 C 0.41582 0.71641 0.91158
 C3251 C 0.43636 0.71165 0.91602
 C3252 C 0.44189 0.69313 0.92455
 C3253 C 0.42726 0.67876 0.92914
 C3254 C 0.40679 0.68349 0.92569
 H3255 H 0.34906 0.75259 0.88912
 H3256 H 0.40253 0.80046 0.86964
 H3257 H 0.33994 0.78408 0.87410
 H3258 H 0.42875 0.77774 0.88158
 H3259 H 0.43971 0.74737 0.89733
 H3260 H 0.35821 0.72563 0.90204
 H3261 H 0.36920 0.69512 0.91742
 H3262 H 0.44861 0.72178 0.91303
 H3263 H 0.45780 0.68995 0.92743
 H3264 H 0.39537 0.67240 0.92912
 C3265 C 1.10682 0.71401 0.91359
 C3266 C 1.10172 0.73083 0.90133
 C3267 C 1.10295 0.72816 0.88022
 C3268 C 1.10908 0.70952 0.87194
 C3269 C 1.11430 0.69317 0.88431
 C3270 C 1.11303 0.69558 0.90516
 C3271 C 1.09824 0.74412 0.86737
 C3272 C 1.09249 0.76289 0.87492
 C3273 C 1.09117 0.76653 0.89580
 C3274 C 1.09563 0.75017 0.90924
 C3275 C 1.09383 0.75371 0.93010
 C3276 C 1.08795 0.77249 0.93763
 C3277 C 1.08372 0.78859 0.92477
 C3278 C 1.08538 0.78595 0.90368
 C3279 C 1.08118 0.80294 0.89137
 C3280 C 1.07514 0.82143 0.89967
 C3281 C 1.07313 0.82379 0.92047
 C3282 C 1.07768 0.80734 0.93296
 H3283 H 1.10637 0.71454 0.92974
 H3284 H 1.11032 0.70788 0.85577
 H3285 H 1.11684 0.68309 0.91503
 H3286 H 1.09908 0.74211 0.85122
 H3287 H 1.08907 0.77424 0.86383
 H3288 H 1.09675 0.74220 0.94117
 H3289 H 1.08670 0.77442 0.95376
 H3290 H 1.08244 0.80259 0.87526
 H3291 H 1.07212 0.83405 0.88971
 H3292 H 1.07609 0.80903 0.94909
 C3293 C 1.11775 0.25032 0.34931
 C3294 C 1.11508 0.25242 0.37033
 C3295 C 1.12341 0.23702 0.38279
 C3296 C 1.13399 0.22043 0.37442
 C3297 C 1.13647 0.21868 0.35360
 C3298 C 1.12824 0.23376 0.34120
 C3299 C 1.12119 0.23823 0.40356
 C3300 C 1.11102 0.25447 0.41241
 C3301 C 1.10259 0.27033 0.40078
 C3302 C 1.10458 0.26925 0.37937
 C3303 C 1.09614 0.28509 0.36772
 C3304 C 1.08638 0.30155 0.37656
 C3305 C 1.08451 0.30296 0.39734
 C3306 C 1.09240 0.28735 0.40982
 C3307 C 1.08989 0.28964 0.43085
 C3308 C 1.08044 0.30684 0.43898
 C3309 C 1.07305 0.32231 0.42654
 C3310 C 1.07497 0.32013 0.40570
 H3311 H 1.11205 0.26118 0.33863
 H3312 H 1.14012 0.20870 0.38414
 H3313 H 1.13017 0.23292 0.32506
 H3314 H 1.12748 0.22648 0.41316
 H3315 H 1.11015 0.25412 0.42854
 H3316 H 1.09686 0.28539 0.35158
 H3317 H 1.08031 0.31341 0.36697
 H3318 H 1.09513 0.27854 0.44153
 H3319 H 1.07891 0.30803 0.45514
 H3320 H 1.06955 0.33214 0.39593
 C3321 C 0.58211 0.71365 0.39310
 C3322 C 0.59448 0.73050 0.39733
 C3323 C 0.61575 0.72788 0.39504
 C3324 C 0.62402 0.70936 0.38838
 C3325 C 0.61148 0.69310 0.38371
 C3326 C 0.59052 0.69536 0.38635
 C3327 C 0.62871 0.74381 0.39911
 C3328 C 0.62114 0.76249 0.40524
 C3329 C 0.60010 0.76610 0.40749
 C3330 C 0.58653 0.74982 0.40356
 C3331 C 0.56549 0.75345 0.40584
 C3332 C 0.55791 0.77223 0.41176
 C3333 C 0.57089 0.78821 0.41567
 C3334 C 0.59217 0.78546 0.41357
 C3335 C 0.60460 0.80228 0.41768
 C3336 C 0.59625 0.82072 0.42394
 C3337 C 0.57528 0.82321 0.42627
 C3338 C 0.56265 0.80695 0.42186
 H3339 H 0.56587 0.71405 0.39466
 H3340 H 0.64026 0.70782 0.38617
 H3341 H 0.58052 0.68291 0.38311
 H3342 H 0.64498 0.74185 0.39746
 H3343 H 0.63234 0.77383 0.40803
 H3344 H 0.55431 0.74206 0.40311
 H3345 H 0.54164 0.77424 0.41333
 H3346 H 0.62085 0.80180 0.41630
 H3347 H 0.60631 0.83319 0.42695
 H3348 H 0.54638 0.80875 0.42373
 C3349 C 0.61573 0.22159 0.90420
 C3350 C 0.60963 0.23895 0.89317
 C3351 C 0.61142 0.23805 0.87195
 C3352 C 0.61925 0.22066 0.86243
 C3353 C 0.62560 0.20385 0.87363
 C3354 C 0.62361 0.20443 0.89455
 C3355 C 0.60564 0.25457 0.86026
 C3356 C 0.59828 0.27220 0.86907
 C3357 C 0.59641 0.27411 0.89013
 C3358 C 0.60203 0.25715 0.90239
 C3359 C 0.59996 0.25902 0.92343
 C3360 C 0.59270 0.27674 0.93224
 C3361 C 0.58725 0.29339 0.92055
 C3362 C 0.58906 0.29240 0.89933
 C3363 C 0.58344 0.30984 0.88822
 C3364 C 0.57603 0.32720 0.89777
 C3365 C 0.57400 0.32795 0.91868
 C3366 C 0.57985 0.31105 0.93001
 H3367 H 0.61480 0.22074 0.92031
 H3368 H 0.62097 0.22045 0.84624
 H3369 H 0.62820 0.19152 0.90353
 H3370 H 0.60690 0.25391 0.84403
 H3371 H 0.59417 0.28410 0.85879
 H3372 H 0.60381 0.24700 0.93367
 H3373 H 0.59135 0.27741 0.94846
 H3374 H 0.58455 0.31071 0.87213
 H3375 H 0.57197 0.34023 0.88871
 H3376 H 0.57825 0.31150 0.94621
 C3377 C 0.90767 0.72314 1.12147
 C3378 C 0.89645 0.74019 1.11446
 C3379 C 0.87501 0.73945 1.11569
 C3380 C 0.86542 0.72236 1.12342
 C3381 C 0.87674 0.70559 1.13006
 C3382 C 0.89792 0.70621 1.12912
 C3383 C 0.86312 0.75573 1.10918
 C3384 C 0.87195 0.77284 1.10129
 C3385 C 0.89321 0.77442 1.09954
 C3386 C 0.90569 0.75784 1.10627
 C3387 C 0.92695 0.75944 1.10450
 C3388 C 0.93575 0.77651 1.09639
 C3389 C 0.92383 0.79273 1.08972
 C3390 C 0.90240 0.79200 1.09122
 C3391 C 0.89107 0.80896 1.08425
 C3392 C 0.90064 0.82568 1.07608
 C3393 C 0.92179 0.82623 1.07452
 C3394 C 0.93331 0.80971 1.08148
 H3395 H 0.92398 0.72229 1.12120
 H3396 H 0.84901 0.72219 1.12442
 H3397 H 0.90703 0.69338 1.13404
 H3398 H 0.84672 0.75523 1.11013
 H3399 H 0.86151 0.78457 1.09662
 H3400 H 0.93736 0.74769 1.10920
 H3401 H 0.95214 0.77699 1.09531
 H3402 H 0.87479 0.80994 1.08487
 H3403 H 0.89139 0.83842 1.07119
 H3404 H 0.94969 0.80994 1.08023
 C3405 C 0.85049 0.25415 0.62421
 C3406 C 0.87089 0.25605 0.61796
 C3407 C 0.88450 0.23981 0.62230
 C3408 C 0.87769 0.22234 0.63198
 C3409 C 0.85735 0.22058 0.63757
 C3410 C 0.84392 0.23671 0.63376
 C3411 C 0.90481 0.24097 0.61683
 C3412 C 0.91211 0.25796 0.60724
 C3413 C 0.89926 0.27457 0.60253
 C3414 C 0.87824 0.27347 0.60769
 C3415 C 0.86523 0.28973 0.60229
 C3416 C 0.87250 0.30670 0.59266
 C3417 C 0.89300 0.30828 0.58806
 C3418 C 0.90673 0.29227 0.59283
 C3419 C 0.92743 0.29485 0.58793
 C3420 C 0.93409 0.31265 0.57911
 C3421 C 0.92046 0.32844 0.57471
 C3422 C 0.89987 0.32603 0.57896
 H3423 H 0.83917 0.26584 0.62208
 H3424 H 0.88817 0.20987 0.63478
 H3425 H 0.82819 0.23588 0.63830
 H3426 H 0.91526 0.22858 0.62006
 H3427 H 0.92799 0.25745 0.60359
 H3428 H 0.84918 0.28985 0.60516
 H3429 H 0.86193 0.31884 0.58893
 H3430 H 0.93899 0.28361 0.59097
 H3431 H 0.95008 0.31413 0.57579
 H3432 H 0.88926 0.33831 0.57581
 C3433 C 0.40721 0.72259 0.62011
 C3434 C 0.39567 0.73961 0.61357
 C3435 C 0.37425 0.73846 0.61489
 C3436 C 0.36501 0.72104 0.62234
 C3437 C 0.37666 0.70433 0.62862
 C3438 C 0.39782 0.70533 0.62749
 C3439 C 0.36206 0.75468 0.60877
 C3440 C 0.37054 0.77211 0.60119
 C3441 C 0.39176 0.77411 0.59940
 C3442 C 0.40456 0.75762 0.60575
 C3443 C 0.42578 0.75968 0.60403
 C3444 C 0.43424 0.77710 0.59629
 C3445 C 0.42202 0.79323 0.58994
 C3446 C 0.40060 0.79204 0.59141
 C3447 C 0.38896 0.80891 0.58472
 C3448 C 0.39820 0.82596 0.57684
 C3449 C 0.41933 0.82696 0.57529
 C3450 C 0.43116 0.81055 0.58201
 H3451 H 0.42353 0.72200 0.61967
 H3452 H 0.34862 0.72057 0.62346
 H3453 H 0.40719 0.69256 0.63207
 H3454 H 0.34568 0.75388 0.60980
 H3455 H 0.35989 0.78377 0.59683
 H3456 H 0.43641 0.74804 0.60852
 H3457 H 0.45061 0.77792 0.59523
 H3458 H 0.37266 0.80954 0.58533
 H3459 H 0.38869 0.83858 0.57212
 H3460 H 0.44753 0.81111 0.58076
 C3461 C 0.35429 0.25357 1.12660
 C3462 C 0.37504 0.25555 1.12165
 C3463 C 0.38847 0.23955 1.12727
 C3464 C 0.38115 0.22214 1.13678
 C3465 C 0.36042 0.22018 1.14073
 C3466 C 0.34721 0.23619 1.13586
 C3467 C 0.40910 0.24085 1.12308
 C3468 C 0.41681 0.25758 1.11329
 C3469 C 0.40410 0.27379 1.10708
 C3470 C 0.38284 0.27272 1.11127
 C3471 C 0.37005 0.28873 1.10472
 C3472 C 0.37767 0.30531 1.09470
 C3473 C 0.39832 0.30675 1.09074
 C3474 C 0.41189 0.29105 1.09681
 C3475 C 0.43274 0.29345 1.09241
 C3476 C 0.43967 0.31079 1.08286
 C3477 C 0.42618 0.32630 1.07717
 C3478 C 0.40546 0.32403 1.08094
 H3479 H 0.34303 0.26508 1.12347
 H3480 H 0.39148 0.20979 1.14050
 H3481 H 0.33117 0.23520 1.13915
 H3482 H 0.41946 0.22872 1.12736
 H3483 H 0.43290 0.25720 1.11068
 H3484 H 0.35390 0.28895 1.10698
 H3485 H 0.36722 0.31723 1.09005
 H3486 H 0.44419 0.28237 1.09632
 H3487 H 0.45575 0.31212 1.07995
 H3488 H 0.39493 0.33608 1.07682
 C3489 C 1.08556 1.11481 0.72166
 C3490 C 1.09720 1.10544 0.73695
 C3491 C 1.11830 1.10286 0.73358
 C3492 C 1.12714 1.10927 0.71556
 C3493 C 1.11555 1.11929 0.70076
 C3494 C 1.09457 1.12166 0.70408
 C3495 C 1.13066 1.09435 0.74841
 C3496 C 1.12272 1.08900 0.76688
 C3497 C 1.10189 1.09163 0.77116
 C3498 C 1.08875 1.09904 0.75563
 C3499 C 1.06765 1.09968 0.75926
 C3500 C 1.05968 1.09374 0.77756
 C3501 C 1.07237 1.08745 0.79318
 C3502 C 1.09369 1.08669 0.79035
 C3503 C 1.10596 1.08130 0.80700
 C3504 C 1.09735 1.07584 0.82523
 C3505 C 1.07625 1.07553 0.82760
 C3506 C 1.06384 1.08174 0.81160
 H3507 H 1.06949 1.11762 0.72297
 H3508 H 1.14343 1.10769 0.71388
 H3509 H 1.08476 1.12851 0.69286
 H3510 H 1.14677 1.09210 0.74586
 H3511 H 1.13333 1.08240 0.77739
 H3512 H 1.05673 1.10426 0.74804
 H3513 H 1.04337 1.09427 0.77957
 H3514 H 1.12229 1.08146 0.80660
 H3515 H 1.10732 1.07183 0.83759
 H3516 H 1.04749 1.08169 0.81332
 C3517 C 1.08393 0.60935 0.22070
 C3518 C 1.09573 0.59929 0.23545
 C3519 C 1.11674 0.59667 0.23166
 C3520 C 1.12535 0.60369 0.21377
 C3521 C 1.11359 0.61421 0.19942
 C3522 C 1.09270 0.61669 0.20319
 C3523 C 1.12925 0.58741 0.24592
 C3524 C 1.12155 0.58127 0.26423
 C3525 C 1.10082 0.58389 0.26895
 C3526 C 1.08753 0.59221 0.25399
 C3527 C 1.06651 0.59307 0.25804
 C3528 C 1.05879 0.58658 0.27625
 C3529 C 1.07165 0.57939 0.29134
 C3530 C 1.09288 0.57819 0.28805
 C3531 C 1.10532 0.57167 0.30420
 C3532 C 1.09694 0.56593 0.32245
 C3533 C 1.07591 0.56642 0.32536
 C3534 C 1.06335 0.57337 0.30976
 H3535 H 1.06791 0.61224 0.22235
 H3536 H 1.14160 0.60206 0.21183
 H3537 H 1.08274 0.62393 0.19235
 H3538 H 1.14530 0.58514 0.24303
 H3539 H 1.13229 0.57414 0.27427
 H3540 H 1.05547 0.59836 0.24726
 H3541 H 1.04253 0.58742 0.27861
 H3542 H 1.12163 0.57121 0.30342
 H3543 H 1.10706 0.56126 0.33447
 H3544 H 1.04705 0.57385 0.31185
 C3545 C 0.59460 1.11167 0.22320
 C3546 C 0.60590 1.10655 0.24063
 C3547 C 0.62725 1.10887 0.23988
 C3548 C 0.63660 1.11658 0.22263
 C3549 C 0.62503 1.12233 0.20589
 C3550 C 0.60404 1.11947 0.20624
 C3551 C 0.63919 1.10385 0.25646
 C3552 C 0.63048 1.09683 0.27400
 C3553 C 0.60927 1.09462 0.27577
 C3554 C 0.59677 1.09946 0.25877
 C3555 C 0.57556 1.09731 0.26056
 C3556 C 0.56682 1.09066 0.27823
 C3557 C 0.57874 1.08586 0.29490
 C3558 C 0.60014 1.08776 0.29398
 C3559 C 0.61146 1.08269 0.31141
 C3560 C 0.60196 1.07576 0.32868
 C3561 C 0.58088 1.07368 0.32937
 C3562 C 0.56932 1.07900 0.31248
 H3563 H 0.57841 1.11006 0.22213
 H3564 H 0.65286 1.11884 0.22253
 H3565 H 0.59480 1.12348 0.19333
 H3566 H 0.65552 1.10549 0.25595
 H3567 H 0.64093 1.09338 0.28598
 H3568 H 0.56512 1.10073 0.24855
 H3569 H 0.55047 1.08925 0.27884
 H3570 H 0.62770 1.08380 0.31228
 H3571 H 0.61120 1.07203 0.34167
 H3572 H 0.55299 1.07732 0.31288
 C3573 C 0.58258 0.60631 0.71684
 C3574 C 0.59457 0.60109 0.73381
 C3575 C 0.61595 0.60212 0.73182
 C3576 C 0.62473 0.60841 0.71376
 C3577 C 0.61259 0.61413 0.69742
 C3578 C 0.59150 0.61279 0.69905
 C3579 C 0.62854 0.59726 0.74796
 C3580 C 0.62047 0.59181 0.76632
 C3581 C 0.59930 0.59096 0.76933
 C3582 C 0.58612 0.59524 0.75269
 C3583 C 0.56499 0.59357 0.75552
 C3584 C 0.55695 0.58804 0.77392
 C3585 C 0.56954 0.58415 0.79033
 C3586 C 0.59089 0.58575 0.78838
 C3587 C 0.60291 0.58211 0.80569
 C3588 C 0.59415 0.57632 0.82374
 C3589 C 0.57316 0.57410 0.82534
 C3590 C 0.56087 0.57842 0.80869
 H3591 H 0.56627 0.60597 0.71686
 H3592 H 0.64108 0.60966 0.71269
 H3593 H 0.58182 0.61700 0.68653
 H3594 H 0.64489 0.59785 0.74645
 H3595 H 0.63140 0.58820 0.77784
 H3596 H 0.55410 0.59626 0.74372
 H3597 H 0.54063 0.58683 0.77530
 H3598 H 0.61914 0.58361 0.80591
 H3599 H 0.60392 0.57351 0.83658
 H3600 H 0.54458 0.57675 0.80987
 C3601 C 0.91834 0.89558 0.71563
 C3602 C 0.90580 0.90080 0.73217
 C3603 C 0.88453 0.89912 0.72956
 C3604 C 0.87640 0.89226 0.71131
 C3605 C 0.88905 0.88686 0.69526
 C3606 C 0.91005 0.88871 0.69757
 C3607 C 0.87140 0.90408 0.74520
 C3608 C 0.87881 0.91058 0.76359
 C3609 C 0.89984 0.91233 0.76717
 C3610 C 0.91358 0.90744 0.75118
 C3611 C 0.93460 0.90924 0.75477
 C3612 C 0.94201 0.91551 0.77327
 C3613 C 0.92887 0.92026 0.78899
 C3614 C 0.90759 0.91878 0.78623
 C3615 C 0.89499 0.92380 0.80277
 C3616 C 0.90321 0.93007 0.82103
 C3617 C 0.92420 0.93157 0.82358
 C3618 C 0.93696 0.92654 0.80750
 H3619 H 0.93461 0.89653 0.71607
 H3620 H 0.86012 0.89062 0.70978
 H3621 H 0.92015 0.88487 0.68529
 H3622 H 0.85513 0.90287 0.74325
 H3623 H 0.86749 0.91405 0.77473
 H3624 H 0.94589 0.90587 0.74357
 H3625 H 0.95828 0.91663 0.77528
 H3626 H 0.87871 0.92304 0.80224
 H3627 H 0.89303 0.93357 0.83335
 H3628 H 0.95325 0.92782 0.80931
 C3629 C 0.91253 0.38391 0.22156
 C3630 C 0.90034 0.39008 0.23806
 C3631 C 0.87899 0.38957 0.23551
 C3632 C 0.87043 0.38316 0.21730
 C3633 C 0.88271 0.37708 0.20120
 C3634 C 0.90380 0.37750 0.20352
 C3635 C 0.86617 0.39537 0.25113
 C3636 C 0.87397 0.40178 0.26938
 C3637 C 0.89509 0.40265 0.27283
 C3638 C 0.90852 0.39670 0.25692
 C3639 C 0.92963 0.39761 0.26039
 C3640 C 0.93741 0.40422 0.27863
 C3641 C 0.92456 0.41016 0.29422
 C3642 C 0.90322 0.40939 0.29164
 C3643 C 0.89091 0.41551 0.30804
 C3644 C 0.89947 0.42242 0.32590
 C3645 C 0.92052 0.42346 0.32821
 C3646 C 0.93301 0.41707 0.31237
 H3647 H 0.92885 0.38381 0.22202
 H3648 H 0.85407 0.38254 0.21578
 H3649 H 0.91363 0.37301 0.19123
 H3650 H 0.84984 0.39499 0.24924
 H3651 H 0.86287 0.40601 0.28049
 H3652 H 0.94071 0.39337 0.24925
 H3653 H 0.95373 0.40474 0.28053
 H3654 H 0.87461 0.41524 0.30767
 H3655 H 0.88949 0.42691 0.33808
 H3656 H 0.94934 0.41790 0.31401
 C3657 C 0.41890 0.89654 0.21563
 C3658 C 0.40640 0.90049 0.23253
 C3659 C 0.38515 0.89856 0.22994
 C3660 C 0.37701 0.89250 0.21141
 C3661 C 0.38966 0.88810 0.19508
 C3662 C 0.41061 0.89039 0.19731
 C3663 C 0.37206 0.90237 0.24591
 C3664 C 0.37949 0.90791 0.26459
 C3665 C 0.40051 0.90982 0.26816
 C3666 C 0.41420 0.90611 0.25185
 C3667 C 0.43522 0.90801 0.25545
 C3668 C 0.44265 0.91341 0.27421
 C3669 C 0.42954 0.91713 0.29021
 C3670 C 0.40828 0.91534 0.28750
 C3671 C 0.39570 0.91924 0.30433
 C3672 C 0.40389 0.92507 0.32273
 C3673 C 0.42484 0.92713 0.32517
 C3674 C 0.43763 0.92286 0.30892
 H3675 H 0.43514 0.89787 0.21601
 H3676 H 0.36077 0.89054 0.20989
 H3677 H 0.42069 0.88733 0.18482
 H3678 H 0.35580 0.90097 0.24397
 H3679 H 0.36819 0.91055 0.27596
 H3680 H 0.44649 0.90540 0.24404
 H3681 H 0.45891 0.91472 0.27620
 H3682 H 0.37945 0.91806 0.30388
 H3683 H 0.39373 0.92799 0.33521
 H3684 H 0.45387 0.92453 0.31070
 C3685 C 0.41366 0.39190 0.71765
 C3686 C 0.40120 0.39974 0.73315
 C3687 C 0.37999 0.40048 0.72961
 C3688 C 0.37180 0.39359 0.71132
 C3689 C 0.38429 0.38506 0.69630
 C3690 C 0.40537 0.38468 0.69976
 C3691 C 0.36693 0.40766 0.74452
 C3692 C 0.37433 0.41359 0.76314
 C3693 C 0.39528 0.41279 0.76760
 C3694 C 0.40901 0.40646 0.75212
 C3695 C 0.43005 0.40706 0.75612
 C3696 C 0.43745 0.41317 0.77468
 C3697 C 0.42428 0.41862 0.79016
 C3698 C 0.40300 0.41833 0.78697
 C3699 C 0.39035 0.42335 0.80345
 C3700 C 0.39853 0.42899 0.82195
 C3701 C 0.41956 0.42984 0.82481
 C3702 C 0.43235 0.42443 0.80886
 H3703 H 0.42991 0.39071 0.71892
 H3704 H 0.35547 0.39370 0.70952
 H3705 H 0.41583 0.37922 0.68841
 H3706 H 0.35070 0.40846 0.74188
 H3707 H 0.36313 0.41900 0.77368
 H3708 H 0.44136 0.40316 0.74509
 H3709 H 0.45373 0.41346 0.77698
 H3710 H 0.37405 0.42280 0.80270
 H3711 H 0.38827 0.43254 0.83418
 H3712 H 0.44865 0.42506 0.81088
 C3713 C 1.09741 0.86514 1.26989
 C3714 C 1.10832 0.87491 1.25452
 C3715 C 1.12957 0.87642 1.25700
 C3716 C 1.13919 0.86919 1.27443
 C3717 C 1.12821 0.85992 1.28990
 C3718 C 1.10717 0.85776 1.28710
 C3719 C 1.14129 0.88515 1.24207
 C3720 C 1.13244 0.89246 1.22460
 C3721 C 1.11129 0.89158 1.22139
 C3722 C 1.09895 0.88310 1.23680
 C3723 C 1.07769 0.88348 1.23414
 C3724 C 1.06876 0.89176 1.21705
 C3725 C 1.08060 0.89964 1.20171
 C3726 C 1.10204 0.89933 1.20346
 C3727 C 1.11335 0.90675 1.18709
 C3728 C 1.10373 0.91483 1.17020
 C3729 C 1.08254 0.91585 1.16889
 C3730 C 1.07105 0.90796 1.18464
 H3731 H 1.08130 0.86285 1.26909
 H3732 H 1.15555 0.87013 1.27540
 H3733 H 1.09781 0.85113 1.29858
 H3734 H 1.15757 0.88638 1.24391
 H3735 H 1.14266 0.89920 1.21408
 H3736 H 1.06737 0.87790 1.24525
 H3737 H 1.05236 0.89194 1.21582
 H3738 H 1.12966 0.90631 1.18664
 H3739 H 1.11302 0.92014 1.15797
 H3740 H 1.05464 0.90859 1.18378
 C3741 C 1.11533 0.40870 0.77822
 C3742 C 1.10807 0.39720 0.76176
 C3743 C 1.10849 0.37583 0.76365
 C3744 C 1.11590 0.36658 0.78121
 C3745 C 1.12332 0.37821 0.79715
 C3746 C 1.12284 0.39931 0.79552
 C3747 C 1.10174 0.36370 0.74793
 C3748 C 1.09484 0.37220 0.73013
 C3749 C 1.09433 0.39336 0.72727
 C3750 C 1.10068 0.40610 0.74349
 C3751 C 1.09940 0.42728 0.74090
 C3752 C 1.09235 0.43576 0.72310
 C3753 C 1.08646 0.42358 0.70705
 C3754 C 1.08750 0.40221 0.70879
 C3755 C 1.08174 0.39060 0.69185
 C3756 C 1.07476 0.39984 0.67431
 C3757 C 1.07329 0.42093 0.67288
 C3758 C 1.07941 0.43273 0.68926
 H3759 H 1.11570 0.42496 0.77820
 H3760 H 1.11648 0.35022 0.78222
 H3761 H 1.12834 0.40863 0.80773
 H3762 H 1.10190 0.34737 0.74935
 H3763 H 1.08983 0.36162 0.71891
 H3764 H 1.10357 0.43787 0.75245
 H3765 H 1.09156 0.45210 0.72188
 H3766 H 1.08255 0.37434 0.69149
 H3767 H 1.07061 0.39037 0.66169
 H3768 H 1.07832 0.44907 0.68829
 C3769 C 0.61243 0.85511 0.75725
 C3770 C 0.60826 0.87581 0.75334
 C3771 C 0.61372 0.89003 0.76835
 C3772 C 0.62295 0.88365 0.78634
 C3773 C 0.62701 0.86311 0.78988
 C3774 C 0.62161 0.84896 0.77518
 C3775 C 0.61003 0.91059 0.76537
 C3776 C 0.60127 0.91755 0.74768
 C3777 C 0.59575 0.90414 0.73209
 C3778 C 0.59908 0.88289 0.73506
 C3779 C 0.59321 0.86945 0.71963
 C3780 C 0.58484 0.87644 0.70177
 C3781 C 0.58192 0.89707 0.69845
 C3782 C 0.58717 0.91126 0.71356
 C3783 C 0.58384 0.93203 0.70931
 C3784 C 0.57612 0.93829 0.69077
 C3785 C 0.57132 0.92420 0.67582
 C3786 C 0.57401 0.90357 0.67989
 H3787 H 0.60899 0.84321 0.74677
 H3788 H 0.62685 0.89471 0.79772
 H3789 H 0.62482 0.83302 0.77742
 H3790 H 0.61408 0.92151 0.77683
 H3791 H 0.59907 0.93367 0.74674
 H3792 H 0.59491 0.85329 0.72079
 H3793 H 0.58074 0.86552 0.69032
 H3794 H 0.58720 0.94393 0.71982
 H3795 H 0.57390 0.95433 0.68810
 H3796 H 0.57052 0.89254 0.66834
 C3797 C 0.59207 0.37267 1.27365
 C3798 C 0.60320 0.38384 1.25948
 C3799 C 0.62408 0.38671 1.26343
 C3800 C 0.63307 0.37936 1.28120
 C3801 C 0.62185 0.36835 1.29534
 C3802 C 0.60123 0.36504 1.29107
 C3803 C 0.63605 0.39678 1.24955
 C3804 C 0.62787 0.40383 1.23162
 C3805 C 0.60713 0.40147 1.22695
 C3806 C 0.59443 0.39198 1.24143
 C3807 C 0.57337 0.39131 1.23756
 C3808 C 0.56504 0.39927 1.22004
 C3809 C 0.57732 0.40778 1.20540
 C3810 C 0.59858 0.40867 1.20844
 C3811 C 0.61043 0.41651 1.19267
 C3812 C 0.60145 0.42376 1.17505
 C3813 C 0.58034 0.42363 1.17242
 C3814 C 0.56839 0.41543 1.18770
 H3815 H 0.57627 0.36927 1.27165
 H3816 H 0.64919 0.38145 1.28338
 H3817 H 0.59165 0.35718 1.30154
 H3818 H 0.65202 0.39912 1.25251
 H3819 H 0.63818 0.41160 1.22192
 H3820 H 0.56275 0.38515 1.24807
 H3821 H 0.54876 0.39860 1.21786
 H3822 H 0.62675 0.41686 1.19323
 H3823 H 0.61122 0.42926 1.16329
 H3824 H 0.55205 0.41519 1.18595
 C3825 C 0.90953 1.11462 1.28037
 C3826 C 0.89824 1.10687 1.26406
 C3827 C 0.87686 1.10639 1.26614
 C3828 C 0.86738 1.11347 1.28379
 C3829 C 0.87871 1.12188 1.29965
 C3830 C 0.89998 1.12198 1.29763
 C3831 C 0.86493 1.09920 1.25043
 C3832 C 0.87363 1.09288 1.23246
 C3833 C 0.89482 1.09333 1.22946
 C3834 C 0.90739 1.09988 1.24573
 C3835 C 0.92866 1.09919 1.24312
 C3836 C 0.93736 1.09257 1.22525
 C3837 C 0.92534 1.08666 1.20909
 C3838 C 0.90388 1.08718 1.21082
 C3839 C 0.89241 1.08167 1.19371
 C3840 C 0.90186 1.07520 1.17606
 C3841 C 0.92305 1.07398 1.17467
 C3842 C 0.93471 1.08007 1.19119
 H3843 H 0.92581 1.11553 1.28027
 H3844 H 0.85097 1.11355 1.28445
 H3845 H 0.90960 1.12730 1.30968
 H3846 H 0.84858 1.09863 1.25194
 H3847 H 0.86322 1.08746 1.22126
 H3848 H 0.93916 1.10342 1.25475
 H3849 H 0.95376 1.09218 1.22406
 H3850 H 0.87610 1.08234 1.19330
 H3851 H 0.89246 1.07116 1.16333
 H3852 H 0.95111 1.07925 1.19029
 C3853 C 0.85718 0.61296 0.75803
 C3854 C 0.87808 0.60986 0.75391
 C3855 C 0.89213 0.61487 0.76925
 C3856 C 0.88539 0.62278 0.78771
 C3857 C 0.86469 0.62605 0.79135
 C3858 C 0.85070 0.62092 0.77640
 C3859 C 0.91286 0.61215 0.76611
 C3860 C 0.92016 0.60485 0.74792
 C3861 C 0.90692 0.59987 0.73199
 C3862 C 0.88551 0.60219 0.73512
 C3863 C 0.87226 0.59686 0.71933
 C3864 C 0.87955 0.58974 0.70108
 C3865 C 0.90031 0.58765 0.69770
 C3866 C 0.91436 0.59267 0.71303
 C3867 C 0.93529 0.59035 0.70858
 C3868 C 0.94179 0.58332 0.68984
 C3869 C 0.92778 0.57832 0.67487
 C3870 C 0.90704 0.58058 0.67894
 H3871 H 0.84538 0.60968 0.74736
 H3872 H 0.89635 0.62643 0.79930
 H3873 H 0.83462 0.62353 0.77871
 H3874 H 0.92365 0.61586 0.77784
 H3875 H 0.93639 0.60327 0.74689
 H3876 H 0.85601 0.59796 0.72051
 H3877 H 0.86875 0.58587 0.68941
 H3878 H 0.94711 0.59386 0.71917
 H3879 H 0.95792 0.58154 0.68714
 H3880 H 0.89605 0.57709 0.66732
 C3881 C 0.40850 1.11862 0.77927
 C3882 C 0.39678 1.11232 0.76256
 C3883 C 0.37536 1.11328 0.76450
 C3884 C 0.36628 1.12022 0.78241
 C3885 C 0.37815 1.12655 0.79869
 C3886 C 0.39931 1.12560 0.79691
 C3887 C 0.36304 1.10740 0.74855
 C3888 C 0.37139 1.10063 0.73058
 C3889 C 0.39260 1.09938 0.72776
 C3890 C 0.40553 1.10518 0.74407
 C3891 C 0.42674 1.10357 0.74135
 C3892 C 0.43508 1.09653 0.72347
 C3893 C 0.42275 1.09088 0.70743
 C3894 C 0.40133 1.09234 0.70923
 C3895 C 0.38958 1.08666 0.69234
 C3896 C 0.39870 1.07941 0.67479
 C3897 C 0.41983 1.07757 0.67326
 C3898 C 0.43178 1.08360 0.68961
 H3899 H 0.42482 1.11846 0.77927
 H3900 H 0.34989 1.12110 0.78352
 H3901 H 0.40887 1.13015 0.80934
 H3902 H 0.34666 1.10807 0.74994
 H3903 H 0.36065 1.09635 0.71919
 H3904 H 0.43748 1.10753 0.75287
 H3905 H 0.45146 1.09547 0.72220
 H3906 H 0.37327 1.08762 0.69207
 H3907 H 0.38909 1.07532 0.66224
 H3908 H 0.44815 1.08219 0.68864
 C3909 C 0.35607 0.61597 1.25768
 C3910 C 0.37687 0.61535 1.25263
 C3911 C 0.39070 0.62367 1.26663
 C3912 C 0.38379 0.63240 1.28474
 C3913 C 0.36305 0.63259 1.28981
 C3914 C 0.34940 0.62432 1.27580
 C3915 C 0.41145 0.62300 1.26267
 C3916 C 0.41890 0.61400 1.24525
 C3917 C 0.40581 0.60543 1.23082
 C3918 C 0.38440 0.60658 1.23433
 C3919 C 0.37124 0.59906 1.21936
 C3920 C 0.37864 0.59053 1.20172
 C3921 C 0.39942 0.58882 1.19829
 C3922 C 0.41336 0.59600 1.21284
 C3923 C 0.43430 0.59332 1.20875
 C3924 C 0.44095 0.58454 1.19078
 C3925 C 0.42708 0.57805 1.17621
 C3926 C 0.40630 0.58008 1.18022
 H3927 H 0.34443 0.60996 1.24810
 H3928 H 0.39490 0.63802 1.29531
 H3929 H 0.33320 0.62481 1.27836
 H3930 H 0.42214 0.62939 1.27325
 H3931 H 0.43511 0.61430 1.24344
 H3932 H 0.35498 0.59980 1.22060
 H3933 H 0.36790 0.58513 1.19063
 H3934 H 0.44600 0.59766 1.21915
 H3935 H 0.45711 0.58275 1.18832
 H3936 H 0.39538 0.57526 1.16903
 C3937 C 1.09195 1.27810 0.88111
 C3938 C 1.10341 1.26212 0.88979
 C3939 C 1.12475 1.26425 0.89055
 C3940 C 1.13401 1.28171 0.88306
 C3941 C 1.12251 1.29742 0.87411
 C3942 C 1.10130 1.29523 0.87344
 C3943 C 1.13687 1.24881 0.89856
 C3944 C 1.12839 1.23111 0.90558
 C3945 C 1.10723 1.22810 0.90506
 C3946 C 1.09447 1.24407 0.89749
 C3947 C 1.07324 1.24149 0.89799
 C3948 C 1.06474 1.22393 0.90537
 C3949 C 1.07695 1.20803 0.91230
 C3950 C 1.09837 1.20975 0.91207
 C3951 C 1.11002 1.19289 0.91873
 C3952 C 1.10076 1.17547 0.92578
 C3953 C 1.07959 1.17406 0.92652
 C3954 C 1.06778 1.19040 0.91954
 H3955 H 1.07568 1.27786 0.87980
 H3956 H 1.15041 1.28236 0.88329
 H3957 H 1.09151 1.30709 0.86756
 H3958 H 1.15321 1.25036 0.89930
 H3959 H 1.13895 1.22013 0.91162
 H3960 H 1.06261 1.25294 0.89302
 H3961 H 1.04836 1.22274 0.90554
 H3962 H 1.12634 1.19249 0.91847
 H3963 H 1.11031 1.16289 0.93051
 H3964 H 1.05138 1.18953 0.92003
 C3965 C 1.14488 0.75558 0.39165
 C3966 C 1.12421 0.75019 0.39151
 C3967 C 1.11024 0.76384 0.38242
 C3968 C 1.11695 0.78156 0.37310
 C3969 C 1.13765 0.78657 0.37284
 C3970 C 1.15139 0.77335 0.38259
 C3971 C 1.08955 0.75980 0.38261
 C3972 C 1.08232 0.74244 0.39159
 C3973 C 1.09559 0.72810 0.40051
 C3974 C 1.11693 0.73181 0.40007
 C3975 C 1.13029 0.71682 0.40775
 C3976 C 1.12314 0.69886 0.41559
 C3977 C 1.10240 0.69520 0.41649
 C3978 C 1.08828 0.70990 0.40937
 C3979 C 1.06739 0.70569 0.41142
 C3980 C 1.06096 0.68737 0.41933
 C3981 C 1.07500 0.67254 0.42553
 C3982 C 1.09575 0.67673 0.42431
 H3983 H 1.15652 0.74645 0.39869
 H3984 H 1.10572 0.79181 0.36672
 H3985 H 1.16753 0.77605 0.38253
 H3986 H 1.07877 0.77020 0.37571
 H3987 H 1.06616 0.74048 0.39077
 H3988 H 1.14653 0.71822 0.40746
 H3989 H 1.13401 0.68768 0.42100
 H3990 H 1.05556 0.71628 0.40726
 H3991 H 1.04483 0.68483 0.42067
 H3992 H 1.10680 0.66539 0.42899
 C3993 C 0.63911 1.25646 0.38832
 C3994 C 0.61848 1.25200 0.39185
 C3995 C 0.60371 1.26663 0.38588
 C3996 C 0.60952 1.28485 0.37688
 C3997 C 0.63002 1.28905 0.37382
 C3998 C 0.64468 1.27465 0.37952
 C3999 C 0.58320 1.26312 0.38904
 C4000 C 0.57686 1.24542 0.39805
 C4001 C 0.59088 1.23032 0.40430
 C4002 C 0.61204 1.23363 0.40107
 C4003 C 0.62604 1.21843 0.40710
 C4004 C 0.61968 1.20055 0.41574
 C4005 C 0.59917 1.19704 0.41889
 C4006 C 0.58443 1.21191 0.41345
 C4007 C 0.56383 1.20758 0.41729
 C4008 C 0.55821 1.18908 0.42541
 C4009 C 0.57281 1.17426 0.43016
 C4010 C 0.59332 1.17851 0.42719
 H4011 H 0.65141 1.24633 0.39222
 H4012 H 0.59808 1.29601 0.37266
 H4013 H 0.66064 1.27745 0.37708
 H4014 H 0.57184 1.27423 0.38451
 H4015 H 0.56072 1.24403 0.39976
 H4016 H 0.64217 1.21973 0.40523
 H4017 H 0.63101 1.18927 0.41992
 H4018 H 0.55159 1.21804 0.41411
 H4019 H 0.54227 1.18629 0.42791
 H4020 H 0.60473 1.16708 0.43072
 C4021 C 0.64291 0.75707 0.88967
 C4022 C 0.62195 0.75309 0.89177
 C4023 C 0.60800 0.76814 0.88499
 C4024 C 0.61489 0.78608 0.87627
 C4025 C 0.63566 0.78955 0.87399
 C4026 C 0.64956 0.77496 0.88093
 C4027 C 0.58722 0.76521 0.88680
 C4028 C 0.57978 0.74753 0.89495
 C4029 C 0.59291 0.73188 0.90167
 C4030 C 0.61436 0.73475 0.90015
 C4031 C 0.62749 0.71910 0.90689
 C4032 C 0.62004 0.70123 0.91462
 C4033 C 0.59924 0.69813 0.91604
 C4034 C 0.58531 0.71339 0.90971
 C4035 C 0.56435 0.70934 0.91159
 C4036 C 0.55767 0.69095 0.91917
 C4037 C 0.57153 0.67591 0.92521
 C4038 C 0.59232 0.67969 0.92367
 H4039 H 0.65465 0.74666 0.89444
 H4040 H 0.60399 0.79743 0.87124
 H4041 H 0.66570 0.77718 0.87921
 H4042 H 0.57650 0.77670 0.88172
 H4043 H 0.56352 0.74662 0.89564
 H4044 H 0.64375 0.72008 0.90632
 H4045 H 0.63074 0.68964 0.91948
 H4046 H 0.55262 0.71999 0.90734
 H4047 H 0.54151 0.68855 0.92047
 H4048 H 0.60321 0.66807 0.92806
 C4049 C 0.86576 1.26745 1.10471
 C4050 C 0.88612 1.26054 1.10575
 C4051 C 0.90052 1.27369 1.11439
 C4052 C 0.89448 1.29254 1.12236
 C4053 C 0.87408 1.29915 1.12159
 C4054 C 0.85994 1.28627 1.11241
 C4055 C 0.92096 1.26804 1.11501
 C4056 C 0.92752 1.24961 1.10718
 C4057 C 0.91377 1.23580 1.09866
 C4058 C 0.89264 1.24114 1.09843
 C4059 C 0.87871 1.22676 1.09127
 C4060 C 0.88513 1.20794 1.08435
 C4061 C 0.90567 1.20274 1.08391
 C4062 C 0.92036 1.21665 1.09075
 C4063 C 0.94104 1.21075 1.08929
 C4064 C 0.94670 1.19169 1.08199
 C4065 C 0.93206 1.17781 1.07587
 C4066 C 0.91155 1.18355 1.07676
 H4067 H 0.85385 1.25877 1.09793
 H4068 H 0.90601 1.30235 1.12843
 H4069 H 0.84396 1.29016 1.11188
 H4070 H 0.93208 1.27802 1.12160
 H4071 H 0.94353 1.24644 1.10849
 H4072 H 0.86256 1.22933 1.09124
 H4073 H 0.87384 1.19733 1.07920
 H4074 H 0.95328 1.22057 1.09339
 H4075 H 0.96270 1.18787 1.08097
 H4076 H 0.90004 1.17290 1.07222
 C4077 C 0.91811 0.78688 0.60692
 C4078 C 0.90578 0.77009 0.60236
 C4079 C 0.88450 0.77269 0.60447
 C4080 C 0.87615 0.79115 0.61122
 C4081 C 0.88864 0.80740 0.61610
 C4082 C 0.90963 0.80513 0.61371
 C4083 C 0.87157 0.75680 0.60009
 C4084 C 0.87920 0.73821 0.59376
 C4085 C 0.90026 0.73464 0.59160
 C4086 C 0.91379 0.75086 0.59593
 C4087 C 0.93486 0.74725 0.59382
 C4088 C 0.94249 0.72857 0.58764
 C4089 C 0.92955 0.71266 0.58331
 C4090 C 0.90825 0.71539 0.58523
 C4091 C 0.89585 0.69866 0.58065
 C4092 C 0.90426 0.68032 0.57418
 C4093 C 0.92526 0.67784 0.57208
 C4094 C 0.93785 0.69403 0.57690
 H4095 H 0.93437 0.78650 0.60554
 H4096 H 0.85989 0.79269 0.61322
 H4097 H 0.91960 0.81756 0.61712
 H4098 H 0.85529 0.75873 0.60163
 H4099 H 0.86803 0.72689 0.59074
 H4100 H 0.94601 0.75858 0.59686
 H4101 H 0.95877 0.72658 0.58622
 H4102 H 0.87958 0.69914 0.58182
 H4103 H 0.89422 0.66791 0.57087
 H4104 H 0.95414 0.69225 0.57520
 C4105 C 0.41706 1.28249 0.61503
 C4106 C 0.40503 1.26706 0.60662
 C4107 C 0.38388 1.27083 0.60512
 C4108 C 0.37536 1.28931 0.61152
 C4109 C 0.38739 1.30451 0.62011
 C4110 C 0.40841 1.30071 0.62168
 C4111 C 0.37114 1.25603 0.59747
 C4112 C 0.37881 1.23733 0.59159
 C4113 C 0.39973 1.23265 0.59294
 C4114 C 0.41316 1.24798 0.59994
 C4115 C 0.43423 1.24377 0.59985
 C4116 C 0.44192 1.22520 0.59338
 C4117 C 0.42899 1.20991 0.58714
 C4118 C 0.40769 1.21326 0.58714
 C4119 C 0.39523 1.19694 0.58150
 C4120 C 0.40361 1.17852 0.57530
 C4121 C 0.42467 1.17557 0.57451
 C4122 C 0.43729 1.19126 0.58076
 H4123 H 0.43322 1.28093 0.61698
 H4124 H 0.35903 1.29119 0.61082
 H4125 H 0.41854 1.31205 0.62751
 H4126 H 0.35495 1.25889 0.59613
 H4127 H 0.36786 1.22696 0.58565
 H4128 H 0.44533 1.25469 0.60433
 H4129 H 0.45821 1.22276 0.59339
 H4130 H 0.37891 1.19773 0.58196
 H4131 H 0.39350 1.16641 0.57119
 H4132 H 0.45361 1.18910 0.58029
 C4133 C 0.41895 0.78640 1.11147
 C4134 C 0.40658 0.77096 1.10363
 C4135 C 0.38544 0.77496 1.10241
 C4136 C 0.37725 0.79368 1.10865
 C4137 C 0.38962 0.80876 1.11696
 C4138 C 0.41063 0.80478 1.11804
 C4139 C 0.37242 0.76014 1.09531
 C4140 C 0.37978 0.74116 1.08985
 C4141 C 0.40066 0.73624 1.09105
 C4142 C 0.41438 0.75161 1.09734
 C4143 C 0.43540 0.74716 1.09700
 C4144 C 0.44277 0.72829 1.09106
 C4145 C 0.42957 0.71294 1.08562
 C4146 C 0.40831 0.71655 1.08583
 C4147 C 0.39558 0.70018 1.08100
 C4148 C 0.40367 0.68143 1.07536
 C4149 C 0.42468 0.67821 1.07434
 C4150 C 0.43756 0.69397 1.07981
 H4151 H 0.43514 0.78471 1.11312
 H4152 H 0.36094 0.79580 1.10818
 H4153 H 0.42101 0.81608 1.12350
 H4154 H 0.35625 0.76316 1.09415
 H4155 H 0.36863 0.73074 1.08438
 H4156 H 0.44671 0.75808 1.10089
 H4157 H 0.45904 0.72566 1.09087
 H4158 H 0.37928 0.70120 1.08169
 H4159 H 0.39335 0.66931 1.07185
 H4160 H 0.45385 0.69162 1.07913
 C4161 C 0.90604 0.72400 0.87695
 C4162 C 0.89501 0.74153 0.88304
 C4163 C 0.87353 0.74082 0.88204
 C4164 C 0.86375 0.72337 0.87521
 C4165 C 0.87492 0.70627 0.86916
 C4166 C 0.89612 0.70676 0.87012
 C4167 C 0.86183 0.75753 0.88779
 C4168 C 0.87086 0.77505 0.89464
 C4169 C 0.89216 0.77665 0.89603
 C4170 C 0.90446 0.75963 0.89007
 C4171 C 0.92576 0.76130 0.89136
 C4172 C 0.93478 0.77878 0.89846
 C4173 C 0.92304 0.79537 0.90454
 C4174 C 0.90156 0.79465 0.90332
 C4175 C 0.89041 0.81200 0.90962
 C4176 C 0.90016 0.82895 0.91721
 C4177 C 0.92132 0.82938 0.91875
 C4178 C 0.93271 0.81264 0.91209
 H4179 H 0.92235 0.72302 0.87727
 H4180 H 0.84733 0.72325 0.87424
 H4181 H 0.90511 0.69364 0.86572
 H4182 H 0.84541 0.75706 0.88703
 H4183 H 0.86055 0.78710 0.89879
 H4184 H 0.93605 0.74928 0.88705
 H4185 H 0.95119 0.77926 0.89929
 H4186 H 0.87413 0.81305 0.90905
 H4187 H 0.89105 0.84188 0.92190
 H4188 H 0.94911 0.81286 0.91329
 C4189 C 0.90713 0.21943 0.38944
 C4190 C 0.89523 0.23687 0.39399
 C4191 C 0.87402 0.23580 0.39066
 C4192 C 0.86535 0.21819 0.38280
 C4193 C 0.87742 0.20124 0.37807
 C4194 C 0.89833 0.20201 0.38160
 C4195 C 0.86148 0.25236 0.39499
 C4196 C 0.86945 0.27014 0.40251
 C4197 C 0.89047 0.27219 0.40595
 C4198 C 0.90360 0.25528 0.40160
 C4199 C 0.92465 0.25742 0.40482
 C4200 C 0.93264 0.27535 0.41202
 C4201 C 0.92009 0.29191 0.41637
 C4202 C 0.89882 0.29061 0.41350
 C4203 C 0.88682 0.30790 0.41832
 C4204 C 0.89561 0.32553 0.42559
 C4205 C 0.91661 0.32668 0.42834
 C4206 C 0.92878 0.30980 0.42363
 H4207 H 0.92329 0.21866 0.39172
 H4208 H 0.84917 0.21785 0.37990
 H4209 H 0.90797 0.18900 0.37837
 H4210 H 0.84525 0.25160 0.39249
 H4211 H 0.85857 0.28209 0.40534
 H4212 H 0.93552 0.24551 0.40182
 H4213 H 0.94891 0.27625 0.41419
 H4214 H 0.87058 0.30843 0.41668
 H4215 H 0.88589 0.33847 0.42885
 H4216 H 0.94504 0.31051 0.42591
 C4217 C 0.37863 0.72337 0.40591
 C4218 C 0.38754 0.73918 0.39495
 C4219 C 0.38869 0.73690 0.37379
 C4220 C 0.38115 0.71953 0.36422
 C4221 C 0.37152 0.70428 0.37521
 C4222 C 0.37077 0.70644 0.39625
 C4223 C 0.39694 0.75220 0.36217
 C4224 C 0.40357 0.77001 0.37095
 C4225 C 0.40241 0.77322 0.39190
 C4226 C 0.39495 0.75726 0.40418
 C4227 C 0.39520 0.75992 0.42526
 C4228 C 0.40211 0.77762 0.43404
 C4229 C 0.40873 0.79359 0.42227
 C4230 C 0.40874 0.79177 0.40102
 C4231 C 0.41486 0.80873 0.38979
 C4232 C 0.42144 0.82629 0.39929
 C4233 C 0.42218 0.82772 0.42028
 C4234 C 0.41548 0.81137 0.43169
 H4235 H 0.37708 0.72369 0.42200
 H4236 H 0.38163 0.71874 0.34797
 H4237 H 0.36446 0.69477 0.40561
 H4238 H 0.39807 0.75051 0.34601
 H4239 H 0.40982 0.78090 0.36081
 H4240 H 0.39042 0.74843 0.43555
 H4241 H 0.40213 0.77887 0.45028
 H4242 H 0.41452 0.80910 0.37363
 H4243 H 0.42592 0.83893 0.39007
 H4244 H 0.41593 0.81232 0.44795
 C4245 C 0.38079 0.22251 0.91152
 C4246 C 0.38896 0.23836 0.90004
 C4247 C 0.38991 0.23562 0.87894
 C4248 C 0.38335 0.21758 0.86996
 C4249 C 0.37501 0.20195 0.88148
 C4250 C 0.37393 0.20482 0.90243
 C4251 C 0.39716 0.25100 0.86677
 C4252 C 0.40317 0.26927 0.87498
 C4253 C 0.40248 0.27286 0.89589
 C4254 C 0.39594 0.25690 0.90870
 C4255 C 0.39685 0.25992 0.92970
 C4256 C 0.40366 0.27794 0.93793
 C4257 C 0.40942 0.29387 0.92565
 C4258 C 0.40853 0.29173 0.90445
 C4259 C 0.41361 0.30870 0.89270
 C4260 C 0.42019 0.32655 0.90162
 C4261 C 0.42198 0.32825 0.92254
 C4262 C 0.41621 0.31192 0.93449
 H4263 H 0.37918 0.22334 0.92759
 H4264 H 0.38374 0.21637 0.85374
 H4265 H 0.36836 0.19310 0.91218
 H4266 H 0.39805 0.24896 0.85063
 H4267 H 0.40876 0.28016 0.86446
 H4268 H 0.39284 0.24843 0.94033
 H4269 H 0.40434 0.27943 0.95414
 H4270 H 0.41239 0.30885 0.87657
 H4271 H 0.42383 0.33917 0.89203
 H4272 H 0.41743 0.31308 0.95069
 C4273 C 1.10215 0.73006 1.13481
 C4274 C 1.10421 0.73651 1.11474
 C4275 C 1.11337 0.72286 1.10092
 C4276 C 1.12087 0.70392 1.10732
 C4277 C 1.11880 0.69765 1.12740
 C4278 C 1.10922 0.71111 1.14093
 C4279 C 1.11482 0.72806 1.08070
 C4280 C 1.10706 0.74640 1.07377
 C4281 C 1.09793 0.76060 1.08694
 C4282 C 1.09722 0.75589 1.10789
 C4283 C 1.08989 0.77083 1.12135
 C4284 C 1.08297 0.78950 1.11459
 C4285 C 1.08265 0.79396 1.09416
 C4286 C 1.08983 0.77953 1.07997
 C4287 C 1.08838 0.78464 1.05937
 C4288 C 1.08069 0.80344 1.05331
 C4289 C 1.07421 0.81785 1.06748
 C4290 C 1.07521 0.81291 1.08791
 H4291 H 1.09485 0.73914 1.14622
 H4292 H 1.12742 0.69371 1.09627
 H4293 H 1.10778 0.70748 1.15669
 H4294 H 1.12186 0.71773 1.07003
 H4295 H 1.10894 0.74921 1.05796
 H4296 H 1.08977 0.76880 1.13738
 H4297 H 1.07765 0.80054 1.12552
 H4298 H 1.09269 0.77433 1.04752
 H4299 H 1.07962 0.80662 1.03740
 H4300 H 1.07045 0.82396 1.09907
 C4301 C 1.10833 0.23677 0.63795
 C4302 C 1.10448 0.24126 0.61750
 C4303 C 1.10993 0.22635 0.60302
 C4304 C 1.11854 0.20772 0.60897
 C4305 C 1.12164 0.20343 0.62931
 C4306 C 1.11668 0.21818 0.64366
 C4307 C 1.10656 0.22997 0.58268
 C4308 C 1.09777 0.24802 0.57626
 C4309 C 1.09192 0.26334 0.59001
 C4310 C 1.09539 0.25993 0.61098
 C4311 C 1.08962 0.27528 0.62473
 C4312 C 1.08105 0.29341 0.61832
 C4313 C 1.07772 0.29705 0.59799
 C4314 C 1.08289 0.28206 0.58350
 C4315 C 1.07893 0.28658 0.56306
 C4316 C 1.07097 0.30537 0.55737
 C4317 C 1.06650 0.32026 0.57175
 C4318 C 1.06955 0.31585 0.59207
 H4319 H 1.10498 0.24714 0.65002
 H4320 H 1.12228 0.19630 0.59779
 H4321 H 1.11925 0.21529 0.65948
 H4322 H 1.11072 0.21866 0.57155
 H4323 H 1.09583 0.24946 0.56028
 H4324 H 1.09159 0.27388 0.64072
 H4325 H 1.07706 0.30478 0.62945
 H4326 H 1.08195 0.27609 0.55101
 H4327 H 1.06844 0.30835 0.54157
 H4328 H 1.06625 0.32736 0.60329
 C4329 C 0.60500 0.73295 0.63516
 C4330 C 0.60242 0.73810 0.61467
 C4331 C 0.60811 0.72338 0.60009
 C4332 C 0.61588 0.70439 0.60595
 C4333 C 0.61801 0.69955 0.62630
 C4334 C 0.61262 0.71404 0.64078
 C4335 C 0.60591 0.72760 0.57972
 C4336 C 0.59816 0.74611 0.57334
 C4337 C 0.59222 0.76132 0.58717
 C4338 C 0.59442 0.75725 0.60820
 C4339 C 0.58855 0.77247 0.62204
 C4340 C 0.58101 0.79105 0.61569
 C4341 C 0.57887 0.79529 0.59533
 C4342 C 0.58428 0.78052 0.58071
 C4343 C 0.58160 0.78571 0.56023
 C4344 C 0.57435 0.80482 0.55467
 C4345 C 0.56941 0.81940 0.56922
 C4346 C 0.57151 0.81443 0.58953
 H4347 H 0.60130 0.74309 0.64732
 H4348 H 0.61991 0.69318 0.59466
 H4349 H 0.61444 0.71075 0.65662
 H4350 H 0.61024 0.71642 0.56851
 H4351 H 0.59708 0.74800 0.55733
 H4352 H 0.58964 0.77062 0.63805
 H4353 H 0.57684 0.80228 0.62691
 H4354 H 0.58501 0.77547 0.54807
 H4355 H 0.57257 0.80821 0.53885
 H4356 H 0.56791 0.82570 0.60090
 C4357 C 0.60532 0.23816 1.14037
 C4358 C 0.60719 0.24425 1.12014
 C4359 C 0.61736 0.23087 1.10676
 C4360 C 0.62624 0.21277 1.11376
 C4361 C 0.62463 0.20701 1.13403
 C4362 C 0.61376 0.21995 1.14708
 C4363 C 0.61855 0.23553 1.08640
 C4364 C 0.60967 0.25312 1.07890
 C4365 C 0.59967 0.26713 1.09165
 C4366 C 0.59913 0.26299 1.11273
 C4367 C 0.59105 0.27795 1.12574
 C4368 C 0.58343 0.29615 1.11844
 C4369 C 0.58301 0.30002 1.09789
 C4370 C 0.59069 0.28542 1.08413
 C4371 C 0.58890 0.28974 1.06338
 C4372 C 0.58061 0.30809 1.05675
 C4373 C 0.57390 0.32283 1.07048
 C4374 C 0.57504 0.31855 1.09106
 H4375 H 0.59716 0.24699 1.15140
 H4376 H 0.63361 0.20276 1.10303
 H4377 H 0.61240 0.21658 1.16291
 H4378 H 0.62633 0.22538 1.07607
 H4379 H 0.61150 0.25561 1.06304
 H4380 H 0.59100 0.27634 1.14183
 H4381 H 0.57767 0.30730 1.12905
 H4382 H 0.59337 0.27912 1.05186
 H4383 H 0.57934 0.31067 1.04074
 H4384 H 0.57006 0.32983 1.10190
 C4385 C 1.28239 1.10944 0.91020
 C4386 C 1.26465 1.10529 0.89893
 C4387 C 1.26557 1.10796 0.87781
 C4388 C 1.28328 1.11507 0.86864
 C4389 C 1.30034 1.11988 0.88018
 C4390 C 1.29980 1.11666 0.90095
 C4391 C 1.24869 1.10387 0.86592
 C4392 C 1.23074 1.09743 0.87445
 C4393 C 1.22881 1.09488 0.89542
 C4394 C 1.24608 1.09881 0.90788
 C4395 C 1.24412 1.09637 0.92886
 C4396 C 1.22605 1.09024 0.93742
 C4397 C 1.20913 1.08626 0.92554
 C4398 C 1.21020 1.08854 0.90437
 C4399 C 1.19251 1.08431 0.89307
 C4400 C 1.17488 1.07775 0.90237
 C4401 C 1.17405 1.07523 0.92322
 C4402 C 1.19117 1.07980 0.93476
 H4403 H 1.28335 1.10748 0.92621
 H4404 H 1.28352 1.11761 0.85256
 H4405 H 1.31293 1.11993 0.91017
 H4406 H 1.24931 1.10580 0.84977
 H4407 H 1.21856 1.09469 0.86405
 H4408 H 1.25629 1.09915 0.93925
 H4409 H 1.22534 1.08855 0.95360
 H4410 H 1.19172 1.08577 0.87700
 H4411 H 1.16173 1.07460 0.89313
 H4412 H 1.19068 1.07780 0.95091
 C4413 C 1.25457 0.63868 0.38734
 C4414 C 1.25056 0.61771 0.38829
 C4415 C 1.26558 0.60414 0.38074
 C4416 C 1.28357 0.61143 0.37234
 C4417 C 1.28718 0.63222 0.37151
 C4418 C 1.27255 0.64571 0.37911
 C4419 C 1.26266 0.58334 0.38165
 C4420 C 1.24520 0.57556 0.39004
 C4421 C 1.22972 0.58835 0.39775
 C4422 C 1.23230 0.60979 0.39654
 C4423 C 1.21645 0.62260 0.40345
 C4424 C 1.19882 0.61484 0.41146
 C4425 C 1.19625 0.59406 0.41312
 C4426 C 1.21164 0.58044 0.40645
 C4427 C 1.20823 0.55947 0.40884
 C4428 C 1.19023 0.55250 0.41717
 C4429 C 1.17502 0.56608 0.42345
 C4430 C 1.17821 0.58686 0.42139
 H4431 H 1.24428 0.65013 0.39294
 H4432 H 1.29497 0.60087 0.36673
 H4433 H 1.27494 0.66187 0.37850
 H4434 H 1.27407 0.57291 0.37586
 H4435 H 1.24424 0.55933 0.39001
 H4436 H 1.21700 0.63883 0.40269
 H4437 H 1.18706 0.62531 0.41648
 H4438 H 1.21917 0.54800 0.40463
 H4439 H 1.18829 0.53636 0.41888
 H4440 H 1.16643 0.59751 0.42595
 C4441 C 0.75873 1.13713 0.38475
 C4442 C 0.75491 1.11648 0.38862
 C4443 C 0.77017 1.10216 0.38312
 C4444 C 0.78851 1.10846 0.37454
 C4445 C 0.79220 1.12901 0.37141
 C4446 C 0.77704 1.14319 0.37638
 C4447 C 0.76720 1.08163 0.38645
 C4448 C 0.74950 1.07486 0.39526
 C4449 C 0.73388 1.08843 0.40123
 C4450 C 0.73660 1.10960 0.39780
 C4451 C 0.72099 1.12318 0.40379
 C4452 C 0.70332 1.11643 0.41264
 C4453 C 0.70036 1.09590 0.41600
 C4454 C 0.71558 1.08156 0.41044
 C4455 C 0.71172 1.06091 0.41430
 C4456 C 0.69345 1.05489 0.42280
 C4457 C 0.67837 1.06911 0.42790
 C4458 C 0.68207 1.08965 0.42469
 H4459 H 0.74801 1.14909 0.38809
 H4460 H 0.80021 1.09737 0.37085
 H4461 H 0.77937 1.15916 0.37381
 H4462 H 0.77878 1.07060 0.38225
 H4463 H 0.74860 1.05876 0.39720
 H4464 H 0.72189 1.13929 0.40186
 H4465 H 0.69177 1.12746 0.41688
 H4466 H 0.72239 1.04894 0.41085
 H4467 H 0.69109 1.03893 0.42537
 H4468 H 0.67042 1.10077 0.42843
 C4469 C 0.75664 0.64183 0.88955
 C4470 C 0.75238 0.62101 0.89181
 C4471 C 0.76735 0.60684 0.88530
 C4472 C 0.78554 0.61338 0.87671
 C4473 C 0.78935 0.63402 0.87439
 C4474 C 0.77479 0.64813 0.88099
 C4475 C 0.76412 0.58618 0.88729
 C4476 C 0.74624 0.57910 0.89544
 C4477 C 0.73069 0.59247 0.90195
 C4478 C 0.73382 0.61379 0.90015
 C4479 C 0.71823 0.62716 0.90658
 C4480 C 0.70017 0.62007 0.91430
 C4481 C 0.69683 0.59941 0.91605
 C4482 C 0.71202 0.58525 0.91004
 C4483 C 0.70775 0.56443 0.91230
 C4484 C 0.68916 0.55812 0.91985
 C4485 C 0.67417 0.57220 0.92549
 C4486 C 0.67820 0.59286 0.92365
 H4487 H 0.74631 0.65371 0.89409
 H4488 H 0.79686 0.60234 0.87192
 H4489 H 0.77725 0.66418 0.87919
 H4490 H 0.77554 0.57529 0.88239
 H4491 H 0.74510 0.56291 0.89627
 H4492 H 0.71938 0.64335 0.90576
 H4493 H 0.68862 0.63096 0.91891
 H4494 H 0.71836 0.55255 0.90838
 H4495 H 0.68657 0.54206 0.92141
 H4496 H 0.66661 0.60391 0.92775
 C4497 C 1.28567 0.91528 1.10932
 C4498 C 1.26951 0.90247 1.10377
 C4499 C 1.27281 0.88131 1.10560
 C4500 C 1.29140 0.87353 1.11278
 C4501 C 1.30712 0.88645 1.11834
 C4502 C 1.30405 0.90736 1.11648
 C4503 C 1.25752 0.86794 1.10038
 C4504 C 1.23889 0.87501 1.09342
 C4505 C 1.23468 0.89591 1.09138
 C4506 C 1.25027 0.90988 1.09658
 C4507 C 1.24608 0.93078 1.09449
 C4508 C 1.22738 0.93785 1.08765
 C4509 C 1.21203 0.92448 1.08260
 C4510 C 1.21539 0.90331 1.08433
 C4511 C 1.19919 0.89049 1.07896
 C4512 C 1.18066 0.89840 1.07221
 C4513 C 1.17748 0.91931 1.07053
 C4514 C 1.19329 0.93226 1.07579
 H4515 H 1.28469 0.93151 1.10837
 H4516 H 1.29350 0.85732 1.11440
 H4517 H 1.31604 0.91769 1.12042
 H4518 H 1.25998 0.85175 1.10172
 H4519 H 1.22806 0.86354 1.08977
 H4520 H 1.25695 0.94224 1.09804
 H4521 H 1.22491 0.95404 1.08633
 H4522 H 1.20020 0.87427 1.07985
 H4523 H 1.16861 0.88805 1.06853
 H4524 H 1.19107 0.94847 1.07435
 C4525 C 1.28288 0.38693 0.58871
 C4526 C 1.26553 0.39141 0.60051
 C4527 C 1.26768 0.39015 0.62169
 C4528 C 1.28630 0.38433 0.63045
 C4529 C 1.30311 0.37949 0.61847
 C4530 C 1.30123 0.38104 0.59758
 C4531 C 1.25119 0.39449 0.63408
 C4532 C 1.23249 0.40002 0.62603
 C4533 C 1.22942 0.40141 0.60506
 C4534 C 1.24621 0.39703 0.59207
 C4535 C 1.24311 0.39835 0.57110
 C4536 C 1.22442 0.40397 0.56305
 C4537 C 1.20797 0.40848 0.57545
 C4538 C 1.21013 0.40715 0.59664
 C4539 C 1.19286 0.41179 0.60848
 C4540 C 1.17460 0.41801 0.59966
 C4541 C 1.17274 0.41974 0.57879
 C4542 C 1.18941 0.41460 0.56674
 H4543 H 1.28286 0.38770 0.57257
 H4544 H 1.28756 0.38302 0.64664
 H4545 H 1.31409 0.37767 0.58798
 H4546 H 1.25274 0.39357 0.65027
 H4547 H 1.22071 0.40311 0.63680
 H4548 H 1.25487 0.39516 0.56034
 H4549 H 1.22286 0.40489 0.54686
 H4550 H 1.19287 0.41096 0.62461
 H4551 H 1.16182 0.42157 0.60929
 H4552 H 1.18811 0.41597 0.55055
 C4553 C 0.78513 0.91558 0.61043
 C4554 C 0.76869 0.90293 0.60543
 C4555 C 0.77192 0.88173 0.60695
 C4556 C 0.79070 0.87376 0.61341
 C4557 C 0.80665 0.88654 0.61858
 C4558 C 0.80370 0.90748 0.61692
 C4559 C 0.75637 0.86850 0.60221
 C4560 C 0.73752 0.87574 0.59603
 C4561 C 0.73335 0.89668 0.59436
 C4562 C 0.74922 0.91052 0.59908
 C4563 C 0.74506 0.93146 0.59735
 C4564 C 0.72617 0.93870 0.59122
 C4565 C 0.71058 0.92546 0.58656
 C4566 C 0.71386 0.90426 0.58808
 C4567 C 0.69742 0.89157 0.58322
 C4568 C 0.67880 0.89961 0.57690
 C4569 C 0.67577 0.92054 0.57522
 C4570 C 0.69171 0.93339 0.58026
 H4571 H 0.78424 0.93182 0.60961
 H4572 H 0.79274 0.85753 0.61488
 H4573 H 0.81587 0.91769 0.62058
 H4574 H 0.75877 0.85229 0.60331
 H4575 H 0.72650 0.86436 0.59268
 H4576 H 0.75611 0.94283 0.60063
 H4577 H 0.72375 0.95491 0.59010
 H4578 H 0.69832 0.87534 0.58408
 H4579 H 0.66662 0.88935 0.57342
 H4580 H 0.68956 0.94961 0.57887
 C4581 C 0.77984 0.41341 1.11590
 C4582 C 0.76314 0.40135 1.11020
 C4583 C 0.76526 0.38011 1.11248
 C4584 C 0.78330 0.37152 1.11997
 C4585 C 0.79972 0.38364 1.12526
 C4586 C 0.79776 0.40464 1.12331
 C4587 C 0.74943 0.36743 1.10723
 C4588 C 0.73143 0.37523 1.09953
 C4589 C 0.72847 0.39623 1.09673
 C4590 C 0.74453 0.40954 1.10228
 C4591 C 0.74144 0.43055 1.09969
 C4592 C 0.72341 0.43833 1.09190
 C4593 C 0.70772 0.42559 1.08630
 C4594 C 0.70996 0.40435 1.08857
 C4595 C 0.69353 0.39215 1.08250
 C4596 C 0.67579 0.40072 1.07464
 C4597 C 0.67368 0.42168 1.07249
 C4598 C 0.68974 0.43404 1.07838
 H4599 H 0.77968 0.42964 1.11473
 H4600 H 0.78452 0.35526 1.12181
 H4601 H 0.81029 0.41433 1.12720
 H4602 H 0.75099 0.35118 1.10903
 H4603 H 0.72011 0.36424 1.09592
 H4604 H 0.75269 0.44154 1.10357
 H4605 H 0.72177 0.45458 1.09020
 H4606 H 0.69376 0.37592 1.08359
 H4607 H 0.66349 0.39084 1.07049
 H4608 H 0.68832 0.45029 1.07658
 C4609 C 0.74246 1.14034 1.11862
 C4610 C 0.74673 1.11976 1.11411
 C4611 C 0.73162 1.10546 1.11876
 C4612 C 0.71307 1.11170 1.12734
 C4613 C 0.70906 1.13217 1.13138
 C4614 C 0.72398 1.14633 1.12705
 C4615 C 0.73500 1.08500 1.11474
 C4616 C 0.75305 1.07827 1.10619
 C4617 C 0.76862 1.09180 1.10120
 C4618 C 0.76539 1.11291 1.10519
 C4619 C 0.78091 1.12647 1.10009
 C4620 C 0.79900 1.11974 1.09165
 C4621 C 0.80248 1.09926 1.08785
 C4622 C 0.78736 1.08495 1.09245
 C4623 C 0.79178 1.06434 1.08819
 C4624 C 0.81046 1.05833 1.08015
 C4625 C 0.82539 1.07253 1.07595
 C4626 C 0.82117 1.09302 1.07964
 H4627 H 0.75301 1.15227 1.11588
 H4628 H 0.70156 1.10062 1.13051
 H4629 H 0.72140 1.16222 1.13034
 H4630 H 0.72351 1.07401 1.11826
 H4631 H 0.75427 1.06221 1.10369
 H4632 H 0.77963 1.14254 1.10244
 H4633 H 0.81047 1.13074 1.08811
 H4634 H 0.78126 1.05239 1.09096
 H4635 H 0.81323 1.04241 1.07717
 H4636 H 0.83271 1.10412 1.07663
 C4637 C 0.71605 0.58732 0.61118
 C4638 C 0.73266 0.59981 0.60650
 C4639 C 0.73001 0.62096 0.60927
 C4640 C 0.71170 0.62900 0.61677
 C4641 C 0.69554 0.61638 0.62156
 C4642 C 0.69789 0.59551 0.61858
 C4643 C 0.74566 0.63406 0.60467
 C4644 C 0.76400 0.62674 0.59729
 C4645 C 0.76757 0.60583 0.59432
 C4646 C 0.75171 0.59211 0.59920
 C4647 C 0.75551 0.57116 0.59683
 C4648 C 0.77404 0.56381 0.58989
 C4649 C 0.78953 0.57695 0.58485
 C4650 C 0.78655 0.59815 0.58682
 C4651 C 0.80275 0.61075 0.58114
 C4652 C 0.82103 0.60258 0.57409
 C4653 C 0.82392 0.58163 0.57243
 C4654 C 0.80806 0.56891 0.57784
 H4655 H 0.71644 0.57115 0.60921
 H4656 H 0.71017 0.64517 0.61923
 H4657 H 0.68554 0.58542 0.62182
 H4658 H 0.74372 0.65024 0.60679
 H4659 H 0.77519 0.63799 0.59426
 H4660 H 0.74452 0.55987 0.60043
 H4661 H 0.77624 0.54759 0.58842
 H4662 H 0.80187 0.62700 0.58185
 H4663 H 0.83311 0.61275 0.57018
 H4664 H 0.81006 0.55266 0.57634
 C4665 C 0.21783 1.08942 0.61526
 C4666 C 0.23480 1.10127 0.61021
 C4667 C 0.23294 1.12252 0.61288
 C4668 C 0.21498 1.13127 0.62050
 C4669 C 0.19846 1.11926 0.62561
 C4670 C 0.20007 1.09830 0.62282
 C4671 C 0.24903 1.13499 0.60803
 C4672 C 0.26704 1.12696 0.60054
 C4673 C 0.26981 1.10592 0.59764
 C4674 C 0.25346 1.09284 0.60266
 C4675 C 0.25637 1.07178 0.60008
 C4676 C 0.27447 1.06374 0.59279
 C4677 C 0.29046 1.07624 0.58768
 C4678 C 0.28842 1.09752 0.58995
 C4679 C 0.30515 1.10946 0.58437
 C4680 C 0.32295 1.10061 0.57692
 C4681 C 0.32485 1.07961 0.57473
 C4682 C 0.30852 1.06751 0.58023
 H4683 H 0.21766 1.07323 0.61352
 H4684 H 0.21402 1.14749 0.62280
 H4685 H 0.18742 1.08868 0.62634
 H4686 H 0.24769 1.15123 0.61005
 H4687 H 0.27858 1.13779 0.59728
 H4688 H 0.24493 1.06094 0.60366
 H4689 H 0.27595 1.04747 0.59110
 H4690 H 0.30508 1.12570 0.58551
 H4691 H 0.33543 1.11031 0.57305
 H4692 H 0.30977 1.05123 0.57841
 C4693 C 0.21663 0.58573 1.11442
 C4694 C 0.23339 0.59808 1.10988
 C4695 C 0.23082 0.61927 1.11239
 C4696 C 0.21241 0.62751 1.11942
 C4697 C 0.19612 0.61504 1.12410
 C4698 C 0.19840 0.59412 1.12143
 C4699 C 0.24667 0.63222 1.10804
 C4700 C 0.26514 0.62470 1.10119
 C4701 C 0.26863 0.60374 1.09846
 C4702 C 0.25252 0.59018 1.10297
 C4703 C 0.25614 0.56920 1.10055
 C4704 C 0.27469 0.56169 1.09384
 C4705 C 0.29044 0.57467 1.08920
 C4706 C 0.28771 0.59589 1.09141
 C4707 C 0.30423 0.60833 1.08635
 C4708 C 0.32245 0.60002 1.07934
 C4709 C 0.32498 0.57908 1.07711
 C4710 C 0.30893 0.56648 1.08223
 H4711 H 0.21699 0.56954 1.11274
 H4712 H 0.21091 0.64371 1.12167
 H4713 H 0.18595 0.58414 1.12465
 H4714 H 0.24478 0.64843 1.10995
 H4715 H 0.27644 0.63587 1.09825
 H4716 H 0.24492 0.55803 1.10379
 H4717 H 0.27670 0.54546 1.09222
 H4718 H 0.30367 0.62456 1.08753
 H4719 H 0.33473 0.61009 1.07575
 H4720 H 0.31071 0.55024 1.08039
 C4721 C 0.72562 0.90598 0.87517
 C4722 C 0.74313 0.89519 0.88178
 C4723 C 0.74276 0.87377 0.88058
 C4724 C 0.72554 0.86380 0.87334
 C4725 C 0.70834 0.87472 0.86700
 C4726 C 0.70861 0.89588 0.86791
 C4727 C 0.75955 0.86230 0.88663
 C4728 C 0.77683 0.87151 0.89394
 C4729 C 0.77807 0.89276 0.89561
 C4730 C 0.76091 0.90482 0.88952
 C4731 C 0.76205 0.92605 0.89154
 C4732 C 0.77919 0.93522 0.89938
 C4733 C 0.79599 0.92372 0.90541
 C4734 C 0.79581 0.90234 0.90343
 C4735 C 0.81344 0.89145 0.90947
 C4736 C 0.83009 0.90131 0.91765
 C4737 C 0.82996 0.92235 0.92011
 C4738 C 0.81295 0.93351 0.91363
 H4739 H 0.72450 0.92224 0.87536
 H4740 H 0.72563 0.84743 0.87237
 H4741 H 0.69546 0.90468 0.86321
 H4742 H 0.75933 0.84593 0.88574
 H4743 H 0.78893 0.86137 0.89837
 H4744 H 0.74980 0.93615 0.88739
 H4745 H 0.77924 0.95156 0.90080
 H4746 H 0.81498 0.87528 0.90811
 H4747 H 0.84325 0.89235 0.92205
 H4748 H 0.81272 0.94982 0.91544
 C4749 C 0.71686 0.38683 0.40660
 C4750 C 0.73396 0.39300 0.39548
 C4751 C 0.73308 0.39092 0.37427
 C4752 C 0.71594 0.38272 0.36483
 C4753 C 0.69949 0.37612 0.37618
 C4754 C 0.70004 0.37850 0.39708
 C4755 C 0.74943 0.39671 0.36254
 C4756 C 0.76692 0.40416 0.37132
 C4757 C 0.76883 0.40615 0.39238
 C4758 C 0.75194 0.40083 0.40465
 C4759 C 0.75364 0.40339 0.42567
 C4760 C 0.77122 0.41066 0.43446
 C4761 C 0.78791 0.41558 0.42278
 C4762 C 0.78705 0.41336 0.40158
 C4763 C 0.80458 0.41834 0.39052
 C4764 C 0.82189 0.42555 0.40008
 C4765 C 0.82250 0.42804 0.42097
 C4766 C 0.80549 0.42282 0.43226
 H4767 H 0.71601 0.38790 0.42271
 H4768 H 0.71571 0.38077 0.34865
 H4769 H 0.68737 0.37375 0.40616
 H4770 H 0.74879 0.39530 0.34632
 H4771 H 0.77871 0.40826 0.36104
 H4772 H 0.74158 0.39997 0.43591
 H4773 H 0.77176 0.41237 0.45065
 H4774 H 0.80558 0.41676 0.37446
 H4775 H 0.83500 0.42906 0.39104
 H4776 H 0.80580 0.42475 0.44844
 C4777 C 0.24500 0.88408 0.35533
 C4778 C 0.24830 0.88838 0.37595
 C4779 C 0.23322 0.88230 0.38974
 C4780 C 0.21578 0.87233 0.38304
 C4781 C 0.21281 0.86824 0.36260
 C4782 C 0.22756 0.87423 0.34886
 C4783 C 0.23556 0.88618 0.41018
 C4784 C 0.25264 0.89583 0.41743
 C4785 C 0.26825 0.90205 0.40445
 C4786 C 0.26601 0.89835 0.38334
 C4787 C 0.28160 0.90463 0.37037
 C4788 C 0.29893 0.91379 0.37769
 C4789 C 0.30150 0.91721 0.39818
 C4790 C 0.28616 0.91161 0.41190
 C4791 C 0.28957 0.91562 0.43255
 C4792 C 0.30764 0.92413 0.43919
 C4793 C 0.32291 0.92909 0.42560
 C4794 C 0.31958 0.92590 0.40506
 H4795 H 0.25555 0.88803 0.34374
 H4796 H 0.20430 0.86799 0.39376
 H4797 H 0.22573 0.87105 0.33299
 H4798 H 0.22405 0.88162 0.42077
 H4799 H 0.25313 0.89806 0.43343
 H4800 H 0.28102 0.90256 0.35434
 H4801 H 0.31057 0.91813 0.36713
 H4802 H 0.27874 0.91224 0.44407
 H4803 H 0.30973 0.92675 0.45513
 H4804 H 0.33139 0.92956 0.39443
 C4805 C 0.24180 0.38234 0.86205
 C4806 C 0.24565 0.38648 0.88259
 C4807 C 0.23053 0.38109 0.89665
 C4808 C 0.21223 0.37247 0.89019
 C4809 C 0.20846 0.36923 0.86973
 C4810 C 0.22353 0.37397 0.85583
 C4811 C 0.23359 0.38462 0.91707
 C4812 C 0.25122 0.39357 0.92398
 C4813 C 0.26666 0.39951 0.91065
 C4814 C 0.26384 0.39586 0.88960
 C4815 C 0.27922 0.40190 0.87625
 C4816 C 0.29675 0.41101 0.88311
 C4817 C 0.29980 0.41457 0.90352
 C4818 C 0.28484 0.40895 0.91764
 C4819 C 0.28882 0.41298 0.93819
 C4820 C 0.30697 0.42174 0.94431
 C4821 C 0.32176 0.42696 0.93029
 C4822 C 0.31794 0.42354 0.90987
 H4823 H 0.25245 0.38549 0.85030
 H4824 H 0.20060 0.36891 0.90105
 H4825 H 0.22111 0.37127 0.83995
 H4826 H 0.22213 0.38049 0.92790
 H4827 H 0.25219 0.39569 0.93998
 H4828 H 0.27822 0.39986 0.86024
 H4829 H 0.30812 0.41530 0.87225
 H4830 H 0.27836 0.40944 0.95000
 H4831 H 0.30947 0.42444 0.96018
 H4832 H 0.32940 0.42733 0.89891
   
