data_POSCAR
  _audit_creation_date              2014-09-24
  _audit_creation_method            'ToBaCCo'
  _symmetry_space_group_name_H-M    'P1'
  _symmetry_Int_Tables_number       1
  _symmetry_cell_setting            triclinic
  loop_
  _symmetry_equiv_pos_as_xyz
 x,y,z
_cell_length_a 86.2677
_cell_length_b 86.4941
_cell_length_c 84.9473
_cell_angle_alpha 90.003800
_cell_angle_beta 89.856400
_cell_angle_gamma 90.233400
loop_
  _atom_site_label
  _atom_site_type_symbol
  _atom_site_fract_x
  _atom_site_fract_y
  _atom_site_fract_z
N1 N 0.36102 0.31944 0.33335
 N2 N 0.36271 0.32976 0.32209
 C3 C 0.37528 0.32624 0.31344
 C4 C 0.38188 0.31304 0.31962
 C5 C 0.37254 0.30903 0.33225
 H6 H 0.37933 0.33286 0.30345
 H7 H 0.37411 0.29932 0.34010
 Cu8 Cu 0.34859 0.34701 0.31985
 Cu9 Cu 0.34404 0.32041 0.34856
 Cu10 Cu 0.31819 0.35068 0.34417
 N11 N 0.33382 0.36372 0.31746
 N12 N 0.32195 0.36508 0.32708
 C13 C 0.31360 0.37752 0.32297
 C14 C 0.32062 0.38430 0.31004
 C15 C 0.33338 0.37524 0.30682
 H16 H 0.30319 0.38125 0.32894
 H17 H 0.34165 0.37694 0.29739
 N18 N 0.31621 0.33506 0.36077
 N19 N 0.32604 0.32355 0.36263
 C20 C 0.32152 0.31507 0.37519
 C21 C 0.30824 0.32166 0.38140
 C22 C 0.30523 0.33422 0.37198
 H23 H 0.32741 0.30490 0.37944
 H24 H 0.29569 0.34219 0.37333
 H25 H 0.32909 0.33177 0.33373
 H26 H 0.34107 0.34389 0.34733
 N27 N 0.36613 0.82333 -0.16932
 N28 N 0.36675 0.83486 -0.17938
 C29 C 0.37770 0.83209 -0.19022
 C30 C 0.38455 0.81818 -0.18673
 C31 C 0.37697 0.81282 -0.17332
 H32 H 0.38062 0.83978 -0.19985
 H33 H 0.37908 0.80217 -0.16701
 Cu34 Cu 0.35387 0.85289 -0.17730
 Cu35 Cu 0.35109 0.82351 -0.15199
 Cu36 Cu 0.31944 0.84708 -0.16028
 N37 N 0.33730 0.86749 -0.17980
 N38 N 0.32360 0.86521 -0.17342
 C39 C 0.31394 0.87645 -0.17829
 C40 C 0.32221 0.88617 -0.18830
 C41 C 0.33696 0.88017 -0.18889
 H42 H 0.30180 0.87714 -0.17518
 H43 H 0.34657 0.88433 -0.19595
 N44 N 0.31925 0.83108 -0.14363
 N45 N 0.33131 0.82229 -0.14030
 C46 C 0.32769 0.81310 -0.12800
 C47 C 0.31266 0.81636 -0.12335
 C48 C 0.30770 0.82777 -0.13350
 H49 H 0.33549 0.80480 -0.12279
 H50 H 0.29654 0.83343 -0.13329
 H51 H 0.33677 0.83224 -0.16828
 H52 H 0.34179 0.84605 -0.15221
 N53 N 0.86280 0.32584 -0.17410
 N54 N 0.86460 0.33910 -0.18145
 C55 C 0.87804 0.33896 -0.18948
 C56 C 0.88507 0.32486 -0.18709
 C57 C 0.87507 0.31674 -0.17729
 H58 H 0.88229 0.34827 -0.19683
 H59 H 0.87645 0.30506 -0.17299
 Cu60 Cu 0.84888 0.35500 -0.18062
 Cu61 Cu 0.84426 0.32146 -0.16159
 Cu62 Cu 0.82174 0.35367 -0.15252
 N63 N 0.83097 0.36843 -0.18121
 N64 N 0.82053 0.36841 -0.16991
 C65 C 0.81011 0.37967 -0.17273
 C66 C 0.81434 0.38702 -0.18664
 C67 C 0.82754 0.37953 -0.19167
 H68 H 0.80036 0.38230 -0.16519
 H69 H 0.83434 0.38220 -0.20204
 N70 N 0.82059 0.33412 -0.14067
 N71 N 0.82861 0.32171 -0.14456
 C72 C 0.82514 0.31026 -0.13438
 C73 C 0.81453 0.31575 -0.12357
 C74 C 0.81188 0.33093 -0.12789
 H75 H 0.83034 0.29891 -0.13448
 H76 H 0.80441 0.33916 -0.12206
 H77 H 0.82878 0.33860 -0.16912
 H78 H 0.84397 0.34398 -0.15452
 N79 N 0.86603 0.82122 0.32685
 N80 N 0.86410 0.82989 0.31432
 C81 C 0.87576 0.82726 0.30414
 C82 C 0.88552 0.81643 0.31063
 C83 C 0.87902 0.81278 0.32509
 H84 H 0.87736 0.83313 0.29301
 H85 H 0.88351 0.80486 0.33379
 Cu86 Cu 0.84741 0.84477 0.31285
 Cu87 Cu 0.85191 0.82228 0.34466
 Cu88 Cu 0.82016 0.84664 0.34148
 N89 N 0.83153 0.86053 0.31300
 N90 N 0.82074 0.86132 0.32393
 C91 C 0.81145 0.87350 0.32081
 C92 C 0.81690 0.88063 0.30721
 C93 C 0.82958 0.87210 0.30266
 H94 H 0.80164 0.87690 0.32793
 H95 H 0.83690 0.87426 0.29254
 N96 N 0.82220 0.83100 0.35838
 N97 N 0.83443 0.82194 0.35955
 C98 C 0.83257 0.81247 0.37196
 C99 C 0.81859 0.81573 0.37906
 C100 C 0.81225 0.82756 0.37019
 H101 H 0.84072 0.80368 0.37553
 H102 H 0.80123 0.83316 0.37210
 H103 H 0.83285 0.82890 0.33130
 H104 H 0.84364 0.84496 0.34128
 N105 N 0.63253 0.67927 0.32151
 N106 N 0.63291 0.66810 0.31105
 C107 C 0.61980 0.66827 0.30256
 C108 C 0.61075 0.68031 0.30784
 C109 C 0.61916 0.68713 0.31990
 H110 H 0.61718 0.66045 0.29299
 H111 H 0.61594 0.69708 0.32687
 Cu112 Cu 0.65085 0.65501 0.30881
 Cu113 Cu 0.64980 0.68271 0.33589
 Cu114 Cu 0.67588 0.65203 0.33880
 N115 N 0.66502 0.63793 0.31027
 N116 N 0.67492 0.63658 0.32192
 C117 C 0.68329 0.62358 0.31973
 C118 C 0.67813 0.61653 0.30601
 C119 C 0.66657 0.62593 0.30041
 H120 H 0.69236 0.61961 0.32748
 H121 H 0.65980 0.62415 0.28985
 N122 N 0.67481 0.66910 0.35436
 N123 N 0.66507 0.68078 0.35299
 C124 C 0.66710 0.69050 0.36516
 C125 C 0.67864 0.68476 0.37467
 C126 C 0.68332 0.67116 0.36751
 H127 H 0.66054 0.70096 0.36711
 H128 H 0.69222 0.66336 0.37157
 H129 H 0.66807 0.67023 0.32589
 H130 H 0.65300 0.65922 0.33692
 N131 N 0.64461 0.18178 -0.16885
 N132 N 0.64248 0.17172 -0.18024
 C133 C 0.62891 0.17477 -0.18742
 C134 C 0.62228 0.18744 -0.18007
 C135 C 0.63254 0.19156 -0.16837
 H136 H 0.62433 0.16836 -0.19730
 H137 H 0.63140 0.20111 -0.16023
 Cu138 Cu 0.65782 0.15584 -0.18487
 Cu139 Cu 0.66306 0.18197 -0.15587
 Cu140 Cu 0.68573 0.14918 -0.15794
 N141 N 0.67099 0.13762 -0.18591
 N142 N 0.68169 0.13500 -0.17525
 C143 C 0.68923 0.12189 -0.17889
 C144 C 0.68291 0.11593 -0.19262
 C145 C 0.67134 0.12620 -0.19670
 H146 H 0.69874 0.11728 -0.17213
 H147 H 0.66384 0.12546 -0.20687
 N148 N 0.68818 0.16495 -0.14135
 N149 N 0.67968 0.17757 -0.14077
 C150 C 0.68425 0.18627 -0.12847
 C151 C 0.69630 0.17877 -0.12096
 C152 C 0.69846 0.16531 -0.12943
 H153 H 0.67915 0.19722 -0.12527
 H154 H 0.70704 0.15652 -0.12710
 H155 H 0.67818 0.16856 -0.16929
 H156 H 0.66345 0.15828 -0.15694
 N157 N 0.13307 0.68145 -0.17455
 N158 N 0.13210 0.67091 -0.18563
 C159 C 0.11888 0.67307 -0.19377
 C160 C 0.11127 0.68566 -0.18735
 C161 C 0.12058 0.69065 -0.17520
 H162 H 0.11526 0.66619 -0.20374
 H163 H 0.11860 0.70052 -0.16765
 Cu164 Cu 0.14854 0.65590 -0.18875
 Cu165 Cu 0.15094 0.68328 -0.16099
 Cu166 Cu 0.17677 0.65266 -0.16118
 N167 N 0.16395 0.63964 -0.18947
 N168 N 0.17479 0.63813 -0.17871
 C169 C 0.18357 0.62574 -0.18232
 C170 C 0.17782 0.61922 -0.19603
 C171 C 0.16543 0.62832 -0.20019
 H172 H 0.19343 0.62188 -0.17555
 H173 H 0.15804 0.62673 -0.21033
 N174 N 0.17675 0.66887 -0.14469
 N175 N 0.16692 0.68051 -0.14496
 C176 C 0.16963 0.68980 -0.13261
 C177 C 0.18181 0.68390 -0.12415
 C178 C 0.18615 0.67058 -0.13209
 H179 H 0.16325 0.70022 -0.12994
 H180 H 0.19549 0.66286 -0.12902
 H181 H 0.16775 0.67046 -0.17344
 H182 H 0.15378 0.65943 -0.16085
 N183 N 0.14321 0.18418 0.33345
 N184 N 0.14006 0.17287 0.32361
 C185 C 0.12747 0.17676 0.31507
 C186 C 0.12261 0.19129 0.31991
 C187 C 0.13291 0.19563 0.33147
 H188 H 0.12218 0.16950 0.30620
 H189 H 0.13253 0.20613 0.33836
 Cu190 Cu 0.15262 0.15409 0.32309
 Cu191 Cu 0.15899 0.18264 0.34961
 Cu192 Cu 0.18088 0.14936 0.34997
 N193 N 0.16860 0.13824 0.32066
 N194 N 0.17974 0.13687 0.33110
 C195 C 0.18900 0.12509 0.32703
 C196 C 0.18343 0.11859 0.31337
 C197 C 0.17042 0.12720 0.30955
 H198 H 0.19891 0.12126 0.33376
 H199 H 0.16279 0.12546 0.29962
 N200 N 0.18352 0.16594 0.36547
 N201 N 0.17531 0.17875 0.36523
 C202 C 0.17945 0.18763 0.37755
 C203 C 0.19088 0.18001 0.38587
 C204 C 0.19326 0.16638 0.37783
 H205 H 0.17443 0.19873 0.38031
 H206 H 0.20133 0.15734 0.38093
 H207 H 0.17317 0.16775 0.33700
 H208 H 0.15871 0.15910 0.35090
 N209 N 0.64101 0.32280 0.67392
 N210 N 0.64109 0.33459 0.68371
 C211 C 0.62934 0.33303 0.69402
 C212 C 0.62147 0.31955 0.69060
 C213 C 0.62919 0.31325 0.67777
 H214 H 0.62665 0.34109 0.70336
 H215 H 0.62651 0.30257 0.67173
 Cu216 Cu 0.65634 0.35105 0.68198
 Cu217 Cu 0.65676 0.32074 0.65729
 Cu218 Cu 0.67532 0.35536 0.64834
 N219 N 0.67273 0.36648 0.67997
 N220 N 0.67989 0.36829 0.66642
 C221 C 0.68990 0.38017 0.66746
 C222 C 0.68908 0.38612 0.68249
 C223 C 0.67804 0.37717 0.69020
 H224 H 0.69717 0.38426 0.65792
 H225 H 0.67399 0.37846 0.70218
 N226 N 0.67586 0.33723 0.63455
 N227 N 0.66964 0.32369 0.63809
 C228 C 0.67424 0.31325 0.62718
 C229 C 0.68381 0.32078 0.61644
 C230 C 0.68445 0.33586 0.62145
 H231 H 0.67137 0.30107 0.62742
 H232 H 0.69154 0.34499 0.61649
 H233 H 0.67310 0.33734 0.66378
 H234 H 0.65465 0.34352 0.65429
 N235 N 0.63414 0.81846 1.17508
 N236 N 0.63542 0.82837 1.18675
 C237 C 0.62313 0.82695 1.19635
 C238 C 0.61363 0.81550 1.19052
 C239 C 0.62093 0.81025 1.17698
 H240 H 0.62115 0.83385 1.20679
 H241 H 0.61686 0.80139 1.16900
 Cu242 Cu 0.65264 0.84255 1.18837
 Cu243 Cu 0.64954 0.81769 1.15816
 Cu244 Cu 0.67686 0.84735 1.15792
 N245 N 0.66565 0.86066 1.18666
 N246 N 0.67523 0.86258 1.17478
 C247 C 0.68282 0.87611 1.17660
 C248 C 0.67755 0.88297 1.19035
 C249 C 0.66667 0.87286 1.19639
 H250 H 0.69141 0.88059 1.16849
 H251 H 0.65999 0.87431 1.20708
 N252 N 0.67643 0.83071 1.14205
 N253 N 0.66617 0.81933 1.14220
 C254 C 0.66930 0.80961 1.13020
 C255 C 0.68211 0.81523 1.12216
 C256 C 0.68629 0.82857 1.12997
 H257 H 0.66285 0.79918 1.12765
 H258 H 0.69602 0.83601 1.12715
 H259 H 0.66810 0.82805 1.16949
 H260 H 0.65373 0.84113 1.15990
 N261 N 0.13232 0.31863 1.16802
 N262 N 0.13409 0.32828 1.17984
 C263 C 0.12230 0.32609 1.19015
 C264 C 0.11273 0.31455 1.18417
 C265 C 0.11941 0.31022 1.17018
 H266 H 0.12086 0.33227 1.20112
 H267 H 0.11547 0.30106 1.16250
 Cu268 Cu 0.15178 0.34257 1.17987
 Cu269 Cu 0.14762 0.31583 1.15163
 Cu270 Cu 0.18031 0.33893 1.15273
 N271 N 0.16992 0.35620 1.17995
 N272 N 0.18098 0.35451 1.16938
 C273 C 0.19181 0.36551 1.17156
 C274 C 0.18735 0.37467 1.18405
 C275 C 0.17340 0.36844 1.18919
 H276 H 0.20206 0.36701 1.16436
 H277 H 0.16622 0.37263 1.19871
 N278 N 0.17715 0.32254 1.13675
 N279 N 0.16426 0.31431 1.13606
 C280 C 0.16520 0.30431 1.12398
 C281 C 0.17934 0.30617 1.11675
 C282 C 0.18671 0.31787 1.12508
 H283 H 0.15640 0.29593 1.12084
 H284 H 0.19813 0.32258 1.12285
 H285 H 0.16651 0.32372 1.16478
 H286 H 0.15676 0.33826 1.15195
 N287 N 0.13809 0.81793 0.67551
 N288 N 0.13978 0.82728 0.68758
 C289 C 0.12802 0.82515 0.69775
 C290 C 0.11837 0.81387 0.69178
 C291 C 0.12509 0.80945 0.67763
 H292 H 0.12642 0.83155 0.70857
 H293 H 0.12085 0.80082 0.66947
 Cu294 Cu 0.15650 0.84210 0.68867
 Cu295 Cu 0.15306 0.81773 0.65814
 Cu296 Cu 0.18253 0.84536 0.65974
 N297 N 0.16852 0.86079 0.68593
 N298 N 0.17883 0.86213 0.67460
 C299 C 0.18589 0.87600 0.67581
 C300 C 0.17948 0.88373 0.68854
 C301 C 0.16850 0.87376 0.69464
 H302 H 0.19507 0.87999 0.66812
 H303 H 0.16124 0.87569 0.70485
 N304 N 0.18077 0.82999 0.64270
 N305 N 0.16957 0.81954 0.64198
 C306 C 0.17176 0.81074 0.62908
 C307 C 0.18492 0.81598 0.62133
 C308 C 0.19027 0.82818 0.63026
 H309 H 0.16440 0.80117 0.62567
 H310 H 0.20045 0.83515 0.62789
 H311 H 0.17171 0.82634 0.67023
 H312 H 0.15928 0.84088 0.66026
 N313 N 0.36983 0.68017 0.67270
 N314 N 0.37086 0.66758 0.68129
 C315 C 0.38279 0.66896 0.69133
 C316 C 0.38975 0.68311 0.68886
 C317 C 0.38125 0.69001 0.67695
 H318 H 0.38621 0.66028 0.69979
 H319 H 0.38312 0.70130 0.67182
 Cu320 Cu 0.35674 0.65044 0.67861
 Cu321 Cu 0.35361 0.68255 0.65679
 Cu322 Cu 0.32521 0.65393 0.65590
 N323 N 0.33957 0.63620 0.68040
 N324 N 0.32725 0.63739 0.67142
 C325 C 0.31731 0.62586 0.67502
 C326 C 0.32383 0.61710 0.68694
 C327 C 0.33789 0.62402 0.69009
 H328 H 0.30618 0.62409 0.66947
 H329 H 0.34629 0.62041 0.69877
 N330 N 0.32545 0.67170 0.64128
 N331 N 0.33620 0.68262 0.64164
 C332 C 0.33335 0.69287 0.63006
 C333 C 0.32024 0.68816 0.62202
 C334 C 0.31551 0.67471 0.62947
 H335 H 0.34038 0.70294 0.62747
 H336 H 0.30565 0.66757 0.62648
 H337 H 0.33795 0.66917 0.66941
 H338 H 0.34833 0.65947 0.65283
 N339 N 0.36597 0.18136 1.17912
 N340 N 0.36273 0.17167 1.19057
 C341 C 0.37408 0.17228 1.20140
 C342 C 0.38500 0.18294 1.19644
 C343 C 0.37949 0.18849 1.18223
 H344 H 0.37431 0.16559 1.21216
 H345 H 0.38472 0.19720 1.17479
 Cu346 Cu 0.34391 0.15946 1.19028
 Cu347 Cu 0.35209 0.18444 1.16143
 Cu348 Cu 0.32111 0.15896 1.15805
 N349 N 0.32898 0.14314 1.18669
 N350 N 0.31993 0.14279 1.17425
 C351 C 0.31089 0.13002 1.17504
 C352 C 0.31468 0.12203 1.18868
 C353 C 0.32616 0.13069 1.19569
 H354 H 0.30236 0.12676 1.16633
 H355 H 0.33207 0.12807 1.20658
 N356 N 0.32482 0.17627 1.14313
 N357 N 0.33678 0.18576 1.14446
 C358 C 0.33624 0.19633 1.13287
 C359 C 0.32336 0.19346 1.12381
 C360 C 0.31631 0.18063 1.13059
 H361 H 0.34450 0.20562 1.13120
 H362 H 0.30580 0.17495 1.12675
 H363 H 0.33135 0.17618 1.17113
 H364 H 0.34442 0.16155 1.16184
 N365 N 0.87113 0.67551 1.17673
 N366 N 0.87038 0.66462 1.18748
 C367 C 0.88123 0.66735 1.19851
 C368 C 0.88926 0.68058 1.19434
 C369 C 0.88256 0.68548 1.18042
 H370 H 0.88341 0.66004 1.20859
 H371 H 0.88582 0.69537 1.17335
 Cu372 Cu 0.85615 0.64733 1.18537
 Cu373 Cu 0.85779 0.67535 1.15838
 Cu374 Cu 0.82560 0.65112 1.16110
 N375 N 0.83856 0.63341 1.18648
 N376 N 0.82653 0.63490 1.17713
 C377 C 0.81626 0.62352 1.18033
 C378 C 0.82226 0.61450 1.19235
 C379 C 0.83635 0.62116 1.19597
 H380 H 0.80537 0.62188 1.17427
 H381 H 0.84445 0.61726 1.20480
 N382 N 0.82735 0.66814 1.14561
 N383 N 0.83981 0.67698 1.14439
 C384 C 0.83783 0.68712 1.13257
 C385 C 0.82349 0.68457 1.12598
 C386 C 0.81709 0.67245 1.13450
 H387 H 0.84620 0.69580 1.12903
 H388 H 0.80592 0.66706 1.13267
 H389 H 0.84035 0.66662 1.17235
 H390 H 0.84889 0.65279 1.15795
 N391 N 0.86310 0.17652 0.67532
 N392 N 0.86145 0.16699 0.68728
 C393 C 0.87323 0.16916 0.69741
 C394 C 0.88277 0.18067 0.69156
 C395 C 0.87601 0.18512 0.67748
 H396 H 0.87482 0.16279 0.70824
 H397 H 0.88009 0.19393 0.66944
 Cu398 Cu 0.84435 0.15232 0.68861
 Cu399 Cu 0.84814 0.17725 0.65805
 Cu400 Cu 0.81706 0.15187 0.66083
 N401 N 0.83039 0.13471 0.68618
 N402 N 0.81994 0.13462 0.67497
 C403 C 0.81152 0.12157 0.67586
 C404 C 0.81691 0.11296 0.68832
 C405 C 0.82892 0.12160 0.69471
 H406 H 0.80191 0.11872 0.66822
 H407 H 0.83592 0.11871 0.70482
 N408 N 0.81956 0.16653 0.64351
 N409 N 0.83145 0.17608 0.64207
 C410 C 0.82973 0.18425 0.62864
 C411 C 0.81617 0.17940 0.62138
 C412 C 0.81009 0.16821 0.63111
 H413 H 0.83771 0.19301 0.62447
 H414 H 0.79954 0.16167 0.62922
 H415 H 0.82996 0.16987 0.67118
 H416 H 0.84078 0.15457 0.66034
 N417 N 0.32362 0.36186 0.67323
 N418 N 0.33420 0.36128 0.68433
 C419 C 0.33249 0.37362 0.69386
 C420 C 0.32016 0.38231 0.68851
 C421 C 0.31478 0.37450 0.67537
 H422 H 0.33961 0.37610 0.70401
 H423 H 0.30511 0.37765 0.66799
 Cu424 Cu 0.34932 0.34456 0.68550
 Cu425 Cu 0.32161 0.34593 0.65714
 Cu426 Cu 0.34639 0.31475 0.66045
 N427 N 0.36579 0.32914 0.68361
 N428 N 0.36455 0.31780 0.67339
 C429 C 0.37703 0.30865 0.67437
 C430 C 0.38670 0.31443 0.68583
 C431 C 0.37924 0.32747 0.69158
 H432 H 0.37878 0.29828 0.66748
 H433 H 0.38316 0.33503 0.70092
 N434 N 0.33069 0.31637 0.64394
 N435 N 0.32145 0.32838 0.64229
 C436 C 0.31244 0.32611 0.62953
 C437 C 0.31634 0.31202 0.62289
 C438 C 0.32790 0.30621 0.63231
 H439 H 0.30374 0.33409 0.62540
 H440 H 0.33396 0.29541 0.63066
 H441 H 0.32984 0.32921 0.67125
 H442 H 0.34438 0.33854 0.65794
 N443 N 0.31176 0.86231 0.16191
 N444 N 0.32122 0.86423 0.17388
 C445 C 0.31669 0.87675 0.18216
 C446 C 0.30372 0.88290 0.17492
 C447 C 0.30094 0.87344 0.16217
 H448 H 0.32235 0.88099 0.19266
 H449 H 0.29168 0.87462 0.15370
 Cu450 Cu 0.33839 0.85000 0.17739
 Cu451 Cu 0.31400 0.84557 0.14680
 Cu452 Cu 0.34471 0.82058 0.15222
 N453 N 0.35596 0.83605 0.17993
 N454 N 0.35824 0.82460 0.17002
 C455 C 0.37095 0.81672 0.17431
 C456 C 0.37702 0.82358 0.18766
 C457 C 0.36723 0.83581 0.19091
 H458 H 0.37535 0.80673 0.16814
 H459 H 0.36827 0.84387 0.20058
 N460 N 0.32980 0.81839 0.13487
 N461 N 0.31812 0.82796 0.13274
 C462 C 0.31007 0.82345 0.11995
 C463 C 0.31706 0.81041 0.11378
 C464 C 0.32948 0.80752 0.12352
 H465 H 0.29984 0.82915 0.11556
 H466 H 0.33764 0.79813 0.12238
 H467 H 0.32505 0.83036 0.16179
 H468 H 0.33770 0.84322 0.14955
 N469 N 0.82242 0.36365 0.16725
 N470 N 0.83402 0.36610 0.17697
 C471 C 0.83101 0.37860 0.18581
 C472 C 0.81681 0.38439 0.18143
 C473 C 0.81159 0.37465 0.16959
 H474 H 0.83847 0.38300 0.19501
 H475 H 0.80071 0.37533 0.16335
 Cu476 Cu 0.85174 0.35254 0.17797
 Cu477 Cu 0.82248 0.34614 0.15266
 Cu478 Cu 0.85106 0.31867 0.15889
 N479 N 0.86555 0.33593 0.18375
 N480 N 0.86519 0.32253 0.17646
 C481 C 0.87588 0.31316 0.18294
 C482 C 0.88326 0.32121 0.19493
 C483 C 0.87641 0.33559 0.19507
 H484 H 0.87814 0.30147 0.17911
 H485 H 0.87912 0.34510 0.20288
 N486 N 0.83571 0.31707 0.14172
 N487 N 0.82485 0.32754 0.13931
 C488 C 0.81671 0.32358 0.12638
 C489 C 0.82278 0.31000 0.12037
 C490 C 0.83474 0.30620 0.13040
 H491 H 0.80727 0.33025 0.12159
 H492 H 0.84239 0.29639 0.12929
 H493 H 0.83410 0.33269 0.16871
 H494 H 0.84591 0.34131 0.15239
 N495 N 0.81597 0.86104 0.66130
 N496 N 0.82505 0.86024 0.67371
 C497 C 0.82182 0.87218 0.68340
 C498 C 0.81009 0.88084 0.67661
 C499 C 0.80672 0.87344 0.66263
 H500 H 0.82761 0.87440 0.69444
 H501 H 0.79823 0.87690 0.65397
 Cu502 Cu 0.84026 0.84361 0.67559
 Cu503 Cu 0.81741 0.84652 0.64379
 Cu504 Cu 0.83556 0.81230 0.65322
 N505 N 0.85597 0.82731 0.67515
 N506 N 0.85387 0.81516 0.66609
 C507 C 0.86579 0.80541 0.66777
 C508 C 0.87597 0.81163 0.67851
 C509 C 0.86943 0.82559 0.68307
 H510 H 0.86692 0.79447 0.66170
 H511 H 0.87406 0.83379 0.69146
 N512 N 0.82155 0.81431 0.63527
 N513 N 0.81505 0.82749 0.63120
 C514 C 0.80715 0.82536 0.61769
 C515 C 0.80889 0.81008 0.61312
 C516 C 0.81808 0.80346 0.62450
 H517 H 0.80089 0.83432 0.61155
 H518 H 0.82248 0.79177 0.62456
 H519 H 0.82030 0.83000 0.66034
 H520 H 0.83797 0.83471 0.64854
 N521 N 0.67659 0.63773 0.66694
 N522 N 0.66433 0.63741 0.67617
 C523 C 0.66613 0.62641 0.68716
 C524 C 0.68019 0.61931 0.68470
 C525 C 0.68660 0.62673 0.67172
 H526 H 0.65782 0.62381 0.69636
 H527 H 0.69770 0.62446 0.66626
 Cu528 Cu 0.64712 0.65140 0.67341
 Cu529 Cu 0.67806 0.65249 0.64948
 Cu530 Cu 0.65325 0.68391 0.65293
 N531 N 0.63375 0.66912 0.67581
 N532 N 0.63641 0.68205 0.66813
 C533 C 0.62569 0.69256 0.67231
 C534 C 0.61585 0.68577 0.68323
 C535 C 0.62132 0.67093 0.68519
 H536 H 0.62515 0.70422 0.66778
 H537 H 0.61671 0.66217 0.69301
 N538 N 0.67078 0.68334 0.63804
 N539 N 0.67991 0.67124 0.63619
 C540 C 0.68956 0.67393 0.62394
 C541 C 0.68627 0.68844 0.61791
 C542 C 0.67443 0.69404 0.62716
 H543 H 0.69802 0.66582 0.61954
 H544 H 0.66843 0.70488 0.62552
 H545 H 0.66776 0.66815 0.66398
 H546 H 0.65553 0.66085 0.64750
 N547 N 0.68161 0.13861 0.16920
 N548 N 0.67044 0.13930 0.17976
 C549 C 0.67254 0.12800 0.19043
 C550 C 0.68564 0.11980 0.18634
 C551 C 0.69117 0.12686 0.17281
 H552 H 0.66495 0.12569 0.20032
 H553 H 0.70120 0.12358 0.16595
 Cu554 Cu 0.65380 0.15440 0.17829
 Cu555 Cu 0.68256 0.15254 0.15110
 Cu556 Cu 0.65221 0.17821 0.14733
 N557 N 0.63734 0.16972 0.17628
 N558 N 0.63653 0.17835 0.16359
 C559 C 0.62440 0.18794 0.16477
 C560 C 0.61723 0.18536 0.17899
 C561 C 0.62567 0.17368 0.18612
 H562 H 0.62134 0.19664 0.15620
 H563 H 0.62366 0.16864 0.19760
 N564 N 0.66905 0.17679 0.13202
 N565 N 0.68110 0.16757 0.13360
 C566 C 0.69131 0.17066 0.12189
 C567 C 0.68521 0.18236 0.11266
 C568 C 0.67118 0.18586 0.11938
 H569 H 0.70244 0.16513 0.12044
 H570 H 0.66341 0.19491 0.11563
 H571 H 0.67032 0.17009 0.16142
 H572 H 0.65914 0.15519 0.15022
 N573 N 0.17963 0.63720 0.17263
 N574 N 0.16863 0.63890 0.18318
 C575 C 0.16808 0.62632 0.19246
 C576 C 0.17943 0.61622 0.18752
 C577 C 0.18662 0.62348 0.17490
 H578 H 0.16018 0.62474 0.20224
 H579 H 0.19627 0.61927 0.16800
 Cu580 Cu 0.15641 0.65754 0.18417
 Cu581 Cu 0.18424 0.65338 0.15734
 Cu582 Cu 0.15510 0.68077 0.15248
 N583 N 0.13978 0.67205 0.18124
 N584 N 0.13907 0.68119 0.16889
 C585 C 0.12601 0.68969 0.16987
 C586 C 0.11821 0.68543 0.18351
 C587 C 0.12726 0.67424 0.19036
 H588 H 0.12236 0.69807 0.16121
 H589 H 0.12480 0.66800 0.20112
 N590 N 0.17259 0.67829 0.13748
 N591 N 0.18364 0.66795 0.13954
 C592 C 0.19395 0.66911 0.12771
 C593 C 0.18927 0.68072 0.11771
 C594 C 0.17567 0.68635 0.12422
 H595 H 0.20420 0.66205 0.12643
 H596 H 0.16866 0.69570 0.11976
 H597 H 0.17273 0.67279 0.16616
 H598 H 0.16094 0.65780 0.15596
 N599 N 0.17918 0.13658 0.66997
 N600 N 0.16743 0.13527 0.67975
 C601 C 0.16993 0.12323 0.68944
 C602 C 0.18395 0.11664 0.68546
 C603 C 0.18956 0.12541 0.67306
 H604 H 0.16214 0.11950 0.69869
 H605 H 0.20033 0.12383 0.66675
 Cu606 Cu 0.14983 0.14913 0.67880
 Cu607 Cu 0.17996 0.15255 0.65391
 Cu608 Cu 0.15084 0.18002 0.65457
 N609 N 0.13505 0.16587 0.68067
 N610 N 0.13531 0.17783 0.67112
 C611 C 0.12352 0.18734 0.67482
 C612 C 0.11549 0.18093 0.68739
 C613 C 0.12314 0.16738 0.69080
 H614 H 0.12098 0.19802 0.66877
 H615 H 0.12016 0.15916 0.69993
 N616 N 0.16767 0.18006 0.63881
 N617 N 0.17872 0.16954 0.63862
 C618 C 0.18838 0.17248 0.62655
 C619 C 0.18323 0.18545 0.61879
 C620 C 0.17007 0.19003 0.62684
 H621 H 0.19850 0.16574 0.62357
 H622 H 0.16280 0.19983 0.62419
 H623 H 0.16728 0.16818 0.66732
 H624 H 0.15641 0.15702 0.65203
 N625 N 0.31239 0.63552 0.33412
 N626 N 0.32255 0.63456 0.32260
 C627 C 0.31897 0.62231 0.31348
 C628 C 0.30586 0.61527 0.31967
 C629 C 0.30202 0.62396 0.33272
 H630 H 0.32536 0.61884 0.30312
 H631 H 0.29237 0.62196 0.34063
 Cu632 Cu 0.33926 0.64962 0.32061
 Cu633 Cu 0.31344 0.65151 0.35024
 Cu634 Cu 0.34573 0.67545 0.34947
 N635 N 0.35629 0.66440 0.31942
 N636 N 0.35878 0.67445 0.33077
 C637 C 0.37134 0.68305 0.32717
 C638 C 0.37698 0.67814 0.31276
 C639 C 0.36716 0.66633 0.30818
 H640 H 0.37594 0.69217 0.33452
 H641 H 0.36799 0.65961 0.29748
 N642 N 0.32918 0.67732 0.36539
 N643 N 0.31681 0.66830 0.36554
 C644 C 0.30764 0.67240 0.37767
 C645 C 0.31457 0.68461 0.38553
 C646 C 0.32816 0.68746 0.37739
 H647 H 0.29676 0.66683 0.38056
 H648 H 0.33667 0.69628 0.38007
 H649 H 0.32626 0.66790 0.33778
 H650 H 0.33710 0.65286 0.34906
 N651 N 0.31733 0.13909 0.82511
 N652 N 0.32919 0.13723 0.81558
 C653 C 0.32755 0.12360 0.80799
 C654 C 0.31393 0.11671 0.81326
 C655 C 0.30781 0.12685 0.82405
 H656 H 0.33554 0.11913 0.79931
 H657 H 0.29707 0.12554 0.83053
 Cu658 Cu 0.34496 0.15342 0.81395
 Cu659 Cu 0.31451 0.15754 0.83751
 Cu660 Cu 0.34726 0.18017 0.84278
 N661 N 0.36109 0.16923 0.81403
 N662 N 0.36190 0.17985 0.82512
 C663 C 0.37462 0.18865 0.82266
 C664 C 0.38218 0.18308 0.80942
 C665 C 0.37325 0.17087 0.80423
 H666 H 0.37826 0.19807 0.83019
 H667 H 0.37577 0.16345 0.79432
 N668 N 0.32912 0.18094 0.85710
 N669 N 0.31660 0.17249 0.85453
 C670 C 0.30654 0.17444 0.86639
 C671 C 0.31288 0.18463 0.87698
 C672 C 0.32724 0.18865 0.87080
 H673 H 0.29570 0.16824 0.86768
 H674 H 0.33584 0.19610 0.87612
 H675 H 0.33085 0.17341 0.82807
 H676 H 0.33828 0.15792 0.84138
 N677 N 0.82445 0.63700 0.82995
 N678 N 0.83482 0.64058 0.81919
 C679 C 0.83505 0.62939 0.80814
 C680 C 0.82422 0.61824 0.81223
 C681 C 0.81771 0.62347 0.82615
 H682 H 0.84241 0.62941 0.79781
 H683 H 0.80849 0.61809 0.83286
 Cu684 Cu 0.84675 0.65966 0.82059
 Cu685 Cu 0.81972 0.65051 0.84758
 Cu686 Cu 0.84083 0.68463 0.85030
 N687 N 0.86191 0.67556 0.82585
 N688 N 0.85947 0.68545 0.83734
 C689 C 0.87123 0.69574 0.83774
 C690 C 0.88165 0.69202 0.82596
 C691 C 0.87537 0.67912 0.81864
 H692 H 0.87202 0.70536 0.84583
 H693 H 0.87995 0.67303 0.80855
 N694 N 0.82447 0.67879 0.86548
 N695 N 0.81656 0.66573 0.86448
 C696 C 0.80641 0.66497 0.87652
 C697 C 0.80808 0.67807 0.88559
 C698 C 0.81963 0.68664 0.87829
 H699 H 0.79836 0.65558 0.87862
 H700 H 0.82420 0.69771 0.88198
 H701 H 0.82602 0.67085 0.83695
 H702 H 0.84141 0.66112 0.84864
 N703 N 0.81258 0.13797 0.33349
 N704 N 0.82229 0.13675 0.32163
 C705 C 0.81920 0.12360 0.31373
 C706 C 0.80682 0.11627 0.32107
 C707 C 0.80294 0.12571 0.33356
 H708 H 0.82533 0.11987 0.30330
 H709 H 0.79358 0.12395 0.34186
 Cu710 Cu 0.83736 0.15291 0.31705
 Cu711 Cu 0.81243 0.15588 0.34717
 Cu712 Cu 0.84455 0.18003 0.34481
 N713 N 0.85507 0.16675 0.31564
 N714 N 0.85800 0.17715 0.32653
 C715 C 0.87094 0.18499 0.32253
 C716 C 0.87637 0.17914 0.30836
 C717 C 0.86603 0.16760 0.30436
 H718 H 0.87591 0.19429 0.32938
 H719 H 0.86651 0.16035 0.29400
 N720 N 0.82931 0.18105 0.36222
 N721 N 0.81713 0.17178 0.36291
 C722 C 0.80878 0.17515 0.37581
 C723 C 0.81587 0.18719 0.38360
 C724 C 0.82890 0.19073 0.37471
 H725 H 0.79816 0.16938 0.37926
 H726 H 0.83731 0.19974 0.37705
 H727 H 0.82502 0.17228 0.33407
 H728 H 0.83624 0.15752 0.34526
 N729 N 0.68693 0.35697 0.33325
 N730 N 0.67474 0.36005 0.32454
 C731 C 0.67774 0.37266 0.31573
 C732 C 0.69266 0.37768 0.31908
 C733 C 0.69815 0.36739 0.33016
 H734 H 0.66969 0.37772 0.30749
 H735 H 0.70943 0.36758 0.33570
 Cu736 Cu 0.65622 0.34710 0.32553
 Cu737 Cu 0.68729 0.33966 0.34800
 Cu738 Cu 0.65098 0.32512 0.35739
 N739 N 0.63926 0.33212 0.32664
 N740 N 0.63728 0.32371 0.33939
 C741 C 0.62484 0.31452 0.33758
 C742 C 0.61867 0.31721 0.32291
 C743 C 0.62807 0.32849 0.31619
 H744 H 0.62067 0.30636 0.34628
 H745 H 0.62695 0.33356 0.30461
 N746 N 0.66930 0.32152 0.37040
 N747 N 0.68330 0.32647 0.36656
 C748 C 0.69348 0.32119 0.37728
 C749 C 0.68540 0.31244 0.38827
 C750 C 0.67015 0.31294 0.38355
 H751 H 0.70580 0.32347 0.37699
 H752 H 0.66043 0.30713 0.38907
 H753 H 0.66804 0.32665 0.34110
 H754 H 0.66500 0.34466 0.35279
 N755 N 0.68041 0.86281 0.84198
 N756 N 0.67225 0.86037 0.82915
 C757 C 0.67646 0.87087 0.81816
 C758 C 0.68784 0.88029 0.82464
 C759 C 0.68998 0.87486 0.83970
 H760 H 0.67175 0.87147 0.80639
 H761 H 0.69810 0.87922 0.84834
 Cu762 Cu 0.65694 0.84367 0.82864
 Cu763 Cu 0.67836 0.85015 0.86070
 Cu764 Cu 0.66272 0.81398 0.85339
 N765 N 0.64355 0.82545 0.82835
 N766 N 0.64599 0.81384 0.83802
 C767 C 0.63537 0.80272 0.83541
 C768 C 0.62561 0.80765 0.82359
 C769 C 0.63114 0.82215 0.81932
 H770 H 0.63467 0.79192 0.84180
 H771 H 0.62653 0.82973 0.81038
 N772 N 0.67544 0.81870 0.87204
 N773 N 0.68100 0.83262 0.87499
 C774 C 0.68918 0.83226 0.88844
 C775 C 0.68863 0.81742 0.89432
 C776 C 0.67980 0.80908 0.88366
 H777 H 0.69532 0.84202 0.89344
 H778 H 0.67689 0.79692 0.88418
 H779 H 0.67658 0.83223 0.84550
 H780 H 0.65834 0.83662 0.85648
 N781 N 0.18620 0.36472 0.83258
 N782 N 0.17689 0.36379 0.82040
 C783 C 0.18017 0.37552 0.81045
 C784 C 0.19218 0.38412 0.81687
 C785 C 0.19569 0.37694 0.83084
 H786 H 0.17421 0.37767 0.79949
 H787 H 0.20459 0.38036 0.83908
 Cu788 Cu 0.16128 0.34750 0.81905
 Cu789 Cu 0.18581 0.34990 0.84955
 Cu790 Cu 0.15868 0.32029 0.84760
 N791 N 0.14503 0.33184 0.81913
 N792 N 0.14405 0.32104 0.83000
 C793 C 0.13136 0.31224 0.82719
 C794 C 0.12404 0.31799 0.81390
 C795 C 0.13304 0.33035 0.80917
 H796 H 0.12752 0.30274 0.83452
 H797 H 0.13077 0.33791 0.79930
 N798 N 0.17442 0.32190 0.86455
 N799 N 0.18395 0.33384 0.86559
 C800 C 0.19270 0.33240 0.87854
 C801 C 0.18879 0.31884 0.88593
 C802 C 0.17714 0.31234 0.87682
 H803 H 0.20169 0.34038 0.88214
 H804 H 0.17105 0.30160 0.87902
 H805 H 0.17687 0.33165 0.83669
 H806 H 0.16254 0.34389 0.84748
 N807 N 0.18806 0.86577 0.33608
 N808 N 0.17789 0.86598 0.32459
 C809 C 0.18043 0.87853 0.31555
 C810 C 0.19293 0.88659 0.32170
 C811 C 0.19750 0.87814 0.33469
 H812 H 0.17370 0.88155 0.30530
 H813 H 0.20692 0.88089 0.34260
 Cu814 Cu 0.16226 0.84985 0.32301
 Cu815 Cu 0.18794 0.84962 0.35222
 Cu816 Cu 0.15871 0.82177 0.34987
 N817 N 0.14557 0.83482 0.32170
 N818 N 0.14410 0.82388 0.33237
 C819 C 0.13144 0.81531 0.32903
 C820 C 0.12469 0.82126 0.31555
 C821 C 0.13395 0.83359 0.31125
 H822 H 0.12747 0.80554 0.33591
 H823 H 0.13218 0.84117 0.30129
 N824 N 0.17472 0.82182 0.36657
 N825 N 0.18581 0.83239 0.36738
 C826 C 0.19486 0.82931 0.37986
 C827 C 0.18928 0.81625 0.38729
 C828 C 0.17649 0.81175 0.37857
 H829 H 0.20488 0.83604 0.38335
 H830 H 0.16908 0.80186 0.38073
 H831 H 0.17739 0.83229 0.33923
 H832 H 0.16440 0.84489 0.35110
 O833 O 0.25888 0.98984 0.23933
 O834 O 0.23243 1.01946 0.25461
 O835 O 0.23507 0.98954 0.25803
 O836 O 0.25565 1.01958 0.23503
 O837 O 0.24005 1.01525 0.21493
 O838 O 0.21902 0.98598 0.23813
 O839 O 0.21676 1.01591 0.23442
 O840 O 0.24296 0.98542 0.21950
 Cu841 Cu 0.24708 1.00503 0.24875
 Cu842 Cu 0.22813 1.00023 0.22473
 C843 C 0.25534 0.98239 0.22699
 C844 C 0.22021 1.02289 0.24711
 C845 C 0.22355 0.98259 0.25189
 C846 C 0.25127 1.02258 0.22108
 O847 O 0.26288 0.48503 0.73526
 O848 O 0.24692 0.51538 0.76051
 O849 O 0.24266 0.48557 0.75791
 O850 O 0.26443 0.51527 0.73555
 O851 O 0.24479 0.51707 0.71903
 O852 O 0.22274 0.48884 0.74198
 O853 O 0.22738 0.51852 0.74408
 O854 O 0.24289 0.48687 0.71921
 Cu855 Cu 0.25620 0.50007 0.74890
 Cu856 Cu 0.23251 0.50309 0.72945
 C857 C 0.25559 0.48051 0.72316
 C858 C 0.23458 0.52224 0.75661
 C859 C 0.22892 0.48220 0.75364
 C860 C 0.25817 0.52123 0.72344
 O861 O 0.75363 -0.01603 0.22299
 O862 O 0.77548 0.01108 0.24755
 O863 O 0.76999 -0.01853 0.24857
 O864 O 0.75737 0.01389 0.22329
 O865 O 0.73667 0.01668 0.23835
 O866 O 0.74972 -0.01480 0.26402
 O867 O 0.75485 0.01497 0.26247
 O868 O 0.73317 -0.01337 0.23844
 Cu869 Cu 0.76616 -0.00274 0.23409
 Cu870 Cu 0.74153 0.00116 0.25233
 C871 C 0.73980 -0.01950 0.22659
 C872 C 0.76891 0.01784 0.25897
 C873 C 0.76198 -0.02212 0.26065
 C874 C 0.74484 0.02086 0.22665
 O875 O 0.74186 0.49131 0.77673
 O876 O 0.72880 0.52207 0.74958
 O877 O 0.72331 0.49245 0.75271
 O878 O 0.74607 0.52107 0.77464
 O879 O 0.76610 0.51731 0.75887
 O880 O 0.74360 0.48741 0.73768
 O881 O 0.74860 0.51712 0.73387
 O882 O 0.76221 0.48750 0.76142
 Cu883 Cu 0.73298 0.50721 0.76493
 Cu884 Cu 0.75713 0.50194 0.74638
 C885 C 0.75431 0.48411 0.77357
 C886 C 0.73654 0.52482 0.73710
 C887 C 0.72964 0.48476 0.74177
 C888 C 0.75985 0.52418 0.77049
 O889 O 0.22853 0.51411 0.24289
 O890 O 0.24673 0.48613 0.26971
 O891 O 0.24990 0.51561 0.26432
 O892 O 0.22469 0.48474 0.24897
 O893 O 0.24223 0.47926 0.23085
 O894 O 0.26741 0.51046 0.24608
 O895 O 0.26427 0.48101 0.25148
 O896 O 0.24599 0.50872 0.22466
 Cu897 Cu 0.23569 0.50070 0.25827
 Cu898 Cu 0.25670 0.49433 0.23641
 C899 C 0.23426 0.51628 0.22926
 C900 C 0.25860 0.47876 0.26510
 C901 C 0.26290 0.51835 0.25783
 C902 C 0.22924 0.47659 0.23745
 O903 O 0.76166 1.01186 0.73941
 O904 O 0.73407 0.98208 0.75255
 O905 O 0.73688 1.01204 0.75672
 O906 O 0.75981 0.98185 0.73642
 O907 O 0.77403 0.97893 0.75779
 O908 O 0.75052 1.00791 0.77827
 O909 O 0.74836 0.97810 0.77368
 O910 O 0.77547 1.00883 0.76103
 Cu911 Cu 0.74670 0.99728 0.74412
 Cu912 Cu 0.76344 0.99310 0.76987
 C913 C 0.77311 1.01560 0.74798
 C914 C 0.73667 0.97480 0.76521
 C915 C 0.73997 1.01514 0.77101
 C916 C 0.77086 0.97529 0.74371
 O917 O 0.74130 0.51443 0.22248
 O918 O 0.72014 0.48483 0.24493
 O919 O 0.72444 0.51459 0.24783
 O920 O 0.73829 0.48444 0.22043
 O921 O 0.75887 0.48136 0.23547
 O922 O 0.74466 0.51063 0.26318
 O923 O 0.74069 0.48084 0.25983
 O924 O 0.76168 0.51148 0.23787
 Cu925 Cu 0.72899 0.49993 0.23242
 Cu926 Cu 0.75355 0.49572 0.25056
 C927 C 0.75495 0.51821 0.22646
 C928 C 0.72678 0.47764 0.25602
 C929 C 0.73223 0.51776 0.26013
 C930 C 0.75098 0.47767 0.22344
 O931 O 0.25701 -0.01659 0.71886
 O932 O 0.28056 0.01030 0.74187
 O933 O 0.27388 -0.01901 0.74417
 O934 O 0.26115 0.01334 0.71867
 O935 O 0.24118 0.01679 0.73457
 O936 O 0.25415 -0.01442 0.76010
 O937 O 0.26067 0.01503 0.75755
 O938 O 0.23717 -0.01307 0.73494
 Cu939 Cu 0.27012 -0.00343 0.72931
 Cu940 Cu 0.24632 0.00147 0.74838
 C941 C 0.24322 -0.01959 0.72298
 C942 C 0.27467 0.01744 0.75341
 C943 C 0.26607 -0.02214 0.75652
 C944 C 0.24891 0.02063 0.72247
 O945 O 0.25047 0.26446 0.98420
 O946 O 0.27311 0.24666 1.01664
 O947 O 0.27654 0.24905 0.98597
 O948 O 0.25166 0.26771 1.01464
 O949 O 0.23641 0.24718 1.01617
 O950 O 0.26025 0.22937 0.98449
 O951 O 0.25760 0.22629 1.01535
 O952 O 0.23380 0.24507 0.98601
 Cu953 Cu 0.26450 0.25889 1.00033
 Cu954 Cu 0.24578 0.23502 1.00022
 C955 C 0.23797 0.25774 0.97989
 C956 C 0.26901 0.23324 1.02141
 C957 C 0.27261 0.23626 0.98001
 C958 C 0.24010 0.26082 1.02055
 O959 O 0.23679 0.71298 0.49020
 O960 O 0.21460 0.73399 0.52030
 O961 O 0.21489 0.73348 0.48960
 O962 O 0.23666 0.71363 0.52090
 O963 O 0.25428 0.73222 0.52062
 O964 O 0.23246 0.75212 0.48929
 O965 O 0.23214 0.75266 0.52010
 O966 O 0.25433 0.73166 0.48970
 Cu967 Cu 0.22400 0.72165 0.50530
 Cu968 Cu 0.24507 0.74404 0.50493
 C969 C 0.24917 0.71880 0.48466
 C970 C 0.21962 0.74685 0.52541
 C971 C 0.22005 0.74610 0.48400
 C972 C 0.24910 0.71956 0.52616
 O973 O 0.24654 0.72793 0.01323
 O974 O 0.27292 0.74400 -0.01698
 O975 O 0.26784 0.74917 0.01285
 O976 O 0.25217 0.72199 -0.01652
 O977 O 0.23449 0.73921 -0.02306
 O978 O 0.25000 0.76629 0.00648
 O979 O 0.25507 0.76111 -0.02332
 O980 O 0.22870 0.74496 0.00661
 Cu981 Cu 0.26163 0.73403 -0.00121
 Cu982 Cu 0.24027 0.75458 -0.00898
 C983 C 0.23320 0.73385 0.01518
 C984 C 0.26842 0.75529 -0.02534
 C985 C 0.26153 0.76228 0.01477
 C986 C 0.24078 0.72607 -0.02495
 O987 O 0.26233 0.25882 0.48950
 O988 O 0.23560 0.24388 0.51937
 O989 O 0.23826 0.24064 0.48900
 O990 O 0.25865 0.26312 0.51961
 O991 O 0.24297 0.28279 0.51534
 O992 O 0.22238 0.26028 0.48533
 O993 O 0.21979 0.26355 0.51568
 O994 O 0.24654 0.27838 0.48510
 Cu995 Cu 0.25028 0.24964 0.50477
 Cu996 Cu 0.23136 0.27325 0.49992
 C997 C 0.25896 0.27105 0.48210
 C998 C 0.22330 0.25114 0.52281
 C999 C 0.22679 0.24671 0.48198
 C1000 C 0.25416 0.27677 0.52274
 O1001 O 0.73973 0.75667 0.99506
 O1002 O 0.76154 0.73592 1.02586
 O1003 O 0.76431 0.73944 0.99537
 O1004 O 0.73818 0.75463 1.02559
 O1005 O 0.72291 0.73423 1.02313
 O1006 O 0.74883 0.71933 0.99190
 O1007 O 0.74649 0.71550 1.02233
 O1008 O 0.72424 0.73641 0.99260
 Cu1009 Cu 0.75251 0.74868 1.01077
 Cu1010 Cu 0.73411 0.72431 1.00722
 C1011 C 0.72823 0.74996 0.98861
 C1012 C 0.75760 0.72215 1.02935
 C1013 C 0.76095 0.72699 0.98828
 C1014 C 0.72619 0.74706 1.02964
 O1015 O 0.78212 0.25786 0.52132
 O1016 O 0.75864 0.27885 0.49257
 O1017 O 0.75607 0.27317 0.52275
 O1018 O 0.78324 0.26173 0.49083
 O1019 O 0.76919 0.24065 0.48715
 O1020 O 0.74206 0.25226 0.51803
 O1021 O 0.74490 0.25776 0.48782
 O1022 O 0.76797 0.23686 0.51754
 Cu1023 Cu 0.77139 0.27001 0.50735
 Cu1024 Cu 0.75462 0.24479 0.50230
 C1025 C 0.77905 0.24386 0.52441
 C1026 C 0.74809 0.27186 0.48500
 C1027 C 0.74441 0.26456 0.52576
 C1028 C 0.78058 0.24921 0.48341
 O1029 O 0.73020 0.25033 -0.01409
 O1030 O 0.75022 0.27321 0.01593
 O1031 O 0.74720 0.27522 -0.01448
 O1032 O 0.73506 0.24724 0.01602
 O1033 O 0.75602 0.23337 0.01138
 O1034 O 0.76869 0.26187 -0.01800
 O1035 O 0.77142 0.25932 0.01264
 O1036 O 0.75149 0.23704 -0.01890
 Cu1037 Cu 0.73855 0.26282 0.00124
 Cu1038 Cu 0.76405 0.24656 -0.00363
 C1039 C 0.73733 0.24001 -0.02177
 C1040 C 0.76408 0.27009 0.01962
 C1041 C 0.76009 0.27325 -0.02144
 C1042 C 0.74352 0.23556 0.01890
 O1043 O 0.76483 0.75489 0.47694
 O1044 O 0.75300 0.72808 0.50849
 O1045 O 0.75213 0.72753 0.47768
 O1046 O 0.76542 0.75551 0.50756
 O1047 O 0.74218 0.76613 0.50791
 O1048 O 0.72892 0.73820 0.47814
 O1049 O 0.72981 0.73878 0.50894
 O1050 O 0.74162 0.76556 0.47725
 Cu1051 Cu 0.76116 0.74041 0.49261
 Cu1052 Cu 0.73329 0.75319 0.49308
 C1053 C 0.75529 0.76480 0.47172
 C1054 C 0.73945 0.72901 0.51425
 C1055 C 0.73827 0.72819 0.47273
 C1056 C 0.75603 0.76555 0.51286
 O1057 O 1.01230 0.27114 0.25852
 O1058 O 0.98402 0.24655 0.27804
 O1059 O 1.01490 0.24556 0.27576
 O1060 O 0.98283 0.26713 0.25626
 O1061 O 0.98536 0.25155 0.23582
 O1062 O 1.01390 0.22846 0.25651
 O1063 O 0.98356 0.23055 0.25776
 O1064 O 1.01532 0.25381 0.23966
 Cu1065 Cu 0.99872 0.25886 0.26914
 Cu1066 Cu 0.99966 0.23948 0.24553
 C1067 C 1.01892 0.26670 0.24605
 C1068 C 0.97846 0.23480 0.27120
 C1069 C 1.01965 0.23311 0.26932
 C1070 C 0.97885 0.26290 0.24244
 O1071 O 0.52199 0.26729 0.75000
 O1072 O 0.49186 0.25158 0.77636
 O1073 O 0.52120 0.24597 0.77149
 O1074 O 0.49280 0.27335 0.75529
 O1075 O 0.48627 0.25604 0.73735
 O1076 O 0.51482 0.22871 0.75346
 O1077 O 0.48570 0.23428 0.75830
 O1078 O 0.51562 0.25000 0.73199
 Cu1079 Cu 0.50761 0.26126 0.76511
 Cu1080 Cu 0.49996 0.24055 0.74339
 C1081 C 0.52407 0.26114 0.73658
 C1082 C 0.48358 0.24030 0.77176
 C1083 C 0.52292 0.23275 0.76523
 C1084 C 0.48454 0.26926 0.74366
 O1085 O -0.01213 0.27320 0.75928
 O1086 O 0.01747 0.25798 0.73226
 O1087 O -0.01284 0.25844 0.73266
 O1088 O 0.01831 0.27184 0.75946
 O1089 O 0.01748 0.24950 0.77200
 O1090 O -0.01337 0.23546 0.74561
 O1091 O 0.01680 0.23560 0.74473
 O1092 O -0.01295 0.25083 0.77175
 Cu1093 Cu 0.00281 0.26756 0.74476
 Cu1094 Cu 0.00199 0.24074 0.75978
 C1095 C -0.01782 0.26454 0.76990
 C1096 C 0.02221 0.24422 0.73390
 C1097 C -0.01921 0.24429 0.73416
 C1098 C 0.02330 0.26287 0.77017
 O1099 O 0.48785 0.27891 0.24496
 O1100 O 0.51983 0.25409 0.23069
 O1101 O 0.49009 0.25551 0.22582
 O1102 O 0.51816 0.28031 0.24569
 O1103 O 0.51693 0.26540 0.26672
 O1104 O 0.48708 0.24129 0.24721
 O1105 O 0.51616 0.23837 0.25188
 O1106 O 0.48586 0.26418 0.26611
 Cu1107 Cu 0.50421 0.26863 0.23476
 Cu1108 Cu 0.50159 0.25136 0.26012
 C1109 C 0.48133 0.27559 0.25801
 C1110 C 0.52400 0.24125 0.23862
 C1111 C 0.48363 0.24440 0.23300
 C1112 C 0.52265 0.27695 0.25940
 O1113 O 0.98153 0.74439 0.76402
 O1114 O 1.01179 0.76405 0.74029
 O1115 O 0.98218 0.76849 0.74550
 O1116 O 1.01131 0.74123 0.76001
 O1117 O 1.00683 0.72559 0.73997
 O1118 O 0.97704 0.75275 0.72572
 O1119 O 1.00664 0.74854 0.72031
 O1120 O 0.97713 0.72862 0.74405
 Cu1121 Cu 0.99716 0.75615 0.75443
 Cu1122 Cu 0.99137 0.73736 0.73049
 C1123 C 0.97428 0.73301 0.75799
 C1124 C 1.01449 0.75944 0.72633
 C1125 C 0.97450 0.76520 0.73325
 C1126 C 1.01419 0.72890 0.75246
 O1127 O 0.50755 0.73183 0.25565
 O1128 O 0.47700 0.74789 0.23021
 O1129 O 0.50719 0.74654 0.22900
 O1130 O 0.47730 0.73176 0.25604
 O1131 O 0.47790 0.75362 0.26946
 O1132 O 0.50821 0.76827 0.24261
 O1133 O 0.47796 0.76974 0.24363
 O1134 O 0.50812 0.75359 0.26924
 Cu1135 Cu 0.49216 0.73731 0.24139
 Cu1136 Cu 0.49312 0.76351 0.25755
 C1137 C 0.51309 0.74003 0.26674
 C1138 C 0.47223 0.76156 0.23267
 C1139 C 0.51295 0.75985 0.23132
 C1140 C 0.47242 0.74015 0.26726
 O1141 O 0.02260 0.74901 0.27092
 O1142 O -0.00880 0.73532 0.24531
 O1143 O 0.02126 0.73614 0.24319
 O1144 O -0.00768 0.74884 0.27245
 O1145 O -0.00853 0.77166 0.26084
 O1146 O 0.02041 0.75906 0.23177
 O1147 O -0.00975 0.75812 0.23367
 O1148 O 0.02175 0.77193 0.25950
 Cu1149 Cu 0.00699 0.74005 0.25914
 Cu1150 Cu 0.00592 0.76751 0.24532
 C1151 C 0.02757 0.76277 0.26957
 C1152 C -0.01473 0.74437 0.23524
 C1153 C 0.02572 0.74543 0.23248
 C1154 C -0.01323 0.76238 0.27143
 O1155 O 0.52062 0.76014 0.76674
 O1156 O 0.49047 0.74022 0.74316
 O1157 O 0.52059 0.74284 0.74186
 O1158 O 0.49074 0.75522 0.76969
 O1159 O 0.48651 0.77596 0.75518
 O1160 O 0.51793 0.76427 0.72805
 O1161 O 0.48792 0.76128 0.72869
 O1162 O 0.51633 0.78149 0.75319
 Cu1163 Cu 0.50595 0.74750 0.75677
 Cu1164 Cu 0.50185 0.77291 0.73994
 C1165 C 0.52359 0.77429 0.76383
 C1166 C 0.48412 0.74747 0.73184
 C1167 C 0.52456 0.75138 0.73041
 C1168 C 0.48323 0.76747 0.76698
 C1169 C 0.39598 0.30497 0.31436
 C1170 C 0.40453 0.30988 0.30126
 C1171 C 0.41883 0.30229 0.29544
 C1172 C 0.42771 0.30986 0.28386
 C1173 C 0.44121 0.30314 0.27786
 C1174 C 0.44606 0.28859 0.28328
 C1175 C 0.43722 0.28106 0.29488
 C1176 C 0.42372 0.28774 0.30084
 C1177 C 0.46021 0.28084 0.27738
 C1178 C 0.46814 0.28487 0.26359
 H1179 H 0.40073 0.32005 0.29497
 H1180 H 0.42423 0.32108 0.27948
 H1181 H 0.44781 0.30950 0.26917
 H1182 H 0.44069 0.26982 0.29925
 H1183 H 0.41718 0.28129 0.30950
 H1184 H 0.46417 0.27087 0.28394
 H1185 H 0.39963 0.29515 0.32124
 H1186 H 0.46431 0.29437 0.25634
 C1187 C 0.39670 0.81182 0.80468
 C1188 C 0.40451 0.79834 0.80880
 C1189 C 0.41803 0.79308 0.79951
 C1190 C 0.43050 0.78597 0.80714
 C1191 C 0.44396 0.78222 0.79876
 C1192 C 0.44504 0.78535 0.78252
 C1193 C 0.43234 0.79198 0.77484
 C1194 C 0.41892 0.79568 0.78319
 C1195 C 0.45920 0.78225 0.77320
 C1196 C 0.47034 0.77146 0.77752
 H1197 H 0.40169 0.79244 0.81969
 H1198 H 0.43004 0.78382 0.81969
 H1199 H 0.45359 0.77733 0.80515
 H1200 H 0.43280 0.79433 0.76232
 H1201 H 0.40930 0.80064 0.77682
 H1202 H 0.46036 0.78793 0.76188
 H1203 H 0.40063 0.81830 0.79451
 H1204 H 0.46890 0.76469 0.78813
 C1205 C -0.10031 0.31988 0.80556
 C1206 C -0.09364 0.30548 0.80836
 C1207 C -0.07932 0.30024 0.80031
 C1208 C -0.07029 0.28867 0.80731
 C1209 C -0.05679 0.28336 0.79995
 C1210 C -0.05214 0.28941 0.78529
 C1211 C -0.06123 0.30092 0.77828
 C1212 C -0.07469 0.30624 0.78563
 C1213 C -0.03804 0.28411 0.77688
 C1214 C -0.03053 0.27016 0.77996
 H1215 H -0.09881 0.29792 0.81709
 H1216 H -0.07361 0.28385 0.81860
 H1217 H -0.05001 0.27469 0.80592
 H1218 H -0.05802 0.30570 0.76694
 H1219 H -0.08155 0.31481 0.77959
 H1220 H -0.03403 0.29104 0.76703
 H1221 H -0.09465 0.32801 0.79775
 H1222 H -0.03472 0.26251 0.78909
 C1223 C -0.09988 0.81113 0.30353
 C1224 C -0.08995 0.80065 0.31082
 C1225 C -0.07499 0.79602 0.30370
 C1226 C -0.06866 0.78156 0.30741
 C1227 C -0.05483 0.77666 0.30039
 C1228 C -0.04695 0.78627 0.28960
 C1229 C -0.05304 0.80095 0.28638
 C1230 C -0.06684 0.80581 0.29336
 C1231 C -0.03281 0.78145 0.28093
 C1232 C -0.02560 0.76709 0.28236
 H1233 H -0.09350 0.79520 0.32173
 H1234 H -0.07462 0.77389 0.31552
 H1235 H -0.05060 0.76530 0.30336
 H1236 H -0.04717 0.80868 0.27826
 H1237 H -0.07099 0.81729 0.29068
 H1238 H -0.02824 0.78949 0.27228
 H1239 H -0.09696 0.81573 0.29206
 H1240 H -0.02949 0.75873 0.29096
 C1241 C 0.59580 0.68481 0.30099
 C1242 C 0.58790 0.69820 0.30526
 C1243 C 0.57359 0.70338 0.29721
 C1244 C 0.56388 0.71406 0.30476
 C1245 C 0.55048 0.71947 0.29735
 C1246 C 0.54662 0.71438 0.28211
 C1247 C 0.55627 0.70365 0.27462
 C1248 C 0.56967 0.69831 0.28197
 C1249 C 0.53278 0.71995 0.27358
 C1250 C 0.52562 0.73405 0.27670
 H1251 H 0.59225 0.70512 0.31492
 H1252 H 0.56663 0.71818 0.31648
 H1253 H 0.54315 0.72746 0.30368
 H1254 H 0.55361 0.69960 0.26286
 H1255 H 0.57704 0.69052 0.27545
 H1256 H 0.52881 0.71322 0.26359
 H1257 H 0.59114 0.67725 0.29203
 H1258 H 0.52990 0.74146 0.28600
 C1259 C 0.60783 0.19561 0.81617
 C1260 C 0.59822 0.19137 0.80370
 C1261 C 0.58425 0.20022 0.79915
 C1262 C 0.57296 0.19303 0.78977
 C1263 C 0.55991 0.20118 0.78472
 C1264 C 0.55797 0.21682 0.78885
 C1265 C 0.56926 0.22398 0.79825
 C1266 C 0.58227 0.21584 0.80330
 C1267 C 0.54463 0.22622 0.78353
 C1268 C 0.53463 0.22200 0.77134
 H1269 H 0.60092 0.18106 0.79702
 H1270 H 0.57427 0.18105 0.78632
 H1271 H 0.55147 0.19510 0.77765
 H1272 H 0.56819 0.23606 0.80145
 H1273 H 0.59090 0.22203 0.81004
 H1274 H 0.54325 0.23754 0.78880
 H1275 H 0.60480 0.20529 0.82360
 H1276 H 0.53581 0.21099 0.76547
 C1277 C 1.09693 0.69323 0.80750
 C1278 C 1.08871 0.68875 0.79412
 C1279 C 1.07508 0.69739 0.78828
 C1280 C 1.06442 0.68994 0.77834
 C1281 C 1.05149 0.69785 0.77257
 C1282 C 1.04910 0.71346 0.77653
 C1283 C 1.05983 0.72089 0.78636
 C1284 C 1.07273 0.71303 0.79206
 C1285 C 1.03566 0.72248 0.77092
 C1286 C 1.02642 0.71845 0.75808
 H1287 H 1.09221 0.67847 0.78780
 H1288 H 1.06602 0.67792 0.77517
 H1289 H 1.04337 0.69162 0.76523
 H1290 H 1.05834 0.73294 0.78950
 H1291 H 1.08092 0.71942 0.79916
 H1292 H 1.03348 0.73342 0.77673
 H1293 H 1.09295 0.70285 0.81455
 H1294 H 1.02860 0.70799 0.75148
 C1295 C 1.10906 0.20040 0.31501
 C1296 C 1.09758 0.19470 0.30502
 C1297 C 1.08366 0.20375 0.30064
 C1298 C 1.07596 0.20012 0.28661
 C1299 C 1.06282 0.20835 0.28201
 C1300 C 1.05683 0.22025 0.29155
 C1301 C 1.06454 0.22390 0.30560
 C1302 C 1.07775 0.21569 0.31018
 C1303 C 1.04294 0.22931 0.28693
 C1304 C 1.03207 0.22371 0.27620
 H1305 H 1.09903 0.18337 0.29981
 H1306 H 1.08027 0.19102 0.27903
 H1307 H 1.05767 0.20549 0.27079
 H1308 H 1.06023 0.23302 0.31315
 H1309 H 1.08308 0.21857 0.32130
 H1310 H 1.04131 0.24069 0.29197
 H1311 H 1.10815 0.21199 0.31966
 H1312 H 1.03319 0.21210 0.27164
 C1313 C 0.60798 0.31367 0.69941
 C1314 C 0.59996 0.30022 0.69537
 C1315 C 0.58648 0.29448 0.70457
 C1316 C 0.57525 0.28528 0.69711
 C1317 C 0.56229 0.27989 0.70543
 C1318 C 0.56044 0.28342 0.72152
 C1319 C 0.57172 0.29255 0.72895
 C1320 C 0.58464 0.29793 0.72065
 C1321 C 0.54698 0.27808 0.73097
 C1322 C 0.53661 0.26660 0.72621
 H1323 H 0.60316 0.29412 0.68473
 H1324 H 0.57636 0.28251 0.68473
 H1325 H 0.55371 0.27324 0.69910
 H1326 H 0.57057 0.29549 0.74130
 H1327 H 0.59322 0.30462 0.72696
 H1328 H 0.54555 0.28299 0.74261
 H1329 H 0.60407 0.32056 0.70928
 H1330 H 0.53810 0.26074 0.71509
 C1331 C 0.59890 0.81070 0.19774
 C1332 C 0.59017 0.79805 0.19270
 C1333 C 0.57579 0.79304 0.20089
 C1334 C 0.56497 0.78379 0.19287
 C1335 C 0.55126 0.77900 0.20031
 C1336 C 0.54820 0.78332 0.21598
 C1337 C 0.55905 0.79247 0.22398
 C1338 C 0.57275 0.79712 0.21664
 C1339 C 0.53396 0.77862 0.22447
 C1340 C 0.52555 0.76527 0.22100
 H1341 H 0.59378 0.79181 0.18227
 H1342 H 0.56705 0.78042 0.18077
 H1343 H 0.54303 0.77215 0.19369
 H1344 H 0.55703 0.79583 0.23610
 H1345 H 0.58098 0.80367 0.22354
 H1346 H 0.53079 0.78522 0.23483
 H1347 H 0.59495 0.81762 0.20754
 H1348 H 0.52902 0.75791 0.21132
 C1349 C 1.09891 0.30700 0.19077
 C1350 C 1.09411 0.30830 0.20636
 C1351 C 1.08119 0.29870 0.21256
 C1352 C 1.07207 0.30427 0.22496
 C1353 C 1.05950 0.29560 0.23062
 C1354 C 1.05583 0.28109 0.22396
 C1355 C 1.06538 0.27530 0.21198
 C1356 C 1.07793 0.28394 0.20638
 C1357 C 1.04255 0.27144 0.22937
 C1358 C 1.03095 0.27681 0.23937
 H1359 H 1.09965 0.31664 0.21403
 H1360 H 1.07454 0.31546 0.23015
 H1361 H 1.05292 0.30037 0.24028
 H1362 H 1.06311 0.26403 0.20690
 H1363 H 1.08515 0.27890 0.19731
 H1364 H 1.04195 0.25954 0.22541
 H1365 H 1.09265 0.29937 0.18292
 H1366 H 1.03104 0.28864 0.24344
 C1367 C 1.10403 0.80845 0.69941
 C1368 C 1.09396 0.79767 0.69270
 C1369 C 1.07947 0.79254 0.70061
 C1370 C 1.06734 0.78645 0.69151
 C1371 C 1.05350 0.78158 0.69861
 C1372 C 1.05159 0.78255 0.71505
 C1373 C 1.06372 0.78865 0.72412
 C1374 C 1.07754 0.79345 0.71704
 C1375 C 1.03734 0.77723 0.72324
 C1376 C 1.02713 0.76633 0.71696
 H1377 H 1.09638 0.79338 0.68098
 H1378 H 1.06852 0.78561 0.67883
 H1379 H 1.04431 0.77729 0.69114
 H1380 H 1.06260 0.78944 0.73680
 H1381 H 1.08674 0.79759 0.72458
 H1382 H 1.03551 0.78109 0.73523
 H1383 H 1.10117 0.81369 0.71059
 H1384 H 1.02911 0.76164 0.70533
 C1385 C 0.40333 0.68895 0.69749
 C1386 C 0.41107 0.70254 0.69343
 C1387 C 0.42498 0.70818 0.70190
 C1388 C 0.43529 0.71813 0.69408
 C1389 C 0.44846 0.72384 0.70170
 C1390 C 0.45146 0.71989 0.71748
 C1391 C 0.44123 0.70981 0.72526
 C1392 C 0.42807 0.70408 0.71762
 C1393 C 0.46494 0.72620 0.72620
 C1394 C 0.47199 0.74020 0.72222
 H1395 H 0.40731 0.70889 0.68314
 H1396 H 0.43322 0.72141 0.68196
 H1397 H 0.45629 0.73119 0.69511
 H1398 H 0.44324 0.70662 0.73742
 H1399 H 0.42021 0.69676 0.72422
 H1400 H 0.46857 0.72034 0.73684
 H1401 H 0.40766 0.68181 0.70695
 H1402 H 0.46772 0.74683 0.71235
 C1403 C 0.39899 0.18770 0.20509
 C1404 C 0.40905 0.19897 0.19921
 C1405 C 0.42250 0.20526 0.20790
 C1406 C 0.42871 0.21945 0.20295
 C1407 C 0.44135 0.22600 0.21068
 C1408 C 0.44829 0.21836 0.22344
 C1409 C 0.44204 0.20421 0.22853
 C1410 C 0.42932 0.19763 0.22078
 C1411 C 0.46169 0.22518 0.23185
 C1412 C 0.47182 0.23551 0.22451
 H1413 H 0.40650 0.20418 0.18794
 H1414 H 0.42361 0.22562 0.19315
 H1415 H 0.44539 0.23721 0.20677
 H1416 H 0.44713 0.19816 0.23839
 H1417 H 0.42507 0.18654 0.22479
 H1418 H 0.46357 0.22206 0.24405
 H1419 H 0.40089 0.18263 0.21655
 H1420 H 0.47062 0.23790 0.21207
 C1421 C -0.09732 0.68708 0.20272
 C1422 C -0.08893 0.69975 0.19704
 C1423 C -0.07482 0.70586 0.20479
 C1424 C -0.06988 0.72096 0.20131
 C1425 C -0.05660 0.72714 0.20837
 C1426 C -0.04790 0.71824 0.21902
 C1427 C -0.05270 0.70304 0.22223
 C1428 C -0.06595 0.69687 0.21518
 C1429 C -0.03398 0.72420 0.22729
 C1430 C -0.02771 0.73901 0.22543
 H1431 H -0.09300 0.70569 0.18664
 H1432 H -0.07641 0.72806 0.19321
 H1433 H -0.05340 0.73887 0.20545
 H1434 H -0.04617 0.69585 0.23026
 H1435 H -0.06899 0.68501 0.21776
 H1436 H -0.02855 0.71652 0.23569
 H1437 H -0.09403 0.68155 0.21361
 H1438 H -0.03253 0.74710 0.21711
 C1439 C -0.10302 0.18650 0.69920
 C1440 C -0.09393 0.19847 0.69303
 C1441 C -0.07978 0.20446 0.70096
 C1442 C -0.07439 0.21940 0.69735
 C1443 C -0.06130 0.22553 0.70489
 C1444 C -0.05324 0.21676 0.71612
 C1445 C -0.05838 0.20168 0.71941
 C1446 C -0.07143 0.19556 0.71189
 C1447 C -0.03972 0.22299 0.72483
 C1448 C -0.03385 0.23784 0.72259
 H1449 H -0.09767 0.20417 0.68236
 H1450 H -0.08045 0.22644 0.68883
 H1451 H -0.05759 0.23715 0.70202
 H1452 H -0.05230 0.19458 0.72789
 H1453 H -0.07479 0.18380 0.71459
 H1454 H -0.03445 0.21574 0.73371
 H1455 H -0.10000 0.18131 0.71035
 H1456 H -0.02665 0.24130 0.72808
 C1457 C 0.31573 0.39803 0.30119
 C1458 C 0.30321 0.40706 0.30596
 C1459 C 0.29746 0.42048 0.29695
 C1460 C 0.28811 0.43135 0.30467
 C1461 C 0.28198 0.44392 0.29648
 C1462 C 0.28493 0.44573 0.28029
 C1463 C 0.29442 0.43494 0.27262
 C1464 C 0.30055 0.42239 0.28081
 C1465 C 0.27833 0.45852 0.27092
 C1466 C 0.26560 0.46730 0.27563
 H1467 H 0.29749 0.40443 0.31700
 H1468 H 0.28556 0.43013 0.31710
 H1469 H 0.27506 0.45215 0.30296
 H1470 H 0.29686 0.43605 0.26015
 H1471 H 0.30735 0.41407 0.27430
 H1472 H 0.28316 0.46048 0.25929
 H1473 H 0.32240 0.40111 0.29086
 H1474 H 0.26005 0.46531 0.28687
 C1475 C 0.31721 -0.10119 0.80295
 C1476 C 0.30216 -0.09543 0.80351
 C1477 C 0.29728 -0.08244 0.79338
 C1478 C 0.28594 -0.07220 0.79885
 C1479 C 0.28138 -0.05962 0.78966
 C1480 C 0.28786 -0.05723 0.77459
 C1481 C 0.29906 -0.06764 0.76908
 C1482 C 0.30369 -0.08014 0.77832
 C1483 C 0.28346 -0.04408 0.76433
 C1484 C 0.27049 -0.03488 0.76698
 H1485 H 0.29397 -0.09995 0.81204
 H1486 H 0.28084 -0.07376 0.81041
 H1487 H 0.27299 -0.05178 0.79463
 H1488 H 0.30419 -0.06616 0.75752
 H1489 H 0.31213 -0.08809 0.77354
 H1490 H 0.29048 -0.04182 0.75398
 H1491 H 0.32565 -0.09561 0.79537
 H1492 H 0.26286 -0.03718 0.77681
 C1493 C 0.80760 0.39955 0.80568
 C1494 C 0.79450 0.40740 0.81113
 C1495 C 0.78809 0.42106 0.80282
 C1496 C 0.77897 0.43172 0.81117
 C1497 C 0.77341 0.44510 0.80380
 C1498 C 0.77684 0.44796 0.78786
 C1499 C 0.78558 0.43710 0.77946
 C1500 C 0.79098 0.42373 0.78674
 C1501 C 0.77196 0.46214 0.77951
 C1502 C 0.75944 0.47140 0.78387
 H1503 H 0.78926 0.40405 0.82222
 H1504 H 0.77643 0.42986 0.82352
 H1505 H 0.76683 0.45328 0.81071
 H1506 H 0.78822 0.43894 0.76712
 H1507 H 0.79732 0.41555 0.77962
 H1508 H 0.77799 0.46482 0.76863
 H1509 H 0.81337 0.40351 0.79511
 H1510 H 0.75264 0.46870 0.79423
 C1511 C 0.81146 -0.10648 0.29909
 C1512 C 0.79861 -0.09774 0.30357
 C1513 C 0.79326 -0.08433 0.29413
 C1514 C 0.78503 -0.07237 0.30150
 C1515 C 0.78023 -0.05942 0.29290
 C1516 C 0.78346 -0.05829 0.27668
 C1517 C 0.79150 -0.07034 0.26931
 C1518 C 0.79620 -0.08328 0.27785
 C1519 C 0.77896 -0.04472 0.26708
 C1520 C 0.76670 -0.03496 0.27094
 H1521 H 0.79276 -0.10028 0.31457
 H1522 H 0.78257 -0.07291 0.31400
 H1523 H 0.77433 -0.05023 0.29908
 H1524 H 0.79404 -0.06982 0.25682
 H1525 H 0.80195 -0.09249 0.27155
 H1526 H 0.78496 -0.04291 0.25601
 H1527 H 0.81796 -0.10307 0.28873
 H1528 H 0.75982 -0.03714 0.28138
 C1529 C 0.31768 0.60330 0.69493
 C1530 C 0.30432 0.59568 0.68995
 C1531 C 0.29838 0.58150 0.69765
 C1532 C 0.28908 0.57134 0.68892
 C1533 C 0.28314 0.55789 0.69579
 C1534 C 0.28614 0.55449 0.71170
 C1535 C 0.29555 0.56460 0.72039
 C1536 C 0.30155 0.57802 0.71349
 C1537 C 0.27946 0.54076 0.71967
 C1538 C 0.26606 0.53338 0.71438
 H1539 H 0.29844 0.59972 0.67949
 H1540 H 0.28651 0.57374 0.67669
 H1541 H 0.27633 0.55021 0.68851
 H1542 H 0.29801 0.56228 0.73267
 H1543 H 0.30834 0.58577 0.72074
 H1544 H 0.28442 0.53720 0.73080
 H1545 H 0.32440 0.59871 0.70458
 H1546 H 0.26025 0.53742 0.70391
 C1547 C 0.30843 1.10753 0.19521
 C1548 C 0.29623 1.09914 0.18860
 C1549 C 0.28979 1.08502 0.19619
 C1550 C 0.28186 1.07408 0.18701
 C1551 C 0.27565 1.06068 0.19388
 C1552 C 0.27708 1.05807 0.21019
 C1553 C 0.28501 1.06903 0.21932
 C1554 C 0.29116 1.08239 0.21248
 C1555 C 0.27048 1.04429 0.21823
 C1556 C 0.25888 1.03490 0.21187
 H1557 H 0.29154 1.10277 0.17739
 H1558 H 0.28061 1.07582 0.17445
 H1559 H 0.26993 1.05241 0.18632
 H1560 H 0.28624 1.06739 0.23190
 H1561 H 0.29669 1.09073 0.22013
 H1562 H 0.27419 1.04205 0.23020
 H1563 H 0.31391 1.10336 0.20582
 H1564 H 0.25442 1.03716 0.20022
 C1565 C 0.81576 0.60057 0.19990
 C1566 C 0.80229 0.59323 0.19467
 C1567 C 0.79602 0.57891 0.20197
 C1568 C 0.78604 0.56946 0.19315
 C1569 C 0.77977 0.55593 0.19964
 C1570 C 0.78318 0.55168 0.21524
 C1571 C 0.79326 0.56107 0.22402
 C1572 C 0.79953 0.57459 0.21754
 C1573 C 0.77640 0.53771 0.22280
 C1574 C 0.76265 0.53080 0.21774
 H1575 H 0.79651 0.59768 0.18434
 H1576 H 0.78317 0.57248 0.18113
 H1577 H 0.77242 0.54883 0.19228
 H1578 H 0.79606 0.55810 0.23607
 H1579 H 0.80683 0.58172 0.22491
 H1580 H 0.78174 0.53349 0.23350
 H1581 H 0.82233 0.59566 0.20948
 H1582 H 0.75651 0.53547 0.20774
 C1583 C 0.81009 1.09821 0.69350
 C1584 C 0.81385 1.09086 0.70758
 C1585 C 0.80533 1.07699 0.71323
 C1586 C 0.81242 1.06688 0.72391
 C1587 C 0.80456 1.05371 0.72938
 C1588 C 0.78935 1.05053 0.72431
 C1589 C 0.78225 1.06074 0.71376
 C1590 C 0.79004 1.07387 0.70841
 C1591 C 0.78042 1.03678 0.72945
 C1592 C 0.78359 1.02813 0.74293
 H1593 H 0.82334 1.09529 0.71461
 H1594 H 0.82415 1.06907 0.72789
 H1595 H 0.81052 1.04599 0.73731
 H1596 H 0.77051 1.05864 0.70978
 H1597 H 0.78385 1.08165 0.70072
 H1598 H 0.77015 1.03389 0.72272
 H1599 H 0.80135 1.09325 0.68589
 H1600 H 0.79329 1.03106 0.75041
 C1601 C 0.68332 0.60236 0.29811
 C1602 C 0.69597 0.59356 0.30286
 C1603 C 0.70121 0.57998 0.29364
 C1604 C 0.70913 0.56794 0.30118
 C1605 C 0.71378 0.55483 0.29272
 C1606 C 0.71069 0.55364 0.27649
 C1607 C 0.70301 0.56579 0.26896
 C1608 C 0.69848 0.57887 0.27734
 C1609 C 0.71508 0.54000 0.26698
 C1610 C 0.72712 0.53005 0.27091
 H1611 H 0.70184 0.59636 0.31375
 H1612 H 0.71147 0.56855 0.31369
 H1613 H 0.71947 0.54559 0.29900
 H1614 H 0.70065 0.56524 0.25645
 H1615 H 0.69301 0.58815 0.27092
 H1616 H 0.70934 0.53843 0.25576
 H1617 H 0.67673 0.59886 0.28788
 H1618 H 0.73377 0.53192 0.28152
 C1619 C 0.68723 1.10269 0.79897
 C1620 C 0.69937 1.09311 0.80378
 C1621 C 0.70481 1.07913 0.79524
 C1622 C 0.71797 1.07155 0.80103
 C1623 C 0.72373 1.05835 0.79363
 C1624 C 0.71634 1.05223 0.78026
 C1625 C 0.70330 1.05989 0.77427
 C1626 C 0.69751 1.07315 0.78170
 C1627 C 0.72238 1.03835 0.77203
 C1628 C 0.73174 1.02746 0.77949
 H1629 H 0.70559 1.09606 0.81441
 H1630 H 0.72397 1.07593 0.81131
 H1631 H 0.73417 1.05325 0.79829
 H1632 H 0.69751 1.05553 0.76387
 H1633 H 0.68736 1.07853 0.77676
 H1634 H 0.71951 1.03675 0.75972
 H1635 H 0.68090 1.10012 0.78833
 H1636 H 0.73395 1.02841 0.79198
 C1637 C 0.18320 0.60572 0.79497
 C1638 C 0.19567 0.59653 0.79947
 C1639 C 0.20092 0.58311 0.78999
 C1640 C 0.20912 0.57117 0.79736
 C1641 C 0.21413 0.55832 0.78874
 C1642 C 0.21118 0.55728 0.77248
 C1643 C 0.20303 0.56924 0.76512
 C1644 C 0.19807 0.58208 0.77370
 C1645 C 0.21631 0.54395 0.76283
 C1646 C 0.22889 0.53471 0.76684
 H1647 H 0.20137 0.59881 0.81058
 H1648 H 0.21146 0.57167 0.80987
 H1649 H 0.22006 0.54917 0.79493
 H1650 H 0.20069 0.56876 0.75260
 H1651 H 0.19227 0.59125 0.76743
 H1652 H 0.21061 0.54199 0.75164
 H1653 H 0.17670 0.60284 0.78450
 H1654 H 0.23541 0.53712 0.77743
 C1655 C 0.19017 1.10490 0.30572
 C1656 C 0.18355 1.09717 0.29296
 C1657 C 0.19039 1.08274 0.28654
 C1658 C 0.18801 1.07875 0.27070
 C1659 C 0.19497 1.06554 0.26427
 C1660 C 0.20433 1.05597 0.27369
 C1661 C 0.20626 1.05973 0.28962
 C1662 C 0.19928 1.07283 0.29602
 C1663 C 0.21300 1.04255 0.26739
 C1664 C 0.21006 1.03531 0.25300
 H1665 H 0.17347 1.10201 0.28725
 H1666 H 0.18108 1.08609 0.26318
 H1667 H 0.19334 1.06316 0.25189
 H1668 H 0.21329 1.05252 0.29718
 H1669 H 0.20088 1.07508 0.30844
 H1670 H 0.22230 1.03807 0.27462
 H1671 H 0.20088 1.10070 0.31068
 H1672 H 0.20033 1.03876 0.24584
 C1673 C 0.69797 0.39951 0.68822
 C1674 C 0.69591 0.40580 0.70318
 C1675 C 0.70423 0.41981 0.70865
 C1676 C 0.69784 0.42842 0.72103
 C1677 C 0.70518 0.44182 0.72644
 C1678 C 0.71916 0.44693 0.71954
 C1679 C 0.72576 0.43808 0.70744
 C1680 C 0.71841 0.42467 0.70203
 C1681 C 0.72753 0.46087 0.72517
 C1682 C 0.72061 0.47238 0.73426
 H1683 H 0.68719 0.40083 0.71088
 H1684 H 0.68707 0.42480 0.72652
 H1685 H 0.69997 0.44789 0.73622
 H1686 H 0.73669 0.44154 0.70216
 H1687 H 0.72404 0.41806 0.69287
 H1688 H 0.73971 0.46201 0.72221
 H1689 H 0.70590 0.40489 0.67999
 H1690 H 0.70834 0.47191 0.73686
 C1691 C 0.68216 -0.10230 0.19760
 C1692 C 0.69410 -0.09308 0.19166
 C1693 C 0.69940 -0.07862 0.19933
 C1694 C 0.70846 -0.06818 0.19061
 C1695 C 0.71419 -0.05468 0.19755
 C1696 C 0.71112 -0.05145 0.21349
 C1697 C 0.70181 -0.06172 0.22213
 C1698 C 0.69611 -0.07523 0.21521
 C1699 C 0.71780 -0.03785 0.22161
 C1700 C 0.73174 -0.03106 0.21694
 H1701 H 0.69976 -0.09649 0.18081
 H1702 H 0.71115 -0.07049 0.17837
 H1703 H 0.72097 -0.04683 0.19037
 H1704 H 0.69932 -0.05951 0.23443
 H1705 H 0.68955 -0.08310 0.22254
 H1706 H 0.71252 -0.03417 0.23257
 H1707 H 0.67580 -0.09878 0.20796
 H1708 H 0.73779 -0.03531 0.20666
 C1709 C 0.19596 0.38832 0.18972
 C1710 C 0.19058 0.39817 0.20154
 C1711 C 0.19935 0.41209 0.20668
 C1712 C 0.19136 0.42446 0.21362
 C1713 C 0.19928 0.43786 0.21831
 C1714 C 0.21545 0.43905 0.21632
 C1715 C 0.22343 0.42662 0.20954
 C1716 C 0.21554 0.41325 0.20489
 C1717 C 0.22443 0.45298 0.22098
 C1718 C 0.21931 0.46377 0.23203
 H1719 H 0.17922 0.39612 0.20660
 H1720 H 0.17891 0.42386 0.21518
 H1721 H 0.19263 0.44728 0.22319
 H1722 H 0.23589 0.42718 0.20797
 H1723 H 0.22224 0.40380 0.20012
 H1724 H 0.23604 0.45426 0.21622
 H1725 H 0.20673 0.39096 0.18375
 H1726 H 0.20818 0.46230 0.23774
 C1727 C 0.18362 -0.10114 0.69523
 C1728 C 0.19554 -0.09199 0.68918
 C1729 C 0.20079 -0.07743 0.69667
 C1730 C 0.20957 -0.06694 0.68772
 C1731 C 0.21555 -0.05352 0.69458
 C1732 C 0.21306 -0.05044 0.71065
 C1733 C 0.20391 -0.06068 0.71949
 C1734 C 0.19793 -0.07411 0.71264
 C1735 C 0.22033 -0.03708 0.71864
 C1736 C 0.23454 -0.03104 0.71377
 H1737 H 0.20131 -0.09558 0.67845
 H1738 H 0.21190 -0.06919 0.67539
 H1739 H 0.22215 -0.04564 0.68727
 H1740 H 0.20184 -0.05856 0.73189
 H1741 H 0.19157 -0.08204 0.72009
 H1742 H 0.21530 -0.03306 0.72960
 H1743 H 0.17704 -0.09731 0.70534
 H1744 H 0.24030 -0.03578 0.70352
 C1745 C 0.29879 0.31694 0.39499
 C1746 C 0.30282 0.30491 0.40507
 C1747 C 0.29324 0.30068 0.41891
 C1748 C 0.30030 0.29350 0.43183
 C1749 C 0.29160 0.28956 0.44516
 C1750 C 0.27558 0.29254 0.44571
 C1751 C 0.26854 0.29970 0.43280
 C1752 C 0.27721 0.30361 0.41947
 C1753 C 0.26582 0.28829 0.45941
 C1754 C 0.26964 0.27641 0.46975
 H1755 H 0.31373 0.29900 0.40332
 H1756 H 0.31262 0.29113 0.43169
 H1757 H 0.29755 0.28442 0.45504
 H1758 H 0.25621 0.30205 0.43290
 H1759 H 0.27123 0.30867 0.40958
 H1760 H 0.25463 0.29382 0.46062
 H1761 H 0.28855 0.32372 0.39738
 H1762 H 0.28025 0.26998 0.46814
 C1763 C 0.30350 0.80977 -0.11030
 C1764 C 0.30911 0.79831 -0.10024
 C1765 C 0.29991 0.79173 -0.08703
 C1766 C 0.30763 0.78403 -0.07480
 C1767 C 0.29935 0.77777 -0.06209
 C1768 C 0.28310 0.77897 -0.06145
 C1769 C 0.27539 0.78655 -0.07373
 C1770 C 0.28364 0.79275 -0.08643
 C1771 C 0.27372 0.77279 -0.04820
 C1772 C 0.27878 0.76153 -0.03763
 H1773 H 0.32092 0.79438 -0.10171
 H1774 H 0.32014 0.78304 -0.07497
 H1775 H 0.30577 0.77228 -0.05273
 H1776 H 0.26288 0.78756 -0.07359
 H1777 H 0.27712 0.79809 -0.09580
 H1778 H 0.26187 0.77681 -0.04721
 H1779 H 0.29208 0.81453 -0.10848
 H1780 H 0.29023 0.75659 -0.03874
 C1781 C 0.80859 0.30721 -0.10983
 C1782 C 0.79821 0.31362 -0.09904
 C1783 C 0.79325 0.30550 -0.08452
 C1784 C 0.77911 0.30945 -0.07741
 C1785 C 0.77418 0.30207 -0.06360
 C1786 C 0.78346 0.29068 -0.05650
 C1787 C 0.79773 0.28698 -0.06350
 C1788 C 0.80261 0.29430 -0.07730
 C1789 C 0.77871 0.28196 -0.04223
 C1790 C 0.76487 0.28407 -0.03394
 H1791 H 0.79320 0.32482 -0.10145
 H1792 H 0.77176 0.31816 -0.08267
 H1793 H 0.76309 0.30532 -0.05872
 H1794 H 0.80518 0.27833 -0.05829
 H1795 H 0.81383 0.29132 -0.08210
 H1796 H 0.78640 0.27285 -0.03835
 H1797 H 0.81263 0.29549 -0.10827
 H1798 H 0.75698 0.29327 -0.03694
 C1799 C 0.81241 0.80763 0.39298
 C1800 C 0.79842 0.81134 0.40032
 C1801 C 0.79251 0.80273 0.41423
 C1802 C 0.77652 0.80238 0.41733
 C1803 C 0.77058 0.79374 0.42995
 C1804 C 0.78060 0.78541 0.43986
 C1805 C 0.79660 0.78616 0.43700
 C1806 C 0.80252 0.79478 0.42445
 C1807 C 0.77502 0.77538 0.45289
 C1808 C 0.75999 0.77549 0.45906
 H1809 H 0.79120 0.82026 0.39527
 H1810 H 0.76857 0.80852 0.40974
 H1811 H 0.75816 0.79339 0.43159
 H1812 H 0.80461 0.77998 0.44451
 H1813 H 0.81496 0.79523 0.42291
 H1814 H 0.78335 0.76752 0.45805
 H1815 H 0.81921 0.79807 0.39732
 H1816 H 0.75148 0.78359 0.45478
 C1817 C 0.69333 0.31472 0.60346
 C1818 C 0.69362 0.29934 0.59863
 C1819 C 0.70441 0.29424 0.58607
 C1820 C 0.69987 0.28264 0.57550
 C1821 C 0.70965 0.27828 0.56309
 C1822 C 0.72436 0.28525 0.56120
 C1823 C 0.72898 0.29658 0.57206
 C1824 C 0.71919 0.30098 0.58437
 C1825 C 0.73513 0.28133 0.54811
 C1826 C 0.73335 0.26847 0.53835
 H1827 H 0.68536 0.29116 0.60350
 H1828 H 0.68857 0.27724 0.57660
 H1829 H 0.70540 0.26969 0.55493
 H1830 H 0.74025 0.30207 0.57102
 H1831 H 0.72327 0.30962 0.59261
 H1832 H 0.74520 0.28867 0.54636
 H1833 H 0.70067 0.32301 0.59744
 H1834 H 0.72382 0.26052 0.54016
 C1835 C 0.69035 0.80858 1.10859
 C1836 C 0.68610 0.79458 1.10164
 C1837 C 0.69487 0.78751 1.08847
 C1838 C 0.68754 0.77644 1.07893
 C1839 C 0.69549 0.76951 1.06641
 C1840 C 0.71104 0.77345 1.06333
 C1841 C 0.71838 0.78443 1.07295
 C1842 C 0.71047 0.79129 1.08545
 C1843 C 0.72001 0.76677 1.05012
 C1844 C 0.71609 0.75317 1.04215
 H1845 H 0.67574 0.78870 1.10572
 H1846 H 0.67555 0.77328 1.08105
 H1847 H 0.68933 0.76133 1.05911
 H1848 H 0.73037 0.78762 1.07088
 H1849 H 0.71676 0.79934 1.09280
 H1850 H 0.73072 0.77259 1.04696
 H1851 H 0.70006 0.81513 1.10402
 H1852 H 0.70590 0.74658 1.04540
 C1853 C 0.18480 0.29693 1.10329
 C1854 C 0.19989 0.29773 1.09750
 C1855 C 0.20545 0.28829 1.08405
 C1856 C 0.21872 0.29321 1.07594
 C1857 C 0.22439 0.28479 1.06318
 C1858 C 0.21682 0.27122 1.05809
 C1859 C 0.20384 0.26597 1.06653
 C1860 C 0.19816 0.27441 1.07937
 C1861 C 0.22262 0.26222 1.04442
 C1862 C 0.23132 0.26923 1.03257
 H1863 H 0.20786 0.30600 1.10264
 H1864 H 0.22474 0.30367 1.07947
 H1865 H 0.23487 0.28889 1.05753
 H1866 H 0.19802 0.25537 1.06311
 H1867 H 0.18824 0.26986 1.08567
 H1868 H 0.22020 0.24993 1.04380
 H1869 H 0.17647 0.28923 1.09789
 H1870 H 0.23301 0.28163 1.03276
 C1871 C 0.19228 0.81000 0.60690
 C1872 C 0.18679 0.79694 0.59899
 C1873 C 0.19428 0.79027 0.58480
 C1874 C 0.18589 0.77960 0.57570
 C1875 C 0.19259 0.77264 0.56250
 C1876 C 0.20800 0.77605 0.55820
 C1877 C 0.21633 0.78687 0.56717
 C1878 C 0.20963 0.79384 0.58037
 C1879 C 0.21584 0.76857 0.54464
 C1880 C 0.21077 0.75477 0.53781
 H1881 H 0.17633 0.79137 0.60324
 H1882 H 0.17406 0.77665 0.57881
 H1883 H 0.18557 0.76472 0.55571
 H1884 H 0.22820 0.78973 0.56413
 H1885 H 0.21669 0.80169 0.58719
 H1886 H 0.22661 0.77364 0.54050
 H1887 H 0.20228 0.81622 0.60253
 H1888 H 0.20046 0.74901 0.54213
 C1889 C 0.31329 0.69598 0.60831
 C1890 C 0.30074 0.68975 0.60006
 C1891 C 0.29346 0.69713 0.58614
 C1892 C 0.28391 0.68808 0.57643
 C1893 C 0.27650 0.69453 0.56338
 C1894 C 0.27831 0.71034 0.55985
 C1895 C 0.28799 0.71937 0.56946
 C1896 C 0.29542 0.71290 0.58251
 C1897 C 0.27041 0.71777 0.54630
 C1898 C 0.25730 0.71156 0.53896
 H1899 H 0.29626 0.67857 0.60363
 H1900 H 0.28222 0.67590 0.57890
 H1901 H 0.26955 0.68701 0.55607
 H1902 H 0.28962 0.73156 0.56701
 H1903 H 0.30240 0.72039 0.58983
 H1904 H 0.27460 0.72899 0.54249
 H1905 H 0.31862 0.70667 0.60446
 H1906 H 0.25230 0.70083 0.54312
 C1907 C 0.31872 0.20269 1.11006
 C1908 C 0.30494 0.20013 1.10192
 C1909 C 0.30002 0.20915 1.08792
 C1910 C 0.28674 0.20423 1.07983
 C1911 C 0.28174 0.21198 1.06638
 C1912 C 0.29002 0.22484 1.06057
 C1913 C 0.30295 0.23016 1.06893
 C1914 C 0.30797 0.22240 1.08244
 C1915 C 0.28508 0.23300 1.04610
 C1916 C 0.27703 0.22533 1.03425
 H1917 H 0.29745 0.19080 1.10580
 H1918 H 0.28019 0.19429 1.08391
 H1919 H 0.27126 0.20796 1.06072
 H1920 H 0.30932 0.24023 1.06488
 H1921 H 0.31802 0.22695 1.08842
 H1922 H 0.28764 0.24522 1.04486
 H1923 H 0.32660 0.21175 1.10647
 H1924 H 0.27513 0.21299 1.03516
 C1925 C 0.81705 0.69313 1.11255
 C1926 C 0.80229 0.69018 1.10657
 C1927 C 0.79571 0.69830 1.09276
 C1928 C 0.78270 0.69184 1.08536
 C1929 C 0.77607 0.69898 1.07228
 C1930 C 0.78239 0.71279 1.06622
 C1931 C 0.79517 0.71947 1.07384
 C1932 C 0.80178 0.71234 1.08698
 C1933 C 0.77562 0.72082 1.05245
 C1934 C 0.76561 0.71364 1.04183
 H1935 H 0.79541 0.68106 1.11184
 H1936 H 0.77761 0.68119 1.08972
 H1937 H 0.76585 0.69371 1.06723
 H1938 H 0.80007 0.73025 1.06962
 H1939 H 0.81145 0.71806 1.09260
 H1940 H 0.77862 0.73287 1.05063
 H1941 H 0.82445 0.70173 1.10714
 H1942 H 0.76292 0.70148 1.04295
 C1943 C 0.80896 0.18456 0.60661
 C1944 C 0.81492 0.19644 0.59729
 C1945 C 0.80709 0.20216 0.58288
 C1946 C 0.81550 0.21142 0.57229
 C1947 C 0.80839 0.21754 0.55890
 C1948 C 0.79263 0.21458 0.55589
 C1949 C 0.78430 0.20506 0.56625
 C1950 C 0.79135 0.19904 0.57968
 C1951 C 0.78447 0.22149 0.54234
 C1952 C 0.78845 0.23596 0.53633
 H1953 H 0.82586 0.20171 0.60056
 H1954 H 0.82763 0.21397 0.57440
 H1955 H 0.81527 0.22451 0.55092
 H1956 H 0.77214 0.20265 0.56418
 H1957 H 0.78422 0.19234 0.58764
 H1958 H 0.77409 0.21580 0.53807
 H1959 H 0.79852 0.17854 0.60314
 H1960 H 0.79809 0.24232 0.54132
 C1961 C 0.68413 0.69206 0.38928
 C1962 C 0.69590 0.68594 0.39862
 C1963 C 0.70134 0.69363 0.41322
 C1964 C 0.71642 0.69083 0.41864
 C1965 C 0.72211 0.69840 0.43202
 C1966 C 0.71271 0.70889 0.44036
 C1967 C 0.69744 0.71123 0.43522
 C1968 C 0.69179 0.70368 0.42188
 C1969 C 0.71824 0.71800 0.45409
 C1970 C 0.73320 0.71741 0.46033
 H1971 H 0.70189 0.67565 0.39471
 H1972 H 0.72395 0.68298 0.41230
 H1973 H 0.73389 0.69607 0.43553
 H1974 H 0.68985 0.71908 0.44147
 H1975 H 0.67989 0.70570 0.41850
 H1976 H 0.71016 0.72613 0.45924
 H1977 H 0.67882 0.70292 0.39248
 H1978 H 0.74167 0.70938 0.45581
 C1979 C 0.70527 0.18376 -0.10707
 C1980 C 0.70259 0.19783 -0.09947
 C1981 C 0.71126 0.20351 -0.08549
 C1982 C 0.70623 0.21718 -0.07823
 C1983 C 0.71396 0.22317 -0.06514
 C1984 C 0.72695 0.21557 -0.05885
 C1985 C 0.73217 0.20203 -0.06623
 C1986 C 0.72442 0.19602 -0.07938
 C1987 C 0.73556 0.22186 -0.04511
 C1988 C 0.72874 0.23188 -0.03425
 H1989 H 0.69343 0.20516 -0.10389
 H1990 H 0.69629 0.22335 -0.08277
 H1991 H 0.70986 0.23395 -0.06026
 H1992 H 0.74226 0.19605 -0.06180
 H1993 H 0.72895 0.18563 -0.08468
 H1994 H 0.74754 0.21850 -0.04349
 H1995 H 0.71410 0.17597 -0.10290
 H1996 H 0.71652 0.23444 -0.03513
 C1997 C 0.18839 0.69135 -0.11011
 C1998 C 0.20120 0.68592 -0.10185
 C1999 C 0.20767 0.69470 -0.08835
 C2000 C 0.21509 0.68686 -0.07605
 C2001 C 0.22065 0.69499 -0.06292
 C2002 C 0.21901 0.71116 -0.06201
 C2003 C 0.21192 0.71896 -0.07450
 C2004 C 0.20645 0.71090 -0.08758
 C2005 C 0.22418 0.72041 -0.04830
 C2006 C 0.23508 0.71553 -0.03728
 H2007 H 0.20618 0.67484 -0.10489
 H2008 H 0.21627 0.67440 -0.07642
 H2009 H 0.22587 0.68851 -0.05343
 H2010 H 0.21065 0.73142 -0.07420
 H2011 H 0.20138 0.71745 -0.09710
 H2012 H 0.21982 0.73211 -0.04739
 H2013 H 0.18267 0.70177 -0.10617
 H2014 H 0.24034 0.70424 -0.03823
 C2015 C 0.19883 0.18496 0.40034
 C2016 C 0.19338 0.19724 0.40940
 C2017 C 0.20108 0.20297 0.42383
 C2018 C 0.19250 0.21216 0.43424
 C2019 C 0.19948 0.21868 0.44749
 C2020 C 0.21532 0.21634 0.45047
 C2021 C 0.22381 0.20671 0.44036
 C2022 C 0.21681 0.20015 0.42710
 C2023 C 0.22331 0.22406 0.46374
 C2024 C 0.21837 0.23824 0.46970
 H2025 H 0.18262 0.20272 0.40606
 H2026 H 0.18034 0.21440 0.43208
 H2027 H 0.19240 0.22554 0.45533
 H2028 H 0.23601 0.20467 0.44247
 H2029 H 0.22390 0.19333 0.41924
 H2030 H 0.23403 0.21915 0.46801
 H2031 H 0.20875 0.17835 0.40413
 H2032 H 0.20840 0.24390 0.46463
 C2033 C 0.31428 0.39662 0.69579
 C2034 C 0.30116 0.40440 0.69029
 C2035 C 0.29473 0.41864 0.69762
 C2036 C 0.28325 0.42695 0.68954
 C2037 C 0.27674 0.44032 0.69607
 C2038 C 0.28153 0.44563 0.71094
 C2039 C 0.29300 0.43734 0.71899
 C2040 C 0.29947 0.42398 0.71251
 C2041 C 0.27509 0.45966 0.71859
 C2042 C 0.26176 0.46752 0.71380
 H2043 H 0.29534 0.39996 0.67995
 H2044 H 0.27934 0.42311 0.67807
 H2045 H 0.26811 0.44645 0.68933
 H2046 H 0.29690 0.44112 0.73048
 H2047 H 0.30797 0.41789 0.71941
 H2048 H 0.28089 0.46362 0.72916
 H2049 H 0.32068 0.40101 0.70575
 H2050 H 0.25527 0.46377 0.70362
 C2051 C 0.29433 0.89642 0.17935
 C2052 C 0.29807 0.90619 0.19186
 C2053 C 0.28867 0.91989 0.19617
 C2054 C 0.29565 0.93189 0.20475
 C2055 C 0.28718 0.94500 0.20905
 C2056 C 0.27141 0.94628 0.20504
 C2057 C 0.26444 0.93427 0.19646
 C2058 C 0.27291 0.92118 0.19215
 C2059 C 0.26185 0.95983 0.20954
 C2060 C 0.26573 0.96996 0.22172
 H2061 H 0.30867 0.90416 0.19832
 H2062 H 0.30776 0.93120 0.20800
 H2063 H 0.29315 0.95411 0.21531
 H2064 H 0.25231 0.93491 0.19326
 H2065 H 0.26693 0.91202 0.18595
 H2066 H 0.25080 0.96131 0.20369
 H2067 H 0.28438 0.89889 0.17207
 H2068 H 0.27621 0.96822 0.22843
 C2069 C 0.80927 0.39772 0.18891
 C2070 C 0.79488 0.40355 0.18447
 C2071 C 0.78765 0.41665 0.19300
 C2072 C 0.77740 0.42655 0.18513
 C2073 C 0.77103 0.43938 0.19288
 C2074 C 0.77473 0.44238 0.20872
 C2075 C 0.78462 0.43220 0.21665
 C2076 C 0.79089 0.41943 0.20897
 C2077 C 0.76902 0.45602 0.21748
 C2078 C 0.75643 0.46514 0.21308
 H2079 H 0.78912 0.39892 0.17418
 H2080 H 0.77461 0.42457 0.17286
 H2081 H 0.76356 0.44702 0.18631
 H2082 H 0.78752 0.43412 0.22890
 H2083 H 0.79819 0.41173 0.21567
 H2084 H 0.77468 0.45858 0.22856
 H2085 H 0.81564 0.40325 0.19833
 H2086 H 0.74991 0.46258 0.20254
 C2087 C 0.80248 0.89501 0.68235
 C2088 C 0.80707 0.90285 0.69595
 C2089 C 0.79931 0.91705 0.70180
 C2090 C 0.80716 0.92661 0.71254
 C2091 C 0.80001 0.93976 0.71877
 C2092 C 0.78472 0.94354 0.71454
 C2093 C 0.77702 0.93422 0.70353
 C2094 C 0.78413 0.92106 0.69732
 C2095 C 0.77642 0.95693 0.72144
 C2096 C 0.78013 0.96315 0.73612
 H2097 H 0.81709 0.89873 0.70233
 H2098 H 0.81888 0.92389 0.71613
 H2099 H 0.80658 0.94696 0.72677
 H2100 H 0.76528 0.93692 0.69998
 H2101 H 0.77749 0.91390 0.68938
 H2102 H 0.76626 0.96120 0.71538
 H2103 H 0.79321 0.89954 0.67519
 H2104 H 0.78953 0.95830 0.74289
 C2105 C 0.68638 0.60677 0.69452
 C2106 C 0.70002 0.59882 0.69115
 C2107 C 0.70555 0.58597 0.70122
 C2108 C 0.71438 0.57408 0.69450
 C2109 C 0.71924 0.56152 0.70363
 C2110 C 0.71554 0.56076 0.71978
 C2111 C 0.70697 0.57283 0.72651
 C2112 C 0.70211 0.58534 0.71740
 C2113 C 0.72006 0.54759 0.72996
 C2114 C 0.73179 0.53715 0.72621
 H2115 H 0.70624 0.60137 0.68036
 H2116 H 0.71722 0.57432 0.68208
 H2117 H 0.72558 0.55237 0.69787
 H2118 H 0.70407 0.57262 0.73893
 H2119 H 0.69580 0.59454 0.72314
 H2120 H 0.71438 0.54651 0.74130
 H2121 H 0.67942 0.60334 0.70455
 H2122 H 0.73837 0.53845 0.71544
 C2123 C 0.69166 0.10622 0.19478
 C2124 C 0.70471 0.09800 0.18983
 C2125 C 0.71064 0.08414 0.19815
 C2126 C 0.72052 0.07394 0.19011
 C2127 C 0.72617 0.06064 0.19752
 C2128 C 0.72212 0.05735 0.21322
 C2129 C 0.71242 0.06765 0.22129
 C2130 C 0.70684 0.08094 0.21394
 C2131 C 0.72737 0.04328 0.22159
 C2132 C 0.73989 0.03411 0.21700
 H2133 H 0.71047 0.10146 0.17905
 H2134 H 0.72371 0.07616 0.17798
 H2135 H 0.73342 0.05289 0.19078
 H2136 H 0.70919 0.06546 0.23343
 H2137 H 0.69974 0.08870 0.22081
 H2138 H 0.72142 0.04041 0.23247
 H2139 H 0.68516 0.10243 0.20498
 H2140 H 0.74671 0.03705 0.20672
 C2141 C 0.18307 0.60139 0.19506
 C2142 C 0.19522 0.59196 0.19013
 C2143 C 0.19968 0.57766 0.19854
 C2144 C 0.20842 0.56646 0.19056
 C2145 C 0.21329 0.55306 0.19830
 C2146 C 0.20969 0.55073 0.21430
 C2147 C 0.20080 0.56184 0.22219
 C2148 C 0.19594 0.57521 0.21448
 C2149 C 0.21517 0.53716 0.22332
 C2150 C 0.22764 0.52798 0.21872
 H2151 H 0.20163 0.59503 0.17960
 H2152 H 0.21146 0.56806 0.17829
 H2153 H 0.21978 0.54463 0.19164
 H2154 H 0.19790 0.56036 0.23452
 H2155 H 0.18965 0.58372 0.22123
 H2156 H 0.20994 0.53509 0.23475
 H2157 H 0.17586 0.59795 0.20489
 H2158 H 0.23350 0.53001 0.20765
 C2159 C 0.19097 0.10316 0.69316
 C2160 C 0.20482 0.09652 0.68801
 C2161 C 0.21187 0.08299 0.69587
 C2162 C 0.22203 0.07345 0.68735
 C2163 C 0.22860 0.06039 0.69439
 C2164 C 0.22520 0.05675 0.71016
 C2165 C 0.21531 0.06648 0.71872
 C2166 C 0.20880 0.07950 0.71173
 C2167 C 0.23117 0.04280 0.71813
 C2168 C 0.24366 0.03386 0.71299
 H2169 H 0.21035 0.10091 0.67746
 H2170 H 0.22466 0.07596 0.67514
 H2171 H 0.23601 0.05308 0.68734
 H2172 H 0.21260 0.06401 0.73093
 H2173 H 0.20153 0.08684 0.71890
 H2174 H 0.22563 0.03971 0.72917
 H2175 H 0.18467 0.09815 0.70294
 H2176 H 0.25006 0.03688 0.70246
 C2177 C 0.29730 0.60163 0.31392
 C2178 C 0.30192 0.59316 0.30074
 C2179 C 0.29319 0.57961 0.29468
 C2180 C 0.30080 0.56900 0.28486
 C2181 C 0.29293 0.55613 0.27881
 C2182 C 0.27715 0.55372 0.28233
 C2183 C 0.26955 0.56437 0.29211
 C2184 C 0.27740 0.57721 0.29813
 C2185 C 0.26817 0.54033 0.27628
 C2186 C 0.27286 0.53092 0.26379
 H2187 H 0.31264 0.59624 0.29487
 H2188 H 0.31295 0.57060 0.28198
 H2189 H 0.29935 0.54810 0.27160
 H2190 H 0.25739 0.56285 0.29496
 H2191 H 0.27093 0.58532 0.30523
 H2192 H 0.25692 0.53817 0.28155
 H2193 H 0.28719 0.59813 0.32059
 H2194 H 0.28373 0.53301 0.25778
 C2195 C 0.30659 0.10206 0.80864
 C2196 C 0.31110 0.09357 0.79548
 C2197 C 0.30273 0.07956 0.78996
 C2198 C 0.30960 0.07041 0.77825
 C2199 C 0.30193 0.05740 0.77230
 C2200 C 0.28715 0.05319 0.77802
 C2201 C 0.28028 0.06236 0.78969
 C2202 C 0.28790 0.07540 0.79556
 C2203 C 0.27814 0.03998 0.77161
 C2204 C 0.28436 0.02885 0.76159
 H2205 H 0.32111 0.09743 0.78882
 H2206 H 0.32090 0.07343 0.77355
 H2207 H 0.30757 0.05103 0.76300
 H2208 H 0.26884 0.05953 0.79416
 H2209 H 0.28182 0.08225 0.80419
 H2210 H 0.26592 0.03926 0.77454
 H2211 H 0.29694 0.09829 0.81581
 H2212 H 0.29656 0.02892 0.75873
 C2213 C 0.82008 0.60432 0.80309
 C2214 C 0.80933 0.59352 0.80871
 C2215 C 0.80366 0.57990 0.79977
 C2216 C 0.79489 0.56874 0.80787
 C2217 C 0.78837 0.55621 0.79992
 C2218 C 0.79033 0.55461 0.78357
 C2219 C 0.79952 0.56544 0.77550
 C2220 C 0.80604 0.57806 0.78347
 C2221 C 0.78262 0.54201 0.77473
 C2222 C 0.76836 0.53594 0.77948
 H2223 H 0.80469 0.59505 0.82045
 H2224 H 0.79293 0.56980 0.82043
 H2225 H 0.78179 0.54780 0.80663
 H2226 H 0.80123 0.56442 0.76290
 H2227 H 0.81251 0.58646 0.77669
 H2228 H 0.78761 0.53833 0.76363
 H2229 H 0.82566 0.60272 0.79182
 H2230 H 0.76265 0.54058 0.78981
 C2231 C 0.79865 0.10200 0.31647
 C2232 C 0.80259 0.09379 0.30292
 C2233 C 0.79437 0.07979 0.29719
 C2234 C 0.80044 0.07219 0.28398
 C2235 C 0.79306 0.05920 0.27773
 C2236 C 0.77942 0.05337 0.28467
 C2237 C 0.77323 0.06101 0.29781
 C2238 C 0.78061 0.07407 0.30406
 C2239 C 0.77096 0.03995 0.27799
 C2240 C 0.77786 0.02939 0.26777
 H2241 H 0.81228 0.09788 0.29594
 H2242 H 0.81089 0.07642 0.27830
 H2243 H 0.79794 0.05411 0.26723
 H2244 H 0.76260 0.05691 0.30323
 H2245 H 0.77529 0.07964 0.31406
 H2246 H 0.75881 0.03854 0.28095
 H2247 H 0.78924 0.09820 0.32395
 H2248 H 0.79014 0.03006 0.26528
 C2249 C 0.70122 0.39105 0.31260
 C2250 C 0.69422 0.40200 0.30288
 C2251 C 0.70235 0.41559 0.29600
 C2252 C 0.69516 0.42354 0.28363
 C2253 C 0.70226 0.43639 0.27667
 C2254 C 0.71674 0.44177 0.28208
 C2255 C 0.72390 0.43386 0.29451
 C2256 C 0.71680 0.42096 0.30146
 C2257 C 0.72492 0.45520 0.27485
 C2258 C 0.71806 0.46535 0.26415
 H2259 H 0.68216 0.40039 0.29980
 H2260 H 0.68404 0.41968 0.27919
 H2261 H 0.69637 0.44178 0.26694
 H2262 H 0.73504 0.43770 0.29892
 H2263 H 0.72263 0.41544 0.31118
 H2264 H 0.73693 0.45712 0.27802
 H2265 H 0.71334 0.39208 0.31564
 H2266 H 0.70598 0.46414 0.26109
 C2267 C 0.69674 0.89305 0.81762
 C2268 C 0.69369 0.89940 0.80288
 C2269 C 0.70310 0.91241 0.79670
 C2270 C 0.69618 0.92366 0.78716
 C2271 C 0.70469 0.93657 0.78209
 C2272 C 0.72038 0.93830 0.78632
 C2273 C 0.72736 0.92677 0.79545
 C2274 C 0.71888 0.91393 0.80049
 C2275 C 0.72985 0.95195 0.78188
 C2276 C 0.72610 0.96220 0.76982
 H2277 H 0.68364 0.89555 0.79632
 H2278 H 0.68405 0.92269 0.78403
 H2279 H 0.69879 0.94527 0.77526
 H2280 H 0.73946 0.92770 0.79872
 H2281 H 0.72475 0.90520 0.80736
 H2282 H 0.74079 0.95357 0.78793
 H2283 H 0.70587 0.89798 0.82478
 H2284 H 0.71577 0.96045 0.76284
 C2285 C 0.20000 0.39804 0.81087
 C2286 C 0.19652 0.40474 0.79641
 C2287 C 0.20436 0.41886 0.79045
 C2288 C 0.19744 0.42710 0.77815
 C2289 C 0.20446 0.44042 0.77209
 C2290 C 0.21861 0.44584 0.77829
 C2291 C 0.22562 0.43748 0.79046
 C2292 C 0.21865 0.42412 0.79646
 C2293 C 0.22681 0.45957 0.77189
 C2294 C 0.21993 0.47023 0.76184
 H2295 H 0.18731 0.39977 0.78937
 H2296 H 0.18656 0.42320 0.77316
 H2297 H 0.19884 0.44611 0.76235
 H2298 H 0.23663 0.44123 0.79528
 H2299 H 0.22472 0.41789 0.80556
 H2300 H 0.23892 0.46112 0.77492
 H2301 H 0.20860 0.40320 0.81847
 H2302 H 0.20776 0.46938 0.75898
 C2303 C 0.20015 0.90101 0.31590
 C2304 C 0.19394 0.90941 0.30338
 C2305 C 0.20094 0.92372 0.29679
 C2306 C 0.19184 0.93305 0.28698
 C2307 C 0.19804 0.94631 0.27993
 C2308 C 0.21364 0.95044 0.28238
 C2309 C 0.22267 0.94130 0.29244
 C2310 C 0.21646 0.92803 0.29951
 C2311 C 0.22087 0.96403 0.27456
 C2312 C 0.21535 0.97024 0.26048
 H2313 H 0.18314 0.90551 0.29824
 H2314 H 0.17984 0.93006 0.28474
 H2315 H 0.19053 0.95327 0.27268
 H2316 H 0.23471 0.94424 0.29455
 H2317 H 0.22399 0.92105 0.30671
 H2318 H 0.23160 0.96852 0.27939
 H2319 H 0.21036 0.90513 0.32196
 H2320 H 0.20530 0.96522 0.25484
 C2321 C 0.40125 0.30701 0.69073
 C2322 C 0.40994 0.31150 0.70379
 C2323 C 0.42342 0.30238 0.70936
 C2324 C 0.43511 0.30963 0.71817
 C2325 C 0.44786 0.30121 0.72367
 C2326 C 0.44904 0.28524 0.72059
 C2327 C 0.43726 0.27802 0.71190
 C2328 C 0.42457 0.28640 0.70644
 C2329 C 0.46212 0.27557 0.72614
 C2330 C 0.47270 0.28001 0.73772
 H2331 H 0.40690 0.32199 0.71000
 H2332 H 0.43443 0.32189 0.72071
 H2333 H 0.45671 0.30732 0.73018
 H2334 H 0.43775 0.26572 0.70955
 H2335 H 0.41553 0.28019 0.70028
 H2336 H 0.46299 0.26396 0.72140
 H2337 H 0.40502 0.29725 0.68376
 H2338 H 0.47194 0.29126 0.74318
 C2339 C 0.39083 0.81897 0.19673
 C2340 C 0.40005 0.80647 0.19220
 C2341 C 0.41387 0.80085 0.20086
 C2342 C 0.42246 0.78873 0.19420
 C2343 C 0.43536 0.78268 0.20194
 C2344 C 0.43992 0.78857 0.21665
 C2345 C 0.43152 0.80088 0.22319
 C2346 C 0.41860 0.80693 0.21545
 C2347 C 0.45331 0.78232 0.22549
 C2348 C 0.45975 0.76775 0.22276
 H2349 H 0.39701 0.80028 0.18157
 H2350 H 0.41918 0.78387 0.18293
 H2351 H 0.44174 0.77353 0.19622
 H2352 H 0.43484 0.80570 0.23446
 H2353 H 0.41238 0.81621 0.22112
 H2354 H 0.45775 0.78916 0.23519
 H2355 H 0.39359 0.82570 0.20706
 H2356 H 0.45512 0.76028 0.21371
 C2357 C 0.89597 0.31626 0.20533
 C2358 C 0.90217 0.30139 0.20485
 C2359 C 0.91555 0.29622 0.21447
 C2360 C 0.92280 0.28231 0.21036
 C2361 C 0.93561 0.27700 0.21875
 C2362 C 0.94159 0.28555 0.23149
 C2363 C 0.93405 0.29919 0.23598
 C2364 C 0.92118 0.30453 0.22756
 C2365 C 0.95533 0.28019 0.24046
 C2366 C 0.96647 0.27065 0.23364
 H2367 H 0.89741 0.29322 0.19648
 H2368 H 0.91857 0.27551 0.20054
 H2369 H 0.94059 0.26605 0.21532
 H2370 H 0.93821 0.30582 0.24594
 H2371 H 0.91569 0.31505 0.23150
 H2372 H 0.95668 0.28379 0.25259
 H2373 H 0.90068 0.32484 0.21325
 H2374 H 0.96560 0.26776 0.22128
 C2375 C 0.89028 0.80395 0.68359
 C2376 C 0.89923 0.80851 0.69644
 C2377 C 0.91260 0.79915 0.70186
 C2378 C 0.92478 0.80627 0.71009
 C2379 C 0.93770 0.79769 0.71486
 C2380 C 0.93855 0.78174 0.71162
 C2381 C 0.92625 0.77462 0.70365
 C2382 C 0.91336 0.78314 0.69899
 C2383 C 0.95196 0.77207 0.71616
 C2384 C 0.96236 0.77595 0.72807
 H2385 H 0.89657 0.81921 0.70247
 H2386 H 0.92443 0.81855 0.71257
 H2387 H 0.94705 0.80367 0.72076
 H2388 H 0.92652 0.76234 0.70115
 H2389 H 0.90396 0.77701 0.69331
 H2390 H 0.95307 0.76086 0.71058
 H2391 H 0.89355 0.79380 0.67697
 H2392 H 0.96104 0.78663 0.73455
 C2393 C 0.60511 0.30912 0.31644
 C2394 C 0.59798 0.31327 0.30238
 C2395 C 0.58396 0.30518 0.29659
 C2396 C 0.57322 0.31329 0.28743
 C2397 C 0.55970 0.30603 0.28213
 C2398 C 0.55681 0.29037 0.28566
 C2399 C 0.56760 0.28226 0.29475
 C2400 C 0.58110 0.28952 0.30006
 C2401 C 0.54287 0.28207 0.27994
 C2402 C 0.53491 0.28650 0.26644
 H2403 H 0.60210 0.32335 0.29603
 H2404 H 0.57517 0.32536 0.28461
 H2405 H 0.55148 0.31281 0.27550
 H2406 H 0.56572 0.27017 0.29753
 H2407 H 0.58935 0.28275 0.30667
 H2408 H 0.53965 0.27134 0.28568
 H2409 H 0.60019 0.29992 0.32352
 H2410 H 0.53866 0.29655 0.25985
 C2411 C 0.61216 0.79899 0.81749
 C2412 C 0.60188 0.80528 0.80658
 C2413 C 0.58790 0.79722 0.80041
 C2414 C 0.57916 0.80466 0.78877
 C2415 C 0.56589 0.79772 0.78252
 C2416 C 0.56089 0.78313 0.78790
 C2417 C 0.56966 0.77561 0.79946
 C2418 C 0.58297 0.78256 0.80572
 C2419 C 0.54709 0.77514 0.78128
 C2420 C 0.53579 0.78264 0.77240
 H2421 H 0.60412 0.81687 0.80231
 H2422 H 0.58268 0.81590 0.78436
 H2423 H 0.55987 0.80378 0.77326
 H2424 H 0.56618 0.76431 0.80372
 H2425 H 0.58919 0.77631 0.81468
 H2426 H 0.54592 0.76281 0.78325
 H2427 H 0.61044 0.78746 0.82203
 H2428 H 0.53630 0.79502 0.77075
 C2429 C 0.10948 0.31323 0.80617
 C2430 C 0.10075 0.30020 0.81033
 C2431 C 0.08626 0.29553 0.80199
 C2432 C 0.07633 0.28453 0.80893
 C2433 C 0.06264 0.27985 0.80138
 C2434 C 0.05861 0.28604 0.78663
 C2435 C 0.06850 0.29703 0.77973
 C2436 C 0.08219 0.30159 0.78717
 C2437 C 0.04433 0.28153 0.77799
 C2438 C 0.03623 0.26771 0.78044
 H2439 H 0.10450 0.29330 0.82025
 H2440 H 0.07912 0.27961 0.82029
 H2441 H 0.05520 0.27157 0.80727
 H2442 H 0.06574 0.30195 0.76835
 H2443 H 0.08957 0.30968 0.78099
 H2444 H 0.04066 0.28895 0.76844
 H2445 H 0.10558 0.32070 0.79682
 H2446 H 0.04004 0.25965 0.78935
 C2447 C 0.11067 0.81618 0.30713
 C2448 C 0.10098 0.80437 0.31257
 C2449 C 0.08686 0.79917 0.30409
 C2450 C 0.08034 0.78477 0.30792
 C2451 C 0.06723 0.77926 0.30002
 C2452 C 0.06031 0.78811 0.28803
 C2453 C 0.06659 0.80270 0.28452
 C2454 C 0.07965 0.80822 0.29246
 C2455 C 0.04669 0.78271 0.27884
 C2456 C 0.04037 0.76784 0.27976
 H2457 H 0.10412 0.79829 0.32323
 H2458 H 0.08550 0.77765 0.31699
 H2459 H 0.06269 0.76811 0.30345
 H2460 H 0.06140 0.80987 0.27552
 H2461 H 0.08386 0.81963 0.28949
 H2462 H 0.04170 0.79072 0.27048
 H2463 H 0.10819 0.82198 0.29617
 H2464 H 0.04507 0.75936 0.28773
 C2465 C 0.60257 0.69248 0.69160
 C2466 C 0.59718 0.70741 0.68878
 C2467 C 0.58405 0.71413 0.69767
 C2468 C 0.57525 0.72599 0.69087
 C2469 C 0.56258 0.73229 0.69893
 C2470 C 0.55863 0.72690 0.71405
 C2471 C 0.56764 0.71527 0.72092
 C2472 C 0.58027 0.70903 0.71292
 C2473 C 0.54514 0.73265 0.72304
 C2474 C 0.53719 0.74635 0.71994
 H2475 H 0.60226 0.71417 0.67935
 H2476 H 0.57801 0.73018 0.67917
 H2477 H 0.55581 0.74111 0.69314
 H2478 H 0.56495 0.71101 0.73261
 H2479 H 0.58711 0.70036 0.71885
 H2480 H 0.54166 0.72590 0.73322
 H2481 H 0.59674 0.68516 0.70009
 H2482 H 0.54058 0.75379 0.71029
 C2483 C 0.60409 0.19443 0.18486
 C2484 C 0.59816 0.19335 0.20008
 C2485 C 0.58565 0.20374 0.20559
 C2486 C 0.57543 0.19868 0.21739
 C2487 C 0.56325 0.20814 0.22240
 C2488 C 0.56118 0.22290 0.21576
 C2489 C 0.57165 0.22809 0.20427
 C2490 C 0.58381 0.21868 0.19931
 C2491 C 0.54837 0.23317 0.22057
 C2492 C 0.53829 0.22929 0.23267
 H2493 H 0.60237 0.18445 0.20792
 H2494 H 0.57671 0.18731 0.22255
 H2495 H 0.55542 0.20383 0.23138
 H2496 H 0.57045 0.23949 0.19915
 H2497 H 0.59183 0.22326 0.19066
 H2498 H 0.54703 0.24423 0.21472
 H2499 H 0.59910 0.20259 0.17668
 H2500 H 0.53136 0.23546 0.23517
 C2501 C 0.10332 0.69075 0.18987
 C2502 C 0.09548 0.70371 0.18437
 C2503 C 0.08126 0.70926 0.19232
 C2504 C 0.07842 0.72518 0.19332
 C2505 C 0.06588 0.73072 0.20213
 C2506 C 0.05580 0.72036 0.20991
 C2507 C 0.05831 0.70443 0.20829
 C2508 C 0.07083 0.69891 0.19953
 C2509 C 0.04320 0.72557 0.22052
 C2510 C 0.03734 0.74058 0.22080
 H2511 H 0.10066 0.71074 0.17520
 H2512 H 0.08627 0.73336 0.18781
 H2513 H 0.06456 0.74309 0.20325
 H2514 H 0.05067 0.69619 0.21403
 H2515 H 0.07239 0.68654 0.19856
 H2516 H 0.03830 0.71712 0.22856
 H2517 H 0.09888 0.68463 0.20006
 H2518 H 0.04122 0.74906 0.21231
 C2519 C 0.10159 0.18666 0.69555
 C2520 C 0.09404 0.20023 0.69122
 C2521 C 0.08008 0.20603 0.69947
 C2522 C 0.07657 0.22183 0.69865
 C2523 C 0.06374 0.22781 0.70666
 C2524 C 0.05400 0.21800 0.71551
 C2525 C 0.05733 0.20215 0.71602
 C2526 C 0.07015 0.19618 0.70804
 C2527 C 0.04074 0.22381 0.72492
 C2528 C 0.03432 0.23850 0.72321
 H2529 H 0.09893 0.20729 0.68192
 H2530 H 0.08399 0.22965 0.69206
 H2531 H 0.06183 0.24013 0.70613
 H2532 H 0.04999 0.19432 0.72267
 H2533 H 0.07211 0.18386 0.70852
 H2534 H 0.03584 0.21614 0.73372
 H2535 H 0.09744 0.17996 0.70546
 H2536 H 0.03834 0.24621 0.71405
 C2537 C 0.39051 0.68383 0.30384
 C2538 C 0.40047 0.69522 0.30967
 C2539 C 0.41416 0.70121 0.30096
 C2540 C 0.42107 0.71507 0.30600
 C2541 C 0.43390 0.72125 0.29807
 C2542 C 0.44014 0.71364 0.28486
 C2543 C 0.43345 0.69959 0.28007
 C2544 C 0.42066 0.69340 0.28801
 C2545 C 0.45346 0.71978 0.27567
 C2546 C 0.46009 0.73440 0.27776
 H2547 H 0.39792 0.70038 0.32099
 H2548 H 0.41645 0.72122 0.31607
 H2549 H 0.43878 0.73192 0.30245
 H2550 H 0.43811 0.69337 0.27006
 H2551 H 0.41611 0.68244 0.28400
 H2552 H 0.45793 0.71255 0.26629
 H2553 H 0.39238 0.67889 0.29232
 H2554 H 0.45596 0.74214 0.28680
 C2555 C 0.39693 0.18803 0.80227
 C2556 C 0.40550 0.20063 0.80768
 C2557 C 0.41978 0.20619 0.79969
 C2558 C 0.43062 0.21489 0.80827
 C2559 C 0.44422 0.22033 0.80110
 C2560 C 0.44708 0.21735 0.78506
 C2561 C 0.43628 0.20855 0.77655
 C2562 C 0.42274 0.20312 0.78370
 C2563 C 0.46111 0.22285 0.77667
 C2564 C 0.47115 0.23440 0.78204
 H2565 H 0.40192 0.20637 0.81840
 H2566 H 0.42865 0.21719 0.82065
 H2567 H 0.45251 0.22653 0.80827
 H2568 H 0.43831 0.20586 0.76425
 H2569 H 0.41464 0.19665 0.77656
 H2570 H 0.46317 0.21808 0.76505
 H2571 H 0.40113 0.18124 0.79246
 H2572 H 0.46950 0.23984 0.79340
 C2573 C 0.89572 0.70082 0.82165
 C2574 C 0.90614 0.69544 0.81032
 C2575 C 0.91969 0.70430 0.80433
 C2576 C 0.93075 0.69641 0.79528
 C2577 C 0.94307 0.70433 0.78825
 C2578 C 0.94454 0.72043 0.78996
 C2579 C 0.93388 0.72830 0.79952
 C2580 C 0.92148 0.72035 0.80656
 C2581 C 0.95687 0.72920 0.78164
 C2582 C 0.96244 0.72449 0.76697
 H2583 H 0.90431 0.68401 0.80547
 H2584 H 0.92975 0.68404 0.79347
 H2585 H 0.95140 0.69780 0.78144
 H2586 H 0.93484 0.74069 0.80109
 H2587 H 0.91314 0.72694 0.81325
 H2588 H 0.96079 0.74010 0.78653
 H2589 H 0.89777 0.71168 0.82760
 H2590 H 0.95749 0.71436 0.76140
 C2591 C 0.89008 0.18384 0.29911
 C2592 C 0.89997 0.19570 0.30393
 C2593 C 0.91385 0.20086 0.29500
 C2594 C 0.92032 0.21529 0.29872
 C2595 C 0.93363 0.22056 0.29105
 C2596 C 0.94101 0.21139 0.27961
 C2597 C 0.93440 0.19708 0.27560
 C2598 C 0.92101 0.19178 0.28330
 C2599 C 0.95539 0.21672 0.27165
 C2600 C 0.96575 0.22664 0.27918
 H2601 H 0.89720 0.20192 0.31463
 H2602 H 0.91499 0.22258 0.30756
 H2603 H 0.93798 0.23194 0.29402
 H2604 H 0.93979 0.18987 0.26673
 H2605 H 0.91658 0.18047 0.28024
 H2606 H 0.95777 0.21290 0.25975
 H2607 H 0.89210 0.17791 0.28810
 H2608 H 0.96378 0.22966 0.29139
 C2609 C 0.31006 0.30427 0.60886
 C2610 C 0.29849 0.31060 0.59944
 C2611 C 0.29229 0.30259 0.58536
 C2612 C 0.28510 0.31131 0.57354
 C2613 C 0.27909 0.30411 0.56012
 C2614 C 0.27997 0.28796 0.55836
 C2615 C 0.28721 0.27926 0.57014
 C2616 C 0.29317 0.28643 0.58356
 C2617 C 0.27347 0.27976 0.54455
 C2618 C 0.26165 0.28580 0.53526
 H2619 H 0.29425 0.32208 0.60207
 H2620 H 0.28428 0.32376 0.57461
 H2621 H 0.27398 0.31129 0.55112
 H2622 H 0.28800 0.26680 0.56910
 H2623 H 0.29817 0.27920 0.59257
 H2624 H 0.27736 0.26806 0.54231
 H2625 H 0.31515 0.29328 0.60576
 H2626 H 0.25696 0.29711 0.53776
 C2627 C 0.31247 0.80108 0.10006
 C2628 C 0.30025 0.80522 0.09020
 C2629 C 0.29524 0.79580 0.07654
 C2630 C 0.28665 0.80288 0.06455
 C2631 C 0.28147 0.79433 0.05159
 C2632 C 0.28462 0.77842 0.05049
 C2633 C 0.29325 0.77137 0.06248
 C2634 C 0.29843 0.77990 0.07541
 C2635 C 0.27922 0.76874 0.03717
 C2636 C 0.26736 0.77295 0.02689
 H2637 H 0.29441 0.81609 0.09219
 H2638 H 0.28402 0.81510 0.06515
 H2639 H 0.27519 0.80034 0.04248
 H2640 H 0.29580 0.75912 0.06196
 H2641 H 0.30461 0.77389 0.08459
 H2642 H 0.28424 0.75733 0.03596
 H2643 H 0.31922 0.79085 0.09759
 H2644 H 0.26155 0.78393 0.02814
 C2645 C 0.81823 0.30136 0.10610
 C2646 C 0.80667 0.30651 0.09590
 C2647 C 0.80184 0.29828 0.08134
 C2648 C 0.79286 0.30629 0.07028
 C2649 C 0.78759 0.29897 0.05662
 C2650 C 0.79104 0.28333 0.05377
 C2651 C 0.80027 0.27538 0.06465
 C2652 C 0.80554 0.28271 0.07834
 C2653 C 0.78500 0.27498 0.03977
 C2654 C 0.77127 0.27920 0.03230
 H2655 H 0.80108 0.31742 0.09843
 H2656 H 0.78989 0.31830 0.07221
 H2657 H 0.78092 0.30567 0.04832
 H2658 H 0.80309 0.26333 0.06274
 H2659 H 0.81217 0.27597 0.08663
 H2660 H 0.79075 0.26445 0.03612
 H2661 H 0.82459 0.29093 0.10349
 H2662 H 0.76471 0.28894 0.03669
 C2663 C 0.80352 0.80226 0.59876
 C2664 C 0.79478 0.80957 0.58719
 C2665 C 0.79042 0.80167 0.57239
 C2666 C 0.77688 0.80610 0.56452
 C2667 C 0.77215 0.79835 0.55088
 C2668 C 0.78095 0.78600 0.54483
 C2669 C 0.79493 0.78219 0.55225
 C2670 C 0.79963 0.78991 0.56587
 C2671 C 0.77600 0.77663 0.53110
 C2672 C 0.76095 0.77653 0.52510
 H2673 H 0.79051 0.82114 0.58925
 H2674 H 0.76977 0.81536 0.56912
 H2675 H 0.76164 0.80215 0.54521
 H2676 H 0.80216 0.77302 0.54764
 H2677 H 0.81052 0.78665 0.57120
 H2678 H 0.78431 0.76858 0.52621
 H2679 H 0.80667 0.79024 0.59736
 H2680 H 0.75218 0.78405 0.52993
 C2681 C 0.30904 0.69291 0.39963
 C2682 C 0.29533 0.68874 0.40735
 C2683 C 0.28910 0.69637 0.42166
 C2684 C 0.27418 0.69216 0.42675
 C2685 C 0.26770 0.69874 0.44023
 C2686 C 0.27608 0.70963 0.44912
 C2687 C 0.29094 0.71401 0.44397
 C2688 C 0.29746 0.70741 0.43044
 C2689 C 0.26941 0.71701 0.46336
 C2690 C 0.25720 0.71050 0.47195
 H2691 H 0.28854 0.67932 0.40254
 H2692 H 0.26742 0.68379 0.42019
 H2693 H 0.25600 0.69544 0.44338
 H2694 H 0.29759 0.72249 0.45052
 H2695 H 0.30903 0.71094 0.42710
 H2696 H 0.27424 0.72798 0.46716
 H2697 H 0.31602 0.70246 0.40381
 H2698 H 0.25280 0.69917 0.46892
 C2699 C 0.30555 0.18874 0.89198
 C2700 C 0.31119 0.20002 0.90215
 C2701 C 0.30279 0.20423 0.91674
 C2702 C 0.31101 0.21074 0.92934
 C2703 C 0.30336 0.21462 0.94332
 C2704 C 0.28728 0.21216 0.94485
 C2705 C 0.27908 0.20570 0.93227
 C2706 C 0.28668 0.20199 0.91828
 C2707 C 0.27863 0.21667 0.95912
 C2708 C 0.28250 0.22990 0.96755
 H2709 H 0.32220 0.20556 0.89963
 H2710 H 0.32340 0.21267 0.92840
 H2711 H 0.31005 0.21938 0.95294
 H2712 H 0.26667 0.20393 0.93311
 H2713 H 0.27976 0.19766 0.90863
 H2714 H 0.26801 0.21055 0.96195
 H2715 H 0.29512 0.18241 0.89499
 H2716 H 0.29250 0.23669 0.96404
 C2717 C 0.79908 0.68162 0.89986
 C2718 C 0.80236 0.69425 0.90951
 C2719 C 0.79341 0.69771 0.92398
 C2720 C 0.80052 0.70626 0.93600
 C2721 C 0.79240 0.70990 0.94976
 C2722 C 0.77683 0.70529 0.95164
 C2723 C 0.76977 0.69663 0.93965
 C2724 C 0.77791 0.69295 0.92592
 C2725 C 0.76757 0.70939 0.96575
 C2726 C 0.77122 0.72184 0.97552
 H2727 H 0.81232 0.70144 0.90684
 H2728 H 0.81246 0.71002 0.93481
 H2729 H 0.79846 0.71618 0.95887
 H2730 H 0.75779 0.69297 0.94078
 H2731 H 0.77188 0.68669 0.91675
 H2732 H 0.75684 0.70314 0.96782
 H2733 H 0.78996 0.67360 0.90308
 H2734 H 0.78133 0.72889 0.97314
 C2735 C 0.80970 0.19448 0.39791
 C2736 C 0.81589 0.20772 0.40493
 C2737 C 0.80811 0.21516 0.41854
 C2738 C 0.81682 0.22348 0.42968
 C2739 C 0.80964 0.22979 0.44305
 C2740 C 0.79358 0.22794 0.44536
 C2741 C 0.78487 0.22014 0.43392
 C2742 C 0.79198 0.21399 0.42061
 C2743 C 0.78540 0.23308 0.45974
 C2744 C 0.79047 0.24466 0.47001
 H2745 H 0.82678 0.21243 0.40070
 H2746 H 0.82925 0.22470 0.42825
 H2747 H 0.81671 0.23564 0.45172
 H2748 H 0.77246 0.21872 0.43532
 H2749 H 0.78473 0.20831 0.41197
 H2750 H 0.77417 0.22784 0.46194
 H2751 H 0.79951 0.18909 0.40299
 H2752 H 0.80106 0.25102 0.46770
 C2753 C 0.69127 0.30386 0.40195
 C2754 C 0.70681 0.30417 0.40639
 C2755 C 0.71274 0.29591 0.42037
 C2756 C 0.72641 0.30123 0.42745
 C2757 C 0.73230 0.29392 0.44079
 C2758 C 0.72462 0.28105 0.44735
 C2759 C 0.71125 0.27537 0.43994
 C2760 C 0.70531 0.28273 0.42661
 C2761 C 0.73067 0.27298 0.46140
 C2762 C 0.74004 0.28032 0.47249
 H2763 H 0.71482 0.31147 0.39993
 H2764 H 0.73252 0.31116 0.42268
 H2765 H 0.74302 0.29825 0.44573
 H2766 H 0.70534 0.26525 0.44453
 H2767 H 0.69508 0.27791 0.42112
 H2768 H 0.72768 0.26090 0.46304
 H2769 H 0.68290 0.29747 0.40890
 H2770 H 0.74241 0.29257 0.47149
 C2771 C 0.69639 0.81198 0.90866
 C2772 C 0.69341 0.79744 0.91504
 C2773 C 0.70100 0.79168 0.92945
 C2774 C 0.69334 0.78042 0.93843
 C2775 C 0.70027 0.77423 0.95183
 C2776 C 0.71527 0.77892 0.95632
 C2777 C 0.72284 0.79041 0.94747
 C2778 C 0.71581 0.79672 0.93413
 C2779 C 0.72342 0.77195 0.96991
 C2780 C 0.71934 0.75759 0.97616
 H2781 H 0.68454 0.79025 0.90975
 H2782 H 0.68188 0.77643 0.93510
 H2783 H 0.69373 0.76585 0.95857
 H2784 H 0.73437 0.79426 0.95068
 H2785 H 0.72219 0.80517 0.92730
 H2786 H 0.73363 0.77778 0.97442
 H2787 H 0.70420 0.81990 0.91456
 H2788 H 0.70980 0.75106 0.97123
 C2789 C 0.19642 0.31317 0.90020
 C2790 C 0.19646 0.29771 0.90471
 C2791 C 0.20595 0.29210 0.91805
 C2792 C 0.20197 0.27810 0.92532
 C2793 C 0.21064 0.27252 0.93797
 C2794 C 0.22353 0.28089 0.94364
 C2795 C 0.22783 0.29460 0.93599
 C2796 C 0.21920 0.30014 0.92332
 C2797 C 0.23309 0.27543 0.95701
 C2798 C 0.22799 0.26429 0.96766
 H2799 H 0.18939 0.28949 0.89829
 H2800 H 0.19212 0.27145 0.92118
 H2801 H 0.20731 0.26150 0.94295
 H2802 H 0.23796 0.30102 0.93979
 H2803 H 0.22324 0.31052 0.91750
 H2804 H 0.24456 0.28036 0.95850
 H2805 H 0.20306 0.32158 0.90680
 H2806 H 0.21642 0.25954 0.96677
 C2807 C 0.19614 0.80903 0.40134
 C2808 C 0.18996 0.79589 0.40862
 C2809 C 0.19714 0.78845 0.42257
 C2810 C 0.18807 0.77872 0.43213
 C2811 C 0.19446 0.77147 0.44534
 C2812 C 0.21018 0.77370 0.44918
 C2813 C 0.21925 0.78337 0.43957
 C2814 C 0.21288 0.79057 0.42637
 C2815 C 0.21759 0.76640 0.46306
 C2816 C 0.21156 0.75359 0.47105
 H2817 H 0.17916 0.79113 0.40429
 H2818 H 0.17594 0.77683 0.42945
 H2819 H 0.18696 0.76437 0.45257
 H2820 H 0.23140 0.78522 0.44217
 H2821 H 0.22045 0.79754 0.41909
 H2822 H 0.22881 0.77083 0.46663
 H2823 H 0.20632 0.81458 0.40617
 H2824 H 0.20083 0.74828 0.46728
 C2825 C 0.69248 0.69634 0.60389
 C2826 C 0.70245 0.68943 0.59305
 C2827 C 0.70709 0.69718 0.57815
 C2828 C 0.72089 0.69283 0.57060
 C2829 C 0.72560 0.70007 0.55662
 C2830 C 0.71649 0.71180 0.54983
 C2831 C 0.70249 0.71579 0.55720
 C2832 C 0.69780 0.70856 0.57111
 C2833 C 0.72099 0.72034 0.53533
 C2834 C 0.73515 0.71882 0.52747
 H2835 H 0.70719 0.67814 0.59561
 H2836 H 0.72814 0.68391 0.57564
 H2837 H 0.73635 0.69639 0.55131
 H2838 H 0.69512 0.72462 0.55218
 H2839 H 0.68676 0.71182 0.57614
 H2840 H 0.71290 0.72888 0.53098
 H2841 H 0.68852 0.70803 0.60191
 H2842 H 0.74371 0.71063 0.53142
 C2843 C 0.69189 0.19094 0.09934
 C2844 C 0.70647 0.18828 0.09284
 C2845 C 0.71249 0.19836 0.08011
 C2846 C 0.72184 0.19216 0.06817
 C2847 C 0.72671 0.20141 0.05553
 C2848 C 0.72248 0.21712 0.05480
 C2849 C 0.71352 0.22336 0.06701
 C2850 C 0.70870 0.21416 0.07958
 C2851 C 0.72677 0.22732 0.04148
 C2852 C 0.73907 0.22446 0.03123
 H2853 H 0.71315 0.17836 0.09655
 H2854 H 0.72496 0.18005 0.06837
 H2855 H 0.73338 0.19609 0.04623
 H2856 H 0.71024 0.23543 0.06683
 H2857 H 0.70199 0.21947 0.08889
 H2858 H 0.72045 0.23805 0.04020
 H2859 H 0.68477 0.20006 0.09449
 H2860 H 0.74627 0.21437 0.03278
 C2861 C 0.19778 0.68577 0.10356
 C2862 C 0.19260 0.69738 0.09348
 C2863 C 0.20167 0.70253 0.07956
 C2864 C 0.19397 0.70942 0.06684
 C2865 C 0.20222 0.71430 0.05350
 C2866 C 0.21843 0.71256 0.05274
 C2867 C 0.22610 0.70579 0.06552
 C2868 C 0.21788 0.70094 0.07882
 C2869 C 0.22781 0.71749 0.03894
 C2870 C 0.22282 0.72812 0.02769
 H2871 H 0.18130 0.70244 0.09546
 H2872 H 0.18150 0.71084 0.06713
 H2873 H 0.19580 0.71919 0.04381
 H2874 H 0.23858 0.70441 0.06531
 H2875 H 0.22434 0.69620 0.08857
 H2876 H 0.23960 0.71328 0.03816
 H2877 H 0.20846 0.67978 0.10096
 H2878 H 0.21145 0.73326 0.02858
 C2879 C 0.19082 0.19247 0.60504
 C2880 C 0.18561 0.20596 0.59781
 C2881 C 0.19394 0.21313 0.58438
 C2882 C 0.18587 0.22277 0.57395
 C2883 C 0.19343 0.22939 0.56098
 C2884 C 0.20927 0.22655 0.55833
 C2885 C 0.21735 0.21716 0.56893
 C2886 C 0.20985 0.21064 0.58188
 C2887 C 0.21787 0.23272 0.54462
 C2888 C 0.21318 0.24522 0.53543
 H2889 H 0.17488 0.21115 0.60173
 H2890 H 0.17363 0.22496 0.57570
 H2891 H 0.18676 0.23641 0.55296
 H2892 H 0.22959 0.21491 0.56725
 H2893 H 0.21668 0.20383 0.58995
 H2894 H 0.22903 0.22754 0.54214
 H2895 H 0.20089 0.18655 0.60046
 H2896 H 0.20251 0.25126 0.53795
   
