data_POSCAR
  _audit_creation_date              2014-09-24
  _audit_creation_method            'ToBaCCo'
  _symmetry_space_group_name_H-M    'P1'
  _symmetry_Int_Tables_number       1
  _symmetry_cell_setting            triclinic
  loop_
  _symmetry_equiv_pos_as_xyz
 x,y,z
_cell_length_a 91.9916
_cell_length_b 91.8879
_cell_length_c 91.9769
_cell_angle_alpha 90.056200
_cell_angle_beta 90.035600
_cell_angle_gamma 90.020700
loop_
  _atom_site_label
  _atom_site_type_symbol
  _atom_site_fract_x
  _atom_site_fract_y
  _atom_site_fract_z
N1 N 0.31068 0.42937 0.89941
 N2 N 0.32096 0.43933 0.89937
 C3 C 0.31866 0.44850 0.88818
 C4 C 0.30634 0.44396 0.88083
 C5 C 0.30157 0.43179 0.88821
 H6 H 0.32541 0.45776 0.88553
 H7 H 0.29210 0.42528 0.88570
 Cu8 Cu 0.33619 0.43938 0.91410
 Cu9 Cu 0.30974 0.41408 0.91403
 Cu10 Cu 0.33643 0.41422 0.94066
 N11 N 0.35096 0.43949 0.92930
 N12 N 0.35099 0.42959 0.93963
 C13 C 0.36219 0.43212 0.94871
 C14 C 0.36953 0.44433 0.94386
 C15 C 0.36211 0.44875 0.93153
 H16 H 0.36474 0.42565 0.95820
 H17 H 0.36468 0.45798 0.92471
 N18 N 0.32077 0.39959 0.93989
 N19 N 0.31060 0.39955 0.92975
 C20 C 0.30133 0.38849 0.93234
 C21 C 0.30589 0.38128 0.94468
 C22 C 0.31823 0.38857 0.94920
 H23 H 0.29186 0.38594 0.92585
 H24 H 0.32475 0.38608 0.95866
 H25 H 0.32023 0.42569 0.93016
 H26 H 0.33180 0.41361 0.91860
 N27 N 0.43005 0.85083 0.44015
 N28 N 0.44026 0.85062 0.43015
 C29 C 0.44945 0.86182 0.43249
 C30 C 0.44471 0.86939 0.44461
 C31 C 0.43237 0.86213 0.44919
 H32 H 0.45888 0.86429 0.42592
 H33 H 0.42563 0.86483 0.45843
 Cu34 Cu 0.44038 0.83574 0.41505
 Cu35 Cu 0.41462 0.83632 0.44094
 Cu36 Cu 0.41484 0.80957 0.41430
 N37 N 0.44053 0.82056 0.40024
 N38 N 0.43040 0.81046 0.39997
 C39 C 0.43295 0.80136 0.38878
 C40 C 0.44533 0.80600 0.38167
 C41 C 0.44987 0.81822 0.38920
 H42 H 0.42636 0.79200 0.38606
 H43 H 0.45930 0.82482 0.38681
 N44 N 0.40004 0.81052 0.42977
 N45 N 0.39997 0.82069 0.43992
 C46 C 0.38885 0.81814 0.44910
 C47 C 0.38162 0.80579 0.44450
 C48 C 0.38896 0.80124 0.43222
 H49 H 0.38628 0.82464 0.45856
 H50 H 0.38651 0.79175 0.42571
 H51 H 0.42609 0.81993 0.43073
 H52 H 0.41446 0.83164 0.41890
 N53 N 0.92903 0.89929 0.81090
 N54 N 0.93921 0.89951 0.82094
 C55 C 0.94844 0.88834 0.81862
 C56 C 0.94379 0.88082 0.80644
 C57 C 0.93146 0.88804 0.80183
 H58 H 0.95790 0.88589 0.82517
 H59 H 0.92479 0.88534 0.79253
 Cu60 Cu 0.93926 0.91444 0.83597
 Cu61 Cu 0.91355 0.91375 0.81009
 Cu62 Cu 0.91365 0.94042 0.83688
 N63 N 0.93932 0.92939 0.85097
 N64 N 0.92919 0.93948 0.85128
 C65 C 0.93169 0.94848 0.86257
 C66 C 0.94404 0.94377 0.86973
 C67 C 0.94860 0.93160 0.86212
 H68 H 0.92505 0.95779 0.86533
 H69 H 0.95803 0.92497 0.86449
 N70 N 0.89889 0.93949 0.82133
 N71 N 0.89886 0.92935 0.81114
 C72 C 0.88767 0.93181 0.80201
 C73 C 0.88034 0.94406 0.80668
 C74 C 0.88771 0.94866 0.81893
 H75 H 0.88507 0.92528 0.79258
 H76 H 0.88516 0.95808 0.82551
 H77 H 0.92489 0.93025 0.82031
 H78 H 0.91336 0.91843 0.83207
 N79 N 0.42953 -0.10022 0.31015
 N80 N 0.43970 -0.10000 0.32020
 C81 C 0.44909 -0.11097 0.31772
 C82 C 0.44450 -0.11842 0.30549
 C83 C 0.43207 -0.11133 0.30096
 H84 H 0.45864 -0.11329 0.32418
 H85 H 0.42553 -0.11391 0.29153
 Cu86 Cu 0.43988 -0.08504 0.33518
 Cu87 Cu 0.41401 -0.08586 0.30940
 Cu88 Cu 0.41397 -0.05929 0.33621
 N89 N 0.43961 -0.07025 0.35032
 N90 N 0.42944 -0.06019 0.35061
 C91 C 0.43191 -0.05118 0.36188
 C92 C 0.44427 -0.05584 0.36901
 C93 C 0.44891 -0.06795 0.36141
 H94 H 0.42533 -0.04181 0.36459
 H95 H 0.45842 -0.07448 0.36373
 N96 N 0.39925 -0.06026 0.32070
 N97 N 0.39925 -0.07039 0.31051
 C98 C 0.38803 -0.06799 0.30141
 C99 C 0.38067 -0.05578 0.30611
 C100 C 0.38802 -0.05115 0.31835
 H101 H 0.38546 -0.07452 0.29196
 H102 H 0.38543 -0.04176 0.32494
 H103 H 0.42540 -0.06928 0.31957
 H104 H 0.41400 -0.08125 0.33139
 N105 N 0.81033 0.32057 0.35039
 N106 N 0.82037 0.31039 0.35020
 C107 C 0.81794 0.30109 0.36125
 C108 C 0.80573 0.30570 0.36868
 C109 C 0.80119 0.31809 0.36153
 H110 H 0.82443 0.29158 0.36364
 H111 H 0.79180 0.32467 0.36413
 Cu112 Cu 0.83534 0.31014 0.33527
 Cu113 Cu 0.80952 0.33602 0.33595
 Cu114 Cu 0.83632 0.33600 0.30944
 N115 N 0.85047 0.31040 0.32051
 N116 N 0.85076 0.32055 0.31044
 C117 C 0.86205 0.31809 0.30148
 C118 C 0.86920 0.30575 0.30618
 C119 C 0.86161 0.30114 0.31828
 H120 H 0.86479 0.32467 0.29213
 H121 H 0.86396 0.29169 0.32484
 N122 N 0.82075 0.35069 0.31030
 N123 N 0.81056 0.35070 0.32040
 C124 C 0.80145 0.36191 0.31794
 C125 C 0.80614 0.36924 0.30573
 C126 C 0.81839 0.36188 0.30115
 H127 H 0.79202 0.36451 0.32446
 H128 H 0.82499 0.36446 0.29178
 H129 H 0.81973 0.32462 0.31945
 H130 H 0.83154 0.33609 0.33138
 N131 N -0.17953 0.85112 0.81014
 N132 N -0.18975 0.85086 0.82014
 C133 C -0.19901 0.86199 0.81781
 C134 C -0.19432 0.86957 0.80568
 C135 C -0.18193 0.86239 0.80111
 H136 H -0.20851 0.86436 0.82432
 H137 H -0.17519 0.86513 0.79188
 Cu138 Cu -0.18987 0.83578 0.83501
 Cu139 Cu -0.16400 0.83669 0.80935
 Cu140 Cu -0.16420 0.80989 0.83594
 N141 N -0.18999 0.82077 0.84996
 N142 N -0.17984 0.81070 0.85023
 C143 C -0.18243 0.80156 0.86136
 C144 C -0.19485 0.80614 0.86844
 C145 C -0.19938 0.81838 0.86096
 H146 H -0.17582 0.79222 0.86407
 H147 H -0.20888 0.82491 0.86329
 N148 N -0.14934 0.81094 0.82053
 N149 N -0.14926 0.82112 0.81041
 C150 C -0.13800 0.81872 0.80136
 C151 C -0.13069 0.80645 0.80601
 C152 C -0.13813 0.80180 0.81818
 H153 H -0.13535 0.82528 0.79197
 H154 H -0.13562 0.79235 0.82471
 H155 H -0.17537 0.82013 0.81938
 H156 H -0.16393 0.83192 0.83132
 N157 N 0.93987 0.35091 0.42964
 N158 N 0.92982 0.35060 0.43981
 C159 C 0.93208 0.36172 0.44911
 C160 C 0.94420 0.36935 0.44449
 C161 C 0.94886 0.36220 0.43211
 H162 H 0.92550 0.36407 0.45857
 H163 H 0.95813 0.36498 0.42543
 Cu164 Cu 0.91494 0.33554 0.43982
 Cu165 Cu 0.94076 0.33652 0.41407
 Cu166 Cu 0.91419 0.30967 0.41406
 N167 N 0.90007 0.32045 0.43983
 N168 N 0.89985 0.31040 0.42963
 C169 C 0.88872 0.30123 0.43213
 C170 C 0.88160 0.30576 0.44455
 C171 C 0.88906 0.31799 0.44918
 H172 H 0.88606 0.29189 0.42548
 H173 H 0.88668 0.32448 0.45870
 N174 N 0.92965 0.31079 0.39928
 N175 N 0.93977 0.32099 0.39928
 C176 C 0.94888 0.31860 0.38807
 C177 C 0.94426 0.30634 0.38071
 C178 C 0.93206 0.30167 0.38807
 H179 H 0.95829 0.32518 0.38549
 H180 H 0.92554 0.29221 0.38550
 H181 H 0.91880 0.33173 0.41387
 H182 H 0.93070 0.31993 0.42535
 N183 N 0.43911 0.42907 0.85094
 N184 N 0.42914 0.43933 0.85068
 C185 C 0.43147 0.44854 0.86185
 C186 C 0.44353 0.44377 0.86942
 C187 C 0.44811 0.43141 0.86224
 H188 H 0.42501 0.45807 0.86424
 H189 H 0.45737 0.42470 0.86496
 Cu190 Cu 0.41433 0.43981 0.83560
 Cu191 Cu 0.43996 0.41367 0.83647
 Cu192 Cu 0.41330 0.41377 0.80985
 N193 N 0.39922 0.43945 0.82081
 N194 N 0.39889 0.42924 0.81079
 C195 C 0.38758 0.43167 0.80183
 C196 C 0.38047 0.44405 0.80650
 C197 C 0.38810 0.44872 0.81857
 H198 H 0.38479 0.42501 0.79253
 H199 H 0.38578 0.45822 0.82510
 N200 N 0.42882 0.39905 0.81075
 N201 N 0.43898 0.39903 0.82090
 C202 C 0.44812 0.38785 0.81845
 C203 C 0.44349 0.38054 0.80619
 C204 C 0.43124 0.38788 0.80157
 H205 H 0.45755 0.38528 0.82499
 H206 H 0.42470 0.38532 0.79214
 H207 H 0.42989 0.42512 0.81996
 H208 H 0.41793 0.41381 0.83189
 N209 N 0.81047 0.89954 0.92933
 N210 N 0.82074 0.89962 0.93928
 C211 C 0.81838 0.88863 0.94867
 C212 C 0.80598 0.88132 0.94434
 C213 C 0.80124 0.88850 0.93203
 H214 H 0.82507 0.88615 0.95801
 H215 H 0.79172 0.88595 0.92561
 Cu216 Cu 0.83607 0.91420 0.93910
 Cu217 Cu 0.80963 0.91389 0.91380
 Cu218 Cu 0.83639 0.94045 0.91358
 N219 N 0.85079 0.92939 0.93900
 N220 N 0.85086 0.93959 0.92898
 C221 C 0.86204 0.94871 0.93146
 C222 C 0.86933 0.94398 0.94370
 C223 C 0.86194 0.93170 0.94822
 H224 H 0.86464 0.95813 0.92492
 H225 H 0.86448 0.92503 0.95756
 N226 N 0.82080 0.93947 0.89895
 N227 N 0.81061 0.92934 0.89903
 C228 C 0.80144 0.93175 0.88787
 C229 C 0.80610 0.94394 0.88047
 C230 C 0.81838 0.94857 0.88774
 H231 H 0.79197 0.92523 0.88536
 H232 H 0.82495 0.95797 0.88511
 H233 H 0.83171 0.91842 0.91328
 H234 H 0.82018 0.93018 0.92520
 N235 N 0.31035 0.85059 0.32015
 N236 N 0.32035 0.85025 0.30994
 C237 C 0.31811 0.86141 0.30071
 C238 C 0.30608 0.86906 0.30542
 C239 C 0.30143 0.86193 0.31777
 H240 H 0.32461 0.86374 0.29121
 H241 H 0.29215 0.86472 0.32443
 Cu242 Cu 0.33506 0.83507 0.30950
 Cu243 Cu 0.30936 0.83613 0.33554
 Cu244 Cu 0.33586 0.80935 0.33554
 N245 N 0.35006 0.82018 0.30991
 N246 N 0.35032 0.81019 0.32013
 C247 C 0.36154 0.80112 0.31771
 C248 C 0.36867 0.80567 0.30532
 C249 C 0.36114 0.81780 0.30063
 H250 H 0.36423 0.79180 0.32436
 H251 H 0.36348 0.82425 0.29110
 N252 N 0.32030 0.81035 0.35018
 N253 N 0.31020 0.82055 0.35017
 C254 C 0.30095 0.81810 0.36124
 C255 C 0.30546 0.80578 0.36853
 C256 C 0.31774 0.80114 0.36128
 H257 H 0.29152 0.82466 0.36375
 H258 H 0.32420 0.79164 0.36381
 H259 H 0.33137 0.83144 0.33548
 H260 H 0.31938 0.81953 0.32414
 N261 N 0.81029 0.39963 0.42956
 N262 N 0.82052 0.39976 0.43956
 C263 C 0.81817 0.38877 0.44893
 C264 C 0.80586 0.38137 0.44452
 C265 C 0.80114 0.38851 0.43218
 H266 H 0.82484 0.38631 0.45827
 H267 H 0.79166 0.38590 0.42572
 Cu268 Cu 0.83577 0.41442 0.43941
 Cu269 Cu 0.80943 0.41397 0.41401
 Cu270 Cu 0.83619 0.44057 0.41383
 N271 N 0.85054 0.42956 0.43932
 N272 N 0.85064 0.43971 0.42925
 C273 C 0.86189 0.44877 0.43167
 C274 C 0.86914 0.44408 0.44394
 C275 C 0.86168 0.43187 0.44854
 H276 H 0.86453 0.45817 0.42510
 H277 H 0.86422 0.42523 0.45787
 N278 N 0.82061 0.43957 0.39920
 N279 N 0.81043 0.42944 0.39925
 C280 C 0.80126 0.43186 0.38809
 C281 C 0.80591 0.44407 0.38072
 C282 C 0.81819 0.44870 0.38801
 H283 H 0.79181 0.42533 0.38556
 H284 H 0.82476 0.45810 0.38540
 H285 H 0.83153 0.41850 0.41352
 H286 H 0.81992 0.43031 0.42534
 N287 N 0.92964 0.85014 -0.06035
 N288 N 0.93991 0.84983 -0.07030
 C289 C 0.94921 0.86091 -0.06792
 C290 C 0.94447 0.86849 -0.05585
 C291 C 0.93205 0.86140 -0.05131
 H292 H 0.95869 0.86331 -0.07442
 H293 H 0.92533 0.86418 -0.04208
 Cu294 Cu 0.93978 0.83504 -0.08540
 Cu295 Cu 0.91404 0.83583 -0.05956
 Cu296 Cu 0.91543 0.80806 -0.08509
 N297 N 0.93965 0.82027 -0.10054
 N298 N 0.92982 0.80987 -0.10049
 C299 C 0.93214 0.80097 -0.11188
 C300 C 0.94408 0.80607 -0.11942
 C301 C 0.94858 0.81834 -0.11197
 H302 H 0.92582 0.79135 -0.11432
 H303 H 0.95778 0.82517 -0.11460
 N304 N 0.89995 0.80958 -0.07040
 N305 N 0.89945 0.82015 -0.06067
 C306 C 0.88803 0.81790 -0.05180
 C307 C 0.88104 0.80536 -0.05619
 C308 C 0.88880 0.80038 -0.06803
 H309 H 0.88516 0.82469 -0.04263
 H310 H 0.88664 0.79061 -0.07423
 H311 H 0.92606 0.81964 -0.06878
 H312 H 0.91415 0.83018 -0.08139
 N313 N 0.31024 0.35048 0.82055
 N314 N 0.32043 0.35037 0.81051
 C315 C 0.31844 0.36183 0.80160
 C316 C 0.30637 0.36944 0.80630
 C317 C 0.30145 0.36197 0.81836
 H318 H 0.32509 0.36434 0.79224
 H319 H 0.29197 0.36453 0.82483
 Cu320 Cu 0.33505 0.33501 0.80965
 Cu321 Cu 0.30854 0.33511 0.83494
 Cu322 Cu 0.33497 0.30856 0.83500
 N323 N 0.35032 0.32031 0.81056
 N324 N 0.35037 0.31015 0.82063
 C325 C 0.36182 0.30129 0.81850
 C326 C 0.36932 0.30614 0.80644
 C327 C 0.36178 0.31824 0.80168
 H328 H 0.36432 0.29183 0.82501
 H329 H 0.36433 0.32485 0.79230
 N330 N 0.32000 0.30998 0.85022
 N331 N 0.30987 0.32015 0.85020
 C332 C 0.30093 0.31798 0.86159
 C333 C 0.30565 0.30584 0.86906
 C334 C 0.31778 0.30105 0.86161
 H335 H 0.29149 0.32452 0.86410
 H336 H 0.32428 0.29159 0.86416
 H337 H 0.33056 0.33064 0.83526
 H338 H 0.31889 0.31896 0.82333
 N339 N 0.14978 0.57050 0.55998
 N340 N 0.15008 0.56027 0.56997
 C341 C 0.13906 0.55091 0.56756
 C342 C 0.13152 0.55554 0.55541
 C343 C 0.13860 0.56799 0.55088
 H344 H 0.13674 0.54136 0.57403
 H345 H 0.13588 0.57465 0.54158
 Cu346 Cu 0.16506 0.56027 0.58491
 Cu347 Cu 0.16412 0.58610 0.55918
 Cu348 Cu 0.19088 0.58606 0.58584
 N349 N 0.18004 0.56024 0.59986
 N350 N 0.19008 0.57044 0.60015
 C351 C 0.19919 0.56790 0.61132
 C352 C 0.19462 0.55546 0.61838
 C353 C 0.18243 0.55087 0.61087
 H354 H 0.20852 0.57453 0.61403
 H355 H 0.17592 0.54135 0.61319
 N356 N 0.18977 0.60089 0.57040
 N357 N 0.17959 0.60090 0.56026
 C358 C 0.18195 0.61215 0.55119
 C359 C 0.19418 0.61952 0.55584
 C360 C 0.19887 0.61213 0.56803
 H361 H 0.17538 0.61475 0.54179
 H362 H 0.20830 0.61470 0.57456
 H363 H 0.18071 0.57478 0.56925
 H364 H 0.16889 0.58623 0.58115
 N365 N 0.60038 0.67986 0.05996
 N366 N 0.60053 0.68972 0.07034
 C367 C 0.61201 0.69860 0.06835
 C368 C 0.61938 0.69405 0.05607
 C369 C 0.61173 0.68213 0.05103
 H370 H 0.61474 0.70780 0.07518
 H371 H 0.61410 0.67576 0.04142
 Cu372 Cu 0.58547 0.68993 0.08520
 Cu373 Cu 0.58490 0.66548 0.05827
 Cu374 Cu 0.55949 0.66425 0.08609
 N375 N 0.57043 0.69013 0.10005
 N376 N 0.56043 0.67990 0.10041
 C377 C 0.55146 0.68238 0.11169
 C378 C 0.55609 0.69480 0.11877
 C379 C 0.56816 0.69946 0.11114
 H380 H 0.54219 0.67570 0.11450
 H381 H 0.57474 0.70893 0.11351
 N382 N 0.56044 0.64960 0.07041
 N383 N 0.57012 0.65004 0.05982
 C384 C 0.56763 0.63888 0.05063
 C385 C 0.55578 0.63115 0.05565
 C386 C 0.55150 0.63820 0.06820
 H387 H 0.57378 0.63668 0.04086
 H388 H 0.54235 0.63537 0.07501
 H389 H 0.56870 0.67621 0.06987
 H390 H 0.58129 0.66426 0.08037
 N391 N 0.67958 0.19008 0.64956
 N392 N 0.68975 0.18002 0.64977
 C393 C 0.69893 0.18228 0.63858
 C394 C 0.69425 0.19441 0.63103
 C395 C 0.68196 0.19908 0.63827
 H396 H 0.70834 0.17568 0.63611
 H397 H 0.67530 0.20839 0.63556
 Cu398 Cu 0.68987 0.16502 0.66469
 Cu399 Cu 0.66417 0.19098 0.66406
 Cu400 Cu 0.66436 0.16431 0.69078
 N401 N 0.69001 0.15018 0.67977
 N402 N 0.67989 0.14992 0.68987
 C403 C 0.68246 0.13874 0.69896
 C404 C 0.69484 0.13162 0.69431
 C405 C 0.69935 0.13912 0.68210
 H406 H 0.67591 0.13606 0.70833
 H407 H 0.70878 0.13674 0.67551
 N408 N 0.64961 0.17983 0.68983
 N409 N 0.64955 0.19000 0.67969
 C410 C 0.63845 0.19921 0.68224
 C411 C 0.63123 0.19461 0.69456
 C412 C 0.63854 0.18232 0.69909
 H413 H 0.63588 0.20868 0.67576
 H414 H 0.63608 0.17581 0.70857
 H415 H 0.67560 0.18081 0.68048
 H416 H 0.66397 0.16898 0.66877
 N417 N 1.09990 0.06975 0.19007
 N418 N 1.09971 0.05956 0.18001
 C419 C 1.11081 0.05030 0.18240
 C420 C 1.11828 0.05496 0.19457
 C421 C 1.11110 0.06732 0.19917
 H422 H 1.11319 0.04077 0.17592
 H423 H 1.11372 0.07393 0.20855
 Cu424 Cu 1.08468 0.05916 0.16514
 Cu425 Cu 1.08536 0.08510 0.19098
 Cu426 Cu 1.05875 0.08496 0.16427
 N427 N 1.06987 0.05941 0.15005
 N428 N 1.05977 0.06954 0.14979
 C429 C 1.05071 0.06699 0.13859
 C430 C 1.05537 0.05461 0.13147
 C431 C 1.06756 0.05007 0.13899
 H432 H 1.04130 0.07352 0.13593
 H433 H 1.07408 0.04057 0.13667
 N434 N 1.05958 0.09963 0.17986
 N435 N 1.06971 0.09968 0.19004
 C436 C 1.06716 0.11081 0.19924
 C437 C 1.05485 0.11804 0.19462
 C438 C 1.05032 0.11071 0.18233
 H439 H 1.07366 0.11339 0.20870
 H440 H 1.04088 0.11321 0.17578
 H441 H 1.06889 0.07359 0.18081
 H442 H 1.08073 0.08509 0.16897
 N443 N 0.07020 0.14943 1.05997
 N444 N 0.06002 0.14977 1.06998
 C445 C 0.05064 0.13874 1.06763
 C446 C 0.05522 0.13117 1.05548
 C447 C 0.06765 0.13822 1.05090
 H448 H 0.04113 0.13644 1.07414
 H449 H 0.07426 0.13548 1.04156
 Cu450 Cu 0.06006 0.16470 1.08498
 Cu451 Cu 0.08582 0.16374 1.05915
 Cu452 Cu 0.08590 0.19050 1.08582
 N453 N 0.06008 0.17976 1.09984
 N454 N 0.07031 0.18976 1.10015
 C455 C 0.06781 0.19888 1.11132
 C456 C 0.05536 0.19435 1.11838
 C457 C 0.05073 0.18218 1.11085
 H458 H 0.07446 0.20821 1.11403
 H459 H 0.04120 0.17570 1.11318
 N460 N 0.10070 0.18936 1.07037
 N461 N 0.10066 0.17918 1.06022
 C462 C 0.11189 0.18151 1.05112
 C463 C 0.11929 0.19373 1.05577
 C464 C 0.11195 0.19843 1.06798
 H465 H 0.11444 0.17493 1.04171
 H466 H 0.11456 0.20786 1.07453
 H467 H 0.08600 0.16847 1.08113
 H468 H 0.07460 0.18035 1.06925
 N469 N 0.15005 0.69031 0.67980
 N470 N 0.15019 0.68010 0.68981
 C471 C 0.13919 0.68248 0.69919
 C472 C 0.13182 0.69482 0.69479
 C473 C 0.13898 0.69951 0.68246
 H474 H 0.13675 0.67582 0.70857
 H475 H 0.13638 0.70897 0.67598
 Cu476 Cu 0.16487 0.66484 0.68970
 Cu477 Cu 0.16438 0.69115 0.66426
 Cu478 Cu 0.19103 0.66449 0.66412
 N479 N 0.18013 0.65016 0.68966
 N480 N 0.19028 0.65007 0.67960
 C481 C 0.19949 0.63898 0.68215
 C482 C 0.19488 0.63175 0.69448
 C483 C 0.18256 0.63910 0.69898
 H484 H 0.20892 0.63642 0.67562
 H485 H 0.17597 0.63661 0.70838
 N486 N 0.18996 0.68001 0.64940
 N487 N 0.17981 0.69017 0.64945
 C488 C 0.18217 0.69931 0.63825
 C489 C 0.19437 0.69467 0.63085
 C490 C 0.19904 0.68243 0.63817
 H491 H 0.17561 0.70873 0.63571
 H492 H 0.20845 0.67588 0.63556
 H493 H 0.16899 0.66910 0.66384
 H494 H 0.18071 0.68078 0.67569
 N495 N 1.17992 0.14975 0.18991
 N496 N 1.19003 0.15000 0.17981
 C497 C 1.19939 0.13896 0.18214
 C498 C 1.19486 0.13145 0.19434
 C499 C 1.18248 0.13856 0.19899
 H500 H 1.20883 0.13657 0.17556
 H501 H 1.17593 0.13587 0.20837
 Cu502 Cu 1.18990 0.16484 0.16474
 Cu503 Cu 1.16437 0.16410 0.19082
 Cu504 Cu 1.16417 0.19075 0.16411
 N505 N 1.18978 0.17985 0.14984
 N506 N 1.17960 0.18989 0.14962
 C507 C 1.18196 0.19889 0.13833
 C508 C 1.19427 0.19424 0.13111
 C509 C 1.19898 0.18214 0.13867
 H510 H 1.17529 0.20819 0.13562
 H511 H 1.20841 0.17556 0.13621
 N512 N 1.14954 0.18976 0.17973
 N513 N 1.14961 0.17960 0.18988
 C514 C 1.13854 0.18205 0.19913
 C515 C 1.13119 0.19433 0.19459
 C516 C 1.13841 0.19894 0.18228
 H517 H 1.13607 0.17554 0.20860
 H518 H 1.13583 0.20840 0.17579
 H519 H 1.16400 0.16875 0.16883
 H520 H 1.17560 0.18060 0.18055
 N521 N 0.65000 1.06016 0.57001
 N522 N 0.64995 1.07048 0.56011
 C523 C 0.63852 1.06844 0.55118
 C524 C 0.63111 1.05619 0.55572
 C525 C 0.63864 1.05122 0.56771
 H526 H 0.63596 1.07513 0.54185
 H527 H 0.63626 1.04159 0.57404
 Cu528 Cu 0.66525 1.08511 0.55937
 Cu529 Cu 0.66546 1.05836 0.58427
 Cu530 Cu 0.69073 1.08618 0.58580
 N531 N 0.68006 1.10022 0.55999
 N532 N 0.68989 1.10062 0.57037
 C533 C 0.69881 1.11201 0.56812
 C534 C 0.69431 1.11911 0.55568
 C535 C 0.68239 1.11138 0.55079
 H536 H 0.70797 1.11485 0.57493
 H537 H 0.67599 1.11369 0.54120
 N538 N 0.68979 1.07046 0.60031
 N539 N 0.68011 1.05986 0.59973
 C540 C 0.68248 1.05064 0.61085
 C541 C 0.69427 1.05563 0.61869
 C542 C 0.69864 1.06821 0.61175
 H543 H 0.67629 1.04086 0.61295
 H544 H 0.70775 1.07503 0.61470
 H545 H 0.66889 1.08057 0.58515
 H546 H 0.68178 1.06992 0.57357
 N547 N 0.57029 0.56011 0.14979
 N548 N 0.56018 0.57022 0.14996
 C549 C 0.55086 0.56782 0.13890
 C550 C 0.55543 0.55558 0.13145
 C551 C 0.56778 0.55096 0.13863
 H552 H 0.54139 0.57435 0.13649
 H553 H 0.57432 0.54154 0.13604
 Cu554 Cu 0.55998 0.58521 0.16491
 Cu555 Cu 0.58571 0.55923 0.16428
 Cu556 Cu 0.58577 0.58607 0.19081
 N557 N 0.56028 0.60036 0.17969
 N558 N 0.57040 0.60060 0.18979
 C559 C 0.56799 0.61192 0.19876
 C560 C 0.55569 0.61913 0.19404
 C561 C 0.55106 0.61153 0.18192
 H562 H 0.57457 0.61463 0.20813
 H563 H 0.54162 0.61393 0.17533
 N564 N 0.60038 0.57043 0.18998
 N565 N 0.60036 0.56021 0.17988
 C566 C 0.61144 0.55098 0.18243
 C567 C 0.61873 0.55562 0.19471
 C568 C 0.61148 0.56797 0.19922
 H569 H 0.61396 0.54148 0.17596
 H570 H 0.61403 0.57454 0.20864
 H571 H 0.57430 0.56949 0.18075
 H572 H 0.58586 0.58124 0.16887
 N573 N 0.64942 0.67947 0.18941
 N574 N 0.64955 0.68958 0.17930
 C575 C 0.63833 0.69874 0.18157
 C576 C 0.63087 0.69410 0.19375
 C577 C 0.63818 0.68186 0.19845
 H578 H 0.63585 0.70816 0.17500
 H579 H 0.63558 0.67528 0.20784
 Cu580 Cu 0.66461 0.69001 0.16445
 Cu581 Cu 0.66407 0.66423 0.19043
 Cu582 Cu 0.69067 0.66432 0.16375
 N583 N 0.67942 0.68969 0.14935
 N584 N 0.68957 0.67961 0.14916
 C585 C 0.69858 0.68208 0.13790
 C586 C 0.69382 0.69435 0.13066
 C587 C 0.68163 0.69891 0.13818
 H588 H 0.70799 0.67555 0.13525
 H589 H 0.67502 0.70833 0.13576
 N590 N 0.68993 0.64975 0.17943
 N591 N 0.67980 0.64973 0.18959
 C592 C 0.68238 0.63868 0.19885
 C593 C 0.69472 0.63145 0.19429
 C594 C 0.69922 0.63871 0.18196
 H595 H 0.67589 0.63612 0.20831
 H596 H 0.70866 0.63620 0.17543
 H597 H 0.68048 0.67578 0.18024
 H598 H 0.66870 0.66413 0.16845
 N599 N 0.14996 0.07007 1.06002
 N600 N 0.15005 0.06001 1.07018
 C601 C 0.13901 0.05067 1.06775
 C602 C 0.13167 0.05517 1.05544
 C603 C 0.13888 0.06750 1.05081
 H604 H 0.13651 0.04126 1.07436
 H605 H 0.13632 0.07403 1.04137
 Cu606 Cu 0.16467 0.06000 1.08546
 Cu607 Cu 0.16435 0.08557 1.05927
 Cu608 Cu 0.19097 0.08549 1.08595
 N609 N 0.17990 0.05993 1.10013
 N610 N 0.19011 0.06995 1.10028
 C611 C 0.19929 0.06730 1.11136
 C612 C 0.19459 0.05495 1.11850
 C613 C 0.18226 0.05054 1.11113
 H614 H 0.20876 0.07378 1.11396
 H615 H 0.17561 0.04114 1.11356
 N616 N 0.19000 0.10027 1.07050
 N617 N 0.17986 0.10030 1.06033
 C618 C 0.18228 0.11152 1.05124
 C619 C 0.19451 0.11887 1.05593
 C620 C 0.19913 0.11148 1.06814
 H621 H 0.17575 0.11412 1.04182
 H622 H 0.20855 0.11404 1.07471
 H623 H 0.18060 0.07402 1.06964
 H624 H 0.16893 0.08588 1.08132
 N625 N 0.60060 0.19015 0.57013
 N626 N 0.60036 0.18004 0.56000
 C627 C 0.61155 0.18225 0.55082
 C628 C 0.61915 0.19436 0.55547
 C629 C 0.61193 0.19910 0.56774
 H630 H 0.61394 0.17565 0.54139
 H631 H 0.61464 0.20847 0.57433
 Cu632 Cu 0.58519 0.16529 0.55963
 Cu633 Cu 0.58605 0.19124 0.58545
 Cu634 Cu 0.55922 0.16473 0.58535
 N635 N 0.57022 0.15032 0.55988
 N636 N 0.56012 0.15019 0.56999
 C637 C 0.55098 0.13903 0.56751
 C638 C 0.55557 0.13180 0.55519
 C639 C 0.56780 0.13922 0.55060
 H640 H 0.54157 0.13646 0.57405
 H641 H 0.57432 0.13678 0.54114
 N642 N 0.56016 0.18037 0.59994
 N643 N 0.57036 0.19047 0.59999
 C644 C 0.56788 0.19972 0.61108
 C645 C 0.55553 0.19520 0.61830
 C646 C 0.55091 0.18292 0.61100
 H647 H 0.57445 0.20914 0.61366
 H648 H 0.54143 0.17644 0.61350
 H649 H 0.58122 0.16928 0.58552
 H650 H 0.56950 0.18118 0.57398
 N651 N 0.09982 0.56977 0.69053
 N652 N 0.09959 0.55957 0.68049
 C653 C 0.11066 0.55027 0.68288
 C654 C 0.11816 0.55492 0.69505
 C655 C 0.11101 0.56732 0.69963
 H656 H 0.11307 0.54078 0.67635
 H657 H 0.11369 0.57397 0.70896
 Cu658 Cu 0.08474 0.55952 0.66543
 Cu659 Cu 0.08541 0.58528 0.69134
 Cu660 Cu 0.05876 0.58517 0.66461
 N661 N 0.06972 0.55946 0.65052
 N662 N 0.05965 0.56961 0.65024
 C663 C 0.05060 0.56707 0.63902
 C664 C 0.05524 0.55467 0.63191
 C665 C 0.06740 0.55010 0.63946
 H666 H 0.04125 0.57367 0.63630
 H667 H 0.07397 0.54064 0.63709
 N668 N 0.05972 0.59994 0.68012
 N669 N 0.06986 0.59998 0.69030
 C670 C 0.06734 0.61111 0.69950
 C671 C 0.05505 0.61838 0.69488
 C672 C 0.05050 0.61106 0.68258
 H673 H 0.07381 0.61367 0.70898
 H674 H 0.04104 0.61355 0.67606
 H675 H 0.06895 0.57390 0.68112
 H676 H 0.08073 0.58547 0.66935
 N677 N 0.64981 0.55998 0.06989
 N678 N 0.65007 0.57008 0.05977
 C679 C 0.63903 0.56773 0.05041
 C680 C 0.63153 0.55550 0.05493
 C681 C 0.63863 0.55088 0.06732
 H682 H 0.63663 0.57432 0.04098
 H683 H 0.63592 0.54153 0.07393
 Cu684 Cu 0.66477 0.58532 0.05993
 Cu685 Cu 0.66415 0.55916 0.08547
 Cu686 Cu 0.69072 0.58597 0.08570
 N687 N 0.67985 0.60018 0.06006
 N688 N 0.68987 0.60043 0.07026
 C689 C 0.69885 0.61176 0.06792
 C690 C 0.69422 0.61896 0.05558
 C691 C 0.68213 0.61137 0.05087
 H692 H 0.70810 0.61453 0.07464
 H693 H 0.67556 0.61382 0.04142
 N694 N 0.68974 0.57036 0.10035
 N695 N 0.67961 0.56017 0.10028
 C696 C 0.68211 0.55092 0.11136
 C697 C 0.69437 0.55551 0.11871
 C698 C 0.69893 0.56786 0.11148
 H699 H 0.67563 0.54141 0.11381
 H700 H 0.70838 0.57438 0.11405
 H701 H 0.66868 0.58128 0.08586
 H702 H 0.68054 0.56957 0.07423
 N703 N 0.07045 0.69022 0.60017
 N704 N 0.06022 0.68021 0.59990
 C705 C 0.05092 0.68261 0.61096
 C706 C 0.05559 0.69477 0.61849
 C707 C 0.06799 0.69932 0.61137
 H708 H 0.04140 0.67613 0.61332
 H709 H 0.07461 0.70868 0.61403
 Cu710 Cu 0.06012 0.66526 0.58491
 Cu711 Cu 0.08599 0.69099 0.58578
 Cu712 Cu 0.08582 0.66425 0.55906
 N713 N 0.06003 0.65026 0.56997
 N714 N 0.07018 0.64994 0.55991
 C715 C 0.06759 0.63874 0.55083
 C716 C 0.05518 0.63168 0.55545
 C717 C 0.05064 0.63924 0.56762
 H718 H 0.07413 0.63604 0.54144
 H719 H 0.04115 0.63691 0.57416
 N720 N 0.10067 0.67971 0.56009
 N721 N 0.10073 0.68988 0.57025
 C722 C 0.11198 0.69895 0.56784
 C723 C 0.11929 0.69427 0.55560
 C724 C 0.11187 0.68206 0.55096
 H725 H 0.11460 0.70837 0.57439
 H726 H 0.11440 0.67549 0.54154
 H727 H 0.07466 0.68089 0.56921
 H728 H 0.08606 0.66902 0.58100
 N729 N 0.56958 1.05992 0.64973
 N730 N 0.55938 1.06995 0.64993
 C731 C 0.55011 1.06755 0.63881
 C732 C 0.55475 1.05533 0.63132
 C733 C 0.56714 1.05079 0.63853
 H734 H 0.54063 1.07409 0.63641
 H735 H 0.57382 1.04146 0.63590
 Cu736 Cu 0.55931 1.08504 0.66485
 Cu737 Cu 0.58505 1.05911 0.66423
 Cu738 Cu 0.58491 1.08588 0.69091
 N739 N 0.55923 1.10001 0.67988
 N740 N 0.56937 1.10030 0.68998
 C741 C 0.56682 1.11152 0.69906
 C742 C 0.55442 1.11865 0.69441
 C743 C 0.54989 1.11109 0.68219
 H744 H 0.57343 1.11422 0.70841
 H745 H 0.54044 1.11343 0.67559
 N746 N 0.59970 1.07035 0.68999
 N747 N 0.59974 1.06016 0.67984
 C748 C 0.61086 1.05096 0.68239
 C749 C 0.61813 1.05557 0.69470
 C750 C 0.61080 1.06788 0.69924
 H751 H 0.61341 1.04147 0.67590
 H752 H 0.61329 1.07441 0.70870
 H753 H 0.57368 1.06933 0.68067
 H754 H 0.58524 1.08115 0.66890
 N755 N 0.43971 0.35098 0.92961
 N756 N 0.42970 0.35067 0.93982
 C757 C 0.43195 0.36183 0.94908
 C758 C 0.44404 0.36948 0.94441
 C759 C 0.44868 0.36231 0.93203
 H760 H 0.42537 0.36421 0.95853
 H761 H 0.45793 0.36508 0.92533
 Cu762 Cu 0.41476 0.33565 0.93988
 Cu763 Cu 0.44057 0.33658 0.91406
 Cu764 Cu 0.41405 0.30970 0.91415
 N765 N 0.40001 0.32045 0.93995
 N766 N 0.39976 0.31041 0.92976
 C767 C 0.38865 0.30123 0.93228
 C768 C 0.38156 0.30575 0.94472
 C769 C 0.38901 0.31799 0.94932
 H770 H 0.38599 0.29188 0.92565
 H771 H 0.38662 0.32451 0.95882
 N772 N 0.42947 0.31083 0.89932
 N773 N 0.43958 0.32103 0.89929
 C774 C 0.44867 0.31866 0.88805
 C775 C 0.44405 0.30639 0.88070
 C776 C 0.43186 0.30170 0.88810
 H777 H 0.45805 0.32525 0.88545
 H778 H 0.42535 0.29224 0.88555
 H779 H 0.41861 0.33175 0.91392
 H780 H 0.43053 0.32002 0.92540
 N781 N 0.93944 0.42911 0.35136
 N782 N 0.92942 0.43932 0.35112
 C783 C 0.93174 0.44859 0.36226
 C784 C 0.94388 0.44391 0.36983
 C785 C 0.94848 0.43152 0.36263
 H786 H 0.92517 0.45805 0.36467
 H787 H 0.95774 0.42480 0.36534
 Cu788 Cu 0.91444 0.43935 0.33615
 Cu789 Cu 0.94025 0.41356 0.33694
 Cu790 Cu 0.91351 0.41361 0.31026
 N791 N 0.89945 0.43938 0.32119
 N792 N 0.89915 0.42919 0.31114
 C793 C 0.88788 0.43162 0.30213
 C794 C 0.88074 0.44400 0.30677
 C795 C 0.88833 0.44866 0.31890
 H796 H 0.88512 0.42494 0.29285
 H797 H 0.88594 0.45813 0.32547
 N798 N 0.92901 0.39883 0.31124
 N799 N 0.93919 0.39881 0.32138
 C800 C 0.94830 0.38760 0.31891
 C801 C 0.94362 0.38027 0.30665
 C802 C 0.93138 0.38764 0.30207
 H803 H 0.95774 0.38501 0.32542
 H804 H 0.92482 0.38510 0.29265
 H805 H 0.93007 0.42487 0.32044
 H806 H 0.91825 0.41338 0.33226
 N807 N 0.31080 0.93002 0.39953
 N808 N 0.32115 0.93990 0.39938
 C809 C 0.31912 0.94877 0.38789
 C810 C 0.30684 0.94416 0.38051
 C811 C 0.30185 0.93224 0.38817
 H812 H 0.32591 0.95797 0.38516
 H813 H 0.29227 0.92584 0.38580
 Cu814 Cu 0.33603 0.94010 0.41448
 Cu815 Cu 0.30911 0.91568 0.41502
 Cu816 Cu 0.33690 0.91446 0.44048
 N817 N 0.35091 0.94030 0.42954
 N818 N 0.35125 0.93008 0.43954
 C819 C 0.36253 0.93252 0.44854
 C820 C 0.36965 0.94494 0.44393
 C821 C 0.36201 0.94961 0.43183
 H822 H 0.36531 0.92581 0.45779
 H823 H 0.36439 0.95906 0.42525
 N824 N 0.32121 0.89982 0.43953
 N825 N 0.31063 0.90027 0.42983
 C826 C 0.30142 0.88914 0.43231
 C827 C 0.30639 0.88143 0.44418
 C828 C 0.31895 0.88845 0.44849
 H829 H 0.29165 0.88695 0.42614
 H830 H 0.32575 0.88562 0.45765
 H831 H 0.32072 0.92644 0.43125
 H832 H 0.33122 0.91445 0.41869
 O833 O 0.21152 0.51908 0.74906
 O834 O 0.21619 0.51684 0.77423
 O835 O 0.24912 0.53872 0.73133
 O836 O 0.27341 0.53469 0.73149
 O837 O 0.23102 0.50126 0.71151
 O838 O 0.23214 0.47513 0.71679
 O839 O 0.28792 0.49922 0.76962
 O840 O 0.28397 0.52434 0.76629
 O841 O 0.25169 0.48097 0.78787
 O842 O 0.22500 0.48239 0.78289
 O843 O 0.26957 0.46242 0.75163
 O844 O 0.26822 0.46549 0.72694
 O845 O 0.28806 0.48173 0.75204
 O846 O 0.28241 0.48417 0.72429
 O847 O 0.25188 0.46215 0.76891
 O848 O 0.22492 0.46708 0.76680
 O849 O 0.26934 0.49833 0.78782
 O850 O 0.26412 0.52490 0.78348
 O851 O 0.21140 0.50124 0.73176
 O852 O 0.21682 0.47513 0.73331
 O853 O 0.24872 0.51860 0.71133
 O854 O 0.27525 0.51595 0.71710
 O855 O 0.23139 0.53867 0.74863
 O856 O 0.23499 0.53322 0.77501
 Zr857 Zr 0.23252 0.51776 0.75803
 O858 O 0.24520 0.50478 0.77200
 Zr859 Zr 0.25802 0.51761 0.73227
 O860 O 0.27201 0.50510 0.74542
 Zr861 Zr 0.23241 0.49202 0.73244
 O862 O 0.24549 0.47813 0.74513
 Zr863 Zr 0.26724 0.50856 0.76747
 O864 O 0.25462 0.52269 0.75439
 Zr865 Zr 0.24187 0.48267 0.76725
 O866 O 0.22769 0.49558 0.75454
 Zr867 Zr 0.26756 0.48298 0.74185
 O868 O 0.25452 0.49542 0.72741
 O869 O 0.23615 0.51394 0.73609
 O870 O 0.26382 0.48651 0.76379
 C871 C 0.20543 0.51184 0.73872
 C872 C 0.23855 0.54472 0.73826
 C873 C 0.23813 0.51163 0.70540
 C874 C 0.29383 0.48852 0.76284
 C875 C 0.26253 0.48763 0.79368
 C876 C 0.26275 0.45645 0.76225
 H877 H 0.24294 0.50711 0.78225
 H878 H 0.24345 0.46786 0.74261
 H879 H 0.22993 0.52015 0.72992
 H880 H 0.28227 0.50753 0.74329
 H881 H 0.27930 0.53356 0.76327
 H882 H 0.28125 0.53219 0.73840
 H883 H 0.22687 0.46029 0.75868
 H884 H 0.21167 0.47619 0.74270
 H885 H 0.27240 0.52438 0.79037
 H886 H 0.22717 0.54060 0.77411
 H887 H 0.26041 0.46733 0.71981
 H888 H 0.24034 0.47690 0.71005
 H889 H 0.21191 0.50697 0.77376
 H890 H 0.22635 0.49090 0.78934
 H891 H 0.27321 0.50736 0.71093
 H892 H 0.29033 0.49088 0.72711
 O893 O 0.24893 0.03829 0.23066
 O894 O 0.27406 0.03371 0.23292
 O895 O 0.23119 0.00042 0.21134
 O896 O 0.23137 -0.02385 0.21556
 O897 O 0.21141 0.01880 0.24863
 O898 O 0.21670 0.01798 0.27469
 O899 O 0.26950 -0.03800 0.25092
 O900 O 0.26623 -0.03417 0.22587
 O901 O 0.28781 -0.00143 0.26896
 O902 O 0.28272 0.02525 0.26739
 O903 O 0.25178 -0.01943 0.28765
 O904 O 0.22705 -0.01813 0.28469
 O905 O 0.25194 -0.03809 0.26839
 O906 O 0.22421 -0.03235 0.26617
 O907 O 0.26897 -0.00163 0.28779
 O908 O 0.26673 0.02531 0.28276
 O909 O 0.28773 -0.01929 0.25179
 O910 O 0.28337 -0.01428 0.22521
 O911 O 0.23166 0.03852 0.24846
 O912 O 0.23324 0.03330 0.27463
 O913 O 0.21123 0.00094 0.23145
 O914 O 0.21704 -0.02557 0.23427
 O915 O 0.24850 0.01818 0.21126
 O916 O 0.27489 0.01476 0.21675
 Zr917 Zr 0.25790 0.01730 0.23214
 O918 O 0.27189 0.00476 0.24520
 Zr919 Zr 0.23217 -0.00828 0.23249
 O920 O 0.24535 -0.02215 0.24508
 Zr921 Zr 0.23235 0.01757 0.25785
 O922 O 0.24507 0.00461 0.27184
 Zr923 Zr 0.26738 -0.01733 0.24155
 O924 O 0.25426 -0.00486 0.22737
 Zr925 Zr 0.26716 0.00827 0.26726
 O926 O 0.25443 0.02232 0.25426
 Zr927 Zr 0.24183 -0.01753 0.26715
 O928 O 0.22736 -0.00461 0.25464
 O929 O 0.23597 0.01366 0.23599
 O930 O 0.26375 -0.01375 0.26356
 C931 C 0.23861 0.04443 0.23784
 C932 C 0.23813 0.01094 0.20526
 C933 C 0.20529 0.01157 0.23834
 C934 C 0.26270 -0.04389 0.26160
 C935 C 0.29360 -0.01233 0.26238
 C936 C 0.26241 -0.01253 0.29354
 H937 H 0.28214 0.00704 0.24285
 H938 H 0.24259 0.00672 0.28208
 H939 H 0.22978 0.01981 0.22973
 H940 H 0.24322 -0.03244 0.24272
 H941 H 0.26317 -0.02956 0.21663
 H942 H 0.23833 -0.03164 0.21809
 H943 H 0.25864 0.02336 0.28957
 H944 H 0.24262 0.03847 0.27353
 H945 H 0.29027 -0.02254 0.22579
 H946 H 0.27394 0.02249 0.20928
 H947 H 0.22012 -0.01009 0.28305
 H948 H 0.21006 0.00965 0.27306
 H949 H 0.27363 0.03808 0.24275
 H950 H 0.28920 0.02383 0.25893
 H951 H 0.21088 -0.02348 0.24284
 H952 H 0.22690 -0.04025 0.25937
 O953 O 0.49931 0.76954 0.28837
 O954 O 0.52447 0.76710 0.28370
 O955 O 0.48159 0.78903 0.25073
 O956 O 0.48175 0.78498 0.22645
 O957 O 0.46169 0.75170 0.26883
 O958 O 0.46691 0.72559 0.26793
 O959 O 0.51971 0.74935 0.21197
 O960 O 0.51645 0.77447 0.21590
 O961 O 0.53793 0.73111 0.24827
 O962 O 0.53299 0.73260 0.27494
 O963 O 0.50158 0.71262 0.23040
 O964 O 0.47693 0.71584 0.23166
 O965 O 0.50210 0.73189 0.21185
 O966 O 0.47433 0.73447 0.21753
 O967 O 0.51890 0.71237 0.24807
 O968 O 0.51686 0.71735 0.27503
 O969 O 0.53792 0.74843 0.23059
 O970 O 0.53366 0.77504 0.23574
 O971 O 0.48193 0.75181 0.28852
 O972 O 0.48349 0.72561 0.28319
 O973 O 0.46154 0.76898 0.25110
 O974 O 0.46729 0.76628 0.22460
 O975 O 0.49895 0.78899 0.26843
 O976 O 0.52530 0.78343 0.26487
 Zr977 Zr 0.50826 0.76806 0.26736
 O978 O 0.52215 0.75499 0.25469
 Zr979 Zr 0.48247 0.76792 0.24185
 O980 O 0.49555 0.75533 0.22786
 Zr981 Zr 0.48260 0.74243 0.26754
 O982 O 0.49520 0.72845 0.25445
 Zr983 Zr 0.51761 0.75873 0.23265
 O984 O 0.50460 0.77293 0.24525
 Zr985 Zr 0.51733 0.73291 0.25807
 O986 O 0.50471 0.74591 0.27225
 Zr987 Zr 0.49192 0.73324 0.23236
 O988 O 0.47756 0.74576 0.24541
 O989 O 0.48631 0.76431 0.26374
 O990 O 0.51387 0.73671 0.23611
 C991 C 0.48893 0.76241 0.29447
 C992 C 0.48857 0.79504 0.26128
 C993 C 0.45560 0.76205 0.26167
 C994 C 0.51290 0.73865 0.20607
 C995 C 0.54375 0.73774 0.23743
 C996 C 0.51220 0.70664 0.23722
 H997 H 0.53242 0.75728 0.25696
 H998 H 0.49265 0.71820 0.25652
 H999 H 0.48015 0.77056 0.26993
 H1000 H 0.49342 0.75773 0.21760
 H1001 H 0.51345 0.78371 0.22056
 H1002 H 0.48858 0.78240 0.21857
 H1003 H 0.50870 0.71061 0.27310
 H1004 H 0.49286 0.72672 0.28837
 H1005 H 0.54053 0.77448 0.22745
 H1006 H 0.52443 0.79084 0.27268
 H1007 H 0.46996 0.71758 0.23964
 H1008 H 0.46022 0.72727 0.25966
 H1009 H 0.52394 0.75726 0.28803
 H1010 H 0.53943 0.74112 0.27361
 H1011 H 0.46110 0.75772 0.22664
 H1012 H 0.47719 0.74109 0.20955
 O1013 O 0.00099 0.71157 0.73107
 O1014 O -0.02420 0.71637 0.73329
 O1015 O 0.01886 0.74913 0.71146
 O1016 O 0.01852 0.77351 0.71547
 O1017 O 0.03871 0.73120 0.74908
 O1018 O 0.03353 0.73270 0.77472
 O1019 O -0.01924 0.78806 0.75137
 O1020 O -0.01592 0.78430 0.72619
 O1021 O -0.03765 0.75177 0.76925
 O1022 O -0.03290 0.72514 0.76770
 O1023 O -0.00110 0.76925 0.78793
 O1024 O 0.02535 0.76793 0.78296
 O1025 O -0.00172 0.78801 0.76890
 O1026 O 0.02549 0.78307 0.76685
 O1027 O -0.01862 0.75177 0.78801
 O1028 O -0.01673 0.72469 0.78277
 O1029 O -0.03754 0.76951 0.75201
 O1030 O -0.03321 0.76450 0.72544
 O1031 O 0.01835 0.71142 0.74882
 O1032 O 0.01698 0.71675 0.77484
 O1033 O 0.03885 0.74878 0.73163
 O1034 O 0.03321 0.77524 0.73415
 O1035 O 0.00149 0.73143 0.71150
 O1036 O -0.02485 0.73517 0.71693
 Zr1037 Zr -0.00790 0.73263 0.73238
 O1038 O -0.02181 0.74535 0.74540
 Zr1039 Zr 0.01791 0.75810 0.73252
 O1040 O 0.00491 0.77209 0.74519
 Zr1041 Zr 0.01769 0.73244 0.75807
 O1042 O 0.00502 0.74541 0.77206
 Zr1043 Zr -0.01718 0.76742 0.74179
 O1044 O -0.00423 0.75477 0.72755
 Zr1045 Zr -0.01708 0.74188 0.76745
 O1046 O -0.00441 0.72773 0.75451
 Zr1047 Zr 0.00850 0.76752 0.76728
 O1048 O 0.02272 0.75454 0.75463
 O1049 O 0.01406 0.73620 0.73617
 O1050 O -0.01348 0.76386 0.76379
 C1051 C 0.01132 0.70546 0.73826
 C1052 C 0.01189 0.73856 0.70546
 C1053 C 0.04481 0.73827 0.73868
 C1054 C -0.01249 0.79387 0.76216
 C1055 C -0.04342 0.76265 0.76265
 C1056 C -0.01180 0.76249 0.79382
 H1057 H -0.03207 0.74314 0.74306
 H1058 H 0.00740 0.74311 0.78229
 H1059 H 0.02025 0.72997 0.72999
 H1060 H 0.00704 0.78236 0.74283
 H1061 H -0.01292 0.77968 0.71693
 H1062 H 0.01196 0.78157 0.71825
 H1063 H -0.00883 0.72669 0.78980
 H1064 H 0.00750 0.71172 0.77395
 H1065 H -0.04004 0.77283 0.72602
 H1066 H -0.02401 0.72731 0.70957
 H1067 H 0.02430 0.75917 0.78911
 H1068 H 0.03825 0.74237 0.77429
 H1069 H -0.02371 0.71201 0.74311
 H1070 H -0.03923 0.72645 0.75910
 H1071 H 0.03892 0.77350 0.74311
 H1072 H 0.02328 0.79019 0.75910
 O1073 O 0.00108 0.03789 0.01922
 O1074 O -0.02404 0.03318 0.01686
 O1075 O 0.01888 0.00011 0.03851
 O1076 O 0.01887 -0.02415 0.03426
 O1077 O 0.03870 0.01858 0.00131
 O1078 O 0.03349 0.01773 -0.02478
 O1079 O -0.01915 -0.03848 -0.00130
 O1080 O -0.01591 -0.03470 0.02381
 O1081 O -0.03759 -0.00199 -0.01917
 O1082 O -0.03257 0.02464 -0.01772
 O1083 O -0.00138 -0.01994 -0.03787
 O1084 O 0.02334 -0.01836 -0.03486
 O1085 O -0.00148 -0.03853 -0.01866
 O1086 O 0.02618 -0.03265 -0.01632
 O1087 O -0.01871 -0.00228 -0.03801
 O1088 O -0.01649 0.02476 -0.03299
 O1089 O -0.03747 -0.01985 -0.00204
 O1090 O -0.03312 -0.01488 0.02452
 O1091 O 0.01836 0.03819 0.00143
 O1092 O 0.01688 0.03295 -0.02473
 O1093 O 0.03892 0.00073 0.01847
 O1094 O 0.03323 -0.02581 0.01559
 O1095 O 0.00151 0.01780 0.03858
 O1096 O -0.02484 0.01423 0.03299
 Zr1097 Zr -0.00781 0.01686 0.01766
 O1098 O -0.02171 0.00423 0.00455
 Zr1099 Zr 0.01803 -0.00860 0.01735
 O1100 O 0.00494 -0.02255 0.00471
 Zr1101 Zr 0.01779 0.01723 -0.00798
 O1102 O 0.00517 0.00419 -0.02202
 Zr1103 Zr -0.01712 -0.01783 0.00818
 O1104 O -0.00409 -0.00528 0.02242
 Zr1105 Zr -0.01695 0.00773 -0.01749
 O1106 O -0.00432 0.02187 -0.00444
 Zr1107 Zr 0.00851 -0.01792 -0.01735
 O1108 O 0.02288 -0.00492 -0.00478
 O1109 O 0.01414 0.01332 0.01387
 O1110 O -0.01344 -0.01426 -0.01381
 C1111 C 0.01138 0.04407 0.01206
 C1112 C 0.01189 0.01060 0.04459
 C1113 C 0.04483 0.01138 0.01161
 C1114 C -0.01227 -0.04435 -0.01195
 C1115 C -0.04337 -0.01289 -0.01260
 C1116 C -0.01207 -0.01315 -0.04376
 H1117 H -0.03197 0.00647 0.00688
 H1118 H 0.00767 0.00631 -0.03226
 H1119 H 0.02028 0.01951 0.02016
 H1120 H 0.00710 -0.03282 0.00706
 H1121 H -0.01292 -0.03009 0.03307
 H1122 H 0.01193 -0.03197 0.03171
 H1123 H -0.00851 0.02272 -0.03990
 H1124 H 0.00746 0.03804 -0.02367
 H1125 H -0.03998 -0.02318 0.02394
 H1126 H -0.02395 0.02196 0.04048
 H1127 H 0.03038 -0.01046 -0.03301
 H1128 H 0.04019 0.00948 -0.02313
 H1129 H -0.02356 0.03758 0.00706
 H1130 H -0.03894 0.02334 -0.00916
 H1131 H 0.03944 -0.02367 0.00707
 H1132 H 0.02353 -0.04054 -0.00951
 O1133 O 0.00092 0.53835 0.51928
 O1134 O -0.02424 0.53366 0.51702
 O1135 O 0.01875 0.50057 0.53856
 O1136 O 0.01859 0.47628 0.53435
 O1137 O 0.03841 0.51896 0.50128
 O1138 O 0.03312 0.51803 0.47520
 O1139 O -0.01967 0.46196 0.49889
 O1140 O -0.01620 0.46575 0.52400
 O1141 O -0.03798 0.49845 0.48106
 O1142 O -0.03293 0.52511 0.48254
 O1143 O -0.00188 0.48050 0.46225
 O1144 O 0.02286 0.48189 0.46523
 O1145 O -0.00212 0.46188 0.48141
 O1146 O 0.02564 0.46761 0.48376
 O1147 O -0.01918 0.49819 0.46216
 O1148 O -0.01691 0.52519 0.46719
 O1149 O -0.03785 0.48065 0.49826
 O1150 O -0.03337 0.48563 0.52481
 O1151 O 0.01814 0.53859 0.50143
 O1152 O 0.01650 0.53329 0.47527
 O1153 O 0.03868 0.50112 0.51844
 O1154 O 0.03293 0.47458 0.51558
 O1155 O 0.00142 0.51831 0.53867
 O1156 O -0.02496 0.51475 0.53324
 Zr1157 Zr -0.00802 0.51732 0.51780
 O1158 O -0.02201 0.50469 0.50476
 Zr1159 Zr 0.01776 0.49180 0.51741
 O1160 O 0.00458 0.47785 0.50484
 Zr1161 Zr 0.01747 0.51760 0.49205
 O1162 O 0.00476 0.50457 0.47808
 Zr1163 Zr -0.01746 0.48262 0.50839
 O1164 O -0.00434 0.49517 0.52256
 Zr1165 Zr -0.01733 0.50817 0.48269
 O1166 O -0.00461 0.52230 0.49567
 Zr1167 Zr 0.00804 0.48244 0.48275
 O1168 O 0.02251 0.49544 0.49525
 O1169 O 0.01390 0.51372 0.51391
 O1170 O -0.01387 0.48617 0.48637
 C1171 C 0.01121 0.54450 0.51209
 C1172 C 0.01182 0.51111 0.54464
 C1173 C 0.04457 0.51179 0.51158
 C1174 C -0.01290 0.45608 0.48817
 C1175 C -0.04376 0.48758 0.48768
 C1176 C -0.01257 0.48732 0.45638
 H1177 H -0.03225 0.50696 0.50713
 H1178 H 0.00723 0.50667 0.46783
 H1179 H 0.02007 0.51992 0.52016
 H1180 H 0.00672 0.46757 0.50718
 H1181 H -0.01314 0.47036 0.53325
 H1182 H 0.01170 0.46843 0.53178
 H1183 H -0.00891 0.52317 0.46029
 H1184 H 0.00712 0.53844 0.47640
 H1185 H -0.04025 0.47734 0.52426
 H1186 H -0.02404 0.52253 0.54068
 H1187 H 0.02985 0.48985 0.46698
 H1188 H 0.03981 0.50975 0.47686
 H1189 H -0.02377 0.53806 0.50722
 H1190 H -0.03930 0.52377 0.49109
 H1191 H 0.03909 0.47670 0.50702
 H1192 H 0.02290 0.45966 0.49046
 O1193 O 0.50097 0.03882 0.51893
 O1194 O 0.47579 0.03406 0.51660
 O1195 O 0.51881 0.00127 0.53852
 O1196 O 0.51846 -0.02309 0.53455
 O1197 O 0.53858 0.01925 0.50116
 O1198 O 0.53335 0.01830 0.47508
 O1199 O 0.48053 -0.03770 0.49873
 O1200 O 0.48377 -0.03379 0.52389
 O1201 O 0.46233 -0.00128 0.48060
 O1202 O 0.46727 0.02532 0.48206
 O1203 O 0.49866 -0.01923 0.46218
 O1204 O 0.52333 -0.01790 0.46539
 O1205 O 0.49822 -0.03783 0.48139
 O1206 O 0.52593 -0.03211 0.48399
 O1207 O 0.48135 -0.00155 0.46191
 O1208 O 0.48349 0.02549 0.46693
 O1209 O 0.46233 -0.01905 0.49783
 O1210 O 0.46657 -0.01393 0.52444
 O1211 O 0.51831 0.03893 0.50118
 O1212 O 0.51681 0.03353 0.47505
 O1213 O 0.53876 0.00151 0.51842
 O1214 O 0.53295 -0.02503 0.51586
 O1215 O 0.50145 0.01897 0.53845
 O1216 O 0.47508 0.01524 0.53295
 Zr1217 Zr 0.49205 0.01777 0.51755
 O1218 O 0.47814 0.00508 0.50447
 Zr1219 Zr 0.51781 -0.00774 0.51745
 O1220 O 0.50471 -0.02176 0.50484
 Zr1221 Zr 0.51767 0.01792 0.49190
 O1222 O 0.50506 0.00482 0.47795
 Zr1223 Zr 0.48264 -0.01700 0.50818
 O1224 O 0.49567 -0.00437 0.52241
 Zr1225 Zr 0.48295 0.00846 0.48242
 O1226 O 0.49558 0.02265 0.49541
 Zr1227 Zr 0.50835 -0.01728 0.48277
 O1228 O 0.52271 -0.00422 0.49529
 O1229 O 0.51399 0.01416 0.51378
 O1230 O 0.48640 -0.01353 0.48620
 C1231 C 0.51132 0.04491 0.51174
 C1232 C 0.51187 0.01186 0.54451
 C1233 C 0.54469 0.01210 0.51148
 C1234 C 0.48738 -0.04362 0.48807
 C1235 C 0.45650 -0.01216 0.48717
 C1236 C 0.48804 -0.01241 0.45620
 H1237 H 0.46788 0.00734 0.50676
 H1238 H 0.50761 0.00689 0.46771
 H1239 H 0.52017 0.02039 0.52000
 H1240 H 0.50683 -0.03202 0.50725
 H1241 H 0.48677 -0.02913 0.53313
 H1242 H 0.51164 -0.03100 0.53194
 H1243 H 0.49151 0.02345 0.46007
 H1244 H 0.50745 0.03874 0.47614
 H1245 H 0.45969 -0.02222 0.52383
 H1246 H 0.47595 0.02307 0.54034
 H1247 H 0.53041 -0.01004 0.46725
 H1248 H 0.54008 0.01008 0.47679
 H1249 H 0.47633 0.03844 0.50679
 H1250 H 0.46092 0.02408 0.49064
 H1251 H 0.53913 -0.02302 0.50729
 H1252 H 0.52312 -0.04003 0.49070
 O1253 O 0.53819 0.51926 0.00082
 O1254 O 0.53349 0.51686 -0.02435
 O1255 O 0.50057 0.53875 0.01859
 O1256 O 0.47628 0.53468 0.01839
 O1257 O 0.51874 0.50144 0.03840
 O1258 O 0.51780 0.47533 0.03319
 O1259 O 0.46184 0.49901 -0.01973
 O1260 O 0.46567 0.52415 -0.01632
 O1261 O 0.49820 0.48095 -0.03790
 O1262 O 0.52481 0.48232 -0.03289
 O1263 O 0.48024 0.46234 -0.00165
 O1264 O 0.48156 0.46552 0.02305
 O1265 O 0.46169 0.48160 -0.00211
 O1266 O 0.46740 0.48414 0.02569
 O1267 O 0.49787 0.46213 -0.01898
 O1268 O 0.52487 0.46706 -0.01679
 O1269 O 0.48051 0.49827 -0.03788
 O1270 O 0.48555 0.52484 -0.03348
 O1271 O 0.53837 0.50149 0.01815
 O1272 O 0.53302 0.47529 0.01656
 O1273 O 0.50100 0.51871 0.03859
 O1274 O 0.47449 0.51596 0.03285
 O1275 O 0.51824 0.53872 0.00122
 O1276 O 0.51467 0.53317 -0.02514
 Zr1277 Zr 0.51718 0.51779 -0.00813
 O1278 O 0.50452 0.50472 -0.02204
 Zr1279 Zr 0.49170 0.51763 0.01766
 O1280 O 0.47771 0.50504 0.00454
 Zr1281 Zr 0.51739 0.49214 0.01749
 O1282 O 0.50430 0.47816 0.00485
 Zr1283 Zr 0.48248 0.50847 -0.01751
 O1284 O 0.49507 0.52267 -0.00446
 Zr1285 Zr 0.50792 0.48264 -0.01726
 O1286 O 0.52209 0.49564 -0.00461
 Zr1287 Zr 0.48221 0.48294 0.00811
 O1288 O 0.49526 0.49546 0.02251
 O1289 O 0.51358 0.51402 0.01382
 O1290 O 0.48596 0.48644 -0.01383
 C1291 C 0.54431 0.51211 0.01117
 C1292 C 0.51110 0.54476 0.01163
 C1293 C 0.51161 0.51180 0.04451
 C1294 C 0.45592 0.48832 -0.01294
 C1295 C 0.48738 0.48761 -0.04372
 C1296 C 0.48703 0.45639 -0.01231
 H1297 H 0.50679 0.50703 -0.03230
 H1298 H 0.50638 0.46790 0.00737
 H1299 H 0.51978 0.52027 0.01998
 H1300 H 0.46744 0.50743 0.00666
 H1301 H 0.47030 0.53340 -0.01329
 H1302 H 0.46838 0.53207 0.01157
 H1303 H 0.52286 0.46023 -0.00873
 H1304 H 0.53820 0.47641 0.00719
 H1305 H 0.47727 0.52429 -0.04037
 H1306 H 0.52247 0.54059 -0.02425
 H1307 H 0.48958 0.46723 0.02999
 H1308 H 0.50953 0.47701 0.03986
 H1309 H 0.53788 0.50704 -0.02380
 H1310 H 0.52355 0.49090 -0.03925
 H1311 H 0.47655 0.50739 0.03902
 H1312 H 0.45943 0.49078 0.02285
 O1313 O 0.76936 0.28857 0.49917
 O1314 O 0.76707 0.28378 0.52436
 O1315 O 0.78884 0.25102 0.48123
 O1316 O 0.78480 0.22662 0.48166
 O1317 O 0.75128 0.26900 0.46141
 O1318 O 0.72564 0.26766 0.46659
 O1319 O 0.74888 0.21213 0.51920
 O1320 O 0.77404 0.21586 0.51597
 O1321 O 0.73102 0.24847 0.53774
 O1322 O 0.73258 0.27508 0.53304
 O1323 O 0.71232 0.23102 0.50122
 O1324 O 0.71729 0.23248 0.47469
 O1325 O 0.73136 0.21224 0.50166
 O1326 O 0.73328 0.21724 0.47453
 O1327 O 0.71225 0.24849 0.51876
 O1328 O 0.71755 0.27559 0.51681
 O1329 O 0.74821 0.23065 0.53758
 O1330 O 0.77476 0.23561 0.53332
 O1331 O 0.75163 0.28879 0.48179
 O1332 O 0.72559 0.28360 0.48317
 O1333 O 0.76869 0.25137 0.46128
 O1334 O 0.76613 0.22496 0.46685
 O1335 O 0.78884 0.26866 0.49867
 O1336 O 0.78335 0.26490 0.52502
 Zr1337 Zr 0.76795 0.26752 0.50804
 O1338 O 0.75487 0.25483 0.52191
 Zr1339 Zr 0.76777 0.24207 0.48220
 O1340 O 0.75503 0.22812 0.49515
 Zr1341 Zr 0.74229 0.26782 0.48244
 O1342 O 0.72823 0.25488 0.49507
 Zr1343 Zr 0.75844 0.23276 0.51725
 O1344 O 0.77274 0.24537 0.50435
 Zr1345 Zr 0.73282 0.25836 0.51719
 O1346 O 0.74583 0.27249 0.50455
 Zr1347 Zr 0.73296 0.23276 0.49155
 O1348 O 0.74568 0.24571 0.47737
 O1349 O 0.76416 0.26397 0.48608
 O1350 O 0.73645 0.23637 0.51355
 C1351 C 0.76222 0.29471 0.48881
 C1352 C 0.79486 0.26155 0.48823
 C1353 C 0.76167 0.26190 0.45532
 C1354 C 0.73811 0.20634 0.51240
 C1355 C 0.73759 0.23755 0.54348
 C1356 C 0.70643 0.23777 0.51193
 H1357 H 0.75721 0.25702 0.53218
 H1358 H 0.71801 0.25721 0.49269
 H1359 H 0.77036 0.27019 0.47989
 H1360 H 0.75737 0.21784 0.49299
 H1361 H 0.78330 0.22048 0.51298
 H1362 H 0.78191 0.21849 0.48808
 H1363 H 0.71049 0.27358 0.50895
 H1364 H 0.72650 0.28861 0.49266
 H1365 H 0.77417 0.22725 0.54012
 H1366 H 0.79076 0.27271 0.52419
 H1367 H 0.71105 0.24117 0.47587
 H1368 H 0.72598 0.25796 0.46190
 H1369 H 0.75727 0.28819 0.52384
 H1370 H 0.74123 0.27380 0.53930
 H1371 H 0.75716 0.22669 0.46117
 H1372 H 0.74114 0.21019 0.47660
 O1373 O 0.75098 0.76952 -0.03849
 O1374 O 0.72580 0.76730 -0.03376
 O1375 O 0.76903 0.78868 -0.00079
 O1376 O 0.76887 0.78454 0.02346
 O1377 O 0.78845 0.75118 -0.01916
 O1378 O 0.78294 0.72514 -0.01843
 O1379 O 0.73060 0.74919 0.03786
 O1380 O 0.73406 0.77432 0.03405
 O1381 O 0.71208 0.73128 0.00148
 O1382 O 0.71693 0.73282 -0.02516
 O1383 O 0.74825 0.71239 0.01915
 O1384 O 0.77294 0.71534 0.01781
 O1385 O 0.74805 0.73159 0.03784
 O1386 O 0.77580 0.73390 0.03206
 O1387 O 0.73089 0.71234 0.00151
 O1388 O 0.73296 0.71745 -0.02543
 O1389 O 0.71232 0.74849 0.01930
 O1390 O 0.71679 0.77508 0.01427
 O1391 O 0.76818 0.75163 -0.03879
 O1392 O 0.76631 0.72541 -0.03363
 O1393 O 0.78882 0.76841 -0.00135
 O1394 O 0.78312 0.76568 0.02517
 O1395 O 0.75160 0.78888 -0.01842
 O1396 O 0.72519 0.78355 -0.01483
 Zr1397 Zr 0.74207 0.76803 -0.01747
 O1398 O 0.72808 0.75503 -0.00484
 Zr1399 Zr 0.76792 0.76754 0.00797
 O1400 O 0.75475 0.75502 0.02192
 Zr1401 Zr 0.76745 0.74215 -0.01787
 O1402 O 0.75476 0.72823 -0.00482
 Zr1403 Zr 0.73271 0.75864 0.01722
 O1404 O 0.74583 0.77277 0.00467
 Zr1405 Zr 0.73267 0.73292 -0.00836
 O1406 O 0.74537 0.74587 -0.02249
 Zr1407 Zr 0.75815 0.73291 0.01728
 O1408 O 0.77259 0.74535 0.00426
 O1409 O 0.76399 0.76405 -0.01393
 O1410 O 0.73623 0.73659 0.01362
 C1411 C 0.76128 0.76233 -0.04466
 C1412 C 0.76207 0.79481 -0.01128
 C1413 C 0.79467 0.76145 -0.01198
 C1414 C 0.73733 0.73842 0.04369
 C1415 C 0.70637 0.73788 0.01240
 C1416 C 0.73756 0.70653 0.01233
 H1417 H 0.71783 0.75743 -0.00705
 H1418 H 0.75720 0.71797 -0.00695
 H1419 H 0.77020 0.77027 -0.02010
 H1420 H 0.75694 0.75737 0.03218
 H1421 H 0.73713 0.78355 0.02943
 H1422 H 0.76199 0.78201 0.03132
 H1423 H 0.74104 0.71061 -0.02355
 H1424 H 0.75696 0.72667 -0.03881
 H1425 H 0.70994 0.77454 0.02257
 H1426 H 0.72613 0.79099 -0.02258
 H1427 H 0.77998 0.71712 0.00990
 H1428 H 0.78966 0.72669 -0.01017
 H1429 H 0.72622 0.75748 -0.03816
 H1430 H 0.71062 0.74142 -0.02380
 H1431 H 0.78923 0.75708 0.02306
 H1432 H 0.77308 0.74058 0.04004
 O1433 O 1.03823 0.23056 0.24896
 O1434 O 1.03359 0.23286 0.27413
 O1435 O 1.00050 0.21108 0.23122
 O1436 O 0.97624 0.21520 0.23139
 O1437 O 1.01875 0.24840 0.21142
 O1438 O 1.01780 0.27451 0.21664
 O1439 O 0.96194 0.25078 0.26949
 O1440 O 0.96579 0.22566 0.26622
 O1441 O 0.99839 0.26889 0.28776
 O1442 O 1.02500 0.26741 0.28273
 O1443 O 0.98040 0.28747 0.25158
 O1444 O 0.98169 0.28438 0.22687
 O1445 O 0.96181 0.26821 0.25188
 O1446 O 0.96751 0.26579 0.22415
 O1447 O 0.99813 0.28768 0.26884
 O1448 O 1.02509 0.28267 0.26664
 O1449 O 0.98060 0.25166 0.28772
 O1450 O 0.98566 0.22504 0.28338
 O1451 O 1.03840 0.24837 0.23168
 O1452 O 1.03307 0.27454 0.23321
 O1453 O 1.00097 0.23115 0.21122
 O1454 O 0.97445 0.23392 0.21701
 O1455 O 1.01824 0.21108 0.24854
 O1456 O 1.01472 0.21660 0.27491
 Zr1457 Zr 1.01724 0.23200 0.25792
 O1458 O 1.00465 0.24507 0.27188
 Zr1459 Zr 0.99171 0.23222 0.23216
 O1460 O 0.97779 0.24481 0.24532
 Zr1461 Zr 1.01744 0.25769 0.23233
 O1462 O 1.00443 0.27167 0.24501
 Zr1463 Zr 0.98259 0.24137 0.26737
 O1464 O 0.99512 0.22717 0.25428
 Zr1465 Zr 1.00808 0.26715 0.26712
 O1466 O 1.02218 0.25415 0.25442
 Zr1467 Zr 0.98233 0.26691 0.24175
 O1468 O 0.99530 0.25439 0.22731
 O1469 O 1.01360 0.23580 0.23599
 O1470 O 0.98611 0.26339 0.26368
 C1471 C 1.04434 0.23776 0.23864
 C1472 C 1.01104 0.20505 0.23816
 C1473 C 1.01158 0.23805 0.20530
 C1474 C 0.95603 0.26146 0.26268
 C1475 C 0.98752 0.26230 0.29357
 C1476 C 0.98725 0.29341 0.26222
 H1477 H 1.00692 0.24275 0.28214
 H1478 H 1.00651 0.28193 0.24250
 H1479 H 1.01979 0.22954 0.22981
 H1480 H 0.96752 0.24242 0.24319
 H1481 H 0.97041 0.21641 0.26317
 H1482 H 0.96842 0.21776 0.23831
 H1483 H 1.02309 0.28952 0.25859
 H1484 H 1.03826 0.27346 0.24258
 H1485 H 0.97740 0.22562 0.29028
 H1486 H 1.02248 0.20916 0.27400
 H1487 H 0.98966 0.28266 0.21989
 H1488 H 1.00952 0.27281 0.20997
 H1489 H 1.03796 0.24269 0.27364
 H1490 H 1.02370 0.25885 0.28911
 H1491 H 0.97654 0.24248 0.21081
 H1492 H 0.95961 0.25904 0.22690
 O1493 O 0.71133 1.01913 0.74887
 O1494 O 0.71603 1.01693 0.77407
 O1495 O 0.74903 1.03842 0.73101
 O1496 O 0.77329 1.03430 0.73124
 O1497 O 0.73073 1.00099 0.71140
 O1498 O 0.73162 0.97489 0.71680
 O1499 O 0.78767 0.99889 0.76946
 O1500 O 0.78384 1.02403 0.76601
 O1501 O 0.75130 0.98096 0.78781
 O1502 O 0.72463 0.98245 0.78282
 O1503 O 0.76917 0.96214 0.75172
 O1504 O 0.76768 0.96505 0.72699
 O1505 O 0.78774 0.98135 0.75193
 O1506 O 0.78201 0.98363 0.72419
 O1507 O 0.75148 0.96203 0.76901
 O1508 O 0.72452 0.96703 0.76680
 O1509 O 0.76907 0.99821 0.78766
 O1510 O 0.76402 1.02477 0.78323
 O1511 O 0.71109 1.00125 0.73163
 O1512 O 0.71635 0.97507 0.73339
 O1513 O 0.74854 1.01820 0.71115
 O1514 O 0.77504 1.01547 0.71690
 O1515 O 0.73134 1.03856 0.74835
 O1516 O 0.73491 1.03319 0.77477
 Zr1517 Zr 0.73234 1.01769 0.75784
 O1518 O 0.74497 1.00469 0.77184
 Zr1519 Zr 0.75783 1.01728 0.73207
 O1520 O 0.77177 1.00475 0.74525
 Zr1521 Zr 0.73205 0.99185 0.73237
 O1522 O 0.74510 0.97792 0.74509
 Zr1523 Zr 0.76703 1.00834 0.76728
 O1524 O 0.75447 1.02248 0.75417
 Zr1525 Zr 0.74151 0.98257 0.76718
 O1526 O 0.72738 0.99552 0.75446
 Zr1527 Zr 0.76720 0.98263 0.74179
 O1528 O 0.75419 0.99508 0.72732
 O1529 O 0.73593 1.01375 0.73593
 O1530 O 0.76348 0.98630 0.76370
 C1531 C 0.70519 1.01193 0.73855
 C1532 C 0.73851 1.04452 0.73793
 C1533 C 0.73791 1.01129 0.70525
 C1534 C 0.79355 0.98815 0.76270
 C1535 C 0.76218 0.98759 0.79356
 C1536 C 0.76235 0.95625 0.76240
 H1537 H 0.74273 1.00707 0.78208
 H1538 H 0.74300 0.96765 0.74262
 H1539 H 0.72975 1.01997 0.72973
 H1540 H 0.78204 1.00711 0.74310
 H1541 H 0.77921 1.03326 0.76295
 H1542 H 0.78117 1.03174 0.73809
 H1543 H 0.72648 0.96016 0.75875
 H1544 H 0.71120 0.97624 0.74276
 H1545 H 0.77232 1.02425 0.79009
 H1546 H 0.72715 1.04063 0.77382
 H1547 H 0.75992 0.96695 0.71982
 H1548 H 0.73985 0.97654 0.71007
 H1549 H 0.71165 1.00709 0.77362
 H1550 H 0.72603 0.99099 0.78923
 H1551 H 0.77295 1.00686 0.71077
 H1552 H 0.78993 0.99039 0.72691
 O1553 O 0.74921 0.53869 0.23098
 O1554 O 0.77441 0.53399 0.23322
 O1555 O 0.73141 0.50103 0.21142
 O1556 O 0.73182 0.47667 0.21546
 O1557 O 0.71158 0.51899 0.24907
 O1558 O 0.71682 0.51766 0.27470
 O1559 O 0.76953 0.46226 0.25122
 O1560 O 0.76633 0.46610 0.22607
 O1561 O 0.78799 0.49866 0.26926
 O1562 O 0.78319 0.52529 0.26767
 O1563 O 0.75158 0.48109 0.28787
 O1564 O 0.72506 0.48246 0.28295
 O1565 O 0.75205 0.46232 0.26878
 O1566 O 0.72490 0.46725 0.26690
 O1567 O 0.76904 0.49864 0.28799
 O1568 O 0.76701 0.52573 0.28275
 O1569 O 0.78785 0.48081 0.25209
 O1570 O 0.78362 0.48587 0.22550
 O1571 O 0.73185 0.53885 0.24871
 O1572 O 0.73335 0.53365 0.27476
 O1573 O 0.71147 0.50139 0.23160
 O1574 O 0.71716 0.47497 0.23414
 O1575 O 0.74875 0.51877 0.21145
 O1576 O 0.77512 0.51511 0.21691
 Zr1577 Zr 0.75817 0.51767 0.23234
 O1578 O 0.77212 0.50501 0.24538
 Zr1579 Zr 0.73242 0.49214 0.23249
 O1580 O 0.74546 0.47822 0.24517
 Zr1581 Zr 0.73262 0.51787 0.25802
 O1582 O 0.74532 0.50495 0.27204
 Zr1583 Zr 0.76754 0.48293 0.24176
 O1584 O 0.75455 0.49551 0.22751
 Zr1585 Zr 0.76741 0.50851 0.26744
 O1586 O 0.75470 0.52262 0.25447
 Zr1587 Zr 0.74188 0.48283 0.26725
 O1588 O 0.72762 0.49575 0.25459
 O1589 O 0.73623 0.51405 0.23613
 O1590 O 0.76385 0.48651 0.26376
 C1591 C 0.73884 0.54480 0.23813
 C1592 C 0.73835 0.51160 0.20542
 C1593 C 0.70549 0.51189 0.23866
 C1594 C 0.76277 0.45645 0.26197
 C1595 C 0.79373 0.48772 0.26273
 C1596 C 0.76227 0.48788 0.29377
 H1597 H 0.78237 0.50724 0.24305
 H1598 H 0.74295 0.50726 0.28226
 H1599 H 0.73001 0.52024 0.22994
 H1600 H 0.74333 0.46794 0.24280
 H1601 H 0.76331 0.47074 0.21683
 H1602 H 0.73841 0.46865 0.21823
 H1603 H 0.75915 0.52370 0.28980
 H1604 H 0.74281 0.53870 0.27382
 H1605 H 0.79046 0.47755 0.22610
 H1606 H 0.77423 0.52292 0.20951
 H1607 H 0.72622 0.49113 0.28922
 H1608 H 0.71218 0.50794 0.27435
 H1609 H 0.77393 0.53835 0.24305
 H1610 H 0.78953 0.52394 0.25909
 H1611 H 0.71143 0.47673 0.24308
 H1612 H 0.72699 0.46022 0.25903
 O1613 O 0.53827 0.23081 0.74892
 O1614 O 0.53350 0.23288 0.77408
 O1615 O 0.50065 0.21148 0.73078
 O1616 O 0.47635 0.21557 0.73113
 O1617 O 0.51887 0.24896 0.71140
 O1618 O 0.51804 0.27502 0.71685
 O1619 O 0.46193 0.25108 0.76937
 O1620 O 0.46572 0.22594 0.76592
 O1621 O 0.49834 0.26899 0.78780
 O1622 O 0.52493 0.26748 0.78290
 O1623 O 0.48057 0.28779 0.75158
 O1624 O 0.48186 0.28478 0.72691
 O1625 O 0.46191 0.26862 0.75186
 O1626 O 0.46763 0.26623 0.72410
 O1627 O 0.49819 0.28786 0.76896
 O1628 O 0.52518 0.28276 0.76681
 O1629 O 0.48052 0.25180 0.78761
 O1630 O 0.48554 0.22518 0.78316
 O1631 O 0.53851 0.24871 0.73173
 O1632 O 0.53323 0.27486 0.73344
 O1633 O 0.50105 0.23175 0.71103
 O1634 O 0.47455 0.23440 0.71681
 O1635 O 0.51833 0.21133 0.74817
 O1636 O 0.51458 0.21662 0.77461
 Zr1637 Zr 0.51724 0.23217 0.75778
 O1638 O 0.50462 0.24520 0.77180
 Zr1639 Zr 0.49179 0.23260 0.73197
 O1640 O 0.47784 0.24515 0.74516
 Zr1641 Zr 0.51755 0.25806 0.73239
 O1642 O 0.50453 0.27197 0.74510
 Zr1643 Zr 0.48256 0.24159 0.76722
 O1644 O 0.49511 0.22742 0.75407
 Zr1645 Zr 0.50811 0.26731 0.76718
 O1646 O 0.52222 0.25434 0.75447
 Zr1647 Zr 0.48243 0.26725 0.74172
 O1648 O 0.49543 0.25480 0.72727
 O1649 O 0.51368 0.23614 0.73587
 O1650 O 0.48614 0.26362 0.76366
 C1651 C 0.54442 0.23806 0.73865
 C1652 C 0.51120 0.20539 0.73768
 C1653 C 0.51168 0.23870 0.70518
 C1654 C 0.45609 0.26184 0.76262
 C1655 C 0.48744 0.26241 0.79354
 C1656 C 0.48738 0.29366 0.76228
 H1657 H 0.50687 0.24282 0.78204
 H1658 H 0.50664 0.28224 0.74265
 H1659 H 0.51988 0.22996 0.72965
 H1660 H 0.46758 0.24280 0.74300
 H1661 H 0.47033 0.21669 0.76286
 H1662 H 0.46848 0.21814 0.73798
 H1663 H 0.52317 0.28972 0.75886
 H1664 H 0.53839 0.27370 0.74281
 H1665 H 0.47726 0.22576 0.79003
 H1666 H 0.52235 0.20918 0.77367
 H1667 H 0.48978 0.28303 0.71989
 H1668 H 0.50979 0.27341 0.71012
 H1669 H 0.53785 0.24272 0.77373
 H1670 H 0.52361 0.25887 0.78921
 H1671 H 0.47661 0.24302 0.71070
 H1672 H 0.45965 0.25956 0.72686
 O1673 O 0.28857 0.75142 0.48078
 O1674 O 0.28384 0.72618 0.48301
 O1675 O 0.25094 0.76924 0.46132
 O1676 O 0.22664 0.76898 0.46540
 O1677 O 0.26903 0.78905 0.49897
 O1678 O 0.26762 0.78383 0.52460
 O1679 O 0.21220 0.73108 0.50104
 O1680 O 0.21598 0.73441 0.47591
 O1681 O 0.24854 0.71256 0.51891
 O1682 O 0.27511 0.71736 0.51745
 O1683 O 0.23102 0.74903 0.53775
 O1684 O 0.23235 0.77550 0.53295
 O1685 O 0.21228 0.74855 0.51865
 O1686 O 0.21730 0.77581 0.51676
 O1687 O 0.24847 0.73149 0.53777
 O1688 O 0.27554 0.73352 0.53258
 O1689 O 0.23074 0.71273 0.50172
 O1690 O 0.23573 0.71711 0.47517
 O1691 O 0.28878 0.76874 0.49859
 O1692 O 0.28355 0.76721 0.52466
 O1693 O 0.25145 0.78922 0.48152
 O1694 O 0.22501 0.78360 0.48414
 O1695 O 0.26860 0.75185 0.46130
 O1696 O 0.26499 0.72546 0.46672
 Zr1697 Zr 0.26755 0.74245 0.48217
 O1698 O 0.25487 0.72850 0.49516
 Zr1699 Zr 0.24211 0.76828 0.48241
 O1700 O 0.22816 0.75522 0.49504
 Zr1701 Zr 0.26781 0.76800 0.50791
 O1702 O 0.25487 0.75528 0.52190
 Zr1703 Zr 0.23283 0.73312 0.49155
 O1704 O 0.24542 0.74613 0.47735
 Zr1705 Zr 0.25837 0.73317 0.51723
 O1706 O 0.27250 0.74588 0.50430
 Zr1707 Zr 0.23277 0.75875 0.51714
 O1708 O 0.24573 0.77303 0.50452
 O1709 O 0.26398 0.76442 0.48601
 O1710 O 0.23641 0.73676 0.51357
 C1711 C 0.29470 0.76177 0.48797
 C1712 C 0.26146 0.76226 0.45529
 C1713 C 0.26198 0.79517 0.48856
 C1714 C 0.20640 0.73782 0.51183
 C1715 C 0.23764 0.70681 0.51231
 C1716 C 0.23776 0.73829 0.54361
 H1717 H 0.25708 0.71823 0.49279
 H1718 H 0.25717 0.75764 0.53213
 H1719 H 0.27018 0.77062 0.47982
 H1720 H 0.21790 0.75736 0.49268
 H1721 H 0.22059 0.73745 0.46668
 H1722 H 0.21862 0.76236 0.46813
 H1723 H 0.27352 0.74139 0.53964
 H1724 H 0.28858 0.75774 0.52369
 H1725 H 0.22740 0.71027 0.47572
 H1726 H 0.27278 0.72635 0.45932
 H1727 H 0.24117 0.77451 0.53902
 H1728 H 0.25794 0.78852 0.52423
 H1729 H 0.28824 0.72669 0.49282
 H1730 H 0.27386 0.71113 0.50876
 H1731 H 0.22683 0.78936 0.49306
 H1732 H 0.21016 0.77363 0.50901
 O1733 O 0.25115 0.26890 0.96162
 O1734 O 0.22594 0.26658 0.96632
 O1735 O 0.26887 0.28854 0.99924
 O1736 O 0.26844 0.28451 1.02359
 O1737 O 0.28882 0.25097 0.98129
 O1738 O 0.28369 0.22527 0.98271
 O1739 O 0.23081 0.24854 1.03794
 O1740 O 0.23403 0.27373 1.03420
 O1741 O 0.21244 0.23058 1.00155
 O1742 O 0.21728 0.23208 0.97498
 O1743 O 0.24890 0.21195 1.01919
 O1744 O 0.27540 0.21693 1.01783
 O1745 O 0.24836 0.23104 1.03792
 O1746 O 0.27553 0.23304 1.03300
 O1747 O 0.23142 0.21183 1.00168
 O1748 O 0.23349 0.21702 0.97460
 O1749 O 0.21251 0.24781 1.01935
 O1750 O 0.21678 0.27439 1.01439
 O1751 O 0.26854 0.25119 0.96147
 O1752 O 0.26716 0.22512 0.96671
 O1753 O 0.28887 0.26844 0.99889
 O1754 O 0.28322 0.26585 1.02528
 O1755 O 0.25154 0.28846 0.98151
 O1756 O 0.22519 0.28293 0.98516
 Zr1757 Zr 0.24218 0.26753 0.98262
 O1758 O 0.22828 0.25445 0.99526
 Zr1759 Zr 0.26793 0.26745 1.00814
 O1760 O 0.25493 0.25472 1.02205
 Zr1761 Zr 0.26782 0.24189 0.98244
 O1762 O 0.25514 0.22782 0.99534
 Zr1763 Zr 0.23285 0.25808 1.01733
 O1764 O 0.24579 0.27238 1.00476
 Zr1765 Zr 0.23304 0.23238 0.99177
 O1766 O 0.24572 0.24539 0.97769
 Zr1767 Zr 0.25856 0.23262 1.01745
 O1768 O 0.27278 0.24534 1.00455
 O1769 O 0.26413 0.26379 0.98625
 O1770 O 0.23658 0.23607 1.01375
 C1771 C 0.26153 0.26176 0.95553
 C1772 C 0.26192 0.29453 0.98867
 C1773 C 0.29487 0.26142 0.98838
 C1774 C 0.23759 0.23780 1.04377
 C1775 C 0.20665 0.23717 1.01243
 C1776 C 0.23820 0.20603 1.01242
 H1777 H 0.21802 0.25677 0.99303
 H1778 H 0.25753 0.21760 0.99304
 H1779 H 0.27033 0.27001 0.98006
 H1780 H 0.25703 0.25709 1.03232
 H1781 H 0.23703 0.28300 1.02960
 H1782 H 0.26192 0.28167 1.03165
 H1783 H 0.24132 0.20994 0.97668
 H1784 H 0.25768 0.22598 0.96168
 H1785 H 0.20995 0.27380 1.02270
 H1786 H 0.22605 0.29032 0.97734
 H1787 H 0.27429 0.21070 1.00913
 H1788 H 0.28835 0.22567 0.99240
 H1789 H 0.22648 0.25676 0.96193
 H1790 H 0.21098 0.24070 0.97625
 H1791 H 0.28895 0.25690 1.02353
 H1792 H 0.27339 0.24088 1.04005
 C1793 C 0.28708 0.40565 0.78666
 N1794 N 0.28124 0.39970 0.79883
 N1795 N 0.28743 0.38821 0.80512
 C1796 C 0.29970 0.38226 0.79949
 N1797 N 0.30557 0.38823 0.78733
 N1798 N 0.29938 0.39972 0.78104
 C1799 C 0.28031 0.41839 0.77981
 N1800 N 0.28631 0.42458 0.76784
 N1801 N 0.28044 0.43645 0.76194
 C1802 C 0.26829 0.44251 0.76775
 N1803 N 0.26223 0.43625 0.77966
 N1804 N 0.26811 0.42439 0.78556
 C1805 C 0.28679 -0.09479 0.28579
 N1806 N 0.29894 -0.10086 0.28001
 N1807 N 0.30512 -0.11237 0.28629
 C1808 C 0.29938 -0.11818 0.29857
 N1809 N 0.28726 -0.11209 0.30436
 N1810 N 0.28108 -0.10060 0.29809
 C1811 C 0.28005 -0.08204 0.27898
 N1812 N 0.26798 -0.07593 0.28486
 N1813 N 0.26214 -0.06404 0.27900
 C1814 C 0.26812 -0.05788 0.26700
 N1815 N 0.28014 -0.06406 0.26106
 N1816 N 0.28597 -0.07595 0.26692
 C1817 C 0.78663 0.90532 0.78676
 N1818 N 0.78074 0.89917 0.79882
 N1819 N 0.78692 0.88760 0.80497
 C1820 C 0.79925 0.88174 0.79932
 N1821 N 0.80515 0.88793 0.78728
 N1822 N 0.79897 0.89950 0.78113
 C1823 C 0.77988 0.91815 0.78001
 N1824 N 0.78590 0.92436 0.76805
 N1825 N 0.78004 0.93624 0.76216
 C1826 C 0.76790 0.94231 0.76796
 N1827 N 0.76183 0.93605 0.77988
 N1828 N 0.76769 0.92417 0.78576
 C1829 C 0.46457 0.84603 0.28544
 N1830 N 0.47032 0.85199 0.29767
 N1831 N 0.46393 0.86332 0.30408
 C1832 C 0.45154 0.86906 0.29849
 N1833 N 0.44578 0.86310 0.28627
 N1834 N 0.45217 0.85177 0.27987
 C1835 C 0.47146 0.83340 0.27851
 N1836 N 0.46552 0.82729 0.26644
 N1837 N 0.47136 0.81541 0.26054
 C1838 C 0.48342 0.80926 0.26643
 N1839 N 0.48944 0.81547 0.27841
 N1840 N 0.48360 0.82735 0.28431
 C1841 C -0.03676 0.84461 0.78687
 N1842 N -0.04907 0.85050 0.78124
 N1843 N -0.05526 0.86201 0.78751
 C1844 C -0.04940 0.86805 0.79964
 N1845 N -0.03712 0.86214 0.80531
 N1846 N -0.03092 0.85062 0.79904
 C1847 C -0.02999 0.83186 0.78000
 N1848 N -0.01784 0.82578 0.78576
 N1849 N -0.01198 0.81394 0.77978
 C1850 C -0.01800 0.80779 0.76776
 N1851 N -0.03011 0.81393 0.76196
 N1852 N -0.03597 0.82577 0.76794
 C1853 C -0.03619 -0.09526 -0.03639
 N1854 N -0.04853 -0.10109 -0.03081
 N1855 N -0.05470 -0.11262 -0.03705
 C1856 C -0.04876 -0.11873 -0.04910
 N1857 N -0.03644 -0.11287 -0.05472
 N1858 N -0.03027 -0.10133 -0.04848
 C1859 C -0.02949 -0.08249 -0.02957
 N1860 N -0.01731 -0.07643 -0.03528
 N1861 N -0.01152 -0.06454 -0.02935
 C1862 C -0.01764 -0.05834 -0.01743
 N1863 N -0.02976 -0.06446 -0.01166
 N1864 N -0.03555 -0.07635 -0.01759
 C1865 C -0.03705 0.40511 0.46375
 N1866 N -0.03133 0.39931 0.45144
 N1867 N -0.03743 0.38774 0.44519
 C1868 C -0.04950 0.38153 0.45099
 N1869 N -0.05526 0.38736 0.46328
 N1870 N -0.04916 0.39895 0.46954
 C1871 C -0.03035 0.41792 0.47058
 N1872 N -0.03626 0.42399 0.48267
 N1873 N -0.03042 0.43589 0.48858
 C1874 C -0.01840 0.44210 0.48266
 N1875 N -0.01246 0.43597 0.47061
 N1876 N -0.01829 0.42408 0.46471
 C1877 C 0.46349 -0.09472 0.46361
 N1878 N 0.46943 -0.10080 0.45154
 N1879 N 0.46334 -0.11243 0.44535
 C1880 C 0.45106 -0.11839 0.45099
 N1881 N 0.44511 -0.11226 0.46304
 N1882 N 0.45120 -0.10064 0.46923
 C1883 C 0.47015 -0.08186 0.47043
 N1884 N 0.46405 -0.07568 0.48238
 N1885 N 0.46981 -0.06376 0.48830
 C1886 C 0.48194 -0.05762 0.48254
 N1887 N 0.48809 -0.06386 0.47065
 N1888 N 0.48233 -0.07579 0.46473
 C1889 C 0.46282 0.40532 -0.03650
 N1890 N 0.46853 0.39947 -0.04879
 N1891 N 0.46241 0.38787 -0.05499
 C1892 C 0.45035 0.38168 -0.04914
 N1893 N 0.44463 0.38756 -0.03685
 N1894 N 0.45074 0.39917 -0.03066
 C1895 C 0.46953 0.41818 -0.02975
 N1896 N 0.46363 0.42432 -0.01769
 N1897 N 0.46948 0.43624 -0.01185
 C1898 C 0.48150 0.44241 -0.01780
 N1899 N 0.48744 0.43622 -0.02982
 N1900 N 0.48159 0.42430 -0.03566
 C1901 C 0.78608 0.34582 0.46485
 N1902 N 0.78029 0.35166 0.45260
 N1903 N 0.78661 0.36296 0.44612
 C1904 C 0.79898 0.36882 0.45163
 N1905 N 0.80482 0.36297 0.46387
 N1906 N 0.79849 0.35166 0.47035
 C1907 C 0.77923 0.33320 0.47182
 N1908 N 0.78527 0.32701 0.48378
 N1909 N 0.77946 0.31507 0.48961
 C1910 C 0.76736 0.30895 0.48374
 N1911 N 0.76123 0.31528 0.47189
 N1912 N 0.76703 0.32720 0.46607
 C1913 C 0.78618 0.84581 -0.03529
 N1914 N 0.79860 0.85163 -0.02982
 N1915 N 0.80494 0.86293 -0.03632
 C1916 C 0.79909 0.86879 -0.04854
 N1917 N 0.78670 0.86294 -0.05403
 N1918 N 0.78037 0.85165 -0.04754
 C1919 C 0.77930 0.83319 -0.02832
 N1920 N 0.76709 0.82721 -0.03409
 N1921 N 0.76124 0.81532 -0.02825
 C1922 C 0.76731 0.80902 -0.01636
 N1923 N 0.77943 0.81510 -0.01049
 N1924 N 0.78529 0.82700 -0.01633
 C1925 C 0.78567 0.28572 0.40423
 N1926 N 0.79792 0.27996 0.39835
 N1927 N 0.80434 0.28633 0.38703
 C1928 C 0.79876 0.29870 0.38123
 N1929 N 0.78652 0.30447 0.38713
 N1930 N 0.78011 0.29810 0.39844
 C1931 C 0.77874 0.27886 0.41687
 N1932 N 0.76674 0.28486 0.42302
 N1933 N 0.76090 0.27908 0.43494
 C1934 C 0.76679 0.26702 0.44110
 N1935 N 0.77870 0.26092 0.43485
 N1936 N 0.78453 0.26671 0.42293
 C1937 C 0.78517 0.78636 -0.09580
 N1938 N 0.79749 0.78068 -0.10162
 N1939 N 0.80386 0.78701 -0.11298
 C1940 C 0.79816 0.79927 -0.11893
 N1941 N 0.78587 0.80497 -0.11309
 N1942 N 0.77950 0.79864 -0.10172
 C1943 C 0.77830 0.77949 -0.08311
 N1944 N 0.76629 0.78544 -0.07692
 N1945 N 0.76049 0.77960 -0.06500
 C1946 C 0.76641 0.76753 -0.05888
 N1947 N 0.77833 0.76149 -0.06517
 N1948 N 0.78413 0.76734 -0.07708
 C1949 C 0.28687 0.46347 0.84463
 N1950 N 0.29920 0.46912 0.85048
 N1951 N 0.30543 0.46290 0.86199
 C1952 C 0.29957 0.45077 0.86805
 N1953 N 0.28726 0.44511 0.86219
 N1954 N 0.28103 0.45133 0.85068
 C1955 C 0.28007 0.47022 0.83184
 N1956 N 0.26793 0.46435 0.82579
 N1957 N 0.26206 0.47017 0.81389
 C1958 C 0.26806 0.48212 0.80763
 N1959 N 0.28014 0.48805 0.81375
 N1960 N 0.28601 0.48223 0.82564
 C1961 C 0.28725 -0.03662 0.34424
 N1962 N 0.29951 -0.03082 0.35010
 N1963 N 0.30581 -0.03697 0.36161
 C1964 C 0.30009 -0.04916 0.36767
 N1965 N 0.28786 -0.05498 0.36178
 N1966 N 0.28157 -0.04884 0.35027
 C1967 C 0.28034 -0.02991 0.33150
 N1968 N 0.26831 -0.03597 0.32543
 N1969 N 0.26230 -0.03016 0.31359
 C1970 C 0.26804 -0.01801 0.30745
 N1971 N 0.28001 -0.01190 0.31359
 N1972 N 0.28603 -0.01772 0.32542
 C1973 C -0.03665 -0.03746 -0.09457
 N1974 N -0.04892 -0.03168 -0.10038
 N1975 N -0.05519 -0.03780 -0.11194
 C1976 C -0.04944 -0.04993 -0.11811
 N1977 N -0.03718 -0.05573 -0.11225
 N1978 N -0.03091 -0.04962 -0.10069
 C1979 C -0.02979 -0.03074 -0.08178
 N1980 N -0.01773 -0.03669 -0.07569
 N1981 N -0.01180 -0.03082 -0.06383
 C1982 C -0.01765 -0.01872 -0.05767
 N1983 N -0.02967 -0.01274 -0.06382
 N1984 N -0.03560 -0.01861 -0.07567
 C1985 C -0.03712 0.46300 0.40554
 N1986 N -0.04922 0.46887 0.39945
 N1987 N -0.05541 0.46267 0.38789
 C1988 C -0.04974 0.45035 0.38200
 N1989 N -0.03767 0.44447 0.38813
 N1990 N -0.03148 0.45066 0.39968
 C1991 C -0.03030 0.46977 0.41833
 N1992 N -0.01832 0.46375 0.42450
 N1993 N -0.01239 0.46961 0.43636
 C1994 C -0.01816 0.48177 0.44245
 N1995 N -0.03011 0.48783 0.43624
 N1996 N -0.03605 0.48197 0.42437
 C1997 C 0.46387 -0.03661 0.40525
 N1998 N 0.45161 -0.03084 0.39940
 N1999 N 0.44538 -0.03698 0.38785
 C2000 C 0.45116 -0.04912 0.38175
 N2001 N 0.46342 -0.05489 0.38759
 N2002 N 0.46966 -0.04876 0.39915
 C2003 C 0.47064 -0.02990 0.41807
 N2004 N 0.48266 -0.03585 0.42421
 N2005 N 0.48851 -0.02999 0.43611
 C2006 C 0.48260 -0.01791 0.44224
 N2007 N 0.47063 -0.01192 0.43603
 N2008 N 0.46478 -0.01778 0.42414
 C2009 C 0.46308 0.46330 -0.09450
 N2010 N 0.45093 0.46915 -0.10051
 N2011 N 0.44467 0.46291 -0.11199
 C2012 C 0.45032 0.45058 -0.11785
 N2013 N 0.46245 0.44472 -0.11182
 N2014 N 0.46871 0.45097 -0.10034
 C2015 C 0.46989 0.47009 -0.08177
 N2016 N 0.48194 0.46415 -0.07566
 N2017 N 0.48783 0.47003 -0.06379
 C2018 C 0.48192 0.48210 -0.05766
 N2019 N 0.46993 0.48809 -0.06385
 N2020 N 0.46405 0.48222 -0.07571
 C2021 C 0.46518 0.78634 0.34574
 N2022 N 0.45289 0.78064 0.35158
 N2023 N 0.44657 0.78693 0.36300
 C2024 C 0.45228 0.79917 0.36899
 N2025 N 0.46456 0.80490 0.36313
 N2026 N 0.47088 0.79861 0.35170
 C2027 C 0.47202 0.77949 0.33302
 N2028 N 0.48405 0.78543 0.32686
 N2029 N 0.48981 0.77962 0.31490
 C2030 C 0.48383 0.76759 0.30871
 N2031 N 0.47190 0.76157 0.31498
 N2032 N 0.46614 0.76738 0.32694
 C2033 C -0.03614 0.78676 0.84454
 N2034 N -0.04832 0.78088 0.85045
 N2035 N -0.05466 0.78709 0.86189
 C2036 C -0.04907 0.79941 0.86781
 N2037 N -0.03692 0.80532 0.86188
 N2038 N -0.03058 0.79911 0.85044
 C2039 C -0.02926 0.77996 0.83186
 N2040 N -0.01723 0.78593 0.82576
 N2041 N -0.01133 0.78005 0.81390
 C2042 C -0.01720 0.76794 0.80779
 N2043 N -0.02917 0.76192 0.81398
 N2044 N -0.03506 0.76779 0.82583
 C2045 C 0.40442 0.78590 0.28542
 N2046 N 0.39868 0.78031 0.29781
 N2047 N 0.38731 0.78663 0.30416
 C2048 C 0.38129 0.79880 0.29837
 N2049 N 0.38704 0.80442 0.28601
 N2050 N 0.39842 0.79809 0.27965
 C2051 C 0.41710 0.77905 0.27859
 N2052 N 0.42314 0.78487 0.26645
 N2053 N 0.43509 0.77907 0.26069
 C2054 C 0.44139 0.76719 0.26679
 N2055 N 0.43525 0.76128 0.27884
 N2056 N 0.42330 0.76708 0.28461
 C2057 C -0.09441 0.78690 0.78675
 N2058 N -0.10030 0.79916 0.78099
 N2059 N -0.11184 0.80539 0.78713
 C2060 C -0.11791 0.79961 0.79927
 N2061 N -0.11202 0.78736 0.80505
 N2062 N -0.10047 0.78112 0.79890
 C2063 C -0.08159 0.78013 0.78005
 N2064 N -0.07552 0.76802 0.78594
 N2065 N -0.06360 0.76217 0.78013
 C2066 C -0.05736 0.76817 0.76817
 N2067 N -0.06349 0.78023 0.76224
 N2068 N -0.07540 0.78607 0.76805
 C2069 C 0.84590 0.28574 0.46437
 N2070 N 0.85168 0.28020 0.45197
 N2071 N 0.86303 0.28661 0.44565
 C2072 C 0.86900 0.29880 0.45148
 N2073 N 0.86320 0.30438 0.46386
 N2074 N 0.85184 0.29797 0.47018
 C2075 C 0.83325 0.27880 0.47121
 N2076 N 0.82719 0.28458 0.48337
 N2077 N 0.81530 0.27869 0.48916
 C2078 C 0.80907 0.26674 0.48308
 N2079 N 0.81522 0.26087 0.47101
 N2080 N 0.82712 0.26676 0.46521
 C2081 C 0.84560 0.78530 -0.03611
 N2082 N 0.85152 0.77952 -0.04833
 N2083 N 0.86279 0.78594 -0.05477
 C2084 C 0.86849 0.79840 -0.04925
 N2085 N 0.86253 0.80421 -0.03706
 N2086 N 0.85128 0.79779 -0.03061
 C2087 C 0.83303 0.77839 -0.02916
 N2088 N 0.82704 0.78428 -0.01702
 N2089 N 0.81515 0.77847 -0.01115
 C2090 C 0.80887 0.76651 -0.01714
 N2091 N 0.81497 0.76053 -0.02919
 N2092 N 0.82687 0.76633 -0.03506
 C2093 C -0.09445 -0.03675 -0.03674
 N2094 N -0.10040 -0.03090 -0.04891
 N2095 N -0.11194 -0.03706 -0.05515
 C2096 C -0.11792 -0.04930 -0.04946
 N2097 N -0.11195 -0.05517 -0.03731
 N2098 N -0.10041 -0.04901 -0.03107
 C2099 C -0.08163 -0.03007 -0.02998
 N2100 N -0.07548 -0.03610 -0.01800
 N2101 N -0.06353 -0.03033 -0.01218
 C2102 C -0.05735 -0.01828 -0.01807
 N2103 N -0.06358 -0.01219 -0.02998
 N2104 N -0.07553 -0.01796 -0.03581
 C2105 C -0.09471 0.46349 0.46352
 N2106 N -0.10066 0.45124 0.46923
 N2107 N -0.11217 0.44503 0.46298
 C2108 C -0.11812 0.45084 0.45079
 N2109 N -0.11215 0.46306 0.44507
 N2110 N -0.10065 0.46927 0.45131
 C2111 C -0.08195 0.47025 0.47030
 N2112 N -0.07587 0.48236 0.46445
 N2113 N -0.06396 0.48819 0.47028
 C2114 C -0.05773 0.48216 0.48222
 N2115 N -0.06389 0.47012 0.48815
 N2116 N -0.07581 0.46429 0.48232
 C2117 C 0.40550 -0.03612 0.46275
 N2118 N 0.39964 -0.04843 0.46840
 N2119 N 0.38803 -0.05457 0.46227
 C2120 C 0.38185 -0.04864 0.45025
 N2121 N 0.38774 -0.03634 0.44457
 N2122 N 0.39936 -0.03020 0.45070
 C2123 C 0.41836 -0.02944 0.46950
 N2124 N 0.42445 -0.01729 0.46373
 N2125 N 0.43637 -0.01151 0.46964
 C2126 C 0.44257 -0.01762 0.48157
 N2127 N 0.43641 -0.02972 0.48737
 N2128 N 0.42451 -0.03550 0.48147
 C2129 C 0.40505 0.46383 -0.03723
 N2130 N 0.39906 0.45171 -0.03129
 N2131 N 0.38757 0.44537 -0.03745
 C2132 C 0.38164 0.45090 -0.04979
 N2133 N 0.38767 0.46300 -0.05575
 N2134 N 0.39916 0.46934 -0.04959
 C2135 C 0.41782 0.47071 -0.03047
 N2136 N 0.42402 0.48268 -0.03650
 N2137 N 0.43589 0.48860 -0.03063
 C2138 C 0.44195 0.48281 -0.01847
 N2139 N 0.43568 0.47090 -0.01239
 N2140 N 0.42382 0.46499 -0.01826
 C2141 C 0.34444 0.46392 0.78720
 N2142 N 0.35020 0.45159 0.78145
 N2143 N 0.36165 0.44524 0.78763
 C2144 C 0.36774 0.45097 0.79980
 N2145 N 0.36196 0.46327 0.80558
 N2146 N 0.35050 0.46963 0.79940
 C2147 C 0.33176 0.47083 0.78041
 N2148 N 0.32570 0.48292 0.78635
 N2149 N 0.31389 0.48888 0.78045
 C2150 C 0.30776 0.48302 0.76835
 N2151 N 0.31389 0.47099 0.76237
 N2152 N 0.32569 0.46502 0.76826
 C2153 C 0.34453 -0.03632 0.28664
 N2154 N 0.35047 -0.04855 0.28089
 N2155 N 0.36198 -0.05476 0.28711
 C2156 C 0.36794 -0.04898 0.29932
 N2157 N 0.36198 -0.03676 0.30509
 N2158 N 0.35047 -0.03054 0.29887
 C2159 C 0.33175 -0.02959 0.27988
 N2160 N 0.32564 -0.01749 0.28574
 N2161 N 0.31373 -0.01169 0.27988
 C2162 C 0.30755 -0.01774 0.26790
 N2163 N 0.31373 -0.02979 0.26199
 N2164 N 0.32563 -0.03559 0.26785
 C2165 C 0.15408 0.53527 0.71483
 N2166 N 0.14827 0.54766 0.72039
 N2167 N 0.13685 0.55392 0.71406
 C2168 C 0.13083 0.54804 0.70192
 N2169 N 0.13665 0.53567 0.69633
 N2170 N 0.14808 0.52941 0.70266
 C2171 C 0.16682 0.52853 0.72168
 N2172 N 0.17290 0.51637 0.71593
 N2173 N 0.18488 0.51068 0.72175
 C2174 C 0.19117 0.51688 0.73360
 N2175 N 0.18498 0.52895 0.73944
 N2176 N 0.17300 0.53465 0.73362
 C2177 C 0.15406 0.03515 0.21441
 N2178 N 0.14811 0.02936 0.20219
 N2179 N 0.13672 0.03567 0.19584
 C2180 C 0.13090 0.04803 0.20147
 N2181 N 0.13687 0.05384 0.21366
 N2182 N 0.14825 0.04752 0.22001
 C2183 C 0.16677 0.02837 0.22127
 N2184 N 0.17294 0.03444 0.23323
 N2185 N 0.18490 0.02871 0.23906
 C2186 C 0.19107 0.01664 0.23319
 N2187 N 0.18480 0.01048 0.22131
 N2188 N 0.17284 0.01622 0.21548
 C2189 C 0.59461 0.71349 0.21315
 N2190 N 0.60059 0.70129 0.21891
 N2191 N 0.61213 0.69510 0.21270
 C2192 C 0.61808 0.70088 0.20051
 N2193 N 0.61210 0.71309 0.19474
 N2194 N 0.60056 0.71927 0.20094
 C2195 C 0.58181 0.72022 0.21991
 N2196 N 0.57567 0.73228 0.21401
 N2197 N 0.56380 0.73813 0.21988
 C2198 C 0.55766 0.73219 0.23192
 N2199 N 0.56385 0.72017 0.23787
 N2200 N 0.57573 0.71432 0.23200
 C2201 C 0.09613 0.71454 0.71494
 N2202 N 0.10202 0.70219 0.72051
 N2203 N 0.11338 0.69589 0.71409
 C2204 C 0.11923 0.70168 0.70185
 N2205 N 0.11332 0.71401 0.69627
 N2206 N 0.10197 0.72031 0.70269
 C2207 C 0.08342 0.72135 0.72182
 N2208 N 0.07734 0.73347 0.71598
 N2209 N 0.06537 0.73923 0.72174
 C2210 C 0.05907 0.73315 0.73362
 N2211 N 0.06526 0.72112 0.73957
 N2212 N 0.07723 0.71536 0.73381
 C2213 C 0.65538 0.21366 0.53594
 N2214 N 0.64936 0.20145 0.53017
 N2215 N 0.63783 0.19528 0.53639
 C2216 C 0.63192 0.20107 0.54862
 N2217 N 0.63797 0.21325 0.55440
 N2218 N 0.64949 0.21943 0.54818
 C2219 C 0.66819 0.22040 0.52920
 N2220 N 0.67431 0.23248 0.53511
 N2221 N 0.68622 0.23830 0.52931
 C2222 C 0.69242 0.23232 0.51732
 N2223 N 0.68625 0.22028 0.51135
 N2224 N 0.67433 0.21446 0.51715
 C2225 C 0.65562 0.71352 0.03676
 N2226 N 0.64957 0.70139 0.03087
 N2227 N 0.63806 0.69516 0.03707
 C2228 C 0.63221 0.70081 0.04939
 N2229 N 0.63829 0.71291 0.05530
 N2230 N 0.64980 0.71914 0.04911
 C2231 C 0.66837 0.72032 0.02997
 N2232 N 0.67456 0.73232 0.03596
 N2233 N 0.68641 0.73821 0.03007
 C2234 C 0.69245 0.73236 0.01793
 N2235 N 0.68619 0.72042 0.01189
 N2236 N 0.67434 0.71453 0.01778
 C2237 C 0.09601 0.03515 0.03556
 N2238 N 0.10192 0.02945 0.04783
 N2239 N 0.11328 0.03584 0.05418
 C2240 C 0.11910 0.04816 0.04852
 N2241 N 0.11316 0.05389 0.03628
 N2242 N 0.10181 0.04751 0.02993
 C2243 C 0.08332 0.02831 0.02869
 N2244 N 0.07714 0.03435 0.01673
 N2245 N 0.06519 0.02859 0.01091
 C2246 C 0.05904 0.01651 0.01677
 N2247 N 0.06532 0.01038 0.02864
 N2248 N 0.07727 0.01614 0.03447
 C2249 C 0.09569 0.53570 0.53562
 N2250 N 0.10140 0.54814 0.53010
 N2251 N 0.11280 0.55447 0.53644
 C2252 C 0.11888 0.54860 0.54854
 N2253 N 0.11314 0.53618 0.55408
 N2254 N 0.10174 0.52985 0.54775
 C2255 C 0.08299 0.52886 0.52874
 N2256 N 0.07702 0.51662 0.53444
 N2257 N 0.06509 0.51082 0.52859
 C2258 C 0.05875 0.51698 0.51676
 N2259 N 0.06482 0.52914 0.51098
 N2260 N 0.07675 0.53494 0.51682
 C2261 C 0.59562 0.03620 0.53553
 N2262 N 0.60150 0.03045 0.54778
 N2263 N 0.61276 0.03688 0.55426
 C2264 C 0.61852 0.04930 0.54874
 N2265 N 0.61261 0.05508 0.53651
 N2266 N 0.60135 0.04865 0.53003
 C2267 C 0.58305 0.02926 0.52857
 N2268 N 0.57688 0.03523 0.51657
 N2269 N 0.56498 0.02936 0.51073
 C2270 C 0.55889 0.01726 0.51661
 N2271 N 0.56518 0.01120 0.52850
 N2272 N 0.57707 0.01706 0.53435
 C2273 C 0.59561 0.53593 0.03498
 N2274 N 0.60144 0.53020 0.04726
 N2275 N 0.61286 0.53646 0.05362
 C2276 C 0.61885 0.54870 0.04795
 N2277 N 0.61300 0.55446 0.03569
 N2278 N 0.60157 0.54821 0.02933
 C2279 C 0.58289 0.52910 0.02810
 N2280 N 0.57671 0.53507 0.01610
 N2281 N 0.56474 0.52928 0.01032
 C2282 C 0.55856 0.51725 0.01627
 N2283 N 0.56486 0.51119 0.02817
 N2284 N 0.57682 0.51698 0.03395
 C2285 C 0.03564 0.03440 0.09582
 N2286 N 0.02992 0.04673 0.10162
 N2287 N 0.03623 0.05317 0.11296
 C2288 C 0.04851 0.04754 0.11890
 N2289 N 0.05426 0.03524 0.11309
 N2290 N 0.04794 0.02879 0.10174
 C2291 C 0.02882 0.02750 0.08315
 N2292 N 0.03479 0.01548 0.07698
 N2293 N 0.02900 0.00967 0.06502
 C2294 C 0.01698 0.01562 0.05886
 N2295 N 0.01092 0.02755 0.06513
 N2296 N 0.01671 0.03335 0.07708
 C2297 C 0.03566 0.53477 0.59598
 N2298 N 0.02998 0.54710 0.60179
 N2299 N 0.03625 0.55344 0.61322
 C2300 C 0.04843 0.54770 0.61924
 N2301 N 0.05414 0.53538 0.61341
 N2302 N 0.04788 0.52904 0.60197
 C2303 C 0.02886 0.52794 0.58323
 N2304 N 0.03476 0.51589 0.57707
 N2305 N 0.02896 0.51013 0.56509
 C2306 C 0.01699 0.51616 0.55889
 N2307 N 0.01101 0.52813 0.56516
 N2308 N 0.01680 0.53388 0.57713
 C2309 C 0.53556 0.03594 0.59585
 N2310 N 0.52973 0.04812 0.60184
 N2311 N 0.53595 0.05443 0.61332
 C2312 C 0.54827 0.04882 0.61923
 N2313 N 0.55412 0.03666 0.61320
 N2314 N 0.54789 0.03035 0.60172
 C2315 C 0.52880 0.02906 0.58306
 N2316 N 0.53481 0.01703 0.57692
 N2317 N 0.52906 0.01118 0.56496
 C2318 C 0.51703 0.01708 0.55874
 N2319 N 0.51094 0.02901 0.56498
 N2320 N 0.51669 0.03486 0.57695
 C2321 C 0.53550 0.53577 0.09567
 N2322 N 0.52975 0.54798 0.10167
 N2323 N 0.53609 0.55431 0.11306
 C2324 C 0.54844 0.54867 0.11885
 N2325 N 0.55421 0.53647 0.11285
 N2326 N 0.54786 0.53014 0.10145
 C2327 C 0.52866 0.52891 0.08297
 N2328 N 0.53467 0.51693 0.07676
 N2329 N 0.52887 0.51111 0.06482
 C2330 C 0.51679 0.51699 0.05870
 N2331 N 0.51070 0.52889 0.06500
 N2332 N 0.51650 0.53471 0.07694
 C2333 C 0.21428 0.53552 0.65421
 N2334 N 0.21994 0.54787 0.64844
 N2335 N 0.21365 0.55423 0.63704
 C2336 C 0.20146 0.54848 0.63102
 N2337 N 0.19577 0.53615 0.63680
 N2338 N 0.20205 0.52979 0.64821
 C2339 C 0.22109 0.52866 0.66692
 N2340 N 0.21515 0.51662 0.67305
 N2341 N 0.22094 0.51082 0.68500
 C2342 C 0.23295 0.51678 0.69119
 N2343 N 0.23898 0.52874 0.68496
 N2344 N 0.23318 0.53454 0.67302
 C2345 C 0.21434 0.03467 0.15405
 N2346 N 0.20198 0.02911 0.14817
 N2347 N 0.19566 0.03558 0.13685
 C2348 C 0.20146 0.04786 0.13104
 N2349 N 0.21379 0.05343 0.13694
 N2350 N 0.22010 0.04696 0.14826
 C2351 C 0.22116 0.02775 0.16671
 N2352 N 0.23328 0.03362 0.17277
 N2353 N 0.23907 0.02785 0.18472
 C2354 C 0.23301 0.01593 0.19100
 N2355 N 0.22099 0.00996 0.18483
 N2356 N 0.21520 0.01573 0.17288
 C2357 C 0.71348 0.21351 0.59453
 N2358 N 0.71930 0.20136 0.60059
 N2359 N 0.71317 0.19526 0.61221
 C2360 C 0.70098 0.20106 0.61817
 N2361 N 0.69515 0.21319 0.61210
 N2362 N 0.70128 0.21930 0.60049
 C2363 C 0.72017 0.22019 0.58167
 N2364 N 0.71428 0.23227 0.57555
 N2365 N 0.72010 0.23807 0.56363
 C2366 C 0.73206 0.23205 0.55741
 N2367 N 0.73799 0.22001 0.56359
 N2368 N 0.73218 0.21421 0.57552
 C2369 C 0.71312 0.71406 0.09453
 N2370 N 0.71892 0.70183 0.10042
 N2371 N 0.71275 0.69555 0.11191
 C2372 C 0.70053 0.70125 0.11792
 N2373 N 0.69472 0.71347 0.11202
 N2374 N 0.70090 0.71976 0.10053
 C2375 C 0.71987 0.72089 0.08177
 N2376 N 0.71394 0.73295 0.07566
 N2377 N 0.71980 0.73884 0.06380
 C2378 C 0.73186 0.73294 0.05765
 N2379 N 0.73783 0.72092 0.06381
 N2380 N 0.73197 0.71503 0.07568
 C2381 C 0.53699 0.71435 0.15512
 N2382 N 0.54911 0.72015 0.14902
 N2383 N 0.55522 0.71392 0.13745
 C2384 C 0.54944 0.70164 0.13159
 N2385 N 0.53735 0.69582 0.13772
 N2386 N 0.53124 0.70206 0.14928
 C2387 C 0.53029 0.72114 0.16793
 N2388 N 0.51822 0.71526 0.17404
 N2389 N 0.51239 0.72114 0.18593
 C2390 C 0.51836 0.73317 0.19210
 N2391 N 0.53039 0.73910 0.18592
 N2392 N 0.53622 0.73323 0.17403
 C2393 C 0.03577 0.71459 0.65433
 N2394 N 0.02998 0.70239 0.64832
 N2395 N 0.03629 0.69606 0.63691
 C2396 C 0.04864 0.70168 0.63112
 N2397 N 0.05445 0.71386 0.63714
 N2398 N 0.04814 0.72018 0.64855
 C2399 C 0.02894 0.72145 0.66702
 N2400 N 0.03489 0.73350 0.67317
 N2401 N 0.02909 0.73933 0.68510
 C2402 C 0.01706 0.73340 0.69126
 N2403 N 0.01103 0.72143 0.68501
 N2404 N 0.01683 0.71560 0.67309
 C2405 C 0.53622 0.65552 0.21316
 N2406 N 0.53045 0.64944 0.20099
 N2407 N 0.53665 0.63785 0.19489
 C2408 C 0.54886 0.63193 0.20071
 N2409 N 0.55463 0.63802 0.21287
 N2410 N 0.54843 0.64961 0.21898
 C2411 C 0.52949 0.66838 0.21984
 N2412 N 0.53535 0.67446 0.23195
 N2413 N 0.52954 0.68640 0.23777
 C2414 C 0.51761 0.69265 0.23173
 N2415 N 0.51170 0.68652 0.21966
 N2416 N 0.51751 0.67457 0.21385
 C2417 C 0.03500 0.65404 0.71474
 N2418 N 0.04726 0.64817 0.72048
 N2419 N 0.05366 0.63682 0.71415
 C2420 C 0.04804 0.63094 0.70182
 N2421 N 0.03579 0.63682 0.69606
 N2422 N 0.02940 0.64818 0.70239
 C2423 C 0.02814 0.66676 0.72153
 N2424 N 0.01618 0.67295 0.71548
 N2425 N 0.01042 0.68496 0.72120
 C2426 C 0.01635 0.69116 0.73323
 N2427 N 0.02821 0.68486 0.73936
 N2428 N 0.03397 0.67286 0.73365
 C2429 C 0.03517 0.09534 0.03587
 N2430 N 0.02951 0.10134 0.04812
 N2431 N 0.03590 0.11276 0.05439
 C2432 C 0.04820 0.11854 0.04866
 N2433 N 0.05388 0.11253 0.03644
 N2434 N 0.04749 0.10113 0.03017
 C2435 C 0.02829 0.08264 0.02906
 N2436 N 0.03411 0.07659 0.01692
 N2437 N 0.02832 0.06463 0.01113
 C2438 C 0.01644 0.05832 0.01721
 N2439 N 0.01052 0.06448 0.02925
 N2440 N 0.01631 0.07645 0.03504
 C2441 C 0.03510 0.59583 0.53581
 N2442 N 0.04740 0.60163 0.53009
 N2443 N 0.05378 0.61305 0.53636
 C2444 C 0.04812 0.61906 0.54859
 N2445 N 0.03583 0.61325 0.55433
 N2446 N 0.02944 0.60183 0.54807
 C2447 C 0.02821 0.58310 0.52902
 N2448 N 0.01623 0.57692 0.53503
 N2449 N 0.01043 0.56494 0.52926
 C2450 C 0.01633 0.55876 0.51722
 N2451 N 0.02821 0.56504 0.51112
 N2452 N 0.03402 0.57701 0.51689
 C2453 C 0.53543 0.09614 0.53533
 N2454 N 0.52989 0.10201 0.54769
 N2455 N 0.53634 0.11335 0.55401
 C2456 C 0.54857 0.11923 0.54822
 N2457 N 0.55414 0.11335 0.53588
 N2458 N 0.54769 0.10200 0.52956
 C2459 C 0.52847 0.08346 0.52854
 N2460 N 0.53422 0.07736 0.51640
 N2461 N 0.52835 0.06541 0.51066
 C2462 C 0.51646 0.05917 0.51680
 N2463 N 0.51062 0.06538 0.52886
 N2464 N 0.51649 0.07733 0.53460
 C2465 C 0.53546 0.59566 0.03570
 N2466 N 0.53011 0.60131 0.04824
 N2467 N 0.53663 0.61258 0.05463
 C2468 C 0.54874 0.61858 0.04872
 N2469 N 0.55412 0.61291 0.03620
 N2470 N 0.54760 0.60163 0.02982
 C2471 C 0.52842 0.58308 0.02879
 N2472 N 0.53412 0.57708 0.01657
 N2473 N 0.52819 0.56521 0.01071
 C2474 C 0.51627 0.55897 0.01680
 N2475 N 0.51048 0.56509 0.02893
 N2476 N 0.51641 0.57695 0.03479
 C2477 C 0.71367 0.15543 0.53637
 N2478 N 0.70160 0.14932 0.53045
 N2479 N 0.69540 0.13777 0.53661
 C2480 C 0.70104 0.13192 0.54894
 N2481 N 0.71308 0.13805 0.55488
 N2482 N 0.71928 0.14960 0.54871
 C2483 C 0.72047 0.16822 0.52967
 N2484 N 0.73249 0.17433 0.53568
 N2485 N 0.73841 0.18622 0.52989
 C2486 C 0.73257 0.19238 0.51782
 N2487 N 0.72059 0.18622 0.51175
 N2488 N 0.71467 0.17433 0.51755
 C2489 C 0.71336 0.65546 0.03633
 N2490 N 0.70127 0.64933 0.03044
 N2491 N 0.69515 0.63772 0.03659
 C2492 C 0.70088 0.63184 0.04885
 N2493 N 0.71293 0.63798 0.05475
 N2494 N 0.71906 0.64958 0.04861
 C2495 C 0.72009 0.66830 0.02962
 N2496 N 0.73207 0.67449 0.03564
 N2497 N 0.73791 0.68642 0.02985
 C2498 C 0.73204 0.69255 0.01778
 N2499 N 0.72012 0.68630 0.01170
 N2500 N 0.71427 0.67437 0.01749
 C2501 C 0.21472 0.59600 0.71442
 N2502 N 0.22041 0.60186 0.70213
 N2503 N 0.21406 0.61323 0.69577
 C2504 C 0.20179 0.61914 0.70145
 N2505 N 0.19609 0.61326 0.71372
 N2506 N 0.20243 0.60188 0.72008
 C2507 C 0.22157 0.58328 0.72127
 N2508 N 0.21567 0.57716 0.73333
 N2509 N 0.22146 0.56521 0.73911
 C2510 C 0.23343 0.55897 0.73312
 N2511 N 0.23943 0.56520 0.72115
 N2512 N 0.23364 0.57716 0.71536
 C2513 C 0.21482 0.09565 0.21401
 N2514 N 0.22048 0.10157 0.20174
 N2515 N 0.21412 0.11297 0.19544
 C2516 C 0.20185 0.11883 0.20118
 N2517 N 0.19616 0.11287 0.21342
 N2518 N 0.20252 0.10149 0.21972
 C2519 C 0.22167 0.08295 0.22083
 N2520 N 0.21582 0.07690 0.23295
 N2521 N 0.22161 0.06495 0.23875
 C2522 C 0.23351 0.05866 0.23270
 N2523 N 0.23945 0.06481 0.22066
 N2524 N 0.23367 0.07676 0.21487
 C2525 C 0.71477 1.09575 0.71394
 N2526 N 0.72046 1.10171 0.70169
 N2527 N 0.71411 1.11312 0.69541
 C2528 C 0.70182 1.11896 0.70112
 N2529 N 0.69612 1.11298 0.71335
 N2530 N 0.70248 1.10158 0.71963
 C2531 C 0.72162 1.08303 0.72078
 N2532 N 0.71571 1.07697 0.73286
 N2533 N 0.72148 1.06503 0.73869
 C2534 C 0.73343 1.05875 0.73272
 N2535 N 0.73943 1.06491 0.72071
 N2536 N 0.73366 1.07686 0.71488
 C2537 C 0.71487 0.59593 0.21429
 N2538 N 0.72046 0.60176 0.20194
 N2539 N 0.71403 0.61306 0.19556
 C2540 C 0.70175 0.61893 0.20127
 N2541 N 0.69615 0.61309 0.21361
 N2542 N 0.70258 0.60179 0.22000
 C2543 C 0.72178 0.58329 0.22116
 N2544 N 0.71598 0.57723 0.23329
 N2545 N 0.72181 0.56530 0.23909
 C2546 C 0.73371 0.55903 0.23301
 N2547 N 0.73961 0.56519 0.22097
 N2548 N 0.73379 0.57713 0.21517
 C2549 C 0.53497 0.15410 0.71355
 N2550 N 0.54727 0.14828 0.71925
 N2551 N 0.55359 0.13681 0.71302
 C2552 C 0.54785 0.13073 0.70083
 N2553 N 0.53555 0.13659 0.69511
 N2554 N 0.52924 0.14806 0.70135
 C2555 C 0.52814 0.16688 0.72039
 N2556 N 0.51609 0.17305 0.71451
 N2557 N 0.51032 0.18500 0.72036
 C2558 C 0.51633 0.19117 0.73238
 N2559 N 0.52829 0.18490 0.73834
 N2560 N 0.53406 0.17295 0.73248
 C2561 C 1.03481 0.15375 0.21440
 N2562 N 1.04709 0.14791 0.22014
 N2563 N 1.05348 0.13654 0.21383
 C2564 C 1.04784 0.13062 0.20154
 N2565 N 1.03558 0.13647 0.19578
 N2566 N 1.02918 0.14785 0.20209
 C2567 C 1.02794 0.16646 0.22121
 N2568 N 1.01592 0.17261 0.21525
 N2569 N 1.01013 0.18458 0.22102
 C2570 C 1.01611 0.19079 0.23303
 N2571 N 1.02804 0.18454 0.23907
 N2572 N 1.03382 0.17258 0.23330
 C2573 C 0.21357 0.65578 0.53643
 N2574 N 0.21939 0.64977 0.54859
 N2575 N 0.21320 0.63823 0.55479
 C2576 C 0.20096 0.63229 0.54906
 N2577 N 0.19512 0.63831 0.53691
 N2578 N 0.20131 0.64985 0.53072
 C2579 C 0.22029 0.66860 0.52971
 N2580 N 0.21427 0.67480 0.51774
 N2581 N 0.22008 0.68672 0.51192
 C2582 C 0.23217 0.69285 0.51780
 N2583 N 0.23823 0.68660 0.52972
 N2584 N 0.23242 0.67467 0.53554
 C2585 C 0.21403 0.15508 1.03658
 N2586 N 0.21975 0.14912 1.04881
 N2587 N 0.21352 0.13759 1.05499
 C2588 C 0.20133 0.13163 1.04917
 N2589 N 0.19558 0.13761 1.03697
 N2590 N 0.20181 0.14913 1.03079
 C2591 C 0.22080 0.16787 1.02984
 N2592 N 0.21493 0.17394 1.01774
 N2593 N 0.22078 0.18584 1.01190
 C2594 C 0.23277 0.19205 1.01789
 N2595 N 0.23869 0.18592 1.02994
 N2596 N 0.23284 0.17402 1.03578
 C2597 C 0.21368 0.71414 0.59460
 N2598 N 0.21946 0.70192 0.60053
 N2599 N 0.21329 0.69570 0.61206
 C2600 C 0.20112 0.70148 0.61808
 N2601 N 0.19532 0.71369 0.61213
 N2602 N 0.20149 0.71990 0.60060
 C2603 C 0.22040 0.72090 0.58179
 N2604 N 0.21448 0.73297 0.57568
 N2605 N 0.22030 0.73880 0.56377
 C2606 C 0.23230 0.73284 0.55759
 N2607 N 0.23827 0.72083 0.56376
 N2608 N 0.23246 0.71499 0.57567
 C2609 C 0.21357 0.21351 1.09473
 N2610 N 0.20129 0.21920 1.10062
 N2611 N 0.19514 0.21304 1.11219
 C2612 C 0.20103 0.20095 1.11829
 N2613 N 0.21329 0.19523 1.11238
 N2614 N 0.21944 0.20139 1.10080
 C2615 C 0.22027 0.22026 1.08191
 N2616 N 0.23238 0.21444 1.07582
 N2617 N 0.23818 0.22031 1.06392
 C2618 C 0.23213 0.23228 1.05772
 N2619 N 0.22006 0.23815 1.06387
 N2620 N 0.21426 0.23227 1.07577
 C2621 C 0.71433 0.53549 0.15432
 N2622 N 0.70204 0.52981 0.14843
 N2623 N 0.69566 0.53620 0.13710
 C2624 C 0.70133 0.54852 0.13127
 N2625 N 0.71360 0.55423 0.13718
 N2626 N 0.71997 0.54784 0.14851
 C2627 C 0.72121 0.52862 0.16699
 N2628 N 0.73328 0.53455 0.17310
 N2629 N 0.73911 0.52874 0.18501
 C2630 C 0.73316 0.51672 0.19121
 N2631 N 0.72118 0.51071 0.18501
 N2632 N 0.71534 0.51652 0.17309
 C2633 C 0.71404 1.03548 0.65430
 N2634 N 0.70185 1.02974 0.64824
 N2635 N 0.69553 1.03619 0.63692
 C2636 C 0.70112 1.04865 0.63130
 N2637 N 0.71327 1.05441 0.63739
 N2638 N 0.71961 1.04795 0.64869
 C2639 C 0.72088 1.02851 0.66691
 N2640 N 0.73303 1.03430 0.67299
 N2641 N 0.73883 1.02840 0.68487
 C2642 C 0.73276 1.01645 0.69107
 N2643 N 0.72070 1.01057 0.68489
 N2644 N 0.71490 1.01646 0.67299
 C2645 C 0.53553 0.21515 0.65391
 N2646 N 0.54791 0.22077 0.64817
 N2647 N 0.55430 0.21441 0.63682
 C2648 C 0.54855 0.20218 0.63084
 N2649 N 0.53618 0.19655 0.63659
 N2650 N 0.52980 0.20291 0.64793
 C2651 C 0.52867 0.22196 0.66660
 N2652 N 0.51651 0.21611 0.67256
 N2653 N 0.51072 0.22184 0.68454
 C2654 C 0.51682 0.23367 0.69094
 N2655 N 0.52890 0.23961 0.68487
 N2656 N 0.53469 0.23389 0.67290
 C2657 C 1.03544 0.21412 0.15415
 N2658 N 1.04786 0.21970 0.14845
 N2659 N 1.05421 0.21338 0.13706
 C2660 C 1.04839 0.20124 0.13099
 N2661 N 1.03599 0.19564 0.13669
 N2662 N 1.02963 0.20196 0.14808
 C2663 C 1.02859 0.22098 0.16683
 N2664 N 1.01640 0.21520 0.17282
 N2665 N 1.01061 0.22101 0.18476
 C2666 C 1.01673 0.23289 0.19110
 N2667 N 1.02882 0.23876 0.18500
 N2668 N 1.03461 0.23295 0.17306
 C2669 C 0.59565 0.21447 0.71473
 N2670 N 0.60151 0.20211 0.72029
 N2671 N 0.61283 0.19578 0.71385
 C2672 C 0.61869 0.20155 0.70160
 N2673 N 0.61282 0.21390 0.69603
 N2674 N 0.60149 0.22023 0.70247
 C2675 C 0.58298 0.22127 0.72165
 N2676 N 0.57692 0.23344 0.71590
 N2677 N 0.56496 0.23917 0.72172
 C2678 C 0.55867 0.23300 0.73356
 N2679 N 0.56483 0.22092 0.73941
 N2680 N 0.57680 0.21519 0.73359
 C2681 C 1.09557 0.21413 0.21472
 N2682 N 1.10145 0.20178 0.22030
 N2683 N 1.11279 0.19547 0.21387
 C2684 C 1.11864 0.20125 0.20162
 N2685 N 1.11274 0.21357 0.19603
 N2686 N 1.10140 0.21989 0.20246
 C2687 C 1.08288 0.22092 0.22163
 N2688 N 1.07681 0.23307 0.21585
 N2689 N 1.06485 0.23881 0.22167
 C2690 C 1.05858 0.23267 0.23353
 N2691 N 1.06476 0.22061 0.23940
 N2692 N 1.07672 0.21487 0.23359
 C2693 C 0.15546 0.71369 0.53607
 N2694 N 0.14956 0.71946 0.54831
 N2695 N 0.13805 0.71325 0.55454
 C2696 C 0.13204 0.70105 0.54878
 N2697 N 0.13795 0.69527 0.53655
 N2698 N 0.14946 0.70147 0.53032
 C2699 C 0.16825 0.72043 0.52929
 N2700 N 0.17433 0.71451 0.51721
 N2701 N 0.18622 0.72033 0.51135
 C2702 C 0.19244 0.73235 0.51731
 N2703 N 0.18630 0.73832 0.52934
 N2704 N 0.17440 0.73250 0.53520
 C2705 C 0.15560 0.21303 1.03639
 N2706 N 0.14958 0.20083 1.03060
 N2707 N 0.13802 0.19467 1.03678
 C2708 C 0.13208 0.20046 1.04899
 N2709 N 0.13811 0.21264 1.05480
 N2710 N 0.14966 0.21880 1.04861
 C2711 C 0.16844 0.21973 1.02969
 N2712 N 0.17460 0.23175 1.03568
 N2713 N 0.18653 0.23757 1.02990
 C2714 C 0.19270 0.23164 1.01787
 N2715 N 0.18648 0.21967 1.01182
 N2716 N 0.17454 0.21384 1.01761
 C2717 C 0.65428 0.53566 0.21484
 N2718 N 0.64840 0.52991 0.20256
 N2719 N 0.63709 0.53629 0.19613
 C2720 C 0.63127 0.54865 0.20173
 N2721 N 0.63716 0.55441 0.21399
 N2722 N 0.64847 0.54804 0.22042
 C2723 C 0.66694 0.52881 0.22173
 N2724 N 0.67311 0.53481 0.23374
 N2725 N 0.68507 0.52903 0.23953
 C2726 C 0.69123 0.51699 0.23359
 N2727 N 0.68495 0.51089 0.22169
 N2728 N 0.67299 0.51667 0.21590
 C2729 C 0.65389 1.03573 0.71468
 N2730 N 0.64797 1.02997 0.70243
 N2731 N 0.63659 1.03630 0.69606
 C2732 C 0.63073 1.04863 0.70169
 N2733 N 0.63667 1.05441 0.71393
 N2734 N 0.64805 1.04808 0.72029
 C2735 C 0.66663 1.02891 0.72154
 N2736 N 0.67285 1.03494 0.73350
 N2737 N 0.68481 1.02916 0.73930
 C2738 C 0.69095 1.01708 0.73341
 N2739 N 0.68463 1.01096 0.72153
 N2740 N 0.67267 1.01674 0.71573
 C2741 C 0.84448 0.46346 0.28738
 N2742 N 0.85031 0.45111 0.28175
 N2743 N 0.86183 0.44491 0.28796
 C2744 C 0.86795 0.45082 0.30004
 N2745 N 0.86209 0.46314 0.30570
 N2746 N 0.85056 0.46935 0.29949
 C2747 C 0.83171 0.47022 0.28055
 N2748 N 0.82569 0.48244 0.28626
 N2749 N 0.81384 0.48829 0.28031
 C2750 C 0.80763 0.48219 0.26837
 N2751 N 0.81371 0.47001 0.26261
 N2752 N 0.82555 0.46417 0.26856
 C2753 C 0.84434 0.96377 0.78706
 N2754 N 0.85026 0.95151 0.78131
 N2755 N 0.86171 0.94522 0.78758
 C2756 C 0.86764 0.95094 0.79983
 N2757 N 0.86171 0.96318 0.80560
 N2758 N 0.85026 0.96947 0.79934
 C2759 C 0.83161 0.97061 0.78025
 N2760 N 0.82550 0.98268 0.78617
 N2761 N 0.81364 0.98858 0.78028
 C2762 C 0.80751 0.98267 0.76821
 N2763 N 0.81369 0.97065 0.76224
 N2764 N 0.82554 0.96475 0.76812
 C2765 C 0.40545 0.28653 0.78697
 N2766 N 0.39956 0.29880 0.78123
 N2767 N 0.38810 0.30510 0.78747
 C2768 C 0.38213 0.29937 0.79969
 N2769 N 0.38805 0.28713 0.80545
 N2770 N 0.39951 0.28084 0.79921
 C2771 C 0.41815 0.27963 0.78016
 N2772 N 0.42420 0.26753 0.78608
 N2773 N 0.43601 0.26155 0.78020
 C2774 C 0.44216 0.26740 0.76812
 N2775 N 0.43604 0.27945 0.76215
 N2776 N 0.42423 0.28543 0.76804
 C2777 C 0.90527 0.28593 0.28686
 N2778 N 0.89943 0.29820 0.28109
 N2779 N 0.88796 0.30453 0.28727
 C2780 C 0.88192 0.29882 0.29946
 N2781 N 0.88777 0.28656 0.30525
 N2782 N 0.89925 0.28024 0.29907
 C2783 C 0.91799 0.27906 0.28010
 N2784 N 0.92409 0.26702 0.28607
 N2785 N 0.93595 0.26109 0.28023
 C2786 C 0.94208 0.26694 0.26815
 N2787 N 0.93591 0.27893 0.26213
 N2788 N 0.92406 0.28486 0.26797
 C2789 C 0.34597 0.78567 0.46430
 N2790 N 0.35183 0.79796 0.47005
 N2791 N 0.36317 0.80438 0.46374
 C2792 C 0.36905 0.79876 0.45142
 N2793 N 0.36318 0.78648 0.44565
 N2794 N 0.35184 0.78007 0.45197
 C2795 C 0.33326 0.77878 0.47110
 N2796 N 0.32707 0.76680 0.46506
 N2797 N 0.31511 0.76099 0.47081
 C2798 C 0.30895 0.76689 0.48286
 N2799 N 0.31524 0.77878 0.48899
 N2800 N 0.32720 0.78458 0.48325
 C2801 C 0.34593 0.28565 0.96460
 N2802 N 0.35185 0.29789 0.97040
 N2803 N 0.36318 0.30433 0.96407
 C2804 C 0.36898 0.29877 0.95168
 N2805 N 0.36303 0.28656 0.94586
 N2806 N 0.35170 0.28013 0.95219
 C2807 C 0.33328 0.27869 0.97143
 N2808 N 0.32715 0.26667 0.96540
 N2809 N 0.31525 0.26077 0.97118
 C2810 C 0.30909 0.26661 0.98326
 N2811 N 0.31532 0.27854 0.98938
 N2812 N 0.32723 0.28444 0.98361
 C2813 C 0.78642 0.46362 0.34463
 N2814 N 0.79867 0.46933 0.35056
 N2815 N 0.80490 0.46309 0.36204
 C2816 C 0.79911 0.45088 0.36799
 N2817 N 0.78688 0.44514 0.36205
 N2818 N 0.78065 0.45138 0.35056
 C2819 C 0.77965 0.47040 0.33188
 N2820 N 0.76758 0.46451 0.32576
 N2821 N 0.76174 0.47038 0.31388
 C2822 C 0.76770 0.48241 0.30774
 N2823 N 0.77971 0.48837 0.31394
 N2824 N 0.78556 0.48250 0.32581
 C2825 C 0.78655 0.96336 0.84434
 N2826 N 0.78076 0.95117 0.85035
 N2827 N 0.78701 0.94498 0.86185
 C2828 C 0.79927 0.95073 0.86774
 N2829 N 0.80507 0.96288 0.86171
 N2830 N 0.79883 0.96908 0.85020
 C2831 C 0.77975 0.97011 0.83159
 N2832 N 0.78569 0.98214 0.82543
 N2833 N 0.77979 0.98799 0.81357
 C2834 C 0.76770 0.98209 0.80748
 N2835 N 0.76171 0.97011 0.81371
 N2836 N 0.76760 0.96425 0.82557
 C2837 C 0.28534 0.78600 0.40414
 N2838 N 0.29761 0.78024 0.39830
 N2839 N 0.30403 0.78655 0.38697
 C2840 C 0.29844 0.79888 0.38108
 N2841 N 0.28619 0.80466 0.38693
 N2842 N 0.27976 0.79835 0.39827
 C2843 C 0.27844 0.77920 0.41681
 N2844 N 0.26643 0.78519 0.42294
 N2845 N 0.26062 0.77941 0.43488
 C2846 C 0.26655 0.76738 0.44106
 N2847 N 0.27846 0.76131 0.43482
 N2848 N 0.28428 0.76708 0.42289
 C2849 C 0.28564 0.28589 0.90465
 N2850 N 0.29794 0.28020 0.89881
 N2851 N 0.30437 0.28661 0.88752
 C2852 C 0.29874 0.29895 0.88170
 N2853 N 0.28647 0.30467 0.88757
 N2854 N 0.28005 0.29826 0.89885
 C2855 C 0.27868 0.27895 0.91722
 N2856 N 0.26664 0.28488 0.92334
 N2857 N 0.26077 0.27900 0.93521
 C2858 C 0.26666 0.26693 0.94133
 N2859 N 0.27861 0.26090 0.93509
 N2860 N 0.28448 0.26677 0.92322
 C2861 C 0.46341 0.28682 0.84449
 N2862 N 0.46921 0.29905 0.85044
 N2863 N 0.46303 0.30529 0.86197
 C2864 C 0.45082 0.29956 0.86794
 N2865 N 0.44501 0.28735 0.86198
 N2866 N 0.45118 0.28110 0.85046
 C2867 C 0.47011 0.28002 0.83168
 N2868 N 0.46410 0.26800 0.82553
 N2869 N 0.46989 0.26211 0.81363
 C2870 C 0.48197 0.26796 0.80749
 N2871 N 0.48804 0.27993 0.81370
 N2872 N 0.48224 0.28582 0.82560
 C2873 C 0.96363 0.28674 0.34453
 N2874 N 0.96944 0.29897 0.35047
 N2875 N 0.96326 0.30523 0.36199
 C2876 C 0.95105 0.29950 0.36797
 N2877 N 0.94524 0.28729 0.36202
 N2878 N 0.95141 0.28103 0.35051
 C2879 C 0.97032 0.27994 0.33173
 N2880 N 0.96430 0.26790 0.32563
 N2881 N 0.97007 0.26200 0.31372
 C2882 C 0.98211 0.26787 0.30752
 N2883 N 0.98818 0.27985 0.31369
 N2884 N 0.98241 0.28575 0.32560
 C2885 C 0.46310 0.34448 0.78661
 N2886 N 0.46883 0.35044 0.79885
 N2887 N 0.46257 0.36192 0.80510
 C2888 C 0.45034 0.36784 0.79934
 N2889 N 0.44459 0.36187 0.78712
 N2890 N 0.45085 0.35039 0.78087
 C2891 C 0.46989 0.33173 0.77982
 N2892 N 0.46397 0.32561 0.76776
 N2893 N 0.46984 0.31373 0.76188
 C2894 C 0.48189 0.30760 0.76779
 N2895 N 0.48787 0.31379 0.77980
 N2896 N 0.48200 0.32567 0.78568
 C2897 C 0.96304 0.34421 0.28682
 N2898 N 0.96888 0.35013 0.29904
 N2899 N 0.96268 0.36160 0.30537
 C2900 C 0.95041 0.36756 0.29973
 N2901 N 0.94456 0.36163 0.28753
 N2902 N 0.95075 0.35015 0.28120
 C2903 C 0.96979 0.33146 0.27994
 N2904 N 0.96376 0.32531 0.26793
 N2905 N 0.96960 0.31345 0.26199
 C2906 C 0.98174 0.30735 0.26777
 N2907 N 0.98782 0.31357 0.27972
 N2908 N 0.98197 0.32542 0.28567
 C2909 C 0.28626 0.84602 0.46442
 N2910 N 0.29881 0.85162 0.46981
 N2911 N 0.30526 0.86286 0.46333
 C2912 C 0.29941 0.86889 0.45120
 N2913 N 0.28687 0.86327 0.44578
 N2914 N 0.28043 0.85203 0.45226
 C2915 C 0.27928 0.83346 0.47140
 N2916 N 0.26704 0.82753 0.46566
 N2917 N 0.26114 0.81567 0.47154
 C2918 C 0.26720 0.80937 0.48344
 N2919 N 0.27935 0.81542 0.48927
 N2920 N 0.28525 0.82727 0.48339
 C2921 C 0.28594 0.34562 0.96469
 N2922 N 0.28028 0.35145 0.95237
 N2923 N 0.28665 0.36280 0.94599
 C2924 C 0.29893 0.36871 0.95168
 N2925 N 0.30462 0.36285 0.96398
 N2926 N 0.29825 0.35150 0.97036
 C2927 C 0.27906 0.33295 0.97158
 N2928 N 0.28492 0.32688 0.98369
 N2929 N 0.27908 0.31497 0.98952
 C2930 C 0.26709 0.30875 0.98353
 N2931 N 0.26115 0.31493 0.97151
 N2932 N 0.26699 0.32683 0.96567
 C2933 C 0.78678 0.40544 0.28618
 N2934 N 0.79901 0.39947 0.28048
 N2935 N 0.80519 0.38795 0.28672
 C2936 C 0.79938 0.38200 0.29890
 N2937 N 0.78716 0.38797 0.30462
 N2938 N 0.78098 0.39950 0.29838
 C2939 C 0.78007 0.41825 0.27941
 N2940 N 0.76800 0.42438 0.28529
 N2941 N 0.76220 0.43630 0.27943
 C2942 C 0.76821 0.44247 0.26744
 N2943 N 0.78022 0.43626 0.26152
 N2944 N 0.78602 0.42435 0.26737
   
