data_POSCAR
  _audit_creation_date              2014-09-24
  _audit_creation_method            'ToBaCCo'
  _symmetry_space_group_name_H-M    'P1'
  _symmetry_Int_Tables_number       1
  _symmetry_cell_setting            triclinic
  loop_
  _symmetry_equiv_pos_as_xyz
 x,y,z
_cell_length_a 53.0929
_cell_length_b 52.9273
_cell_length_c 53.2049
_cell_angle_alpha 89.915400
_cell_angle_beta 90.020200
_cell_angle_gamma 90.011800
loop_
  _atom_site_label
  _atom_site_type_symbol
  _atom_site_fract_x
  _atom_site_fract_y
  _atom_site_fract_z
C1 C 0.35437 0.35656 0.32448
 C2 C 0.37570 0.34632 0.31274
 C3 C 0.38757 0.32456 0.32246
 C4 C 0.37737 0.31312 0.34413
 C5 C 0.35598 0.32310 0.35600
 C6 C 0.34447 0.34494 0.34615
 C7 C 0.34234 0.37785 0.31435
 C8 C 0.32042 0.38784 0.32544
 C9 C 0.31064 0.37590 0.34706
 C10 C 0.32255 0.35465 0.35745
 C11 C 0.31239 0.34253 0.37859
 C12 C 0.32366 0.32070 0.38875
 C13 C 0.34554 0.31110 0.37712
 H14 H 0.38222 0.35510 0.29564
 H15 H 0.38590 0.29602 0.35146
 H16 H 0.34976 0.38648 0.29741
 H17 H 0.29343 0.38234 0.35568
 H18 H 0.29527 0.34983 0.38699
 H19 H 0.35435 0.29398 0.38372
 C20 C 0.35550 0.85576 -0.17973
 C21 C 0.37684 0.84315 -0.18887
 C22 C 0.38664 0.82159 -0.17659
 C23 C 0.37402 0.81270 -0.15491
 C24 C 0.35277 0.82527 -0.14546
 C25 C 0.34350 0.84687 -0.15787
 C26 C 0.34559 0.87668 -0.19264
 C27 C 0.32391 0.88937 -0.18377
 C28 C 0.31197 0.87987 -0.16200
 C29 C 0.32161 0.85892 -0.14903
 C30 C 0.30914 0.84941 -0.12779
 C31 C 0.31843 0.82808 -0.11487
 C32 C 0.34016 0.81603 -0.12417
 H33 H 0.38569 0.84989 -0.20599
 H34 H 0.37985 0.79564 -0.14547
 H35 H 0.35456 0.88216 -0.21001
 H36 H 0.29472 0.88858 -0.15538
 H37 H 0.29178 0.85834 -0.12213
 H38 H 0.34699 0.79904 -0.11502
 C39 C 0.85251 0.35764 -0.16984
 C40 C 0.87417 0.34896 -0.18225
 C41 C 0.88708 0.32717 -0.17382
 C42 C 0.87739 0.31421 -0.15270
 C43 C 0.85560 0.32249 -0.14036
 C44 C 0.84314 0.34434 -0.14892
 C45 C 0.83964 0.37905 -0.17862
 C46 C 0.81749 0.38775 -0.16675
 C47 C 0.80806 0.37374 -0.14614
 C48 C 0.82084 0.35236 -0.13711
 C49 C 0.81113 0.33843 -0.11686
 C50 C 0.82323 0.31638 -0.10817
 C51 C 0.84571 0.30873 -0.12006
 H52 H 0.88010 0.35907 -0.19882
 H53 H 0.88658 0.29708 -0.14624
 H54 H 0.84665 0.38876 -0.19516
 H55 H 0.79036 0.37856 -0.13741
 H56 H 0.79378 0.34449 -0.10798
 H57 H 0.85558 0.29196 -0.11416
 C58 C 0.85881 0.84981 0.32758
 C59 C 0.87967 0.83686 0.31777
 C60 C 0.88811 0.81406 0.32860
 C61 C 0.87471 0.80409 0.34924
 C62 C 0.85387 0.81684 0.35925
 C63 C 0.84592 0.83979 0.34846
 C64 C 0.85021 0.87219 0.31628
 C65 C 0.82905 0.88525 0.32587
 C66 C 0.81625 0.87466 0.34664
 C67 C 0.82451 0.85221 0.35795
 C68 C 0.81114 0.84164 0.37815
 C69 C 0.81887 0.81864 0.38915
 C70 C 0.84038 0.80653 0.37946
 H71 H 0.88921 0.84433 0.30135
 H72 H 0.87966 0.78601 0.35723
 H73 H 0.85969 0.87858 0.29948
 H74 H 0.79928 0.88361 0.35364
 H75 H 0.79457 0.85139 0.38463
 H76 H 0.84639 0.78869 0.38753
 C77 C 0.63848 0.64578 0.31891
 C78 C 0.61801 0.65958 0.30947
 C79 C 0.60905 0.68126 0.32192
 C80 C 0.62119 0.68897 0.34423
 C81 C 0.64164 0.67528 0.35394
 C82 C 0.65032 0.65364 0.34126
 C83 C 0.64776 0.62476 0.30582
 C84 C 0.66877 0.61117 0.31484
 C85 C 0.68045 0.61935 0.33717
 C86 C 0.67143 0.64040 0.35039
 C87 C 0.68378 0.64886 0.37213
 C88 C 0.67520 0.67040 0.38517
 C89 C 0.65408 0.68345 0.37573
 H90 H 0.60926 0.65377 0.29199
 H91 H 0.61557 0.70595 0.35388
 H92 H 0.63887 0.61983 0.28828
 H93 H 0.69703 0.60952 0.34398
 H94 H 0.70047 0.63891 0.37807
 H95 H 0.64767 0.70042 0.38515
 C96 C 0.64620 0.14048 -0.17834
 C97 C 0.62486 0.14995 -0.19067
 C98 C 0.61151 0.17077 -0.18096
 C99 C 0.62053 0.18241 -0.15891
 C100 C 0.64199 0.17321 -0.14646
 C101 C 0.65482 0.15209 -0.15619
 C102 C 0.65945 0.11997 -0.18837
 C103 C 0.68143 0.11054 -0.17672
 C104 C 0.68993 0.12254 -0.15454
 C105 C 0.67675 0.14312 -0.14428
 C106 C 0.68564 0.15535 -0.12264
 C107 C 0.67314 0.17661 -0.11269
 C108 C 0.65118 0.18533 -0.12488
 H109 H 0.61947 0.14144 -0.20830
 H110 H 0.61109 0.19906 -0.15175
 H111 H 0.65282 0.11144 -0.20569
 H112 H 0.70702 0.11672 -0.14527
 H113 H 0.70272 0.14863 -0.11368
 H114 H 0.64128 0.20181 -0.11829
 C115 C 0.14675 0.64464 -0.18111
 C116 C 0.12586 0.65373 -0.19461
 C117 C 0.11254 0.67525 -0.18633
 C118 C 0.12055 0.68736 -0.16417
 C119 C 0.14132 0.67853 -0.15054
 C120 C 0.15442 0.65704 -0.15899
 C121 C 0.16055 0.62379 -0.18983
 C122 C 0.18234 0.61522 -0.17710
 C123 C 0.18891 0.62719 -0.15427
 C124 C 0.17546 0.64821 -0.14552
 C125 C 0.18333 0.66104 -0.12386
 C126 C 0.17087 0.68301 -0.11556
 C127 C 0.14959 0.69141 -0.12902
 H128 H 0.12066 0.64416 -0.21171
 H129 H 0.11070 0.70411 -0.15776
 H130 H 0.15463 0.61445 -0.20698
 H131 H 0.20440 0.62059 -0.14294
 H132 H 0.19988 0.65449 -0.11383
 H133 H 0.13961 0.70825 -0.12352
 C134 C 0.14617 0.14463 0.32345
 C135 C 0.12552 0.15478 0.31039
 C136 C 0.11299 0.17663 0.31918
 C137 C 0.12223 0.18829 0.34120
 C138 C 0.14293 0.17840 0.35430
 C139 C 0.15489 0.15643 0.34546
 C140 C 0.15866 0.12320 0.31433
 C141 C 0.17993 0.11310 0.32674
 C142 C 0.18861 0.12543 0.34866
 C143 C 0.17617 0.14683 0.35809
 C144 C 0.18520 0.15924 0.37959
 C145 C 0.17326 0.18110 0.38886
 C146 C 0.15224 0.19067 0.37572
 H147 H 0.12010 0.14574 0.29307
 H148 H 0.11342 0.20548 0.34796
 H149 H 0.15207 0.11453 0.29707
 H150 H 0.20539 0.11925 0.35829
 H151 H 0.20191 0.15215 0.38894
 H152 H 0.14339 0.20812 0.38136
 C153 C 0.64170 0.35459 0.67834
 C154 C 0.62058 0.34090 0.68639
 C155 C 0.61224 0.31935 0.67328
 C156 C 0.62534 0.31201 0.65141
 C157 C 0.64643 0.32563 0.64306
 C158 C 0.65469 0.34692 0.65659
 C159 C 0.65050 0.37525 0.69231
 C160 C 0.67230 0.38853 0.68487
 C161 C 0.68498 0.38070 0.66295
 C162 C 0.67643 0.36003 0.64886
 C163 C 0.68986 0.35176 0.62768
 C164 C 0.68181 0.33046 0.61392
 C165 C 0.65994 0.31766 0.62187
 H166 H 0.61088 0.34659 0.70340
 H167 H 0.61993 0.29542 0.64101
 H168 H 0.64053 0.38014 0.70926
 H169 H 0.70199 0.39047 0.65722
 H170 H 0.70692 0.36165 0.62277
 H171 H 0.65383 0.30094 0.61182
 C172 C 0.65063 0.86124 1.17805
 C173 C 0.62870 0.85243 1.18992
 C174 C 0.61498 0.83181 1.18001
 C175 C 0.62424 0.82002 1.15804
 C176 C 0.64624 0.82852 1.14614
 C177 C 0.65943 0.84927 1.15615
 C178 C 0.66435 0.88141 1.18830
 C179 C 0.68693 0.88985 1.17714
 C180 C 0.69542 0.87771 1.15516
 C181 C 0.68188 0.85754 1.14472
 C182 C 0.69096 0.84501 1.12339
 C183 C 0.67820 0.82404 1.11326
 C184 C 0.65564 0.81603 1.12483
 H185 H 0.62324 0.86135 1.20729
 H186 H 0.61455 0.80365 1.15052
 H187 H 0.65773 0.89038 1.20537
 H188 H 0.71276 0.88322 1.14617
 H189 H 0.70846 0.85121 1.11487
 H190 H 0.64543 0.79985 1.11795
 C191 C 0.14976 0.35565 1.17549
 C192 C 0.12816 0.34694 1.18801
 C193 C 0.11495 0.32543 1.17938
 C194 C 0.12431 0.31273 1.15800
 C195 C 0.14602 0.32109 1.14552
 C196 C 0.15875 0.34268 1.15425
 C197 C 0.16292 0.37677 1.18443
 C198 C 0.18511 0.38527 1.17260
 C199 C 0.19388 0.37208 1.15130
 C200 C 0.18088 0.35089 1.14214
 C201 C 0.19013 0.33733 1.12148
 C202 C 0.17787 0.31539 1.11278
 C203 C 0.15553 0.30766 1.12488
 H204 H 0.12254 0.35675 1.20484
 H205 H 0.11494 0.29577 1.15142
 H206 H 0.15613 0.38652 1.20101
 H207 H 0.21103 0.37756 1.14192
 H208 H 0.20734 0.34351 1.11238
 H209 H 0.14545 0.29106 1.11887
 C210 C 0.14358 0.85602 0.67048
 C211 C 0.12233 0.84655 0.68305
 C212 C 0.10956 0.82485 0.67420
 C213 C 0.11907 0.81269 0.65256
 C214 C 0.14041 0.82182 0.63998
 C215 C 0.15266 0.84362 0.64892
 C216 C 0.15643 0.87726 0.67969
 C217 C 0.17835 0.88639 0.66780
 C218 C 0.18721 0.87371 0.64627
 C219 C 0.17452 0.85250 0.63684
 C220 C 0.18397 0.83951 0.61596
 C221 C 0.17212 0.81753 0.60689
 C222 C 0.15016 0.80890 0.61909
 H223 H 0.11666 0.85593 0.70011
 H224 H 0.11009 0.79557 0.64583
 H225 H 0.14968 0.88651 0.69657
 H226 H 0.20432 0.87951 0.63701
 H227 H 0.20110 0.84613 0.60701
 H228 H 0.14079 0.79186 0.61312
 C229 C 0.35804 0.64682 0.67521
 C230 C 0.37858 0.66030 0.68490
 C231 C 0.38756 0.68231 0.67297
 C232 C 0.37558 0.69045 0.65071
 C233 C 0.35499 0.67710 0.64080
 C234 C 0.34618 0.65523 0.65307
 C235 C 0.34874 0.62552 0.68785
 C236 C 0.32783 0.61205 0.67849
 C237 C 0.31592 0.62093 0.65652
 C238 C 0.32498 0.64229 0.64371
 C239 C 0.31262 0.65133 0.62217
 C240 C 0.32128 0.67316 0.60961
 C241 C 0.34257 0.68580 0.61922
 H242 H 0.38745 0.65392 0.70214
 H243 H 0.38160 0.70732 0.64108
 H244 H 0.35743 0.62025 0.70545
 H245 H 0.29918 0.61146 0.64965
 H246 H 0.29591 0.64157 0.61597
 H247 H 0.34908 0.70295 0.61011
 C248 C 0.35989 0.14230 1.17920
 C249 C 0.38090 0.15482 1.18919
 C250 C 0.39133 0.17628 1.17727
 C251 C 0.37968 0.18520 1.15505
 C252 C 0.35876 0.17271 1.14474
 C253 C 0.34887 0.15120 1.15682
 C254 C 0.34929 0.12154 1.19180
 C255 C 0.32779 0.10908 1.18219
 C256 C 0.31689 0.11852 1.15984
 C257 C 0.32725 0.13930 1.14716
 C258 C 0.31568 0.14885 1.12543
 C259 C 0.32563 0.17006 1.11281
 C260 C 0.34705 0.18202 1.12296
 H261 H 0.38891 0.14814 1.20674
 H262 H 0.38596 0.20227 1.14591
 H263 H 0.35755 0.11603 1.20951
 H264 H 0.29985 0.10992 1.15255
 H265 H 0.29841 0.14012 1.11913
 H266 H 0.35428 0.19901 1.11415
 C267 C 0.85254 0.63901 1.17412
 C268 C 0.87382 0.64760 1.18725
 C269 C 0.88693 0.66939 1.17933
 C270 C 0.87821 0.68236 1.15788
 C271 C 0.85689 0.67407 1.14468
 C272 C 0.84401 0.65230 1.15283
 C273 C 0.83917 0.61778 1.18255
 C274 C 0.81721 0.60935 1.17011
 C275 C 0.80874 0.62321 1.14899
 C276 C 0.82207 0.64437 1.14025
 C277 C 0.81324 0.65822 1.11955
 C278 C 0.82591 0.68003 1.11110
 C279 C 0.84782 0.68779 1.12397
 H280 H 0.87935 0.63749 1.20397
 H281 H 0.88779 0.69942 1.15185
 H282 H 0.84556 0.60805 1.19935
 H283 H 0.79136 0.61848 1.13960
 H284 H 0.79611 0.65230 1.11015
 H285 H 0.85769 0.70478 1.11870
 C286 C 0.85553 0.14673 0.67976
 C287 C 0.87597 0.15642 0.69347
 C288 C 0.88817 0.17883 0.68582
 C289 C 0.87964 0.19110 0.66390
 C290 C 0.85924 0.18167 0.65006
 C291 C 0.84712 0.15941 0.65802
 C292 C 0.84291 0.12492 0.68791
 C293 C 0.82182 0.11551 0.67484
 C294 C 0.81356 0.12852 0.65318
 C295 C 0.82612 0.15025 0.64468
 C296 C 0.81749 0.16339 0.62343
 C297 C 0.82948 0.18566 0.61514
 C298 C 0.85037 0.19468 0.62884
 H299 H 0.88174 0.14646 0.71018
 H300 H 0.88875 0.20842 0.65786
 H301 H 0.84915 0.11547 0.70490
 H302 H 0.79700 0.12255 0.64308
 H303 H 0.80099 0.15658 0.61351
 H304 H 0.85948 0.21218 0.62382
 C305 C 0.35908 0.35455 0.67631
 C306 C 0.35012 0.37554 0.68967
 C307 C 0.32834 0.38858 0.68172
 C308 C 0.31573 0.38005 0.66000
 C309 C 0.32443 0.35903 0.64651
 C310 C 0.34620 0.34624 0.65471
 C311 C 0.38027 0.34118 0.68478
 C312 C 0.38883 0.31942 0.67216
 C313 C 0.37566 0.31131 0.65062
 C314 C 0.35455 0.32459 0.64185
 C315 C 0.34116 0.31594 0.62087
 C316 C 0.31940 0.32850 0.61234
 C317 C 0.31114 0.35011 0.62548
 H318 H 0.35995 0.38089 0.70657
 H319 H 0.29870 0.38957 0.65393
 H320 H 0.38985 0.34732 0.70171
 H321 H 0.38096 0.29429 0.64087
 H322 H 0.34734 0.29891 0.61138
 H323 H 0.29403 0.35973 0.62018
 C324 C 0.35195 0.86013 0.17286
 C325 C 0.33907 0.88082 0.18311
 C326 C 0.31674 0.89001 0.17209
 C327 C 0.30725 0.87768 0.15060
 C328 C 0.31995 0.85694 0.14016
 C329 C 0.34238 0.84816 0.15127
 C330 C 0.37384 0.85082 0.18437
 C331 C 0.38675 0.82982 0.17436
 C332 C 0.37671 0.81783 0.15295
 C333 C 0.35473 0.82685 0.14134
 C334 C 0.34456 0.81439 0.12038
 C335 C 0.32213 0.82300 0.10901
 C336 C 0.31008 0.84438 0.11918
 H337 H 0.34623 0.88965 0.20005
 H338 H 0.28966 0.88339 0.14220
 H339 H 0.38006 0.85961 0.20159
 H340 H 0.38579 0.80104 0.14563
 H341 H 0.35408 0.79773 0.11367
 H342 H 0.29260 0.85096 0.11090
 C343 C 0.85250 0.35559 0.17582
 C344 C 0.83963 0.37712 0.18431
 C345 C 0.81757 0.38563 0.17224
 C346 C 0.80835 0.37178 0.15156
 C347 C 0.82110 0.35035 0.14279
 C348 C 0.84322 0.34220 0.15491
 C349 C 0.87409 0.34690 0.18839
 C350 C 0.88670 0.32489 0.18033
 C351 C 0.87727 0.31189 0.15921
 C352 C 0.85563 0.32025 0.14657
 C353 C 0.84587 0.30655 0.12616
 C354 C 0.82361 0.31442 0.11396
 C355 C 0.81156 0.33652 0.12247
 H356 H 0.84649 0.38704 0.20076
 H357 H 0.79084 0.37685 0.14260
 H358 H 0.88037 0.35725 0.20465
 H359 H 0.88661 0.29480 0.15296
 H360 H 0.85564 0.28967 0.12042
 H361 H 0.79436 0.34273 0.11337
 C362 C 0.85112 0.85618 0.67152
 C363 C 0.83858 0.87773 0.68030
 C364 C 0.81660 0.88674 0.66842
 C365 C 0.80753 0.87378 0.64710
 C366 C 0.82000 0.85227 0.63800
 C367 C 0.84180 0.84340 0.65027
 C368 C 0.87233 0.84678 0.68423
 C369 C 0.88445 0.82454 0.67605
 C370 C 0.87497 0.81212 0.65464
 C371 C 0.85380 0.82130 0.64180
 C372 C 0.84403 0.80816 0.62111
 C373 C 0.82243 0.81696 0.60838
 C374 C 0.81049 0.83900 0.61724
 H375 H 0.84555 0.88728 0.69693
 H376 H 0.79051 0.87968 0.63774
 H377 H 0.87870 0.85675 0.70069
 H378 H 0.88395 0.79489 0.64825
 H379 H 0.85297 0.79067 0.61577
 H380 H 0.79338 0.84552 0.60821
 C381 C 0.64051 0.64401 0.68004
 C382 C 0.64972 0.62324 0.69361
 C383 C 0.67090 0.60963 0.68511
 C384 C 0.68280 0.61749 0.66275
 C385 C 0.67386 0.63831 0.64906
 C386 C 0.65258 0.65160 0.65773
 C387 C 0.61986 0.65784 0.68897
 C388 C 0.61108 0.67945 0.67618
 C389 C 0.62315 0.68662 0.65366
 C390 C 0.64384 0.67291 0.64449
 C391 C 0.65646 0.68077 0.62270
 C392 C 0.67801 0.66795 0.61396
 C393 C 0.68643 0.64652 0.62732
 H394 H 0.64064 0.61854 0.71113
 H395 H 0.69949 0.60764 0.65633
 H396 H 0.61079 0.65212 0.70633
 H397 H 0.61711 0.70300 0.64322
 H398 H 0.64996 0.69747 0.61280
 H399 H 0.70306 0.63638 0.62158
 C400 C 0.64754 0.13937 0.18368
 C401 C 0.66101 0.11876 0.19343
 C402 C 0.68285 0.10968 0.18142
 C403 C 0.69111 0.12191 0.15932
 C404 C 0.67776 0.14245 0.14930
 C405 C 0.65594 0.15123 0.16148
 C406 C 0.62625 0.14873 0.19623
 C407 C 0.61302 0.16984 0.18683
 C408 C 0.62173 0.18147 0.16462
 C409 C 0.64300 0.17238 0.15193
 C410 C 0.65192 0.18465 0.13027
 C411 C 0.67378 0.17608 0.11786
 C412 C 0.68642 0.15481 0.12763
 H413 H 0.65476 0.10995 0.21075
 H414 H 0.70826 0.11630 0.15005
 H415 H 0.62078 0.13983 0.21364
 H416 H 0.61213 0.19809 0.15751
 H417 H 0.64189 0.20112 0.12379
 H418 H 0.70344 0.14820 0.11850
 C419 C 0.14701 0.64125 0.17363
 C420 C 0.16066 0.62045 0.18261
 C421 C 0.18269 0.61212 0.17041
 C422 C 0.19068 0.62497 0.14859
 C423 C 0.17715 0.64582 0.13937
 C424 C 0.15528 0.65400 0.15193
 C425 C 0.12571 0.64992 0.18660
 C426 C 0.11219 0.67121 0.17806
 C427 C 0.12076 0.68382 0.15634
 C428 C 0.14214 0.67542 0.14327
 C429 C 0.15099 0.68863 0.12215
 C430 C 0.17285 0.68064 0.10932
 C431 C 0.18566 0.65909 0.11820
 H432 H 0.15443 0.61090 0.19955
 H433 H 0.20759 0.61946 0.13883
 H434 H 0.12052 0.64034 0.20373
 H435 H 0.11100 0.70063 0.14993
 H436 H 0.14098 0.70541 0.11648
 H437 H 0.20275 0.65300 0.10883
 C438 C 0.14261 0.14571 0.67860
 C439 C 0.15497 0.12377 0.68679
 C440 C 0.17602 0.11418 0.67381
 C441 C 0.18459 0.12724 0.65230
 C442 C 0.17228 0.14910 0.64379
 C443 C 0.15125 0.15838 0.65697
 C444 C 0.12219 0.15552 0.69220
 C445 C 0.11021 0.17803 0.68453
 C446 C 0.11893 0.19030 0.66267
 C447 C 0.13936 0.18077 0.64897
 C448 C 0.14851 0.19379 0.62785
 C449 C 0.16957 0.18474 0.61446
 C450 C 0.18122 0.16228 0.62272
 H451 H 0.14858 0.11435 0.70374
 H452 H 0.20124 0.12121 0.64239
 H453 H 0.11633 0.14559 0.70889
 H454 H 0.11001 0.20771 0.65665
 H455 H 0.13943 0.21124 0.62263
 H456 H 0.19771 0.15533 0.61289
 C457 C 0.35590 0.64658 0.31754
 C458 C 0.34350 0.62516 0.30811
 C459 C 0.32219 0.61501 0.32032
 C460 C 0.31362 0.62678 0.34249
 C461 C 0.32590 0.64811 0.35218
 C462 C 0.34705 0.65808 0.33969
 C463 C 0.37655 0.65706 0.30473
 C464 C 0.38863 0.67900 0.31381
 C465 C 0.37950 0.69020 0.33602
 C466 C 0.35888 0.67998 0.34896
 C467 C 0.34951 0.69183 0.37062
 C468 C 0.32838 0.68199 0.38336
 C469 C 0.31679 0.66006 0.37383
 H470 H 0.35014 0.61652 0.29087
 H471 H 0.29713 0.62008 0.35223
 H472 H 0.38249 0.64820 0.28750
 H473 H 0.38832 0.70729 0.34300
 H474 H 0.35842 0.70906 0.37675
 H475 H 0.30016 0.65263 0.38308
 C476 C 0.35310 0.14021 0.81986
 C477 C 0.33984 0.11968 0.80983
 C478 C 0.31791 0.11038 0.82149
 C479 C 0.30939 0.12225 0.84365
 C480 C 0.32251 0.14285 0.85390
 C481 C 0.34444 0.15184 0.84200
 C482 C 0.37446 0.14968 0.80759
 C483 C 0.38777 0.17055 0.81732
 C484 C 0.37871 0.18218 0.83934
 C485 C 0.35724 0.17298 0.85175
 C486 C 0.34800 0.18510 0.87331
 C487 C 0.32608 0.17628 0.88550
 C488 C 0.31357 0.15506 0.87550
 H489 H 0.34639 0.11102 0.79257
 H490 H 0.29234 0.11618 0.85286
 H491 H 0.37991 0.14111 0.79002
 H492 H 0.38816 0.19882 0.84655
 H493 H 0.35777 0.20168 0.87985
 H494 H 0.29645 0.14835 0.88438
 C495 C 0.85441 0.64357 0.82456
 C496 C 0.84139 0.62186 0.81675
 C497 C 0.82006 0.61307 0.82992
 C498 C 0.81199 0.62659 0.85127
 C499 C 0.82492 0.64820 0.85937
 C500 C 0.84614 0.65676 0.84599
 C501 C 0.87505 0.65269 0.81075
 C502 C 0.88761 0.67502 0.81803
 C503 C 0.87925 0.68776 0.83973
 C504 C 0.85861 0.67896 0.85362
 C505 C 0.84977 0.69252 0.87450
 C506 C 0.82842 0.68425 0.88796
 C507 C 0.81633 0.66188 0.88019
 H508 H 0.84746 0.61204 0.79994
 H509 H 0.79522 0.62116 0.86134
 H510 H 0.88065 0.64242 0.79420
 H511 H 0.88861 0.70504 0.84545
 H512 H 0.85937 0.70974 0.87952
 H513 H 0.79971 0.65545 0.89018
 C514 C 0.85821 0.14581 0.32728
 C515 C 0.84580 0.12415 0.31870
 C516 C 0.82436 0.11466 0.33112
 C517 C 0.81564 0.12733 0.35276
 C518 C 0.82800 0.14905 0.36165
 C519 C 0.84931 0.15832 0.34884
 C520 C 0.87893 0.15552 0.31407
 C521 C 0.89109 0.17777 0.32208
 C522 C 0.88198 0.19006 0.34373
 C523 C 0.86125 0.18057 0.35708
 C524 C 0.85185 0.19348 0.37806
 C525 C 0.83072 0.18433 0.39133
 C526 C 0.81889 0.16209 0.38274
 H527 H 0.85248 0.11482 0.30184
 H528 H 0.79900 0.12102 0.36254
 H529 H 0.88479 0.14579 0.29729
 H530 H 0.89089 0.20741 0.34990
 H531 H 0.86072 0.21106 0.38321
 H532 H 0.80217 0.15525 0.39224
 C533 C 0.64070 0.35421 0.32607
 C534 C 0.64943 0.37506 0.31230
 C535 C 0.67108 0.38843 0.31995
 C536 C 0.68380 0.38035 0.34179
 C537 C 0.67532 0.35944 0.35566
 C538 C 0.65364 0.34632 0.34778
 C539 C 0.61970 0.34057 0.31780
 C540 C 0.61131 0.31888 0.33068
 C541 C 0.62435 0.31121 0.35251
 C542 C 0.64543 0.32479 0.36107
 C543 C 0.65899 0.31662 0.38222
 C544 C 0.68078 0.32948 0.39035
 C545 C 0.68876 0.35095 0.37675
 H546 H 0.63958 0.37998 0.29527
 H547 H 0.70079 0.39010 0.34761
 H548 H 0.61010 0.34644 0.30077
 H549 H 0.61887 0.29442 0.36263
 H550 H 0.65296 0.29975 0.39212
 H551 H 0.70580 0.36083 0.38171
 C552 C 0.64296 0.85575 0.82270
 C553 C 0.65267 0.87674 0.80980
 C554 C 0.67423 0.88951 0.81869
 C555 C 0.68615 0.88040 0.84056
 C556 C 0.67665 0.85943 0.85362
 C557 C 0.65494 0.84707 0.84468
 C558 C 0.62189 0.84280 0.81342
 C559 C 0.61252 0.82109 0.82559
 C560 C 0.62467 0.81266 0.84765
 C561 C 0.64575 0.82550 0.85720
 C562 C 0.65825 0.81657 0.87868
 C563 C 0.67986 0.82884 0.88802
 C564 C 0.68905 0.85019 0.87502
 H565 H 0.64372 0.88229 0.79244
 H566 H 0.70321 0.88948 0.84718
 H567 H 0.61292 0.84934 0.79629
 H568 H 0.61842 0.79593 0.85739
 H569 H 0.65149 0.79959 0.88790
 H570 H 0.70629 0.85933 0.88076
 C571 C 0.14908 0.35953 0.82848
 C572 C 0.16184 0.38091 0.81949
 C573 C 0.18395 0.38971 0.83124
 C574 C 0.19319 0.37644 0.85233
 C575 C 0.18054 0.35510 0.86163
 C576 C 0.15845 0.34661 0.84966
 C577 C 0.12756 0.35046 0.81606
 C578 C 0.11514 0.32846 0.82452
 C579 C 0.12470 0.31588 0.84584
 C580 C 0.14621 0.32469 0.85835
 C581 C 0.15606 0.31137 0.87894
 C582 C 0.17804 0.31976 0.89130
 C583 C 0.19014 0.34166 0.88227
 H584 H 0.15490 0.39048 0.80283
 H585 H 0.21061 0.38187 0.86125
 H586 H 0.12121 0.36046 0.79958
 H587 H 0.11554 0.29878 0.85238
 H588 H 0.14679 0.29412 0.88449
 H589 H 0.20741 0.34797 0.89114
 C590 C 0.13944 0.85357 0.32323
 C591 C 0.14853 0.87514 0.31072
 C592 C 0.17022 0.88784 0.31941
 C593 C 0.18251 0.87854 0.34099
 C594 C 0.17375 0.85702 0.35359
 C595 C 0.15213 0.84448 0.34468
 C596 C 0.11837 0.84043 0.31408
 C597 C 0.10967 0.81826 0.32600
 C598 C 0.12285 0.80927 0.34722
 C599 C 0.14379 0.82229 0.35667
 C600 C 0.15705 0.81286 0.37745
 C601 C 0.17870 0.82518 0.38662
 C602 C 0.18688 0.84737 0.37441
 H603 H 0.13892 0.88124 0.29391
 H604 H 0.19948 0.88782 0.34760
 H605 H 0.10898 0.84712 0.29724
 H606 H 0.11769 0.79168 0.35611
 H607 H 0.15084 0.79548 0.38630
 H608 H 0.20380 0.85696 0.38027
 O609 O 0.25233 1.02743 0.22112
 O610 O 0.21330 0.97868 0.25166
 O611 O 0.21754 1.02776 0.25541
 O612 O 0.24817 0.97864 0.21731
 O613 O 0.27716 0.97378 0.24669
 O614 O 0.24653 1.02300 0.28480
 O615 O 0.24241 0.97400 0.28096
 O616 O 0.28143 1.02253 0.25038
 Cu617 Cu 0.22987 1.00361 0.23348
 Cu618 Cu 0.26475 0.99787 0.26870
 C619 C 0.27357 1.03324 0.23050
 C620 C 0.22135 0.96785 0.27142
 C621 C 0.22689 1.03390 0.27651
 C622 C 0.26789 0.96782 0.22549
 O623 O 0.25921 0.52512 0.72400
 O624 O 0.22553 0.47632 0.76041
 O625 O 0.22465 0.52573 0.75858
 O626 O 0.25944 0.47578 0.72511
 O627 O 0.28898 0.47665 0.75432
 O628 O 0.25481 0.52726 0.78711
 O629 O 0.25505 0.47798 0.78958
 O630 O 0.28927 0.52555 0.75269
 Cu631 Cu 0.23918 0.50059 0.73914
 Cu632 Cu 0.27494 0.50194 0.77388
 C633 C 0.28008 0.53358 0.73215
 C634 C 0.23462 0.46880 0.78121
 C635 C 0.23405 0.53533 0.77834
 C636 C 0.28013 0.46767 0.73403
 O637 O 0.76086 -0.02670 0.28622
 O638 O 0.72612 0.02310 0.25203
 O639 O 0.72718 -0.02604 0.25081
 O640 O 0.75796 0.02269 0.28919
 O641 O 0.78839 0.02573 0.26107
 O642 O 0.75832 -0.02415 0.22337
 O643 O 0.75675 0.02468 0.22401
 O644 O 0.79198 -0.02347 0.25891
 Cu645 Cu 0.73999 -0.00198 0.27243
 Cu646 Cu 0.77703 0.00092 0.23916
 C647 C 0.78235 -0.03364 0.27825
 C648 C 0.73551 0.03219 0.23196
 C649 C 0.73747 -0.03346 0.23060
 C650 C 0.77816 0.03287 0.28146
 O651 O 0.74102 0.47456 0.73021
 O652 O 0.77592 0.52398 0.76412
 O653 O 0.77536 0.47452 0.76504
 O654 O 0.74073 0.52376 0.73013
 O655 O 0.71147 0.52380 0.75961
 O656 O 0.74617 0.47512 0.79456
 O657 O 0.74669 0.52424 0.79363
 O658 O 0.71178 0.47479 0.75971
 Cu659 Cu 0.76124 0.49917 0.74445
 Cu660 Cu 0.72612 0.49952 0.77985
 C661 C 0.72044 0.46625 0.73915
 C662 C 0.76721 0.53264 0.78460
 C663 C 0.76659 0.46638 0.78575
 C664 C 0.72010 0.53211 0.73894
 O665 O 0.25451 0.47505 0.21433
 O666 O 0.28557 0.52507 0.25100
 O667 O 0.28515 0.47556 0.25235
 O668 O 0.25407 0.52430 0.21367
 O669 O 0.22215 0.52467 0.24027
 O670 O 0.25313 0.47632 0.27881
 O671 O 0.25360 0.52532 0.27753
 O672 O 0.22256 0.47530 0.24088
 Cu673 Cu 0.27308 0.49995 0.23020
 Cu674 Cu 0.23461 0.50046 0.26198
 C675 C 0.23335 0.46649 0.22146
 C676 C 0.27483 0.53382 0.27045
 C677 C 0.27433 0.46754 0.27213
 C678 C 0.23284 0.53292 0.22056
 O679 O 0.71505 0.97773 0.74724
 O680 O 0.75033 1.02621 0.71272
 O681 O 0.74841 0.97703 0.71147
 O682 O 0.71860 1.02666 0.74980
 O683 O 0.74916 1.02332 0.77776
 O684 O 0.77950 0.97472 0.73896
 O685 O 0.78095 1.02422 0.74073
 O686 O 0.74607 0.97436 0.77468
 Cu687 Cu 0.73003 1.00217 0.72752
 Cu688 Cu 0.76708 0.99884 0.76075
 C689 C 0.72448 0.96767 0.76676
 C690 C 0.77145 1.03379 0.72094
 C691 C 0.76905 0.96733 0.71881
 C692 C 0.72879 1.03341 0.77035
 O693 O 0.74439 0.52290 0.20882
 O694 O 0.70992 0.47424 0.24430
 O695 O 0.70944 0.52327 0.24304
 O696 O 0.74458 0.47385 0.20972
 O697 O 0.77383 0.47436 0.23922
 O698 O 0.73863 0.52415 0.27259
 O699 O 0.73920 0.47487 0.27377
 O700 O 0.77358 0.52376 0.23837
 Cu701 Cu 0.72416 0.49848 0.22352
 Cu702 Cu 0.75927 0.49936 0.25894
 C703 C 0.76484 0.53170 0.21759
 C704 C 0.71867 0.46622 0.26506
 C705 C 0.71802 0.53220 0.26346
 C706 C 0.76515 0.46561 0.21875
 O707 O 0.27922 0.02501 0.74809
 O708 O 0.24831 -0.02459 0.71054
 O709 O 0.24708 0.02455 0.71140
 O710 O 0.28261 -0.02394 0.74556
 O711 O 0.25203 -0.02704 0.77350
 O712 O 0.21686 0.02288 0.73985
 O713 O 0.21771 -0.02662 0.73856
 O714 O 0.24906 0.02196 0.77651
 Cu715 Cu 0.26733 0.00046 0.72607
 Cu716 Cu 0.23081 -0.00250 0.75988
 C717 C 0.26935 0.03194 0.76874
 C718 C 0.22769 -0.03408 0.71822
 C719 C 0.22614 0.03229 0.71987
 C720 C 0.27348 -0.03383 0.76529
 O721 O 0.24868 0.27599 0.97720
 O722 O 0.28356 0.24085 1.02609
 O723 O 0.28513 0.24320 0.97700
 O724 O 0.24823 0.27481 1.02622
 O725 O 0.22033 0.24389 1.02513
 O726 O 0.25643 0.21312 0.97458
 O727 O 0.25575 0.20995 1.02354
 O728 O 0.22006 0.24573 0.97641
 Cu729 Cu 0.26927 0.26176 1.00179
 Cu730 Cu 0.23536 0.22507 0.99978
 C731 C 0.22828 0.26684 0.96860
 C732 C 0.27553 0.21934 1.03312
 C733 C 0.27692 0.22300 0.96711
 C734 C 0.22809 0.26468 1.03421
 O735 O 0.24939 0.78199 0.47449
 O736 O 0.28135 0.74441 0.52321
 O737 O 0.28480 0.74807 0.47437
 O738 O 0.24602 0.77825 0.52306
 O739 O 0.21739 0.74825 0.51898
 O740 O 0.25613 0.71815 0.47015
 O741 O 0.25285 0.71433 0.51900
 O742 O 0.22078 0.75198 0.47037
 Cu743 Cu 0.26831 0.76615 0.49920
 Cu744 Cu 0.23396 0.73011 0.49422
 C745 C 0.22962 0.77339 0.46411
 C746 C 0.27245 0.72306 0.52957
 C747 C 0.27694 0.72809 0.46377
 C748 C 0.22512 0.76841 0.52935
 O749 O 0.27518 0.75742 -0.02880
 O750 O 0.24076 0.72291 0.02081
 O751 O 0.23986 0.72347 -0.02827
 O752 O 0.27761 0.75514 0.02006
 O753 O 0.24923 0.78551 0.02263
 O754 O 0.21198 0.75441 -0.02705
 O755 O 0.21236 0.75336 0.02183
 O756 O 0.24745 0.78839 -0.02625
 Cu757 Cu 0.26115 0.73663 -0.00424
 Cu758 Cu 0.22745 0.77351 -0.00206
 C759 C 0.26715 0.77891 -0.03590
 C760 C 0.22064 0.73233 0.02976
 C761 C 0.21966 0.73357 -0.03611
 C762 C 0.26981 0.77555 0.02980
 O763 O 0.27798 0.25460 0.47861
 O764 O 0.23982 0.22386 0.52733
 O765 O 0.24109 0.22245 0.47820
 O766 O 0.27520 0.25781 0.52736
 O767 O 0.24748 0.28874 0.52425
 O768 O 0.21285 0.25301 0.47640
 O769 O 0.21202 0.25482 0.52527
 O770 O 0.24982 0.28511 0.47538
 Cu771 Cu 0.26130 0.23658 0.50316
 Cu772 Cu 0.22775 0.27351 0.50008
 C773 C 0.27038 0.27493 0.46848
 C774 C 0.21958 0.23413 0.53482
 C775 C 0.22108 0.23181 0.46892
 C776 C 0.26710 0.27935 0.53416
 O777 O 0.75088 0.78958 0.97693
 O778 O 0.78608 0.75419 1.02478
 O779 O 0.78655 0.75587 0.97593
 O780 O 0.74942 0.78655 1.02584
 O781 O 0.72098 0.75622 1.02323
 O782 O 0.75870 0.72491 0.97456
 O783 O 0.75764 0.72377 1.02359
 O784 O 0.72315 0.75861 0.97430
 Cu785 Cu 0.77102 0.77465 1.00104
 Cu786 Cu 0.73730 0.73779 0.99871
 C787 C 0.73118 0.78011 0.96725
 C788 C 0.77780 0.73309 1.03256
 C789 C 0.77889 0.73508 0.96676
 C790 C 0.72888 0.77656 1.03308
 O791 O 0.72634 0.26262 0.52684
 O792 O 0.76122 0.22781 0.47797
 O793 O 0.76117 0.22811 0.52713
 O794 O 0.72609 0.26208 0.47773
 O795 O 0.75517 0.29190 0.47756
 O796 O 0.79025 0.25792 0.52675
 O797 O 0.79033 0.25759 0.47792
 O798 O 0.75545 0.29241 0.52644
 Cu799 Cu 0.74078 0.24216 0.50243
 Cu800 Cu 0.77571 0.27793 0.50211
 C801 C 0.73502 0.28341 0.53505
 C802 C 0.78177 0.23680 0.46962
 C803 C 0.78165 0.23728 0.53544
 C804 C 0.73468 0.28279 0.46921
 O805 O 0.77918 0.24395 -0.02196
 O806 O 0.74178 0.21223 0.02710
 O807 O 0.74185 0.21229 -0.02233
 O808 O 0.77951 0.24331 0.02686
 O809 O 0.75270 0.27521 0.02716
 O810 O 0.71502 0.24414 -0.02196
 O811 O 0.71497 0.24411 0.02709
 O812 O 0.75232 0.27581 -0.02185
 Cu813 Cu 0.76318 0.22465 0.00237
 Cu814 Cu 0.73105 0.26300 0.00263
 C815 C 0.77208 0.26529 -0.03031
 C816 C 0.72219 0.22293 0.03572
 C817 C 0.72220 0.22305 -0.03076
 C818 C 0.77246 0.26453 0.03547
 O819 O 0.77877 0.74475 0.47367
 O820 O 0.74760 0.70777 0.52352
 O821 O 0.74615 0.70824 0.47450
 O822 O 0.78134 0.74343 0.52239
 O823 O 0.75066 0.77147 0.52474
 O824 O 0.71598 0.73691 0.47547
 O825 O 0.71692 0.73589 0.52475
 O826 O 0.74861 0.77338 0.47603
 Cu827 Cu 0.76648 0.72315 0.49837
 Cu828 Cu 0.72990 0.75718 0.50044
 C829 C 0.76903 0.76547 0.46646
 C830 C 0.72697 0.71566 0.53273
 C831 C 0.72529 0.71673 0.46648
 C832 C 0.77209 0.76341 0.53177
 O833 O 1.02677 0.28527 0.24870
 O834 O 0.97813 0.24828 0.28142
 O835 O 1.02732 0.24807 0.28066
 O836 O 0.97766 0.28500 0.24913
 O837 O 0.97729 0.25743 0.21802
 O838 O 1.02665 0.22044 0.24962
 O839 O 0.97787 0.22073 0.25029
 O840 O 1.02670 0.25756 0.21771
 Cu841 Cu 1.00253 0.26943 0.26810
 Cu842 Cu 1.00211 0.23636 0.23070
 C843 C 1.03520 0.27760 0.22774
 C844 C 0.96962 0.22825 0.27140
 C845 C 1.03541 0.22791 0.27053
 C846 C 0.96879 0.27731 0.22832
 O847 O 0.52478 0.27488 0.74079
 O848 O 0.47534 0.24017 0.77515
 O849 O 0.52457 0.24033 0.77559
 O850 O 0.47560 0.27508 0.74072
 O851 O 0.47593 0.24563 0.71137
 O852 O 0.52446 0.21077 0.74635
 O853 O 0.47568 0.21073 0.74581
 O854 O 0.52486 0.24531 0.71156
 Cu855 Cu 0.50006 0.26059 0.76102
 Cu856 Cu 0.50025 0.22517 0.72583
 C857 C 0.53329 0.26594 0.72033
 C858 C 0.46710 0.21948 0.76629
 C859 C 0.53283 0.21957 0.76692
 C860 C 0.46739 0.26624 0.72010
 O861 O -0.02448 0.28683 0.75735
 O862 O 0.02414 0.24938 0.72520
 O863 O -0.02497 0.24955 0.72569
 O864 O 0.02458 0.28679 0.75662
 O865 O 0.02505 0.25957 0.78810
 O866 O -0.02457 0.22228 0.75713
 O867 O 0.02430 0.22215 0.75668
 O868 O -0.02436 0.25949 0.78875
 Cu869 Cu -0.00022 0.27088 0.73805
 Cu870 Cu 0.00014 0.23822 0.77592
 C871 C -0.03289 0.27939 0.77844
 C872 C 0.03256 0.22942 0.73549
 C873 C -0.03327 0.22962 0.73612
 C874 C 0.03346 0.27939 0.77752
 O875 O 0.52703 0.24186 0.22574
 O876 O 0.47766 0.27973 0.25608
 O877 O 0.52640 0.27664 0.25993
 O878 O 0.47834 0.24475 0.22173
 O879 O 0.47395 0.21570 0.25123
 O880 O 0.52248 0.24749 0.28941
 O881 O 0.47350 0.25062 0.28555
 O882 O 0.52287 0.21254 0.25503
 Cu883 Cu 0.50273 0.26368 0.23794
 Cu884 Cu 0.49777 0.22865 0.27327
 C885 C 0.53347 0.22080 0.23524
 C886 C 0.46710 0.27165 0.27595
 C887 C 0.53282 0.26745 0.28104
 C888 C 0.46790 0.22480 0.22995
 O889 O 0.97339 0.75455 0.71323
 O890 O 1.02326 0.71718 0.74378
 O891 O 0.97420 0.71722 0.74499
 O892 O 1.02271 0.75478 0.71245
 O893 O 1.02295 0.78200 0.74386
 O894 O 0.97469 0.74444 0.77640
 O895 O 1.02389 0.74440 0.77520
 O896 O 0.97403 0.78168 0.74471
 Cu897 Cu 0.99832 0.73324 0.72541
 Cu898 Cu 0.99896 0.76580 0.76324
 C899 C 0.96509 0.77438 0.72381
 C900 C 1.03222 0.72456 0.76465
 C901 C 0.96606 0.72455 0.76621
 C902 C 1.03118 0.77474 0.72266
 O903 O 0.52453 0.79083 0.24653
 O904 O 0.47440 0.75308 0.27653
 O905 O 0.52321 0.75506 0.28015
 O906 O 0.47549 0.79015 0.24456
 O907 O 0.47732 0.76198 0.21406
 O908 O 0.52609 0.72715 0.24949
 O909 O 0.47729 0.72494 0.24606
 O910 O 0.52672 0.76287 0.21586
 Cu911 Cu 0.49919 0.77511 0.26498
 Cu912 Cu 0.50214 0.74150 0.22823
 C913 C 0.53427 0.78316 0.22610
 C914 C 0.46732 0.73253 0.26637
 C915 C 0.53285 0.73517 0.27098
 C916 C 0.46800 0.78199 0.22344
 O917 O 0.02380 0.73853 0.22205
 O918 O -0.02568 0.77220 0.25743
 O919 O 0.02350 0.77321 0.25670
 O920 O -0.02553 0.73785 0.22250
 O921 O -0.02465 0.70813 0.25164
 O922 O 0.02408 0.74351 0.28587
 O923 O -0.02468 0.74243 0.28651
 O924 O 0.02434 0.70882 0.25121
 Cu925 Cu -0.00105 0.75841 0.23670
 Cu926 Cu -0.00011 0.72273 0.27169
 C927 C 0.03254 0.71792 0.23068
 C928 C -0.03358 0.76302 0.27806
 C929 C 0.03206 0.76441 0.27722
 C930 C -0.03355 0.71703 0.23132
 O931 O 0.52403 0.75211 0.71811
 O932 O 0.47476 0.78424 0.75481
 O933 O 0.52413 0.78373 0.75536
 O934 O 0.47507 0.75274 0.71750
 O935 O 0.47423 0.72102 0.74449
 O936 O 0.52342 0.75193 0.78226
 O937 O 0.47444 0.75256 0.78185
 O938 O 0.52342 0.72034 0.74505
 Cu939 Cu 0.49956 0.77146 0.73380
 Cu940 Cu 0.49879 0.73325 0.76609
 C941 C 0.53220 0.73077 0.72540
 C942 C 0.46611 0.77382 0.77453
 C943 C 0.53231 0.77303 0.77513
 C944 C 0.46619 0.73163 0.72461
 C945 C 0.40969 0.31173 0.30930
 C946 C 0.42246 0.32593 0.28730
 C947 C 0.44146 0.31279 0.27618
 C948 C 0.44637 0.28672 0.28804
 C949 C 0.45083 0.29231 0.31601
 C950 C 0.43174 0.30541 0.32710
 C951 C 0.40181 0.28617 0.29805
 C952 C 0.42089 0.27315 0.28705
 H953 H 0.41869 0.34525 0.28180
 H954 H 0.45280 0.32090 0.26124
 H955 H 0.46777 0.28688 0.32609
 H956 H 0.43251 0.31122 0.34664
 H957 H 0.38268 0.27893 0.29864
 H958 H 0.41805 0.25484 0.27839
 C959 C 0.40786 0.80854 0.81221
 C960 C 0.43025 0.82617 0.80614
 C961 C 0.44960 0.81466 0.79384
 C962 C 0.44513 0.78646 0.78875
 C963 C 0.43953 0.77513 0.81478
 C964 C 0.42028 0.78667 0.82716
 C965 C 0.40065 0.79663 0.78680
 C966 C 0.42003 0.78525 0.77461
 H967 H 0.43111 0.84590 0.81163
 H968 H 0.46678 0.82458 0.78879
 H969 H 0.45080 0.76044 0.82353
 H970 H 0.41640 0.78175 0.84652
 H971 H 0.38169 0.79693 0.77911
 H972 H 0.41762 0.77594 0.75659
 C973 C -0.09154 0.31643 0.81306
 C974 C -0.06901 0.31069 0.83052
 C975 C -0.04950 0.29866 0.81901
 C976 C -0.05398 0.29349 0.79098
 C977 C -0.07884 0.27886 0.78983
 C978 C -0.09838 0.29079 0.80119
 C979 C -0.07948 0.33167 0.79124
 C980 C -0.06003 0.31955 0.77971
 H981 H -0.06820 0.31622 0.85015
 H982 H -0.03222 0.29387 0.82883
 H983 H -0.08100 0.26075 0.78050
 H984 H -0.11721 0.28277 0.80146
 H985 H -0.08386 0.35098 0.78621
 H986 H -0.04903 0.32846 0.76497
 C987 C -0.09014 0.79989 0.31624
 C988 C -0.06717 0.81666 0.31011
 C989 C -0.04838 0.80444 0.29758
 C990 C -0.05404 0.77647 0.29234
 C991 C -0.05995 0.76522 0.31835
 C992 C -0.07860 0.77747 0.33092
 C993 C -0.09807 0.78861 0.29081
 C994 C -0.07929 0.77647 0.27838
 H995 H -0.06556 0.83631 0.31570
 H996 H -0.03088 0.81369 0.29239
 H997 H -0.04931 0.74998 0.32697
 H998 H -0.08273 0.77270 0.35027
 H999 H -0.11701 0.79003 0.28324
 H1000 H -0.08219 0.76764 0.26023
 C1001 C 0.58792 0.69646 0.30963
 C1002 C 0.56481 0.68029 0.30260
 C1003 C 0.54653 0.69314 0.28993
 C1004 C 0.55279 0.72111 0.28545
 C1005 C 0.55834 0.73162 0.31184
 C1006 C 0.57654 0.71875 0.32453
 C1007 C 0.59662 0.70828 0.28465
 C1008 C 0.57833 0.72104 0.27207
 H1009 H 0.56278 0.66050 0.30762
 H1010 H 0.52902 0.68432 0.28408
 H1011 H 0.54802 0.74707 0.32041
 H1012 H 0.58070 0.72338 0.34389
 H1013 H 0.61571 0.70679 0.27750
 H1014 H 0.58180 0.73029 0.25420
 C1015 C 0.58952 0.18266 0.80487
 C1016 C 0.59763 0.20712 0.79154
 C1017 C 0.57877 0.21912 0.77908
 C1018 C 0.55326 0.20571 0.78084
 C1019 C 0.55825 0.17868 0.77151
 C1020 C 0.57698 0.16656 0.78412
 C1021 C 0.56721 0.19052 0.82170
 C1022 C 0.54831 0.20261 0.80915
 H1023 H 0.61676 0.21439 0.79184
 H1024 H 0.58178 0.23657 0.76881
 H1025 H 0.54687 0.16916 0.75746
 H1026 H 0.58048 0.14666 0.78093
 H1027 H 0.56602 0.18631 0.84163
 H1028 H 0.53117 0.20880 0.81840
 C1029 C 1.09059 0.68693 0.79922
 C1030 C 1.08097 0.67355 0.77523
 C1031 C 1.06158 0.68581 0.76363
 C1032 C 1.05336 0.71025 0.77694
 C1033 C 1.04744 0.70202 0.80396
 C1034 C 1.06679 0.68982 0.81555
 C1035 C 1.09685 0.71393 0.79040
 C1036 C 1.07747 0.72607 0.77888
 H1037 H 1.08780 0.65574 0.76800
 H1038 H 1.05262 0.67838 0.74685
 H1039 H 1.02939 0.70509 0.81304
 H1040 H 1.06516 0.68243 0.83452
 H1041 H 1.11521 0.72266 0.79272
 H1042 H 1.07929 0.74510 0.77145
 C1043 C 1.09234 0.18851 0.30577
 C1044 C 1.10015 0.21436 0.29490
 C1045 C 1.08124 0.22716 0.28330
 C1046 C 1.05600 0.21314 0.28327
 C1047 C 1.06178 0.18729 0.27145
 C1048 C 1.08055 0.17431 0.28318
 C1049 C 1.06943 0.19427 0.32271
 C1050 C 1.05058 0.20717 0.31099
 H1051 H 1.11914 0.22190 0.29604
 H1052 H 1.08408 0.24553 0.27465
 H1053 H 1.05101 0.17908 0.25615
 H1054 H 1.08451 0.15503 0.27776
 H1055 H 1.06789 0.18814 0.34214
 H1056 H 1.03314 0.21211 0.32044
 C1057 C 0.59052 0.30409 0.68441
 C1058 C 0.59738 0.29357 0.71052
 C1059 C 0.57836 0.28102 0.72217
 C1060 C 0.55400 0.27976 0.70678
 C1061 C 0.54762 0.30734 0.70051
 C1062 C 0.56663 0.32003 0.68881
 C1063 C 0.58086 0.28082 0.66972
 C1064 C 0.56189 0.26816 0.68148
 H1065 H 0.61580 0.29576 0.71912
 H1066 H 0.58051 0.27270 0.74069
 H1067 H 0.52954 0.31603 0.70454
 H1068 H 0.56470 0.33955 0.68281
 H1069 H 0.58709 0.27498 0.65128
 H1070 H 0.55284 0.25187 0.67301
 C1071 C 0.59340 0.82082 0.19266
 C1072 C 0.59997 0.79477 0.20379
 C1073 C 0.58032 0.78269 0.21481
 C1074 C 0.55557 0.79753 0.21408
 C1075 C 0.56185 0.82318 0.22606
 C1076 C 0.58142 0.83549 0.21486
 C1077 C 0.57083 0.81584 0.17503
 C1078 C 0.55120 0.80362 0.18619
 H1079 H 0.61870 0.78652 0.20316
 H1080 H 0.58228 0.76421 0.22343
 H1081 H 0.55085 0.83178 0.24097
 H1082 H 0.58586 0.85470 0.22022
 H1083 H 0.57006 0.82203 0.15558
 H1084 H 0.53387 0.79931 0.17624
 C1085 C 1.09364 0.31463 0.19261
 C1086 C 1.07097 0.30895 0.17533
 C1087 C 1.05154 0.29690 0.18699
 C1088 C 1.05622 0.29166 0.21499
 C1089 C 1.08108 0.27702 0.21596
 C1090 C 1.10054 0.28896 0.20444
 C1091 C 1.08176 0.32984 0.21449
 C1092 C 1.06240 0.31770 0.22618
 H1093 H 1.06999 0.31454 0.15570
 H1094 H 1.03417 0.29214 0.17732
 H1095 H 1.08328 0.25886 0.22523
 H1096 H 1.11936 0.28091 0.20398
 H1097 H 1.08612 0.34919 0.21936
 H1098 H 1.05148 0.32664 0.24095
 C1099 C 1.08859 0.81337 0.68744
 C1100 C 1.07642 0.82814 0.70945
 C1101 C 1.05743 0.81545 0.72116
 C1102 C 1.05185 0.78932 0.70985
 C1103 C 1.04690 0.79461 0.68190
 C1104 C 1.06598 0.80722 0.67022
 C1105 C 1.09618 0.78780 0.69907
 C1106 C 1.07706 0.77530 0.71062
 H1107 H 1.08027 0.84759 0.71437
 H1108 H 1.04634 0.82405 0.73599
 H1109 H 1.02961 0.78948 0.67228
 H1110 H 1.06477 0.81291 0.65064
 H1111 H 1.11518 0.78023 0.69846
 H1112 H 1.07975 0.75715 0.71978
 C1113 C 0.40910 0.69675 0.68542
 C1114 C 0.43270 0.68027 0.68931
 C1115 C 0.45165 0.69193 0.70206
 C1116 C 0.44552 0.71915 0.70983
 C1117 C 0.43823 0.73244 0.68515
 C1118 C 0.41928 0.72081 0.67234
 C1119 C 0.40189 0.70574 0.71198
 C1120 C 0.42085 0.71731 0.72469
 H1121 H 0.43451 0.66113 0.68221
 H1122 H 0.46954 0.68274 0.70588
 H1123 H 0.44745 0.74928 0.67799
 H1124 H 0.41310 0.72816 0.65440
 H1125 H 0.38322 0.70347 0.72000
 H1126 H 0.41838 0.72484 0.74350
 C1127 C 0.41191 0.18945 0.18947
 C1128 C 0.42542 0.21082 0.17477
 C1129 C 0.44390 0.22262 0.18807
 C1130 C 0.44771 0.21200 0.21473
 C1131 C 0.42175 0.21370 0.22713
 C1132 C 0.40313 0.20208 0.21401
 C1133 C 0.43375 0.17189 0.19746
 C1134 C 0.45231 0.18365 0.21071
 H1135 H 0.42285 0.21511 0.15504
 H1136 H 0.45582 0.23699 0.17966
 H1137 H 0.41824 0.22341 0.24473
 H1138 H 0.38373 0.20201 0.22048
 H1139 H 0.43487 0.15203 0.19252
 H1140 H 0.46906 0.17381 0.21713
 C1141 C -0.09109 0.68067 0.19406
 C1142 C -0.08042 0.66548 0.21653
 C1143 C -0.06136 0.67737 0.22891
 C1144 C -0.05433 0.70328 0.21780
 C1145 C -0.04861 0.69786 0.19004
 C1146 C -0.06774 0.68602 0.17766
 C1147 C -0.09816 0.70647 0.20532
 C1148 C -0.07904 0.71824 0.21759
 H1149 H -0.08580 0.64646 0.22173
 H1150 H -0.05148 0.66850 0.24446
 H1151 H -0.03086 0.70249 0.18101
 H1152 H -0.06622 0.68051 0.15808
 H1153 H -0.11681 0.71477 0.20385
 H1154 H -0.08135 0.73654 0.22642
 C1155 C -0.09039 0.19103 0.70060
 C1156 C -0.06645 0.19453 0.68462
 C1157 C -0.04752 0.20706 0.69651
 C1158 C -0.05399 0.21504 0.72346
 C1159 C -0.07839 0.23035 0.72119
 C1160 C -0.09735 0.21786 0.70938
 C1161 C -0.08085 0.17778 0.72475
 C1162 C -0.06189 0.19038 0.73662
 H1163 H -0.06444 0.18733 0.66563
 H1164 H -0.02942 0.21059 0.68768
 H1165 H -0.08070 0.24931 0.72863
 H1166 H -0.11586 0.22619 0.70682
 H1167 H -0.08761 0.15998 0.73212
 H1168 H -0.05317 0.18317 0.75363
 C1169 C 0.30728 0.40995 0.31247
 C1170 C 0.28453 0.42220 0.32589
 C1171 C 0.27362 0.44129 0.31264
 C1172 C 0.28636 0.44679 0.28725
 C1173 C 0.31408 0.45161 0.29394
 C1174 C 0.32499 0.43243 0.30713
 C1175 C 0.29705 0.40227 0.28651
 C1176 C 0.28624 0.42144 0.27338
 H1177 H 0.27824 0.41794 0.34476
 H1178 H 0.25815 0.45228 0.32026
 H1179 H 0.32413 0.46883 0.28914
 H1180 H 0.34435 0.43338 0.31365
 H1181 H 0.29807 0.38317 0.27915
 H1182 H 0.27807 0.41873 0.25486
 C1183 C 0.31217 -0.09001 0.80261
 C1184 C 0.30405 -0.06771 0.81947
 C1185 C 0.29132 -0.04911 0.80710
 C1186 C 0.28796 -0.05413 0.77888
 C1187 C 0.31490 -0.05850 0.76915
 C1188 C 0.32765 -0.07700 0.78158
 C1189 C 0.28778 -0.09869 0.78955
 C1190 C 0.27520 -0.08003 0.77729
 H1191 H 0.30858 -0.06627 0.83932
 H1192 H 0.28490 -0.03204 0.81641
 H1193 H 0.32393 -0.04684 0.75498
 H1194 H 0.34754 -0.07982 0.77808
 H1195 H 0.28100 -0.11805 0.78981
 H1196 H 0.25777 -0.08346 0.76721
 C1197 C 0.80393 0.40883 0.82233
 C1198 C 0.82079 0.43163 0.81546
 C1199 C 0.80842 0.45073 0.80347
 C1200 C 0.78022 0.44564 0.79954
 C1201 C 0.77897 0.42037 0.78562
 C1202 C 0.79121 0.40123 0.79746
 C1203 C 0.78259 0.42095 0.83808
 C1204 C 0.77016 0.43994 0.82606
 H1205 H 0.84061 0.43301 0.82032
 H1206 H 0.81771 0.46817 0.79800
 H1207 H 0.76911 0.41768 0.76796
 H1208 H 0.79170 0.38222 0.78981
 H1209 H 0.77892 0.41718 0.85776
 H1210 H 0.75581 0.45109 0.83541
 C1211 C 0.81836 -0.09288 0.31342
 C1212 C 0.80971 -0.07171 0.33147
 C1213 C 0.79792 -0.05201 0.31987
 C1214 C 0.79596 -0.05490 0.29123
 C1215 C 0.82331 -0.05903 0.28258
 C1216 C 0.83512 -0.07864 0.29425
 C1217 C 0.79457 -0.10011 0.29856
 C1218 C 0.78294 -0.08038 0.28710
 H1219 H 0.81332 -0.07178 0.35156
 H1220 H 0.79133 -0.03553 0.33006
 H1221 H 0.83324 -0.04648 0.26983
 H1222 H 0.85513 -0.08162 0.29164
 H1223 H 0.78749 -0.11931 0.29705
 H1224 H 0.76603 -0.08275 0.27589
 C1225 C 0.31616 0.59010 0.69300
 C1226 C 0.33273 0.57740 0.71328
 C1227 C 0.32087 0.55871 0.72627
 C1228 C 0.29360 0.55393 0.71773
 C1229 C 0.28052 0.57963 0.71985
 C1230 C 0.29226 0.59845 0.70701
 C1231 C 0.30760 0.56777 0.67645
 C1232 C 0.29577 0.54893 0.68937
 H1233 H 0.35268 0.58080 0.71590
 H1234 H 0.33070 0.54723 0.74006
 H1235 H 0.26351 0.58282 0.73070
 H1236 H 0.28521 0.61771 0.70692
 H1237 H 0.31123 0.56650 0.65641
 H1238 H 0.28919 0.53177 0.68034
 C1239 C 0.31518 1.08874 0.19542
 C1240 C 0.32908 1.07603 0.21773
 C1241 C 0.31540 1.05772 0.22950
 C1242 C 0.28922 1.05329 0.21792
 C1243 C 0.27649 1.07925 0.21823
 C1244 C 0.28997 1.09768 0.20661
 C1245 C 0.30818 1.06620 0.17837
 C1246 C 0.29455 1.04784 0.19009
 H1247 H 0.34861 1.07900 0.22276
 H1248 H 0.32326 1.04635 0.24457
 H1249 H 0.25841 1.08290 0.22700
 H1250 H 0.28332 1.11706 0.20561
 H1251 H 0.31406 1.06447 0.15891
 H1252 H 0.28873 1.03066 0.18060
 C1253 C 0.80305 0.58858 0.18090
 C1254 C 0.78114 0.57719 0.16533
 C1255 C 0.76838 0.55841 0.17737
 C1256 C 0.77867 0.55222 0.20369
 C1257 C 0.80667 0.54644 0.19935
 C1258 C 0.81938 0.56531 0.18737
 C1259 C 0.79084 0.59631 0.20598
 C1260 C 0.77826 0.57740 0.21782
 H1261 H 0.77713 0.58130 0.14580
 H1262 H 0.75351 0.54779 0.16818
 H1263 H 0.81558 0.52874 0.20460
 H1264 H 0.83911 0.56350 0.18232
 H1265 H 0.79190 0.61524 0.21376
 H1266 H 0.76872 0.58020 0.23563
 C1267 C 0.80774 1.09287 0.68582
 C1268 C 0.82494 1.07008 0.69157
 C1269 C 0.81298 1.05039 0.70303
 C1270 C 0.78482 1.05506 0.70773
 C1271 C 0.78369 1.07980 0.72262
 C1272 C 0.79554 1.09947 0.71121
 C1273 C 0.78610 1.08131 0.67015
 C1274 C 0.77413 1.06173 0.68167
 H1275 H 0.84474 1.06932 0.68656
 H1276 H 0.82258 1.03293 0.70786
 H1277 H 0.77417 1.08174 0.74057
 H1278 H 0.79605 1.11821 0.71947
 H1279 H 0.78139 1.08631 0.65100
 H1280 H 0.75936 1.05109 0.67235
 C1281 C 0.68061 0.58934 0.30033
 C1282 C 0.66605 0.57871 0.27749
 C1283 C 0.67833 0.55984 0.26522
 C1284 C 0.70396 0.55289 0.27683
 C1285 C 0.71869 0.57777 0.27756
 C1286 C 0.70655 0.59674 0.28972
 C1287 C 0.68572 0.56580 0.31667
 C1288 C 0.69796 0.54683 0.30442
 H1289 H 0.64705 0.58378 0.27216
 H1290 H 0.66984 0.54989 0.24953
 H1291 H 0.73714 0.58030 0.26917
 H1292 H 0.71465 0.61548 0.29158
 H1293 H 0.67973 0.56401 0.33610
 H1294 H 0.70247 0.52897 0.31341
 C1295 C 0.69479 1.09006 0.81109
 C1296 C 0.67775 1.06704 0.80573
 C1297 C 0.68911 1.04832 0.79241
 C1298 C 0.71665 1.05390 0.78569
 C1299 C 0.71613 1.07934 0.77192
 C1300 C 0.70488 1.09815 0.78512
 C1301 C 0.71797 1.07831 0.82444
 C1302 C 0.72934 1.05957 0.81107
 H1303 H 0.65848 1.06536 0.81238
 H1304 H 0.67955 1.03083 0.78765
 H1305 H 0.72430 1.08240 0.75346
 H1306 H 0.70356 1.11728 0.77784
 H1307 H 0.72442 1.08268 0.84322
 H1308 H 0.74524 1.04905 0.81849
 C1309 C 0.19687 0.59462 0.81222
 C1310 C 0.22274 0.58834 0.82425
 C1311 C 0.23490 0.56861 0.81328
 C1312 C 0.22063 0.55689 0.79103
 C1313 C 0.19474 0.54979 0.80166
 C1314 C 0.18238 0.56939 0.81271
 C1315 C 0.20342 0.59888 0.78426
 C1316 C 0.21563 0.57920 0.77325
 H1317 H 0.23228 0.59932 0.83850
 H1318 H 0.25370 0.56300 0.81904
 H1319 H 0.18688 0.53087 0.80078
 H1320 H 0.16395 0.56708 0.82128
 H1321 H 0.19927 0.61618 0.77406
 H1322 H 0.22161 0.57968 0.75375
 C1323 C 0.19292 1.09192 0.31535
 C1324 C 0.21465 1.07909 0.33010
 C1325 C 0.22604 1.05988 0.31740
 C1326 C 0.21471 1.05480 0.29128
 C1327 C 0.18658 1.05044 0.29629
 C1328 C 0.17523 1.06967 0.30892
 C1329 C 0.20489 1.09953 0.29009
 C1330 C 0.21611 1.08024 0.27759
 H1331 H 0.21974 1.08286 0.34942
 H1332 H 0.24076 1.04846 0.32586
 H1333 H 0.17658 1.03337 0.29095
 H1334 H 0.15555 1.06883 0.31442
 H1335 H 0.20474 1.11867 0.28270
 H1336 H 0.22538 1.08293 0.25961
 C1337 C 0.68375 0.40989 0.70041
 C1338 C 0.68841 0.43410 0.68497
 C1339 C 0.70036 0.45279 0.69790
 C1340 C 0.70658 0.44581 0.72523
 C1341 C 0.68115 0.43798 0.73667
 C1342 C 0.66914 0.41934 0.72375
 C1343 C 0.70983 0.40252 0.71070
 C1344 C 0.72172 0.42122 0.72353
 H1345 H 0.68239 0.43649 0.66561
 H1346 H 0.70457 0.47104 0.68956
 H1347 H 0.67275 0.44693 0.75298
 H1348 H 0.65050 0.41333 0.72935
 H1349 H 0.71822 0.38399 0.70819
 H1350 H 0.74022 0.41868 0.73181
 C1351 C 0.70169 -0.08914 0.19014
 C1352 C 0.72619 -0.07946 0.17763
 C1353 C 0.73815 -0.06103 0.19089
 C1354 C 0.72471 -0.05367 0.21540
 C1355 C 0.69791 -0.04657 0.20720
 C1356 C 0.68592 -0.06502 0.19400
 C1357 C 0.70993 -0.09702 0.21676
 C1358 C 0.72182 -0.07854 0.22991
 H1359 H 0.73355 -0.08545 0.15965
 H1360 H 0.75529 -0.05215 0.18412
 H1361 H 0.68925 -0.02841 0.21108
 H1362 H 0.66703 -0.06253 0.18658
 H1363 H 0.70677 -0.11571 0.22458
 H1364 H 0.72862 -0.08143 0.24893
 C1365 C 0.19918 0.40753 0.18427
 C1366 C 0.20813 0.40136 0.21111
 C1367 C 0.21945 0.42095 0.22313
 C1368 C 0.22108 0.44515 0.20737
 C1369 C 0.23446 0.43710 0.18302
 C1370 C 0.22307 0.41754 0.17088
 C1371 C 0.18250 0.43117 0.18718
 C1372 C 0.19390 0.45075 0.19926
 H1373 H 0.20599 0.38293 0.21984
 H1374 H 0.22690 0.41923 0.24207
 H1375 H 0.25104 0.44640 0.17548
 H1376 H 0.23028 0.41100 0.15304
 H1377 H 0.16344 0.43254 0.17992
 H1378 H 0.18457 0.46873 0.20235
 C1379 C 0.19251 -0.09162 0.67984
 C1380 C 0.20281 -0.09895 0.70588
 C1381 C 0.21447 -0.07983 0.71827
 C1382 C 0.21507 -0.05486 0.70366
 C1383 C 0.22731 -0.06147 0.67833
 C1384 C 0.21555 -0.08054 0.66579
 C1385 C 0.17568 -0.06841 0.68470
 C1386 C 0.18743 -0.04928 0.69715
 H1387 H 0.20117 -0.11777 0.71386
 H1388 H 0.22264 -0.08231 0.73680
 H1389 H 0.24317 -0.05133 0.67032
 H1390 H 0.22158 -0.08566 0.64707
 H1391 H 0.15628 -0.06697 0.67841
 H1392 H 0.17806 -0.03160 0.70154
 C1393 C 0.31069 0.30758 0.41082
 C1394 C 0.28472 0.29714 0.40321
 C1395 C 0.27160 0.28638 0.42237
 C1396 C 0.28547 0.28679 0.44763
 C1397 C 0.31098 0.27407 0.44233
 C1398 C 0.32422 0.28491 0.42325
 C1399 C 0.30524 0.32550 0.43299
 C1400 C 0.29204 0.31466 0.45214
 H1401 H 0.27735 0.29798 0.38420
 H1402 H 0.25305 0.27815 0.41972
 H1403 H 0.31863 0.25859 0.45335
 H1404 H 0.34309 0.27853 0.41900
 H1405 H 0.31167 0.34495 0.43376
 H1406 H 0.28715 0.32487 0.46914
 C1407 C 0.30435 0.81615 -0.09285
 C1408 C 0.29105 0.79164 -0.10084
 C1409 C 0.27883 0.77954 -0.08190
 C1410 C 0.28077 0.79290 -0.05645
 C1411 C 0.30914 0.79611 -0.05177
 C1412 C 0.32145 0.80832 -0.07072
 C1413 C 0.28355 0.83212 -0.08019
 C1414 C 0.27119 0.81989 -0.06136
 H1415 H 0.29119 0.78443 -0.11993
 H1416 H 0.26861 0.76205 -0.08484
 H1417 H 0.31862 0.78988 -0.03478
 H1418 H 0.34142 0.81260 -0.06973
 H1419 H 0.28005 0.85195 -0.08378
 H1420 H 0.25707 0.82929 -0.04998
 C1421 C 0.81086 0.30143 -0.08692
 C1422 C 0.78412 0.29269 -0.09404
 C1423 C 0.77154 0.28070 -0.07524
 C1424 C 0.78670 0.27821 -0.05083
 C1425 C 0.81127 0.26502 -0.05867
 C1426 C 0.82394 0.27706 -0.07745
 C1427 C 0.80730 0.31734 -0.06296
 C1428 C 0.79470 0.30526 -0.04418
 H1429 H 0.77589 0.29541 -0.11253
 H1430 H 0.75264 0.27325 -0.07768
 H1431 H 0.81837 0.24784 -0.05005
 H1432 H 0.84165 0.26961 -0.08416
 H1433 H 0.81449 0.33642 -0.06082
 H1434 H 0.79112 0.31403 -0.02610
 C1435 C 0.80442 0.80569 0.41038
 C1436 C 0.79425 0.77969 0.40228
 C1437 C 0.78253 0.76658 0.42089
 C1438 C 0.78177 0.78051 0.44611
 C1439 C 0.80931 0.78699 0.45203
 C1440 C 0.82111 0.80014 0.43344
 C1441 C 0.78122 0.81933 0.42155
 C1442 C 0.76944 0.80612 0.44011
 H1443 H 0.79590 0.77234 0.38331
 H1444 H 0.77425 0.74807 0.41784
 H1445 H 0.81863 0.78202 0.46952
 H1446 H 0.84050 0.80644 0.43516
 H1447 H 0.77465 0.83798 0.41646
 H1448 H 0.75322 0.81365 0.44999
 C1449 C 0.69688 0.31937 0.59213
 C1450 C 0.68087 0.31451 0.56843
 C1451 C 0.69354 0.30280 0.54946
 C1452 C 0.72119 0.29703 0.55568
 C1453 C 0.73240 0.32273 0.56323
 C1454 C 0.71972 0.33449 0.58213
 C1455 C 0.70780 0.29336 0.59910
 C1456 C 0.72036 0.28173 0.58013
 H1457 H 0.66133 0.32027 0.56656
 H1458 H 0.68481 0.29851 0.53151
 H1459 H 0.74824 0.33158 0.55379
 H1460 H 0.72493 0.35339 0.58783
 H1461 H 0.70585 0.28481 0.61756
 H1462 H 0.72896 0.26329 0.58239
 C1463 C 0.69029 0.81026 1.09115
 C1464 C 0.71623 0.79941 1.09831
 C1465 C 0.72873 0.78827 1.07900
 C1466 C 0.71430 0.78870 1.05406
 C1467 C 0.68873 0.77642 1.06009
 C1468 C 0.67612 0.78764 1.07938
 C1469 C 0.69554 0.82786 1.06864
 C1470 C 0.70810 0.81663 1.04934
 H1471 H 0.72399 0.80015 1.11718
 H1472 H 0.74711 0.77959 1.08138
 H1473 H 0.68079 0.76069 1.04970
 H1474 H 0.65753 0.78117 1.08461
 H1475 H 0.68945 0.84742 1.06779
 H1476 H 0.71277 0.82660 1.03212
 C1477 C 0.18998 0.30055 1.09134
 C1478 C 0.17691 0.27609 1.08214
 C1479 C 0.18935 0.26414 1.06319
 C1480 C 0.21371 0.27750 1.05494
 C1481 C 0.20546 0.30450 1.04835
 C1482 C 0.19308 0.31650 1.06730
 C1483 C 0.21687 0.29199 1.09807
 C1484 C 0.22922 0.28010 1.07911
 H1485 H 0.15943 0.26843 1.08924
 H1486 H 0.18228 0.24686 1.05481
 H1487 H 0.20875 0.31330 1.03020
 H1488 H 0.18577 0.33555 1.06524
 H1489 H 0.22543 0.29490 1.11637
 H1490 H 0.24831 0.27308 1.08120
 C1491 C 0.18476 0.80322 0.58547
 C1492 C 0.21083 0.79334 0.59343
 C1493 C 0.22388 0.78175 0.57479
 C1494 C 0.20984 0.78080 0.54965
 C1495 C 0.18449 0.76811 0.55578
 C1496 C 0.17130 0.77981 0.57441
 C1497 C 0.18988 0.82003 0.56235
 C1498 C 0.20302 0.80835 0.54372
 H1499 H 0.21833 0.79515 0.61234
 H1500 H 0.24248 0.77382 0.57777
 H1501 H 0.17707 0.75185 0.54582
 H1502 H 0.15268 0.77328 0.57948
 H1503 H 0.18328 0.83936 0.56059
 H1504 H 0.20767 0.81771 0.52616
 C1505 C 0.30738 0.68496 0.58739
 C1506 C 0.28549 0.66996 0.57533
 C1507 C 0.27381 0.68238 0.55613
 C1508 C 0.28504 0.70856 0.55041
 C1509 C 0.28403 0.72272 0.57550
 C1510 C 0.29559 0.71044 0.59472
 C1511 C 0.32477 0.69111 0.56499
 C1512 C 0.31312 0.70349 0.54576
 H1513 H 0.28029 0.65073 0.57992
 H1514 H 0.25875 0.67376 0.54532
 H1515 H 0.27485 0.74085 0.57799
 H1516 H 0.29615 0.71813 0.61362
 H1517 H 0.34447 0.68570 0.56412
 H1518 H 0.32289 0.70870 0.52859
 C1519 C 0.31215 0.18211 1.09047
 C1520 C 0.32979 0.19133 1.06931
 C1521 C 0.31772 0.20353 1.05018
 C1522 C 0.28906 0.20535 1.05374
 C1523 C 0.28053 0.17782 1.05749
 C1524 C 0.29267 0.16561 1.07648
 C1525 C 0.29747 0.20576 1.09855
 C1526 C 0.28549 0.21785 1.07945
 H1527 H 0.34994 0.18790 1.06899
 H1528 H 0.32758 0.21062 1.03375
 H1529 H 0.26739 0.16812 1.04520
 H1530 H 0.29003 0.14552 1.07938
 H1531 H 0.29650 0.21240 1.11783
 H1532 H 0.27433 0.23474 1.08243
 C1533 C 0.81438 0.69509 1.08946
 C1534 C 0.78853 0.70607 1.09669
 C1535 C 0.77664 0.71857 1.07778
 C1536 C 0.79155 0.71926 1.05313
 C1537 C 0.81726 0.73057 1.06028
 C1538 C 0.82926 0.71798 1.07911
 C1539 C 0.80919 0.67891 1.06595
 C1540 C 0.79725 0.69150 1.04703
 H1541 H 0.78035 0.70432 1.11532
 H1542 H 0.75837 0.72744 1.08025
 H1543 H 0.82593 0.74643 1.05064
 H1544 H 0.84815 0.72335 1.08454
 H1545 H 0.81490 0.65929 1.06415
 H1546 H 0.79271 0.68264 1.02921
 C1547 C 0.81805 0.20018 0.59307
 C1548 C 0.81301 0.18362 0.56978
 C1549 C 0.80114 0.19594 0.55062
 C1550 C 0.79540 0.22380 0.55626
 C1551 C 0.78039 0.22342 0.58086
 C1552 C 0.79217 0.21121 0.60000
 C1553 C 0.83300 0.22288 0.58241
 C1554 C 0.82107 0.23521 0.56335
 H1555 H 0.81878 0.16400 0.56829
 H1556 H 0.79672 0.18681 0.53289
 H1557 H 0.76201 0.23208 0.58307
 H1558 H 0.78382 0.20958 0.61856
 H1559 H 0.85203 0.22802 0.58759
 H1560 H 0.82988 0.25077 0.55336
 C1561 C 0.68914 0.68141 0.40775
 C1562 C 0.71046 0.66545 0.41962
 C1563 C 0.72240 0.67702 0.43909
 C1564 C 0.71199 0.70339 0.44535
 C1565 C 0.71356 0.71817 0.42061
 C1566 C 0.70173 0.70673 0.40105
 C1567 C 0.67181 0.68755 0.43019
 C1568 C 0.68373 0.69906 0.44978
 H1569 H 0.71483 0.64606 0.41494
 H1570 H 0.73690 0.66752 0.44996
 H1571 H 0.72335 0.73608 0.41859
 H1572 H 0.70150 0.71490 0.38232
 H1573 H 0.65195 0.68273 0.43083
 H1574 H 0.67404 0.70413 0.46701
 C1575 C 0.68484 0.19000 -0.09009
 C1576 C 0.68918 0.17221 -0.06753
 C1577 C 0.70129 0.18318 -0.04777
 C1578 C 0.70803 0.21106 -0.05215
 C1579 C 0.72320 0.21138 -0.07665
 C1580 C 0.71113 0.20051 -0.09639
 C1581 C 0.67065 0.21275 -0.07858
 C1582 C 0.68284 0.22371 -0.05888
 H1583 H 0.68282 0.15272 -0.06698
 H1584 H 0.70531 0.17307 -0.03046
 H1585 H 0.74177 0.21980 -0.07843
 H1586 H 0.71946 0.19971 -0.11501
 H1587 H 0.65220 0.21937 -0.08412
 H1588 H 0.67473 0.23937 -0.04852
 C1589 C 0.18229 0.69767 -0.09366
 C1590 C 0.18588 0.68137 -0.06992
 C1591 C 0.19795 0.69340 -0.05078
 C1592 C 0.20536 0.72077 -0.05690
 C1593 C 0.22087 0.71909 -0.08112
 C1594 C 0.20887 0.70718 -0.10025
 C1595 C 0.16842 0.72147 -0.08396
 C1596 C 0.18057 0.73350 -0.06483
 H1597 H 0.17905 0.66211 -0.06816
 H1598 H 0.20147 0.68441 -0.03276
 H1599 H 0.23974 0.72670 -0.08311
 H1600 H 0.21751 0.70483 -0.11859
 H1601 H 0.15024 0.72810 -0.09034
 H1602 H 0.17275 0.75008 -0.05574
 C1603 C 0.18489 0.19495 0.41117
 C1604 C 0.20971 0.20797 0.40377
 C1605 C 0.22150 0.22000 0.42300
 C1606 C 0.20754 0.21816 0.44814
 C1607 C 0.18088 0.22814 0.44265
 C1608 C 0.16897 0.21598 0.42355
 C1609 C 0.19196 0.17760 0.43342
 C1610 C 0.20383 0.18973 0.45269
 H1611 H 0.21735 0.20778 0.38484
 H1612 H 0.23919 0.22999 0.42052
 H1613 H 0.17140 0.24230 0.45395
 H1614 H 0.14930 0.21970 0.41966
 H1615 H 0.18743 0.15762 0.43424
 H1616 H 0.20951 0.18008 0.46979
 C1617 C 0.31681 0.41037 0.69660
 C1618 C 0.33166 0.42082 0.71936
 C1619 C 0.31962 0.43975 0.73181
 C1620 C 0.29393 0.44690 0.72050
 C1621 C 0.29967 0.45299 0.69285
 C1622 C 0.31164 0.43399 0.68040
 C1623 C 0.29095 0.40309 0.70749
 C1624 C 0.27904 0.42210 0.71985
 H1625 H 0.35054 0.41539 0.72474
 H1626 H 0.32825 0.44944 0.74759
 H1627 H 0.29512 0.47090 0.68396
 H1628 H 0.31735 0.43578 0.66089
 H1629 H 0.28273 0.38439 0.70571
 H1630 H 0.26069 0.41964 0.72847
 C1631 C 0.30279 0.91158 0.18505
 C1632 C 0.31985 0.93432 0.19122
 C1633 C 0.30819 0.95297 0.20444
 C1634 C 0.28040 0.94746 0.21027
 C1635 C 0.26845 0.94223 0.18445
 C1636 C 0.28015 0.92363 0.17119
 C1637 C 0.29205 0.90315 0.21056
 C1638 C 0.28044 0.92181 0.22368
 H1639 H 0.33932 0.93587 0.18519
 H1640 H 0.31772 0.97031 0.20976
 H1641 H 0.25293 0.95303 0.17663
 H1642 H 0.27455 0.91962 0.15205
 H1643 H 0.29335 0.88395 0.21766
 H1644 H 0.27193 0.91855 0.24194
 C1645 C 0.80314 0.40787 0.18343
 C1646 C 0.81978 0.43089 0.18979
 C1647 C 0.80721 0.45011 0.20134
 C1648 C 0.77906 0.44477 0.20547
 C1649 C 0.76899 0.43840 0.17912
 C1650 C 0.78159 0.41932 0.16752
 C1651 C 0.79067 0.40055 0.20849
 C1652 C 0.77820 0.41974 0.21996
 H1653 H 0.83962 0.43222 0.18504
 H1654 H 0.81634 0.46770 0.20654
 H1655 H 0.75434 0.44905 0.16961
 H1656 H 0.77772 0.41486 0.14805
 H1657 H 0.79156 0.38170 0.21654
 H1658 H 0.76855 0.41729 0.23775
 C1659 C 0.80276 0.90898 0.68035
 C1660 C 0.77922 0.91972 0.66689
 C1661 C 0.76794 0.93910 0.67942
 C1662 C 0.78110 0.94627 0.70416
 C1663 C 0.78219 0.92161 0.71926
 C1664 C 0.79336 0.90221 0.70688
 C1665 C 0.81975 0.93228 0.68413
 C1666 C 0.80847 0.95168 0.69659
 H1667 H 0.77230 0.91388 0.64868
 H1668 H 0.75166 0.94893 0.67187
 H1669 H 0.77467 0.91952 0.73810
 H1670 H 0.79522 0.88356 0.71519
 H1671 H 0.83892 0.93357 0.67715
 H1672 H 0.81802 0.96944 0.70028
 C1673 C 0.68274 0.58818 0.70025
 C1674 C 0.70851 0.59598 0.71096
 C1675 C 0.72066 0.57736 0.72371
 C1676 C 0.70608 0.55241 0.72489
 C1677 C 0.68029 0.55943 0.73604
 C1678 C 0.66801 0.57794 0.72318
 C1679 C 0.68818 0.56434 0.68454
 C1680 C 0.70041 0.54571 0.69739
 H1681 H 0.71653 0.61473 0.70873
 H1682 H 0.73901 0.58019 0.73222
 H1683 H 0.67167 0.54974 0.75185
 H1684 H 0.64890 0.58294 0.72815
 H1685 H 0.68241 0.56209 0.66509
 H1686 H 0.70514 0.52769 0.68889
 C1687 C 0.69759 0.08821 0.19378
 C1688 C 0.68118 0.06509 0.20039
 C1689 C 0.69371 0.04646 0.21294
 C1690 C 0.72160 0.05245 0.21776
 C1691 C 0.73239 0.05825 0.19155
 C1692 C 0.71985 0.07674 0.17895
 C1693 C 0.70917 0.09651 0.21898
 C1694 C 0.72161 0.07788 0.23147
 H1695 H 0.66149 0.06331 0.19516
 H1696 H 0.68470 0.02889 0.21847
 H1697 H 0.74762 0.04771 0.18290
 H1698 H 0.72454 0.08085 0.15959
 H1699 H 0.70781 0.11559 0.22631
 H1700 H 0.73081 0.08104 0.24943
 C1701 C 0.19743 0.59042 0.18229
 C1702 C 0.18127 0.56648 0.18578
 C1703 C 0.19316 0.54738 0.19815
 C1704 C 0.22027 0.55370 0.20596
 C1705 C 0.23334 0.56160 0.18138
 C1706 C 0.22145 0.58072 0.16893
 C1707 C 0.20645 0.59725 0.20893
 C1708 C 0.21825 0.57814 0.22124
 H1709 H 0.16220 0.56457 0.17867
 H1710 H 0.18424 0.52925 0.20163
 H1711 H 0.25016 0.55261 0.17402
 H1712 H 0.22853 0.58731 0.15103
 H1713 H 0.20406 0.61581 0.21728
 H1714 H 0.22587 0.58037 0.24005
 C1715 C 0.18990 0.09144 0.68482
 C1716 C 0.17250 0.06897 0.69117
 C1717 C 0.18442 0.04924 0.70263
 C1718 C 0.21273 0.05358 0.70671
 C1719 C 0.22295 0.05978 0.68035
 C1720 C 0.21102 0.07938 0.66884
 C1721 C 0.20271 0.09816 0.70988
 C1722 C 0.21453 0.07847 0.72128
 H1723 H 0.15260 0.06840 0.68653
 H1724 H 0.17469 0.03197 0.70784
 H1725 H 0.23727 0.04875 0.67081
 H1726 H 0.21521 0.08398 0.64947
 H1727 H 0.20260 0.11700 0.71794
 H1728 H 0.22442 0.08048 0.73903
 C1729 C 0.30861 0.59263 0.30826
 C1730 C 0.32606 0.56985 0.30361
 C1731 C 0.31485 0.55028 0.29130
 C1732 C 0.28710 0.55507 0.28468
 C1733 C 0.27463 0.56158 0.30991
 C1734 C 0.28581 0.58106 0.32231
 C1735 C 0.29816 0.59947 0.28212
 C1736 C 0.28705 0.57991 0.26984
 H1737 H 0.34550 0.56902 0.30988
 H1738 H 0.32473 0.53285 0.28704
 H1739 H 0.25894 0.55118 0.31794
 H1740 H 0.27932 0.58630 0.34083
 H1741 H 0.29921 0.61829 0.27405
 H1742 H 0.27868 0.58204 0.25134
 C1743 C 0.30380 0.08878 0.80874
 C1744 C 0.32072 0.06568 0.80366
 C1745 C 0.30923 0.04683 0.79058
 C1746 C 0.28172 0.05253 0.78376
 C1747 C 0.26905 0.05863 0.80905
 C1748 C 0.28055 0.07746 0.82217
 C1749 C 0.29389 0.09667 0.78268
 C1750 C 0.28247 0.07780 0.76968
 H1751 H 0.34002 0.06410 0.81024
 H1752 H 0.31871 0.02927 0.78595
 H1753 H 0.25292 0.04849 0.81651
 H1754 H 0.27397 0.08250 0.84072
 H1755 H 0.29551 0.11570 0.77520
 H1756 H 0.27440 0.08069 0.75114
 C1757 C 0.80530 0.59077 0.81923
 C1758 C 0.82181 0.56755 0.81337
 C1759 C 0.80917 0.54819 0.80212
 C1760 C 0.78108 0.55361 0.79773
 C1761 C 0.77088 0.56053 0.82388
 C1762 C 0.78354 0.57977 0.83521
 C1763 C 0.79296 0.59770 0.79398
 C1764 C 0.78044 0.57837 0.78280
 H1765 H 0.84164 0.56624 0.81816
 H1766 H 0.81823 0.53048 0.79725
 H1767 H 0.75596 0.55026 0.83339
 H1768 H 0.77931 0.58482 0.85444
 H1769 H 0.79394 0.61640 0.78562
 H1770 H 0.77086 0.58057 0.76492
 C1771 C 0.81085 0.09211 0.31942
 C1772 C 0.82847 0.06936 0.31517
 C1773 C 0.81755 0.04968 0.30285
 C1774 C 0.78987 0.05424 0.29592
 C1775 C 0.77705 0.06089 0.32100
 C1776 C 0.78800 0.08060 0.33336
 C1777 C 0.80062 0.09868 0.29314
 C1778 C 0.78978 0.07898 0.28091
 H1779 H 0.84782 0.06863 0.32175
 H1780 H 0.82756 0.03225 0.29887
 H1781 H 0.76123 0.05056 0.32884
 H1782 H 0.78127 0.08628 0.35169
 H1783 H 0.80155 0.11746 0.28495
 H1784 H 0.78153 0.08094 0.26233
 C1785 C 0.68242 0.40993 0.30448
 C1786 C 0.68786 0.43388 0.32002
 C1787 C 0.69967 0.45259 0.30692
 C1788 C 0.70500 0.44586 0.27935
 C1789 C 0.71985 0.42107 0.28041
 C1790 C 0.70809 0.40236 0.29340
 C1791 C 0.66725 0.41992 0.28170
 C1792 C 0.67913 0.43853 0.26859
 H1793 H 0.68242 0.43610 0.33956
 H1794 H 0.70436 0.47069 0.31529
 H1795 H 0.73809 0.41840 0.27165
 H1796 H 0.71633 0.38371 0.29557
 H1797 H 0.64818 0.41460 0.27688
 H1798 H 0.67023 0.44800 0.25281
 C1799 C 0.68643 0.91125 0.80426
 C1800 C 0.67101 0.92355 0.78285
 C1801 C 0.68351 0.94218 0.77037
 C1802 C 0.71022 0.94726 0.78042
 C1803 C 0.70641 0.95257 0.80853
 C1804 C 0.69392 0.93384 0.82097
 C1805 C 0.71114 0.90286 0.79172
 C1806 C 0.72352 0.92160 0.77936
 H1807 H 0.65136 0.91985 0.77887
 H1808 H 0.67452 0.95326 0.75572
 H1809 H 0.71248 0.96982 0.81774
 H1810 H 0.68926 0.93526 0.84078
 H1811 H 0.71827 0.88365 0.79245
 H1812 H 0.74117 0.91838 0.76963
 C1813 C 0.19817 0.41170 0.81925
 C1814 C 0.18137 0.43472 0.81330
 C1815 C 0.19347 0.45373 0.80089
 C1816 C 0.22136 0.44822 0.79557
 C1817 C 0.23264 0.44211 0.82152
 C1818 C 0.22051 0.42319 0.83397
 C1819 C 0.20947 0.40402 0.79376
 C1820 C 0.22147 0.42301 0.78145
 H1821 H 0.16177 0.43619 0.81890
 H1822 H 0.18418 0.47129 0.79582
 H1823 H 0.24792 0.45266 0.83008
 H1824 H 0.22551 0.41868 0.85318
 H1825 H 0.20821 0.38506 0.78609
 H1826 H 0.23036 0.42027 0.76330
 C1827 C 0.18225 0.90999 0.30547
 C1828 C 0.18742 0.93286 0.32263
 C1829 C 0.20009 0.95208 0.31123
 C1830 C 0.20642 0.94698 0.28355
 C1831 C 0.22078 0.92186 0.28361
 C1832 C 0.20821 0.90264 0.29494
 C1833 C 0.16818 0.92157 0.28273
 C1834 C 0.18090 0.94081 0.27129
 H1835 H 0.18115 0.93403 0.34202
 H1836 H 0.20468 0.96954 0.32088
 H1837 H 0.23924 0.91933 0.27524
 H1838 H 0.21599 0.88370 0.29611
 H1839 H 0.14947 0.91639 0.27656
 H1840 H 0.17301 0.95120 0.25554
 C1841 C 0.41058 0.30444 0.68358
 C1842 C 0.43405 0.32068 0.68909
 C1843 C 0.45296 0.30800 0.70100
 C1844 C 0.44688 0.28013 0.70632
 C1845 C 0.42207 0.28056 0.72102
 C1846 C 0.40318 0.29312 0.70918
 C1847 C 0.42114 0.28182 0.66852
 C1848 C 0.43995 0.26913 0.68049
 H1849 H 0.43583 0.34037 0.68363
 H1850 H 0.47077 0.31687 0.70575
 H1851 H 0.41956 0.27173 0.73926
 H1852 H 0.38451 0.29484 0.71733
 H1853 H 0.41605 0.27687 0.64947
 H1854 H 0.44982 0.25353 0.67167
 C1855 C 0.40947 0.81815 0.18756
 C1856 C 0.42306 0.83462 0.20731
 C1857 C 0.44247 0.82273 0.21910
 C1858 C 0.44699 0.79553 0.21004
 C1859 C 0.42162 0.78214 0.21339
 C1860 C 0.40210 0.79392 0.20173
 C1861 C 0.43089 0.80996 0.16972
 C1862 C 0.45045 0.79809 0.18147
 H1863 H 0.41968 0.85457 0.21033
 H1864 H 0.45459 0.83252 0.23233
 H1865 H 0.41919 0.76482 0.22407
 H1866 H 0.38300 0.78663 0.20254
 H1867 H 0.43103 0.81383 0.14968
 H1868 H 0.46708 0.79173 0.17145
 C1869 C 0.90928 0.31365 0.19422
 C1870 C 0.92013 0.32815 0.21704
 C1871 C 0.93990 0.31632 0.22838
 C1872 C 0.94732 0.29116 0.21602
 C1873 C 0.92303 0.27550 0.21593
 C1874 C 0.90324 0.28720 0.20468
 C1875 C 0.93228 0.30967 0.17700
 C1876 C 0.95208 0.29792 0.18836
 H1877 H 0.91397 0.34647 0.22357
 H1878 H 0.94976 0.32461 0.24423
 H1879 H 0.92141 0.25687 0.22437
 H1880 H 0.88474 0.27852 0.20358
 H1881 H 0.93307 0.31600 0.15760
 H1882 H 0.96967 0.29418 0.17865
 C1883 C 0.90659 0.81252 0.68998
 C1884 C 0.92973 0.80860 0.67295
 C1885 C 0.94917 0.79620 0.68424
 C1886 C 0.94393 0.78879 0.71164
 C1887 C 0.93677 0.81376 0.72457
 C1888 C 0.91735 0.82622 0.71331
 C1889 C 0.89995 0.78591 0.69967
 C1890 C 0.91939 0.77356 0.71085
 H1891 H 0.93088 0.81541 0.65373
 H1892 H 0.96681 0.79240 0.67465
 H1893 H 0.94647 0.82140 0.74083
 H1894 H 0.91128 0.84437 0.72036
 H1895 H 0.88132 0.77760 0.69814
 H1896 H 0.91736 0.75476 0.71881
 C1897 C 0.58967 0.30388 0.31914
 C1898 C 0.56617 0.32023 0.31418
 C1899 C 0.54731 0.30800 0.30187
 C1900 C 0.55336 0.28036 0.29566
 C1901 C 0.57819 0.28124 0.28101
 C1902 C 0.59707 0.29339 0.29322
 C1903 C 0.57922 0.28067 0.33348
 C1904 C 0.56031 0.26840 0.32112
 H1905 H 0.56434 0.33970 0.32032
 H1906 H 0.52948 0.31702 0.29745
 H1907 H 0.58080 0.27281 0.26262
 H1908 H 0.61580 0.29518 0.28522
 H1909 H 0.58505 0.27464 0.35203
 H1910 H 0.55076 0.25214 0.32914
 C1911 C 0.59047 0.80709 0.81350
 C1912 C 0.56730 0.82416 0.80943
 C1913 C 0.54797 0.81280 0.79697
 C1914 C 0.55333 0.78528 0.78964
 C1915 C 0.57796 0.78618 0.77466
 C1916 C 0.59730 0.79744 0.78707
 C1917 C 0.57967 0.78358 0.82706
 C1918 C 0.56036 0.77224 0.81453
 H1919 H 0.56606 0.84345 0.81621
 H1920 H 0.53032 0.82240 0.79308
 H1921 H 0.58014 0.77825 0.75597
 H1922 H 0.61598 0.79906 0.77893
 H1923 H 0.58556 0.77654 0.84522
 H1924 H 0.55060 0.75589 0.82210
 C1925 C 0.09266 0.31678 0.81089
 C1926 C 0.08158 0.33088 0.78791
 C1927 C 0.06192 0.31868 0.77682
 C1928 C 0.05483 0.29356 0.78958
 C1929 C 0.07929 0.27819 0.78981
 C1930 C 0.09898 0.29028 0.80081
 C1931 C 0.06977 0.31274 0.82825
 C1932 C 0.05008 0.30060 0.81714
 H1933 H 0.08748 0.34922 0.78113
 H1934 H 0.05190 0.32668 0.76091
 H1935 H 0.08109 0.25948 0.78164
 H1936 H 0.11758 0.28184 0.80198
 H1937 H 0.06896 0.31930 0.84755
 H1938 H 0.03256 0.29676 0.82696
 C1939 C 0.08805 0.80345 0.31414
 C1940 C 0.06511 0.81980 0.30695
 C1941 C 0.04647 0.80688 0.29486
 C1942 C 0.05228 0.77869 0.29106
 C1943 C 0.07767 0.77812 0.27739
 C1944 C 0.09628 0.79094 0.28940
 C1945 C 0.07641 0.78174 0.32979
 C1946 C 0.05794 0.76878 0.31765
 H1947 H 0.06339 0.83971 0.31152
 H1948 H 0.02899 0.81579 0.28905
 H1949 H 0.08078 0.76841 0.25972
 H1950 H 0.11528 0.79207 0.28196
 H1951 H 0.08024 0.77803 0.34944
 H1952 H 0.04719 0.75401 0.32690
 C1953 C 0.58954 0.69447 0.68795
 C1954 C 0.56557 0.67845 0.69144
 C1955 C 0.54653 0.69059 0.70357
 C1956 C 0.55296 0.71779 0.71120
 C1957 C 0.57723 0.71569 0.72668
 C1958 C 0.59629 0.70366 0.71457
 C1959 C 0.58014 0.71858 0.67438
 C1960 C 0.56109 0.73068 0.68658
 H1961 H 0.56361 0.65925 0.68454
 H1962 H 0.52840 0.68176 0.70705
 H1963 H 0.57941 0.72345 0.74544
 H1964 H 0.61473 0.70123 0.72305
 H1965 H 0.58718 0.72587 0.65674
 H1966 H 0.55250 0.74774 0.67915
 C1967 C 0.59100 0.18195 0.20076
 C1968 C 0.57968 0.16777 0.22357
 C1969 C 0.56060 0.18044 0.23516
 C1970 C 0.55427 0.20603 0.22294
 C1971 C 0.57925 0.22054 0.22267
 C1972 C 0.59835 0.20802 0.21117
 C1973 C 0.56803 0.18703 0.18375
 C1974 C 0.54894 0.19966 0.19531
 H1975 H 0.58467 0.14885 0.22947
 H1976 H 0.55029 0.17238 0.25085
 H1977 H 0.58177 0.23908 0.23096
 H1978 H 0.61717 0.21591 0.20977
 H1979 H 0.56668 0.18071 0.16440
 H1980 H 0.53141 0.20418 0.18580
 C1981 C 0.09009 0.68239 0.19268
 C1982 C 0.07911 0.66664 0.21459
 C1983 C 0.06010 0.67830 0.22718
 C1984 C 0.05332 0.70456 0.21676
 C1985 C 0.07811 0.71938 0.21711
 C1986 C 0.09724 0.70784 0.20465
 C1987 C 0.06689 0.68833 0.17624
 C1988 C 0.04774 0.69994 0.18881
 H1989 H 0.08393 0.64725 0.21891
 H1990 H 0.04983 0.66891 0.24215
 H1991 H 0.08045 0.73747 0.22636
 H1992 H 0.11592 0.71611 0.20343
 H1993 H 0.06545 0.68333 0.15652
 H1994 H 0.03007 0.70491 0.17979
 C1995 C 0.08894 0.19041 0.69937
 C1996 C 0.06507 0.19455 0.68339
 C1997 C 0.04635 0.20724 0.69546
 C1998 C 0.05297 0.21472 0.72252
 C1999 C 0.06043 0.18975 0.73533
 C2000 C 0.07913 0.17699 0.72330
 C2001 C 0.09637 0.21699 0.70850
 C2002 C 0.07763 0.22965 0.72047
 H2003 H 0.06294 0.18765 0.66431
 H2004 H 0.02832 0.21121 0.68666
 H2005 H 0.05147 0.18236 0.75214
 H2006 H 0.08538 0.15886 0.73031
 H2007 H 0.11501 0.22505 0.70605
 H2008 H 0.08026 0.24846 0.72816
 C2009 C 0.41027 0.69202 0.30001
 C2010 C 0.42139 0.67899 0.27650
 C2011 C 0.44026 0.69228 0.26528
 C2012 C 0.44662 0.71735 0.27845
 C2013 C 0.42157 0.73169 0.27956
 C2014 C 0.40265 0.71850 0.29072
 C2015 C 0.43339 0.69655 0.31696
 C2016 C 0.45228 0.70981 0.30574
 H2017 H 0.41620 0.66052 0.26954
 H2018 H 0.45026 0.68507 0.24900
 H2019 H 0.41886 0.75056 0.27199
 H2020 H 0.38377 0.72616 0.29257
 H2021 H 0.43494 0.68949 0.33606
 H2022 H 0.46985 0.71412 0.31527
 C2023 C 0.40989 0.18244 0.80335
 C2024 C 0.42216 0.16670 0.78218
 C2025 C 0.44106 0.17888 0.76988
 C2026 C 0.44646 0.20559 0.77989
 C2027 C 0.42115 0.21940 0.77848
 C2028 C 0.40212 0.20735 0.79064
 C2029 C 0.43233 0.18957 0.82035
 C2030 C 0.45139 0.20171 0.80810
 H2031 H 0.41837 0.14696 0.77844
 H2032 H 0.45225 0.16956 0.75557
 H2033 H 0.41839 0.23717 0.76871
 H2034 H 0.38310 0.21489 0.79115
 H2035 H 0.43344 0.18488 0.84019
 H2036 H 0.46860 0.20746 0.81750
 C2037 C 0.90908 0.68678 0.80291
 C2038 C 0.91850 0.67298 0.77907
 C2039 C 0.93743 0.68527 0.76680
 C2040 C 0.94545 0.71019 0.77933
 C2041 C 0.92110 0.72561 0.78133
 C2042 C 0.90216 0.71342 0.79351
 C2043 C 0.93310 0.69055 0.81872
 C2044 C 0.95202 0.70277 0.80644
 H2045 H 0.91176 0.65496 0.77226
 H2046 H 0.94614 0.67762 0.75001
 H2047 H 0.91879 0.74439 0.77343
 H2048 H 0.88369 0.72187 0.79593
 H2049 H 0.93519 0.68375 0.83787
 H2050 H 0.97018 0.70642 0.81511
 C2051 C 0.91273 0.18993 0.30755
 C2052 C 0.93606 0.19497 0.32404
 C2053 C 0.95498 0.20746 0.31201
 C2054 C 0.94906 0.21382 0.28447
 C2055 C 0.94232 0.18827 0.27250
 C2056 C 0.92347 0.17571 0.28453
 C2057 C 0.90526 0.21603 0.29716
 C2058 C 0.92419 0.22848 0.28522
 H2059 H 0.93772 0.18880 0.34344
 H2060 H 0.97271 0.21198 0.32114
 H2061 H 0.95216 0.18017 0.25656
 H2062 H 0.91819 0.15694 0.27852
 H2063 H 0.88648 0.22396 0.29885
 H2064 H 0.92157 0.24698 0.27676
 C2065 C 0.30461 0.31682 0.59067
 C2066 C 0.32108 0.31058 0.56762
 C2067 C 0.30860 0.29833 0.54886
 C2068 C 0.28068 0.29349 0.55459
 C2069 C 0.28050 0.27927 0.57969
 C2070 C 0.29289 0.29140 0.59846
 C2071 C 0.28244 0.33204 0.57946
 C2072 C 0.26993 0.31978 0.56074
 H2073 H 0.34077 0.31585 0.56598
 H2074 H 0.31766 0.29308 0.53134
 H2075 H 0.27127 0.26120 0.58253
 H2076 H 0.29413 0.28365 0.61733
 H2077 H 0.27767 0.35133 0.58419
 H2078 H 0.25459 0.32861 0.55049
 C2079 C 0.30947 0.80938 0.08711
 C2080 C 0.32344 0.78687 0.07494
 C2081 C 0.31043 0.77563 0.05595
 C2082 C 0.28468 0.78782 0.05051
 C2083 C 0.27081 0.78730 0.07576
 C2084 C 0.28372 0.79845 0.09482
 C2085 C 0.30366 0.82702 0.06476
 C2086 C 0.29069 0.81578 0.04572
 H2087 H 0.34235 0.78073 0.07941
 H2088 H 0.31832 0.76014 0.04518
 H2089 H 0.25248 0.77862 0.07850
 H2090 H 0.27636 0.79921 0.11384
 H2091 H 0.30968 0.84660 0.06381
 H2092 H 0.28560 0.82577 0.02862
 C2093 C 0.81131 0.29973 0.09253
 C2094 C 0.82429 0.27540 0.08295
 C2095 C 0.81162 0.26364 0.06401
 C2096 C 0.78715 0.27708 0.05615
 C2097 C 0.77191 0.27939 0.08050
 C2098 C 0.78449 0.29108 0.09945
 C2099 C 0.80797 0.31592 0.06867
 C2100 C 0.79535 0.30414 0.04975
 H2101 H 0.84197 0.26785 0.08969
 H2102 H 0.81865 0.24653 0.05526
 H2103 H 0.75295 0.27204 0.08280
 H2104 H 0.77621 0.29364 0.11793
 H2105 H 0.81533 0.33496 0.06669
 H2106 H 0.79191 0.31311 0.03171
 C2107 C 0.81018 0.80215 0.58704
 C2108 C 0.82571 0.78064 0.57498
 C2109 C 0.81319 0.76775 0.55674
 C2110 C 0.78636 0.77752 0.55176
 C2111 C 0.77326 0.77663 0.57740
 C2112 C 0.78566 0.78940 0.59575
 C2113 C 0.80237 0.81861 0.56440
 C2114 C 0.78987 0.80576 0.54604
 H2115 H 0.84546 0.77695 0.57848
 H2116 H 0.82226 0.75304 0.54580
 H2117 H 0.75572 0.76671 0.58087
 H2118 H 0.77866 0.79029 0.61491
 H2119 H 0.80683 0.83855 0.56267
 H2120 H 0.78360 0.81475 0.52879
 C2121 C 0.31616 0.69524 0.40568
 C2122 C 0.33009 0.71788 0.41768
 C2123 C 0.31730 0.72888 0.43698
 C2124 C 0.29184 0.71628 0.44283
 C2125 C 0.27749 0.71667 0.41785
 C2126 C 0.29013 0.70579 0.39853
 C2127 C 0.31109 0.67742 0.42807
 C2128 C 0.29834 0.68839 0.44740
 H2129 H 0.34894 0.72405 0.41298
 H2130 H 0.32521 0.74435 0.44777
 H2131 H 0.25895 0.72494 0.41549
 H2132 H 0.28235 0.70490 0.37967
 H2133 H 0.31749 0.65796 0.42887
 H2134 H 0.29379 0.67829 0.46458
 C2135 C 0.31434 0.18966 0.90805
 C2136 C 0.28851 0.20102 0.90136
 C2137 C 0.27639 0.21202 0.92099
 C2138 C 0.29107 0.21093 0.94578
 C2139 C 0.29687 0.18282 0.94993
 C2140 C 0.30905 0.17173 0.93030
 C2141 C 0.32901 0.21180 0.92014
 C2142 C 0.31677 0.22289 0.93972
 H2143 H 0.28051 0.20064 0.88258
 H2144 H 0.25809 0.22095 0.91897
 H2145 H 0.29222 0.17262 0.96703
 H2146 H 0.31486 0.15207 0.93075
 H2147 H 0.34789 0.21768 0.91523
 H2148 H 0.32522 0.23806 0.95053
 C2149 C 0.81674 0.69914 0.90955
 C2150 C 0.78993 0.70797 0.90291
 C2151 C 0.77775 0.71993 0.92190
 C2152 C 0.79332 0.72232 0.94604
 C2153 C 0.80132 0.69523 0.95256
 C2154 C 0.81358 0.68317 0.93358
 C2155 C 0.83013 0.72339 0.91880
 C2156 C 0.81781 0.73546 0.93780
 H2157 H 0.78130 0.70518 0.88462
 H2158 H 0.75874 0.72716 0.91984
 H2159 H 0.79806 0.68645 0.97073
 H2160 H 0.82082 0.66409 0.93564
 H2161 H 0.84805 0.73040 0.91209
 H2162 H 0.82526 0.75242 0.94651
 C2163 C 0.81887 0.19888 0.41310
 C2164 C 0.81245 0.18229 0.43608
 C2165 C 0.80032 0.19485 0.45489
 C2166 C 0.79571 0.22295 0.44921
 C2167 C 0.82200 0.23353 0.44315
 C2168 C 0.83419 0.22094 0.42448
 C2169 C 0.79364 0.21082 0.40531
 C2170 C 0.78159 0.22328 0.42409
 H2171 H 0.81755 0.16249 0.43768
 H2172 H 0.79500 0.18575 0.47239
 H2173 H 0.83104 0.24855 0.45369
 H2174 H 0.85366 0.22525 0.42025
 H2175 H 0.78591 0.20960 0.38645
 H2176 H 0.76361 0.23259 0.42127
 C2177 C 0.69594 0.31839 0.41215
 C2178 C 0.71841 0.33390 0.42238
 C2179 C 0.73128 0.32224 0.44124
 C2180 C 0.72061 0.29623 0.44857
 C2181 C 0.69281 0.30136 0.45469
 C2182 C 0.67994 0.31296 0.43573
 C2183 C 0.70742 0.29269 0.40506
 C2184 C 0.72018 0.28115 0.42401
 H2185 H 0.72310 0.35306 0.41704
 H2186 H 0.74680 0.33140 0.45090
 H2187 H 0.68411 0.29672 0.47258
 H2188 H 0.66028 0.31827 0.43755
 H2189 H 0.70569 0.28426 0.38655
 H2190 H 0.72919 0.26292 0.42168
 C2191 C 0.69397 0.81709 0.91012
 C2192 C 0.71473 0.83316 0.92275
 C2193 C 0.72710 0.82104 0.94165
 C2194 C 0.71757 0.79404 0.94665
 C2195 C 0.68919 0.79721 0.95127
 C2196 C 0.67687 0.80931 0.93225
 C2197 C 0.70734 0.79258 0.90225
 C2198 C 0.71957 0.78059 0.92125
 H2199 H 0.71823 0.85298 0.91906
 H2200 H 0.74122 0.83050 0.95301
 H2201 H 0.67971 0.79102 0.96827
 H2202 H 0.65689 0.81353 0.93319
 H2203 H 0.70726 0.78531 0.88318
 H2204 H 0.72987 0.76313 0.91840
 C2205 C 0.19027 0.30499 0.91275
 C2206 C 0.17520 0.28285 0.92432
 C2207 C 0.18771 0.27022 0.94277
 C2208 C 0.21409 0.28082 0.94843
 C2209 C 0.22781 0.28058 0.92310
 C2210 C 0.21540 0.29310 0.90452
 C2211 C 0.19707 0.32148 0.93565
 C2212 C 0.20954 0.30887 0.95423
 H2213 H 0.15573 0.27837 0.92031
 H2214 H 0.17890 0.25508 0.95338
 H2215 H 0.24571 0.27119 0.91998
 H2216 H 0.22275 0.29433 0.88552
 H2217 H 0.19201 0.34128 0.93733
 H2218 H 0.21517 0.31792 0.97165
 C2219 C 0.19328 0.81281 0.40807
 C2220 C 0.17664 0.80659 0.43100
 C2221 C 0.18878 0.79375 0.44960
 C2222 C 0.21659 0.78829 0.44384
 C2223 C 0.21644 0.77449 0.41855
 C2224 C 0.20438 0.78725 0.39994
 C2225 C 0.21587 0.82726 0.41951
 C2226 C 0.22803 0.81437 0.43808
 H2227 H 0.15707 0.81228 0.43267
 H2228 H 0.17957 0.78843 0.46704
 H2229 H 0.22519 0.75624 0.41547
 H2230 H 0.20298 0.77985 0.38096
 H2231 H 0.22132 0.84642 0.41492
 H2232 H 0.24369 0.82255 0.44837
 C2233 C 0.69219 0.67908 0.59158
 C2234 C 0.70217 0.70568 0.59765
 C2235 C 0.71367 0.71742 0.57808
 C2236 C 0.71450 0.70166 0.55396
 C2237 C 0.72708 0.67668 0.56178
 C2238 C 0.71546 0.66480 0.58135
 C2239 C 0.67535 0.68272 0.56825
 C2240 C 0.68698 0.69453 0.54867
 H2241 H 0.70045 0.71451 0.61598
 H2242 H 0.72157 0.73625 0.57969
 H2243 H 0.74324 0.66853 0.55229
 H2244 H 0.72200 0.64652 0.58769
 H2245 H 0.65603 0.67612 0.56708
 H2246 H 0.67758 0.69805 0.53088
 C2247 C 0.68528 0.18960 0.09522
 C2248 C 0.67106 0.21248 0.08394
 C2249 C 0.68309 0.22353 0.06416
 C2250 C 0.70818 0.21083 0.05715
 C2251 C 0.72358 0.21094 0.08152
 C2252 C 0.71166 0.19999 0.10133
 C2253 C 0.68934 0.17195 0.07255
 C2254 C 0.70130 0.18301 0.05273
 H2255 H 0.65272 0.21917 0.08974
 H2256 H 0.67495 0.23932 0.05397
 H2257 H 0.74220 0.21927 0.08316
 H2258 H 0.72016 0.19905 0.11987
 H2259 H 0.68291 0.15249 0.07199
 H2260 H 0.70512 0.17300 0.03535
 C2261 C 0.18427 0.69528 0.08736
 C2262 C 0.16927 0.71787 0.07656
 C2263 C 0.18121 0.73013 0.05748
 C2264 C 0.20697 0.71880 0.05056
 C2265 C 0.22190 0.71868 0.07521
 C2266 C 0.21007 0.70651 0.09437
 C2267 C 0.18950 0.67863 0.06418
 C2268 C 0.20138 0.69089 0.04501
 H2269 H 0.15036 0.72323 0.08187
 H2270 H 0.17244 0.74572 0.04750
 H2271 H 0.24015 0.72765 0.07749
 H2272 H 0.21828 0.70518 0.11302
 H2273 H 0.18387 0.65896 0.06278
 H2274 H 0.20595 0.68169 0.02737
 C2275 C 0.18143 0.19909 0.59253
 C2276 C 0.16781 0.22286 0.58233
 C2277 C 0.18024 0.23462 0.56319
 C2278 C 0.20504 0.22166 0.55569
 C2279 C 0.22029 0.22013 0.58012
 C2280 C 0.20801 0.20846 0.59927
 C2281 C 0.18514 0.18253 0.56902
 C2282 C 0.19750 0.19428 0.54986
 H2283 H 0.14949 0.22951 0.58825
 H2284 H 0.17255 0.25107 0.55369
 H2285 H 0.23915 0.22772 0.58224
 H2286 H 0.21642 0.20624 0.61775
 H2287 H 0.17818 0.16332 0.56740
 H2288 H 0.20113 0.18508 0.53200
   
