data_POSCAR
  _audit_creation_date              2014-09-24
  _audit_creation_method            'ToBaCCo'
  _symmetry_space_group_name_H-M    'P1'
  _symmetry_Int_Tables_number       1
  _symmetry_cell_setting            triclinic
  loop_
  _symmetry_equiv_pos_as_xyz
 x,y,z
_cell_length_a 44.7869
_cell_length_b 44.8566
_cell_length_c 44.8461
_cell_angle_alpha 89.985900
_cell_angle_beta 89.989900
_cell_angle_gamma 90.019300
loop_
  _atom_site_label
  _atom_site_type_symbol
  _atom_site_fract_x
  _atom_site_fract_y
  _atom_site_fract_z
C1 C 0.13291 -0.04160 0.25405
 C2 C 0.12204 -0.01304 0.26065
 C3 C 0.11041 -0.00721 0.28908
 C4 C 0.10972 -0.02964 0.31082
 C5 C 0.12036 -0.05821 0.30391
 C6 C 0.13199 -0.06434 0.27549
 C7 C 0.12325 0.01069 0.23784
 C8 C 0.11293 0.00514 0.20886
 C9 C 0.11500 0.02712 0.18669
 C10 C 0.12742 0.05496 0.19383
 C11 C 0.13727 0.06092 0.22292
 C12 C 0.13524 0.03870 0.24479
 H13 H 0.14267 -0.04591 0.23235
 H14 H 0.10156 0.01469 0.29415
 H15 H 0.10290 -0.01625 0.20369
 H16 H 0.14374 0.04288 0.26702
 H17 H 0.11978 -0.07547 0.32075
 H18 H 0.12910 0.07220 0.17701
 C19 C 0.36384 -0.03926 0.74316
 C20 C 0.37522 -0.01081 0.73687
 C21 C 0.38623 -0.00462 0.70827
 C22 C 0.38560 -0.02644 0.68598
 C23 C 0.37419 -0.05481 0.69244
 C24 C 0.36345 -0.06137 0.72107
 C25 C 0.37561 0.01257 0.76003
 C26 C 0.38716 0.00653 0.78845
 C27 C 0.38788 0.02885 0.81039
 C28 C 0.37735 0.05751 0.80347
 C29 C 0.36573 0.06370 0.77513
 C30 C 0.36475 0.04116 0.75359
 H31 H 0.35480 -0.04401 0.76507
 H32 H 0.39570 0.01710 0.70347
 H33 H 0.39616 -0.01539 0.79322
 H34 H 0.35517 0.04578 0.73188
 H35 H 0.37377 -0.07177 0.67529
 H36 H 0.37805 0.07495 0.82012
 C37 C 0.86509 0.45830 0.24658
 C38 C 0.87463 0.48754 0.24092
 C39 C 0.88615 0.49478 0.21277
 C40 C 0.88843 0.47300 0.19053
 C41 C 0.87931 0.44372 0.19656
 C42 C 0.86737 0.43635 0.22449
 C43 C 0.87282 0.51049 0.26444
 C44 C 0.88385 0.50459 0.29308
 C45 C 0.88271 0.52647 0.31541
 C46 C 0.87073 0.55461 0.30872
 C47 C 0.85986 0.56076 0.28005
 C48 C 0.86069 0.53858 0.25812
 H49 H 0.85536 0.45277 0.26801
 H50 H 0.89405 0.51720 0.20851
 H51 H 0.89397 0.48313 0.29775
 H52 H 0.85171 0.54312 0.23614
 H53 H 0.88105 0.42690 0.17934
 H54 H 0.87005 0.57179 0.32563
 C55 C 0.63637 0.45980 0.75536
 C56 C 0.62505 0.48811 0.76228
 C57 C 0.61423 0.49372 0.79107
 C58 C 0.61497 0.47142 0.81292
 C59 C 0.62643 0.44324 0.80583
 C60 C 0.63695 0.43728 0.77699
 C61 C 0.62468 0.51185 0.73950
 C62 C 0.61299 0.50624 0.71106
 C63 C 0.61285 0.52864 0.68929
 C64 C 0.62412 0.55696 0.69618
 C65 C 0.63577 0.56282 0.72460
 C66 C 0.63613 0.54018 0.74611
 H67 H 0.64530 0.45552 0.73332
 H68 H 0.60481 0.51534 0.79635
 H69 H 0.60361 0.48454 0.70602
 H70 H 0.64579 0.54447 0.76785
 H71 H 0.62703 0.42592 0.82262
 H72 H 0.62393 0.57433 0.67944
 C73 C 0.24550 0.13494 1.03836
 C74 C 0.23893 0.12346 1.01006
 C75 C 0.21034 0.11207 1.00432
 C76 C 0.18831 0.11225 1.02659
 C77 C 0.19531 0.12351 1.05496
 C78 C 0.22387 0.13486 1.06089
 C79 C 0.26191 0.12360 0.98645
 C80 C 0.29068 0.11273 0.99229
 C81 C 0.31280 0.11339 0.97013
 C82 C 0.30573 0.12461 0.94178
 C83 C 0.27697 0.13529 0.93568
 C84 C 0.25521 0.13490 0.95809
 H85 H 0.26735 0.14439 1.04273
 H86 H 0.20546 0.10264 0.98261
 H87 H 0.29567 0.10339 1.01403
 H88 H 0.23323 0.14395 0.95366
 H89 H 0.17860 0.12353 1.07238
 H90 H 0.32253 0.12508 0.92444
 C91 C 0.75590 0.36235 1.04220
 C92 C 0.76141 0.37376 1.01359
 C93 C 0.78958 0.38563 1.00691
 C94 C 0.81218 0.38599 1.02845
 C95 C 0.80644 0.37477 1.05705
 C96 C 0.77829 0.36290 1.06411
 C97 C 0.73788 0.37325 0.99054
 C98 C 0.70935 0.38457 0.99669
 C99 C 0.68715 0.38473 0.97457
 C100 C 0.69390 0.37377 0.94600
 C101 C 0.72236 0.36236 0.93972
 C102 C 0.74415 0.36199 0.96208
 H103 H 0.73432 0.35258 1.04718
 H104 H 0.79377 0.39500 0.98503
 H105 H 0.70473 0.39390 1.01850
 H106 H 0.76599 0.35271 0.95738
 H107 H 0.82397 0.37518 1.07364
 H108 H 0.67709 0.37410 0.92867
 C109 C 0.25589 0.86476 0.53868
 C110 C 0.26166 0.87584 0.51002
 C111 C 0.29007 0.88718 0.50334
 C112 C 0.31272 0.88731 0.52496
 C113 C 0.30653 0.87643 0.55369
 C114 C 0.27816 0.86516 0.56060
 C115 C 0.23810 0.87532 0.48697
 C116 C 0.20938 0.88607 0.49334
 C117 C 0.18695 0.88536 0.47156
 C118 C 0.19343 0.87411 0.44313
 C119 C 0.22211 0.86352 0.43648
 C120 C 0.24428 0.86399 0.45849
 H121 H 0.23420 0.85535 0.54378
 H122 H 0.29436 0.89632 0.48137
 H123 H 0.20462 0.89543 0.51511
 H124 H 0.26622 0.85507 0.45361
 H125 H 0.32371 0.87666 0.57065
 H126 H 0.17622 0.87365 0.42620
 C127 C 0.74557 0.63535 0.54213
 C128 C 0.73857 0.62411 0.51380
 C129 C 0.70975 0.61328 0.50823
 C130 C 0.68794 0.61393 0.53059
 C131 C 0.69511 0.62521 0.55882
 C132 C 0.72397 0.63579 0.56473
 C133 C 0.76128 0.62377 0.48996
 C134 C 0.78975 0.61200 0.49539
 C135 C 0.81147 0.61172 0.47284
 C136 C 0.80430 0.62297 0.44449
 C137 C 0.77581 0.63465 0.43885
 C138 C 0.75450 0.63516 0.46167
 H139 H 0.76764 0.64428 0.54640
 H140 H 0.70440 0.60397 0.48658
 H141 H 0.79479 0.60262 0.51710
 H142 H 0.73271 0.64483 0.45752
 H143 H 0.67832 0.62571 0.57615
 H144 H 0.82078 0.62267 0.42685
 C145 C -0.03915 0.25435 0.13331
 C146 C -0.01070 0.26055 0.12184
 C147 C -0.00444 0.28913 0.11080
 C148 C -0.02622 0.31158 0.11153
 C149 C -0.05467 0.30506 0.12298
 C150 C -0.06122 0.27646 0.13377
 C151 C 0.01274 0.23741 0.12203
 C152 C 0.00685 0.20876 0.11099
 C153 C 0.02903 0.18665 0.11155
 C154 C 0.05739 0.19360 0.12294
 C155 C 0.06350 0.22224 0.13381
 C156 C 0.04109 0.24396 0.13350
 H157 H -0.04388 0.23252 0.14252
 H158 H 0.01737 0.29376 0.10138
 H159 H -0.01489 0.20385 0.10156
 H160 H 0.04555 0.26586 0.14269
 H161 H -0.07173 0.32212 0.12355
 H162 H 0.07476 0.17684 0.12333
 C163 C -0.04230 0.74307 0.36623
 C164 C -0.01368 0.73633 0.37692
 C165 C -0.00764 0.70757 0.38758
 C166 C -0.02991 0.68563 0.38741
 C167 C -0.05851 0.69265 0.37685
 C168 C -0.06478 0.72139 0.36631
 C169 C 0.00989 0.75932 0.37676
 C170 C 0.00409 0.78785 0.38815
 C171 C 0.02616 0.80995 0.38746
 C172 C 0.05436 0.80333 0.37569
 C173 C 0.06045 0.77482 0.36446
 C174 C 0.03813 0.75296 0.36488
 H175 H -0.04690 0.76504 0.35729
 H176 H 0.01427 0.70240 0.39644
 H177 H -0.01751 0.79273 0.39788
 H178 H 0.04255 0.73116 0.35544
 H179 H -0.07580 0.67580 0.37677
 H180 H 0.07149 0.82035 0.37522
 C181 C 0.46032 0.24645 0.86471
 C182 C 0.48870 0.23970 0.87601
 C183 C 0.49454 0.21092 0.88671
 C184 C 0.47238 0.18883 0.88590
 C185 C 0.44399 0.19593 0.87472
 C186 C 0.43789 0.22471 0.86418
 C187 C 0.51237 0.26260 0.87642
 C188 C 0.50668 0.29102 0.88811
 C189 C 0.52913 0.31287 0.88842
 C190 C 0.55762 0.30584 0.87738
 C191 C 0.56348 0.27744 0.86571
 C192 C 0.54078 0.25602 0.86512
 H193 H 0.45587 0.26847 0.85581
 H194 H 0.51627 0.20591 0.89609
 H195 H 0.48488 0.29590 0.89740
 H196 H 0.54511 0.23430 0.85545
 H197 H 0.42665 0.17912 0.87418
 H198 H 0.57518 0.32241 0.87774
 C199 C 0.45994 0.75743 0.63602
 C200 C 0.48861 0.76324 0.62486
 C201 C 0.49507 0.79142 0.61297
 C202 C 0.47319 0.81370 0.61236
 C203 C 0.44453 0.80761 0.62335
 C204 C 0.43781 0.77948 0.63515
 C205 C 0.51182 0.73989 0.62566
 C206 C 0.50554 0.71110 0.61525
 C207 C 0.52744 0.68883 0.61610
 C208 C 0.55591 0.69552 0.62721
 C209 C 0.56249 0.72432 0.63742
 C210 C 0.54035 0.74635 0.63679
 H211 H 0.45499 0.73590 0.64582
 H212 H 0.51701 0.79587 0.60379
 H213 H 0.48375 0.70617 0.60596
 H214 H 0.54515 0.76839 0.64543
 H215 H 0.42753 0.82473 0.62277
 H216 H 0.57294 0.67842 0.62779
 C217 C 0.86274 1.03952 0.75849
 C218 C 0.87423 1.01103 0.76347
 C219 C 0.88652 1.00390 0.79120
 C220 C 0.88780 1.02514 0.81414
 C221 C 0.87591 1.05387 0.80896
 C222 C 0.86310 1.06097 0.78110
 C223 C 0.87392 0.98868 0.73948
 C224 C 0.88615 0.99549 0.71162
 C225 C 0.88710 0.97401 0.68887
 C226 C 0.87484 0.94550 0.69430
 C227 C 0.86210 0.93875 0.72226
 C228 C 0.86207 0.96036 0.74470
 H229 H 0.85300 1.04489 0.73701
 H230 H 0.89590 0.98190 0.79424
 H231 H 0.89571 1.01737 0.70833
 H232 H 0.85240 0.95522 0.76627
 H233 H 0.87669 1.07049 0.82645
 H234 H 0.87536 0.92874 0.67694
 C235 C 0.36194 0.54164 0.25584
 C236 C 0.37419 0.51373 0.26249
 C237 C 0.38648 0.50854 0.29067
 C238 C 0.38706 0.53117 0.31211
 C239 C 0.37441 0.55911 0.30544
 C240 C 0.36163 0.56431 0.27723
 C241 C 0.37468 0.49016 0.23971
 C242 C 0.38677 0.49604 0.21165
 C243 C 0.38783 0.47387 0.18970
 C244 C 0.37585 0.44545 0.19608
 C245 C 0.36339 0.43940 0.22439
 C246 C 0.36325 0.46191 0.24607
 H247 H 0.35216 0.54559 0.23407
 H248 H 0.39633 0.48703 0.29569
 H249 H 0.39597 0.51791 0.20745
 H250 H 0.35351 0.45799 0.26777
 H251 H 0.37453 0.57660 0.32200
 H252 H 0.37625 0.42819 0.17920
 C253 C 0.63564 1.04149 0.24357
 C254 C 0.62331 1.01340 0.23815
 C255 C 0.61106 1.00699 0.21022
 C256 C 0.61090 1.02842 0.18753
 C257 C 0.62372 1.05660 0.19297
 C258 C 0.63637 1.06307 0.22103
 C259 C 0.62385 0.99024 0.26136
 C260 C 0.61208 0.99588 0.28965
 C261 C 0.61165 0.97348 0.31147
 C262 C 0.62415 0.94532 0.30482
 C263 C 0.63634 0.93967 0.27639
 C264 C 0.63582 0.96224 0.25485
 H265 H 0.64549 1.04629 0.26512
 H266 H 0.60124 0.98528 0.20660
 H267 H 0.60250 1.01757 0.29442
 H268 H 0.64527 0.95848 0.23299
 H269 H 0.62386 1.07319 0.17545
 H270 H 0.62441 0.92781 0.32143
 C271 C 0.13823 0.53869 0.74377
 C272 C 0.12624 0.51053 0.73836
 C273 C 0.11373 0.50406 0.71065
 C274 C 0.11270 0.52571 0.68817
 C275 C 0.12499 0.55419 0.69369
 C276 C 0.13788 0.56074 0.72167
 C277 C 0.12605 0.48800 0.76211
 C278 C 0.11419 0.49503 0.79002
 C279 C 0.11321 0.47371 0.81279
 C280 C 0.12487 0.44498 0.80742
 C281 C 0.13723 0.43797 0.77935
 C282 C 0.13735 0.45951 0.75681
 H283 H 0.14836 0.54294 0.76522
 H284 H 0.10398 0.48229 0.70722
 H285 H 0.10496 0.51702 0.79346
 H286 H 0.14683 0.45424 0.73519
 H287 H 0.12442 0.57110 0.67645
 H288 H 0.12430 0.42839 0.82494
 C289 C 0.74559 0.86255 -0.03641
 C290 C 0.73936 0.87444 -0.00836
 C291 C 0.71136 0.88677 -0.00259
 C292 C 0.68949 0.88779 -0.02491
 C293 C 0.69588 0.87560 -0.05324
 C294 C 0.72410 0.86284 -0.05903
 C295 C 0.76271 0.87476 0.01463
 C296 C 0.79060 0.88700 0.00807
 C297 C 0.81346 0.88741 0.02942
 C298 C 0.80793 0.87491 0.05783
 C299 C 0.77978 0.86228 0.06441
 C300 C 0.75730 0.86271 0.04278
 H301 H 0.76724 0.85258 -0.04013
 H302 H 0.70725 0.89641 0.01911
 H303 H 0.79386 0.89684 -0.01369
 H304 H 0.73567 0.85297 0.04766
 H305 H 0.67911 0.87614 -0.07063
 H306 H 0.82535 0.87500 0.07457
 C307 C 0.24241 0.36089 0.45921
 C308 C 0.23613 0.37330 0.48715
 C309 C 0.20776 0.38504 0.49283
 C310 C 0.18577 0.38498 0.47065
 C311 C 0.19213 0.37216 0.44267
 C312 C 0.22053 0.35990 0.43698
 C313 C 0.25953 0.37461 0.51016
 C314 C 0.28732 0.38716 0.50341
 C315 C 0.30976 0.38889 0.52510
 C316 C 0.30435 0.37715 0.55372
 C317 C 0.27653 0.36415 0.56054
 C318 C 0.25415 0.36340 0.53876
 H319 H 0.26433 0.35158 0.45488
 H320 H 0.20303 0.39504 0.51433
 H321 H 0.29099 0.39615 0.48134
 H322 H 0.23272 0.35338 0.54388
 H323 H 0.17522 0.37185 0.42549
 H324 H 0.32173 0.37820 0.57046
 C325 C 0.25499 0.63340 -0.04213
 C326 C 0.26184 0.62090 -0.01442
 C327 C 0.29028 0.60920 -0.00933
 C328 C 0.31193 0.60953 -0.03182
 C329 C 0.30508 0.62258 -0.05963
 C330 C 0.27650 0.63478 -0.06480
 C331 C 0.23942 0.62094 0.00956
 C332 C 0.21092 0.60926 0.00449
 C333 C 0.18925 0.60966 0.02703
 C334 C 0.19626 0.62276 0.05478
 C335 C 0.22485 0.63482 0.05989
 C336 C 0.24635 0.63342 0.03726
 H337 H 0.23306 0.64289 -0.04544
 H338 H 0.29548 0.59940 0.01216
 H339 H 0.20576 0.59943 -0.01700
 H340 H 0.26829 0.64290 0.04062
 H341 H 0.32180 0.62346 -0.07705
 H342 H 0.17970 0.62380 0.07233
 C343 C 0.75630 0.13766 0.46083
 C344 C 0.76087 0.12611 0.48940
 C345 C 0.78827 0.11304 0.49663
 C346 C 0.81125 0.11115 0.47545
 C347 C 0.80654 0.12314 0.44673
 C348 C 0.77907 0.13668 0.43948
 C349 C 0.73701 0.12748 0.51192
 C350 C 0.70868 0.11596 0.50562
 C351 C 0.68637 0.11569 0.52749
 C352 C 0.69238 0.12804 0.55580
 C353 C 0.72076 0.14012 0.56208
 C354 C 0.74292 0.13943 0.54012
 H355 H 0.73513 0.14805 0.45537
 H356 H 0.79109 0.10373 0.51869
 H357 H 0.70427 0.10626 0.48392
 H358 H 0.76483 0.14854 0.54491
 H359 H 0.82415 0.12195 0.43023
 H360 H 0.67525 0.12809 0.57278
 C361 C 1.03839 0.75435 0.86554
 C362 C 1.01108 0.76110 0.87902
 C363 C 1.00632 0.78946 0.89101
 C364 C 1.02886 0.81114 0.89008
 C365 C 1.05624 0.80430 0.87600
 C366 C 1.06100 0.77583 0.86355
 C367 C 0.98740 0.73841 0.88026
 C368 C 0.99332 0.71036 0.89255
 C369 C 0.97119 0.68828 0.89332
 C370 C 0.94292 0.69443 0.88081
 C371 C 0.93699 0.72256 0.86808
 C372 C 0.95920 0.74450 0.86837
 H373 H 1.04149 0.73245 0.85597
 H374 H 0.98514 0.79445 0.90163
 H375 H 1.01521 0.70585 0.90187
 H376 H 0.95482 0.76610 0.85844
 H377 H 1.07379 0.82083 0.87462
 H378 H 0.92574 0.67750 0.88076
 C379 C 0.54136 0.25816 0.36475
 C380 C 0.51344 0.26504 0.37675
 C381 C 0.50823 0.29333 0.38856
 C382 C 0.53093 0.31475 0.38890
 C383 C 0.55903 0.30786 0.37647
 C384 C 0.56426 0.27939 0.36423
 C385 C 0.48978 0.24236 0.37688
 C386 C 0.49566 0.21404 0.38828
 C387 C 0.47385 0.19172 0.38772
 C388 C 0.44563 0.19813 0.37525
 C389 C 0.43959 0.22675 0.36357
 C390 C 0.46179 0.24872 0.36483
 H391 H 0.54472 0.23633 0.35513
 H392 H 0.48660 0.29851 0.39812
 H393 H 0.51729 0.20985 0.39809
 H394 H 0.45793 0.27062 0.35555
 H395 H 0.57664 0.32438 0.37624
 H396 H 0.42860 0.18099 0.37451
 C397 C 1.04146 0.24195 0.63490
 C398 C 1.01341 0.23569 0.62280
 C399 C 1.00773 0.20760 0.61055
 C400 C 1.03005 0.18573 0.60992
 C401 C 1.05820 0.19207 0.62255
 C402 C 1.06382 0.22023 0.63526
 C403 C 0.98996 0.25859 0.62312
 C404 C 0.99573 0.28685 0.61149
 C405 C 0.97376 0.30913 0.61185
 C406 C 0.94557 0.30257 0.62446
 C407 C 0.93972 0.27403 0.63644
 C408 C 0.96205 0.25222 0.63534
 H409 H 1.04570 0.26362 0.64474
 H410 H 0.98598 0.20297 0.60096
 H411 H 1.01733 0.29087 0.60150
 H412 H 0.95829 0.23034 0.64472
 H413 H 1.07555 0.17532 0.62261
 H414 H 0.92833 0.31951 0.62503
 C415 C 0.53709 0.74751 0.13556
 C416 C 0.50912 0.74090 0.12354
 C417 C 0.50355 0.71259 0.11191
 C418 C 0.52583 0.69068 0.11184
 C419 C 0.55401 0.69739 0.12431
 C420 C 0.55967 0.72592 0.13641
 C421 C 0.48560 0.76374 0.12293
 C422 C 0.49134 0.79166 0.11029
 C423 C 0.46902 0.81342 0.10919
 C424 C 0.44080 0.80734 0.12164
 C425 C 0.43503 0.77939 0.13472
 C426 C 0.45740 0.75763 0.13489
 H427 H 0.54074 0.76941 0.14491
 H428 H 0.48192 0.70820 0.10220
 H429 H 0.51310 0.79627 0.10073
 H430 H 0.45305 0.73609 0.14497
 H431 H 0.57135 0.68056 0.12462
 H432 H 0.42357 0.82419 0.12118
 O433 O -0.02485 0.99077 0.91762
 O434 O 0.02263 1.01565 0.91477
 O435 O -0.00399 0.91567 0.97593
 O436 O 0.01079 0.90798 1.02215
 O437 O -0.08222 0.97349 0.99496
 O438 O -0.08649 1.02263 1.01459
 O439 O 0.06984 0.99720 1.05600
 O440 O 0.07511 0.95213 1.02899
 O441 O 0.05788 1.06584 0.99753
 O442 O 0.02373 1.07114 0.95039
 O443 O 0.00016 1.05587 1.06697
 O444 O -0.04510 1.02389 1.07629
 O445 O 0.02859 1.01085 1.08246
 O446 O -0.02140 0.98778 1.08945
 O447 O 0.01281 1.08197 1.02529
 O448 O -0.00925 1.08848 0.97706
 O449 O 0.08417 1.02497 1.01221
 O450 O 0.08737 0.97789 0.98301
 O451 O -0.06539 1.00559 0.94453
 O452 O -0.07479 1.04549 0.97669
 O453 O -0.05541 0.93258 1.00843
 O454 O -0.02138 0.92621 1.05037
 O455 O 0.00654 0.94226 0.93391
 O456 O 0.05016 0.97262 0.92938
 Zr457 Zr 0.00942 0.98627 0.94958
 O458 O 0.03814 1.01363 0.97492
 Zr459 Zr -0.01105 0.94783 1.00967
 O460 O 0.01671 0.97370 1.03747
 Zr461 Zr -0.05006 1.00725 0.98886
 O462 O -0.02399 1.03598 1.01539
 Zr463 Zr 0.05277 0.99045 1.01282
 O464 O 0.02683 0.96184 0.98590
 Zr465 Zr 0.01391 1.04995 0.99145
 O466 O -0.01420 1.02420 0.96386
 Zr467 Zr -0.00661 1.01190 1.05164
 O468 O -0.03553 0.98404 1.02685
 O469 O -0.02781 0.96995 0.97252
 O470 O 0.03032 1.02778 1.02863
 C471 C -0.05197 0.99995 0.91987
 C472 C 0.00315 0.91770 0.94818
 C473 C -0.08007 0.94631 1.00376
 C474 C 0.05662 1.00555 1.08003
 C475 C 0.08189 1.05277 1.00618
 C476 C 0.00787 1.07986 1.05334
 H477 H 0.05527 1.02007 0.96256
 H478 H -0.03624 1.05308 1.02199
 H479 H -0.04070 0.95706 0.96002
 H480 H 0.02387 0.96154 1.05442
 H481 H 0.07186 0.93619 1.01406
 H482 H 0.03011 0.91386 1.03101
 H483 H -0.02831 1.08933 0.98817
 H484 H -0.06153 1.05764 0.96387
 H485 H 0.10661 0.97962 0.99381
 H486 H 0.04618 0.96541 0.90886
 H487 H -0.05338 1.04232 1.06744
 H488 H -0.08473 1.01297 1.03436
 H489 H 0.02015 1.00553 0.89526
 H490 H 0.04437 1.06572 0.94468
 H491 H -0.03703 0.93826 1.06025
 H492 H -0.00793 0.97050 1.09209
 O493 O 0.49208 0.41914 0.47455
 O494 O 0.51582 0.41615 0.52232
 O495 O 0.41584 0.47696 0.49464
 O496 O 0.40785 0.52299 0.51022
 O497 O 0.47406 0.49656 0.41732
 O498 O 0.52307 0.51679 0.41353
 O499 O 0.49630 0.55709 0.56968
 O500 O 0.45136 0.52965 0.57457
 O501 O 0.56561 0.49921 0.55779
 O502 O 0.57130 0.45217 0.52351
 O503 O 0.55548 0.56884 0.50080
 O504 O 0.52392 0.57816 0.45522
 O505 O 0.51009 0.58384 0.52869
 O506 O 0.48736 0.59092 0.47865
 O507 O 0.58183 0.52721 0.51304
 O508 O 0.58879 0.47913 0.49087
 O509 O 0.52444 0.51349 0.58392
 O510 O 0.47744 0.48393 0.58678
 O511 O 0.50630 0.44657 0.43414
 O512 O 0.54628 0.47897 0.42526
 O513 O 0.43276 0.50899 0.44411
 O514 O 0.42602 0.55132 0.47768
 O515 O 0.44245 0.43501 0.50541
 O516 O 0.47253 0.43056 0.54935
 Zr517 Zr 0.48649 0.45090 0.50882
 O518 O 0.51356 0.47628 0.53776
 Zr519 Zr 0.44786 0.51085 0.48839
 O520 O 0.47336 0.53868 0.51640
 Zr521 Zr 0.50767 0.49072 0.44968
 O522 O 0.53612 0.51726 0.47602
 Zr523 Zr 0.49001 0.51395 0.55240
 O524 O 0.46169 0.48697 0.52620
 Zr525 Zr 0.54997 0.49318 0.51381
 O526 O 0.52451 0.46562 0.48548
 Zr527 Zr 0.51166 0.55323 0.49342
 O528 O 0.48409 0.52846 0.46421
 O529 O 0.47036 0.47392 0.47165
 O530 O 0.52743 0.53011 0.53027
 C531 C 0.50131 0.42175 0.44750
 C532 C 0.41786 0.44920 0.50158
 C533 C 0.44663 0.50465 0.41949
 C534 C 0.50462 0.58122 0.55664
 C535 C 0.55235 0.50769 0.58173
 C536 C 0.57955 0.55529 0.50848
 H537 H 0.52000 0.46390 0.55485
 H538 H 0.55329 0.52403 0.46394
 H539 H 0.45768 0.46133 0.45865
 H540 H 0.46101 0.55550 0.52354
 H541 H 0.43549 0.51469 0.57100
 H542 H 0.41366 0.53246 0.52925
 H543 H 0.58972 0.49033 0.47190
 H544 H 0.55832 0.46599 0.43846
 H545 H 0.47904 0.49465 0.60605
 H546 H 0.46523 0.41008 0.54526
 H547 H 0.54256 0.56953 0.44714
 H548 H 0.51323 0.53646 0.41535
 H549 H 0.50576 0.39662 0.51971
 H550 H 0.56594 0.44642 0.54413
 H551 H 0.43807 0.56114 0.46200
 H552 H 0.46979 0.59320 0.49181
 O553 O 0.50296 -0.05513 0.56519
 O554 O 0.54676 -0.02534 0.57138
 O555 O 0.43179 0.00455 0.55435
 O556 O 0.42268 0.04597 0.52610
 O557 O 0.44284 -0.06632 0.49387
 O558 O 0.47464 -0.07315 0.45000
 O559 O 0.50698 0.08485 0.47290
 O560 O 0.48399 0.08967 0.51726
 O561 O 0.58216 0.02819 0.49058
 O562 O 0.58606 -0.02380 0.51189
 O563 O 0.52553 0.00926 0.41490
 O564 O 0.47330 -0.01252 0.41161
 O565 O 0.49341 0.05811 0.43185
 O566 O 0.45494 0.02706 0.41944
 O567 O 0.56660 -0.00343 0.44189
 O568 O 0.57765 -0.04310 0.47295
 O569 O 0.55466 0.06906 0.50273
 O570 O 0.52377 0.07183 0.54777
 O571 O 0.49046 -0.08162 0.52356
 O572 O 0.51228 -0.08698 0.47482
 O573 O 0.41608 -0.02531 0.50741
 O574 O 0.41150 0.02316 0.48317
 O575 O 0.47321 -0.00887 0.58066
 O576 O 0.52129 0.01736 0.58408
 Zr577 Zr 0.50757 -0.01126 0.54896
 O578 O 0.53551 0.01639 0.52347
 Zr579 Zr 0.44758 0.00913 0.51028
 O580 O 0.47332 0.03724 0.48314
 Zr581 Zr 0.48686 -0.04997 0.48920
 O582 O 0.51452 -0.02415 0.46148
 Zr583 Zr 0.51096 0.05243 0.50648
 O584 O 0.48340 0.02670 0.53507
 Zr585 Zr 0.55065 -0.00660 0.48578
 O586 O 0.52496 -0.03575 0.51278
 Zr587 Zr 0.49099 0.01358 0.44674
 O588 O 0.46189 -0.01409 0.47199
 O589 O 0.47075 -0.02747 0.52608
 O590 O 0.52833 0.03068 0.46894
 C591 C 0.49605 -0.07940 0.55157
 C592 C 0.44527 -0.00302 0.57851
 C593 C 0.41848 -0.05314 0.50140
 C594 C 0.49878 0.08272 0.44551
 C595 C 0.57955 0.05573 0.49809
 C596 C 0.55307 0.00149 0.41721
 H597 H 0.55203 0.02321 0.53642
 H598 H 0.52118 -0.03695 0.44483
 H599 H 0.45811 -0.04033 0.53878
 H600 H 0.46055 0.05397 0.47658
 H601 H 0.47212 0.08396 0.53500
 H602 H 0.42980 0.06388 0.51540
 H603 H 0.56493 -0.05678 0.46123
 H604 H 0.53111 -0.08658 0.48638
 H605 H 0.53066 0.09251 0.54398
 H606 H 0.51837 0.00686 0.60334
 H607 H 0.48708 -0.02943 0.40824
 H608 H 0.45809 -0.06178 0.44080
 H609 H 0.55595 -0.04122 0.55910
 H610 H 0.58891 -0.01033 0.52912
 H611 H 0.41121 0.00993 0.46550
 H612 H 0.44042 0.03733 0.43249
 O613 O 0.00421 0.44242 1.06810
 O614 O 0.04872 0.47154 1.07411
 O615 O -0.06564 0.50446 1.05903
 O616 O -0.07506 0.54546 1.03075
 O617 O -0.05678 0.43339 0.99707
 O618 O -0.02550 0.42650 0.95300
 O619 O 0.00901 0.58391 0.97761
 O620 O -0.01263 0.58827 1.02257
 O621 O 0.08401 0.52535 0.99344
 O622 O 0.08732 0.47326 1.01448
 O623 O 0.02645 0.50869 0.91864
 O624 O -0.02605 0.48771 0.91529
 O625 O -0.00439 0.55750 0.93629
 O626 O -0.04393 0.52729 0.92407
 O627 O 0.06743 0.49426 0.94486
 O628 O 0.07809 0.45427 0.97555
 O629 O 0.05741 0.56667 1.00615
 O630 O 0.02740 0.56940 1.05192
 O631 O -0.00928 0.41678 1.02625
 O632 O 0.01204 0.41167 0.97730
 O633 O -0.08264 0.47452 1.01193
 O634 O -0.08666 0.52336 0.98803
 O635 O -0.02451 0.48871 1.08448
 O636 O 0.02388 0.51439 1.08780
 Zr637 Zr 0.00945 0.48647 1.05240
 O638 O 0.03755 0.51404 1.02694
 Zr639 Zr -0.05056 0.50848 1.01465
 O640 O -0.02465 0.53649 0.98756
 Zr641 Zr -0.01255 0.44896 0.99239
 O642 O 0.01524 0.47461 0.96470
 Zr643 Zr 0.01350 0.55078 1.01062
 O644 O -0.01413 0.52509 1.03921
 Zr645 Zr 0.05189 0.49117 0.98887
 O646 O 0.02602 0.46213 1.01577
 Zr647 Zr -0.00775 0.51293 0.95075
 O648 O -0.03707 0.48548 0.97594
 O649 O -0.02792 0.47125 1.02974
 O650 O 0.03010 0.52910 0.97271
 C651 C -0.00334 0.41848 1.05421
 C652 C -0.05216 0.49590 1.08285
 C653 C -0.08079 0.44679 1.00522
 C654 C 0.00082 0.58202 0.95017
 C655 C 0.08198 0.55291 1.00106
 C656 C 0.05378 0.50016 0.92047
 H657 H 0.05434 0.52045 1.03975
 H658 H 0.02150 0.46190 0.94782
 H659 H -0.04069 0.45851 1.04243
 H660 H -0.03724 0.55347 0.98134
 H661 H -0.02435 0.58239 1.04035
 H662 H -0.06719 0.56347 1.02076
 H663 H 0.06504 0.44097 0.96375
 H664 H 0.03093 0.41150 0.98877
 H665 H 0.03473 0.58995 1.04824
 H666 H 0.02109 0.50360 1.10692
 H667 H -0.01258 0.47065 0.91155
 H668 H -0.04179 0.43839 0.94397
 H669 H 0.05738 0.45551 1.06165
 H670 H 0.09061 0.48658 1.03175
 H671 H -0.08739 0.51025 0.97028
 H672 H -0.05798 0.53792 0.93735
 O673 O 0.00513 0.41445 0.52648
 O674 O -0.02043 0.41208 0.47933
 O675 O 0.08061 0.47194 0.50568
 O676 O 0.08867 0.51805 0.49067
 O677 O 0.02340 0.49133 0.58405
 O678 O -0.02555 0.51129 0.58880
 O679 O -0.00018 0.55330 0.43268
 O680 O 0.04428 0.52552 0.42683
 O681 O -0.07000 0.49574 0.44489
 O682 O -0.07565 0.44843 0.47863
 O683 O -0.05859 0.56471 0.50212
 O684 O -0.02658 0.57332 0.54759
 O685 O -0.01344 0.57968 0.47406
 O686 O 0.00992 0.58603 0.52402
 O687 O -0.08544 0.52338 0.48992
 O688 O -0.09233 0.47502 0.51204
 O689 O -0.02907 0.51005 0.41839
 O690 O 0.01764 0.48011 0.41461
 O691 O -0.00951 0.44117 0.56716
 O692 O -0.04902 0.47383 0.57701
 O693 O 0.06436 0.50428 0.55696
 O694 O 0.07103 0.54633 0.52327
 O695 O 0.05346 0.43035 0.49484
 O696 O 0.02262 0.42630 0.45151
 Zr697 Zr 0.00951 0.44649 0.49238
 O698 O -0.01780 0.47226 0.46403
 Zr699 Zr 0.04882 0.50598 0.51283
 O700 O 0.02309 0.53420 0.48543
 Zr701 Zr -0.01070 0.48565 0.55214
 O702 O -0.03930 0.51270 0.52644
 Zr703 Zr 0.00581 0.50992 0.44942
 O704 O 0.03432 0.48256 0.47499
 Zr705 Zr -0.05381 0.48912 0.48859
 O706 O -0.02816 0.46106 0.51631
 Zr707 Zr -0.01483 0.54871 0.50905
 O708 O 0.01291 0.52344 0.53763
 O709 O 0.02632 0.46902 0.52956
 O710 O -0.03121 0.52606 0.47219
 C711 C -0.00395 0.41657 0.55360
 C712 C 0.07823 0.44430 0.49835
 C713 C 0.05073 0.49977 0.58167
 C714 C -0.00816 0.57734 0.44605
 C715 C -0.05699 0.50443 0.42088
 C716 C -0.08284 0.55143 0.49454
 H717 H -0.02454 0.46008 0.44691
 H718 H -0.05628 0.51948 0.53878
 H719 H 0.03917 0.45633 0.54229
 H720 H 0.03546 0.55103 0.47829
 H721 H 0.06005 0.51037 0.42999
 H722 H 0.08271 0.52731 0.47158
 H723 H -0.09313 0.48635 0.53094
 H724 H -0.06144 0.46127 0.56375
 H725 H 0.01583 0.49102 0.39546
 H726 H 0.02966 0.40569 0.45537
 H727 H -0.04531 0.56485 0.55565
 H728 H -0.01600 0.53109 0.58684
 H729 H -0.01050 0.39246 0.48166
 H730 H -0.07041 0.44278 0.45796
 H731 H 0.05919 0.55625 0.53905
 H732 H 0.02712 0.58862 0.51043
 O733 O 0.58361 0.97635 0.00601
 O734 O 0.58592 1.02378 -0.01927
 O735 O 0.52476 0.99608 0.08058
 O736 O 0.47831 1.01050 0.08819
 O737 O 0.50659 0.91801 0.02243
 O738 O 0.48760 0.91371 -0.02686
 O739 O 0.44381 1.06908 -0.00031
 O740 O 0.47097 1.07462 0.04457
 O741 O 0.50265 1.05828 -0.06927
 O742 O 0.55026 1.02487 -0.07473
 O743 O 0.43387 0.99972 -0.05959
 O744 O 0.42506 0.95428 -0.02792
 O745 O 0.41792 1.02765 -0.01442
 O746 O 0.41163 0.97750 0.00838
 O747 O 0.47542 1.01312 -0.08560
 O748 O 0.52400 0.99158 -0.09215
 O749 O 0.48750 1.08412 -0.02828
 O750 O 0.51668 1.08761 0.01878
 O751 O 0.55716 0.93555 -0.00894
 O752 O 0.52548 0.92629 -0.04953
 O753 O 0.49369 0.94474 0.06356
 O754 O 0.45073 0.97753 0.06989
 O755 O 0.56673 1.00789 0.05435
 O756 O 0.57114 1.05116 0.02372
 Zr757 Zr 0.55125 1.01028 0.01018
 O758 O 0.52549 1.03869 -0.01710
 Zr759 Zr 0.49125 0.98890 0.04836
 O760 O 0.46307 1.01629 0.02263
 Zr761 Zr 0.51269 0.95040 -0.01111
 O762 O 0.48581 0.97619 -0.03978
 Zr763 Zr 0.48733 1.05267 0.00611
 O764 O 0.51461 1.02707 0.03463
 Zr765 Zr 0.50930 1.01441 -0.05355
 O766 O 0.53729 0.98662 -0.02786
 Zr767 Zr 0.44926 0.99295 -0.01567
 O768 O 0.47442 0.96430 0.01209
 O769 O 0.52871 0.97277 0.02626
 O770 O 0.47183 1.03021 -0.03134
 C771 C 0.58166 0.94919 -0.00304
 C772 C 0.55238 1.00382 0.07879
 C773 C 0.49818 0.92015 0.04974
 C774 C 0.41994 1.05561 -0.00876
 C775 C 0.49364 1.08206 -0.05609
 C776 C 0.44740 1.00778 -0.08352
 H777 H 0.53764 1.05598 -0.02347
 H778 H 0.47938 0.96395 -0.05694
 H779 H 0.54134 0.96006 0.03920
 H780 H 0.44599 1.02313 0.03482
 H781 H 0.48591 1.07135 0.06051
 H782 H 0.46863 1.02940 0.08230
 H783 H 0.51315 0.97240 -0.09304
 H784 H 0.53848 0.93971 -0.06131
 H785 H 0.50561 1.10667 0.01709
 H786 H 0.59174 1.04737 0.03091
 H787 H 0.43405 0.94623 -0.04638
 H788 H 0.46765 0.91525 -0.01750
 H789 H 0.60550 1.02137 -0.00922
 H790 H 0.55577 1.04548 -0.06912
 H791 H 0.44125 0.96168 0.05780
 H792 H 0.40886 0.99075 0.02579
 O793 O 0.41785 0.52537 0.00734
 O794 O 0.41575 0.47768 -0.01667
 O795 O 0.47556 0.50580 0.08373
 O796 O 0.52183 0.49143 0.09223
 O797 O 0.49475 0.58347 0.02549
 O798 O 0.51502 0.58748 -0.02329
 O799 O 0.55718 0.43176 0.00427
 O800 O 0.52943 0.42672 0.04888
 O801 O 0.49948 0.44281 -0.06546
 O802 O 0.45219 0.47657 -0.07170
 O803 O 0.56861 0.50072 -0.05509
 O804 O 0.57730 0.54629 -0.02355
 O805 O 0.58364 0.47287 -0.00976
 O806 O 0.58999 0.52308 0.01317
 O807 O 0.52724 0.48783 -0.08162
 O808 O 0.47892 0.50948 -0.08897
 O809 O 0.51383 0.41696 -0.02419
 O810 O 0.48393 0.41399 0.02258
 O811 O 0.44489 0.56599 -0.00701
 O812 O 0.47764 0.57508 -0.04676
 O813 O 0.50779 0.55719 0.06686
 O814 O 0.55005 0.52362 0.07403
 O815 O 0.43389 0.49426 0.05692
 O816 O 0.42998 0.45072 0.02671
 Zr817 Zr 0.45008 0.49148 0.01304
 O818 O 0.47603 0.46276 -0.01373
 Zr819 Zr 0.50968 0.51275 0.05200
 O820 O 0.53801 0.48490 0.02681
 Zr821 Zr 0.48938 0.55097 -0.00799
 O822 O 0.51653 0.52486 -0.03611
 Zr823 Zr 0.51375 0.44860 0.01010
 O824 O 0.48629 0.47464 0.03808
 Zr825 Zr 0.49294 0.48678 -0.05004
 O826 O 0.46480 0.51485 -0.02490
 Zr827 Zr 0.55261 0.50789 -0.01142
 O828 O 0.52724 0.53694 0.01579
 O829 O 0.47259 0.52897 0.02928
 O830 O 0.52996 0.47076 -0.02724
 C831 C 0.42014 0.55239 -0.00204
 C832 C 0.44793 0.49816 0.08156
 C833 C 0.50308 0.58166 0.05284
 C834 C 0.58127 0.44493 -0.00406
 C835 C 0.50811 0.41899 -0.05209
 C836 C 0.55529 0.49281 -0.07919
 H837 H 0.46387 0.44552 -0.02020
 H838 H 0.52330 0.53697 -0.05324
 H839 H 0.45978 0.54184 0.04188
 H840 H 0.55484 0.47796 0.03928
 H841 H 0.51428 0.43013 0.06460
 H842 H 0.53089 0.47213 0.08665
 H843 H 0.48995 0.52857 -0.08985
 H844 H 0.46480 0.56172 -0.05878
 H845 H 0.49485 0.39482 0.02110
 H846 H 0.40930 0.45455 0.03363
 H847 H 0.56858 0.55437 -0.04214
 H848 H 0.53481 0.58576 -0.01361
 H849 H 0.39604 0.48006 -0.00686
 H850 H 0.44649 0.45599 -0.06617
 H851 H 0.55997 0.53922 0.06195
 H852 H 0.59258 0.50965 0.03048
 O853 O -0.08502 0.02354 0.50918
 O854 O -0.08747 -0.02400 0.48436
 O855 O -0.02603 0.00439 0.58376
 O856 O 0.02037 -0.01078 0.59113
 O857 O -0.00765 0.08192 0.52527
 O858 O 0.01094 0.08609 0.47590
 O859 O 0.05469 -0.06932 0.50267
 O860 O 0.02772 -0.07472 0.54768
 O861 O -0.00445 -0.05852 0.43395
 O862 O -0.05213 -0.02507 0.42875
 O863 O 0.06441 -0.00018 0.44305
 O864 O 0.07340 0.04543 0.47465
 O865 O 0.08057 -0.02798 0.48827
 O866 O 0.08711 0.02215 0.51082
 O867 O 0.02265 -0.01339 0.41730
 O868 O -0.02588 0.00809 0.41100
 O869 O 0.01082 -0.08435 0.47491
 O870 O -0.01813 -0.08770 0.52215
 O871 O -0.05855 0.06433 0.49423
 O872 O -0.02700 0.07351 0.45346
 O873 O 0.00546 0.05531 0.56642
 O874 O 0.04808 0.02240 0.57283
 O875 O -0.06804 -0.00755 0.55767
 O876 O -0.07236 -0.05117 0.52741
 Zr877 Zr -0.05263 -0.01033 0.51351
 O878 O -0.02705 -0.03883 0.48618
 Zr879 Zr 0.00752 0.01106 0.55138
 O880 O 0.03558 -0.01642 0.52555
 Zr881 Zr -0.01407 0.04945 0.49188
 O882 O 0.01263 0.02357 0.46314
 Zr883 Zr 0.01121 -0.05282 0.50925
 O884 O -0.01593 -0.02712 0.53785
 Zr885 Zr -0.01100 -0.01463 0.44960
 O886 O -0.03881 0.01324 0.47535
 Zr887 Zr 0.04927 0.00677 0.48708
 O888 O 0.02427 0.03550 0.51492
 O889 O -0.02998 0.02721 0.52938
 O890 O 0.02656 -0.03047 0.47164
 C891 C -0.08307 0.05068 0.50008
 C892 C -0.05369 -0.00324 0.58206
 C893 C 0.00096 0.07986 0.55252
 C894 C 0.07854 -0.05592 0.49404
 C895 C 0.00460 -0.08230 0.44712
 C896 C 0.05070 -0.00818 0.41919
 H897 H -0.03924 -0.05612 0.47991
 H898 H 0.01900 0.03575 0.44591
 H899 H -0.04253 0.04002 0.54229
 H900 H 0.05270 -0.02325 0.53767
 H901 H 0.01285 -0.07139 0.56369
 H902 H 0.03049 -0.02942 0.58516
 H903 H -0.01513 0.02733 0.41008
 H904 H -0.04015 0.06012 0.44182
 H905 H -0.00708 -0.10678 0.52044
 H906 H -0.09292 -0.04739 0.53473
 H907 H 0.06449 0.05331 0.45607
 H908 H 0.03100 0.08448 0.48502
 H909 H -0.10699 -0.02164 0.49455
 H910 H -0.05752 -0.04574 0.43427
 H911 H 0.05776 0.03793 0.56047
 H912 H 0.08986 0.00903 0.52834
 O913 O 0.72511 0.16624 0.25761
 O914 O 0.77240 0.16314 0.23261
 O915 O 0.74727 0.22335 0.33356
 O916 O 0.76311 0.26918 0.34163
 O917 O 0.66895 0.24417 0.27673
 O918 O 0.66434 0.26436 0.22797
 O919 O 0.82147 0.30359 0.25263
 O920 O 0.82696 0.27559 0.29699
 O921 O 0.80789 0.24631 0.18291
 O922 O 0.77321 0.19965 0.17739
 O923 O 0.75132 0.31623 0.19455
 O924 O 0.70656 0.32568 0.22714
 O925 O 0.78042 0.33068 0.23962
 O926 O 0.73079 0.33800 0.26315
 O927 O 0.76295 0.27478 0.16769
 O928 O 0.74026 0.22684 0.16089
 O929 O 0.83484 0.26021 0.22364
 O930 O 0.83834 0.23008 0.27020
 O931 O 0.68467 0.19408 0.24429
 O932 O 0.67552 0.22664 0.20444
 O933 O 0.69634 0.25655 0.31761
 O934 O 0.73090 0.29803 0.32423
 O935 O 0.75711 0.18154 0.30640
 O936 O 0.80047 0.17695 0.27549
 Zr937 Zr 0.75982 0.19773 0.26250
 O938 O 0.78853 0.22311 0.23511
 Zr939 Zr 0.74055 0.25757 0.30191
 O940 O 0.76838 0.28535 0.27612
 Zr941 Zr 0.70067 0.23810 0.24265
 O942 O 0.72670 0.26471 0.21399
 Zr943 Zr 0.80393 0.26049 0.25863
 O944 O 0.77796 0.23351 0.28719
 Zr945 Zr 0.76410 0.24048 0.19928
 O946 O 0.73598 0.21287 0.22500
 Zr947 Zr 0.74483 0.30036 0.23838
 O948 O 0.71589 0.27557 0.26622
 O949 O 0.72309 0.22093 0.27948
 O950 O 0.78127 0.27713 0.22177
 C951 C 0.69785 0.16911 0.24904
 C952 C 0.75401 0.19556 0.33116
 C953 C 0.67150 0.25244 0.30403
 C954 C 0.80845 0.32788 0.24479
 C955 C 0.83213 0.25461 0.19577
 C956 C 0.75845 0.30285 0.17025
 H957 H 0.80543 0.21066 0.22828
 H958 H 0.71434 0.27170 0.19713
 H959 H 0.71017 0.20843 0.29234
 H960 H 0.77589 0.30201 0.28846
 H961 H 0.82361 0.26044 0.31271
 H962 H 0.78238 0.27806 0.33560
 H963 H 0.72131 0.23815 0.16044
 H964 H 0.68838 0.21346 0.19226
 H965 H 0.85769 0.24068 0.26833
 H966 H 0.79632 0.15643 0.28263
 H967 H 0.69796 0.31721 0.20868
 H968 H 0.66651 0.28404 0.23771
 H969 H 0.76981 0.14355 0.24254
 H970 H 0.79382 0.19360 0.18254
 H971 H 0.71523 0.30825 0.31249
 H972 H 0.74436 0.34014 0.28042
 O973 O 0.75449 0.68260 0.69611
 O974 O 0.79818 0.67663 0.72613
 O975 O 0.68313 0.69383 0.75565
 O976 O 0.67384 0.72237 0.79676
 O977 O 0.69440 0.75408 0.68435
 O978 O 0.72640 0.79762 0.67712
 O979 O 0.75789 0.77592 0.83550
 O980 O 0.73498 0.73150 0.84055
 O981 O 0.83335 0.75804 0.77921
 O982 O 0.83765 0.73626 0.72761
 O983 O 0.77668 0.83333 0.75937
 O984 O 0.72449 0.83637 0.73751
 O985 O 0.74460 0.81678 0.80832
 O986 O 0.70612 0.82888 0.77716
 O987 O 0.81782 0.80636 0.74690
 O988 O 0.82901 0.77470 0.70755
 O989 O 0.80569 0.74616 0.82009
 O990 O 0.77499 0.70104 0.82313
 O991 O 0.74193 0.72403 0.66934
 O992 O 0.76398 0.77259 0.66366
 O993 O 0.66753 0.74065 0.72535
 O994 O 0.66274 0.76507 0.77366
 O995 O 0.72454 0.66742 0.74242
 O996 O 0.77257 0.66424 0.76887
 Zr997 Zr 0.75893 0.69912 0.73992
 O998 O 0.78676 0.72486 0.76747
 Zr999 Zr 0.69889 0.73793 0.75989
 O1000 O 0.72449 0.76530 0.78787
 Zr1001 Zr 0.73839 0.75860 0.70073
 O1002 O 0.76590 0.78653 0.72640
 Zr1003 Zr 0.76209 0.74211 0.80334
 O1004 O 0.73466 0.71329 0.77774
 Zr1005 Zr 0.80198 0.76238 0.74424
 O1006 O 0.77642 0.73513 0.71524
 Zr1007 Zr 0.74221 0.80150 0.76394
 O1008 O 0.71325 0.77603 0.73639
 O1009 O 0.72216 0.72188 0.72344
 O1010 O 0.77951 0.77949 0.78133
 C1011 C 0.74756 0.69606 0.67174
 C1012 C 0.69659 0.66962 0.74825
 C1013 C 0.67001 0.74668 0.69752
 C1014 C 0.74979 0.80332 0.83308
 C1015 C 0.83062 0.75079 0.80683
 C1016 C 0.80420 0.83104 0.75156
 H1017 H 0.80327 0.71200 0.77448
 H1018 H 0.77256 0.80307 0.71345
 H1019 H 0.70952 0.70913 0.71064
 H1020 H 0.71166 0.77197 0.80451
 H1021 H 0.72323 0.71365 0.83494
 H1022 H 0.68096 0.73311 0.81464
 H1023 H 0.81640 0.78654 0.69387
 H1024 H 0.78276 0.76097 0.66420
 H1025 H 0.78175 0.70501 0.84381
 H1026 H 0.76966 0.64490 0.75852
 H1027 H 0.73835 0.83971 0.72065
 H1028 H 0.70987 0.80701 0.68836
 H1029 H 0.80747 0.68886 0.71027
 H1030 H 0.84026 0.71902 0.74112
 H1031 H 0.66253 0.78270 0.76037
 H1032 H 0.69162 0.81592 0.78758
 O1033 O 0.30643 0.25451 0.81686
 O1034 O 0.27622 0.29798 0.82315
 O1035 O 0.24689 0.18324 0.80462
 O1036 O 0.20622 0.17384 0.77563
 O1037 O 0.31885 0.19542 0.74500
 O1038 O 0.32598 0.22764 0.70160
 O1039 O 0.16709 0.25823 0.72307
 O1040 O 0.16198 0.23507 0.76716
 O1041 O 0.22338 0.33372 0.74236
 O1042 O 0.27530 0.33776 0.76392
 O1043 O 0.24319 0.27800 0.66614
 O1044 O 0.26540 0.22658 0.66216
 O1045 O 0.19479 0.24613 0.68216
 O1046 O 0.22648 0.20704 0.67018
 O1047 O 0.25528 0.31893 0.69351
 O1048 O 0.29475 0.33004 0.72489
 O1049 O 0.18241 0.30593 0.75377
 O1050 O 0.17933 0.27449 0.79831
 O1051 O 0.33351 0.24269 0.77539
 O1052 O 0.33927 0.26512 0.72699
 O1053 O 0.27776 0.16827 0.75769
 O1054 O 0.22949 0.16362 0.73293
 O1055 O 0.26012 0.22431 0.83148
 O1056 O 0.23351 0.27213 0.83512
 Zr1057 Zr 0.26264 0.25898 0.80017
 O1058 O 0.23506 0.28692 0.77464
 Zr1059 Zr 0.24301 0.19939 0.76064
 O1060 O 0.21496 0.22514 0.73349
 Zr1061 Zr 0.30223 0.23927 0.74066
 O1062 O 0.27652 0.26693 0.71289
 Zr1063 Zr 0.19923 0.26235 0.75705
 O1064 O 0.22491 0.23475 0.78561
 Zr1065 Zr 0.25841 0.30260 0.73733
 O1066 O 0.28745 0.27694 0.76445
 Zr1067 Zr 0.23906 0.24330 0.69761
 O1068 O 0.26669 0.21424 0.72282
 O1069 O 0.27936 0.22258 0.77711
 O1070 O 0.22138 0.28021 0.71994
 C1071 C 0.33093 0.24793 0.80343
 C1072 C 0.25419 0.19645 0.82899
 C1073 C 0.30569 0.17093 0.75203
 C1074 C 0.16985 0.25069 0.69553
 C1075 C 0.19577 0.33088 0.74969
 C1076 C 0.25050 0.30557 0.66870
 H1077 H 0.22804 0.30321 0.78773
 H1078 H 0.28942 0.27387 0.69640
 H1079 H 0.29214 0.20989 0.78982
 H1080 H 0.19837 0.21235 0.72663
 H1081 H 0.16761 0.22302 0.78479
 H1082 H 0.18827 0.18118 0.76512
 H1083 H 0.30876 0.31752 0.71334
 H1084 H 0.33855 0.28380 0.73871
 H1085 H 0.15861 0.28129 0.79443
 H1086 H 0.24382 0.26904 0.85447
 H1087 H 0.28260 0.24017 0.65954
 H1088 H 0.31470 0.21126 0.69200
 H1089 H 0.29225 0.30736 0.81119
 H1090 H 0.26171 0.34029 0.78112
 H1091 H 0.24282 0.16376 0.71531
 H1092 H 0.21474 0.19315 0.68266
 O1093 O 0.19136 0.74601 0.31567
 O1094 O 0.22143 0.70244 0.32138
 O1095 O 0.25099 0.81734 0.30448
 O1096 O 0.29162 0.82721 0.27556
 O1097 O 0.17901 0.80614 0.24459
 O1098 O 0.17182 0.77468 0.20084
 O1099 O 0.33071 0.74320 0.22196
 O1100 O 0.33577 0.76582 0.26644
 O1101 O 0.27412 0.66774 0.23969
 O1102 O 0.22262 0.66319 0.26132
 O1103 O 0.25514 0.72451 0.16473
 O1104 O 0.23281 0.77573 0.16097
 O1105 O 0.30318 0.75608 0.18118
 O1106 O 0.27116 0.79586 0.16997
 O1107 O 0.24232 0.68335 0.19144
 O1108 O 0.20231 0.67227 0.22307
 O1109 O 0.31514 0.69531 0.25143
 O1110 O 0.31831 0.72580 0.29679
 O1111 O 0.16429 0.75847 0.27438
 O1112 O 0.15858 0.73669 0.22559
 O1113 O 0.22010 0.83307 0.25775
 O1114 O 0.26847 0.83798 0.23302
 O1115 O 0.23768 0.77590 0.33075
 O1116 O 0.26426 0.72798 0.33363
 Zr1117 Zr 0.23511 0.74172 0.29893
 O1118 O 0.26259 0.71407 0.27298
 Zr1119 Zr 0.25484 0.80186 0.26024
 O1120 O 0.28293 0.77645 0.23275
 Zr1121 Zr 0.19558 0.76236 0.23967
 O1122 O 0.22128 0.73513 0.21146
 Zr1123 Zr 0.29847 0.73883 0.25578
 O1124 O 0.27288 0.76610 0.28472
 Zr1125 Zr 0.23918 0.69905 0.23545
 O1126 O 0.21025 0.72435 0.26297
 Zr1127 Zr 0.25884 0.75889 0.19659
 O1128 O 0.23118 0.78758 0.22220
 O1129 O 0.21846 0.77848 0.27637
 O1130 O 0.27629 0.72162 0.21844
 C1131 C 0.16687 0.75282 0.30234
 C1132 C 0.24368 0.80378 0.32867
 C1133 C 0.19217 0.83051 0.25201
 C1134 C 0.32807 0.75102 0.19450
 C1135 C 0.30177 0.67046 0.24687
 C1136 C 0.24770 0.69693 0.16688
 H1137 H 0.26961 0.69754 0.28577
 H1138 H 0.20844 0.72847 0.19482
 H1139 H 0.20570 0.79101 0.28926
 H1140 H 0.29961 0.78926 0.22611
 H1141 H 0.33014 0.77755 0.28427
 H1142 H 0.30962 0.81979 0.26517
 H1143 H 0.18901 0.68470 0.21062
 H1144 H 0.15926 0.71786 0.23710
 H1145 H 0.33897 0.71892 0.29273
 H1146 H 0.25399 0.73081 0.35304
 H1147 H 0.21544 0.76235 0.15839
 H1148 H 0.18337 0.79089 0.19126
 H1149 H 0.20554 0.69316 0.30917
 H1150 H 0.23597 0.66072 0.27872
 H1151 H 0.25515 0.83810 0.21539
 H1152 H 0.28366 0.80907 0.18244
 O1153 O 0.22386 0.66741 0.75506
 O1154 O 0.27136 0.66549 0.73005
 O1155 O 0.24354 0.72460 0.83092
 O1156 O 0.25802 0.77093 0.83937
 O1157 O 0.16544 0.74347 0.77313
 O1158 O 0.16117 0.76411 0.72440
 O1159 O 0.31693 0.80689 0.75129
 O1160 O 0.32239 0.77917 0.79576
 O1161 O 0.30593 0.74929 0.68146
 O1162 O 0.27225 0.70204 0.67515
 O1163 O 0.24781 0.81811 0.69229
 O1164 O 0.20198 0.82627 0.72400
 O1165 O 0.27551 0.83311 0.73768
 O1166 O 0.22529 0.83907 0.76063
 O1167 O 0.26082 0.77697 0.66558
 O1168 O 0.23907 0.72863 0.65818
 O1169 O 0.33190 0.76362 0.72268
 O1170 O 0.33521 0.73381 0.76940
 O1171 O 0.18314 0.69399 0.74010
 O1172 O 0.17352 0.72685 0.70074
 O1173 O 0.19205 0.75625 0.81441
 O1174 O 0.22513 0.79887 0.82153
 O1175 O 0.25525 0.68325 0.80382
 O1176 O 0.29874 0.67962 0.77331
 Zr1177 Zr 0.25779 0.69962 0.76001
 O1178 O 0.28628 0.72575 0.73318
 Zr1179 Zr 0.23639 0.75878 0.79930
 O1180 O 0.26393 0.78735 0.77403
 Zr1181 Zr 0.19787 0.73854 0.73938
 O1182 O 0.22376 0.76588 0.71120
 Zr1183 Zr 0.30035 0.76340 0.75709
 O1184 O 0.27462 0.73571 0.78514
 Zr1185 Zr 0.26197 0.74259 0.69703
 O1186 O 0.23411 0.71425 0.72223
 Zr1187 Zr 0.24066 0.80190 0.73593
 O1188 O 0.21188 0.77631 0.76326
 O1189 O 0.22021 0.72181 0.77648
 O1190 O 0.27791 0.77956 0.71990
 C1191 C 0.19681 0.66944 0.74565
 C1192 C 0.25124 0.69704 0.82856
 C1193 C 0.16746 0.75151 0.80057
 C1194 C 0.30353 0.83089 0.74318
 C1195 C 0.32980 0.75794 0.69477
 C1196 C 0.25582 0.80496 0.66813
 H1197 H 0.30357 0.71371 0.72662
 H1198 H 0.21155 0.77264 0.69414
 H1199 H 0.20746 0.70890 0.78911
 H1200 H 0.27083 0.80417 0.78651
 H1201 H 0.31907 0.76404 0.81150
 H1202 H 0.27702 0.78059 0.83365
 H1203 H 0.22004 0.73976 0.65727
 H1204 H 0.18699 0.71441 0.68844
 H1205 H 0.35436 0.74482 0.76784
 H1206 H 0.29499 0.65892 0.78013
 H1207 H 0.19408 0.81776 0.70524
 H1208 H 0.16280 0.78376 0.73429
 H1209 H 0.26902 0.64578 0.73981
 H1210 H 0.29284 0.69631 0.68073
 H1211 H 0.20937 0.80864 0.80954
 H1212 H 0.23857 0.84150 0.77808
 O1213 O 0.25527 0.18196 0.19184
 O1214 O 0.29948 0.17622 0.22125
 O1215 O 0.18487 0.19200 0.25299
 O1216 O 0.17511 0.22071 0.29357
 O1217 O 0.19464 0.25311 0.18129
 O1218 O 0.22605 0.29687 0.17403
 O1219 O 0.25936 0.27403 0.33216
 O1220 O 0.23726 0.22939 0.33692
 O1221 O 0.33437 0.25798 0.27460
 O1222 O 0.33868 0.23633 0.22306
 O1223 O 0.27712 0.33231 0.25662
 O1224 O 0.22509 0.33565 0.23522
 O1225 O 0.24601 0.31505 0.30524
 O1226 O 0.20633 0.32680 0.27427
 O1227 O 0.31819 0.30607 0.24253
 O1228 O 0.32902 0.27438 0.20279
 O1229 O 0.30755 0.24476 0.31564
 O1230 O 0.27717 0.19940 0.31853
 O1231 O 0.24210 0.22348 0.16550
 O1232 O 0.26385 0.27232 0.16001
 O1233 O 0.16834 0.23889 0.22240
 O1234 O 0.16395 0.26324 0.27098
 O1235 O 0.22608 0.16620 0.23803
 O1236 O 0.27438 0.16322 0.26420
 Zr1237 Zr 0.26018 0.19822 0.23567
 O1238 O 0.28812 0.22402 0.26307
 Zr1239 Zr 0.20007 0.23635 0.25668
 O1240 O 0.22579 0.26365 0.28463
 Zr1241 Zr 0.23872 0.25781 0.19720
 O1242 O 0.26622 0.28585 0.22278
 Zr1243 Zr 0.26375 0.24065 0.29946
 O1244 O 0.23625 0.21186 0.27391
 Zr1245 Zr 0.30271 0.26189 0.23993
 O1246 O 0.27710 0.23456 0.21106
 Zr1247 Zr 0.24291 0.30019 0.26078
 O1248 O 0.21388 0.27474 0.23331
 O1249 O 0.22302 0.22078 0.21984
 O1250 O 0.28057 0.27837 0.27752
 C1251 C 0.24789 0.19551 0.16765
 C1252 C 0.19834 0.16802 0.24489
 C1253 C 0.17048 0.24525 0.19461
 C1254 C 0.25119 0.30144 0.32992
 C1255 C 0.33216 0.25024 0.30213
 C1256 C 0.30452 0.33050 0.24830
 H1257 H 0.30485 0.21128 0.26975
 H1258 H 0.27259 0.30261 0.20996
 H1259 H 0.21031 0.20798 0.20715
 H1260 H 0.21309 0.27004 0.30148
 H1261 H 0.22549 0.21158 0.33122
 H1262 H 0.18288 0.23079 0.31157
 H1263 H 0.31628 0.28663 0.18959
 H1264 H 0.28263 0.26068 0.16014
 H1265 H 0.28423 0.20315 0.33916
 H1266 H 0.27153 0.14396 0.25370
 H1267 H 0.23849 0.33889 0.21798
 H1268 H 0.20989 0.30625 0.18581
 H1269 H 0.30851 0.18872 0.20544
 H1270 H 0.34145 0.21895 0.23636
 H1271 H 0.16344 0.28089 0.25772
 H1272 H 0.19267 0.31382 0.28574
 O1273 O 0.74314 0.68178 0.30792
 O1274 O 0.69881 0.67670 0.27820
 O1275 O 0.81407 0.69212 0.24841
 O1276 O 0.82381 0.72043 0.20724
 O1277 O 0.80370 0.75267 0.31959
 O1278 O 0.77232 0.79656 0.32679
 O1279 O 0.74093 0.77515 0.16822
 O1280 O 0.76253 0.73039 0.16322
 O1281 O 0.66488 0.75847 0.22488
 O1282 O 0.66034 0.73664 0.27657
 O1283 O 0.72250 0.83272 0.24387
 O1284 O 0.77421 0.83565 0.26606
 O1285 O 0.75423 0.81583 0.19566
 O1286 O 0.79350 0.82700 0.22724
 O1287 O 0.68108 0.80658 0.25718
 O1288 O 0.66938 0.77518 0.29639
 O1289 O 0.69204 0.74562 0.18396
 O1290 O 0.72248 0.70034 0.18100
 O1291 O 0.75601 0.72312 0.33468
 O1292 O 0.73433 0.77195 0.34031
 O1293 O 0.83034 0.73890 0.27856
 O1294 O 0.83541 0.76308 0.23013
 O1295 O 0.77227 0.66627 0.26158
 O1296 O 0.72411 0.66370 0.23539
 Zr1297 Zr 0.73840 0.69846 0.26416
 O1298 O 0.71094 0.72458 0.23658
 Zr1299 Zr 0.79893 0.73642 0.24403
 O1300 O 0.77370 0.76406 0.21601
 Zr1301 Zr 0.75978 0.75767 0.30326
 O1302 O 0.73270 0.78599 0.27757
 Zr1303 Zr 0.73575 0.74141 0.20054
 O1304 O 0.76279 0.71226 0.22624
 Zr1305 Zr 0.69628 0.76233 0.25981
 O1306 O 0.72142 0.73471 0.28883
 Zr1307 Zr 0.75655 0.80049 0.23996
 O1308 O 0.78513 0.77470 0.26755
 O1309 O 0.77549 0.72076 0.28052
 O1310 O 0.71892 0.77903 0.22259
 C1311 C 0.75037 0.69514 0.33226
 C1312 C 0.80026 0.66810 0.25583
 C1313 C 0.82797 0.74497 0.30639
 C1314 C 0.74933 0.80248 0.17081
 C1315 C 0.66728 0.75084 0.19734
 C1316 C 0.69499 0.83098 0.25179
 H1317 H 0.69424 0.71193 0.22966
 H1318 H 0.72624 0.80268 0.29042
 H1319 H 0.78804 0.70789 0.29327
 H1320 H 0.78666 0.77050 0.19938
 H1321 H 0.77426 0.71256 0.16891
 H1322 H 0.81676 0.73115 0.18930
 H1323 H 0.68228 0.78649 0.31025
 H1324 H 0.71552 0.76037 0.33991
 H1325 H 0.71556 0.70426 0.16035
 H1326 H 0.72667 0.64437 0.24584
 H1327 H 0.76054 0.83888 0.28309
 H1328 H 0.78876 0.80588 0.31533
 H1329 H 0.69002 0.68891 0.29435
 H1330 H 0.65741 0.71948 0.26302
 H1331 H 0.83582 0.78078 0.24331
 H1332 H 0.80712 0.81412 0.21562
 O1333 O 0.75416 0.31702 0.80788
 O1334 O 0.79862 0.32309 0.77866
 O1335 O 0.68414 0.30596 0.74682
 O1336 O 0.67500 0.27718 0.70601
 O1337 O 0.69460 0.24557 0.81856
 O1338 O 0.72625 0.20174 0.82567
 O1339 O 0.75947 0.22477 0.66765
 O1340 O 0.73706 0.26912 0.66283
 O1341 O 0.83448 0.24200 0.72521
 O1342 O 0.83820 0.26386 0.77696
 O1343 O 0.77801 0.16667 0.74406
 O1344 O 0.72549 0.16331 0.76494
 O1345 O 0.74673 0.18356 0.69460
 O1346 O 0.70779 0.17101 0.72506
 O1347 O 0.81887 0.19371 0.75731
 O1348 O 0.82950 0.22525 0.79674
 O1349 O 0.80754 0.25465 0.68410
 O1350 O 0.77657 0.29960 0.68116
 O1351 O 0.74181 0.27528 0.83426
 O1352 O 0.76382 0.22662 0.83982
 O1353 O 0.66815 0.25902 0.77731
 O1354 O 0.66404 0.23452 0.72882
 O1355 O 0.72521 0.33232 0.76121
 O1356 O 0.77362 0.33589 0.73564
 Zr1357 Zr 0.75959 0.30071 0.76406
 O1358 O 0.78781 0.27525 0.73665
 Zr1359 Zr 0.69990 0.26182 0.74305
 O1360 O 0.72597 0.23476 0.71522
 Zr1361 Zr 0.73868 0.24094 0.80257
 O1362 O 0.76661 0.21326 0.77707
 Zr1363 Zr 0.76367 0.25821 0.70030
 O1364 O 0.73584 0.28670 0.72582
 Zr1365 Zr 0.80282 0.23763 0.75985
 O1366 O 0.77685 0.26461 0.78873
 Zr1367 Zr 0.74354 0.19845 0.73909
 O1368 O 0.71410 0.22361 0.76646
 O1369 O 0.72265 0.27774 0.77986
 O1370 O 0.78095 0.22072 0.72229
 C1371 C 0.74705 0.30335 0.83210
 C1372 C 0.69744 0.33014 0.75462
 C1373 C 0.67036 0.25309 0.80519
 C1374 C 0.75155 0.19728 0.66988
 C1375 C 0.83222 0.24962 0.69765
 C1376 C 0.80541 0.16900 0.75230
 H1377 H 0.80439 0.28820 0.72995
 H1378 H 0.77314 0.19666 0.79001
 H1379 H 0.70981 0.29047 0.79248
 H1380 H 0.71333 0.22815 0.69842
 H1381 H 0.72504 0.28674 0.66853
 H1382 H 0.68266 0.26685 0.68810
 H1383 H 0.81674 0.21342 0.81030
 H1384 H 0.78253 0.23839 0.83971
 H1385 H 0.78371 0.29591 0.66054
 H1386 H 0.77059 0.35511 0.74616
 H1387 H 0.73894 0.16007 0.78214
 H1388 H 0.70980 0.19253 0.81416
 H1389 H 0.80753 0.31084 0.79472
 H1390 H 0.84104 0.28106 0.76344
 H1391 H 0.66368 0.21692 0.74214
 H1392 H 0.69326 0.18405 0.71478
 C1393 C 0.07271 1.04014 1.12465
 C1394 C 0.06828 1.02234 1.15382
 C1395 C 0.10232 1.02169 1.15809
 C1396 C 0.10695 1.03958 1.12912
 C1397 C 0.10447 0.99209 1.14079
 C1398 C 0.07018 0.99274 1.13631
 C1399 C 0.07469 1.01055 1.10742
 C1400 C 0.10876 1.00989 1.11141
 H1401 H 0.05947 1.05988 1.11768
 H1402 H 0.05166 1.02761 1.17142
 H1403 H 0.12211 1.05887 1.12578
 H1404 H 0.11775 0.97233 1.14760
 H1405 H 0.05495 0.97340 1.13898
 H1406 H 0.12519 1.00467 1.09363
 C1407 C 0.60436 0.50976 0.61314
 C1408 C 0.60423 0.53980 0.63027
 C1409 C 0.59872 0.52275 0.65957
 C1410 C 0.59912 0.49278 0.64282
 C1411 C 0.56476 0.52525 0.65536
 C1412 C 0.57008 0.54223 0.62585
 C1413 C 0.57038 0.51227 0.60918
 C1414 C 0.56493 0.49527 0.63839
 H1415 H 0.62043 0.50330 0.59544
 H1416 H 0.62050 0.55816 0.62683
 H1417 H 0.61129 0.47244 0.64997
 H1418 H 0.54858 0.53176 0.67294
 H1419 H 0.55795 0.56253 0.61851
 H1420 H 0.54862 0.47687 0.64142
 C1421 C 0.42918 -0.03768 0.62274
 C1422 C 0.43339 -0.02038 0.65221
 C1423 C 0.39932 -0.01984 0.65623
 C1424 C 0.39495 -0.03719 0.62693
 C1425 C 0.39732 0.01006 0.63943
 C1426 C 0.43165 0.00952 0.63518
 C1427 C 0.42733 -0.00778 0.60598
 C1428 C 0.39323 -0.00723 0.60974
 H1429 H 0.44249 -0.05730 0.61556
 H1430 H 0.44981 -0.02599 0.66988
 H1431 H 0.37980 -0.05645 0.62336
 H1432 H 0.38396 0.02965 0.64655
 H1433 H 0.44686 0.02882 0.63827
 H1434 H 0.37693 -0.00169 0.59194
 C1435 C -0.10291 0.49856 1.11636
 C1436 C -0.10653 0.46730 1.13069
 C1437 C -0.09758 0.48046 1.16111
 C1438 C -0.09423 0.51169 1.14719
 C1439 C -0.06452 0.47362 1.15504
 C1440 C -0.07327 0.46053 1.12444
 C1441 C -0.06982 0.49171 1.11057
 C1442 C -0.06094 0.50486 1.14090
 H1443 H -0.11848 0.50890 1.10012
 H1444 H -0.12540 0.45176 1.12664
 H1445 H -0.10304 0.53286 1.15649
 H1446 H -0.04885 0.46323 1.17116
 H1447 H -0.06447 0.43952 1.11472
 H1448 H -0.04204 0.52040 1.14479
 C1449 C -0.07062 0.49240 0.36441
 C1450 C -0.10493 0.49075 0.36035
 C1451 C -0.10392 0.52075 0.34362
 C1452 C -0.06986 0.52240 0.34747
 C1453 C -0.10872 0.53790 0.37300
 C1454 C -0.10939 0.50781 0.39011
 C1455 C -0.07532 0.50948 0.39370
 C1456 C -0.07445 0.53946 0.37705
 H1457 H -0.05483 0.47361 0.36118
 H1458 H -0.11769 0.47072 0.35335
 H1459 H -0.05366 0.52854 0.32976
 H1460 H -0.12445 0.55662 0.37686
 H1461 H -0.12543 0.50171 0.40797
 H1462 H -0.06173 0.55944 0.38427
 C1463 C 0.42976 1.04245 -0.12758
 C1464 C 0.43525 1.02567 -0.15719
 C1465 C 0.40132 1.02300 -0.16147
 C1466 C 0.39562 1.03985 -0.13208
 C1467 C 0.40099 0.99290 -0.14489
 C1468 C 0.43517 0.99557 -0.14036
 C1469 C 0.42957 1.01239 -0.11108
 C1470 C 0.39561 1.00970 -0.11513
 H1471 H 0.44177 1.06277 -0.12010
 H1472 H 0.45147 1.03237 -0.17467
 H1473 H 0.37924 1.05806 -0.12841
 H1474 H 0.38894 0.97250 -0.15206
 H1475 H 0.45158 0.97729 -0.14343
 H1476 H 0.37954 1.00307 -0.09749
 C1477 C 0.57140 0.45854 -0.12404
 C1478 C 0.56724 0.47656 -0.15310
 C1479 C 0.60131 0.47722 -0.15713
 C1480 C 0.60566 0.45913 -0.12826
 C1481 C 0.60335 0.50668 -0.13961
 C1482 C 0.56904 0.50603 -0.13538
 C1483 C 0.57333 0.48800 -0.10659
 C1484 C 0.60742 0.48867 -0.11035
 H1485 H 0.55809 0.43878 -0.11730
 H1486 H 0.55080 0.47144 -0.17091
 H1487 H 0.62080 0.43979 -0.12515
 H1488 H 0.61672 0.52644 -0.14626
 H1489 H 0.55384 0.52540 -0.13799
 H1490 H 0.62373 0.49374 -0.09241
 C1491 C 0.10225 -0.01063 0.38706
 C1492 C 0.10161 -0.04064 0.36990
 C1493 C 0.09591 -0.02350 0.34067
 C1494 C 0.09683 0.00644 0.35746
 C1495 C 0.06198 -0.02568 0.34531
 C1496 C 0.06749 -0.04276 0.37473
 C1497 C 0.06830 -0.01283 0.39146
 C1498 C 0.06267 0.00427 0.36233
 H1499 H 0.11861 -0.00437 0.40457
 H1500 H 0.11773 -0.05915 0.37314
 H1501 H 0.10911 0.02668 0.35020
 H1502 H 0.04552 -0.03201 0.32793
 H1503 H 0.05526 -0.06296 0.38219
 H1504 H 0.04652 0.02283 0.35954
 C1505 C 0.13869 1.06503 0.99388
 C1506 C 0.14335 1.09912 0.99091
 C1507 C 0.15997 1.09900 1.02099
 C1508 C 0.15554 1.06516 1.02396
 C1509 C 0.13056 1.10494 1.03782
 C1510 C 0.11356 1.10472 1.00767
 C1511 C 0.10937 1.07086 1.01065
 C1512 C 0.12592 1.07088 1.04070
 H1513 H 0.14172 1.04849 0.97572
 H1514 H 0.15058 1.11094 0.97039
 H1515 H 0.17297 1.04894 1.03079
 H1516 H 0.12696 1.12144 1.05590
 H1517 H 0.09596 1.12077 1.00090
 H1518 H 0.11839 1.05911 1.06115
 C1519 C 0.62456 0.57061 0.54294
 C1520 C 0.65362 0.56652 0.52485
 C1521 C 0.65787 0.60052 0.52468
 C1522 C 0.62900 0.60479 0.54285
 C1523 C 0.64033 0.60309 0.49526
 C1524 C 0.63588 0.56885 0.49541
 C1525 C 0.60709 0.57306 0.51352
 C1526 C 0.61106 0.60708 0.51333
 H1527 H 0.61772 0.55708 0.56252
 H1528 H 0.67135 0.54993 0.52974
 H1529 H 0.62599 0.61965 0.56241
 H1530 H 0.64706 0.61667 0.47568
 H1531 H 0.63839 0.55395 0.47582
 H1532 H 0.59321 0.62355 0.50849
 C1533 C 0.62517 0.42693 -0.03880
 C1534 C 0.65490 0.43217 -0.02209
 C1535 C 0.65898 0.39825 -0.01953
 C1536 C 0.62946 0.39280 -0.03632
 C1537 C 0.64245 0.39796 0.01061
 C1538 C 0.63813 0.43213 0.00805
 C1539 C 0.60870 0.42679 -0.00869
 C1540 C 0.61255 0.39284 -0.00611
 H1541 H 0.61772 0.43901 -0.05910
 H1542 H 0.67248 0.44829 -0.02880
 H1543 H 0.62562 0.37654 -0.05457
 H1544 H 0.64962 0.38583 0.03097
 H1545 H 0.64139 0.44844 0.02638
 H1546 H 0.59481 0.37688 0.00053
 C1547 C 0.12260 -0.07293 0.45909
 C1548 C 0.15222 -0.06731 0.47582
 C1549 C 0.15698 -0.10117 0.47803
 C1550 C 0.12754 -0.10697 0.46124
 C1551 C 0.14051 -0.10205 0.50817
 C1552 C 0.13553 -0.06795 0.50597
 C1553 C 0.10618 -0.07369 0.48922
 C1554 C 0.11067 -0.10757 0.49146
 H1555 H 0.11490 -0.06080 0.43892
 H1556 H 0.16951 -0.05083 0.46925
 H1557 H 0.12410 -0.12312 0.44281
 H1558 H 0.14809 -0.11423 0.52834
 H1559 H 0.13852 -0.05177 0.52445
 H1560 H 0.09325 -0.12394 0.49796
 C1561 C 0.38710 -0.10528 0.50439
 C1562 C 0.37059 -0.10458 0.53480
 C1563 C 0.34085 -0.09946 0.51831
 C1564 C 0.35697 -0.10049 0.48795
 C1565 C 0.34505 -0.06550 0.51998
 C1566 C 0.37496 -0.07044 0.53640
 C1567 C 0.39105 -0.07129 0.50607
 C1568 C 0.36142 -0.06625 0.48962
 H1569 H 0.40471 -0.12142 0.49786
 H1570 H 0.37469 -0.12040 0.55340
 H1571 H 0.34946 -0.11308 0.46800
 H1572 H 0.32762 -0.04919 0.52656
 H1573 H 0.38267 -0.05791 0.55632
 H1574 H 0.35795 -0.05039 0.47094
 C1575 C -0.12390 0.42839 1.04029
 C1576 C -0.15405 0.43415 1.02462
 C1577 C -0.15840 0.40031 1.02144
 C1578 C -0.12843 0.39438 1.03717
 C1579 C -0.14281 0.40068 0.99081
 C1580 C -0.13822 0.43477 0.99398
 C1581 C -0.10835 0.42888 1.00969
 C1582 C -0.11246 0.39503 1.00649
 H1583 H -0.11580 0.43998 1.06063
 H1584 H -0.17137 0.45012 1.03225
 H1585 H -0.12427 0.37768 1.05496
 H1586 H -0.15076 0.38904 0.97047
 H1587 H -0.14193 0.45151 0.97613
 H1588 H -0.09503 0.37914 0.99893
 C1589 C -0.11341 0.60370 0.48986
 C1590 C -0.13132 0.60195 0.46028
 C1591 C -0.16033 0.59817 0.47837
 C1592 C -0.14279 0.60025 0.50786
 C1593 C -0.15684 0.56409 0.47807
 C1594 C -0.12762 0.56766 0.46007
 C1595 C -0.11017 0.56960 0.48955
 C1596 C -0.13908 0.56591 0.50757
 H1597 H -0.09523 0.61977 0.49482
 H1598 H -0.12777 0.61681 0.44081
 H1599 H -0.14916 0.61388 0.52752
 H1600 H -0.17488 0.54785 0.47306
 H1601 H -0.12102 0.55409 0.44046
 H1602 H -0.14196 0.55097 0.52710
 C1603 C 0.36312 1.06761 0.00370
 C1604 C 0.35814 1.10172 0.00580
 C1605 C 0.34133 1.10063 -0.02416
 C1606 C 0.34608 1.06678 -0.02625
 C1607 C 0.37056 1.10643 -0.04134
 C1608 C 0.38777 1.10719 -0.01132
 C1609 C 0.39226 1.07330 -0.01343
 C1610 C 0.37551 1.07237 -0.04335
 H1611 H 0.36038 1.05152 0.02231
 H1612 H 0.35089 1.11400 0.02603
 H1613 H 0.32876 1.05021 -0.03252
 H1614 H 0.37394 1.12249 -0.05988
 H1615 H 0.40526 1.12358 -0.00510
 H1616 H 0.38301 1.06013 -0.06354
 C1617 C 0.01107 1.11169 1.10499
 C1618 C 0.04094 1.12918 1.10377
 C1619 C 0.02333 1.15824 1.09860
 C1620 C -0.00647 1.14113 1.10014
 C1621 C 0.02478 1.15382 1.06465
 C1622 C 0.04231 1.12456 1.06962
 C1623 C 0.01254 1.10751 1.07102
 C1624 C -0.00502 1.13647 1.06594
 H1625 H 0.00535 1.09403 1.12136
 H1626 H 0.05985 1.12578 1.11940
 H1627 H -0.02653 1.14808 1.11290
 H1628 H 0.03055 1.17133 1.04811
 H1629 H 0.06234 1.11740 1.05690
 H1630 H -0.02400 1.13914 1.05025
 C1631 C 0.50806 0.61251 0.60882
 C1632 C 0.53818 0.62961 0.60774
 C1633 C 0.52101 0.65892 0.60267
 C1634 C 0.49098 0.64224 0.60405
 C1635 C 0.52246 0.65460 0.56871
 C1636 C 0.53956 0.62511 0.57359
 C1637 C 0.50953 0.60848 0.57483
 C1638 C 0.49242 0.63772 0.56985
 H1639 H 0.50204 0.59486 0.62510
 H1640 H 0.55704 0.62615 0.62341
 H1641 H 0.47103 0.64952 0.61681
 H1642 H 0.52854 0.67211 0.55230
 H1643 H 0.55952 0.61773 0.56091
 H1644 H 0.47352 0.64075 0.55414
 C1645 C -0.04276 0.62162 0.42929
 C1646 C -0.02555 0.65097 0.43465
 C1647 C -0.02370 0.65565 0.40076
 C1648 C -0.04097 0.62647 0.39521
 C1649 C 0.00625 0.63883 0.39953
 C1650 C 0.00441 0.63395 0.43366
 C1651 C -0.01282 0.60486 0.42819
 C1652 C -0.01094 0.60925 0.39426
 H1653 H -0.06289 0.61418 0.44167
 H1654 H -0.03171 0.66834 0.45118
 H1655 H -0.05968 0.62330 0.37929
 H1656 H 0.02639 0.64612 0.38707
 H1657 H 0.02315 0.63671 0.44961
 H1658 H -0.00486 0.59174 0.37787
 C1659 C 0.45877 1.12603 -0.07338
 C1660 C 0.47560 1.15554 -0.06756
 C1661 C 0.47809 1.16034 -0.10140
 C1662 C 0.46117 1.13103 -0.10743
 C1663 C 0.50822 1.14378 -0.10213
 C1664 C 0.50573 1.13877 -0.06805
 C1665 C 0.48888 1.10955 -0.07396
 C1666 C 0.49138 1.11408 -0.10782
 H1667 H 0.43847 1.11837 -0.06140
 H1668 H 0.46898 1.17276 -0.05106
 H1669 H 0.44284 1.12760 -0.12372
 H1670 H 0.52858 1.15117 -0.11416
 H1671 H 0.52414 1.14163 -0.05173
 H1672 H 0.49794 1.09667 -0.12415
 C1673 C 0.51043 0.38747 -0.10391
 C1674 C 0.54056 0.37040 -0.10372
 C1675 C 0.52350 0.34107 -0.09817
 C1676 C 0.49345 0.35778 -0.09869
 C1677 C 0.52595 0.34532 -0.06426
 C1678 C 0.54292 0.37487 -0.06959
 C1679 C 0.51289 0.39149 -0.06998
 C1680 C 0.49589 0.36226 -0.06453
 H1681 H 0.50397 0.40514 -0.12000
 H1682 H 0.55894 0.37401 -0.11993
 H1683 H 0.47306 0.35070 -0.11087
 H1684 H 0.53246 0.32781 -0.04802
 H1685 H 0.56320 0.38227 -0.05745
 H1686 H 0.47743 0.35923 -0.04828
 C1687 C -0.00753 -0.13901 0.43484
 C1688 C -0.01001 -0.14369 0.40072
 C1689 C 0.02011 -0.16024 0.40125
 C1690 C 0.02260 -0.15577 0.43513
 C1691 C 0.03701 -0.13088 0.39552
 C1692 C 0.00681 -0.11393 0.39528
 C1693 C 0.00932 -0.10973 0.42919
 C1694 C 0.03943 -0.12621 0.42960
 H1695 H -0.02593 -0.14203 0.45115
 H1696 H -0.03033 -0.15108 0.38863
 H1697 H 0.02923 -0.17320 0.45141
 H1698 H 0.05536 -0.12742 0.37925
 H1699 H 0.00024 -0.09638 0.37912
 H1700 H 0.05972 -0.11867 0.44165
 C1701 C 0.50871 -0.13622 0.56492
 C1702 C 0.51005 -0.14027 0.59922
 C1703 C 0.47996 -0.15689 0.59804
 C1704 C 0.47862 -0.15310 0.56401
 C1705 C 0.46287 -0.12747 0.60262
 C1706 C 0.49300 -0.11047 0.60352
 C1707 C 0.49164 -0.10691 0.56948
 C1708 C 0.46158 -0.12349 0.56843
 H1709 H 0.52765 -0.13949 0.54929
 H1710 H 0.52994 -0.14740 0.61214
 H1711 H 0.47252 -0.17085 0.54787
 H1712 H 0.44399 -0.12366 0.61819
 H1713 H 0.49904 -0.09262 0.61957
 H1714 H 0.44166 -0.11628 0.55556
 C1715 C 0.00908 0.36145 1.06646
 C1716 C 0.01018 0.35652 1.10066
 C1717 C -0.01992 0.33996 1.09881
 C1718 C -0.02103 0.34463 1.06489
 C1719 C -0.03702 0.36930 1.10408
 C1720 C -0.00686 0.38624 1.10560
 C1721 C -0.00798 0.39067 1.07164
 C1722 C -0.03806 0.37415 1.06997
 H1723 H 0.02812 0.35855 1.05089
 H1724 H 0.03002 0.34911 1.11352
 H1725 H -0.02704 0.32736 1.04820
 H1726 H -0.05599 0.37292 1.11959
 H1727 H -0.00091 0.40367 1.12212
 H1728 H -0.05789 0.38173 1.05717
 C1729 C 0.76196 0.35499 0.13933
 C1730 C 0.79140 0.35360 0.12116
 C1731 C 0.77304 0.34941 0.09238
 C1732 C 0.74367 0.35112 0.11019
 C1733 C 0.77392 0.31535 0.09606
 C1734 C 0.79220 0.31935 0.12502
 C1735 C 0.76286 0.32092 0.14277
 C1736 C 0.74455 0.31680 0.11411
 H1737 H 0.75696 0.37108 0.15746
 H1738 H 0.81068 0.36878 0.12452
 H1739 H 0.72372 0.36439 0.10394
 H1740 H 0.77897 0.29910 0.07808
 H1741 H 0.81213 0.30610 0.13145
 H1742 H 0.72521 0.30153 0.11154
 C1743 C 0.26008 0.85719 0.63717
 C1744 C 0.28986 0.85562 0.61954
 C1745 C 0.27208 0.85132 0.59046
 C1746 C 0.24238 0.85318 0.60770
 C1747 C 0.27279 0.81729 0.59438
 C1748 C 0.29050 0.82140 0.62364
 C1749 C 0.26081 0.82313 0.64081
 C1750 C 0.24308 0.81890 0.61182
 H1751 H 0.25476 0.87340 0.65510
 H1752 H 0.30915 0.87079 0.62290
 H1753 H 0.22261 0.86647 0.60092
 H1754 H 0.27816 0.80095 0.57658
 H1755 H 0.31028 0.80816 0.63053
 H1756 H 0.22375 0.80368 0.60893
 C1757 C 0.71283 0.67889 0.62809
 C1758 C 0.72944 0.68375 0.59830
 C1759 C 0.73113 0.64978 0.59421
 C1760 C 0.71447 0.64476 0.62383
 C1761 C 0.76144 0.64882 0.61042
 C1762 C 0.75975 0.68305 0.61477
 C1763 C 0.74311 0.67806 0.64428
 C1764 C 0.74483 0.64407 0.64044
 H1765 H 0.69285 0.69145 0.63566
 H1766 H 0.72293 0.69997 0.58077
 H1767 H 0.69582 0.62893 0.62774
 H1768 H 0.78139 0.63620 0.60293
 H1769 H 0.77846 0.69892 0.61136
 H1770 H 0.75127 0.62797 0.65810
 C1771 C 0.24387 0.14348 0.13677
 C1772 C 0.21371 0.14484 0.11985
 C1773 C 0.23080 0.14902 0.09035
 C1774 C 0.26091 0.14740 0.10689
 C1775 C 0.23006 0.18308 0.09404
 C1776 C 0.21302 0.17905 0.12371
 C1777 C 0.24311 0.17756 0.14021
 C1778 C 0.26017 0.18172 0.11082
 H1779 H 0.24967 0.12740 0.15467
 H1780 H 0.19457 0.12961 0.12379
 H1781 H 0.28055 0.13412 0.09974
 H1782 H 0.22419 0.19927 0.07625
 H1783 H 0.19334 0.19227 0.13093
 H1784 H 0.27937 0.19701 0.10742
 C1785 C 0.24193 0.18324 0.88585
 C1786 C 0.23980 0.14900 0.88998
 C1787 C 0.27010 0.14950 0.90623
 C1788 C 0.27223 0.18347 0.90234
 C1789 C 0.28673 0.14447 0.87660
 C1790 C 0.25639 0.14425 0.85996
 C1791 C 0.25853 0.17824 0.85633
 C1792 C 0.28880 0.17861 0.87254
 H1793 H 0.22342 0.19931 0.88933
 H1794 H 0.21968 0.13657 0.89736
 H1795 H 0.27892 0.19949 0.91998
 H1796 H 0.30519 0.12844 0.87265
 H1797 H 0.24976 0.12834 0.84220
 H1798 H 0.30894 0.19099 0.86506
 C1799 C 0.75522 0.64293 0.36301
 C1800 C 0.78548 0.64474 0.37973
 C1801 C 0.76854 0.64864 0.40936
 C1802 C 0.73834 0.64655 0.39303
 C1803 C 0.76872 0.68271 0.40567
 C1804 C 0.78560 0.67896 0.37588
 C1805 C 0.75541 0.67701 0.35958
 C1806 C 0.73852 0.68088 0.38910
 H1807 H 0.74951 0.62676 0.34516
 H1808 H 0.80483 0.62985 0.37563
 H1809 H 0.71896 0.63296 0.40033
 H1810 H 0.77449 0.69899 0.42340
 H1811 H 0.80504 0.69249 0.36854
 H1812 H 0.71911 0.69585 0.39265
 C1813 C 0.25644 0.81612 0.38560
 C1814 C 0.25868 0.85028 0.39019
 C1815 C 0.22856 0.84961 0.40678
 C1816 C 0.22631 0.81570 0.40242
 C1817 C 0.21163 0.85511 0.37741
 C1818 C 0.24180 0.85551 0.36043
 C1819 C 0.23953 0.82158 0.35632
 C1820 C 0.20944 0.82103 0.37287
 H1821 H 0.27495 0.79995 0.38865
 H1822 H 0.27892 0.86255 0.39751
 H1823 H 0.21978 0.79943 0.41991
 H1824 H 0.19316 0.87123 0.37391
 H1825 H 0.24827 0.87167 0.34283
 H1826 H 0.18919 0.80881 0.36543
 C1827 C 0.74149 0.35517 0.86337
 C1828 C 0.71162 0.35255 0.88070
 C1829 C 0.72923 0.34876 0.90994
 C1830 C 0.75904 0.35166 0.89301
 C1831 C 0.72972 0.31473 0.90595
 C1832 C 0.71216 0.31837 0.87653
 C1833 C 0.74196 0.32113 0.85964
 C1834 C 0.75953 0.31737 0.88879
 H1835 H 0.74647 0.37162 0.84555
 H1836 H 0.69186 0.36704 0.87712
 H1837 H 0.77827 0.36560 0.90004
 H1838 H 0.72468 0.29817 0.92365
 H1839 H 0.69289 0.30449 0.86946
 H1840 H 0.77933 0.30281 0.89182
 C1841 C 0.82481 0.37287 0.21095
 C1842 C 0.82028 0.40173 0.22915
 C1843 C 0.85431 0.40608 0.23003
 C1844 C 0.85902 0.37739 0.21176
 C1845 C 0.85633 0.38837 0.25938
 C1846 C 0.82206 0.38384 0.25851
 C1847 C 0.82669 0.35522 0.24031
 C1848 C 0.86075 0.35925 0.24120
 H1849 H 0.81168 0.36618 0.19104
 H1850 H 0.80370 0.41941 0.22406
 H1851 H 0.87430 0.37456 0.19248
 H1852 H 0.86951 0.39501 0.27926
 H1853 H 0.80673 0.38620 0.27781
 H1854 H 0.87717 0.34142 0.24623
 C1855 C 0.35543 0.86264 0.74101
 C1856 C 0.35519 0.87947 0.71079
 C1857 C 0.34951 0.90891 0.72753
 C1858 C 0.35003 0.89247 0.75768
 C1859 C 0.31557 0.90444 0.72508
 C1860 C 0.32107 0.87481 0.70841
 C1861 C 0.32147 0.85843 0.73855
 C1862 C 0.31585 0.88778 0.75525
 H1863 H 0.37162 0.84512 0.74763
 H1864 H 0.37147 0.87595 0.69246
 H1865 H 0.36215 0.89991 0.77794
 H1866 H 0.29928 0.92184 0.71839
 H1867 H 0.30900 0.86721 0.68817
 H1868 H 0.29953 0.89089 0.77362
 C1869 C 0.17810 0.88715 0.23983
 C1870 C 0.14372 0.89109 0.23896
 C1871 C 0.14529 0.90758 0.26906
 C1872 C 0.17939 0.90388 0.26993
 C1873 C 0.14098 0.87805 0.28609
 C1874 C 0.13974 0.86117 0.25592
 C1875 C 0.17386 0.85773 0.25681
 C1876 C 0.17526 0.87418 0.28688
 H1877 H 0.19347 0.89057 0.22071
 H1878 H 0.13050 0.89821 0.21927
 H1879 H 0.19564 0.92160 0.27587
 H1880 H 0.12568 0.87392 0.30513
 H1881 H 0.12366 0.84328 0.25003
 H1882 H 0.18843 0.86693 0.30658
 C1883 C 0.67833 0.37302 0.78937
 C1884 C 0.68478 0.40314 0.77398
 C1885 C 0.65104 0.40782 0.76998
 C1886 C 0.64441 0.37788 0.78543
 C1887 C 0.65199 0.39240 0.73930
 C1888 C 0.68599 0.38748 0.74330
 C1889 C 0.67941 0.35763 0.75873
 C1890 C 0.64564 0.36206 0.75471
 H1891 H 0.68935 0.36473 0.80995
 H1892 H 0.70077 0.42024 0.78206
 H1893 H 0.62721 0.37388 0.80280
 H1894 H 0.64092 0.40052 0.71870
 H1895 H 0.70323 0.39111 0.72589
 H1896 H 0.62976 0.34483 0.74668
 C1897 C 0.68281 0.61282 0.76063
 C1898 C 0.64844 0.60885 0.76152
 C1899 C 0.64996 0.59229 0.73146
 C1900 C 0.68407 0.59602 0.73056
 C1901 C 0.64568 0.62177 0.71439
 C1902 C 0.64443 0.63871 0.74450
 C1903 C 0.67855 0.64220 0.74358
 C1904 C 0.67994 0.62567 0.71354
 H1905 H 0.69820 0.60946 0.77973
 H1906 H 0.63523 0.60168 0.78120
 H1907 H 0.70027 0.57826 0.72464
 H1908 H 0.63036 0.62568 0.69533
 H1909 H 0.62833 0.65658 0.75035
 H1910 H 0.69310 0.63289 0.69382
 C1911 C 0.17735 0.12597 0.20987
 C1912 C 0.18517 0.09543 0.22372
 C1913 C 0.15185 0.09017 0.23001
 C1914 C 0.14383 0.12052 0.21610
 C1915 C 0.15489 0.10461 0.26104
 C1916 C 0.18845 0.11011 0.25476
 C1917 C 0.18047 0.14036 0.24086
 C1918 C 0.14713 0.13534 0.24715
 H1919 H 0.18677 0.13509 0.18885
 H1920 H 0.20071 0.07881 0.21394
 H1921 H 0.12537 0.12473 0.20013
 H1922 H 0.14545 0.09584 0.28218
 H1923 H 0.20694 0.10613 0.27074
 H1924 H 0.13168 0.15207 0.25688
 C1925 C 0.32220 0.12683 0.78640
 C1926 C 0.31800 0.09738 0.76909
 C1927 C 0.35208 0.09344 0.76842
 C1928 C 0.35644 0.12273 0.78579
 C1929 C 0.35396 0.11027 0.73852
 C1930 C 0.31961 0.11444 0.73919
 C1931 C 0.32393 0.14363 0.75652
 C1932 C 0.35803 0.13997 0.75583
 H1933 H 0.30895 0.13393 0.80609
 H1934 H 0.30162 0.07967 0.77473
 H1935 H 0.37163 0.12639 0.80500
 H1936 H 0.36727 0.10318 0.71888
 H1937 H 0.30436 0.11134 0.71994
 H1938 H 0.37427 0.15781 0.75025
 C1939 C 0.81642 0.62418 0.29086
 C1940 C 0.81180 0.59446 0.27409
 C1941 C 0.84584 0.59028 0.27308
 C1942 C 0.85062 0.61982 0.28989
 C1943 C 0.84746 0.60661 0.24288
 C1944 C 0.81316 0.61103 0.24389
 C1945 C 0.81791 0.64047 0.26068
 C1946 C 0.85197 0.63653 0.25965
 H1947 H 0.80346 0.63174 0.31057
 H1948 H 0.79539 0.57695 0.28023
 H1949 H 0.86608 0.62361 0.30886
 H1950 H 0.86049 0.59919 0.22318
 H1951 H 0.79765 0.60774 0.22487
 H1952 H 0.86829 0.65414 0.25358
 C1953 C 0.86279 0.25674 0.14332
 C1954 C 0.87968 0.28693 0.14311
 C1955 C 0.90925 0.27017 0.14821
 C1956 C 0.89274 0.24004 0.14814
 C1957 C 0.90550 0.27272 0.18218
 C1958 C 0.87574 0.28942 0.17727
 C1959 C 0.85930 0.25931 0.17730
 C1960 C 0.88878 0.24258 0.18235
 H1961 H 0.84489 0.25008 0.12755
 H1962 H 0.87585 0.30521 0.12687
 H1963 H 0.89990 0.21974 0.13593
 H1964 H 0.92328 0.27944 0.19807
 H1965 H 0.86841 0.30969 0.18944
 H1966 H 0.89221 0.22427 0.19863
 C1967 C 0.36138 0.76083 0.64292
 C1968 C 0.37868 0.79079 0.64365
 C1969 C 0.40792 0.77351 0.64893
 C1970 C 0.39100 0.74363 0.64792
 C1971 C 0.40359 0.77540 0.68287
 C1972 C 0.37415 0.79262 0.67778
 C1973 C 0.35731 0.76275 0.67688
 C1974 C 0.38646 0.74551 0.68209
 H1975 H 0.34368 0.75475 0.62669
 H1976 H 0.37532 0.80945 0.62774
 H1977 H 0.39816 0.72350 0.63542
 H1978 H 0.42117 0.78153 0.69921
 H1979 H 0.36687 0.81272 0.69025
 H1980 H 0.38934 0.72681 0.69805
 C1981 C 0.36186 0.24462 0.85559
 C1982 C 0.37889 0.21455 0.85450
 C1983 C 0.40838 0.23166 0.85007
 C1984 C 0.39174 0.26168 0.85144
 C1985 C 0.40461 0.23055 0.81603
 C1986 C 0.37497 0.21350 0.82030
 C1987 C 0.35835 0.24349 0.82153
 C1988 C 0.38773 0.26058 0.81713
 H1989 H 0.34396 0.25053 0.87165
 H1990 H 0.37505 0.19559 0.86994
 H1991 H 0.39887 0.28146 0.86450
 H1992 H 0.42241 0.22458 0.79986
 H1993 H 0.36776 0.19369 0.80729
 H1994 H 0.39103 0.27960 0.80163
 C1995 C 0.88490 0.75684 0.31936
 C1996 C 0.88936 0.75863 0.35357
 C1997 C 0.90553 0.72834 0.35264
 C1998 C 0.90129 0.72654 0.31868
 C1999 C 0.87586 0.71177 0.35784
 C2000 C 0.85929 0.74213 0.35848
 C2001 C 0.85533 0.74031 0.32450
 C2002 C 0.87146 0.71004 0.32371
 H2003 H 0.88829 0.77546 0.30341
 H2004 H 0.89695 0.77858 0.36610
 H2005 H 0.91877 0.71995 0.30242
 H2006 H 0.87204 0.69320 0.37375
 H2007 H 0.84167 0.74866 0.37462
 H2008 H 0.86377 0.69007 0.31124
 C2009 C 0.13643 0.75561 0.35469
 C2010 C 0.11919 0.78557 0.35399
 C2011 C 0.08978 0.76827 0.34982
 C2012 C 0.10664 0.73836 0.35079
 C2013 C 0.09311 0.76964 0.31574
 C2014 C 0.12269 0.78688 0.31975
 C2015 C 0.13952 0.75700 0.32059
 C2016 C 0.11023 0.73972 0.31644
 H2017 H 0.15457 0.74973 0.37049
 H2018 H 0.12309 0.80445 0.36951
 H2019 H 0.09980 0.71845 0.36382
 H2020 H 0.07507 0.77559 0.29985
 H2021 H 0.12960 0.80682 0.30678
 H2022 H 0.10688 0.72079 0.30086
 C2023 C 0.63943 0.25713 0.85733
 C2024 C 0.62267 0.28735 0.85599
 C2025 C 0.59304 0.27047 0.85170
 C2026 C 0.60942 0.24031 0.85331
 C2027 C 0.59683 0.27126 0.81765
 C2028 C 0.62663 0.28809 0.82178
 C2029 C 0.64296 0.25794 0.82325
 C2030 C 0.61344 0.24110 0.81900
 H2031 H 0.65727 0.25117 0.87344
 H2032 H 0.62668 0.30641 0.87126
 H2033 H 0.60209 0.22071 0.86654
 H2034 H 0.57910 0.27727 0.80143
 H2035 H 0.63400 0.30773 0.80860
 H2036 H 0.60996 0.22198 0.80367
 C2037 C 0.62626 0.71217 0.67983
 C2038 C 0.59653 0.72874 0.68515
 C2039 C 0.59220 0.73103 0.65124
 C2040 C 0.62176 0.71440 0.64574
 C2041 C 0.60855 0.76125 0.65066
 C2042 C 0.61310 0.75897 0.68483
 C2043 C 0.64257 0.74237 0.67939
 C2044 C 0.63852 0.74467 0.64545
 H2045 H 0.63387 0.69199 0.69201
 H2046 H 0.57905 0.72202 0.70138
 H2047 H 0.62541 0.69602 0.62958
 H2048 H 0.60108 0.78142 0.63842
 H2049 H 0.60985 0.77739 0.70103
 H2050 H 0.65612 0.75133 0.62934
 C2051 C 0.11337 0.25703 0.18190
 C2052 C 0.10904 0.25947 0.14771
 C2053 C 0.09300 0.22908 0.14798
 C2054 C 0.09709 0.22663 0.18191
 C2055 C 0.12276 0.21278 0.14260
 C2056 C 0.13919 0.24322 0.14261
 C2057 C 0.14303 0.24075 0.17656
 C2058 C 0.12703 0.21038 0.17670
 H2059 H 0.10983 0.27531 0.19820
 H2060 H 0.10145 0.27964 0.13553
 H2061 H 0.07956 0.21964 0.19796
 H2062 H 0.12675 0.19455 0.12634
 H2063 H 0.15684 0.25015 0.12666
 H2064 H 0.13476 0.19022 0.18883
 C2065 C -0.08021 1.03688 0.88267
 C2066 C -0.06770 1.03194 0.85088
 C2067 C -0.09765 1.01790 0.84165
 C2068 C -0.11040 1.02293 0.87313
 C2069 C -0.08627 0.98666 0.85084
 C2070 C -0.05618 1.00075 0.86023
 C2071 C -0.06886 1.00573 0.89166
 C2072 C -0.09881 0.99172 0.88263
 H2073 H -0.07753 1.05750 0.89610
 H2074 H -0.05495 1.04861 0.83774
 H2075 H -0.13280 1.03217 0.87831
 H2076 H -0.08841 0.96519 0.83877
 H2077 H -0.03380 0.99153 0.85496
 H2078 H -0.11143 0.97507 0.89591
 C2079 C 0.39721 0.52108 0.38949
 C2080 C 0.40656 0.54634 0.36785
 C2081 C 0.40205 0.52492 0.34144
 C2082 C 0.39254 0.49971 0.36275
 C2083 C 0.43484 0.51474 0.34340
 C2084 C 0.43948 0.53608 0.37007
 C2085 C 0.42998 0.51090 0.39134
 C2086 C 0.42552 0.48948 0.36502
 H2087 H 0.38176 0.52350 0.40869
 H2088 H 0.39889 0.56981 0.36931
 H2089 H 0.37298 0.48486 0.35952
 H2090 H 0.45029 0.51233 0.32419
 H2091 H 0.45906 0.55092 0.37329
 H2092 H 0.43344 0.46606 0.36410
 C2093 C 0.60265 -0.01522 0.38733
 C2094 C 0.59324 -0.04096 0.36628
 C2095 C 0.59766 -0.02014 0.33937
 C2096 C 0.60727 0.00556 0.36008
 C2097 C 0.56486 -0.00986 0.34125
 C2098 C 0.56034 -0.03059 0.36842
 C2099 C 0.56990 -0.00491 0.38910
 C2100 C 0.57428 0.01588 0.36226
 H2101 H 0.61819 -0.01719 0.40652
 H2102 H 0.60081 -0.06442 0.36840
 H2103 H 0.62684 0.02033 0.35650
 H2104 H 0.54926 -0.00788 0.32212
 H2105 H 0.54076 -0.04533 0.37203
 H2106 H 0.56640 0.03929 0.36082
 C2107 C 0.05717 0.49893 0.86080
 C2108 C 0.08710 0.51288 0.85079
 C2109 C 0.09840 0.48154 0.84195
 C2110 C 0.06860 0.46764 0.85182
 C2111 C 0.11158 0.47703 0.87332
 C2112 C 0.10009 0.50837 0.88247
 C2113 C 0.07030 0.49448 0.89211
 C2114 C 0.08156 0.46319 0.88347
 H2115 H 0.03470 0.50807 0.85572
 H2116 H 0.08910 0.53406 0.83817
 H2117 H 0.05575 0.45073 0.83910
 H2118 H 0.13405 0.46787 0.87828
 H2119 H 0.11286 0.52526 0.89531
 H2120 H 0.07908 0.44279 0.89727
 C2121 C 0.05506 0.50198 0.64124
 C2122 C 0.08479 0.48733 0.65078
 C2123 C 0.09709 0.51842 0.65924
 C2124 C 0.06749 0.53303 0.64982
 C2125 C 0.10979 0.52241 0.62760
 C2126 C 0.09732 0.49133 0.61888
 C2127 C 0.06772 0.50591 0.60967
 C2128 C 0.07996 0.53695 0.61788
 H2129 H 0.03246 0.49347 0.64681
 H2130 H 0.08637 0.46608 0.66333
 H2131 H 0.05532 0.55033 0.66268
 H2132 H 0.13241 0.53095 0.62216
 H2133 H 0.10941 0.47404 0.60593
 H2134 H 0.07775 0.55732 0.60399
 C2135 C 0.55439 1.00655 0.13832
 C2136 C 0.58293 0.99068 0.14938
 C2137 C 0.59619 1.02127 0.15811
 C2138 C 0.56777 1.03711 0.14717
 C2139 C 0.61053 1.02435 0.12705
 C2140 C 0.59709 0.99376 0.11804
 C2141 C 0.56867 1.00958 0.10731
 C2142 C 0.58188 1.04012 0.11581
 H2143 H 0.53120 0.99914 0.14293
 H2144 H 0.58295 0.96963 0.16236
 H2145 H 0.55580 1.05505 0.15930
 H2146 H 0.63374 1.03180 0.12262
 H2147 H 0.60899 0.97582 0.10581
 H2148 H 0.58128 1.06041 0.10165
 C2149 C 0.41831 0.46160 0.11845
 C2150 C 0.43176 0.46517 0.15005
 C2151 C 0.40287 0.48064 0.16029
 C2152 C 0.38919 0.47700 0.12900
 C2153 C 0.41582 0.51136 0.15141
 C2154 C 0.44482 0.49584 0.14107
 C2155 C 0.43120 0.49228 0.10984
 C2156 C 0.40231 0.50771 0.11987
 H2157 H 0.41952 0.44117 0.10453
 H2158 H 0.44380 0.44754 0.16258
 H2159 H 0.36619 0.46911 0.12421
 H2160 H 0.41534 0.53266 0.16394
 H2161 H 0.46779 0.50370 0.14604
 H2162 H 0.39034 0.52533 0.10724
 C2163 C -0.08335 -0.03892 0.61954
 C2164 C -0.06974 -0.03520 0.65104
 C2165 C -0.09842 -0.01929 0.66121
 C2166 C -0.11227 -0.02309 0.63002
 C2167 C -0.08518 0.01121 0.65208
 C2168 C -0.05638 -0.00474 0.64174
 C2169 C -0.07016 -0.00848 0.61060
 C2170 C -0.09884 0.00739 0.62058
 H2171 H -0.08242 -0.05949 0.60582
 H2172 H -0.05781 -0.05283 0.66369
 H2173 H -0.13537 -0.03074 0.62534
 H2174 H -0.08546 0.03261 0.66447
 H2175 H -0.03328 0.00289 0.64651
 H2176 H -0.11064 0.02500 0.60780
 C2177 C -0.13968 0.94267 1.00508
 C2178 C -0.14940 0.91271 0.99111
 C2179 C -0.15871 0.90154 1.02241
 C2180 C -0.14910 0.93137 1.03634
 C2181 C -0.12733 0.88847 1.02745
 C2182 C -0.11774 0.89986 0.99617
 C2183 C -0.10834 0.92970 1.01003
 C2184 C -0.11739 0.91857 1.04127
 H2185 H -0.14474 0.96504 0.99578
 H2186 H -0.16137 0.91066 0.96956
 H2187 H -0.16210 0.94429 1.05299
 H2188 H -0.12238 0.86608 1.03676
 H2189 H -0.10461 0.88706 0.97953
 H2190 H -0.10386 0.92117 1.06184
 C2191 C 0.35819 0.44637 0.50375
 C2192 C 0.34753 0.41790 0.48750
 C2193 C 0.33888 0.40418 0.51790
 C2194 C 0.34938 0.43253 0.53411
 C2195 C 0.37016 0.39029 0.52094
 C2196 C 0.37912 0.40418 0.49053
 C2197 C 0.38942 0.43251 0.50675
 C2198 C 0.38094 0.41885 0.53710
 H2199 H 0.35330 0.46955 0.49659
 H2200 H 0.33447 0.41793 0.46649
 H2201 H 0.33699 0.44411 0.55215
 H2202 H 0.37488 0.36708 0.52813
 H2203 H 0.39161 0.39268 0.47251
 H2204 H 0.39501 0.41940 0.55746
 C2205 C 0.37135 0.55835 -0.03485
 C2206 C 0.34410 0.56288 -0.01421
 C2207 C 0.34170 0.59538 -0.02514
 C2208 C 0.36870 0.59097 -0.04587
 C2209 C 0.36232 0.60575 0.00035
 C2210 C 0.36497 0.57310 0.01133
 C2211 C 0.39191 0.56871 -0.00936
 C2212 C 0.38968 0.60117 -0.02033
 H2213 H 0.37525 0.53856 -0.04920
 H2214 H 0.32514 0.54709 -0.01190
 H2215 H 0.37038 0.59822 -0.06947
 H2216 H 0.35842 0.62552 0.01472
 H2217 H 0.36361 0.56568 0.03490
 H2218 H 0.40866 0.61693 -0.02262
 C2219 C -0.12067 0.09692 0.50930
 C2220 C -0.12992 0.10918 0.47828
 C2221 C -0.16145 0.09627 0.48278
 C2222 C -0.15252 0.08421 0.51382
 C2223 C -0.15204 0.06672 0.46813
 C2224 C -0.12022 0.07941 0.46370
 C2225 C -0.11143 0.06738 0.49466
 C2226 C -0.14291 0.05452 0.49913
 H2227 H -0.10752 0.10916 0.52634
 H2228 H -0.12471 0.13177 0.46960
 H2229 H -0.16489 0.08579 0.53519
 H2230 H -0.16506 0.05436 0.45107
 H2231 H -0.10660 0.07725 0.44313
 H2232 H -0.14816 0.03193 0.50779
 C2233 C 0.62803 0.06354 0.53051
 C2234 C 0.65542 0.06809 0.51005
 C2235 C 0.65706 0.10089 0.52017
 C2236 C 0.62989 0.09645 0.54069
 C2237 C 0.63656 0.11021 0.49419
 C2238 C 0.63462 0.07721 0.48403
 C2239 C 0.60753 0.07282 0.50456
 C2240 C 0.60905 0.10560 0.51468
 H2241 H 0.62437 0.04407 0.54535
 H2242 H 0.67471 0.05264 0.50837
 H2243 H 0.62763 0.10420 0.56408
 H2244 H 0.64025 0.12969 0.47936
 H2245 H 0.63637 0.06922 0.46067
 H2246 H 0.58975 0.12103 0.51637
 C2247 C 0.13121 0.55976 1.03247
 C2248 C 0.15822 0.56340 1.01134
 C2249 C 0.16095 0.59621 1.02115
 C2250 C 0.13418 0.59268 1.04238
 C2251 C 0.14010 0.60594 0.99559
 C2252 C 0.13706 0.57292 0.98575
 C2253 C 0.11037 0.56942 1.00694
 C2254 C 0.11297 0.60220 1.01678
 H2255 H 0.12735 0.54049 1.04754
 H2256 H 0.17701 0.54738 1.00932
 H2257 H 0.13253 0.60057 1.06577
 H2258 H 0.14394 0.62519 0.98051
 H2259 H 0.13802 0.56472 0.96242
 H2260 H 0.09412 0.61813 1.01878
 C2261 C 0.12709 0.43666 0.46602
 C2262 C 0.15427 0.43266 0.48687
 C2263 C 0.15631 0.39974 0.47729
 C2264 C 0.12937 0.40362 0.45636
 C2265 C 0.13556 0.39059 0.50313
 C2266 C 0.13323 0.42370 0.51276
 C2267 C 0.10637 0.42755 0.49183
 C2268 C 0.10828 0.39464 0.48224
 H2269 H 0.12343 0.45588 0.45085
 H2270 H 0.17341 0.44829 0.48859
 H2271 H 0.12747 0.39549 0.43307
 H2272 H 0.13924 0.37138 0.51830
 H2273 H 0.13460 0.43206 0.53601
 H2274 H 0.08912 0.37902 0.48053
 C2275 C 0.61878 0.90284 0.00686
 C2276 C 0.62881 0.89047 -0.02386
 C2277 C 0.66026 0.90327 -0.01859
 C2278 C 0.65050 0.91547 0.01215
 C2279 C 0.65130 0.93282 -0.03355
 C2280 C 0.61955 0.92023 -0.03876
 C2281 C 0.61003 0.93237 -0.00806
 C2282 C 0.64141 0.94514 -0.00285
 H2283 H 0.60517 0.89068 0.02361
 H2284 H 0.62381 0.86787 -0.03262
 H2285 H 0.66233 0.91385 0.03382
 H2286 H 0.66482 0.94505 -0.05031
 H2287 H 0.60648 0.92240 -0.05968
 H2288 H 0.64654 0.96772 0.00589
 C2289 C 0.03548 0.86877 0.94042
 C2290 C 0.01444 0.84163 0.93714
 C2291 C 0.02334 0.83925 0.90402
 C2292 C 0.04449 0.86612 0.90717
 C2293 C -0.00266 0.85995 0.89520
 C2294 C -0.01161 0.86261 0.92849
 C2295 C 0.00949 0.88942 0.93164
 C2296 C 0.01842 0.88716 0.89855
 H2297 H 0.05106 0.87259 0.95930
 H2298 H 0.01300 0.82272 0.95305
 H2299 H 0.06766 0.86798 0.89859
 H2300 H -0.01828 0.85618 0.87635
 H2301 H -0.03472 0.86138 0.93735
 H2302 H 0.01986 0.90613 0.88271
 C2303 C 0.53389 0.37306 0.44103
 C2304 C 0.51312 0.34604 0.43590
 C2305 C 0.52426 0.34419 0.40343
 C2306 C 0.54512 0.37096 0.40843
 C2307 C 0.49890 0.36503 0.39323
 C2308 C 0.48771 0.36714 0.42586
 C2309 C 0.50852 0.39385 0.43085
 C2310 C 0.51970 0.39216 0.39841
 H2311 H 0.54813 0.37658 0.46098
 H2312 H 0.51065 0.32684 0.45132
 H2313 H 0.56880 0.37266 0.40135
 H2314 H 0.48464 0.36152 0.37330
 H2315 H 0.46405 0.36579 0.43313
 H2316 H 0.52217 0.41138 0.38302
 C2317 C -0.00288 0.35716 0.55738
 C2318 C 0.01095 0.34799 0.58758
 C2319 C -0.02017 0.33734 0.59813
 C2320 C -0.03395 0.34642 0.56806
 C2321 C -0.02679 0.36840 0.61118
 C2322 C 0.00431 0.37933 0.60039
 C2323 C -0.00941 0.38819 0.57030
 C2324 C -0.04048 0.37781 0.58083
 H2325 H 0.00706 0.35253 0.53517
 H2326 H 0.03294 0.33690 0.59010
 H2327 H -0.04980 0.33278 0.55479
 H2328 H -0.03672 0.37287 0.63340
 H2329 H 0.02015 0.39311 0.61352
 H2330 H -0.06158 0.39043 0.57787
 C2331 C 0.51234 0.86539 0.07116
 C2332 C 0.50150 0.86342 0.10393
 C2333 C 0.47604 0.84252 0.09412
 C2334 C 0.48682 0.84418 0.06153
 C2335 C 0.45514 0.86927 0.08918
 C2336 C 0.48064 0.89048 0.09883
 C2337 C 0.49143 0.89205 0.06626
 C2338 C 0.46599 0.87118 0.05646
 H2339 H 0.53591 0.86404 0.06363
 H2340 H 0.51598 0.86000 0.12373
 H2341 H 0.48914 0.82487 0.04622
 H2342 H 0.43153 0.87116 0.09644
 H2343 H 0.47831 0.90976 0.11417
 H2344 H 0.45152 0.87459 0.03666
 C2345 C 0.49336 0.61996 0.09836
 C2346 C 0.52410 0.62987 0.11094
 C2347 C 0.51951 0.66099 0.09718
 C2348 C 0.48877 0.65134 0.08478
 C2349 C 0.53480 0.65097 0.06814
 C2350 C 0.53931 0.61953 0.08166
 C2351 C 0.50861 0.61015 0.06932
 C2352 C 0.50410 0.64122 0.05563
 H2353 H 0.47620 0.60699 0.11065
 H2354 H 0.53244 0.62538 0.13381
 H2355 H 0.46717 0.66339 0.08565
 H2356 H 0.55197 0.66384 0.05577
 H2357 H 0.56008 0.60611 0.08020
 H2358 H 0.49578 0.64590 0.03279
 C2359 C 0.01869 0.10999 0.60136
 C2360 C 0.04433 0.13098 0.59147
 C2361 C 0.02351 0.15788 0.59601
 C2362 C -0.00206 0.13723 0.60610
 C2363 C 0.01277 0.15585 0.56342
 C2364 C 0.03348 0.12868 0.55876
 C2365 C 0.00793 0.10806 0.56882
 C2366 C -0.01286 0.13488 0.57333
 H2367 H 0.02091 0.09089 0.61695
 H2368 H 0.06793 0.12890 0.59869
 H2369 H -0.01658 0.14091 0.62583
 H2370 H 0.01055 0.17492 0.54779
 H2371 H 0.04796 0.12494 0.53902
 H2372 H -0.03641 0.13623 0.56577
 C2373 C 0.46173 0.12051 0.41821
 C2374 C 0.46704 0.15191 0.43147
 C2375 C 0.48081 0.16189 0.40168
 C2376 C 0.47544 0.13079 0.38817
 C2377 C 0.51214 0.15216 0.41245
 C2378 C 0.49831 0.14212 0.44237
 C2379 C 0.49302 0.11106 0.42895
 C2380 C 0.50676 0.12078 0.39915
 H2381 H 0.44104 0.10712 0.42076
 H2382 H 0.45056 0.16482 0.44470
 H2383 H 0.46587 0.12633 0.36578
 H2384 H 0.53369 0.16417 0.41034
 H2385 H 0.50786 0.14680 0.46473
 H2386 H 0.52322 0.10776 0.38602
 C2387 C 0.01470 0.63742 0.92953
 C2388 C 0.00380 0.63995 0.89679
 C2389 C -0.02190 0.66037 0.90707
 C2390 C -0.01105 0.65816 0.93961
 C2391 C -0.04251 0.63326 0.91149
 C2392 C -0.01676 0.61251 0.90140
 C2393 C -0.00588 0.61039 0.93391
 C2394 C -0.03156 0.63080 0.94414
 H2395 H 0.03827 0.63891 0.93703
 H2396 H 0.01824 0.64386 0.87706
 H2397 H -0.00892 0.67712 0.95539
 H2398 H -0.06612 0.63102 0.90434
 H2399 H -0.01888 0.59353 0.88567
 H2400 H -0.04598 0.62685 0.96389
 C2401 C 0.25405 0.69300 0.88820
 C2402 C 0.23838 0.66397 0.89823
 C2403 C 0.26912 0.65058 0.90636
 C2404 C 0.28476 0.67950 0.89648
 C2405 C 0.27220 0.63754 0.87476
 C2406 C 0.24145 0.65109 0.86635
 C2407 C 0.25707 0.67999 0.85666
 C2408 C 0.28777 0.66667 0.86459
 H2409 H 0.24649 0.71592 0.89370
 H2410 H 0.21733 0.66330 0.91124
 H2411 H 0.30271 0.69110 0.90900
 H2412 H 0.27979 0.61461 0.86939
 H2413 H 0.22352 0.63956 0.85374
 H2414 H 0.30806 0.66797 0.85043
 C2415 C 0.76896 0.14563 0.36169
 C2416 C 0.79483 0.15422 0.38300
 C2417 C 0.77344 0.15113 0.40968
 C2418 C 0.74762 0.14235 0.38872
 C2419 C 0.76463 0.18424 0.40714
 C2420 C 0.78594 0.18747 0.38023
 C2421 C 0.76013 0.17872 0.35932
 C2422 C 0.73878 0.17563 0.38593
 H2423 H 0.77054 0.12979 0.34274
 H2424 H 0.81797 0.14552 0.38157
 H2425 H 0.73194 0.12354 0.39242
 H2426 H 0.76304 0.20012 0.42605
 H2427 H 0.80161 0.20630 0.37654
 H2428 H 0.71568 0.18453 0.38694
 C2429 C 0.26493 0.32264 0.38514
 C2430 C 0.25395 0.35535 0.38732
 C2431 C 0.22820 0.34523 0.40776
 C2432 C 0.23913 0.31271 0.40590
 C2433 C 0.20774 0.34051 0.38063
 C2434 C 0.23351 0.35047 0.35986
 C2435 C 0.24444 0.31797 0.35809
 C2436 C 0.21873 0.30789 0.37853
 H2437 H 0.28851 0.31520 0.38677
 H2438 H 0.26832 0.37516 0.39115
 H2439 H 0.24121 0.29718 0.42505
 H2440 H 0.18413 0.34768 0.37844
 H2441 H 0.23142 0.36602 0.34072
 H2442 H 0.20435 0.28808 0.37473
 C2443 C 0.74862 0.80714 0.89252
 C2444 C 0.76268 0.83701 0.90234
 C2445 C 0.73136 0.84830 0.91149
 C2446 C 0.71735 0.81855 0.90174
 C2447 C 0.72659 0.86145 0.88013
 C2448 C 0.75790 0.84995 0.87070
 C2449 C 0.74392 0.82019 0.86121
 C2450 C 0.71265 0.83145 0.87009
 H2451 H 0.75781 0.78473 0.89762
 H2452 H 0.78407 0.83902 0.91464
 H2453 H 0.70053 0.80572 0.91462
 H2454 H 0.71737 0.88388 0.87522
 H2455 H 0.77471 0.86269 0.85771
 H2456 H 0.69211 0.82897 0.85646
 C2457 C 0.78238 0.80967 0.12246
 C2458 C 0.76202 0.81477 0.09513
 C2459 C 0.77282 0.84738 0.09368
 C2460 C 0.79327 0.84240 0.12076
 C2461 C 0.74698 0.85709 0.11420
 C2462 C 0.73612 0.82431 0.11591
 C2463 C 0.75654 0.81935 0.14293
 C2464 C 0.76738 0.85193 0.14163
 H2465 H 0.79681 0.78987 0.12604
 H2466 H 0.76005 0.79947 0.07578
 H2467 H 0.81683 0.84975 0.12291
 H2468 H 0.73254 0.87688 0.11064
 H2469 H 0.71258 0.81678 0.11410
 H2470 H 0.76934 0.86722 0.16099
 C2471 C 0.28198 0.31338 0.61972
 C2472 C 0.26079 0.31697 0.59279
 C2473 C 0.27022 0.34991 0.59029
 C2474 C 0.29149 0.34644 0.61700
 C2475 C 0.24453 0.35916 0.61119
 C2476 C 0.23506 0.32602 0.61398
 C2477 C 0.25631 0.32258 0.64061
 C2478 C 0.26576 0.35549 0.63827
 H2479 H 0.29731 0.29429 0.62342
 H2480 H 0.25895 0.30112 0.57388
 H2481 H 0.31480 0.35468 0.61852
 H2482 H 0.22922 0.37825 0.60745
 H2483 H 0.21179 0.31754 0.61295
 H2484 H 0.26759 0.37130 0.65722
 C2485 C 0.71885 0.19121 0.62140
 C2486 C 0.73921 0.18676 0.59394
 C2487 C 0.72824 0.15427 0.59163
 C2488 C 0.70782 0.15862 0.61886
 C2489 C 0.75402 0.14387 0.61190
 C2490 C 0.76503 0.17656 0.61450
 C2491 C 0.74461 0.18086 0.64166
 C2492 C 0.73363 0.14839 0.63948
 H2493 H 0.70449 0.21096 0.62548
 H2494 H 0.74127 0.20257 0.57500
 H2495 H 0.68421 0.15140 0.62092
 H2496 H 0.76837 0.12413 0.60779
 H2497 H 0.78862 0.18399 0.61290
 H2498 H 0.73157 0.13260 0.65842
 C2499 C 0.25878 0.65089 0.12937
 C2500 C 0.22818 0.63748 0.12023
 C2501 C 0.23207 0.65054 0.08873
 C2502 C 0.26268 0.66376 0.09753
 C2503 C 0.21634 0.67950 0.09822
 C2504 C 0.21250 0.66665 0.12998
 C2505 C 0.24304 0.67984 0.13865
 C2506 C 0.24690 0.69287 0.10720
 H2507 H 0.27635 0.63931 0.14243
 H2508 H 0.22035 0.61457 0.12540
 H2509 H 0.28391 0.66289 0.08483
 H2510 H 0.19876 0.69117 0.08526
 H2511 H 0.19187 0.66803 0.14366
 H2512 H 0.25470 0.71576 0.10191
 C2513 C 0.19336 0.60996 0.74542
 C2514 C 0.16328 0.60042 0.75931
 C2515 C 0.15239 0.59044 0.72814
 C2516 C 0.18235 0.59991 0.71429
 C2517 C 0.13924 0.62162 0.72238
 C2518 C 0.15032 0.63186 0.75354
 C2519 C 0.18029 0.64109 0.73973
 C2520 C 0.16944 0.63140 0.70860
 H2521 H 0.21570 0.60517 0.75501
 H2522 H 0.16100 0.58872 0.78099
 H2523 H 0.19545 0.58663 0.69800
 H2524 H 0.11687 0.62623 0.71277
 H2525 H 0.13730 0.64522 0.76982
 H2526 H 0.17218 0.64452 0.68778
 C2527 C 0.64788 0.14026 0.23186
 C2528 C 0.65702 0.11869 0.20647
 C2529 C 0.65176 0.09217 0.22757
 C2530 C 0.64244 0.11340 0.25291
 C2531 C 0.68449 0.09339 0.23811
 C2532 C 0.68988 0.12017 0.21709
 C2533 C 0.68058 0.14136 0.24243
 C2534 C 0.67535 0.11491 0.26351
 H2535 H 0.63283 0.15978 0.22949
 H2536 H 0.64959 0.12047 0.18293
 H2537 H 0.62266 0.11042 0.26753
 H2538 H 0.69954 0.07388 0.24048
 H2539 H 0.70968 0.12314 0.20249
 H2540 H 0.68301 0.11356 0.28701
 C2541 C 0.82614 0.11395 0.73839
 C2542 C 0.85901 0.11132 0.74891
 C2543 C 0.84897 0.09074 0.77456
 C2544 C 0.81627 0.09312 0.76408
 C2545 C 0.84483 0.11770 0.79533
 C2546 C 0.85469 0.13865 0.76964
 C2547 C 0.82203 0.14086 0.75911
 C2548 C 0.81202 0.12032 0.78477
 H2549 H 0.81839 0.11259 0.71492
 H2550 H 0.87861 0.10743 0.73427
 H2551 H 0.80043 0.07419 0.76202
 H2552 H 0.85242 0.11939 0.81882
 H2553 H 0.87048 0.15761 0.77168
 H2554 H 0.79241 0.12420 0.79940
 C2555 C 0.32296 0.61529 0.23313
 C2556 C 0.35608 0.61339 0.24309
 C2557 C 0.34681 0.59336 0.26943
 C2558 C 0.31391 0.59493 0.25952
 C2559 C 0.34264 0.62079 0.28958
 C2560 C 0.35174 0.64116 0.26321
 C2561 C 0.31886 0.64262 0.25330
 C2562 C 0.30965 0.62257 0.27960
 H2563 H 0.31478 0.61329 0.20985
 H2564 H 0.37547 0.60938 0.22820
 H2565 H 0.29837 0.57570 0.25824
 H2566 H 0.35054 0.62340 0.31288
 H2567 H 0.36727 0.66040 0.26449
 H2568 H 0.29026 0.62654 0.29452
 C2569 C 0.35051 0.36881 0.25760
 C2570 C 0.36251 0.37862 0.22663
 C2571 C 0.34889 0.40978 0.23138
 C2572 C 0.33708 0.40026 0.26236
 C2573 C 0.31948 0.39975 0.21675
 C2574 C 0.33288 0.36831 0.21206
 C2575 C 0.32110 0.35901 0.24300
 C2576 C 0.30755 0.39012 0.24768
 H2577 H 0.36312 0.35587 0.27453
 H2578 H 0.38521 0.37406 0.21783
 H2579 H 0.33851 0.41254 0.28378
 H2580 H 0.30678 0.41258 0.19981
 H2581 H 0.33097 0.35483 0.19139
 H2582 H 0.28486 0.39485 0.25646
 C2583 C 0.85350 0.86128 0.73432
 C2584 C 0.84373 0.88205 0.70847
 C2585 C 0.84783 0.90914 0.72907
 C2586 C 0.85778 0.88873 0.75488
 C2587 C 0.81512 0.90686 0.73949
 C2588 C 0.81090 0.87953 0.71896
 C2589 C 0.82081 0.85916 0.74476
 C2590 C 0.82489 0.88618 0.76534
 H2591 H 0.86928 0.84229 0.73244
 H2592 H 0.85137 0.88017 0.68500
 H2593 H 0.87735 0.89272 0.76953
 H2594 H 0.79931 0.92582 0.74137
 H2595 H 0.79132 0.87555 0.70430
 H2596 H 0.81707 0.88768 0.78878
 C2597 C 0.69241 0.89059 0.25314
 C2598 C 0.66319 0.90114 0.23814
 C2599 C 0.65096 0.91023 0.26907
 C2600 C 0.68005 0.89981 0.28402
 C2601 C 0.63705 0.87910 0.27313
 C2602 C 0.64947 0.86970 0.24221
 C2603 C 0.67856 0.85950 0.25715
 C2604 C 0.66636 0.86839 0.28802
 H2605 H 0.71527 0.89529 0.24481
 H2606 H 0.66224 0.91379 0.21691
 H2607 H 0.69255 0.91231 0.30135
 H2608 H 0.61417 0.87456 0.28150
 H2609 H 0.63705 0.85710 0.22489
 H2610 H 0.66783 0.85458 0.30851
 C2611 C 0.14601 0.36050 0.76697
 C2612 C 0.15553 0.38115 0.79301
 C2613 C 0.15141 0.40835 0.77256
 C2614 C 0.14169 0.38807 0.74657
 C2615 C 0.18419 0.40632 0.76230
 C2616 C 0.18843 0.37889 0.78267
 C2617 C 0.17875 0.35866 0.75666
 C2618 C 0.17465 0.38580 0.73626
 H2619 H 0.13034 0.34139 0.76863
 H2620 H 0.14776 0.37912 0.81642
 H2621 H 0.12217 0.39207 0.73185
 H2622 H 0.19992 0.42538 0.76062
 H2623 H 0.20796 0.37492 0.79739
 H2624 H 0.18258 0.38752 0.71287
 C2625 C 0.13115 0.78741 0.83096
 C2626 C 0.09917 0.78424 0.81832
 C2627 C 0.08957 0.76850 0.84726
 C2628 C 0.12128 0.77173 0.86011
 C2629 C 0.09778 0.73788 0.83375
 C2630 C 0.10756 0.75366 0.80467
 C2631 C 0.13920 0.75685 0.81751
 C2632 C 0.12978 0.74112 0.84644
 H2633 H 0.14519 0.80777 0.82963
 H2634 H 0.08644 0.80211 0.80685
 H2635 H 0.12675 0.77928 0.88303
 H2636 H 0.08476 0.71685 0.83450
 H2637 H 0.10200 0.74613 0.78175
 H2638 H 0.14258 0.72326 0.85784
 C2639 C 0.63536 0.28990 0.33304
 C2640 C 0.60358 0.28635 0.31999
 C2641 C 0.59344 0.27172 0.34931
 C2642 C 0.62492 0.27535 0.36261
 C2643 C 0.60181 0.24059 0.33711
 C2644 C 0.61205 0.25527 0.30767
 C2645 C 0.64348 0.25883 0.32089
 C2646 C 0.63356 0.24422 0.35021
 H2647 H 0.64953 0.31013 0.33117
 H2648 H 0.59111 0.30382 0.30765
 H2649 H 0.63000 0.28375 0.38532
 H2650 H 0.58892 0.21951 0.33841
 H2651 H 0.60678 0.24690 0.28497
 H2652 H 0.64614 0.22676 0.36247
 C2653 C 0.63050 0.71452 0.16801
 C2654 C 0.59872 0.71854 0.18090
 C2655 C 0.58894 0.73328 0.15150
 C2656 C 0.62045 0.72920 0.13839
 C2657 C 0.59775 0.76430 0.16375
 C2658 C 0.60763 0.74950 0.19327
 C2659 C 0.63909 0.74548 0.18022
 C2660 C 0.62956 0.76021 0.15082
 H2661 H 0.64431 0.69407 0.16993
 H2662 H 0.58594 0.70126 0.19320
 H2663 H 0.62556 0.72070 0.11571
 H2664 H 0.58514 0.78553 0.16237
 H2665 H 0.60235 0.75797 0.21592
 H2666 H 0.64244 0.77748 0.13861
 C2667 C 0.12185 0.21772 0.68766
 C2668 C 0.09424 0.23783 0.68305
 C2669 C 0.09290 0.22774 0.65024
 C2670 C 0.12027 0.20755 0.65473
 C2671 C 0.11309 0.25398 0.64100
 C2672 C 0.11475 0.26413 0.67401
 C2673 C 0.14203 0.24393 0.67846
 C2674 C 0.14081 0.23383 0.64567
 H2675 H 0.12565 0.20292 0.70715
 H2676 H 0.07486 0.23924 0.69841
 H2677 H 0.12283 0.18421 0.64696
 H2678 H 0.10927 0.26876 0.62151
 H2679 H 0.11271 0.28744 0.68204
 H2680 H 0.16020 0.23242 0.63031
 C2681 C 0.86907 0.28586 0.66823
 C2682 C 0.90086 0.28181 0.68107
 C2683 C 0.91052 0.26689 0.65173
 C2684 C 0.87900 0.27100 0.63867
 C2685 C 0.90165 0.23596 0.66417
 C2686 C 0.89188 0.25094 0.69363
 C2687 C 0.86043 0.25499 0.68062
 C2688 C 0.86985 0.24009 0.65129
 H2689 H 0.85531 0.30636 0.67009
 H2690 H 0.91373 0.29912 0.69323
 H2691 H 0.87388 0.27940 0.61596
 H2692 H 0.91416 0.21466 0.66291
 H2693 H 0.89716 0.24257 0.71632
 H2694 H 0.85688 0.22280 0.63921
 C2695 C 0.37665 0.78314 0.18664
 C2696 C 0.40392 0.76249 0.18240
 C2697 C 0.40573 0.77230 0.14953
 C2698 C 0.37868 0.79303 0.15365
 C2699 C 0.38512 0.74638 0.14032
 C2700 C 0.38300 0.73652 0.17340
 C2701 C 0.35605 0.75726 0.17747
 C2702 C 0.35773 0.76707 0.14462
 H2703 H 0.37297 0.79816 0.20597
 H2704 H 0.42315 0.76082 0.19793
 H2705 H 0.37658 0.81636 0.14571
 H2706 H 0.38884 0.73138 0.12099
 H2707 H 0.38454 0.71323 0.18162
 H2708 H 0.33849 0.76874 0.12911
 C2709 C 0.39184 0.24976 0.30636
 C2710 C 0.40128 0.26464 0.33598
 C2711 C 0.41042 0.23373 0.34824
 C2712 C 0.40112 0.21891 0.31874
 C2713 C 0.37890 0.22913 0.36111
 C2714 C 0.36945 0.26002 0.34867
 C2715 C 0.36038 0.24521 0.31919
 C2716 C 0.36931 0.21436 0.33139
 H2717 H 0.39712 0.25837 0.28375
 H2718 H 0.41355 0.28606 0.33750
 H2719 H 0.41426 0.20186 0.30652
 H2720 H 0.37376 0.22049 0.38373
 H2721 H 0.35621 0.27705 0.36080
 H2722 H 0.35581 0.19371 0.32930
 C2723 C 0.85975 0.73489 0.85706
 C2724 C 0.88080 0.70891 0.84839
 C2725 C 0.90783 0.72961 0.85287
 C2726 C 0.88711 0.75557 0.86172
 C2727 C 0.90648 0.73938 0.81994
 C2728 C 0.87924 0.71874 0.81535
 C2729 C 0.85852 0.74466 0.82416
 C2730 C 0.88545 0.76538 0.82859
 H2731 H 0.84031 0.73326 0.87234
 H2732 H 0.87855 0.68560 0.85636
 H2733 H 0.89053 0.77061 0.88107
 H2734 H 0.92592 0.74100 0.80467
 H2735 H 0.87584 0.70368 0.79600
 H2736 H 0.88717 0.78865 0.82035
   
