data_POSCAR
  _audit_creation_date              2014-09-24
  _audit_creation_method            'ToBaCCo'
  _symmetry_space_group_name_H-M    'P1'
  _symmetry_Int_Tables_number       1
  _symmetry_cell_setting            triclinic
  loop_
  _symmetry_equiv_pos_as_xyz
 x,y,z
_cell_length_a 37.4522
_cell_length_b 35.1685
_cell_length_c 46.1409
_cell_angle_alpha 89.736600
_cell_angle_beta 89.825800
_cell_angle_gamma 89.613300
loop_
  _atom_site_label
  _atom_site_type_symbol
  _atom_site_fract_x
  _atom_site_fract_y
  _atom_site_fract_z
B1 B 0.27344 0.23929 0.28531
 B2 B 0.23072 0.23781 0.27424
 B3 B 0.25049 0.28010 0.27896
 B4 B 0.29363 0.27658 0.26851
 B5 B 0.30016 0.23122 0.25682
 B6 B 0.26099 0.20691 0.26050
 B7 B 0.25006 0.26490 0.22177
 B8 B 0.29280 0.26648 0.23267
 B9 B 0.27299 0.22418 0.22814
 B10 B 0.23003 0.22775 0.23854
 B11 B 0.22344 0.27304 0.25018
 B12 B 0.26258 0.29739 0.24649
 B13 B 0.73790 0.76888 0.22233
 B14 B 0.72538 0.72354 0.22664
 B15 B 0.76742 0.73326 0.21637
 B16 B 0.78052 0.77337 0.23335
 B17 B 0.74592 0.78779 0.25485
 B18 B 0.71159 0.75659 0.25068
 B19 B 0.76784 0.71731 0.27344
 B20 B 0.78049 0.76280 0.26907
 B21 B 0.73849 0.75307 0.27946
 B22 B 0.72519 0.71293 0.26239
 B23 B 0.75978 0.69853 0.24088
 B24 B 0.79420 0.72976 0.24513
 B25 B 0.72625 0.23902 -0.22108
 B26 B 0.71283 0.28281 -0.23119
 B27 B 0.75455 0.27596 -0.21873
 B28 B 0.76954 0.23304 -0.23059
 B29 B 0.73621 0.21385 -0.25077
 B30 B 0.70093 0.24491 -0.25110
 B31 B 0.75748 0.28010 -0.27699
 B32 B 0.77065 0.23625 -0.26711
 B33 B 0.72893 0.24303 -0.27931
 B34 B 0.71420 0.28594 -0.26771
 B35 B 0.74740 0.30520 -0.24732
 B36 B 0.78264 0.27401 -0.24693
 B37 B 0.26282 0.76181 -0.28062
 B38 B 0.22293 0.78000 -0.27090
 B39 B 0.22644 0.73377 -0.27928
 B40 B 0.26612 0.71681 -0.26728
 B41 B 0.28707 0.75365 -0.25090
 B42 B 0.26006 0.79309 -0.25308
 B43 B 0.22523 0.73957 -0.22099
 B44 B 0.26483 0.72103 -0.23095
 B45 B 0.26154 0.76758 -0.22248
 B46 B 0.22167 0.78429 -0.23439
 B47 B 0.20077 0.74754 -0.25101
 B48 B 0.22749 0.70820 -0.24865
 B49 B 1.24143 1.27011 0.71829
 B50 B 1.23164 1.22540 0.72795
 B51 B 1.27337 1.23589 0.71718
 B52 B 1.28349 1.27988 0.72904
 B53 B 1.24749 1.29636 0.74796
 B54 B 1.21511 1.26235 0.74741
 B55 B 1.27264 1.23239 0.77538
 B56 B 1.28281 1.27705 0.76554
 B57 B 1.24113 1.26685 0.77649
 B58 B 1.23066 1.22271 0.76450
 B59 B 1.26681 1.20617 0.74558
 B60 B 1.29924 1.24018 0.74633
 B61 B 0.77184 0.73274 0.78267
 B62 B 0.73025 0.72284 0.77164
 B63 B 0.74096 0.76786 0.77962
 B64 B 0.78347 0.77586 0.76893
 B65 B 0.79872 0.73485 0.75379
 B66 B 0.76562 0.70168 0.75536
 B67 B 0.74189 0.76050 0.72154
 B68 B 0.78349 0.77069 0.73247
 B69 B 0.77305 0.72563 0.72466
 B70 B 0.73045 0.71757 0.73526
 B71 B 0.71505 0.75869 0.75051
 B72 B 0.74818 0.79186 0.74871
 B73 B 1.23399 0.73281 0.28184
 B74 B 1.22172 0.77784 0.27471
 B75 B 1.26487 0.76763 0.28157
 B76 B 1.27485 0.72469 0.26734
 B77 B 1.23711 0.70871 0.25097
 B78 B 1.20400 0.74197 0.25535
 B79 B 1.25738 0.77432 0.22359
 B80 B 1.26970 0.72932 0.23144
 B81 B 1.22656 0.73965 0.22400
 B82 B 1.21651 0.78284 0.23828
 B83 B 1.25412 0.79874 0.25495
 B84 B 1.28728 0.76573 0.25025
 B85 B 0.75758 1.26752 0.21964
 B86 B 0.71701 1.28093 0.23171
 B87 B 0.72510 1.23505 0.22379
 B88 B 0.76732 1.22382 0.23359
 B89 B 0.78532 1.26385 0.24787
 B90 B 0.75399 1.29949 0.24673
 B91 B 0.72854 1.24297 0.28188
 B92 B 0.76899 1.22929 0.26972
 B93 B 0.76106 1.27534 0.27761
 B94 B 0.71883 1.28634 0.26807
 B95 B 0.70075 1.24655 0.25335
 B96 B 0.73185 1.21091 0.25476
 O97 O 0.45643 1.06649 0.02288
 O98 O 0.53760 0.92436 0.02202
 O99 O 0.42920 0.95064 0.01441
 O100 O 0.56548 1.04108 0.02197
 O101 O 0.47578 0.92899 0.03396
 O102 O 0.51562 1.05859 0.03867
 O103 O 0.55821 0.97678 0.03793
 O104 O 0.43480 1.01306 0.03537
 C105 C 0.43910 1.04710 0.04067
 C106 C 0.55461 0.94209 0.04090
 C107 C 0.44319 0.93434 0.03539
 C108 C 0.54818 1.05620 0.04191
 O109 O 0.53845 1.06910 -0.01758
 O110 O 0.46041 0.92615 -0.02473
 O111 O 0.43029 1.04248 -0.01835
 O112 O 0.56844 0.95309 -0.01649
 O113 O 0.52132 0.93288 -0.03574
 O114 O 0.47957 1.06253 -0.03386
 O115 O 0.56080 1.01772 -0.03384
 O116 O 0.43861 0.97975 -0.03842
 Co117 Co 0.49754 1.05774 0.00234
 Co118 Co 0.49870 0.93455 -0.00090
 Co119 Co 0.43961 0.99660 -0.00148
 Co120 Co 0.55663 0.99719 0.00212
 O121 O 0.49811 0.99648 0.00050
 C122 C 0.55576 1.05228 -0.03685
 C123 C 0.44381 0.94552 -0.04321
 C124 C 0.44725 1.05915 -0.03763
 C125 C 0.55389 0.93721 -0.03726
 O126 O 0.97624 0.55632 0.53479
 O127 O 1.02936 0.42966 0.53326
 O128 O 0.94238 0.47592 0.53588
 O129 O 1.06385 0.51204 0.53615
 O130 O 0.96809 0.42299 0.52430
 O131 O 1.03682 0.56454 0.52569
 O132 O 1.07426 0.45097 0.51221
 O133 O 0.93087 0.53777 0.51333
 C134 C 0.94359 0.55305 0.53486
 C135 C 1.06182 0.43475 0.53355
 C136 C 0.94883 0.44208 0.54151
 C137 C 1.05672 0.54549 0.54239
 O138 O 1.02260 0.56081 0.46546
 O139 O 0.98277 0.42959 0.46412
 O140 O 0.94115 0.50803 0.46194
 O141 O 1.06530 0.48248 0.46169
 O142 O 1.04328 0.42754 0.47285
 O143 O 0.96249 0.56223 0.47459
 O144 O 1.06996 0.54501 0.48553
 O145 O 0.93550 0.44492 0.48474
 Co146 Co 0.99983 0.55521 0.50013
 Co147 Co 1.00556 0.43328 0.49875
 Co148 Co 0.94422 0.49195 0.49896
 Co149 Co 1.06171 0.49739 0.49891
 O150 O 1.00287 0.49446 0.49919
 C151 C 1.05531 0.55980 0.46448
 C152 C 0.95008 0.43074 0.46341
 C153 C 0.94575 0.54230 0.45663
 C154 C 1.06147 0.44821 0.45596
 O155 O 1.05064 0.46845 0.05102
 O156 O 1.04729 0.51094 -0.04839
 O157 O 1.04584 0.42464 -0.01283
 O158 O 1.05281 0.55508 0.01823
 O159 O 1.02596 0.44748 -0.05239
 O160 O 1.03357 0.53322 0.05822
 O161 O 1.03115 0.56388 -0.03033
 O162 O 1.02700 0.41774 0.03628
 C163 C 1.05260 0.43357 0.04828
 C164 C 1.05241 0.54545 -0.04580
 C165 C 1.04892 0.42797 -0.03939
 C166 C 1.05697 0.55102 0.04460
 O167 O 0.96351 0.51358 0.05397
 O168 O 0.95729 0.47353 -0.04514
 O169 O 0.95782 0.42973 0.01970
 O170 O 0.96313 0.56109 -0.01054
 O171 O 0.97913 0.53734 -0.05094
 O172 O 0.98044 0.44886 0.05895
 O173 O 0.98484 0.56528 0.03805
 O174 O 0.97666 0.42071 -0.02944
 Co175 Co 1.00688 0.49108 0.05036
 Co176 Co 1.00258 0.49221 -0.04398
 Co177 Co 1.00209 0.43014 0.00349
 Co178 Co 1.00772 0.55435 0.00385
 O179 O 1.00487 0.49201 0.00339
 C180 C 0.96059 0.54842 0.05134
 C181 C 0.95287 0.43890 -0.04233
 C182 C 0.95497 0.43372 0.04620
 C183 C 0.95843 0.55846 -0.03698
 O184 O 0.52999 0.94404 0.55551
 O185 O 0.53501 1.03950 0.44693
 O186 O 0.53238 0.92181 0.46602
 O187 O 0.53865 1.06150 0.53598
 O188 O 0.55326 0.97428 0.45051
 O189 O 0.55518 1.00700 0.55125
 O190 O 0.55716 1.05661 0.48684
 O191 O 0.55061 0.92440 0.51555
 C192 C 0.55228 0.92427 0.54227
 C193 C 0.56013 1.05430 0.46023
 C194 C 0.55633 0.93931 0.45274
 C195 C 0.56104 1.04154 0.54914
 O196 O 0.48847 1.03570 0.55779
 O197 O 0.48459 0.95396 0.44417
 O198 O 0.47984 0.92085 0.53161
 O199 O 0.48775 1.06889 0.47050
 O200 O 0.46565 1.01908 0.45203
 O201 O 0.46388 0.97364 0.55016
 O202 O 0.46853 1.06001 0.51911
 O203 O 0.46259 0.93138 0.48274
 Co204 Co 0.50946 0.99046 0.54831
 Co205 Co 0.50956 0.99637 0.45371
 Co206 Co 0.50673 0.93140 0.49916
 Co207 Co 0.51268 1.05503 0.50293
 O208 O 0.50960 0.99329 0.50102
 C209 C 0.46484 1.05464 0.54540
 C210 C 0.45966 0.93714 0.45644
 C211 C 0.45812 0.93933 0.54669
 C212 C 0.46331 1.05379 0.45640
 O213 O 1.04414 1.05768 0.46727
 O214 O 0.92430 1.03195 0.52807
 O215 O 0.97691 1.05973 0.45595
 O216 O 1.03515 1.03746 0.55575
 O217 O 0.92719 1.04483 0.47532
 O218 O 1.05119 1.06492 0.51699
 O219 O 0.96996 1.05332 0.55270
 O220 O 1.02707 1.02199 0.43423
 C221 C 1.04544 1.04943 0.44116
 C222 C 0.93739 1.05439 0.54684
 C223 C 0.94500 1.06738 0.46001
 C224 C 1.04850 1.06531 0.54371
 O225 O 1.06625 0.98844 0.52449
 O226 O 0.94049 0.96995 0.46465
 O227 O 1.00546 0.96106 0.45668
 O228 O 0.95656 0.98231 0.55555
 O229 O 0.94038 0.95659 0.51614
 O230 O 1.05765 0.97990 0.47117
 O231 O 1.02225 0.96709 0.55171
 O232 O 0.96273 1.00018 0.42748
 Co233 Co 1.05018 1.02154 0.49531
 Co234 Co 0.93851 1.00199 0.49656
 Co235 Co 0.99003 1.01027 0.45824
 Co236 Co 0.99576 1.01027 0.54881
 O237 O 0.99527 1.01199 0.50135
 C238 C 1.05442 0.96588 0.54401
 C239 C 0.93856 0.97766 0.43765
 C240 C 1.03854 0.95568 0.45806
 C241 C 0.94170 0.95586 0.54296
 O242 O 0.56040 0.52652 -0.02669
 O243 O 0.41331 0.52022 0.02939
 O244 O 0.45123 0.56036 -0.03489
 O245 O 0.51813 0.56493 0.03853
 O246 O 0.41077 0.51989 -0.02301
 O247 O 0.56099 0.52665 0.02783
 O248 O 0.45372 0.56209 0.03406
 O249 O 0.51717 0.56000 -0.04589
 C250 C 0.54971 0.55348 -0.04278
 C251 C 0.42186 0.55342 0.03615
 C252 C 0.41912 0.55210 -0.03309
 C253 C 0.55049 0.55770 0.03835
 O254 O 0.53920 0.45504 0.02869
 O255 O 0.44288 0.44910 -0.02279
 O256 O 0.51370 0.48772 -0.06016
 O257 O 0.45506 0.49346 0.06080
 O258 O 0.44701 0.45084 0.02916
 O259 O 0.54307 0.45473 -0.02732
 O260 O 0.51974 0.49440 0.06141
 O261 O 0.44865 0.48989 -0.05624
 Co262 Co 0.54467 0.49216 0.00091
 Co263 Co 0.43322 0.48697 0.00302
 Co264 Co 0.48270 0.52306 -0.04450
 Co265 Co 0.48645 0.52689 0.04470
 O266 O 0.48721 0.50721 0.00095
 C267 C 0.53356 0.46276 0.05467
 C268 C 0.44411 0.45620 -0.04903
 C269 C 0.53286 0.45947 -0.05295
 C270 C 0.45069 0.45928 0.05503
 C271 C 0.26530 1.18508 0.18020
 C272 C 0.27898 1.16103 0.15865
 C273 C 0.31345 1.14553 0.16130
 C274 C 0.33294 1.15217 0.18661
 C275 C 0.31959 1.17619 0.20781
 C276 C 0.28602 1.19400 0.20459
 C277 C 0.32955 1.12341 0.13745
 C278 C 0.36449 1.12627 0.13150
 C279 C 0.38286 1.10501 0.10839
 C280 C 0.41354 1.12089 0.09594
 C281 C 0.43211 1.10165 0.07424
 C282 C 0.42073 1.06577 0.06502
 C283 C 0.39067 1.04925 0.07810
 C284 C 0.37171 1.06880 0.09956
 H285 H 0.23906 1.19738 0.17734
 H286 H 0.26320 1.15560 0.13950
 H287 H 0.35893 1.13921 0.18991
 H288 H 0.33633 1.18112 0.22644
 H289 H 0.31237 1.10646 0.12389
 H290 H 0.38038 1.14665 0.14330
 H291 H 0.42288 1.14854 0.10274
 H292 H 0.45532 1.11494 0.06458
 H293 H 0.38137 1.02166 0.07133
 H294 H 0.34873 1.05538 0.10940
 C295 C 0.83057 0.70599 0.69687
 C296 C 0.84902 0.68916 0.67426
 C297 C 0.83097 0.66810 0.65354
 C298 C 0.79365 0.66427 0.65559
 C299 C 0.77472 0.68225 0.67809
 C300 C 0.79301 0.70376 0.69887
 C301 C 0.85261 0.65153 0.63011
 C302 C 0.84746 0.61670 0.61967
 C303 C 0.87304 0.59923 0.59916
 C304 C 0.86033 0.57403 0.57831
 C305 C 0.88358 0.55864 0.55776
 C306 C 0.92011 0.56777 0.55793
 C307 C 0.93324 0.59151 0.57966
 C308 C 0.90991 0.60708 0.60017
 H309 H 0.84616 0.72186 0.71229
 H310 H 0.87776 0.69235 0.67313
 H311 H 0.77915 0.64822 0.63955
 H312 H 0.74602 0.67937 0.67916
 H313 H 0.87571 0.66757 0.62315
 H314 H 0.82416 0.60066 0.62620
 H315 H 0.83222 0.56705 0.57743
 H316 H 0.87280 0.53989 0.54148
 H317 H 0.96133 0.59852 0.58050
 H318 H 0.92084 0.62515 0.61681
 C319 C 0.74116 0.81395 0.17688
 C320 C 0.72470 0.83661 0.15563
 C321 C 0.68743 0.84108 0.15536
 C322 C 0.66707 0.82396 0.17729
 C323 C 0.68325 0.80135 0.19816
 C324 C 0.72049 0.79560 0.19817
 C325 C 0.66982 0.86411 0.13263
 C326 C 0.63690 0.85568 0.12343
 C327 C 0.61638 0.87890 0.10260
 C328 C 0.58860 0.86149 0.08741
 C329 C 0.56787 0.88236 0.06794
 C330 C 0.57426 0.92122 0.06356
 C331 C 0.60132 0.93905 0.07943
 C332 C 0.62229 0.91805 0.09880
 H333 H 0.76989 0.81078 0.17654
 H334 H 0.74097 0.85016 0.13917
 H335 H 0.63845 0.82813 0.17856
 H336 H 0.66606 0.78817 0.21412
 H337 H 0.68443 0.88748 0.12305
 H338 H 0.62437 0.82978 0.13102
 H339 H 0.58318 0.83150 0.09037
 H340 H 0.54707 0.86796 0.05608
 H341 H 0.60675 0.96904 0.07646
 H342 H 0.64269 0.93263 0.11093
 C343 C 1.18473 0.28474 0.68812
 C344 C 1.16689 0.29890 0.66421
 C345 C 1.18514 0.31992 0.64341
 C346 C 1.22194 0.32633 0.64648
 C347 C 1.24041 0.31061 0.67013
 C348 C 1.22199 0.28916 0.69109
 C349 C 1.16407 0.33560 0.61954
 C350 C 1.16339 0.37274 0.61393
 C351 C 1.13605 0.38957 0.59489
 C352 C 1.14532 0.42037 0.57733
 C353 C 1.12061 0.43548 0.55796
 C354 C 1.08587 0.42065 0.55631
 C355 C 1.07581 0.39126 0.57511
 C356 C 1.10081 0.37568 0.59426
 H357 H 1.16898 0.26931 0.70388
 H358 H 1.13841 0.29421 0.66231
 H359 H 1.23628 0.34298 0.63051
 H360 H 1.26877 0.31553 0.67210
 H361 H 1.14468 0.31706 0.60960
 H362 H 1.18277 0.39130 0.62390
 H363 H 1.17206 0.43192 0.57793
 H364 H 1.12896 0.45848 0.54390
 H365 H 1.04913 0.37963 0.57436
 H366 H 1.09257 0.35280 0.60850
 C367 C 0.73021 1.19722 -0.17389
 C368 C 0.71445 1.17394 -0.15275
 C369 C 0.67723 1.16940 -0.15171
 C370 C 0.65609 1.18866 -0.17222
 C371 C 0.67169 1.21189 -0.19310
 C372 C 0.70899 1.21629 -0.19450
 C373 C 0.66116 1.14319 -0.13007
 C374 C 0.62719 1.14685 -0.12113
 C375 C 0.60951 1.12104 -0.10023
 C376 C 0.57954 1.13485 -0.08526
 C377 C 0.56173 1.11200 -0.06528
 C378 C 0.57317 1.07451 -0.06003
 C379 C 0.60241 1.05998 -0.07570
 C380 C 0.62055 1.08311 -0.09563
 H381 H 0.75899 1.19941 -0.17449
 H382 H 0.73139 1.15914 -0.13736
 H383 H 0.62747 1.18499 -0.17301
 H384 H 0.65422 1.22575 -0.20858
 H385 H 0.67805 1.12123 -0.12081
 H386 H 0.61165 1.17116 -0.12831
 H387 H 0.57015 1.16372 -0.08872
 H388 H 0.53909 1.12388 -0.05369
 H389 H 0.61168 1.03111 -0.07209
 H390 H 0.64287 1.07112 -0.10749
 C391 C 1.24039 0.68461 0.32538
 C392 C 1.22517 0.66216 0.34733
 C393 C 1.18835 0.66428 0.35305
 C394 C 1.16744 0.69063 0.33771
 C395 C 1.18234 0.71251 0.31587
 C396 C 1.21901 0.70995 0.30923
 C397 C 1.17184 0.63967 0.37530
 C398 C 1.13799 0.62776 0.37268
 C399 C 1.11764 0.60856 0.39589
 C400 C 1.08015 0.61016 0.39489
 C401 C 1.05963 0.59425 0.41709
 C402 C 1.07635 0.57624 0.44060
 C403 C 1.11381 0.57363 0.44121
 C404 C 1.13430 0.58952 0.41905
 H405 H 1.26852 0.68128 0.32059
 H406 H 1.24191 0.64237 0.35926
 H407 H 1.13932 0.69446 0.34245
 H408 H 1.16461 0.73141 0.30411
 H409 H 1.18756 0.63256 0.39420
 H410 H 1.12338 0.63450 0.35307
 H411 H 1.06669 0.62444 0.37712
 H412 H 1.03080 0.59630 0.41599
 H413 H 1.12739 0.55936 0.45890
 H414 H 1.16301 0.58655 0.42018
 C415 C 0.26277 0.80460 -0.17305
 C416 C 0.28053 0.82666 -0.15239
 C417 C 0.31735 0.83369 -0.15494
 C418 C 0.33586 0.81839 -0.17872
 C419 C 0.31839 0.79621 -0.19893
 C420 C 0.28163 0.78842 -0.19640
 C421 C 0.33538 0.85857 -0.13362
 C422 C 0.37096 0.85865 -0.12998
 C423 C 0.38976 0.88314 -0.10909
 C424 C 0.42323 0.87107 -0.09887
 C425 C 0.44134 0.89220 -0.07816
 C426 C 0.42676 0.92634 -0.06776
 C427 C 0.39428 0.93974 -0.07912
 C428 C 0.37578 0.91822 -0.09957
 H429 H 0.23420 0.80089 -0.17109
 H430 H 0.26536 0.83878 -0.13462
 H431 H 0.36367 0.82451 -0.18275
 H432 H 0.33404 0.78649 -0.21722
 H433 H 0.31870 0.87640 -0.12003
 H434 H 0.38739 0.83832 -0.14148
 H435 H 0.43501 0.84466 -0.10637
 H436 H 0.46655 0.88156 -0.06987
 H437 H 0.38259 0.96609 -0.07139
 H438 H 0.35068 0.92913 -0.10780
 C439 C 0.76236 0.30949 0.32809
 C440 C 0.78050 0.32833 0.35023
 C441 C 0.81695 0.33678 0.34736
 C442 C 0.83477 0.32631 0.32178
 C443 C 0.81667 0.30800 0.29974
 C444 C 0.78062 0.29776 0.30298
 C445 C 0.83587 0.35506 0.37170
 C446 C 0.86757 0.37228 0.36870
 C447 C 0.88806 0.38725 0.39333
 C448 C 0.92546 0.38821 0.39126
 C449 C 0.94587 0.40192 0.41417
 C450 C 0.92908 0.41535 0.43935
 C451 C 0.89163 0.41498 0.44123
 C452 C 0.87127 0.40109 0.41844
 H453 H 0.73417 0.30385 0.33078
 H454 H 0.76602 0.33632 0.36965
 H455 H 0.86292 0.33128 0.31857
 H456 H 0.83152 0.30172 0.28021
 H457 H 0.82349 0.35324 0.39289
 H458 H 0.88020 0.37444 0.34770
 H459 H 0.93891 0.37795 0.37197
 H460 H 0.97469 0.40222 0.41213
 H461 H 0.87800 0.42558 0.46032
 H462 H 0.84248 0.40192 0.42039
 C463 C 1.24975 0.31577 0.18018
 C464 C 1.23271 0.33541 0.15773
 C465 C 1.20066 0.32214 0.14603
 C466 C 1.18696 0.28742 0.15648
 C467 C 1.20426 0.26752 0.17884
 C468 C 1.23565 0.28167 0.19143
 C469 C 1.18096 0.34741 0.12547
 C470 C 1.15251 0.33675 0.10993
 C471 C 1.13034 0.36336 0.09225
 C472 C 1.10730 0.34798 0.07152
 C473 C 1.08317 0.37117 0.05650
 C474 C 1.08126 0.41043 0.06192
 C475 C 1.10508 0.42624 0.08192
 C476 C 1.12926 0.40296 0.09706
 H477 H 1.27291 0.32883 0.18977
 H478 H 1.24382 0.36218 0.15043
 H479 H 1.16191 0.27637 0.14877
 H480 H 1.19168 0.24220 0.18738
 H481 H 1.19032 0.37634 0.12350
 H482 H 1.14469 0.30723 0.10996
 H483 H 1.10738 0.31768 0.06738
 H484 H 1.06528 0.35811 0.04113
 H485 H 1.10407 0.45634 0.08670
 H486 H 1.14582 0.41600 0.11333
 C487 C 0.72981 0.81534 0.68420
 C488 C 0.71402 0.83080 0.65943
 C489 C 0.69123 0.80899 0.64234
 C490 C 0.68573 0.77063 0.64989
 C491 C 0.70245 0.75471 0.67437
 C492 C 0.72474 0.77689 0.69197
 C493 C 0.67269 0.82784 0.61770
 C494 C 0.63830 0.82139 0.61167
 C495 C 0.61701 0.84660 0.59236
 C496 C 0.58198 0.85563 0.60065
 C497 C 0.56146 0.88097 0.58427
 C498 C 0.57499 0.89704 0.55858
 C499 C 0.60960 0.88697 0.54946
 C500 C 0.63071 0.86230 0.56647
 H501 H 0.74611 0.83382 0.69728
 H502 H 0.71860 0.86043 0.65421
 H503 H 0.66847 0.75299 0.63692
 H504 H 0.69720 0.72532 0.67981
 H505 H 0.68601 0.85145 0.60717
 H506 H 0.62393 0.80060 0.62450
 H507 H 0.57075 0.84380 0.62037
 H508 H 0.53470 0.88787 0.59164
 H509 H 0.62054 0.89885 0.52967
 H510 H 0.65752 0.85534 0.55934
 C511 C 1.22329 0.72102 -0.16539
 C512 C 1.20745 0.70191 -0.14197
 C513 C 1.17368 0.68540 -0.14487
 C514 C 1.15497 0.69064 -0.17088
 C515 C 1.17043 0.71027 -0.19404
 C516 C 1.20530 0.72491 -0.19205
 C517 C 1.15824 0.66276 -0.12076
 C518 C 1.14011 0.63060 -0.12563
 C519 C 1.12203 0.60798 -0.10270
 C520 C 1.11490 0.56942 -0.10785
 C521 C 1.09399 0.54831 -0.08849
 C522 C 1.07920 0.56558 -0.06379
 C523 C 1.08739 0.60379 -0.05806
 C524 C 1.10866 0.62477 -0.07724
 H525 H 1.25042 0.73067 -0.16296
 H526 H 1.22230 0.69841 -0.12202
 H527 H 1.12843 0.67913 -0.17349
 H528 H 1.15537 0.71235 -0.21396
 H529 H 1.16325 0.67190 -0.09878
 H530 H 1.13856 0.61997 -0.14761
 H531 H 1.12477 0.55584 -0.12736
 H532 H 1.08800 0.51900 -0.09358
 H533 H 1.07631 0.61787 -0.03920
 H534 H 1.11299 0.65455 -0.07278
 C535 C 0.73290 1.22459 0.33762
 C536 C 0.71920 1.20671 0.36250
 C537 C 0.68449 1.19202 0.36259
 C538 C 0.66285 1.19815 0.33819
 C539 C 0.67636 1.21608 0.31353
 C540 C 0.71204 1.22854 0.31236
 C541 C 0.67114 1.16938 0.38760
 C542 C 0.65139 1.13824 0.38314
 C543 C 0.63370 1.11471 0.40578
 C544 C 0.61819 1.08056 0.39680
 C545 C 0.59616 1.05993 0.41535
 C546 C 0.58915 1.07267 0.44358
 C547 C 0.60648 1.10546 0.45351
 C548 C 0.62849 1.12654 0.43468
 H549 H 0.76041 1.23362 0.33789
 H550 H 0.73628 1.20277 0.38119
 H551 H 0.63549 1.18838 0.33795
 H552 H 0.65880 1.21885 0.29507
 H553 H 0.67869 1.17765 0.40927
 H554 H 0.64735 1.12934 0.36093
 H555 H 0.62178 1.07058 0.37479
 H556 H 0.58326 1.03474 0.40711
 H557 H 0.60126 1.11603 0.47514
 H558 H 0.63974 1.15284 0.44238
 C559 C 0.81235 0.74048 0.17279
 C560 C 0.83219 0.72462 0.14996
 C561 C 0.82515 0.68765 0.14018
 C562 C 0.79612 0.66801 0.15225
 C563 C 0.77684 0.68346 0.17525
 C564 C 0.78475 0.71980 0.18618
 C565 C 0.84942 0.66965 0.11858
 C566 C 0.85438 0.63173 0.11734
 C567 C 0.88044 0.61160 0.09833
 C568 C 0.88178 0.57165 0.09981
 C569 C 0.90714 0.55104 0.08401
 C570 C 0.93195 0.56990 0.06634
 C571 C 0.93008 0.60975 0.06408
 C572 C 0.90465 0.63044 0.07987
 H573 H 0.82001 0.76807 0.18087
 H574 H 0.85422 0.74055 0.14086
 H575 H 0.78864 0.64017 0.14460
 H576 H 0.75656 0.66589 0.18516
 H577 H 0.86502 0.68844 0.10507
 H578 H 0.83966 0.61384 0.13221
 H579 H 0.86346 0.55624 0.11369
 H580 H 0.90775 0.52036 0.08608
 H581 H 0.94873 0.62508 0.05045
 H582 H 0.90478 0.66102 0.07780
 C583 C 0.31349 1.24038 0.67023
 C584 C 0.33198 1.22355 0.64704
 C585 C 0.32985 1.18422 0.64210
 C586 C 0.30744 1.16243 0.66005
 C587 C 0.28958 1.17901 0.68336
 C588 C 0.29220 1.21826 0.68888
 C589 C 0.35190 1.16649 0.61880
 C590 C 0.36254 1.12994 0.62015
 C591 C 0.38723 1.11117 0.59935
 C592 C 0.40500 1.07814 0.60873
 C593 C 0.42938 1.05956 0.59078
 C594 C 0.43638 1.07318 0.56271
 C595 C 0.41768 1.10542 0.55265
 C596 C 0.39335 1.12443 0.57089
 H597 H 0.31675 1.27050 0.67393
 H598 H 0.34882 1.24112 0.63344
 H599 H 0.30360 1.13240 0.65636
 H600 H 0.27347 1.16077 0.69702
 H601 H 0.36177 1.18468 0.60162
 H602 H 0.35514 1.11312 0.63888
 H603 H 0.40058 1.06699 0.63038
 H604 H 0.44314 1.03463 0.59908
 H605 H 0.42252 1.11644 0.53105
 H606 H 0.37946 1.14925 0.56263
 C607 C 0.76088 0.33377 -0.18372
 C608 C 0.77844 0.35376 -0.16202
 C609 C 0.80588 0.33671 -0.14585
 C610 C 0.81417 0.29813 -0.15119
 C611 C 0.79624 0.27790 -0.17288
 C612 C 0.76968 0.29560 -0.18983
 C613 C 0.82640 0.36135 -0.12559
 C614 C 0.85195 0.34898 -0.10742
 C615 C 0.87445 0.37443 -0.08931
 C616 C 0.89390 0.35807 -0.06644
 C617 C 0.91806 0.37961 -0.05049
 C618 C 0.92364 0.41821 -0.05702
 C619 C 0.90337 0.43518 -0.07921
 C620 C 0.87915 0.41351 -0.09532
 H621 H 0.74135 0.34908 -0.19656
 H622 H 0.77140 0.38335 -0.15865
 H623 H 0.83535 0.28363 -0.13969
 H624 H 0.80452 0.24896 -0.17725
 H625 H 0.82005 0.39139 -0.12608
 H626 H 0.85696 0.31881 -0.10532
 H627 H 0.89098 0.32818 -0.06125
 H628 H 0.93314 0.36567 -0.03345
 H629 H 0.90733 0.46476 -0.08491
 H630 H 0.86544 0.42727 -0.11311
 C631 C 0.30817 0.76104 0.32638
 C632 C 0.32736 0.77665 0.34951
 C633 C 0.32497 0.81568 0.35578
 C634 C 0.30187 0.83845 0.33903
 C635 C 0.28320 0.82308 0.31583
 C636 C 0.28588 0.78411 0.30910
 C637 C 0.34712 0.83198 0.37942
 C638 C 0.35686 0.86872 0.37966
 C639 C 0.38140 0.88602 0.40106
 C640 C 0.39914 0.91941 0.39287
 C641 C 0.42356 0.93642 0.41139
 C642 C 0.43055 0.92087 0.43888
 C643 C 0.41172 0.88839 0.44783
 C644 C 0.38740 0.87095 0.42901
 H645 H 0.31138 0.73110 0.32178
 H646 H 0.34477 0.75833 0.36214
 H647 H 0.29788 0.86827 0.34370
 H648 H 0.26621 0.84199 0.30336
 H649 H 0.35764 0.81266 0.39565
 H650 H 0.34888 0.88692 0.36183
 H651 H 0.39478 0.93196 0.37167
 H652 H 0.43750 0.96156 0.40397
 H653 H 0.41665 0.87583 0.46893
 H654 H 0.37347 0.84584 0.43638
 C655 C 1.19809 1.23371 0.32447
 C656 C 1.17188 1.21958 0.34295
 C657 C 1.14666 1.19390 0.33273
 C658 C 1.14658 1.18433 0.30321
 C659 C 1.17241 1.19922 0.28448
 C660 C 1.19905 1.22359 0.29497
 C661 C 1.12252 1.17583 0.35385
 C662 C 1.11573 1.13856 0.35290
 C663 C 1.09679 1.11735 0.37601
 C664 C 1.08509 1.08051 0.36979
 C665 C 1.06850 1.05851 0.39104
 C666 C 1.06366 1.07274 0.41916
 C667 C 1.07554 1.10944 0.42563
 C668 C 1.09193 1.13164 0.40428
 H669 H 1.21857 1.25090 0.33396
 H670 H 1.17248 1.22709 0.36570
 H671 H 1.12684 1.16504 0.29470
 H672 H 1.17189 1.19078 0.26196
 H673 H 1.11352 1.19290 0.37189
 H674 H 1.12587 1.12221 0.33475
 H675 H 1.08886 1.06866 0.34835
 H676 H 1.05966 1.03019 0.38552
 H677 H 1.07196 1.12106 0.44715
 H678 H 1.10127 1.15948 0.41036
 C679 C 0.67956 0.67276 -0.21866
 C680 C 0.65754 0.65185 -0.19987
 C681 C 0.65968 0.65689 -0.16974
 C682 C 0.68301 0.68417 -0.15880
 C683 C 0.70460 0.70500 -0.17736
 C684 C 0.70368 0.69950 -0.20759
 C685 C 0.63626 0.63522 -0.14992
 C686 C 0.64613 0.62623 -0.12276
 C687 C 0.62154 0.60902 -0.10144
 C688 C 0.63510 0.58507 -0.07961
 C689 C 0.61206 0.56806 -0.05950
 C690 C 0.57519 0.57550 -0.06058
 C691 C 0.56206 0.60122 -0.08149
 C692 C 0.58493 0.61766 -0.10175
 H693 H 0.67778 0.66780 -0.24174
 H694 H 0.63917 0.63140 -0.20882
 H695 H 0.68436 0.68997 -0.13580
 H696 H 0.72251 0.72507 -0.16753
 H697 H 0.61042 0.62653 -0.15792
 H698 H 0.67331 0.63124 -0.11585
 H699 H 0.66341 0.57872 -0.07863
 H700 H 0.62295 0.54837 -0.04366
 H701 H 0.53382 0.60779 -0.08287
 H702 H 0.57386 0.63722 -0.11758
 C703 C 0.82177 1.18538 0.72484
 C704 C 0.84315 1.16288 0.70650
 C705 C 0.84133 1.16753 0.67627
 C706 C 0.81963 1.19632 0.66481
 C707 C 0.79858 1.21844 0.68284
 C708 C 0.79868 1.21317 0.71315
 C709 C 0.86261 1.14330 0.65657
 C710 C 0.85054 1.13391 0.63015
 C711 C 0.87276 1.11486 0.60805
 C712 C 0.85645 1.09254 0.58672
 C713 C 0.87710 1.07423 0.56556
 C714 C 0.91434 1.07851 0.56525
 C715 C 0.93025 1.10272 0.58562
 C716 C 0.90975 1.12059 0.60681
 H717 H 0.82268 1.18034 0.74799
 H718 H 0.86028 1.14116 0.71584
 H719 H 0.81849 1.20164 0.64170
 H720 H 0.78081 1.23829 0.67232
 H721 H 0.88850 1.13335 0.66384
 H722 H 0.82318 1.14052 0.62434
 H723 H 0.82781 1.08847 0.58693
 H724 H 0.86413 1.05576 0.55018
 H725 H 0.95886 1.10704 0.58578
 H726 H 0.92294 1.13897 0.62212
 C727 C 0.32816 0.71853 0.20143
 C728 C 0.34696 0.70100 0.17893
 C729 C 0.33258 0.66959 0.16461
 C730 C 0.30044 0.65402 0.17482
 C731 C 0.28177 0.67139 0.19745
 C732 C 0.29437 0.70508 0.20996
 C733 C 0.35205 0.65351 0.13955
 C734 C 0.33580 0.63548 0.11772
 C735 C 0.35579 0.61824 0.09334
 C736 C 0.34233 0.58541 0.08025
 C737 C 0.36276 0.56557 0.05983
 C738 C 0.39685 0.57854 0.05196
 C739 C 0.40885 0.61330 0.06310
 C740 C 0.38852 0.63300 0.08359
 H741 H 0.33930 0.74388 0.21094
 H742 H 0.37217 0.71294 0.17194
 H743 H 0.28961 0.62845 0.16542
 H744 H 0.25714 0.65869 0.20464
 H745 H 0.38069 0.65743 0.13899
 H746 H 0.30719 0.63141 0.11830
 H747 H 0.31684 0.57394 0.08701
 H748 H 0.35271 0.53900 0.05146
 H749 H 0.43480 0.62432 0.05714
 H750 H 0.39893 0.65922 0.09223
 C751 C 1.17922 0.83752 0.71855
 C752 C 1.15978 0.86093 0.69945
 C753 C 1.16271 0.85615 0.66929
 C754 C 1.18499 0.82728 0.65864
 C755 C 1.20409 0.80407 0.67752
 C756 C 1.20167 0.80858 0.70782
 C757 C 1.14024 0.87912 0.64934
 C758 C 1.14919 0.88554 0.62150
 C759 C 1.12478 0.90406 0.60051
 C760 C 1.13886 0.92494 0.57714
 C761 C 1.11611 0.94354 0.55752
 C762 C 1.07890 0.94100 0.56076
 C763 C 1.06501 0.91801 0.58311
 C764 C 1.08764 0.89984 0.60277
 H765 H 1.17619 0.84178 0.74165
 H766 H 1.14225 0.88264 0.70824
 H767 H 1.18685 0.82143 0.63568
 H768 H 1.22018 0.78183 0.66794
 H769 H 1.11551 0.89074 0.65786
 H770 H 1.17548 0.87755 0.61373
 H771 H 1.16747 0.92788 0.57461
 H772 H 1.12761 0.96100 0.54055
 H773 H 1.03646 0.91508 0.58610
 H774 H 1.07595 0.88257 0.61975
 C775 C 0.66857 0.33476 0.22628
 C776 C 0.64461 0.35678 0.20999
 C777 C 0.64093 0.35092 0.18013
 C778 C 0.66253 0.32331 0.16666
 C779 C 0.68662 0.30157 0.18284
 C780 C 0.68990 0.30664 0.21296
 C781 C 0.61612 0.37541 0.16322
 C782 C 0.60030 0.36347 0.13887
 C783 C 0.57961 0.38839 0.11891
 C784 C 0.57549 0.37638 0.09017
 C785 C 0.55935 0.40002 0.06961
 C786 C 0.54661 0.43623 0.07735
 C787 C 0.54872 0.44749 0.10649
 C788 C 0.56512 0.42383 0.12711
 H789 H 0.67029 0.33996 0.24932
 H790 H 0.62867 0.37830 0.22081
 H791 H 0.66161 0.31903 0.14347
 H792 H 0.70297 0.28105 0.17143
 H793 H 0.61170 0.40403 0.17094
 H794 H 0.60455 0.33436 0.13204
 H795 H 0.58600 0.34909 0.08329
 H796 H 0.55772 0.39026 0.04743
 H797 H 0.53870 0.47505 0.11318
 H798 H 0.56662 0.43368 0.14923
 C799 C 0.81146 0.77104 0.31967
 C800 C 0.83116 0.79198 0.33951
 C801 C 0.84709 0.82616 0.33122
 C802 C 0.84493 0.83791 0.30210
 C803 C 0.82557 0.81663 0.28205
 C804 C 0.80781 0.78325 0.29067
 C805 C 0.86486 0.84904 0.35372
 C806 C 0.86551 0.88710 0.35295
 C807 C 0.88222 0.91030 0.37581
 C808 C 0.89563 0.94605 0.36816
 C809 C 0.91290 0.96834 0.38863
 C810 C 0.91685 0.95547 0.41731
 C811 C 0.90201 0.92048 0.42544
 C812 C 0.88477 0.89803 0.40486
 H813 H 0.79733 0.74676 0.32795
 H814 H 0.83245 0.78237 0.36183
 H815 H 0.85787 0.86366 0.29478
 H816 H 0.82359 0.82719 0.26005
 H817 H 0.87616 0.83396 0.37207
 H818 H 0.85411 0.90210 0.33459
 H819 H 0.89357 0.95635 0.34606
 H820 H 0.92370 0.99548 0.38188
 H821 H 0.90455 0.91005 0.44747
 H822 H 0.87349 0.87125 0.41181
 C823 C 0.33466 0.32621 -0.22767
 C824 C 0.35852 0.34648 -0.21032
 C825 C 0.35782 0.34244 -0.18004
 C826 C 0.33201 0.31888 -0.16737
 C827 C 0.30825 0.29895 -0.18454
 C828 C 0.30924 0.30193 -0.21499
 C829 C 0.38225 0.36497 -0.16185
 C830 C 0.39317 0.35290 -0.13563
 C831 C 0.41109 0.37749 -0.11419
 C832 C 0.40867 0.36763 -0.08469
 C833 C 0.42087 0.39237 -0.06332
 C834 C 0.43581 0.42741 -0.07113
 C835 C 0.44056 0.43609 -0.10065
 C836 C 0.42849 0.41134 -0.12200
 H837 H 0.33631 0.32953 -0.25096
 H838 H 0.37778 0.36509 -0.22056
 H839 H 0.32949 0.31631 -0.14408
 H840 H 0.28915 0.28101 -0.17359
 H841 H 0.38967 0.39271 -0.16993
 H842 H 0.38592 0.32464 -0.12839
 H843 H 0.39580 0.34147 -0.07808
 H844 H 0.41719 0.38481 -0.04073
 H845 H 0.45277 0.46258 -0.10729
 H846 H 0.43232 0.41931 -0.14444
 C847 C 1.22816 0.32504 -0.19023
 C848 C 1.20978 0.34377 -0.16824
 C849 C 1.18558 0.32437 -0.15050
 C850 C 1.18098 0.28502 -0.15473
 C851 C 1.19966 0.26601 -0.17695
 C852 C 1.22335 0.28588 -0.19521
 C853 C 1.16356 0.34752 -0.13027
 C854 C 1.14510 0.33409 -0.10751
 C855 C 1.12184 0.35938 -0.08972
 C856 C 1.11682 0.35179 -0.06008
 C857 C 1.09419 0.37487 -0.04327
 C858 C 1.07564 0.40557 -0.05599
 C859 C 1.08078 0.41316 -0.08561
 C860 C 1.10348 0.39037 -0.10227
 H861 H 1.24555 0.34190 -0.20385
 H862 H 1.21376 0.37406 -0.16568
 H863 H 1.16189 0.26923 -0.14190
 H864 H 1.19438 0.23621 -0.18052
 H865 H 1.16306 0.37789 -0.13432
 H866 H 1.14767 0.30451 -0.10123
 H867 H 1.13040 0.32794 -0.04993
 H868 H 1.09049 0.36810 -0.02053
 H869 H 1.06669 0.43641 -0.09609
 H870 H 1.10575 0.39649 -0.12521
 C871 C 0.69294 0.74745 0.32272
 C872 C 0.67406 0.76362 0.34597
 C873 C 0.68328 0.79957 0.35672
 C874 C 0.71329 0.81780 0.34496
 C875 C 0.73156 0.80212 0.32152
 C876 C 0.72177 0.76673 0.30984
 C877 C 0.66034 0.81794 0.37914
 C878 C 0.65855 0.85593 0.38264
 C879 C 0.63378 0.87629 0.40267
 C880 C 0.61171 0.85764 0.42292
 C881 C 0.58735 0.87836 0.43976
 C882 C 0.58459 0.91812 0.43695
 C883 C 0.60764 0.93688 0.41770
 C884 C 0.63187 0.91620 0.40078
 H885 H 0.68377 0.72074 0.31400
 H886 H 0.65120 0.74871 0.35472
 H887 H 0.72241 0.84477 0.35318
 H888 H 0.75235 0.81910 0.31180
 H889 H 0.64279 0.79957 0.39134
 H890 H 0.67462 0.87389 0.36880
 H891 H 0.61266 0.82716 0.42579
 H892 H 0.57018 0.86311 0.45468
 H893 H 0.60632 0.96747 0.41515
 H894 H 0.64873 0.93150 0.38565
 C895 C 0.78208 0.67532 -0.18235
 C896 C 0.79965 0.65623 -0.16016
 C897 C 0.82508 0.67458 -0.14323
 C898 C 0.83142 0.71357 -0.14828
 C899 C 0.81329 0.73312 -0.17067
 C900 C 0.78858 0.71407 -0.18831
 C901 C 0.84629 0.65022 -0.12316
 C902 C 0.86742 0.66224 -0.10171
 C903 C 0.88946 0.63479 -0.08466
 C904 C 0.89631 0.64126 -0.05518
 C905 C 0.91748 0.61566 -0.03915
 C906 C 0.93274 0.58350 -0.05249
 C907 C 0.92581 0.57713 -0.08197
 C908 C 0.90460 0.60243 -0.09785
 H909 H 0.76406 0.65881 -0.19545
 H910 H 0.79423 0.62625 -0.15699
 H911 H 0.85138 0.72856 -0.13597
 H912 H 0.81978 0.76255 -0.17494
 H913 H 0.84400 0.61982 -0.12634
 H914 H 0.86805 0.69205 -0.09604
 H915 H 0.88524 0.66610 -0.04456
 H916 H 0.92271 0.62159 -0.01654
 H917 H 0.93741 0.55285 -0.09298
 H918 H 0.90090 0.59707 -0.12072
 C919 C 0.27220 1.18753 0.32621
 C920 C 0.28912 1.16590 0.34761
 C921 C 0.32218 1.17681 0.35885
 C922 C 0.33697 1.21147 0.34923
 C923 C 0.31977 1.23342 0.32783
 C924 C 0.28748 1.22135 0.31544
 C925 C 0.34133 1.14932 0.37814
 C926 C 0.37012 1.15772 0.39405
 C927 C 0.39054 1.12914 0.41142
 C928 C 0.41199 1.14219 0.43408
 C929 C 0.43416 1.11720 0.44941
 C930 C 0.43591 1.07836 0.44230
 C931 C 0.41365 1.06480 0.42023
 C932 C 0.39122 1.08994 0.40486
 H933 H 0.24827 1.17594 0.31679
 H934 H 0.27703 1.13939 0.35439
 H935 H 0.36268 1.22088 0.35682
 H936 H 0.33299 1.25863 0.31975
 H937 H 0.33092 1.12071 0.37918
 H938 H 0.37905 1.18686 0.39506
 H939 H 0.41209 1.17209 0.43966
 H940 H 0.45077 1.12863 0.46641
 H941 H 0.41454 1.03512 0.41413
 H942 H 0.37570 1.07875 0.38716
 C943 C 1.19819 0.74396 0.17128
 C944 C 1.18128 0.72718 0.14733
 C945 C 1.17042 0.68896 0.14835
 C946 C 1.17477 0.66884 0.17446
 C947 C 1.19154 0.68542 0.19809
 C948 C 1.20520 0.72266 0.19658
 C949 C 1.15268 0.67103 0.12293
 C950 C 1.15348 0.63317 0.11867
 C951 C 1.13110 0.61244 0.09748
 C952 C 1.12105 0.57514 0.10454
 C953 C 1.09803 0.55486 0.08669
 C954 C 1.08534 0.57086 0.06078
 C955 C 1.09680 0.60746 0.05273
 C956 C 1.11924 0.62832 0.07110
 H957 H 1.20596 0.77347 0.16984
 H958 H 1.17694 0.74397 0.12791
 H959 H 1.16466 0.64029 0.17708
 H960 H 1.19390 0.66839 0.21758
 H961 H 1.13773 0.68922 0.10830
 H962 H 1.16928 0.61556 0.13312
 H963 H 1.12997 0.56208 0.12459
 H964 H 1.08950 0.52682 0.09348
 H965 H 1.08713 0.62055 0.03293
 H966 H 1.12707 0.65671 0.06472
 C967 C 0.68791 1.24078 0.67441
 C968 C 0.67150 1.22081 0.65186
 C969 C 0.68016 1.18248 0.64648
 C970 C 0.70683 1.16513 0.66342
 C971 C 0.72270 1.18477 0.68609
 C972 C 0.71375 1.22301 0.69198
 C973 C 0.66032 1.16147 0.62369
 C974 C 0.65909 1.12322 0.62213
 C975 C 0.63678 1.10180 0.60119
 C976 C 0.62948 1.06326 0.60692
 C977 C 0.60638 1.04270 0.58914
 C978 C 0.59006 1.06035 0.56525
 C979 C 0.59893 1.09818 0.55853
 C980 C 0.62218 1.11862 0.57613
 H981 H 0.67930 1.26965 0.67867
 H982 H 0.65113 1.23506 0.63913
 H983 H 0.71547 1.13620 0.65967
 H984 H 0.74167 1.16934 0.69938
 H985 H 0.64430 1.17846 0.60904
 H986 H 0.67291 1.10626 0.63818
 H987 H 0.64075 1.04933 0.62581
 H988 H 0.60005 1.01360 0.59484
 H989 H 0.58716 1.11234 0.53994
 H990 H 0.62816 1.14760 0.57007
 C991 C 0.79816 0.25961 0.17326
 C992 C 0.81673 0.27485 0.14947
 C993 C 0.81262 0.31330 0.14171
 C994 C 0.78784 0.33557 0.15716
 C995 C 0.76953 0.32050 0.18092
 C996 C 0.77446 0.28233 0.18956
 C997 C 0.83559 0.32991 0.11851
 C998 C 0.84586 0.36646 0.11896
 C999 C 0.87240 0.38348 0.09882
 C1000 C 0.89225 0.41448 0.10871
 C1001 C 0.91844 0.43100 0.09128
 C1002 C 0.92498 0.41755 0.06314
 C1003 C 0.90421 0.38746 0.05260
 C1004 C 0.87827 0.37032 0.07038
 H1005 H 0.80368 0.23051 0.17955
 H1006 H 0.83558 0.25697 0.13790
 H1007 H 0.78296 0.36498 0.15137
 H1008 H 0.75225 0.33942 0.19304
 H1009 H 0.84694 0.31084 0.10254
 H1010 H 0.83711 0.38428 0.13672
 H1011 H 0.88808 0.42546 0.13037
 H1012 H 0.93388 0.45422 0.09997
 H1013 H 0.90869 0.37656 0.03096
 H1014 H 0.86284 0.34705 0.06181
 C1015 C 0.30380 0.75311 0.67287
 C1016 C 0.32442 0.76852 0.65013
 C1017 C 0.32548 0.80811 0.64532
 C1018 C 0.30412 0.83160 0.66281
 C1019 C 0.28455 0.81654 0.68565
 C1020 C 0.28380 0.77707 0.69118
 C1021 C 0.34877 0.82453 0.62220
 C1022 C 0.36025 0.86078 0.62308
 C1023 C 0.38290 0.87991 0.60095
 C1024 C 0.38600 0.91970 0.60230
 C1025 C 0.40913 0.93926 0.58379
 C1026 C 0.43002 0.91944 0.56351
 C1027 C 0.42608 0.87974 0.56137
 C1028 C 0.40279 0.86013 0.57988
 H1029 H 0.30420 0.72268 0.67650
 H1030 H 0.34018 0.74958 0.63670
 H1031 H 0.30218 0.86191 0.65914
 H1032 H 0.26974 0.83643 0.69894
 H1033 H 0.35677 0.80614 0.60460
 H1034 H 0.35308 0.87821 0.64145
 H1035 H 0.37095 0.93577 0.61823
 H1036 H 0.41151 0.96977 0.58602
 H1037 H 0.44190 0.86362 0.54599
 H1038 H 0.40159 0.82952 0.57824
 C1039 C 0.26952 1.19102 -0.17739
 C1040 C 0.28596 1.17101 -0.15475
 C1041 C 0.32324 1.17128 -0.15177
 C1042 C 0.34366 1.19338 -0.17092
 C1043 C 0.32741 1.21294 -0.19355
 C1044 C 0.29013 1.21199 -0.19722
 C1045 C 0.34022 1.14869 -0.12850
 C1046 C 0.37373 1.13525 -0.13073
 C1047 C 0.39201 1.11445 -0.10724
 C1048 C 0.42938 1.11622 -0.10561
 C1049 C 0.44763 1.09794 -0.08314
 C1050 C 0.42869 1.07725 -0.06214
 C1051 C 0.39141 1.07437 -0.06437
 C1052 C 0.37320 1.09275 -0.08672
 H1053 H 0.24085 1.18926 -0.17967
 H1054 H 0.26964 1.15455 -0.13995
 H1055 H 0.37226 1.19590 -0.16854
 H1056 H 0.34438 1.22895 -0.20811
 H1057 H 0.32451 1.14304 -0.10925
 H1058 H 0.38917 1.14064 -0.15016
 H1059 H 0.44442 1.13243 -0.12144
 H1060 H 0.47641 1.10031 -0.08202
 H1061 H 0.37621 1.05811 -0.04868
 H1062 H 0.34455 1.08955 -0.08795
 C1063 C 0.76501 0.67554 0.32069
 C1064 C 0.78115 0.65185 0.34144
 C1065 C 0.81726 0.64148 0.33869
 C1066 C 0.83641 0.65354 0.31422
 C1067 C 0.82061 0.67729 0.29387
 C1068 C 0.78483 0.68926 0.29697
 C1069 C 0.83491 0.61827 0.36131
 C1070 C 0.86967 0.62258 0.36720
 C1071 C 0.88912 0.60043 0.38929
 C1072 C 0.91925 0.61682 0.40197
 C1073 C 0.93831 0.59731 0.42326
 C1074 C 0.92794 0.56072 0.43190
 C1075 C 0.89873 0.54349 0.41832
 C1076 C 0.87930 0.56328 0.39722
 H1077 H 0.73728 0.68334 0.32344
 H1078 H 0.76569 0.64229 0.35992
 H1079 H 0.86380 0.64467 0.31066
 H1080 H 0.83698 0.68623 0.27578
 H1081 H 0.81880 0.59895 0.37407
 H1082 H 0.88446 0.64498 0.35645
 H1083 H 0.92760 0.64518 0.39584
 H1084 H 0.96088 0.61111 0.43328
 H1085 H 0.89029 0.51521 0.42459
 H1086 H 0.85685 0.54944 0.38712
 C1087 C 0.72552 1.19192 0.17775
 C1088 C 0.70817 1.17146 0.15612
 C1089 C 0.67078 1.17151 0.15441
 C1090 C 0.65105 1.19362 0.17414
 C1091 C 0.66834 1.21407 0.19569
 C1092 C 0.70584 1.21346 0.19788
 C1093 C 0.65338 1.14881 0.13157
 C1094 C 0.62000 1.13545 0.13397
 C1095 C 0.60222 1.11344 0.11093
 C1096 C 0.56478 1.11397 0.10950
 C1097 C 0.54701 1.09475 0.08743
 C1098 C 0.56643 1.07436 0.06649
 C1099 C 0.60381 1.07253 0.06861
 C1100 C 0.62156 1.09177 0.09062
 H1101 H 0.75428 1.19017 0.17892
 H1102 H 0.72400 1.15488 0.14102
 H1103 H 0.62227 1.19565 0.17290
 H1104 H 0.65211 1.23051 0.21057
 H1105 H 0.66903 1.14271 0.11238
 H1106 H 0.60443 1.14152 0.15321
 H1107 H 0.54926 1.13001 0.12514
 H1108 H 0.51815 1.09638 0.08646
 H1109 H 0.61945 1.05653 0.05303
 H1110 H 0.65033 1.08934 0.09168
 C1111 C 1.17056 0.72538 0.68812
 C1112 C 1.15193 0.70850 0.66565
 C1113 C 1.16794 0.67991 0.64917
 C1114 C 1.20358 0.66944 0.65456
 C1115 C 1.22283 0.68742 0.67650
 C1116 C 1.20646 0.71553 0.69369
 C1117 C 1.14630 0.66115 0.62699
 C1118 C 1.14403 0.62327 0.62552
 C1119 C 1.11931 0.60331 0.60581
 C1120 C 1.12566 0.56478 0.59991
 C1121 C 1.10413 0.54533 0.58037
 C1122 C 1.07574 0.56409 0.56634
 C1123 C 1.06807 0.60200 0.57345
 C1124 C 1.08945 0.62139 0.59313
 H1125 H 1.15653 0.74620 0.70115
 H1126 H 1.12442 0.71681 0.66183
 H1127 H 1.21645 0.64748 0.64180
 H1128 H 1.25015 0.67863 0.68039
 H1129 H 1.12973 0.67928 0.61359
 H1130 H 1.16092 0.60606 0.63949
 H1131 H 1.14797 0.54995 0.60981
 H1132 H 1.11059 0.51602 0.57547
 H1133 H 1.04602 0.61697 0.56330
 H1134 H 1.08237 0.65047 0.59810
 C1135 C 0.74266 0.81073 -0.17381
 C1136 C 0.72553 0.83143 -0.15180
 C1137 C 0.68807 0.83252 -0.14990
 C1138 C 0.66815 0.81133 -0.16977
 C1139 C 0.68507 0.79105 -0.19169
 C1140 C 0.72258 0.79041 -0.19417
 C1141 C 0.67032 0.85468 -0.12657
 C1142 C 0.63683 0.86828 -0.12916
 C1143 C 0.61660 0.88712 -0.10555
 C1144 C 0.57913 0.88702 -0.10682
 C1145 C 0.55866 0.90349 -0.08479
 C1146 C 0.57532 0.92080 -0.06112
 C1147 C 0.61283 0.92188 -0.06019
 C1148 C 0.63331 0.90521 -0.08216
 H1149 H 0.77151 0.81100 -0.17501
 H1150 H 0.74154 0.84705 -0.13645
 H1151 H 0.63938 0.80970 -0.16831
 H1152 H 0.66840 0.77538 -0.20650
 H1153 H 0.68522 0.85923 -0.10686
 H1154 H 0.62257 0.86420 -0.14924
 H1155 H 0.56558 0.87357 -0.12474
 H1156 H 0.52983 0.90249 -0.08621
 H1157 H 0.62641 0.93536 -0.04232
 H1158 H 0.66207 0.90696 -0.08081
 C1159 C 1.25331 0.31486 0.32947
 C1160 C 1.23708 0.33723 0.35103
 C1161 C 1.20425 0.35545 0.34565
 C1162 C 1.18966 0.35390 0.31781
 C1163 C 1.20555 0.33174 0.29656
 C1164 C 1.23665 0.31025 0.30243
 C1165 C 1.18453 0.37525 0.36898
 C1166 C 1.14882 0.37296 0.37064
 C1167 C 1.12682 0.39312 0.39229
 C1168 C 1.09444 0.37687 0.40112
 C1169 C 1.07260 0.39526 0.42129
 C1170 C 1.08235 0.43077 0.43237
 C1171 C 1.11409 0.44780 0.42266
 C1172 C 1.13632 0.42900 0.40292
 H1173 H 1.27781 0.29985 0.33446
 H1174 H 1.24930 0.33891 0.37222
 H1175 H 1.16533 0.36925 0.31258
 H1176 H 1.19243 0.33092 0.27574
 H1177 H 1.19940 0.39034 0.38536
 H1178 H 1.13486 0.35429 0.35593
 H1179 H 1.08635 0.34950 0.39279
 H1180 H 1.04824 0.38160 0.42843
 H1181 H 1.12228 0.47514 0.43098
 H1182 H 1.16063 0.44271 0.39581
 C1183 C 0.27938 0.77607 0.16932
 C1184 C 0.30122 0.79158 0.14774
 C1185 C 0.31625 0.82765 0.15117
 C1186 C 0.30763 0.84868 0.17608
 C1187 C 0.28615 0.83300 0.19779
 C1188 C 0.27285 0.79575 0.19535
 C1189 C 0.34256 0.84142 0.12951
 C1190 C 0.34819 0.87839 0.12435
 C1191 C 0.37364 0.89197 0.10216
 C1192 C 0.36376 0.92316 0.08501
 C1193 C 0.38660 0.93658 0.06347
 C1194 C 0.42050 0.92007 0.05927
 C1195 C 0.43109 0.88957 0.07710
 C1196 C 0.40759 0.87525 0.09820
 H1197 H 0.26971 0.74753 0.16621
 H1198 H 0.30726 0.77483 0.12868
 H1199 H 0.31906 0.87641 0.17973
 H1200 H 0.28186 0.84953 0.21722
 H1201 H 0.35675 0.82044 0.11666
 H1202 H 0.33153 0.89952 0.13487
 H1203 H 0.33787 0.93662 0.08782
 H1204 H 0.37762 0.95996 0.04996
 H1205 H 0.45706 0.87636 0.07427
 H1206 H 0.41604 0.85152 0.11160
 C1207 C 0.81351 0.30865 0.69780
 C1208 C 0.83124 0.32613 0.67502
 C1209 C 0.81262 0.33809 0.65033
 C1210 C 0.77570 0.33164 0.64873
 C1211 C 0.75759 0.31425 0.67193
 C1212 C 0.77638 0.30222 0.69672
 C1213 C 0.83224 0.35587 0.62601
 C1214 C 0.85980 0.37909 0.63093
 C1215 C 0.88297 0.39427 0.60785
 C1216 C 0.89704 0.43083 0.61097
 C1217 C 0.91960 0.44587 0.58980
 C1218 C 0.92941 0.42409 0.56560
 C1219 C 0.91660 0.38684 0.56303
 C1220 C 0.89322 0.37212 0.58389
 H1221 H 0.82962 0.29945 0.71595
 H1222 H 0.85991 0.32945 0.67652
 H1223 H 0.76089 0.34038 0.62968
 H1224 H 0.72915 0.30991 0.67029
 H1225 H 0.82402 0.34981 0.60403
 H1226 H 0.86537 0.38809 0.65288
 H1227 H 0.88990 0.44809 0.62953
 H1228 H 0.92903 0.47476 0.59210
 H1229 H 0.92352 0.36973 0.54436
 H1230 H 0.88345 0.34341 0.58145
 C1231 C 1.17675 1.18041 0.71870
 C1232 C 1.15217 1.16319 0.69999
 C1233 C 1.15596 1.16650 0.66973
 C1234 C 1.18567 1.18566 0.65862
 C1235 C 1.20966 1.20297 0.67705
 C1236 C 1.20573 1.20106 0.70743
 C1237 C 1.12951 1.14893 0.65012
 C1238 C 1.12454 1.16063 0.62257
 C1239 C 1.10183 1.14019 0.60172
 C1240 C 1.11119 1.14021 0.57215
 C1241 C 1.09259 1.11762 0.55241
 C1242 C 1.06420 1.09503 0.56206
 C1243 C 1.05317 1.09751 0.59118
 C1244 C 1.07173 1.11984 0.61080
 H1245 H 1.17252 1.17834 0.74187
 H1246 H 1.12976 1.14795 0.70916
 H1247 H 1.19073 1.18765 0.63559
 H1248 H 1.23035 1.21950 0.66687
 H1249 H 1.11454 1.12508 0.65857
 H1250 H 1.13918 1.18467 0.61412
 H1251 H 1.13401 1.15627 0.56461
 H1252 H 1.10155 1.11627 0.53009
 H1253 H 1.03082 1.08100 0.59908
 H1254 H 1.06280 1.12055 0.63312
 C1255 C 0.67329 0.67687 0.21379
 C1256 C 0.65106 0.65877 0.19379
 C1257 C 0.65348 0.66738 0.16411
 C1258 C 0.67706 0.69572 0.15492
 C1259 C 0.69877 0.71403 0.17477
 C1260 C 0.69788 0.70446 0.20448
 C1261 C 0.63069 0.64746 0.14303
 C1262 C 0.64192 0.63933 0.11608
 C1263 C 0.61883 0.62064 0.09461
 C1264 C 0.63365 0.59435 0.07510
 C1265 C 0.61177 0.57486 0.05568
 C1266 C 0.57486 0.58215 0.05503
 C1267 C 0.56054 0.61032 0.07334
 C1268 C 0.58224 0.62919 0.09303
 H1269 H 0.67151 0.66879 0.23641
 H1270 H 0.63257 0.63737 0.20142
 H1271 H 0.67873 0.70392 0.13231
 H1272 H 0.71716 0.73483 0.16632
 H1273 H 0.60460 0.63812 0.15021
 H1274 H 0.66933 0.64492 0.10991
 H1275 H 0.66196 0.58787 0.07565
 H1276 H 0.62354 0.55337 0.04181
 H1277 H 0.53222 0.61674 0.07334
 H1278 H 0.57033 0.65031 0.10714
 C1279 C 1.20592 0.79504 0.32844
 C1280 C 1.18658 0.81344 0.34987
 C1281 C 1.15830 0.83766 0.34280
 C1282 C 1.14983 0.84340 0.31332
 C1283 C 1.16990 0.82508 0.29145
 C1284 C 1.19848 0.80061 0.29874
 C1285 C 1.14024 0.85718 0.36722
 C1286 C 1.10624 0.86920 0.36726
 C1287 C 1.08945 0.88729 0.39313
 C1288 C 1.05212 0.88731 0.39599
 C1289 C 1.03541 0.90667 0.41884
 C1290 C 1.05573 0.92675 0.43925
 C1291 C 1.09312 0.92517 0.43720
 C1292 C 1.10978 0.90599 0.41436
 H1293 H 1.22658 0.77583 0.33575
 H1294 H 1.19370 0.80832 0.37231
 H1295 H 1.12835 0.86247 0.30715
 H1296 H 1.16305 0.83005 0.26897
 H1297 H 1.15545 0.85899 0.38705
 H1298 H 1.08978 0.86424 0.34840
 H1299 H 1.03578 0.87321 0.38003
 H1300 H 1.00650 0.90778 0.41949
 H1301 H 1.10958 0.94088 0.45217
 H1302 H 1.13851 0.90775 0.41277
 C1303 C 0.65886 0.33051 -0.22695
 C1304 C 0.63340 0.35080 -0.21084
 C1305 C 0.63140 0.34645 -0.18065
 C1306 C 0.65593 0.32213 -0.16678
 C1307 C 0.68136 0.30215 -0.18275
 C1308 C 0.68326 0.30585 -0.21309
 C1309 C 0.60568 0.36961 -0.16371
 C1310 C 0.59260 0.35773 -0.13814
 C1311 C 0.57357 0.38272 -0.11741
 C1312 C 0.57547 0.37342 -0.08787
 C1313 C 0.56143 0.39791 -0.06701
 C1314 C 0.54469 0.43210 -0.07527
 C1315 C 0.54089 0.44046 -0.10493
 C1316 C 0.55529 0.41605 -0.12586
 H1317 H 0.65949 0.33446 -0.25022
 H1318 H 0.61519 0.36991 -0.22197
 H1319 H 0.65640 0.31933 -0.14343
 H1320 H 0.69999 0.28436 -0.17097
 H1321 H 0.59913 0.39763 -0.17193
 H1322 H 0.59899 0.32925 -0.13068
 H1323 H 0.58908 0.34774 -0.08079
 H1324 H 0.56436 0.39038 -0.04435
 H1325 H 0.52769 0.46639 -0.11195
 H1326 H 0.55229 0.42357 -0.14848
 C1327 C 0.78116 1.17000 0.30284
 C1328 C 0.80029 1.15174 0.32490
 C1329 C 0.83346 1.16564 0.33396
 C1330 C 0.84851 1.19629 0.31859
 C1331 C 0.82933 1.21450 0.29648
 C1332 C 0.79445 1.20318 0.28961
 C1333 C 0.85098 1.14726 0.35936
 C1334 C 0.87809 1.16233 0.37441
 C1335 C 0.89430 1.14251 0.39964
 C1336 C 0.93129 1.14464 0.40400
 C1337 C 0.94782 1.12241 0.42542
 C1338 C 0.92747 1.09833 0.44334
 C1339 C 0.89009 1.09901 0.44070
 C1340 C 0.87367 1.12070 0.41897
 H1341 H 0.75491 1.15941 0.29757
 H1342 H 0.78841 1.12748 0.33570
 H1343 H 0.87489 1.20661 0.32355
 H1344 H 0.84170 1.23798 0.28530
 H1345 H 0.84035 1.12013 0.36635
 H1346 H 0.88999 1.18884 0.36764
 H1347 H 0.94766 1.16180 0.38971
 H1348 H 0.97669 1.12245 0.42684
 H1349 H 0.87364 1.08087 0.45417
 H1350 H 0.84492 1.11955 0.41683
 C1351 C 0.26581 0.65785 -0.20062
 C1352 C 0.27903 0.63556 -0.17784
 C1353 C 0.31060 0.64565 -0.16373
 C1354 C 0.33044 0.67642 -0.17457
 C1355 C 0.31744 0.69844 -0.19759
 C1356 C 0.28400 0.69081 -0.20986
 C1357 C 0.32260 0.62337 -0.13817
 C1358 C 0.33943 0.63956 -0.11578
 C1359 C 0.35498 0.61813 -0.09098
 C1360 C 0.38269 0.63515 -0.07541
 C1361 C 0.40171 0.61452 -0.05459
 C1362 C 0.39307 0.57650 -0.04852
 C1363 C 0.36327 0.56047 -0.06212
 C1364 C 0.34439 0.58104 -0.08325
 H1365 H 0.24027 0.65031 -0.20978
 H1366 H 0.26372 0.61136 -0.17038
 H1367 H 0.35596 0.68362 -0.16519
 H1368 H 0.33328 0.72196 -0.20518
 H1369 H 0.31693 0.59326 -0.13794
 H1370 H 0.34409 0.66993 -0.11643
 H1371 H 0.39104 0.66386 -0.08052
 H1372 H 0.42453 0.62762 -0.04439
 H1373 H 0.35608 0.53117 -0.05790
 H1374 H 0.32231 0.56737 -0.09395
 C1375 C 0.80796 0.78805 0.68093
 C1376 C 0.82967 0.80780 0.66183
 C1377 C 0.85476 0.83373 0.67213
 C1378 C 0.85721 0.83954 0.70223
 C1379 C 0.83506 0.81959 0.72158
 C1380 C 0.80985 0.79365 0.71114
 C1381 C 0.87591 0.85749 0.65183
 C1382 C 0.88038 0.84921 0.62355
 C1383 C 0.89500 0.87654 0.60215
 C1384 C 0.90903 0.86339 0.57562
 C1385 C 0.92276 0.88906 0.55509
 C1386 C 0.92257 0.92808 0.56101
 C1387 C 0.90702 0.94116 0.58686
 C1388 C 0.89313 0.91584 0.60703
 H1389 H 0.78921 0.76862 0.67145
 H1390 H 0.82555 0.80335 0.63894
 H1391 H 0.87600 0.85988 0.71076
 H1392 H 0.83751 0.82479 0.74459
 H1393 H 0.88708 0.88335 0.66048
 H1394 H 0.87278 0.82168 0.61539
 H1395 H 0.91001 0.83322 0.57106
 H1396 H 0.93474 0.87843 0.53532
 H1397 H 0.90611 0.97127 0.59173
 H1398 H 0.88076 0.92739 0.62630
 C1399 C 0.32283 0.26963 0.18146
 C1400 C 0.34645 0.28488 0.16136
 C1401 C 0.37137 0.31223 0.16952
 C1402 C 0.37329 0.32259 0.19899
 C1403 C 0.34958 0.30685 0.21936
 C1404 C 0.32344 0.28069 0.21074
 C1405 C 0.39159 0.33115 0.14581
 C1406 C 0.41685 0.35754 0.14933
 C1407 C 0.43038 0.38082 0.12473
 C1408 C 0.44204 0.41781 0.13041
 C1409 C 0.44989 0.44275 0.10769
 C1410 C 0.44643 0.43116 0.07870
 C1411 C 0.43741 0.39330 0.07294
 C1412 C 0.42962 0.36826 0.09573
 H1413 H 0.30263 0.25100 0.17319
 H1414 H 0.34403 0.27642 0.13890
 H1415 H 0.39195 0.34367 0.20640
 H1416 H 0.35095 0.31630 0.24163
 H1417 H 0.38286 0.32475 0.12406
 H1418 H 0.42523 0.36535 0.17087
 H1419 H 0.44344 0.42808 0.15248
 H1420 H 0.45753 0.47157 0.11286
 H1421 H 0.43535 0.38336 0.05083
 H1422 H 0.42240 0.33941 0.09043
   
