data_POSCAR
  _audit_creation_date              2014-09-24
  _audit_creation_method            'ToBaCCo'
  _symmetry_space_group_name_H-M    'P1'
  _symmetry_Int_Tables_number       1
  _symmetry_cell_setting            triclinic
  loop_
  _symmetry_equiv_pos_as_xyz
 x,y,z
_cell_length_a 31.9142
_cell_length_b 32.3987
_cell_length_c 39.5558
_cell_angle_alpha 89.973100
_cell_angle_beta 89.854600
_cell_angle_gamma 90.026100
loop_
  _atom_site_label
  _atom_site_type_symbol
  _atom_site_fract_x
  _atom_site_fract_y
  _atom_site_fract_z
B1 B 0.26643 0.22538 0.21994
 B2 B 0.28196 0.27383 0.22799
 B3 B 0.23223 0.26531 0.21602
 B4 B 0.21628 0.21976 0.23301
 B5 B 0.25700 0.20121 0.25638
 B6 B 0.29787 0.23504 0.25342
 B7 B 0.23283 0.27521 0.28358
 B8 B 0.21748 0.22676 0.27541
 B9 B 0.26706 0.23550 0.28753
 B10 B 0.28311 0.28101 0.27047
 B11 B 0.24241 0.29955 0.24711
 B12 B 0.20150 0.26567 0.25015
 B13 B 0.73016 0.77428 0.21878
 B14 B 0.71493 0.72578 0.22731
 B15 B 0.76435 0.73446 0.21432
 B16 B 0.78057 0.78011 0.23090
 B17 B 0.74035 0.79864 0.25496
 B18 B 0.69951 0.76466 0.25287
 B19 B 0.76541 0.72483 0.28194
 B20 B 0.78039 0.77328 0.27331
 B21 B 0.73111 0.76447 0.28640
 B22 B 0.71485 0.71881 0.26984
 B23 B 0.75505 0.70028 0.24572
 B24 B 0.79588 0.73432 0.24786
 B25 B 0.73209 0.23487 -0.28735
 B26 B 0.78169 0.22610 -0.27532
 B27 B 0.76650 0.27451 -0.28383
 B28 B 0.71630 0.28061 -0.27060
 B29 B 0.70145 0.23486 -0.25313
 B30 B 0.74218 0.20088 -0.25597
 B31 B 0.76741 0.26533 -0.21620
 B32 B 0.71764 0.27388 -0.22806
 B33 B 0.73304 0.22547 -0.21970
 B34 B 0.78309 0.21957 -0.23289
 B35 B 0.79796 0.26525 -0.25043
 B36 B 0.75720 0.29927 -0.24751
 B37 B 0.27159 0.77502 -0.21939
 B38 B 0.28684 0.72635 -0.22701
 B39 B 0.23749 0.73527 -0.21388
 B40 B 0.22110 0.78042 -0.23134
 B41 B 0.26111 0.79825 -0.25602
 B42 B 0.30197 0.76445 -0.25349
 B43 B 0.23585 0.72354 -0.28124
 B44 B 0.22091 0.77232 -0.27361
 B45 B 0.27000 0.76317 -0.28683
 B46 B 0.28652 0.71807 -0.26938
 B47 B 0.24659 0.70022 -0.24460
 B48 B 0.20568 0.73414 -0.24723
 B49 B 1.22884 1.27407 0.71938
 B50 B 1.21389 1.22538 0.72737
 B51 B 1.26317 1.23451 0.71415
 B52 B 1.27932 1.27992 0.73125
 B53 B 1.23923 1.29774 0.75582
 B54 B 1.19856 1.26365 0.75357
 B55 B 1.26496 1.22345 0.78159
 B56 B 1.27961 1.27226 0.77357
 B57 B 1.23059 1.26291 0.78690
 B58 B 1.21430 1.21754 0.76980
 B59 B 1.25431 1.19970 0.74513
 B60 B 1.29504 1.23390 0.74748
 B61 B 0.76615 0.72528 0.71981
 B62 B 0.78168 0.77375 0.72778
 B63 B 0.73185 0.76518 0.71605
 B64 B 0.71610 0.71960 0.73312
 B65 B 0.75701 0.70110 0.75630
 B66 B 0.79781 0.73498 0.75315
 B67 B 0.73296 0.77507 0.78361
 B68 B 0.71761 0.72660 0.77551
 B69 B 0.76726 0.73539 0.78740
 B70 B 0.78314 0.78093 0.77027
 B71 B 0.74225 0.79942 0.74710
 B72 B 0.70140 0.76549 0.75033
 B73 B 1.23204 0.73550 0.21236
 B74 B 1.28158 0.72683 0.22460
 B75 B 1.26627 0.77525 0.21629
 B76 B 1.21595 0.78105 0.22926
 B77 B 1.20112 0.73512 0.24641
 B78 B 1.24200 0.70131 0.24362
 B79 B 1.26662 0.76555 0.28388
 B80 B 1.21692 0.77401 0.27176
 B81 B 1.23246 0.72558 0.27998
 B82 B 1.28264 0.71996 0.26702
 B83 B 1.29748 0.76583 0.24981
 B84 B 1.25656 0.79970 0.25268
 B85 B 0.77006 1.26319 0.21342
 B86 B 0.72094 1.27244 0.22654
 B87 B 0.73581 1.22362 0.21893
 B88 B 0.78644 1.21806 0.23095
 B89 B 0.80189 1.26442 0.24686
 B90 B 0.76112 1.29830 0.24421
 B91 B 0.73719 1.23539 0.28630
 B92 B 0.78658 1.22637 0.27334
 B93 B 0.77139 1.27507 0.28087
 B94 B 0.72097 1.28055 0.26879
 B95 B 0.70553 1.23429 0.25287
 B96 B 0.74637 1.20030 0.25563
 O97 O 0.45585 1.07700 0.02954
 O98 O 0.54372 0.92720 0.02953
 O99 O 0.41760 0.95159 0.01604
 O100 O 0.58249 1.05256 0.01766
 O101 O 0.47227 0.93261 0.04029
 O102 O 0.52729 1.07170 0.04130
 O103 O 0.57220 0.98461 0.04419
 O104 O 0.42683 1.01931 0.04315
 C105 C 0.43242 1.05657 0.04902
 C106 C 0.56627 0.94733 0.04970
 C107 C 0.43377 0.93426 0.04038
 C108 C 0.56580 1.06981 0.04186
 O109 O 0.54490 1.07727 -0.02826
 O110 O 0.45659 0.92768 -0.02951
 O111 O 0.41820 1.05300 -0.01664
 O112 O 0.58277 0.95162 -0.01584
 O113 O 0.52802 0.93312 -0.04023
 O114 O 0.47350 1.07238 -0.04005
 O115 O 0.57357 1.01964 -0.04238
 O116 O 0.42816 0.98532 -0.04370
 Co117 Co 0.50037 1.06825 0.00061
 Co118 Co 0.50016 0.93647 0.00005
 Co119 Co 0.43091 1.00228 -0.00023
 Co120 Co 0.56951 1.00210 0.00086
 O121 O 0.50023 1.00228 0.00033
 C122 C 0.56810 1.05697 -0.04797
 C123 C 0.43417 0.94813 -0.04957
 C124 C 0.43500 1.07050 -0.04070
 C125 C 0.56653 0.93460 -0.04029
 O126 O 0.95576 0.57699 0.52959
 O127 O 1.04352 0.42730 0.52972
 O128 O 0.91743 0.45158 0.51612
 O129 O 1.08237 0.55262 0.51752
 O130 O 0.97211 0.43271 0.54041
 O131 O 1.02724 0.57177 0.54123
 O132 O 1.07208 0.48475 0.54425
 O133 O 0.92672 0.51930 0.54322
 C134 C 0.93228 0.55658 0.54904
 C135 C 1.06597 0.44753 0.54991
 C136 C 0.93361 0.43425 0.54046
 C137 C 1.06574 0.56989 0.54174
 O138 O 1.04468 0.57717 0.47159
 O139 O 0.95648 0.42770 0.47059
 O140 O 0.91797 0.55296 0.48345
 O141 O 1.08263 0.45152 0.48432
 O142 O 1.02789 0.43311 0.45991
 O143 O 0.97323 0.57235 0.45999
 O144 O 1.07344 0.51951 0.45760
 O145 O 0.92802 0.48531 0.45639
 Co146 Co 1.00023 0.56824 0.50059
 Co147 Co 1.00001 0.43650 0.50017
 Co148 Co 0.93078 0.50226 0.49985
 Co149 Co 1.06939 0.50209 0.50088
 O150 O 1.00010 0.50228 0.50037
 C151 C 1.06786 0.55681 0.45191
 C152 C 0.93403 0.44813 0.45054
 C153 C 0.93472 0.57058 0.45943
 C154 C 1.06640 0.43449 0.45987
 O155 O 1.05023 0.47482 0.05798
 O156 O 1.05227 0.52602 -0.05769
 O157 O 1.05347 0.42829 -0.01604
 O158 O 1.05307 0.57172 0.01596
 O159 O 1.03474 0.45516 -0.06310
 O160 O 1.03266 0.54552 0.06284
 O161 O 1.02494 0.58118 -0.04055
 O162 O 1.02383 0.41947 0.04021
 C163 C 1.05228 0.43681 0.05598
 C164 C 1.05409 0.56406 -0.05575
 C165 C 1.05951 0.43258 -0.04682
 C166 C 1.05829 0.56751 0.04681
 O167 O 0.94830 0.52561 0.05694
 O168 O 0.95038 0.47494 -0.05886
 O169 O 0.94691 0.42824 0.01535
 O170 O 0.94735 0.57172 -0.01662
 O171 O 0.96782 0.54569 -0.06355
 O172 O 0.96584 0.45491 0.06239
 O173 O 0.97545 0.58096 0.03992
 O174 O 0.97663 0.41957 -0.04096
 Co175 Co 0.99934 0.50025 0.05432
 Co176 Co 1.00123 0.50046 -0.05507
 Co177 Co 1.00020 0.43206 -0.00036
 Co178 Co 1.00021 0.56821 -0.00032
 O179 O 1.00024 0.50022 -0.00036
 C180 C 0.94640 0.56363 0.05511
 C181 C 0.94824 0.43694 -0.05678
 C182 C 0.94096 0.43241 0.04616
 C183 C 0.94216 0.56761 -0.04749
 O184 O 0.54955 0.97480 0.55800
 O185 O 0.55139 1.02649 0.44238
 O186 O 0.55298 0.92875 0.48380
 O187 O 0.55247 1.07201 0.51600
 O188 O 0.53405 0.95574 0.43684
 O189 O 0.53222 1.04553 0.56286
 O190 O 0.52404 1.08161 0.45953
 O191 O 0.52319 0.91953 0.54005
 C192 C 0.55155 0.93679 0.55598
 C193 C 0.55318 1.06452 0.44430
 C194 C 0.55903 0.93331 0.45303
 C195 C 0.55781 1.06759 0.54683
 O196 O 0.44772 1.02592 0.55711
 O197 O 0.44955 0.97525 0.44129
 O198 O 0.44639 0.92832 0.51513
 O199 O 0.44661 1.07201 0.48370
 O200 O 0.46687 1.04603 0.43670
 O201 O 0.46512 0.95507 0.56223
 O202 O 0.47504 1.08121 0.54017
 O203 O 0.47615 0.91989 0.45881
 Co204 Co 0.49871 1.00037 0.55434
 Co205 Co 0.50040 1.00087 0.44500
 Co206 Co 0.49967 0.93231 0.49946
 Co207 Co 0.49954 1.06850 0.49982
 O208 O 0.49958 1.00049 0.49966
 C209 C 0.44591 1.06396 0.55532
 C210 C 0.44756 0.93722 0.44319
 C211 C 0.44035 0.93252 0.54594
 C212 C 0.44126 1.06788 0.45286
 O213 O 1.07110 1.04688 0.47768
 O214 O 0.92844 1.04634 0.52305
 O215 O 0.98643 1.05268 0.44291
 O216 O 1.01295 1.04947 0.55952
 O217 O 0.92619 1.03809 0.46507
 O218 O 1.07317 1.03569 0.53629
 O219 O 0.94488 1.01300 0.56554
 O220 O 1.05320 1.01539 0.43452
 C221 C 1.07117 1.04520 0.44666
 C222 C 0.92806 1.04377 0.55401
 C223 C 0.94890 1.06153 0.44698
 C224 C 1.05069 1.05815 0.55548
 O225 O 1.07068 0.94901 0.52414
 O226 O 0.92970 0.95008 0.47440
 O227 O 1.01534 0.94578 0.44166
 O228 O 0.98195 0.94308 0.55677
 O229 O 0.92340 0.95839 0.53233
 O230 O 1.07467 0.95939 0.46608
 O231 O 1.04894 0.97900 0.56703
 O232 O 0.94862 0.98330 0.43242
 Co233 Co 1.06629 0.99785 0.50094
 Co234 Co 0.93288 0.99816 0.49881
 Co235 Co 1.00065 0.99914 0.44459
 Co236 Co 0.99733 0.99637 0.55565
 O237 O 0.99929 0.99783 0.50007
 C238 C 1.06714 0.94914 0.55507
 C239 C 0.93052 0.95289 0.44346
 C240 C 1.05278 0.93682 0.44657
 C241 C 0.94459 0.93474 0.55132
 O242 O 0.57171 0.54695 -0.02173
 O243 O 0.42884 0.54753 0.02255
 O244 O 0.48711 0.55152 -0.05806
 O245 O 0.51353 0.55064 0.05886
 O246 O 0.42667 0.53727 -0.03591
 O247 O 0.57375 0.53589 0.03661
 O248 O 0.44558 0.51488 0.06544
 O249 O 0.55459 0.51505 -0.06488
 C250 C 0.57201 0.54517 -0.05275
 C251 C 0.42858 0.54539 0.05357
 C252 C 0.44945 0.56023 -0.05434
 C253 C 0.55131 0.55891 0.05522
 O254 O 0.57039 0.44922 0.02472
 O255 O 0.42884 0.45040 -0.02472
 O256 O 0.51732 0.44489 -0.05747
 O257 O 0.48198 0.44441 0.05735
 O258 O 0.42329 0.45995 0.03313
 O259 O 0.57611 0.45947 -0.03301
 O260 O 0.54918 0.47973 0.06753
 O261 O 0.45051 0.48119 -0.06727
 Co262 Co 0.56685 0.49798 0.00152
 Co263 Co 0.43306 0.49881 -0.00111
 Co264 Co 0.50212 0.49820 -0.05533
 Co265 Co 0.49783 0.49753 0.05569
 O266 O 0.49996 0.49802 0.00019
 C267 C 0.56713 0.44966 0.05565
 C268 C 0.43220 0.45115 -0.05565
 C269 C 0.55474 0.43636 -0.05233
 C270 C 0.44447 0.43633 0.05219
 C271 C 0.33025 1.14826 0.14307
 C272 C 0.35280 1.17238 0.16590
 C273 C 0.33227 1.19678 0.18929
 C274 C 0.28809 1.19809 0.19093
 C275 C 0.26514 1.17351 0.16823
 C276 C 0.28615 1.14855 0.14447
 C277 C 0.35412 1.12426 0.11773
 C278 C 0.34712 1.08188 0.11289
 C279 C 0.37346 1.05910 0.09143
 C280 C 0.40697 1.07854 0.07451
 C281 C 0.41350 1.12096 0.07936
 C282 C 0.38732 1.14351 0.10052
 H283 H 0.35175 1.21494 0.20595
 H284 H 0.23123 1.17346 0.16891
 H285 H 0.36735 1.02652 0.08776
 H286 H 0.43865 1.13700 0.06642
 H287 H 0.26812 1.13007 0.12694
 H288 H 0.32199 1.06634 0.12623
 H289 H 0.38676 1.17232 0.16575
 H290 H 0.39322 1.17622 0.10368
 C291 C 0.82972 0.64822 0.64279
 C292 C 0.78563 0.64836 0.64436
 C293 C 0.76467 0.67331 0.66816
 C294 C 0.78769 0.69802 0.69073
 C295 C 0.83186 0.69684 0.68891
 C296 C 0.85232 0.67247 0.66548
 C297 C 0.85354 0.62425 0.61743
 C298 C 0.88649 0.64363 0.60001
 C299 C 0.91283 0.62110 0.57896
 C300 C 0.90668 0.57858 0.57442
 C301 C 0.87338 0.55902 0.59150
 C302 C 0.84690 0.58177 0.61287
 H303 H 0.73076 0.67315 0.66899
 H304 H 0.85140 0.71509 0.70547
 H305 H 0.93779 0.63725 0.56587
 H306 H 0.86755 0.52635 0.58807
 H307 H 0.88628 0.67252 0.66519
 H308 H 0.89212 0.67642 0.60296
 H309 H 0.76756 0.62977 0.62693
 H310 H 0.82197 0.56614 0.62638
 C311 C 0.66558 0.85271 0.14350
 C312 C 0.64321 0.82813 0.16627
 C313 C 0.66395 0.80308 0.18904
 C314 C 0.70813 0.80160 0.19009
 C315 C 0.73087 0.82650 0.16738
 C316 C 0.70968 0.85205 0.14426
 C317 C 0.64166 0.87765 0.11886
 C318 C 0.65023 0.91971 0.11366
 C319 C 0.62470 0.94327 0.09222
 C320 C 0.59046 0.92492 0.07563
 C321 C 0.58213 0.88290 0.08102
 C322 C 0.60748 0.85957 0.10219
 H323 H 0.64470 0.78470 0.20582
 H324 H 0.76479 0.82644 0.16764
 H325 H 0.63217 0.97551 0.08814
 H326 H 0.55630 0.86771 0.06838
 H327 H 0.72760 0.87079 0.12675
 H328 H 0.67614 0.93440 0.12656
 H329 H 0.60926 0.82843 0.16664
 H330 H 0.60036 0.82713 0.10553
 C331 C 1.16404 0.35311 0.64467
 C332 C 1.14170 0.32907 0.66785
 C333 C 1.16248 0.30390 0.69054
 C334 C 1.20663 0.30182 0.69108
 C335 C 1.22934 0.32620 0.66798
 C336 C 1.20814 0.35184 0.64496
 C337 C 1.14016 0.37805 0.62001
 C338 C 1.14953 0.41982 0.61413
 C339 C 1.12436 0.44336 0.59242
 C340 C 1.08972 0.42528 0.57618
 C341 C 1.08052 0.38358 0.58230
 C342 C 1.10549 0.36027 0.60379
 H343 H 1.14327 0.28585 0.70759
 H344 H 1.26326 0.32559 0.66781
 H345 H 1.13247 0.47534 0.58779
 H346 H 1.05432 0.36863 0.56997
 H347 H 1.22604 0.37011 0.62711
 H348 H 1.17584 0.43429 0.62667
 H349 H 1.10777 0.32984 0.66857
 H350 H 1.09775 0.32805 0.60765
 C351 C 0.66976 1.14895 -0.14217
 C352 C 0.71384 1.14907 -0.14388
 C353 C 0.73468 1.17392 -0.16782
 C354 C 0.71158 1.19853 -0.19040
 C355 C 0.66742 1.19741 -0.18844
 C356 C 0.64705 1.17316 -0.16483
 C357 C 0.64611 1.12492 -0.11674
 C358 C 0.61324 1.14421 -0.09918
 C359 C 0.58716 1.12159 -0.07796
 C360 C 0.59347 1.07910 -0.07343
 C361 C 0.62667 1.05964 -0.09067
 C362 C 0.65291 1.08248 -0.11218
 H363 H 0.76859 1.17371 -0.16877
 H364 H 0.64786 1.21558 -0.20503
 H365 H 0.56225 1.13764 -0.06476
 H366 H 0.63260 1.02699 -0.08725
 H367 H 0.61309 1.17321 -0.16442
 H368 H 0.60751 1.17697 -0.10214
 H369 H 0.73197 1.13052 -0.12647
 H370 H 0.67777 1.06692 -0.12580
 C371 C 1.16902 0.64866 0.35720
 C372 C 1.21311 0.64937 0.35592
 C373 C 1.23397 0.67426 0.33202
 C374 C 1.21089 0.69834 0.30905
 C375 C 1.16672 0.69661 0.31056
 C376 C 1.14632 0.67230 0.33412
 C377 C 1.14534 0.62468 0.38266
 C378 C 1.11201 0.64378 0.39979
 C379 C 1.08610 0.62116 0.42116
 C380 C 1.09303 0.57885 0.42626
 C381 C 1.12664 0.55958 0.40939
 C382 C 1.15272 0.58242 0.38776
 H383 H 1.26789 0.67456 0.33144
 H384 H 1.14716 0.71441 0.29370
 H385 H 1.06084 0.63706 0.43404
 H386 H 1.13304 0.52709 0.41324
 H387 H 1.11237 0.67191 0.33422
 H388 H 1.10581 0.67639 0.39641
 H389 H 1.23124 0.63127 0.37365
 H390 H 1.17796 0.56700 0.37448
 C391 C 0.33602 0.85453 -0.14479
 C392 C 0.35845 0.83108 -0.16829
 C393 C 0.33781 0.80585 -0.19099
 C394 C 0.29367 0.80315 -0.19128
 C395 C 0.27086 0.82702 -0.16792
 C396 C 0.29194 0.85271 -0.14485
 C397 C 0.35986 0.87927 -0.11997
 C398 C 0.35035 0.92091 -0.11374
 C399 C 0.37555 0.94429 -0.09191
 C400 C 0.41034 0.92614 -0.07593
 C401 C 0.41965 0.88457 -0.08241
 C402 C 0.39466 0.86143 -0.10400
 H403 H 0.35712 0.78818 -0.20820
 H404 H 0.23695 0.82591 -0.16753
 H405 H 0.36735 0.97617 -0.08701
 H406 H 0.44596 0.86957 -0.07028
 H407 H 0.27398 0.87053 -0.12677
 H408 H 0.32393 0.93542 -0.12608
 H409 H 0.39237 0.83228 -0.16916
 H410 H 0.40250 0.82930 -0.10814
 C411 C 0.83571 0.35456 0.35549
 C412 C 0.85817 0.33101 0.33209
 C413 C 0.83755 0.30579 0.30938
 C414 C 0.79342 0.30320 0.30899
 C415 C 0.77056 0.32719 0.33225
 C416 C 0.79162 0.35287 0.35533
 C417 C 0.85952 0.37927 0.38032
 C418 C 0.85021 0.42099 0.38639
 C419 C 0.87547 0.44435 0.40816
 C420 C 0.91015 0.42612 0.42423
 C421 C 0.91926 0.38447 0.41794
 C422 C 0.89419 0.36134 0.39641
 H423 H 0.85690 0.28803 0.29226
 H424 H 0.73666 0.32616 0.33255
 H425 H 0.86743 0.47630 0.41294
 H426 H 0.94547 0.36940 0.43015
 H427 H 0.77365 0.37077 0.37335
 H428 H 0.82389 0.43556 0.37395
 H429 H 0.89210 0.33212 0.33130
 H430 H 0.90188 0.32914 0.39238
 C431 C 1.16392 0.33348 0.13563
 C432 C 1.15335 0.29207 0.14298
 C433 C 1.17697 0.26879 0.16625
 C434 C 1.21155 0.28641 0.18290
 C435 C 1.22263 0.32734 0.17424
 C436 C 1.19990 0.34997 0.15066
 C437 C 1.13675 0.36047 0.11406
 C438 C 1.13202 0.40289 0.12150
 C439 C 1.10601 0.42823 0.10193
 C440 C 1.08351 0.41173 0.07472
 C441 C 1.08856 0.36959 0.06693
 C442 C 1.11490 0.34434 0.08625
 H443 H 1.16672 0.23786 0.17256
 H444 H 1.24795 0.34322 0.18682
 H445 H 1.10240 0.46039 0.10881
 H446 H 1.07173 0.35595 0.04597
 H447 H 1.20995 0.38116 0.14511
 H448 H 1.14750 0.41646 0.14312
 H449 H 1.12564 0.27823 0.13207
 H450 H 1.11814 0.31218 0.07933
 C451 C 0.66297 0.83339 0.63592
 C452 C 0.69902 0.84989 0.65085
 C453 C 0.72188 0.82726 0.67434
 C454 C 0.71088 0.78632 0.68304
 C455 C 0.67618 0.76871 0.66654
 C456 C 0.65243 0.79199 0.64334
 C457 C 0.63575 0.86036 0.61434
 C458 C 0.61380 0.84418 0.58659
 C459 C 0.58752 0.86943 0.56720
 C460 C 0.58262 0.91163 0.57485
 C461 C 0.60517 0.92816 0.60203
 C462 C 0.63112 0.90282 0.62167
 H463 H 0.74730 0.84313 0.68681
 H464 H 0.66598 0.73779 0.67288
 H465 H 0.57066 0.85576 0.54628
 H466 H 0.60168 0.96037 0.60882
 H467 H 0.62468 0.77814 0.63252
 H468 H 0.61695 0.81198 0.57975
 H469 H 0.70905 0.88108 0.64525
 H470 H 0.64666 0.91644 0.64324
 C471 C 1.16898 0.66798 -0.13288
 C472 C 1.20588 0.65195 -0.14696
 C473 C 1.22908 0.67459 -0.17042
 C474 C 1.21745 0.71505 -0.17998
 C475 C 1.18208 0.73235 -0.16404
 C476 C 1.15807 0.70909 -0.14090
 C477 C 1.14113 0.64079 -0.11179
 C478 C 1.11740 0.65698 -0.08492
 C479 C 1.09019 0.63167 -0.06628
 C480 C 1.08605 0.58935 -0.07379
 C481 C 1.11043 0.57277 -0.10001
 C482 C 1.13736 0.59818 -0.11891
 H483 H 1.25489 0.65883 -0.18252
 H484 H 1.17135 0.76287 -0.17103
 H485 H 1.07198 0.64540 -0.04607
 H486 H 1.10765 0.54046 -0.10667
 H487 H 1.12972 0.72263 -0.13076
 H488 H 1.11979 0.68928 -0.07822
 H489 H 1.21619 0.62100 -0.14090
 H490 H 1.15430 0.58449 -0.13981
 C491 C 0.66821 1.16827 0.36715
 C492 C 0.70511 1.15215 0.35315
 C493 C 0.72842 1.17473 0.32973
 C494 C 0.71693 1.21521 0.32014
 C495 C 0.68154 1.23259 0.33599
 C496 C 0.65741 1.20940 0.35909
 C497 C 0.64025 1.14116 0.38821
 C498 C 0.61648 1.15741 0.41504
 C499 C 0.58923 1.13214 0.43368
 C500 C 0.58510 1.08981 0.42622
 C501 C 0.60950 1.07318 0.40003
 C502 C 0.63646 1.09855 0.38113
 H503 H 0.75424 1.15891 0.31770
 H504 H 0.67090 1.26314 0.32897
 H505 H 0.57100 1.14591 0.45386
 H506 H 0.60672 1.04086 0.39341
 H507 H 0.62905 1.22300 0.36917
 H508 H 0.61888 1.18972 0.42171
 H509 H 0.71535 1.12120 0.35926
 H510 H 0.65342 1.08481 0.36026
 C511 C 0.83232 0.66660 0.13340
 C512 C 0.84283 0.70800 0.14076
 C513 C 0.81911 0.73124 0.16405
 C514 C 0.78448 0.71361 0.18080
 C515 C 0.77332 0.67276 0.17206
 C516 C 0.79618 0.65014 0.14842
 C517 C 0.85988 0.63962 0.11198
 C518 C 0.86442 0.59715 0.11934
 C519 C 0.89110 0.57195 0.10013
 C520 C 0.91451 0.58862 0.07337
 C521 C 0.90961 0.63078 0.06560
 C522 C 0.88258 0.65588 0.08453
 H523 H 0.82943 0.76210 0.17040
 H524 H 0.74801 0.65687 0.18476
 H525 H 0.89453 0.53975 0.10698
 H526 H 0.92710 0.64454 0.04497
 H527 H 0.78616 0.61896 0.14288
 H528 H 0.84832 0.58344 0.14067
 H529 H 0.87063 0.72186 0.12991
 H530 H 0.87954 0.68807 0.07763
 C531 C 0.33138 1.16727 0.63304
 C532 C 0.34206 1.20852 0.64078
 C533 C 0.31817 1.23169 0.66402
 C534 C 0.28316 1.21415 0.68033
 C535 C 0.27179 1.17351 0.67110
 C536 C 0.29483 1.15097 0.64753
 C537 C 0.35913 1.14023 0.61180
 C538 C 0.36326 1.09768 0.61901
 C539 C 0.39007 1.07240 0.59996
 C540 C 0.41400 1.08907 0.57349
 C541 C 0.40953 1.13133 0.56589
 C542 C 0.38240 1.15651 0.58467
 H543 H 0.32870 1.26237 0.67075
 H544 H 0.24628 1.15759 0.68350
 H545 H 0.39314 1.04013 0.60669
 H546 H 0.42741 1.14511 0.54550
 H547 H 0.28468 1.11991 0.64168
 H548 H 0.34670 1.08393 0.64010
 H549 H 0.37016 1.22227 0.63033
 H550 H 0.37971 1.18877 0.57790
 C551 C 0.83620 0.33375 -0.13622
 C552 C 0.84653 0.29225 -0.14337
 C553 C 0.82278 0.26894 -0.16652
 C554 C 0.78832 0.28662 -0.18327
 C555 C 0.77750 0.32767 -0.17485
 C556 C 0.80035 0.35034 -0.15138
 C557 C 0.86349 0.36071 -0.11472
 C558 C 0.86846 0.40308 -0.12229
 C559 C 0.89456 0.42838 -0.10277
 C560 C 0.91695 0.41188 -0.07549
 C561 C 0.91169 0.36979 -0.06758
 C562 C 0.88524 0.34458 -0.08684
 H563 H 0.83282 0.23791 -0.17265
 H564 H 0.75225 0.34357 -0.18751
 H565 H 0.89834 0.46051 -0.10974
 H566 H 0.92842 0.35616 -0.04657
 H567 H 0.79048 0.38162 -0.14599
 H568 H 0.85308 0.41664 -0.14396
 H569 H 0.87413 0.27833 -0.13236
 H570 H 0.88182 0.31246 -0.07982
 C571 C 0.33510 0.83386 0.36411
 C572 C 0.34570 0.79249 0.35671
 C573 C 0.32198 0.76915 0.33355
 C574 C 0.28723 0.78665 0.31704
 C575 C 0.27608 0.82751 0.32577
 C576 C 0.29895 0.85023 0.34923
 C577 C 0.36243 0.86089 0.38556
 C578 C 0.36699 0.90337 0.37820
 C579 C 0.39325 0.92869 0.39761
 C580 C 0.41617 0.91212 0.42459
 C581 C 0.41127 0.86993 0.43230
 C582 C 0.38469 0.84471 0.41315
 H583 H 0.33230 0.73828 0.32719
 H584 H 0.25063 0.84330 0.31327
 H585 H 0.39670 0.96090 0.39079
 H586 H 0.42838 0.85623 0.45308
 H587 H 0.28888 0.88139 0.35481
 H588 H 0.35119 0.91701 0.35676
 H589 H 0.37353 0.77872 0.36747
 H590 H 0.38161 0.81251 0.42003
 C591 C 1.13983 1.15757 0.34881
 C592 C 1.16672 1.18884 0.35958
 C593 C 1.18960 1.21144 0.33627
 C594 C 1.18650 1.20372 0.30123
 C595 C 1.15795 1.17365 0.29024
 C596 C 1.13476 1.15078 0.31384
 C597 C 1.12115 1.12955 0.37424
 C598 C 1.12070 1.08702 0.36804
 C599 C 1.10603 1.05992 0.39253
 C600 C 1.09178 1.07458 0.42393
 C601 C 1.09277 1.11694 0.43070
 C602 C 1.10719 1.14435 0.40589
 H603 H 1.21142 1.23365 0.34638
 H604 H 1.15444 1.16688 0.26361
 H605 H 1.10550 1.02721 0.38678
 H606 H 1.08108 1.12882 0.45451
 H607 H 1.11369 1.12705 0.30480
 H608 H 1.13238 1.07452 0.34445
 H609 H 1.17209 1.19436 0.38622
 H610 H 1.10705 1.17710 0.41130
 C611 C 0.64031 0.65758 -0.15074
 C612 C 0.66739 0.68873 -0.14007
 C613 C 0.69023 0.71123 -0.16348
 C614 C 0.68685 0.70354 -0.19851
 C615 C 0.65811 0.67358 -0.20937
 C616 C 0.63500 0.65079 -0.18567
 C617 C 0.62173 0.62959 -0.12524
 C618 C 0.62136 0.58706 -0.13141
 C619 C 0.60679 0.55996 -0.10689
 C620 C 0.59252 0.57462 -0.07549
 C621 C 0.59344 0.61699 -0.06874
 C622 C 0.60781 0.64441 -0.09359
 H623 H 0.71217 0.73341 -0.15347
 H624 H 0.65438 0.66683 -0.23600
 H625 H 0.60635 0.52725 -0.11262
 H626 H 0.58176 0.62888 -0.04493
 H627 H 0.61379 0.62713 -0.19462
 H628 H 0.63303 0.57456 -0.15500
 H629 H 0.67292 0.69424 -0.11345
 H630 H 0.60767 0.67717 -0.08820
 C631 C 0.85983 1.15655 0.65185
 C632 C 0.83230 1.18714 0.64079
 C633 C 0.80918 1.20978 0.66389
 C634 C 0.81254 1.20270 0.69901
 C635 C 0.84160 1.17327 0.71027
 C636 C 0.86512 1.15043 0.68688
 C637 C 0.87906 1.12855 0.62668
 C638 C 0.88083 1.08617 0.63345
 C639 C 0.89555 1.05896 0.60909
 C640 C 0.90852 1.07332 0.57722
 C641 C 0.90653 1.11554 0.56999
 C642 C 0.89212 1.14308 0.59468
 H643 H 0.78717 1.23169 0.65361
 H644 H 0.84539 1.16706 0.73698
 H645 H 0.89683 1.02638 0.61524
 H646 H 0.91717 1.12724 0.54579
 H647 H 0.88668 1.12730 0.69617
 H648 H 0.86993 1.07381 0.65735
 H649 H 0.82673 1.19217 0.61412
 H650 H 0.89136 1.17571 0.58882
 C651 C 0.35988 0.65783 0.15149
 C652 C 0.33268 0.68878 0.14058
 C653 C 0.30956 0.71128 0.16379
 C654 C 0.31266 0.70376 0.19887
 C655 C 0.34146 0.67400 0.20999
 C656 C 0.36492 0.65126 0.18649
 C657 C 0.37892 0.62990 0.12616
 C658 C 0.38006 0.58742 0.13260
 C659 C 0.39483 0.56032 0.10817
 C660 C 0.40852 0.57489 0.07656
 C661 C 0.40701 0.61720 0.06959
 C662 C 0.39250 0.64462 0.09435
 H663 H 0.28765 0.73333 0.15358
 H664 H 0.34501 0.66741 0.23666
 H665 H 0.39570 0.52767 0.11411
 H666 H 0.41821 0.62905 0.04560
 H667 H 0.38622 0.62781 0.19567
 H668 H 0.36872 0.57493 0.15631
 H669 H 0.32731 0.69415 0.11393
 H670 H 0.39216 0.67733 0.08874
 C671 C 1.14405 0.84155 0.65262
 C672 C 1.16670 0.80673 0.64276
 C673 C 1.18976 0.78468 0.66618
 C674 C 1.18962 0.79524 0.70081
 C675 C 1.16535 0.82915 0.71108
 C676 C 1.14302 0.85231 0.68718
 C677 C 1.12312 0.86709 0.62650
 C678 C 1.08528 0.88706 0.63383
 C679 C 1.06671 0.91258 0.60991
 C680 C 1.08490 0.91797 0.57781
 C681 C 1.12180 0.89690 0.56974
 C682 C 1.14109 0.87207 0.59406
 H683 H 1.20955 0.76066 0.65617
 H684 H 1.16497 0.83887 0.73726
 H685 H 1.03825 0.92865 0.61679
 H686 H 1.13670 0.90122 0.54536
 H687 H 1.12625 0.87943 0.69566
 H688 H 1.07008 0.88327 0.65813
 H689 H 1.16767 0.79692 0.61661
 H690 H 1.17076 0.85786 0.58771
 C691 C 0.64401 0.34182 0.15297
 C692 C 0.66663 0.30699 0.14303
 C693 C 0.68981 0.28495 0.16637
 C694 C 0.68973 0.29545 0.20100
 C695 C 0.66550 0.32935 0.21136
 C696 C 0.64313 0.35255 0.18753
 C697 C 0.62303 0.36743 0.12693
 C698 C 0.58542 0.38776 0.13445
 C699 C 0.56691 0.41344 0.11062
 C700 C 0.58485 0.41854 0.07841
 C701 C 0.62146 0.39712 0.07015
 C702 C 0.64076 0.37220 0.09439
 H703 H 0.70958 0.26093 0.15632
 H704 H 0.66518 0.33904 0.23755
 H705 H 0.53868 0.42984 0.11764
 H706 H 0.63617 0.40124 0.04567
 H707 H 0.62644 0.37968 0.19608
 H708 H 0.57039 0.38416 0.15884
 H709 H 0.66748 0.29717 0.11688
 H710 H 0.67026 0.35778 0.08788
 C711 C 0.86066 0.84198 0.34500
 C712 C 0.83318 0.81141 0.35637
 C713 C 0.80950 0.78901 0.33358
 C714 C 0.81205 0.79637 0.29846
 C715 C 0.84098 0.82582 0.28683
 C716 C 0.86516 0.84838 0.30990
 C717 C 0.88077 0.86951 0.37008
 C718 C 0.88356 0.91191 0.36347
 C719 C 0.89878 0.93869 0.38796
 C720 C 0.91107 0.92387 0.41980
 C721 C 0.90830 0.88164 0.42679
 C722 C 0.89359 0.85454 0.40196
 H723 H 0.78759 0.76715 0.34420
 H724 H 0.84416 0.83224 0.26008
 H725 H 0.90076 0.97129 0.38200
 H726 H 0.91851 0.86958 0.45094
 H727 H 0.88666 0.87146 0.30032
 H728 H 0.87298 0.92466 0.33968
 H729 H 0.82808 0.80617 0.38309
 H730 H 0.89228 0.82189 0.40769
 C731 C 0.35583 0.34310 -0.15326
 C732 C 0.33377 0.30797 -0.14317
 C733 C 0.31090 0.28544 -0.16639
 C734 C 0.31077 0.29574 -0.20108
 C735 C 0.33450 0.32994 -0.21160
 C736 C 0.35655 0.35363 -0.18788
 C737 C 0.37645 0.36915 -0.12731
 C738 C 0.41379 0.38997 -0.13486
 C739 C 0.43217 0.41568 -0.11097
 C740 C 0.41435 0.42036 -0.07867
 C741 C 0.37789 0.39862 -0.07045
 C742 C 0.35874 0.37366 -0.09473
 H743 H 0.29143 0.26127 -0.15619
 H744 H 0.33462 0.33949 -0.23783
 H745 H 0.46028 0.43231 -0.11797
 H746 H 0.36327 0.40239 -0.04590
 H747 H 0.37284 0.38097 -0.19656
 H748 H 0.42880 0.38662 -0.15928
 H749 H 0.33308 0.29827 -0.11699
 H750 H 0.32940 0.35889 -0.08819
 C751 C 1.16818 0.32762 -0.12756
 C752 C 1.15929 0.28560 -0.13352
 C753 C 1.18102 0.26351 -0.15889
 C754 C 1.21212 0.28301 -0.17860
 C755 C 1.22200 0.32448 -0.17084
 C756 C 1.20091 0.34603 -0.14565
 C757 C 1.14131 0.35421 -0.10561
 C758 C 1.12759 0.39262 -0.11798
 C759 C 1.10254 0.41851 -0.09827
 C760 C 1.09063 0.40701 -0.06541
 C761 C 1.10487 0.36893 -0.05257
 C762 C 1.12970 0.34258 -0.07263
 H763 H 1.17195 0.23198 -0.16422
 H764 H 1.24480 0.34167 -0.18538
 H765 H 1.09185 0.44739 -0.10902
 H766 H 1.09568 0.35895 -0.02749
 H767 H 1.20899 0.37809 -0.14140
 H768 H 1.13560 0.40235 -0.14339
 H769 H 1.13402 0.27059 -0.11996
 H770 H 1.13996 0.31329 -0.06238
 C771 C 0.66815 0.82990 0.37139
 C772 C 0.65985 0.78766 0.36594
 C773 C 0.68155 0.76552 0.34061
 C774 C 0.71205 0.78518 0.32041
 C775 C 0.72134 0.82694 0.32755
 C776 C 0.70024 0.84858 0.35270
 C777 C 0.64140 0.85624 0.39365
 C778 C 0.62734 0.89466 0.38156
 C779 C 0.60216 0.92016 0.40151
 C780 C 0.59042 0.90824 0.43431
 C781 C 0.60506 0.87019 0.44689
 C782 C 0.63005 0.84424 0.42661
 H783 H 0.67305 0.73371 0.33579
 H784 H 0.74403 0.84402 0.31279
 H785 H 0.59116 0.94904 0.39095
 H786 H 0.59602 0.85990 0.47193
 H787 H 0.70796 0.88079 0.35660
 H788 H 0.63507 0.90467 0.35618
 H789 H 0.63511 0.77242 0.37996
 H790 H 0.64058 0.81495 0.43667
 C791 C 0.83235 0.67049 -0.12862
 C792 C 0.80019 0.65149 -0.14684
 C793 C 0.77840 0.67297 -0.17163
 C794 C 0.78720 0.71481 -0.17893
 C795 C 0.81785 0.73475 -0.15922
 C796 C 0.84015 0.71281 -0.13419
 C797 C 0.85960 0.64443 -0.10666
 C798 C 0.87031 0.65609 -0.07354
 C799 C 0.89545 0.63023 -0.05341
 C800 C 0.91093 0.59264 -0.06631
 C801 C 0.89995 0.58112 -0.09932
 C802 C 0.87455 0.60650 -0.11911
 H803 H 0.75553 0.65572 -0.18597
 H804 H 0.82594 0.76664 -0.16416
 H805 H 0.90388 0.64021 -0.02820
 H806 H 0.91158 0.55259 -0.11011
 H807 H 0.86494 0.72827 -0.12050
 H808 H 0.85906 0.68500 -0.06323
 H809 H 0.79291 0.61919 -0.14283
 H810 H 0.86721 0.59677 -0.14461
 C811 C 0.33141 1.17067 0.37184
 C812 C 0.29929 1.15172 0.35355
 C813 C 0.27773 1.17317 0.32863
 C814 C 0.28669 1.21496 0.32130
 C815 C 0.31726 1.23489 0.34110
 C816 C 0.33937 1.21295 0.36623
 C817 C 0.35855 1.14458 0.39383
 C818 C 0.36938 1.15632 0.42690
 C819 C 0.39455 1.13047 0.44702
 C820 C 0.40991 1.09283 0.43414
 C821 C 0.39876 1.08121 0.40120
 C822 C 0.37336 1.10658 0.38142
 H823 H 0.25492 1.15593 0.31421
 H824 H 0.32547 1.26674 0.33613
 H825 H 0.40311 1.14052 0.47219
 H826 H 0.41030 1.05263 0.39044
 H827 H 0.36414 1.22837 0.37997
 H828 H 0.35825 1.18529 0.43718
 H829 H 0.29189 1.11944 0.35760
 H830 H 0.36594 1.09680 0.35595
 C831 C 1.16780 0.67043 0.12811
 C832 C 1.15992 0.71274 0.13357
 C833 C 1.18199 0.73474 0.15869
 C834 C 1.21246 0.71485 0.17862
 C835 C 1.22135 0.67302 0.17143
 C836 C 1.19981 0.65149 0.14654
 C837 C 1.14072 0.64431 0.10607
 C838 C 1.12579 0.60633 0.11849
 C839 C 1.10047 0.58094 0.09865
 C840 C 1.08951 0.59252 0.06565
 C841 C 1.10499 0.63015 0.05278
 C842 C 1.13007 0.65601 0.07295
 H843 H 1.17383 0.76662 0.16353
 H844 H 1.24409 0.65582 0.18595
 H845 H 1.08883 0.55237 0.10941
 H846 H 1.09658 0.64017 0.02756
 H847 H 1.20715 0.61920 0.14262
 H848 H 1.13307 0.59657 0.14400
 H849 H 1.13524 0.72815 0.11972
 H850 H 1.14130 0.68497 0.06267
 C851 C 0.66753 1.16985 0.62849
 C852 C 0.69924 1.15073 0.64714
 C853 C 0.72078 1.17217 0.67207
 C854 C 0.71223 1.21412 0.67906
 C855 C 0.68207 1.23417 0.65895
 C856 C 0.65997 1.21224 0.63381
 C857 C 0.64045 1.14388 0.60633
 C858 C 0.62989 1.15575 0.57322
 C859 C 0.60474 1.13005 0.55296
 C860 C 0.58914 1.09242 0.56571
 C861 C 0.60003 1.08066 0.59869
 C862 C 0.62538 1.10590 0.61862
 H863 H 0.74334 1.15488 0.68670
 H864 H 0.67421 1.26616 0.66364
 H865 H 0.59639 1.14020 0.52777
 H866 H 0.58829 1.05209 0.60937
 H867 H 0.63554 1.22782 0.61979
 H868 H 0.64122 1.18471 0.56303
 H869 H 0.70638 1.11837 0.64332
 H870 H 0.63255 1.09601 0.64412
 C871 C 0.83260 0.32753 0.12756
 C872 C 0.79970 0.34590 0.14545
 C873 C 0.77859 0.32444 0.17073
 C874 C 0.78865 0.28310 0.17882
 C875 C 0.81997 0.26363 0.15935
 C876 C 0.84169 0.28562 0.13387
 C877 C 0.85938 0.35408 0.10542
 C878 C 0.87285 0.39271 0.11750
 C879 C 0.89781 0.41856 0.09761
 C880 C 0.90987 0.40683 0.06485
 C881 C 0.89586 0.36853 0.05229
 C882 C 0.87114 0.34221 0.07253
 H883 H 0.75561 0.34161 0.18506
 H884 H 0.82918 0.23221 0.16493
 H885 H 0.90833 0.44762 0.10817
 H886 H 0.90517 0.35836 0.02730
 H887 H 0.86709 0.27063 0.12048
 H888 H 0.86474 0.40266 0.14282
 H889 H 0.79146 0.37787 0.14095
 H890 H 0.86107 0.31275 0.06249
 C891 C 0.33209 0.82752 0.62717
 C892 C 0.29921 0.84585 0.64512
 C893 C 0.27827 0.82440 0.67047
 C894 C 0.28842 0.78308 0.67854
 C895 C 0.31968 0.76363 0.65899
 C896 C 0.34127 0.78564 0.63346
 C897 C 0.35880 0.85412 0.60505
 C898 C 0.37219 0.89276 0.61716
 C899 C 0.39712 0.91865 0.59730
 C900 C 0.40924 0.90694 0.56456
 C901 C 0.39530 0.86863 0.55196
 C902 C 0.37059 0.84227 0.57216
 H903 H 0.25533 0.84155 0.68485
 H904 H 0.32896 0.73222 0.66456
 H905 H 0.40758 0.94771 0.60788
 H906 H 0.40467 0.85848 0.52698
 H907 H 0.36666 0.77068 0.62003
 H908 H 0.36405 0.90267 0.64248
 H909 H 0.29090 0.87781 0.64062
 H910 H 0.36058 0.81280 0.56211
 C911 C 0.33310 1.14881 -0.14239
 C912 C 0.35428 1.17393 -0.16554
 C913 C 0.33245 1.19659 -0.18927
 C914 C 0.28822 1.19630 -0.19028
 C915 C 0.26658 1.17148 -0.16693
 C916 C 0.28887 1.14776 -0.14323
 C917 C 0.35792 1.12564 -0.11692
 C918 C 0.34313 1.12111 -0.08369
 C919 C 0.36839 1.10301 -0.05907
 C920 C 0.40923 1.08986 -0.06698
 C921 C 0.42396 1.09365 -0.10014
 C922 C 0.39830 1.11073 -0.12501
 H923 H 0.35093 1.21547 -0.20624
 H924 H 0.23268 1.17027 -0.16707
 H925 H 0.35632 1.10012 -0.03356
 H926 H 0.45497 1.08279 -0.10689
 H927 H 0.27151 1.12847 -0.12578
 H928 H 0.31260 1.13266 -0.07640
 H929 H 0.38805 1.17698 -0.16501
 H930 H 0.41031 1.11254 -0.15057
 C931 C 0.83302 0.65117 0.35885
 C932 C 0.85423 0.67730 0.33650
 C933 C 0.83254 0.69994 0.31268
 C934 C 0.78837 0.69871 0.31087
 C935 C 0.76667 0.67311 0.33360
 C936 C 0.78884 0.64937 0.35736
 C937 C 0.85777 0.62739 0.38396
 C938 C 0.84266 0.62154 0.41695
 C939 C 0.86785 0.60284 0.44131
 C940 C 0.90891 0.59034 0.43337
 C941 C 0.92392 0.59539 0.40041
 C942 C 0.89836 0.61312 0.37579
 H943 H 0.85108 0.71916 0.29602
 H944 H 0.73282 0.67108 0.33278
 H945 H 0.85555 0.59900 0.46667
 H946 H 0.95512 0.58509 0.39362
 H947 H 0.77149 0.62932 0.37423
 H948 H 0.81193 0.63254 0.42427
 H949 H 0.88792 0.68090 0.33757
 H950 H 0.91062 0.61594 0.35036
 C951 C 0.66796 1.14809 0.14334
 C952 C 0.71220 1.14722 0.14419
 C953 C 0.73441 1.17122 0.16776
 C954 C 0.71268 1.19615 0.19094
 C955 C 0.66845 1.19626 0.18991
 C956 C 0.64671 1.17330 0.16633
 C957 C 0.64319 1.12471 0.11798
 C958 C 0.60285 1.10971 0.12616
 C959 C 0.57710 1.09266 0.10134
 C960 C 0.59171 1.08899 0.06814
 C961 C 0.63254 1.10214 0.06017
 C962 C 0.65789 1.12021 0.08474
 H963 H 0.76831 1.17015 0.16791
 H964 H 0.64988 1.21521 0.20673
 H965 H 0.54610 1.08179 0.10815
 H966 H 0.64453 1.09934 0.03462
 H967 H 0.61293 1.17623 0.16577
 H968 H 0.59091 1.11150 0.15175
 H969 H 0.72961 1.12789 0.12683
 H970 H 0.68839 1.13181 0.07739
 C971 C 1.16799 0.64796 0.64322
 C972 C 1.21223 0.64721 0.64398
 C973 C 1.23444 0.67120 0.66755
 C974 C 1.21270 0.69601 0.69082
 C975 C 1.16847 0.69599 0.68989
 C976 C 1.14672 0.67304 0.66630
 C977 C 1.14322 0.62463 0.61785
 C978 C 1.10295 0.60949 0.62606
 C979 C 1.07717 0.59249 0.60124
 C980 C 1.09169 0.58902 0.56801
 C981 C 1.13246 0.60230 0.55998
 C982 C 1.15784 0.62032 0.58456
 H983 H 1.26835 0.67024 0.66762
 H984 H 1.14990 0.71485 0.70678
 H985 H 1.04622 0.58151 0.60808
 H986 H 1.14437 0.59964 0.53440
 H987 H 1.11294 0.67587 0.66582
 H988 H 1.09109 0.61112 0.65168
 H989 H 1.22964 0.62799 0.62655
 H990 H 1.18828 0.63203 0.57719
 C991 C 0.66770 0.85145 -0.13989
 C992 C 0.64594 0.82381 -0.16049
 C993 C 0.66696 0.80003 -0.18400
 C994 C 0.71099 0.80162 -0.18717
 C995 C 0.73329 0.82857 -0.16601
 C996 C 0.71177 0.85342 -0.14255
 C997 C 0.64354 0.87667 -0.11534
 C998 C 0.65909 0.88399 -0.08276
 C999 C 0.63402 0.90338 -0.05858
 C1000 C 0.59273 0.91513 -0.06634
 C1001 C 0.57747 0.90900 -0.09904
 C1002 C 0.60288 0.89056 -0.12347
 H1003 H 0.64799 0.77991 -0.19951
 H1004 H 0.76705 0.83094 -0.16794
 H1005 H 0.64652 0.90810 -0.03344
 H1006 H 0.54608 0.91868 -0.10573
 H1007 H 0.72949 0.87456 -0.12695
 H1008 H 0.68997 0.87340 -0.07555
 H1009 H 0.61232 0.82012 -0.15839
 H1010 H 0.59034 0.88657 -0.14866
 C1011 C 1.16745 0.35142 0.36013
 C1012 C 1.14568 0.32408 0.33926
 C1013 C 1.16671 0.30039 0.31569
 C1014 C 1.21078 0.30178 0.31273
 C1015 C 1.23308 0.32845 0.33413
 C1016 C 1.21154 0.35321 0.35763
 C1017 C 1.14330 0.37653 0.38476
 C1018 C 1.15879 0.38360 0.41740
 C1019 C 1.13376 0.40300 0.44161
 C1020 C 1.09255 0.41498 0.43382
 C1021 C 1.07734 0.40906 0.40108
 C1022 C 1.10271 0.39063 0.37662
 H1023 H 1.14776 0.28046 0.30002
 H1024 H 1.26686 0.33065 0.33236
 H1025 H 1.14623 0.40754 0.46678
 H1026 H 1.04601 0.41894 0.39438
 H1027 H 1.22928 0.37413 0.37342
 H1028 H 1.18960 0.37285 0.42463
 H1029 H 1.11202 0.32052 0.34121
 H1030 H 1.09022 0.38686 0.35140
 C1031 C 0.33211 0.85126 0.13981
 C1032 C 0.28801 0.85316 0.14220
 C1033 C 0.26632 0.82843 0.16567
 C1034 C 0.28847 0.80170 0.18712
 C1035 C 0.33254 0.80022 0.18425
 C1036 C 0.35372 0.82385 0.16071
 C1037 C 0.35643 0.87634 0.11524
 C1038 C 0.39701 0.89036 0.12350
 C1039 C 0.42256 0.90874 0.09911
 C1040 C 0.40751 0.91468 0.06633
 C1041 C 0.36630 0.90277 0.05842
 C1042 C 0.34110 0.88343 0.08256
 H1043 H 0.23253 0.83072 0.16738
 H1044 H 0.35139 0.78026 0.19998
 H1045 H 0.45387 0.91857 0.10591
 H1046 H 0.35397 0.90736 0.03320
 H1047 H 0.38737 0.82022 0.15883
 H1048 H 0.40937 0.88656 0.14877
 H1049 H 0.27040 0.87413 0.12637
 H1050 H 0.31030 0.87273 0.07524
 C1051 C 0.83211 0.35035 0.63949
 C1052 C 0.78806 0.35260 0.64220
 C1053 C 0.76641 0.32782 0.66565
 C1054 C 0.78856 0.30067 0.68677
 C1055 C 0.83257 0.29879 0.68351
 C1056 C 0.85370 0.32247 0.65999
 C1057 C 0.85640 0.37567 0.61507
 C1058 C 0.89712 0.38934 0.62330
 C1059 C 0.92259 0.40798 0.59901
 C1060 C 0.90736 0.41452 0.56635
 C1061 C 0.86604 0.40295 0.55850
 C1062 C 0.84089 0.38336 0.58254
 H1063 H 0.73268 0.33045 0.66768
 H1064 H 0.85143 0.27858 0.69904
 H1065 H 0.95401 0.41753 0.60576
 H1066 H 0.85356 0.40798 0.53339
 H1067 H 0.88730 0.31859 0.65784
 H1068 H 0.90962 0.38506 0.64848
 H1069 H 0.77047 0.37393 0.62668
 H1070 H 0.80997 0.37295 0.57526
 C1071 C 1.13220 1.16087 0.65403
 C1072 C 1.12838 1.15202 0.68876
 C1073 C 1.15310 1.17315 0.71251
 C1074 C 1.18174 1.20349 0.70179
 C1075 C 1.18370 1.21291 0.66696
 C1076 C 1.15932 1.19215 0.64362
 C1077 C 1.11036 1.13635 0.62798
 C1078 C 1.13284 1.12149 0.59988
 C1079 C 1.11293 1.09800 0.57513
 C1080 C 1.07008 1.08908 0.57791
 C1081 C 1.04725 1.10522 0.60545
 C1082 C 1.06733 1.12840 0.63041
 H1083 H 1.15063 1.16493 0.73897
 H1084 H 1.20568 1.23507 0.65691
 H1085 H 1.13137 1.08569 0.55444
 H1086 H 1.01418 1.09860 0.60845
 H1087 H 1.16254 1.19989 0.61709
 H1088 H 1.16618 1.12713 0.59754
 H1089 H 1.10753 1.12779 0.69732
 H1090 H 1.04933 1.14002 0.65162
 C1091 C 0.63331 0.66095 0.15401
 C1092 C 0.62901 0.65265 0.18880
 C1093 C 0.65381 0.67377 0.21252
 C1094 C 0.68300 0.70355 0.20171
 C1095 C 0.68551 0.71236 0.16679
 C1096 C 0.66104 0.69166 0.14350
 C1097 C 0.61133 0.63650 0.12799
 C1098 C 0.63383 0.62123 0.10004
 C1099 C 0.61380 0.59803 0.07519
 C1100 C 0.57080 0.58971 0.07771
 C1101 C 0.54796 0.60620 0.10510
 C1102 C 0.56815 0.62914 0.13017
 H1103 H 0.65089 0.66605 0.23905
 H1104 H 0.70783 0.73415 0.15668
 H1105 H 0.63227 0.58542 0.05463
 H1106 H 0.51478 0.60000 0.10791
 H1107 H 0.66462 0.69904 0.11692
 H1108 H 0.66727 0.62637 0.09788
 H1109 H 0.60769 0.62886 0.19745
 H1110 H 0.55013 0.64108 0.15124
 C1111 C 1.13608 0.83723 0.34680
 C1112 C 1.13077 0.84556 0.31212
 C1113 C 1.15543 0.82505 0.28786
 C1114 C 1.18547 0.79588 0.29804
 C1115 C 1.18904 0.78709 0.33290
 C1116 C 1.16475 0.80720 0.35671
 C1117 C 1.11386 0.86078 0.37329
 C1118 C 1.13632 0.87647 0.40102
 C1119 C 1.11599 0.89895 0.42624
 C1120 C 1.07276 0.90609 0.42425
 C1121 C 1.05001 0.88895 0.39715
 C1122 C 1.07047 0.86675 0.37176
 H1123 H 1.15165 0.83271 0.26140
 H1124 H 1.21195 0.76567 0.34255
 H1125 H 1.13438 0.91210 0.44654
 H1126 H 1.01662 0.89417 0.39477
 H1127 H 1.16909 0.79978 0.38319
 H1128 H 1.16993 0.87231 0.40269
 H1129 H 1.10867 0.86884 0.30394
 H1130 H 1.05249 0.85438 0.35090
 C1131 C 0.63806 0.33771 -0.15252
 C1132 C 0.63192 0.34557 -0.18718
 C1133 C 0.65623 0.32493 -0.21160
 C1134 C 0.68660 0.29600 -0.20158
 C1135 C 0.69086 0.28760 -0.16669
 C1136 C 0.66712 0.30804 -0.14272
 C1137 C 0.61611 0.36119 -0.12594
 C1138 C 0.63918 0.37915 -0.09951
 C1139 C 0.61898 0.40131 -0.07403
 C1140 C 0.57527 0.40569 -0.07441
 C1141 C 0.55210 0.38594 -0.10002
 C1142 C 0.57240 0.36425 -0.12578
 H1143 H 0.65188 0.33222 -0.23807
 H1144 H 0.71388 0.26622 -0.15716
 H1145 H 0.63770 0.41642 -0.05487
 H1146 H 0.51836 0.38856 -0.10092
 H1147 H 0.67206 0.30111 -0.11622
 H1148 H 0.67305 0.37693 -0.09911
 H1149 H 0.60941 0.36854 -0.19521
 H1150 H 0.55403 0.34987 -0.14553
 C1151 C 0.86817 1.16385 0.34796
 C1152 C 0.87251 1.15456 0.31335
 C1153 C 0.84779 1.17501 0.28919
 C1154 C 0.81864 1.20511 0.29937
 C1155 C 0.81617 1.21498 0.33410
 C1156 C 0.84053 1.19489 0.35784
 C1157 C 0.88992 1.13996 0.37444
 C1158 C 0.86716 1.12494 0.40236
 C1159 C 0.88690 1.10166 0.42734
 C1160 C 0.92986 1.09314 0.42499
 C1161 C 0.95300 1.10972 0.39777
 C1162 C 0.93310 1.13264 0.37256
 H1163 H 0.85068 1.16648 0.26283
 H1164 H 0.79381 1.23698 0.34378
 H1165 H 0.86822 1.08899 0.44776
 H1166 H 0.98617 1.10340 0.39509
 H1167 H 0.83688 1.20295 0.38427
 H1168 H 0.83371 1.13014 0.40430
 H1169 H 0.89377 1.13048 0.30520
 H1170 H 0.95131 1.14444 0.35152
 C1171 C 0.36885 0.66322 -0.15310
 C1172 C 0.37280 0.65405 -0.18775
 C1173 C 0.34799 0.67476 -0.21169
 C1174 C 0.31911 0.70498 -0.20124
 C1175 C 0.31704 0.71476 -0.16648
 C1176 C 0.34154 0.69444 -0.14296
 C1177 C 0.39058 0.63895 -0.12684
 C1178 C 0.36793 0.62415 -0.09878
 C1179 C 0.38763 0.60061 -0.07397
 C1180 C 0.43045 0.59155 -0.07662
 C1181 C 0.45349 0.60773 -0.10405
 C1182 C 0.43362 0.63096 -0.12909
 H1183 H 0.35055 0.66628 -0.23808
 H1184 H 0.29486 0.73682 -0.15662
 H1185 H 0.36903 0.58828 -0.05336
 H1186 H 0.48655 0.60098 -0.10694
 H1187 H 0.33820 0.70241 -0.11649
 H1188 H 0.33458 0.62981 -0.09658
 H1189 H 0.39378 0.62985 -0.19611
 H1190 H 0.45176 0.64252 -0.15026
 C1191 C 0.86122 0.83635 0.65150
 C1192 C 0.83189 0.80680 0.64200
 C1193 C 0.80818 0.78672 0.66622
 C1194 C 0.81270 0.79544 0.70103
 C1195 C 0.84334 0.82427 0.71073
 C1196 C 0.86765 0.84450 0.68606
 C1197 C 0.88312 0.85945 0.62469
 C1198 C 0.92688 0.86150 0.62393
 C1199 C 0.94713 0.88303 0.59805
 C1200 C 0.92389 0.90369 0.57296
 C1201 C 0.88010 0.90013 0.57306
 C1202 C 0.85992 0.87806 0.59864
 H1203 H 0.78498 0.76536 0.65693
 H1204 H 0.84791 0.83178 0.73713
 H1205 H 0.98094 0.88493 0.59852
 H1206 H 0.86134 0.91592 0.55430
 H1207 H 0.89040 0.86740 0.69383
 H1208 H 0.94530 0.84654 0.64337
 H1209 H 0.82671 0.79971 0.61557
 H1210 H 0.82601 0.87650 0.59869
 C1211 C 0.36145 0.33739 0.15228
 C1212 C 0.33264 0.30745 0.14256
 C1213 C 0.30905 0.28693 0.16662
 C1214 C 0.31316 0.29564 0.20146
 C1215 C 0.34333 0.32485 0.21138
 C1216 C 0.36753 0.34549 0.18689
 C1217 C 0.38319 0.36091 0.12565
 C1218 C 0.42693 0.36316 0.12492
 C1219 C 0.44708 0.38487 0.09910
 C1220 C 0.42376 0.40553 0.07406
 C1221 C 0.37998 0.40190 0.07420
 C1222 C 0.35989 0.37962 0.09971
 H1223 H 0.28615 0.26537 0.15717
 H1224 H 0.34755 0.33239 0.23781
 H1225 H 0.48089 0.38682 0.09953
 H1226 H 0.36116 0.41768 0.05547
 H1227 H 0.38989 0.36868 0.19481
 H1228 H 0.44542 0.34814 0.14428
 H1229 H 0.32773 0.30042 0.11608
 H1230 H 0.32599 0.37789 0.09976
   
