data_POSCAR
  _audit_creation_date              2014-09-24
  _audit_creation_method            'ToBaCCo'
  _symmetry_space_group_name_H-M    'P1'
  _symmetry_Int_Tables_number       1
  _symmetry_cell_setting            triclinic
  loop_
  _symmetry_equiv_pos_as_xyz
 x,y,z
_cell_length_a 54.6459
_cell_length_b 54.3660
_cell_length_c 54.6198
_cell_angle_alpha 89.887200
_cell_angle_beta 90.000000
_cell_angle_gamma 90.083500
loop_
  _atom_site_label
  _atom_site_type_symbol
  _atom_site_fract_x
  _atom_site_fract_y
  _atom_site_fract_z
C1 C 0.28481 1.05001 0.02455
 C2 C 0.28728 1.06226 0.00207
 C3 C 0.28298 1.05064 -0.02043
 C4 C 0.27829 1.02489 -0.02062
 C5 C 0.27734 1.01164 0.00181
 C6 C 0.28036 1.02423 0.02444
 C7 C 0.28028 1.01043 0.04623
 C8 C 0.27547 0.98538 0.04612
 C9 C 0.27224 0.97253 0.02408
 C10 C 0.27356 0.98563 0.00162
 C11 C 0.27577 1.01179 -0.04265
 C12 C 0.27099 0.98672 -0.04275
 C13 C 0.27079 0.97289 -0.02096
 C14 C 0.26655 0.94696 -0.02095
 C15 C 0.26420 0.93482 0.00168
 C16 C 0.26743 0.94698 0.02395
 H17 H 0.28424 1.01874 0.06375
 H18 H 0.27446 0.97625 0.06368
 H19 H 0.27764 1.02066 -0.06026
 H20 H 0.26722 0.97853 -0.06033
 H21 H 0.28951 1.08209 0.00220
 H22 H 0.26134 0.91507 0.00213
 C23 C 0.77427 0.44862 0.47989
 C24 C 0.77344 0.43608 0.50227
 C25 C 0.77463 0.44854 0.52464
 C26 C 0.77650 0.47453 0.52478
 C27 C 0.77719 0.48758 0.50224
 C28 C 0.77608 0.47462 0.47971
 C29 C 0.77617 0.48805 0.45767
 C30 C 0.77789 0.51357 0.45767
 C31 C 0.77872 0.52679 0.47971
 C32 C 0.77844 0.51370 0.50223
 C33 C 0.77708 0.48787 0.54681
 C34 C 0.77887 0.51338 0.54679
 C35 C 0.77923 0.52670 0.52474
 C36 C 0.78052 0.55269 0.52453
 C37 C 0.78112 0.56520 0.50220
 C38 C 0.77999 0.55278 0.47989
 H39 H 0.77477 0.47905 0.44011
 H40 H 0.77850 0.52281 0.44012
 H41 H 0.77603 0.47881 0.56440
 H42 H 0.77990 0.52254 0.56432
 H43 H 0.77199 0.41618 0.50229
 H44 H 0.78154 0.58516 0.50220
 C45 C 0.76224 1.02166 1.05451
 C46 C 0.76754 0.99982 1.06690
 C47 C 0.76943 0.97710 1.05473
 C48 C 0.76782 0.97689 1.02863
 C49 C 0.76235 0.99904 1.01582
 C50 C 0.75865 1.02120 1.02895
 C51 C 0.75075 1.04220 1.01627
 C52 C 0.74866 1.04215 0.99098
 C53 C 0.75520 1.02138 0.97714
 C54 C 0.76073 0.99916 0.98979
 C55 C 0.77309 0.95569 1.01482
 C56 C 0.77134 0.95575 0.98935
 C57 C 0.76471 0.97714 0.97650
 C58 C 0.76259 0.97734 0.95066
 C59 C 0.75760 0.99947 0.93852
 C60 C 0.75480 1.02180 0.95109
 H61 H 0.74576 1.05888 1.02581
 H62 H 0.74153 1.05861 0.98245
 H63 H 0.77928 0.93892 1.02348
 H64 H 0.77569 0.93890 0.97980
 H65 H 0.76893 1.00058 1.08669
 H66 H 0.75718 0.99932 0.91867
 C67 C 0.26624 0.47444 0.55314
 C68 C 0.26339 0.49668 0.56572
 C69 C 0.25995 0.51896 0.55339
 C70 C 0.25865 0.51907 0.52753
 C71 C 0.26228 0.49686 0.51436
 C72 C 0.26623 0.47446 0.52717
 C73 C 0.27061 0.45291 0.51366
 C74 C 0.27042 0.45318 0.48812
 C75 C 0.26577 0.47499 0.47505
 C76 C 0.26200 0.49711 0.48832
 C77 C 0.25322 0.54069 0.51451
 C78 C 0.25290 0.54092 0.48910
 C79 C 0.25802 0.51956 0.47562
 C80 C 0.25872 0.51997 0.44975
 C81 C 0.26205 0.49800 0.43695
 C82 C 0.26535 0.47551 0.44906
 H83 H 0.27458 0.43566 0.52271
 H84 H 0.27426 0.43612 0.47873
 H85 H 0.24888 0.55766 0.52383
 H86 H 0.24834 0.55809 0.48017
 H87 H 0.26384 0.49665 0.58557
 H88 H 0.26211 0.49843 0.41709
 C89 C 1.04486 0.25501 -0.02026
 C90 C 1.05754 0.25437 0.00212
 C91 C 1.04573 0.25569 0.02494
 C92 C 1.01974 0.25802 0.02532
 C93 C 1.00626 0.25730 0.00300
 C94 C 1.01879 0.25582 -0.01978
 C95 C 1.00479 0.25425 -0.04134
 C96 C 0.97946 0.25620 -0.04092
 C97 C 0.96645 0.25755 -0.01876
 C98 C 0.98011 0.25850 0.00347
 C99 C 1.00695 0.26294 0.04714
 C100 C 0.98159 0.26434 0.04760
 C101 C 0.96777 0.26144 0.02616
 C102 C 0.94194 0.26270 0.02672
 C103 C 0.92889 0.26212 0.00476
 C104 C 0.94038 0.25956 -0.01811
 H105 H 1.01313 0.25139 -0.05902
 H106 H 0.97046 0.25701 -0.05847
 H107 H 1.01637 0.26653 0.06415
 H108 H 0.97296 0.26831 0.06496
 H109 H 1.07733 0.25303 0.00175
 H110 H 0.90906 0.26256 0.00569
 C111 C 0.54164 0.75776 0.52529
 C112 C 0.55390 0.75737 0.50278
 C113 C 0.54128 0.75749 0.48047
 C114 C 0.51532 0.75738 0.48057
 C115 C 0.50252 0.75792 0.50322
 C116 C 0.51571 0.75859 0.52562
 C117 C 0.50263 0.76081 0.54767
 C118 C 0.47717 0.76106 0.54791
 C119 C 0.46368 0.75910 0.52611
 C120 C 0.47646 0.75802 0.50346
 C121 C 0.50180 0.75652 0.45869
 C122 C 0.47634 0.75709 0.45891
 C123 C 0.46325 0.75757 0.48105
 C124 C 0.43733 0.75819 0.48145
 C125 C 0.42512 0.75873 0.50395
 C126 C 0.43774 0.75910 0.52623
 H127 H 0.51192 0.76278 0.56503
 H128 H 0.46821 0.76318 0.56543
 H129 H 0.51071 0.75538 0.44107
 H130 H 0.46711 0.75720 0.44142
 H131 H 0.57375 0.75707 0.50262
 H132 H 0.40526 0.75876 0.50411
 C133 C 0.01480 0.75996 -0.04857
 C134 C -0.00755 0.76066 -0.06124
 C135 C -0.03021 0.75801 -0.04950
 C136 C -0.03062 0.75421 -0.02379
 C137 C -0.00838 0.75465 -0.01031
 C138 C 0.01439 0.75744 -0.02262
 C139 C 0.03590 0.75879 -0.00846
 C140 C 0.03536 0.75554 0.01680
 C141 C 0.01314 0.75237 0.02930
 C142 C -0.00894 0.75203 0.01563
 C143 C -0.05240 0.74816 -0.01138
 C144 C -0.05295 0.74580 0.01387
 C145 C -0.03162 0.74868 0.02783
 C146 C -0.03230 0.74727 0.05364
 C147 C -0.01039 0.74716 0.06678
 C148 C 0.01227 0.74921 0.05505
 H149 H 0.05349 0.76270 -0.01661
 H150 H 0.05267 0.75578 0.02635
 H151 H -0.06931 0.74463 -0.02100
 H152 H -0.07028 0.74117 0.02229
 H153 H -0.00732 0.76298 -0.08097
 H154 H -0.01097 0.74572 0.08659
 C155 C 0.51676 0.26483 0.45161
 C156 C 0.49436 0.26527 0.43921
 C157 C 0.47212 0.26336 0.45165
 C158 C 0.47204 0.26104 0.47743
 C159 C 0.49455 0.26102 0.49040
 C160 C 0.51702 0.26275 0.47748
 C161 C 0.53905 0.26239 0.49077
 C162 C 0.53909 0.25951 0.51611
 C163 C 0.51707 0.25803 0.52935
 C164 C 0.49457 0.25887 0.51635
 C165 C 0.45011 0.25788 0.49047
 C166 C 0.45012 0.25592 0.51580
 C167 C 0.47206 0.25697 0.52916
 C168 C 0.47211 0.25529 0.55498
 C169 C 0.49437 0.25413 0.56749
 C170 C 0.51679 0.25513 0.55515
 H171 H 0.55657 0.26419 0.48174
 H172 H 0.55665 0.25847 0.52512
 H173 H 0.43265 0.25658 0.48125
 H174 H 0.43266 0.25311 0.52471
 H175 H 0.49423 0.26669 0.41939
 H176 H 0.49426 0.25253 0.58729
 C177 C 0.94667 -0.02304 0.22646
 C178 C 0.93431 -0.00054 0.22939
 C179 C 0.94669 0.02153 0.23344
 C180 C 0.97247 0.02156 0.23482
 C181 C 0.98561 -0.00054 0.23064
 C182 C 0.97279 -0.02287 0.22622
 C183 C 0.98645 -0.04378 0.21970
 C184 C 1.01195 -0.04335 0.21946
 C185 C 1.02510 -0.02200 0.22581
 C186 C 1.01169 -0.00010 0.23038
 C187 C 0.98541 0.04312 0.24054
 C188 C 1.01076 0.04357 0.24016
 C189 C 1.02422 0.02245 0.23416
 C190 C 1.04993 0.02332 0.23213
 C191 C 1.06296 0.00162 0.22818
 C192 C 1.05124 -0.02134 0.22576
 H193 H 0.97759 -0.06054 0.21380
 H194 H 1.02119 -0.05979 0.21334
 H195 H 0.97610 0.05996 0.24537
 H196 H 1.01968 0.06075 0.24468
 H197 H 0.91447 -0.00014 0.22956
 H198 H 1.08277 0.00273 0.22805
 C199 C 0.44982 0.47520 0.73113
 C200 C 0.43678 0.49716 0.73396
 C201 C 0.44863 0.51977 0.73669
 C202 C 0.47450 0.52057 0.73717
 C203 C 0.48809 0.49862 0.73366
 C204 C 0.47575 0.47584 0.73050
 C205 C 0.48965 0.45453 0.72627
 C206 C 0.51515 0.45538 0.72598
 C207 C 0.52780 0.47757 0.72996
 C208 C 0.51410 0.49948 0.73333
 C209 C 0.48711 0.54263 0.74167
 C210 C 0.51248 0.54350 0.74120
 C211 C 0.52634 0.52231 0.73635
 C212 C 0.55216 0.52330 0.73504
 C213 C 0.56542 0.50150 0.73236
 C214 C 0.55375 0.47864 0.73014
 H215 H 0.48093 0.43700 0.72283
 H216 H 0.52483 0.43846 0.72225
 H217 H 0.47752 0.55949 0.74585
 H218 H 0.52111 0.56100 0.74500
 H219 H 0.41693 0.49664 0.73409
 H220 H 0.58525 0.50236 0.73207
 C221 C 1.02416 0.94899 0.73856
 C222 C 1.00159 0.93646 0.73928
 C223 C 0.97922 0.94876 0.73782
 C224 C 0.97892 0.97471 0.73614
 C225 C 1.00127 0.98798 0.73506
 C226 C 1.02393 0.97510 0.73555
 C227 C 1.04545 0.98847 0.73066
 C228 C 1.04513 1.01390 0.72806
 C229 C 1.02326 1.02733 0.73010
 C230 C 1.00090 1.01414 0.73258
 C231 C 0.95676 0.98769 0.73508
 C232 C 0.95640 1.01299 0.73201
 C233 C 0.97815 1.02685 0.73149
 C234 C 0.97785 1.05279 0.72795
 C235 C 1.00021 1.06522 0.72546
 C236 C 1.02292 1.05335 0.72731
 H237 H 1.06278 0.97940 0.72775
 H238 H 1.06223 1.02279 0.72344
 H239 H 0.93929 0.97841 0.73617
 H240 H 0.93868 1.02132 0.72935
 H241 H 1.00122 0.91665 0.74163
 H242 H 0.99988 1.08515 0.72445
 C243 C 0.52319 0.45095 0.24465
 C244 C 0.50133 0.43746 0.24508
 C245 C 0.47849 0.44899 0.24376
 C246 C 0.47730 0.47500 0.24263
 C247 C 0.49925 0.48897 0.24200
 C248 C 0.52228 0.47693 0.24264
 C249 C 0.54371 0.49113 0.24054
 C250 C 0.54265 0.51666 0.23896
 C251 C 0.52012 0.52906 0.23940
 C252 C 0.49817 0.51508 0.24048
 C253 C 0.45474 0.48741 0.24228
 C254 C 0.45368 0.51287 0.24034
 C255 C 0.47513 0.52711 0.23963
 C256 C 0.47422 0.55305 0.23763
 C257 C 0.49600 0.56650 0.23698
 C258 C 0.51885 0.55504 0.23801
 H259 H 0.56158 0.48266 0.23973
 H260 H 0.55974 0.52653 0.23701
 H261 H 0.43756 0.47761 0.24352
 H262 H 0.43576 0.52120 0.23934
 H263 H 0.50212 0.41756 0.24627
 H264 H 0.49512 0.58642 0.23601
 O265 O 0.24962 0.18511 0.21422
 O266 O 0.27817 0.17953 0.24859
 O267 O 0.18655 0.21615 0.24696
 O268 O 0.17750 0.24878 0.27056
 O269 O 0.21924 0.25040 0.18321
 O270 O 0.25411 0.27612 0.17736
 O271 O 0.25000 0.28263 0.31143
 O272 O 0.22082 0.25122 0.31711
 O273 O 0.31252 0.24554 0.28361
 O274 O 0.31817 0.21760 0.24592
 O275 O 0.28704 0.31104 0.24948
 O276 O 0.25267 0.31991 0.22105
 O277 O 0.25360 0.31214 0.28214
 O278 O 0.22642 0.32089 0.24676
 O279 O 0.31493 0.28021 0.25260
 O280 O 0.32405 0.24800 0.22531
 O281 O 0.28276 0.24984 0.31236
 O282 O 0.24783 0.22152 0.31885
 O283 O 0.25324 0.21455 0.18478
 O284 O 0.28052 0.24851 0.17850
 O285 O 0.18857 0.25047 0.21133
 O286 O 0.18268 0.27959 0.24496
 O287 O 0.21542 0.18596 0.24830
 O288 O 0.24653 0.17850 0.27575
 Zr289 Zr 0.24870 0.20491 0.24726
 O290 O 0.27129 0.22514 0.27098
 Zr291 Zr 0.20693 0.24925 0.24538
 O292 O 0.22790 0.27153 0.26924
 Zr293 Zr 0.25147 0.24803 0.20406
 O294 O 0.27430 0.27023 0.22583
 Zr295 Zr 0.25005 0.24952 0.29180
 O296 O 0.22694 0.22720 0.27003
 Zr297 Zr 0.29421 0.24788 0.25002
 O298 O 0.27359 0.22553 0.22613
 Zr299 Zr 0.25297 0.29263 0.24877
 O300 O 0.22997 0.27246 0.22470
 O301 O 0.22737 0.22584 0.22354
 O302 O 0.27440 0.27166 0.27239
 C303 C 0.25226 0.19198 0.19186
 C304 C 0.19314 0.19343 0.24845
 C305 C 0.19650 0.25128 0.18914
 C306 C 0.25200 0.30515 0.30461
 C307 C 0.30523 0.24733 0.30585
 C308 C 0.30907 0.30304 0.25172
 H309 H 0.28070 0.21357 0.28128
 H310 H 0.28518 0.28007 0.21518
 H311 H 0.21693 0.21554 0.21285
 H312 H 0.21693 0.28194 0.27918
 H313 H 0.20808 0.23969 0.31119
 H314 H 0.18256 0.25854 0.28496
 H315 H 0.31947 0.25844 0.21120
 H316 H 0.29313 0.23712 0.18489
 H317 H 0.26154 0.20994 0.31638
 H318 H 0.23649 0.18585 0.28891
 H319 H 0.26597 0.31604 0.20940
 H320 H 0.24332 0.28962 0.18290
 H321 H 0.27209 0.16301 0.24384
 H322 H 0.31629 0.20697 0.26052
 H323 H 0.18900 0.29135 0.23262
 H324 H 0.21395 0.31760 0.25948
 O325 O 0.74887 0.81580 0.22058
 O326 O 0.71973 0.82276 0.25518
 O327 O 0.81099 0.78469 0.25498
 O328 O 0.81875 0.75379 0.28120
 O329 O 0.77871 0.74887 0.19286
 O330 O 0.74268 0.72353 0.18784
 O331 O 0.74770 0.72075 0.32109
 O332 O 0.77648 0.75501 0.32548
 O333 O 0.68391 0.75617 0.29269
 O334 O 0.67944 0.78589 0.25538
 O335 O 0.70948 0.69184 0.26101
 O336 O 0.74302 0.68182 0.23192
 O337 O 0.74282 0.69085 0.29249
 O338 O 0.76965 0.68105 0.25735
 O339 O 0.68137 0.72260 0.25940
 O340 O 0.67320 0.75598 0.23379
 O341 O 0.71409 0.75306 0.32112
 O342 O 0.74459 0.78048 0.32879
 O343 O 0.74640 0.78537 0.19218
 O344 O 0.71753 0.75281 0.18693
 O345 O 0.80838 0.74770 0.22207
 O346 O 0.81434 0.72203 0.25760
 O347 O 0.78301 0.81565 0.25306
 O348 O 0.75201 0.82500 0.28169
 Zr349 Zr 0.74911 0.79729 0.25461
 O350 O 0.72610 0.77789 0.27906
 Zr351 Zr 0.78992 0.75216 0.25542
 O352 O 0.76860 0.73064 0.27937
 Zr353 Zr 0.74608 0.75279 0.21306
 O354 O 0.72256 0.73182 0.23533
 Zr355 Zr 0.74664 0.75368 0.30082
 O356 O 0.77007 0.77555 0.27879
 Zr357 Zr 0.70266 0.75493 0.25887
 O358 O 0.72396 0.77625 0.23419
 Zr359 Zr 0.74350 0.70969 0.25895
 O360 O 0.76709 0.72880 0.23480
 O361 O 0.77029 0.77497 0.23218
 O362 O 0.72214 0.73138 0.28189
 C363 C 0.74768 0.80814 0.19833
 C364 C 0.80515 0.80760 0.25368
 C365 C 0.80109 0.74659 0.19976
 C366 C 0.74536 0.69814 0.31467
 C367 C 0.69147 0.75443 0.31493
 C368 C 0.68737 0.69976 0.26057
 H369 H 0.71685 0.78961 0.28931
 H370 H 0.71162 0.72197 0.22478
 H371 H 0.78114 0.78433 0.22104
 H372 H 0.77954 0.72037 0.28953
 H373 H 0.78695 0.76904 0.32046
 H374 H 0.81277 0.74591 0.29640
 H375 H 0.67829 0.74653 0.21920
 H376 H 0.70551 0.76524 0.19241
 H377 H 0.74405 0.79667 0.32062
 H378 H 0.76486 0.81973 0.29334
 H379 H 0.72924 0.68522 0.22068
 H380 H 0.75373 0.71033 0.19363
 H381 H 0.72575 0.83889 0.24913
 H382 H 0.68041 0.79538 0.27078
 H383 H 0.80801 0.70924 0.24637
 H384 H 0.78174 0.68385 0.27054
 O385 O 0.74547 0.18290 0.78203
 O386 O 0.71905 0.17704 0.74718
 O387 O 0.81056 0.21127 0.74673
 O388 O 0.82160 0.24409 0.72506
 O389 O 0.78172 0.24631 0.81273
 O390 O 0.74827 0.27292 0.81994
 O391 O 0.74792 0.28098 0.68576
 O392 O 0.77609 0.24859 0.67882
 O393 O 0.68524 0.24927 0.71504
 O394 O 0.67707 0.22136 0.74618
 O395 O 0.71605 0.31096 0.74691
 O396 O 0.75031 0.31812 0.77572
 O397 O 0.75027 0.31053 0.71505
 O398 O 0.77750 0.31680 0.75099
 O399 O 0.68597 0.28207 0.74833
 O400 O 0.67847 0.24641 0.77655
 O401 O 0.71466 0.24974 0.68563
 O402 O 0.74757 0.21981 0.67812
 O403 O 0.74696 0.21172 0.81211
 O404 O 0.72014 0.24671 0.81868
 O405 O 0.81143 0.24439 0.78367
 O406 O 0.81770 0.27441 0.74987
 O407 O 0.78082 0.18197 0.74915
 O408 O 0.74911 0.17789 0.71918
 Zr409 Zr 0.74834 0.20267 0.74911
 O410 O 0.72583 0.22449 0.72668
 Zr411 Zr 0.79217 0.24507 0.75017
 O412 O 0.77190 0.26844 0.72690
 Zr413 Zr 0.74882 0.24533 0.79274
 O414 O 0.72688 0.26927 0.77175
 Zr415 Zr 0.74776 0.24776 0.70519
 O416 O 0.77055 0.22422 0.72595
 Zr417 Zr 0.70481 0.24840 0.74814
 O418 O 0.72493 0.22425 0.77094
 Zr419 Zr 0.74887 0.29068 0.74830
 O420 O 0.77109 0.26902 0.77180
 O421 O 0.77124 0.22232 0.77240
 O422 O 0.72544 0.27119 0.72535
 C423 C 0.74518 0.18935 0.80463
 C424 C 0.80331 0.18873 0.74724
 C425 C 0.80427 0.24561 0.80607
 C426 C 0.74915 0.30351 0.69261
 C427 C 0.69220 0.25003 0.69258
 C428 C 0.69341 0.30448 0.74733
 H429 H 0.71514 0.21373 0.71677
 H430 H 0.71700 0.27962 0.78281
 H431 H 0.78134 0.21140 0.78281
 H432 H 0.78320 0.27823 0.71663
 H433 H 0.78839 0.23628 0.68404
 H434 H 0.81596 0.25223 0.70988
 H435 H 0.68128 0.26041 0.78776
 H436 H 0.70761 0.23473 0.81325
 H437 H 0.73393 0.20839 0.68169
 H438 H 0.76187 0.18374 0.70769
 H439 H 0.73696 0.31484 0.78751
 H440 H 0.75847 0.28660 0.81364
 H441 H 0.72533 0.16037 0.75118
 H442 H 0.68409 0.20621 0.75336
 H443 H 0.81342 0.28536 0.76367
 H444 H 0.78943 0.31325 0.73784
 O445 O 0.24538 0.80577 0.79203
 O446 O 0.27302 0.81182 0.75744
 O447 O 0.18169 0.77638 0.75483
 O448 O 0.17100 0.74353 0.73385
 O449 O 0.21064 0.74146 0.82159
 O450 O 0.24468 0.71491 0.82860
 O451 O 0.24546 0.70749 0.69477
 O452 O 0.21654 0.74011 0.68806
 O453 O 0.30768 0.73998 0.72416
 O454 O 0.31533 0.76798 0.75525
 O455 O 0.27685 0.67803 0.75792
 O456 O 0.24221 0.67052 0.78491
 O457 O 0.24361 0.67839 0.72464
 O458 O 0.21572 0.67168 0.75984
 O459 O 0.30693 0.70693 0.75684
 O460 O 0.31409 0.74253 0.78574
 O461 O 0.27832 0.74108 0.69472
 O462 O 0.24517 0.76853 0.68658
 O463 O 0.24438 0.77598 0.82132
 O464 O 0.27201 0.74216 0.82794
 O465 O 0.18120 0.74343 0.79225
 O466 O 0.17539 0.71334 0.75835
 O467 O 0.21066 0.80637 0.75753
 O468 O 0.24328 0.81159 0.72909
 Zr469 Zr 0.24370 0.78618 0.75857
 O470 O 0.26645 0.76456 0.73599
 Zr471 Zr 0.20052 0.74303 0.75888
 O472 O 0.22112 0.72002 0.73579
 Zr473 Zr 0.24355 0.74291 0.80172
 O474 O 0.26596 0.71953 0.78089
 Zr475 Zr 0.24512 0.74101 0.71416
 O476 O 0.22213 0.76437 0.73496
 Zr477 Zr 0.28788 0.74063 0.75720
 O478 O 0.26736 0.76443 0.78014
 Zr479 Zr 0.24412 0.69812 0.75757
 O480 O 0.22149 0.71925 0.78081
 O481 O 0.22091 0.76589 0.78139
 O482 O 0.26752 0.71766 0.73444
 C483 C 0.24533 0.79857 0.81452
 C484 C 0.18836 0.79907 0.75503
 C485 C 0.18817 0.74220 0.81471
 C486 C 0.24438 0.68501 0.70208
 C487 C 0.30078 0.74058 0.70167
 C488 C 0.29944 0.68451 0.75743
 H489 H 0.27703 0.77555 0.72615
 H490 H 0.27586 0.70926 0.79206
 H491 H 0.21046 0.77663 0.79160
 H492 H 0.20998 0.71011 0.72548
 H493 H 0.20438 0.75257 0.69319
 H494 H 0.17685 0.73584 0.71855
 H495 H 0.31166 0.72813 0.79658
 H496 H 0.28463 0.75392 0.82222
 H497 H 0.25679 0.78156 0.69153
 H498 H 0.23116 0.80554 0.71704
 H499 H 0.25462 0.67440 0.79750
 H500 H 0.23334 0.70184 0.82305
 H501 H 0.26671 0.82834 0.76190
 H502 H 0.30829 0.78289 0.76283
 H503 H 0.17948 0.70253 0.77238
 H504 H 0.20404 0.67498 0.74639
 O505 O 0.25074 0.31281 0.72067
 O506 O 0.22141 0.31917 0.75505
 O507 O 0.31310 0.28237 0.75563
 O508 O 0.32140 0.25115 0.78113
 O509 O 0.28180 0.24697 0.69265
 O510 O 0.24647 0.22056 0.68737
 O511 O 0.24995 0.21723 0.82063
 O512 O 0.27877 0.25135 0.82529
 O513 O 0.18631 0.25191 0.79208
 O514 O 0.18153 0.28150 0.75472
 O515 O 0.21306 0.18788 0.75974
 O516 O 0.24704 0.17858 0.73130
 O517 O 0.24604 0.18735 0.79187
 O518 O 0.27345 0.17819 0.75694
 O519 O 0.18452 0.21822 0.75853
 O520 O 0.17587 0.25161 0.73314
 O521 O 0.21643 0.24971 0.82065
 O522 O 0.24738 0.27694 0.82861
 O523 O 0.24848 0.28248 0.69213
 O524 O 0.22062 0.24920 0.68644
 O525 O 0.31132 0.24587 0.72203
 O526 O 0.31728 0.21959 0.75725
 O527 O 0.28473 0.31297 0.75340
 O528 O 0.25348 0.32148 0.78198
 Zr529 Zr 0.25110 0.29406 0.75456
 O530 O 0.22822 0.27420 0.77872
 Zr531 Zr 0.29258 0.24951 0.75532
 O532 O 0.27144 0.22759 0.77908
 Zr533 Zr 0.24898 0.24977 0.71275
 O534 O 0.22567 0.22831 0.73478
 Zr535 Zr 0.24904 0.25022 0.80049
 O536 O 0.27227 0.27249 0.77869
 Zr537 Zr 0.20525 0.25094 0.75833
 O538 O 0.22638 0.27273 0.73391
 Zr539 Zr 0.24678 0.20636 0.75841
 O540 O 0.27021 0.22594 0.73446
 O541 O 0.27274 0.27221 0.73214
 O542 O 0.22495 0.22760 0.78137
 C543 C 0.24946 0.30523 0.69840
 C544 C 0.30696 0.30520 0.75438
 C545 C 0.30419 0.24508 0.69965
 C546 C 0.24808 0.19461 0.81411
 C547 C 0.19382 0.25066 0.81437
 C548 C 0.19083 0.19545 0.75923
 H549 H 0.21869 0.28576 0.78889
 H550 H 0.21496 0.21836 0.72408
 H551 H 0.28348 0.28190 0.72116
 H552 H 0.28241 0.21743 0.78931
 H553 H 0.28945 0.26520 0.82022
 H554 H 0.31559 0.24291 0.79620
 H555 H 0.18114 0.24226 0.71856
 H556 H 0.20822 0.26124 0.69195
 H557 H 0.24386 0.29289 0.82073
 H558 H 0.26599 0.31597 0.79390
 H559 H 0.23369 0.18215 0.71960
 H560 H 0.25798 0.20770 0.69303
 H561 H 0.22735 0.33547 0.74939
 H562 H 0.18236 0.29108 0.77008
 H563 H 0.31125 0.20696 0.74569
 H564 H 0.28535 0.18112 0.77027
 O565 O 0.74601 0.68998 0.71280
 O566 O 0.77584 0.68408 0.74609
 O567 O 0.68399 0.72017 0.74753
 O568 O 0.67540 0.75246 0.77179
 O569 O 0.71505 0.75597 0.68349
 O570 O 0.74975 0.78139 0.67701
 O571 O 0.74875 0.78590 0.81136
 O572 O 0.71996 0.75431 0.81733
 O573 O 0.81073 0.74994 0.78129
 O574 O 0.81574 0.72240 0.74341
 O575 O 0.78419 0.81553 0.74899
 O576 O 0.74900 0.82466 0.72151
 O577 O 0.75143 0.81593 0.78248
 O578 O 0.72348 0.82517 0.74791
 O579 O 0.81224 0.78474 0.75081
 O580 O 0.82058 0.75279 0.72257
 O581 O 0.78173 0.75326 0.81091
 O582 O 0.74707 0.72469 0.81783
 O583 O 0.74897 0.71981 0.68366
 O584 O 0.77622 0.75389 0.67729
 O585 O 0.68504 0.75514 0.71234
 O586 O 0.67981 0.78364 0.74658
 O587 O 0.71306 0.69015 0.74793
 O588 O 0.74506 0.68239 0.77420
 Zr589 Zr 0.74618 0.70927 0.74609
 O590 O 0.76932 0.72923 0.76948
 Zr591 Zr 0.70420 0.75341 0.74591
 O592 O 0.72569 0.77542 0.76956
 Zr593 Zr 0.74773 0.75303 0.70347
 O594 O 0.77098 0.77505 0.72496
 Zr595 Zr 0.74850 0.75315 0.79121
 O596 O 0.72491 0.73109 0.76973
 Zr597 Zr 0.79157 0.75240 0.74826
 O598 O 0.77045 0.73027 0.72462
 Zr599 Zr 0.75016 0.79698 0.74880
 O600 O 0.72665 0.77704 0.72503
 O601 O 0.72418 0.73046 0.72321
 O602 O 0.77225 0.77572 0.77153
 C603 C 0.74806 0.69715 0.69049
 C604 C 0.69077 0.69749 0.74871
 C605 C 0.69247 0.75663 0.69002
 C606 C 0.75040 0.80854 0.80486
 C607 C 0.80405 0.75120 0.80375
 C608 C 0.80630 0.80756 0.75051
 H609 H 0.77905 0.71757 0.77936
 H610 H 0.78153 0.78512 0.71419
 H611 H 0.71345 0.72032 0.71265
 H612 H 0.71492 0.78561 0.77993
 H613 H 0.70709 0.74287 0.81154
 H614 H 0.68082 0.76193 0.78625
 H615 H 0.81584 0.76390 0.70904
 H616 H 0.78893 0.74235 0.68318
 H617 H 0.76084 0.71329 0.81492
 H618 H 0.73535 0.68944 0.78776
 H619 H 0.76220 0.82122 0.70961
 H620 H 0.73943 0.79499 0.68315
 H621 H 0.76971 0.66759 0.74124
 H622 H 0.81411 0.71150 0.75784
 H623 H 0.68580 0.79564 0.73431
 H624 H 0.71126 0.82155 0.76078
 O625 O 0.24011 0.68319 0.28371
 O626 O 0.21355 0.67685 0.24900
 O627 O 0.30513 0.71078 0.24727
 O628 O 0.31597 0.74326 0.22492
 O629 O 0.27711 0.74718 0.31301
 O630 O 0.24362 0.77374 0.32023
 O631 O 0.24198 0.77988 0.18603
 O632 O 0.27022 0.74733 0.17932
 O633 O 0.17965 0.74853 0.21632
 O634 O 0.17182 0.72103 0.24800
 O635 O 0.21077 0.81064 0.24701
 O636 O 0.24553 0.81802 0.27562
 O637 O 0.24473 0.80980 0.21492
 O638 O 0.27214 0.81671 0.25031
 O639 O 0.18068 0.78181 0.24888
 O640 O 0.17339 0.74680 0.27789
 O641 O 0.20882 0.74861 0.18664
 O642 O 0.24153 0.71867 0.17912
 O643 O 0.24250 0.71244 0.31336
 O644 O 0.21559 0.74739 0.31969
 O645 O 0.30648 0.74442 0.28365
 O646 O 0.31253 0.77392 0.24949
 O647 O 0.27533 0.68164 0.25072
 O648 O 0.24351 0.67711 0.22097
 Zr649 Zr 0.24293 0.70241 0.25046
 O650 O 0.22030 0.72395 0.22791
 Zr651 Zr 0.28687 0.74470 0.25040
 O652 O 0.26643 0.76784 0.22708
 Zr653 Zr 0.24398 0.74574 0.29345
 O654 O 0.22182 0.76937 0.27235
 Zr655 Zr 0.24207 0.74690 0.20589
 O656 O 0.26496 0.72354 0.22674
 Zr657 Zr 0.19952 0.74816 0.24924
 O658 O 0.21981 0.72436 0.27223
 Zr659 Zr 0.24363 0.79039 0.24841
 O660 O 0.26609 0.76902 0.27192
 O661 O 0.26612 0.72236 0.27321
 O662 O 0.21998 0.77060 0.22596
 C663 C 0.24036 0.68999 0.30621
 C664 C 0.29781 0.68829 0.24842
 C665 C 0.29958 0.74617 0.30609
 C666 C 0.24333 0.80250 0.19259
 C667 C 0.18644 0.74900 0.19380
 C668 C 0.18812 0.80419 0.24751
 H669 H 0.20950 0.71306 0.21824
 H670 H 0.21205 0.77989 0.28334
 H671 H 0.27630 0.71160 0.28370
 H672 H 0.27764 0.77749 0.21657
 H673 H 0.28246 0.73497 0.18454
 H674 H 0.31027 0.75147 0.20980
 H675 H 0.17637 0.76095 0.28886
 H676 H 0.20298 0.73541 0.31448
 H677 H 0.22818 0.70708 0.18321
 H678 H 0.25614 0.68280 0.20926
 H679 H 0.23185 0.81534 0.28719
 H680 H 0.25372 0.78735 0.31362
 H681 H 0.21976 0.66024 0.25336
 H682 H 0.17881 0.70613 0.25572
 H683 H 0.30833 0.78516 0.26309
 H684 H 0.28418 0.81269 0.23741
 O685 O 0.74803 0.31062 0.29019
 O686 O 0.77601 0.31625 0.25584
 O687 O 0.68440 0.28197 0.25155
 O688 O 0.67327 0.24889 0.23138
 O689 O 0.71177 0.24669 0.31939
 O690 O 0.74554 0.22000 0.32711
 O691 O 0.74807 0.21202 0.19335
 O692 O 0.71968 0.24496 0.18605
 O693 O 0.81027 0.24410 0.22352
 O694 O 0.81778 0.27193 0.25475
 O695 O 0.77815 0.18247 0.25698
 O696 O 0.74299 0.17557 0.28364
 O697 O 0.74539 0.18311 0.22334
 O698 O 0.71699 0.17683 0.25808
 O699 O 0.80860 0.21098 0.25615
 O700 O 0.81580 0.24648 0.28517
 O701 O 0.78136 0.24536 0.19363
 O702 O 0.74864 0.27302 0.18487
 O703 O 0.74579 0.28101 0.31960
 O704 O 0.77303 0.24702 0.32678
 O705 O 0.68276 0.24946 0.28967
 O706 O 0.67724 0.21896 0.25586
 O707 O 0.71365 0.31158 0.25543
 O708 O 0.74657 0.31631 0.22724
 Zr709 Zr 0.74638 0.29097 0.25679
 O710 O 0.76917 0.26901 0.23463
 Zr711 Zr 0.70263 0.24842 0.25660
 O712 O 0.72328 0.22505 0.23393
 Zr713 Zr 0.74501 0.24790 0.30009
 O714 O 0.76746 0.22418 0.27970
 Zr715 Zr 0.74787 0.24563 0.21258
 O716 O 0.72488 0.26936 0.23294
 Zr717 Zr 0.78998 0.24491 0.25626
 O718 O 0.76942 0.26903 0.27881
 Zr719 Zr 0.74569 0.20297 0.25616
 O720 O 0.72295 0.22446 0.27895
 O721 O 0.72296 0.27110 0.27935
 O722 O 0.76968 0.22210 0.23329
 C723 C 0.74738 0.30353 0.31269
 C724 C 0.69137 0.30456 0.25215
 C725 C 0.68942 0.24790 0.31221
 C726 C 0.74657 0.18960 0.20077
 C727 C 0.80371 0.24476 0.20093
 C728 C 0.80082 0.18866 0.25669
 H729 H 0.78001 0.27985 0.22491
 H730 H 0.77707 0.21382 0.29104
 H731 H 0.71250 0.28203 0.28935
 H732 H 0.71217 0.21525 0.22351
 H733 H 0.70758 0.25757 0.19096
 H734 H 0.67938 0.24158 0.21600
 H735 H 0.81304 0.23213 0.29598
 H736 H 0.78590 0.25854 0.32115
 H737 H 0.76016 0.28604 0.19005
 H738 H 0.73448 0.31039 0.21509
 H739 H 0.75549 0.17916 0.29624
 H740 H 0.73422 0.20698 0.32142
 H741 H 0.76988 0.33286 0.26021
 H742 H 0.81080 0.28693 0.26221
 H743 H 0.68084 0.20834 0.27016
 H744 H 0.70545 0.18033 0.24457
 C745 C 0.30163 0.08418 0.04859
 C746 C 0.29962 0.10088 0.06783
 C747 C 0.28083 0.09859 0.08498
 C748 C 0.26424 0.07893 0.08309
 C749 C 0.26607 0.06226 0.06370
 C750 C 0.28477 0.06466 0.04603
 N751 N 0.27823 0.11725 0.10322
 N752 N 0.26305 0.11552 0.12079
 C753 C 0.26016 0.13496 0.13819
 C754 C 0.24775 0.13027 0.16010
 C755 C 0.24504 0.14883 0.17756
 C756 C 0.25431 0.17257 0.17309
 C757 C 0.26626 0.17738 0.15081
 C758 C 0.26933 0.15869 0.13358
 H759 H 0.31637 0.08664 0.03553
 H760 H 0.31251 0.11598 0.06912
 H761 H 0.24932 0.07703 0.09598
 H762 H 0.25196 0.04839 0.06180
 H763 H 0.24046 0.11210 0.16379
 H764 H 0.23563 0.14464 0.19452
 H765 H 0.27367 0.19546 0.14691
 H766 H 0.27880 0.16281 0.11664
 C767 C 0.79872 0.58521 0.55107
 C768 C 0.79668 0.60223 0.57005
 C769 C 0.77611 0.60213 0.58527
 C770 C 0.75772 0.58439 0.58170
 C771 C 0.75960 0.56753 0.56250
 C772 C 0.78007 0.56792 0.54697
 N773 N 0.77375 0.62104 0.60326
 N774 N 0.75710 0.62063 0.61953
 C775 C 0.75445 0.64023 0.63674
 C776 C 0.74087 0.63621 0.65807
 C777 C 0.73860 0.65481 0.67551
 C778 C 0.74941 0.67796 0.67153
 C779 C 0.76239 0.68222 0.64974
 C780 C 0.76510 0.66342 0.63256
 H781 H 0.81448 0.58600 0.53906
 H782 H 0.81090 0.61588 0.57259
 H783 H 0.74154 0.58412 0.59313
 H784 H 0.74475 0.55473 0.55925
 H785 H 0.73245 0.61847 0.66137
 H786 H 0.72836 0.65112 0.69211
 H787 H 0.77098 0.69986 0.64629
 H788 H 0.77545 0.66700 0.61604
 C789 C 0.78633 0.95576 0.09059
 C790 C 0.78565 0.93634 0.10731
 C791 C 0.77019 0.91626 0.10347
 C792 C 0.75597 0.91530 0.08206
 C793 C 0.75658 0.93481 0.06523
 C794 C 0.77151 0.95560 0.06942
 N795 N 0.76835 0.89801 0.12235
 N796 N 0.75561 0.87851 0.12023
 C797 C 0.75348 0.86124 0.14002
 C798 C 0.74320 0.83807 0.13562
 C799 C 0.74112 0.82083 0.15457
 C800 C 0.74891 0.82667 0.17843
 C801 C 0.75880 0.85013 0.18288
 C802 C 0.76121 0.86719 0.16384
 H803 H 0.79843 0.97109 0.09438
 H804 H 0.79679 0.93724 0.12368
 H805 H 0.74369 0.90001 0.07882
 H806 H 0.74412 0.93428 0.04982
 H807 H 0.73705 0.83328 0.11739
 H808 H 0.73337 0.80293 0.15057
 H809 H 0.76513 0.85515 0.20099
 H810 H 0.76905 0.88505 0.16778
 C811 C 0.28665 0.45050 0.58648
 C812 C 0.28669 0.43117 0.60335
 C813 C 0.26885 0.41273 0.60221
 C814 C 0.25126 0.41343 0.58342
 C815 C 0.25105 0.43294 0.56664
 C816 C 0.26861 0.45178 0.56820
 N817 N 0.26819 0.39451 0.62118
 N818 N 0.25408 0.37588 0.62043
 C819 C 0.25297 0.35851 0.64019
 C820 C 0.24169 0.33572 0.63639
 C821 C 0.24046 0.31838 0.65531
 C822 C 0.25004 0.32383 0.67858
 C823 C 0.26094 0.34693 0.68250
 C824 C 0.26257 0.36405 0.66342
 H825 H 0.30021 0.46495 0.58816
 H826 H 0.30030 0.43087 0.61777
 H827 H 0.23717 0.39947 0.58228
 H828 H 0.23668 0.43385 0.55302
 H829 H 0.23409 0.33128 0.61862
 H830 H 0.23190 0.30076 0.65178
 H831 H 0.26862 0.35158 0.70017
 H832 H 0.27119 0.38164 0.66688
 C833 C 0.76675 0.06490 0.94344
 C834 C 0.76580 0.08616 0.92902
 C835 C 0.75161 0.08673 0.90775
 C836 C 0.73810 0.06577 0.90112
 C837 C 0.73890 0.04457 0.91555
 C838 C 0.75305 0.04380 0.93714
 N839 N 0.75181 0.10838 0.89274
 N840 N 0.74118 0.10876 0.87202
 C841 C 0.74136 0.12976 0.85620
 C842 C 0.73207 0.12709 0.83254
 C843 C 0.73304 0.14660 0.81599
 C844 C 0.74308 0.16938 0.82292
 C845 C 0.75177 0.17233 0.84698
 C846 C 0.75108 0.15257 0.86350
 H847 H 0.77893 0.06475 0.95908
 H848 H 0.77662 0.10205 0.93412
 H849 H 0.72695 0.06572 0.88473
 H850 H 0.72794 0.02891 0.91004
 H851 H 0.72449 0.10962 0.82677
 H852 H 0.72600 0.14380 0.79767
 H853 H 0.75966 0.18964 0.85279
 H854 H 0.75830 0.15504 0.88178
 C855 C 0.27355 0.56222 0.43861
 C856 C 0.27184 0.58371 0.42462
 C857 C 0.25352 0.58614 0.40688
 C858 C 0.23662 0.56689 0.40350
 C859 C 0.23817 0.54552 0.41765
 C860 C 0.25660 0.54305 0.43537
 N861 N 0.25290 0.60787 0.39202
 N862 N 0.23878 0.60951 0.37357
 C863 C 0.23814 0.63067 0.35799
 C864 C 0.22581 0.62887 0.33566
 C865 C 0.22618 0.64840 0.31909
 C866 C 0.23857 0.67033 0.32478
 C867 C 0.25016 0.67254 0.34764
 C868 C 0.25015 0.65273 0.36409
 H869 H 0.28815 0.56046 0.45191
 H870 H 0.28506 0.59831 0.42728
 H871 H 0.22230 0.56831 0.38988
 H872 H 0.22503 0.53087 0.41478
 H873 H 0.21644 0.61200 0.33082
 H874 H 0.21694 0.64626 0.30168
 H875 H 0.25990 0.68922 0.35241
 H876 H 0.25971 0.65453 0.38135
 C877 C 0.28244 0.93488 0.93843
 C878 C 0.28114 0.91999 0.91758
 C879 C 0.26300 0.90194 0.91553
 C880 C 0.24599 0.89902 0.93460
 C881 C 0.24709 0.91401 0.95529
 C882 C 0.26510 0.93250 0.95745
 N883 N 0.26249 0.88636 0.89436
 N884 N 0.24879 0.86743 0.89362
 C885 C 0.24768 0.85116 0.87308
 C886 C 0.23580 0.82858 0.87606
 C887 C 0.23497 0.81168 0.85693
 C888 C 0.24567 0.81723 0.83417
 C889 C 0.25700 0.84024 0.83087
 C890 C 0.25822 0.85705 0.85030
 H891 H 0.29748 0.94779 0.93995
 H892 H 0.29464 0.92216 0.90322
 H893 H 0.23177 0.88519 0.93351
 H894 H 0.23338 0.91148 0.96941
 H895 H 0.22751 0.82391 0.89348
 H896 H 0.22588 0.79421 0.85994
 H897 H 0.26539 0.84496 0.81352
 H898 H 0.26736 0.87452 0.84757
 C899 C 0.79146 0.43365 0.43989
 C900 C 0.78960 0.41923 0.41877
 C901 C 0.76902 0.40434 0.41495
 C902 C 0.75007 0.40431 0.43238
 C903 C 0.75177 0.41896 0.45327
 C904 C 0.77242 0.43380 0.45718
 N905 N 0.76798 0.38892 0.39371
 N906 N 0.75198 0.37199 0.39185
 C907 C 0.75039 0.35595 0.37118
 C908 C 0.73631 0.33460 0.37336
 C909 C 0.73521 0.31775 0.35419
 C910 C 0.74778 0.32226 0.33219
 C911 C 0.76124 0.34416 0.32960
 C912 C 0.76277 0.36082 0.34911
 H913 H 0.80772 0.44468 0.44280
 H914 H 0.80439 0.41930 0.40558
 H915 H 0.73396 0.39298 0.42986
 H916 H 0.73697 0.41870 0.46648
 H917 H 0.72661 0.33074 0.39023
 H918 H 0.72451 0.30112 0.35657
 H919 H 0.77110 0.34801 0.31283
 H920 H 0.77363 0.37736 0.34701
 C921 C 0.05411 0.23943 0.06651
 C922 C 0.06929 0.23786 0.08714
 C923 C 0.09143 0.25081 0.08801
 C924 C 0.09812 0.26560 0.06799
 C925 C 0.08292 0.26739 0.04751
 C926 C 0.06049 0.25451 0.04641
 N927 N 0.10699 0.24850 0.10909
 N928 N 0.12864 0.25723 0.10909
 C929 C 0.14492 0.25558 0.12961
 C930 C 0.16931 0.26264 0.12633
 C931 C 0.18596 0.26120 0.14566
 C932 C 0.17845 0.25297 0.16891
 C933 C 0.15380 0.24618 0.17232
 C934 C 0.13717 0.24732 0.15277
 H935 H 0.03772 0.22821 0.06601
 H936 H 0.06402 0.22613 0.10230
 H937 H 0.11508 0.27592 0.06818
 H938 H 0.08854 0.27944 0.03272
 H939 H 0.17548 0.26912 0.10861
 H940 H 0.20474 0.26672 0.14241
 H941 H 0.14747 0.23968 0.18998
 H942 H 0.11834 0.24187 0.15575
 C943 C 0.55375 0.73824 0.56533
 C944 C 0.56884 0.73714 0.58602
 C945 C 0.58756 0.75443 0.58934
 C946 C 0.59068 0.77326 0.57192
 C947 C 0.57537 0.77460 0.55146
 C948 C 0.55677 0.75711 0.54795
 N949 N 0.60353 0.75220 0.61008
 N950 N 0.62347 0.76426 0.61133
 C951 C 0.63998 0.76247 0.63163
 C952 C 0.66351 0.77226 0.62906
 C953 C 0.68047 0.77034 0.64806
 C954 C 0.67404 0.75897 0.67030
 C955 C 0.65019 0.74961 0.67312
 C956 C 0.63332 0.75114 0.65383
 H957 H 0.53986 0.72425 0.56274
 H958 H 0.56631 0.72245 0.59921
 H959 H 0.60497 0.78690 0.57408
 H960 H 0.57814 0.78921 0.53823
 H961 H 0.66882 0.78110 0.61208
 H962 H 0.69864 0.77789 0.64540
 H963 H 0.64477 0.74069 0.69003
 H964 H 0.61515 0.74355 0.65625
 C965 C 0.03837 0.77795 0.91771
 C966 C 0.05830 0.77743 0.90182
 C967 C 0.07691 0.76018 0.90502
 C968 C 0.07567 0.74356 0.92470
 C969 C 0.05556 0.74390 0.94059
 C970 C 0.03653 0.76111 0.93731
 N971 N 0.09600 0.75918 0.88717
 N972 N 0.11498 0.74588 0.88961
 C973 C 0.13306 0.74478 0.87068
 C974 C 0.15606 0.73474 0.87581
 C975 C 0.17408 0.73384 0.85764
 C976 C 0.16911 0.74254 0.83388
 C977 C 0.14584 0.75218 0.82869
 C978 C 0.12804 0.75344 0.84695
 H979 H 0.02430 0.79164 0.91463
 H980 H 0.05909 0.79031 0.88668
 H981 H 0.08973 0.72979 0.92726
 H982 H 0.05434 0.72985 0.95462
 H983 H 0.16012 0.72791 0.89400
 H984 H 0.19183 0.72624 0.86213
 H985 H 0.14151 0.75914 0.81061
 H986 H 0.11031 0.76110 0.84247
 C987 C 0.54273 0.28559 0.42014
 C988 C 0.56236 0.28548 0.40379
 C989 C 0.57891 0.26589 0.40366
 C990 C 0.57579 0.24637 0.42030
 C991 C 0.55591 0.24629 0.43643
 C992 C 0.53925 0.26594 0.43649
 N993 N 0.59790 0.26569 0.38566
 N994 N 0.61570 0.25066 0.38652
 C995 C 0.63392 0.25009 0.36772
 C996 C 0.65613 0.23816 0.37223
 C997 C 0.67428 0.23749 0.35421
 C998 C 0.67018 0.24826 0.33115
 C999 C 0.64769 0.25984 0.32652
 C1000 C 0.62977 0.26094 0.34472
 H1001 H 0.52989 0.30075 0.41968
 H1002 H 0.56451 0.30052 0.39094
 H1003 H 0.58822 0.23089 0.42031
 H1004 H 0.55319 0.23066 0.44846
 H1005 H 0.65948 0.22962 0.38984
 H1006 H 0.69143 0.22835 0.35821
 H1007 H 0.64410 0.26841 0.30896
 H1008 H 0.61263 0.27008 0.34075
 C1009 C 0.92715 0.76557 0.06469
 C1010 C 0.90578 0.76567 0.07872
 C1011 C 0.90173 0.74734 0.09626
 C1012 C 0.91902 0.72843 0.09921
 C1013 C 0.94021 0.72812 0.08496
 C1014 C 0.94448 0.74673 0.06765
 N1015 N 0.88062 0.74894 0.11164
 N1016 N 0.87855 0.73564 0.13070
 C1017 C 0.85808 0.73736 0.14686
 C1018 C 0.85990 0.72645 0.16995
 C1019 C 0.84117 0.72927 0.18701
 C1020 C 0.82003 0.74267 0.18102
 C1021 C 0.81775 0.75284 0.15747
 C1022 C 0.83680 0.75042 0.14053
 H1023 H 0.93033 0.78033 0.05172
 H1024 H 0.89268 0.78042 0.07642
 H1025 H 0.91626 0.71403 0.11266
 H1026 H 0.95341 0.71350 0.08758
 H1027 H 0.87620 0.71632 0.17496
 H1028 H 0.84326 0.72105 0.20498
 H1029 H 0.80163 0.76328 0.15248
 H1030 H 0.83503 0.75891 0.12268
 C1031 C 0.43250 0.27412 0.56842
 C1032 C 0.41121 0.27357 0.58258
 C1033 C 0.40677 0.25390 0.59854
 C1034 C 0.42369 0.23448 0.59991
 C1035 C 0.44478 0.23486 0.58552
 C1036 C 0.44932 0.25465 0.56964
 N1037 N 0.38547 0.25440 0.61375
 N1038 N 0.38292 0.23941 0.63146
 C1039 C 0.36214 0.23981 0.64731
 C1040 C 0.36358 0.22725 0.66960
 C1041 C 0.34449 0.22869 0.68644
 C1042 C 0.32335 0.24230 0.68095
 C1043 C 0.32142 0.25407 0.65813
 C1044 C 0.34085 0.25307 0.64147
 H1045 H 0.43591 0.28973 0.55654
 H1046 H 0.39840 0.28871 0.58151
 H1047 H 0.42064 0.21907 0.61212
 H1048 H 0.45762 0.21974 0.58678
 H1049 H 0.37989 0.21694 0.67422
 H1050 H 0.34630 0.21931 0.70386
 H1051 H 0.30531 0.26473 0.65357
 H1052 H 0.33935 0.26279 0.62422
 C1053 C 0.90561 0.27631 0.95903
 C1054 C 0.88937 0.27566 0.93935
 C1055 C 0.89199 0.25815 0.92089
 C1056 C 0.91106 0.24091 0.92245
 C1057 C 0.92722 0.24128 0.94242
 C1058 C 0.92504 0.25932 0.96086
 N1059 N 0.87447 0.25797 0.90138
 N1060 N 0.87720 0.24561 0.88180
 C1061 C 0.85881 0.24571 0.86302
 C1062 C 0.86441 0.23645 0.83979
 C1063 C 0.84683 0.23666 0.82112
 C1064 C 0.82315 0.24574 0.82557
 C1065 C 0.81751 0.25475 0.84901
 C1066 C 0.83520 0.25491 0.86749
 H1067 H 0.90315 0.29050 0.97272
 H1068 H 0.87465 0.28895 0.93843
 H1069 H 0.91308 0.22682 0.90862
 H1070 H 0.94083 0.22689 0.94384
 H1071 H 0.88250 0.22924 0.83609
 H1072 H 0.85167 0.22942 0.80331
 H1073 H 0.79947 0.26191 0.85302
 H1074 H 0.83034 0.26205 0.88533
 C1075 C 0.40569 0.77883 0.45570
 C1076 C 0.38958 0.77912 0.43587
 C1077 C 0.38962 0.75995 0.41885
 C1078 C 0.40608 0.74030 0.42186
 C1079 C 0.42197 0.73978 0.44199
 C1080 C 0.42199 0.75915 0.45900
 N1081 N 0.37203 0.76045 0.39942
 N1082 N 0.37322 0.74634 0.38089
 C1083 C 0.35476 0.74675 0.36225
 C1084 C 0.35947 0.73568 0.33962
 C1085 C 0.34170 0.73580 0.32116
 C1086 C 0.31867 0.74656 0.32530
 C1087 C 0.31391 0.75742 0.34813
 C1088 C 0.33184 0.75771 0.36636
 H1089 H 0.40520 0.79380 0.46876
 H1090 H 0.37688 0.79426 0.43384
 H1091 H 0.40619 0.72512 0.40907
 H1092 H 0.43397 0.72415 0.44453
 H1093 H 0.37700 0.72707 0.33624
 H1094 H 0.34581 0.72713 0.30381
 H1095 H 0.29636 0.76588 0.35182
 H1096 H 0.32769 0.76622 0.38377
 C1097 C 0.05999 0.06577 0.21709
 C1098 C 0.07367 0.08748 0.21849
 C1099 C 0.09175 0.09018 0.23643
 C1100 C 0.09578 0.07098 0.25328
 C1101 C 0.08198 0.04939 0.25201
 C1102 C 0.06397 0.04662 0.23393
 N1103 N 0.10642 0.11206 0.23668
 N1104 N 0.12487 0.11391 0.25076
 C1105 C 0.14054 0.13499 0.25116
 C1106 C 0.16261 0.13322 0.26390
 C1107 C 0.17940 0.15250 0.26333
 C1108 C 0.17419 0.17419 0.25032
 C1109 C 0.15156 0.17646 0.23832
 C1110 C 0.13487 0.15683 0.23852
 H1111 H 0.04637 0.06381 0.20281
 H1112 H 0.07050 0.10204 0.20531
 H1113 H 0.10967 0.07259 0.26731
 H1114 H 0.08537 0.03478 0.26509
 H1115 H 0.16711 0.11651 0.27374
 H1116 H 0.19662 0.15037 0.27292
 H1117 H 0.14719 0.19298 0.22811
 H1118 H 0.11780 0.15858 0.22862
 C1119 C 0.56200 0.56523 0.71847
 C1120 C 0.57515 0.58729 0.71943
 C1121 C 0.59266 0.59110 0.73773
 C1122 C 0.59675 0.57256 0.75529
 C1123 C 0.58349 0.55060 0.75445
 C1124 C 0.56594 0.54680 0.73611
 N1125 N 0.60664 0.61343 0.73768
 N1126 N 0.62445 0.61644 0.75237
 C1127 C 0.63945 0.63802 0.75252
 C1128 C 0.66116 0.63738 0.76597
 C1129 C 0.67745 0.65707 0.76511
 C1130 C 0.67207 0.67808 0.75110
 C1131 C 0.64973 0.67930 0.73843
 C1132 C 0.63356 0.65923 0.73892
 H1133 H 0.54875 0.56247 0.70398
 H1134 H 0.57195 0.60131 0.70569
 H1135 H 0.61024 0.57500 0.76960
 H1136 H 0.58686 0.53656 0.76814
 H1137 H 0.66582 0.62118 0.77656
 H1138 H 0.69448 0.65577 0.77519
 H1139 H 0.64528 0.69528 0.72744
 H1140 H 0.61676 0.66011 0.72846
 C1141 C 0.95372 0.08629 0.71018
 C1142 C 0.93369 0.10211 0.71080
 C1143 C 0.91567 0.09941 0.72870
 C1144 C 0.91779 0.08052 0.74613
 C1145 C 0.93803 0.06477 0.74576
 C1146 C 0.95625 0.06725 0.72759
 N1147 N 0.89620 0.11694 0.72938
 N1148 N 0.87730 0.11434 0.74273
 C1149 C 0.85879 0.13296 0.74348
 C1150 C 0.83603 0.12761 0.75399
 C1151 C 0.81776 0.14561 0.75494
 C1152 C 0.82224 0.16940 0.74581
 C1153 C 0.84519 0.17474 0.73548
 C1154 C 0.86323 0.15667 0.73416
 H1155 H 0.96724 0.08887 0.69589
 H1156 H 0.93229 0.11671 0.69735
 H1157 H 0.90426 0.07845 0.76047
 H1158 H 0.93993 0.05134 0.76031
 H1159 H 0.83242 0.10945 0.76132
 H1160 H 0.80030 0.14102 0.76316
 H1161 H 0.84915 0.19287 0.72822
 H1162 H 0.88073 0.16132 0.72610
 C1163 C 0.44710 0.58234 0.21540
 C1164 C 0.42667 0.59766 0.21445
 C1165 C 0.40981 0.59786 0.23370
 C1166 C 0.41346 0.58233 0.25399
 C1167 C 0.43415 0.56724 0.25513
 C1168 C 0.45109 0.56712 0.23579
 N1169 N 0.39008 0.61508 0.23280
 N1170 N 0.37194 0.61410 0.24736
 C1171 C 0.35322 0.63248 0.24680
 C1172 C 0.33095 0.62801 0.25866
 C1173 C 0.31263 0.64596 0.25878
 C1174 C 0.31663 0.66888 0.24749
 C1175 C 0.33905 0.67335 0.23573
 C1176 C 0.35712 0.65525 0.23520
 H1177 H 0.46012 0.58272 0.20045
 H1178 H 0.42412 0.60970 0.19884
 H1179 H 0.40080 0.58246 0.26923
 H1180 H 0.43723 0.55605 0.27126
 H1181 H 0.32779 0.61059 0.26777
 H1182 H 0.29557 0.64212 0.26814
 H1183 H 0.34259 0.69083 0.22683
 H1184 H 0.37428 0.65921 0.22609
 C1185 C 0.06529 0.94248 0.75647
 C1186 C 0.08619 0.92784 0.75948
 C1187 C 0.08804 0.90511 0.74766
 C1188 C 0.06877 0.89728 0.73252
 C1189 C 0.04803 0.91188 0.72936
 C1190 C 0.04592 0.93488 0.74111
 N1191 N 0.10921 0.88996 0.75156
 N1192 N 0.10981 0.86802 0.74348
 C1193 C 0.13010 0.85167 0.74659
 C1194 C 0.12705 0.82722 0.73945
 C1195 C 0.14599 0.81033 0.74226
 C1196 C 0.16868 0.81761 0.75206
 C1197 C 0.17193 0.84235 0.75894
 C1198 C 0.15268 0.85928 0.75638
 H1199 H 0.06399 0.95938 0.76685
 H1200 H 0.10073 0.93400 0.77146
 H1201 H 0.06970 0.87984 0.72305
 H1202 H 0.03384 0.90534 0.71715
 H1203 H 0.10977 0.82118 0.73181
 H1204 H 0.14286 0.79153 0.73655
 H1205 H 0.18917 0.84851 0.76657
 H1206 H 0.15544 0.87819 0.76193
 C1207 C 0.56309 0.44101 0.26542
 C1208 C 0.58443 0.42691 0.26728
 C1209 C 0.58926 0.40830 0.25025
 C1210 C 0.57269 0.40434 0.23093
 C1211 C 0.55155 0.41860 0.22891
 C1212 C 0.54652 0.43702 0.24614
 N1213 N 0.61046 0.39307 0.25334
 N1214 N 0.61316 0.37357 0.24079
 C1215 C 0.63363 0.35736 0.24334
 C1216 C 0.63234 0.33437 0.23207
 C1217 C 0.65124 0.31742 0.23486
 C1218 C 0.67213 0.32333 0.24868
 C1219 C 0.67383 0.34675 0.25944
 C1220 C 0.65456 0.36363 0.25700
 H1221 H 0.55933 0.45486 0.27914
 H1222 H 0.59694 0.43007 0.28233
 H1223 H 0.57598 0.39012 0.21749
 H1224 H 0.53896 0.41513 0.21399
 H1225 H 0.61635 0.32939 0.22145
 H1226 H 0.64950 0.29962 0.22616
 H1227 H 0.68971 0.35173 0.27022
 H1228 H 0.65595 0.38141 0.26577
 C1229 C 0.91028 0.95537 0.21131
 C1230 C 0.89396 0.93569 0.21259
 C1231 C 0.89894 0.91544 0.22750
 C1232 C 0.92110 0.91457 0.24052
 C1233 C 0.93758 0.93434 0.23928
 C1234 C 0.93222 0.95530 0.22495
 N1235 N 0.88040 0.89701 0.23016
 N1236 N 0.88323 0.87742 0.24264
 C1237 C 0.86355 0.86018 0.24556
 C1238 C 0.86827 0.83692 0.25550
 C1239 C 0.84931 0.81978 0.25833
 C1240 C 0.82519 0.82587 0.25164
 C1241 C 0.82048 0.84940 0.24205
 C1242 C 0.83946 0.86633 0.23891
 H1243 H 0.90559 0.97084 0.19970
 H1244 H 0.87698 0.93651 0.20239
 H1245 H 0.92523 0.89914 0.25235
 H1246 H 0.95370 0.93385 0.25081
 H1247 H 0.88671 0.83198 0.26082
 H1248 H 0.85352 0.80181 0.26580
 H1249 H 0.80216 0.85462 0.23654
 H1250 H 0.83526 0.88426 0.23136
 C1251 C 0.41678 0.45012 0.71173
 C1252 C 0.40035 0.43045 0.71237
 C1253 C 0.40216 0.41244 0.73060
 C1254 C 0.42120 0.41389 0.74787
 C1255 C 0.43756 0.43374 0.74738
 C1256 C 0.43529 0.45217 0.72945
 N1257 N 0.38349 0.39400 0.73208
 N1258 N 0.38469 0.37572 0.74662
 C1259 C 0.36506 0.35830 0.74850
 C1260 C 0.36916 0.33572 0.76014
 C1261 C 0.35028 0.31840 0.76213
 C1262 C 0.32681 0.32368 0.75298
 C1263 C 0.32264 0.34656 0.74171
 C1264 C 0.34163 0.36364 0.73932
 H1265 H 0.41456 0.46425 0.69790
 H1266 H 0.38571 0.42958 0.69903
 H1267 H 0.42285 0.40026 0.76225
 H1268 H 0.45138 0.43524 0.76151
 H1269 H 0.38709 0.33144 0.76742
 H1270 H 0.35401 0.30094 0.77096
 H1271 H 0.30481 0.35109 0.73433
 H1272 H 0.33794 0.38107 0.73044
 C1273 C 0.05443 0.27220 0.93885
 C1274 C 0.06928 0.27288 0.91793
 C1275 C 0.08934 0.25707 0.91576
 C1276 C 0.09419 0.24023 0.93467
 C1277 C 0.07928 0.23933 0.95541
 C1278 C 0.05897 0.25514 0.95784
 N1279 N 0.10490 0.25872 0.89462
 N1280 N 0.12533 0.24751 0.89392
 C1281 C 0.14169 0.24846 0.87344
 C1282 C 0.16520 0.23883 0.87636
 C1283 C 0.18201 0.23964 0.85716
 C1284 C 0.17551 0.24982 0.83438
 C1285 C 0.15168 0.25910 0.83125
 C1286 C 0.13491 0.25862 0.85073
 H1287 H 0.03988 0.28560 0.94049
 H1288 H 0.06551 0.28620 0.90367
 H1289 H 0.10953 0.22771 0.93346
 H1290 H 0.08342 0.22583 0.96942
 H1291 H 0.17059 0.23086 0.89372
 H1292 H 0.20011 0.23209 0.86013
 H1293 H 0.14616 0.26704 0.81391
 H1294 H 0.11674 0.26606 0.84804
 C1295 C 0.55388 0.77725 0.44064
 C1296 C 0.56892 0.77817 0.41989
 C1297 C 0.58688 0.76021 0.41611
 C1298 C 0.58920 0.74088 0.43310
 C1299 C 0.57392 0.73972 0.45360
 C1300 C 0.55612 0.75789 0.45760
 N1301 N 0.60292 0.76226 0.39538
 N1302 N 0.62247 0.74963 0.39399
 C1303 C 0.63907 0.75109 0.37371
 C1304 C 0.66221 0.74047 0.37620
 C1305 C 0.67918 0.74177 0.35715
 C1306 C 0.67315 0.75337 0.33492
 C1307 C 0.64970 0.76366 0.33220
 C1308 C 0.63282 0.76275 0.35156
 H1309 H 0.54067 0.79176 0.44363
 H1310 H 0.56701 0.79325 0.40705
 H1311 H 0.60288 0.72672 0.43059
 H1312 H 0.57612 0.72475 0.46652
 H1313 H 0.66720 0.73135 0.39313
 H1314 H 0.69698 0.73341 0.35974
 H1315 H 0.64455 0.77269 0.31528
 H1316 H 0.61495 0.77097 0.34919
 C1317 C 0.92808 0.77345 0.94268
 C1318 C 0.90703 0.77400 0.92811
 C1319 C 0.90602 0.76049 0.90638
 C1320 C 0.92643 0.74657 0.89920
 C1321 C 0.94737 0.74594 0.91370
 C1322 C 0.94839 0.75897 0.93593
 N1323 N 0.88436 0.76120 0.89166
 N1324 N 0.88365 0.74991 0.87132
 C1325 C 0.86289 0.74984 0.85549
 C1326 C 0.86547 0.73901 0.83251
 C1327 C 0.84616 0.73921 0.81594
 C1328 C 0.82369 0.75005 0.82221
 C1329 C 0.82081 0.76039 0.84561
 C1330 C 0.84040 0.76044 0.86216
 H1331 H 0.92861 0.78465 0.95906
 H1332 H 0.89156 0.78510 0.93365
 H1333 H 0.92620 0.73598 0.88244
 H1334 H 0.96249 0.73449 0.90787
 H1335 H 0.88271 0.73072 0.82730
 H1336 H 0.84887 0.73090 0.79814
 H1337 H 0.80371 0.76894 0.85083
 H1338 H 0.83807 0.76882 0.87996
 C1339 C 0.43167 0.28130 0.43919
 C1340 C 0.41043 0.28059 0.42489
 C1341 C 0.40693 0.26169 0.40788
 C1342 C 0.42482 0.24326 0.40549
 C1343 C 0.44588 0.24385 0.41988
 C1344 C 0.44943 0.26281 0.43687
 N1345 N 0.38556 0.26182 0.39270
 N1346 N 0.38349 0.24683 0.37497
 C1347 C 0.36287 0.24637 0.35891
 C1348 C 0.36463 0.23251 0.33750
 C1349 C 0.34565 0.23259 0.32050
 C1350 C 0.32429 0.24623 0.32488
 C1351 C 0.32208 0.25949 0.34683
 C1352 C 0.34140 0.25976 0.36370
 H1353 H 0.43429 0.29622 0.45204
 H1354 H 0.39686 0.29496 0.42681
 H1355 H 0.42258 0.22844 0.39247
 H1356 H 0.45945 0.22950 0.41781
 H1357 H 0.38107 0.22207 0.33371
 H1358 H 0.34773 0.22205 0.30381
 H1359 H 0.30581 0.27021 0.35053
 H1360 H 0.33967 0.27051 0.38026
 C1361 C 0.03762 0.72589 0.08494
 C1362 C 0.05708 0.72428 0.10136
 C1363 C 0.07378 0.74364 0.10349
 C1364 C 0.07077 0.76488 0.08908
 C1365 C 0.05092 0.76674 0.07300
 C1366 C 0.03435 0.74712 0.07064
 N1367 N 0.09296 0.74164 0.12114
 N1368 N 0.11198 0.75513 0.12044
 C1369 C 0.13042 0.75332 0.13892
 C1370 C 0.15405 0.76183 0.13387
 C1371 C 0.17243 0.75999 0.15156
 C1372 C 0.16721 0.75027 0.17486
 C1373 C 0.14336 0.74207 0.17999
 C1374 C 0.12517 0.74334 0.16209
 H1375 H 0.02482 0.71071 0.08363
 H1376 H 0.05914 0.70793 0.11253
 H1377 H 0.08330 0.78022 0.09077
 H1378 H 0.04829 0.78354 0.06265
 H1379 H 0.15828 0.76959 0.11609
 H1380 H 0.19063 0.76643 0.14710
 H1381 H 0.13883 0.73444 0.19776
 H1382 H 0.10694 0.73684 0.16643
 C1383 C 0.54179 0.23097 0.58476
 C1384 C 0.56152 0.22867 0.60078
 C1385 C 0.57920 0.24720 0.60224
 C1386 C 0.57696 0.26826 0.58743
 C1387 C 0.55688 0.27083 0.57171
 C1388 C 0.53922 0.25209 0.57015
 N1389 N 0.59848 0.24465 0.61976
 N1390 N 0.61792 0.25753 0.61898
 C1391 C 0.63638 0.25520 0.63743
 C1392 C 0.66011 0.26354 0.63254
 C1393 C 0.67843 0.26141 0.65029
 C1394 C 0.67308 0.25152 0.67350
 C1395 C 0.64915 0.24341 0.67843
 C1396 C 0.63101 0.24501 0.66048
 H1397 H 0.52820 0.21645 0.58406
 H1398 H 0.56298 0.21245 0.61224
 H1399 H 0.59027 0.28298 0.58856
 H1400 H 0.55489 0.28754 0.56107
 H1401 H 0.66445 0.27148 0.61487
 H1402 H 0.69668 0.26781 0.64597
 H1403 H 0.64449 0.23565 0.69611
 H1404 H 0.61272 0.23862 0.66473
 C1405 C 0.90984 0.28257 0.05269
 C1406 C 0.89394 0.28223 0.07271
 C1407 C 0.89545 0.26353 0.09027
 C1408 C 0.91347 0.24526 0.08784
 C1409 C 0.92923 0.24540 0.06760
 C1410 C 0.92746 0.26401 0.04977
 N1411 N 0.87753 0.26281 0.10941
 N1412 N 0.87907 0.24854 0.12785
 C1413 C 0.86010 0.24763 0.14599
 C1414 C 0.86480 0.23674 0.16877
 C1415 C 0.84655 0.23584 0.18677
 C1416 C 0.82309 0.24532 0.18199
 C1417 C 0.81832 0.25581 0.15894
 C1418 C 0.83668 0.25714 0.14119
 H1419 H 0.90799 0.29697 0.03909
 H1420 H 0.88006 0.29634 0.07431
 H1421 H 0.91481 0.23048 0.10108
 H1422 H 0.94231 0.23062 0.06546
 H1423 H 0.88271 0.22921 0.17266
 H1424 H 0.85071 0.22753 0.20432
 H1425 H 0.80047 0.26336 0.15475
 H1426 H 0.83250 0.26544 0.12365
 C1427 C 0.40499 0.77801 0.55199
 C1428 C 0.38905 0.77738 0.57196
 C1429 C 0.39073 0.75861 0.58943
 C1430 C 0.40884 0.74045 0.58684
 C1431 C 0.42462 0.74086 0.56661
 C1432 C 0.42282 0.75968 0.54900
 N1433 N 0.37303 0.75786 0.60876
 N1434 N 0.37494 0.74381 0.62734
 C1435 C 0.35624 0.74300 0.64577
 C1436 C 0.36135 0.73239 0.66859
 C1437 C 0.34341 0.73167 0.68691
 C1438 C 0.31986 0.74107 0.68243
 C1439 C 0.31468 0.75129 0.65935
 C1440 C 0.33273 0.75244 0.64127
 H1441 H 0.40311 0.79256 0.53854
 H1442 H 0.37510 0.79140 0.57368
 H1443 H 0.41030 0.72560 0.60000
 H1444 H 0.43787 0.72624 0.56439
 H1445 H 0.37934 0.72493 0.67227
 H1446 H 0.34788 0.72355 0.70447
 H1447 H 0.29675 0.75877 0.65538
 H1448 H 0.32825 0.76054 0.62371
 C1449 C 0.29886 0.08493 0.95508
 C1450 C 0.29599 0.10210 0.93632
 C1451 C 0.27593 0.10074 0.92057
 C1452 C 0.25881 0.08169 0.92348
 C1453 C 0.26150 0.06458 0.94243
 C1454 C 0.28163 0.06589 0.95855
 N1455 N 0.27287 0.11962 0.90259
 N1456 N 0.25669 0.11850 0.88589
 C1457 C 0.25371 0.13807 0.86862
 C1458 C 0.24076 0.13371 0.84697
 C1459 C 0.23862 0.15221 0.82930
 C1460 C 0.24897 0.17555 0.83334
 C1461 C 0.26118 0.18014 0.85549
 C1462 C 0.26372 0.16150 0.87290
 H1463 H 0.31461 0.08661 0.96703
 H1464 H 0.30928 0.11676 0.93424
 H1465 H 0.24291 0.08055 0.91170
 H1466 H 0.24710 0.05115 0.94522
 H1467 H 0.23283 0.11578 0.84355
 H1468 H 0.22895 0.14824 0.81245
 H1469 H 0.26939 0.19793 0.85904
 H1470 H 0.27358 0.16536 0.88966
 C1471 C 0.79759 0.58535 0.45291
 C1472 C 0.79508 0.60250 0.43404
 C1473 C 0.77408 0.60258 0.41941
 C1474 C 0.75574 0.58487 0.42344
 C1475 C 0.75811 0.56787 0.44252
 C1476 C 0.77900 0.56810 0.45748
 N1477 N 0.77131 0.62162 0.40155
 N1478 N 0.75411 0.62156 0.38587
 C1479 C 0.75124 0.64129 0.36876
 C1480 C 0.73705 0.63758 0.34779
 C1481 C 0.73483 0.65621 0.33028
 C1482 C 0.74632 0.67908 0.33387
 C1483 C 0.75979 0.68308 0.35539
 C1484 C 0.76243 0.66425 0.37261
 H1485 H 0.81367 0.58602 0.46448
 H1486 H 0.80927 0.61612 0.43113
 H1487 H 0.73925 0.58474 0.41245
 H1488 H 0.74331 0.55509 0.44615
 H1489 H 0.72820 0.62001 0.34473
 H1490 H 0.72423 0.65271 0.31391
 H1491 H 0.76890 0.70050 0.35854
 H1492 H 0.77325 0.66761 0.38887
 C1493 C 0.77607 0.06464 0.06413
 C1494 C 0.77492 0.08591 0.07845
 C1495 C 0.75860 0.08729 0.09815
 C1496 C 0.74306 0.06723 0.10314
 C1497 C 0.74404 0.04609 0.08870
 C1498 C 0.76055 0.04461 0.06910
 N1499 N 0.75855 0.10881 0.11327
 N1500 N 0.74639 0.10940 0.13312
 C1501 C 0.74604 0.13023 0.14906
 C1502 C 0.73524 0.12750 0.17207
 C1503 C 0.73532 0.14689 0.18870
 C1504 C 0.74592 0.16964 0.18246
 C1505 C 0.75623 0.17264 0.15905
 C1506 C 0.75647 0.15297 0.14248
 H1507 H 0.78916 0.06369 0.04927
 H1508 H 0.78706 0.10116 0.07449
 H1509 H 0.73025 0.06783 0.11824
 H1510 H 0.73198 0.03082 0.09287
 H1511 H 0.72709 0.11009 0.17728
 H1512 H 0.72702 0.14407 0.20650
 H1513 H 0.76457 0.18994 0.15380
 H1514 H 0.76485 0.15547 0.12469
 C1515 C 0.27499 0.56110 0.56482
 C1516 C 0.27394 0.58208 0.57956
 C1517 C 0.25659 0.58379 0.59833
 C1518 C 0.23990 0.56438 0.60191
 C1519 C 0.24074 0.54356 0.58699
 C1520 C 0.25827 0.54173 0.56831
 N1521 N 0.25666 0.60497 0.61394
 N1522 N 0.24404 0.60550 0.63350
 C1523 C 0.24381 0.62611 0.64977
 C1524 C 0.23301 0.62316 0.67276
 C1525 C 0.23314 0.64237 0.68962
 C1526 C 0.24377 0.66517 0.68361
 C1527 C 0.25410 0.66839 0.66024
 C1528 C 0.25432 0.64889 0.64346
 H1529 H 0.28895 0.55985 0.55080
 H1530 H 0.28699 0.59682 0.57670
 H1531 H 0.22629 0.56526 0.61628
 H1532 H 0.22779 0.52877 0.59009
 H1533 H 0.22480 0.60571 0.67777
 H1534 H 0.22485 0.63940 0.70740
 H1535 H 0.26246 0.68574 0.65516
 H1536 H 0.26268 0.65159 0.62570
 C1537 C 0.78328 0.95530 0.91632
 C1538 C 0.78401 0.93627 0.89921
 C1539 C 0.76744 0.91670 0.90069
 C1540 C 0.75046 0.91598 0.92005
 C1541 C 0.74957 0.93517 0.93711
 C1542 C 0.76581 0.95513 0.93519
 N1543 N 0.76740 0.89867 0.88158
 N1544 N 0.75430 0.87932 0.88251
 C1545 C 0.75367 0.86193 0.86282
 C1546 C 0.74291 0.83892 0.86679
 C1547 C 0.74189 0.82158 0.84796
 C1548 C 0.75123 0.82716 0.82459
 C1549 C 0.76173 0.85044 0.82052
 C1550 C 0.76312 0.86763 0.83953
 H1551 H 0.79583 0.97062 0.91440
 H1552 H 0.79714 0.93706 0.88438
 H1553 H 0.73737 0.90108 0.92150
 H1554 H 0.73568 0.93491 0.95125
 H1555 H 0.73544 0.83436 0.88460
 H1556 H 0.73358 0.80386 0.85165
 H1557 H 0.76920 0.85521 0.80276
 H1558 H 0.77136 0.88539 0.83596
 C1559 C 0.28588 0.45267 0.41508
 C1560 C 0.28633 0.43355 0.39803
 C1561 C 0.26903 0.41459 0.39915
 C1562 C 0.25149 0.41466 0.41801
 C1563 C 0.25087 0.43396 0.43496
 C1564 C 0.26797 0.45323 0.43353
 N1565 N 0.26897 0.39631 0.38025
 N1566 N 0.25542 0.37727 0.38114
 C1567 C 0.25485 0.35957 0.36171
 C1568 C 0.24360 0.33681 0.36582
 C1569 C 0.24271 0.31914 0.34728
 C1570 C 0.25265 0.32413 0.32403
 C1571 C 0.26363 0.34716 0.31980
 C1572 C 0.26489 0.36468 0.33853
 H1573 H 0.29909 0.46746 0.41347
 H1574 H 0.29990 0.43376 0.38358
 H1575 H 0.23780 0.40028 0.41915
 H1576 H 0.23657 0.43429 0.44869
 H1577 H 0.23568 0.33269 0.38354
 H1578 H 0.23404 0.30162 0.35109
 H1579 H 0.27157 0.35148 0.30213
 H1580 H 0.27353 0.38223 0.33485
 C1581 C 0.28621 0.92971 0.06230
 C1582 C 0.28471 0.91523 0.08344
 C1583 C 0.26321 0.90228 0.08886
 C1584 C 0.24299 0.90430 0.07305
 C1585 C 0.24434 0.91911 0.05217
 C1586 C 0.26591 0.93203 0.04668
 N1587 N 0.26251 0.88673 0.11006
 N1588 N 0.24579 0.87065 0.11282
 C1589 C 0.24469 0.85466 0.13362
 C1590 C 0.23045 0.83337 0.13203
 C1591 C 0.22993 0.81656 0.15134
 C1592 C 0.24317 0.82110 0.17290
 C1593 C 0.25678 0.84295 0.17491
 C1594 C 0.25779 0.85953 0.15525
 H1595 H 0.30318 0.93913 0.05809
 H1596 H 0.30047 0.91367 0.09536
 H1597 H 0.22617 0.89446 0.07685
 H1598 H 0.22858 0.92047 0.04021
 H1599 H 0.22021 0.82949 0.11550
 H1600 H 0.21919 0.79995 0.14940
 H1601 H 0.26717 0.84682 0.19135
 H1602 H 0.26878 0.87603 0.15690
 C1603 C 0.79227 0.43333 0.56440
 C1604 C 0.79055 0.41894 0.58562
 C1605 C 0.76988 0.40426 0.58978
 C1606 C 0.75071 0.40439 0.57259
 C1607 C 0.75227 0.41901 0.55161
 C1608 C 0.77300 0.43366 0.54738
 N1609 N 0.76896 0.38888 0.61110
 N1610 N 0.75290 0.37203 0.61320
 C1611 C 0.75144 0.35603 0.63396
 C1612 C 0.73752 0.33456 0.63191
 C1613 C 0.73664 0.31769 0.65114
 C1614 C 0.74922 0.32230 0.67308
 C1615 C 0.76248 0.34433 0.67555
 C1616 C 0.76383 0.36100 0.65598
 H1617 H 0.80859 0.44421 0.56124
 H1618 H 0.80551 0.41888 0.59861
 H1619 H 0.73453 0.39321 0.57537
 H1620 H 0.73730 0.41890 0.53861
 H1621 H 0.72782 0.33060 0.61508
 H1622 H 0.72616 0.30096 0.64882
 H1623 H 0.77238 0.34825 0.69228
 H1624 H 0.77457 0.37763 0.65798
 C1625 C 0.04594 0.08913 0.71228
 C1626 C 0.06493 0.10607 0.71491
 C1627 C 0.08266 0.10286 0.73300
 C1628 C 0.08168 0.08196 0.74814
 C1629 C 0.06256 0.06496 0.74565
 C1630 C 0.04418 0.06841 0.72781
 N1631 N 0.10071 0.12168 0.73618
 N1632 N 0.11856 0.11965 0.75098
 C1633 C 0.13591 0.13918 0.75405
 C1634 C 0.15821 0.13428 0.76561
 C1635 C 0.17595 0.15271 0.76773
 C1636 C 0.17140 0.17653 0.75872
 C1637 C 0.14862 0.18166 0.74796
 C1638 C 0.13109 0.16309 0.74545
 H1639 H 0.03249 0.09234 0.69807
 H1640 H 0.06558 0.12205 0.70305
 H1641 H 0.09513 0.07924 0.76244
 H1642 H 0.06143 0.04995 0.75867
 H1643 H 0.16208 0.11599 0.77246
 H1644 H 0.19329 0.14828 0.77625
 H1645 H 0.14466 0.19980 0.74077
 H1646 H 0.11385 0.16739 0.73667
 C1647 C 0.54374 0.58877 0.21933
 C1648 C 0.56246 0.60620 0.22069
 C1649 C 0.57855 0.60631 0.24059
 C1650 C 0.57596 0.58848 0.25910
 C1651 C 0.55699 0.57121 0.25792
 C1652 C 0.54071 0.57126 0.23802
 N1653 N 0.59672 0.62523 0.24195
 N1654 N 0.61391 0.62484 0.25765
 C1655 C 0.63159 0.64423 0.25908
 C1656 C 0.65357 0.64000 0.27148
 C1657 C 0.67163 0.65819 0.27221
 C1658 C 0.66769 0.68116 0.26102
 C1659 C 0.64525 0.68570 0.24934
 C1660 C 0.62741 0.66729 0.24815
 H1661 H 0.53121 0.58929 0.20397
 H1662 H 0.56426 0.61988 0.20636
 H1663 H 0.58809 0.58835 0.27477
 H1664 H 0.55462 0.55823 0.27280
 H1665 H 0.65693 0.62237 0.28008
 H1666 H 0.68872 0.65428 0.28147
 H1667 H 0.64180 0.70321 0.24051
 H1668 H 0.61041 0.67103 0.23868
 C1669 C 0.08826 0.95784 0.21092
 C1670 C 0.10464 0.93820 0.21186
 C1671 C 0.09960 0.91759 0.22628
 C1672 C 0.07754 0.91652 0.23945
 C1673 C 0.06109 0.93625 0.23864
 C1674 C 0.06625 0.95738 0.22446
 N1675 N 0.11773 0.89866 0.22799
 N1676 N 0.11421 0.87863 0.23956
 C1677 C 0.13300 0.86035 0.24159
 C1678 C 0.12707 0.83715 0.25101
 C1679 C 0.14498 0.81890 0.25303
 C1680 C 0.16930 0.82372 0.24600
 C1681 C 0.17528 0.84718 0.23690
 C1682 C 0.15728 0.86529 0.23458
 H1683 H 0.09286 0.97344 0.19943
 H1684 H 0.12154 0.93920 0.20155
 H1685 H 0.07339 0.90084 0.25097
 H1686 H 0.04503 0.93548 0.25022
 H1687 H 0.10847 0.83314 0.25657
 H1688 H 0.13979 0.80105 0.26018
 H1689 H 0.19380 0.85142 0.23120
 H1690 H 0.16237 0.88315 0.22739
 C1691 C 0.58835 0.45530 0.71112
 C1692 C 0.60507 0.43587 0.71132
 C1693 C 0.60326 0.41720 0.72889
 C1694 C 0.58425 0.41802 0.74623
 C1695 C 0.56769 0.43764 0.74625
 C1696 C 0.56959 0.45646 0.72867
 N1697 N 0.62152 0.39830 0.72934
 N1698 N 0.61952 0.37917 0.74266
 C1699 C 0.63828 0.36078 0.74361
 C1700 C 0.63300 0.33796 0.75425
 C1701 C 0.65088 0.31962 0.75541
 C1702 C 0.67459 0.32402 0.74637
 C1703 C 0.67998 0.34710 0.73601
 C1704 C 0.66193 0.36527 0.73446
 H1705 H 0.59032 0.46973 0.69755
 H1706 H 0.61968 0.43551 0.69793
 H1707 H 0.58263 0.40391 0.76015
 H1708 H 0.55375 0.43846 0.76031
 H1709 H 0.61489 0.33431 0.76147
 H1710 H 0.64622 0.30206 0.76359
 H1711 H 0.69803 0.35097 0.72877
 H1712 H 0.66650 0.38285 0.72630
 C1713 C 0.93492 0.06394 0.21962
 C1714 C 0.92041 0.08499 0.22171
 C1715 C 0.90231 0.08639 0.23978
 C1716 C 0.89914 0.06660 0.25611
 C1717 C 0.91384 0.04571 0.25423
 C1718 C 0.93186 0.04422 0.23600
 N1719 N 0.88698 0.10769 0.24083
 N1720 N 0.86790 0.10812 0.25416
 C1721 C 0.85204 0.12898 0.25539
 C1722 C 0.82919 0.12613 0.26652
 C1723 C 0.81266 0.14563 0.26710
 C1724 C 0.81893 0.16855 0.25692
 C1725 C 0.84219 0.17165 0.24635
 C1726 C 0.85859 0.15191 0.24539
 H1727 H 0.94847 0.06295 0.20519
 H1728 H 0.92293 0.10004 0.20894
 H1729 H 0.88529 0.06725 0.27026
 H1730 H 0.91113 0.03063 0.26695
 H1731 H 0.82400 0.10856 0.27434
 H1732 H 0.79493 0.14277 0.27552
 H1733 H 0.84742 0.18910 0.23829
 H1734 H 0.87625 0.15452 0.23680
 C1735 C 0.43553 0.56135 0.72158
 C1736 C 0.42051 0.58209 0.72316
 C1737 C 0.40262 0.58365 0.74142
 C1738 C 0.40014 0.56434 0.75842
 C1739 C 0.41537 0.54378 0.75706
 C1740 C 0.43323 0.54214 0.73867
 N1741 N 0.38682 0.60464 0.74203
 N1742 N 0.36779 0.60498 0.75543
 C1743 C 0.35153 0.62554 0.75633
 C1744 C 0.32874 0.62244 0.76752
 C1745 C 0.31191 0.64169 0.76796
 C1746 C 0.31780 0.66462 0.75758
 C1747 C 0.34097 0.66797 0.74688
 C1748 C 0.35768 0.64847 0.74606
 H1749 H 0.44890 0.56022 0.70698
 H1750 H 0.42249 0.59676 0.70987
 H1751 H 0.38646 0.56512 0.77273
 H1752 H 0.41320 0.52908 0.77031
 H1753 H 0.32386 0.60488 0.77556
 H1754 H 0.29426 0.63864 0.77649
 H1755 H 0.34592 0.68543 0.73867
 H1756 H 0.37528 0.65128 0.73741
 C1757 C 0.94053 0.93385 0.71789
 C1758 C 0.91914 0.91968 0.71823
 C1759 C 0.91375 0.90465 0.73836
 C1760 C 0.92996 0.90410 0.75836
 C1761 C 0.95115 0.91856 0.75819
 C1762 C 0.95651 0.93369 0.73804
 N1763 N 0.89202 0.88985 0.73792
 N1764 N 0.88846 0.87277 0.75349
 C1765 C 0.86704 0.85757 0.75333
 C1766 C 0.86742 0.83560 0.76664
 C1767 C 0.84749 0.81954 0.76589
 C1768 C 0.82653 0.82549 0.75222
 C1769 C 0.82571 0.84802 0.73960
 C1770 C 0.84597 0.86387 0.73991
 H1771 H 0.94458 0.94507 0.70199
 H1772 H 0.90691 0.92014 0.70264
 H1773 H 0.92622 0.89262 0.77414
 H1774 H 0.96335 0.91802 0.77382
 H1775 H 0.88348 0.83062 0.77714
 H1776 H 0.84849 0.80238 0.77597
 H1777 H 0.80976 0.85297 0.72891
 H1778 H 0.84524 0.88090 0.72963
 C1779 C 0.44015 0.43385 0.22334
 C1780 C 0.41927 0.41896 0.22308
 C1781 C 0.41459 0.40268 0.24241
 C1782 C 0.43102 0.40157 0.26220
 C1783 C 0.45171 0.41673 0.26265
 C1784 C 0.45633 0.43315 0.24333
 N1785 N 0.39329 0.38730 0.24141
 N1786 N 0.39035 0.36937 0.25614
 C1787 C 0.36928 0.35370 0.25544
 C1788 C 0.37013 0.33128 0.26796
 C1789 C 0.35045 0.31494 0.26684
 C1790 C 0.32926 0.32103 0.25357
 C1791 C 0.32803 0.34394 0.24166
 C1792 C 0.34803 0.36009 0.24237
 H1793 H 0.44366 0.44606 0.20804
 H1794 H 0.40686 0.41987 0.20765
 H1795 H 0.42782 0.38912 0.27736
 H1796 H 0.46407 0.41575 0.27812
 H1797 H 0.38635 0.32623 0.27819
 H1798 H 0.35178 0.29751 0.27640
 H1799 H 0.31191 0.34903 0.23130
 H1800 H 0.34692 0.37746 0.23271
   
