data_POSCAR
  _audit_creation_date              2014-09-24
  _audit_creation_method            'ToBaCCo'
  _symmetry_space_group_name_H-M    'P1'
  _symmetry_Int_Tables_number       1
  _symmetry_cell_setting            triclinic
  loop_
  _symmetry_equiv_pos_as_xyz
 x,y,z
_cell_length_a 61.4741
_cell_length_b 61.8786
_cell_length_c 62.0287
_cell_angle_alpha 90.554600
_cell_angle_beta 89.381500
_cell_angle_gamma 90.268200
loop_
  _atom_site_label
  _atom_site_type_symbol
  _atom_site_fract_x
  _atom_site_fract_y
  _atom_site_fract_z
C1 C 0.33995 1.36589 0.33829
 C2 C 0.35054 1.37139 0.31902
 C3 C 0.36801 1.35891 0.31086
 C4 C 0.37511 1.34114 0.32292
 C5 C 0.36453 1.33538 0.34226
 C6 C 0.34686 1.34782 0.34994
 C7 C 0.32238 1.37821 0.34597
 C8 C 0.31145 1.37284 0.36522
 C9 C 0.31838 1.35457 0.37672
 C10 C 0.33595 1.34210 0.36917
 C11 C 0.34258 1.32380 0.38045
 C12 C 0.36016 1.31128 0.37302
 C13 C 0.37109 1.31717 0.35384
 H14 H 0.34523 1.38577 0.31090
 H15 H 0.38863 1.33146 0.31704
 H16 H 0.31717 1.39208 0.33681
 H17 H 0.31007 1.34949 0.39126
 H18 H 0.33405 1.31925 0.39513
 H19 H 0.38423 1.30735 0.34749
 C20 C 0.33504 0.85695 0.83723
 C21 C 0.34054 0.86861 0.81878
 C22 C 0.35956 0.86293 0.80477
 C23 C 0.37210 0.84371 0.81275
 C24 C 0.36599 0.83268 0.83146
 C25 C 0.34763 0.83923 0.84365
 C26 C 0.31667 0.86299 0.84934
 C27 C 0.31023 0.85142 0.86783
 C28 C 0.32323 0.83414 0.87451
 C29 C 0.34171 0.82785 0.86250
 C30 C 0.35414 0.81012 0.86894
 C31 C 0.37252 0.80358 0.85685
 C32 C 0.37817 0.81486 0.83810
 H33 H 0.33067 0.88222 0.81409
 H34 H 0.38622 0.83840 0.80358
 H35 H 0.30790 0.87715 0.84437
 H36 H 0.31871 0.82522 0.88886
 H37 H 0.34903 0.80116 0.88303
 H38 H 0.39222 0.80975 0.82866
 C39 C 0.83461 1.35554 0.83023
 C40 C 0.84280 1.36222 0.81013
 C41 C 0.86358 1.35556 0.80281
 C42 C 0.87593 1.34219 0.81613
 C43 C 0.86779 1.33520 0.83605
 C44 C 0.84703 1.34182 0.84320
 C45 C 0.81415 1.36245 0.83752
 C46 C 0.80589 1.35612 0.85769
 C47 C 0.81815 1.34195 0.87044
 C48 C 0.83868 1.33464 0.86324
 C49 C 0.85105 1.32025 0.87558
 C50 C 0.87176 1.31353 0.86824
 C51 C 0.88009 1.32145 0.84875
 H52 H 0.83277 1.37264 0.80059
 H53 H 0.89195 1.33689 0.81085
 H54 H 0.80469 1.37315 0.82757
 H55 H 0.81172 1.33635 0.88572
 H56 H 0.84472 1.31454 0.89087
 H57 H 0.89604 1.31631 0.84314
 C58 C 0.83624 0.85725 0.32650
 C59 C 0.84713 0.86382 0.30763
 C60 C 0.86625 0.85323 0.30047
 C61 C 0.87415 0.83597 0.31266
 C62 C 0.86325 0.82911 0.33134
 C63 C 0.84427 0.83980 0.33840
 C64 C 0.81736 0.86789 0.33358
 C65 C 0.80644 0.86156 0.35250
 C66 C 0.81445 0.84393 0.36426
 C67 C 0.83331 0.83299 0.35730
 C68 C 0.84128 0.81517 0.36870
 C69 C 0.85989 0.80408 0.36130
 C70 C 0.87103 0.81153 0.34290
 H71 H 0.84045 0.87724 0.29895
 H72 H 0.88878 0.82757 0.30745
 H73 H 0.81118 0.88132 0.32439
 H74 H 0.80591 0.83833 0.37851
 H75 H 0.83283 0.80967 0.38307
 H76 H 0.88591 0.80374 0.33755
 C77 C 0.66358 0.63310 0.33148
 C78 C 0.65495 0.62582 0.31205
 C79 C 0.63675 0.63574 0.30303
 C80 C 0.62735 0.65376 0.31381
 C81 C 0.63624 0.66161 0.33332
 C82 C 0.65437 0.65106 0.34218
 C83 C 0.68141 0.62256 0.34029
 C84 C 0.69056 0.62987 0.35957
 C85 C 0.68141 0.64776 0.37040
 C86 C 0.66335 0.65837 0.36179
 C87 C 0.65420 0.67619 0.37247
 C88 C 0.63646 0.68718 0.36377
 C89 C 0.62742 0.67976 0.34417
 H90 H 0.66239 0.61200 0.30401
 H91 H 0.61354 0.66198 0.30706
 H92 H 0.68844 0.60872 0.33194
 H93 H 0.68802 0.65326 0.38562
 H94 H 0.66114 0.68177 0.38755
 H95 H 0.61342 0.68777 0.33754
 C96 C 0.66275 0.12894 0.83818
 C97 C 0.65053 0.11775 0.82282
 C98 C 0.63171 0.12679 0.81425
 C99 C 0.62454 0.14716 0.82183
 C100 C 0.63635 0.15841 0.83785
 C101 C 0.65575 0.14931 0.84573
 C102 C 0.68202 0.12003 0.84589
 C103 C 0.69484 0.13120 0.86100
 C104 C 0.68771 0.15160 0.86856
 C105 C 0.66826 0.16056 0.86110
 C106 C 0.66119 0.18067 0.86886
 C107 C 0.64163 0.18968 0.86184
 C108 C 0.62929 0.17856 0.84612
 H109 H 0.65602 0.10207 0.81703
 H110 H 0.60975 0.15404 0.81556
 H111 H 0.68718 0.10433 0.83985
 H112 H 0.69699 0.16083 0.88014
 H113 H 0.67082 0.18926 0.88076
 H114 H 0.61449 0.18561 0.84010
 C115 C 1.16210 0.63716 0.82989
 C116 C 1.14964 0.62964 0.81249
 C117 C 1.13174 0.64162 0.80527
 C118 C 1.12661 0.66130 0.81545
 C119 C 1.13877 0.66889 0.83292
 C120 C 1.15661 0.65682 0.84018
 C121 C 1.18007 0.62540 0.83705
 C122 C 1.19276 0.63292 0.85440
 C123 C 1.18702 0.65271 0.86451
 C124 C 1.16908 0.66458 0.85756
 C125 C 1.16344 0.68417 0.86774
 C126 C 1.14544 0.69603 0.86088
 C127 C 1.13339 0.68844 0.84318
 H128 H 1.15427 0.61478 0.80437
 H129 H 1.11294 0.67065 0.80983
 H130 H 1.18419 0.61029 0.82901
 H131 H 1.19625 0.65938 0.87770
 H132 H 1.17295 0.69013 0.88118
 H133 H 1.12004 0.69780 0.83700
 C134 C 1.17052 0.14155 0.33306
 C135 C 1.16345 0.12816 0.31612
 C136 C 1.14506 0.13345 0.30394
 C137 C 1.13387 0.15279 0.30901
 C138 C 1.14070 0.16626 0.32599
 C139 C 1.15907 0.16062 0.33807
 C140 C 1.18891 0.13610 0.34501
 C141 C 1.19630 0.14962 0.36196
 C142 C 1.18449 0.16852 0.36690
 C143 C 1.16603 0.17410 0.35512
 C144 C 1.15449 0.19306 0.36006
 C145 C 1.13594 0.19864 0.34825
 C146 C 1.12938 0.18531 0.33107
 H147 H 1.17237 0.11346 0.31241
 H148 H 1.11998 0.15788 0.29989
 H149 H 1.19698 0.12112 0.34098
 H150 H 1.18977 0.17906 0.37993
 H151 H 1.16032 0.20356 0.37282
 H152 H 1.11522 0.18967 0.32180
 C153 C 0.67372 1.35750 0.67495
 C154 C 0.66766 1.36226 0.69622
 C155 C 0.65069 1.35093 0.70627
 C156 C 0.64013 1.33402 0.69515
 C157 C 0.64651 1.32860 0.67394
 C158 C 0.66318 1.34065 0.66371
 C159 C 0.69009 1.36950 0.66473
 C160 C 0.69617 1.36513 0.64324
 C161 C 0.68574 1.34805 0.63213
 C162 C 0.66937 1.33584 0.64228
 C163 C 0.65927 1.31873 0.63133
 C164 C 0.64322 1.30615 0.64150
 C165 C 0.63661 1.31137 0.66275
 H166 H 0.67576 1.37529 0.70484
 H167 H 0.62724 1.32498 0.70307
 H168 H 0.69805 1.38246 0.67360
 H169 H 0.69034 1.34375 0.61580
 H170 H 0.66424 1.31488 0.61491
 H171 H 0.62373 1.30230 0.67058
 C172 C 0.66169 0.86421 1.16339
 C173 C 0.65157 0.87302 1.18189
 C174 C 0.63057 0.86608 1.18835
 C175 C 0.61991 0.85039 1.17572
 C176 C 0.62998 0.84129 1.15748
 C177 C 0.65100 0.84809 1.15124
 C178 C 0.68243 0.87124 1.15695
 C179 C 0.69263 0.86267 1.13842
 C180 C 0.68210 0.84614 1.12658
 C181 C 0.66133 0.83866 1.13299
 C182 C 0.65070 0.82185 1.12166
 C183 C 0.62971 0.81503 1.12809
 C184 C 0.61939 0.82516 1.14564
 H185 H 0.66034 0.88513 1.19099
 H186 H 0.60377 0.84484 1.18035
 H187 H 0.69060 0.88373 1.16625
 H188 H 0.69006 0.83886 1.11268
 H189 H 0.65857 0.81432 1.10781
 H190 H 0.60323 0.81991 1.15056
 C191 C 1.19125 1.33944 1.19552
 C192 C 1.18590 1.34641 1.21644
 C193 C 1.16644 1.33975 1.22624
 C194 C 1.15318 1.32446 1.21579
 C195 C 1.15867 1.31691 1.19505
 C196 C 1.17750 1.32485 1.18458
 C197 C 1.20948 1.34794 1.18502
 C198 C 1.21369 1.34334 1.16315
 C199 C 1.20015 1.32829 1.15227
 C200 C 1.18226 1.31868 1.16305
 C201 C 1.16863 1.30352 1.15262
 C202 C 1.15017 1.29500 1.16341
 C203 C 1.14520 1.30214 1.18440
 H204 H 1.19611 1.35823 1.22454
 H205 H 1.13835 1.31887 1.22358
 H206 H 1.21972 1.35936 1.19366
 H207 H 1.20332 1.32393 1.13561
 H208 H 1.17215 1.29878 1.13611
 H209 H 1.13078 1.29600 1.19257
 C210 C 1.15192 0.87111 0.64633
 C211 C 1.14539 0.87806 0.66710
 C212 C 1.12731 0.86842 0.67749
 C213 C 1.11604 0.85163 0.66705
 C214 C 1.12220 0.84465 0.64637
 C215 C 1.14003 0.85457 0.63586
 C216 C 1.17039 0.88002 0.63603
 C217 C 1.17685 0.87277 0.61521
 C218 C 1.16418 0.85696 0.60477
 C219 C 1.14617 0.84763 0.61500
 C220 C 1.13474 0.83082 0.60489
 C221 C 1.11763 0.82030 0.61561
 C222 C 1.11109 0.82757 0.63621
 H223 H 1.15469 0.89052 0.67524
 H224 H 1.10233 0.84396 0.67510
 H225 H 1.17952 0.89236 0.64447
 H226 H 1.16882 0.85123 0.58878
 H227 H 1.13978 0.82523 0.58898
 H228 H 1.09745 0.81997 0.64439
 C229 C 0.33085 0.63915 0.66701
 C230 C 0.33875 0.62791 0.68482
 C231 C 0.35717 0.63528 0.69601
 C232 C 0.36798 0.65411 0.68884
 C233 C 0.36036 0.66550 0.67092
 C234 C 0.34172 0.65799 0.66000
 C235 C 0.31227 0.63181 0.65609
 C236 C 0.30430 0.64317 0.63826
 C237 C 0.31539 0.66176 0.63130
 C238 C 0.33395 0.66928 0.64203
 C239 C 0.34479 0.68797 0.63504
 C240 C 0.36357 0.69549 0.64559
 C241 C 0.37110 0.68425 0.66365
 H242 H 0.33040 0.61340 0.69014
 H243 H 0.38252 0.65981 0.69678
 H244 H 0.30439 0.61707 0.66133
 H245 H 0.30944 0.67049 0.61749
 H246 H 0.33823 0.69680 0.62164
 H247 H 0.38542 0.69008 0.67198
 C248 C 0.33814 0.13479 1.16517
 C249 C 0.34524 0.12610 1.18465
 C250 C 0.36114 0.13671 1.19715
 C251 C 0.36951 0.15676 1.18990
 C252 C 0.36264 0.16559 1.17036
 C253 C 0.34711 0.15443 1.15784
 C254 C 0.32209 0.12422 1.15294
 C255 C 0.31503 0.13309 1.13342
 C256 C 0.32462 0.15220 1.12591
 C257 C 0.34040 0.16302 1.13804
 C258 C 0.34924 0.18253 1.13080
 C259 C 0.36453 0.19386 1.14323
 C260 C 0.37100 0.18547 1.16310
 H261 H 0.33837 0.11087 1.19005
 H262 H 0.38126 0.16580 1.19918
 H263 H 0.31532 0.10909 1.15859
 H264 H 0.31930 0.15901 1.11081
 H265 H 0.34371 0.18923 1.11574
 H266 H 0.38273 0.19431 1.17274
 C267 C 0.84051 0.63937 1.16214
 C268 C 0.85093 0.62987 1.17990
 C269 C 0.87173 0.63718 1.18632
 C270 C 0.88198 0.65378 1.17482
 C271 C 0.87171 0.66368 1.15760
 C272 C 0.85093 0.65659 1.15120
 C273 C 0.81990 0.63217 1.15510
 C274 C 0.80965 0.64226 1.13758
 C275 C 0.82008 0.65966 1.12736
 C276 C 0.84061 0.66682 1.13388
 C277 C 0.85096 0.68413 1.12334
 C278 C 0.87160 0.69138 1.12995
 C279 C 0.88192 0.68082 1.14688
 H280 H 0.84306 0.61672 1.18839
 H281 H 0.89797 0.65939 1.17966
 H282 H 0.81179 0.61909 1.16348
 H283 H 0.81220 0.66757 1.11402
 H284 H 0.84294 0.69164 1.10993
 H285 H 0.89786 0.68627 1.15202
 C286 C 0.83737 0.13444 0.66302
 C287 C 0.84573 0.12427 0.68130
 C288 C 0.86377 0.13297 0.69228
 C289 C 0.87384 0.15179 0.68410
 C290 C 0.86570 0.16205 0.66586
 C291 C 0.84738 0.15342 0.65532
 C292 C 0.81892 0.12610 0.65257
 C293 C 0.81022 0.13664 0.63449
 C294 C 0.82047 0.15557 0.62705
 C295 C 0.83895 0.16395 0.63721
 C296 C 0.84894 0.18287 0.62965
 C297 C 0.86742 0.19139 0.63993
 C298 C 0.87557 0.18096 0.65810
 H299 H 0.83787 0.10973 0.68723
 H300 H 0.88823 0.15857 0.69142
 H301 H 0.81131 0.11176 0.65907
 H302 H 0.81402 0.16393 0.61322
 H303 H 0.84191 0.19113 0.61611
 H304 H 0.88965 0.18763 0.66623
 C305 C 1.35698 0.33200 0.66722
 C306 C 1.36899 0.33953 0.68487
 C307 C 1.36202 0.35744 0.69724
 C308 C 1.34258 0.36791 0.69139
 C309 C 1.33051 0.36064 0.67362
 C310 C 1.33771 0.34259 0.66153
 C311 C 1.36401 0.31393 0.65531
 C312 C 1.35182 0.30589 0.63776
 C313 C 1.33267 0.31682 0.63212
 C314 C 1.32557 0.33504 0.64382
 C315 C 1.30641 0.34573 0.63816
 C316 C 1.29929 0.36403 0.64990
 C317 C 1.31130 0.37116 0.66776
 H318 H 1.38383 0.33122 0.68911
 H319 H 1.33645 0.38163 0.70041
 H320 H 1.37907 0.30654 0.66000
 H321 H 1.32312 0.31104 0.61861
 H322 H 1.29694 0.33943 0.62489
 H323 H 1.30575 0.38508 0.67700
 C324 C 1.36246 0.84289 1.16807
 C325 C 1.37216 0.85637 1.18366
 C326 C 1.36090 0.87438 1.19210
 C327 C 1.34000 0.87889 1.18467
 C328 C 1.33013 0.86555 1.16926
 C329 C 1.34137 0.84752 1.16078
 C330 C 1.37350 0.82482 1.15979
 C331 C 1.36387 0.81102 1.14435
 C332 C 1.34272 0.81597 1.13702
 C333 C 1.33148 0.83415 1.14508
 C334 C 1.31042 0.83916 1.13789
 C335 C 1.29919 0.85709 1.14660
 C336 C 1.30911 0.87001 1.16233
 H337 H 1.38852 0.85294 1.18889
 H338 H 1.33126 0.89273 1.19115
 H339 H 1.38969 0.82138 1.16560
 H340 H 1.33467 0.80593 1.12519
 H341 H 1.30263 0.82895 1.12594
 H342 H 1.30047 0.88383 1.16901
 C343 C 0.85276 0.33063 1.17504
 C344 C 0.85940 0.34388 1.19225
 C345 C 0.84726 0.36224 1.19829
 C346 C 0.82807 0.36691 1.18725
 C347 C 0.82131 0.35387 1.16993
 C348 C 0.83369 0.33565 1.16378
 C349 C 0.86495 0.31243 1.16897
 C350 C 0.85851 0.29900 1.15170
 C351 C 0.83924 0.30415 1.14061
 C352 C 0.82691 0.32238 1.14650
 C353 C 0.80793 0.32760 1.13529
 C354 C 0.79575 0.34597 1.14101
 C355 C 0.80237 0.35881 1.15864
 H356 H 0.87379 0.33956 1.20111
 H357 H 0.81856 0.38092 1.19199
 H358 H 0.87963 0.30877 1.17775
 H359 H 0.83347 0.29431 1.12739
 H360 H 0.80273 0.31750 1.12190
 H361 H 0.79273 0.37250 1.16393
 C362 C 0.86498 0.83915 0.65780
 C363 C 0.87748 0.84671 0.67512
 C364 C 0.87112 0.86509 0.68700
 C365 C 0.85177 0.87577 0.68159
 C366 C 0.83915 0.86845 0.66427
 C367 C 0.84579 0.85010 0.65229
 C368 C 0.87132 0.82074 0.64599
 C369 C 0.85856 0.81297 0.62883
 C370 C 0.83967 0.82416 0.62325
 C371 C 0.83312 0.84258 0.63493
 C372 C 0.81395 0.85342 0.62966
 C373 C 0.80730 0.87185 0.64145
 C374 C 0.81989 0.87909 0.65885
 H375 H 0.89222 0.83828 0.67940
 H376 H 0.84615 0.88947 0.69105
 H377 H 0.88634 0.81274 0.65004
 H378 H 0.82988 0.81831 0.60995
 H379 H 0.80405 0.84705 0.61674
 H380 H 0.81472 0.89314 0.66811
 C381 C 0.63212 0.66787 0.66508
 C382 C 0.62141 0.66181 0.68426
 C383 C 0.62872 0.64412 0.69625
 C384 C 0.64728 0.63278 0.68911
 C385 C 0.65810 0.63856 0.67001
 C386 C 0.65048 0.65610 0.65790
 C387 C 0.62481 0.68548 0.65294
 C388 C 0.63574 0.69146 0.63376
 C389 C 0.65387 0.67947 0.62679
 C390 C 0.66135 0.66195 0.63870
 C391 C 0.67968 0.65032 0.63173
 C392 C 0.68726 0.63269 0.64364
 C393 C 0.67650 0.62709 0.66287
 H394 H 0.60729 0.67079 0.68984
 H395 H 0.65368 0.61968 0.69856
 H396 H 0.61049 0.69413 0.65837
 H397 H 0.66231 0.68393 0.61203
 H398 H 0.68823 0.65545 0.61731
 H399 H 0.68240 0.61364 0.67222
 C400 C 0.63796 1.16193 1.16325
 C401 C 0.63127 1.15250 1.18291
 C402 C 0.64243 1.13447 1.19116
 C403 C 0.66041 1.12619 1.17972
 C404 C 0.66741 1.13544 1.16037
 C405 C 0.65604 1.15316 1.15198
 C406 C 0.62691 1.17978 1.15449
 C407 C 0.63368 1.18860 1.13449
 C408 C 0.65149 1.17932 1.12357
 C409 C 0.66274 1.16200 1.13216
 C410 C 0.68074 1.15349 1.12110
 C411 C 0.69251 1.13635 1.12965
 C412 C 0.68560 1.12713 1.14921
 H413 H 0.61717 1.15890 1.19136
 H414 H 0.66909 1.11242 1.18598
 H415 H 0.61303 1.18636 1.16314
 H416 H 0.65693 1.18583 1.10822
 H417 H 0.68591 1.16050 1.10591
 H418 H 0.69405 1.11337 1.15568
 C419 C 0.12145 0.66091 1.15592
 C420 C 0.11393 0.65195 1.17516
 C421 C 0.12595 0.63619 1.18593
 C422 C 0.14594 0.62918 1.17673
 C423 C 0.15363 0.63794 1.15711
 C424 C 0.14123 0.65389 1.14674
 C425 C 0.10943 0.67705 1.14590
 C426 C 0.11679 0.68651 1.12667
 C427 C 0.13644 0.67913 1.11727
 C428 C 0.14861 0.66294 1.12722
 C429 C 0.16821 0.65590 1.11800
 C430 C 0.18081 0.64009 1.12796
 C431 C 0.17343 0.63110 1.14761
 H432 H 0.09859 0.65756 1.18195
 H433 H 0.15547 0.61688 1.18445
 H434 H 0.09434 0.68248 1.15336
 H435 H 0.14283 0.68613 1.10261
 H436 H 0.17380 0.66292 1.10295
 H437 H 0.18271 0.61867 1.15540
 C438 C 0.15350 1.19193 0.68243
 C439 C 0.14907 1.18581 0.70362
 C440 C 0.15703 1.16641 0.71185
 C441 C 0.17160 1.15402 0.69906
 C442 C 0.17734 1.16071 0.67806
 C443 C 0.16757 1.17937 0.66942
 C444 C 0.14305 1.20997 0.67419
 C445 C 0.14511 1.21622 0.65116
 C446 C 0.16112 1.20253 0.63853
 C447 C 0.17179 1.18508 0.64782
 C448 C 0.18655 1.17298 0.63543
 C449 C 0.19736 1.15527 0.64414
 C450 C 0.19238 1.14887 0.66540
 H451 H 0.13801 1.19561 0.71333
 H452 H 0.17868 1.13939 0.70525
 H453 H 0.13202 1.21924 0.68439
 H454 H 0.16401 1.20631 0.62171
 H455 H 0.18998 1.17762 0.61891
 H456 H 0.19990 1.13465 0.67202
 C457 C 1.36460 0.66610 0.33863
 C458 C 1.37544 0.65930 0.31978
 C459 C 1.36837 0.64100 0.30811
 C460 C 1.35019 0.62930 0.31600
 C461 C 1.33938 0.63580 0.33500
 C462 C 1.34660 0.65427 0.34636
 C463 C 1.37142 0.68476 0.34968
 C464 C 1.36026 0.69203 0.36839
 C465 C 1.34269 0.67966 0.37629
 C466 C 1.33570 0.66099 0.36535
 C467 C 1.31770 0.64919 0.37292
 C468 C 1.31047 0.63065 0.36174
 C469 C 1.32131 0.62419 0.34273
 H470 H 1.38932 0.66856 0.31399
 H471 H 1.34415 0.61509 0.30777
 H472 H 1.38559 0.69318 0.34358
 H473 H 1.33406 0.68485 0.39078
 H474 H 1.30906 0.65494 0.38712
 H475 H 1.31564 0.61004 0.33396
 C476 C 1.37678 1.15269 0.85130
 C477 C 1.38754 1.14709 0.83197
 C478 C 1.38209 1.12802 0.82078
 C479 C 1.36626 1.11404 0.82955
 C480 C 1.35545 1.11937 0.84886
 C481 C 1.36074 1.13874 0.85981
 C482 C 1.38149 1.17225 0.86196
 C483 C 1.37020 1.17820 0.88108
 C484 C 1.35472 1.16377 0.88969
 C485 C 1.34974 1.14430 0.87911
 C486 C 1.33338 1.13067 0.88718
 C487 C 1.32783 1.11144 0.87620
 C488 C 1.33904 1.10588 0.85713
 H489 H 1.39980 1.15785 0.82530
 H490 H 1.36237 1.09892 0.82152
 H491 H 1.39409 1.18246 0.85523
 H492 H 1.34599 1.16800 0.90442
 H493 H 1.32443 1.13568 0.90147
 H494 H 1.33466 1.09120 0.84848
 C495 C 0.86622 0.66466 0.84360
 C496 C 0.87619 0.65463 0.82577
 C497 C 0.86652 0.63667 0.81565
 C498 C 0.84682 0.62827 0.82399
 C499 C 0.83671 0.63800 0.84206
 C500 C 0.84643 0.65633 0.85178
 C501 C 0.87562 0.68304 0.85323
 C502 C 0.86536 0.69324 0.87095
 C503 C 0.84592 0.68464 0.87923
 C504 C 0.83632 0.66644 0.86967
 C505 C 0.81660 0.65840 0.87766
 C506 C 0.80685 0.64014 0.86831
 C507 C 0.81696 0.62990 0.85048
 H508 H 0.89137 0.66110 0.81944
 H509 H 0.83945 0.61409 0.81674
 H510 H 0.89094 0.68919 0.84702
 H511 H 0.83801 0.69245 0.89293
 H512 H 0.80879 0.66635 0.89133
 H513 H 0.80930 0.61604 0.84287
 C514 C 0.87029 1.15870 0.34202
 C515 C 0.88002 1.15110 0.32292
 C516 C 0.87297 1.13180 0.31297
 C517 C 0.85565 1.12008 0.32261
 C518 C 0.84573 1.12752 0.34183
 C519 C 0.85316 1.14685 0.35157
 C520 C 0.87732 1.17811 0.35163
 C521 C 0.86726 1.18590 0.37063
 C522 C 0.85047 1.17385 0.38019
 C523 C 0.84327 1.15452 0.37074
 C524 C 0.82602 1.14301 0.38003
 C525 C 0.81848 1.12368 0.37059
 C526 C 0.82831 1.11612 0.35138
 H527 H 0.89318 1.16040 0.31572
 H528 H 0.84945 1.10542 0.31530
 H529 H 0.89075 1.18690 0.34438
 H530 H 0.84274 1.17978 0.39488
 H531 H 0.81806 1.14965 0.39425
 H532 H 0.82234 1.10138 0.34387
 C533 C 0.62729 0.34729 0.33993
 C534 C 0.61790 0.35719 0.32196
 C535 C 0.62430 0.37824 0.31578
 C536 C 0.63981 0.38927 0.32826
 C537 C 0.64954 0.37943 0.34589
 C538 C 0.64344 0.35830 0.35174
 C539 C 0.62095 0.32642 0.34612
 C540 C 0.63041 0.31636 0.36393
 C541 C 0.64708 0.32722 0.37523
 C542 C 0.65372 0.34812 0.36919
 C543 C 0.67064 0.35899 0.38004
 C544 C 0.67678 0.38006 0.37398
 C545 C 0.66578 0.39029 0.35733
 H546 H 0.60584 0.34821 0.31300
 H547 H 0.64490 0.40548 0.32386
 H548 H 0.60840 0.31801 0.33714
 H549 H 0.65518 0.31942 0.38844
 H550 H 0.67892 0.35119 0.39317
 H551 H 0.67057 0.40651 0.35267
 C552 C 0.64280 0.82931 0.82507
 C553 C 0.63512 0.84007 0.80682
 C554 C 0.64577 0.85873 0.79911
 C555 C 0.66439 0.86633 0.80980
 C556 C 0.67225 0.85579 0.82808
 C557 C 0.66140 0.83721 0.83575
 C558 C 0.63231 0.81060 0.83262
 C559 C 0.63998 0.79966 0.85077
 C560 C 0.65869 0.80759 0.86124
 C561 C 0.66939 0.82629 0.85387
 C562 C 0.68813 0.83408 0.86419
 C563 C 0.69898 0.85271 0.85682
 C564 C 0.69096 0.86340 0.83860
 H565 H 0.62120 0.83346 0.79848
 H566 H 0.67280 0.88056 0.80386
 H567 H 0.61806 0.80451 0.82434
 H568 H 0.66537 0.79910 0.87479
 H569 H 0.69432 0.82563 0.87806
 H570 H 0.69942 0.87731 0.83215
 C571 C 0.13823 0.33536 0.82698
 C572 C 0.13051 0.34209 0.80689
 C573 C 0.14027 0.35972 0.79633
 C574 C 0.15773 0.37054 0.80595
 C575 C 0.16538 0.36418 0.82603
 C576 C 0.15580 0.34640 0.83659
 C577 C 0.12869 0.31776 0.83756
 C578 C 0.13644 0.31072 0.85758
 C579 C 0.15406 0.32197 0.86711
 C580 C 0.16376 0.33976 0.85672
 C581 C 0.18121 0.35114 0.86614
 C582 C 0.19057 0.36907 0.85561
 C583 C 0.18247 0.37544 0.83567
 H584 H 0.11724 0.33336 0.79937
 H585 H 0.16525 0.38417 0.79784
 H586 H 0.11516 0.30940 0.83001
 H587 H 0.16022 0.31738 0.88264
 H588 H 0.18712 0.34630 0.88175
 H589 H 0.18968 0.38920 0.82751
 C590 C 0.14243 0.82240 0.32209
 C591 C 0.13501 0.82965 0.30227
 C592 C 0.14346 0.84850 0.29285
 C593 C 0.16038 0.85983 0.30351
 C594 C 0.16836 0.85241 0.32342
 C595 C 0.15902 0.83376 0.33281
 C596 C 0.13320 0.80393 0.33135
 C597 C 0.13993 0.79658 0.35155
 C598 C 0.15666 0.80796 0.36225
 C599 C 0.16624 0.82639 0.35293
 C600 C 0.18299 0.83750 0.36346
 C601 C 0.19292 0.85574 0.35421
 C602 C 0.18542 0.86326 0.33418
 H603 H 0.12215 0.82066 0.29429
 H604 H 0.16758 0.87414 0.29648
 H605 H 0.12041 0.79536 0.32282
 H606 H 0.16267 0.80255 0.37759
 H607 H 0.18857 0.83174 0.37890
 H608 H 0.19250 0.87761 0.32709
 O609 O 0.98511 0.93504 0.88074
 O610 O 0.98518 0.91142 0.85389
 C611 C 0.97790 0.92859 0.86267
 C612 C 0.96042 0.94095 0.85222
 C613 C 0.95331 0.93554 0.83138
 H614 H 0.96153 0.92285 0.82242
 O615 O 1.03071 1.08869 0.89659
 O616 O 1.03216 1.11532 0.87325
 C617 C 1.03906 1.09723 0.87987
 C618 C 1.05730 1.08605 0.86855
 C619 C 1.06631 1.09407 0.84918
 H620 H 1.05944 1.10830 0.84194
 O621 O 0.89758 0.98819 0.91516
 O622 O 0.87279 0.99085 0.88991
 C623 C 0.87997 0.98172 0.90666
 C624 C 0.86808 0.96309 0.91613
 C625 C 0.84810 0.95607 0.90769
 H626 H 0.84094 0.96473 0.89445
 O627 O 1.11433 1.02601 0.92471
 O628 O 1.14144 1.02763 0.90117
 C629 C 1.13282 1.03335 0.91901
 C630 C 1.14425 1.04887 0.93320
 C631 C 1.16651 1.05315 0.93012
 H632 H 1.17530 1.04421 0.91780
 O633 O 0.92536 0.89927 0.96603
 O634 O 0.90039 0.87372 0.96323
 C635 C 0.91826 0.88216 0.95704
 C636 C 0.93063 0.87225 0.93889
 C637 C 0.92504 0.85159 0.93109
 H638 H 0.91230 0.84256 0.93916
 O639 O 1.08433 1.11047 0.98701
 O640 O 1.11081 1.13450 0.98940
 C641 C 1.09314 1.12806 0.98100
 C642 C 1.08306 1.14081 0.96364
 C643 C 1.09227 1.16055 0.95714
 H644 H 1.10635 1.16691 0.96548
 O645 O 0.92904 1.03266 0.89085
 O646 O 0.90433 1.03547 0.86553
 C647 C 0.92202 1.04177 0.87405
 C648 C 0.93439 1.06004 0.86450
 C649 C 0.92767 1.06923 0.84506
 H650 H 0.91339 1.06277 0.83724
 O651 O 1.08591 0.98777 0.88916
 O652 O 1.11265 0.98972 0.86525
 C653 C 1.09440 0.98206 0.87123
 C654 C 1.08304 0.96593 0.85758
 C655 C 1.09096 0.96037 0.83695
 H656 H 1.10528 0.96846 0.83057
 O657 O 1.02581 0.90324 0.90919
 O658 O 1.02599 0.87939 0.88252
 C659 C 1.03279 0.88578 0.90079
 C660 C 1.04904 0.87284 0.91237
 C661 C 1.05464 0.85210 0.90495
 H662 H 1.04681 0.84538 0.89080
 O663 O 0.98775 1.11676 0.92728
 O664 O 0.98877 1.14371 0.90432
 C665 C 0.98066 1.13487 0.92101
 C666 C 0.96242 1.14521 0.93312
 C667 C 0.95480 1.16593 0.92779
 H668 H 0.96280 1.17489 0.91506
 O669 O 0.89914 1.08270 0.98097
 O670 O 0.87389 1.10789 0.98293
 C671 C 0.88151 1.09079 0.97433
 C672 C 0.86991 1.08048 0.95618
 C673 C 0.84914 1.08758 0.95050
 H674 H 0.84126 1.10023 0.95989
 O675 O 1.10986 0.92404 0.97279
 O676 O 1.13429 0.89807 0.97109
 C677 C 1.12749 0.91638 0.96512
 C678 C 1.13976 0.92854 0.94855
 C679 C 1.15927 0.92033 0.93986
 H680 H 1.16548 0.90524 0.94584
 O681 O 0.98820 1.08863 0.89619
 O682 O 0.98939 1.11533 0.87291
 C683 C 0.98138 1.09742 0.87915
 C684 C 0.96351 1.08704 0.86686
 C685 C 0.95661 1.09585 0.84732
 H686 H 0.96495 1.10984 0.84079
 O687 O 1.02757 0.93408 0.88131
 O688 O 1.02785 0.91047 0.85446
 C689 C 1.03547 0.92735 0.86349
 C690 C 1.05414 0.93904 0.85372
 C691 C 1.06224 0.93359 0.83309
 H692 H 1.05385 0.92137 0.82374
 O693 O 1.11316 0.98417 0.92048
 O694 O 1.13994 0.98587 0.89660
 C695 C 1.13109 0.97712 0.91294
 C696 C 1.14143 0.95821 0.92295
 C697 C 1.16098 0.94985 0.91453
 H698 H 1.16897 0.95778 0.90109
 O699 O 0.89818 1.03020 0.91945
 O700 O 0.87326 1.03295 0.89432
 C701 C 0.88076 1.03849 0.91257
 C702 C 0.86949 1.05509 0.92581
 C703 C 0.84880 1.06262 0.92015
 H704 H 0.84061 1.05554 0.90642
 O705 O 0.92949 1.11184 0.98347
 O706 O 0.90430 1.13707 0.98520
 C707 C 0.92212 1.12993 0.97747
 C708 C 0.93409 1.14263 0.96103
 C709 C 0.92707 1.16340 0.95580
 H710 H 0.91332 1.17040 0.96439
 O711 O 1.07888 0.89593 0.96925
 O712 O 1.10324 0.86988 0.96765
 C713 C 1.08620 0.87876 0.96052
 C714 C 1.07506 0.86932 0.94160
 C715 C 1.08059 0.84863 0.93384
 H716 H 1.09242 0.83921 0.94241
 O717 O 1.08576 1.02956 0.89454
 O718 O 1.11271 1.03144 0.87086
 C719 C 1.09464 1.03834 0.87826
 C720 C 1.08416 1.05699 0.86794
 C721 C 1.09254 1.06491 0.84850
 H722 H 1.10622 1.05686 0.84077
 O723 O 0.92801 0.99085 0.88606
 O724 O 0.90336 0.99358 0.86066
 C725 C 0.92078 0.98536 0.86769
 C726 C 0.93252 0.96886 0.85472
 C727 C 0.92573 0.96340 0.83384
 H728 H 0.91217 0.97185 0.82680
 O729 O 1.03019 1.11586 0.92849
 O730 O 1.03156 1.14271 0.90541
 C731 C 1.03833 1.13372 0.92241
 C732 C 1.05630 1.14366 0.93494
 C733 C 1.06586 1.16332 0.92855
 H734 H 1.05962 1.17133 0.91453
 O735 O 0.98375 0.90426 0.90865
 O736 O 0.98391 0.88039 0.88199
 C737 C 0.97639 0.88708 0.90002
 C738 C 0.95890 0.87478 0.91101
 C739 C 0.95314 0.85410 0.90353
 H740 H 0.96174 0.84702 0.88987
 O741 O 1.11255 1.07944 0.98596
 O742 O 1.13916 1.10332 0.98875
 C743 C 1.13111 1.08645 0.98008
 C744 C 1.14338 1.07488 0.96297
 C745 C 1.16562 1.07907 0.95964
 H746 H 1.17389 1.09075 0.96983
 O747 O 0.89483 0.92803 0.96750
 O748 O 0.86975 0.90261 0.96461
 C749 C 0.87756 0.92075 0.95891
 C750 C 0.86689 0.93324 0.94170
 C751 C 0.84691 0.92643 0.93301
 H752 H 0.83877 0.91254 0.93986
 Cu753 Cu 1.00557 0.92166 0.89754
 Cu754 Cu 1.00573 0.89307 0.86546
 Cu755 Cu 1.00910 1.09985 0.91443
 Cu756 Cu 1.01057 1.13195 0.88664
 Cu757 Cu 0.91563 1.01018 0.90544
 Cu758 Cu 0.88594 1.01351 0.87507
 Cu759 Cu 1.09708 1.00667 0.90960
 Cu760 Cu 1.12939 1.00894 0.88108
 C761 C 0.95000 0.95770 0.86366
 H762 H 0.95513 0.96168 0.87988
 C763 C 0.93584 0.94664 0.82215
 C764 C 1.06638 1.06746 0.87773
 H765 H 1.05994 1.06139 0.89284
 C766 C 1.08398 1.08343 0.83911
 C767 C 0.87723 0.95163 0.93321
 H768 H 0.89275 0.95677 0.93963
 C769 C 0.83744 0.93767 0.91584
 C770 C 1.13286 1.05966 0.94977
 H771 H 1.11565 1.05652 0.95211
 C772 C 1.17733 1.06833 0.94325
 C773 C 0.94768 0.88369 0.92881
 H774 H 0.95192 0.89974 0.93456
 C775 C 0.93619 0.84248 0.91332
 C776 C 1.06490 1.13268 0.95263
 H777 H 1.05789 1.11735 0.95741
 C778 C 1.08381 1.17201 0.93970
 C779 C 0.95246 1.06893 0.87518
 H780 H 0.95752 1.06216 0.89035
 C781 C 0.93885 1.08700 0.83620
 C782 C 1.06457 0.95531 0.86568
 H783 H 1.05860 0.95935 0.88170
 C784 C 1.08080 0.94413 0.82461
 C785 C 1.05921 0.88126 0.93081
 H786 H 1.05507 0.89733 0.93656
 C787 C 1.07046 0.83996 0.91545
 C788 C 0.95192 1.13377 0.94981
 H789 H 0.95731 1.11765 0.95375
 C790 C 0.93706 1.17508 0.93917
 C791 C 0.87986 1.06407 0.94391
 H792 H 0.89598 1.05865 0.94813
 C793 C 0.83858 1.07894 0.93246
 C794 C 1.13111 0.94762 0.94016
 H795 H 1.11587 0.95380 0.94653
 C796 C 1.17005 0.93096 0.92288
 O797 O 1.02090 0.91542 1.10145
 O798 O 1.01959 0.88824 1.12416
 C799 C 1.02773 0.90620 1.11830
 C800 C 1.04543 0.91672 1.13078
 C801 C 1.05212 0.90895 1.15098
 H802 H 1.04432 0.89488 1.15795
 O803 O 0.98049 1.07366 1.11066
 O804 O 0.97971 1.09662 1.13806
 C805 C 0.97234 1.07983 1.12858
 C806 C 0.95389 1.06751 1.13818
 C807 C 0.94599 1.07256 1.15900
 H808 H 0.95404 1.08501 1.16836
 O809 O 0.89472 1.01738 1.07343
 O810 O 0.86828 1.01633 1.09774
 C811 C 0.87685 1.02450 1.08093
 C812 C 0.86623 1.04293 1.07049
 C813 C 0.84538 1.04930 1.07715
 H814 H 0.83670 1.04003 1.08927
 O815 O 1.10807 0.97282 1.07689
 O816 O 1.13308 0.97072 1.10200
 C817 C 1.12542 0.96450 1.08400
 C818 C 1.13638 0.94717 1.07126
 C819 C 1.15626 0.93828 1.07789
 H820 H 1.16411 0.94457 1.09219
 O821 O 1.07736 0.89215 1.01114
 O822 O 1.10181 0.86619 1.00939
 C823 C 1.08411 0.87375 1.01693
 C824 C 1.07151 0.86121 1.03296
 C825 C 1.07680 0.83963 1.03706
 H826 H 1.08984 0.83192 1.02798
 O827 O 0.92838 1.10920 1.02544
 O828 O 0.90330 1.13457 1.02699
 C829 C 0.92079 1.12641 1.03386
 C830 C 0.93210 1.13684 1.05213
 C831 C 0.92597 1.15748 1.05927
 H832 H 0.91348 1.16621 1.05079
 O833 O 0.92263 0.97398 1.10169
 O834 O 0.89648 0.97320 1.12632
 C835 C 0.91445 0.96621 1.11883
 C836 C 0.92580 0.94863 1.12994
 C837 C 0.91945 0.94250 1.15074
 H838 H 0.90650 0.95115 1.15904
 O839 O 1.07881 1.01397 1.10884
 O840 O 1.10371 1.01232 1.13409
 C841 C 1.08628 1.02036 1.12684
 C842 C 1.07462 1.03750 1.13917
 C843 C 1.08064 1.04304 1.16037
 H844 H 1.09377 1.03455 1.16807
 O845 O 0.97810 0.89091 1.06821
 O846 O 0.97630 0.86356 1.09070
 C847 C 0.96977 0.87299 1.07382
 C848 C 0.95213 0.86319 1.06074
 C849 C 0.94358 0.84281 1.06607
 H850 H 0.95066 0.83398 1.07920
 O851 O 1.02480 1.10514 1.08577
 O852 O 1.02441 1.12840 1.11291
 C853 C 1.03233 1.12200 1.09496
 C854 C 1.05066 1.13382 1.08448
 C855 C 1.05831 1.15390 1.09244
 H856 H 1.05058 1.16128 1.10643
 O857 O 0.89350 0.92507 1.00960
 O858 O 0.86832 0.89974 1.00671
 C859 C 0.87568 0.91665 1.01591
 C860 C 0.86392 0.92616 1.03467
 C861 C 0.84360 0.91798 1.04120
 H862 H 0.83598 0.90521 1.03183
 O863 O 1.11114 1.07716 1.02771
 O864 O 1.13746 1.10136 1.03038
 C865 C 1.12892 1.08351 1.03598
 C866 C 1.13962 1.07007 1.05238
 C867 C 1.16057 1.07533 1.05977
 H868 H 1.16915 1.08893 1.05283
 O869 O 1.02285 1.07242 1.11145
 O870 O 1.02229 1.09534 1.13890
 C871 C 1.02959 1.07825 1.12987
 C872 C 1.04645 1.06534 1.14067
 C873 C 1.05220 1.07009 1.16198
 H874 H 1.04371 1.08272 1.17085
 O875 O 0.97863 0.91713 1.10081
 O876 O 0.97696 0.89009 1.12370
 C877 C 0.97046 0.90847 1.11752
 C878 C 0.95294 0.91996 1.12936
 C879 C 0.94602 0.91359 1.15005
 H880 H 0.95391 0.90021 1.15787
 O881 O 1.10856 1.01499 1.07907
 O882 O 1.13366 1.01297 1.10411
 C883 C 1.12635 1.02149 1.08711
 C884 C 1.13842 1.03950 1.07698
 C885 C 1.15936 1.04489 1.08401
 H886 H 1.16695 1.03532 1.09638
 O887 O 0.89301 0.97521 1.07212
 O888 O 0.86676 0.97412 1.09658
 C889 C 0.87493 0.96757 1.07881
 C890 C 0.86364 0.95069 1.06583
 C891 C 0.84330 0.94212 1.07228
 H892 H 0.83538 0.94848 1.08662
 O893 O 1.08209 1.10743 1.02906
 O894 O 1.10833 1.13175 1.03143
 C895 C 1.09009 1.12427 1.03780
 C896 C 1.07840 1.13494 1.05592
 C897 C 1.08534 1.15511 1.06363
 H898 H 1.09878 1.16332 1.05567
 O899 O 0.92354 0.89602 1.00813
 O900 O 0.89843 0.87064 1.00519
 C901 C 0.91564 0.87793 1.01387
 C902 C 0.92604 0.86550 1.03129
 C903 C 0.91782 0.84509 1.03692
 H904 H 0.90439 0.83811 1.02801
 O905 O 1.07757 0.97190 1.10594
 O906 O 1.10242 0.97022 1.13125
 C907 C 1.08473 0.96356 1.12307
 C908 C 1.07274 0.94550 1.13320
 C909 C 1.07864 0.93807 1.15355
 H910 H 1.09143 0.94621 1.16243
 O911 O 0.92272 1.01604 1.10417
 O912 O 0.89638 1.01509 1.12858
 C913 C 0.91447 1.02267 1.12190
 C914 C 0.92579 1.03953 1.13480
 C915 C 0.91824 1.04480 1.15562
 H916 H 0.90444 1.03614 1.16238
 O917 O 0.98251 1.10556 1.08410
 O918 O 0.98178 1.12886 1.11123
 C919 C 0.97506 1.12266 1.09286
 C920 C 0.95817 1.13501 1.08150
 C921 C 0.95131 1.15550 1.08891
 H922 H 0.95865 1.16276 1.10304
 O923 O 1.02018 0.88925 1.06865
 O924 O 1.01870 0.86171 1.09094
 C925 C 1.02655 0.87067 1.07419
 C926 C 1.04350 0.85967 1.06110
 C927 C 1.04890 0.83804 1.06491
 H928 H 1.03979 0.82916 1.07694
 O929 O 1.10768 0.92117 1.01470
 O930 O 1.13222 0.89530 1.01296
 C931 C 1.12484 0.91247 1.02171
 C932 C 1.13607 0.92206 1.04053
 C933 C 1.15603 0.91373 1.04716
 H934 H 1.16361 0.90073 1.03800
 O935 O 0.89822 1.07977 1.02276
 O936 O 0.87307 1.10505 1.02460
 C937 C 0.88033 1.08685 1.03040
 C938 C 0.86802 1.07382 1.04632
 C939 C 0.84719 1.08018 1.05348
 H940 H 0.83981 1.09443 1.04681
 Cu941 Cu 0.99966 0.90596 1.08264
 Cu942 Cu 0.99774 0.87312 1.10964
 Cu943 Cu 1.00273 1.08697 1.09526
 Cu944 Cu 1.00201 1.11458 1.12807
 Cu945 Cu 0.91179 0.91467 0.98805
 Cu946 Cu 0.88172 0.88413 0.98461
 Cu947 Cu 1.09098 0.91093 0.99215
 Cu948 Cu 1.12037 0.87977 0.99016
 Cu949 Cu 0.91635 1.09333 1.00302
 Cu950 Cu 0.88615 1.12372 1.00511
 Cu951 Cu 1.09482 1.09127 1.00718
 Cu952 Cu 1.12651 1.12025 1.01024
 Cu953 Cu 0.91087 0.99563 1.08536
 Cu954 Cu 0.87930 0.99459 1.11473
 Cu955 Cu 1.09076 0.99359 1.09017
 Cu956 Cu 1.12075 0.99139 1.12038
 C957 C 1.05595 0.93496 1.12212
 H958 H 1.05137 0.94076 1.10639
 C959 C 1.06859 0.91984 1.16244
 C960 C 0.94372 1.05088 1.12626
 H961 H 0.94950 1.04702 1.11013
 C962 C 0.92806 1.06130 1.16779
 C963 C 0.87736 1.05511 1.05488
 H964 H 0.89357 1.05034 1.04982
 C965 C 0.83586 1.06795 1.06900
 C966 C 1.12648 0.93893 1.05252
 H967 H 1.11099 0.94534 1.04750
 C968 C 1.16613 0.92150 1.06584
 C969 C 1.05476 0.87106 1.04495
 H970 H 1.05086 0.88783 1.04208
 C971 C 1.06576 0.82797 1.05309
 C972 C 0.94843 1.12588 1.06311
 H973 H 0.95318 1.10990 1.05760
 C974 C 0.93529 1.16683 1.07764
 C975 C 0.94272 0.93749 1.11951
 H976 H 0.94761 0.94220 1.10338
 C977 C 0.92934 0.92500 1.16083
 C978 C 1.05751 1.04878 1.12949
 H979 H 1.05311 1.04502 1.11301
 C980 C 1.06931 1.05924 1.17183
 C981 C 0.94330 0.87440 1.04323
 H982 H 0.94954 0.89026 1.03919
 C983 C 0.92621 0.83378 1.05442
 C984 C 1.06090 1.12457 1.06622
 H985 H 1.05554 1.10895 1.06025
 C986 C 1.07561 1.16465 1.08187
 C987 C 0.87367 0.94262 1.04697
 H988 H 0.88945 0.94884 1.04209
 C989 C 0.83320 0.92565 1.06002
 C990 C 1.12873 1.05205 1.06102
 H991 H 1.11246 1.04808 1.05568
 C992 C 1.17049 1.06281 1.07571
 O993 O 0.98008 0.42820 0.38641
 O994 O 0.98140 0.40411 0.35999
 C995 C 0.97348 0.42125 0.36827
 C996 C 0.95595 0.43285 0.35707
 C997 C 0.94956 0.42641 0.33635
 H998 H 0.95810 0.41340 0.32810
 O999 O 1.02485 0.58022 0.39100
 O1000 O 1.02695 0.60623 0.36704
 C1001 C 1.03373 0.58840 0.37435
 C1002 C 1.05272 0.57737 0.36419
 C1003 C 1.06246 0.58499 0.34499
 H1004 H 1.05557 0.59878 0.33697
 O1005 O 0.89049 0.48300 0.41542
 O1006 O 0.86577 0.48450 0.38999
 C1007 C 0.87290 0.47612 0.40709
 C1008 C 0.86137 0.45751 0.41695
 C1009 C 0.84210 0.44896 0.40800
 H1010 H 0.83471 0.45666 0.39431
 O1011 O 1.11006 0.52403 0.42732
 O1012 O 1.13746 0.52449 0.40408
 C1013 C 1.12845 0.53136 0.42136
 C1014 C 1.13913 0.54832 0.43452
 C1015 C 1.16028 0.55546 0.42953
 H1016 H 1.16917 0.54762 0.41654
 O1017 O 0.91975 0.39418 0.46907
 O1018 O 0.89439 0.36893 0.46697
 C1019 C 0.91250 0.37681 0.46075
 C1020 C 0.92511 0.36618 0.44325
 C1021 C 0.91922 0.34565 0.43531
 H1022 H 0.90586 0.33707 0.44287
 O1023 O 1.07562 0.60596 0.48598
 O1024 O 1.10052 0.63161 0.48829
 C1025 C 1.08364 0.62371 0.47945
 C1026 C 1.07378 0.63508 0.46096
 C1027 C 1.08205 0.65527 0.45467
 H1028 H 1.09499 0.66282 0.46383
 O1029 O 0.92295 0.52550 0.38891
 O1030 O 0.89826 0.52688 0.36343
 C1031 C 0.91607 0.53344 0.37146
 C1032 C 0.92862 0.55068 0.36045
 C1033 C 0.92264 0.55722 0.33984
 H1034 H 0.90928 0.54912 0.33178
 O1035 O 1.08214 0.48325 0.39448
 O1036 O 1.10936 0.48331 0.37102
 C1037 C 1.09092 0.47618 0.37722
 C1038 C 1.07957 0.45929 0.36452
 C1039 C 1.08836 0.45161 0.34490
 H1040 H 1.10339 0.45840 0.33863
 O1041 O 1.02110 0.39743 0.41566
 O1042 O 1.02246 0.37316 0.38940
 C1043 C 1.02881 0.38007 0.40763
 C1044 C 1.04547 0.36806 0.41964
 C1045 C 1.05239 0.34742 0.41277
 H1046 H 1.04513 0.33996 0.39872
 O1047 O 0.98168 0.60929 0.42056
 O1048 O 0.98350 0.63549 0.39676
 C1049 C 0.97519 0.62744 0.41375
 C1050 C 0.95756 0.63899 0.42556
 C1051 C 0.94996 0.65903 0.41830
 H1052 H 0.95766 0.66647 0.40445
 O1053 O 0.89504 0.58154 0.47741
 O1054 O 0.87041 0.60736 0.47741
 C1055 C 0.87778 0.58960 0.46994
 C1056 C 0.86615 0.57839 0.45230
 C1057 C 0.84542 0.58532 0.44642
 H1058 H 0.83777 0.59858 0.45513
 O1059 O 1.10420 0.42367 0.47937
 O1060 O 1.12871 0.39773 0.47938
 C1061 C 1.12216 0.41591 0.47275
 C1062 C 1.13539 0.42804 0.45694
 C1063 C 1.15673 0.42169 0.45199
 H1064 H 1.16373 0.40803 0.46020
 O1065 O 0.98209 0.58071 0.38970
 O1066 O 0.98382 0.60665 0.36565
 C1067 C 0.97542 0.58909 0.37237
 C1068 C 0.95731 0.57830 0.36058
 C1069 C 0.95056 0.58512 0.34001
 H1070 H 0.95895 0.59831 0.33209
 O1071 O 1.02254 0.42881 0.38843
 O1072 O 1.02385 0.40467 0.36205
 C1073 C 1.03091 0.42188 0.37092
 C1074 C 1.04966 0.43336 0.36121
 C1075 C 1.05830 0.42638 0.34138
 H1076 H 1.05044 0.41336 0.33256
 O1077 O 1.11004 0.48204 0.42533
 O1078 O 1.13746 0.48242 0.40210
 C1079 C 1.12826 0.47474 0.41879
 C1080 C 1.13848 0.45682 0.43050
 C1081 C 1.15987 0.45026 0.42566
 H1082 H 1.16929 0.45911 0.41383
 O1083 O 0.89299 0.52517 0.41860
 O1084 O 0.86811 0.52687 0.39334
 C1085 C 0.87578 0.53341 0.41125
 C1086 C 0.86502 0.55109 0.42353
 C1087 C 0.84437 0.55855 0.41766
 H1088 H 0.83589 0.55077 0.40448
 O1089 O 0.92513 0.61090 0.47928
 O1090 O 0.90062 0.63680 0.47932
 C1091 C 0.91823 0.62873 0.47209
 C1092 C 0.93019 0.63979 0.45447
 C1093 C 0.92301 0.65988 0.44709
 H1094 H 0.90941 0.66781 0.45506
 O1095 O 1.07389 0.39469 0.47601
 O1096 O 1.09830 0.36867 0.47615
 C1097 C 1.08142 0.37713 0.46827
 C1098 C 1.07076 0.36661 0.44966
 C1099 C 1.07716 0.34592 0.44285
 H1100 H 1.08947 0.33735 0.45173
 O1101 O 1.08292 0.52516 0.39568
 O1102 O 1.11017 0.52539 0.37226
 C1103 C 1.09196 0.53268 0.37883
 C1104 C 1.08137 0.55027 0.36689
 C1105 C 1.09085 0.55811 0.34788
 H1106 H 1.10569 0.55083 0.34167
 O1107 O 0.92205 0.48356 0.38759
 O1108 O 0.89755 0.48482 0.36192
 C1109 C 0.91490 0.47695 0.36957
 C1110 C 0.92688 0.45971 0.35776
 C1111 C 0.92045 0.45277 0.33712
 H1112 H 0.90690 0.46054 0.32940
 O1113 O 1.02368 0.60727 0.42298
 O1114 O 1.02584 0.63363 0.39937
 C1115 C 1.03194 0.62506 0.41691
 C1116 C 1.04899 0.63566 0.43023
 C1117 C 1.05769 0.65581 0.42424
 H1118 H 1.05129 0.66390 0.41029
 O1119 O 0.97895 0.39762 0.41455
 O1120 O 0.98032 0.37337 0.38826
 C1121 C 0.97217 0.38019 0.40594
 C1122 C 0.95438 0.36796 0.41644
 C1123 C 0.94842 0.34743 0.40877
 H1124 H 0.95730 0.34021 0.39536
 O1125 O 1.10633 0.57756 0.48719
 O1126 O 1.13133 0.60314 0.48958
 C1127 C 1.12443 0.58563 0.48121
 C1128 C 1.13721 0.57478 0.46393
 C1129 C 1.15835 0.58177 0.45871
 H1130 H 1.16573 0.59484 0.46786
 O1131 O 0.88991 0.42345 0.46835
 O1132 O 0.86449 0.39824 0.46641
 C1133 C 0.87261 0.41598 0.46003
 C1134 C 0.86192 0.42775 0.44251
 C1135 C 0.84313 0.41921 0.43309
 H1136 H 0.83623 0.40420 0.43898
 Cu1137 Cu 1.00054 0.41548 0.40388
 Cu1138 Cu 1.00212 0.38648 0.37218
 Cu1139 Cu 1.00281 0.59166 0.40824
 Cu1140 Cu 1.00525 0.62307 0.37977
 Cu1141 Cu 0.90948 0.50414 0.40525
 Cu1142 Cu 0.87990 0.50600 0.37466
 Cu1143 Cu 1.09358 0.50358 0.41308
 Cu1144 Cu 1.12636 0.50397 0.38499
 C1145 C 0.94467 0.44966 0.36753
 H1146 H 0.94947 0.45460 0.38360
 C1147 C 0.93174 0.43605 0.32638
 C1148 C 1.06220 0.55982 0.37479
 H1149 H 1.05504 0.55399 0.38968
 C1150 C 1.08154 0.57525 0.33670
 C1151 C 0.87087 0.44695 0.43446
 H1152 H 0.88571 0.45328 0.44140
 C1153 C 0.83307 0.42968 0.41605
 C1154 C 1.12781 0.55797 0.45184
 H1155 H 1.11137 0.55274 0.45559
 C1156 C 1.16994 0.57237 0.44143
 C1157 C 0.94278 0.37712 0.43378
 H1158 H 0.94719 0.39309 0.43958
 C1159 C 0.93081 0.33622 0.41795
 C1160 C 1.05713 0.62543 0.44871
 H1161 H 1.05083 0.60974 0.45329
 C1162 C 1.07440 0.66558 0.43626
 C1163 C 0.94612 0.56106 0.37056
 H1164 H 0.95074 0.55597 0.38652
 C1165 C 0.93327 0.57437 0.32952
 C1166 C 1.06017 0.45008 0.37251
 H1167 H 1.05362 0.45543 0.38793
 C1168 C 1.07775 0.43510 0.33336
 C1169 C 1.05475 0.37747 0.43812
 H1170 H 1.04981 0.39350 0.44330
 C1171 C 1.06826 0.33628 0.42441
 C1172 C 0.94761 0.62956 0.44374
 H1173 H 0.95302 0.61392 0.44918
 C1174 C 0.93249 0.66943 0.42887
 C1175 C 0.87576 0.56109 0.44094
 H1176 H 0.89184 0.55574 0.44537
 C1177 C 0.83454 0.57570 0.42910
 C1178 C 1.12647 0.44570 0.44626
 H1179 H 1.10988 0.45049 0.44987
 C1180 C 1.16906 0.43258 0.43633
 O1181 O 1.00926 0.42004 0.60398
 O1182 O 1.00751 0.39395 0.62793
 C1183 C 1.01565 0.41164 0.62138
 C1184 C 1.03323 0.42211 0.63378
 C1185 C 1.03903 0.41409 0.65396
 H1186 H 1.02994 0.40078 0.66094
 O1187 O 0.97010 0.57264 0.61248
 O1188 O 0.96934 0.59688 0.63876
 C1189 C 0.96177 0.57989 0.62991
 C1190 C 0.94266 0.56864 0.63935
 C1191 C 0.93412 0.57449 0.65970
 H1192 H 0.94240 0.58671 0.66914
 O1193 O 0.88476 0.52202 0.57211
 O1194 O 0.85704 0.52119 0.59496
 C1195 C 0.86662 0.52939 0.57872
 C1196 C 0.85694 0.54801 0.56762
 C1197 C 0.83601 0.55538 0.57316
 H1198 H 0.82649 0.54669 0.58505
 O1199 O 1.10138 0.47516 0.58075
 O1200 O 1.12564 0.47369 0.60662
 C1201 C 1.11863 0.46725 0.58848
 C1202 C 1.13018 0.45000 0.57636
 C1203 C 1.15054 0.44238 0.58304
 H1204 H 1.15836 0.44992 0.59674
 O1205 O 1.07048 0.39352 0.51791
 O1206 O 1.09486 0.36748 0.51788
 C1207 C 1.07695 0.37536 0.52459
 C1208 C 1.06381 0.36348 0.54067
 C1209 C 1.06954 0.34241 0.54631
 H1210 H 1.08320 0.33459 0.53832
 O1211 O 0.92295 0.60962 0.52174
 O1212 O 0.89851 0.63560 0.52166
 C1213 C 0.91531 0.62704 0.52966
 C1214 C 0.92563 0.63690 0.54888
 C1215 C 0.91941 0.65747 0.55650
 H1216 H 0.90775 0.66668 0.54750
 O1217 O 0.91088 0.47774 0.60068
 O1218 O 0.88333 0.47678 0.62375
 C1219 C 0.90161 0.46968 0.61714
 C1220 C 0.91213 0.45173 0.62852
 C1221 C 0.90404 0.44477 0.64848
 H1222 H 0.89023 0.45291 0.65587
 O1223 O 1.07018 0.51565 0.61141
 O1224 O 1.09419 0.51410 0.63752
 C1225 C 1.07684 0.52179 0.62979
 C1226 C 1.06452 0.53832 0.64210
 C1227 C 1.07030 0.54366 0.66328
 H1228 H 1.08345 0.53512 0.67093
 O1229 O 0.96832 0.39172 0.57152
 O1230 O 0.96673 0.36553 0.59537
 C1231 C 0.96055 0.37378 0.57783
 C1232 C 0.94390 0.36264 0.56480
 C1233 C 0.93657 0.34187 0.57028
 H1234 H 0.94413 0.33365 0.58352
 O1235 O 1.01465 0.60147 0.58539
 O1236 O 1.01401 0.62607 0.61139
 C1237 C 1.02175 0.61894 0.59361
 C1238 C 1.03902 0.63120 0.58227
 C1239 C 1.04389 0.65244 0.58864
 H1240 H 1.03492 0.65981 0.60192
 O1241 O 0.88813 0.42350 0.51011
 O1242 O 0.86241 0.39859 0.50815
 C1243 C 0.86980 0.41613 0.51614
 C1244 C 0.85713 0.42793 0.53282
 C1245 C 0.83584 0.42140 0.53798
 H1246 H 0.82848 0.40792 0.52942
 O1247 O 1.10345 0.57649 0.52910
 O1248 O 1.12829 0.60221 0.53149
 C1249 C 1.12051 0.58423 0.53772
 C1250 C 1.13106 0.57230 0.55542
 C1251 C 1.15106 0.57927 0.56400
 H1252 H 1.15920 0.59309 0.55700
 O1253 O 1.01260 0.57160 0.61424
 O1254 O 1.01207 0.59587 0.64049
 C1255 C 1.01945 0.57847 0.63230
 C1256 C 1.03660 0.56627 0.64343
 C1257 C 1.04290 0.57174 0.66453
 H1258 H 1.03453 0.58455 0.67318
 O1259 O 0.96681 0.42041 0.60206
 O1260 O 0.96498 0.39438 0.62606
 C1261 C 0.95818 0.41223 0.61880
 C1262 C 0.93974 0.42351 0.62944
 C1263 C 0.93125 0.41652 0.64934
 H1264 H 0.93883 0.40316 0.65745
 O1265 O 1.10092 0.51735 0.58264
 O1266 O 1.12512 0.51605 0.60858
 C1267 C 1.11820 0.52440 0.59131
 C1268 C 1.12997 0.54283 0.58142
 C1269 C 1.14996 0.54991 0.58965
 H1270 H 1.15718 0.54139 0.60296
 O1271 O 0.88413 0.47994 0.56887
 O1272 O 0.85641 0.47904 0.59173
 C1273 C 0.86564 0.47252 0.57444
 C1274 C 0.85504 0.45566 0.56108
 C1275 C 0.83372 0.44897 0.56589
 H1276 H 0.82464 0.45725 0.57849
 O1277 O 1.07309 0.60540 0.52834
 O1278 O 1.09778 0.63128 0.53052
 C1279 C 1.07987 0.62297 0.53671
 C1280 C 1.06707 0.63345 0.55421
 C1281 C 1.07173 0.65476 0.56082
 H1282 H 1.08411 0.66373 0.55220
 O1283 O 0.91639 0.39263 0.51096
 O1284 O 0.89086 0.36755 0.50888
 C1285 C 0.90808 0.37493 0.51734
 C1286 C 0.91828 0.36314 0.53513
 C1287 C 0.91100 0.34240 0.54085
 H1288 H 0.89813 0.33464 0.53176
 O1289 O 1.06959 0.47393 0.60835
 O1290 O 1.09360 0.47226 0.63445
 C1291 C 1.07610 0.46566 0.62576
 C1292 C 1.06323 0.44807 0.63576
 C1293 C 1.06900 0.43961 0.65584
 H1294 H 1.08268 0.44645 0.66442
 O1295 O 0.91133 0.51950 0.60401
 O1296 O 0.88375 0.51859 0.62704
 C1297 C 0.90230 0.52586 0.62146
 C1298 C 0.91345 0.54214 0.63508
 C1299 C 0.90513 0.54804 0.65544
 H1300 H 0.89057 0.54019 0.66159
 O1301 O 0.97281 0.60288 0.58402
 O1302 O 0.97211 0.62733 0.61013
 C1303 C 0.96580 0.62061 0.59180
 C1304 C 0.95012 0.63348 0.57941
 C1305 C 0.94389 0.65408 0.58666
 H1306 H 0.95084 0.66073 0.60130
 O1307 O 1.01033 0.39201 0.57286
 O1308 O 1.00883 0.36571 0.59660
 C1309 C 1.01704 0.37399 0.57966
 C1310 C 1.03479 0.36281 0.56786
 C1311 C 1.04092 0.34178 0.57346
 H1312 H 1.03202 0.33338 0.58601
 O1313 O 1.10203 0.42132 0.52113
 O1314 O 1.12648 0.39532 0.52098
 C1315 C 1.11909 0.41289 0.52875
 C1316 C 1.13027 0.42345 0.54703
 C1317 C 1.15067 0.41618 0.55371
 H1318 H 1.15857 0.40305 0.54504
 O1319 O 0.89192 0.58127 0.51907
 O1320 O 0.86745 0.60724 0.51890
 C1321 C 0.87395 0.58913 0.52570
 C1322 C 0.86062 0.57722 0.54166
 C1323 C 0.83963 0.58428 0.54724
 H1324 H 0.83292 0.59835 0.53949
 Cu1325 Cu 0.98880 0.40875 0.58528
 Cu1326 Cu 0.98688 0.37731 0.61399
 Cu1327 Cu 0.99257 0.58454 0.59656
 Cu1328 Cu 0.99186 0.61392 0.62793
 Cu1329 Cu 0.90620 0.41089 0.48984
 Cu1330 Cu 0.87547 0.38078 0.48746
 Cu1331 Cu 1.08518 0.41092 0.49862
 Cu1332 Cu 1.11451 0.37964 0.49860
 Cu1333 Cu 0.91138 0.59336 0.49945
 Cu1334 Cu 0.88192 0.62447 0.49925
 Cu1335 Cu 1.08711 0.58881 0.50748
 Cu1336 Cu 1.11688 0.61971 0.51020
 Cu1337 Cu 0.90052 0.49994 0.58408
 Cu1338 Cu 0.86727 0.49875 0.61162
 Cu1339 Cu 1.08319 0.49565 0.59311
 Cu1340 Cu 1.11214 0.49389 0.62437
 C1341 C 1.04525 0.43925 0.62490
 H1342 H 1.04094 0.44535 0.60921
 C1343 C 1.05701 0.42250 0.66492
 C1344 C 0.93227 0.55240 0.62731
 H1345 H 0.93858 0.54806 0.61149
 C1346 C 0.91522 0.56427 0.66784
 C1347 C 0.86906 0.55899 0.55181
 H1348 H 0.88533 0.55358 0.54767
 C1349 C 0.82729 0.57361 0.56307
 C1350 C 1.12027 0.44048 0.55831
 H1351 H 1.10443 0.44601 0.55329
 C1352 C 1.16088 0.42540 0.57173
 C1353 C 1.04627 0.37350 0.55135
 H1354 H 1.04194 0.38989 0.54723
 C1355 C 1.05845 0.33161 0.56285
 C1356 C 0.94106 0.62510 0.56040
 H1357 H 0.94568 0.60911 0.55483
 C1358 C 0.92848 0.66614 0.57547
 C1359 C 0.93008 0.44115 0.61922
 H1360 H 0.93629 0.44642 0.60371
 C1361 C 0.91334 0.42715 0.65891
 C1362 C 1.04747 0.54949 0.63241
 H1363 H 1.04306 0.54550 0.61598
 C1364 C 1.05980 0.56043 0.67451
 C1365 C 0.93478 0.37306 0.54713
 H1366 H 0.94021 0.38919 0.54299
 C1367 C 0.91989 0.33172 0.55853
 C1368 C 1.05057 0.62186 0.56493
 H1369 H 1.04700 0.60537 0.56006
 C1370 C 1.06015 0.66437 0.57808
 C1371 C 0.86657 0.44519 0.54435
 H1372 H 0.88316 0.45005 0.54076
 C1373 C 0.82420 0.43158 0.55468
 C1374 C 1.12076 0.55403 0.56421
 H1375 H 1.10522 0.54876 0.55792
 C1376 C 1.16059 0.56815 0.58122
 O1377 O 0.48266 0.92909 0.38963
 O1378 O 0.48293 0.90543 0.36278
 C1379 C 0.47604 0.92292 0.37124
 C1380 C 0.45988 0.93588 0.35963
 C1381 C 0.45490 0.93075 0.33820
 H1382 H 0.46350 0.91779 0.32993
 O1383 O 0.52860 1.08409 0.39981
 O1384 O 0.52973 1.11017 0.37584
 C1385 C 0.53653 1.09215 0.38267
 C1386 C 0.55405 1.08072 0.37066
 C1387 C 0.56034 1.08765 0.35009
 H1388 H 0.55187 1.10099 0.34277
 O1389 O 0.39352 0.98550 0.41695
 O1390 O 0.37031 0.98736 0.39019
 C1391 C 0.37640 0.97880 0.40764
 C1392 C 0.36379 0.96054 0.41694
 C1393 C 0.34427 0.95357 0.40751
 H1394 H 0.33801 0.96205 0.39370
 O1395 O 0.61253 1.02348 0.42742
 O1396 O 0.63892 1.02377 0.40304
 C1397 C 0.63088 1.03039 0.42087
 C1398 C 0.64281 1.04654 0.43394
 C1399 C 0.66448 1.05165 0.42897
 H1400 H 0.67266 1.04326 0.41580
 O1401 O 0.41776 0.89721 0.47038
 O1402 O 0.39210 0.87231 0.46804
 C1403 C 0.41036 0.88001 0.46189
 C1404 C 0.42297 0.86926 0.44434
 C1405 C 0.41571 0.84967 0.43524
 H1406 H 0.40091 0.84237 0.44134
 O1407 O 0.58419 1.10860 0.48672
 O1408 O 0.61036 1.13294 0.48925
 C1409 C 0.59281 1.12627 0.48074
 C1410 C 0.58238 1.13887 0.46346
 C1411 C 0.59050 1.15921 0.45740
 H1412 H 0.60433 1.16607 0.46577
 O1413 O 0.42634 1.02923 0.39274
 O1414 O 0.40309 1.03110 0.36601
 C1415 C 0.42021 1.03780 0.37529
 C1416 C 0.43285 1.05599 0.36592
 C1417 C 0.42703 1.06467 0.34591
 H1418 H 0.41385 1.05736 0.33697
 O1419 O 0.58211 0.98435 0.39463
 O1420 O 0.60826 0.98475 0.37000
 C1421 C 0.59004 0.97765 0.37684
 C1422 C 0.57829 0.96098 0.36430
 C1423 C 0.58508 0.95567 0.34329
 H1424 H 0.59847 0.96443 0.33589
 O1425 O 0.52234 0.89575 0.41809
 O1426 O 0.52225 0.87203 0.39132
 C1427 C 0.52925 0.87831 0.40952
 C1428 C 0.54601 0.86553 0.42055
 C1429 C 0.55209 0.84512 0.41267
 H1430 H 0.54386 0.83831 0.39880
 O1431 O 0.48563 1.11328 0.42990
 O1432 O 0.48723 1.13950 0.40611
 C1433 C 0.47880 1.13122 0.42293
 C1434 C 0.46038 1.14227 0.43393
 C1435 C 0.45444 1.16315 0.42777
 H1436 H 0.46401 1.17153 0.41565
 O1437 O 0.39154 1.08257 0.47921
 O1438 O 0.36682 1.10827 0.47941
 C1439 C 0.37443 1.09079 0.47154
 C1440 C 0.36384 1.08000 0.45291
 C1441 C 0.34390 1.08737 0.44484
 H1442 H 0.33572 1.10064 0.45290
 O1443 O 0.60616 0.92084 0.47743
 O1444 O 0.63149 0.89573 0.47709
 C1445 C 0.62420 0.91363 0.47037
 C1446 C 0.63671 0.92589 0.45390
 C1447 C 0.65756 0.91905 0.44769
 H1448 H 0.66474 0.90522 0.45546
 O1449 O 0.48613 1.08519 0.39863
 O1450 O 0.48751 1.11141 0.37482
 C1451 C 0.47946 1.09364 0.38133
 C1452 C 0.46187 1.08305 0.36884
 C1453 C 0.45587 1.09131 0.34876
 H1454 H 0.46459 1.10502 0.34211
 O1455 O 0.52483 0.92720 0.39077
 O1456 O 0.52495 0.90356 0.36393
 C1457 C 0.53256 0.92051 0.37285
 C1458 C 0.55063 0.93257 0.36245
 C1459 C 0.55792 0.92719 0.34150
 H1460 H 0.54991 0.91434 0.33262
 O1461 O 0.61139 0.98139 0.42401
 O1462 O 0.63775 0.98160 0.39961
 C1463 C 0.62902 0.97359 0.41644
 C1464 C 0.63912 0.95481 0.42724
 C1465 C 0.65989 0.94731 0.42092
 H1466 H 0.66890 0.95561 0.40839
 O1467 O 0.39451 1.02762 0.42043
 O1468 O 0.37114 1.02944 0.39378
 C1469 C 0.37754 1.03564 0.41227
 C1470 C 0.36548 1.05276 0.42411
 C1471 C 0.34553 1.06013 0.41646
 H1472 H 0.33856 1.05263 0.40224
 O1473 O 0.42225 1.11131 0.48152
 O1474 O 0.39787 1.13734 0.48172
 C1475 C 0.41576 1.12949 0.47482
 C1476 C 0.42916 1.14135 0.45873
 C1477 C 0.42333 1.16223 0.45211
 H1478 H 0.40923 1.16993 0.45930
 O1479 O 0.57700 0.89059 0.47498
 O1480 O 0.60208 0.86524 0.47456
 C1481 C 0.58480 0.87326 0.46699
 C1482 C 0.57364 0.86294 0.44842
 C1483 C 0.57985 0.84255 0.44009
 H1484 H 0.59274 0.83374 0.44778
 O1485 O 0.58486 1.02641 0.39631
 O1486 O 0.61097 1.02695 0.37168
 C1487 C 0.59329 1.03449 0.37937
 C1488 C 0.58227 1.05296 0.36892
 C1489 C 0.58874 1.06053 0.34838
 H1490 H 0.60189 1.05263 0.33971
 O1491 O 0.42586 0.98706 0.38980
 O1492 O 0.40275 0.98895 0.36294
 C1493 C 0.41966 0.98091 0.37125
 C1494 C 0.43204 0.96392 0.35955
 C1495 C 0.42690 0.95817 0.33818
 H1496 H 0.41420 0.96672 0.32988
 O1497 O 0.52845 1.11334 0.43010
 O1498 O 0.52988 1.13946 0.40620
 C1499 C 0.53669 1.13098 0.42341
 C1500 C 0.55482 1.14125 0.43546
 C1501 C 0.56320 1.16160 0.42954
 H1502 H 0.55548 1.17032 0.41673
 O1503 O 0.47984 0.89802 0.41730
 O1504 O 0.47987 0.87433 0.39052
 C1505 C 0.47196 0.88127 0.40829
 C1506 C 0.45311 0.86999 0.41825
 C1507 C 0.44564 0.85039 0.40949
 H1508 H 0.45418 0.84316 0.39586
 O1509 O 0.61289 1.07809 0.48654
 O1510 O 0.63937 1.10212 0.48903
 C1511 C 0.63136 1.08516 0.48045
 C1512 C 0.64321 1.07358 0.46292
 C1513 C 0.66496 1.07867 0.45758
 H1514 H 0.67342 1.09086 0.46691
 O1515 O 0.38769 0.92619 0.46987
 O1516 O 0.36175 0.90159 0.46759
 C1517 C 0.37037 0.91913 0.46118
 C1518 C 0.36072 0.93124 0.44304
 C1519 C 0.34122 0.92439 0.43327
 H1520 H 0.33259 0.91063 0.43979
 Cu1521 Cu 0.50247 0.91484 0.40669
 Cu1522 Cu 0.50247 0.88640 0.37450
 Cu1523 Cu 0.50711 1.09642 0.41708
 Cu1524 Cu 0.50872 1.12778 0.38841
 Cu1525 Cu 0.41238 1.00713 0.40764
 Cu1526 Cu 0.38449 1.00942 0.37556
 Cu1527 Cu 0.59512 1.00394 0.41301
 Cu1528 Cu 0.62662 1.00433 0.38363
 C1529 C 0.44862 0.95270 0.37010
 H1530 H 0.45235 0.95663 0.38672
 C1531 C 0.43833 0.94155 0.32748
 C1532 C 0.56491 1.06324 0.37983
 H1533 H 0.56004 1.05787 0.39575
 C1534 C 0.57761 1.07784 0.33884
 C1535 C 0.37174 0.94937 0.43476
 H1536 H 0.38690 0.95456 0.44195
 C1537 C 0.33290 0.93546 0.41536
 C1538 C 0.63238 1.05741 0.45104
 H1539 H 0.61555 1.05360 0.45479
 C1540 C 0.67569 1.06767 0.44055
 C1541 C 0.44183 0.87918 0.43587
 H1542 H 0.44736 0.89446 0.44256
 C1543 C 0.42712 0.84004 0.41789
 C1544 C 0.56447 1.13015 0.45248
 H1545 H 0.55827 1.11437 0.45691
 C1546 C 0.58118 1.17068 0.44038
 C1547 C 0.45036 1.06527 0.37723
 H1548 H 0.45474 1.05893 0.39280
 C1549 C 0.43838 1.08244 0.33731
 C1550 C 0.56091 0.94953 0.37367
 H1551 H 0.55569 0.95352 0.38996
 C1552 C 0.57518 0.93873 0.33188
 C1553 C 0.55668 0.87415 0.43852
 H1554 H 0.55206 0.89000 0.44451
 C1555 C 0.56900 0.83352 0.42216
 C1556 C 0.44777 1.13157 0.44957
 H1557 H 0.45216 1.11535 0.45423
 C1558 C 0.43591 1.17318 0.43652
 C1559 C 0.37438 1.06261 0.44248
 H1560 H 0.38993 1.05710 0.44830
 C1561 C 0.33465 1.07743 0.42654
 C1562 C 0.62770 0.94395 0.44376
 H1563 H 0.61156 0.94929 0.44846
 C1564 C 0.66918 0.92942 0.43119
 O1565 O 0.51499 0.91641 0.60113
 O1566 O 0.51258 0.89036 0.62506
 C1567 C 0.52114 0.90789 0.61863
 C1568 C 0.53860 0.91832 0.63146
 C1569 C 0.54509 0.90954 0.65120
 H1570 H 0.53696 0.89526 0.65734
 O1571 O 0.47563 1.07557 0.60844
 O1572 O 0.47498 1.09971 0.63483
 C1573 C 0.46770 1.08251 0.62619
 C1574 C 0.44961 1.07058 0.63662
 C1575 C 0.44258 1.07596 0.65762
 H1576 H 0.45119 1.08840 0.66647
 O1577 O 0.38810 1.02223 0.57431
 O1578 O 0.36231 1.02126 0.59930
 C1579 C 0.37045 1.02949 0.58232
 C1580 C 0.35958 1.04805 0.57216
 C1581 C 0.33977 1.05574 0.58045
 H1582 H 0.33201 1.04749 0.59384
 O1583 O 0.60252 0.97446 0.58001
 O1584 O 0.62692 0.97256 0.60573
 C1585 C 0.61977 0.96633 0.58751
 C1586 C 0.63140 0.94932 0.57495
 C1587 C 0.65237 0.94276 0.58087
 H1588 H 0.66028 0.95070 0.59430
 O1589 O 0.57504 0.88882 0.51688
 O1590 O 0.60029 0.86363 0.51680
 C1591 C 0.58226 0.87097 0.52378
 C1592 C 0.56955 0.85914 0.54041
 C1593 C 0.57616 0.83882 0.54805
 H1594 H 0.59048 0.83119 0.54120
 O1595 O 0.42060 1.10957 0.52321
 O1596 O 0.39625 1.13564 0.52375
 C1597 C 0.41341 1.12716 0.53114
 C1598 C 0.42496 1.13745 0.54942
 C1599 C 0.41821 1.15756 0.55779
 H1600 H 0.40499 1.16584 0.55012
 O1601 O 0.41621 0.97792 0.60135
 O1602 O 0.39048 0.97690 0.62640
 C1603 C 0.40825 0.96986 0.61849
 C1604 C 0.41987 0.95212 0.62919
 C1605 C 0.41436 0.94593 0.65036
 H1606 H 0.40159 0.95436 0.65912
 O1607 O 0.57310 1.01594 0.61141
 O1608 O 0.59712 1.01431 0.63745
 C1609 C 0.58014 1.02259 0.62950
 C1610 C 0.56857 1.04056 0.64080
 C1611 C 0.57450 1.04767 0.66165
 H1612 H 0.58736 1.03951 0.67009
 O1613 O 0.47195 0.89017 0.56890
 O1614 O 0.46957 0.86429 0.59301
 C1615 C 0.46311 0.87287 0.57571
 C1616 C 0.44471 0.86293 0.56381
 C1617 C 0.43600 0.84297 0.57034
 H1618 H 0.44374 0.83436 0.58324
 O1619 O 0.52001 1.10529 0.58160
 O1620 O 0.51923 1.12954 0.60788
 C1621 C 0.52742 1.12241 0.59034
 C1622 C 0.54614 1.13384 0.58039
 C1623 C 0.55311 1.15376 0.58882
 H1624 H 0.54420 1.16114 0.60212
 O1625 O 0.38599 0.92557 0.51202
 O1626 O 0.35981 0.90119 0.51006
 C1627 C 0.36773 0.91831 0.51843
 C1628 C 0.35611 0.92990 0.53610
 C1629 C 0.33438 0.92499 0.54170
 H1630 H 0.32557 0.91268 0.53279
 O1631 O 0.60994 1.07592 0.52838
 O1632 O 0.63635 1.10001 0.53111
 C1633 C 0.62746 1.08240 0.53703
 C1634 C 0.63726 1.06950 0.55441
 C1635 C 0.65802 1.07467 0.56232
 H1636 H 0.66721 1.08759 0.55487
 O1637 O 0.51791 1.07444 0.60958
 O1638 O 0.51708 1.09869 0.63587
 C1639 C 0.52443 1.08120 0.62782
 C1640 C 0.54102 1.06894 0.63971
 C1641 C 0.54675 1.07539 0.66059
 H1642 H 0.53844 1.08891 0.66822
 O1643 O 0.47291 0.91958 0.59884
 O1644 O 0.47071 0.89379 0.62310
 C1645 C 0.46473 0.91202 0.61605
 C1646 C 0.44792 0.92432 0.62797
 C1647 C 0.44262 0.91878 0.64919
 H1648 H 0.45137 0.90588 0.65699
 O1649 O 0.60383 1.01647 0.58253
 O1650 O 0.62808 1.01459 0.60838
 C1651 C 0.62146 1.02290 0.59098
 C1652 C 0.63425 1.04043 0.58071
 C1653 C 0.65497 1.04585 0.58837
 H1654 H 0.66181 1.03684 0.60156
 O1655 O 0.38731 0.98026 0.57120
 O1656 O 0.36139 0.97938 0.59606
 C1657 C 0.36915 0.97309 0.57800
 C1658 C 0.35700 0.95712 0.56494
 C1659 C 0.33521 0.95254 0.56982
 H1660 H 0.32705 0.96123 0.58282
 O1661 O 0.58156 1.10663 0.52852
 O1662 O 0.60766 1.13102 0.53135
 C1663 C 0.58923 1.12361 0.53727
 C1664 C 0.57663 1.13444 0.55476
 C1665 C 0.58349 1.15435 0.56357
 H1666 H 0.59773 1.16222 0.55687
 O1667 O 0.41462 0.89500 0.51218
 O1668 O 0.38875 0.87030 0.51018
 C1669 C 0.40625 0.87732 0.51853
 C1670 C 0.41681 0.86510 0.53606
 C1671 C 0.40832 0.84511 0.54292
 H1672 H 0.39419 0.83827 0.53504
 O1673 O 0.57180 0.97357 0.60876
 O1674 O 0.59593 0.97169 0.63470
 C1675 C 0.57857 0.96493 0.62592
 C1676 C 0.56653 0.94633 0.63520
 C1677 C 0.57282 0.93729 0.65489
 H1678 H 0.58576 0.94491 0.66390
 O1679 O 0.41724 1.01994 0.60394
 O1680 O 0.39151 1.01884 0.62898
 C1681 C 0.40947 1.02633 0.62194
 C1682 C 0.42124 1.04297 0.63455
 C1683 C 0.41443 1.04849 0.65555
 H1684 H 0.40074 1.04007 0.66282
 O1685 O 0.47739 1.10610 0.58009
 O1686 O 0.47681 1.13026 0.60645
 C1687 C 0.46996 1.12346 0.58836
 C1688 C 0.45277 1.13562 0.57719
 C1689 C 0.44585 1.15572 0.58526
 H1690 H 0.45371 1.16268 0.59929
 O1691 O 0.51465 0.88839 0.56963
 O1692 O 0.51213 0.86241 0.59363
 C1693 C 0.52083 0.87029 0.57676
 C1694 C 0.53894 0.85876 0.56587
 C1695 C 0.54541 0.83837 0.57293
 H1696 H 0.53630 0.83048 0.58571
 O1697 O 0.60388 0.91935 0.51945
 O1698 O 0.62940 0.89441 0.51917
 C1699 C 0.62130 0.91171 0.52702
 C1700 C 0.63211 0.92289 0.54529
 C1701 C 0.65309 0.91680 0.55134
 H1702 H 0.66153 0.90424 0.54231
 O1703 O 0.38956 1.08148 0.52129
 O1704 O 0.36491 1.10723 0.52193
 C1705 C 0.37195 1.08931 0.52882
 C1706 C 0.36016 1.07758 0.54620
 C1707 C 0.34041 1.08531 0.55503
 H1708 H 0.33310 1.09963 0.54842
 Cu1709 Cu 0.49393 0.90615 0.58212
 Cu1710 Cu 0.49094 0.87504 0.61102
 Cu1711 Cu 0.49778 1.08796 0.59223
 Cu1712 Cu 0.49698 1.11704 0.62384
 Cu1713 Cu 0.40399 0.91349 0.49137
 Cu1714 Cu 0.37301 0.88386 0.48877
 Cu1715 Cu 0.58793 0.90731 0.49721
 Cu1716 Cu 0.61841 0.87728 0.49689
 Cu1717 Cu 0.40832 1.09359 0.50122
 Cu1718 Cu 0.37894 1.12469 0.50168
 Cu1719 Cu 0.59455 1.08990 0.50724
 Cu1720 Cu 0.62608 1.11896 0.51046
 Cu1721 Cu 0.40483 1.00012 0.58521
 Cu1722 Cu 0.37380 0.99891 0.61517
 Cu1723 Cu 0.58530 0.99532 0.59321
 Cu1724 Cu 0.61438 0.99310 0.62422
 C1725 C 0.54935 0.93678 0.62370
 H1726 H 0.54463 0.94347 0.60838
 C1727 C 0.56229 0.91872 0.66295
 C1728 C 0.43893 1.05399 0.62530
 H1729 H 0.44411 1.04997 0.60900
 C1730 C 0.42487 1.06501 0.66719
 C1731 C 0.36950 1.05890 0.55489
 H1732 H 0.38491 1.05307 0.54856
 C1733 C 0.33016 1.07440 0.57227
 C1734 C 0.62144 0.93932 0.55706
 H1735 H 0.60519 0.94406 0.55255
 C1736 C 0.66330 0.92650 0.56908
 C1737 C 0.55089 0.86884 0.54941
 H1738 H 0.54598 0.88467 0.54404
 C1739 C 0.56405 0.82836 0.56437
 C1740 C 0.44235 1.12670 0.55915
 H1741 H 0.44743 1.11104 0.55302
 C1742 C 0.42854 1.16677 0.57585
 C1743 C 0.43672 0.94122 0.61815
 H1744 H 0.44082 0.94558 0.60172
 C1745 C 0.42589 0.92934 0.66043
 C1746 C 0.55178 1.05136 0.63006
 H1747 H 0.54740 1.04641 0.61388
 C1748 C 0.56348 1.06512 0.67163
 C1749 C 0.43508 0.87380 0.54659
 H1750 H 0.44156 0.88932 0.54167
 C1751 C 0.41763 0.83404 0.56020
 C1752 C 0.55786 1.12440 0.56324
 H1753 H 0.55267 1.10889 0.55684
 C1754 C 0.57178 1.16406 0.58072
 C1755 C 0.36722 0.94600 0.54788
 H1756 H 0.38409 0.94957 0.54408
 C1757 C 0.32386 0.93652 0.55846
 C1758 C 0.62557 1.05226 0.56364
 H1759 H 0.60947 1.04832 0.55781
 C1760 C 0.66693 1.06299 0.57944
 O1761 O 0.47684 0.41991 0.89459
 O1762 O 0.47655 0.39505 0.86886
 C1763 C 0.46972 0.41287 0.87667
 C1764 C 0.45323 0.42551 0.86495
 C1765 C 0.44691 0.41950 0.84396
 H1766 H 0.45439 0.40571 0.83602
 O1767 O 0.52564 0.57385 0.89706
 O1768 O 0.52770 0.59883 0.87201
 C1769 C 0.53406 0.58098 0.87973
 C1770 C 0.55178 0.56867 0.86878
 C1771 C 0.55968 0.57510 0.84847
 H1772 H 0.55188 0.58837 0.84045
 O1773 O 0.39134 0.48050 0.92146
 O1774 O 0.36688 0.48050 0.89572
 C1775 C 0.37385 0.47313 0.91341
 C1776 C 0.36180 0.45567 0.92477
 C1777 C 0.34083 0.44923 0.91825
 H1778 H 0.33311 0.45725 0.90494
 O1779 O 0.61037 0.51226 0.92742
 O1780 O 0.63641 0.51112 0.90270
 C1781 C 0.62871 0.51867 0.92029
 C1782 C 0.64093 0.53550 0.93223
 C1783 C 0.66205 0.54117 0.92566
 H1784 H 0.66978 0.53254 0.91238
 O1785 O 0.41604 0.39095 0.97842
 O1786 O 0.38968 0.36668 0.97747
 C1787 C 0.40791 0.37365 0.97068
 C1788 C 0.41961 0.36202 0.95318
 C1789 C 0.41174 0.34229 0.94476
 H1790 H 0.39709 0.33521 0.95150
 O1791 O 0.58417 0.60118 0.98240
 O1792 O 0.61061 0.62539 0.98254
 C1793 C 0.59276 0.61834 0.97499
 C1794 C 0.58197 0.63008 0.95731
 C1795 C 0.59021 0.65003 0.95025
 H1796 H 0.60431 0.65705 0.95805
 O1797 O 0.42261 0.52268 0.89326
 O1798 O 0.39829 0.52316 0.86741
 C1799 C 0.41578 0.53034 0.87565
 C1800 C 0.42821 0.54807 0.86506
 C1801 C 0.42154 0.55669 0.84525
 H1802 H 0.40760 0.54972 0.83725
 O1803 O 0.57943 0.47218 0.89618
 O1804 O 0.60533 0.47101 0.87132
 C1805 C 0.58706 0.46456 0.87858
 C1806 C 0.57465 0.44773 0.86685
 C1807 C 0.58140 0.44020 0.84636
 H1808 H 0.59561 0.44720 0.83861
 O1809 O 0.51740 0.38874 0.92448
 O1810 O 0.51701 0.36375 0.89890
 C1811 C 0.52425 0.37091 0.91674
 C1812 C 0.54106 0.35855 0.92835
 C1813 C 0.54713 0.33791 0.92110
 H1814 H 0.53898 0.33071 0.90736
 O1815 O 0.48367 0.60564 0.92575
 O1816 O 0.48566 0.63089 0.90097
 C1817 C 0.47716 0.62345 0.91817
 C1818 C 0.45914 0.63522 0.92924
 C1819 C 0.45360 0.65638 0.92323
 H1820 H 0.46299 0.66452 0.91085
 O1821 O 0.39053 0.57895 0.97960
 O1822 O 0.36589 0.60470 0.97839
 C1823 C 0.37330 0.58670 0.97170
 C1824 C 0.36201 0.57489 0.95425
 C1825 C 0.34113 0.58104 0.94796
 H1826 H 0.33290 0.59409 0.95643
 O1827 O 0.60281 0.41360 0.98354
 O1828 O 0.62761 0.38801 0.98446
 C1829 C 0.62066 0.40562 0.97678
 C1830 C 0.63320 0.41660 0.95945
 C1831 C 0.65390 0.40913 0.95341
 H1832 H 0.66102 0.39575 0.96196
 O1833 O 0.48311 0.57655 0.89542
 O1834 O 0.48522 0.60169 0.87053
 C1835 C 0.47654 0.58456 0.87785
 C1836 C 0.45817 0.57427 0.86614
 C1837 C 0.45137 0.58248 0.84630
 H1838 H 0.46014 0.59590 0.83915
 O1839 O 0.51913 0.41850 0.89528
 O1840 O 0.51868 0.39355 0.86963
 C1841 C 0.52648 0.41085 0.87760
 C1842 C 0.54462 0.42182 0.86641
 C1843 C 0.55117 0.41493 0.84579
 H1844 H 0.54228 0.40210 0.83767
 O1845 O 0.60790 0.47017 0.92657
 O1846 O 0.63400 0.46895 0.90193
 C1847 C 0.62540 0.46189 0.91925
 C1848 C 0.63552 0.44371 0.93099
 C1849 C 0.65616 0.43569 0.92494
 H1850 H 0.66507 0.44323 0.91187
 O1851 O 0.39163 0.52261 0.92192
 O1852 O 0.36708 0.52274 0.89625
 C1853 C 0.37419 0.52998 0.91408
 C1854 C 0.36244 0.54740 0.92575
 C1855 C 0.34163 0.55404 0.91934
 H1856 H 0.33373 0.54589 0.90602
 O1857 O 0.42218 0.60675 0.98006
 O1858 O 0.39785 0.63278 0.97862
 C1859 C 0.41576 0.62446 0.97228
 C1860 C 0.42922 0.63550 0.95570
 C1861 C 0.42436 0.65671 0.94982
 H1862 H 0.41099 0.66511 0.95771
 O1863 O 0.57217 0.38479 0.98265
 O1864 O 0.59670 0.35896 0.98329
 C1865 C 0.57963 0.36708 0.97524
 C1866 C 0.56846 0.35647 0.95670
 C1867 C 0.57471 0.33592 0.94877
 H1868 H 0.58755 0.32717 0.95664
 O1869 O 0.58113 0.51433 0.89771
 O1870 O 0.60696 0.51329 0.87279
 C1871 C 0.58949 0.52150 0.88037
 C1872 C 0.57893 0.53977 0.86913
 C1873 C 0.58658 0.54656 0.84884
 H1874 H 0.60004 0.53815 0.84112
 O1875 O 0.42267 0.48047 0.89332
 O1876 O 0.39850 0.48079 0.86731
 C1877 C 0.41574 0.47325 0.87544
 C1878 C 0.42744 0.45548 0.86427
 C1879 C 0.42186 0.44961 0.84317
 H1880 H 0.40964 0.45874 0.83473
 O1881 O 0.52651 0.60442 0.92587
 O1882 O 0.52844 0.62955 0.90096
 C1883 C 0.53519 0.62155 0.91843
 C1884 C 0.55377 0.63183 0.92982
 C1885 C 0.56239 0.65178 0.92292
 H1886 H 0.55461 0.66015 0.90990
 O1887 O 0.47499 0.39001 0.92356
 O1888 O 0.47472 0.36511 0.89787
 C1889 C 0.46716 0.37277 0.91544
 C1890 C 0.44873 0.36181 0.92619
 C1891 C 0.44073 0.34221 0.91798
 H1892 H 0.44871 0.33470 0.90418
 O1893 O 0.61234 0.57012 0.98394
 O1894 O 0.63891 0.59417 0.98408
 C1895 C 0.63062 0.57672 0.97684
 C1896 C 0.64191 0.56418 0.95960
 C1897 C 0.66295 0.56995 0.95246
 H1898 H 0.67145 0.58323 0.96020
 O1899 O 0.38905 0.42293 0.97804
 O1900 O 0.36251 0.39882 0.97732
 C1901 C 0.37120 0.41616 0.97039
 C1902 C 0.36056 0.42831 0.95302
 C1903 C 0.33950 0.42265 0.94672
 H1904 H 0.33082 0.40987 0.95507
 Cu1905 Cu 0.49711 0.40679 0.91207
 Cu1906 Cu 0.49674 0.37682 0.88127
 Cu1907 Cu 0.50452 0.58768 0.91354
 Cu1908 Cu 0.50697 0.61773 0.88366
 Cu1909 Cu 0.40947 0.50160 0.91006
 Cu1910 Cu 0.38029 0.50178 0.87903
 Cu1911 Cu 0.59211 0.49230 0.91441
 Cu1912 Cu 0.62328 0.49104 0.88471
 C1913 C 0.44339 0.44355 0.87494
 H1914 H 0.44773 0.44800 0.89128
 C1915 C 0.43127 0.43161 0.83302
 C1916 C 0.56144 0.55090 0.87891
 H1917 H 0.55559 0.54599 0.89466
 C1918 C 0.57720 0.56426 0.83844
 C1919 C 0.37151 0.44505 0.94219
 H1920 H 0.38781 0.44951 0.94705
 C1921 C 0.32963 0.43278 0.92935
 C1922 C 0.63110 0.54687 0.94941
 H1923 H 0.61470 0.54264 0.95440
 C1924 C 0.67304 0.55847 0.93543
 C1925 C 0.43827 0.37145 0.94395
 H1926 H 0.44425 0.38678 0.95011
 C1927 C 0.42238 0.33226 0.92715
 C1928 C 0.56364 0.62120 0.94709
 H1929 H 0.55731 0.60572 0.95230
 C1930 C 0.58071 0.66097 0.93302
 C1931 C 0.44658 0.55696 0.87528
 H1932 H 0.45163 0.55070 0.89067
 C1933 C 0.43303 0.57404 0.83579
 C1934 C 0.55621 0.43844 0.87668
 H1935 H 0.55121 0.44371 0.89268
 C1936 C 0.56961 0.42378 0.83580
 C1937 C 0.55161 0.36755 0.94630
 H1938 H 0.54697 0.38353 0.95191
 C1939 C 0.56393 0.32653 0.93097
 C1940 C 0.44683 0.62496 0.94554
 H1941 H 0.45068 0.60854 0.95001
 C1942 C 0.43628 0.66719 0.93362
 C1943 C 0.37241 0.55789 0.94326
 H1944 H 0.38861 0.55318 0.94802
 C1945 C 0.33090 0.57086 0.93049
 C1946 C 0.62423 0.43403 0.94828
 H1947 H 0.60820 0.43980 0.95283
 C1948 C 0.66544 0.41836 0.93616
 O1949 O 0.51153 0.42131 1.10854
 O1950 O 0.50920 0.39708 1.13434
 C1951 C 0.51738 0.41435 1.12674
 C1952 C 0.53414 0.42621 1.13902
 C1953 C 0.53874 0.42037 1.16025
 H1954 H 0.52944 0.40759 1.16792
 O1955 O 0.47485 0.58076 1.10358
 O1956 O 0.47486 0.60553 1.12938
 C1957 C 0.46721 0.58813 1.12124
 C1958 C 0.44930 0.57628 1.13234
 C1959 C 0.44295 0.58198 1.15350
 H1960 H 0.45131 0.59496 1.16187
 O1961 O 0.38578 0.52222 1.07550
 O1962 O 0.36024 0.52320 1.10073
 C1963 C 0.36822 0.53009 1.08314
 C1964 C 0.35733 0.54793 1.07188
 C1965 C 0.33664 0.55479 1.07852
 H1966 H 0.32817 0.54627 1.09132
 O1967 O 0.59998 0.47505 1.08145
 O1968 O 0.62392 0.47412 1.10763
 C1969 C 0.61675 0.46683 1.08976
 C1970 C 0.62788 0.44845 1.07872
 C1971 C 0.64826 0.44160 1.08585
 H1972 H 0.65605 0.45011 1.09905
 O1973 O 0.57121 0.38462 1.02499
 O1974 O 0.59588 0.35894 1.02605
 C1975 C 0.57827 0.36721 1.03304
 C1976 C 0.56623 0.35729 1.05136
 C1977 C 0.57374 0.33844 1.06153
 H1978 H 0.58818 0.33043 1.05540
 O1979 O 0.41938 0.60938 1.02171
 O1980 O 0.39487 0.63523 1.02033
 C1981 C 0.41213 0.62754 1.02819
 C1982 C 0.42374 0.63963 1.04526
 C1983 C 0.41684 0.66026 1.05177
 H1984 H 0.40326 0.66773 1.04376
 O1985 O 0.41416 0.48013 1.10573
 O1986 O 0.38865 0.48153 1.13098
 C1987 C 0.40608 0.47344 1.12343
 C1988 C 0.41658 0.45554 1.13495
 C1989 C 0.40807 0.44834 1.15475
 H1990 H 0.39432 0.45662 1.16209
 O1991 O 0.57177 0.51961 1.10958
 O1992 O 0.59536 0.51894 1.13607
 C1993 C 0.57866 0.52710 1.12738
 C1994 C 0.56719 0.54569 1.13771
 C1995 C 0.57258 0.55301 1.15861
 H1996 H 0.58504 0.54483 1.16761
 O1997 O 0.47063 0.39133 1.07766
 O1998 O 0.46874 0.36658 1.10299
 C1999 C 0.46266 0.37390 1.08497
 C2000 C 0.44579 0.36235 1.07257
 C2001 C 0.43988 0.34110 1.07767
 H2002 H 0.44828 0.33265 1.09033
 O2003 O 0.51962 0.60937 1.07616
 O2004 O 0.51996 0.63462 1.10146
 C2005 C 0.52784 0.62648 1.08415
 C2006 C 0.54718 0.63632 1.07334
 C2007 C 0.55497 0.65708 1.07906
 H2008 H 0.54633 0.66650 1.09115
 O2009 O 0.38654 0.42216 1.01992
 O2010 O 0.36031 0.39774 1.01920
 C2011 C 0.36833 0.41512 1.02680
 C2012 C 0.35665 0.42682 1.04426
 C2013 C 0.33643 0.41926 1.05162
 H2014 H 0.32894 0.40540 1.04381
 O2015 O 0.61137 0.57235 1.02615
 O2016 O 0.63790 0.59642 1.02648
 C2017 C 0.62904 0.57950 1.03406
 C2018 C 0.63882 0.56813 1.05258
 C2019 C 0.65906 0.57447 1.06121
 H2020 H 0.66814 0.58739 1.05363
 O2021 O 0.51702 0.57966 1.10526
 O2022 O 0.51709 0.60475 1.13076
 C2023 C 0.52386 0.58680 1.12322
 C2024 C 0.54006 0.57442 1.13550
 C2025 C 0.54521 0.58098 1.15649
 H2026 H 0.53684 0.59462 1.16381
 O2027 O 0.46929 0.42120 1.10727
 O2028 O 0.46712 0.39653 1.13264
 C2029 C 0.46073 0.41412 1.12458
 C2030 C 0.44300 0.42630 1.13534
 C2031 C 0.43417 0.41920 1.15505
 H2032 H 0.44056 0.40474 1.16220
 O2033 O 0.60439 0.51716 1.08278
 O2034 O 0.62813 0.51622 1.10914
 C2035 C 0.62206 0.52367 1.09121
 C2036 C 0.63532 0.54052 1.08035
 C2037 C 0.65558 0.54684 1.08857
 H2038 H 0.66196 0.53873 1.10255
 O2039 O 0.38515 0.47992 1.07580
 O2040 O 0.35962 0.48086 1.10102
 C2041 C 0.36735 0.47283 1.08363
 C2042 C 0.35608 0.45467 1.07250
 C2043 C 0.33602 0.44640 1.08011
 H2044 H 0.32813 0.45380 1.09399
 O2045 O 0.58166 0.60188 1.02423
 O2046 O 0.60799 0.62620 1.02440
 C2047 C 0.58953 0.61958 1.03115
 C2048 C 0.57722 0.63259 1.04730
 C2049 C 0.58442 0.65334 1.05290
 H2050 H 0.59880 0.65992 1.04504
 O2051 O 0.41534 0.39181 1.02038
 O2052 O 0.38926 0.36722 1.01954
 C2053 C 0.40695 0.37439 1.02733
 C2054 C 0.41795 0.36270 1.04478
 C2055 C 0.41164 0.34167 1.05062
 H2056 H 0.39850 0.33356 1.04224
 O2057 O 0.57027 0.47735 1.11140
 O2058 O 0.59399 0.47660 1.13778
 C2059 C 0.57641 0.46999 1.12942
 C2060 C 0.56320 0.45321 1.14040
 C2061 C 0.56791 0.44683 1.16157
 H2062 H 0.58083 0.45485 1.17031
 O2063 O 0.41669 0.52226 1.10353
 O2064 O 0.39134 0.52350 1.12895
 C2065 C 0.40932 0.53023 1.12104
 C2066 C 0.42154 0.54766 1.13225
 C2067 C 0.41589 0.55334 1.15348
 H2068 H 0.40304 0.54457 1.16178
 O2069 O 0.47688 0.61188 1.07611
 O2070 O 0.47696 0.63696 1.10159
 C2071 C 0.46961 0.62953 1.08398
 C2072 C 0.45184 0.64082 1.07276
 C2073 C 0.44437 0.66135 1.07954
 H2074 H 0.45232 0.66968 1.09272
 O2075 O 0.51285 0.39022 1.08023
 O2076 O 0.51078 0.36600 1.10604
 C2077 C 0.51938 0.37282 1.08870
 C2078 C 0.53747 0.36055 1.07867
 C2079 C 0.54514 0.34187 1.08855
 H2080 H 0.53723 0.33610 1.10312
 O2081 O 0.60029 0.41489 1.02559
 O2082 O 0.62526 0.38948 1.02668
 C2083 C 0.61751 0.40732 1.03367
 C2084 C 0.62831 0.41928 1.05158
 C2085 C 0.64863 0.41257 1.05927
 H2086 H 0.65676 0.39900 1.05162
 O2087 O 0.38883 0.58029 1.02159
 O2088 O 0.36416 0.60599 1.02052
 C2089 C 0.37104 0.58840 1.02834
 C2090 C 0.35868 0.57710 1.04561
 C2091 C 0.33803 0.58416 1.05286
 H2092 H 0.33056 0.59802 1.04548
 Cu2093 Cu 0.49125 0.40847 1.09082
 Cu2094 Cu 0.48876 0.37907 1.12157
 Cu2095 Cu 0.49709 0.59312 1.08757
 Cu2096 Cu 0.49725 0.62302 1.11830
 Cu2097 Cu 0.40445 0.40933 0.99929
 Cu2098 Cu 0.37274 0.38021 0.99829
 Cu2099 Cu 0.58409 0.40189 1.00408
 Cu2100 Cu 0.61381 0.37128 1.00519
 Cu2101 Cu 0.40759 0.59119 1.00096
 Cu2102 Cu 0.37822 0.62226 0.99923
 Cu2103 Cu 0.59487 0.58386 1.00416
 Cu2104 Cu 0.62653 0.61293 1.00441
 Cu2105 Cu 0.40293 0.50097 1.08757
 Cu2106 Cu 0.37242 0.50251 1.11794
 Cu2107 Cu 0.58422 0.49741 1.09374
 Cu2108 Cu 0.61272 0.49634 1.12525
 C2109 C 0.54624 0.44284 1.12932
 H2110 H 0.54282 0.44730 1.11286
 C2111 C 0.55566 0.43038 1.17155
 C2112 C 0.43847 0.55904 1.12184
 H2113 H 0.44297 0.55470 1.10544
 C2114 C 0.42633 0.57044 1.16412
 C2115 C 0.36808 0.55896 1.05528
 H2116 H 0.38413 0.55367 1.05022
 C2117 C 0.32690 0.57289 1.06933
 C2118 C 0.61810 0.43730 1.06142
 H2119 H 0.60231 0.44243 1.05586
 C2120 C 0.65867 0.42372 1.07639
 C2121 C 0.54791 0.36799 1.05997
 H2122 H 0.54217 0.38263 1.05253
 C2123 C 0.56313 0.33067 1.08023
 C2124 C 0.44141 0.63023 1.05561
 H2125 H 0.44670 0.61425 1.05062
 C2126 C 0.42686 0.67118 1.06895
 C2127 C 0.43425 0.44460 1.12553
 H2128 H 0.44075 0.44991 1.11016
 C2129 C 0.41677 0.43026 1.16499
 C2130 C 0.55088 0.55658 1.12631
 H2131 H 0.54690 0.55146 1.11008
 C2132 C 0.56147 0.57064 1.16805
 C2133 C 0.43502 0.37287 1.05589
 H2134 H 0.43962 0.38928 1.05187
 C2135 C 0.42280 0.33078 1.06688
 C2136 C 0.55846 0.62431 1.05740
 H2137 H 0.55289 0.60821 1.05313
 C2138 C 0.57360 0.66571 1.06869
 C2139 C 0.36619 0.44471 1.05456
 H2140 H 0.38187 0.45051 1.04891
 C2141 C 0.32617 0.42861 1.06963
 C2142 C 0.62723 0.55110 1.06227
 H2143 H 0.61151 0.54637 1.05602
 C2144 C 0.66756 0.56384 1.07931
 C2145 C 1.13886 1.11927 1.28710
 C2146 C 1.12018 1.12154 1.27458
 C2147 C 1.11436 1.10695 1.25641
 C2148 C 1.09298 1.10753 1.24881
 C2149 C 1.08678 1.09505 1.23106
 C2150 C 1.10185 1.08145 1.22044
 C2151 C 1.12328 1.08086 1.22800
 C2152 C 1.12953 1.09347 1.24578
 C2153 C 1.09623 1.06913 1.20058
 C2154 C 1.07485 1.06556 1.19406
 H2155 H 1.10851 1.13398 1.27846
 H2156 H 1.08103 1.11799 1.25644
 H2157 H 1.07033 1.09682 1.22544
 H2158 H 1.13534 1.07087 1.21990
 H2159 H 1.14635 1.09299 1.25062
 H2160 H 1.10941 1.06394 1.19004
 H2161 H 1.14905 1.10535 1.28402
 H2162 H 1.06145 1.07022 1.20450
 C2163 C 1.11840 0.63463 0.78673
 C2164 C 1.11618 0.61311 0.78013
 C2165 C 1.10310 0.60638 0.76130
 C2166 C 1.10822 0.58689 0.75079
 C2167 C 1.09674 0.58019 0.73260
 C2168 C 1.07954 0.59272 0.72472
 C2169 C 1.07421 0.61208 0.73543
 C2170 C 1.08573 0.61880 0.75363
 C2171 C 1.06776 0.58675 0.70480
 C2172 C 1.06739 0.56575 0.69643
 H2173 H 1.12489 0.60065 0.78852
 H2174 H 1.12152 0.57705 0.75636
 H2175 H 1.10194 0.56554 0.72448
 H2176 H 1.06107 0.62203 0.72969
 H2177 H 1.08080 0.63359 0.76167
 H2178 H 1.05989 0.59955 0.69608
 H2179 H 1.10971 0.64706 0.77829
 H2180 H 1.07482 0.55284 0.70535
 C2181 C 0.62035 1.11405 0.79746
 C2182 C 0.61091 1.12308 0.77932
 C2183 C 0.60498 1.10981 0.76015
 C2184 C 0.58873 1.11710 0.74636
 C2185 C 0.58328 1.10524 0.72784
 C2186 C 0.59413 1.08583 0.72260
 C2187 C 0.61080 1.07886 0.73608
 C2188 C 0.61614 1.09063 0.75468
 C2189 C 0.58912 1.07326 0.70271
 C2190 C 0.56855 1.07356 0.69346
 H2191 H 0.60845 1.14039 0.77877
 H2192 H 0.58024 1.13204 0.74990
 H2193 H 0.57095 1.11167 0.71739
 H2194 H 0.61973 1.06426 0.73218
 H2195 H 0.62942 1.08493 0.76437
 H2196 H 0.60201 1.06394 0.69515
 H2197 H 0.62200 1.09666 0.79811
 H2198 H 0.55571 1.08227 0.70182
 C2199 C 0.62920 0.62693 1.28351
 C2200 C 0.60978 0.63188 1.27325
 C2201 C 0.60363 0.61982 1.25347
 C2202 C 0.58218 0.61258 1.25091
 C2203 C 0.57660 0.59957 1.23321
 C2204 C 0.59234 0.59398 1.21742
 C2205 C 0.61371 0.60156 1.21990
 C2206 C 0.61929 0.61442 1.23764
 C2207 C 0.58712 0.58071 1.19806
 C2208 C 0.56615 0.57910 1.18987
 H2209 H 0.59793 0.64242 1.28085
 H2210 H 0.56990 0.61640 1.26300
 H2211 H 0.56007 0.59365 1.23229
 H2212 H 0.62611 0.59766 1.20797
 H2213 H 0.63591 0.62012 1.23898
 H2214 H 0.60050 0.57418 1.18857
 H2215 H 0.63882 0.61409 1.27620
 H2216 H 0.55303 0.58746 1.19811
 C2217 C 0.87789 0.85895 1.28165
 C2218 C 0.87187 0.87511 1.26726
 C2219 C 0.88458 0.88060 1.24760
 C2220 C 0.88077 0.90057 1.23791
 C2221 C 0.89203 0.90651 1.21924
 C2222 C 0.90759 0.89259 1.20984
 C2223 C 0.91107 0.87238 1.21921
 C2224 C 0.89970 0.86639 1.23789
 C2225 C 0.91944 0.89818 1.18971
 C2226 C 0.92172 0.91941 1.18268
 H2227 H 0.85769 0.88487 1.27047
 H2228 H 0.86892 0.91165 1.24477
 H2229 H 0.88800 0.92180 1.21207
 H2230 H 0.92258 0.86116 1.21200
 H2231 H 0.90257 0.85047 1.24425
 H2232 H 0.92592 0.88513 1.17985
 H2233 H 0.89273 0.85020 1.27820
 H2234 H 0.91576 0.93257 1.19267
 C2235 C 0.87269 0.36153 0.78279
 C2236 C 0.86248 0.37417 0.76731
 C2237 C 0.87309 0.38007 0.74664
 C2238 C 0.86594 0.39857 0.73601
 C2239 C 0.87573 0.40499 0.71669
 C2240 C 0.89300 0.39301 0.70760
 C2241 C 0.89959 0.37404 0.71777
 C2242 C 0.88975 0.36757 0.73709
 C2243 C 0.90401 0.39948 0.68731
 C2244 C 0.90400 0.42069 0.67990
 H2245 H 0.84665 0.38105 0.77045
 H2246 H 0.85281 0.40820 0.74276
 H2247 H 0.86942 0.41915 0.70888
 H2248 H 0.91249 0.36425 0.71083
 H2249 H 0.89508 0.35266 0.74422
 H2250 H 0.91244 0.38710 0.67807
 H2251 H 0.88903 0.35604 0.77923
 H2252 H 0.89584 0.43312 0.68925
 C2253 C 0.36517 0.87724 0.78259
 C2254 C 0.38224 0.87246 0.76862
 C2255 C 0.38654 0.88522 0.74904
 C2256 C 0.40400 0.87932 0.73559
 C2257 C 0.40860 0.89092 0.71693
 C2258 C 0.39591 0.90888 0.71140
 C2259 C 0.37816 0.91457 0.72462
 C2260 C 0.37356 0.90294 0.74337
 C2261 C 0.40039 0.92116 0.69149
 C2262 C 0.42128 0.92237 0.68264
 H2263 H 0.39270 0.85889 0.77201
 H2264 H 0.41405 0.86558 0.73945
 H2265 H 0.42183 0.88542 0.70666
 H2266 H 0.36797 0.92813 0.72052
 H2267 H 0.35984 0.90782 0.75334
 H2268 H 0.38691 0.92863 0.68336
 H2269 H 0.36332 0.86933 0.79351
 H2270 H 0.43470 0.91557 0.69143
 C2271 C 0.37873 0.36379 1.29127
 C2272 C 0.37070 0.37827 1.27607
 C2273 C 0.38248 0.38448 1.25614
 C2274 C 0.37046 0.39278 1.23903
 C2275 C 0.38088 0.40005 1.22036
 C2276 C 0.40369 0.39956 1.21853
 C2277 C 0.41573 0.39086 1.23547
 C2278 C 0.40526 0.38349 1.25418
 C2279 C 0.41528 0.40756 1.19909
 C2280 C 0.40628 0.42275 1.18524
 H2281 H 0.35442 0.38457 1.27787
 H2282 H 0.35288 0.39363 1.24011
 H2283 H 0.37092 0.40584 1.20738
 H2284 H 0.43331 0.39017 1.23440
 H2285 H 0.41510 0.37761 1.26721
 H2286 H 0.43175 0.40203 1.19639
 H2287 H 0.39351 0.35510 1.28728
 H2288 H 0.39090 0.43008 1.18967
 C2289 C 0.87107 1.12247 0.71093
 C2290 C 0.88655 1.13103 0.72514
 C2291 C 0.89402 1.11964 0.74456
 C2292 C 0.90226 1.13194 0.76177
 C2293 C 0.90993 1.12192 0.78024
 C2294 C 0.90992 1.09924 0.78173
 C2295 C 0.90159 1.08693 0.76454
 C2296 C 0.89381 1.09698 0.74607
 C2297 C 0.91783 1.08797 0.80110
 C2298 C 0.93178 1.09756 0.81611
 H2299 H 0.89246 1.14735 0.72322
 H2300 H 0.90255 1.14942 0.76101
 H2301 H 0.91549 1.13208 0.79336
 H2302 H 0.90132 1.06945 0.76530
 H2303 H 0.88808 1.08695 0.73291
 H2304 H 0.91313 1.07122 0.80295
 H2305 H 0.86345 1.10724 0.71511
 H2306 H 0.93855 1.11336 0.81276
 C2307 C 0.88383 0.62821 0.20472
 C2308 C 0.87426 0.61967 0.22328
 C2309 C 0.88726 0.61494 0.24274
 C2310 C 0.88051 0.59842 0.25661
 C2311 C 0.89250 0.59364 0.27501
 C2312 C 0.91147 0.60546 0.28007
 C2313 C 0.91774 0.62254 0.26666
 C2314 C 0.90587 0.62719 0.24813
 C2315 C 0.92430 0.60073 0.29964
 C2316 C 0.92553 0.57984 0.30773
 H2317 H 0.85694 0.61646 0.22373
 H2318 H 0.86600 0.58908 0.25312
 H2319 H 0.88662 0.58093 0.28545
 H2320 H 0.93196 0.63220 0.27044
 H2321 H 0.91108 0.64065 0.23832
 H2322 H 0.93247 0.61390 0.30790
 H2323 H 0.90133 0.63035 0.20442
 H2324 H 0.91802 0.56686 0.29859
 C2325 C 0.36785 1.12675 0.21634
 C2326 C 0.38441 1.13436 0.22987
 C2327 C 0.39111 1.12311 0.24976
 C2328 C 0.41183 1.12741 0.25807
 C2329 C 0.41883 1.11739 0.27686
 C2330 C 0.40515 1.10276 0.28787
 C2331 C 0.38427 1.09876 0.27973
 C2332 C 0.37726 1.10882 0.26095
 C2333 C 0.41157 1.09190 0.30810
 C2334 C 0.43266 1.09214 0.31637
 H2335 H 0.39394 1.14834 0.22544
 H2336 H 0.42272 1.13858 0.24997
 H2337 H 0.43481 1.12155 0.28265
 H2338 H 0.37323 1.08786 0.28800
 H2339 H 0.36087 1.10563 0.25560
 H2340 H 0.39887 1.08366 0.31706
 H2341 H 0.36006 1.11163 0.22051
 H2342 H 0.44549 1.10067 0.30797
 C2343 C 0.36467 0.62246 0.71470
 C2344 C 0.37864 0.63028 0.73070
 C2345 C 0.38555 0.61749 0.74964
 C2346 C 0.40375 0.62453 0.76131
 C2347 C 0.41064 0.61338 0.77951
 C2348 C 0.39945 0.59479 0.78657
 C2349 C 0.38102 0.58795 0.77514
 C2350 C 0.37414 0.59910 0.75689
 C2351 C 0.40583 0.58285 0.80624
 C2352 C 0.42668 0.58400 0.81506
 H2353 H 0.38507 0.64651 0.72944
 H2354 H 0.41266 0.63883 0.75637
 H2355 H 0.42440 0.61979 0.78823
 H2356 H 0.37185 0.57394 0.78040
 H2357 H 0.35961 0.59345 0.74893
 H2358 H 0.39351 0.57298 0.81394
 H2359 H 0.35840 0.60616 0.71596
 H2360 H 0.43900 0.59349 0.80690
 C2361 C 1.11990 0.87467 0.69948
 C2362 C 1.12336 0.89495 0.70899
 C2363 C 1.11378 0.90113 0.73025
 C2364 C 1.12346 0.91782 0.74232
 C2365 C 1.11484 0.92400 0.76244
 C2366 C 1.09610 0.91374 0.77077
 C2367 C 1.08633 0.89722 0.75859
 C2368 C 1.09490 0.89109 0.73851
 C2369 C 1.08654 0.91923 0.79220
 C2370 C 1.09006 0.93887 0.80298
 H2371 H 1.13339 0.90676 0.70075
 H2372 H 1.13796 0.92588 0.73632
 H2373 H 1.12321 0.93646 0.77148
 H2374 H 1.07184 0.88911 0.76455
 H2375 H 1.08637 0.87875 0.72945
 H2376 H 1.07610 0.90720 0.79953
 H2377 H 1.11038 0.86280 0.70816
 H2378 H 1.10053 0.95088 0.79564
 C2379 C 1.15935 0.35070 0.24626
 C2380 C 1.13794 0.35769 0.24873
 C2381 C 1.13127 0.37412 0.26483
 C2382 C 1.11352 0.38735 0.26016
 C2383 C 1.10667 0.40320 0.27480
 C2384 C 1.11720 0.40581 0.29466
 C2385 C 1.13524 0.39287 0.29918
 C2386 C 1.14218 0.37705 0.28445
 C2387 C 1.10906 0.42101 0.31135
 C2388 C 1.08699 0.42568 0.31346
 H2389 H 1.12625 0.35327 0.23647
 H2390 H 1.10503 0.38554 0.24503
 H2391 H 1.09313 0.41333 0.27049
 H2392 H 1.14357 0.39458 0.31441
 H2393 H 1.15571 0.36689 0.28871
 H2394 H 1.11999 0.42585 0.32412
 H2395 H 1.17177 0.35700 0.25688
 H2396 H 1.07563 0.41865 0.30213
 C2397 C 0.61977 0.87364 0.20707
 C2398 C 0.62813 0.88861 0.22192
 C2399 C 0.61640 0.89468 0.24206
 C2400 C 0.62138 0.91448 0.25206
 C2401 C 0.61096 0.92067 0.27124
 C2402 C 0.59521 0.90712 0.28087
 C2403 C 0.59060 0.88711 0.27111
 C2404 C 0.60108 0.88089 0.25196
 C2405 C 0.58414 0.91274 0.30151
 C2406 C 0.58344 0.93369 0.30999
 H2407 H 0.64335 0.89682 0.21879
 H2408 H 0.63344 0.92519 0.24502
 H2409 H 0.61576 0.93583 0.27858
 H2410 H 0.57891 0.87617 0.27841
 H2411 H 0.59744 0.86508 0.24533
 H2412 H 0.57670 0.89972 0.31054
 H2413 H 0.60364 0.86726 0.21024
 H2414 H 0.59069 0.94687 0.30109
 C2415 C 0.64432 0.35762 0.72828
 C2416 C 0.62261 0.35964 0.73460
 C2417 C 0.61617 0.37224 0.75399
 C2418 C 0.59642 0.38346 0.75395
 C2419 C 0.59041 0.39659 0.77143
 C2420 C 0.60393 0.39843 0.78953
 C2421 C 0.62364 0.38712 0.78962
 C2422 C 0.62966 0.37401 0.77211
 C2423 C 0.59777 0.41158 0.80867
 C2424 C 0.57611 0.41502 0.81453
 H2425 H 0.61004 0.35474 0.72344
 H2426 H 0.58585 0.38248 0.74010
 H2427 H 0.57536 0.40551 0.77052
 H2428 H 0.63426 0.38817 0.80342
 H2429 H 0.64477 0.36518 0.77291
 H2430 H 0.61043 0.41632 0.81980
 H2431 H 0.65682 0.36483 0.73821
 H2432 H 0.56339 0.40800 0.80473
 C2433 C 1.29747 1.12326 1.12047
 C2434 C 1.28037 1.11133 1.12941
 C2435 C 1.26083 1.10505 1.11706
 C2436 C 1.24820 1.08755 1.12416
 C2437 C 1.22912 1.08174 1.11347
 C2438 C 1.22225 1.09345 1.09544
 C2439 C 1.23467 1.11119 1.08859
 C2440 C 1.25379 1.11695 1.09923
 C2441 C 1.20169 1.08836 1.08426
 C2442 C 1.19229 1.06779 1.08437
 H2443 H 1.28087 1.10684 1.14622
 H2444 H 1.25302 1.07843 1.13813
 H2445 H 1.21955 1.06850 1.11982
 H2446 H 1.22949 1.12072 1.07503
 H2447 H 1.26256 1.13110 1.09378
 H2448 H 1.19377 1.10138 1.07593
 H2449 H 1.29708 1.12724 1.10353
 H2450 H 1.20070 1.05482 1.09230
 C2451 C 1.28485 0.63597 0.62608
 C2452 C 1.26849 0.62271 0.63464
 C2453 C 1.24880 0.61589 0.62260
 C2454 C 1.23676 0.59814 0.63014
 C2455 C 1.21793 0.59127 0.61960
 C2456 C 1.21067 0.60205 0.60114
 C2457 C 1.22244 0.62009 0.59385
 C2458 C 1.24131 0.62696 0.60440
 C2459 C 1.19051 0.59554 0.58974
 C2460 C 1.18159 0.57474 0.59093
 H2461 H 1.27004 0.61679 0.65089
 H2462 H 1.24191 0.58954 0.64432
 H2463 H 1.20893 0.57785 0.62633
 H2464 H 1.21700 0.62893 0.57994
 H2465 H 1.24958 0.64117 0.59842
 H2466 H 1.18260 0.60765 0.58017
 H2467 H 1.28330 0.64194 0.60986
 H2468 H 1.18994 0.56265 0.60016
 C2469 C 0.79137 1.12952 0.62378
 C2470 C 0.78002 1.11034 0.62799
 C2471 C 0.75950 1.10476 0.61693
 C2472 C 0.75402 1.08296 0.61371
 C2473 C 0.73461 1.07720 0.60357
 C2474 C 0.72004 1.09321 0.59683
 C2475 C 0.72558 1.11502 0.60003
 C2476 C 0.74502 1.12077 0.61008
 C2477 C 0.69904 1.08794 0.58643
 C2478 C 0.68864 1.06793 0.58845
 H2479 H 0.78662 1.09836 0.63861
 H2480 H 0.76492 1.07035 0.61884
 H2481 H 0.73133 1.06022 0.60086
 H2482 H 0.71467 1.12768 0.59504
 H2483 H 0.74840 1.13774 0.61285
 H2484 H 0.69080 1.10092 0.57836
 H2485 H 0.78536 1.13954 0.61093
 H2486 H 0.69581 1.05576 0.59851
 C2487 C 0.78787 0.63585 1.12947
 C2488 C 0.77895 0.61505 1.13069
 C2489 C 0.75845 0.60878 1.11956
 C2490 C 0.74646 0.59091 1.12693
 C2491 C 0.72721 0.58447 1.11671
 C2492 C 0.71964 0.59562 1.09855
 C2493 C 0.73173 0.61340 1.09113
 C2494 C 0.75095 0.61982 1.10133
 C2495 C 0.69909 0.58973 1.08731
 C2496 C 0.68883 0.56958 1.08916
 H2497 H 0.78721 0.60287 1.13992
 H2498 H 0.75185 0.58204 1.14085
 H2499 H 0.71822 0.57104 1.12342
 H2500 H 0.72640 0.62228 1.07719
 H2501 H 0.76001 0.63317 1.09454
 H2502 H 0.69191 0.60185 1.07720
 H2503 H 0.77906 0.64805 1.12082
 H2504 H 0.69620 0.55741 1.09906
 C2505 C 1.29146 0.85686 0.87992
 C2506 C 1.27514 0.87049 0.87235
 C2507 C 1.25628 0.87795 0.88534
 C2508 C 1.23826 0.88609 0.87444
 C2509 C 1.22068 0.89484 0.88582
 C2510 C 1.22088 0.89596 0.90846
 C2511 C 1.23861 0.88727 0.91946
 C2512 C 1.25627 0.87846 0.90802
 C2513 C 1.20269 0.90579 0.92081
 C2514 C 1.18971 0.92198 0.91217
 H2515 H 1.27528 0.87527 0.85565
 H2516 H 1.23781 0.88578 0.85698
 H2517 H 1.20694 0.90060 0.87680
 H2518 H 1.23902 0.88779 0.93691
 H2519 H 1.27005 0.87271 0.91698
 H2520 H 1.20025 0.90082 0.93733
 H2521 H 1.28901 0.84928 0.89543
 H2522 H 1.19430 0.92872 0.89673
 C2523 C 1.29363 0.38565 0.37171
 C2524 C 1.28232 0.38374 0.39129
 C2525 C 1.26253 0.39638 0.39635
 C2526 C 1.25713 0.40064 0.41798
 C2527 C 1.23799 0.41159 0.42341
 C2528 C 1.22362 0.41811 0.40723
 C2529 C 1.22926 0.41427 0.38557
 C2530 C 1.24844 0.40338 0.38014
 C2531 C 1.20249 0.42842 0.41235
 C2532 C 1.19139 0.42487 0.43176
 H2533 H 1.28843 0.37360 0.40392
 H2534 H 1.26776 0.39547 0.43074
 H2535 H 1.23461 0.41490 0.44026
 H2536 H 1.21848 0.41915 0.37282
 H2537 H 1.25177 0.39990 0.36331
 H2538 H 1.19452 0.43704 0.39959
 H2539 H 1.28854 0.39826 0.36089
 H2540 H 1.19845 0.41417 0.44344
 C2541 C 0.78645 0.87350 0.35885
 C2542 C 0.77769 0.87399 0.37974
 C2543 C 0.75791 0.88642 0.38581
 C2544 C 0.74606 0.88025 0.40419
 C2545 C 0.72730 0.89140 0.41054
 C2546 C 0.72014 0.90936 0.39880
 C2547 C 0.73201 0.91558 0.38042
 C2548 C 0.75078 0.90437 0.37404
 C2549 C 0.69998 0.92127 0.40477
 C2550 C 0.69099 0.92093 0.42553
 H2551 H 0.78524 0.86462 0.39221
 H2552 H 0.75113 0.86647 0.41352
 H2553 H 0.71829 0.88550 0.42434
 H2554 H 0.72685 0.92928 0.37106
 H2555 H 0.75975 0.91009 0.36013
 H2556 H 0.69184 0.93016 0.39228
 H2557 H 0.77865 0.88272 0.34642
 H2558 H 0.69948 0.91253 0.43810
 C2559 C 0.78430 0.36465 0.86436
 C2560 C 0.77713 0.36680 0.88573
 C2561 C 0.75645 0.37777 0.89173
 C2562 C 0.74605 0.37252 0.91123
 C2563 C 0.72662 0.38261 0.91746
 C2564 C 0.71729 0.39859 0.90444
 C2565 C 0.72780 0.40393 0.88500
 C2566 C 0.74720 0.39378 0.87875
 C2567 C 0.69645 0.40952 0.91011
 C2568 C 0.68722 0.40948 0.93081
 H2569 H 0.78681 0.36029 0.89857
 H2570 H 0.75284 0.36029 0.92156
 H2571 H 0.71889 0.37745 0.93227
 H2572 H 0.72107 0.41616 0.87465
 H2573 H 0.75503 0.39888 0.86395
 H2574 H 0.68800 0.41767 0.89734
 H2575 H 0.77406 0.37065 0.85169
 H2576 H 0.69563 0.40150 0.94368
 C2577 C 0.71443 0.87135 1.13249
 C2578 C 0.72292 0.87168 1.11148
 C2579 C 0.74363 0.88285 1.10561
 C2580 C 0.75433 0.87709 1.08631
 C2581 C 0.77365 0.88746 1.08001
 C2582 C 0.78260 0.90417 1.09278
 C2583 C 0.77189 0.90992 1.11207
 C2584 C 0.75258 0.89956 1.11837
 C2585 C 0.80323 0.91548 1.08693
 C2586 C 0.81183 0.91592 1.06596
 H2587 H 0.71406 0.86365 1.09870
 H2588 H 0.74784 0.86432 1.07614
 H2589 H 0.78162 0.88199 1.06535
 H2590 H 0.77836 0.92270 1.12223
 H2591 H 0.74461 0.90508 1.13300
 H2592 H 0.81183 0.92374 1.09973
 H2593 H 0.72357 0.87899 1.14529
 H2594 H 0.80300 0.90793 1.05316
 C2595 C 0.71284 0.37774 0.63408
 C2596 C 0.71999 0.37648 0.61264
 C2597 C 0.73899 0.38895 0.60492
 C2598 C 0.74028 0.39494 0.58320
 C2599 C 0.75825 0.40654 0.57548
 C2600 C 0.77538 0.41202 0.58939
 C2601 C 0.77403 0.40605 0.61109
 C2602 C 0.75615 0.39446 0.61877
 C2603 C 0.79498 0.42370 0.58200
 C2604 C 0.80258 0.42300 0.56075
 H2605 H 0.71116 0.36712 0.60080
 H2606 H 0.72726 0.39082 0.57224
 H2607 H 0.75853 0.41132 0.55876
 H2608 H 0.78709 0.40998 0.62207
 H2609 H 0.75609 0.38945 0.63543
 H2610 H 0.80509 0.43099 0.59429
 H2611 H 0.72057 0.38966 0.64441
 H2612 H 0.79389 0.41353 0.54885
 C2613 C 0.19578 0.87985 0.60437
 C2614 C 0.21156 0.89389 0.61264
 C2615 C 0.23212 0.89839 0.60075
 C2616 C 0.24303 0.91797 0.60449
 C2617 C 0.26249 0.92266 0.59361
 C2618 C 0.27149 0.90778 0.57869
 C2619 C 0.26090 0.88793 0.57545
 C2620 C 0.24146 0.88323 0.58635
 C2621 C 0.29243 0.91188 0.56732
 C2622 C 0.30103 0.93257 0.56475
 H2623 H 0.20898 0.90224 0.62782
 H2624 H 0.23646 0.92970 0.61586
 H2625 H 0.27058 0.93774 0.59742
 H2626 H 0.26774 0.87596 0.56449
 H2627 H 0.23411 0.86752 0.58376
 H2628 H 0.30171 0.89813 0.56152
 H2629 H 0.19864 0.87342 0.58829
 H2630 H 0.29172 0.94645 0.57008
 C2631 C 0.23075 0.35501 1.15333
 C2632 C 0.23495 0.35657 1.13120
 C2633 C 0.25102 0.37241 1.12263
 C2634 C 0.26157 0.36820 1.10289
 C2635 C 0.27717 0.38262 1.09478
 C2636 C 0.28234 0.40177 1.10616
 C2637 C 0.27151 0.40617 1.12568
 C2638 C 0.25583 0.39184 1.13370
 C2639 C 0.29973 0.41672 1.09875
 C2640 C 0.30560 0.41856 1.07709
 H2641 H 0.22647 0.34634 1.11980
 H2642 H 0.25810 0.35346 1.09398
 H2643 H 0.28560 0.37834 1.07996
 H2644 H 0.27513 0.42080 1.13470
 H2645 H 0.24740 0.39624 1.14848
 H2646 H 0.30860 0.42583 1.11081
 H2647 H 0.24084 0.36475 1.16386
 H2648 H 0.29612 0.40992 1.06515
 C2649 C 0.71430 1.12144 0.86759
 C2650 C 0.72895 1.13020 0.88246
 C2651 C 0.74945 1.11931 0.88824
 C2652 C 0.75902 1.12437 0.90808
 C2653 C 0.77839 1.11455 0.91414
 C2654 C 0.78863 1.09936 0.90041
 C2655 C 0.77938 1.09476 0.88031
 C2656 C 0.76002 1.10463 0.87422
 C2657 C 0.80934 1.08876 0.90603
 C2658 C 0.81692 1.08745 0.92711
 H2659 H 0.72523 1.14497 0.89110
 H2660 H 0.75146 1.13596 0.91897
 H2661 H 0.78537 1.11932 0.92938
 H2662 H 0.78718 1.08350 0.86923
 H2663 H 0.75372 1.10098 0.85839
 H2664 H 0.81901 1.08197 0.89298
 H2665 H 0.71806 1.10572 0.86075
 H2666 H 0.80732 1.09408 0.94027
 C2667 C 0.70954 0.61817 0.36775
 C2668 C 0.72593 0.62805 0.37971
 C2669 C 0.74610 0.61668 0.38542
 C2670 C 0.75774 0.62374 0.40347
 C2671 C 0.77690 0.61341 0.40929
 C2672 C 0.78481 0.59577 0.39707
 C2673 C 0.77358 0.58919 0.37859
 C2674 C 0.75440 0.59951 0.37279
 C2675 C 0.80511 0.58454 0.40265
 C2676 C 0.81296 0.58418 0.42362
 H2677 H 0.72408 0.64465 0.38508
 H2678 H 0.75194 0.63725 0.41313
 H2679 H 0.78563 0.61961 0.42308
 H2680 H 0.77964 0.57600 0.36865
 H2681 H 0.74644 0.59423 0.35818
 H2682 H 0.81409 0.57651 0.38980
 H2683 H 0.71129 0.60144 0.36283
 H2684 H 0.80370 0.59186 0.43647
 C2685 C 0.21489 1.14504 0.37426
 C2686 C 0.22935 1.12806 0.36995
 C2687 C 0.24865 1.12327 0.38317
 C2688 C 0.26508 1.11043 0.37392
 C2689 C 0.28318 1.10457 0.38582
 C2690 C 0.28517 1.11117 0.40747
 C2691 C 0.26907 1.12446 0.41666
 C2692 C 0.25083 1.13032 0.40471
 C2693 C 0.30401 1.10445 0.42045
 C2694 C 0.31397 1.08448 0.41687
 H2695 H 0.22749 1.11823 0.35563
 H2696 H 0.26392 1.10488 0.35734
 H2697 H 0.29568 1.09500 0.37793
 H2698 H 0.27033 1.12985 0.43327
 H2699 H 0.23835 1.13986 0.41262
 H2700 H 0.30980 1.11535 0.43287
 H2701 H 0.21860 1.15587 0.38753
 H2702 H 0.30671 1.07355 0.40522
 C2703 C 0.21073 0.62038 0.86072
 C2704 C 0.22452 0.62550 0.87792
 C2705 C 0.24373 0.61261 0.88414
 C2706 C 0.25351 0.61745 0.90395
 C2707 C 0.27205 0.60653 0.91047
 C2708 C 0.28127 0.59020 0.89738
 C2709 C 0.27167 0.58545 0.87744
 C2710 C 0.25309 0.59650 0.87084
 C2711 C 0.30149 0.57887 0.90347
 C2712 C 0.30899 0.57835 0.92463
 H2713 H 0.22118 0.63936 0.88805
 H2714 H 0.24692 0.63000 0.91439
 H2715 H 0.27933 0.61149 0.92551
 H2716 H 0.27867 0.57324 0.86686
 H2717 H 0.24656 0.59259 0.85517
 H2718 H 0.31108 0.57139 0.89072
 H2719 H 0.21380 0.60563 0.85174
 H2720 H 0.29923 0.58535 0.93748
 C2721 C 1.13513 1.27908 1.15349
 C2722 C 1.14132 1.26375 1.13797
 C2723 C 1.12671 1.24589 1.13091
 C2724 C 1.13061 1.23582 1.11091
 C2725 C 1.11762 1.21853 1.10398
 C2726 C 1.10035 1.21084 1.11698
 C2727 C 1.09675 1.22059 1.13720
 C2728 C 1.10971 1.23793 1.14411
 C2729 C 1.08683 1.19194 1.11045
 C2730 C 1.08424 1.18588 1.08891
 H2731 H 1.15747 1.26458 1.13089
 H2732 H 1.14385 1.24128 1.10063
 H2733 H 1.12163 1.21091 1.08870
 H2734 H 1.08391 1.21469 1.14774
 H2735 H 1.10668 1.24459 1.16003
 H2736 H 1.07939 1.18222 1.12296
 H2737 H 1.11875 1.27848 1.16000
 H2738 H 1.09112 1.19607 1.07648
 C2739 C 1.10778 0.80118 0.60514
 C2740 C 1.10037 0.78342 0.61684
 C2741 C 1.09512 0.76231 0.60677
 C2742 C 1.08211 0.74768 0.61830
 C2743 C 1.07775 0.72712 0.60991
 C2744 C 1.08639 0.72077 0.58974
 C2745 C 1.09972 0.73524 0.57837
 C2746 C 1.10404 0.75583 0.58674
 C2747 C 1.08263 0.69894 0.58062
 C2748 C 1.06411 0.68679 0.58565
 H2749 H 1.09922 0.78457 0.63424
 H2750 H 1.07546 0.75211 0.63397
 H2751 H 1.06813 0.71612 0.61958
 H2752 H 1.10689 0.73057 0.56300
 H2753 H 1.11489 0.76626 0.57773
 H2754 H 1.09475 0.69264 0.56953
 H2755 H 1.10866 0.80019 0.58773
 H2756 H 1.05186 0.69388 0.59615
 C2757 C 0.63399 1.28775 0.62918
 C2758 C 0.62473 1.26950 0.63866
 C2759 C 0.61822 1.25024 0.62591
 C2760 C 0.60175 1.23671 0.63393
 C2761 C 0.59537 1.21828 0.62240
 C2762 C 0.60550 1.21295 0.60260
 C2763 C 0.62246 1.22609 0.59492
 C2764 C 0.62875 1.24460 0.60639
 C2765 C 0.59932 1.19341 0.59013
 C2766 C 0.57833 1.18476 0.59098
 H2767 H 0.62213 1.26907 0.65593
 H2768 H 0.59374 1.24046 0.64915
 H2769 H 0.58285 1.20805 0.62929
 H2770 H 0.63082 1.22206 0.57996
 H2771 H 0.64215 1.25412 0.60013
 H2772 H 0.61166 1.18594 0.58003
 H2773 H 0.63586 1.28810 0.61181
 H2774 H 0.56611 1.19305 0.60060
 C2775 C 0.61781 0.79727 1.11730
 C2776 C 0.62764 0.77795 1.11093
 C2777 C 0.61489 0.75814 1.10587
 C2778 C 0.62430 0.74205 1.09279
 C2779 C 0.61299 0.72290 1.08827
 C2780 C 0.59196 0.71937 1.09685
 C2781 C 0.58281 0.73516 1.11046
 C2782 C 0.59408 0.75438 1.11489
 C2783 C 0.57970 0.69910 1.09246
 C2784 C 0.58262 0.68751 1.07327
 H2785 H 0.64523 0.77700 1.11043
 H2786 H 0.64049 0.74428 1.08608
 H2787 H 0.62100 0.71072 1.07845
 H2788 H 0.56686 0.73265 1.11764
 H2789 H 0.58662 0.76593 1.12584
 H2790 H 0.56827 0.69341 1.10453
 H2791 H 0.60024 0.79834 1.11722
 H2792 H 0.59336 0.69425 1.06110
 C2793 C 0.88537 1.29811 0.88005
 C2794 C 0.87695 1.28022 0.89083
 C2795 C 0.89081 1.26186 0.89728
 C2796 C 0.88381 1.24844 0.91408
 C2797 C 0.89606 1.23044 0.91988
 C2798 C 0.91558 1.22541 0.90886
 C2799 C 0.92234 1.23858 0.89178
 C2800 C 0.91017 1.25663 0.88605
 C2801 C 0.92844 1.20592 0.91395
 C2802 C 0.92801 1.19660 0.93434
 H2803 H 0.85960 1.27910 0.89386
 H2804 H 0.86873 1.25180 0.92264
 H2805 H 0.88978 1.22020 0.93256
 H2806 H 0.93704 1.23481 0.88274
 H2807 H 0.91566 1.26599 0.87239
 H2808 H 0.93807 1.19861 0.90115
 H2809 H 0.90280 1.29943 0.87773
 H2810 H 0.91890 1.20457 0.94713
 C2811 C 0.86781 0.78494 0.37300
 C2812 C 0.87868 0.76816 0.36219
 C2813 C 0.88915 0.74961 0.37275
 C2814 C 0.89432 0.74964 0.39479
 C2815 C 0.90539 0.73218 0.40369
 C2816 C 0.91142 0.71432 0.39073
 C2817 C 0.90639 0.71447 0.36874
 C2818 C 0.89538 0.73188 0.35987
 C2819 C 0.92319 0.69544 0.39928
 C2820 C 0.92321 0.68992 0.42105
 H2821 H 0.87936 0.76841 0.34474
 H2822 H 0.89043 0.76331 0.40509
 H2823 H 0.90958 0.73305 0.42056
 H2824 H 0.91095 0.70102 0.35836
 H2825 H 0.89184 0.73153 0.34280
 H2826 H 0.93047 0.68442 0.38766
 H2827 H 0.86427 0.78376 0.39007
 H2828 H 0.91395 0.69956 0.43250
 C2829 C 0.36587 1.29171 0.38529
 C2830 C 0.38640 1.28211 0.38453
 C2831 C 0.39199 1.26217 0.39633
 C2832 C 0.41053 1.25063 0.38974
 C2833 C 0.41640 1.23162 0.40010
 C2834 C 0.40397 1.22382 0.41759
 C2835 C 0.38544 1.23534 0.42423
 C2836 C 0.37958 1.25441 0.41387
 C2837 C 0.40937 1.20337 0.42853
 C2838 C 0.43041 1.19496 0.42863
 H2839 H 0.39899 1.28917 0.37448
 H2840 H 0.42035 1.25616 0.37625
 H2841 H 0.43036 1.22286 0.39395
 H2842 H 0.37556 1.22965 0.43760
 H2843 H 0.36550 1.26301 0.41993
 H2844 H 0.39625 1.19469 0.43640
 H2845 H 0.35328 1.28492 0.39549
 H2846 H 0.44347 1.20417 0.42127
 C2847 C 0.38565 0.78452 0.86271
 C2848 C 0.38669 0.77654 0.88366
 C2849 C 0.39854 0.75666 0.88945
 C2850 C 0.39243 0.74606 0.90845
 C2851 C 0.40271 0.72704 0.91450
 C2852 C 0.41976 0.71834 0.90186
 C2853 C 0.42599 0.72899 0.88289
 C2854 C 0.41561 0.74803 0.87676
 C2855 C 0.43050 0.69774 0.90750
 C2856 C 0.43004 0.68952 0.92837
 H2857 H 0.37776 0.78468 0.89645
 H2858 H 0.37928 0.75228 0.91845
 H2859 H 0.39673 0.71902 0.92880
 H2860 H 0.43900 0.72259 0.87281
 H2861 H 0.42121 0.75596 0.86227
 H2862 H 0.43825 0.68849 0.89467
 H2863 H 0.39482 0.77668 0.84991
 H2864 H 0.42286 0.69901 0.94130
 C2865 C 1.14003 0.71659 0.87208
 C2866 C 1.11913 0.72536 0.87219
 C2867 C 1.11357 0.74652 0.88200
 C2868 C 1.09514 0.75727 0.87455
 C2869 C 1.08918 0.77732 0.88316
 C2870 C 1.10137 0.78693 0.89980
 C2871 C 1.11980 0.77613 0.90731
 C2872 C 1.12583 0.75608 0.89859
 C2873 C 1.09579 0.80830 0.90932
 C2874 C 1.07555 0.81814 0.90696
 H2875 H 1.10618 0.71678 0.86406
 H2876 H 1.08547 0.75027 0.86173
 H2877 H 1.07528 0.78523 0.87632
 H2878 H 1.12949 0.78316 0.92009
 H2879 H 1.13984 0.74807 0.90515
 H2880 H 1.10828 0.81657 0.91843
 H2881 H 1.15297 0.72482 0.88057
 H2882 H 1.06297 0.81012 0.89783
 C2883 C 1.12336 0.21852 0.35307
 C2884 C 1.12264 0.22812 0.37354
 C2885 C 1.11074 0.24829 0.37887
 C2886 C 1.11626 0.25940 0.39785
 C2887 C 1.10559 0.27842 0.40381
 C2888 C 1.08879 0.28663 0.39107
 C2889 C 1.08334 0.27565 0.37197
 C2890 C 1.09408 0.25658 0.36595
 C2891 C 1.07736 0.30694 0.39694
 C2892 C 1.07606 0.31453 0.41819
 H2893 H 1.13157 0.22077 0.38646
 H2894 H 1.12911 0.25349 0.40802
 H2895 H 1.11097 0.28680 0.41819
 H2896 H 1.07056 0.28172 0.36181
 H2897 H 1.08899 0.24834 0.35141
 H2898 H 1.07023 0.31622 0.38414
 H2899 H 1.11406 0.22531 0.34011
 H2900 H 1.08259 0.30476 0.43093
 C2901 C 0.62795 0.70603 0.37610
 C2902 C 0.61718 0.72348 0.36696
 C2903 C 0.61136 0.74332 0.37942
 C2904 C 0.59477 0.75664 0.37183
 C2905 C 0.58907 0.77564 0.38290
 C2906 C 0.59992 0.78181 0.40191
 C2907 C 0.61691 0.76880 0.40918
 C2908 C 0.62258 0.74978 0.39813
 C2909 C 0.59461 0.80209 0.41389
 C2910 C 0.57432 0.81205 0.41267
 H2911 H 0.61291 0.72277 0.35009
 H2912 H 0.58618 0.75235 0.35723
 H2913 H 0.57651 0.78562 0.37616
 H2914 H 0.62586 0.77338 0.42348
 H2915 H 0.63609 0.74054 0.40408
 H2916 H 0.60712 0.80926 0.42384
 H2917 H 0.63160 0.70666 0.39312
 H2918 H 0.56176 0.80432 0.40322
 C2919 C 0.63526 0.21089 0.87132
 C2920 C 0.61385 0.21811 0.87362
 C2921 C 0.60805 0.23810 0.88590
 C2922 C 0.58850 0.24864 0.88138
 C2923 C 0.58244 0.26740 0.89270
 C2924 C 0.59566 0.27590 0.90922
 C2925 C 0.61516 0.26527 0.91381
 C2926 C 0.62125 0.24654 0.90245
 C2927 C 0.59013 0.29610 0.92133
 C2928 C 0.56920 0.30480 0.92213
 H2929 H 0.60081 0.20888 0.86633
 H2930 H 0.57800 0.24251 0.86878
 H2931 H 0.56761 0.27530 0.88804
 H2932 H 0.62569 0.27139 0.92639
 H2933 H 0.63609 0.23858 0.90701
 H2934 H 0.60314 0.30460 0.92950
 H2935 H 0.64819 0.22063 0.87810
 H2936 H 0.55608 0.29617 0.91434
 C2937 C 0.88309 0.70990 1.11994
 C2938 C 0.87298 0.72590 1.10794
 C2939 C 0.88465 0.74557 1.10073
 C2940 C 0.87735 0.75648 1.08248
 C2941 C 0.88772 0.77540 1.07559
 C2942 C 0.90556 0.78387 1.08701
 C2943 C 0.91253 0.77319 1.10551
 C2944 C 0.90225 0.75426 1.11232
 C2945 C 0.91661 0.80423 1.08086
 C2946 C 0.91623 0.81273 1.06008
 H2947 H 0.85604 0.72429 1.10370
 H2948 H 0.86355 0.75034 1.07354
 H2949 H 0.88131 0.78355 1.06171
 H2950 H 0.92596 0.77959 1.11482
 H2951 H 0.90780 0.74684 1.12698
 H2952 H 0.92537 0.81275 1.09338
 H2953 H 0.90029 0.71152 1.12318
 H2954 H 0.90746 0.80421 1.04757
 C2955 C 0.87806 0.21163 0.63280
 C2956 C 0.87686 0.21939 0.61177
 C2957 C 0.88665 0.24014 0.60487
 C2958 C 0.87871 0.25000 0.58628
 C2959 C 0.88710 0.26984 0.57943
 C2960 C 0.90387 0.28010 0.59097
 C2961 C 0.91198 0.27011 0.60940
 C2962 C 0.90363 0.25027 0.61622
 C2963 C 0.91279 0.30146 0.58488
 C2964 C 0.91139 0.31004 0.56419
 H2965 H 0.86784 0.21028 0.59984
 H2966 H 0.86565 0.24253 0.57724
 H2967 H 0.87998 0.27722 0.56547
 H2968 H 0.92495 0.27765 0.61852
 H2969 H 0.91076 0.24296 0.63021
 H2970 H 0.92083 0.31063 0.59742
 H2971 H 0.88723 0.22053 0.64474
 H2972 H 0.90321 0.30096 0.55167
 C2973 C 0.37507 0.71546 0.63859
 C2974 C 0.37391 0.72348 0.61758
 C2975 C 0.38389 0.74416 0.61039
 C2976 C 0.38602 0.74796 0.58817
 C2977 C 0.39459 0.76749 0.58058
 C2978 C 0.40102 0.78384 0.59511
 C2979 C 0.39903 0.77998 0.61733
 C2980 C 0.39045 0.76046 0.62493
 C2981 C 0.41036 0.80478 0.58787
 C2982 C 0.40799 0.81309 0.56709
 H2983 H 0.36578 0.71385 0.60542
 H2984 H 0.38110 0.73572 0.57659
 H2985 H 0.39636 0.76950 0.56336
 H2986 H 0.40389 0.79226 0.62890
 H2987 H 0.38864 0.75847 0.64215
 H2988 H 0.41851 0.81454 0.59992
 H2989 H 0.38538 0.72352 0.65021
 H2990 H 0.39764 0.80470 0.55574
 C2991 C 0.37299 0.21494 1.13591
 C2992 C 0.37701 0.21893 1.11413
 C2993 C 0.38240 0.24055 1.10581
 C2994 C 0.39602 0.24232 1.08763
 C2995 C 0.40066 0.26255 1.07886
 C2996 C 0.39127 0.28127 1.08783
 C2997 C 0.37718 0.27947 1.10565
 C2998 C 0.37296 0.25928 1.11476
 C2999 C 0.39609 0.30276 1.07887
 C3000 C 0.41714 0.30849 1.07271
 H3001 H 0.37661 0.20556 1.10272
 H3002 H 0.40316 0.22803 1.08029
 H3003 H 0.41129 0.26352 1.06487
 H3004 H 0.36968 0.29373 1.11268
 H3005 H 0.36192 0.25827 1.12844
 H3006 H 0.38357 0.31503 1.07946
 H3007 H 0.37639 0.22738 1.14783
 H3008 H 0.43029 0.29720 1.07517
 C3009 C 1.14891 1.16009 0.73212
 C3010 C 1.14978 1.13928 0.74060
 C3011 C 1.13606 1.13286 0.75936
 C3012 C 1.14218 1.11507 0.77169
 C3013 C 1.12926 1.10833 0.78908
 C3014 C 1.10974 1.11911 0.79433
 C3015 C 1.10365 1.13693 0.78210
 C3016 C 1.11645 1.14356 0.76462
 C3017 C 1.09575 1.11235 0.81266
 C3018 C 1.09441 1.09083 0.81890
 H3019 H 1.15984 1.12701 0.73306
 H3020 H 1.15708 1.10647 0.76795
 H3021 H 1.13480 1.09488 0.79857
 H3022 H 1.08869 1.14544 0.78580
 H3023 H 1.11054 1.15674 0.75503
 H3024 H 1.08649 1.12456 0.82128
 H3025 H 1.13955 1.17196 0.74114
 H3026 H 1.10318 1.07883 0.80946
 C3027 C 1.11702 0.62837 0.20536
 C3028 C 1.12697 0.61437 0.21975
 C3029 C 1.11578 0.60822 0.24012
 C3030 C 1.12792 0.60561 0.25890
 C3031 C 1.11753 0.60103 0.27854
 C3032 C 1.09474 0.59851 0.27967
 C3033 C 1.08267 0.60086 0.26079
 C3034 C 1.09305 0.60549 0.24120
 C3035 C 1.08306 0.59344 0.30011
 C3036 C 1.09305 0.58279 0.31704
 H3037 H 1.14369 0.60949 0.21736
 H3038 H 1.14543 0.60771 0.25850
 H3039 H 1.12742 0.59994 0.29280
 H3040 H 1.06515 0.59889 0.26115
 H3041 H 1.08322 0.60679 0.22690
 H3042 H 1.06573 0.59640 0.30099
 H3043 H 1.10118 0.63451 0.21014
 H3044 H 1.10979 0.57780 0.31500
 C3045 C 0.63585 1.12305 0.21119
 C3046 C 0.62334 1.13191 0.22799
 C3047 C 0.61851 1.12007 0.24830
 C3048 C 0.60043 1.12621 0.26087
 C3049 C 0.59533 1.11550 0.28006
 C3050 C 0.60826 1.09827 0.28721
 C3051 C 0.62673 1.09257 0.27499
 C3052 C 0.63183 1.10329 0.25578
 C3053 C 0.60346 1.08666 0.30766
 C3054 C 0.58269 1.08610 0.31698
 H3055 H 0.61656 1.14789 0.22625
 H3056 H 0.59015 1.13936 0.25580
 H3057 H 0.58151 1.12115 0.28940
 H3058 H 0.63727 1.07974 0.28032
 H3059 H 0.64645 1.09859 0.24716
 H3060 H 0.61669 1.07858 0.31561
 H3061 H 0.64190 1.10678 0.21293
 H3062 H 0.56943 1.09362 0.30857
 C3063 C 0.61723 0.63829 0.71658
 C3064 C 0.61771 0.61742 0.72509
 C3065 C 0.60799 0.61124 0.74616
 C3066 C 0.60503 0.58919 0.75056
 C3067 C 0.59687 0.58245 0.77053
 C3068 C 0.59172 0.59768 0.78675
 C3069 C 0.59441 0.61975 0.78228
 C3070 C 0.60258 0.62650 0.76228
 C3071 C 0.58313 0.59127 0.80824
 C3072 C 0.58583 0.57067 0.81695
 H3073 H 0.62514 0.60463 0.71557
 H3074 H 0.60904 0.57708 0.73845
 H3075 H 0.59443 0.56534 0.77302
 H3076 H 0.59050 0.63184 0.79444
 H3077 H 0.60503 0.64361 0.75979
 H3078 H 0.57551 0.60375 0.81800
 H3079 H 0.60751 0.65062 0.72448
 H3080 H 0.59572 0.55899 0.80831
 C3081 C 0.88454 0.87209 0.70551
 C3082 C 0.88468 0.89326 0.71357
 C3083 C 0.89666 0.90016 0.73306
 C3084 C 0.89003 0.91909 0.74382
 C3085 C 0.90035 0.92601 0.76261
 C3086 C 0.91788 0.91426 0.77093
 C3087 C 0.92470 0.89546 0.76003
 C3088 C 0.91432 0.88851 0.74122
 C3089 C 0.92870 0.92048 0.79133
 C3090 C 0.92742 0.94116 0.80051
 H3091 H 0.87490 0.90534 0.70579
 H3092 H 0.87645 0.92834 0.73791
 H3093 H 0.89406 0.94020 0.77076
 H3094 H 0.93814 0.88611 0.76608
 H3095 H 0.92038 0.87417 0.73314
 H3096 H 0.93756 0.90802 0.79957
 H3097 H 0.89460 0.85999 0.71287
 H3098 H 0.91875 0.95370 0.79222
 C3099 C 0.85381 0.37647 0.21645
 C3100 C 0.87542 0.37887 0.22281
 C3101 C 0.88239 0.39183 0.24172
 C3102 C 0.90276 0.38747 0.25060
 C3103 C 0.91001 0.39883 0.26870
 C3104 C 0.89715 0.41520 0.27817
 C3105 C 0.87682 0.41970 0.26920
 C3106 C 0.86952 0.40825 0.25109
 C3107 C 0.90389 0.42698 0.29795
 C3108 C 0.92542 0.42791 0.30487
 H3109 H 0.88798 0.37025 0.21396
 H3110 H 0.91296 0.37486 0.24376
 H3111 H 0.92542 0.39421 0.27543
 H3112 H 0.86656 0.43216 0.27622
 H3113 H 0.85395 0.41251 0.24447
 H3114 H 0.89128 0.43452 0.30770
 H3115 H 0.84112 0.38542 0.22472
 H3116 H 0.93815 0.42076 0.29502
 C3117 C 0.37020 0.88903 0.20859
 C3118 C 0.38553 0.88258 0.22361
 C3119 C 0.39254 0.89652 0.24182
 C3120 C 0.41223 0.89192 0.25194
 C3121 C 0.41896 0.90400 0.26981
 C3122 C 0.40606 0.92104 0.27796
 C3123 C 0.38626 0.92550 0.26798
 C3124 C 0.37953 0.91341 0.25010
 C3125 C 0.41196 0.93328 0.29771
 C3126 C 0.43317 0.93437 0.30537
 H3127 H 0.39250 0.86659 0.22237
 H3128 H 0.42234 0.87875 0.24615
 H3129 H 0.43389 0.89937 0.27752
 H3130 H 0.37581 0.93821 0.27423
 H3131 H 0.36383 0.91698 0.24335
 H3132 H 0.39894 0.94072 0.30700
 H3133 H 0.36359 0.90517 0.20966
 H3134 H 0.44628 0.92739 0.29590
 C3135 C 0.37479 0.36381 0.71499
 C3136 C 0.37039 0.38133 0.72880
 C3137 C 0.38397 0.38705 0.74765
 C3138 C 0.38233 0.40798 0.75635
 C3139 C 0.39425 0.41404 0.77447
 C3140 C 0.40826 0.39925 0.78434
 C3141 C 0.40969 0.37821 0.77583
 C3142 C 0.39769 0.37211 0.75770
 C3143 C 0.42037 0.40478 0.80423
 C3144 C 0.42404 0.42602 0.81107
 H3145 H 0.35703 0.39203 0.72559
 H3146 H 0.37161 0.41970 0.74919
 H3147 H 0.39182 0.43013 0.78091
 H3148 H 0.41998 0.36636 0.78338
 H3149 H 0.39885 0.35557 0.75208
 H3150 H 0.42566 0.39164 0.81430
 H3151 H 0.38932 0.35455 0.71795
 H3152 H 0.41922 0.43928 0.80100
 C3153 C 1.13423 0.85483 1.27319
 C3154 C 1.13812 0.87413 1.26222
 C3155 C 1.12590 0.87926 1.24238
 C3156 C 1.12012 0.90070 1.23826
 C3157 C 1.10748 0.90573 1.22034
 C3158 C 1.10041 0.88933 1.20606
 C3159 C 1.10696 0.86801 1.20975
 C3160 C 1.11954 0.86300 1.22767
 C3161 C 1.08738 0.89395 1.18658
 C3162 C 1.07567 0.91296 1.18390
 H3163 H 1.14834 0.88657 1.26918
 H3164 H 1.12511 0.91357 1.24912
 H3165 H 1.10365 0.92251 1.21767
 H3166 H 1.10225 0.85515 1.19876
 H3167 H 1.12438 0.84638 1.22986
 H3168 H 1.08766 0.88228 1.17344
 H3169 H 1.12196 0.84419 1.26643
 H3170 H 1.07498 0.92491 1.19671
 C3171 C 1.13305 0.36723 0.77510
 C3172 C 1.11162 0.36568 0.76814
 C3173 C 1.10449 0.37635 0.74824
 C3174 C 1.08321 0.38428 0.74716
 C3175 C 1.07645 0.39565 0.72909
 C3176 C 1.09082 0.39896 0.71160
 C3177 C 1.11197 0.39069 0.71256
 C3178 C 1.11872 0.37934 0.73060
 C3179 C 1.08446 0.41105 0.69225
 C3180 C 1.06295 0.41271 0.68562
 H3181 H 1.09934 0.35878 0.77870
 H3182 H 1.07199 0.38220 0.76057
 H3183 H 1.06018 0.40221 0.72916
 H3184 H 1.12328 0.39291 0.69924
 H3185 H 1.13504 0.37287 0.73063
 H3186 H 1.09733 0.41713 0.68187
 H3187 H 1.14461 0.37656 0.76568
 H3188 H 1.05027 0.40436 0.69451
 C3189 C 0.63857 0.87029 0.77952
 C3190 C 0.61767 0.86852 0.77084
 C3191 C 0.61064 0.87970 0.75097
 C3192 C 0.59190 0.87222 0.74045
 C3193 C 0.58463 0.88210 0.72167
 C3194 C 0.59585 0.89998 0.71304
 C3195 C 0.61453 0.90753 0.72362
 C3196 C 0.62180 0.89764 0.74241
 C3197 C 0.58914 0.91081 0.69286
 C3198 C 0.56859 0.90849 0.68355
 H3199 H 0.60580 0.85820 0.77863
 H3200 H 0.58297 0.85844 0.74665
 H3201 H 0.57050 0.87532 0.71387
 H3202 H 0.62350 0.92127 0.71740
 H3203 H 0.63595 0.90440 0.75021
 H3204 H 0.60115 0.92101 0.68509
 H3205 H 0.65040 0.88072 0.77184
 H3206 H 0.55658 0.89820 0.69116
 C3207 C 0.61655 0.38871 1.29733
 C3208 C 0.60218 0.37989 1.28224
 C3209 C 0.59669 0.39119 1.26205
 C3210 C 0.57709 0.38615 1.25178
 C3211 C 0.57157 0.39618 1.23252
 C3212 C 0.58563 0.41154 1.22307
 C3213 C 0.60545 0.41620 1.23310
 C3214 C 0.61098 0.40614 1.25234
 C3215 C 0.58080 0.42209 1.20230
 C3216 C 0.55997 0.42296 1.19365
 H3217 H 0.59422 0.36457 1.28510
 H3218 H 0.56601 0.37436 1.25867
 H3219 H 0.55654 0.39136 1.22495
 H3220 H 0.61680 0.42758 1.22595
 H3221 H 0.62670 0.40979 1.25919
 H3222 H 0.59430 0.42895 1.19331
 H3223 H 0.62253 0.40491 1.29440
 H3224 H 0.54633 0.41634 1.20258
 C3225 C 0.88339 1.12546 1.29357
 C3226 C 0.87958 1.10620 1.28215
 C3227 C 0.89074 1.10117 1.26139
 C3228 C 0.89413 1.07950 1.25547
 C3229 C 0.90443 1.07419 1.23591
 C3230 C 0.91119 1.09053 1.22163
 C3231 C 0.90784 1.11219 1.22761
 C3232 C 0.89761 1.11749 1.24718
 C3233 C 0.92174 1.08566 1.20051
 C3234 C 0.91913 1.06594 1.18965
 H3235 H 0.86924 1.09376 1.28886
 H3236 H 0.88903 1.06663 1.26613
 H3237 H 0.90725 1.05731 1.23227
 H3238 H 0.91284 1.12509 1.21693
 H3239 H 0.89471 1.13437 1.25086
 H3240 H 0.93031 1.09871 1.19256
 H3241 H 0.89581 1.13618 1.28719
 H3242 H 0.90854 1.05382 1.19663
 C3243 C 0.87774 0.62731 0.79649
 C3244 C 0.86723 0.61571 0.78017
 C3245 C 0.87834 0.60882 0.75989
 C3246 C 0.86942 0.59178 0.74774
 C3247 C 0.87909 0.58522 0.72824
 C3248 C 0.89794 0.59568 0.72042
 C3249 C 0.90659 0.61299 0.73238
 C3250 C 0.89695 0.61952 0.75187
 C3251 C 0.90850 0.58976 0.69956
 C3252 C 0.90552 0.56984 0.68917
 H3253 H 0.85019 0.61164 0.78202
 H3254 H 0.85486 0.58354 0.75333
 H3255 H 0.87137 0.57234 0.71922
 H3256 H 0.92085 0.62159 0.72656
 H3257 H 0.90388 0.63329 0.76021
 H3258 H 0.91905 0.60172 0.69226
 H3259 H 0.89491 0.63086 0.79471
 H3260 H 0.89501 0.55786 0.69648
 C3261 C 0.39319 1.12315 0.80000
 C3262 C 0.38330 1.11102 0.78364
 C3263 C 0.39349 1.10580 0.76246
 C3264 C 0.38311 1.09053 0.74917
 C3265 C 0.39177 1.08506 0.72897
 C3266 C 0.41116 1.09475 0.72156
 C3267 C 0.42135 1.11033 0.73462
 C3268 C 0.41269 1.11580 0.75489
 C3269 C 0.42064 1.08963 0.70007
 C3270 C 0.41679 1.07008 0.68925
 H3271 H 0.36696 1.10497 0.78636
 H3272 H 0.36813 1.08281 0.75442
 H3273 H 0.38291 1.07362 0.71909
 H3274 H 0.43611 1.11829 0.72912
 H3275 H 0.42101 1.12803 0.76424
 H3276 H 0.43100 1.10175 0.69279
 H3277 H 0.40912 1.13017 0.79742
 H3278 H 0.40677 1.05794 0.69698
 C3279 C 0.37978 0.63542 1.28901
 C3280 C 0.37426 0.61838 1.27504
 C3281 C 0.38626 0.61313 1.25480
 C3282 C 0.38205 0.59316 1.24479
 C3283 C 0.39238 0.58747 1.22545
 C3284 C 0.40743 0.60162 1.21565
 C3285 C 0.41144 0.62174 1.22546
 C3286 C 0.40099 0.62751 1.24481
 C3287 C 0.41819 0.59640 1.19475
 C3288 C 0.41948 0.57541 1.18646
 H3289 H 0.36076 0.60787 1.27887
 H3290 H 0.37052 0.58191 1.25187
 H3291 H 0.38795 0.57220 1.21810
 H3292 H 0.42261 0.63312 1.21804
 H3293 H 0.40425 0.64338 1.25144
 H3294 H 0.42464 0.60965 1.18531
 H3295 H 0.39387 0.64513 1.28495
 H3296 H 0.41347 0.56201 1.19590
 C3297 C 1.12597 1.29284 0.86716
 C3298 C 1.13261 1.28236 0.88589
 C3299 C 1.12068 1.26343 0.89462
 C3300 C 1.13219 1.24746 0.90556
 C3301 C 1.12150 1.22911 0.91346
 C3302 C 1.09887 1.22655 0.91095
 C3303 C 1.08734 1.24275 0.90032
 C3304 C 1.09806 1.26102 0.89232
 C3305 C 1.08681 1.20707 0.91841
 C3306 C 1.09511 1.19222 0.93304
 H3307 H 1.14773 1.28671 0.89353
 H3308 H 1.14962 1.24895 0.90756
 H3309 H 1.13121 1.21688 0.92102
 H3310 H 1.06993 1.24128 0.89818
 H3311 H 1.08853 1.27331 0.88455
 H3312 H 1.07047 1.20489 0.91251
 H3313 H 1.11202 1.28610 0.85890
 H3314 H 1.11053 1.19569 0.94058
 C3315 C 1.12963 0.77803 0.35988
 C3316 C 1.13255 0.76965 0.38051
 C3317 C 1.12079 0.75003 0.38772
 C3318 C 1.11481 0.74804 0.40949
 C3319 C 1.10323 0.72990 0.41660
 C3320 C 1.09779 0.71315 0.40207
 C3321 C 1.10397 0.71510 0.38034
 C3322 C 1.11546 0.73325 0.37323
 C3323 C 1.08566 0.69353 0.40877
 C3324 C 1.08452 0.68640 0.43004
 H3325 H 1.14207 0.77829 0.39235
 H3326 H 1.11873 0.76077 0.42094
 H3327 H 1.09832 0.72935 0.43337
 H3328 H 1.10010 0.70242 0.36883
 H3329 H 1.12038 0.73394 0.35645
 H3330 H 1.07894 0.68341 0.39614
 H3331 H 1.11778 0.77000 0.34973
 H3332 H 1.09325 0.69519 0.44240
 C3333 C 0.62262 1.29435 0.36969
 C3334 C 0.62464 1.28520 0.39013
 C3335 C 0.61528 1.26378 0.39602
 C3336 C 0.62328 1.25315 0.41418
 C3337 C 0.61472 1.23313 0.42051
 C3338 C 0.59767 1.22335 0.40890
 C3339 C 0.58966 1.23402 0.39078
 C3340 C 0.59820 1.25401 0.38447
 C3341 C 0.58807 1.20202 0.41472
 C3342 C 0.59053 1.19216 0.43478
 H3343 H 0.63338 1.29396 0.40250
 H3344 H 0.63639 1.26027 0.42342
 H3345 H 0.62183 1.22537 0.43425
 H3346 H 0.57651 1.22695 0.38154
 H3347 H 0.59100 1.26183 0.37079
 H3348 H 0.57853 1.19391 0.40251
 H3349 H 0.61414 1.28539 0.35729
 H3350 H 0.60019 1.20012 0.44697
 C3351 C 0.62843 0.77965 0.85767
 C3352 C 0.63036 0.77044 0.87810
 C3353 C 0.61921 0.75016 0.88484
 C3354 C 0.62706 0.73922 0.90287
 C3355 C 0.61717 0.72011 0.90995
 C3356 C 0.59888 0.71158 0.89930
 C3357 C 0.59101 0.72253 0.88127
 C3358 C 0.60093 0.74164 0.87416
 C3359 C 0.58801 0.69114 0.90604
 C3360 C 0.59037 0.68200 0.92645
 H3361 H 0.64083 0.77809 0.88982
 H3362 H 0.64113 0.74534 0.91139
 H3363 H 0.62429 0.71199 0.92348
 H3364 H 0.57698 0.71635 0.87272
 H3365 H 0.59394 0.74974 0.86054
 H3366 H 0.57782 0.68310 0.89431
 H3367 H 0.61784 0.77206 0.84600
 H3368 H 0.60039 0.69018 0.93821
 C3369 C 0.87176 1.28112 1.14634
 C3370 C 0.86804 1.26655 1.12933
 C3371 C 0.88267 1.24827 1.12378
 C3372 C 0.88126 1.23909 1.10310
 C3373 C 0.89435 1.22167 1.09703
 C3374 C 0.90936 1.21299 1.11155
 C3375 C 0.91049 1.22183 1.13242
 C3376 C 0.89732 1.23932 1.13853
 C3377 C 0.92285 1.19394 1.10571
 C3378 C 0.92763 1.18842 1.08434
 H3379 H 0.85454 1.26888 1.11866
 H3380 H 0.86986 1.24537 1.09154
 H3381 H 0.89212 1.21476 1.08113
 H3382 H 0.92152 1.21512 1.14407
 H3383 H 0.89840 1.24534 1.15489
 H3384 H 0.92818 1.18348 1.11850
 H3385 H 0.88623 1.27886 1.15582
 H3386 H 0.92293 1.19921 1.07160
 C3387 C 0.86466 0.79347 0.61616
 C3388 C 0.87668 0.77658 0.62482
 C3389 C 0.88306 0.75668 0.61286
 C3390 C 0.89794 0.74276 0.62254
 C3391 C 0.90449 0.72371 0.61220
 C3392 C 0.89636 0.71816 0.59176
 C3393 C 0.88114 0.73180 0.58222
 C3394 C 0.87457 0.75091 0.59258
 C3395 C 0.90276 0.69789 0.58051
 C3396 C 0.92251 0.68762 0.58433
 H3397 H 0.88172 0.77784 0.64145
 H3398 H 0.90450 0.74658 0.63827
 H3399 H 0.91553 0.71323 0.62055
 H3400 H 0.87436 0.72768 0.56665
 H3401 H 0.86269 0.76077 0.58466
 H3402 H 0.89145 0.69099 0.56909
 H3403 H 0.85866 0.79227 0.59990
 H3404 H 0.93390 0.69511 0.59531
 C3405 C 0.35791 1.28744 0.62561
 C3406 C 0.37556 1.27405 0.63029
 C3407 C 0.38162 1.25461 0.61749
 C3408 C 0.39505 1.23925 0.62710
 C3409 C 0.40171 1.22086 0.61571
 C3410 C 0.39530 1.21752 0.59424
 C3411 C 0.38165 1.23269 0.58465
 C3412 C 0.37501 1.25119 0.59606
 C3413 C 0.40214 1.19810 0.58184
 C3414 C 0.42172 1.18756 0.58586
 H3415 H 0.38499 1.27687 0.64461
 H3416 H 0.40031 1.24139 0.64360
 H3417 H 0.41156 1.20915 0.62394
 H3418 H 0.37643 1.23040 0.56815
 H3419 H 0.36511 1.26283 0.58784
 H3420 H 0.39145 1.19236 0.56930
 H3421 H 0.34775 1.28294 0.61214
 H3422 H 0.43254 1.19454 0.59772
 C3423 C 0.37589 0.79281 1.13725
 C3424 C 0.36893 0.77728 1.12219
 C3425 C 0.38204 0.75808 1.11570
 C3426 C 0.37698 0.74733 1.09637
 C3427 C 0.38851 0.72896 1.08972
 C3428 C 0.40554 0.72085 1.10228
 C3429 C 0.41033 0.73133 1.12184
 C3430 C 0.39876 0.74972 1.12852
 C3431 C 0.41769 0.70094 1.09607
 C3432 C 0.41837 0.69280 1.07498
 H3433 H 0.35366 0.77927 1.11404
 H3434 H 0.36394 0.75310 1.08636
 H3435 H 0.38352 0.72097 1.07501
 H3436 H 0.42303 0.72520 1.13207
 H3437 H 0.40271 0.75692 1.14394
 H3438 H 0.42584 0.69219 1.10865
 H3439 H 0.39194 0.79084 1.14391
 H3440 H 0.41070 0.70180 1.06231
 C3441 C 0.87422 0.71292 0.88128
 C3442 C 0.88646 0.72836 0.87020
 C3443 C 0.89264 0.74939 0.87991
 C3444 C 0.91049 0.76068 0.87130
 C3445 C 0.91652 0.78080 0.87977
 C3446 C 0.90471 0.79006 0.89707
 C3447 C 0.88654 0.77901 0.90531
 C3448 C 0.88052 0.75890 0.89686
 C3449 C 0.91025 0.81144 0.90641
 C3450 C 0.93089 0.82078 0.90467
 H3451 H 0.89151 0.72520 0.85370
 H3452 H 0.91979 0.75391 0.85794
 H3453 H 0.93011 0.78915 0.87236
 H3454 H 0.87692 0.78598 0.91834
 H3455 H 0.86609 0.75120 0.90335
 H3456 H 0.89752 0.81994 0.91513
 H3457 H 0.86956 0.71597 0.89790
 H3458 H 0.94364 0.81233 0.89595
 C3459 C 0.87381 0.20639 0.38115
 C3460 C 0.88321 0.22363 0.37005
 C3461 C 0.88841 0.24452 0.38057
 C3462 C 0.90473 0.25757 0.37151
 C3463 C 0.91017 0.27738 0.38101
 C3464 C 0.89928 0.28455 0.39981
 C3465 C 0.88243 0.27187 0.40843
 C3466 C 0.87704 0.25202 0.39897
 C3467 C 0.90463 0.30539 0.41034
 C3468 C 0.92527 0.31476 0.40887
 H3469 H 0.88719 0.22187 0.35310
 H3470 H 0.91339 0.25236 0.35707
 H3471 H 0.92262 0.28713 0.37334
 H3472 H 0.87350 0.27729 0.42262
 H3473 H 0.86372 0.24287 0.40590
 H3474 H 0.89193 0.31328 0.41966
 H3475 H 0.87011 0.20819 0.39816
 H3476 H 0.93792 0.30643 0.39987
 C3477 C 0.36592 0.71116 0.37949
 C3478 C 0.38031 0.72682 0.37149
 C3479 C 0.38567 0.74692 0.38336
 C3480 C 0.39215 0.76507 0.37154
 C3481 C 0.39804 0.78420 0.38205
 C3482 C 0.39801 0.78542 0.40470
 C3483 C 0.39116 0.76739 0.41656
 C3484 C 0.38516 0.74822 0.40601
 C3485 C 0.40497 0.80524 0.41628
 C3486 C 0.41971 0.81988 0.40721
 H3487 H 0.38666 0.72554 0.35524
 H3488 H 0.39254 0.76449 0.35408
 H3489 H 0.40242 0.79799 0.37232
 H3490 H 0.39091 0.76798 0.43402
 H3491 H 0.38068 0.73439 0.41565
 H3492 H 0.39946 0.80745 0.43277
 H3493 H 0.35765 0.71459 0.39463
 H3494 H 0.42710 0.81595 0.39176
 C3495 C 0.37356 0.19804 0.89189
 C3496 C 0.38515 0.21552 0.88333
 C3497 C 0.38767 0.23635 0.89493
 C3498 C 0.39047 0.25518 0.88284
 C3499 C 0.39392 0.27505 0.89305
 C3500 C 0.39518 0.27643 0.91566
 C3501 C 0.39173 0.25771 0.92783
 C3502 C 0.38813 0.23778 0.91759
 C3503 C 0.40083 0.29699 0.92670
 C3504 C 0.41449 0.31210 0.91686
 H3505 H 0.39105 0.21497 0.86687
 H3506 H 0.38998 0.25452 0.86539
 H3507 H 0.39568 0.28927 0.88315
 H3508 H 0.39255 0.25840 0.94526
 H3509 H 0.38643 0.22351 0.92741
 H3510 H 0.39601 0.29914 0.94341
 H3511 H 0.36546 0.20044 0.90732
 H3512 H 0.42119 0.30825 0.90108
 C3513 C 1.10463 0.70362 1.11832
 C3514 C 1.10917 0.71437 1.09907
 C3515 C 1.09784 0.73448 1.09337
 C3516 C 1.09536 0.73973 1.07161
 C3517 C 1.08551 0.75912 1.06585
 C3518 C 1.07839 0.77383 1.08186
 C3519 C 1.08065 0.76840 1.10360
 C3520 C 1.09039 0.74902 1.10934
 C3521 C 1.06893 0.79506 1.07670
 C3522 C 1.07261 0.80549 1.05714
 H3523 H 1.12076 0.70796 1.08749
 H3524 H 1.10098 0.72875 1.05904
 H3525 H 1.08348 0.76237 1.04890
 H3526 H 1.07535 0.77945 1.11624
 H3527 H 1.09263 0.74581 1.12629
 H3528 H 1.06070 0.80362 1.08968
 H3529 H 1.09067 0.70909 1.12767
 H3530 H 1.08278 0.79783 1.04499
 C3531 C 1.12991 0.23621 0.64153
 C3532 C 1.12384 0.23735 0.62015
 C3533 C 1.10846 0.25390 0.61290
 C3534 C 1.10082 0.25301 0.59170
 C3535 C 1.08634 0.26856 0.58438
 C3536 C 1.07948 0.28546 0.59814
 C3537 C 1.08658 0.28594 0.61953
 C3538 C 1.10099 0.27039 0.62686
 C3539 C 1.06586 0.30337 0.59057
 C3540 C 1.06650 0.31024 0.56925
 H3541 H 1.12950 0.22512 0.60879
 H3542 H 1.10607 0.24026 0.58078
 H3543 H 1.08061 0.26726 0.56799
 H3544 H 1.08143 0.29873 0.63047
 H3545 H 1.10643 0.27147 0.64338
 H3546 H 1.05793 0.31339 0.60268
 H3547 H 1.13810 0.22598 0.64511
 H3548 H 1.07636 0.30149 0.55758
 C3549 C 0.62878 0.70974 0.62014
 C3550 C 0.61539 0.72662 0.62724
 C3551 C 0.60947 0.74510 0.61342
 C3552 C 0.59058 0.75679 0.61848
 C3553 C 0.58450 0.77446 0.60606
 C3554 C 0.59728 0.78091 0.58825
 C3555 C 0.61649 0.76960 0.58353
 C3556 C 0.62254 0.75185 0.59591
 C3557 C 0.59155 0.80000 0.57517
 C3558 C 0.57016 0.80721 0.57340
 H3559 H 0.60860 0.72633 0.64338
 H3560 H 0.58046 0.75225 0.63212
 H3561 H 0.57008 0.78329 0.61087
 H3562 H 0.62687 0.77453 0.57021
 H3563 H 0.63768 0.74385 0.59196
 H3564 H 0.60459 0.80875 0.56723
 H3565 H 0.63503 0.71005 0.60378
 H3566 H 0.55723 0.79783 0.58078
 C3567 C 0.62375 0.20624 1.12441
 C3568 C 0.60751 0.21956 1.13303
 C3569 C 0.59992 0.23846 1.12065
 C3570 C 0.59548 0.25799 1.13141
 C3571 C 0.59013 0.27647 1.11978
 C3572 C 0.58868 0.27566 1.09710
 C3573 C 0.59272 0.25599 1.08643
 C3574 C 0.59810 0.23755 1.09805
 C3575 C 0.58314 0.29492 1.08416
 C3576 C 0.57074 0.31185 1.09264
 H3577 H 0.60206 0.21780 1.14956
 H3578 H 0.59689 0.25913 1.14877
 H3579 H 0.58772 0.29143 1.12862
 H3580 H 0.59160 0.25485 1.06904
 H3581 H 0.60087 0.22259 1.08928
 H3582 H 0.58735 0.29485 1.06717
 H3583 H 0.63008 0.21066 1.10867
 H3584 H 0.56463 0.31048 1.10900
 C3585 C 1.30909 1.09794 0.88300
 C3586 C 1.30028 1.09839 0.90385
 C3587 C 1.27859 1.08938 0.90923
 C3588 C 1.26692 1.09855 0.92654
 C3589 C 1.24563 1.09195 0.93108
 C3590 C 1.23567 1.07570 0.91853
 C3591 C 1.24762 1.06605 0.90164
 C3592 C 1.26891 1.07269 0.89707
 C3593 C 1.21265 1.06923 0.92170
 C3594 C 1.20081 1.07328 0.94066
 H3595 H 1.30849 1.10748 0.91635
 H3596 H 1.27401 1.11146 0.93612
 H3597 H 1.23693 1.10024 0.94390
 H3598 H 1.24037 1.05343 0.89179
 H3599 H 1.27760 1.06474 0.88402
 H3600 H 1.20483 1.06130 0.90824
 H3601 H 1.30130 1.08834 0.87061
 H3602 H 1.20875 1.08104 0.95415
 C3603 C 1.29101 0.61831 0.36876
 C3604 C 1.28319 0.61832 0.39000
 C3605 C 1.26270 0.60754 0.39670
 C3606 C 1.25214 0.61478 0.41556
 C3607 C 1.23238 0.60563 0.42214
 C3608 C 1.22289 0.58874 0.41007
 C3609 C 1.23364 0.58127 0.39139
 C3610 C 1.25340 0.59043 0.38481
 C3611 C 1.20151 0.57916 0.41580
 C3612 C 1.19199 0.58071 0.43632
 H3613 H 1.29185 0.62738 0.40223
 H3614 H 1.25896 0.62793 0.42500
 H3615 H 1.22443 0.61231 0.43630
 H3616 H 1.22672 0.56825 0.38185
 H3617 H 1.26131 0.58389 0.37056
 H3618 H 1.19294 0.57076 0.40308
 H3619 H 1.28260 0.60903 0.35654
 H3620 H 1.20048 0.58914 0.44907
 C3621 C 0.79941 1.11211 0.37978
 C3622 C 0.79351 1.11385 0.40160
 C3623 C 0.77229 1.10683 0.41075
 C3624 C 0.75829 1.09245 0.39995
 C3625 C 0.73801 1.08716 0.40889
 C3626 C 0.73136 1.09597 0.42891
 C3627 C 0.74537 1.11023 0.43969
 C3628 C 0.76569 1.11545 0.43081
 C3629 C 0.70965 1.09131 0.43839
 C3630 C 0.69850 1.07210 0.43403
 H3631 H 0.80444 1.12213 0.41250
 H3632 H 0.76276 1.08520 0.38463
 H3633 H 0.72740 1.07660 0.39975
 H3634 H 0.74059 1.11735 0.45504
 H3635 H 0.77613 1.12661 0.43947
 H3636 H 0.70244 1.10341 0.44889
 H3637 H 0.78951 1.10281 0.36875
 H3638 H 0.70652 1.05989 0.42423
 C3639 C 0.78576 0.63294 0.87739
 C3640 C 0.77863 0.61152 0.87725
 C3641 C 0.75873 0.60483 0.88913
 C3642 C 0.75748 0.58397 0.89771
 C3643 C 0.73928 0.57755 0.90982
 C3644 C 0.72181 0.59184 0.91328
 C3645 C 0.72301 0.61262 0.90455
 C3646 C 0.74115 0.61902 0.89243
 C3647 C 0.70204 0.58562 0.92561
 C3648 C 0.69479 0.56429 0.92691
 H3649 H 0.78899 0.59911 0.87033
 H3650 H 0.77082 0.57278 0.89543
 H3651 H 0.73918 0.56156 0.91670
 H3652 H 0.70970 0.62387 0.90684
 H3653 H 0.74123 0.63500 0.88552
 H3654 H 0.69161 0.59842 0.93166
 H3655 H 0.77658 0.64476 0.88666
 H3656 H 0.70391 0.55171 0.91867
 C3657 C 1.27695 0.86287 1.14013
 C3658 C 1.26994 0.86199 1.11884
 C3659 C 1.24979 0.87299 1.11210
 C3660 C 1.24883 0.88182 1.09141
 C3661 C 1.23070 0.89369 1.08511
 C3662 C 1.21292 0.89665 1.09934
 C3663 C 1.21376 0.88751 1.11992
 C3664 C 1.23189 0.87567 1.12621
 C3665 C 1.19341 0.90916 1.09334
 C3666 C 1.18697 0.91157 1.07201
 H3667 H 1.28092 0.85584 1.10648
 H3668 H 1.26243 0.88007 1.08029
 H3669 H 1.23096 0.90090 1.06931
 H3670 H 1.20026 0.88943 1.13114
 H3671 H 1.23179 0.86860 1.14210
 H3672 H 1.18276 0.91489 1.10617
 H3673 H 1.26708 0.87136 1.15200
 H3674 H 1.19626 0.90364 1.05933
 C3675 C 1.27912 0.37572 0.64437
 C3676 C 1.27023 0.37540 0.62372
 C3677 C 1.24978 0.38643 0.61792
 C3678 C 1.23902 0.37958 0.59924
 C3679 C 1.21976 0.38943 0.59291
 C3680 C 1.21096 0.40674 0.60499
 C3681 C 1.22167 0.41357 0.62375
 C3682 C 1.24094 0.40363 0.63013
 C3683 C 1.19043 0.41747 0.59886
 C3684 C 1.18235 0.41683 0.57788
 H3685 H 1.27832 0.36627 0.61105
 H3686 H 1.24539 0.36630 0.58960
 H3687 H 1.21170 0.38305 0.57881
 H3688 H 1.21520 0.42679 0.63339
 H3689 H 1.24894 0.40977 0.64438
 H3690 H 1.18144 0.42596 0.61138
 H3691 H 1.27137 0.38512 0.65704
 H3692 H 1.19163 0.40872 0.56533
 C3693 C 0.78690 0.88339 0.63656
 C3694 C 0.77739 0.88287 0.61620
 C3695 C 0.75623 0.89289 0.61125
 C3696 C 0.74496 0.88531 0.59314
 C3697 C 0.72489 0.89403 0.58773
 C3698 C 0.71575 0.91092 0.60015
 C3699 C 0.72697 0.91849 0.61832
 C3700 C 0.74708 0.90968 0.62379
 C3701 C 0.69435 0.92039 0.59498
 C3702 C 0.68550 0.91931 0.57435
 H3703 H 0.78538 0.87407 0.60324
 H3704 H 0.75157 0.87230 0.58329
 H3705 H 0.71648 0.88709 0.57410
 H3706 H 0.72025 0.93142 0.62820
 H3707 H 0.75544 0.91633 0.63761
 H3708 H 0.68537 0.92826 0.60791
 H3709 H 0.77935 0.89258 0.64950
 H3710 H 0.69481 0.91189 0.56139
 C3711 C 0.77595 0.35105 1.12859
 C3712 C 0.76757 0.37196 1.12733
 C3713 C 0.74720 0.37757 1.11618
 C3714 C 0.73687 0.39694 1.12202
 C3715 C 0.71769 0.40318 1.11205
 C3716 C 0.70856 0.39036 1.09557
 C3717 C 0.71883 0.37089 1.08978
 C3718 C 0.73802 0.36455 1.09989
 C3719 C 0.68810 0.39646 1.08472
 C3720 C 0.68021 0.41761 1.08473
 H3721 H 0.77598 0.38506 1.13542
 H3722 H 0.74350 0.40718 1.13462
 H3723 H 0.70999 0.41786 1.11772
 H3724 H 0.71209 0.36065 1.07724
 H3725 H 0.74569 0.34971 1.09461
 H3726 H 0.67892 0.38378 1.07677
 H3727 H 0.76808 0.33791 1.12006
 H3728 H 0.68958 0.43035 1.09229
 C3729 C 0.71178 1.12869 1.11745
 C3730 C 0.72931 1.11831 1.12686
 C3731 C 0.74919 1.11272 1.11451
 C3732 C 0.76155 1.09502 1.12098
 C3733 C 0.78035 1.08921 1.10959
 C3734 C 0.78722 1.10114 1.09152
 C3735 C 0.77535 1.11935 1.08555
 C3736 C 0.75644 1.12508 1.09687
 C3737 C 0.80714 1.09540 1.07928
 C3738 C 0.81430 1.07412 1.07762
 H3739 H 0.72854 1.11386 1.14368
 H3740 H 0.75654 1.08557 1.13480
 H3741 H 0.78966 1.07563 1.11524
 H3742 H 0.78063 1.12906 1.07202
 H3743 H 0.74781 1.13939 1.09200
 H3744 H 0.81632 1.10829 1.07174
 H3745 H 0.71266 1.13253 1.10047
 H3746 H 0.80444 1.06143 1.08468
 C3747 C 0.70685 0.62036 0.63694
 C3748 C 0.71433 0.61924 0.61560
 C3749 C 0.73484 0.60855 0.60889
 C3750 C 0.74479 0.61490 0.58951
 C3751 C 0.76440 0.60569 0.58265
 C3752 C 0.77437 0.58956 0.59493
 C3753 C 0.76424 0.58301 0.61420
 C3754 C 0.74465 0.59231 0.62111
 C3755 C 0.79553 0.57970 0.58871
 C3756 C 0.80535 0.58195 0.56842
 H3757 H 0.70530 0.62729 0.60317
 H3758 H 0.73757 0.62739 0.57981
 H3759 H 0.77170 0.61173 0.56798
 H3760 H 0.77151 0.57060 0.62397
 H3761 H 0.73723 0.58651 0.63585
 H3762 H 0.80387 0.57067 0.60094
 H3763 H 0.71553 0.61199 0.64939
 H3764 H 0.79737 0.59109 0.55607
 C3765 C 0.21355 1.14408 0.63018
 C3766 C 0.23138 1.13272 0.63786
 C3767 C 0.24918 1.12500 0.62342
 C3768 C 0.26161 1.10721 0.62961
 C3769 C 0.27881 1.09985 0.61659
 C3770 C 0.28406 1.11026 0.59711
 C3771 C 0.27203 1.12842 0.59122
 C3772 C 0.25472 1.13570 0.60416
 C3773 C 0.30261 1.10319 0.58329
 C3774 C 0.30968 1.08179 0.58271
 H3775 H 0.23262 1.12952 0.65491
 H3776 H 0.25799 1.09899 0.64457
 H3777 H 0.28826 1.08634 0.62216
 H3778 H 0.27603 1.13700 0.57655
 H3779 H 0.24613 1.15002 0.59926
 H3780 H 0.31088 1.11523 0.57365
 H3781 H 0.21224 1.14644 0.61297
 H3782 H 0.30058 1.06991 0.59184
 C3783 C 0.20124 0.63352 1.11673
 C3784 C 0.21827 0.62216 1.12602
 C3785 C 0.23862 0.61693 1.11394
 C3786 C 0.25070 0.59885 1.11996
 C3787 C 0.26976 0.59325 1.10877
 C3788 C 0.27724 0.60571 1.09126
 C3789 C 0.26562 0.62427 1.08577
 C3790 C 0.24649 0.62983 1.09692
 C3791 C 0.29748 0.60017 1.07914
 C3792 C 0.30509 0.57899 1.07762
 H3793 H 0.21661 0.61630 1.14232
 H3794 H 0.24528 0.58891 1.13328
 H3795 H 0.27875 0.57938 1.11419
 H3796 H 0.27130 0.63443 1.07273
 H3797 H 0.23818 0.64442 1.09236
 H3798 H 0.30659 0.61308 1.07153
 H3799 H 0.20303 0.63837 1.10009
 H3800 H 0.29536 0.56619 1.08463
 C3801 C 0.71906 0.85988 0.86808
 C3802 C 0.72781 0.88080 0.86677
 C3803 C 0.74820 0.88795 0.87751
 C3804 C 0.75813 0.90727 0.87078
 C3805 C 0.77735 0.91472 0.88027
 C3806 C 0.78704 0.90309 0.89701
 C3807 C 0.77708 0.88381 0.90379
 C3808 C 0.75786 0.87635 0.89429
 C3809 C 0.80770 0.91004 0.90736
 C3810 C 0.81643 0.93096 0.90607
 H3811 H 0.71959 0.89267 0.85717
 H3812 H 0.75113 0.91655 0.85788
 H3813 H 0.78464 0.92934 0.87406
 H3814 H 0.78414 0.87450 0.91663
 H3815 H 0.75062 0.86168 0.90045
 H3816 H 0.81627 0.89794 0.91637
 H3817 H 0.72701 0.84804 0.87792
 H3818 H 0.80792 0.94306 0.89702
 C3819 C 0.69502 0.39182 0.38406
 C3820 C 0.71503 0.38201 0.38754
 C3821 C 0.73525 0.39461 0.39126
 C3822 C 0.75520 0.38558 0.38486
 C3823 C 0.77460 0.39712 0.38747
 C3824 C 0.77450 0.41789 0.39692
 C3825 C 0.75454 0.42705 0.40313
 C3826 C 0.73510 0.41549 0.40050
 C3827 C 0.79497 0.42985 0.40131
 C3828 C 0.81399 0.41897 0.40640
 H3829 H 0.71648 0.36480 0.38446
 H3830 H 0.75576 0.36963 0.37753
 H3831 H 0.78960 0.38976 0.38193
 H3832 H 0.75404 0.44296 0.41055
 H3833 H 0.72011 0.42284 0.40606
 H3834 H 0.79436 0.44723 0.40351
 H3835 H 0.69397 0.40926 0.38469
 H3836 H 0.81370 0.40148 0.40682
 C3837 C 0.21079 0.86626 0.36649
 C3838 C 0.22714 0.87934 0.35759
 C3839 C 0.24626 0.88696 0.37020
 C3840 C 0.25773 0.90543 0.36351
 C3841 C 0.27607 0.91274 0.37476
 C3842 C 0.28345 0.90161 0.39299
 C3843 C 0.27222 0.88289 0.39937
 C3844 C 0.25389 0.87563 0.38818
 C3845 C 0.30319 0.90827 0.40518
 C3846 C 0.31247 0.92896 0.40429
 H3847 H 0.22615 0.88409 0.34090
 H3848 H 0.25251 0.91424 0.34949
 H3849 H 0.28459 0.92679 0.36874
 H3850 H 0.27771 0.87374 0.41307
 H3851 H 0.24617 0.86083 0.39341
 H3852 H 0.31056 0.89623 0.41524
 H3853 H 0.21164 0.86245 0.38345
 H3854 H 0.30493 0.94101 0.39436
 C3855 C 0.20854 0.38205 0.86471
 C3856 C 0.22441 0.37388 0.87822
 C3857 C 0.24384 0.38671 0.88428
 C3858 C 0.25438 0.38215 0.90360
 C3859 C 0.27284 0.39388 0.90969
 C3860 C 0.28117 0.41043 0.89647
 C3861 C 0.27103 0.41452 0.87682
 C3862 C 0.25254 0.40283 0.87076
 C3863 C 0.30103 0.42276 0.90219
 C3864 C 0.30765 0.42538 0.92345
 H3865 H 0.22273 0.35770 0.88451
 H3866 H 0.24830 0.36949 0.91403
 H3867 H 0.28076 0.38951 0.92449
 H3868 H 0.27745 0.42679 0.86612
 H3869 H 0.24547 0.40617 0.85527
 H3870 H 0.31097 0.42932 0.88927
 H3871 H 0.21011 0.39853 0.85917
 H3872 H 0.29737 0.41935 0.93634
   
