data_POSCAR
  _audit_creation_date              2014-09-24
  _audit_creation_method            'ToBaCCo'
  _symmetry_space_group_name_H-M    'P1'
  _symmetry_Int_Tables_number       1
  _symmetry_cell_setting            triclinic
  loop_
  _symmetry_equiv_pos_as_xyz
 x,y,z
_cell_length_a 66.7478
_cell_length_b 66.4899
_cell_length_c 71.0539
_cell_angle_alpha 90.566200
_cell_angle_beta 89.753800
_cell_angle_gamma 90.102900
loop_
  _atom_site_label
  _atom_site_type_symbol
  _atom_site_fract_x
  _atom_site_fract_y
  _atom_site_fract_z
C1 C 0.40410 -0.02651 0.24980
 C2 C 0.41383 -0.00923 0.24321
 C3 C 0.42411 -0.00987 0.22600
 C4 C 0.42508 -0.02776 0.21534
 C5 C 0.41508 -0.04498 0.22203
 C6 C 0.40433 -0.04457 0.23922
 C7 C 0.41406 0.00938 0.25472
 C8 C 0.42429 0.00968 0.27187
 C9 C 0.42537 0.02734 0.28293
 C10 C 0.41546 0.04474 0.27650
 C11 C 0.40483 0.04460 0.25936
 C12 C 0.40449 0.02682 0.24845
 H13 H 0.39624 -0.02567 0.26317
 H14 H 0.43172 0.00355 0.22120
 H15 H 0.43165 -0.00397 0.27634
 H16 H 0.39658 0.02634 0.23517
 H17 H 0.41564 -0.05871 0.21372
 H18 H 0.41588 0.05841 0.28489
 C19 C 0.09525 -0.02753 0.74944
 C20 C 0.08546 -0.01018 0.75598
 C21 C 0.07531 -0.01043 0.77324
 C22 C 0.07457 -0.02802 0.78403
 C23 C 0.08466 -0.04533 0.77740
 C24 C 0.09520 -0.04520 0.76015
 C25 C 0.08526 0.00809 0.74439
 C26 C 0.07593 0.00759 0.72682
 C27 C 0.07534 0.02478 0.71543
 C28 C 0.08479 0.04255 0.72202
 C29 C 0.09449 0.04318 0.73964
 C30 C 0.09433 0.02585 0.75083
 H31 H 0.10306 -0.02709 0.73605
 H32 H 0.06768 0.00307 0.77800
 H33 H 0.06898 -0.00635 0.72223
 H34 H 0.10160 0.02593 0.76444
 H35 H 0.08442 -0.05887 0.78573
 H36 H 0.08480 0.05586 0.71336
 C37 C 0.59623 0.47420 0.25055
 C38 C 0.58661 0.49150 0.25741
 C39 C 0.57686 0.49112 0.27486
 C40 C 0.57635 0.47346 0.28554
 C41 C 0.58630 0.45620 0.27861
 C42 C 0.59646 0.45646 0.26115
 C43 C 0.58620 0.50992 0.24605
 C44 C 0.57620 0.50978 0.22880
 C45 C 0.57525 0.52720 0.21783
 C46 C 0.58495 0.54480 0.22429
 C47 C 0.59533 0.54509 0.24157
 C48 C 0.59557 0.52754 0.25247
 H49 H 0.60374 0.47476 0.23701
 H50 H 0.56937 0.50461 0.27987
 H51 H 0.56898 0.49602 0.22411
 H52 H 0.60332 0.52737 0.26583
 H53 H 0.58625 0.44260 0.28686
 H54 H 0.58457 0.55822 0.21579
 C55 C 0.90436 0.47390 0.75039
 C56 C 0.91431 0.49112 0.74391
 C57 C 0.92467 0.49045 0.72674
 C58 C 0.92548 0.47261 0.71599
 C59 C 0.91524 0.45548 0.72255
 C60 C 0.90448 0.45597 0.73968
 C61 C 0.91465 0.50972 0.75544
 C62 C 0.92487 0.50997 0.77260
 C63 C 0.92629 0.52772 0.78351
 C64 C 0.91670 0.54523 0.77693
 C65 C 0.90608 0.54515 0.75980
 C66 C 0.90541 0.52728 0.74904
 H67 H 0.89643 0.47461 0.76371
 H68 H 0.93243 0.50382 0.72203
 H69 H 0.93202 0.49624 0.77717
 H70 H 0.89754 0.52687 0.73574
 H71 H 0.91556 0.44175 0.71423
 H72 H 0.91738 0.55897 0.78521
 C73 C 0.25784 0.35233 1.02416
 C74 C 0.25801 0.36639 1.00952
 C75 C 0.27423 0.37982 1.00778
 C76 C 0.29031 0.37926 1.02058
 C77 C 0.28975 0.36511 1.03519
 C78 C 0.27364 0.35152 1.03724
 C79 C 0.24174 0.36600 0.99536
 C80 C 0.22554 0.37952 0.99658
 C81 C 0.20966 0.37839 0.98354
 C82 C 0.21044 0.36356 0.96926
 C83 C 0.22651 0.34998 0.96779
 C84 C 0.24209 0.35131 0.98101
 H85 H 0.24533 0.34198 1.02517
 H86 H 0.27440 0.39042 0.99630
 H87 H 0.22525 0.39067 1.00779
 H88 H 0.25455 0.34090 0.98024
 H89 H 0.30208 0.36462 1.04502
 H90 H 0.19839 0.36258 0.95915
 C91 C 0.74123 0.14772 1.01895
 C92 C 0.74124 0.13288 1.00475
 C93 C 0.72514 0.11924 1.00345
 C94 C 0.70895 0.12044 1.01623
 C95 C 0.70931 0.13542 1.03039
 C96 C 0.72535 0.14914 1.03202
 C97 C 0.75784 0.13243 0.99083
 C98 C 0.77373 0.11869 0.99256
 C99 C 0.79015 0.11923 0.98000
 C100 C 0.79021 0.13363 0.96560
 C101 C 0.77444 0.14745 0.96363
 C102 C 0.75832 0.14674 0.97642
 H103 H 0.75372 0.15813 1.01968
 H104 H 0.72517 0.10796 0.99235
 H105 H 0.77341 0.10789 1.00388
 H106 H 0.74611 0.15738 0.97531
 H107 H 0.69691 0.13637 1.04022
 H108 H 0.80271 0.13417 0.95587
 C109 C 0.24441 0.64817 0.51972
 C110 C 0.24396 0.63335 0.50551
 C111 C 0.22749 0.62013 0.50431
 C112 C 0.21141 0.62175 0.51721
 C113 C 0.21228 0.63669 0.53137
 C114 C 0.22867 0.64994 0.53283
 C115 C 0.26056 0.63238 0.49162
 C116 C 0.27620 0.61838 0.49363
 C117 C 0.29272 0.61847 0.48119
 C118 C 0.29317 0.63269 0.46665
 C119 C 0.27770 0.64678 0.46441
 C120 C 0.26143 0.64651 0.47705
 H121 H 0.25713 0.65830 0.52050
 H122 H 0.22716 0.60884 0.49323
 H123 H 0.27560 0.60775 0.50508
 H124 H 0.24944 0.65737 0.47574
 H125 H 0.20008 0.63804 0.54138
 H126 H 0.30577 0.63289 0.45702
 C127 C 0.75972 0.85387 0.52315
 C128 C 0.75957 0.86792 0.50851
 C129 C 0.77566 0.88150 0.50657
 C130 C 0.79197 0.88114 0.51920
 C131 C 0.79160 0.86697 0.53385
 C132 C 0.77570 0.85326 0.53596
 C133 C 0.74330 0.86718 0.49437
 C134 C 0.72678 0.88032 0.49556
 C135 C 0.71101 0.87887 0.48242
 C136 C 0.71222 0.86413 0.46809
 C137 C 0.72862 0.85095 0.46666
 C138 C 0.74408 0.85258 0.47997
 H139 H 0.74743 0.84329 0.52436
 H140 H 0.77552 0.89200 0.49501
 H141 H 0.72618 0.89142 0.50681
 H142 H 0.75680 0.84250 0.47922
 H143 H 0.80389 0.86645 0.54372
 H144 H 0.70026 0.86290 0.45790
 C145 C -0.03043 0.24611 0.33320
 C146 C -0.01085 0.24510 0.34003
 C147 C -0.00566 0.23023 0.35295
 C148 C -0.02008 0.21653 0.35945
 C149 C -0.03962 0.21752 0.35218
 C150 C -0.04506 0.23240 0.33928
 C151 C 0.00356 0.26114 0.33562
 C152 C -0.00148 0.28111 0.33987
 C153 C 0.01299 0.29635 0.33881
 C154 C 0.03222 0.29156 0.33219
 C155 C 0.03753 0.27159 0.32806
 C156 C 0.02303 0.25641 0.32971
 H157 H -0.03421 0.25797 0.32348
 H158 H 0.00941 0.23010 0.35857
 H159 H -0.01627 0.28444 0.34543
 H160 H 0.02696 0.24083 0.32704
 H161 H -0.05086 0.20698 0.35703
 H162 H 0.04352 0.30323 0.33158
 C163 C -0.03307 0.75698 0.17114
 C164 C -0.01253 0.75973 0.16803
 C165 C -0.00547 0.77795 0.16084
 C166 C -0.01888 0.79338 0.15655
 C167 C -0.03936 0.79071 0.16019
 C168 C -0.04674 0.77235 0.16699
 C169 C 0.00125 0.74265 0.16965
 C170 C -0.00247 0.72508 0.15920
 C171 C 0.01188 0.70969 0.15816
 C172 C 0.02946 0.71166 0.16884
 C173 C 0.03346 0.72931 0.17914
 C174 C 0.01921 0.74475 0.17955
 H175 H -0.03828 0.74255 0.17620
 H176 H 0.01031 0.77962 0.15755
 H177 H -0.01605 0.72413 0.15092
 H178 H 0.02223 0.75868 0.18708
 H179 H -0.04970 0.80254 0.15649
 H180 H 0.04076 0.70001 0.16812
 C181 C 0.46968 0.25523 0.67365
 C182 C 0.48993 0.25701 0.66876
 C183 C 0.49691 0.27464 0.66028
 C184 C 0.48369 0.29038 0.65644
 C185 C 0.46355 0.28866 0.66188
 C186 C 0.45632 0.27098 0.67007
 C187 C 0.50326 0.23952 0.66999
 C188 C 0.49793 0.22156 0.66082
 C189 C 0.51172 0.20578 0.65915
 C190 C 0.53054 0.20776 0.66764
 C191 C 0.53618 0.22579 0.67655
 C192 C 0.52234 0.24158 0.67787
 H193 H 0.46432 0.24130 0.67967
 H194 H 0.51239 0.27555 0.65569
 H195 H 0.48353 0.22047 0.65388
 H196 H 0.52657 0.25578 0.68434
 H197 H 0.45319 0.30061 0.65857
 H198 H 0.54141 0.19580 0.66602
 C199 C 0.46790 0.74164 0.83002
 C200 C 0.48799 0.73996 0.83527
 C201 C 0.49412 0.72389 0.84649
 C202 C 0.48013 0.70963 0.85282
 C203 C 0.46013 0.71122 0.84689
 C204 C 0.45382 0.72739 0.83595
 C205 C 0.50198 0.75652 0.83143
 C206 C 0.49719 0.77593 0.83780
 C207 C 0.51143 0.79140 0.83706
 C208 C 0.53010 0.78754 0.82871
 C209 C 0.53517 0.76811 0.82244
 C210 C 0.52095 0.75263 0.82378
 H211 H 0.46323 0.75445 0.82181
 H212 H 0.50955 0.72330 0.85114
 H213 H 0.48285 0.77852 0.84461
 H214 H 0.52474 0.73743 0.81946
 H215 H 0.44910 0.70042 0.85164
 H216 H 0.54127 0.79936 0.82836
 C217 C -0.27673 0.65266 1.00119
 C218 C -0.25962 0.66279 1.00770
 C219 C -0.26028 0.67325 1.02487
 C220 C -0.27802 0.67403 1.03557
 C221 C -0.29506 0.66363 1.02897
 C222 C -0.29462 0.65268 1.01181
 C223 C -0.24131 0.66340 0.99600
 C224 C -0.24174 0.67327 0.97871
 C225 C -0.22447 0.67457 0.96733
 C226 C -0.20670 0.66528 0.97360
 C227 C -0.20610 0.65503 0.99090
 C228 C -0.22352 0.65445 1.00212
 H229 H -0.27589 0.64470 0.98782
 H230 H -0.24700 0.68119 1.02959
 H231 H -0.25566 0.68013 0.97435
 H232 H -0.22344 0.64680 1.01551
 H233 H -0.30868 0.66405 1.03729
 H234 H -0.19332 0.66586 0.96494
 C235 C -0.27560 0.34691 0.49942
 C236 C -0.25839 0.33719 0.49260
 C237 C -0.25883 0.32727 0.47518
 C238 C -0.27645 0.32667 0.46445
 C239 C -0.29363 0.33670 0.47132
 C240 C -0.29339 0.34710 0.48879
 C241 C -0.24001 0.33675 0.50404
 C242 C -0.24010 0.32662 0.52119
 C243 C -0.22269 0.32550 0.53216
 C244 C -0.20514 0.33517 0.52579
 C245 C -0.20488 0.34570 0.50863
 C246 C -0.22243 0.34612 0.49773
 H247 H -0.27488 0.35450 0.51297
 H248 H -0.24543 0.31968 0.47022
 H249 H -0.25380 0.31938 0.52579
 H250 H -0.22262 0.35397 0.48444
 H251 H -0.30715 0.33646 0.46297
 H252 H -0.19172 0.33464 0.53428
 C253 C 0.22241 -0.15423 -0.00166
 C254 C 0.23949 -0.16430 -0.00828
 C255 C 0.23888 -0.17466 -0.02552
 C256 C 0.22116 -0.17539 -0.03622
 C257 C 0.20414 -0.16494 -0.02941
 C258 C 0.20465 -0.15420 -0.01220
 C259 C 0.25774 -0.16482 0.00334
 C260 C 0.25710 -0.17420 0.02086
 C261 C 0.27419 -0.17504 0.03237
 C262 C 0.29203 -0.16584 0.02594
 C263 C 0.29284 -0.15608 0.00838
 C264 C 0.27559 -0.15596 -0.00293
 H265 H 0.22310 -0.14632 0.01173
 H266 H 0.25223 -0.18250 -0.03025
 H267 H 0.24310 -0.18096 0.02535
 H268 H 0.27582 -0.14864 -0.01649
 H269 H 0.19044 -0.16507 -0.03751
 H270 H 0.30527 -0.16603 0.03470
 C271 C 0.22447 1.15368 0.50002
 C272 C 0.24167 1.16347 0.50676
 C273 C 0.24104 1.17364 0.52410
 C274 C 0.22326 1.17442 0.53474
 C275 C 0.20613 1.16433 0.52790
 C276 C 0.20661 1.15377 0.51059
 C277 C 0.26011 1.16390 0.49524
 C278 C 0.26010 1.17403 0.47809
 C279 C 0.27753 1.17512 0.46690
 C280 C 0.29502 1.16535 0.47324
 C281 C 0.29519 1.15485 0.49042
 C282 C 0.27762 1.15450 0.50144
 H283 H 0.22516 1.14590 0.48657
 H284 H 0.25440 1.18131 0.52901
 H285 H 0.24638 1.18126 0.47369
 H286 H 0.27737 1.14666 0.51473
 H287 H 0.19243 1.16463 0.53611
 H288 H 0.30851 1.16575 0.46473
 C289 C 0.10137 0.50805 0.22768
 C290 C 0.11552 0.50842 0.24228
 C291 C 0.12891 0.52475 0.24386
 C292 C 0.12823 0.54071 0.23092
 C293 C 0.11398 0.53991 0.21638
 C294 C 0.10046 0.52376 0.21459
 C295 C 0.11518 0.49236 0.25661
 C296 C 0.12820 0.47574 0.25529
 C297 C 0.12709 0.46008 0.26854
 C298 C 0.11281 0.46151 0.28315
 C299 C 0.09972 0.47801 0.28470
 C300 C 0.10103 0.49336 0.27128
 H301 H 0.09096 0.49556 0.22671
 H302 H 0.13957 0.52511 0.25531
 H303 H 0.13893 0.47495 0.24383
 H304 H 0.09100 0.50614 0.27211
 H305 H 0.11332 0.55206 0.20639
 H306 H 0.11182 0.44962 0.29340
 C307 C -0.10229 0.99291 0.22840
 C308 C -0.11702 0.99314 0.24254
 C309 C -0.13055 0.97698 0.24401
 C310 C -0.12937 0.96039 0.23145
 C311 C -0.11447 0.96062 0.21728
 C312 C -0.10086 0.97675 0.21551
 C313 C -0.11744 1.01005 0.25628
 C314 C -0.13140 1.02577 0.25454
 C315 C -0.13085 1.04256 0.26689
 C316 C -0.11614 1.04301 0.28110
 C317 C -0.10213 1.02742 0.28304
 C318 C -0.10290 1.01099 0.27049
 H319 H -0.09196 1.00547 0.22756
 H320 H -0.14171 0.97730 0.25513
 H321 H -0.14235 1.02497 0.24334
 H322 H -0.09210 0.99891 0.27160
 H323 H -0.11342 0.94807 0.20750
 H324 H -0.11550 1.05566 0.29079
 C325 C 0.39822 0.49125 -0.26977
 C326 C 0.38340 0.49181 -0.25568
 C327 C 0.36957 0.47590 -0.25426
 C328 C 0.37055 0.45934 -0.26678
 C329 C 0.38549 0.45915 -0.28084
 C330 C 0.39942 0.47500 -0.28261
 C331 C 0.38324 0.50870 -0.24192
 C332 C 0.36947 0.52459 -0.24355
 C333 C 0.37018 0.54127 -0.23106
 C334 C 0.38485 0.54141 -0.21680
 C335 C 0.39865 0.52561 -0.21495
 C336 C 0.39775 0.50933 -0.22768
 H337 H 0.40881 0.50360 -0.27058
 H338 H 0.35833 0.47633 -0.24322
 H339 H 0.35852 0.52401 -0.25475
 H340 H 0.40837 0.49709 -0.22664
 H341 H 0.38626 0.44648 -0.29049
 H342 H 0.38562 0.55395 -0.20700
 C343 C 0.60073 0.00723 -0.27345
 C344 C 0.61475 0.00762 -0.25874
 C345 C 0.62820 0.02388 -0.25713
 C346 C 0.62773 0.03977 -0.27014
 C347 C 0.61360 0.03898 -0.28480
 C348 C 0.59998 0.02285 -0.28672
 C349 C 0.61437 -0.00853 -0.24447
 C350 C 0.62762 -0.02497 -0.24574
 C351 C 0.62648 -0.04078 -0.23266
 C352 C 0.61193 -0.03970 -0.21828
 C353 C 0.59859 -0.02340 -0.21677
 C354 C 0.59994 -0.00787 -0.23002
 H355 H 0.59037 -0.00531 -0.27438
 H356 H 0.63878 0.02421 -0.24562
 H357 H 0.63856 -0.02551 -0.25704
 H358 H 0.58971 0.00475 -0.22922
 H359 H 0.61319 0.05116 -0.29478
 H360 H 0.61093 -0.05170 -0.20814
 C361 C -0.00903 0.22345 0.92412
 C362 C -0.01013 0.24298 0.91703
 C363 C -0.02668 0.24866 0.90624
 C364 C -0.04200 0.23484 0.90233
 C365 C -0.04099 0.21551 0.90996
 C366 C -0.02434 0.20953 0.92044
 C367 C 0.00718 0.25658 0.91853
 C368 C 0.02594 0.25011 0.91198
 C369 C 0.04189 0.26372 0.91046
 C370 C 0.03915 0.28366 0.91649
 C371 C 0.02036 0.29041 0.92274
 C372 C 0.00445 0.27668 0.92394
 H373 H 0.00412 0.21900 0.93193
 H374 H -0.02700 0.26347 0.90002
 H375 H 0.02767 0.23480 0.90686
 H376 H -0.01028 0.28170 0.92839
 H377 H -0.05257 0.20464 0.90663
 H378 H 0.05129 0.29434 0.91494
 C379 C 0.50438 0.21835 0.07917
 C380 C 0.50699 0.23884 0.08314
 C381 C 0.52540 0.24582 0.09003
 C382 C 0.54109 0.23235 0.09327
 C383 C 0.53848 0.21195 0.08876
 C384 C 0.52005 0.20475 0.08212
 C385 C 0.48977 0.25254 0.08266
 C386 C 0.47255 0.24794 0.09311
 C387 C 0.45713 0.26207 0.09515
 C388 C 0.45869 0.28048 0.08584
 C389 C 0.47598 0.28539 0.07559
 C390 C 0.49145 0.27124 0.07391
 H391 H 0.48991 0.21303 0.07437
 H392 H 0.52702 0.26153 0.09395
 H393 H 0.47178 0.23383 0.10060
 H394 H 0.50509 0.27492 0.06638
 H395 H 0.55042 0.20142 0.09160
 H396 H 0.44701 0.29161 0.08767
 C397 C 0.00550 0.71940 0.58385
 C398 C 0.00974 0.73990 0.58620
 C399 C 0.02938 0.74617 0.58990
 C400 C 0.04476 0.73202 0.59166
 C401 C 0.04045 0.71160 0.58873
 C402 C 0.02081 0.70511 0.58525
 C403 C -0.00664 0.75456 0.58746
 C404 C -0.02193 0.75180 0.60075
 C405 C -0.03634 0.76683 0.60396
 C406 C -0.03569 0.78425 0.59294
 C407 C -0.02035 0.78722 0.57971
 C408 C -0.00584 0.77226 0.57701
 H409 H -0.00985 0.71466 0.58156
 H410 H 0.03236 0.76195 0.59268
 H411 H -0.02187 0.73832 0.60920
 H412 H 0.00635 0.77447 0.56712
 H413 H 0.05221 0.70057 0.59039
 H414 H -0.04662 0.79604 0.59526
 C415 C 0.49391 0.72168 0.41811
 C416 C 0.49356 0.74063 0.40974
 C417 C 0.47915 0.74492 0.39608
 C418 C 0.46534 0.73018 0.39045
 C419 C 0.46561 0.71136 0.39917
 C420 C 0.47997 0.70689 0.41284
 C421 C 0.50983 0.75506 0.41335
 C422 C 0.52964 0.74922 0.40976
 C423 C 0.54513 0.76345 0.41007
 C424 C 0.54074 0.78337 0.41520
 C425 C 0.52093 0.78947 0.41859
 C426 C 0.50550 0.77516 0.41777
 H427 H 0.50540 0.71839 0.42835
 H428 H 0.47948 0.75937 0.38916
 H429 H 0.53269 0.73387 0.40534
 H430 H 0.49005 0.77965 0.41988
 H431 H 0.45502 0.69988 0.39483
 H432 H 0.55261 0.79448 0.41521
 Zr433 Zr 0.01652 -0.03001 1.03225
 O434 O 0.03844 -0.01693 1.05000
 O435 O 0.01254 -0.05805 1.04436
 O436 O 0.00478 -0.02608 1.05990
 O437 O 0.04952 -0.04516 0.99732
 O438 O -0.02386 -0.00807 1.05526
 O439 O 0.04441 -0.04515 1.02913
 O440 O -0.01321 -0.07198 1.02764
 O441 O -0.01458 -0.03365 1.03001
 O442 O 0.01155 -0.04834 1.00862
 O443 O 0.00473 -0.00084 1.02994
 O444 O 0.03025 -0.01509 1.00952
 Zr445 Zr -0.01895 -0.00759 0.97974
 Zr446 Zr -0.02614 -0.00475 1.02606
 Zr447 Zr 0.02348 -0.03289 0.98583
 Zr448 Zr -0.01929 -0.05115 1.00597
 O449 O 0.04917 -0.01976 0.97338
 O450 O -0.04675 -0.05695 1.02005
 O451 O -0.00739 -0.03705 0.98195
 O452 O -0.03231 -0.02275 1.00246
 O453 O -0.01409 0.01091 1.00332
 O454 O 0.01207 -0.00410 0.98228
 C455 C -0.00018 -0.07207 1.04099
 C456 C 0.05485 -0.04925 1.01421
 C457 C -0.01119 -0.01702 1.06585
 O458 O -0.05329 -0.01711 1.03625
 O459 O -0.05053 0.01098 1.01464
 O460 O -0.04599 0.00880 0.98283
 C461 C -0.05581 0.01458 0.99760
 O462 O 0.04037 0.01945 1.02570
 Zr463 Zr 0.01693 0.01322 1.00633
 O464 O -0.01480 0.02095 0.96797
 O465 O -0.02759 0.02398 1.03906
 O466 O 0.00870 0.03959 1.02150
 O467 O 0.04349 0.02078 0.99149
 O468 O 0.00929 0.03515 0.98661
 C469 C -0.00325 0.03555 0.97295
 O470 O -0.04193 -0.01986 0.96265
 O471 O 0.02656 -0.06239 0.97474
 O472 O -0.00868 -0.01369 0.95199
 O473 O 0.01928 -0.03273 0.95659
 O474 O -0.01086 -0.07851 0.99257
 O475 O -0.04059 -0.05917 0.98503
 C476 C 0.00639 -0.02411 0.94598
 H477 H 0.01783 -0.06176 1.00958
 H478 H -0.04691 -0.02435 1.00054
 H479 H 0.01830 0.00233 0.97119
 H480 H 0.00762 0.00728 1.04136
 H481 H -0.04859 -0.07173 1.02033
 H482 H -0.05949 -0.00679 1.04456
 H483 H -0.04028 0.02443 1.04635
 H484 H 0.01687 0.05083 1.01654
 H485 H -0.01922 -0.08934 0.99804
 H486 H 0.03923 -0.06266 0.96743
 H487 H 0.05550 -0.03028 0.96537
 H488 H 0.04501 0.03560 0.99216
 H489 H -0.04710 -0.07204 0.98844
 H490 H -0.04509 -0.00972 0.95296
 H491 H 0.04176 -0.02710 1.05962
 H492 H 0.04481 0.03357 1.02432
 Zr493 Zr 0.51833 0.46859 0.53457
 O494 O 0.53968 0.48137 0.55310
 O495 O 0.51454 0.44002 0.54568
 O496 O 0.50598 0.47151 0.56210
 O497 O 0.55250 0.45558 0.49990
 O498 O 0.47700 0.48893 0.55736
 O499 O 0.54651 0.45398 0.53152
 O500 O 0.48965 0.42613 0.52781
 O501 O 0.48737 0.46437 0.53154
 O502 O 0.51431 0.45110 0.51024
 O503 O 0.50596 0.49760 0.53290
 O504 O 0.53225 0.48471 0.51265
 Zr505 Zr 0.48359 0.49221 0.48205
 Zr506 Zr 0.47528 0.49316 0.52825
 Zr507 Zr 0.52645 0.46768 0.48826
 Zr508 Zr 0.48361 0.44771 0.50682
 O509 O 0.55206 0.48200 0.47685
 O510 O 0.45600 0.44071 0.52012
 O511 O 0.49579 0.46295 0.48358
 O512 O 0.47004 0.47593 0.50397
 O513 O 0.48749 0.50991 0.50630
 O514 O 0.51446 0.49633 0.48533
 C515 C 0.50231 0.42581 0.54147
 C516 C 0.55743 0.45075 0.51672
 C517 C 0.48969 0.48005 0.56797
 O518 O 0.44820 0.47978 0.53743
 O519 O 0.45085 0.50884 0.51685
 O520 O 0.45619 0.50798 0.48511
 C521 C 0.44593 0.51303 0.49984
 O522 O 0.54141 0.51878 0.52989
 Zr523 Zr 0.51836 0.51284 0.51003
 O524 O 0.48740 0.52123 0.47127
 O525 O 0.47281 0.52136 0.54214
 O526 O 0.50936 0.53833 0.52612
 O527 O 0.54487 0.52170 0.49577
 O528 O 0.51030 0.53549 0.49114
 C529 C 0.49818 0.53603 0.47715
 O530 O 0.46120 0.48018 0.46414
 O531 O 0.53066 0.43869 0.47633
 O532 O 0.49453 0.48707 0.45435
 O533 O 0.52288 0.46866 0.45899
 O534 O 0.49295 0.42108 0.49268
 O535 O 0.46299 0.44013 0.48516
 C536 C 0.50994 0.47717 0.44837
 H537 H 0.52085 0.43778 0.51088
 H538 H 0.45552 0.47410 0.50170
 H539 H 0.52074 0.50331 0.47456
 H540 H 0.50842 0.50537 0.54462
 H541 H 0.45445 0.42588 0.51974
 H542 H 0.44156 0.48965 0.54592
 H543 H 0.45995 0.52124 0.54916
 H544 H 0.51733 0.54997 0.52171
 H545 H 0.48464 0.40988 0.49752
 H546 H 0.54349 0.43904 0.46927
 H547 H 0.55883 0.47199 0.46860
 H548 H 0.54596 0.53652 0.49694
 H549 H 0.45670 0.42699 0.48794
 H550 H 0.45809 0.49060 0.45470
 H551 H 0.54295 0.47092 0.56247
 H552 H 0.54562 0.53303 0.52900
 Zr553 Zr 0.48389 1.02977 0.52968
 O554 O 0.46134 1.01797 0.54747
 O555 O 0.48923 1.05769 0.54204
 O556 O 0.49544 1.02553 0.55724
 O557 O 0.45203 1.04650 0.49498
 O558 O 0.52305 1.00591 0.55225
 O559 O 0.45664 1.04607 0.52681
 O560 O 0.51581 1.07016 0.52549
 O561 O 0.51515 1.03176 0.52736
 O562 O 0.48997 1.04770 0.50629
 O563 O 0.49417 0.99999 0.52691
 O564 O 0.46961 1.01545 0.50675
 Zr565 Zr 0.51856 1.00515 0.47667
 Zr566 Zr 0.52520 1.00227 0.52298
 Zr567 Zr 0.47746 1.03277 0.48330
 Zr568 Zr 0.52093 1.04886 0.50355
 O569 O 0.45118 1.02094 0.47077
 O570 O 0.54852 1.05333 0.51769
 O571 O 0.50853 1.03523 0.47936
 O572 O 0.53245 1.01979 0.49960
 O573 O 0.51259 0.98705 0.50003
 O574 O 0.48737 1.00341 0.47932
 C575 C 0.50267 1.07102 0.53884
 C576 C 0.44660 1.05073 0.51194
 C577 C 0.51092 1.01570 0.56301
 O578 O 0.55288 1.01329 0.53328
 O579 O 0.54893 0.98541 0.51138
 O580 O 0.54494 0.98759 0.47958
 C581 C 0.55438 0.98157 0.49433
 O582 O 0.45779 0.98133 0.52262
 Zr583 Zr 0.48146 0.98644 0.50312
 O584 O 0.51266 0.97692 0.46436
 O585 O 0.52506 0.97357 0.53557
 O586 O 0.48854 0.95968 0.51764
 O587 O 0.45441 0.98039 0.48853
 O588 O 0.48758 0.96421 0.48274
 C589 C 0.50003 0.96314 0.46892
 O590 O 0.54221 1.01600 0.45959
 O591 O 0.47605 1.06235 0.47265
 O592 O 0.50869 1.01173 0.44903
 O593 O 0.48179 1.03229 0.45406
 O594 O 0.51397 1.07651 0.49047
 O595 O 0.54281 1.05564 0.48272
 C596 C 0.49420 1.02291 0.44324
 H597 H 0.48435 1.06142 0.50744
 H598 H 0.54712 1.02065 0.49770
 H599 H 0.48080 0.99734 0.46816
 H600 H 0.49081 0.99209 0.53824
 H601 H 0.55115 1.06800 0.51811
 H602 H 0.55852 1.00271 0.54142
 H603 H 0.53766 0.97248 0.54282
 H604 H 0.47984 0.94884 0.51256
 H605 H 0.52280 1.08695 0.49606
 H606 H 0.46344 1.06330 0.46540
 H607 H 0.44548 1.03171 0.46290
 H608 H 0.45206 0.96568 0.48894
 H609 H 0.54986 1.06823 0.48625
 H610 H 0.54481 1.00563 0.44975
 H611 H 0.45855 1.02838 0.55722
 H612 H 0.45280 0.96738 0.52112
 Zr613 Zr -0.01483 0.53366 1.02990
 O614 O -0.03763 0.52238 1.04771
 O615 O -0.00911 0.56161 1.04214
 O616 O -0.00362 0.52927 1.05757
 O617 O -0.04630 0.55050 0.99489
 O618 O 0.02380 0.50934 1.05282
 O619 O -0.04197 0.55008 1.02675
 O620 O 0.01769 0.57357 1.02557
 O621 O 0.01646 0.53529 1.02772
 O622 O -0.00844 0.55133 1.00640
 O623 O -0.00487 0.50376 1.02737
 O624 O -0.02913 0.51930 1.00699
 Zr625 Zr 0.01986 0.50824 0.97724
 Zr626 Zr 0.02622 0.50566 1.02360
 Zr627 Zr -0.02097 0.53633 0.98344
 Zr628 Zr 0.02256 0.55211 1.00379
 O629 O -0.04733 0.52468 0.97092
 O630 O 0.05017 0.55637 1.01793
 O631 O 0.01013 0.53843 0.97963
 O632 O 0.03379 0.52290 1.00013
 O633 O 0.01356 0.49041 1.00070
 O634 O -0.01136 0.50682 0.97974
 C635 C 0.00457 0.57469 1.03891
 C636 C -0.05186 0.55477 1.01180
 C637 C 0.01163 0.51921 1.06348
 O638 O 0.05386 0.51654 1.03407
 O639 O 0.04986 0.48851 1.01221
 O640 O 0.04603 0.49046 0.98037
 C641 C 0.05533 0.48445 0.99521
 O642 O -0.04152 0.48553 1.02295
 Zr643 Zr -0.01759 0.49014 1.00363
 O644 O 0.01399 0.47987 0.96528
 O645 O 0.02575 0.47700 1.03628
 O646 O -0.01103 0.46349 1.01853
 O647 O -0.04449 0.48416 0.98879
 O648 O -0.01132 0.46757 0.98361
 C649 C 0.00133 0.46619 0.96998
 O650 O 0.04365 0.51885 0.96020
 O651 O -0.02197 0.56581 0.97250
 O652 O 0.01012 0.51447 0.94950
 O653 O -0.01652 0.53544 0.95421
 O654 O 0.01591 0.57972 0.99050
 O655 O 0.04459 0.55850 0.98299
 C656 C -0.00423 0.52572 0.94354
 H657 H -0.01391 0.56512 1.00745
 H658 H 0.04849 0.52359 0.99829
 H659 H -0.01790 0.50066 0.96861
 H660 H -0.00840 0.49597 1.03872
 H661 H 0.05297 0.57101 1.01829
 H662 H 0.05938 0.50594 1.04226
 H663 H 0.03831 0.47582 1.04357
 H664 H -0.01980 0.45269 1.01348
 H665 H 0.02482 0.59012 0.99604
 H666 H -0.03452 0.56681 0.96516
 H667 H -0.05287 0.53543 0.96291
 H668 H -0.04696 0.46947 0.98930
 H669 H 0.05172 0.57107 0.98642
 H670 H 0.04626 0.50839 0.95045
 H671 H -0.04036 0.53294 1.05734
 H672 H -0.04673 0.47165 1.02148
 Zr673 Zr -0.01636 0.47204 0.46918
 O674 O -0.03970 0.48474 0.45315
 O675 O -0.01103 0.44532 0.45469
 O676 O -0.00582 0.47805 0.44153
 O677 O -0.04641 0.45199 0.50400
 O678 O 0.02165 0.49793 0.44641
 O679 O -0.04326 0.45507 0.47214
 O680 O 0.01698 0.43284 0.46872
 O681 O 0.01497 0.47062 0.47008
 O682 O -0.00905 0.45253 0.49103
 O683 O -0.00644 0.50180 0.47324
 O684 O -0.02990 0.48437 0.49353
 Zr685 Zr 0.02000 0.49360 0.52195
 Zr686 Zr 0.02477 0.49994 0.47573
 Zr687 Zr -0.02081 0.46553 0.51544
 Zr688 Zr 0.02202 0.45192 0.49238
 O689 O -0.04691 0.47557 0.52970
 O690 O 0.04949 0.44907 0.47749
 O691 O 0.01041 0.46351 0.51790
 O692 O 0.03321 0.48093 0.49761
 O693 O 0.01285 0.51324 0.50010
 O694 O -0.01128 0.49481 0.52068
 C695 C 0.00331 0.43264 0.45592
 C696 C -0.05256 0.44905 0.48708
 C697 C 0.00938 0.48835 0.43567
 O698 O 0.05224 0.49035 0.46369
 O699 O 0.04866 0.51647 0.48739
 O700 O 0.04597 0.51184 0.51909
 C701 C 0.05473 0.51912 0.50440
 O702 O -0.04284 0.51930 0.48018
 Zr703 Zr -0.01838 0.51336 0.49835
 O704 O 0.01419 0.52073 0.53628
 O705 O 0.02358 0.52941 0.46484
 O706 O -0.01211 0.54126 0.48536
 O707 O -0.04500 0.51792 0.51423
 O708 O -0.01196 0.53409 0.52000
 C709 C 0.00101 0.53441 0.53331
 O710 O 0.04437 0.48183 0.53730
 O711 O -0.02090 0.43524 0.52432
 O712 O 0.01114 0.48539 0.54953
 O713 O -0.01556 0.46452 0.54453
 O714 O 0.01576 0.42297 0.50324
 O715 O 0.04437 0.44395 0.51216
 C716 C -0.00306 0.47375 0.55532
 H717 H -0.01445 0.43879 0.48912
 H718 H 0.04796 0.48025 0.49887
 H719 H -0.01758 0.49997 0.53239
 H720 H -0.01035 0.51037 0.46255
 H721 H 0.05232 0.43451 0.47603
 H722 H 0.05734 0.50160 0.45596
 H723 H 0.03588 0.53127 0.45720
 H724 H -0.02071 0.55156 0.49150
 H725 H 0.02458 0.41330 0.49650
 H726 H -0.03319 0.43338 0.53199
 H727 H -0.05205 0.46406 0.53708
 H728 H -0.04762 0.53259 0.51469
 H729 H 0.05132 0.43161 0.50778
 H730 H 0.04730 0.49153 0.54762
 H731 H -0.04273 0.47502 0.44287
 H732 H -0.04772 0.53317 0.48245
 Zr733 Zr 0.48325 -0.03271 -0.03186
 O734 O 0.46000 -0.02036 -0.04824
 O735 O 0.48857 -0.05983 -0.04574
 O736 O 0.49380 -0.02712 -0.05961
 O737 O 0.45283 -0.05163 0.00329
 O738 O 0.52141 -0.00738 -0.05495
 O739 O 0.45622 -0.04942 -0.02862
 O740 O 0.51615 -0.07234 -0.03102
 O741 O 0.51457 -0.03436 -0.03078
 O742 O 0.49028 -0.05167 -0.00950
 O743 O 0.49337 -0.00294 -0.02834
 O744 O 0.46967 -0.01964 -0.00784
 Zr745 Zr 0.51948 -0.01014 0.02065
 Zr746 Zr 0.52455 -0.00497 -0.02567
 Zr747 Zr 0.47845 -0.03796 0.01456
 Zr748 Zr 0.52132 -0.05251 -0.00797
 O749 O 0.45236 -0.02724 0.02840
 O750 O 0.54876 -0.05597 -0.02281
 O751 O 0.50964 -0.04021 0.01722
 O752 O 0.53273 -0.02349 -0.00334
 O753 O 0.51259 0.00899 -0.00168
 O754 O 0.48822 -0.00863 0.01924
 C755 C 0.50264 -0.07275 -0.04395
 C756 C 0.44678 -0.05498 -0.01360
 C757 C 0.50901 -0.01690 -0.06558
 O758 O 0.55194 -0.01513 -0.03746
 O759 O 0.54851 0.01165 -0.01422
 O760 O 0.54556 0.00784 0.01756
 C761 C 0.55445 0.01473 0.00277
 O762 O 0.45696 0.01497 -0.02186
 Zr763 Zr 0.48139 0.00936 -0.00356
 O764 O 0.51408 0.01752 0.03417
 O765 O 0.52372 0.02429 -0.03709
 O766 O 0.48773 0.03681 -0.01734
 O767 O 0.45488 0.01458 0.01231
 O768 O 0.48822 0.03076 0.01740
 C769 C 0.50126 0.03138 0.03066
 O770 O 0.54364 -0.02179 0.03634
 O771 O 0.47795 -0.06797 0.02419
 O772 O 0.51037 -0.01749 0.04837
 O773 O 0.48353 -0.03826 0.04371
 O774 O 0.51485 -0.08103 0.00371
 O775 O 0.54361 -0.06004 0.01202
 C776 C 0.49605 -0.02886 0.05435
 H777 H 0.48477 -0.06541 -0.01110
 H778 H 0.54747 -0.02424 -0.00200
 H779 H 0.48195 -0.00305 0.03080
 H780 H 0.48956 0.00542 -0.03921
 H781 H 0.55150 -0.07058 -0.02391
 H782 H 0.55720 -0.00409 -0.04537
 H783 H 0.53608 0.02588 -0.04470
 H784 H 0.47920 0.04734 -0.01146
 H785 H 0.52364 -0.09098 -0.00269
 H786 H 0.46559 -0.06948 0.03183
 H787 H 0.44707 -0.03846 0.03605
 H788 H 0.45246 0.02929 0.01251
 H789 H 0.55056 -0.07249 0.00790
 H790 H 0.54663 -0.01188 0.04648
 H791 H 0.45696 -0.03033 -0.05832
 H792 H 0.45200 0.02884 -0.01974
 Zr793 Zr 0.51641 0.53116 -0.03083
 O794 O 0.53740 0.51969 -0.05057
 O795 O 0.51216 0.56032 -0.04039
 O796 O 0.50351 0.52923 -0.05811
 O797 O 0.55133 0.54293 0.00333
 O798 O 0.47477 0.51130 -0.05324
 O799 O 0.54456 0.54589 -0.02800
 O800 O 0.48789 0.57306 -0.02093
 O801 O 0.48549 0.53478 -0.02671
 O802 O 0.51283 0.54731 -0.00562
 O803 O 0.50441 0.50191 -0.03004
 O804 O 0.53107 0.51418 -0.01008
 Zr805 Zr 0.48325 0.50433 0.02162
 Zr806 Zr 0.47381 0.50564 -0.02432
 Zr807 Zr 0.52570 0.52985 0.01520
 Zr808 Zr 0.48220 0.55007 -0.00115
 O809 O 0.55169 0.51537 0.02532
 O810 O 0.45438 0.55732 -0.01365
 O811 O 0.49511 0.53382 0.02098
 O812 O 0.46900 0.52152 0.00086
 O813 O 0.48676 0.48796 -0.00352
 O814 O 0.51409 0.50090 0.01726
 C815 C 0.50022 0.57429 -0.03490
 C816 C 0.55581 0.54858 -0.01341
 C817 C 0.48719 0.52072 -0.06386
 O818 O 0.44638 0.51904 -0.03210
 O819 O 0.44983 0.48902 -0.01295
 O820 O 0.45595 0.48824 0.01861
 C821 C 0.44536 0.48384 0.00396
 O822 O 0.54004 0.48104 -0.02913
 Zr823 Zr 0.51757 0.48574 -0.00827
 O824 O 0.48778 0.47484 0.03098
 O825 O 0.47134 0.47811 -0.03933
 O826 O 0.50839 0.46088 -0.02508
 O827 O 0.54463 0.47677 0.00473
 O828 O 0.51043 0.46208 0.00987
 C829 C 0.49867 0.46058 0.02414
 O830 O 0.46105 0.51495 0.04062
 O831 O 0.52992 0.55831 0.02824
 O832 O 0.49464 0.50866 0.04921
 O833 O 0.52278 0.52755 0.04447
 O834 O 0.49146 0.57591 0.01426
 O835 O 0.46179 0.55623 0.02121
 C836 C 0.51006 0.51859 0.05513
 H837 H 0.51926 0.56074 -0.00579
 H838 H 0.45453 0.52301 0.00362
 H839 H 0.52070 0.49353 0.02755
 H840 H 0.50667 0.49474 -0.04214
 H841 H 0.45270 0.57210 -0.01265
 H842 H 0.43967 0.50953 -0.04087
 H843 H 0.45831 0.47835 -0.04596
 H844 H 0.51662 0.44916 -0.02145
 H845 H 0.48300 0.58730 0.01022
 H846 H 0.54298 0.55784 0.03481
 H847 H 0.55858 0.52511 0.03373
 H848 H 0.54588 0.46202 0.00297
 H849 H 0.45518 0.56933 0.01904
 H850 H 0.45835 0.50400 0.04968
 H851 H 0.54037 0.53067 -0.05951
 H852 H 0.54454 0.46686 -0.02886
 Zr853 Zr 0.01615 1.03332 0.46707
 O854 O 0.03623 1.02298 0.44599
 O855 O 0.01176 1.06316 0.45937
 O856 O 0.00229 1.03293 0.44016
 O857 O 0.05286 1.04209 0.50033
 O858 O -0.02685 1.01577 0.44532
 O859 O 0.04457 1.04755 0.46965
 O860 O -0.01109 1.07498 0.48077
 O861 O -0.01448 1.03727 0.47269
 O862 O 0.01407 1.04773 0.49332
 O863 O 0.00358 1.00428 0.46670
 O864 O 0.03139 1.01459 0.48610
 Zr865 Zr -0.01516 1.00358 0.51915
 Zr866 Zr -0.02665 1.00825 0.47386
 Zr867 Zr 0.02757 1.02859 0.51245
 Zr868 Zr -0.01626 1.05077 0.49926
 O869 O 0.05368 1.01288 0.52046
 O870 O -0.04449 1.05946 0.48848
 O871 O -0.00264 1.03279 0.51975
 O872 O -0.02998 1.02243 0.50009
 O873 O -0.01317 0.98891 0.49300
 O874 O 0.01538 0.99978 0.51335
 C875 C 0.00044 1.07696 0.46631
 C876 C 0.05655 1.04902 0.48385
 C877 C -0.01449 1.02520 0.43465
 O878 O -0.05405 1.02283 0.46803
 O879 O -0.05046 0.99141 0.48517
 O880 O -0.04290 0.98824 0.51629
 C881 C -0.05425 0.98511 0.50188
 O882 O 0.03883 0.98264 0.46494
 Zr883 Zr 0.01733 0.98633 0.48686
 O884 O -0.01077 0.97343 0.52658
 O885 O -0.03051 0.98184 0.45739
 O886 O 0.00693 0.96293 0.46888
 O887 O 0.04465 0.97588 0.49831
 O888 O 0.01023 0.96148 0.50362
 C889 C -0.00080 0.95932 0.51832
 O890 O -0.03633 1.01312 0.53964
 O891 O 0.03300 1.05599 0.52701
 O892 O -0.00260 1.00623 0.54647
 O893 O 0.02601 1.02434 0.54159
 O894 O -0.00573 1.07533 0.51575
 O895 O -0.03542 1.05564 0.52283
 C896 C 0.01336 1.01533 0.55228
 H897 H 0.02072 1.06104 0.49368
 H898 H -0.04428 1.02401 0.50354
 H899 H 0.02225 0.99159 0.52291
 H900 H 0.00514 0.99785 0.45415
 H901 H -0.04583 1.07416 0.49053
 H902 H -0.06142 1.01408 0.45904
 H903 H -0.04383 0.98282 0.45136
 H904 H 0.01507 0.95081 0.47141
 H905 H -0.01422 1.08711 0.51285
 H906 H 0.04634 1.05480 0.53297
 H907 H 0.06122 1.02188 0.52910
 H908 H 0.04549 0.96125 0.49563
 H909 H -0.04187 1.06898 0.52179
 H910 H -0.03880 1.00158 0.54810
 H911 H 0.03897 1.03451 0.43759
 H912 H 0.04310 0.96840 0.46425
 Zr913 Zr 0.72017 0.26790 0.21547
 O914 O 0.73320 0.28971 0.19769
 O915 O 0.69214 0.26388 0.20336
 O916 O 0.72385 0.25587 0.18784
 O917 O 0.70575 0.30150 0.25032
 O918 O 0.74151 0.22697 0.19254
 O919 O 0.70524 0.29599 0.21855
 O920 O 0.67819 0.23838 0.22029
 O921 O 0.71629 0.23674 0.21783
 O922 O 0.70210 0.26330 0.23917
 O923 O 0.74916 0.25585 0.21777
 O924 O 0.73540 0.28175 0.23812
 Zr925 Zr 0.74265 0.23258 0.26807
 Zr926 Zr 0.74501 0.22493 0.22174
 Zr927 Zr 0.71782 0.27536 0.26187
 Zr928 Zr 0.69904 0.23240 0.24195
 O929 O 0.73132 0.30114 0.27414
 O930 O 0.69281 0.20474 0.22803
 O931 O 0.71340 0.24446 0.26589
 O932 O 0.72724 0.21911 0.24541
 O933 O 0.76093 0.23706 0.24443
 O934 O 0.74641 0.26366 0.26541
 C935 C 0.67810 0.25126 0.20683
 C936 C 0.70144 0.30667 0.23344
 C937 C 0.73267 0.23970 0.18193
 O938 O 0.73233 0.19771 0.21167
 O939 O 0.76055 0.20044 0.23318
 O940 O 0.75873 0.20526 0.26498
 C941 C 0.76425 0.19524 0.25020
 O942 O 0.76980 0.29150 0.22194
 Zr943 Zr 0.76352 0.26813 0.24131
 O944 O 0.77116 0.23667 0.27983
 O945 O 0.77350 0.22306 0.20867
 O946 O 0.78949 0.25943 0.22601
 O947 O 0.77152 0.29481 0.25610
 O948 O 0.78551 0.26034 0.26096
 C949 C 0.78583 0.24798 0.27475
 O950 O 0.73038 0.20976 0.28523
 O951 O 0.68856 0.27891 0.27301
 O952 O 0.73683 0.24322 0.29580
 O953 O 0.71817 0.27146 0.29112
 O954 O 0.67197 0.24128 0.25534
 O955 O 0.69112 0.21132 0.26303
 C956 C 0.72667 0.25853 0.30177
 H957 H 0.68877 0.26970 0.23821
 H958 H 0.72554 0.20448 0.24737
 H959 H 0.75296 0.26996 0.27647
 H960 H 0.75718 0.25858 0.20632
 H961 H 0.67806 0.20299 0.22794
 H962 H 0.74250 0.19128 0.20339
 H963 H 0.77377 0.21024 0.20143
 H964 H 0.80087 0.26747 0.23093
 H965 H 0.66107 0.23289 0.24996
 H966 H 0.68851 0.29167 0.28034
 H967 H 0.72100 0.30771 0.28216
 H968 H 0.78630 0.29613 0.25542
 H969 H 0.67814 0.20497 0.25979
 H970 H 0.74053 0.20661 0.29492
 H971 H 0.72303 0.29300 0.18805
 H972 H 0.78396 0.29575 0.22324
 Zr973 Zr 0.78406 0.73598 0.72020
 O974 O 0.77488 0.71428 0.70002
 O975 O 0.81299 0.74268 0.71108
 O976 O 0.78183 0.74888 0.69297
 O977 O 0.79725 0.70175 0.75430
 O978 O 0.76181 0.77625 0.69791
 O979 O 0.80031 0.70863 0.72300
 O980 O 0.82325 0.76792 0.73085
 O981 O 0.78533 0.76718 0.72466
 O982 O 0.79916 0.74064 0.74563
 O983 O 0.75412 0.74580 0.72077
 O984 O 0.76763 0.72000 0.74065
 Zr985 Zr 0.75350 0.76696 0.77265
 Zr986 Zr 0.75550 0.77667 0.72679
 Zr987 Zr 0.78212 0.72640 0.76616
 Zr988 Zr 0.79955 0.77150 0.75046
 O989 O 0.76937 0.69922 0.77589
 O990 O 0.80510 0.80006 0.73847
 O991 O 0.78368 0.75729 0.77228
 O992 O 0.77021 0.78254 0.75220
 O993 O 0.73820 0.76235 0.74728
 O994 O 0.75248 0.73585 0.76795
 C995 C 0.82578 0.75580 0.71678
 C996 C 0.80338 0.69754 0.73756
 C997 C 0.77229 0.76458 0.68727
 O998 O 0.76722 0.80507 0.71921
 O999 O 0.73731 0.79960 0.73812
 O1000 O 0.73603 0.79343 0.76964
 C1001 C 0.73154 0.80384 0.75498
 O1002 O 0.73579 0.70873 0.72103
 Zr1003 Zr 0.73835 0.73136 0.74223
 O1004 O 0.72426 0.76007 0.78157
 O1005 O 0.72828 0.77721 0.71165
 O1006 O 0.71341 0.73893 0.72533
 O1007 O 0.73118 0.70340 0.75474
 O1008 O 0.71388 0.73635 0.76027
 C1009 C 0.71114 0.74794 0.77461
 O1010 O 0.76191 0.78975 0.79211
 O1011 O 0.81034 0.72439 0.77951
 O1012 O 0.75777 0.75560 0.80018
 O1013 O 0.77875 0.72892 0.79541
 O1014 O 0.82546 0.76390 0.76602
 O1015 O 0.80361 0.79220 0.77312
 C1016 C 0.76856 0.74084 0.80608
 H1017 H 0.81295 0.73519 0.74553
 H1018 H 0.77065 0.79714 0.75508
 H1019 H 0.74536 0.72858 0.77807
 H1020 H 0.74747 0.74307 0.70858
 H1021 H 0.81962 0.80289 0.73973
 H1022 H 0.75750 0.81119 0.71046
 H1023 H 0.72778 0.79029 0.70510
 H1024 H 0.70227 0.72976 0.72872
 H1025 H 0.83631 0.77322 0.76220
 H1026 H 0.81068 0.71125 0.78597
 H1027 H 0.77932 0.69301 0.78435
 H1028 H 0.71668 0.70096 0.75277
 H1029 H 0.81633 0.79964 0.77130
 H1030 H 0.75055 0.79157 0.80102
 H1031 H 0.78630 0.71224 0.69123
 H1032 H 0.72198 0.70326 0.72103
 Zr1033 Zr 0.21861 0.23302 0.78256
 O1034 O 0.23139 0.21028 0.79929
 O1035 O 0.19118 0.23754 0.79583
 O1036 O 0.22348 0.24414 0.81034
 O1037 O 0.20147 0.20128 0.74732
 O1038 O 0.24222 0.27247 0.80581
 O1039 O 0.20269 0.20544 0.77924
 O1040 O 0.17780 0.26430 0.78042
 O1041 O 0.21591 0.26437 0.78123
 O1042 O 0.19991 0.23909 0.75975
 O1043 O 0.24795 0.24413 0.77952
 O1044 O 0.23246 0.21944 0.75893
 Zr1045 Zr 0.24071 0.26930 0.73019
 Zr1046 Zr 0.24492 0.27530 0.77656
 Zr1047 Zr 0.21433 0.22730 0.73609
 Zr1048 Zr 0.19801 0.27017 0.75799
 O1049 O 0.22622 0.20136 0.72264
 O1050 O 0.19343 0.29764 0.77279
 O1051 O 0.21106 0.25847 0.73314
 O1052 O 0.22660 0.28254 0.75379
 O1053 O 0.25959 0.26337 0.75295
 O1054 O 0.24325 0.23802 0.73186
 C1055 C 0.17765 0.25091 0.79343
 C1056 C 0.19780 0.19551 0.76419
 C1057 C 0.23308 0.25981 0.81638
 O1058 O 0.23368 0.30263 0.78785
 O1059 O 0.26099 0.29965 0.76521
 O1060 O 0.25786 0.29598 0.73338
 C1061 C 0.26426 0.30533 0.74820
 O1062 O 0.26701 0.20800 0.77365
 Zr1063 Zr 0.26099 0.23211 0.75510
 O1064 O 0.26865 0.26463 0.71725
 O1065 O 0.27386 0.27570 0.78861
 O1066 O 0.28785 0.23950 0.76944
 O1067 O 0.26737 0.20553 0.73946
 O1068 O 0.28244 0.23949 0.73459
 C1069 C 0.28285 0.25238 0.72124
 O1070 O 0.22866 0.29301 0.71413
 O1071 O 0.18462 0.22544 0.72592
 O1072 O 0.23394 0.25964 0.70241
 O1073 O 0.21413 0.23206 0.70693
 O1074 O 0.17011 0.26268 0.74557
 O1075 O 0.19014 0.29214 0.73780
 C1076 C 0.22309 0.24486 0.69636
 H1077 H 0.18638 0.23313 0.76108
 H1078 H 0.22540 0.29728 0.75231
 H1079 H 0.24919 0.23179 0.72042
 H1080 H 0.25623 0.24074 0.79057
 H1081 H 0.17878 0.29990 0.77360
 H1082 H 0.24434 0.30841 0.79593
 H1083 H 0.27488 0.28829 0.79613
 H1084 H 0.29870 0.23121 0.76383
 H1085 H 0.15978 0.27126 0.75165
 H1086 H 0.18373 0.21291 0.71831
 H1087 H 0.21538 0.19553 0.71480
 H1088 H 0.28210 0.20361 0.73958
 H1089 H 0.17755 0.29885 0.74173
 H1090 H 0.23859 0.29617 0.70416
 H1091 H 0.22143 0.20704 0.80921
 H1092 H 0.28099 0.20340 0.77181
 Zr1093 Zr 0.28397 0.76526 0.28041
 O1094 O 0.27477 0.78574 0.30172
 O1095 O 0.31366 0.75982 0.28775
 O1096 O 0.28354 0.75132 0.30725
 O1097 O 0.29356 0.80170 0.24717
 O1098 O 0.26510 0.72284 0.30214
 O1099 O 0.29895 0.79337 0.27784
 O1100 O 0.32420 0.73629 0.26629
 O1101 O 0.28662 0.73438 0.27466
 O1102 O 0.29786 0.76256 0.25404
 O1103 O 0.25458 0.75381 0.28096
 O1104 O 0.26567 0.78122 0.26154
 Zr1105 Zr 0.25235 0.73489 0.22845
 Zr1106 Zr 0.25724 0.72332 0.27368
 Zr1107 Zr 0.27907 0.77677 0.23507
 Zr1108 Zr 0.29961 0.73200 0.24800
 O1109 O 0.26438 0.80357 0.22718
 O1110 O 0.30732 0.70338 0.25868
 O1111 O 0.28193 0.74628 0.22768
 O1112 O 0.27084 0.71936 0.24733
 O1113 O 0.23822 0.73755 0.25473
 O1114 O 0.24990 0.76569 0.23437
 C1115 C 0.32685 0.74788 0.28070
 C1116 C 0.30065 0.80530 0.26365
 C1117 C 0.27522 0.73481 0.31277
 O1118 O 0.27079 0.69529 0.27932
 O1119 O 0.23943 0.70004 0.26246
 O1120 O 0.23615 0.70756 0.23136
 C1121 C 0.23284 0.69634 0.24579
 O1122 O 0.23446 0.79000 0.28299
 Zr1123 Zr 0.23698 0.76827 0.26097
 O1124 O 0.22236 0.74045 0.22133
 O1125 O 0.23102 0.72052 0.29032
 O1126 O 0.21350 0.75877 0.27905
 O1127 O 0.22759 0.79613 0.24973
 O1128 O 0.21177 0.76226 0.24431
 C1129 C 0.20890 0.75117 0.22967
 O1130 O 0.26072 0.71328 0.20780
 O1131 O 0.30638 0.78111 0.22038
 O1132 O 0.25507 0.74735 0.20115
 O1133 O 0.27441 0.77527 0.20597
 O1134 O 0.32418 0.74159 0.23129
 O1135 O 0.30345 0.71246 0.22440
 C1136 C 0.26473 0.76296 0.19531
 H1137 H 0.31135 0.76876 0.25360
 H1138 H 0.27182 0.70494 0.24385
 H1139 H 0.24189 0.77290 0.22489
 H1140 H 0.24843 0.75565 0.29357
 H1141 H 0.32187 0.70145 0.25652
 H1142 H 0.26193 0.68824 0.28834
 H1143 H 0.23157 0.70713 0.29631
 H1144 H 0.20173 0.76742 0.27662
 H1145 H 0.33566 0.73270 0.23411
 H1146 H 0.30566 0.79452 0.21447
 H1147 H 0.27351 0.81070 0.21845
 H1148 H 0.21310 0.79760 0.25252
 H1149 H 0.31652 0.70553 0.22533
 H1150 H 0.24901 0.71122 0.19943
 H1151 H 0.28649 0.78807 0.31000
 H1152 H 0.22045 0.79480 0.28384
 Zr1153 Zr 0.22111 0.76674 0.71746
 O1154 O 0.23463 0.78971 0.70136
 O1155 O 0.19432 0.76225 0.70329
 O1156 O 0.22689 0.75597 0.68973
 O1157 O 0.20255 0.79794 0.75253
 O1158 O 0.24550 0.72766 0.69436
 O1159 O 0.20507 0.79419 0.72062
 O1160 O 0.18059 0.73497 0.71778
 O1161 O 0.21842 0.73537 0.71836
 O1162 O 0.20146 0.76028 0.73963
 O1163 O 0.25033 0.75573 0.72112
 O1164 O 0.23395 0.78008 0.74161
 Zr1165 Zr 0.24112 0.72987 0.76993
 Zr1166 Zr 0.24722 0.72450 0.72364
 Zr1167 Zr 0.21490 0.77181 0.76383
 Zr1168 Zr 0.19958 0.72915 0.74098
 O1169 O 0.22605 0.79765 0.77798
 O1170 O 0.19570 0.70171 0.72596
 O1171 O 0.21158 0.74058 0.76632
 O1172 O 0.22799 0.71687 0.74581
 O1173 O 0.26090 0.73619 0.74778
 O1174 O 0.24366 0.76119 0.76869
 C1175 C 0.18095 0.74853 0.70492
 C1176 C 0.19960 0.80392 0.73563
 C1177 C 0.23662 0.74037 0.68375
 O1178 O 0.23652 0.69726 0.71174
 O1179 O 0.26285 0.70009 0.73515
 O1180 O 0.25837 0.70330 0.76690
 C1181 C 0.26538 0.69418 0.75217
 O1182 O 0.26908 0.79182 0.72788
 Zr1183 Zr 0.26233 0.76749 0.74603
 O1184 O 0.26850 0.73454 0.78369
 O1185 O 0.27661 0.72445 0.71235
 O1186 O 0.28978 0.76033 0.73243
 O1187 O 0.26801 0.79395 0.76206
 O1188 O 0.28290 0.76005 0.76709
 C1189 C 0.28279 0.74698 0.78029
 O1190 O 0.22842 0.70594 0.78542
 O1191 O 0.18477 0.77324 0.77314
 O1192 O 0.23334 0.73918 0.79763
 O1193 O 0.21364 0.76670 0.79292
 O1194 O 0.17105 0.73643 0.75238
 O1195 O 0.19080 0.70706 0.76080
 C1196 C 0.22227 0.75384 0.80357
 H1197 H 0.18799 0.76618 0.73794
 H1198 H 0.22675 0.70211 0.74710
 H1199 H 0.24913 0.76732 0.78033
 H1200 H 0.25902 0.75929 0.71033
 H1201 H 0.18111 0.69940 0.72464
 H1202 H 0.24751 0.69166 0.70387
 H1203 H 0.27793 0.71198 0.70469
 H1204 H 0.30039 0.76860 0.73842
 H1205 H 0.16105 0.72787 0.74582
 H1206 H 0.18350 0.78566 0.78087
 H1207 H 0.21483 0.80331 0.78551
 H1208 H 0.28272 0.79598 0.76235
 H1209 H 0.17835 0.70037 0.75647
 H1210 H 0.23796 0.70267 0.79560
 H1211 H 0.22507 0.79309 0.69123
 H1212 H 0.28299 0.79641 0.73011
 Zr1213 Zr 0.27990 0.23374 0.21989
 O1214 O 0.26898 0.21142 0.20111
 O1215 O 0.30812 0.23958 0.20874
 O1216 O 0.27640 0.24588 0.19248
 O1217 O 0.29545 0.20097 0.25433
 O1218 O 0.25656 0.27338 0.19752
 O1219 O 0.29621 0.20641 0.22265
 O1220 O 0.31985 0.26579 0.22658
 O1221 O 0.28158 0.26507 0.22308
 O1222 O 0.29685 0.23939 0.24408
 O1223 O 0.25009 0.24379 0.22189
 O1224 O 0.26492 0.21877 0.24191
 Zr1225 Zr 0.25331 0.26714 0.27288
 Zr1226 Zr 0.25200 0.27487 0.22668
 Zr1227 Zr 0.28127 0.22618 0.26617
 Zr1228 Zr 0.29771 0.27041 0.24766
 O1229 O 0.26914 0.19951 0.27764
 O1230 O 0.30248 0.29839 0.23427
 O1231 O 0.28338 0.25729 0.27099
 O1232 O 0.26857 0.28171 0.25085
 O1233 O 0.23615 0.26158 0.24874
 O1234 O 0.25185 0.23588 0.26941
 C1235 C 0.32128 0.25294 0.21293
 C1236 C 0.30034 0.19597 0.23741
 C1237 C 0.26666 0.26146 0.18677
 O1238 O 0.26313 0.30295 0.21745
 O1239 O 0.23465 0.29833 0.23828
 O1240 O 0.23572 0.29355 0.27002
 C1241 C 0.23017 0.30334 0.25531
 O1242 O 0.23162 0.20698 0.22466
 Zr1243 Zr 0.23585 0.23040 0.24485
 O1244 O 0.22481 0.26076 0.28399
 O1245 O 0.22385 0.27483 0.21310
 O1246 O 0.20974 0.23759 0.22943
 O1247 O 0.22947 0.20297 0.25865
 O1248 O 0.21288 0.23611 0.26441
 C1249 C 0.21126 0.24826 0.27850
 O1250 O 0.26327 0.29063 0.29089
 O1251 O 0.31037 0.22454 0.27779
 O1252 O 0.25925 0.25681 0.30048
 O1253 O 0.27994 0.22996 0.29546
 O1254 O 0.32471 0.26334 0.26174
 O1255 O 0.30352 0.29202 0.26921
 C1256 C 0.27036 0.24225 0.30627
 H1257 H 0.31058 0.23384 0.24331
 H1258 H 0.26926 0.29641 0.25315
 H1259 H 0.24547 0.22905 0.28020
 H1260 H 0.24263 0.24063 0.21021
 H1261 H 0.31707 0.30114 0.23447
 H1262 H 0.25282 0.30873 0.20910
 H1263 H 0.22291 0.28765 0.20615
 H1264 H 0.19881 0.22869 0.23387
 H1265 H 0.33528 0.27238 0.25681
 H1266 H 0.31110 0.21171 0.28474
 H1267 H 0.27961 0.19366 0.28577
 H1268 H 0.21485 0.20054 0.25768
 H1269 H 0.31608 0.29930 0.26628
 H1270 H 0.25260 0.29293 0.30043
 H1271 H 0.27972 0.20892 0.19168
 H1272 H 0.21775 0.20178 0.22560
 Zr1273 Zr 0.72164 0.73393 0.28208
 O1274 O 0.73501 0.71080 0.29792
 O1275 O 0.69503 0.73860 0.29666
 O1276 O 0.72766 0.74463 0.30976
 O1277 O 0.70226 0.70314 0.24717
 O1278 O 0.74666 0.77274 0.30496
 O1279 O 0.70527 0.70659 0.27905
 O1280 O 0.68159 0.76617 0.28260
 O1281 O 0.71938 0.76533 0.28133
 O1282 O 0.70188 0.74070 0.26026
 O1283 O 0.75099 0.74466 0.27801
 O1284 O 0.73411 0.72060 0.25768
 Zr1285 Zr 0.74172 0.77086 0.22944
 Zr1286 Zr 0.74828 0.77592 0.27565
 Zr1287 Zr 0.71496 0.72916 0.23581
 Zr1288 Zr 0.70041 0.77185 0.25906
 O1289 O 0.72569 0.70322 0.22150
 O1290 O 0.69695 0.79929 0.27418
 O1291 O 0.71205 0.76043 0.23348
 O1292 O 0.72896 0.78385 0.25383
 O1293 O 0.76163 0.76424 0.25125
 O1294 O 0.74383 0.73951 0.23056
 C1295 C 0.68187 0.75251 0.29537
 C1296 C 0.69948 0.69703 0.26409
 C1297 C 0.73760 0.76013 0.31566
 O1298 O 0.73814 0.80327 0.28782
 O1299 O 0.76411 0.80025 0.26401
 O1300 O 0.75933 0.79728 0.23232
 C1301 C 0.76655 0.80627 0.24700
 O1302 O 0.76928 0.70848 0.27085
 Zr1303 Zr 0.76263 0.73292 0.25286
 O1304 O 0.76886 0.76591 0.21514
 O1305 O 0.77775 0.77553 0.28649
 O1306 O 0.79032 0.73985 0.26594
 O1307 O 0.76782 0.70639 0.23676
 O1308 O 0.78300 0.74008 0.23133
 C1309 C 0.78293 0.75318 0.21814
 O1310 O 0.72918 0.79498 0.21428
 O1311 O 0.68476 0.72809 0.22690
 O1312 O 0.73367 0.76169 0.20183
 O1313 O 0.71361 0.73436 0.20674
 O1314 O 0.67170 0.76485 0.24810
 O1315 O 0.69177 0.79413 0.23945
 C1316 C 0.72241 0.74712 0.19600
 H1317 H 0.68835 0.73493 0.26215
 H1318 H 0.72791 0.79863 0.25263
 H1319 H 0.74909 0.73333 0.21881
 H1320 H 0.75971 0.74097 0.28867
 H1321 H 0.68238 0.80174 0.27567
 H1322 H 0.74928 0.80869 0.29553
 H1323 H 0.77935 0.78794 0.29417
 H1324 H 0.80076 0.73151 0.25972
 H1325 H 0.66186 0.77345 0.25485
 H1326 H 0.68328 0.71575 0.21910
 H1327 H 0.71437 0.69771 0.21407
 H1328 H 0.78250 0.70420 0.23626
 H1329 H 0.67935 0.80080 0.24391
 H1330 H 0.73865 0.79818 0.20392
 H1331 H 0.72552 0.70752 0.30822
 H1332 H 0.78318 0.70390 0.26850
 Zr1333 Zr 0.78158 0.26562 0.78003
 O1334 O 0.77030 0.28722 0.79938
 O1335 O 0.81030 0.26082 0.79024
 O1336 O 0.77900 0.25307 0.80737
 O1337 O 0.79496 0.29970 0.74574
 O1338 O 0.76030 0.22472 0.80242
 O1339 O 0.79686 0.29356 0.77725
 O1340 O 0.82264 0.23555 0.77155
 O1341 O 0.78443 0.23443 0.77631
 O1342 O 0.79809 0.26114 0.75524
 O1343 O 0.75217 0.25432 0.77872
 O1344 O 0.76549 0.28037 0.75872
 Zr1345 Zr 0.75501 0.23206 0.72733
 Zr1346 Zr 0.75518 0.22343 0.77339
 Zr1347 Zr 0.78146 0.27410 0.73387
 Zr1348 Zr 0.80010 0.23024 0.75115
 O1349 O 0.76796 0.30040 0.72320
 O1350 O 0.80632 0.20229 0.76398
 O1351 O 0.78469 0.24319 0.72850
 O1352 O 0.77136 0.21772 0.74863
 O1353 O 0.73832 0.23648 0.75205
 O1354 O 0.75237 0.26317 0.73131
 C1355 C 0.82392 0.24822 0.78536
 C1356 C 0.80020 0.30447 0.76259
 C1357 C 0.76997 0.23702 0.81310
 O1358 O 0.76768 0.19570 0.78176
 O1359 O 0.73829 0.19955 0.76193
 O1360 O 0.73834 0.20502 0.73027
 C1361 C 0.73343 0.19479 0.74495
 O1362 O 0.73241 0.29055 0.77702
 Zr1363 Zr 0.73686 0.26754 0.75644
 O1364 O 0.72593 0.23714 0.71733
 O1365 O 0.72741 0.22193 0.78780
 O1366 O 0.71150 0.25924 0.77271
 O1367 O 0.72894 0.29475 0.74306
 O1368 O 0.71352 0.26080 0.73775
 C1369 C 0.71194 0.24869 0.72364
 O1370 O 0.76540 0.20926 0.70872
 O1371 O 0.81015 0.27728 0.72141
 O1372 O 0.75991 0.24305 0.69973
 O1373 O 0.77956 0.27074 0.70458
 O1374 O 0.82642 0.23867 0.73635
 O1375 O 0.80616 0.20929 0.72908
 C1376 C 0.77031 0.25816 0.69386
 H1377 H 0.81161 0.26725 0.75568
 H1378 H 0.77253 0.20311 0.74606
 H1379 H 0.74540 0.26985 0.72081
 H1380 H 0.74487 0.25698 0.79065
 H1381 H 0.82100 0.20019 0.76330
 H1382 H 0.75787 0.18935 0.79037
 H1383 H 0.72718 0.20897 0.79457
 H1384 H 0.70015 0.26778 0.76874
 H1385 H 0.83744 0.22998 0.74079
 H1386 H 0.81016 0.29026 0.71465
 H1387 H 0.77799 0.30688 0.71490
 H1388 H 0.71427 0.29648 0.74453
 H1389 H 0.81901 0.20239 0.73157
 H1390 H 0.75459 0.20666 0.69946
 H1391 H 0.78114 0.29006 0.80854
 H1392 H 0.71839 0.29537 0.77647
 N1393 N 0.44709 1.04423 0.32729
 C1394 C 0.45628 1.02728 0.33325
 N1395 N 0.45523 1.01042 0.32244
 N1396 N 0.44537 1.01053 0.30618
 C1397 C 0.43605 1.02744 0.30007
 N1398 N 0.43723 1.04433 0.31100
 C1399 C 0.46583 1.02683 0.35138
 C1400 C 0.47297 1.02652 0.36697
 C1401 C 0.48004 1.02652 0.38608
 N1402 N 0.49436 1.01346 0.39184
 N1403 N 0.49954 1.01264 0.40997
 C1404 C 0.49051 1.02484 0.42291
 N1405 N 0.47635 1.03796 0.41699
 N1406 N 0.47123 1.03881 0.39895
 N1407 N -0.05149 0.54491 0.82751
 C1408 C -0.04253 0.52793 0.83366
 N1409 N -0.04390 0.51091 0.82310
 N1410 N -0.05386 0.51091 0.80688
 C1411 C -0.06296 0.52787 0.80059
 N1412 N -0.06146 0.54490 0.81129
 C1413 C -0.03287 0.52767 0.85173
 C1414 C -0.02565 0.52765 0.86729
 C1415 C -0.01850 0.52808 0.88636
 N1416 N -0.00431 0.51501 0.89237
 N1417 N 0.00093 0.51461 0.91049
 C1418 C -0.00791 0.52725 0.92318
 N1419 N -0.02193 0.54038 0.91701
 N1420 N -0.02711 0.54080 0.89897
 N1421 N 0.04396 -0.01129 0.82486
 C1422 C 0.04309 -0.02815 0.83539
 N1423 N 0.05245 -0.04502 0.82909
 N1424 N 0.06232 -0.04505 0.81274
 C1425 C 0.06330 -0.02818 0.80212
 N1426 N 0.05383 -0.01133 0.80851
 C1427 C 0.03368 -0.02774 0.85362
 C1428 C 0.02675 -0.02752 0.86934
 C1429 C 0.02006 -0.02760 0.88859
 N1430 N 0.02996 -0.03895 0.90121
 N1431 N 0.02507 -0.03814 0.91936
 C1432 C 0.01009 -0.02598 0.92561
 N1433 N -0.00001 -0.01472 0.91292
 N1434 N 0.00492 -0.01550 0.89469
 N1435 N 0.54649 0.49005 0.32688
 C1436 C 0.54598 0.47323 0.33747
 N1437 N 0.55535 0.45641 0.33106
 N1438 N 0.56487 0.45639 0.31452
 C1439 C 0.56548 0.47323 0.30384
 N1440 N 0.55600 0.49002 0.31036
 C1441 C 0.53692 0.47365 0.35586
 C1442 C 0.53024 0.47397 0.37166
 C1443 C 0.52379 0.47402 0.39098
 N1444 N 0.53429 0.46334 0.40368
 N1445 N 0.52944 0.46413 0.42184
 C1446 C 0.51391 0.47561 0.42802
 N1447 N 0.50324 0.48624 0.41526
 N1448 N 0.50814 0.48547 0.39701
 N1449 N 0.55430 0.54231 0.17186
 C1450 C 0.54502 0.52518 0.16607
 N1451 N 0.54551 0.50882 0.17726
 N1452 N 0.55494 0.50960 0.19374
 C1453 C 0.56435 0.52669 0.19963
 N1454 N 0.56374 0.54308 0.18835
 C1455 C 0.53616 0.52390 0.14769
 C1456 C 0.52973 0.52291 0.13186
 C1457 C 0.52367 0.52221 0.11248
 N1458 N 0.53453 0.53241 0.09959
 N1459 N 0.52987 0.53130 0.08144
 C1460 C 0.51418 0.51995 0.07544
 N1461 N 0.50317 0.50976 0.08838
 N1462 N 0.50788 0.51085 0.10663
 N1463 N 0.05637 1.03915 0.66955
 C1464 C 0.04762 1.02180 0.66359
 N1465 N 0.04798 1.00556 0.67492
 N1466 N 0.05679 1.00665 0.69169
 C1467 C 0.06569 1.02395 0.69780
 N1468 N 0.06518 1.04022 0.68634
 C1469 C 0.03935 1.02021 0.64498
 C1470 C 0.03334 1.01893 0.62901
 C1471 C 0.02765 1.01789 0.60954
 N1472 N 0.01075 1.00817 0.60385
 N1473 N 0.00601 1.00718 0.58561
 C1474 C 0.01807 1.01583 0.57251
 N1475 N 0.03492 1.02548 0.57833
 N1476 N 0.03963 1.02647 0.59648
 N1477 N -0.04311 0.48818 0.67550
 C1478 C -0.04213 0.47102 0.66508
 N1479 N -0.05172 0.45435 0.67132
 N1480 N -0.06190 0.45480 0.68751
 C1481 C -0.06298 0.47197 0.69802
 N1482 N -0.05329 0.48862 0.69168
 C1483 C -0.03220 0.47084 0.64706
 C1484 C -0.02474 0.47063 0.63154
 C1485 C -0.01726 0.47015 0.61252
 N1486 N -0.02574 0.45748 0.59981
 N1487 N -0.02047 0.45815 0.58175
 C1488 C -0.00647 0.47147 0.57568
 N1489 N 0.00226 0.48401 0.58847
 N1490 N -0.00306 0.48336 0.60660
 N1491 N 0.44794 -0.04620 0.17079
 C1492 C 0.45722 -0.02947 0.16429
 N1493 N 0.45601 -0.01219 0.17451
 N1494 N 0.44591 -0.01169 0.19074
 C1495 C 0.43654 -0.02841 0.19733
 N1496 N 0.43785 -0.04569 0.18701
 C1497 C 0.46705 -0.02977 0.14623
 C1498 C 0.47442 -0.03021 0.13067
 C1499 C 0.48178 -0.03105 0.11162
 N1500 N 0.49613 -0.01815 0.10546
 N1501 N 0.50144 -0.01793 0.08731
 C1502 C 0.49254 -0.03062 0.07474
 N1503 N 0.47837 -0.04362 0.08106
 N1504 N 0.47311 -0.04386 0.09914
 N1505 N 0.33909 0.40414 0.03010
 C1506 C 0.34094 0.41694 0.01549
 N1507 N 0.32604 0.41765 0.00253
 N1508 N 0.30988 0.40588 0.00415
 C1509 C 0.30800 0.39294 0.01877
 N1510 N 0.32297 0.39241 0.03170
 C1511 C 0.35875 0.42919 0.01362
 C1512 C 0.37392 0.43912 0.01221
 C1513 C 0.39215 0.45072 0.01031
 N1514 N 0.39826 0.45700 -0.00688
 N1515 N 0.41517 0.46750 -0.00878
 C1516 C 0.42667 0.47213 0.00641
 N1517 N 0.42053 0.46582 0.02365
 N1518 N 0.40358 0.45529 0.02555
 N1519 N -0.17409 0.91963 0.50121
 C1520 C -0.15871 0.91857 0.51363
 N1521 N -0.15992 0.90526 0.52788
 N1522 N -0.17588 0.89338 0.52965
 C1523 C -0.19137 0.89422 0.51728
 N1524 N -0.19011 0.90771 0.50301
 C1525 C -0.14104 0.93095 0.51160
 C1526 C -0.12592 0.94090 0.51014
 C1527 C -0.10768 0.95246 0.50826
 N1528 N -0.09550 0.95570 0.52326
 N1529 N -0.07848 0.96610 0.52136
 C1530 C -0.07303 0.97360 0.50436
 N1531 N -0.08528 0.97030 0.48940
 N1532 N -0.10226 0.95993 0.49130
 N1533 N -0.17530 0.08010 0.99806
 C1534 C -0.15999 0.08093 0.98543
 N1535 N -0.16117 0.09404 0.97102
 N1536 N -0.17706 0.10596 0.96930
 C1537 C -0.19245 0.10531 0.98189
 N1538 N -0.19124 0.09206 0.99631
 C1539 C -0.14238 0.06855 0.98749
 C1540 C -0.12732 0.05859 0.98905
 C1541 C -0.10914 0.04707 0.99106
 N1542 N -0.09843 0.04102 0.97573
 N1543 N -0.08145 0.03068 0.97771
 C1544 C -0.07455 0.02606 0.99511
 N1545 N -0.08533 0.03215 1.01040
 N1546 N -0.10228 0.04247 1.00842
 N1547 N 0.32669 0.57926 0.50001
 C1548 C 0.34196 0.57953 0.48731
 N1549 N 0.34091 0.59226 0.47260
 N1550 N 0.32520 0.60437 0.47066
 C1551 C 0.30986 0.60429 0.48333
 N1552 N 0.31092 0.59140 0.49805
 C1553 C 0.35942 0.56701 0.48958
 C1554 C 0.37440 0.55695 0.49124
 C1555 C 0.39252 0.54536 0.49327
 N1556 N 0.40371 0.54008 0.47799
 N1557 N 0.42070 0.52975 0.47998
 C1558 C 0.42712 0.52437 0.49734
 N1559 N 0.41587 0.52969 0.51258
 N1560 N 0.39891 0.54000 0.51059
 N1561 N 0.16228 0.59835 0.52812
 C1562 C 0.16019 0.58465 0.51403
 N1563 N 0.17503 0.58286 0.50097
 N1564 N 0.19139 0.59444 0.50198
 C1565 C 0.19350 0.60829 0.51607
 N1566 N 0.17858 0.60990 0.52911
 C1567 C 0.14214 0.57268 0.51277
 C1568 C 0.12675 0.56306 0.51175
 C1569 C 0.10822 0.55189 0.51015
 N1570 N 0.09985 0.54880 0.49302
 N1571 N 0.08276 0.53856 0.49136
 C1572 C 0.07331 0.53103 0.50676
 N1573 N 0.08168 0.53418 0.52395
 N1574 N 0.09882 0.54446 0.52561
 N1575 N 0.67355 0.08087 -0.00046
 C1576 C 0.65869 0.08210 0.01263
 N1577 N 0.66046 0.09563 0.02690
 N1578 N 0.67647 0.10756 0.02803
 C1579 C 0.69140 0.10652 0.01496
 N1580 N 0.68961 0.09284 0.00069
 C1581 C 0.64093 0.06974 0.01121
 C1582 C 0.62575 0.05978 0.01011
 C1583 C 0.60748 0.04822 0.00847
 N1584 N 0.59786 0.04118 0.02398
 N1585 N 0.58090 0.03062 0.02231
 C1586 C 0.57294 0.02677 0.00506
 N1587 N 0.58261 0.03389 -0.01038
 N1588 N 0.59953 0.04443 -0.00871
 N1589 N 0.67429 0.91757 0.49848
 C1590 C 0.65973 0.91583 0.48524
 N1591 N 0.66212 0.90221 0.47112
 N1592 N 0.67842 0.89071 0.47026
 C1593 C 0.69307 0.89227 0.48347
 N1594 N 0.69065 0.90603 0.49761
 C1595 C 0.64168 0.92781 0.48634
 C1596 C 0.62631 0.93747 0.48722
 C1597 C 0.60783 0.94873 0.48874
 N1598 N 0.59785 0.95484 0.47317
 N1599 N 0.58074 0.96517 0.47477
 C1600 C 0.57299 0.96969 0.49203
 N1601 N 0.58304 0.96349 0.50753
 N1602 N 0.60009 0.95321 0.50593
 N1603 N 0.16127 0.40282 0.97239
 C1604 C 0.15929 0.41655 0.98647
 N1605 N 0.17394 0.41800 0.99963
 N1606 N 0.19003 0.40607 0.99872
 C1607 C 0.19205 0.39221 0.98462
 N1608 N 0.17730 0.39093 0.97149
 C1609 C 0.14153 0.42895 0.98758
 C1610 C 0.12639 0.43897 0.98845
 C1611 C 0.10818 0.45064 0.98989
 N1612 N 0.10057 0.45548 1.00705
 N1613 N 0.08372 0.46610 1.00858
 C1614 C 0.07376 0.47229 0.99303
 N1615 N 0.08138 0.46740 0.97580
 N1616 N 0.09828 0.45674 0.97427
 N1617 N 0.02255 0.34625 0.35963
 C1618 C 0.00605 0.34888 0.37049
 N1619 N -0.00905 0.33529 0.36952
 N1620 N -0.00743 0.31918 0.35837
 C1621 C 0.00935 0.31609 0.34786
 N1622 N 0.02415 0.33014 0.34849
 C1623 C 0.00577 0.36415 0.38466
 C1624 C 0.00570 0.37635 0.39720
 C1625 C 0.00529 0.39052 0.41234
 N1626 N 0.01973 0.39051 0.42573
 N1627 N 0.01909 0.40373 0.43995
 C1628 C 0.00390 0.41722 0.44119
 N1629 N -0.01052 0.41706 0.42778
 N1630 N -0.00988 0.40389 0.41361
 N1631 N 0.52162 -0.16020 -0.13928
 C1632 C 0.50550 -0.15839 -0.12779
 N1633 N 0.49051 -0.17208 -0.12897
 N1634 N 0.49186 -0.18749 -0.14099
 C1635 C 0.50823 -0.18972 -0.15224
 N1636 N 0.52296 -0.17561 -0.15130
 C1637 C 0.50519 -0.14338 -0.11336
 C1638 C 0.50501 -0.13114 -0.10086
 C1639 C 0.50444 -0.11663 -0.08600
 N1640 N 0.51874 -0.11628 -0.07249
 N1641 N 0.51813 -0.10250 -0.05875
 C1642 C 0.50313 -0.08876 -0.05813
 N1643 N 0.48882 -0.08929 -0.07164
 N1644 N 0.48943 -0.10302 -0.08533
 N1645 N -0.02025 -0.15858 1.13159
 C1646 C -0.00379 -0.16000 1.12049
 N1647 N 0.00871 -0.17587 1.12238
 N1648 N 0.00454 -0.19021 1.13475
 C1649 C -0.01227 -0.18913 1.14558
 N1650 N -0.02443 -0.17291 1.14391
 C1651 C -0.00095 -0.14594 1.10574
 C1652 C 0.00036 -0.13398 1.09328
 C1653 C 0.00111 -0.11927 1.07889
 N1654 N 0.01494 -0.10442 1.07976
 N1655 N 0.01466 -0.08964 1.06732
 C1656 C 0.00052 -0.08919 1.05365
 N1657 N -0.01325 -0.10419 1.05269
 N1658 N -0.01297 -0.11900 1.06518
 N1659 N 0.48183 0.33736 0.62972
 C1660 C 0.49811 0.33554 0.61844
 N1661 N 0.51055 0.31966 0.62054
 N1662 N 0.50652 0.30572 0.63335
 C1663 C 0.48993 0.30724 0.64444
 N1664 N 0.47779 0.32343 0.64247
 C1665 C 0.50114 0.34957 0.60369
 C1666 C 0.50264 0.36175 0.59144
 C1667 C 0.50362 0.37695 0.57749
 N1668 N 0.51713 0.39202 0.57925
 N1669 N 0.51688 0.40733 0.56739
 C1670 C 0.50307 0.40814 0.55346
 N1671 N 0.48962 0.39293 0.55160
 N1672 N 0.48987 0.37757 0.56350
 N1673 N 0.51941 1.15931 0.63158
 C1674 C 0.50447 1.16041 0.61883
 N1675 N 0.49099 1.17556 0.62012
 N1676 N 0.49270 1.18953 0.63357
 C1677 C 0.50792 1.18876 0.64618
 N1678 N 0.52113 1.17327 0.64500
 C1679 C 0.50359 1.14620 0.60375
 C1680 C 0.50321 1.13396 0.59126
 C1681 C 0.50267 1.11878 0.57702
 N1682 N 0.48818 1.10458 0.57758
 N1683 N 0.48815 1.08960 0.56510
 C1684 C 0.50261 1.08828 0.55166
 N1685 N 0.51710 1.10261 0.55102
 N1686 N 0.51713 1.11765 0.56357
 N1687 N -0.00719 0.67878 1.11998
 C1688 C 0.00774 0.66519 1.11788
 N1689 N 0.02346 0.66569 1.12982
 N1690 N 0.02445 0.67971 1.14325
 C1691 C 0.00976 0.69372 1.14526
 N1692 N -0.00619 0.69282 1.13342
 C1693 C 0.00713 0.65063 1.10308
 C1694 C 0.00668 0.63812 1.09082
 C1695 C 0.00584 0.62268 1.07683
 N1696 N 0.02003 0.62128 1.06315
 N1697 N 0.01958 0.60614 1.05072
 C1698 C 0.00493 0.59199 1.05169
 N1699 N -0.00925 0.59357 1.06535
 N1700 N -0.00881 0.60866 1.07773
 N1701 N 0.47560 0.66925 -0.11377
 C1702 C 0.49417 0.66880 -0.10631
 N1703 N 0.50849 0.68135 -0.11299
 N1704 N 0.50414 0.69431 -0.12655
 C1705 C 0.48537 0.69507 -0.13393
 N1706 N 0.47128 0.68216 -0.12729
 C1707 C 0.49833 0.65485 -0.09178
 C1708 C 0.50049 0.64229 -0.07999
 C1709 C 0.50189 0.62625 -0.06694
 N1710 N 0.51504 0.61117 -0.07024
 N1711 N 0.51468 0.59481 -0.05967
 C1712 C 0.50105 0.59292 -0.04555
 N1713 N 0.48800 0.60815 -0.04213
 N1714 N 0.48835 0.62455 -0.05275
 N1715 N -0.02595 1.17741 0.39404
 C1716 C -0.00743 1.17666 0.40160
 N1717 N 0.00713 1.18894 0.39495
 N1718 N 0.00312 1.20182 0.38123
 C1719 C -0.01552 1.20271 0.37359
 N1720 N -0.02993 1.19022 0.38035
 C1721 C -0.00324 1.16197 0.41547
 C1722 C -0.00078 1.14857 0.42637
 C1723 C 0.00112 1.13145 0.43809
 N1724 N 0.01370 1.11643 0.43291
 N1725 N 0.01368 1.09920 0.44222
 C1726 C 0.00096 1.09636 0.45691
 N1727 N -0.01152 1.11150 0.46220
 N1728 N -0.01152 1.12876 0.45285
 N1729 N 0.75672 0.70302 0.92768
 C1730 C 0.77314 0.70414 0.91648
 N1731 N 0.79043 0.69549 0.92223
 N1732 N 0.79128 0.68607 0.93869
 C1733 C 0.77484 0.68482 0.95002
 N1734 N 0.75758 0.69360 0.94413
 C1735 C 0.77191 0.71315 0.89820
 C1736 C 0.77110 0.71982 0.88247
 C1737 C 0.77079 0.72628 0.86321
 N1738 N 0.78240 0.71661 0.85038
 N1739 N 0.78174 0.72162 0.83232
 C1740 C 0.76945 0.73649 0.82635
 N1741 N 0.75784 0.74631 0.83924
 N1742 N 0.75849 0.74126 0.85740
 N1743 N 0.25976 0.20457 0.42749
 C1744 C 0.27631 0.20549 0.41644
 N1745 N 0.29335 0.19639 0.42222
 N1746 N 0.29384 0.18671 0.43856
 C1747 C 0.27727 0.18565 0.44973
 N1748 N 0.26026 0.19489 0.44381
 C1749 C 0.27541 0.21478 0.39825
 C1750 C 0.27471 0.22167 0.38261
 C1751 C 0.27432 0.22839 0.36343
 N1752 N 0.28619 0.21918 0.35051
 N1753 N 0.28512 0.22411 0.33245
 C1754 C 0.27218 0.23845 0.32658
 N1755 N 0.26036 0.24786 0.33957
 N1756 N 0.26141 0.24287 0.35772
 N1757 N 0.70631 0.30503 0.41903
 C1758 C 0.72307 0.29569 0.41258
 N1759 N 0.73992 0.29644 0.42312
 N1760 N 0.73999 0.30615 0.43961
 C1761 C 0.72325 0.31559 0.44617
 N1762 N 0.70638 0.31474 0.43554
 C1763 C 0.72336 0.28637 0.39423
 C1764 C 0.72354 0.27946 0.37845
 C1765 C 0.72345 0.27271 0.35917
 N1766 N 0.73524 0.25728 0.35313
 N1767 N 0.73597 0.25221 0.33490
 C1768 C 0.72493 0.26245 0.32214
 N1769 N 0.71308 0.27775 0.32832
 N1770 N 0.71234 0.28277 0.34647
 N1771 N 0.23643 0.79328 0.92399
 C1772 C 0.21942 0.79255 0.91368
 N1773 N 0.20297 0.80247 0.92003
 N1774 N 0.20348 0.81273 0.93624
 C1775 C 0.22050 0.81359 0.94669
 N1776 N 0.23693 0.80354 0.94020
 C1777 C 0.21922 0.78262 0.89560
 C1778 C 0.21899 0.77521 0.88002
 C1779 C 0.21853 0.76788 0.86092
 N1780 N 0.20646 0.77696 0.84834
 N1781 N 0.20718 0.77179 0.83021
 C1782 C 0.21995 0.75730 0.82396
 N1783 N 0.23189 0.74797 0.83663
 N1784 N 0.23119 0.75320 0.85483
 N1785 N 0.25458 0.79793 0.07272
 C1786 C 0.27074 0.79734 0.08415
 N1787 N 0.28816 0.80582 0.07830
 N1788 N 0.28938 0.81459 0.06153
 C1789 C 0.27318 0.81532 0.04998
 N1790 N 0.25580 0.80669 0.05598
 C1791 C 0.26906 0.78908 0.10273
 C1792 C 0.26779 0.78305 0.11866
 C1793 C 0.26688 0.77730 0.13811
 N1794 N 0.27633 0.78881 0.15114
 N1795 N 0.27548 0.78407 0.16925
 C1796 C 0.26512 0.76766 0.17510
 N1797 N 0.25561 0.75606 0.16202
 N1798 N 0.25646 0.76084 0.14381
 N1799 N 0.75922 0.29546 0.57246
 C1800 C 0.77570 0.29458 0.58349
 N1801 N 0.79279 0.30373 0.57768
 N1802 N 0.79341 0.31341 0.56133
 C1803 C 0.77691 0.31439 0.55023
 N1804 N 0.75985 0.30513 0.55614
 C1805 C 0.77466 0.28539 0.60170
 C1806 C 0.77392 0.27864 0.61740
 C1807 C 0.77356 0.27216 0.63665
 N1808 N 0.78473 0.28220 0.64951
 N1809 N 0.78383 0.27732 0.66759
 C1810 C 0.77173 0.26220 0.67356
 N1811 N 0.76059 0.25199 0.66063
 N1812 N 0.76147 0.25693 0.64245
 N1813 N 0.20503 0.19701 0.57952
 C1814 C 0.22166 0.20645 0.58605
 N1815 N 0.23880 0.20543 0.57579
 N1816 N 0.23925 0.19536 0.55948
 C1817 C 0.22263 0.18582 0.55285
 N1818 N 0.20548 0.18693 0.56320
 C1819 C 0.22146 0.21620 0.60421
 C1820 C 0.22117 0.22348 0.61984
 C1821 C 0.22052 0.23067 0.63899
 N1822 N 0.20831 0.22147 0.65150
 N1823 N 0.20871 0.22664 0.66962
 C1824 C 0.22131 0.24125 0.67596
 N1825 N 0.23341 0.25067 0.66337
 N1826 N 0.23303 0.24545 0.64517
 N1827 N 0.73731 0.70604 0.07603
 C1828 C 0.72019 0.70710 0.08631
 N1829 N 0.70363 0.69737 0.07998
 N1830 N 0.70415 0.68696 0.06385
 C1831 C 0.72129 0.68580 0.05348
 N1832 N 0.73783 0.69564 0.05991
 C1833 C 0.71993 0.71725 0.10429
 C1834 C 0.71961 0.72488 0.11978
 C1835 C 0.71900 0.73250 0.13879
 N1836 N 0.73185 0.74708 0.14476
 N1837 N 0.73241 0.75254 0.16289
 C1838 C 0.72013 0.74358 0.17563
 N1839 N 0.70717 0.72920 0.16951
 N1840 N 0.70659 0.72379 0.15144
 N1841 N 0.15274 0.58955 0.22078
 C1842 C 0.16566 0.59169 0.23531
 N1843 N 0.16657 0.57698 0.24841
 N1844 N 0.15489 0.56069 0.24703
 C1845 C 0.14182 0.55852 0.23249
 N1846 N 0.14109 0.57332 0.21942
 C1847 C 0.17783 0.60963 0.23689
 C1848 C 0.18772 0.62488 0.23809
 C1849 C 0.19932 0.64319 0.23981
 N1850 N 0.20691 0.64879 0.25672
 N1851 N 0.21749 0.66572 0.25849
 C1852 C 0.22087 0.67775 0.24344
 N1853 N 0.21322 0.67213 0.22647
 N1854 N 0.20262 0.65516 0.22471
 N1855 N 0.65279 0.08837 0.71972
 C1856 C 0.66570 0.09041 0.73428
 N1857 N 0.66640 0.07570 0.74741
 N1858 N 0.65454 0.05954 0.74602
 C1859 C 0.64150 0.05747 0.73145
 N1860 N 0.64097 0.07225 0.71835
 C1861 C 0.67806 0.10823 0.73588
 C1862 C 0.68809 0.12341 0.73711
 C1863 C 0.69982 0.14164 0.73887
 N1864 N 0.70580 0.14821 0.75607
 N1865 N 0.71643 0.16511 0.75787
 C1866 C 0.72150 0.17614 0.74255
 N1867 N 0.71550 0.16955 0.72529
 N1868 N 0.70483 0.15261 0.72350
 N1869 N 0.84452 0.09054 0.27556
 C1870 C 0.83067 0.09095 0.26172
 N1871 N 0.82941 0.07508 0.24960
 N1872 N 0.84166 0.05934 0.25128
 C1873 C 0.85570 0.05888 0.26512
 N1874 N 0.85674 0.07486 0.27722
 C1875 C 0.81803 0.10837 0.25973
 C1876 C 0.80794 0.12338 0.25828
 C1877 C 0.79637 0.14156 0.25641
 N1878 N 0.79148 0.14835 0.23911
 N1879 N 0.78125 0.16540 0.23725
 C1880 C 0.77554 0.17636 0.25261
 N1881 N 0.78045 0.16953 0.26996
 N1882 N 0.79071 0.15244 0.27181
 N1883 N 0.34598 0.58946 0.77782
 C1884 C 0.33218 0.59009 0.76393
 N1885 N 0.33082 0.57430 0.75172
 N1886 N 0.34293 0.55844 0.75336
 C1887 C 0.35691 0.55775 0.76725
 N1888 N 0.35805 0.57365 0.77943
 C1889 C 0.31966 0.60762 0.76198
 C1890 C 0.30962 0.62266 0.76049
 C1891 C 0.29806 0.64085 0.75853
 N1892 N 0.29463 0.64848 0.74123
 N1893 N 0.28428 0.66545 0.73932
 C1894 C 0.27699 0.67549 0.75463
 N1895 N 0.28046 0.66783 0.77198
 N1896 N 0.29084 0.65082 0.77389
 N1897 N 0.33063 0.42481 0.75028
 C1898 C 0.33174 0.40949 0.73752
 N1899 N 0.34530 0.41067 0.72335
 N1900 N 0.35739 0.42656 0.72199
 C1901 C 0.35646 0.44195 0.73472
 N1902 N 0.34274 0.44075 0.74889
 C1903 C 0.31920 0.39187 0.73920
 C1904 C 0.30911 0.37678 0.74048
 C1905 C 0.29743 0.35858 0.74226
 N1906 N 0.29086 0.34841 0.72679
 N1907 N 0.28032 0.33143 0.72856
 C1908 C 0.27603 0.32400 0.74588
 N1909 N 0.28266 0.33425 0.76130
 N1910 N 0.29317 0.35119 0.75953
 N1911 N 0.83130 0.92666 0.24810
 C1912 C 0.83307 0.91097 0.23581
 N1913 N 0.84715 0.91189 0.22208
 N1914 N 0.85909 0.92788 0.22068
 C1915 C 0.85753 0.94369 0.23294
 N1916 N 0.84327 0.94271 0.24668
 C1917 C 0.82067 0.89326 0.23754
 C1918 C 0.81073 0.87808 0.23888
 C1919 C 0.79927 0.85976 0.24074
 N1920 N 0.79189 0.84999 0.22537
 N1921 N 0.78153 0.83290 0.22723
 C1922 C 0.77825 0.82496 0.24453
 N1923 N 0.78571 0.83479 0.25985
 N1924 N 0.79603 0.85184 0.25799
 N1925 N 0.65031 0.91038 0.77838
 C1926 C 0.66378 0.90811 0.76422
 N1927 N 0.66525 0.92272 0.75104
 N1928 N 0.65360 0.93903 0.75201
 C1929 C 0.64000 0.94134 0.76619
 N1930 N 0.63869 0.92664 0.77934
 C1931 C 0.67594 0.89016 0.76306
 C1932 C 0.68583 0.87490 0.76213
 C1933 C 0.69745 0.85662 0.76059
 N1934 N 0.70395 0.85012 0.74350
 N1935 N 0.71463 0.83328 0.74187
 C1936 C 0.71923 0.82221 0.75724
 N1937 N 0.71269 0.82871 0.77440
 N1938 N 0.70196 0.84561 0.77603
 N1939 N 0.15060 0.41105 0.27955
 C1940 C 0.16377 0.40851 0.26517
 N1941 N 0.16513 0.42299 0.25186
 N1942 N 0.15368 0.43944 0.25291
 C1943 C 0.14038 0.44202 0.26731
 N1944 N 0.13917 0.42745 0.28059
 C1945 C 0.17571 0.39039 0.26392
 C1946 C 0.18541 0.37501 0.26289
 C1947 C 0.19679 0.35657 0.26124
 N1948 N 0.20192 0.34930 0.24400
 N1949 N 0.21237 0.33232 0.24228
 C1950 C 0.21810 0.32187 0.25770
 N1951 N 0.21292 0.32914 0.27500
 N1952 N 0.20243 0.34618 0.27673
 N1953 N 0.09086 0.26820 0.88706
 C1954 C 0.09042 0.25239 0.87495
 N1955 N 0.07493 0.23924 0.87565
 N1956 N 0.05999 0.24215 0.88783
 C1957 C 0.06006 0.25832 0.89969
 N1958 N 0.07592 0.27112 0.89922
 C1959 C 0.10503 0.25093 0.86035
 C1960 C 0.11721 0.25043 0.84790
 C1961 C 0.13191 0.25016 0.83333
 N1962 N 0.13214 0.26456 0.81992
 N1963 N 0.14652 0.26475 0.80686
 C1964 C 0.16108 0.25053 0.80689
 N1965 N 0.16068 0.23612 0.82029
 N1966 N 0.14634 0.23593 0.83330
 N1967 N 0.59589 0.77020 0.39098
 C1968 C 0.59778 0.75369 0.37985
 N1969 N 0.58334 0.73936 0.38017
 N1970 N 0.56715 0.74179 0.39093
 C1971 C 0.56482 0.75865 0.40167
 N1972 N 0.57970 0.77262 0.40172
 C1973 C 0.61308 0.75295 0.36585
 C1974 C 0.62530 0.75286 0.35343
 C1975 C 0.63947 0.75282 0.33840
 N1976 N 0.63899 0.76727 0.32505
 N1977 N 0.65231 0.76717 0.31103
 C1978 C 0.66642 0.75253 0.30996
 N1979 N 0.66675 0.73810 0.32334
 N1980 N 0.65347 0.73820 0.33731
 N1981 N 0.57325 0.25986 0.12669
 C1982 C 0.58890 0.24706 0.12829
 N1983 N 0.58964 0.23035 0.11730
 N1984 N 0.57490 0.22626 0.10535
 C1985 C 0.55891 0.23874 0.10395
 N1986 N 0.55849 0.25577 0.11469
 C1987 C 0.60345 0.24990 0.14267
 C1988 C 0.61574 0.25124 0.15486
 C1989 C 0.63074 0.25205 0.16904
 N1990 N 0.63099 0.23829 0.18300
 N1991 N 0.64588 0.23817 0.19543
 C1992 C 0.66098 0.25179 0.19416
 N1993 N 0.66055 0.26560 0.18022
 N1994 N 0.64569 0.26573 0.16784
 N1995 N 0.09547 0.72791 0.61096
 C1996 C 0.09680 0.74503 0.62132
 N1997 N 0.08197 0.75884 0.62038
 N1998 N 0.06594 0.75534 0.60977
 C1999 C 0.06419 0.73787 0.59982
 N2000 N 0.07945 0.72440 0.60038
 C2001 C 0.11191 0.74687 0.63530
 C2002 C 0.12401 0.74762 0.64769
 C2003 C 0.13809 0.74805 0.66267
 N2004 N 0.15220 0.76264 0.66338
 N2005 N 0.16561 0.76286 0.67714
 C2006 C 0.16532 0.74855 0.69065
 N2007 N 0.15108 0.73398 0.68997
 N2008 N 0.13764 0.73377 0.67617
 N2009 N 0.92349 0.77905 0.63644
 C2010 C 0.92346 0.76281 0.64774
 N2011 N 0.93647 0.74761 0.64426
 N2012 N 0.94940 0.74880 0.62999
 C2013 C 0.94964 0.76514 0.61862
 N2014 N 0.93639 0.78023 0.62220
 C2015 C 0.90877 0.76119 0.66222
 C2016 C 0.89552 0.75990 0.67358
 C2017 C 0.87866 0.75815 0.68578
 N2018 N 0.86473 0.74387 0.68212
 N2019 N 0.84800 0.74308 0.69227
 C2020 C 0.84460 0.75659 0.70634
 N2021 N 0.85865 0.77086 0.71009
 N2022 N 0.87543 0.77167 0.69988
 N2023 N 0.41230 0.27115 0.12430
 C2024 C 0.41340 0.25604 0.13686
 N2025 N 0.42812 0.24214 0.13511
 N2026 N 0.44165 0.24360 0.12137
 C2027 C 0.44083 0.25894 0.10890
 N2028 N 0.42582 0.27260 0.11060
 C2029 C 0.39918 0.25496 0.15178
 C2030 C 0.38667 0.25434 0.16391
 C2031 C 0.37094 0.25345 0.17745
 N2032 N 0.35680 0.23898 0.17578
 N2033 N 0.34117 0.23879 0.18739
 C2034 C 0.33912 0.25309 0.20102
 N2035 N 0.35340 0.26755 0.20278
 N2036 N 0.36908 0.26775 0.19111
 N2037 N 0.43822 0.75491 0.35183
 C2038 C 0.42665 0.73963 0.34529
 N2039 N 0.42756 0.72147 0.35363
 N2040 N 0.43984 0.71856 0.36801
 C2041 C 0.45152 0.73375 0.37468
 N2042 N 0.45056 0.75198 0.36624
 C2043 C 0.41211 0.74293 0.33106
 C2044 C 0.39874 0.74506 0.32006
 C2045 C 0.38155 0.74711 0.30846
 N2046 N 0.37811 0.73404 0.29406
 N2047 N 0.36078 0.73445 0.28484
 C2048 C 0.34633 0.74781 0.28992
 N2049 N 0.34994 0.76094 0.30425
 N2050 N 0.36723 0.76055 0.31341
 N2051 N 0.93139 0.25797 0.86270
 C2052 C 0.91609 0.24484 0.86009
 N2053 N 0.91384 0.22924 0.87198
 N2054 N 0.92678 0.22653 0.88587
 C2055 C 0.94237 0.23940 0.88843
 N2056 N 0.94436 0.25526 0.87663
 C2057 C 0.90244 0.24708 0.84493
 C2058 C 0.89020 0.24825 0.83271
 C2059 C 0.87454 0.24924 0.81922
 N2060 N 0.87272 0.23497 0.80555
 N2061 N 0.85677 0.23476 0.79433
 C2062 C 0.84214 0.24873 0.79661
 N2063 N 0.84416 0.26305 0.81021
 N2064 N 0.86006 0.26327 0.82137
 N2065 N 0.57291 1.03726 0.67118
 C2066 C 0.56014 1.02160 0.66878
 N2067 N 0.56046 1.00636 0.68135
 N2068 N 0.57310 1.00683 0.69586
 C2069 C 0.58607 1.02248 0.69830
 N2070 N 0.58554 1.03771 0.68565
 C2071 C 0.54789 1.02041 0.65213
 C2072 C 0.53880 1.01929 0.63746
 C2073 C 0.52973 1.01740 0.61914
 N2074 N 0.53709 1.00361 0.60681
 N2075 N 0.53041 1.00278 0.58921
 C2076 C 0.51607 1.01565 0.58319
 N2077 N 0.50846 1.02936 0.59562
 N2078 N 0.51523 1.03024 0.61331
 N2079 N 0.07143 0.53925 1.17285
 C2080 C 0.05943 0.52312 1.16973
 N2081 N 0.06063 0.50719 1.18148
 N2082 N 0.07340 0.50744 1.19590
 C2083 C 0.08556 0.52357 1.19902
 N2084 N 0.08417 0.53949 1.18722
 C2085 C 0.04722 0.52221 1.15306
 C2086 C 0.03823 0.52137 1.13833
 C2087 C 0.02939 0.51983 1.11990
 N2088 N 0.03669 0.50604 1.10755
 N2089 N 0.03034 0.50558 1.08984
 C2090 C 0.01642 0.51885 1.08372
 N2091 N 0.00886 0.53255 1.09617
 N2092 N 0.01529 0.53306 1.11397
 N2093 N -0.07211 -0.03878 1.17429
 C2094 C -0.05960 -0.02294 1.17192
 N2095 N -0.06056 -0.00729 1.18428
 N2096 N -0.07361 -0.00751 1.19856
 C2097 C -0.08636 -0.02330 1.20094
 N2098 N -0.08515 -0.03899 1.18853
 C2099 C -0.04724 -0.02183 1.15531
 C2100 C -0.03819 -0.02065 1.14060
 C2101 C -0.02939 -0.01864 1.12219
 N2102 N -0.01422 -0.03074 1.11614
 N2103 N -0.00768 -0.02985 1.09835
 C2104 C -0.01621 -0.01689 1.08606
 N2105 N -0.03121 -0.00475 1.09230
 N2106 N -0.03766 -0.00558 1.11000
 N2107 N 0.42807 0.45867 0.67638
 C2108 C 0.44093 0.47423 0.67401
 N2109 N 0.44023 0.48995 0.68630
 N2110 N 0.42710 0.49008 0.70052
 C2111 C 0.41400 0.47457 0.70290
 N2112 N 0.41495 0.45881 0.69056
 C2113 C 0.45333 0.47504 0.65741
 C2114 C 0.46237 0.47604 0.64267
 C2115 C 0.47108 0.47796 0.62421
 N2116 N 0.48664 0.46628 0.61830
 N2117 N 0.49323 0.46724 0.60052
 C2118 C 0.48437 0.47984 0.58812
 N2119 N 0.46896 0.49154 0.59422
 N2120 N 0.46246 0.49064 0.61189
 N2121 N 0.42773 0.54269 -0.17346
 C2122 C 0.43980 0.52673 -0.17025
 N2123 N 0.43870 0.51049 -0.18191
 N2124 N 0.42595 0.51024 -0.19633
 C2125 C 0.41369 0.52616 -0.19953
 N2126 N 0.41500 0.54243 -0.18784
 C2127 C 0.45171 0.52616 -0.15342
 C2128 C 0.46034 0.52532 -0.13854
 C2129 C 0.46860 0.52354 -0.11996
 N2130 N 0.48468 0.53456 -0.11421
 N2131 N 0.49111 0.53351 -0.09644
 C2132 C 0.48158 0.52147 -0.08388
 N2133 N 0.46561 0.51046 -0.08981
 N2134 N 0.45926 0.51146 -0.10747
 N2135 N -0.07282 1.04589 0.32385
 C2136 C -0.06103 1.02992 0.32773
 N2137 N -0.06233 1.01319 0.31669
 N2138 N -0.07503 1.01249 0.30224
 C2139 C -0.08704 1.02843 0.29840
 N2140 N -0.08550 1.04518 0.30944
 C2141 C -0.04937 1.02986 0.34473
 C2142 C -0.04107 1.02952 0.35979
 C2143 C -0.03334 1.02834 0.37862
 N2144 N -0.01603 1.03760 0.38388
 N2145 N -0.00972 1.03672 0.40170
 C2146 C -0.02061 1.02661 0.41480
 N2147 N -0.03785 1.01742 0.40937
 N2148 N -0.04410 1.01828 0.39167
 N2149 N 0.07077 0.46501 0.32754
 C2150 C 0.05884 0.48131 0.32994
 N2151 N 0.06008 0.49651 0.31737
 N2152 N 0.07281 0.49539 0.30286
 C2153 C 0.08490 0.47909 0.30044
 N2154 N 0.08349 0.46391 0.31306
 C2155 C 0.04648 0.48314 0.34655
 C2156 C 0.03725 0.48472 0.36117
 C2157 C 0.02794 0.48694 0.37941
 N2158 N 0.01354 0.47398 0.38542
 N2159 N 0.00674 0.47492 0.40313
 C2160 C 0.01417 0.48884 0.41541
 N2161 N 0.02837 0.50188 0.40921
 N2162 N 0.03509 0.50097 0.39157
 N2163 N 0.55880 -0.00574 -0.18385
 C2164 C 0.55718 -0.02148 -0.17191
 N2165 N 0.56886 -0.03785 -0.17486
 N2166 N 0.58171 -0.03851 -0.18924
 C2167 C 0.58352 -0.02278 -0.20123
 N2168 N 0.57167 -0.00641 -0.19828
 C2169 C 0.54484 -0.02015 -0.15525
 C2170 C 0.53573 -0.01902 -0.14053
 C2171 C 0.52669 -0.01728 -0.12213
 N2172 N 0.53395 -0.00343 -0.10984
 N2173 N 0.52754 -0.00293 -0.09210
 C2174 C 0.51357 -0.01621 -0.08589
 N2175 N 0.50603 -0.02995 -0.09829
 N2176 N 0.51253 -0.03050 -0.11611
 N2177 N 0.65534 0.63102 0.01021
 C2178 C 0.65607 0.61997 -0.00592
 N2179 N 0.67314 0.62003 -0.01631
 N2180 N 0.68896 0.63079 -0.01073
 C2181 C 0.68840 0.64184 0.00552
 N2182 N 0.67114 0.64176 0.01579
 C2183 C 0.63942 0.60724 -0.01098
 C2184 C 0.62530 0.59623 -0.01384
 C2185 C 0.60840 0.58280 -0.01511
 N2186 N 0.60417 0.57082 -0.00034
 N2187 N 0.58777 0.55945 -0.00033
 C2188 C 0.57495 0.55950 -0.01512
 N2189 N 0.57931 0.57133 -0.03012
 N2190 N 0.59579 0.58281 -0.03010
 N2191 N 0.17369 1.12050 0.48204
 C2192 C 0.15636 1.12091 0.49207
 N2193 N 0.15540 1.13232 0.50797
 N2194 N 0.17121 1.14297 0.51368
 C2195 C 0.18867 1.14258 0.50375
 N2196 N 0.18951 1.13118 0.48775
 C2197 C 0.13972 1.10821 0.48691
 C2198 C 0.12567 1.09716 0.48389
 C2199 C 0.10890 1.08360 0.48232
 N2200 N 0.09553 1.08477 0.46798
 N2201 N 0.07915 1.07316 0.46783
 C2202 C 0.07563 1.06004 0.48204
 N2203 N 0.08920 1.05883 0.49617
 N2204 N 0.10551 1.07033 0.49629
 N2205 N 0.15374 -0.13220 0.99055
 C2206 C 0.15485 -0.12060 1.00631
 N2207 N 0.17217 -0.12023 1.01620
 N2208 N 0.18786 -0.13113 1.01048
 C2209 C 0.18687 -0.14272 0.99462
 N2210 N 0.16942 -0.14308 0.98483
 C2211 C 0.13835 -0.10772 1.01145
 C2212 C 0.12433 -0.09663 1.01434
 C2213 C 0.10748 -0.08320 1.01558
 N2214 N 0.09563 -0.08202 1.03118
 N2215 N 0.07916 -0.07059 1.03126
 C2216 C 0.07405 -0.06001 1.01571
 N2217 N 0.08610 -0.06113 1.00030
 N2218 N 0.10249 -0.07245 1.00024
 N2219 N 0.67430 0.37897 0.51774
 C2220 C 0.65738 0.37952 0.50729
 N2221 N 0.65674 0.36900 0.49086
 N2222 N 0.67250 0.35832 0.48502
 C2223 C 0.68961 0.35777 0.49534
 N2224 N 0.69007 0.36827 0.51190
 C2225 C 0.64083 0.39224 0.51268
 C2226 C 0.62683 0.40328 0.51586
 C2227 C 0.61005 0.41679 0.51753
 N2228 N 0.60569 0.42881 0.50287
 N2229 N 0.58934 0.44018 0.50319
 C2230 C 0.57670 0.44010 0.51821
 N2231 N 0.58120 0.42826 0.53311
 N2232 N 0.59763 0.41676 0.53276
 N2233 N -0.15334 0.36650 0.50744
 C2234 C -0.15374 0.37818 0.49191
 N2235 N -0.17077 0.37895 0.48162
 N2236 N -0.18687 0.36836 0.48673
 C2237 C -0.18660 0.35670 0.50238
 N2238 N -0.16943 0.35595 0.51256
 C2239 C -0.13676 0.39073 0.48744
 C2240 C -0.12233 0.40147 0.48518
 C2241 C -0.10497 0.41438 0.48480
 N2242 N -0.09497 0.41866 0.46859
 N2243 N -0.07843 0.43007 0.46896
 C2244 C -0.07143 0.43755 0.48558
 N2245 N -0.08162 0.43328 0.50163
 N2246 N -0.09804 0.42196 0.50125
 N2247 N 0.34459 -0.13573 0.00768
 C2248 C 0.34468 -0.12460 -0.00821
 N2249 N 0.32791 -0.12407 -0.01890
 N2250 N 0.31160 -0.13435 -0.01382
 C2251 C 0.31138 -0.14546 0.00218
 N2252 N 0.32829 -0.14598 0.01276
 C2253 C 0.36189 -0.11238 -0.01270
 C2254 C 0.37651 -0.10189 -0.01501
 C2255 C 0.39406 -0.08923 -0.01550
 N2256 N 0.40412 -0.08527 -0.03175
 N2257 N 0.42078 -0.07403 -0.03150
 C2258 C 0.42785 -0.06641 -0.01496
 N2259 N 0.41760 -0.07037 0.00113
 N2260 N 0.40106 -0.08153 0.00088
 N2261 N 0.32914 1.12170 0.51733
 C2262 C 0.34615 1.12227 0.50685
 N2263 N 0.34658 1.13379 0.49120
 N2264 N 0.33055 1.14437 0.48617
 C2265 C 0.31341 1.14381 0.49656
 N2266 N 0.31310 1.13231 0.51230
 C2267 C 0.36304 1.10968 0.51126
 C2268 C 0.37733 1.09884 0.51357
 C2269 C 0.39445 1.08566 0.51415
 N2270 N 0.40538 1.08303 0.53006
 N2271 N 0.42178 1.07147 0.52978
 C2272 C 0.42773 1.06219 0.51354
 N2273 N 0.41661 1.06480 0.49780
 N2274 N 0.40031 1.07626 0.49809
 N2275 N -0.17104 0.62288 1.01765
 C2276 C -0.15414 0.62388 1.00703
 N2277 N -0.15416 0.63536 0.99136
 N2278 N -0.17051 0.64548 0.98643
 C2279 C -0.18754 0.64448 0.99694
 N2280 N -0.18740 0.63302 1.01272
 C2281 C -0.13684 0.61181 1.01135
 C2282 C -0.12218 0.60144 1.01354
 C2283 C -0.10460 0.58886 1.01397
 N2284 N -0.09412 0.58565 1.03005
 N2285 N -0.07745 0.57448 1.02972
 C2286 C -0.07077 0.56620 1.01327
 N2287 N -0.08142 0.56943 0.99735
 N2288 N -0.09798 0.58050 0.99768
 N2289 N 0.02692 0.65012 0.58717
 C2290 C 0.00822 0.64355 0.58315
 N2291 N -0.00643 0.65709 0.57975
 N2292 N -0.00251 0.67672 0.58055
 C2293 C 0.01626 0.68341 0.58449
 N2294 N 0.03083 0.66972 0.58795
 C2295 C 0.00490 0.62275 0.57953
 C2296 C 0.00273 0.60557 0.57473
 C2297 C 0.00069 0.58599 0.56676
 N2298 N -0.01420 0.58245 0.55430
 N2299 N -0.01433 0.56563 0.54407
 C2300 C 0.00052 0.55189 0.54583
 N2301 N 0.01529 0.55529 0.55855
 N2302 N 0.01544 0.57219 0.56877
 N2303 N 0.52886 0.15004 0.08151
 C2304 C 0.51061 0.14285 0.07665
 N2305 N 0.49551 0.15587 0.07326
 N2306 N 0.49851 0.17559 0.07492
 C2307 C 0.51678 0.18293 0.07982
 N2308 N 0.53185 0.16975 0.08318
 C2309 C 0.50794 0.12196 0.07300
 C2310 C 0.50581 0.10469 0.06850
 C2311 C 0.50330 0.08487 0.06120
 N2312 N 0.48806 0.08109 0.04918
 N2313 N 0.48714 0.06367 0.03991
 C2314 C 0.50148 0.04952 0.04230
 N2315 N 0.51661 0.05320 0.05457
 N2316 N 0.51756 0.07070 0.06382
 N2317 N -0.03432 0.15531 0.92515
 C2318 C -0.01688 0.14870 0.93245
 N2319 N -0.00216 0.16206 0.93655
 N2320 N -0.00469 0.18152 0.93314
 C2321 C -0.02208 0.18826 0.92564
 N2322 N -0.03683 0.17476 0.92173
 C2323 C -0.01425 0.12798 0.93642
 C2324 C -0.01181 0.11076 0.94058
 C2325 C -0.00855 0.09085 0.94695
 N2326 N -0.02153 0.07582 0.94259
 N2327 N -0.01951 0.05779 0.95036
 C2328 C -0.00451 0.05439 0.96277
 N2329 N 0.00854 0.06943 0.96688
 N2330 N 0.00655 0.08738 0.95910
 N2331 N 0.46969 0.65320 0.42099
 C2332 C 0.48487 0.64817 0.43257
 N2333 N 0.49812 0.66244 0.43817
 N2334 N 0.49637 0.68124 0.43217
 C2335 C 0.48127 0.68638 0.42042
 N2336 N 0.46795 0.67199 0.41500
 C2337 C 0.48699 0.62802 0.43879
 C2338 C 0.48909 0.61123 0.44439
 C2339 C 0.49199 0.59168 0.45182
 N2340 N 0.50575 0.58894 0.46546
 N2341 N 0.50795 0.57100 0.47323
 C2342 C 0.49647 0.55522 0.46758
 N2343 N 0.48277 0.55795 0.45378
 N2344 N 0.48056 0.57595 0.44600
 N2345 N 0.49337 0.83706 0.42571
 C2346 C 0.50838 0.85075 0.42461
 N2347 N 0.52741 0.84439 0.42194
 N2348 N 0.53134 0.82489 0.42016
 C2349 C 0.51641 0.81103 0.42118
 N2350 N 0.49731 0.81750 0.42390
 C2351 C 0.50465 0.87147 0.42829
 C2352 C 0.50228 0.88875 0.43266
 C2353 C 0.50015 0.90875 0.43966
 N2354 N 0.51418 0.92290 0.43573
 N2355 N 0.51386 0.94063 0.44461
 C2356 C 0.49962 0.94459 0.45783
 N2357 N 0.48550 0.93046 0.46153
 N2358 N 0.48580 0.91279 0.45264
 N2359 N -0.00479 0.33892 0.93167
 C2360 C 0.01058 0.35205 0.92965
 N2361 N 0.02921 0.34502 0.92601
 N2362 N 0.03233 0.32537 0.92411
 C2363 C 0.01699 0.31207 0.92598
 N2364 N -0.00166 0.31925 0.92976
 C2365 C 0.00755 0.37297 0.93286
 C2366 C 0.00532 0.39041 0.93666
 C2367 C 0.00290 0.41064 0.94287
 N2368 N 0.01695 0.42473 0.93882
 N2369 N 0.01611 0.44285 0.94693
 C2370 C 0.00131 0.44730 0.95944
 N2371 N -0.01283 0.43322 0.96324
 N2372 N -0.01202 0.41516 0.95511
 N2373 N 0.49978 0.33157 0.05794
 C2374 C 0.48463 0.34499 0.05966
 N2375 N 0.46643 0.33872 0.06564
 N2376 N 0.46355 0.31958 0.07014
 C2377 C 0.47872 0.30605 0.06872
 N2378 N 0.49688 0.31241 0.06244
 C2379 C 0.48781 0.36557 0.05533
 C2380 C 0.49041 0.38285 0.05139
 C2381 C 0.49350 0.40309 0.04585
 N2382 N 0.48158 0.41804 0.05257
 N2383 N 0.48357 0.43667 0.04611
 C2384 C 0.49750 0.44082 0.03272
 N2385 N 0.50950 0.42582 0.02621
 N2386 N 0.50754 0.40725 0.03268
 N2387 N -0.03113 0.83890 0.56476
 C2388 C -0.01407 0.84383 0.55555
 N2389 N 0.00061 0.82995 0.55345
 N2390 N -0.00163 0.81166 0.56061
 C2391 C -0.01860 0.80670 0.57011
 N2392 N -0.03335 0.82064 0.57192
 C2393 C -0.01123 0.86382 0.54911
 C2394 C -0.00897 0.88080 0.54404
 C2395 C -0.00638 0.90097 0.53803
 N2396 N 0.00600 0.90505 0.52343
 N2397 N 0.00802 0.92381 0.51741
 C2398 C -0.00224 0.93906 0.52583
 N2399 N -0.01456 0.93495 0.54055
 N2400 N -0.01658 0.91615 0.54657
 N2401 N 0.25764 0.31188 0.06910
 C2402 C 0.27303 0.31151 0.08151
 N2403 N 0.28863 0.32427 0.07904
 N2404 N 0.28888 0.33696 0.06465
 C2405 C 0.27349 0.33755 0.05215
 N2406 N 0.25791 0.32459 0.05466
 C2407 C 0.27203 0.29921 0.09810
 C2408 C 0.27098 0.29008 0.11271
 C2409 C 0.26906 0.28096 0.13095
 N2410 N 0.28172 0.26628 0.13675
 N2411 N 0.28068 0.25935 0.15434
 C2412 C 0.26698 0.26696 0.16670
 N2413 N 0.25430 0.28149 0.16071
 N2414 N 0.25529 0.28833 0.14321
 N2415 N 0.76050 0.81352 0.56957
 C2416 C 0.77671 0.81261 0.58102
 N2417 N 0.79257 0.82476 0.57752
 N2418 N 0.79229 0.83736 0.56308
 C2419 C 0.77609 0.83847 0.55159
 N2420 N 0.76023 0.82615 0.55508
 C2421 C 0.77632 0.80066 0.59783
 C2422 C 0.77578 0.79195 0.61268
 C2423 C 0.77439 0.78350 0.63123
 N2424 N 0.78652 0.76830 0.63688
 N2425 N 0.78576 0.76175 0.65462
 C2426 C 0.77292 0.77031 0.66726
 N2427 N 0.76083 0.78541 0.66143
 N2428 N 0.76154 0.79187 0.64380
 N2429 N 0.21452 0.68027 0.57482
 C2430 C 0.23095 0.69193 0.57746
 N2431 N 0.24656 0.69015 0.56526
 N2432 N 0.24573 0.67711 0.55088
 C2433 C 0.22932 0.66526 0.54824
 N2434 N 0.21370 0.66725 0.56047
 C2435 C 0.23254 0.70433 0.59411
 C2436 C 0.23397 0.71349 0.60882
 C2437 C 0.23601 0.72253 0.62720
 N2438 N 0.24934 0.71466 0.63938
 N2439 N 0.24998 0.72112 0.65714
 C2440 C 0.23737 0.73572 0.66344
 N2441 N 0.22417 0.74387 0.65115
 N2442 N 0.22348 0.73733 0.63331
 N2443 N 0.74159 0.18974 0.06324
 C2444 C 0.72617 0.19069 0.07572
 N2445 N 0.71040 0.17807 0.07344
 N2446 N 0.71003 0.16494 0.05917
 C2447 C 0.72548 0.16374 0.04663
 N2448 N 0.74120 0.17660 0.04893
 C2449 C 0.72745 0.20315 0.09236
 C2450 C 0.72872 0.21226 0.10710
 C2451 C 0.73080 0.22114 0.12555
 N2452 N 0.71892 0.23653 0.13156
 N2453 N 0.71987 0.24315 0.14937
 C2454 C 0.73268 0.23451 0.16172
 N2455 N 0.74461 0.21928 0.15552
 N2456 N 0.74370 0.21274 0.13780
 N2457 N 0.75953 0.18776 0.93074
 C2458 C 0.77554 0.18852 0.91893
 N2459 N 0.79124 0.17609 0.92194
 N2460 N 0.79097 0.16334 0.93629
 C2461 C 0.77495 0.16239 0.94814
 N2462 N 0.75928 0.17499 0.94513
 C2463 C 0.77501 0.20062 0.90223
 C2464 C 0.77421 0.20948 0.88748
 C2465 C 0.77245 0.21810 0.86905
 N2466 N 0.75956 0.20964 0.85666
 N2467 N 0.75860 0.21619 0.83907
 C2468 C 0.77047 0.23149 0.83314
 N2469 N 0.78333 0.24018 0.84562
 N2470 N 0.78432 0.23354 0.86330
 N2471 N 0.26398 0.68667 0.43060
 C2472 C 0.28035 0.68717 0.41921
 N2473 N 0.29588 0.67474 0.42283
 N2474 N 0.29511 0.66224 0.43735
 C2475 C 0.27873 0.66153 0.44878
 N2476 N 0.26322 0.67415 0.44517
 C2477 C 0.28036 0.69886 0.40225
 C2478 C 0.28003 0.70728 0.38725
 C2479 C 0.27877 0.71527 0.36853
 N2480 N 0.26785 0.70515 0.35555
 N2481 N 0.26686 0.71163 0.33795
 C2482 C 0.27676 0.72849 0.33256
 N2483 N 0.28774 0.73874 0.34559
 N2484 N 0.28876 0.73219 0.36331
 N2485 N 0.74693 0.81093 0.43411
 C2486 C 0.73153 0.80925 0.42178
 N2487 N 0.71513 0.82094 0.42435
 N2488 N 0.71413 0.83388 0.43875
 C2489 C 0.72953 0.83576 0.45112
 N2490 N 0.74592 0.82389 0.44854
 C2491 C 0.73327 0.79682 0.40513
 C2492 C 0.73476 0.78759 0.39045
 C2493 C 0.73684 0.77839 0.37212
 N2494 N 0.72414 0.76369 0.36610
 N2495 N 0.72488 0.75699 0.34831
 C2496 C 0.73832 0.76486 0.33595
 N2497 N 0.75111 0.77937 0.34216
 N2498 N 0.75040 0.78598 0.35987
 N2499 N 0.24371 0.30976 0.93490
 C2500 C 0.22795 0.30812 0.92296
 N2501 N 0.21168 0.31990 0.92593
 N2502 N 0.21115 0.33287 0.94033
 C2503 C 0.22691 0.33471 0.95230
 N2504 N 0.24316 0.32275 0.94935
 C2505 C 0.22922 0.29577 0.90623
 C2506 C 0.23039 0.28668 0.89144
 C2507 C 0.23224 0.27773 0.87297
 N2508 N 0.21957 0.26302 0.86690
 N2509 N 0.22025 0.25650 0.84904
 C2510 C 0.23356 0.26457 0.83668
 N2511 N 0.24628 0.27910 0.84294
 N2512 N 0.24566 0.28554 0.86071
 N2513 N 0.88324 0.40448 0.74153
 C2514 C 0.87133 0.40545 0.75701
 N2515 N 0.87049 0.42289 0.76704
 N2516 N 0.88124 0.43882 0.76173
 C2517 C 0.89315 0.43796 0.74614
 N2518 N 0.89396 0.42040 0.73622
 C2519 C 0.85863 0.38863 0.76167
 C2520 C 0.84772 0.37434 0.76413
 C2521 C 0.83448 0.35722 0.76493
 N2522 N 0.83344 0.34514 0.78024
 N2523 N 0.82202 0.32858 0.77998
 C2524 C 0.81131 0.32359 0.76436
 N2525 N 0.81232 0.33586 0.74922
 N2526 N 0.82364 0.35234 0.74950
 N2527 N 0.38342 0.90491 0.24074
 C2528 C 0.37248 0.90556 0.25684
 N2529 N 0.37237 0.92275 0.26728
 N2530 N 0.38288 0.93874 0.26174
 C2531 C 0.39381 0.93826 0.24551
 N2532 N 0.39390 0.92089 0.23521
 C2533 C 0.35994 0.88874 0.26179
 C2534 C 0.34903 0.87452 0.26455
 C2535 C 0.33560 0.85758 0.26573
 N2536 N 0.33632 0.84434 0.28018
 N2537 N 0.32470 0.82793 0.28009
 C2538 C 0.31201 0.82426 0.26551
 N2539 N 0.31127 0.83769 0.25126
 N2540 N 0.32279 0.85402 0.25137
 N2541 N 0.11695 0.90361 0.75799
 C2542 C 0.12843 0.90441 0.74222
 N2543 N 0.12877 0.92159 0.73211
 N2544 N 0.11795 0.93745 0.73764
 C2545 C 0.10649 0.93679 0.75351
 N2546 N 0.10616 0.91947 0.76351
 C2547 C 0.14124 0.88776 0.73733
 C2548 C 0.15225 0.87359 0.73471
 C2549 C 0.16550 0.85656 0.73390
 N2550 N 0.17445 0.85061 0.74994
 N2551 N 0.18575 0.83419 0.75008
 C2552 C 0.18865 0.82305 0.73419
 N2553 N 0.17986 0.82912 0.71797
 N2554 N 0.16844 0.84563 0.71784
 N2555 N 0.61872 0.40550 0.25844
 C2556 C 0.62963 0.40639 0.24232
 N2557 N 0.62939 0.42354 0.23217
 N2558 N 0.61858 0.43928 0.23799
 C2559 C 0.60769 0.43853 0.25420
 N2560 N 0.60792 0.42125 0.26425
 C2561 C 0.64251 0.38990 0.23705
 C2562 C 0.65368 0.37596 0.23397
 C2563 C 0.66728 0.35925 0.23246
 N2564 N 0.67876 0.35471 0.24745
 N2565 N 0.69021 0.33838 0.24722
 C2566 C 0.69074 0.32594 0.23195
 N2567 N 0.67945 0.33063 0.21672
 N2568 N 0.66788 0.34704 0.21699
 N2569 N 0.61675 0.59654 0.24291
 C2570 C 0.62822 0.59610 0.25861
 N2571 N 0.62862 0.57908 0.26896
 N2572 N 0.61789 0.56304 0.26373
 C2573 C 0.60644 0.56335 0.24793
 N2574 N 0.60605 0.58050 0.23769
 C2575 C 0.64096 0.61294 0.26319
 C2576 C 0.65190 0.62724 0.26558
 C2577 C 0.66507 0.64441 0.26615
 N2578 N 0.66863 0.65499 0.28229
 N2579 N 0.68009 0.67152 0.28202
 C2580 C 0.68832 0.67795 0.26558
 N2581 N 0.68480 0.66716 0.24961
 N2582 N 0.67345 0.65073 0.24989
 N2583 N 0.11595 0.09464 0.74091
 C2584 C 0.12673 0.09450 0.75704
 N2585 N 0.12665 0.07769 0.76769
 N2586 N 0.11612 0.06156 0.76233
 C2587 C 0.10536 0.06156 0.74610
 N2588 N 0.10544 0.07851 0.73555
 C2589 C 0.13929 0.11143 0.76185
 C2590 C 0.15015 0.12574 0.76449
 C2591 C 0.16334 0.14288 0.76545
 N2592 N 0.16580 0.15391 0.78152
 N2593 N 0.17730 0.17043 0.78155
 C2594 C 0.18667 0.17639 0.76550
 N2595 N 0.18425 0.16515 0.74961
 N2596 N 0.17286 0.14873 0.74959
 N2597 N 0.38378 0.09617 0.25825
 C2598 C 0.37216 0.09551 0.24264
 N2599 N 0.37149 0.07827 0.23229
 N2600 N 0.38210 0.06225 0.23741
 C2601 C 0.39371 0.06278 0.25312
 N2602 N 0.39436 0.08015 0.26336
 C2603 C 0.35958 0.11242 0.23814
 C2604 C 0.34873 0.12673 0.23577
 C2605 C 0.33549 0.14384 0.23513
 N2606 N 0.32543 0.14923 0.25095
 N2607 N 0.31392 0.16552 0.25124
 C2608 C 0.31192 0.17712 0.23573
 N2609 N 0.32187 0.17164 0.21973
 N2610 N 0.33348 0.15524 0.21945
 N2611 N 0.88622 0.59715 0.75835
 C2612 C 0.87454 0.59663 0.74278
 N2613 N 0.87344 0.57933 0.73256
 N2614 N 0.88370 0.56311 0.73777
 C2615 C 0.89536 0.56351 0.75344
 N2616 N 0.89645 0.58095 0.76355
 C2617 C 0.86226 0.61374 0.73826
 C2618 C 0.85161 0.62819 0.73588
 C2619 C 0.83851 0.64539 0.73521
 N2620 N 0.82750 0.65013 0.75064
 N2621 N 0.81605 0.66647 0.75095
 C2622 C 0.81507 0.67877 0.73584
 N2623 N 0.82598 0.67396 0.72022
 N2624 N 0.83753 0.65752 0.71992
 N2625 N 0.89972 0.78067 0.16495
 C2626 C 0.89256 0.76267 0.17063
 N2627 N 0.90555 0.74796 0.17535
 N2628 N 0.92520 0.75107 0.17419
 C2629 C 0.93256 0.76909 0.16847
 N2630 N 0.91937 0.78377 0.16379
 C2631 C 0.87171 0.76009 0.17400
 C2632 C 0.85453 0.75796 0.17847
 C2633 C 0.83495 0.75535 0.18600
 N2634 N 0.83149 0.73982 0.19773
 N2635 N 0.81451 0.73887 0.20749
 C2636 C 0.80049 0.75348 0.20591
 N2637 N 0.80381 0.76889 0.19389
 N2638 N 0.82088 0.76987 0.18416
 N2639 N 0.40205 0.28102 0.67160
 C2640 C 0.39470 0.26314 0.67740
 N2641 N 0.40750 0.24797 0.68127
 N2642 N 0.42714 0.25051 0.67913
 C2643 C 0.43464 0.26837 0.67323
 N2644 N 0.42169 0.28355 0.66945
 C2645 C 0.37388 0.26081 0.68103
 C2646 C 0.35665 0.25870 0.68535
 C2647 C 0.33686 0.25590 0.69231
 N2648 N 0.33319 0.24053 0.70416
 N2649 N 0.31562 0.23914 0.71290
 C2650 C 0.30119 0.25311 0.71010
 N2651 N 0.30478 0.26837 0.69798
 N2652 N 0.32242 0.26979 0.68926
 N2653 N 0.40614 0.74999 0.82112
 C2654 C 0.39270 0.73609 0.82695
 N2655 N 0.39922 0.71912 0.83525
 N2656 N 0.41871 0.71628 0.83791
 C2657 C 0.43232 0.73019 0.83219
 N2658 N 0.42564 0.74714 0.82378
 C2659 C 0.37204 0.73859 0.82290
 C2660 C 0.35498 0.74078 0.81824
 C2661 C 0.33547 0.74360 0.81084
 N2662 N 0.33223 0.75911 0.79908
 N2663 N 0.31505 0.76046 0.78983
 C2664 C 0.30061 0.74629 0.79199
 N2665 N 0.30375 0.73089 0.80402
 N2666 N 0.32101 0.72951 0.81325
 N2667 N 0.91044 0.25063 0.31606
 C2668 C 0.89636 0.23774 0.32256
 N2669 N 0.90177 0.22288 0.33435
 N2670 N 0.92076 0.22109 0.33963
 C2671 C 0.93503 0.23402 0.33327
 N2672 N 0.92943 0.24883 0.32135
 C2673 C 0.87617 0.23946 0.31651
 C2674 C 0.85946 0.24115 0.31069
 C2675 C 0.84016 0.24357 0.30265
 N2676 N 0.83751 0.25752 0.28917
 N2677 N 0.81997 0.25911 0.28056
 C2678 C 0.80453 0.24678 0.28515
 N2679 N 0.80716 0.23288 0.29879
 N2680 N 0.82477 0.23127 0.30740
 N2681 N 0.09188 0.27705 0.32082
 C2682 C 0.09782 0.25770 0.31901
 N2683 N 0.08397 0.24279 0.31952
 N2684 N 0.06469 0.24716 0.32211
 C2685 C 0.05865 0.26659 0.32407
 N2686 N 0.07265 0.28140 0.32338
 C2687 C 0.11834 0.25339 0.31534
 C2688 C 0.13558 0.25072 0.31130
 C2689 C 0.15571 0.24845 0.30505
 N2690 N 0.16010 0.23444 0.29174
 N2691 N 0.17812 0.23407 0.28373
 C2692 C 0.19228 0.24777 0.28869
 N2693 N 0.18795 0.26166 0.30222
 N2694 N 0.16988 0.26204 0.31022
 N2695 N 0.58859 0.77512 0.81135
 C2696 C 0.59495 0.75592 0.80930
 N2697 N 0.58159 0.74064 0.81066
 N2698 N 0.56239 0.74450 0.81433
 C2699 C 0.55595 0.76376 0.81665
 N2700 N 0.56944 0.77896 0.81501
 C2701 C 0.61553 0.75208 0.80552
 C2702 C 0.63293 0.74974 0.80191
 C2703 C 0.65342 0.74783 0.79666
 N2704 N 0.65875 0.73446 0.78308
 N2705 N 0.67741 0.73417 0.77650
 C2706 C 0.69130 0.74728 0.78323
 N2707 N 0.68599 0.76053 0.79701
 N2708 N 0.66728 0.76083 0.80359
 N2709 N 0.58989 0.21663 0.68415
 C2710 C 0.59652 0.23521 0.68890
 N2711 N 0.58329 0.25054 0.69058
 N2712 N 0.56394 0.24743 0.68721
 C2713 C 0.55719 0.22887 0.68218
 N2714 N 0.57055 0.21353 0.68079
 C2715 C 0.61722 0.23850 0.69240
 C2716 C 0.63457 0.24115 0.69587
 C2717 C 0.65485 0.24428 0.70115
 N2718 N 0.66942 0.23154 0.69513
 N2719 N 0.68798 0.23333 0.70176
 C2720 C 0.69241 0.24786 0.71464
 N2721 N 0.67780 0.26070 0.72041
 N2722 N 0.65931 0.25893 0.71378
 N2723 N 0.07843 0.75423 0.19822
 C2724 C 0.09166 0.73882 0.19842
 N2725 N 0.08554 0.72014 0.19339
 N2726 N 0.06676 0.71700 0.18794
 C2727 C 0.05346 0.73241 0.18739
 N2728 N 0.05962 0.75108 0.19279
 C2729 C 0.11210 0.74228 0.20302
 C2730 C 0.12942 0.74479 0.20675
 C2731 C 0.14994 0.74740 0.21151
 N2732 N 0.16429 0.73614 0.20294
 N2733 N 0.18332 0.73768 0.20833
 C2734 C 0.18850 0.75054 0.22245
 N2735 N 0.17407 0.76189 0.23085
 N2736 N 0.15509 0.76036 0.22547
   
