data_POSCAR
  _audit_creation_date              2014-09-24
  _audit_creation_method            'ToBaCCo'
  _symmetry_space_group_name_H-M    'P1'
  _symmetry_Int_Tables_number       1
  _symmetry_cell_setting            triclinic
  loop_
  _symmetry_equiv_pos_as_xyz
 x,y,z
_cell_length_a 74.5447
_cell_length_b 76.3034
_cell_length_c 76.0626
_cell_angle_alpha 91.622100
_cell_angle_beta 88.230500
_cell_angle_gamma 89.845400
loop_
  _atom_site_label
  _atom_site_type_symbol
  _atom_site_fract_x
  _atom_site_fract_y
  _atom_site_fract_z
C1 C 0.73960 0.65268 0.97430
 H2 H 0.75215 0.65014 0.96714
 C3 C 0.72679 0.66371 0.96735
 H4 H 0.72969 0.66973 0.95487
 C5 C 0.72038 0.64725 0.99892
 H6 H 0.71775 0.64050 1.01102
 C7 C 0.70726 0.65828 0.99254
 H8 H 0.69469 0.65993 0.99992
 N9 N 0.73611 0.64456 0.98971
 C10 C 0.78567 0.62808 1.01291
 H11 H 0.78239 0.61441 1.01462
 C12 C 0.80157 0.63481 1.01941
 H13 H 0.81050 0.62617 1.02608
 C14 C 0.77777 0.65584 1.00219
 H15 H 0.76834 0.66398 0.99561
 C16 C 0.79371 0.66310 1.00831
 H17 H 0.79641 0.67686 1.00640
 Zn18 Zn 0.75279 0.62777 0.99702
 N19 N 0.77414 0.63858 1.00453
 C20 C 0.77535 0.61204 0.97081
 N21 N 0.75820 0.61253 0.97745
 C22 C 0.74481 0.60379 0.96919
 C23 C 0.74848 0.59412 0.95357
 C24 C 0.77954 0.60279 0.95516
 C25 C 0.74274 0.62477 1.03212
 C26 C 0.73617 0.61707 1.04740
 C27 C 0.73003 0.59073 1.03025
 C28 C 0.73706 0.59890 1.01532
 N29 N 0.74304 0.61569 1.01649
 H30 H 0.78576 0.61936 0.97727
 H31 H 0.73119 0.60478 0.97445
 H32 H 0.73762 0.58754 0.94697
 H33 H 0.79322 0.60290 0.94996
 H34 H 0.74769 0.63808 1.03269
 H35 H 0.73620 0.62479 1.05957
 H36 H 0.72524 0.57739 1.02882
 H37 H 0.73767 0.59180 1.00284
 C38 C 0.80579 0.65254 1.01716
 C39 C 0.71024 0.66643 0.97638
 C40 C 0.72950 0.59978 1.04672
 C41 C 0.76599 0.59386 0.94621
 C42 C 0.73391 0.34970 0.49572
 H43 H 0.74697 0.34886 0.50146
 C44 C 0.71975 0.33949 0.50215
 H45 H 0.72210 0.33073 0.51280
 C46 C 0.71488 0.36272 0.47536
 H47 H 0.71291 0.37205 0.46517
 C48 C 0.70035 0.35286 0.48145
 H49 H 0.68740 0.35461 0.47566
 N50 N 0.73126 0.36101 0.48255
 C51 C 0.78389 0.37276 0.45913
 H52 H 0.78266 0.38689 0.45901
 C53 C 0.79971 0.36466 0.45290
 H54 H 0.81056 0.37271 0.44791
 C55 C 0.77116 0.34528 0.46603
 H56 H 0.76001 0.33780 0.47119
 C57 C 0.78675 0.33659 0.45977
 H58 H 0.78744 0.32244 0.46029
 Zn59 Zn 0.75027 0.37596 0.47558
 N60 N 0.77021 0.36309 0.46597
 C61 C 0.77456 0.38754 0.50107
 N62 N 0.75733 0.38888 0.49590
 C63 C 0.74491 0.39827 0.50573
 C64 C 0.74974 0.40690 0.52137
 C65 C 0.77998 0.39602 0.51644
 C66 C 0.73977 0.38292 0.44193
 C67 C 0.73408 0.39265 0.42790
 C68 C 0.73426 0.41867 0.44677
 C69 C 0.74012 0.40841 0.46045
 N70 N 0.74253 0.39084 0.45784
 H71 H 0.78416 0.37958 0.49351
 H72 H 0.73118 0.39883 0.50154
 H73 H 0.73966 0.41421 0.52909
 H74 H 0.79377 0.39459 0.52025
 H75 H 0.74194 0.36895 0.44020
 H76 H 0.73185 0.38598 0.41541
 H77 H 0.73228 0.43261 0.44909
 H78 H 0.74266 0.41449 0.47313
 C79 C 0.80142 0.34636 0.45342
 C80 C 0.70263 0.34115 0.49512
 C81 C 0.73114 0.41077 0.43022
 C82 C 0.76751 0.40579 0.52691
 C83 C 0.23980 -0.14464 0.01646
 H84 H 0.25289 -0.14554 0.02213
 C85 C 0.22557 -0.15469 0.02306
 H86 H 0.22787 -0.16337 0.03378
 C87 C 0.22082 -0.13182 -0.00406
 H88 H 0.21884 -0.12263 -0.01436
 C89 C 0.20625 -0.14150 0.00217
 H90 H 0.19333 -0.13977 -0.00367
 N91 N 0.23724 -0.13361 0.00301
 C92 C 0.28995 -0.12392 -0.02128
 H93 H 0.28900 -0.10981 -0.02198
 C94 C 0.30539 -0.13257 -0.02768
 H95 H 0.31625 -0.12497 -0.03333
 C96 C 0.27675 -0.15083 -0.01313
 H97 H 0.26549 -0.15789 -0.00758
 C98 C 0.29192 -0.16008 -0.01957
 H99 H 0.29224 -0.17421 -0.01874
 Zn100 Zn 0.25639 -0.11938 -0.00516
 N101 N 0.27620 -0.13303 -0.01381
 C102 C 0.28072 -0.10529 0.01914
 N103 N 0.26347 -0.10465 0.01389
 C104 C 0.25097 -0.09451 0.02279
 C105 C 0.25572 -0.08445 0.03761
 C106 C 0.28608 -0.09530 0.03364
 C107 C 0.24509 -0.11611 -0.03894
 C108 C 0.23869 -0.10825 -0.05380
 C109 C 0.24047 -0.08008 -0.03859
 C110 C 0.24680 -0.08860 -0.02391
 N111 N 0.24867 -0.10634 -0.02430
 H112 H 0.29037 -0.11382 0.01235
 H113 H 0.23726 -0.09446 0.01854
 H114 H 0.24560 -0.07655 0.04463
 H115 H 0.29988 -0.09618 0.03759
 H116 H 0.24691 -0.13018 -0.03892
 H117 H 0.23575 -0.11664 -0.06507
 H118 H 0.23887 -0.06596 -0.03781
 H119 H 0.25002 -0.08106 -0.01218
 C120 C 0.30660 -0.15088 -0.02675
 C121 C 0.20849 -0.15312 0.01592
 C122 C 0.23600 -0.08994 -0.05384
 C123 C 0.27351 -0.08478 0.04318
 C124 C 0.23269 0.13795 0.49014
 H125 H 0.24571 0.13575 0.48376
 C126 C 0.21991 0.14823 0.48213
 H127 H 0.22330 0.15402 0.46963
 C128 C 0.21234 0.13254 0.51388
 H129 H 0.20926 0.12613 0.52607
 C130 C 0.19922 0.14278 0.50640
 H131 H 0.18623 0.14418 0.51308
 N132 N 0.22873 0.13036 0.50574
 C133 C 0.27677 0.11985 0.53455
 H134 H 0.27354 0.10667 0.53844
 C135 C 0.29222 0.12794 0.54064
 H136 H 0.30075 0.12085 0.54927
 C137 C 0.26961 0.14482 0.51828
 H138 H 0.26076 0.15132 0.50956
 C139 C 0.28509 0.15336 0.52391
 H140 H 0.28796 0.16644 0.51947
 Zn141 Zn 0.24598 0.11537 0.51533
 N142 N 0.26591 0.12826 0.52348
 C143 C 0.27191 0.09824 0.49339
 N144 N 0.25402 0.09926 0.49732
 C145 C 0.24195 0.09029 0.48749
 C146 C 0.24776 0.08017 0.47273
 C147 C 0.27827 0.08830 0.47887
 C148 C 0.23255 0.11390 0.54966
 C149 C 0.22525 0.10656 0.56483
 C150 C 0.22467 0.07845 0.54940
 C151 C 0.23210 0.08636 0.53449
 N152 N 0.23571 0.10382 0.53486
 H153 H 0.28132 0.10558 0.50116
 H154 H 0.22776 0.09151 0.49075
 H155 H 0.23793 0.07356 0.46475
 H156 H 0.29256 0.08808 0.47586
 H157 H 0.23572 0.12773 0.54962
 H158 H 0.22279 0.11492 0.57639
 H159 H 0.22180 0.06455 0.54885
 H160 H 0.23494 0.07855 0.52265
 C161 C 0.29667 0.14485 0.53518
 C162 C 0.20286 0.15069 0.49024
 C163 C 0.22114 0.08861 0.56485
 C164 C 0.26615 0.07939 0.46806
 C165 C 0.17125 0.48803 0.23117
 H166 H 0.17915 0.48911 0.24281
 C167 C 0.17927 0.48184 0.21526
 H168 H 0.19330 0.47808 0.21488
 C169 C 0.14355 0.49193 0.21733
 H170 H 0.12974 0.49628 0.21808
 C171 C 0.15097 0.48591 0.20128
 H172 H 0.14256 0.48544 0.18992
 N173 N 0.15360 0.49274 0.23193
 C174 C 0.15689 0.52671 0.27540
 H175 H 0.14779 0.53568 0.26955
 C176 C 0.16733 0.53278 0.28913
 H177 H 0.16617 0.54642 0.29336
 C178 C 0.16862 0.49802 0.27772
 H179 H 0.16874 0.48438 0.27343
 C180 C 0.17911 0.50351 0.29182
 H181 H 0.18744 0.49407 0.29815
 Zn182 Zn 0.14139 0.50188 0.25245
 N183 N 0.15762 0.50958 0.26994
 C184 C 0.12633 0.48120 0.27934
 N185 N 0.12592 0.48447 0.26187
 C186 C 0.11507 0.47508 0.25106
 C187 C 0.10475 0.46131 0.25758
 C188 C 0.11630 0.46753 0.28638
 C189 C 0.13717 0.53386 0.23661
 C190 C 0.12844 0.54881 0.23111
 C191 C 0.10049 0.53725 0.24278
 C192 C 0.10986 0.52260 0.24836
 N193 N 0.12789 0.52128 0.24529
 H194 H 0.13461 0.48906 0.28787
 H195 H 0.11465 0.47800 0.23729
 H196 H 0.09657 0.45374 0.24864
 H197 H 0.11718 0.46497 0.30026
 H198 H 0.15147 0.53234 0.23418
 H199 H 0.13613 0.55873 0.22436
 H200 H 0.08615 0.53821 0.24539
 H201 H 0.10276 0.51236 0.25518
 C202 C 0.17842 0.52112 0.29774
 C203 C 0.16905 0.48070 0.20004
 C204 C 0.10987 0.55067 0.23421
 C205 C 0.10556 0.45715 0.27540
 C206 C -0.13514 0.02009 0.23170
 H207 H -0.13616 0.02639 0.24461
 C208 C -0.14574 0.02595 0.21817
 H209 H -0.15495 0.03675 0.22097
 C210 C -0.12153 -0.00136 0.21250
 H211 H -0.11185 -0.01179 0.21019
 C212 C -0.13171 0.00413 0.19859
 H213 H -0.12977 -0.00244 0.18587
 N214 N -0.12347 0.00654 0.22869
 C215 C -0.11256 -0.01466 0.27999
 H216 H -0.09809 -0.01533 0.27858
 C217 C -0.12109 -0.02034 0.29534
 H218 H -0.11304 -0.02538 0.30568
 C219 C -0.14051 -0.00746 0.26798
 H220 H -0.14801 -0.00259 0.25720
 C221 C -0.14965 -0.01328 0.28306
 H222 H -0.16416 -0.01264 0.28383
 Zn223 Zn -0.10863 -0.00077 0.24692
 N224 N -0.12226 -0.00803 0.26685
 C225 C -0.09414 0.02435 0.27032
 N226 N -0.09358 0.01820 0.25336
 C227 C -0.08298 0.02589 0.24091
 C228 C -0.07216 0.04021 0.24545
 C229 C -0.08336 0.03832 0.27547
 C230 C -0.10517 -0.03524 0.23617
 C231 C -0.09698 -0.05097 0.23079
 C232 C -0.06819 -0.03650 0.23148
 C233 C -0.07700 -0.02095 0.23694
 N234 N -0.09520 -0.02063 0.23904
 H235 H -0.10310 0.01862 0.27994
 H236 H -0.08302 0.02096 0.22743
 H237 H -0.06378 0.04619 0.23543
 H238 H -0.08406 0.04293 0.28907
 H239 H -0.11960 -0.03462 0.23811
 H240 H -0.10531 -0.06236 0.22856
 H241 H -0.05371 -0.03657 0.22982
 H242 H -0.06932 -0.00922 0.23956
 C243 C -0.13987 -0.01965 0.29706
 C244 C -0.14409 0.01799 0.20125
 C245 C -0.07824 -0.05179 0.22834
 C246 C -0.07218 0.04645 0.26300
 C247 C 0.36298 0.51679 0.73038
 H248 H 0.36126 0.52266 0.74343
 C249 C 0.35344 0.52337 0.71643
 H250 H 0.34432 0.53429 0.71891
 C251 C 0.37743 0.49580 0.71122
 H252 H 0.38706 0.48530 0.70911
 C253 C 0.36831 0.50202 0.69693
 H254 H 0.37090 0.49599 0.68404
 N255 N 0.37462 0.50317 0.72757
 C256 C 0.38288 0.48007 0.77858
 H257 H 0.39738 0.47939 0.77781
 C258 C 0.37360 0.47382 0.79328
 H259 H 0.38113 0.46834 0.80377
 C260 C 0.35562 0.48788 0.76556
 H261 H 0.34870 0.49322 0.75465
 C262 C 0.34575 0.48154 0.77999
 H263 H 0.33124 0.48226 0.78010
 Zn264 Zn 0.38847 0.49528 0.74630
 N265 N 0.37388 0.48725 0.76526
 C266 C 0.40139 0.51985 0.77125
 N267 N 0.40293 0.51418 0.75415
 C268 C 0.41387 0.52249 0.74243
 C269 C 0.42388 0.53708 0.74782
 C270 C 0.41132 0.53413 0.77723
 C271 C 0.39279 0.46113 0.73470
 C272 C 0.40137 0.44569 0.72904
 C273 C 0.42988 0.46050 0.73109
 C274 C 0.42068 0.47575 0.73684
 N275 N 0.40245 0.47578 0.73838
 H276 H 0.39223 0.51355 0.78029
 H277 H 0.41463 0.51791 0.72883
 H278 H 0.43245 0.54360 0.73832
 H279 H 0.40975 0.53840 0.79089
 H280 H 0.37831 0.46152 0.73618
 H281 H 0.39327 0.43427 0.72614
 H282 H 0.44438 0.46067 0.72985
 H283 H 0.42810 0.48750 0.74006
 C284 C 0.35478 0.47457 0.79417
 C285 C 0.35616 0.51603 0.69938
 C286 C 0.42016 0.44519 0.72711
 C287 C 0.42268 0.54302 0.76547
 C288 C 0.66918 0.99339 0.73126
 H289 H 0.67551 0.99522 0.74377
 C290 C 0.67965 0.98910 0.71607
 H291 H 0.69403 0.98760 0.71703
 C292 C 0.64280 0.99316 0.71465
 H293 H 0.62839 0.99466 0.71423
 C294 C 0.65267 0.98914 0.69927
 H295 H 0.64562 0.98753 0.68709
 N296 N 0.65107 0.99513 0.73024
 C297 C 0.64112 1.02321 0.77798
 H298 H 0.63134 1.03138 0.77199
 C299 C 0.64780 1.02853 0.79413
 H300 H 0.64322 1.04097 0.79987
 C301 C 0.65782 0.99680 0.77816
 H302 H 0.66132 0.98425 0.77198
 C303 C 0.66488 1.00161 0.79448
 H304 H 0.67395 0.99269 0.80060
 Zn305 Zn 0.63481 1.00075 0.74915
 N306 N 0.64623 1.00765 0.77023
 C307 C 0.60724 0.98228 0.76673
 N308 N 0.62036 0.98099 0.75393
 C309 C 0.62392 0.96551 0.74520
 C310 C 0.61411 0.95053 0.74922
 C311 C 0.59704 0.96760 0.77114
 C312 C 0.63024 1.03436 0.73733
 C313 C 0.62140 1.04913 0.73156
 C314 C 0.59347 1.03317 0.73328
 C315 C 0.60284 1.01874 0.73938
 N316 N 0.62088 1.01969 0.74144
 H317 H 0.60487 0.99469 0.77366
 H318 H 0.63464 0.96462 0.73534
 H319 H 0.61735 0.93834 0.74219
 H320 H 0.58677 0.96887 0.78149
 H321 H 0.64463 1.03460 0.73876
 H322 H 0.62912 1.06072 0.72853
 H323 H 0.57910 1.03228 0.73172
 H324 H 0.59573 1.00680 0.74230
 C325 C 0.65976 1.01768 0.80280
 C326 C 0.67134 0.98695 0.69980
 C327 C 0.60278 1.04866 0.72947
 C328 C 0.60053 0.95141 0.76242
 C329 C 0.00581 0.23192 -0.13149
 H330 H 0.01437 0.24039 -0.12388
 C331 C 0.01335 0.21752 -0.14073
 H332 H 0.02761 0.21506 -0.13991
 C333 C -0.02296 0.22489 -0.14190
 H334 H -0.03712 0.22772 -0.14230
 C335 C -0.01594 0.21040 -0.15148
 H336 H -0.02488 0.20218 -0.15903
 N337 N -0.01216 0.23504 -0.13174
 C338 C -0.04125 0.28400 -0.12089
 H339 H -0.04331 0.28306 -0.10681
 C340 C -0.04809 0.29831 -0.12952
 H341 H -0.05550 0.30831 -0.12194
 C342 C -0.02889 0.27203 -0.14771
 H343 H -0.02124 0.26181 -0.15466
 C344 C -0.03565 0.28609 -0.15694
 H345 H -0.03314 0.28655 -0.17101
 Zn346 Zn -0.02225 0.25315 -0.11667
 N347 N -0.03166 0.27137 -0.12999
 C348 C 0.00062 0.27962 -0.10377
 N349 N -0.00404 0.26251 -0.10209
 C350 C 0.00504 0.25191 -0.09130
 C351 C 0.01971 0.25833 -0.08207
 C352 C 0.01500 0.28660 -0.09467
 C353 C -0.05696 0.24078 -0.11181
 C354 C -0.07202 0.23401 -0.10315
 C355 C -0.05568 0.23455 -0.07620
 C356 C -0.04086 0.24132 -0.08549
 N357 N -0.04166 0.24400 -0.10305
 H358 H -0.00640 0.28782 -0.11263
 H359 H 0.00136 0.23825 -0.09042
 H360 H 0.02704 0.24956 -0.07393
 H361 H 0.01862 0.30016 -0.09659
 H362 H -0.05758 0.24372 -0.12559
 H363 H -0.08387 0.23156 -0.11073
 H364 H -0.05453 0.23242 -0.06226
 H365 H -0.02879 0.24439 -0.07859
 C366 C -0.04522 0.29957 -0.14777
 C367 C 0.00238 0.20629 -0.15058
 C368 C -0.07162 0.23060 -0.08503
 C369 C 0.02499 0.27586 -0.08389
 C370 C 0.45780 0.23882 0.14870
 H371 H 0.44868 0.24516 0.14015
 C372 C 0.45153 0.22511 0.15888
 H373 H 0.43758 0.22134 0.15809
 C374 C 0.48711 0.23538 0.15931
 H375 H 0.50105 0.23931 0.15911
 C376 C 0.48143 0.22135 0.16955
 H377 H 0.49107 0.21465 0.17736
 N378 N 0.47532 0.24369 0.14902
 C379 C 0.49658 0.29472 0.13472
 H380 H 0.49579 0.29314 0.12058
 C381 C 0.50298 0.31032 0.14206
 H382 H 0.50708 0.32071 0.13341
 C383 C 0.49215 0.28290 0.16300
 H384 H 0.48791 0.27212 0.17105
 C385 C 0.49830 0.29844 0.17096
 H386 H 0.49888 0.29947 0.18515
 Zn387 Zn 0.48397 0.26074 0.13320
 N388 N 0.49168 0.28128 0.14516
 C389 C 0.45150 0.27667 0.12650
 N390 N 0.46528 0.26753 0.11849
 C391 C 0.46544 0.26365 0.10091
 C392 C 0.45091 0.26843 0.09082
 C393 C 0.43669 0.28154 0.11699
 C394 C 0.51991 0.25820 0.12010
 C395 C 0.53459 0.25021 0.11131
 C396 C 0.51533 0.22634 0.10248
 C397 C 0.50095 0.23488 0.11135
 N398 N 0.50346 0.25052 0.11992
 H399 H 0.45187 0.27984 0.14043
 H400 H 0.47670 0.25669 0.09472
 H401 H 0.45110 0.26497 0.07692
 H402 H 0.42574 0.28854 0.12377
 H403 H 0.52185 0.27035 0.12737
 H404 H 0.54756 0.25652 0.11181
 H405 H 0.51308 0.21382 0.09587
 H406 H 0.48781 0.22889 0.11167
 C407 C 0.50405 0.31230 0.16040
 C408 C 0.46343 0.21596 0.16927
 C409 C 0.53247 0.23398 0.10247
 C410 C 0.43616 0.27727 0.09894
 C411 C 0.98126 0.72258 0.66747
 H412 H 0.98386 0.73404 0.67567
 C413 C 0.97550 0.70701 0.67516
 H414 H 0.97359 0.70665 0.68931
 C415 C 0.98081 0.70900 0.63907
 H416 H 0.98300 0.70990 0.62500
 C417 C 0.97510 0.69328 0.64614
 H418 H 0.97289 0.68219 0.63730
 N419 N 0.98363 0.72327 0.64969
 C420 C 1.01548 0.76751 0.65299
 H421 H 1.02539 0.76144 0.64416
 C422 C 1.02052 0.78161 0.66371
 H423 H 1.03434 0.78594 0.66307
 C424 C 0.98540 0.76989 0.66380
 H425 H 0.97169 0.76529 0.66359
 C426 C 0.98983 0.78435 0.67457
 H427 H 0.97948 0.79076 0.68274
 Zn428 Zn 0.99187 0.74315 0.63765
 N429 N 0.99822 0.76177 0.65331
 C430 C 0.97683 0.76512 0.61262
 N431 N 0.97355 0.75133 0.62318
 C432 C 0.95701 0.74390 0.62433
 C433 C 0.94303 0.75017 0.61447
 C434 C 0.96322 0.77175 0.60240
 C435 C 1.02567 0.72830 0.63355
 C436 C 1.04157 0.72258 0.62515
 C437 C 1.02955 0.73070 0.59738
 C438 C 1.01390 0.73655 0.60639
 N439 N 1.01241 0.73552 0.62421
 H440 H 0.99000 0.77104 0.61222
 H441 H 0.95448 0.73328 0.63314
 H442 H 0.92997 0.74405 0.61568
 H443 H 0.96608 0.78276 0.59410
 H444 H 1.02395 0.72728 0.64766
 H445 H 1.05204 0.71712 0.63293
 H446 H 1.03064 0.73177 0.58322
 H447 H 1.00301 0.74187 0.59914
 C448 C 1.00764 0.79032 0.67461
 C449 C 0.97233 0.69209 0.66442
 C450 C 1.04373 0.72383 0.60684
 C451 C 0.94600 0.76429 0.60332
 C452 C 0.51223 0.74855 0.35422
 H453 H 0.51879 0.76102 0.35237
 C454 C 0.51793 0.73377 0.34425
 H455 H 0.52886 0.73503 0.33466
 C456 C 0.49045 0.73168 0.36944
 H457 H 0.48000 0.73077 0.37951
 C458 C 0.49576 0.71661 0.35985
 H459 H 0.48909 0.70435 0.36259
 N460 N 0.49869 0.74726 0.36651
 C461 C 0.47740 0.79995 0.37737
 H462 H 0.47752 0.79982 0.39159
 C463 C 0.47114 0.81469 0.36905
 H464 H 0.46647 0.82579 0.37714
 C465 C 0.48343 0.78538 0.34991
 H466 H 0.48814 0.77387 0.34254
 C467 C 0.47708 0.79984 0.34098
 H468 H 0.47714 0.79921 0.32674
 Zn469 Zn 0.49227 0.76702 0.38105
 N470 N 0.48372 0.78582 0.36779
 C471 C 0.51933 0.79074 0.39077
 N472 N 0.51292 0.77430 0.39326
 C473 C 0.52170 0.76285 0.40341
 C474 C 0.53744 0.76793 0.41174
 C475 C 0.53485 0.79637 0.39889
 C476 C 0.45722 0.75833 0.38874
 C477 C 0.44214 0.75325 0.39853
 C478 C 0.45996 0.75368 0.42454
 C479 C 0.47477 0.75894 0.41421
 N480 N 0.47317 0.76087 0.39659
 H481 H 0.51264 0.79950 0.38221
 H482 H 0.51656 0.74970 0.40488
 H483 H 0.54426 0.75865 0.41974
 H484 H 0.53962 0.80952 0.39659
 H485 H 0.45633 0.76004 0.37473
 H486 H 0.42970 0.75107 0.39183
 H487 H 0.46150 0.75191 0.43849
 H488 H 0.48752 0.76124 0.42022
 C489 C 0.47098 0.81491 0.35055
 C490 C 0.50977 0.71747 0.34715
 C491 C 0.44340 0.75064 0.41665
 C492 C 0.54419 0.78493 0.40951
 C493 C 0.39075 -0.00788 0.27297
 H494 H 0.38988 0.00471 0.27987
 C495 C 0.40079 -0.02145 0.27981
 H496 H 0.40777 -0.01912 0.29193
 C497 C 0.38206 -0.02635 0.24918
 H498 H 0.37433 -0.02842 0.23755
 C499 C 0.39206 -0.04021 0.25545
 H500 H 0.39200 -0.05272 0.24838
 N501 N 0.38153 -0.01057 0.25799
 C502 C 0.36895 0.04023 0.23678
 H503 H 0.35468 0.03824 0.23552
 C504 C 0.37670 0.05591 0.23161
 H505 H 0.36820 0.06587 0.22632
 C506 C 0.39713 0.02946 0.24536
 H507 H 0.40497 0.01907 0.25073
 C508 C 0.40550 0.04503 0.24028
 H509 H 0.41981 0.04650 0.24184
 Zn510 Zn 0.36611 0.00748 0.25077
 N511 N 0.37911 0.02751 0.24374
 C512 C 0.35285 0.03005 0.27781
 N513 N 0.35075 0.01383 0.27031
 C514 C 0.33955 0.00189 0.27780
 C515 C 0.33012 0.00609 0.29361
 C516 C 0.34388 0.03470 0.29357
 C517 C 0.36382 -0.00280 0.21603
 C518 C 0.35624 -0.00823 0.20032
 C519 C 0.32711 -0.00803 0.21518
 C520 C 0.33532 -0.00256 0.23072
 N521 N 0.35342 -0.00027 0.23086
 H522 H 0.36212 0.03924 0.27204
 H523 H 0.33842 -0.01108 0.27182
 H524 H 0.32164 -0.00369 0.29966
 H525 H 0.34616 0.04757 0.29943
 H526 H 0.37814 -0.00062 0.21648
 H527 H 0.36493 -0.01024 0.18877
 H528 H 0.31272 -0.00991 0.21528
 H529 H 0.32725 -0.00011 0.24259
 C530 C 0.39519 0.05858 0.23345
 C531 C 0.40138 -0.03796 0.27111
 C532 C 0.33765 -0.01100 0.19971
 C533 C 0.33259 0.02257 0.30186
 C534 C 0.09216 1.02062 0.78997
 H535 H 0.10086 1.01364 0.79848
 C536 C 0.08312 1.03557 0.79645
 H537 H 0.08494 1.03986 0.80997
 C538 C 0.07968 1.02375 0.76195
 H539 H 0.07881 1.01926 0.74839
 C540 C 0.07023 1.03874 0.76795
 H541 H 0.06202 1.04568 0.75891
 N542 N 0.09058 1.01521 0.77291
 C543 C 0.10210 0.96258 0.75167
 H544 H 0.11660 0.96330 0.75154
 C545 C 0.09381 0.94697 0.74679
 H546 H 0.10213 0.93582 0.74279
 C547 C 0.07392 0.97637 0.75731
 H548 H 0.06628 0.98785 0.76160
 C549 C 0.06498 0.96092 0.75239
 H550 H 0.05046 0.96068 0.75287
 Zn551 Zn 0.10561 0.99688 0.76389
 N552 N 0.09218 0.97689 0.75681
 C553 C 0.11752 0.97476 0.79005
 N554 N 0.12138 0.98993 0.78176
 C555 C 0.13561 0.99996 0.78656
 C556 C 0.14678 0.99460 0.79988
 C557 C 0.12847 0.96879 0.80313
 C558 C 0.11878 0.99641 0.72838
 C559 C 0.12813 1.00274 0.71373
 C560 C 0.13689 1.02792 0.73133
 C561 C 0.12742 1.02104 0.74570
 N562 N 0.11881 1.00540 0.74409
 H563 H 0.10578 0.96728 0.78668
 H564 H 0.13832 1.01214 0.78015
 H565 H 0.15810 1.00267 0.80347
 H566 H 0.12513 0.95662 0.80943
 H567 H 0.11135 0.98438 0.72700
 H568 H 0.12788 0.99528 0.70142
 H569 H 0.14363 1.04039 0.73293
 H570 H 0.12665 1.02839 0.75806
 C571 C 0.07500 0.94592 0.74711
 C572 C 0.07224 1.04504 0.78532
 C573 C 0.13739 1.01869 0.71507
 C574 C 0.14335 0.97871 0.80818
 C575 C 0.58995 0.53293 0.26961
 H576 H 0.58942 0.52079 0.27661
 C577 C 0.58023 0.54752 0.27619
 H578 H 0.57210 0.54637 0.28814
 C579 C 0.60191 0.54939 0.24609
 H580 H 0.61054 0.55021 0.23449
 C581 C 0.59249 0.56426 0.25221
 H582 H 0.59396 0.57629 0.24509
 N583 N 0.60066 0.53413 0.25488
 C584 C 0.61009 0.48359 0.22836
 H585 H 0.62369 0.48604 0.22376
 C586 C 0.60124 0.46869 0.22222
 H587 H 0.60826 0.45975 0.21307
 C588 C 0.58447 0.49243 0.24560
 H589 H 0.57789 0.50178 0.25455
 C590 C 0.57516 0.47746 0.23997
 H591 H 0.56148 0.47547 0.24467
 Zn592 Zn 0.61545 0.51500 0.24680
 N593 N 0.60169 0.49515 0.23981
 C594 C 0.64156 0.49388 0.26150
 N595 N 0.63106 0.50828 0.26472
 C596 C 0.63139 0.51725 0.28043
 C597 C 0.64201 0.51133 0.29391
 C598 C 0.65235 0.48752 0.27457
 C599 C 0.62118 0.52175 0.21110
 C600 C 0.63067 0.52674 0.19597
 C601 C 0.65637 0.53286 0.21373
 C602 C 0.64648 0.52741 0.22850
 N603 N 0.62922 0.52202 0.22691
 H604 H 0.64136 0.48711 0.24886
 H605 H 0.62329 0.52890 0.28266
 H606 H 0.64179 0.51846 0.30643
 H607 H 0.66028 0.47581 0.27176
 H608 H 0.60736 0.51761 0.21025
 H609 H 0.62402 0.52641 0.18351
 H610 H 0.67008 0.53720 0.21521
 H611 H 0.65250 0.52766 0.24126
 C612 C 0.58356 0.46544 0.22804
 C613 C 0.58163 0.56354 0.26758
 C614 C 0.64847 0.53247 0.19719
 C615 C 0.65246 0.49609 0.29115
 C616 C 0.87572 0.47508 0.76674
 H617 H 0.87487 0.48791 0.77305
 C618 C 0.88402 0.46139 0.77529
 H619 H 0.88984 0.46398 0.78797
 C620 C 0.86832 0.45585 0.74312
 H621 H 0.86171 0.45342 0.73091
 C622 C 0.87665 0.44188 0.75108
 H623 H 0.87649 0.42904 0.74464
 N624 N 0.86825 0.47218 0.75082
 C625 C 0.87342 0.51431 0.71639
 H626 H 0.86472 0.50844 0.70685
 C627 C 0.88444 0.52810 0.71130
 H628 H 0.88422 0.53228 0.69782
 C629 C 0.88330 0.51696 0.74562
 H630 H 0.88248 0.51290 0.75909
 C631 C 0.89434 0.53106 0.74113
 H632 H 0.90215 0.53750 0.75119
 Zn633 Zn 0.85640 0.49102 0.73988
 N634 N 0.87307 0.50887 0.73328
 C635 C 0.83824 0.51878 0.75762
 N636 N 0.83947 0.50102 0.75626
 C637 C 0.83020 0.49063 0.76756
 C638 C 0.81986 0.49814 0.78150
 C639 C 0.82816 0.52680 0.77133
 C640 C 0.85568 0.47539 0.70628
 C641 C 0.84845 0.46938 0.69059
 C642 C 0.81901 0.47788 0.70203
 C643 C 0.82686 0.48375 0.71762
 N644 N 0.84492 0.48244 0.71941
 H645 H 0.84559 0.52679 0.74839
 H646 H 0.83149 0.47653 0.76622
 H647 H 0.81316 0.48968 0.79080
 H648 H 0.82788 0.54098 0.77247
 H649 H 0.87002 0.47464 0.70796
 H650 H 0.85741 0.46392 0.68037
 H651 H 0.80464 0.47913 0.70077
 H652 H 0.81857 0.48949 0.72820
 C653 C 0.89495 0.53680 0.72376
 C654 C 0.88464 0.44453 0.76739
 C655 C 0.82989 0.47064 0.68822
 C656 C 0.81919 0.51647 0.78380
 C657 C 0.26613 0.39507 -0.02814
 H658 H 0.27087 0.39725 -0.01499
 C659 C 0.27409 0.40402 -0.04211
 H660 H 0.28486 0.41313 -0.03951
 C661 C 0.24664 0.38030 -0.04755
 H662 H 0.23632 0.37066 -0.04976
 C663 C 0.25406 0.38910 -0.06185
 H664 H 0.24913 0.38625 -0.07486
 N665 N 0.25259 0.38352 -0.03104
 C666 C 0.21944 0.39098 0.01178
 H667 H 0.20873 0.38609 0.00385
 C668 C 0.21515 0.40123 0.02677
 H669 H 0.20117 0.40414 0.02994
 C670 C 0.25037 0.39250 0.01781
 H671 H 0.26405 0.38866 0.01447
 C672 C 0.24664 0.40262 0.03313
 H673 H 0.25758 0.40674 0.04130
 Zn674 Zn 0.24238 0.37113 -0.01184
 N675 N 0.23681 0.38682 0.00750
 C676 C 0.25639 0.34758 0.01181
 N677 N 0.25933 0.35481 -0.00414
 C678 C 0.27485 0.35182 -0.01363
 C679 C 0.28848 0.34168 -0.00681
 C680 C 0.26969 0.33745 0.01918
 C681 C 0.20837 0.36952 -0.02645
 C682 C 0.19213 0.36215 -0.03131
 C683 C 0.20240 0.33422 -0.02124
 C684 C 0.21854 0.34217 -0.01655
 N685 N 0.22111 0.35960 -0.01901
 H686 H 0.24396 0.35028 0.01911
 H687 H 0.27690 0.35772 -0.02628
 H688 H 0.30093 0.33989 -0.01436
 H689 H 0.26727 0.33226 0.03214
 H690 H 0.21079 0.38331 -0.02843
 H691 H 0.18218 0.37044 -0.03702
 H692 H 0.20050 0.32039 -0.01898
 H693 H 0.22888 0.33447 -0.01075
 C694 C 0.22879 0.40702 0.03782
 C695 C 0.26802 0.40111 -0.05925
 C696 C 0.18886 0.34430 -0.02858
 C697 C 0.28617 0.33470 0.01001
 C698 C 0.76031 0.08871 1.02969
 H699 H 0.76612 0.08796 1.01647
 C700 C 0.76860 0.08005 1.04324
 H701 H 0.78068 0.07250 1.04028
 C702 C 0.73805 0.10025 1.04973
 H703 H 0.72642 0.10846 1.05235
 C704 C 0.74593 0.09192 1.06365
 H705 H 0.74001 0.09368 1.07676
 N706 N 0.74533 0.09858 1.03314
 C707 C 0.71582 0.10663 0.98563
 H708 H 0.71247 0.12025 0.98843
 C709 C 0.70919 0.09819 0.97075
 H710 H 0.70067 0.10550 0.96229
 C711 C 0.73139 0.08094 0.99321
 H712 H 0.74008 0.07432 1.00200
 C713 C 0.72516 0.07198 0.97826
 H714 H 0.72913 0.05846 0.97571
 Zn715 Zn 0.73572 0.11210 1.01514
 N716 N 0.72687 0.09806 0.99640
 C717 C 0.75749 0.12696 0.98858
 N718 N 0.75413 0.12675 1.00624
 C719 C 0.76424 0.13631 1.01759
 C720 C 0.77839 0.14661 1.01123
 C721 C 0.77131 0.13718 0.98167
 C722 C 0.70093 0.11677 1.02873
 C723 C 0.68556 0.12579 1.03477
 C724 C 0.70171 0.15301 1.03177
 C725 C 0.71679 0.14344 1.02569
 N726 N 0.71613 0.12565 1.02436
 H727 H 0.74956 0.11910 0.97975
 H728 H 0.76140 0.13578 1.03160
 H729 H 0.78635 0.15407 1.02044
 H730 H 0.77371 0.13705 0.96755
 H731 H 0.70075 0.10262 1.02734
 H732 H 0.67361 0.11841 1.03811
 H733 H 0.70246 0.16718 1.03267
 H734 H 0.72893 0.15025 1.02188
 C735 C 0.71403 0.08070 0.96672
 C736 C 0.76153 0.08181 1.06055
 C737 C 0.68578 0.14417 1.03633
 C738 C 0.78206 0.14712 0.99301
 C739 C 0.27740 0.59929 0.52406
 H740 H 0.28476 0.60012 0.51163
 C741 C 0.28453 0.58986 0.53774
 H742 H 0.29739 0.58338 0.53566
 C743 C 0.25198 0.60731 0.54200
 H744 H 0.23935 0.61422 0.54367
 C745 C 0.25864 0.59815 0.55603
 H746 H 0.25096 0.59811 0.56834
 N747 N 0.26147 0.60789 0.52648
 C748 C 0.23828 0.61785 0.47573
 H749 H 0.23566 0.63173 0.47772
 C750 C 0.23374 0.60953 0.46000
 H751 H 0.22755 0.61718 0.45005
 C752 C 0.24966 0.59130 0.48642
 H753 H 0.25592 0.58430 0.49677
 C754 C 0.24525 0.58236 0.47079
 H755 H 0.24822 0.56850 0.46923
 Zn756 Zn 0.25310 0.62231 0.50862
 N757 N 0.24639 0.60882 0.48845
 C758 C 0.27620 0.63982 0.48466
 N759 N 0.27188 0.63797 0.50202
 C760 C 0.28119 0.64671 0.51464
 C761 C 0.29507 0.65819 0.50994
 C762 C 0.28968 0.65130 0.47941
 C763 C 0.21608 0.62991 0.51230
 C764 C 0.20070 0.63883 0.51850
 C765 C 0.21939 0.65796 0.53585
 C766 C 0.23447 0.64881 0.52910
 N767 N 0.23260 0.63512 0.51745
 H768 H 0.26934 0.63239 0.47471
 H769 H 0.27801 0.64462 0.52839
 H770 H 0.30229 0.66509 0.52014
 H771 H 0.29272 0.65256 0.46549
 H772 H 0.21472 0.61862 0.50356
 H773 H 0.18771 0.63440 0.51421
 H774 H 0.22115 0.66880 0.54512
 H775 H 0.24764 0.65259 0.53329
 C776 C 0.23741 0.59159 0.45722
 C777 C 0.27523 0.58944 0.55409
 C778 C 0.20222 0.65303 0.53046
 C779 C 0.29927 0.66074 0.49208
 C780 C 0.77958 0.90213 0.47897
 H781 H 0.78321 0.90573 0.49222
 C782 C 0.78677 0.91140 0.46480
 H783 H 0.79586 0.92216 0.46732
 C784 C 0.76356 0.88361 0.45952
 H785 H 0.75489 0.87247 0.45743
 C786 C 0.77020 0.89264 0.44505
 H787 H 0.76636 0.88843 0.43199
 N788 N 0.76809 0.88859 0.47610
 C789 C 0.73479 0.89526 0.51840
 H790 H 0.72429 0.89012 0.51035
 C791 C 0.73014 0.90596 0.53298
 H792 H 0.71610 0.90892 0.53576
 C793 C 0.76556 0.89715 0.52504
 H794 H 0.77934 0.89345 0.52196
 C795 C 0.76146 0.90768 0.54000
 H796 H 0.77218 0.91220 0.54827
 Zn797 Zn 0.75835 0.87577 0.49518
 N798 N 0.75227 0.89117 0.51457
 C799 C 0.77249 0.85079 0.51758
 N800 N 0.77578 0.85978 0.50265
 C801 C 0.79195 0.85868 0.49390
 C802 C 0.80578 0.84861 0.50042
 C803 C 0.78592 0.84046 0.52451
 C804 C 0.72507 0.87410 0.47964
 C805 C 0.70923 0.86680 0.47363
 C806 C 0.71897 0.83862 0.48354
 C807 C 0.73475 0.84652 0.48937
 N808 N 0.73739 0.86402 0.48749
 H809 H 0.75957 0.85209 0.52439
 H810 H 0.79432 0.86598 0.48209
 H811 H 0.81866 0.84823 0.49343
 H812 H 0.78316 0.83374 0.53664
 H813 H 0.72759 0.88793 0.47806
 H814 H 0.69966 0.87522 0.46753
 H815 H 0.71703 0.82471 0.48523
 H816 H 0.74481 0.83867 0.49542
 C817 C 0.74352 0.91223 0.54408
 C818 C 0.78197 0.90674 0.44758
 C819 C 0.70592 0.84884 0.47560
 C820 C 0.80296 0.83955 0.51608
 C821 C -0.00317 0.27097 0.38986
 H822 H 0.00944 0.27781 0.39113
 C823 C -0.01873 0.27771 0.39830
 H824 H -0.01792 0.28971 0.40618
 C825 C -0.01958 0.24737 0.37749
 H826 H -0.02001 0.23581 0.36900
 C827 C -0.03539 0.25353 0.38583
 H828 H -0.04776 0.24649 0.38372
 N829 N -0.00389 0.25614 0.37957
 C830 C 0.05024 0.23487 0.37314
 H831 H 0.05114 0.23444 0.35891
 C832 C 0.06449 0.22882 0.38273
 H833 H 0.07632 0.22371 0.37570
 C834 C 0.03347 0.24193 0.39938
 H835 H 0.02127 0.24695 0.40575
 C836 C 0.04742 0.23585 0.40954
 H837 H 0.04586 0.23635 0.42375
 Zn838 Zn 0.01705 0.24891 0.36658
 N839 N 0.03522 0.24144 0.38152
 C840 C 0.04136 0.27564 0.35848
 N841 N 0.02550 0.26839 0.35380
 C842 C 0.01515 0.27596 0.34165
 C843 C 0.02075 0.29144 0.33368
 C844 C 0.04735 0.29107 0.35100
 C845 C 0.00861 0.21438 0.36089
 C846 C 0.00468 0.19878 0.35196
 C847 C 0.00754 0.21388 0.32452
 C848 C 0.01160 0.22928 0.33405
 N849 N 0.01180 0.22926 0.35194
 H850 H 0.04916 0.26986 0.36854
 H851 H 0.00235 0.27023 0.33849
 H852 H 0.01223 0.29746 0.32426
 H853 H 0.05991 0.29665 0.35520
 H854 H 0.00905 0.21470 0.37510
 H855 H 0.00204 0.18720 0.35952
 H856 H 0.00724 0.21410 0.31031
 H857 H 0.01452 0.24118 0.32717
 C858 C 0.06323 0.22926 0.40119
 C859 C -0.03516 0.26905 0.39618
 C860 C 0.00397 0.19836 0.33353
 C861 C 0.03694 0.29932 0.33857
 C862 C 1.02739 0.76325 0.09942
 H863 H 1.01455 0.76994 0.10000
 C864 C 1.04176 0.77015 0.08965
 H865 H 1.03980 0.78212 0.08264
 C866 C 1.04564 0.73991 0.10853
 H867 H 1.04714 0.72823 0.11605
 C868 C 1.06037 0.74640 0.09904
 H869 H 1.07308 0.73952 0.09933
 N870 N 1.02961 0.74849 0.10872
 C871 C 0.97790 0.72386 0.11979
 H872 H 0.97900 0.72233 0.13381
 C873 C 0.96307 0.71710 0.11126
 H874 H 0.95280 0.71043 0.11888
 C875 C 0.99006 0.73446 0.09299
 H876 H 1.00069 0.74111 0.08591
 C877 C 0.97522 0.72813 0.08394
 H878 H 0.97458 0.72997 0.06991
 Zn879 Zn 1.01069 0.74089 0.12372
 N880 N 0.99106 0.73233 0.11064
 C881 C 0.98519 0.76372 0.14078
 N882 N 1.00301 0.76036 0.13815
 C883 C 1.01558 0.77142 0.14479
 C884 C 1.01036 0.78653 0.15449
 C885 C 0.97941 0.77851 0.15053
 C886 C 1.01488 0.70580 0.13355
 C887 C 1.02089 0.69206 0.14356
 C888 C 1.03648 0.71310 0.16179
 C889 C 1.02990 0.72650 0.15158
 N890 N 1.01921 0.72266 0.13782
 H891 H 0.97534 0.75511 0.13515
 H892 H 1.02968 0.76873 0.14218
 H893 H 1.02055 0.79526 0.15949
 H894 H 0.96513 0.78090 0.15230
 H895 H 1.00696 0.70289 0.12219
 H896 H 1.01728 0.67875 0.13989
 H897 H 1.04498 0.71639 0.17268
 H898 H 1.03343 0.73995 0.15460
 C899 C 0.96153 0.71926 0.09312
 C900 C 1.05862 0.76184 0.08962
 C901 C 1.03187 0.69562 0.15786
 C902 C 0.99203 0.79024 0.15743
 C903 C 0.52488 0.26207 0.59008
 H904 H 0.51193 0.26853 0.59087
 C905 C 0.53856 0.26849 0.57904
 H906 H 0.53593 0.27982 0.57125
 C907 C 0.54423 0.23996 0.59992
 H908 H 0.54654 0.22907 0.60833
 C909 C 0.55825 0.24595 0.58916
 H910 H 0.57114 0.23939 0.58933
 N911 N 0.52796 0.24809 0.60028
 C912 C 0.47850 0.22218 0.61618
 H913 H 0.48170 0.22046 0.62980
 C914 C 0.46291 0.21483 0.60963
 H915 H 0.45424 0.20746 0.61837
 C916 C 0.48599 0.23409 0.58848
 H917 H 0.49509 0.24154 0.58029
 C918 C 0.47033 0.22710 0.58139
 H919 H 0.46752 0.22925 0.56774
 Zn920 Zn 0.51008 0.24098 0.61677
 N921 N 0.48964 0.23166 0.60566
 C922 C 0.48528 0.26441 0.63335
 N923 N 0.50306 0.26071 0.63109
 C924 C 0.51572 0.27131 0.63826
 C925 C 0.51059 0.28634 0.64819
 C926 C 0.47959 0.27910 0.64329
 C927 C 0.52062 0.20680 0.62262
 C928 C 0.52626 0.19247 0.63200
 C929 C 0.52961 0.21170 0.65747
 C930 C 0.52357 0.22566 0.64766
 N931 N 0.51928 0.22296 0.63055
 H932 H 0.47539 0.25608 0.62734
 H933 H 0.52979 0.26820 0.63609
 H934 H 0.52082 0.29469 0.65373
 H935 H 0.46534 0.28174 0.64480
 H936 H 0.51704 0.20503 0.60901
 H937 H 0.52712 0.17970 0.62544
 H938 H 0.53294 0.21402 0.67109
 H939 H 0.52224 0.23859 0.65374
 C940 C 0.45856 0.21733 0.59206
 C941 C 0.55561 0.26053 0.57867
 C942 C 0.53083 0.19481 0.64966
 C943 C 0.49228 0.29036 0.65081
 C944 C 0.49317 0.77225 0.88954
 H945 H 0.50567 0.77943 0.88921
 C946 C 0.47873 0.77852 0.90004
 H947 H 0.48035 0.79045 0.90787
 C948 C 0.47576 0.74844 0.87910
 H949 H 0.47448 0.73696 0.87061
 C950 C 0.46100 0.75419 0.88949
 H951 H 0.44856 0.74694 0.88891
 N952 N 0.49142 0.75756 0.87918
 C953 C 0.54577 0.73817 0.86709
 H954 H 0.54474 0.73510 0.85322
 C955 C 0.56142 0.73379 0.87557
 H956 H 0.57242 0.72779 0.86794
 C957 C 0.53221 0.74846 0.89399
 H958 H 0.52071 0.75381 0.90126
 C959 C 0.54758 0.74414 0.90305
 H960 H 0.54774 0.74649 0.91715
 Zn961 Zn 0.51076 0.75071 0.86350
 N962 N 0.53165 0.74567 0.87626
 C963 C 0.52988 0.76813 0.83613
 N964 N 0.51554 0.76922 0.84762
 C965 C 0.50488 0.78376 0.84850
 C966 C 0.50919 0.79833 0.83854
 C967 C 0.53464 0.78238 0.82584
 C968 C 0.50335 0.71524 0.86076
 C969 C 0.49860 0.69929 0.85287
 C970 C 0.49677 0.71372 0.82510
 C971 C 0.50154 0.72948 0.83358
 N972 N 0.50457 0.72992 0.85113
 H973 H 0.53790 0.75636 0.83510
 H974 H 0.49312 0.78427 0.85712
 H975 H 0.50079 0.80991 0.83989
 H976 H 0.54644 0.78137 0.81722
 H977 H 0.50592 0.71600 0.87469
 H978 H 0.49757 0.68782 0.86091
 H979 H 0.49421 0.71362 0.81117
 H980 H 0.50262 0.74135 0.82620
 C981 C 0.56249 0.73677 0.89379
 C982 C 0.46228 0.76959 0.89994
 C983 C 0.49513 0.69836 0.83482
 C984 C 0.52451 0.79792 0.82733
 C985 C 0.45337 -0.14108 0.32570
 N986 N 0.45432 -0.14120 0.34347
 N987 N 0.45995 -0.15543 0.35143
 C988 C 0.46494 -0.17014 0.34200
 N989 N 0.46402 -0.16994 0.32416
 N990 N 0.45830 -0.15572 0.31618
 C991 C 0.44687 -0.12538 0.31708
 N992 N 0.44378 -0.12568 0.29957
 N993 N 0.43742 -0.11153 0.29195
 C994 C 0.43401 -0.09653 0.30154
 N995 N 0.43723 -0.09621 0.31901
 N996 N 0.44351 -0.11037 0.32664
 C997 C 0.42638 -0.08109 0.29334
 N998 N 0.42401 -0.06582 0.30274
 N999 N 0.41641 -0.05203 0.29557
 C1000 C 0.41081 -0.05296 0.27874
 N1001 N 0.41330 -0.06823 0.26933
 N1002 N 0.42097 -0.08201 0.27647
 C1003 C 0.93567 0.34342 0.82630
 N1004 N 0.93588 0.34332 0.84412
 N1005 N 0.94190 0.32937 0.85230
 C1006 C 0.94801 0.31499 0.84300
 N1007 N 0.94784 0.31513 0.82514
 N1008 N 0.94174 0.32906 0.81695
 C1009 C 0.92882 0.35876 0.81737
 N1010 N 0.92670 0.35828 0.79970
 N1011 N 0.92015 0.37212 0.79170
 C1012 C 0.91556 0.38697 0.80106
 N1013 N 0.91778 0.38748 0.81871
 N1014 N 0.92426 0.37362 0.82672
 C1015 C 0.90797 0.40206 0.79228
 N1016 N 0.90468 0.41741 0.80129
 N1017 N 0.89744 0.43097 0.79337
 C1018 C 0.89314 0.42968 0.77615
 N1019 N 0.89649 0.41431 0.76717
 N1020 N 0.90379 0.40078 0.77506
 C1021 C 0.02310 1.15920 0.82719
 N1022 N 0.03273 1.16895 0.83870
 N1023 N 0.02627 1.18405 0.84543
 C1024 C 0.00988 1.19001 0.84099
 N1025 N 0.00027 1.18027 0.82938
 N1026 N 0.00679 1.16518 0.82256
 C1027 C 0.03010 1.14220 0.82045
 N1028 N 0.02180 1.13307 0.80746
 N1029 N 0.02816 1.11751 0.80170
 C1030 C 0.04294 1.11050 0.80883
 N1031 N 0.05118 1.11964 0.82182
 N1032 N 0.04491 1.13521 0.82749
 C1033 C 0.05005 1.09332 0.80278
 N1034 N 0.06312 1.08552 0.81182
 N1035 N 0.06991 1.07009 0.80637
 C1036 C 0.06397 1.06184 0.79162
 N1037 N 0.05084 1.06966 0.78256
 N1038 N 0.04395 1.08508 0.78808
 C1039 C 0.52849 0.67155 0.32078
 N1040 N 0.53473 0.68748 0.31600
 N1041 N 0.52869 0.70209 0.32423
 C1042 C 0.51614 0.70133 0.33754
 N1043 N 0.50986 0.68537 0.34220
 N1044 N 0.51591 0.67077 0.33401
 C1045 C 0.53552 0.65537 0.31215
 N1046 N 0.53042 0.63946 0.31807
 N1047 N 0.53715 0.62477 0.31059
 C1048 C 0.54918 0.62545 0.29686
 N1049 N 0.55420 0.64136 0.29087
 N1050 N 0.54751 0.65605 0.29839
 C1051 C 0.55702 0.60929 0.28892
 N1052 N 0.56844 0.61000 0.27473
 N1053 N 0.57602 0.59544 0.26784
 C1054 C 0.57252 0.57958 0.27487
 N1055 N 0.56100 0.57890 0.28904
 N1056 N 0.55337 0.59346 0.29591
 C1057 C 0.52565 0.35856 0.18202
 N1058 N 0.52833 0.35418 0.16474
 N1059 N 0.52137 0.33955 0.15795
 C1060 C 0.51153 0.32862 0.16818
 N1061 N 0.50889 0.33297 0.18553
 N1062 N 0.51578 0.34770 0.19232
 C1063 C 0.53363 0.37468 0.18927
 N1064 N 0.52915 0.38090 0.20574
 N1065 N 0.53659 0.39556 0.21209
 C1066 C 0.54884 0.40443 0.20221
 N1067 N 0.55330 0.39817 0.18578
 N1068 N 0.54579 0.38363 0.17941
 C1069 C 0.55751 0.42037 0.20906
 N1070 N 0.57187 0.42706 0.20021
 N1071 N 0.58004 0.44137 0.20627
 C1072 C 0.57412 0.44967 0.22138
 N1073 N 0.55963 0.44305 0.23020
 N1074 N 0.55151 0.42862 0.22419
 C1075 C 0.02382 0.83509 0.70311
 N1076 N 0.03586 0.82262 0.69758
 N1077 N 0.03058 0.80829 0.68888
 C1078 C 0.01301 0.80576 0.68540
 N1079 N 0.00086 0.81812 0.69119
 N1080 N 0.00618 0.83257 0.69985
 C1081 C 0.03025 0.85132 0.71161
 N1082 N 0.01914 0.86519 0.71528
 N1083 N 0.02557 0.88019 0.72196
 C1084 C 0.04334 0.88181 0.72519
 N1085 N 0.05433 0.86788 0.72167
 N1086 N 0.04793 0.85295 0.71500
 C1087 C 0.05102 0.89842 0.73160
 N1088 N 0.06896 0.89952 0.73377
 N1089 N 0.07641 0.91457 0.73883
 C1090 C 0.06626 0.92919 0.74195
 N1091 N 0.04822 0.92807 0.73992
 N1092 N 0.04073 0.91296 0.73480
 C1093 C 0.95405 0.64456 0.68491
 N1094 N 0.95724 0.64622 0.66740
 N1095 N 0.96314 0.66127 0.66103
 C1096 C 0.96609 0.67533 0.67188
 N1097 N 0.96296 0.67366 0.68947
 N1098 N 0.95703 0.65855 0.69587
 C1099 C 0.94691 0.62799 0.69151
 N1100 N 0.94345 0.62573 0.70894
 N1101 N 0.93634 0.61077 0.71455
 C1102 C 0.93245 0.59759 0.70291
 N1103 N 0.93604 0.59985 0.68554
 N1104 N 0.94315 0.61473 0.67995
 C1105 C 0.92368 0.58142 0.70865
 N1106 N 0.91797 0.56956 0.69646
 N1107 N 0.90916 0.55527 0.70134
 C1108 C 0.90576 0.55219 0.71861
 N1109 N 0.91170 0.56396 0.73085
 N1110 N 0.92046 0.57834 0.72596
 C1111 C 0.44503 0.17079 0.19430
 N1112 N 0.46289 0.17422 0.19302
 N1113 N 0.46879 0.18878 0.18547
 C1114 C 0.45707 0.20041 0.17889
 N1115 N 0.43923 0.19699 0.18038
 N1116 N 0.43334 0.18250 0.18795
 C1117 C 0.43823 0.15437 0.20158
 N1118 N 0.42030 0.15136 0.20233
 N1119 N 0.41388 0.13624 0.20805
 C1120 C 0.42511 0.12350 0.21323
 N1121 N 0.44308 0.12650 0.21262
 N1122 N 0.44953 0.14168 0.20688
 C1123 C 0.41768 0.10667 0.21886
 N1124 N 0.42841 0.09347 0.22406
 N1125 N 0.42135 0.07818 0.22876
 C1126 C 0.40333 0.07549 0.22837
 N1127 N 0.39271 0.08876 0.22320
 N1128 N 0.39972 0.10400 0.21854
 C1129 C 0.32706 0.45556 -0.16145
 N1130 N 0.31828 0.45835 -0.17651
 N1131 N 0.32700 0.46454 -0.19059
 C1132 C 0.34486 0.46805 -0.19017
 N1133 N 0.35356 0.46526 -0.17507
 N1134 N 0.34484 0.45919 -0.16099
 C1135 C 0.31769 0.44840 -0.14599
 N1136 N 0.32618 0.44733 -0.13052
 N1137 N 0.31794 0.44043 -0.11656
 C1138 C 0.30094 0.43427 -0.11758
 N1139 N 0.29242 0.43536 -0.13305
 N1140 N 0.30063 0.44234 -0.14699
 C1141 C 0.29212 0.42614 -0.10233
 N1142 N 0.27618 0.41781 -0.10394
 N1143 N 0.26848 0.40997 -0.09023
 C1144 C 0.27638 0.41021 -0.07436
 N1145 N 0.29228 0.41867 -0.07276
 N1146 N 0.30003 0.42644 -0.08649
 C1147 C 0.83465 0.96247 0.34310
 N1148 N 0.82528 0.96419 0.32821
 N1149 N 0.83328 0.97007 0.31361
 C1150 C 0.85098 0.97431 0.31333
 N1151 N 0.86028 0.97261 0.32827
 N1152 N 0.85227 0.96685 0.34287
 C1153 C 0.82609 0.95547 0.35905
 N1154 N 0.83493 0.95561 0.37440
 N1155 N 0.82749 0.94868 0.38875
 C1156 C 0.81098 0.94126 0.38825
 N1157 N 0.80211 0.94118 0.37291
 N1158 N 0.80950 0.94820 0.35859
 C1159 C 0.80313 0.93288 0.40382
 N1160 N 0.78819 0.92289 0.40248
 N1161 N 0.78143 0.91471 0.41641
 C1162 C 0.78929 0.91626 0.43226
 N1163 N 0.80417 0.92640 0.43362
 N1164 N 0.81100 0.93451 0.41965
 C1165 C 0.82639 0.03522 1.16002
 N1166 N 0.83862 0.02214 1.15746
 N1167 N 0.84804 0.01654 1.17080
 C1168 C 0.84570 0.02381 1.18725
 N1169 N 0.83339 0.03691 1.18975
 N1170 N 0.82391 0.04248 1.17641
 C1171 C 0.81622 0.04155 1.14521
 N1172 N 0.80302 0.05370 1.14790
 N1173 N 0.79397 0.05959 1.13442
 C1174 C 0.79784 0.05359 1.11775
 N1175 N 0.81104 0.04143 1.11505
 N1176 N 0.82003 0.03549 1.12855
 C1177 C 0.78813 0.06043 1.10288
 N1178 N 0.79319 0.05594 1.08604
 N1179 N 0.78465 0.06257 1.07258
 C1180 C 0.77069 0.07389 1.07544
 N1181 N 0.76561 0.07825 1.09231
 N1182 N 0.77417 0.07168 1.10576
 C1183 C 0.33032 0.53640 0.65606
 N1184 N 0.32528 0.54161 0.67271
 N1185 N 0.33341 0.53513 0.68649
 C1186 C 0.34684 0.52312 0.68416
 N1187 N 0.35178 0.51790 0.66747
 N1188 N 0.34371 0.52442 0.65371
 C1189 C 0.32164 0.54374 0.64080
 N1190 N 0.32793 0.53976 0.62422
 N1191 N 0.32029 0.54660 0.61035
 C1192 C 0.30603 0.55762 0.61256
 N1193 N 0.29969 0.56155 0.62914
 N1194 N 0.30738 0.55477 0.64301
 C1195 C 0.29779 0.56542 0.59729
 N1196 N 0.28281 0.57548 0.59943
 N1197 N 0.27555 0.58289 0.58568
 C1198 C 0.28300 0.58059 0.56923
 N1199 N 0.29798 0.57047 0.56712
 N1200 N 0.30521 0.56300 0.58087
 C1201 C 0.20352 0.53948 0.34327
 N1202 N 0.19758 0.55076 0.33127
 N1203 N 0.19009 0.54484 0.31663
 C1204 C 0.18827 0.52737 0.31332
 N1205 N 0.19452 0.51602 0.32519
 N1206 N 0.20199 0.52197 0.33992
 C1207 C 0.21040 0.54645 0.35995
 N1208 N 0.21510 0.53572 0.37303
 N1209 N 0.22024 0.54243 0.38847
 C1210 C 0.22080 0.56008 0.39135
 N1211 N 0.21623 0.57072 0.37821
 N1212 N 0.21113 0.56404 0.36284
 C1213 C 0.22556 0.56787 0.40846
 N1214 N 0.22449 0.58549 0.41105
 N1215 N 0.22827 0.59288 0.42652
 C1216 C 0.23330 0.58299 0.44010
 N1217 N 0.23446 0.56530 0.43750
 N1218 N 0.23061 0.55786 0.42197
 C1219 C 0.67672 0.03296 0.85207
 N1220 N 0.66552 0.04318 0.84309
 N1221 N 0.66024 0.03822 0.82719
 C1222 C 0.66588 0.02280 0.81951
 N1223 N 0.67720 0.01255 0.82853
 N1224 N 0.68253 0.01754 0.84451
 C1225 C 0.68218 0.03883 0.86967
 N1226 N 0.69383 0.02945 0.87914
 N1227 N 0.69864 0.03528 0.89503
 C1228 C 0.69193 0.05064 0.90198
 N1229 N 0.68027 0.05990 0.89251
 N1230 N 0.67549 0.05412 0.87669
 C1231 C 0.69732 0.05769 0.91919
 N1232 N 0.69057 0.07333 0.92520
 N1233 N 0.69570 0.08038 0.94040
 C1234 C 0.70780 0.07211 0.95029
 N1235 N 0.71446 0.05633 0.94435
 N1236 N 0.70932 0.04925 0.92907
 C1237 C 0.69904 0.97162 0.65296
 N1238 N 0.68221 0.97835 0.65275
 N1239 N 0.67370 0.98351 0.66761
 C1240 C 0.68162 0.98219 0.68335
 N1241 N 0.69862 0.97569 0.68357
 N1242 N 0.70717 0.97046 0.66864
 C1243 C 0.70753 0.96480 0.63645
 N1244 N 0.72388 0.95685 0.63606
 N1245 N 0.73071 0.94969 0.62108
 C1246 C 0.72139 0.95021 0.60602
 N1247 N 0.70517 0.95832 0.60644
 N1248 N 0.69839 0.96548 0.62134
 C1249 C 0.72791 0.94125 0.58970
 N1250 N 0.71698 0.93987 0.57581
 N1251 N 0.72213 0.93090 0.56127
 C1252 C 0.73847 0.92300 0.55996
 N1253 N 0.74956 0.92459 0.57378
 N1254 N 0.74435 0.93350 0.58842
 C1255 C 0.19050 0.46217 0.15125
 N1256 N 0.17331 0.46794 0.15294
 N1257 N 0.16665 0.47386 0.16840
 C1258 C 0.17688 0.47427 0.18288
 N1259 N 0.19416 0.46854 0.18118
 N1260 N 0.20085 0.46259 0.16565
 C1261 C 0.19734 0.45524 0.13411
 N1262 N 0.21439 0.44904 0.13185
 N1263 N 0.22011 0.44230 0.11628
 C1264 C 0.20897 0.44153 0.10246
 N1265 N 0.19201 0.44783 0.10474
 N1266 N 0.18632 0.45457 0.12025
 C1267 C 0.21467 0.43338 0.08546
 N1268 N 0.20266 0.43142 0.07252
 N1269 N 0.20729 0.42332 0.05734
 C1270 C 0.22415 0.41690 0.05440
 N1271 N 0.23627 0.41904 0.06730
 N1272 N 0.23161 0.42711 0.08256
 C1273 C -0.14966 0.32207 0.43826
 N1274 N -0.16467 0.31232 0.44092
 N1275 N -0.18023 0.31999 0.44567
 C1276 C -0.18142 0.33771 0.44782
 N1277 N -0.16638 0.34740 0.44510
 N1278 N -0.15082 0.33975 0.44043
 C1279 C -0.13244 0.31376 0.43303
 N1280 N -0.11723 0.32348 0.43202
 N1281 N -0.10162 0.31610 0.42702
 C1282 C -0.10063 0.29872 0.42278
 N1283 N -0.11583 0.28897 0.42381
 N1284 N -0.13145 0.29635 0.42890
 C1285 C -0.08352 0.29076 0.41664
 N1286 N -0.08288 0.27397 0.41026
 N1287 N -0.06748 0.26700 0.40402
 C1288 C -0.05208 0.27651 0.40398
 N1289 N -0.05273 0.29326 0.41052
 N1290 N -0.06815 0.30026 0.41670
 C1291 C 0.35364 0.82327 0.95498
 N1292 N 0.35337 0.84090 0.95777
 N1293 N 0.33842 0.84903 0.96356
 C1294 C 0.32314 0.83988 0.96685
 N1295 N 0.32345 0.82219 0.96413
 N1296 N 0.33840 0.81404 0.95825
 C1297 C 0.37012 0.81452 0.94821
 N1298 N 0.37012 0.79730 0.94318
 N1299 N 0.38501 0.78966 0.93645
 C1300 C 0.40044 0.79895 0.93459
 N1301 N 0.40045 0.81612 0.93976
 N1302 N 0.38557 0.82376 0.94642
 C1303 C 0.41668 0.79088 0.92647
 N1304 N 0.43221 0.80009 0.92542
 N1305 N 0.44676 0.79317 0.91732
 C1306 C 0.44638 0.77679 0.90988
 N1307 N 0.43085 0.76753 0.91106
 N1308 N 0.41629 0.77442 0.91922
 C1309 C 1.16419 0.81912 0.03603
 N1310 N 1.18100 0.81550 0.04134
 N1311 N 1.19510 0.82424 0.03493
 C1312 C 1.19294 0.83689 0.02294
 N1313 N 1.17611 0.84039 0.01761
 N1314 N 1.16202 0.83171 0.02404
 C1315 C 1.14852 0.80985 0.04330
 N1316 N 1.13170 0.81467 0.03903
 N1317 N 1.11740 0.80657 0.04585
 C1318 C 1.11940 0.79331 0.05714
 N1319 N 1.13624 0.78842 0.06136
 N1320 N 1.15054 0.79656 0.05458
 C1321 C 1.10361 0.78473 0.06502
 N1322 N 1.10553 0.77086 0.07558
 N1323 N 1.09122 0.76343 0.08315
 C1324 C 1.07443 0.76960 0.08050
 N1325 N 1.07254 0.78344 0.06985
 N1326 N 1.08685 0.79084 0.06223
 C1327 C 0.65850 0.31416 0.51665
 N1328 N 0.67544 0.31029 0.52138
 N1329 N 0.68947 0.31871 0.51442
 C1330 C 0.68712 0.33130 0.50241
 N1331 N 0.67015 0.33505 0.49761
 N1332 N 0.65612 0.32667 0.50461
 C1333 C 0.64300 0.30535 0.52482
 N1334 N 0.62601 0.31046 0.52145
 N1335 N 0.61196 0.30287 0.52933
 C1336 C 0.61439 0.28985 0.54083
 N1337 N 0.63137 0.28467 0.54412
 N1338 N 0.64542 0.29230 0.53628
 C1339 C 0.59899 0.28184 0.55002
 N1340 N 0.60152 0.26839 0.56097
 N1341 N 0.58770 0.26148 0.56981
 C1342 C 0.57078 0.26777 0.56813
 N1343 N 0.56826 0.28119 0.55708
 N1344 N 0.58209 0.28808 0.54818
 C1345 C 0.34471 0.16794 0.55135
 N1346 N 0.33542 0.17494 0.53815
 N1347 N 0.32005 0.16775 0.53311
 C1348 C 0.31343 0.15328 0.54103
 N1349 N 0.32276 0.14637 0.55425
 N1350 N 0.33805 0.15357 0.55933
 C1351 C 0.36176 0.17556 0.55694
 N1352 N 0.36995 0.16922 0.57113
 N1353 N 0.38546 0.17590 0.57630
 C1354 C 0.39343 0.18911 0.56744
 N1355 N 0.38527 0.19547 0.55320
 N1356 N 0.36969 0.18882 0.54806
 C1357 C 0.41047 0.19639 0.57345
 N1358 N 0.41964 0.20852 0.56403
 N1359 N 0.43503 0.21508 0.56979
 C1360 C 0.44178 0.20981 0.58519
 N1361 N 0.43256 0.19766 0.59451
 N1362 N 0.41726 0.19106 0.58874
 C1363 C 0.85324 0.67294 0.03771
 N1364 N 0.84425 0.68190 0.02554
 N1365 N 0.82914 0.67549 0.01899
 C1366 C 0.82253 0.65984 0.02430
 N1367 N 0.83160 0.65093 0.03643
 N1368 N 0.84662 0.65736 0.04304
 C1369 C 0.86973 0.67991 0.04529
 N1370 N 0.87687 0.67205 0.05924
 N1371 N 0.89170 0.67830 0.06640
 C1372 C 0.90003 0.69257 0.05980
 N1373 N 0.89296 0.70042 0.04576
 N1374 N 0.87803 0.69422 0.03865
 C1375 C 0.91618 0.69946 0.06809
 N1376 N 0.92627 0.71214 0.06048
 N1377 N 0.94082 0.71835 0.06829
 C1378 C 0.94573 0.71219 0.08405
 N1379 N 0.93560 0.69951 0.09158
 N1380 N 0.92116 0.69323 0.08373
 C1381 C 0.66847 0.69387 0.95348
 N1382 N 0.68391 0.69017 0.94418
 N1383 N 0.69733 0.68183 0.95158
 C1384 C 0.69583 0.67681 0.96856
 N1385 N 0.68042 0.68069 0.97789
 N1386 N 0.66701 0.68907 0.97051
 C1387 C 0.65325 0.70203 0.94498
 N1388 N 0.63793 0.70613 0.95434
 N1389 N 0.62380 0.71267 0.94641
 C1390 C 0.62446 0.71528 0.92882
 N1391 N 0.63982 0.71129 0.91949
 N1392 N 0.65396 0.70481 0.92742
 C1393 C 0.60860 0.72156 0.91986
 N1394 N 0.60868 0.72211 0.90204
 N1395 N 0.59408 0.72709 0.89381
 C1396 C 0.57884 0.73175 0.90305
 N1397 N 0.57884 0.73132 0.92091
 N1398 N 0.59343 0.72628 0.92915
 C1399 C 0.16242 0.17845 0.46557
 N1400 N 0.17850 0.17532 0.45720
 N1401 N 0.19143 0.16674 0.46511
 C1402 C 0.18877 0.16089 0.48169
 N1403 N 0.17268 0.16413 0.49007
 N1404 N 0.15976 0.17275 0.48218
 C1405 C 0.14793 0.18727 0.45655
 N1406 N 0.13191 0.19070 0.46496
 N1407 N 0.11857 0.19812 0.45653
 C1408 C 0.12078 0.20234 0.43938
 N1409 N 0.13682 0.19899 0.43101
 N1410 N 0.15016 0.19161 0.43945
 C1411 C 0.10594 0.20986 0.42976
 N1412 N 0.10789 0.21249 0.41225
 N1413 N 0.09435 0.21876 0.40328
 C1414 C 0.07832 0.22269 0.41144
 N1415 N 0.07642 0.22017 0.42902
 N1416 N 0.08996 0.21383 0.43800
 C1417 C 0.57702 0.09281 0.71030
 N1418 N 0.59272 0.09442 0.71873
 N1419 N 0.60077 0.08040 0.72496
 C1420 C 0.59337 0.06422 0.72312
 N1421 N 0.57752 0.06265 0.71488
 N1422 N 0.56953 0.07667 0.70851
 C1423 C 0.56878 0.10818 0.70258
 N1424 N 0.55554 0.10622 0.69083
 N1425 N 0.54881 0.12012 0.68308
 C1426 C 0.55498 0.13648 0.68688
 N1427 N 0.56807 0.13845 0.69878
 N1428 N 0.57490 0.12454 0.70643
 C1429 C 0.54818 0.15168 0.67769
 N1430 N 0.55235 0.16825 0.68307
 N1431 N 0.54666 0.18199 0.67432
 C1432 C 0.53674 0.17966 0.65975
 N1433 N 0.53257 0.16307 0.65443
 N1434 N 0.53812 0.14934 0.66325
 C1435 C 1.08384 0.59550 0.21691
 N1436 N 1.10170 0.59566 0.21979
 N1437 N 1.10989 0.58144 0.22540
 C1438 C 1.10053 0.56652 0.22845
 N1439 N 1.08259 0.56643 0.22574
 N1440 N 1.07441 0.58064 0.22000
 C1441 C 1.07513 0.61096 0.20986
 N1442 N 1.05837 0.60988 0.20344
 N1443 N 1.05092 0.62369 0.19613
 C1444 C 1.05993 0.63909 0.19509
 N1445 N 1.07660 0.64022 0.20171
 N1446 N 1.08408 0.62639 0.20890
 C1447 C 1.05216 0.65400 0.18619
 N1448 N 1.06015 0.66996 0.18685
 N1449 N 1.05353 0.68329 0.17810
 C1450 C 1.03877 0.68111 0.16824
 N1451 N 1.03077 0.66514 0.16768
 N1452 N 1.03730 0.65185 0.17652
 C1453 C 0.94572 0.90059 0.21126
 N1454 N 0.95591 0.91519 0.21337
 N1455 N 0.94841 0.93034 0.21892
 C1456 C 0.93044 0.93144 0.22251
 N1457 N 0.92037 0.91677 0.22044
 N1458 N 0.92784 0.90168 0.21493
 C1459 C 0.95353 0.88390 0.20464
 N1460 N 0.94277 0.86977 0.20233
 N1461 N 0.94943 0.85469 0.19577
 C1462 C 0.96713 0.85313 0.19128
 N1463 N 0.97797 0.86723 0.19369
 N1464 N 0.97129 0.88237 0.20026
 C1465 C 0.97401 0.83662 0.18328
 N1466 N 0.99166 0.83450 0.17873
 N1467 N 0.99750 0.81965 0.17079
 C1468 C 0.98591 0.80642 0.16706
 N1469 N 0.96832 0.80858 0.17177
 N1470 N 0.96249 0.82335 0.17973
 C1471 C 0.44515 0.39851 0.70866
 N1472 N 0.45503 0.41326 0.71121
 N1473 N 0.44721 0.42810 0.71723
 C1474 C 0.42923 0.42874 0.72088
 N1475 N 0.41948 0.41392 0.71840
 N1476 N 0.42726 0.39914 0.71242
 C1477 C 0.45324 0.38217 0.70144
 N1478 N 0.44270 0.36795 0.69872
 N1479 N 0.44954 0.35321 0.69157
 C1480 C 0.46720 0.35206 0.68686
 N1481 N 0.47785 0.36624 0.68968
 N1482 N 0.47098 0.38105 0.69685
 C1483 C 0.47420 0.33589 0.67822
 N1484 N 0.49185 0.33399 0.67353
 N1485 N 0.49774 0.31942 0.66507
 C1486 C 0.48619 0.30627 0.66093
 N1487 N 0.46860 0.30822 0.66577
 N1488 N 0.46274 0.32270 0.67425
 C1489 C 0.44960 0.58785 0.78378
 N1490 N 0.44305 0.57589 0.79514
 N1491 N 0.43475 0.56158 0.78924
 C1492 C 0.43273 0.55857 0.77173
 N1493 N 0.43948 0.57046 0.76032
 N1494 N 0.44772 0.58487 0.76624
 C1495 C 0.45791 0.60397 0.79063
 N1496 N 0.46238 0.61731 0.77989
 N1497 N 0.46911 0.63220 0.78649
 C1498 C 0.47164 0.63424 0.80404
 N1499 N 0.46732 0.62084 0.81471
 N1500 N 0.46055 0.60601 0.80814
 C1501 C 0.47836 0.65077 0.81166
 N1502 N 0.48120 0.65219 0.82917
 N1503 N 0.48668 0.66724 0.83641
 C1504 C 0.48951 0.68154 0.82646
 N1505 N 0.48672 0.68009 0.80889
 N1506 N 0.48126 0.66499 0.80162
 C1507 C -0.04205 0.08982 0.27963
 N1508 N -0.04607 0.08766 0.26240
 N1509 N -0.05531 0.07367 0.25694
 C1510 C -0.06097 0.06145 0.26853
 N1511 N -0.05677 0.06363 0.28569
 N1512 N -0.04747 0.07749 0.29111
 C1513 C -0.03283 0.10555 0.28623
 N1514 N -0.02811 0.10657 0.30330
 N1515 N -0.02087 0.12111 0.30995
 C1516 C -0.01810 0.13525 0.29983
 N1517 N -0.02265 0.13424 0.28266
 N1518 N -0.02988 0.11962 0.27597
 C1519 C -0.01127 0.15152 0.30790
 N1520 N -0.00953 0.16647 0.29872
 N1521 N -0.00436 0.18135 0.30670
 C1522 C -0.00081 0.18181 0.32414
 N1523 N -0.00239 0.16677 0.33316
 N1524 N -0.00751 0.15196 0.32523
 C1525 C 0.08022 0.41223 0.29472
 N1526 N 0.07704 0.41761 0.27824
 N1527 N 0.08482 0.43205 0.27217
 C1528 C 0.09602 0.44168 0.28237
 N1529 N 0.09899 0.43634 0.29891
 N1530 N 0.09127 0.42190 0.30495
 C1531 C 0.07260 0.39583 0.30123
 N1532 N 0.07781 0.38967 0.31683
 N1533 N 0.07160 0.37447 0.32260
 C1534 C 0.05990 0.36487 0.31303
 N1535 N 0.05455 0.37107 0.29746
 N1536 N 0.06083 0.38627 0.29163
 C1537 C 0.05366 0.34789 0.31942
 N1538 N 0.04058 0.33869 0.31124
 N1539 N 0.03519 0.32324 0.31725
 C1540 C 0.04278 0.31638 0.33157
 N1541 N 0.05585 0.32564 0.33966
 N1542 N 0.06116 0.34107 0.33374
 C1543 C 0.57346 0.90573 0.77739
 N1544 N 0.58718 0.90493 0.76527
 N1545 N 0.59557 0.91947 0.76036
 C1546 C 0.59062 0.93538 0.76741
 N1547 N 0.57680 0.93615 0.77949
 N1548 N 0.56837 0.92161 0.78438
 C1549 C 0.56480 0.88958 0.78335
 N1550 N 0.55079 0.89027 0.79519
 N1551 N 0.54348 0.87557 0.80114
 C1552 C 0.54995 0.85966 0.79551
 N1553 N 0.56388 0.85898 0.78358
 N1554 N 0.57115 0.87367 0.77759
 C1555 C 0.54260 0.84350 0.80285
 N1556 N 0.55043 0.82775 0.79879
 N1557 N 0.54444 0.81322 0.80626
 C1558 C 0.53036 0.81384 0.81804
 N1559 N 0.52242 0.82959 0.82191
 N1560 N 0.52843 0.84414 0.81448
 C1561 C 0.70882 0.57744 0.09097
 N1562 N 0.70844 0.56874 0.07518
 N1563 N 0.71535 0.57595 0.06073
 C1564 C 0.72277 0.59224 0.06142
 N1565 N 0.72308 0.60084 0.07733
 N1566 N 0.71632 0.59359 0.09179
 C1567 C 0.70086 0.56977 0.10688
 N1568 N 0.70396 0.57704 0.12300
 N1569 N 0.69632 0.57047 0.13743
 C1570 C 0.68518 0.55648 0.13626
 N1571 N 0.68209 0.54919 0.12014
 N1572 N 0.68985 0.55567 0.10571
 C1573 C 0.67614 0.54974 0.15209
 N1574 N 0.66215 0.53849 0.15069
 N1575 N 0.65347 0.53292 0.16503
 C1576 C 0.65851 0.53826 0.18133
 N1577 N 0.67263 0.54938 0.18271
 N1578 N 0.68123 0.55508 0.16836
 C1579 C 0.19809 1.06662 0.61020
 N1580 N 0.20008 1.05689 0.59504
 N1581 N 0.20750 1.06380 0.58065
 C1582 C 0.21317 1.08072 0.58086
 N1583 N 0.21118 1.09039 0.59608
 N1584 N 0.20381 1.08349 0.61046
 C1585 C 0.18965 1.05920 0.62601
 N1586 N 0.18812 1.06891 0.64122
 N1587 N 0.18020 1.06233 0.65552
 C1588 C 0.17350 1.04581 0.65511
 N1589 N 0.17506 1.03608 0.63991
 N1590 N 0.18300 1.04265 0.62562
 C1591 C 0.16445 1.03869 0.67077
 N1592 N 0.15693 1.02252 0.67008
 N1593 N 0.14843 1.01617 0.68416
 C1594 C 0.14712 1.02571 0.69952
 N1595 N 0.15473 1.04187 0.70019
 N1596 N 0.16321 1.04824 0.68609
 C1597 C 0.21374 0.93251 0.90392
 N1598 N 0.21877 0.94261 0.91789
 N1599 N 0.22624 0.93535 0.93167
 C1600 C 0.22902 0.91770 0.93201
 N1601 N 0.22412 0.90776 0.91783
 N1602 N 0.21662 0.91498 0.90414
 C1603 C 0.20456 0.94004 0.88907
 N1604 N 0.19720 0.92924 0.87681
 N1605 N 0.18820 0.93574 0.86364
 C1606 C 0.18630 0.95331 0.86212
 N1607 N 0.19380 0.96419 0.87428
 N1608 N 0.20273 0.95766 0.88756
 C1609 C 0.17565 0.96015 0.84788
 N1610 N 0.17544 0.97750 0.84434
 N1611 N 0.16537 0.98345 0.83157
 C1612 C 0.15505 0.97229 0.82200
 N1613 N 0.15535 0.95497 0.82559
 N1614 N 0.16549 0.94902 0.83822
 C1615 C 0.71188 0.43951 0.38843
 N1616 N 0.71792 0.42284 0.38575
 N1617 N 0.72417 0.41384 0.39900
 C1618 C 0.72468 0.42114 0.41547
 N1619 N 0.71876 0.43790 0.41812
 N1620 N 0.71245 0.44692 0.40485
 C1621 C 0.70437 0.44903 0.37381
 N1622 N 0.69670 0.46509 0.37646
 N1623 N 0.68929 0.47327 0.36321
 C1624 C 0.68933 0.46568 0.34683
 N1625 N 0.69711 0.44969 0.34418
 N1626 N 0.70448 0.44151 0.35742
 C1627 C 0.68050 0.47415 0.33229
 N1628 N 0.68068 0.46629 0.31607
 N1629 N 0.67204 0.47344 0.30298
 C1630 C 0.66284 0.48873 0.30556
 N1631 N 0.66279 0.49667 0.32180
 N1632 N 0.67146 0.48952 0.33492
 C1633 C 0.78393 0.42836 0.57475
 N1634 N 0.79603 0.42124 0.56293
 N1635 N 0.79076 0.41430 0.54772
 C1636 C 0.77316 0.41421 0.54364
 N1637 N 0.76101 0.42149 0.55543
 N1638 N 0.76630 0.42843 0.57072
 C1639 C 0.79007 0.43539 0.59169
 N1640 N 0.77837 0.44199 0.60426
 N1641 N 0.78426 0.44790 0.61972
 C1642 C 0.80205 0.44739 0.62312
 N1643 N 0.81368 0.44084 0.61052
 N1644 N 0.80781 0.43495 0.59512
 C1645 C 0.80889 0.45356 0.64010
 N1646 N 0.82673 0.45263 0.64290
 N1647 N 0.83327 0.45803 0.65818
 C1648 C 0.82226 0.46459 0.67133
 N1649 N 0.80435 0.46553 0.66853
 N1650 N 0.79778 0.46011 0.65319
 C1651 C 0.28988 -0.05789 0.08880
 N1652 N 0.27214 -0.06037 0.08600
 N1653 N 0.26684 -0.06861 0.07135
 C1654 C 0.27908 -0.07474 0.05903
 N1655 N 0.29677 -0.07211 0.06185
 N1656 N 0.30206 -0.06382 0.07641
 C1657 C 0.29611 -0.04955 0.10514
 N1658 N 0.31388 -0.04660 0.10703
 N1659 N 0.31993 -0.03977 0.12199
 C1660 C 0.30846 -0.03568 0.13569
 N1661 N 0.29062 -0.03854 0.13382
 N1662 N 0.28454 -0.04535 0.11879
 C1663 C 0.31559 -0.02877 0.15228
 N1664 N 0.30478 -0.02557 0.16673
 N1665 N 0.31168 -0.01982 0.18182
 C1666 C 0.32963 -0.01706 0.18300
 N1667 N 0.34032 -0.02021 0.16847
 N1668 N 0.33346 -0.02595 0.15345
 C1669 C 0.28492 0.05647 0.42010
 N1670 N 0.26754 0.05436 0.42551
 N1671 N 0.26156 0.06129 0.44091
 C1672 C 0.27276 0.07050 0.45150
 N1673 N 0.29016 0.07234 0.44610
 N1674 N 0.29610 0.06550 0.43073
 C1675 C 0.29159 0.05012 0.40268
 N1676 N 0.30797 0.05533 0.39664
 N1677 N 0.31408 0.05039 0.38066
 C1678 C 0.30411 0.03993 0.37008
 N1679 N 0.28774 0.03454 0.37613
 N1680 N 0.28155 0.03961 0.39214
 C1681 C 0.31104 0.03519 0.35228
 N1682 N 0.30345 0.02234 0.34228
 N1683 N 0.31019 0.01824 0.32621
 C1684 C 0.32464 0.02697 0.31952
 N1685 N 0.33209 0.03982 0.32958
 N1686 N 0.32548 0.04380 0.34562
 C1687 C 0.77776 0.57034 0.89667
 N1688 N 0.78825 0.58326 0.90328
 N1689 N 0.78454 0.59054 0.91908
 C1690 C 0.77011 0.58528 0.92887
 N1691 N 0.75952 0.57238 0.92221
 N1692 N 0.76334 0.56496 0.90643
 C1693 C 0.78215 0.56250 0.87921
 N1694 N 0.77470 0.54714 0.87371
 N1695 N 0.77936 0.53993 0.85803
 C1696 C 0.79149 0.54794 0.84726
 N1697 N 0.79876 0.56335 0.85273
 N1698 N 0.79423 0.57046 0.86841
 C1699 C 0.79738 0.53993 0.83026
 N1700 N 0.80767 0.54926 0.81891
 N1701 N 0.81410 0.54189 0.80395
 C1702 C 0.81060 0.52486 0.79974
 N1703 N 0.80014 0.51554 0.81106
 N1704 N 0.79360 0.52295 0.82602
 C1705 C 0.09186 0.70670 0.58188
 N1706 N 0.07678 0.70848 0.57249
 N1707 N 0.06150 0.71410 0.58034
 C1708 C 0.06070 0.71800 0.59789
 N1709 N 0.07582 0.71624 0.60721
 N1710 N 0.09110 0.71075 0.59936
 C1711 C 0.10860 0.70002 0.57349
 N1712 N 0.12408 0.70037 0.58244
 N1713 N 0.13919 0.69373 0.57515
 C1714 C 0.13934 0.68639 0.55868
 N1715 N 0.12387 0.68609 0.54970
 N1716 N 0.10878 0.69284 0.55695
 C1717 C 0.15580 0.67834 0.55101
 N1718 N 0.15527 0.66834 0.53600
 N1719 N 0.17005 0.66044 0.52941
 C1720 C 0.18596 0.66229 0.53752
 N1721 N 0.18648 0.67244 0.55246
 N1722 N 0.17167 0.68026 0.55911
 C1723 C 0.57740 0.20798 1.07944
 N1724 N 0.56131 0.19975 1.08071
 N1725 N 0.54697 0.20807 1.08777
 C1726 C 0.54817 0.22492 1.09389
 N1727 N 0.56428 0.23313 1.09251
 N1728 N 0.57861 0.22484 1.08541
 C1729 C 0.59339 0.19867 1.07225
 N1730 N 0.60934 0.20711 1.07056
 N1731 N 0.62397 0.19858 1.06451
 C1732 C 0.62321 0.18126 1.05999
 N1733 N 0.60726 0.17283 1.06164
 N1734 N 0.59261 0.18138 1.06765
 C1735 C 0.63942 0.17174 1.05369
 N1736 N 0.63886 0.15420 1.05034
 N1737 N 0.65358 0.14548 1.04485
 C1738 C 0.66945 0.15395 1.04246
 N1739 N 0.66996 0.17153 1.04580
 N1740 N 0.65524 0.18025 1.05134
 C1741 C 0.88483 0.20933 0.94007
 N1742 N 0.88463 0.21266 0.92267
 N1743 N 0.89881 0.21971 0.91457
 C1744 C 0.91390 0.22371 0.92345
 N1745 N 0.91400 0.22040 0.94095
 N1746 N 0.89977 0.21336 0.94910
 C1747 C 0.86923 0.20108 0.94866
 N1748 N 0.86881 0.19793 0.96617
 N1749 N 0.85469 0.19004 0.97366
 C1750 C 0.84054 0.18500 0.96390
 N1751 N 0.84098 0.18821 0.94644
 N1752 N 0.85503 0.19612 0.93898
 C1753 C 0.82517 0.17573 0.97177
 N1754 N 0.81218 0.16926 0.96134
 N1755 N 0.79845 0.16036 0.96817
 C1756 C 0.79709 0.15759 0.98572
 N1757 N 0.81004 0.16421 0.99620
 N1758 N 0.82385 0.17308 0.98935
 C1759 C 0.39875 0.73072 0.44445
 N1760 N 0.39734 0.73623 0.42776
 N1761 N 0.41144 0.74285 0.41916
 C1762 C 0.42758 0.74426 0.42687
 N1763 N 0.42896 0.73894 0.44369
 N1764 N 0.41481 0.73227 0.45233
 C1765 C 0.38332 0.72227 0.45316
 N1766 N 0.38431 0.71594 0.46963
 N1767 N 0.37049 0.70731 0.47681
 C1768 C 0.35526 0.70468 0.46773
 N1769 N 0.35428 0.71117 0.45137
 N1770 N 0.36802 0.71981 0.44424
 C1771 C 0.34040 0.69408 0.47473
 N1772 N 0.32684 0.68944 0.46410
 N1773 N 0.31373 0.67906 0.46978
 C1774 C 0.31356 0.67293 0.48636
 N1775 N 0.32702 0.67776 0.49714
 N1776 N 0.34025 0.68810 0.49140
 C1777 C 0.59212 0.80201 0.43192
 N1778 N 0.58140 0.81329 0.42361
 N1779 N 0.56618 0.80782 0.41668
 C1780 C 0.56098 0.79084 0.41777
 N1781 N 0.57167 0.77953 0.42621
 N1782 N 0.58698 0.78500 0.43315
 C1783 C 0.60907 0.80833 0.43909
 N1784 N 0.62063 0.79738 0.44689
 N1785 N 0.63611 0.80341 0.45300
 C1786 C 0.64054 0.82059 0.45150
 N1787 N 0.62894 0.83147 0.44375
 N1788 N 0.61354 0.82546 0.43766
 C1789 C 0.65756 0.82756 0.45792
 N1790 N 0.66135 0.84479 0.45612
 N1791 N 0.67669 0.85142 0.46173
 C1792 C 0.68893 0.84113 0.46938
 N1793 N 0.68513 0.82382 0.47119
 N1794 N 0.66973 0.81716 0.46556
 C1795 C 0.07231 0.29549 -0.06234
 N1796 N 0.06049 0.30633 -0.06982
 N1797 N 0.04532 0.30011 -0.07629
 C1798 C 0.04131 0.28280 -0.07552
 N1799 N 0.05307 0.27196 -0.06782
 N1800 N 0.06830 0.27819 -0.06136
 C1801 C 0.08945 0.30243 -0.05620
 N1802 N 0.10204 0.29175 -0.04960
 N1803 N 0.11784 0.29817 -0.04476
 C1804 C 0.12158 0.31547 -0.04640
 N1805 N 0.10894 0.32612 -0.05292
 N1806 N 0.09319 0.31972 -0.05774
 C1807 C 0.13905 0.32271 -0.04159
 N1808 N 0.14250 0.33996 -0.04383
 N1809 N 0.15831 0.34671 -0.03973
 C1810 C 0.17136 0.33652 -0.03322
 N1811 N 0.16789 0.31922 -0.03095
 N1812 N 0.15204 0.31244 -0.03508
 C1813 C 0.39063 0.29019 0.07077
 N1814 N 0.40603 0.28498 0.06211
 N1815 N 0.42051 0.28082 0.07100
 C1816 C 0.42017 0.28183 0.08889
 N1817 N 0.40474 0.28704 0.09748
 N1818 N 0.39026 0.29111 0.08861
 C1819 C 0.37467 0.29508 0.06115
 N1820 N 0.35902 0.29886 0.07006
 N1821 N 0.34461 0.30384 0.06155
 C1822 C 0.34531 0.30527 0.04380
 N1823 N 0.36095 0.30142 0.03485
 N1824 N 0.37536 0.29636 0.04337
 C1825 C 0.32963 0.31170 0.03465
 N1826 N 0.33081 0.31537 0.01729
 N1827 N 0.31687 0.32227 0.00935
 C1828 C 0.30119 0.32572 0.01842
 N1829 N 0.30000 0.32180 0.03572
 N1830 N 0.31394 0.31495 0.04368
 C1831 C 0.90356 0.78450 0.57491
 N1832 N 0.92068 0.78982 0.57160
 N1833 N 0.93418 0.78339 0.58056
 C1834 C 0.93110 0.77135 0.59313
 N1835 N 0.91397 0.76601 0.59633
 N1836 N 0.90046 0.77248 0.58743
 C1837 C 0.88857 0.79184 0.56537
 N1838 N 0.87137 0.78784 0.57003
 N1839 N 0.85771 0.79478 0.56169
 C1840 C 0.86075 0.80591 0.54833
 N1841 N 0.87796 0.80983 0.54359
 N1842 N 0.89162 0.80295 0.55198
 C1843 C 0.84569 0.81398 0.53950
 N1844 N 0.84870 0.82428 0.52546
 N1845 N 0.83509 0.83211 0.51784
 C1846 C 0.81794 0.83002 0.52398
 N1847 N 0.81495 0.81962 0.53798
 N1848 N 0.82855 0.81173 0.54556
   
