data_POSCAR
  _audit_creation_date              2014-09-24
  _audit_creation_method            'ToBaCCo'
  _symmetry_space_group_name_H-M    'P1'
  _symmetry_Int_Tables_number       1
  _symmetry_cell_setting            triclinic
  loop_
  _symmetry_equiv_pos_as_xyz
 x,y,z
_cell_length_a 48.6311
_cell_length_b 32.6868
_cell_length_c 34.1570
_cell_angle_alpha 89.920400
_cell_angle_beta 89.942200
_cell_angle_gamma 89.980500
loop_
  _atom_site_label
  _atom_site_type_symbol
  _atom_site_fract_x
  _atom_site_fract_y
  _atom_site_fract_z
C1 C 0.00147 0.00024 0.12602
 C2 C 0.00093 -0.00027 -0.13015
 C3 C -0.06258 -0.06700 0.05831
 C4 C -0.06245 0.06682 0.05846
 C5 C -0.06277 -0.06683 -0.06137
 C6 C 0.06399 -0.06364 -0.06559
 C7 C 0.06412 0.06304 -0.06562
 C8 C 0.06410 -0.06329 0.06108
 C9 C -0.06258 0.06711 -0.06118
 C10 C 0.06416 0.06288 0.06102
 O11 O -0.03765 -0.07568 -0.07045
 O12 O -0.07032 -0.03920 -0.03666
 O13 O -0.03745 0.07595 -0.07015
 O14 O -0.07021 0.03930 -0.03666
 O15 O 0.03906 0.07194 0.06986
 O16 O 0.07170 0.03720 0.03444
 O17 O 0.00071 0.03462 -0.11276
 O18 O 0.00069 -0.03518 -0.11268
 O19 O 0.00121 0.03514 0.10858
 O20 O 0.00111 -0.03472 0.10876
 O21 O 0.03881 -0.07251 -0.07418
 O22 O 0.07156 -0.03788 -0.03912
 O23 O -0.03740 -0.07595 0.06691
 O24 O -0.07023 -0.03922 0.03374
 O25 O 0.03900 -0.07231 0.06993
 O26 O 0.07167 -0.03766 0.03445
 O27 O 0.03897 0.07207 -0.07421
 O28 O 0.07166 0.03720 -0.03916
 O29 O 0.00227 0.11479 0.05597
 O30 O 0.00172 0.11442 -0.06203
 O31 O 0.00191 -0.11493 -0.06058
 O32 O 0.00176 -0.11468 0.05794
 O33 O -0.02310 -0.05393 -0.00176
 O34 O -0.02301 0.05377 -0.00199
 O35 O 0.02409 -0.05370 -0.00202
 O36 O -0.02428 -0.00002 0.05031
 O37 O -0.07014 0.03927 0.03373
 O38 O -0.03727 0.07556 0.06714
 O39 O 0.02598 -0.00011 0.05024
 O40 O 0.02586 -0.00024 -0.05463
 O41 O 0.02421 0.05335 -0.00223
 O42 O -0.02445 -0.00010 -0.05394
 Zr43 Zr 0.00082 0.05073 0.04877
 Zr44 Zr 0.00059 -0.05093 -0.05283
 Zr45 Zr -0.04651 -0.00003 -0.00165
 Zr46 Zr 0.00073 -0.05083 0.04902
 Zr47 Zr 0.00070 0.05058 -0.05300
 Zr48 Zr 0.04787 -0.00024 -0.00229
 H49 H 0.03519 -0.07909 -0.00206
 H50 H -0.03650 -0.00005 0.07348
 H51 H 0.03536 0.07867 -0.00228
 H52 H -0.03678 -0.00001 -0.07696
 H53 H -0.00465 0.12641 0.03110
 H54 H 0.00325 0.12660 -0.03565
 H55 H 0.00201 -0.12684 0.03145
 H56 H -0.00434 -0.12675 -0.03543
 C57 C 0.25083 0.24987 0.12124
 C58 C 0.25027 0.24993 0.37740
 C59 C 0.18664 0.31688 0.18937
 C60 C 0.18679 0.18291 0.18897
 C61 C 0.18633 0.31655 0.30921
 C62 C 0.31297 0.31387 0.31247
 C63 C 0.31318 0.18640 0.31237
 C64 C 0.31324 0.31401 0.18694
 C65 C 0.18659 0.18267 0.30865
 C66 C 0.31360 0.18640 0.18680
 O67 O 0.21145 0.32536 0.31817
 O68 O 0.17879 0.28900 0.28438
 O69 O 0.21172 0.17385 0.31754
 O70 O 0.17894 0.21047 0.28413
 O71 O 0.28850 0.17749 0.17783
 O72 O 0.32103 0.21249 0.21306
 O73 O 0.25000 0.21504 0.36004
 O74 O 0.24996 0.28488 0.36005
 O75 O 0.25060 0.21498 0.13869
 O76 O 0.25041 0.28477 0.13862
 O77 O 0.28781 0.32266 0.32123
 O78 O 0.32065 0.28788 0.28625
 O79 O 0.21181 0.32585 0.18071
 O80 O 0.17897 0.28905 0.21387
 O81 O 0.28815 0.32284 0.17797
 O82 O 0.32082 0.28791 0.21312
 O83 O 0.28806 0.17736 0.32108
 O84 O 0.32079 0.21254 0.28622
 O85 O 0.25147 0.13530 0.19051
 O86 O 0.25083 0.13535 0.30922
 O87 O 0.25077 0.36470 0.30807
 O88 O 0.25074 0.36457 0.18937
 O89 O 0.22604 0.30377 0.24923
 O90 O 0.22624 0.19609 0.24926
 O91 O 0.27317 0.30351 0.24942
 O92 O 0.22495 0.24992 0.19709
 O93 O 0.17917 0.21057 0.21376
 O94 O 0.21210 0.17437 0.18051
 O95 O 0.27531 0.25010 0.19693
 O96 O 0.27501 0.25003 0.30195
 O97 O 0.27340 0.19655 0.24948
 O98 O 0.22467 0.24985 0.30139
 Zr99 Zr 0.25016 0.19927 0.19849
 Zr100 Zr 0.24967 0.30070 0.30025
 Zr101 Zr 0.20268 0.24986 0.24915
 Zr102 Zr 0.24992 0.30072 0.19840
 Zr103 Zr 0.24985 0.19921 0.30027
 Zr104 Zr 0.29705 0.25011 0.24954
 H105 H 0.28417 0.32898 0.24950
 H106 H 0.21276 0.24995 0.17393
 H107 H 0.28449 0.17116 0.24950
 H108 H 0.21237 0.24972 0.32447
 H109 H 0.24538 0.12339 0.21570
 H110 H 0.25120 0.12319 0.28274
 H111 H 0.25103 0.37677 0.21583
 H112 H 0.24473 0.37650 0.28281
 C113 C 0.50007 -0.00141 0.12794
 C114 C 0.49964 -0.00160 -0.12738
 C115 C 0.56443 0.06470 0.06024
 C116 C 0.56438 -0.06825 0.06070
 C117 C 0.56442 0.06453 -0.06093
 C118 C 0.43755 0.06230 -0.06233
 C119 C 0.43745 -0.06516 -0.06223
 C120 C 0.43758 0.06262 0.06338
 C121 C 0.56423 -0.06811 -0.06075
 C122 C 0.43738 -0.06544 0.06371
 O123 O 0.53920 0.07334 -0.06957
 O124 O 0.57200 0.03727 -0.03572
 O125 O 0.53900 -0.07683 -0.06933
 O126 O 0.57189 -0.04096 -0.03558
 O127 O 0.46259 -0.07443 0.07224
 O128 O 0.42990 -0.03920 0.03750
 O129 O 0.50006 -0.03656 -0.11008
 O130 O 0.50014 0.03333 -0.11017
 O131 O 0.50041 -0.03640 0.11083
 O132 O 0.50053 0.03345 0.11056
 O133 O 0.46269 0.07110 -0.07133
 O134 O 0.42999 0.03626 -0.03601
 O135 O 0.53928 0.07378 0.06888
 O136 O 0.57205 0.03723 0.03537
 O137 O 0.46287 0.07130 0.07175
 O138 O 0.43010 0.03630 0.03729
 O139 O 0.46256 -0.07415 -0.07115
 O140 O 0.42992 -0.03914 -0.03594
 O141 O 0.50031 -0.11638 0.05997
 O142 O 0.49970 -0.11654 -0.05777
 O143 O 0.49993 0.11325 -0.05802
 O144 O 0.50054 0.11307 0.05944
 O145 O 0.52493 0.05220 0.00007
 O146 O 0.52477 -0.05565 0.00032
 O147 O 0.47754 0.05189 0.00029
 O148 O 0.52605 -0.00173 0.05217
 O149 O 0.57197 -0.04092 0.03558
 O150 O 0.53917 -0.07714 0.06938
 O151 O 0.47578 -0.00157 0.05291
 O152 O 0.47567 -0.00159 -0.05184
 O153 O 0.47744 -0.05513 0.00053
 O154 O 0.52590 -0.00173 -0.05181
 Zr155 Zr 0.50094 -0.05248 0.05125
 Zr156 Zr 0.50096 0.04917 -0.05058
 Zr157 Zr 0.54829 -0.00180 0.00003
 Zr158 Zr 0.50108 0.04916 0.05093
 Zr159 Zr 0.50085 -0.05248 -0.05040
 Zr160 Zr 0.45373 -0.00156 0.00062
 H161 H 0.46651 0.07734 0.00028
 H162 H 0.53824 -0.00171 0.07534
 H163 H 0.46634 -0.08050 0.00059
 H164 H 0.53799 -0.00176 -0.07512
 H165 H 0.49847 -0.12842 0.03356
 H166 H 0.50692 -0.12815 -0.03308
 H167 H 0.49821 0.12510 0.03308
 H168 H 0.50731 0.12477 -0.03341
 C169 C 0.75155 0.24937 0.12298
 C170 C 0.75128 0.24880 0.37828
 C171 C 0.68718 0.31557 0.19016
 C172 C 0.68738 0.18239 0.18999
 C173 C 0.68708 0.31508 0.31115
 C174 C 0.81374 0.31237 0.31409
 C175 C 0.81416 0.18585 0.31398
 C176 C 0.81386 0.31270 0.18737
 C177 C 0.68742 0.18244 0.31081
 C178 C 0.81428 0.18608 0.18700
 O179 O 0.71222 0.32396 0.32001
 O180 O 0.67953 0.28788 0.28599
 O181 O 0.71256 0.17363 0.31969
 O182 O 0.67974 0.20972 0.28577
 O183 O 0.78903 0.17714 0.17869
 O184 O 0.82168 0.21191 0.21360
 O185 O 0.75106 0.21389 0.36099
 O186 O 0.75088 0.28378 0.36104
 O187 O 0.75124 0.21442 0.14022
 O188 O 0.75110 0.28427 0.14023
 O189 O 0.78858 0.32126 0.32278
 O190 O 0.82144 0.28675 0.28754
 O191 O 0.71235 0.32471 0.18163
 O192 O 0.67957 0.28801 0.21502
 O193 O 0.78873 0.32174 0.17879
 O194 O 0.82153 0.28686 0.21377
 O195 O 0.78899 0.17683 0.32265
 O196 O 0.82166 0.21166 0.28741
 O197 O 0.75164 0.13459 0.19110
 O198 O 0.75211 0.13409 0.30870
 O199 O 0.75165 0.36385 0.30878
 O200 O 0.75119 0.36400 0.19144
 O201 O 0.72662 0.30301 0.25061
 O202 O 0.72686 0.19513 0.25055
 O203 O 0.77402 0.30268 0.25064
 O204 O 0.72563 0.24916 0.19850
 O205 O 0.67980 0.20990 0.21494
 O206 O 0.71269 0.17358 0.18176
 O207 O 0.77584 0.24934 0.19827
 O208 O 0.77578 0.24907 0.30289
 O209 O 0.77427 0.19558 0.25056
 O210 O 0.72558 0.24887 0.30247
 Zr211 Zr 0.75076 0.19846 0.19983
 Zr212 Zr 0.75046 0.29979 0.30139
 Zr213 Zr 0.70335 0.24899 0.25048
 Zr214 Zr 0.75053 0.30006 0.19985
 Zr215 Zr 0.75073 0.19816 0.30132
 Zr216 Zr 0.79785 0.24921 0.25059
 H217 H 0.78509 0.32808 0.25073
 H218 H 0.71345 0.24914 0.17533
 H219 H 0.78544 0.17027 0.25057
 H220 H 0.71338 0.24878 0.32565
 H221 H 0.75365 0.12247 0.21748
 H222 H 0.74494 0.12250 0.28400
 H223 H 0.75329 0.37591 0.21786
 H224 H 0.74416 0.37547 0.28426
 C225 C 0.00041 0.50073 0.12737
 C226 C 0.00020 0.50034 -0.12878
 C227 C -0.06355 0.43351 0.05961
 C228 C -0.06344 0.56777 0.05913
 C229 C -0.06367 0.43360 -0.06010
 C230 C 0.06298 0.43724 -0.06376
 C231 C 0.06300 0.56351 -0.06421
 C232 C 0.06326 0.43726 0.06279
 C233 C -0.06357 0.56744 -0.06042
 C234 C 0.06325 0.56400 0.06234
 O235 O -0.03853 0.42485 -0.06911
 O236 O -0.07127 0.46127 -0.03542
 O237 O -0.03844 0.57615 -0.06946
 O238 O -0.07121 0.53986 -0.03563
 O239 O 0.03811 0.57309 0.07104
 O240 O 0.07077 0.53810 0.03595
 O241 O -0.00009 0.53527 -0.11144
 O242 O -0.00010 0.46546 -0.11125
 O243 O 0.00011 0.53565 0.10997
 O244 O 0.00006 0.46582 0.11009
 O245 O 0.03787 0.42829 -0.07253
 O246 O 0.07059 0.46297 -0.03732
 O247 O -0.03827 0.42478 0.06794
 O248 O -0.07111 0.46141 0.03501
 O249 O 0.03802 0.42843 0.07128
 O250 O 0.07067 0.46313 0.03616
 O251 O 0.03789 0.57251 -0.07299
 O252 O 0.07061 0.53791 -0.03760
 O253 O 0.00084 0.61535 0.05873
 O254 O 0.00110 0.61519 -0.05979
 O255 O 0.00103 0.38573 -0.05904
 O256 O 0.00083 0.38616 0.05949
 O257 O -0.02405 0.44674 -0.00040
 O258 O -0.02400 0.55443 -0.00067
 O259 O 0.02317 0.44707 -0.00055
 O260 O -0.02529 0.50073 0.05163
 O261 O -0.07114 0.53993 0.03474
 O262 O -0.03828 0.57670 0.06774
 O263 O 0.02502 0.50069 0.05186
 O264 O 0.02490 0.50046 -0.05303
 O265 O 0.02319 0.55412 -0.00082
 O266 O -0.02540 0.50051 -0.05264
 Zr267 Zr -0.00018 0.55147 0.05017
 Zr268 Zr -0.00034 0.44974 -0.05138
 Zr269 Zr -0.04748 0.50060 -0.00044
 Zr270 Zr -0.00021 0.44999 0.05036
 Zr271 Zr -0.00030 0.55122 -0.05164
 Zr272 Zr 0.04688 0.50057 -0.00064
 H273 H 0.03427 0.42168 -0.00049
 H274 H -0.03755 0.50072 0.07477
 H275 H 0.03431 0.57947 -0.00096
 H276 H -0.03768 0.50048 -0.07572
 H277 H 0.00118 0.62743 0.03219
 H278 H -0.00506 0.62712 -0.03467
 H279 H 0.00123 0.37390 0.03305
 H280 H -0.00519 0.37395 -0.03385
 C281 C 0.25126 0.75055 0.12208
 C282 C 0.25067 0.75170 0.37742
 C283 C 0.18710 0.81811 0.18934
 C284 C 0.18676 0.68433 0.18934
 C285 C 0.18674 0.81821 0.30913
 C286 C 0.31336 0.81496 0.31245
 C287 C 0.31338 0.68737 0.31283
 C288 C 0.31417 0.81480 0.18659
 C289 C 0.18671 0.68424 0.30953
 C290 C 0.31354 0.68710 0.18726
 O291 O 0.21188 0.82698 0.31805
 O292 O 0.17915 0.79053 0.28449
 O293 O 0.21187 0.67542 0.31838
 O294 O 0.17912 0.71194 0.28481
 O295 O 0.28842 0.67818 0.17845
 O296 O 0.32114 0.71323 0.21334
 O297 O 0.25034 0.71671 0.36030
 O298 O 0.25038 0.78657 0.36000
 O299 O 0.25082 0.71568 0.13946
 O300 O 0.25097 0.78554 0.13917
 O301 O 0.28822 0.82391 0.32117
 O302 O 0.32103 0.78884 0.28637
 O303 O 0.21241 0.82685 0.18100
 O304 O 0.17949 0.79033 0.21403
 O305 O 0.28891 0.82357 0.17794
 O306 O 0.32142 0.78861 0.21306
 O307 O 0.28822 0.67854 0.32160
 O308 O 0.32105 0.71342 0.28661
 O309 O 0.25136 0.63613 0.19163
 O310 O 0.25086 0.63669 0.30989
 O311 O 0.25125 0.86611 0.30780
 O312 O 0.25141 0.86551 0.18926
 O313 O 0.22646 0.80499 0.24933
 O314 O 0.22631 0.69721 0.24987
 O315 O 0.27374 0.80465 0.24955
 O316 O 0.22530 0.75106 0.19756
 O317 O 0.17927 0.71203 0.21417
 O318 O 0.21206 0.67561 0.18090
 O319 O 0.27560 0.75086 0.19732
 O320 O 0.27530 0.75127 0.30214
 O321 O 0.27359 0.69763 0.24999
 O322 O 0.22499 0.75132 0.30169
 Zr323 Zr 0.25023 0.70017 0.19915
 Zr324 Zr 0.25008 0.80208 0.30025
 Zr325 Zr 0.20296 0.75114 0.24953
 Zr326 Zr 0.25050 0.80173 0.19868
 Zr327 Zr 0.25004 0.70052 0.30073
 Zr328 Zr 0.29741 0.75109 0.24979
 H329 H 0.28481 0.83005 0.24946
 H330 H 0.21311 0.75107 0.17438
 H331 H 0.28460 0.67217 0.25008
 H332 H 0.21268 0.75135 0.32477
 H333 H 0.24466 0.62446 0.21661
 H334 H 0.25180 0.62444 0.28347
 H335 H 0.25224 0.87788 0.21563
 H336 H 0.24521 0.87781 0.28251
 C337 C 0.49922 0.50043 0.12789
 C338 C 0.49909 0.49989 -0.12744
 C339 C 0.56355 0.56668 0.06015
 C340 C 0.56364 0.43354 0.06088
 C341 C 0.56343 0.56620 -0.06045
 C342 C 0.43680 0.56410 -0.06263
 C343 C 0.43669 0.43637 -0.06214
 C344 C 0.43681 0.56426 0.06311
 C345 C 0.56328 0.43346 -0.05988
 C346 C 0.43674 0.43673 0.06343
 O347 O 0.53830 0.57513 -0.06926
 O348 O 0.57108 0.53895 -0.03537
 O349 O 0.53813 0.42467 -0.06867
 O350 O 0.57099 0.46079 -0.03501
 O351 O 0.46196 0.42784 0.07192
 O352 O 0.42931 0.46293 0.03716
 O353 O 0.49946 0.46500 -0.11006
 O354 O 0.49952 0.53488 -0.11031
 O355 O 0.49961 0.46548 0.11074
 O356 O 0.49964 0.53532 0.11053
 O357 O 0.46194 0.57289 -0.07156
 O358 O 0.42923 0.53807 -0.03632
 O359 O 0.53840 0.57582 0.06873
 O360 O 0.57117 0.53909 0.03542
 O361 O 0.46206 0.57304 0.07152
 O362 O 0.42934 0.53802 0.03695
 O363 O 0.46180 0.42739 -0.07101
 O364 O 0.42916 0.46258 -0.03604
 O365 O 0.49945 0.38570 0.06026
 O366 O 0.49884 0.38526 -0.05799
 O367 O 0.49911 0.61489 -0.05867
 O368 O 0.49961 0.61497 0.05945
 O369 O 0.52405 0.55403 -0.00000
 O370 O 0.52397 0.44616 0.00035
 O371 O 0.47676 0.55381 0.00012
 O372 O 0.52524 0.50024 0.05232
 O373 O 0.57111 0.46105 0.03579
 O374 O 0.53834 0.42472 0.06925
 O375 O 0.47499 0.50037 0.05269
 O376 O 0.47487 0.50015 -0.05213
 O377 O 0.47667 0.44674 0.00049
 O378 O 0.52510 0.50000 -0.05176
 Zr379 Zr 0.50020 0.44954 0.05117
 Zr380 Zr 0.50014 0.55088 -0.05072
 Zr381 Zr 0.54738 0.50004 0.00022
 Zr382 Zr 0.50025 0.55107 0.05085
 Zr383 Zr 0.50004 0.44928 -0.05036
 Zr384 Zr 0.45302 0.50034 0.00032
 H385 H 0.46572 0.57925 0.00004
 H386 H 0.53744 0.50025 0.07548
 H387 H 0.46560 0.42134 0.00058
 H388 H 0.53726 0.49989 -0.07500
 H389 H 0.49821 0.37348 0.03386
 H390 H 0.50534 0.37352 -0.03295
 H391 H 0.49794 0.62704 0.03300
 H392 H 0.50575 0.62664 -0.03375
 C393 C 0.75079 0.75055 0.12209
 C394 C 0.75065 0.75148 0.37738
 C395 C 0.68633 0.81718 0.18870
 C396 C 0.68651 0.68419 0.18952
 C397 C 0.68652 0.81744 0.30984
 C398 C 0.81313 0.81439 0.31270
 C399 C 0.81326 0.68790 0.31321
 C400 C 0.81340 0.81409 0.18584
 C401 C 0.68658 0.68472 0.31040
 C402 C 0.81337 0.68761 0.18639
 O403 O 0.71165 0.82635 0.31864
 O404 O 0.67890 0.79013 0.28486
 O405 O 0.71173 0.67597 0.31930
 O406 O 0.67893 0.71191 0.28522
 O407 O 0.78814 0.67857 0.17818
 O408 O 0.82081 0.71358 0.21282
 O409 O 0.75034 0.71647 0.36028
 O410 O 0.75027 0.78636 0.35994
 O411 O 0.75040 0.71569 0.13950
 O412 O 0.75040 0.78555 0.13915
 O413 O 0.78800 0.82343 0.32140
 O414 O 0.82076 0.78863 0.28626
 O415 O 0.71162 0.82616 0.18039
 O416 O 0.67890 0.78975 0.21390
 O417 O 0.78814 0.82305 0.17748
 O418 O 0.82080 0.78829 0.21253
 O419 O 0.78812 0.67897 0.32203
 O420 O 0.82083 0.71356 0.28656
 O421 O 0.75074 0.63615 0.19074
 O422 O 0.75120 0.63631 0.30846
 O423 O 0.75107 0.86607 0.30728
 O424 O 0.75053 0.86553 0.18976
 O425 O 0.72596 0.80494 0.24943
 O426 O 0.72604 0.69704 0.24996
 O427 O 0.77335 0.80458 0.24940
 O428 O 0.72487 0.75082 0.19763
 O429 O 0.67899 0.71184 0.21434
 O430 O 0.71180 0.67521 0.18132
 O431 O 0.77506 0.75086 0.19732
 O432 O 0.77504 0.75119 0.30195
 O433 O 0.77342 0.69743 0.24992
 O434 O 0.72486 0.75114 0.30162
 Zr435 Zr 0.74991 0.70007 0.19920
 Zr436 Zr 0.74983 0.80198 0.30019
 Zr437 Zr 0.70263 0.75096 0.24964
 Zr438 Zr 0.74984 0.80166 0.19868
 Zr439 Zr 0.74990 0.70034 0.30070
 Zr440 Zr 0.79705 0.75101 0.24962
 H441 H 0.78448 0.82992 0.24931
 H442 H 0.71269 0.75070 0.17446
 H443 H 0.78456 0.67209 0.25003
 H444 H 0.71267 0.75120 0.32481
 H445 H 0.75257 0.62415 0.21719
 H446 H 0.74409 0.62458 0.28378
 H447 H 0.75277 0.87765 0.21606
 H448 H 0.74380 0.87758 0.28257
 C449 C 0.00037 0.00130 0.37146
 C450 C 0.00003 0.00070 0.62800
 C451 C -0.06390 0.06791 0.43916
 C452 C -0.06375 -0.06588 0.43975
 C453 C -0.06369 0.06809 0.55929
 C454 C 0.06294 0.06409 0.56297
 C455 C 0.06285 -0.06218 0.56308
 C456 C 0.06300 0.06403 0.43592
 C457 C -0.06377 -0.06579 0.55945
 C458 C 0.06312 -0.06207 0.43615
 O459 O -0.03855 0.07692 0.56810
 O460 O -0.07135 0.04040 0.53473
 O461 O -0.03864 -0.07458 0.56843
 O462 O -0.07139 -0.03814 0.53474
 O463 O 0.03788 -0.07096 0.42778
 O464 O 0.07052 -0.03632 0.46281
 O465 O -0.00028 -0.03410 0.61033
 O466 O -0.00025 0.03559 0.61036
 O467 O 0.00000 -0.03353 0.38916
 O468 O -0.00001 0.03616 0.38904
 O469 O 0.03781 0.07314 0.57168
 O470 O 0.07052 0.03843 0.53640
 O471 O -0.03861 0.07654 0.43054
 O472 O -0.07135 0.04032 0.46419
 O473 O 0.03777 0.07298 0.42746
 O474 O 0.07041 0.03838 0.46271
 O475 O 0.03772 -0.07116 0.57185
 O476 O 0.07045 -0.03651 0.53648
 O477 O 0.00063 -0.11338 0.43988
 O478 O 0.00089 -0.11376 0.55833
 O479 O 0.00061 0.11558 0.55935
 O480 O 0.00095 0.11589 0.44107
 O481 O -0.02421 0.05498 0.49968
 O482 O -0.02421 -0.05273 0.49968
 O483 O 0.02301 0.05457 0.49965
 O484 O -0.02548 0.00113 0.44750
 O485 O -0.07127 -0.03803 0.46437
 O486 O -0.03846 -0.07467 0.43136
 O487 O 0.02479 0.00115 0.44729
 O488 O 0.02475 0.00096 0.55212
 O489 O 0.02304 -0.05250 0.49971
 O490 O -0.02554 0.00104 0.55176
 Zr491 Zr -0.00037 -0.04956 0.44888
 Zr492 Zr -0.00044 0.05173 0.55058
 Zr493 Zr -0.04763 0.00115 0.49959
 Zr494 Zr -0.00045 0.05187 0.44881
 Zr495 Zr -0.00048 -0.04975 0.55055
 Zr496 Zr 0.04670 0.00102 0.49968
 H497 H 0.03416 0.07990 0.49957
 H498 H -0.03769 0.00109 0.42435
 H499 H 0.03417 -0.07786 0.49972
 H500 H -0.03782 0.00105 0.57488
 H501 H 0.00138 -0.12564 0.46633
 H502 H -0.00540 -0.12552 0.53323
 H503 H -0.00585 0.12764 0.46593
 H504 H 0.00136 0.12773 0.53285
 C505 C 0.25036 0.24912 0.87952
 C506 C 0.25054 0.24929 0.62294
 C507 C 0.18634 0.18194 0.81104
 C508 C 0.18636 0.31616 0.81087
 C509 C 0.18645 0.18236 0.69100
 C510 C 0.31318 0.18569 0.68841
 C511 C 0.31316 0.31308 0.68837
 C512 C 0.31335 0.18533 0.81425
 C513 C 0.18652 0.31605 0.69128
 C514 C 0.31321 0.31300 0.81422
 O515 O 0.21173 0.17379 0.68237
 O516 O 0.17895 0.20991 0.71595
 O517 O 0.21167 0.32486 0.68240
 O518 O 0.17888 0.28837 0.71599
 O519 O 0.28795 0.32169 0.82274
 O520 O 0.32068 0.28686 0.78793
 O521 O 0.25024 0.28411 0.64057
 O522 O 0.25024 0.21442 0.64060
 O523 O 0.25002 0.28393 0.86180
 O524 O 0.25008 0.21427 0.86194
 O525 O 0.28808 0.17679 0.67954
 O526 O 0.32074 0.21163 0.71468
 O527 O 0.21161 0.17326 0.81965
 O528 O 0.17890 0.20980 0.78632
 O529 O 0.28809 0.17656 0.82284
 O530 O 0.32073 0.21155 0.78792
 O531 O 0.28804 0.32189 0.67947
 O532 O 0.32074 0.28705 0.71467
 O533 O 0.25067 0.36358 0.81116
 O534 O 0.25100 0.36394 0.69212
 O535 O 0.25109 0.13457 0.69232
 O536 O 0.25077 0.13458 0.81125
 O537 O 0.22608 0.19526 0.75126
 O538 O 0.22603 0.30298 0.75117
 O539 O 0.27323 0.19574 0.75129
 O540 O 0.22467 0.24908 0.80340
 O541 O 0.17890 0.28824 0.78633
 O542 O 0.21161 0.32493 0.81935
 O543 O 0.27505 0.24913 0.80380
 O544 O 0.27511 0.24927 0.69878
 O545 O 0.27319 0.30270 0.75120
 O546 O 0.22478 0.24923 0.69906
 Zr547 Zr 0.24975 0.29978 0.80205
 Zr548 Zr 0.24986 0.19853 0.70038
 Zr549 Zr 0.20264 0.24909 0.75118
 Zr550 Zr 0.24980 0.19841 0.80218
 Zr551 Zr 0.24983 0.29998 0.70030
 Zr552 Zr 0.29696 0.24924 0.75129
 H553 H 0.28430 0.17033 0.75128
 H554 H 0.21238 0.24906 0.82651
 H555 H 0.28422 0.32814 0.75121
 H556 H 0.21256 0.24925 0.67593
 H557 H 0.25040 0.37591 0.78471
 H558 H 0.24545 0.37584 0.71754
 H559 H 0.25071 0.12236 0.78480
 H560 H 0.24518 0.12265 0.71759
 C561 C 0.49920 0.00045 0.37224
 C562 C 0.49879 0.00004 0.62806
 C563 C 0.56329 -0.06618 0.43973
 C564 C 0.56352 0.06667 0.43981
 C565 C 0.56292 -0.06630 0.56044
 C566 C 0.43642 -0.06296 0.56279
 C567 C 0.43651 0.06426 0.56308
 C568 C 0.43649 -0.06291 0.43702
 C569 C 0.56316 0.06634 0.56061
 C570 C 0.43665 0.06455 0.43710
 O571 O 0.53777 -0.07511 0.56926
 O572 O 0.57066 -0.03900 0.53546
 O573 O 0.53803 0.07533 0.56938
 O574 O 0.57080 0.03908 0.53557
 O575 O 0.46191 0.07324 0.42858
 O576 O 0.42916 0.03841 0.46341
 O577 O 0.49922 0.03496 0.61055
 O578 O 0.49914 -0.03474 0.61044
 O579 O 0.49959 0.03532 0.38972
 O580 O 0.49949 -0.03435 0.38987
 O581 O 0.46149 -0.07205 0.57168
 O582 O 0.42891 -0.03688 0.53654
 O583 O 0.53802 -0.07508 0.43145
 O584 O 0.57077 -0.03871 0.46472
 O585 O 0.46172 -0.07185 0.42860
 O586 O 0.42905 -0.03673 0.46327
 O587 O 0.46174 0.07279 0.57178
 O588 O 0.42907 0.03836 0.53659
 O589 O 0.49942 0.11508 0.44033
 O590 O 0.49880 0.11500 0.55899
 O591 O 0.49842 -0.11448 0.55863
 O592 O 0.49910 -0.11408 0.44048
 O593 O 0.52367 -0.05365 0.50016
 O594 O 0.52382 0.05426 0.50016
 O595 O 0.47636 -0.05301 0.50007
 O596 O 0.52500 0.00039 0.44807
 O597 O 0.57088 0.03910 0.46484
 O598 O 0.53829 0.07577 0.43142
 O599 O 0.47478 0.00060 0.44762
 O600 O 0.47461 0.00041 0.55244
 O601 O 0.47657 0.05408 0.50008
 O602 O 0.52481 0.00018 0.55216
 Zr603 Zr 0.50007 0.05123 0.44933
 Zr604 Zr 0.49973 -0.05047 0.55084
 Zr605 Zr 0.54706 0.00022 0.50016
 Zr606 Zr 0.49992 -0.05024 0.44942
 Zr607 Zr 0.49991 0.05104 0.55091
 Zr608 Zr 0.45281 0.00066 0.50000
 H609 H 0.46525 -0.07838 0.50005
 H610 H 0.53722 0.00037 0.42489
 H611 H 0.46556 0.07955 0.50012
 H612 H 0.53695 0.00009 0.57539
 H613 H 0.49910 0.12727 0.46680
 H614 H 0.50505 0.12690 0.53387
 H615 H 0.49779 -0.12630 0.46690
 H616 H 0.50506 -0.12624 0.53369
 C617 C 0.75047 0.24915 0.87869
 C618 C 0.75014 0.24899 0.62290
 C619 C 0.68604 0.18219 0.81189
 C620 C 0.68599 0.31545 0.81125
 C621 C 0.68610 0.18243 0.69054
 C622 C 0.81286 0.18638 0.68707
 C623 C 0.81254 0.31267 0.68714
 C624 C 0.81305 0.18626 0.81399
 C625 C 0.68588 0.31509 0.69054
 C626 C 0.81282 0.31270 0.81399
 O627 O 0.71138 0.17389 0.68189
 O628 O 0.67856 0.20961 0.71582
 O629 O 0.71100 0.32407 0.68160
 O630 O 0.67832 0.28778 0.71567
 O631 O 0.78756 0.32152 0.82240
 O632 O 0.82027 0.28687 0.78741
 O633 O 0.74972 0.28388 0.64038
 O634 O 0.74983 0.21416 0.64057
 O635 O 0.74996 0.28396 0.86105
 O636 O 0.75011 0.21428 0.86122
 O637 O 0.78764 0.17740 0.67872
 O638 O 0.82027 0.21208 0.71375
 O639 O 0.71138 0.17347 0.82013
 O640 O 0.67851 0.20968 0.78679
 O641 O 0.78786 0.17717 0.82257
 O642 O 0.82036 0.21213 0.78733
 O643 O 0.78737 0.32154 0.67847
 O644 O 0.82019 0.28700 0.71370
 O645 O 0.75004 0.36370 0.81024
 O646 O 0.75027 0.36396 0.69230
 O647 O 0.75094 0.13437 0.69272
 O648 O 0.75046 0.13445 0.81045
 O649 O 0.72561 0.19498 0.75104
 O650 O 0.72542 0.30286 0.75082
 O651 O 0.77300 0.19571 0.75086
 O652 O 0.72441 0.24900 0.80302
 O653 O 0.67848 0.28778 0.78649
 O654 O 0.71125 0.32450 0.81940
 O655 O 0.77462 0.24920 0.80308
 O656 O 0.77451 0.24927 0.69842
 O657 O 0.77278 0.30287 0.75062
 O658 O 0.72433 0.24901 0.69901
 Zr659 Zr 0.74937 0.29984 0.80144
 Zr660 Zr 0.74945 0.19840 0.70024
 Zr661 Zr 0.70215 0.24881 0.75109
 Zr662 Zr 0.74950 0.19833 0.80168
 Zr663 Zr 0.74923 0.29992 0.69997
 Zr664 Zr 0.79652 0.24942 0.75064
 H665 H 0.78419 0.17042 0.75076
 H666 H 0.71225 0.24896 0.82626
 H667 H 0.78385 0.32827 0.75054
 H668 H 0.71214 0.24891 0.67583
 H669 H 0.75154 0.37587 0.78381
 H670 H 0.74333 0.37560 0.71713
 H671 H 0.75220 0.12240 0.78404
 H672 H 0.74375 0.12262 0.71739
 C673 C 0.00054 0.50045 0.37269
 C674 C 0.00033 0.50011 0.62922
 C675 C -0.06348 0.56718 0.44045
 C676 C -0.06346 0.43316 0.44111
 C677 C -0.06337 0.56751 0.56032
 C678 C 0.06328 0.56336 0.56390
 C679 C 0.06329 0.43687 0.56445
 C680 C 0.06342 0.56337 0.43698
 C681 C -0.06364 0.43340 0.56100
 C682 C 0.06338 0.43683 0.43733
 O683 O -0.03822 0.57633 0.56909
 O684 O -0.07104 0.53970 0.53589
 O685 O -0.03837 0.42483 0.56974
 O686 O -0.07108 0.46108 0.53609
 O687 O 0.03811 0.42806 0.42901
 O688 O 0.07086 0.46261 0.46393
 O689 O 0.00004 0.46528 0.61160
 O690 O 0.00007 0.53496 0.61150
 O691 O 0.00020 0.46560 0.39037
 O692 O 0.00026 0.53528 0.39028
 O693 O 0.03816 0.57240 0.57264
 O694 O 0.07088 0.53761 0.53744
 O695 O -0.03818 0.57576 0.43187
 O696 O -0.07099 0.53955 0.46540
 O697 O 0.03816 0.57223 0.42860
 O698 O 0.07085 0.53759 0.46370
 O699 O 0.03803 0.42824 0.57305
 O700 O 0.07077 0.46252 0.53764
 O701 O 0.00095 0.38576 0.44122
 O702 O 0.00118 0.38560 0.55983
 O703 O 0.00097 0.61482 0.56045
 O704 O 0.00137 0.61500 0.44218
 O705 O -0.02386 0.55414 0.50082
 O706 O -0.02391 0.44646 0.50095
 O707 O 0.02340 0.55371 0.50079
 O708 O -0.02516 0.50030 0.44875
 O709 O -0.07100 0.46105 0.46570
 O710 O -0.03817 0.42444 0.43268
 O711 O 0.02515 0.50025 0.44841
 O712 O 0.02511 0.50021 0.55324
 O713 O 0.02334 0.44670 0.50095
 O714 O -0.02524 0.50033 0.55300
 Zr715 Zr -0.00008 0.44960 0.45012
 Zr716 Zr -0.00010 0.55097 0.55169
 Zr717 Zr -0.04733 0.50033 0.50084
 Zr718 Zr -0.00005 0.55099 0.44999
 Zr719 Zr -0.00017 0.44958 0.55180
 Zr720 Zr 0.04709 0.50015 0.50077
 H721 H 0.03454 0.57904 0.50065
 H722 H -0.03739 0.50024 0.42562
 H723 H 0.03444 0.42131 0.50099
 H724 H -0.03752 0.50039 0.57611
 H725 H 0.00118 0.37354 0.46771
 H726 H -0.00509 0.37374 0.53475
 H727 H -0.00532 0.62680 0.46709
 H728 H 0.00192 0.62696 0.53396
 C729 C 0.25046 0.75091 0.87788
 C730 C 0.25044 0.75124 0.62204
 C731 C 0.18633 0.68377 0.80964
 C732 C 0.18612 0.81775 0.81030
 C733 C 0.18633 0.68419 0.69007
 C734 C 0.31307 0.68734 0.68716
 C735 C 0.31308 0.81494 0.68721
 C736 C 0.31318 0.68711 0.81299
 C737 C 0.18626 0.81818 0.69021
 C738 C 0.31313 0.81453 0.81312
 O739 O 0.21160 0.67560 0.68143
 O740 O 0.17882 0.71188 0.71486
 O741 O 0.21154 0.82694 0.68174
 O742 O 0.17877 0.79031 0.71488
 O743 O 0.28787 0.82329 0.82175
 O744 O 0.32053 0.78852 0.78668
 O745 O 0.25008 0.78603 0.63967
 O746 O 0.25012 0.71635 0.63957
 O747 O 0.25008 0.78580 0.86038
 O748 O 0.25008 0.71612 0.86029
 O749 O 0.28794 0.67850 0.67832
 O750 O 0.32064 0.71337 0.71338
 O751 O 0.21160 0.67504 0.81813
 O752 O 0.17882 0.71174 0.78510
 O753 O 0.28792 0.67833 0.82148
 O754 O 0.32061 0.71334 0.78669
 O755 O 0.28785 0.82365 0.67862
 O756 O 0.32053 0.78876 0.71350
 O757 O 0.25084 0.86566 0.80893
 O758 O 0.25056 0.86564 0.69022
 O759 O 0.25088 0.63646 0.69087
 O760 O 0.25065 0.63643 0.80992
 O761 O 0.22592 0.69719 0.74998
 O762 O 0.22583 0.80498 0.75007
 O763 O 0.27315 0.69747 0.74997
 O764 O 0.22459 0.75094 0.80213
 O765 O 0.17871 0.79016 0.78535
 O766 O 0.21140 0.82634 0.81895
 O767 O 0.27489 0.75097 0.80244
 O768 O 0.27494 0.75112 0.69758
 O769 O 0.27309 0.80451 0.75006
 O770 O 0.22462 0.75110 0.69792
 Zr771 Zr 0.24962 0.80171 0.80082
 Zr772 Zr 0.24973 0.70038 0.69919
 Zr773 Zr 0.20250 0.75107 0.75004
 Zr774 Zr 0.24971 0.70025 0.80073
 Zr775 Zr 0.24965 0.80180 0.69930
 Zr776 Zr 0.29682 0.75098 0.75002
 H777 H 0.28420 0.67203 0.74997
 H778 H 0.21233 0.75081 0.82526
 H779 H 0.28413 0.82994 0.75012
 H780 H 0.21237 0.75120 0.67481
 H781 H 0.24469 0.87761 0.78380
 H782 H 0.25082 0.87786 0.71668
 H783 H 0.25048 0.62415 0.78349
 H784 H 0.24536 0.62443 0.71628
 C785 C 0.49908 0.49996 0.37227
 C786 C 0.49886 0.49970 0.62806
 C787 C 0.56341 0.43312 0.43976
 C788 C 0.56345 0.56632 0.43964
 C789 C 0.56321 0.43316 0.56082
 C790 C 0.43640 0.43613 0.56331
 C791 C 0.43646 0.56371 0.56316
 C792 C 0.43644 0.43617 0.43722
 C793 C 0.56322 0.56605 0.56057
 C794 C 0.43654 0.56386 0.43722
 O795 O 0.53791 0.42456 0.56931
 O796 O 0.57078 0.46050 0.53562
 O797 O 0.53806 0.57492 0.56935
 O798 O 0.57089 0.53875 0.53555
 O799 O 0.46181 0.57254 0.42870
 O800 O 0.42906 0.53766 0.46351
 O801 O 0.49926 0.53457 0.61048
 O802 O 0.49925 0.46487 0.61050
 O803 O 0.49948 0.53476 0.38984
 O804 O 0.49944 0.46509 0.38983
 O805 O 0.46164 0.42743 0.57187
 O806 O 0.42897 0.46223 0.53689
 O807 O 0.53812 0.42433 0.43142
 O808 O 0.57089 0.46063 0.46475
 O809 O 0.46170 0.42738 0.42871
 O810 O 0.42900 0.46232 0.46352
 O811 O 0.46172 0.57230 0.57177
 O812 O 0.42902 0.53764 0.53680
 O813 O 0.49934 0.61443 0.44044
 O814 O 0.49877 0.61453 0.55870
 O815 O 0.49862 0.38508 0.55888
 O816 O 0.49918 0.38528 0.44057
 O817 O 0.52376 0.44584 0.50018
 O818 O 0.52384 0.55369 0.50014
 O819 O 0.47643 0.44634 0.50016
 O820 O 0.52502 0.49980 0.44809
 O821 O 0.57092 0.53870 0.46461
 O822 O 0.53817 0.57527 0.43139
 O823 O 0.47473 0.49990 0.44774
 O824 O 0.47465 0.49985 0.55253
 O825 O 0.47650 0.55338 0.50014
 O826 O 0.52491 0.49974 0.55214
 Zr827 Zr 0.50001 0.55057 0.44941
 Zr828 Zr 0.49984 0.44908 0.55089
 Zr829 Zr 0.54719 0.49971 0.50014
 Zr830 Zr 0.49995 0.44912 0.44942
 Zr831 Zr 0.49992 0.55054 0.55088
 Zr832 Zr 0.45275 0.49990 0.50016
 H833 H 0.46535 0.42095 0.50024
 H834 H 0.53722 0.49980 0.42489
 H835 H 0.46547 0.57882 0.50017
 H836 H 0.53704 0.49968 0.57537
 H837 H 0.49820 0.62660 0.46687
 H838 H 0.50536 0.62633 0.53371
 H839 H 0.49821 0.37309 0.46704
 H840 H 0.50522 0.37326 0.53394
 C841 C 0.75046 0.75062 0.87781
 C842 C 0.75028 0.75133 0.62203
 C843 C 0.68627 0.68399 0.81028
 C844 C 0.68595 0.81711 0.81089
 C845 C 0.68613 0.68458 0.68942
 C846 C 0.81299 0.68805 0.68620
 C847 C 0.81284 0.81432 0.68630
 C848 C 0.81307 0.68768 0.81312
 C849 C 0.68604 0.81733 0.68971
 C850 C 0.81297 0.81413 0.81321
 O851 O 0.71141 0.67595 0.68082
 O852 O 0.67863 0.71186 0.71466
 O853 O 0.71127 0.82613 0.68109
 O854 O 0.67859 0.78995 0.71491
 O855 O 0.78773 0.82302 0.82174
 O856 O 0.82036 0.78837 0.78655
 O857 O 0.74987 0.78613 0.63965
 O858 O 0.74997 0.71642 0.63955
 O859 O 0.75004 0.78551 0.86031
 O860 O 0.75008 0.71583 0.86020
 O861 O 0.78776 0.67920 0.67774
 O862 O 0.82039 0.71373 0.71291
 O863 O 0.71156 0.67515 0.81854
 O864 O 0.67871 0.71163 0.78543
 O865 O 0.78785 0.67868 0.82155
 O866 O 0.82046 0.71360 0.78654
 O867 O 0.78759 0.82317 0.67791
 O868 O 0.82030 0.78855 0.71296
 O869 O 0.75017 0.86547 0.80955
 O870 O 0.75068 0.86585 0.69158
 O871 O 0.75088 0.63636 0.69128
 O872 O 0.75056 0.63622 0.80938
 O873 O 0.72572 0.69697 0.74994
 O874 O 0.72557 0.80488 0.75010
 O875 O 0.77307 0.69740 0.74981
 O876 O 0.72451 0.75077 0.80210
 O877 O 0.67853 0.78966 0.78579
 O878 O 0.71124 0.82608 0.81911
 O879 O 0.77471 0.75090 0.80225
 O880 O 0.77466 0.75113 0.69757
 O881 O 0.77294 0.80457 0.74998
 O882 O 0.72448 0.75104 0.69807
 Zr883 Zr 0.74945 0.80161 0.80077
 Zr884 Zr 0.74954 0.70034 0.69916
 Zr885 Zr 0.70232 0.75087 0.75013
 Zr886 Zr 0.74961 0.70010 0.80059
 Zr887 Zr 0.74944 0.80182 0.69932
 Zr888 Zr 0.79661 0.75103 0.74983
 H889 H 0.78423 0.67207 0.74971
 H890 H 0.71233 0.75063 0.82531
 H891 H 0.78405 0.82994 0.74990
 H892 H 0.71229 0.75108 0.67490
 H893 H 0.75152 0.87762 0.78310
 H894 H 0.74369 0.87757 0.71635
 H895 H 0.75164 0.62414 0.78290
 H896 H 0.74400 0.62450 0.71608
 C897 C 0.00170 0.00080 0.24550
 C898 C 0.00161 -0.03613 0.26626
 C899 C 0.00124 -0.03600 0.30719
 C900 C 0.00173 0.00037 0.16803
 C901 C 0.00111 0.03816 0.30681
 C902 C 0.00149 0.03792 0.26586
 C903 C 0.00179 0.00056 0.20334
 C904 C 0.00093 0.00117 0.32801
 H905 H 0.00177 -0.06506 0.25080
 H906 H 0.00114 -0.06505 0.32247
 H907 H 0.00092 0.06733 0.32180
 H908 H 0.00155 0.06670 0.25008
 C909 C 0.25127 0.24954 1.00555
 C910 C 0.25126 0.28648 0.98480
 C911 C 0.25103 0.28638 0.94386
 C912 C 0.25111 0.24984 1.08308
 C913 C 0.25087 0.21223 0.94419
 C914 C 0.25110 0.21243 0.98515
 C915 C 0.25125 0.24971 1.04774
 C916 C 0.25078 0.24923 0.92299
 H917 H 0.25138 0.31539 1.00028
 H918 H 0.25100 0.31544 0.92859
 H919 H 0.25070 0.18307 0.92918
 H920 H 0.25109 0.18364 1.00090
 C921 C 0.12396 0.11978 0.12441
 C922 C 0.11667 0.14861 0.15284
 C923 C 0.13704 0.16869 0.17437
 C924 C 0.08538 0.08296 0.08288
 C925 C 0.17210 0.13068 0.13936
 C926 C 0.15169 0.11068 0.11790
 C927 C 0.10301 0.09973 0.10173
 C928 C 0.16505 0.16017 0.16771
 H929 H 0.09524 0.15582 0.15817
 H930 H 0.13084 0.19118 0.19589
 H931 H 0.19340 0.12333 0.13339
 H932 H 0.15755 0.08835 0.09602
 C933 C 0.37334 0.37407 0.12717
 C934 C 0.36633 0.40324 0.09889
 C935 C 0.38693 0.42366 0.07808
 C936 C 0.33442 0.33518 0.16611
 C937 C 0.42162 0.38570 0.11394
 C938 C 0.40098 0.36535 0.13467
 C939 C 0.35217 0.35296 0.14840
 C940 C 0.41484 0.41510 0.08535
 H941 H 0.34496 0.41017 0.09290
 H942 H 0.38096 0.44614 0.05638
 H943 H 0.44286 0.37835 0.12034
 H944 H 0.40658 0.34279 0.15653
 C945 C 0.37408 0.12625 0.12689
 C946 C 0.40179 0.13401 0.13497
 C947 C 0.42243 0.11341 0.11433
 C948 C 0.33497 0.16531 0.16590
 C949 C 0.38768 0.07707 0.07733
 C950 C 0.36709 0.09774 0.09802
 C951 C 0.35282 0.14752 0.14817
 C952 C 0.41565 0.08464 0.08521
 H953 H 0.40746 0.15601 0.15724
 H954 H 0.44369 0.12003 0.12126
 H955 H 0.38166 0.05518 0.05518
 H956 H 0.34570 0.09147 0.09149
 C957 C 0.12662 0.37717 0.12921
 C958 C 0.13367 0.40499 0.09969
 C959 C 0.11311 0.42445 0.07792
 C960 C 0.16549 0.33879 0.16899
 C961 C 0.07834 0.38818 0.11517
 C962 C 0.09893 0.36879 0.13687
 C963 C 0.14777 0.35657 0.15111
 C964 C 0.08516 0.41626 0.08538
 H965 H 0.15506 0.41159 0.09343
 H966 H 0.11915 0.44590 0.05531
 H967 H 0.05708 0.38116 0.12182
 H968 H 0.09325 0.34721 0.15958
 C969 C 0.37330 0.12702 0.37297
 C970 C 0.36626 0.09938 0.40263
 C971 C 0.38684 0.07909 0.42360
 C972 C 0.33437 0.16546 0.33349
 C973 C 0.42159 0.11416 0.38522
 C974 C 0.40097 0.13438 0.36432
 C975 C 0.35213 0.14790 0.35144
 C976 C 0.41478 0.08624 0.41514
 H977 H 0.34488 0.09350 0.40955
 H978 H 0.38083 0.05782 0.44639
 H979 H 0.44284 0.12036 0.37784
 H980 H 0.40662 0.15573 0.34139
 C981 C 0.12641 0.37671 0.37003
 C982 C 0.13364 0.40410 0.39977
 C983 C 0.11321 0.42358 0.42183
 C984 C 0.16510 0.33830 0.32971
 C985 C 0.07820 0.38822 0.38443
 C986 C 0.09866 0.36883 0.36245
 C987 C 0.14744 0.35606 0.34781
 C988 C 0.08520 0.41584 0.41446
 H989 H 0.15507 0.41036 0.40598
 H990 H 0.11937 0.44468 0.44459
 H991 H 0.05690 0.38157 0.37779
 H992 H 0.09282 0.34761 0.33958
 C993 C 0.12644 0.12266 0.36861
 C994 C 0.13343 0.09490 0.39817
 C995 C 0.11283 0.07590 0.42022
 C996 C 0.16541 0.16071 0.32884
 C997 C 0.07815 0.11248 0.38308
 C998 C 0.09879 0.13140 0.36110
 C999 C 0.14764 0.14302 0.34666
 C1000 C 0.08492 0.08454 0.41299
 H1001 H 0.15480 0.08804 0.40428
 H1002 H 0.11880 0.05447 0.44287
 H1003 H 0.05692 0.11976 0.37658
 H1004 H 0.09319 0.15297 0.33834
 C1005 C 0.37303 0.37361 0.37310
 C1006 C 0.36599 0.40130 0.40269
 C1007 C 0.38657 0.42164 0.42363
 C1008 C 0.33413 0.33494 0.33363
 C1009 C 0.42133 0.38657 0.38539
 C1010 C 0.40072 0.36631 0.36452
 C1011 C 0.35185 0.35261 0.35159
 C1012 C 0.41453 0.41451 0.41524
 H1013 H 0.34461 0.40718 0.40959
 H1014 H 0.38054 0.44291 0.44635
 H1015 H 0.44259 0.38036 0.37804
 H1016 H 0.40641 0.34494 0.34168
 C1017 C 0.49872 -0.00042 0.24680
 C1018 C 0.49847 -0.03730 0.26753
 C1019 C 0.49849 -0.03704 0.30837
 C1020 C 0.49949 -0.00119 0.16970
 C1021 C 0.49890 0.03719 0.30778
 C1022 C 0.49887 0.03681 0.26691
 C1023 C 0.49907 -0.00083 0.20487
 C1024 C 0.49879 0.00024 0.32898
 H1025 H 0.49834 -0.06627 0.25213
 H1026 H 0.49837 -0.06604 0.32373
 H1027 H 0.49911 0.06640 0.32270
 H1028 H 0.49907 0.06551 0.25100
 C1029 C 0.75207 0.24933 1.00410
 C1030 C 0.75182 0.28636 0.98359
 C1031 C 0.75138 0.28636 0.94274
 C1032 C 0.75194 0.24941 1.08121
 C1033 C 0.75155 0.21212 0.94293
 C1034 C 0.75199 0.21224 0.98378
 C1035 C 0.75210 0.24939 1.04604
 C1036 C 0.75117 0.24921 0.92194
 H1037 H 0.75186 0.31522 0.99916
 H1038 H 0.75113 0.31545 0.92753
 H1039 H 0.75144 0.18299 0.92787
 H1040 H 0.75217 0.18343 0.99951
 C1041 C 0.62436 0.12212 0.12313
 C1042 C 0.61717 0.15050 0.15203
 C1043 C 0.63759 0.16954 0.17434
 C1044 C 0.58563 0.08571 0.08139
 C1045 C 0.67251 0.13142 0.13920
 C1046 C 0.65205 0.11245 0.11695
 C1047 C 0.60332 0.10257 0.10014
 C1048 C 0.66556 0.16042 0.16805
 H1049 H 0.59578 0.15807 0.15720
 H1050 H 0.63145 0.19171 0.19619
 H1051 H 0.69378 0.12367 0.13344
 H1052 H 0.65784 0.09038 0.09478
 C1053 C -0.12647 0.37005 0.12393
 C1054 C -0.13372 0.39925 0.09578
 C1055 C -0.11332 0.41944 0.07431
 C1056 C -0.16502 0.33299 0.16545
 C1057 C -0.07833 0.38081 0.10884
 C1058 C -0.09877 0.36069 0.13023
 C1059 C -0.14742 0.34990 0.14658
 C1060 C -0.08533 0.41067 0.08078
 H1061 H -0.15513 0.40665 0.09063
 H1062 H -0.11948 0.44222 0.05301
 H1063 H -0.05704 0.37325 0.11465
 H1064 H -0.09294 0.33806 0.15191
 C1065 C 0.87759 0.12657 0.11965
 C1066 C 0.88468 0.15428 0.14918
 C1067 C 0.86416 0.17353 0.17126
 C1068 C 0.91640 0.08857 0.07917
 C1069 C 0.82933 0.13728 0.13434
 C1070 C 0.84988 0.11812 0.11234
 C1071 C 0.89872 0.10618 0.09737
 C1072 C 0.83619 0.16525 0.16413
 H1073 H 0.90608 0.16098 0.15519
 H1074 H 0.87024 0.19490 0.19384
 H1075 H 0.80806 0.13018 0.12792
 H1076 H 0.84413 0.09663 0.08964
 C1077 C 0.62701 0.37314 0.12739
 C1078 C 0.63405 0.40157 0.09838
 C1079 C 0.61352 0.42067 0.07623
 C1080 C 0.66594 0.33664 0.16895
 C1081 C 0.57876 0.38255 0.11173
 C1082 C 0.59934 0.36351 0.13382
 C1083 C 0.64818 0.35353 0.15026
 C1084 C 0.58557 0.41158 0.08276
 H1085 H 0.65541 0.40915 0.09301
 H1086 H 0.61956 0.44287 0.05429
 H1087 H 0.55752 0.37480 0.11768
 H1088 H 0.59364 0.34142 0.15607
 C1089 C -0.12746 0.13056 0.37485
 C1090 C -0.13443 0.10178 0.40358
 C1091 C -0.11383 0.08184 0.42492
 C1092 C -0.16651 0.16747 0.33380
 C1093 C -0.07912 0.11975 0.38913
 C1094 C -0.09976 0.13962 0.36784
 C1095 C -0.14870 0.15063 0.35244
 C1096 C -0.08587 0.09041 0.41784
 H1097 H -0.15579 0.09454 0.40932
 H1098 H -0.11983 0.05945 0.44670
 H1099 H -0.05787 0.12712 0.38277
 H1100 H -0.09410 0.16188 0.34572
 C1101 C 0.62683 0.37257 0.37365
 C1102 C 0.63385 0.40049 0.40302
 C1103 C 0.61329 0.41965 0.42504
 C1104 C 0.66581 0.33605 0.33229
 C1105 C 0.57854 0.38259 0.38867
 C1106 C 0.59915 0.36350 0.36670
 C1107 C 0.64802 0.35293 0.35091
 C1108 C 0.58533 0.41111 0.41800
 H1109 H 0.65522 0.40762 0.40877
 H1110 H 0.61931 0.44143 0.44729
 H1111 H 0.55729 0.37532 0.38232
 H1112 H 0.59347 0.34182 0.34415
 C1113 C 0.62716 0.12565 0.37330
 C1114 C 0.63403 0.09730 0.40239
 C1115 C 0.61338 0.07869 0.42461
 C1116 C 0.66623 0.16145 0.33189
 C1117 C 0.57890 0.11722 0.38894
 C1118 C 0.59960 0.13577 0.36677
 C1119 C 0.64842 0.14480 0.35050
 C1120 C 0.58552 0.08826 0.41800
 H1121 H 0.65534 0.08943 0.40778
 H1122 H 0.61925 0.05649 0.44663
 H1123 H 0.55771 0.12525 0.38295
 H1124 H 0.59410 0.15785 0.34442
 C1125 C -0.12652 0.36968 0.37729
 C1126 C -0.13372 0.39818 0.40609
 C1127 C -0.11327 0.41838 0.42737
 C1128 C -0.16515 0.33263 0.33601
 C1129 C -0.07831 0.38117 0.39139
 C1130 C -0.09880 0.36105 0.37018
 C1131 C -0.14754 0.34953 0.35481
 C1132 C -0.08527 0.41031 0.42009
 H1133 H -0.15514 0.40503 0.41188
 H1134 H -0.11940 0.44058 0.44920
 H1135 H -0.05702 0.37419 0.38492
 H1136 H -0.09300 0.33900 0.34800
 C1137 C 0.00114 0.50059 0.24678
 C1138 C 0.00111 0.46353 0.26733
 C1139 C 0.00101 0.46342 0.30827
 C1140 C 0.00076 0.50072 0.16935
 C1141 C 0.00105 0.53759 0.30825
 C1142 C 0.00116 0.53759 0.26732
 C1143 C 0.00099 0.50066 0.20464
 C1144 C 0.00091 0.50048 0.32926
 H1145 H 0.00110 0.43470 0.25171
 H1146 H 0.00093 0.43430 0.32341
 H1147 H 0.00101 0.56669 0.32338
 H1148 H 0.00119 0.56646 0.25169
 C1149 C 0.25181 0.75056 1.00326
 C1150 C 0.25175 0.78768 0.98290
 C1151 C 0.25138 0.78785 0.94205
 C1152 C 0.25165 0.75046 1.08033
 C1153 C 0.25122 0.71361 0.94197
 C1154 C 0.25159 0.71356 0.98281
 C1155 C 0.25181 0.75046 1.04517
 C1156 C 0.25105 0.75079 0.92112
 H1157 H 0.25191 0.81647 0.99858
 H1158 H 0.25129 0.81700 0.92695
 H1159 H 0.25100 0.68454 0.92680
 H1160 H 0.25162 0.68468 0.99844
 C1161 C 0.12341 0.62142 0.12511
 C1162 C 0.11636 0.65090 0.15306
 C1163 C 0.13688 0.67094 0.17440
 C1164 C 0.08452 0.58433 0.08406
 C1165 C 0.17167 0.63173 0.14014
 C1166 C 0.15111 0.61175 0.11887
 C1167 C 0.10227 0.60124 0.10270
 C1168 C 0.16485 0.66178 0.16806
 H1169 H 0.09499 0.65861 0.15821
 H1170 H 0.13082 0.69389 0.19555
 H1171 H 0.19292 0.62386 0.13440
 H1172 H 0.15683 0.58894 0.09736
 C1173 C 0.37846 0.87716 0.12255
 C1174 C 0.38512 0.84878 0.15182
 C1175 C 0.36430 0.82859 0.17268
 C1176 C 0.41797 0.91551 0.08304
 C1177 C 0.32991 0.86510 0.13515
 C1178 C 0.35077 0.88523 0.11435
 C1179 C 0.39999 0.89799 0.10102
 C1180 C 0.33637 0.83646 0.16464
 H1181 H 0.40644 0.84220 0.15853
 H1182 H 0.37014 0.80679 0.19507
 H1183 H 0.30871 0.87199 0.12804
 H1184 H 0.34528 0.90710 0.09181
 C1185 C 0.37355 0.62716 0.12702
 C1186 C 0.40122 0.63589 0.13425
 C1187 C 0.42180 0.61549 0.11343
 C1188 C 0.33472 0.66600 0.16629
 C1189 C 0.38700 0.57749 0.07799
 C1190 C 0.36647 0.59796 0.09888
 C1191 C 0.35243 0.64826 0.14844
 C1192 C 0.41495 0.58603 0.08501
 H1193 H 0.40690 0.65846 0.15599
 H1194 H 0.44306 0.62284 0.11966
 H1195 H 0.38097 0.55498 0.05642
 H1196 H 0.34507 0.59100 0.09308
 C1197 C 0.12404 0.88045 0.12459
 C1198 C 0.11690 0.85127 0.15281
 C1199 C 0.13736 0.83150 0.17443
 C1200 C 0.08530 0.91672 0.08298
 C1201 C 0.17221 0.87051 0.13992
 C1202 C 0.15169 0.89022 0.11836
 C1203 C 0.10300 0.90016 0.10186
 C1204 C 0.16530 0.84067 0.16805
 H1205 H 0.09552 0.84357 0.15790
 H1206 H 0.13127 0.80869 0.19576
 H1207 H 0.19347 0.87834 0.13418
 H1208 H 0.15742 0.91285 0.09662
 C1209 C 0.37331 0.62715 0.37332
 C1210 C 0.36620 0.59944 0.40292
 C1211 C 0.38672 0.57884 0.42378
 C1212 C 0.33452 0.66620 0.33396
 C1213 C 0.42157 0.61369 0.38543
 C1214 C 0.40102 0.63421 0.36464
 C1215 C 0.35220 0.64838 0.35188
 C1216 C 0.41469 0.58573 0.41530
 H1217 H 0.34480 0.59375 0.40988
 H1218 H 0.38065 0.55756 0.44653
 H1219 H 0.44284 0.61971 0.37801
 H1220 H 0.40674 0.65558 0.34177
 C1221 C 0.12655 -0.12158 0.36922
 C1222 C 0.13357 -0.09361 0.39855
 C1223 C 0.11299 -0.07433 0.42045
 C1224 C 0.16551 -0.15989 0.32942
 C1225 C 0.07825 -0.11099 0.38369
 C1226 C 0.09886 -0.13020 0.36186
 C1227 C 0.14774 -0.14213 0.34728
 C1228 C 0.08505 -0.08284 0.41335
 H1229 H 0.15495 -0.08679 0.40457
 H1230 H 0.11901 -0.05276 0.44290
 H1231 H 0.05700 -0.11822 0.37728
 H1232 H 0.09319 -0.15188 0.33930
 C1233 C 0.12668 0.62355 0.36989
 C1234 C 0.13380 0.59569 0.39937
 C1235 C 0.11330 0.57615 0.42130
 C1236 C 0.16549 0.66225 0.32992
 C1237 C 0.07841 0.61232 0.38428
 C1238 C 0.09894 0.63177 0.36242
 C1239 C 0.14779 0.64434 0.34787
 C1240 C 0.08531 0.58429 0.41408
 H1241 H 0.15521 0.58914 0.40549
 H1242 H 0.11940 0.55471 0.44387
 H1243 H 0.05713 0.61928 0.37775
 H1244 H 0.09317 0.65333 0.33975
 C1245 C 0.37325 -0.12526 0.37283
 C1246 C 0.36615 -0.09696 0.40183
 C1247 C 0.38668 -0.07664 0.42279
 C1248 C 0.33448 -0.16398 0.33350
 C1249 C 0.42150 -0.11296 0.38568
 C1250 C 0.40093 -0.13320 0.36479
 C1251 C 0.35215 -0.14628 0.35139
 C1252 C 0.41463 -0.08444 0.41499
 H1253 H 0.34475 -0.09062 0.40825
 H1254 H 0.38063 -0.05487 0.44506
 H1255 H 0.44277 -0.11967 0.37880
 H1256 H 0.40663 -0.15505 0.34237
 C1257 C 0.49814 0.50029 0.24680
 C1258 C 0.49824 0.46318 0.26718
 C1259 C 0.49843 0.46300 0.30805
 C1260 C 0.49868 0.50046 0.16967
 C1261 C 0.49832 0.53723 0.30813
 C1262 C 0.49813 0.53729 0.26727
 C1263 C 0.49835 0.50041 0.20485
 C1264 C 0.49856 0.50006 0.32900
 H1265 H 0.49827 0.43438 0.25150
 H1266 H 0.49858 0.43385 0.32315
 H1267 H 0.49837 0.56630 0.32330
 H1268 H 0.49806 0.56617 0.25165
 C1269 C 0.75164 0.75036 1.00322
 C1270 C 0.75154 0.78746 0.98282
 C1271 C 0.75126 0.78759 0.94197
 C1272 C 0.75126 0.75039 1.08032
 C1273 C 0.75129 0.71335 0.94194
 C1274 C 0.75157 0.71334 0.98280
 C1275 C 0.75152 0.75033 1.04515
 C1276 C 0.75105 0.75051 0.92106
 H1277 H 0.75158 0.81626 0.99848
 H1278 H 0.75112 0.81673 0.92685
 H1279 H 0.75118 0.68427 0.92679
 H1280 H 0.75164 0.68448 0.99845
 C1281 C 0.62345 0.62409 0.12283
 C1282 C 0.61633 0.65336 0.15094
 C1283 C 0.63677 0.67235 0.17322
 C1284 C 0.58473 0.58772 0.08122
 C1285 C 0.67153 0.63241 0.13963
 C1286 C 0.65105 0.61348 0.11741
 C1287 C 0.60241 0.60458 0.09990
 C1288 C 0.66466 0.66228 0.16768
 H1289 H 0.59500 0.66166 0.15549
 H1290 H 0.63070 0.69526 0.19442
 H1291 H 0.69275 0.62392 0.13449
 H1292 H 0.65677 0.59071 0.09586
 C1293 C 0.87707 0.87328 0.11883
 C1294 C 0.88394 0.84458 0.14765
 C1295 C 0.86330 0.82544 0.16957
 C1296 C 0.91620 0.91120 0.07884
 C1297 C 0.82873 0.86371 0.13390
 C1298 C 0.84942 0.88279 0.11203
 C1299 C 0.89837 0.89361 0.09680
 C1300 C 0.83539 0.83480 0.16301
 H1301 H 0.90528 0.83704 0.15325
 H1302 H 0.86922 0.80326 0.19159
 H1303 H 0.80752 0.87165 0.12794
 H1304 H 0.84385 0.90505 0.08988
 C1305 C 0.87662 0.62799 0.11943
 C1306 C 0.88368 0.65694 0.14784
 C1307 C 0.86316 0.67624 0.16980
 C1308 C 0.91543 0.58971 0.07949
 C1309 C 0.82842 0.63759 0.13493
 C1310 C 0.84897 0.61836 0.11304
 C1311 C 0.89774 0.60748 0.09742
 C1312 C 0.83525 0.66676 0.16364
 H1313 H 0.90505 0.66453 0.15308
 H1314 H 0.86919 0.69862 0.19151
 H1315 H 0.80719 0.62957 0.12930
 H1316 H 0.84329 0.59590 0.09120
 C1317 C 0.62275 0.87651 0.12161
 C1318 C 0.61584 0.84767 0.15032
 C1319 C 0.63643 0.82893 0.17265
 C1320 C 0.58367 0.91271 0.08001
 C1321 C 0.67100 0.86816 0.13791
 C1322 C 0.65036 0.88685 0.11564
 C1323 C 0.60149 0.89590 0.09869
 C1324 C 0.66433 0.83878 0.16661
 H1325 H 0.59453 0.83954 0.15535
 H1326 H 0.63048 0.80641 0.19433
 H1327 H 0.69220 0.87648 0.13233
 H1328 H 0.65597 0.90926 0.09363
 C1329 C -0.12670 0.63043 0.37622
 C1330 C -0.13382 0.60151 0.40474
 C1331 C -0.11333 0.58135 0.42609
 C1332 C -0.16551 0.66761 0.33506
 C1333 C -0.07845 0.61935 0.39068
 C1334 C -0.09899 0.63943 0.36940
 C1335 C -0.14780 0.65066 0.35377
 C1336 C -0.08534 0.58986 0.41918
 H1337 H -0.15522 0.59432 0.41031
 H1338 H -0.11943 0.55884 0.44770
 H1339 H -0.05718 0.62668 0.38448
 H1340 H -0.09322 0.66179 0.34743
 C1341 C 0.62650 -0.12562 0.37272
 C1342 C 0.63357 -0.09719 0.40159
 C1343 C 0.61308 -0.07843 0.42397
 C1344 C 0.66532 -0.16163 0.33098
 C1345 C 0.57834 -0.11695 0.38894
 C1346 C 0.59888 -0.13564 0.36662
 C1347 C 0.64760 -0.14492 0.34973
 C1348 C 0.58517 -0.08791 0.41777
 H1349 H 0.65492 -0.08938 0.40666
 H1350 H 0.61910 -0.05617 0.44579
 H1351 H 0.55711 -0.12493 0.38326
 H1352 H 0.59321 -0.15777 0.34445
 C1353 C 0.62663 0.62686 0.37309
 C1354 C 0.63373 0.59806 0.40170
 C1355 C 0.61326 0.57887 0.42389
 C1356 C 0.66540 0.66360 0.33157
 C1357 C 0.57846 0.61765 0.38916
 C1358 C 0.59897 0.63676 0.36703
 C1359 C 0.64770 0.64660 0.35024
 C1360 C 0.58532 0.58828 0.41776
 H1361 H 0.65510 0.59029 0.40674
 H1362 H 0.61933 0.55638 0.44552
 H1363 H 0.55721 0.62561 0.38352
 H1364 H 0.59324 0.65914 0.34507
 C1365 C -0.12693 -0.12869 0.37569
 C1366 C -0.13404 -0.09968 0.40404
 C1367 C -0.11355 -0.07972 0.42539
 C1368 C -0.16570 -0.16542 0.33450
 C1369 C -0.07871 -0.11815 0.39036
 C1370 C -0.09925 -0.13805 0.36907
 C1371 C -0.14800 -0.14865 0.35322
 C1372 C -0.08559 -0.08852 0.41864
 H1373 H -0.15543 -0.09227 0.40943
 H1374 H -0.11962 -0.05708 0.44685
 H1375 H -0.05744 -0.12569 0.38431
 H1376 H -0.09353 -0.16052 0.34723
 C1377 C 0.00095 0.00014 0.75411
 C1378 C 0.00083 0.03726 0.73363
 C1379 C 0.00057 0.03751 0.69266
 C1380 C 0.00103 -0.00022 0.83167
 C1381 C 0.00058 -0.03663 0.69245
 C1382 C 0.00084 -0.03677 0.73341
 C1383 C 0.00104 -0.00007 0.79632
 C1384 C 0.00040 0.00054 0.67151
 H1385 H 0.00090 0.06604 0.74933
 H1386 H 0.00046 0.06669 0.67760
 H1387 H 0.00048 -0.06567 0.67724
 H1388 H 0.00093 -0.06570 0.74893
 C1389 C 0.25095 0.24958 0.49692
 C1390 C 0.25052 0.21250 0.51745
 C1391 C 0.25048 0.21234 0.55841
 C1392 C 0.25058 0.24984 0.41942
 C1393 C 0.25135 0.28648 0.55847
 C1394 C 0.25139 0.28654 0.51753
 C1395 C 0.25079 0.24971 0.45474
 C1396 C 0.25084 0.24936 0.57947
 H1397 H 0.25017 0.18370 0.50180
 H1398 H 0.25007 0.18320 0.57352
 H1399 H 0.25165 0.31555 0.57363
 H1400 H 0.25172 0.31543 0.50194
 C1401 C 0.12308 0.12026 0.62647
 C1402 C 0.11603 0.14751 0.65642
 C1403 C 0.13660 0.16720 0.67792
 C1404 C 0.08416 0.08408 0.58494
 C1405 C 0.17139 0.13194 0.63988
 C1406 C 0.15078 0.11234 0.61844
 C1407 C 0.10191 0.10061 0.60381
 C1408 C 0.16456 0.15988 0.66973
 H1409 H 0.09464 0.15379 0.66296
 H1410 H 0.13056 0.18844 0.70067
 H1411 H 0.19265 0.12558 0.63268
 H1412 H 0.15647 0.09123 0.59537
 C1413 C 0.37314 0.37320 0.62769
 C1414 C 0.36603 0.40068 0.59790
 C1415 C 0.38655 0.42118 0.57688
 C1416 C 0.33436 0.33421 0.66726
 C1417 C 0.42139 0.38669 0.61546
 C1418 C 0.40085 0.36628 0.63640
 C1419 C 0.35204 0.35201 0.64927
 C1420 C 0.41451 0.41441 0.58539
 H1421 H 0.34463 0.40626 0.59091
 H1422 H 0.38048 0.44227 0.55399
 H1423 H 0.44266 0.38075 0.62292
 H1424 H 0.40658 0.34508 0.65941
 C1425 C 0.37322 0.12651 0.62751
 C1426 C 0.40087 0.13268 0.63699
 C1427 C 0.42145 0.11254 0.61597
 C1428 C 0.33438 0.16484 0.66724
 C1429 C 0.38672 0.07990 0.57582
 C1430 C 0.36617 0.10013 0.59690
 C1431 C 0.35209 0.14733 0.64918
 C1432 C 0.41463 0.08586 0.58511
 H1433 H 0.40652 0.15305 0.66065
 H1434 H 0.44269 0.11779 0.62403
 H1435 H 0.38072 0.05965 0.55227
 H1436 H 0.34480 0.09519 0.58934
 C1437 C 0.12653 0.37654 0.63105
 C1438 C 0.13364 0.40288 0.60033
 C1439 C 0.11313 0.42244 0.57854
 C1440 C 0.16533 0.33797 0.67090
 C1441 C 0.07826 0.38927 0.61817
 C1442 C 0.09881 0.36979 0.63990
 C1443 C 0.14763 0.35581 0.65300
 C1444 C 0.08515 0.41584 0.58716
 H1445 H 0.15505 0.40823 0.59314
 H1446 H 0.11922 0.44267 0.55494
 H1447 H 0.05699 0.38354 0.62578
 H1448 H 0.09306 0.34939 0.66356
 C1449 C 0.37708 0.12239 0.87779
 C1450 C 0.38396 0.15091 0.84880
 C1451 C 0.36329 0.17138 0.82810
 C1452 C 0.41625 0.08347 0.91673
 C1453 C 0.32868 0.13483 0.86538
 C1454 C 0.34940 0.11442 0.88602
 C1455 C 0.39840 0.10123 0.89902
 C1456 C 0.33535 0.16357 0.83610
 H1457 H 0.40532 0.15734 0.84217
 H1458 H 0.36923 0.19331 0.80586
 H1459 H 0.30745 0.12806 0.87243
 H1460 H 0.34382 0.09242 0.90841
 C1461 C 0.12302 0.37973 0.87394
 C1462 C 0.15068 0.38886 0.88087
 C1463 C 0.17128 0.36867 0.85992
 C1464 C 0.08417 0.41691 0.91459
 C1465 C 0.13654 0.33040 0.82465
 C1466 C 0.11598 0.35066 0.84566
 C1467 C 0.10189 0.39996 0.89608
 C1468 C 0.16447 0.33899 0.83170
 H1469 H 0.15633 0.41138 0.90269
 H1470 H 0.19253 0.37604 0.86619
 H1471 H 0.13053 0.30774 0.80320
 H1472 H 0.09460 0.34344 0.84005
 C1473 C 0.12260 0.11852 0.87404
 C1474 C 0.11573 0.14664 0.84471
 C1475 C 0.13642 0.16681 0.82376
 C1476 C 0.08343 0.08148 0.91463
 C1477 C 0.17100 0.13037 0.86116
 C1478 C 0.15026 0.11027 0.88205
 C1479 C 0.10128 0.09838 0.89614
 C1480 C 0.16435 0.15912 0.83189
 H1481 H 0.09438 0.15321 0.83821
 H1482 H 0.13051 0.18869 0.80146
 H1483 H 0.19222 0.12370 0.86829
 H1484 H 0.15581 0.08851 0.90466
 C1485 C 0.37653 0.37612 0.87799
 C1486 C 0.34882 0.38385 0.88613
 C1487 C 0.32824 0.36336 0.86541
 C1488 C 0.41543 0.41520 0.91701
 C1489 C 0.36306 0.32719 0.82823
 C1490 C 0.38360 0.34775 0.84902
 C1491 C 0.39768 0.39737 0.89928
 C1492 C 0.33509 0.33478 0.83613
 H1493 H 0.34311 0.40574 0.90851
 H1494 H 0.30697 0.36995 0.87238
 H1495 H 0.36912 0.30539 0.80599
 H1496 H 0.40500 0.34152 0.84248
 C1497 C 0.49811 -0.00086 0.75363
 C1498 C 0.49755 0.03635 0.73338
 C1499 C 0.49762 0.03673 0.69250
 C1500 C 0.49895 -0.00149 0.83080
 C1501 C 0.49867 -0.03747 0.69211
 C1502 C 0.49859 -0.03773 0.73297
 C1503 C 0.49848 -0.00122 0.79561
 C1504 C 0.49828 -0.00021 0.67137
 H1505 H 0.49717 0.06506 0.74920
 H1506 H 0.49726 0.06593 0.67751
 H1507 H 0.49916 -0.06647 0.67683
 H1508 H 0.49903 -0.06669 0.74845
 C1509 C 0.75154 0.24875 0.49733
 C1510 C 0.75175 0.21174 0.51790
 C1511 C 0.75136 0.21176 0.55878
 C1512 C 0.75155 0.24871 0.42012
 C1513 C 0.75061 0.28597 0.55854
 C1514 C 0.75101 0.28583 0.51766
 C1515 C 0.75163 0.24869 0.45533
 C1516 C 0.75073 0.24891 0.57959
 H1517 H 0.75216 0.18288 0.50235
 H1518 H 0.75150 0.18268 0.57401
 H1519 H 0.75015 0.31510 0.57357
 H1520 H 0.75082 0.31464 0.50193
 C1521 C 0.62303 0.12292 0.62371
 C1522 C 0.61586 0.14974 0.65394
 C1523 C 0.63633 0.16850 0.67629
 C1524 C 0.58431 0.08712 0.58185
 C1525 C 0.67123 0.13311 0.63850
 C1526 C 0.65072 0.11443 0.61622
 C1527 C 0.60198 0.10373 0.60067
 C1528 C 0.66430 0.16062 0.66866
 H1529 H 0.59445 0.15632 0.66009
 H1530 H 0.63024 0.18947 0.69922
 H1531 H 0.69251 0.12639 0.63171
 H1532 H 0.65646 0.09355 0.59299
 C1533 C -0.12724 0.37003 0.62439
 C1534 C -0.13417 0.39765 0.59464
 C1535 C -0.11353 0.41782 0.57357
 C1536 C -0.16627 0.33300 0.66525
 C1537 C -0.07887 0.38237 0.61167
 C1538 C -0.09956 0.36228 0.63268
 C1539 C -0.14849 0.34989 0.64662
 C1540 C -0.08559 0.41063 0.58200
 H1541 H -0.15554 0.40383 0.58791
 H1542 H -0.11949 0.43928 0.55094
 H1543 H -0.05764 0.37608 0.61905
 H1544 H -0.09394 0.34092 0.65561
 C1545 C 0.87625 0.12772 0.61974
 C1546 C 0.88328 0.15376 0.65062
 C1547 C 0.86270 0.17275 0.67269
 C1548 C 0.91514 0.08988 0.57967
 C1549 C 0.82796 0.13956 0.63299
 C1550 C 0.84858 0.12065 0.61098
 C1551 C 0.89741 0.10746 0.59764
 C1552 C 0.83476 0.16583 0.66416
 H1553 H 0.90467 0.15930 0.65773
 H1554 H 0.86870 0.19278 0.69641
 H1555 H 0.80670 0.13364 0.62546
 H1556 H 0.84293 0.10044 0.58720
 C1557 C 0.62608 0.37258 0.62761
 C1558 C 0.63336 0.39990 0.59777
 C1559 C 0.61297 0.41907 0.57547
 C1560 C 0.66468 0.33603 0.66938
 C1561 C 0.57793 0.38316 0.61256
 C1562 C 0.59835 0.36407 0.63478
 C1563 C 0.64705 0.35294 0.65061
 C1564 C 0.58496 0.41112 0.58276
 H1565 H 0.65479 0.40654 0.59186
 H1566 H 0.61915 0.44040 0.55283
 H1567 H 0.55662 0.37634 0.61910
 H1568 H 0.59250 0.34283 0.65771
 C1569 C 0.87696 0.12725 0.87986
 C1570 C 0.88373 0.15467 0.84989
 C1571 C 0.86297 0.17379 0.82834
 C1572 C 0.91621 0.08912 0.91884
 C1573 C 0.82855 0.13804 0.86678
 C1574 C 0.84937 0.11898 0.88827
 C1575 C 0.89833 0.10684 0.90134
 C1576 C 0.83510 0.16565 0.83648
 H1577 H 0.90505 0.16115 0.84308
 H1578 H 0.86878 0.19491 0.80532
 H1579 H 0.80736 0.13115 0.87396
 H1580 H 0.84394 0.09770 0.91136
 C1581 C 0.62300 0.37565 0.87774
 C1582 C 0.65061 0.38573 0.88367
 C1583 C 0.67109 0.36674 0.86151
 C1584 C 0.58436 0.41227 0.91913
 C1585 C 0.63627 0.32780 0.82704
 C1586 C 0.61584 0.34687 0.84926
 C1587 C 0.60200 0.39527 0.90053
 C1588 C 0.66418 0.33735 0.83306
 H1589 H 0.65633 0.40814 0.90554
 H1590 H 0.69233 0.37479 0.86702
 H1591 H 0.63020 0.30528 0.80550
 H1592 H 0.59447 0.33902 0.84436
 C1593 C 0.62267 0.12091 0.87833
 C1594 C 0.61560 0.14905 0.84904
 C1595 C 0.63612 0.16848 0.82700
 C1596 C 0.58372 0.08373 0.91971
 C1597 C 0.67098 0.13139 0.86315
 C1598 C 0.65043 0.11203 0.88514
 C1599 C 0.60149 0.10089 0.90109
 C1600 C 0.66413 0.16005 0.83386
 H1601 H 0.59421 0.15611 0.84334
 H1602 H 0.63001 0.19035 0.80481
 H1603 H 0.69226 0.12416 0.86941
 H1604 H 0.65621 0.09023 0.90760
 C1605 C 0.87617 0.37296 0.88028
 C1606 C 0.84846 0.38132 0.88788
 C1607 C 0.82788 0.36185 0.86627
 C1608 C 0.91510 0.41162 0.91973
 C1609 C 0.86268 0.32544 0.82928
 C1610 C 0.88323 0.34498 0.85096
 C1611 C 0.89734 0.39374 0.90202
 C1612 C 0.83472 0.33369 0.83661
 H1613 H 0.84276 0.40300 0.91044
 H1614 H 0.80661 0.36889 0.87285
 H1615 H 0.86874 0.30388 0.80682
 H1616 H 0.90462 0.33834 0.84476
 C1617 C 0.00078 0.50016 0.75540
 C1618 C 0.00058 0.53716 0.73472
 C1619 C 0.00051 0.53719 0.69375
 C1620 C 0.00046 0.50027 0.83301
 C1621 C 0.00089 0.46306 0.69387
 C1622 C 0.00097 0.46313 0.73485
 C1623 C 0.00065 0.50020 0.79764
 C1624 C 0.00061 0.50012 0.67275
 H1625 H 0.00044 0.56602 0.75028
 H1626 H 0.00031 0.56629 0.67857
 H1627 H 0.00100 0.43394 0.67878
 H1628 H 0.00112 0.43428 0.75051
 C1629 C 0.25126 0.75167 0.49646
 C1630 C 0.25051 0.71456 0.51685
 C1631 C 0.25032 0.71436 0.55772
 C1632 C 0.25100 0.75181 0.41926
 C1633 C 0.25171 0.78855 0.55787
 C1634 C 0.25190 0.78863 0.51699
 C1635 C 0.25117 0.75179 0.45446
 C1636 C 0.25087 0.75138 0.57873
 H1637 H 0.25000 0.68579 0.50115
 H1638 H 0.24966 0.68522 0.57280
 H1639 H 0.25218 0.81760 0.57306
 H1640 H 0.25248 0.81752 0.50140
 C1641 C 0.12318 0.62074 0.62657
 C1642 C 0.11603 0.64893 0.65564
 C1643 C 0.13652 0.66915 0.67679
 C1644 C 0.08445 0.58363 0.58563
 C1645 C 0.17141 0.63257 0.64008
 C1646 C 0.15088 0.61244 0.61899
 C1647 C 0.10211 0.60055 0.60426
 C1648 C 0.16450 0.66141 0.66909
 H1649 H 0.09462 0.65551 0.66178
 H1650 H 0.13043 0.69110 0.69889
 H1651 H 0.19269 0.62585 0.63328
 H1652 H 0.15663 0.59061 0.59658
 C1653 C 0.37633 0.87773 0.62329
 C1654 C 0.38338 0.85102 0.65371
 C1655 C 0.36283 0.83060 0.67462
 C1656 C 0.41519 0.91621 0.58385
 C1657 C 0.32811 0.86372 0.63468
 C1658 C 0.34869 0.88406 0.61383
 C1659 C 0.39745 0.89866 0.60179
 C1660 C 0.33493 0.83671 0.66533
 H1661 H 0.40475 0.84597 0.66124
 H1662 H 0.36883 0.81009 0.69803
 H1663 H 0.30687 0.86909 0.62665
 H1664 H 0.34306 0.90469 0.59031
 C1665 C 0.37314 0.62707 0.62691
 C1666 C 0.40083 0.63381 0.63582
 C1667 C 0.42141 0.61324 0.61510
 C1668 C 0.33429 0.66620 0.66613
 C1669 C 0.38662 0.57896 0.57637
 C1670 C 0.36607 0.59961 0.59716
 C1671 C 0.35200 0.64836 0.64828
 C1672 C 0.41457 0.58556 0.58507
 H1673 H 0.40653 0.65498 0.65881
 H1674 H 0.44266 0.61904 0.62269
 H1675 H 0.38057 0.55791 0.55350
 H1676 H 0.34468 0.59416 0.59002
 C1677 C 0.12292 0.88108 0.62627
 C1678 C 0.11586 0.85290 0.65548
 C1679 C 0.13642 0.83293 0.67680
 C1680 C 0.08404 0.91769 0.58499
 C1681 C 0.17120 0.86972 0.64002
 C1682 C 0.15060 0.88962 0.61876
 C1683 C 0.10177 0.90098 0.60377
 C1684 C 0.16438 0.84089 0.66914
 H1685 H 0.09447 0.84613 0.66158
 H1686 H 0.13039 0.81097 0.69896
 H1687 H 0.19247 0.87660 0.63326
 H1688 H 0.15629 0.91143 0.59625
 C1689 C 0.37662 0.62420 0.87705
 C1690 C 0.38364 0.65264 0.84805
 C1691 C 0.36307 0.67311 0.82716
 C1692 C 0.41557 0.58525 0.91634
 C1693 C 0.32830 0.63671 0.86428
 C1694 C 0.34891 0.61631 0.88511
 C1695 C 0.39781 0.60303 0.89848
 C1696 C 0.33510 0.66537 0.83498
 H1697 H 0.40503 0.65899 0.84157
 H1698 H 0.36910 0.69498 0.80491
 H1699 H 0.30703 0.63000 0.87120
 H1700 H 0.34322 0.59437 0.90750
 C1701 C 0.12240 0.88075 0.87389
 C1702 C 0.15009 0.88900 0.88172
 C1703 C 0.17080 0.86900 0.86068
 C1704 C 0.08328 0.91785 0.91463
 C1705 C 0.13617 0.83262 0.82348
 C1706 C 0.11551 0.85269 0.84458
 C1707 C 0.10110 0.90091 0.89609
 C1708 C 0.16412 0.84035 0.83140
 H1709 H 0.15569 0.91070 0.90430
 H1710 H 0.19203 0.87572 0.86767
 H1711 H 0.13023 0.81082 0.80120
 H1712 H 0.09414 0.84610 0.83819
 C1713 C 0.12303 0.62034 0.87289
 C1714 C 0.11598 0.64854 0.84375
 C1715 C 0.13654 0.66871 0.82264
 C1716 C 0.08417 0.58361 0.91392
 C1717 C 0.17130 0.63200 0.85952
 C1718 C 0.15069 0.61191 0.88057
 C1719 C 0.10190 0.60035 0.89523
 C1720 C 0.16448 0.66089 0.83048
 H1721 H 0.09459 0.65519 0.83756
 H1722 H 0.13053 0.69070 0.80050
 H1723 H 0.19256 0.62525 0.86639
 H1724 H 0.15634 0.59006 0.90306
 C1725 C 0.37690 0.87611 0.87731
 C1726 C 0.34926 0.88353 0.88615
 C1727 C 0.32850 0.86362 0.86525
 C1728 C 0.41613 0.91406 0.91669
 C1729 C 0.36304 0.82869 0.82648
 C1730 C 0.38374 0.84867 0.84743
 C1731 C 0.39824 0.89671 0.89880
 C1732 C 0.33513 0.83593 0.83512
 H1733 H 0.34373 0.90472 0.90923
 H1734 H 0.30728 0.86988 0.87280
 H1735 H 0.36894 0.80760 0.80353
 H1736 H 0.40509 0.84271 0.84032
 C1737 C 0.49794 0.49967 0.75359
 C1738 C 0.49738 0.53671 0.73309
 C1739 C 0.49754 0.53677 0.69222
 C1740 C 0.49855 0.49979 0.83075
 C1741 C 0.49870 0.46256 0.69233
 C1742 C 0.49854 0.46262 0.73320
 C1743 C 0.49819 0.49971 0.79556
 C1744 C 0.49830 0.49967 0.67135
 H1745 H 0.49691 0.56554 0.74869
 H1746 H 0.49716 0.56587 0.67705
 H1747 H 0.49927 0.43347 0.67723
 H1748 H 0.49898 0.43380 0.74889
 C1749 C 0.75132 0.75161 0.49644
 C1750 C 0.75133 0.71452 0.51688
 C1751 C 0.75108 0.71438 0.55775
 C1752 C 0.75103 0.75162 0.41922
 C1753 C 0.75090 0.78860 0.55780
 C1754 C 0.75115 0.78862 0.51692
 C1755 C 0.75124 0.75166 0.45443
 C1756 C 0.75079 0.75144 0.57871
 H1757 H 0.75145 0.68571 0.50122
 H1758 H 0.75103 0.68524 0.57287
 H1759 H 0.75072 0.81767 0.57296
 H1760 H 0.75114 0.81749 0.50129
 C1761 C 0.62304 0.62397 0.62311
 C1762 C 0.61586 0.65197 0.65236
 C1763 C 0.63631 0.67120 0.67446
 C1764 C 0.58436 0.58717 0.58168
 C1765 C 0.67122 0.63404 0.63835
 C1766 C 0.65074 0.61490 0.61632
 C1767 C 0.60200 0.60421 0.60032
 C1768 C 0.66428 0.66263 0.66759
 H1769 H 0.59445 0.65909 0.65797
 H1770 H 0.63019 0.69304 0.69663
 H1771 H 0.69250 0.62672 0.63215
 H1772 H 0.65652 0.59315 0.59386
 C1773 C 0.87615 0.87397 0.61948
 C1774 C 0.88321 0.84680 0.64952
 C1775 C 0.86266 0.82746 0.67139
 C1776 C 0.91504 0.91232 0.57974
 C1777 C 0.82787 0.86251 0.63315
 C1778 C 0.84847 0.88178 0.61134
 C1779 C 0.89730 0.89455 0.59757
 C1780 C 0.83471 0.83514 0.66351
 H1781 H 0.90461 0.84065 0.65612
 H1782 H 0.86870 0.80653 0.69444
 H1783 H 0.80661 0.86906 0.62615
 H1784 H 0.84279 0.90285 0.58821
 C1785 C 0.87649 0.62826 0.61982
 C1786 C 0.88348 0.65546 0.64980
 C1787 C 0.86287 0.67489 0.67149
 C1788 C 0.91545 0.58961 0.58046
 C1789 C 0.82817 0.63989 0.63318
 C1790 C 0.84882 0.62054 0.61155
 C1791 C 0.89770 0.60753 0.59813
 C1792 C 0.83493 0.66726 0.66350
 H1793 H 0.90486 0.66156 0.65651
 H1794 H 0.86885 0.69581 0.69451
 H1795 H 0.80692 0.63337 0.62609
 H1796 H 0.84319 0.59945 0.58847
 C1797 C 0.62277 0.87668 0.62315
 C1798 C 0.61570 0.84903 0.65278
 C1799 C 0.63624 0.83029 0.67505
 C1800 C 0.58400 0.91268 0.58157
 C1801 C 0.67097 0.86734 0.63833
 C1802 C 0.65039 0.88600 0.61613
 C1803 C 0.60168 0.89593 0.60027
 C1804 C 0.66415 0.83904 0.66791
 H1805 H 0.59433 0.84181 0.65854
 H1806 H 0.63025 0.80865 0.69752
 H1807 H 0.69221 0.87474 0.63194
 H1808 H 0.65603 0.90754 0.59335
 C1809 C 0.87642 0.62783 0.87962
 C1810 C 0.88348 0.65531 0.84982
 C1811 C 0.86292 0.67473 0.82803
 C1812 C 0.91526 0.58937 0.91930
 C1813 C 0.82814 0.63911 0.86589
 C1814 C 0.84873 0.61978 0.88760
 C1815 C 0.89755 0.60719 0.90147
 C1816 C 0.83497 0.66680 0.83577
 H1817 H 0.90487 0.66166 0.84334
 H1818 H 0.86894 0.69590 0.80518
 H1819 H 0.80688 0.63236 0.87278
 H1820 H 0.84306 0.59847 0.91055
 C1821 C 0.62243 0.87664 0.87797
 C1822 C 0.65011 0.88600 0.88464
 C1823 C 0.67073 0.86726 0.86237
 C1824 C 0.58346 0.91288 0.91977
 C1825 C 0.63602 0.82991 0.82623
 C1826 C 0.61545 0.84873 0.84856
 C1827 C 0.60122 0.89606 0.90097
 C1828 C 0.66397 0.83878 0.83297
 H1829 H 0.65579 0.90768 0.90720
 H1830 H 0.69197 0.87479 0.86852
 H1831 H 0.63001 0.80814 0.80396
 H1832 H 0.59409 0.84136 0.84299
 C1833 C 0.62326 0.62353 0.87672
 C1834 C 0.61608 0.65154 0.84747
 C1835 C 0.63653 0.67065 0.82525
 C1836 C 0.58457 0.58716 0.91837
 C1837 C 0.67142 0.63326 0.86124
 C1838 C 0.65092 0.61422 0.88339
 C1839 C 0.60223 0.60400 0.89963
 C1840 C 0.66448 0.66192 0.83204
 H1841 H 0.59468 0.65878 0.84197
 H1842 H 0.63043 0.69256 0.80309
 H1843 H 0.69269 0.62585 0.86736
 H1844 H 0.65667 0.59242 0.90587
 C1845 C 0.87672 0.87341 0.87924
 C1846 C 0.84908 0.88154 0.88753
 C1847 C 0.82833 0.86242 0.86598
 C1848 C 0.91594 0.91140 0.91850
 C1849 C 0.86287 0.82688 0.82770
 C1850 C 0.88357 0.84607 0.84930
 C1851 C 0.89805 0.89380 0.90087
 C1852 C 0.83497 0.83486 0.83574
 H1853 H 0.84356 0.90276 0.91059
 H1854 H 0.80711 0.86921 0.87310
 H1855 H 0.86876 0.80581 0.80474
 H1856 H 0.90492 0.83966 0.84257
   
