data_POSCAR
  _audit_creation_date              2014-09-24
  _audit_creation_method            'ToBaCCo'
  _symmetry_space_group_name_H-M    'P1'
  _symmetry_Int_Tables_number       1
  _symmetry_cell_setting            triclinic
  loop_
  _symmetry_equiv_pos_as_xyz
 x,y,z
_cell_length_a 73.4727
_cell_length_b 73.9440
_cell_length_c 73.1710
_cell_angle_alpha 90.333500
_cell_angle_beta 89.291900
_cell_angle_gamma 90.564900
loop_
  _atom_site_label
  _atom_site_type_symbol
  _atom_site_fract_x
  _atom_site_fract_y
  _atom_site_fract_z
C1 C 0.37073 0.34124 0.34295
 C2 C 0.35738 0.33935 0.35666
 C3 C 0.34413 0.35236 0.35911
 C4 C 0.34398 0.36753 0.34751
 C5 C 0.35729 0.36930 0.33405
 C6 C 0.37068 0.35617 0.33180
 C7 C 0.38574 0.33116 0.33809
 N8 N 0.39478 0.33976 0.32429
 C9 C 0.38556 0.35505 0.32034
 C10 C 0.35447 0.38522 0.32516
 N11 N 0.33968 0.39335 0.33266
 C12 C 0.33304 0.38263 0.34632
 C13 C 0.33376 0.34714 0.37411
 N14 N 0.34043 0.33134 0.38073
 C15 C 0.35478 0.32654 0.36988
 H16 H 0.39005 0.31880 0.34453
 H17 H 0.38939 0.36474 0.30992
 H18 H 0.36251 0.39042 0.31382
 H19 H 0.32133 0.38569 0.35487
 H20 H 0.32256 0.35466 0.38000
 H21 H 0.36298 0.31459 0.37131
 C22 C 0.33754 0.83118 -0.14653
 C23 C 0.32376 0.82984 -0.13333
 C24 C 0.31019 0.84252 -0.13244
 C25 C 0.31039 0.85681 -0.14498
 C26 C 0.32395 0.85816 -0.15831
 C27 C 0.33787 0.84506 -0.15908
 C28 C 0.35309 0.82149 -0.14870
 N29 N 0.36347 0.82887 -0.16231
 C30 C 0.35404 0.84322 -0.16903
 C31 C 0.32102 0.87422 -0.16745
 N32 N 0.30630 0.88270 -0.15978
 C33 C 0.29983 0.87189 -0.14610
 C34 C 0.29991 0.83887 -0.11688
 N35 N 0.30726 0.82441 -0.10838
 C36 C 0.32177 0.81881 -0.11844
 H37 H 0.35635 0.80971 -0.14074
 H38 H 0.35898 0.85234 -0.17952
 H39 H 0.32968 0.87965 -0.17819
 H40 H 0.28812 0.87447 -0.13742
 H41 H 0.28875 0.84682 -0.11151
 H42 H 0.33078 0.80796 -0.11471
 C43 C 0.84086 0.33938 -0.17532
 C44 C 0.82574 0.33877 -0.16316
 C45 C 0.81012 0.34833 -0.16730
 C46 C 0.80920 0.35848 -0.18342
 C47 C 0.82392 0.35892 -0.19511
 C48 C 0.83976 0.34968 -0.19095
 C49 C 0.85838 0.33239 -0.17523
 N50 N 0.86778 0.33884 -0.19013
 C51 C 0.85623 0.34931 -0.19970
 C52 C 0.81986 0.37007 -0.20930
 N53 N 0.80281 0.37678 -0.20672
 C54 C 0.79625 0.36976 -0.19066
 C55 C 0.79818 0.34643 -0.15290
 N56 N 0.80596 0.33614 -0.13986
 C57 C 0.82279 0.33123 -0.14607
 H58 H 0.86401 0.32399 -0.16469
 H59 H 0.85929 0.35597 -0.21252
 H60 H 0.82927 0.37360 -0.22020
 H61 H 0.78302 0.37239 -0.18464
 H62 H 0.78482 0.35241 -0.15192
 H63 H 0.83246 0.32345 -0.13841
 C64 C 0.85534 0.85208 0.34439
 C65 C 0.83859 0.84879 0.35351
 C66 C 0.82291 0.85720 0.34748
 C67 C 0.82357 0.86858 0.33218
 C68 C 0.83997 0.87169 0.32351
 C69 C 0.85582 0.86391 0.32988
 C70 C 0.87291 0.84559 0.34608
 N71 N 0.88384 0.85378 0.33324
 C72 C 0.87326 0.86500 0.32343
 C73 C 0.83684 0.88185 0.30837
 N74 N 0.81871 0.88512 0.30729
 C75 C 0.81049 0.87737 0.32219
 C76 C 0.80897 0.85238 0.35913
 N77 N 0.81561 0.84142 0.37224
 C78 C 0.83366 0.83891 0.36882
 H79 H 0.87734 0.83573 0.35592
 H80 H 0.87757 0.87259 0.31151
 H81 H 0.84725 0.88642 0.29884
 H82 H 0.79599 0.87696 0.32493
 H83 H 0.79504 0.85696 0.35844
 H84 H 0.84269 0.83126 0.37735
 C85 C 0.62493 0.66901 0.33249
 C86 C 0.63687 0.67413 0.34655
 C87 C 0.65169 0.66347 0.35024
 C88 C 0.65487 0.64770 0.34009
 C89 C 0.64329 0.64272 0.32618
 C90 C 0.62817 0.65344 0.32241
 C91 C 0.60910 0.67634 0.32602
 N92 N 0.60266 0.66560 0.31230
 C93 C 0.61435 0.65160 0.31003
 C94 C 0.64962 0.62666 0.31895
 N95 N 0.66467 0.62181 0.32828
 C96 C 0.66798 0.63467 0.34118
 C97 C 0.66081 0.67130 0.36453
 N98 N 0.65209 0.68667 0.36969
 C99 C 0.63733 0.68846 0.35876
 H100 H 0.60259 0.68839 0.33126
 H101 H 0.61306 0.64085 0.30003
 H102 H 0.64345 0.61886 0.30806
 H103 H 0.67914 0.63458 0.35070
 H104 H 0.67282 0.66591 0.37085
 H105 H 0.62772 0.69944 0.35942
 C106 C 0.67094 0.15455 -0.16217
 C107 C 0.68010 0.15640 -0.14549
 C108 C 0.69424 0.14489 -0.14168
 C109 C 0.69961 0.13170 -0.15428
 C110 C 0.69066 0.12975 -0.17056
 C111 C 0.67609 0.14123 -0.17451
 C112 C 0.65636 0.16337 -0.16955
 N113 N 0.65228 0.15566 -0.18602
 C114 C 0.66448 0.14210 -0.18903
 C115 C 0.69882 0.11560 -0.17982
 N116 N 0.71266 0.10900 -0.16951
 C117 C 0.71297 0.11895 -0.15377
 C118 C 0.70044 0.14909 -0.12463
 N119 N 0.69047 0.16293 -0.11777
 C120 C 0.67803 0.16768 -0.13046
 H121 H 0.64893 0.17414 -0.16287
 H122 H 0.66528 0.13352 -0.20102
 H123 H 0.69496 0.11088 -0.19324
 H124 H 0.72190 0.11708 -0.14234
 H125 H 0.71154 0.14259 -0.11771
 H126 H 0.66808 0.17827 -0.12874
 C127 C 0.14881 0.64977 -0.15646
 C128 C 0.16215 0.65141 -0.14282
 C129 C 0.17700 0.64007 -0.14342
 C130 C 0.17884 0.62711 -0.15723
 C131 C 0.16603 0.62555 -0.17071
 C132 C 0.15075 0.63680 -0.17012
 C133 C 0.13200 0.65762 -0.15881
 N134 N 0.12355 0.64939 -0.17319
 C135 C 0.13513 0.63672 -0.18012
 C136 C 0.17089 0.61091 -0.18153
 N137 N 0.18605 0.60329 -0.17441
 C138 C 0.19092 0.61331 -0.15957
 C139 C 0.18696 0.64310 -0.12806
 N140 N 0.17864 0.65594 -0.11774
 C141 C 0.16346 0.66129 -0.12669
 H142 H 0.12599 0.66774 -0.14993
 H143 H 0.13256 0.62795 -0.19171
 H144 H 0.16323 0.60554 -0.19290
 H145 H 0.20250 0.61088 -0.15095
 H146 H 0.19926 0.63608 -0.12446
 H147 H 0.15368 0.67092 -0.12146
 C148 C 0.14240 0.18729 0.34821
 C149 C 0.15357 0.19319 0.36256
 C150 C 0.16956 0.18419 0.36600
 C151 C 0.17470 0.16934 0.35526
 C152 C 0.16376 0.16349 0.34128
 C153 C 0.14744 0.17248 0.33778
 C154 C 0.12613 0.19334 0.34146
 N155 N 0.12100 0.18247 0.32723
 C156 C 0.13415 0.16969 0.32503
 C157 C 0.17221 0.14888 0.33323
 N158 N 0.18818 0.14562 0.34198
 C159 C 0.18960 0.15828 0.35557
 C160 C 0.17768 0.19258 0.38054
 N161 N 0.16706 0.20651 0.38622
 C162 C 0.15228 0.20706 0.37521
 H163 H 0.11854 0.20463 0.34695
 H164 H 0.13461 0.15931 0.31459
 H165 H 0.16686 0.14146 0.32169
 H166 H 0.20051 0.15963 0.36524
 H167 H 0.19060 0.18893 0.38635
 H168 H 0.14129 0.21665 0.37645
 C169 C 0.66748 0.31961 0.62439
 C170 C 0.68241 0.32360 0.61303
 C171 C 0.68972 0.34092 0.61249
 C172 C 0.68195 0.35462 0.62344
 C173 C 0.66704 0.35059 0.63451
 C174 C 0.65985 0.33300 0.63506
 C175 C 0.65789 0.30389 0.62775
 N176 N 0.64461 0.30742 0.64032
 C177 C 0.64572 0.32526 0.64484
 C178 C 0.66227 0.36609 0.64364
 N179 N 0.67387 0.37959 0.63854
 C180 C 0.68605 0.37271 0.62623
 C181 C 0.70409 0.34053 0.60012
 N182 N 0.70542 0.32346 0.59316
 C183 C 0.69224 0.31308 0.60113
 H184 H 0.66067 0.29077 0.62176
 H185 H 0.63684 0.33218 0.65443
 H186 H 0.65139 0.36732 0.65367
 H187 H 0.69704 0.38029 0.61981
 H188 H 0.71267 0.35188 0.59622
 H189 H 0.69002 0.29880 0.59861
 C190 C 0.61624 0.80634 1.12941
 C191 C 0.63035 0.80881 1.11663
 C192 C 0.64254 0.82309 1.11842
 C193 C 0.64053 0.83528 1.13314
 C194 C 0.62658 0.83268 1.14575
 C195 C 0.61443 0.81810 1.14391
 C196 C 0.60251 0.79367 1.13090
 N197 N 0.59223 0.79734 1.14612
 C198 C 0.59963 0.81241 1.15409
 C199 C 0.62766 0.84636 1.15841
 N200 N 0.64179 0.85752 1.15383
 C201 C 0.64981 0.85074 1.13838
 C202 C 0.65490 0.82173 1.10408
 N203 N 0.65026 0.80710 1.09371
 C204 C 0.63529 0.79919 1.10135
 H205 H 0.60065 0.78242 1.12160
 H206 H 0.59458 0.81922 1.16621
 H207 H 0.61877 0.84786 1.17019
 H208 H 0.66129 0.85674 1.13118
 H209 H 0.66632 0.83072 1.10135
 H210 H 0.62866 0.78701 1.09638
 C211 C 0.14410 0.33326 1.16043
 C212 C 0.15566 0.33046 1.14537
 C213 C 0.17074 0.34147 1.14263
 C214 C 0.17440 0.35558 1.15510
 C215 C 0.16284 0.35832 1.16992
 C216 C 0.14757 0.34708 1.17258
 C217 C 0.12874 0.32433 1.16646
 N218 N 0.12258 0.33228 1.18221
 C219 C 0.13419 0.34636 1.18591
 C220 C 0.16960 0.37271 1.17974
 N221 N 0.18510 0.37886 1.17142
 C222 C 0.18810 0.36841 1.15629
 C223 C 0.17938 0.33532 1.12694
 N224 N 0.16983 0.32091 1.12019
 C225 C 0.15535 0.31789 1.13153
 H226 H 0.12264 0.31292 1.15948
 H227 H 0.13350 0.35531 1.19761
 H228 H 0.16342 0.37837 1.19195
 H229 H 0.19953 0.36977 1.14692
 H230 H 0.19160 0.34108 1.12084
 H231 H 0.14541 0.30710 1.13009
 C232 C 0.14180 0.83540 0.69504
 C233 C 0.15126 0.83831 0.67866
 C234 C 0.16100 0.85418 0.67581
 C235 C 0.16128 0.86749 0.68968
 C236 C 0.15143 0.86469 0.70569
 C237 C 0.14174 0.84851 0.70844
 C238 C 0.13061 0.82158 0.70081
 N239 N 0.12359 0.82594 0.71751
 C240 C 0.13039 0.84247 0.72228
 C241 C 0.15303 0.87999 0.71617
 N242 N 0.16392 0.89215 0.70726
 C243 C 0.16909 0.88450 0.69100
 C244 C 0.16728 0.85367 0.65789
 N245 N 0.16120 0.83804 0.65005
 C246 C 0.15162 0.82856 0.66276
 H247 H 0.12777 0.80929 0.69322
 H248 H 0.12689 0.84993 0.73457
 H249 H 0.14709 0.88173 0.72967
 H250 H 0.17740 0.89097 0.68057
 H251 H 0.17471 0.86428 0.65080
 H252 H 0.14478 0.81574 0.66037
 C253 C 0.34565 0.69730 0.66956
 C254 C 0.33085 0.69947 0.65809
 C255 C 0.31897 0.68531 0.65493
 C256 C 0.32160 0.66878 0.66377
 C257 C 0.33627 0.66654 0.67532
 C258 C 0.34865 0.68096 0.67807
 C259 C 0.36063 0.70805 0.67207
 N260 N 0.37294 0.69879 0.68181
 C261 C 0.36575 0.68223 0.68584
 C262 C 0.33594 0.64870 0.68080
 N263 N 0.32150 0.64021 0.67288
 C264 C 0.31279 0.65241 0.66240
 C265 C 0.30786 0.69048 0.64080
 N266 N 0.31300 0.70736 0.63536
 C267 C 0.32687 0.71297 0.64613
 H268 H 0.36292 0.72131 0.66621
 H269 H 0.37297 0.67149 0.69255
 H270 H 0.34572 0.64229 0.68954
 H271 H 0.30080 0.64964 0.65436
 H272 H 0.29788 0.68201 0.63403
 H273 H 0.33429 0.72561 0.64478
 C274 C 0.36176 0.17060 1.14860
 C275 C 0.34933 0.16624 1.13490
 C276 C 0.33975 0.15024 1.13579
 C277 C 0.34225 0.13851 1.15032
 C278 C 0.35408 0.14277 1.16427
 C279 C 0.36432 0.15906 1.16321
 C280 C 0.37339 0.18499 1.15052
 N281 N 0.38354 0.18259 1.16568
 C282 C 0.37791 0.16683 1.17371
 C283 C 0.35242 0.12884 1.17690
 N284 N 0.34025 0.11628 1.17044
 C285 C 0.33415 0.12234 1.15416
 C286 C 0.32839 0.14947 1.12111
 N287 N 0.33083 0.16473 1.11112
 C288 C 0.34374 0.17508 1.11946
 H289 H 0.37439 0.19630 1.14126
 H290 H 0.38371 0.16102 1.18583
 H291 H 0.35964 0.12792 1.18965
 H292 H 0.32361 0.11609 1.14600
 H293 H 0.31856 0.13884 1.11835
 H294 H 0.34862 0.18813 1.11479
 C295 C 0.83863 0.69540 1.18833
 C296 C 0.83041 0.69225 1.17138
 C297 C 0.82160 0.67593 1.16781
 C298 C 0.82101 0.66241 1.18133
 C299 C 0.82907 0.66576 1.19802
 C300 C 0.83774 0.68224 1.20155
 C301 C 0.84987 0.70900 1.19488
 N302 N 0.85562 0.70425 1.21178
 C303 C 0.84819 0.68790 1.21589
 C304 C 0.82837 0.65017 1.20791
 N305 N 0.82010 0.63717 1.19780
 C306 C 0.81532 0.64447 1.18153
 C307 C 0.81618 0.67641 1.14979
 N308 N 0.82156 0.69252 1.14248
 C309 C 0.83023 0.70221 1.15564
 H310 H 0.85410 0.72105 1.18759
 H311 H 0.85116 0.68007 1.22794
 H312 H 0.83403 0.64822 1.22134
 H313 H 0.80910 0.63706 1.17040
 H314 H 0.80944 0.66560 1.14239
 H315 H 0.83618 0.71555 1.15389
 C316 C 0.86438 0.16708 0.65764
 C317 C 0.85100 0.16208 0.64501
 C318 C 0.84190 0.14577 0.64684
 C319 C 0.84602 0.13422 0.66129
 C320 C 0.85929 0.13911 0.67370
 C321 C 0.86851 0.15577 0.67190
 C322 C 0.87557 0.18197 0.65893
 N323 N 0.88663 0.18022 0.67368
 C324 C 0.88219 0.16410 0.68171
 C325 C 0.86067 0.12507 0.68588
 N326 N 0.84852 0.11189 0.68119
 C327 C 0.83949 0.11743 0.66618
 C328 C 0.82993 0.14432 0.63260
 N329 N 0.83147 0.15941 0.62212
 C330 C 0.84439 0.17034 0.62967
 H331 H 0.87519 0.19331 0.64972
 H332 H 0.88865 0.15838 0.69352
 H333 H 0.86981 0.12453 0.69735
 H334 H 0.82921 0.10963 0.65905
 H335 H 0.82099 0.13292 0.62994
 H336 H 0.84856 0.18346 0.62455
 C337 C 0.36140 0.35060 0.66174
 C338 C 0.35973 0.33604 0.64947
 C339 C 0.37237 0.32240 0.64958
 C340 C 0.38692 0.32310 0.66170
 C341 C 0.38878 0.33744 0.67377
 C342 C 0.37586 0.35136 0.67375
 C343 C 0.35176 0.36633 0.66388
 N344 N 0.36001 0.37671 0.67677
 C345 C 0.37479 0.36768 0.68284
 C346 C 0.40526 0.33531 0.68245
 N347 N 0.41331 0.32019 0.67563
 C348 C 0.40215 0.31267 0.66302
 C349 C 0.36840 0.31084 0.63545
 N350 N 0.35370 0.31714 0.62644
 C351 C 0.34826 0.33259 0.63505
 H352 H 0.34000 0.37025 0.65611
 H353 H 0.38420 0.37269 0.69299
 H354 H 0.41144 0.34462 0.69207
 H355 H 0.40531 0.30087 0.65478
 H356 H 0.37601 0.29885 0.63192
 H357 H 0.33735 0.34122 0.63072
 C358 C 0.29582 0.85270 0.18058
 C359 C 0.29399 0.83896 0.16750
 C360 C 0.30719 0.82587 0.16549
 C361 C 0.32239 0.82623 0.17705
 C362 C 0.32410 0.83990 0.19001
 C363 C 0.31080 0.85330 0.19172
 C364 C 0.28643 0.86844 0.18329
 N365 N 0.29540 0.87880 0.19571
 C366 C 0.31027 0.86954 0.20114
 C367 C 0.34066 0.83795 0.19815
 N368 N 0.34915 0.82342 0.19063
 C369 C 0.33809 0.81612 0.17771
 C370 C 0.30277 0.81589 0.15008
 N371 N 0.28732 0.82275 0.14279
 C372 C 0.28187 0.83673 0.15360
 H373 H 0.27442 0.87245 0.17597
 H374 H 0.32067 0.87481 0.21013
 H375 H 0.34620 0.84664 0.20871
 H376 H 0.34148 0.80473 0.16900
 H377 H 0.31082 0.80518 0.14404
 H378 H 0.27019 0.84517 0.15133
 C379 C 0.83282 0.36375 0.16095
 C380 C 0.82978 0.35311 0.14539
 C381 C 0.84102 0.33877 0.14138
 C382 C 0.85547 0.33477 0.15302
 C383 C 0.85849 0.34523 0.16844
 C384 C 0.84709 0.35992 0.17239
 C385 C 0.82445 0.37898 0.16763
 N386 N 0.83327 0.38460 0.18288
 C387 C 0.84713 0.37295 0.18590
 C388 C 0.87365 0.33847 0.17685
 N389 N 0.87990 0.32418 0.16689
 C390 C 0.86878 0.32185 0.15232
 C391 C 0.83512 0.33125 0.12521
 N392 N 0.82046 0.34066 0.11934
 C393 C 0.81716 0.35405 0.13176
 H394 H 0.81313 0.38580 0.16143
 H395 H 0.85663 0.37386 0.19706
 H396 H 0.87991 0.34387 0.18906
 H397 H 0.87016 0.31146 0.14193
 H398 H 0.84133 0.31994 0.11818
 H399 H 0.80627 0.36374 0.13119
 C400 C 0.83435 0.82597 0.65613
 C401 C 0.83488 0.81218 0.64293
 C402 C 0.84838 0.79937 0.64340
 C403 C 0.86150 0.80012 0.65717
 C404 C 0.86090 0.81364 0.67036
 C405 C 0.84724 0.82678 0.66974
 C406 C 0.82379 0.84109 0.65782
 N407 N 0.82999 0.85130 0.67199
 C408 C 0.84430 0.84256 0.67944
 C409 C 0.87607 0.81175 0.68109
 N410 N 0.88587 0.79760 0.67455
 C411 C 0.87708 0.79044 0.65994
 C412 C 0.84641 0.78858 0.62814
 N413 N 0.83204 0.79457 0.61835
 C414 C 0.82495 0.80905 0.62739
 H415 H 0.81264 0.84453 0.64902
 H416 H 0.85258 0.84770 0.69047
 H417 H 0.88018 0.82056 0.69220
 H418 H 0.88201 0.77934 0.65159
 H419 H 0.85502 0.77733 0.62440
 H420 H 0.81385 0.81725 0.62267
 C421 C 0.65054 0.65498 0.65439
 C422 C 0.65371 0.66561 0.63882
 C423 C 0.64486 0.68189 0.63693
 C424 C 0.63271 0.68782 0.65064
 C425 C 0.62965 0.67736 0.66599
 C426 C 0.63858 0.66081 0.66785
 C427 C 0.65718 0.63856 0.65985
 N428 N 0.64947 0.63420 0.67627
 C429 C 0.63810 0.64783 0.68125
 C430 C 0.61757 0.68649 0.67709
 N431 N 0.61310 0.70229 0.66892
 C432 C 0.62234 0.70315 0.65268
 C433 C 0.65088 0.68940 0.62074
 N434 N 0.66324 0.67812 0.61276
 C435 C 0.66496 0.66350 0.62379
 H436 H 0.66669 0.63028 0.65221
 H437 H 0.63016 0.64842 0.69378
 H438 H 0.61273 0.68201 0.69035
 H439 H 0.62153 0.71400 0.64288
 H440 H 0.64653 0.70218 0.61523
 H441 H 0.67410 0.65233 0.62142
 C442 C 0.65396 0.13110 0.13132
 C443 C 0.65916 0.14737 0.12278
 C444 C 0.64779 0.16228 0.12358
 C445 C 0.63101 0.16109 0.13308
 C446 C 0.62602 0.14495 0.14121
 C447 C 0.63746 0.13006 0.14037
 C448 C 0.66254 0.11477 0.13403
 N449 N 0.65152 0.10405 0.14459
 C450 C 0.63617 0.11347 0.14844
 C451 C 0.60981 0.14739 0.15014
 N452 N 0.60451 0.16471 0.14784
 C453 C 0.61744 0.17334 0.13749
 C454 C 0.65666 0.17616 0.11448
 N455 N 0.67307 0.17008 0.10833
 C456 C 0.67466 0.15251 0.11341
 H457 H 0.67595 0.11120 0.12902
 H458 H 0.62515 0.10908 0.15735
 H459 H 0.60277 0.13742 0.15845
 H460 H 0.61716 0.18747 0.13373
 H461 H 0.65168 0.18977 0.11278
 H462 H 0.68622 0.14398 0.11041
 C463 C 0.14668 0.63378 0.17000
 C464 C 0.14751 0.64601 0.15542
 C465 C 0.13475 0.65963 0.15409
 C466 C 0.12085 0.66111 0.16738
 C467 C 0.12006 0.64891 0.18164
 C468 C 0.13300 0.63526 0.18297
 C469 C 0.15683 0.61888 0.17451
 N470 N 0.14949 0.61133 0.18987
 C471 C 0.13492 0.62135 0.19510
 C472 C 0.10498 0.65281 0.19205
 N473 N 0.09640 0.66709 0.18457
 C474 C 0.10605 0.67238 0.16950
 C475 C 0.13860 0.66889 0.13815
 N476 N 0.15322 0.66110 0.12980
 C477 C 0.15875 0.64717 0.14035
 H478 H 0.16840 0.61368 0.16692
 H479 H 0.12631 0.61876 0.20693
 H480 H 0.10059 0.64572 0.20426
 H481 H 0.10236 0.68330 0.16052
 H482 H 0.13097 0.68006 0.13274
 H483 H 0.17008 0.63838 0.13725
 C484 C 0.18094 0.16315 0.66647
 C485 C 0.17787 0.17832 0.65547
 C486 C 0.16257 0.18868 0.65850
 C487 C 0.15022 0.18419 0.67250
 C488 C 0.15325 0.16941 0.68342
 C489 C 0.16872 0.15874 0.68035
 C490 C 0.19456 0.15050 0.66671
 N491 N 0.19093 0.13845 0.68030
 C492 C 0.17514 0.14348 0.68873
 C493 C 0.13929 0.16881 0.69620
 N494 N 0.12788 0.18290 0.69325
 C495 C 0.13455 0.19227 0.67865
 C496 C 0.16316 0.20271 0.64632
 N497 N 0.17852 0.20131 0.63589
 C498 C 0.18757 0.18632 0.64135
 H499 H 0.20634 0.15025 0.65768
 H500 H 0.16852 0.13640 0.69991
 H501 H 0.13792 0.15906 0.70709
 H502 H 0.12852 0.20413 0.67274
 H503 H 0.15305 0.21317 0.64518
 H504 H 0.20051 0.18182 0.63586
 C505 C 0.30430 0.65487 0.36341
 C506 C 0.30604 0.66963 0.37551
 C507 C 0.32067 0.68129 0.37357
 C508 C 0.33374 0.67848 0.35992
 C509 C 0.33225 0.66402 0.34800
 C510 C 0.31729 0.65208 0.34976
 C511 C 0.29180 0.64096 0.36222
 N512 N 0.29678 0.62974 0.34825
 C513 C 0.31240 0.63649 0.34060
 C514 C 0.34761 0.66447 0.33683
 N515 N 0.35825 0.67872 0.34207
 C516 C 0.34973 0.68735 0.35609
 C517 C 0.31970 0.69386 0.38728
 N518 N 0.30488 0.69020 0.39792
 C519 C 0.29628 0.67541 0.39074
 H520 H 0.27988 0.63927 0.37089
 H521 H 0.31996 0.63034 0.32945
 H522 H 0.35106 0.65487 0.32616
 H523 H 0.35489 0.69920 0.36316
 H524 H 0.32925 0.70490 0.38931
 H525 H 0.28422 0.66898 0.39645
 C526 C 0.35311 0.15474 0.84098
 C527 C 0.35173 0.16837 0.85444
 C528 C 0.36462 0.18213 0.85486
 C529 C 0.37895 0.18255 0.84212
 C530 C 0.38036 0.16921 0.82898
 C531 C 0.36736 0.15525 0.82839
 C532 C 0.34314 0.13925 0.83737
 N533 N 0.35101 0.13044 0.82295
 C534 C 0.36581 0.14022 0.81744
 C535 C 0.39624 0.17243 0.81928
 N536 N 0.40451 0.18742 0.82632
 C537 C 0.39390 0.19370 0.84028
 C538 C 0.36089 0.19278 0.86977
 N539 N 0.34608 0.18592 0.87867
 C540 C 0.34022 0.17103 0.86932
 H541 H 0.33125 0.13459 0.84491
 H542 H 0.37480 0.13679 0.80614
 H543 H 0.40169 0.16404 0.80840
 H544 H 0.39687 0.20543 0.84867
 H545 H 0.36866 0.20456 0.87400
 H546 H 0.32897 0.16236 0.87346
 C547 C 0.82609 0.61671 0.84497
 C548 C 0.83210 0.62960 0.85779
 C549 C 0.84745 0.63989 0.85404
 C550 C 0.85701 0.63750 0.83756
 C551 C 0.85119 0.62483 0.82494
 C552 C 0.83559 0.61435 0.82869
 C553 C 0.81115 0.60535 0.84445
 N554 N 0.81135 0.59611 0.82829
 C555 C 0.82634 0.60157 0.81863
 C556 C 0.86267 0.62612 0.80994
 N557 N 0.87528 0.63930 0.81322
 C558 C 0.87188 0.64623 0.83016
 C559 C 0.84961 0.65193 0.86820
 N560 N 0.83598 0.64927 0.88069
 C561 C 0.82522 0.63553 0.87436
 H562 H 0.80063 0.60436 0.85489
 H563 H 0.83030 0.59668 0.80521
 H564 H 0.86155 0.61839 0.79739
 H565 H 0.87964 0.65688 0.83674
 H566 H 0.86001 0.66236 0.86885
 H567 H 0.81311 0.63029 0.88109
 C568 C 0.82511 0.11697 0.30964
 C569 C 0.82642 0.12728 0.32581
 C570 C 0.84041 0.13986 0.32780
 C571 C 0.85328 0.14239 0.31363
 C572 C 0.85173 0.13233 0.29776
 C573 C 0.83768 0.11969 0.29578
 C574 C 0.81396 0.10280 0.30415
 N575 N 0.81971 0.09696 0.28736
 C576 C 0.83410 0.10747 0.28218
 C577 C 0.86634 0.13643 0.28674
 N578 N 0.87698 0.14876 0.29543
 C579 C 0.86904 0.15268 0.31187
 C580 C 0.83853 0.14739 0.34496
 N581 N 0.82370 0.13988 0.35344
 C582 C 0.81630 0.12752 0.34174
 H583 H 0.80304 0.09672 0.31214
 H584 H 0.84170 0.10624 0.26949
 H585 H 0.86915 0.13061 0.27341
 H586 H 0.87469 0.16172 0.32206
 H587 H 0.84752 0.15747 0.35083
 H588 H 0.80422 0.11943 0.34436
 C589 C 0.68779 0.34269 0.33516
 C590 C 0.69366 0.32833 0.34595
 C591 C 0.68362 0.31243 0.34672
 C592 C 0.66754 0.31068 0.33666
 C593 C 0.66183 0.32484 0.32599
 C594 C 0.67203 0.34093 0.32522
 C595 C 0.69489 0.35963 0.33172
 N596 N 0.68386 0.36822 0.31981
 C597 C 0.66982 0.35677 0.31581
 C598 C 0.64582 0.31954 0.31795
 N599 N 0.64159 0.30247 0.32346
 C600 C 0.65487 0.29695 0.33491
 C601 C 0.69258 0.30092 0.35819
 N602 N 0.70784 0.30943 0.36433
 C603 C 0.70856 0.32622 0.35688
 H604 H 0.70716 0.36522 0.33760
 H605 H 0.65896 0.35946 0.30640
 H606 H 0.63766 0.32776 0.30908
 H607 H 0.65541 0.28388 0.34145
 H608 H 0.68840 0.28725 0.36156
 H609 H 0.71901 0.33631 0.35939
 C610 C 0.68659 0.83886 0.83974
 C611 C 0.68491 0.82276 0.84970
 C612 C 0.66849 0.81358 0.85015
 C613 C 0.65354 0.82038 0.84087
 C614 C 0.65511 0.83617 0.83087
 C615 C 0.67187 0.84552 0.83027
 C616 C 0.70052 0.85126 0.83805
 N617 N 0.69473 0.86530 0.82782
 C618 C 0.67726 0.86188 0.82287
 C619 C 0.63803 0.83981 0.82416
 N620 N 0.62632 0.82672 0.83016
 C621 C 0.63573 0.81480 0.84029
 C622 C 0.67040 0.79893 0.86139
 N623 N 0.68764 0.79892 0.86786
 C624 C 0.69662 0.81354 0.86084
 H625 H 0.71379 0.85034 0.84422
 H626 H 0.66885 0.87103 0.81524
 H627 H 0.63426 0.85137 0.81609
 H628 H 0.62995 0.80299 0.84695
 H629 H 0.65979 0.78931 0.86504
 H630 H 0.71060 0.81725 0.86365
 C631 C 0.19207 0.34975 0.82902
 C632 C 0.19012 0.33665 0.84250
 C633 C 0.17417 0.32679 0.84425
 C634 C 0.15996 0.32981 0.83200
 C635 C 0.16175 0.34311 0.81871
 C636 C 0.17801 0.35335 0.81728
 C637 C 0.20524 0.36267 0.82660
 N638 N 0.19972 0.37448 0.81379
 C639 C 0.18311 0.36884 0.80774
 C640 C 0.14517 0.34413 0.81015
 N641 N 0.13360 0.33168 0.81770
 C642 C 0.14252 0.32297 0.83112
 C643 C 0.17502 0.31768 0.86068
 N644 N 0.19098 0.32221 0.86880
 C645 C 0.20034 0.33356 0.85762
 H646 H 0.21768 0.36384 0.83432
 H647 H 0.17484 0.37612 0.79816
 H648 H 0.14175 0.35333 0.79929
 H649 H 0.13656 0.31278 0.83999
 H650 H 0.16417 0.30985 0.86705
 H651 H 0.21306 0.34025 0.86096
 C652 C 0.15555 0.88429 0.36518
 C653 C 0.14901 0.87104 0.37726
 C654 C 0.13634 0.85846 0.37144
 C655 C 0.13003 0.85895 0.35350
 C656 C 0.13655 0.87185 0.34147
 C657 C 0.14945 0.88469 0.34737
 C658 C 0.16898 0.89721 0.36677
 N659 N 0.17131 0.90553 0.35038
 C660 C 0.15935 0.89795 0.33844
 C661 C 0.12884 0.86814 0.32476
 N662 N 0.11769 0.85336 0.32643
 C663 C 0.11848 0.84775 0.34408
 C664 C 0.13420 0.84588 0.38506
 N665 N 0.14540 0.85041 0.39904
 C666 C 0.15436 0.86594 0.39440
 H667 H 0.17665 0.90009 0.37899
 H668 H 0.15846 0.90119 0.32407
 H669 H 0.13154 0.87555 0.31231
 H670 H 0.11117 0.83639 0.34994
 H671 H 0.12621 0.83355 0.38413
 H672 H 0.16475 0.87261 0.40243
 O673 O 0.27893 0.99710 0.26571
 O674 O 0.26637 1.03704 0.29407
 O675 O 0.26228 1.00187 0.29705
 O676 O 0.28538 1.03178 0.26396
 O677 O 0.25978 1.03349 0.24854
 O678 O 0.23663 1.00392 0.28190
 O679 O 0.24083 1.03905 0.27874
 O680 O 0.25311 0.99991 0.25086
 Cu681 Cu 0.27576 1.01678 0.28184
 Cu682 Cu 0.24493 1.01954 0.26371
 C683 C 0.26812 0.99200 0.25316
 C684 C 0.25133 1.04486 0.29111
 C685 C 0.24569 0.99747 0.29500
 C686 C 0.27663 1.03711 0.25020
 O687 O 0.25563 0.47639 0.74258
 O688 O 0.27013 0.51514 0.71479
 O689 O 0.27965 0.48082 0.71664
 O690 O 0.24819 0.51041 0.74353
 O691 O 0.27069 0.51589 0.76259
 O692 O 0.30169 0.48849 0.73547
 O693 O 0.29164 0.52217 0.73442
 O694 O 0.27791 0.48233 0.76174
 Cu695 Cu 0.26130 0.49527 0.72724
 Cu696 Cu 0.28778 0.50283 0.75031
 C697 C 0.26406 0.47294 0.75714
 C698 C 0.28316 0.52535 0.71976
 C699 C 0.29612 0.47967 0.72172
 C700 C 0.25414 0.51740 0.75829
 O701 O 0.71725 -0.03721 0.19784
 O702 O 0.74999 -0.00245 0.21282
 O703 O 0.74811 -0.03709 0.21457
 O704 O 0.71942 -0.00197 0.19520
 O705 O 0.70407 -0.00019 0.22131
 O706 O 0.73391 -0.03454 0.24120
 O707 O 0.73499 0.00064 0.23895
 O708 O 0.70278 -0.03493 0.22437
 Cu709 Cu 0.73510 -0.01987 0.20242
 Cu710 Cu 0.71746 -0.01696 0.23413
 C711 C 0.70444 -0.04206 0.20861
 C712 C 0.74827 0.00486 0.22849
 C713 C 0.74620 -0.04165 0.23119
 C714 C 0.70666 0.00469 0.20485
 O715 O 0.72131 0.47588 0.75085
 O716 O 0.69306 0.51538 0.73989
 O717 O 0.69546 0.48236 0.72778
 O718 O 0.71882 0.50883 0.76323
 O719 O 0.73907 0.51814 0.74277
 O720 O 0.71637 0.49051 0.70741
 O721 O 0.71337 0.52391 0.71915
 O722 O 0.74174 0.48511 0.73051
 Cu723 Cu 0.70508 0.49478 0.74749
 Cu724 Cu 0.72967 0.50543 0.72293
 C725 C 0.73634 0.47373 0.74236
 C726 C 0.69835 0.52633 0.72754
 C727 C 0.70208 0.48162 0.71169
 C728 C 0.73297 0.51798 0.75911
 O729 O 0.21539 0.50933 0.26141
 O730 O 0.25103 0.48151 0.28173
 O731 O 0.23840 0.51377 0.28799
 O732 O 0.22881 0.47755 0.25443
 O733 O 0.24903 0.48965 0.23550
 O734 O 0.25837 0.52595 0.26884
 O735 O 0.27130 0.49392 0.26303
 O736 O 0.23551 0.52149 0.24241
 Cu737 Cu 0.23138 0.49433 0.27327
 Cu738 Cu 0.25558 0.50887 0.25050
 C739 C 0.21928 0.52017 0.24850
 C740 C 0.26733 0.48315 0.27600
 C741 C 0.25005 0.52606 0.28415
 C742 C 0.23723 0.47748 0.23914
 O743 O 0.75691 0.96931 0.76085
 O744 O 0.78474 1.00270 0.73443
 O745 O 0.77695 0.96826 0.73081
 O746 O 0.76271 1.00407 0.76223
 O747 O 0.78681 0.99937 0.77918
 O748 O 0.80004 0.96158 0.74845
 O749 O 0.80844 0.99583 0.75116
 O750 O 0.78062 0.96489 0.77845
 Cu751 Cu 0.76798 0.98650 0.74527
 Cu752 Cu 0.79633 0.97977 0.76599
 C753 C 0.76410 0.96186 0.77462
 C754 C 0.80142 1.00498 0.73851
 C755 C 0.79078 0.95877 0.73411
 C756 C 0.77238 1.00813 0.77590
 O757 O 0.75867 0.52392 0.24119
 O758 O 0.72992 0.48692 0.25799
 O759 O 0.73269 0.52088 0.26471
 O760 O 0.76173 0.48794 0.23939
 O761 O 0.77996 0.48697 0.26311
 O762 O 0.75077 0.51774 0.28833
 O763 O 0.74858 0.48253 0.28091
 O764 O 0.77691 0.52086 0.26471
 Cu765 Cu 0.74436 0.50477 0.24833
 Cu766 Cu 0.76531 0.50146 0.27666
 C767 C 0.77268 0.52878 0.24995
 C768 C 0.73419 0.47838 0.27224
 C769 C 0.73694 0.52476 0.28114
 C770 C 0.77613 0.48224 0.24697
 O771 O 0.25456 0.00159 0.78604
 O772 O 0.24011 0.03684 0.75419
 O773 O 0.22880 0.00444 0.76241
 O774 O 0.26547 0.03435 0.77838
 O775 O 0.28406 0.02282 0.75758
 O776 O 0.24699 -0.00696 0.74118
 O777 O 0.25854 0.02565 0.73307
 O778 O 0.27280 -0.01002 0.76499
 Cu779 Cu 0.24542 0.02043 0.77236
 Cu780 Cu 0.26746 0.00681 0.74705
 C781 C 0.26595 -0.01034 0.78102
 C782 C 0.24687 0.03730 0.73814
 C783 C 0.23155 -0.00646 0.74921
 C784 C 0.28105 0.03371 0.77076
 O785 O 0.25049 0.27274 0.98581
 O786 O 0.26898 0.24108 1.01916
 O787 O 0.27690 0.24936 0.98590
 O788 O 0.24395 0.26548 1.01990
 O789 O 0.22413 0.24483 1.01078
 O790 O 0.25761 0.22842 0.97628
 O791 O 0.24956 0.22015 1.00975
 O792 O 0.23118 0.25171 0.97645
 Cu793 Cu 0.26200 0.25931 1.00356
 Cu794 Cu 0.23857 0.23421 0.99242
 C795 C 0.23767 0.26762 0.97543
 C796 C 0.26260 0.22507 1.01991
 C797 C 0.27321 0.23602 0.97556
 C798 C 0.22841 0.25799 1.02124
 O799 O 0.24894 0.77705 0.53146
 O800 O 0.21745 0.79319 0.49705
 O801 O 0.21937 0.79570 0.53255
 O802 O 0.24746 0.77446 0.49673
 O803 O 0.23122 0.74924 0.49884
 O804 O 0.20292 0.77061 0.53459
 O805 O 0.20120 0.76804 0.49945
 O806 O 0.23288 0.75181 0.53437
 Cu807 Cu 0.23482 0.78770 0.51409
 Cu808 Cu 0.21541 0.75736 0.51705
 C809 C 0.24649 0.76163 0.53864
 C810 C 0.20387 0.78353 0.49244
 C811 C 0.20631 0.78674 0.53966
 C812 C 0.24448 0.75816 0.49200
 O813 O 0.25844 0.74758 -0.00080
 O814 O 0.23110 0.71851 0.02920
 O815 O 0.23861 0.71822 -0.00496
 O816 O 0.25000 0.74809 0.03379
 O817 O 0.22643 0.76501 0.02719
 O818 O 0.21417 0.73430 -0.01059
 O819 O 0.20688 0.73524 0.02443
 O820 O 0.23428 0.76354 -0.00770
 Cu821 Cu 0.24702 0.73155 0.01482
 Cu822 Cu 0.21802 0.75123 0.00779
 C823 C 0.25121 0.76045 -0.00941
 C824 C 0.21436 0.72172 0.03183
 C825 C 0.22423 0.72081 -0.01403
 C826 C 0.24021 0.76184 0.03696
 O827 O 0.27311 0.26312 0.48692
 O828 O 0.24307 0.24965 0.52504
 O829 O 0.23973 0.25115 0.48957
 O830 O 0.27614 0.26182 0.52170
 O831 O 0.26614 0.28979 0.52436
 O832 O 0.22978 0.27915 0.49143
 O833 O 0.23294 0.27757 0.52714
 O834 O 0.26323 0.29118 0.48882
 Cu835 Cu 0.25886 0.25359 0.50554
 Cu836 Cu 0.24692 0.28722 0.50815
 C837 C 0.27359 0.27942 0.48156
 C838 C 0.23307 0.26136 0.53283
 C839 C 0.22867 0.26328 0.48477
 C840 C 0.27745 0.27761 0.52846
 O841 O 0.73394 0.73222 1.01107
 O842 O 0.76934 0.70896 0.98465
 O843 O 0.76444 0.71569 1.01987
 O844 O 0.73998 0.72560 0.97719
 O845 O 0.75487 0.75159 0.97506
 O846 O 0.78000 0.74115 1.01661
 O847 O 0.78472 0.73462 0.98188
 O848 O 0.74949 0.75791 1.00960
 Cu849 Cu 0.75052 0.71795 0.99878
 Cu850 Cu 0.76886 0.74887 0.99570
 C851 C 0.73531 0.74904 1.01433
 C852 C 0.78274 0.71790 0.97819
 C853 C 0.77667 0.72668 1.02531
 C854 C 0.74322 0.74038 0.96890
 O855 O 0.78517 0.24564 0.46453
 O856 O 0.79671 0.21643 0.50341
 O857 O 0.79752 0.21304 0.46737
 O858 O 0.78484 0.24933 0.49984
 O859 O 0.75665 0.23881 0.50041
 O860 O 0.76947 0.20213 0.46880
 O861 O 0.76845 0.20611 0.50420
 O862 O 0.75711 0.23473 0.46523
 Cu863 Cu 0.79396 0.23205 0.48373
 Cu864 Cu 0.76014 0.21933 0.48475
 C865 C 0.76911 0.24518 0.45827
 C866 C 0.78440 0.20650 0.51066
 C867 C 0.78559 0.20154 0.46239
 C868 C 0.76848 0.25035 0.50554
 O869 O 0.75409 0.24261 0.01523
 O870 O 0.76802 0.27023 -0.02455
 O871 O 0.77024 0.27338 0.01133
 O872 O 0.75064 0.23921 -0.01940
 O873 O 0.72454 0.25382 -0.01946
 O874 O 0.74373 0.28716 0.01277
 O875 O 0.74196 0.28471 -0.02265
 O876 O 0.72729 0.25584 0.01587
 Cu877 Cu 0.76349 0.25510 -0.00469
 Cu878 Cu 0.73177 0.27185 -0.00333
 C879 C 0.73825 0.24429 0.02218
 C880 C 0.75743 0.28241 -0.03022
 C881 C 0.76017 0.28584 0.01770
 C882 C 0.73420 0.24045 -0.02431
 O883 O 0.71475 0.75735 0.47771
 O884 O 0.74992 0.76882 0.51192
 O885 O 0.74228 0.78000 0.47905
 O886 O 0.72172 0.74762 0.51104
 O887 O 0.73911 0.72602 0.49975
 O888 O 0.76013 0.75896 0.46746
 O889 O 0.76747 0.74754 0.50023
 O890 O 0.73272 0.73628 0.46634
 Cu891 Cu 0.73044 0.76562 0.49599
 Cu892 Cu 0.75160 0.74007 0.48230
 C893 C 0.71779 0.74476 0.46618
 C894 C 0.76468 0.75996 0.51195
 C895 C 0.75464 0.77522 0.46781
 C896 C 0.72690 0.73131 0.51101
 O897 O 1.01169 0.26978 0.24756
 O898 O 0.97731 0.23516 0.25915
 O899 O 1.01320 0.23788 0.26479
 O900 O 0.97903 0.26223 0.23712
 O901 O 0.98724 0.24552 0.21340
 O902 O 1.01992 0.22120 0.24056
 O903 O 0.98620 0.21872 0.23546
 O904 O 1.02088 0.25313 0.22419
 Cu905 Cu 0.99491 0.25254 0.25463
 Cu906 Cu 1.00464 0.23361 0.22601
 C907 C 1.02223 0.26739 0.23393
 C908 C 0.97597 0.22094 0.24945
 C909 C 1.02212 0.22504 0.25727
 C910 C 0.97744 0.25786 0.22030
 O911 O 0.55629 0.25238 0.72892
 O912 O 0.52220 0.23984 0.76377
 O913 O 0.55579 0.23038 0.75663
 O914 O 0.52293 0.26173 0.73584
 O915 O 0.51415 0.23971 0.71729
 O916 O 0.54539 0.20839 0.73903
 O917 O 0.51170 0.21833 0.74563
 O918 O 0.54700 0.22989 0.71130
 Cu919 Cu 0.54025 0.24825 0.74819
 Cu920 Cu 0.52846 0.22176 0.72669
 C921 C 0.55746 0.24337 0.71412
 C922 C 0.51097 0.22709 0.76061
 C923 C 0.55630 0.21403 0.75117
 C924 C 0.51341 0.25606 0.72255
 O925 O -0.01408 0.28718 0.75358
 O926 O 0.02208 0.25585 0.73878
 O927 O -0.01199 0.26249 0.72891
 O928 O 0.02008 0.28663 0.75742
 O929 O 0.01465 0.26804 0.78042
 O930 O -0.01942 0.24388 0.75124
 O931 O 0.01480 0.23794 0.76180
 O932 O -0.02048 0.26950 0.77705
 Cu933 Cu 0.00496 0.27434 0.74233
 Cu934 Cu -0.00342 0.25299 0.76942
 C935 C -0.02334 0.28377 0.76804
 C936 C 0.02462 0.24145 0.74788
 C937 C -0.02154 0.24944 0.73492
 C938 C 0.02283 0.28186 0.77371
 O939 O 0.49875 0.27923 0.24930
 O940 O 0.52579 0.24637 0.22344
 O941 O 0.49222 0.25644 0.22254
 O942 O 0.53151 0.26633 0.25211
 O943 O 0.52210 0.24475 0.27072
 O944 O 0.48264 0.23549 0.24185
 O945 O 0.51569 0.22462 0.24160
 O946 O 0.48911 0.25800 0.26825
 Cu947 Cu 0.51295 0.26432 0.23507
 Cu948 Cu 0.50162 0.23864 0.25765
 C949 C 0.48928 0.27439 0.26306
 C950 C 0.52497 0.22982 0.22776
 C951 C 0.48088 0.24404 0.22702
 C952 C 0.53355 0.25702 0.26648
 O953 O 1.02025 0.70161 0.75855
 O954 O 0.99356 0.73182 0.73064
 O955 O 1.02612 0.73318 0.74386
 O956 O 0.98702 0.70140 0.74751
 O957 O 0.97816 0.71578 0.77253
 O958 O 1.01635 0.74747 0.76861
 O959 O 0.98338 0.74610 0.75523
 O960 O 1.01187 0.71609 0.78373
 Cu961 Cu 1.00768 0.71562 0.74265
 Cu962 Cu 0.99646 0.73281 0.77250
 C963 C 1.02076 0.70356 0.77575
 C964 C 0.98383 0.74400 0.73793
 C965 C 1.02788 0.74571 0.75573
 C966 C 0.97596 0.70320 0.76089
 O967 O 0.45240 0.74142 0.22506
 O968 O 0.48728 0.70967 0.24175
 O969 O 0.45381 0.71740 0.25116
 O970 O 0.48506 0.73197 0.21439
 O971 O 0.49627 0.75333 0.23229
 O972 O 0.46534 0.73841 0.26929
 O973 O 0.49837 0.73135 0.25934
 O974 O 0.46392 0.76246 0.24314
 Cu975 Cu 0.46847 0.72298 0.23129
 Cu976 Cu 0.48195 0.74857 0.25282
 C977 C 0.45248 0.75755 0.23122
 C978 C 0.49888 0.71524 0.25335
 C979 C 0.45445 0.72522 0.26661
 C980 C 0.49607 0.74504 0.21703
 O981 O -0.01677 0.79506 0.26076
 O982 O 0.00702 0.75897 0.23515
 O983 O -0.02702 0.76595 0.24342
 O984 O 0.01652 0.78948 0.25056
 O985 O 0.02008 0.77464 0.27631
 O986 O -0.02407 0.75168 0.26962
 O987 O 0.00947 0.74390 0.26097
 O988 O -0.01341 0.78004 0.28651
 Cu989 Cu -0.00536 0.77878 0.24484
 Cu990 Cu -0.00139 0.76093 0.27585
 C991 C -0.01927 0.79360 0.27794
 C992 C 0.01203 0.74509 0.24384
 C993 C -0.03325 0.75521 0.25549
 C994 C 0.02558 0.78641 0.26482
 O995 O 0.51259 0.78212 0.73198
 O996 O 0.47418 0.79630 0.76171
 O997 O 0.50979 0.79996 0.76250
 O998 O 0.47762 0.77675 0.73166
 O999 O 0.47953 0.75188 0.74807
 O1000 O 0.51207 0.77465 0.77819
 O1001 O 0.47728 0.77132 0.77769
 O1002 O 0.51474 0.75670 0.74742
 Cu1003 Cu 0.49319 0.79132 0.74537
 Cu1004 Cu 0.49615 0.76111 0.76437
 C1005 C 0.52017 0.76699 0.73455
 C1006 C 0.46945 0.78632 0.77506
 C1007 C 0.51636 0.79111 0.77567
 C1008 C 0.47316 0.76036 0.73461
 C1009 C 0.43166 0.31058 0.30480
 C1010 C 0.44317 0.32357 0.29764
 C1011 C 0.43978 0.34197 0.29914
 C1012 C 0.42379 0.34721 0.30829
 C1013 C 0.41151 0.33410 0.31564
 C1014 C 0.41569 0.31549 0.31399
 O1015 O 0.43712 0.29383 0.30128
 C1016 C 0.45237 0.29633 0.29165
 C1017 C 0.45664 0.31429 0.28905
 C1018 C 0.47155 0.32004 0.27869
 C1019 C 0.48242 0.30671 0.27049
 C1020 C 0.47829 0.28806 0.27284
 C1021 C 0.46314 0.28283 0.28380
 H1022 H 0.44902 0.35193 0.29332
 H1023 H 0.42101 0.36150 0.30966
 H1024 H 0.40651 0.30515 0.31918
 H1025 H 0.47452 0.33426 0.27670
 H1026 H 0.49396 0.31095 0.26216
 H1027 H 0.45946 0.26873 0.28562
 C1028 C 0.40504 0.81874 0.81040
 C1029 C 0.41377 0.80788 0.82261
 C1030 C 0.40710 0.80434 0.83997
 C1031 C 0.39047 0.81194 0.84499
 C1032 C 0.38047 0.82288 0.83268
 C1033 C 0.38834 0.82674 0.81519
 O1034 O 0.41371 0.81963 0.79430
 C1035 C 0.42810 0.80904 0.79654
 C1036 C 0.42864 0.80158 0.81367
 C1037 C 0.44185 0.78946 0.81896
 C1038 C 0.45514 0.78470 0.80604
 C1039 C 0.45514 0.79211 0.78819
 C1040 C 0.44147 0.80465 0.78341
 H1041 H 0.41438 0.79583 0.84934
 H1042 H 0.38569 0.80937 0.85875
 H1043 H 0.38131 0.83480 0.80527
 H1044 H 0.44179 0.78368 0.83252
 H1045 H 0.46551 0.77523 0.81000
 H1046 H 0.44101 0.81039 0.76985
 C1047 C -0.08828 0.31613 0.80182
 C1048 C -0.08003 0.32859 0.79047
 C1049 C -0.08783 0.34496 0.78619
 C1050 C -0.10511 0.34851 0.79342
 C1051 C -0.11448 0.33578 0.80483
 C1052 C -0.10546 0.31957 0.80964
 O1053 O -0.07892 0.30086 0.80293
 C1054 C -0.06457 0.30385 0.79202
 C1055 C -0.06466 0.32066 0.78414
 C1056 C -0.05166 0.32633 0.77141
 C1057 C -0.03798 0.31413 0.76646
 C1058 C -0.03750 0.29660 0.77422
 C1059 C -0.05094 0.29148 0.78739
 H1060 H -0.08105 0.35451 0.77718
 H1061 H -0.11111 0.36135 0.79008
 H1062 H -0.11213 0.30936 0.81795
 H1063 H -0.05224 0.33957 0.76522
 H1064 H -0.02785 0.31832 0.75642
 H1065 H -0.05113 0.27812 0.79336
 C1066 C -0.07394 0.82924 0.32333
 C1067 C -0.06470 0.84226 0.31343
 C1068 C -0.07091 0.85977 0.31165
 C1069 C -0.08775 0.86386 0.31963
 C1070 C -0.09829 0.85049 0.32909
 C1071 C -0.09065 0.83316 0.33183
 O1072 O -0.06665 0.81295 0.32153
 C1073 C -0.05268 0.81578 0.31014
 C1074 C -0.05094 0.83350 0.30476
 C1075 C -0.03877 0.83911 0.29116
 C1076 C -0.02803 0.82588 0.28262
 C1077 C -0.02951 0.80754 0.28796
 C1078 C -0.04177 0.80248 0.30216
 H1079 H -0.06347 0.86971 0.30365
 H1080 H -0.09281 0.87743 0.31794
 H1081 H -0.09833 0.82243 0.33846
 H1082 H -0.03810 0.85306 0.28677
 H1083 H -0.01879 0.82983 0.27167
 H1084 H -0.04359 0.78846 0.30602
 C1085 C 0.56310 0.68821 0.29041
 C1086 C 0.55483 0.67372 0.28193
 C1087 C 0.56151 0.65624 0.28302
 C1088 C 0.57735 0.65364 0.29322
 C1089 C 0.58627 0.66842 0.30202
 C1090 C 0.57888 0.68596 0.30052
 O1091 O 0.55458 0.70368 0.28783
 C1092 C 0.54062 0.69887 0.27750
 C1093 C 0.54012 0.68071 0.27342
 C1094 C 0.52658 0.67293 0.26266
 C1095 C 0.51303 0.68436 0.25591
 C1096 C 0.51322 0.70313 0.26010
 C1097 C 0.52732 0.71039 0.27105
 H1098 H 0.55473 0.64500 0.27634
 H1099 H 0.58248 0.64005 0.29440
 H1100 H 0.58529 0.69762 0.30680
 H1101 H 0.52646 0.65860 0.25958
 H1102 H 0.50236 0.67857 0.24757
 H1103 H 0.52799 0.72464 0.27449
 C1104 C 0.61487 0.18129 0.79323
 C1105 C 0.60981 0.16944 0.77967
 C1106 C 0.61830 0.15300 0.77676
 C1107 C 0.63265 0.14851 0.78829
 C1108 C 0.63828 0.16034 0.80269
 C1109 C 0.62897 0.17704 0.80506
 O1110 O 0.60526 0.19643 0.79336
 C1111 C 0.59383 0.19401 0.77960
 C1112 C 0.59603 0.17766 0.77086
 C1113 C 0.58558 0.17228 0.75607
 C1114 C 0.57235 0.18428 0.74995
 C1115 C 0.56987 0.20139 0.75854
 C1116 C 0.58081 0.20627 0.77365
 H1117 H 0.61404 0.14390 0.76595
 H1118 H 0.63888 0.13550 0.78610
 H1119 H 0.63278 0.18681 0.81539
 H1120 H 0.58759 0.15933 0.74941
 H1121 H 0.56423 0.18030 0.73833
 H1122 H 0.57932 0.21920 0.78050
 C1123 C 1.08066 0.67254 0.81608
 C1124 C 1.07208 0.65908 0.80635
 C1125 C 1.07962 0.64220 0.80336
 C1126 C 1.09685 0.63902 0.81051
 C1127 C 1.10632 0.65259 0.82069
 C1128 C 1.09770 0.66952 0.82383
 O1129 O 1.07186 0.68818 0.81566
 C1130 C 1.05743 0.68444 0.80542
 C1131 C 1.05694 0.66673 0.79954
 C1132 C 1.04407 0.66011 0.78742
 C1133 C 1.03145 0.67233 0.78064
 C1134 C 1.03186 0.69077 0.78604
 C1135 C 1.04473 0.69686 0.79901
 H1136 H 1.07267 0.63194 0.79538
 H1137 H 1.10256 0.62577 0.80827
 H1138 H 1.10451 0.68045 0.83097
 H1139 H 1.04423 0.64620 0.78273
 H1140 H 1.02177 0.66761 0.77059
 H1141 H 1.04573 0.71100 0.80283
 C1142 C 1.08012 0.20156 0.30577
 C1143 C 1.07547 0.18750 0.29438
 C1144 C 1.08501 0.17144 0.29358
 C1145 C 1.10013 0.16977 0.30489
 C1146 C 1.10566 0.18411 0.31681
 C1147 C 1.09508 0.20019 0.31730
 O1148 O 1.06967 0.21599 0.30370
 C1149 C 1.05822 0.21086 0.29068
 C1150 C 1.06125 0.19351 0.28457
 C1151 C 1.05161 0.18561 0.27037
 C1152 C 1.03843 0.19610 0.26190
 C1153 C 1.03506 0.21413 0.26773
 C1154 C 1.04491 0.22153 0.28258
 H1155 H 1.08106 0.16058 0.28442
 H1156 H 1.10722 0.15706 0.30433
 H1157 H 1.09869 0.21171 0.32570
 H1158 H 1.05441 0.17199 0.26571
 H1159 H 1.03098 0.19022 0.25061
 H1160 H 1.04286 0.23533 0.28710
 C1161 C 0.61205 0.28427 0.67236
 C1162 C 0.60706 0.26948 0.66204
 C1163 C 0.61392 0.26639 0.64452
 C1164 C 0.62644 0.27906 0.63738
 C1165 C 0.63180 0.29447 0.64778
 C1166 C 0.62443 0.29700 0.66557
 O1167 O 0.60382 0.28487 0.68858
 C1168 C 0.59337 0.27016 0.68849
 C1169 C 0.59483 0.26023 0.67260
 C1170 C 0.58481 0.24446 0.66958
 C1171 C 0.57269 0.23879 0.68346
 C1172 C 0.57086 0.24890 0.69994
 C1173 C 0.58151 0.26476 0.70245
 H1174 H 0.60972 0.25471 0.63658
 H1175 H 0.63171 0.27701 0.62367
 H1176 H 0.62832 0.30843 0.67399
 H1177 H 0.58613 0.23690 0.65693
 H1178 H 0.56465 0.22665 0.68127
 H1179 H 0.58040 0.27288 0.71477
 C1180 C 0.55483 0.78068 0.17590
 C1181 C 0.54742 0.76751 0.16490
 C1182 C 0.55417 0.76370 0.14753
 C1183 C 0.56921 0.77384 0.14124
 C1184 C 0.57734 0.78765 0.15229
 C1185 C 0.56970 0.79099 0.16996
 O1186 O 0.54666 0.78194 0.19212
 C1187 C 0.53379 0.76927 0.19132
 C1188 C 0.53364 0.76005 0.17495
 C1189 C 0.52143 0.74603 0.17135
 C1190 C 0.50893 0.74128 0.18522
 C1191 C 0.50889 0.75053 0.20230
 C1192 C 0.52151 0.76480 0.20527
 H1193 H 0.54809 0.75325 0.13910
 H1194 H 0.57412 0.77092 0.12759
 H1195 H 0.57527 0.80091 0.17925
 H1196 H 0.52160 0.73892 0.15838
 H1197 H 0.49941 0.73031 0.18269
 H1198 H 0.52195 0.77210 0.21813
 C1199 C 1.08342 0.30523 0.19904
 C1200 C 1.07768 0.31565 0.21354
 C1201 C 1.08624 0.33180 0.21828
 C1202 C 1.10133 0.33741 0.20766
 C1203 C 1.10770 0.32688 0.19247
 C1204 C 1.09827 0.31048 0.18831
 O1205 O 1.07369 0.29020 0.19687
 C1206 C 1.06149 0.29114 0.21032
 C1207 C 1.06328 0.30643 0.22095
 C1208 C 1.05195 0.30990 0.23592
 C1209 C 1.03830 0.29705 0.24008
 C1210 C 1.03628 0.28112 0.22930
 C1211 C 1.04809 0.27826 0.21416
 H1212 H 1.08150 0.33982 0.22977
 H1213 H 1.10772 0.35008 0.21137
 H1214 H 1.10236 0.30156 0.17732
 H1215 H 1.05362 0.32200 0.24415
 H1216 H 1.02942 0.29947 0.25173
 H1217 H 1.04702 0.26627 0.20566
 C1218 C 1.08725 0.79197 0.72915
 C1219 C 1.08519 0.79501 0.74759
 C1220 C 1.09544 0.80784 0.75701
 C1221 C 1.10833 0.81796 0.74697
 C1222 C 1.11060 0.81524 0.72782
 C1223 C 1.09980 0.80195 0.71891
 O1224 O 1.07605 0.77935 0.72272
 C1225 C 1.06665 0.77431 0.73743
 C1226 C 1.07166 0.78353 0.75300
 C1227 C 1.06312 0.78082 0.76982
 C1228 C 1.04877 0.76818 0.77058
 C1229 C 1.04339 0.75846 0.75470
 C1230 C 1.05262 0.76149 0.73792
 H1231 H 1.09359 0.80998 0.77156
 H1232 H 1.11657 0.82781 0.75417
 H1233 H 1.10075 0.79962 0.70434
 H1234 H 1.06719 0.78833 0.78186
 H1235 H 1.04185 0.76598 0.78354
 H1236 H 1.04868 0.75447 0.72554
 C1237 C 0.41498 0.71486 0.70510
 C1238 C 0.42339 0.72385 0.69083
 C1239 C 0.41684 0.72344 0.67313
 C1240 C 0.40062 0.71390 0.67011
 C1241 C 0.39120 0.70516 0.68469
 C1242 C 0.39879 0.70514 0.70234
 O1243 O 0.42286 0.71803 0.72105
 C1244 C 0.43638 0.72936 0.71675
 C1245 C 0.43720 0.73343 0.69844
 C1246 C 0.44923 0.74621 0.69117
 C1247 C 0.46098 0.75514 0.70328
 C1248 C 0.46063 0.75096 0.72216
 C1249 C 0.44824 0.73777 0.72895
 H1250 H 0.42361 0.73077 0.66219
 H1251 H 0.39491 0.71392 0.65654
 H1252 H 0.39162 0.69897 0.71375
 H1253 H 0.44931 0.74946 0.67677
 H1254 H 0.47043 0.76520 0.69796
 H1255 H 0.44746 0.73462 0.74338
 C1256 C 0.41912 0.20606 0.19402
 C1257 C 0.42658 0.21762 0.18125
 C1258 C 0.42083 0.21808 0.16329
 C1259 C 0.40671 0.20628 0.15829
 C1260 C 0.39836 0.19437 0.17123
 C1261 C 0.40486 0.19428 0.18940
 O1262 O 0.42713 0.20733 0.21016
 C1263 C 0.43987 0.21997 0.20744
 C1264 C 0.44002 0.22676 0.19001
 C1265 C 0.45246 0.23984 0.18410
 C1266 C 0.46549 0.24599 0.19662
 C1267 C 0.46593 0.23891 0.21460
 C1268 C 0.45271 0.22585 0.22009
 H1269 H 0.42715 0.22706 0.15340
 H1270 H 0.40259 0.20633 0.14417
 H1271 H 0.39899 0.18544 0.19967
 H1272 H 0.45233 0.24491 0.17026
 H1273 H 0.47552 0.25588 0.19212
 H1274 H 0.45270 0.22006 0.23365
 C1275 C -0.10208 0.72914 0.22526
 C1276 C -0.10254 0.72640 0.24384
 C1277 C -0.11697 0.71780 0.25275
 C1278 C -0.13131 0.71133 0.24200
 C1279 C -0.13091 0.71337 0.22270
 C1280 C -0.11622 0.72281 0.21430
 O1281 O -0.08679 0.73706 0.21947
 C1282 C -0.07739 0.73928 0.23471
 C1283 C -0.08639 0.73289 0.24999
 C1284 C -0.07868 0.73301 0.26724
 C1285 C -0.06102 0.74016 0.26886
 C1286 C -0.05153 0.74711 0.25336
 C1287 C -0.05991 0.74665 0.23604
 H1288 H -0.11701 0.71580 0.26739
 H1289 H -0.14255 0.70433 0.24865
 H1290 H -0.11530 0.72429 0.19961
 H1291 H -0.08596 0.72768 0.27902
 H1292 H -0.05484 0.74048 0.28221
 H1293 H -0.05297 0.75168 0.22393
 C1294 C -0.07811 0.20357 0.70126
 C1295 C -0.07346 0.21733 0.68958
 C1296 C -0.08137 0.21948 0.67266
 C1297 C -0.09475 0.20695 0.66746
 C1298 C -0.10014 0.19235 0.67911
 C1299 C -0.09140 0.19078 0.69636
 O1300 O -0.06886 0.20419 0.71681
 C1301 C -0.05813 0.21868 0.71477
 C1302 C -0.06048 0.22710 0.69828
 C1303 C -0.05079 0.24242 0.69305
 C1304 C -0.03806 0.24944 0.70530
 C1305 C -0.03520 0.24119 0.72254
 C1306 C -0.04548 0.22552 0.72734
 H1307 H -0.07734 0.23044 0.66369
 H1308 H -0.10042 0.20866 0.65407
 H1309 H -0.09493 0.18025 0.70597
 H1310 H -0.05294 0.24876 0.67996
 H1311 H -0.03048 0.26143 0.70127
 H1312 H -0.04366 0.21889 0.74033
 C1313 C 0.30748 0.42842 0.31627
 C1314 C 0.31971 0.44109 0.30970
 C1315 C 0.33840 0.43945 0.31153
 C1316 C 0.34480 0.42389 0.32007
 C1317 C 0.33257 0.41028 0.32647
 C1318 C 0.31358 0.41282 0.32493
 O1319 O 0.29033 0.43225 0.31236
 C1320 C 0.29183 0.44761 0.30306
 C1321 C 0.30953 0.45352 0.30101
 C1322 C 0.31434 0.46874 0.29091
 C1323 C 0.30032 0.47833 0.28263
 C1324 C 0.28189 0.47267 0.28467
 C1325 C 0.27762 0.45709 0.29514
 H1326 H 0.34774 0.44957 0.30618
 H1327 H 0.35935 0.42220 0.32131
 H1328 H 0.30396 0.40251 0.32935
 H1329 H 0.32841 0.47296 0.28929
 H1330 H 0.30382 0.49024 0.27473
 H1331 H 0.26373 0.45229 0.29676
 C1332 C 0.29556 -0.07585 0.81436
 C1333 C 0.28413 -0.06753 0.82672
 C1334 C 0.27986 -0.07479 0.84365
 C1335 C 0.28751 -0.09142 0.84808
 C1336 C 0.29940 -0.10070 0.83567
 C1337 C 0.30362 -0.09241 0.81856
 O1338 O 0.29725 -0.06678 0.79875
 C1339 C 0.28666 -0.05247 0.80143
 C1340 C 0.27841 -0.05232 0.81838
 C1341 C 0.26649 -0.03889 0.82405
 C1342 C 0.26279 -0.02502 0.81171
 C1343 C 0.27090 -0.02480 0.79399
 C1344 C 0.28314 -0.03875 0.78885
 H1345 H 0.27083 -0.06791 0.85314
 H1346 H 0.28433 -0.09666 0.86149
 H1347 H 0.31227 -0.09887 0.80847
 H1348 H 0.26012 -0.03916 0.83747
 H1349 H 0.25340 -0.01457 0.81596
 H1350 H 0.28949 -0.03909 0.77542
 C1351 C 0.77187 0.41189 0.77625
 C1352 C 0.77937 0.41462 0.75920
 C1353 C 0.79395 0.40480 0.75247
 C1354 C 0.80142 0.39179 0.76388
 C1355 C 0.79442 0.38876 0.78194
 C1356 C 0.77901 0.39887 0.78791
 O1357 O 0.75841 0.42324 0.78013
 C1358 C 0.75749 0.43332 0.76517
 C1359 C 0.77008 0.42854 0.75200
 C1360 C 0.77216 0.43768 0.73558
 C1361 C 0.76085 0.45247 0.73259
 C1362 C 0.74770 0.45778 0.74590
 C1363 C 0.74589 0.44791 0.76239
 H1364 H 0.79953 0.40718 0.73893
 H1365 H 0.81256 0.38402 0.75831
 H1366 H 0.77322 0.39742 0.80147
 H1367 H 0.78230 0.43371 0.72551
 H1368 H 0.76235 0.45978 0.71987
 H1369 H 0.73613 0.45176 0.77288
 C1370 C 0.78558 -0.08920 0.28050
 C1371 C 0.79478 -0.08832 0.26407
 C1372 C 0.81163 -0.09608 0.26112
 C1373 C 0.81950 -0.10503 0.27576
 C1374 C 0.81046 -0.10632 0.29310
 C1375 C 0.79296 -0.09846 0.29525
 O1376 O 0.77015 -0.07993 0.28057
 C1377 C 0.76968 -0.07315 0.26378
 C1378 C 0.78440 -0.07805 0.25317
 C1379 C 0.78707 -0.07218 0.23535
 C1380 C 0.77408 -0.06059 0.22815
 C1381 C 0.75886 -0.05495 0.23884
 C1382 C 0.75659 -0.06150 0.25692
 H1383 H 0.81860 -0.09511 0.24804
 H1384 H 0.83249 -0.11135 0.27321
 H1385 H 0.78568 -0.09871 0.30819
 H1386 H 0.79887 -0.07617 0.22736
 H1387 H 0.77615 -0.05570 0.21435
 H1388 H 0.74523 -0.05737 0.26549
 C1389 C 0.31185 0.59495 0.69379
 C1390 C 0.30291 0.58655 0.67964
 C1391 C 0.30039 0.59469 0.66282
 C1392 C 0.30713 0.61235 0.66056
 C1393 C 0.31610 0.62155 0.67503
 C1394 C 0.31873 0.61253 0.69182
 O1395 O 0.31219 0.58501 0.70886
 C1396 C 0.30322 0.57005 0.70409
 C1397 C 0.29724 0.57036 0.68636
 C1398 C 0.28688 0.55648 0.67875
 C1399 C 0.28244 0.54168 0.68989
 C1400 C 0.28843 0.54095 0.70825
 C1401 C 0.29913 0.55534 0.71537
 H1402 H 0.29326 0.58781 0.65191
 H1403 H 0.30523 0.61890 0.64755
 H1404 H 0.32524 0.61924 0.70321
 H1405 H 0.28219 0.55714 0.66481
 H1406 H 0.27430 0.53079 0.68418
 H1407 H 0.30373 0.55530 0.72938
 C1408 C 0.32335 1.08468 0.20572
 C1409 C 0.31473 1.07230 0.19462
 C1410 C 0.31586 1.07274 0.17576
 C1411 C 0.32561 1.08701 0.16784
 C1412 C 0.33380 1.10088 0.17871
 C1413 C 0.33338 1.09908 0.19808
 O1414 O 0.31955 1.08212 0.22337
 C1415 C 0.30819 1.06796 0.22324
 C1416 C 0.30477 1.06161 0.20591
 C1417 C 0.29221 1.04795 0.20224
 C1418 C 0.28281 1.04035 0.21708
 C1419 C 0.28630 1.04627 0.23515
 C1420 C 0.29930 1.06019 0.23836
 H1421 H 0.30905 1.06271 0.16738
 H1422 H 0.32648 1.08729 0.15308
 H1423 H 0.33919 1.10933 0.20693
 H1424 H 0.28953 1.04351 0.18840
 H1425 H 0.27300 1.02962 0.21455
 H1426 H 0.30200 1.06506 0.25205
 C1427 C 0.79938 0.59283 0.21102
 C1428 C 0.81361 0.58557 0.22049
 C1429 C 0.83061 0.59383 0.22147
 C1430 C 0.83288 0.61055 0.21283
 C1431 C 0.81826 0.61871 0.20353
 C1432 C 0.80140 0.60946 0.20216
 O1433 O 0.78409 0.58322 0.21269
 C1434 C 0.78879 0.56972 0.22352
 C1435 C 0.80668 0.57060 0.22873
 C1436 C 0.81418 0.55854 0.24099
 C1437 C 0.80278 0.54490 0.24809
 C1438 C 0.78432 0.54352 0.24274
 C1439 C 0.77728 0.55611 0.23021
 H1440 H 0.84156 0.58791 0.22912
 H1441 H 0.84586 0.61752 0.21390
 H1442 H 0.78993 0.61559 0.19552
 H1443 H 0.82824 0.55972 0.24510
 H1444 H 0.80837 0.53533 0.25761
 H1445 H 0.76318 0.55555 0.22607
 C1446 C 0.82663 1.06975 0.69964
 C1447 C 0.84143 1.06159 0.70726
 C1448 C 0.85878 1.06928 0.70689
 C1449 C 0.86099 1.08607 0.69826
 C1450 C 0.84599 1.09476 0.69016
 C1451 C 0.82855 1.08638 0.69087
 O1452 O 0.81122 1.06048 0.70211
 C1453 C 0.81642 1.04613 0.71148
 C1454 C 0.83479 1.04617 0.71491
 C1455 C 0.84311 1.03278 0.72496
 C1456 C 0.83200 1.01893 0.73206
 C1457 C 0.81291 1.01869 0.72909
 C1458 C 0.80508 1.03240 0.71836
 H1459 H 0.87019 1.06264 0.71312
 H1460 H 0.87442 1.09219 0.69767
 H1461 H 0.81679 1.09279 0.68508
 H1462 H 0.85758 1.03316 0.72754
 H1463 H 0.83829 1.00859 0.74021
 H1464 H 0.79056 1.03277 0.71603
 C1465 C 0.68868 0.58295 0.30586
 C1466 C 0.69667 0.57538 0.32084
 C1467 C 0.69433 0.58207 0.33848
 C1468 C 0.68340 0.59734 0.34079
 C1469 C 0.67510 0.60562 0.32560
 C1470 C 0.67763 0.59813 0.30787
 O1471 O 0.69327 0.57480 0.29025
 C1472 C 0.70442 0.56183 0.29553
 C1473 C 0.70690 0.56167 0.31414
 C1474 C 0.71849 0.54976 0.32266
 C1475 C 0.72807 0.53756 0.31157
 C1476 C 0.72592 0.53740 0.29230
 C1477 C 0.71372 0.54963 0.28418
 H1478 H 0.70085 0.57588 0.35002
 H1479 H 0.68140 0.60272 0.35444
 H1480 H 0.67168 0.60429 0.29600
 H1481 H 0.72029 0.55002 0.33732
 H1482 H 0.73725 0.52828 0.31806
 H1483 H 0.71193 0.54999 0.26952
 C1484 C 0.73299 1.06980 0.80655
 C1485 C 0.74762 1.06658 0.81752
 C1486 C 0.75142 1.07699 0.83283
 C1487 C 0.73964 1.09126 0.83707
 C1488 C 0.72417 1.09503 0.82606
 C1489 C 0.72107 1.08391 0.81044
 O1490 O 0.73181 1.05833 0.79260
 C1491 C 0.74603 1.04767 0.79485
 C1492 C 0.75617 1.05213 0.80989
 C1493 C 0.77170 1.04271 0.81471
 C1494 C 0.77698 1.02813 0.80351
 C1495 C 0.76672 1.02329 0.78788
 C1496 C 0.75099 1.03327 0.78359
 H1497 H 0.76310 1.07427 0.84121
 H1498 H 0.74305 1.09938 0.84885
 H1499 H 0.70961 1.08577 0.80158
 H1500 H 0.77948 1.04649 0.82663
 H1501 H 0.78905 1.02067 0.80700
 H1502 H 0.74284 1.03003 0.77176
 C1503 C 0.20440 0.56734 0.79558
 C1504 C 0.21392 0.55773 0.80824
 C1505 C 0.21429 0.56222 0.82663
 C1506 C 0.20464 0.57746 0.83231
 C1507 C 0.19455 0.58788 0.81972
 C1508 C 0.19407 0.58232 0.80106
 O1509 O 0.20751 0.56170 0.77849
 C1510 C 0.21925 0.54826 0.78053
 C1511 C 0.22339 0.54530 0.79855
 C1512 C 0.23622 0.53292 0.80406
 C1513 C 0.24554 0.52339 0.79043
 C1514 C 0.24204 0.52638 0.77166
 C1515 C 0.22835 0.53869 0.76657
 H1516 H 0.22216 0.55454 0.83623
 H1517 H 0.20488 0.58087 0.84670
 H1518 H 0.18702 0.59010 0.79092
 H1519 H 0.23935 0.53106 0.81834
 H1520 H 0.25588 0.51393 0.79450
 H1521 H 0.22569 0.54147 0.75235
 C1522 C 0.20992 1.10607 0.31991
 C1523 C 0.22573 1.10512 0.32964
 C1524 C 0.22984 1.11718 0.34361
 C1525 C 0.21717 1.13076 0.34771
 C1526 C 0.20053 1.13222 0.33788
 C1527 C 0.19712 1.11940 0.32370
 O1528 O 0.20852 1.09333 0.30717
 C1529 C 0.22380 1.08414 0.30889
 C1530 C 0.23486 1.09075 0.32244
 C1531 C 0.25154 1.08303 0.32647
 C1532 C 0.25699 1.06788 0.31611
 C1533 C 0.24576 1.06082 0.30205
 C1534 C 0.22892 1.06919 0.29848
 H1535 H 0.24240 1.11620 0.35110
 H1536 H 0.22071 1.14004 0.35855
 H1537 H 0.18491 1.11946 0.31567
 H1538 H 0.26004 1.08845 0.33720
 H1539 H 0.26991 1.06168 0.31905
 H1540 H 0.21996 1.06422 0.28790
 C1541 C 0.68890 0.42349 0.65932
 C1542 C 0.67233 0.43031 0.66481
 C1543 C 0.65591 0.42178 0.66087
 C1544 C 0.65657 0.40536 0.65125
 C1545 C 0.67348 0.39767 0.64593
 C1546 C 0.68987 0.40717 0.64964
 O1547 O 0.70292 0.43298 0.66570
 C1548 C 0.69502 0.44596 0.67551
 C1549 C 0.67632 0.44487 0.67545
 C1550 C 0.66534 0.45593 0.68628
 C1551 C 0.67400 0.46846 0.69781
 C1552 C 0.69325 0.46986 0.69809
 C1553 C 0.70390 0.45868 0.68651
 H1554 H 0.64306 0.42730 0.66552
 H1555 H 0.64392 0.39835 0.64836
 H1556 H 0.70298 0.40144 0.64619
 H1557 H 0.65067 0.45448 0.68636
 H1558 H 0.66577 0.47684 0.70679
 H1559 H 0.71863 0.45907 0.68696
 C1560 C 0.66935 -0.10339 0.17187
 C1561 C 0.65701 -0.09587 0.18388
 C1562 C 0.63946 -0.10261 0.18625
 C1563 C 0.63444 -0.11785 0.17593
 C1564 C 0.64702 -0.12628 0.16369
 C1565 C 0.66474 -0.11870 0.16160
 O1566 O 0.68532 -0.09481 0.17167
 C1567 C 0.68298 -0.08165 0.18388
 C1568 C 0.66592 -0.08179 0.19183
 C1569 C 0.66070 -0.06955 0.20535
 C1570 C 0.67359 -0.05660 0.21091
 C1571 C 0.69120 -0.05597 0.20274
 C1572 C 0.69591 -0.06868 0.18897
 H1573 H 0.62993 -0.09634 0.19567
 H1574 H 0.62068 -0.12292 0.17750
 H1575 H 0.67480 -0.12469 0.15258
 H1576 H 0.64722 -0.07004 0.21149
 H1577 H 0.66978 -0.04693 0.22142
 H1578 H 0.70931 -0.06865 0.18262
 C1579 C 0.20531 0.41490 0.20148
 C1580 C 0.21665 0.42366 0.18928
 C1581 C 0.21845 0.41822 0.17112
 C1582 C 0.20807 0.40322 0.16530
 C1583 C 0.19619 0.39392 0.17762
 C1584 C 0.19504 0.39990 0.19606
 O1585 O 0.20513 0.42243 0.21799
 C1586 C 0.21660 0.43629 0.21620
 C1587 C 0.22408 0.43764 0.19893
 C1588 C 0.23625 0.45137 0.19406
 C1589 C 0.24076 0.46427 0.20749
 C1590 C 0.23303 0.46331 0.22537
 C1591 C 0.22084 0.44897 0.22972
 H1592 H 0.22734 0.42542 0.16170
 H1593 H 0.20906 0.39916 0.15111
 H1594 H 0.18639 0.39318 0.20601
 H1595 H 0.24193 0.45222 0.18037
 H1596 H 0.25007 0.47515 0.20385
 H1597 H 0.21463 0.44780 0.24316
 C1598 C 0.19064 -0.06634 0.71618
 C1599 C 0.18002 -0.05859 0.72962
 C1600 C 0.16371 -0.06616 0.73566
 C1601 C 0.15822 -0.08259 0.72777
 C1602 C 0.16891 -0.09117 0.71387
 C1603 C 0.18520 -0.08248 0.70773
 O1604 O 0.20636 -0.05764 0.71352
 C1605 C 0.20558 -0.04413 0.72555
 C1606 C 0.18967 -0.04406 0.73563
 C1607 C 0.18629 -0.03171 0.74960
 C1608 C 0.19998 -0.01899 0.75352
 C1609 C 0.21675 -0.01895 0.74363
 C1610 C 0.21943 -0.03161 0.72924
 H1611 H 0.15568 -0.05986 0.74640
 H1612 H 0.14545 -0.08841 0.73244
 H1613 H 0.19408 -0.08862 0.69762
 H1614 H 0.17372 -0.03208 0.75747
 H1615 H 0.19765 -0.00949 0.76460
 H1616 H 0.23212 -0.03211 0.72157
 C1617 C 0.31112 0.31476 0.41995
 C1618 C 0.32202 0.30139 0.42661
 C1619 C 0.33905 0.29758 0.41933
 C1620 C 0.34512 0.30784 0.40440
 C1621 C 0.33405 0.32148 0.39668
 C1622 C 0.31676 0.32501 0.40484
 O1623 O 0.29546 0.31623 0.42914
 C1624 C 0.29655 0.30345 0.44179
 C1625 C 0.31250 0.29392 0.44068
 C1626 C 0.31639 0.27961 0.45216
 C1627 C 0.30329 0.27489 0.46540
 C1628 C 0.28681 0.28464 0.46713
 C1629 C 0.28342 0.29921 0.45517
 H1630 H 0.34746 0.28712 0.42501
 H1631 H 0.35858 0.30506 0.39908
 H1632 H 0.30782 0.33517 0.39951
 H1633 H 0.32902 0.27227 0.45090
 H1634 H 0.30611 0.26380 0.47451
 H1635 H 0.27091 0.30679 0.45609
 C1636 C 0.28030 0.80498 -0.06929
 C1637 C 0.29424 0.80077 -0.05773
 C1638 C 0.31238 0.80476 -0.06162
 C1639 C 0.31640 0.81319 -0.07828
 C1640 C 0.30240 0.81744 -0.09068
 C1641 C 0.28401 0.81361 -0.08595
 O1642 O 0.26416 0.79898 -0.06335
 C1643 C 0.26808 0.79076 -0.04777
 C1644 C 0.28632 0.79151 -0.04379
 C1645 C 0.29372 0.78292 -0.02883
 C1646 C 0.28187 0.77300 -0.01751
 C1647 C 0.26297 0.77188 -0.02123
 C1648 C 0.25592 0.78113 -0.03648
 H1649 H 0.32310 0.80112 -0.05236
 H1650 H 0.33048 0.81618 -0.08171
 H1651 H 0.27313 0.81642 -0.09533
 H1652 H 0.30817 0.78353 -0.02617
 H1653 H 0.28747 0.76607 -0.00589
 H1654 H 0.24163 0.78027 -0.03982
 C1655 C 0.79207 0.31257 -0.09636
 C1656 C 0.77993 0.32492 -0.08936
 C1657 C 0.77643 0.34127 -0.09775
 C1658 C 0.78557 0.34500 -0.11422
 C1659 C 0.79786 0.33238 -0.12218
 C1660 C 0.80137 0.31600 -0.11287
 O1661 O 0.79307 0.29770 -0.08626
 C1662 C 0.78125 0.30078 -0.07267
 C1663 C 0.77283 0.31722 -0.07404
 C1664 C 0.75948 0.32299 -0.06179
 C1665 C 0.75454 0.31133 -0.04749
 C1666 C 0.76307 0.29431 -0.04553
 C1667 C 0.77674 0.28902 -0.05832
 H1668 H 0.76687 0.35080 -0.09189
 H1669 H 0.78300 0.35776 -0.12080
 H1670 H 0.81053 0.30603 -0.11858
 H1671 H 0.75294 0.33594 -0.06329
 H1672 H 0.74413 0.31564 -0.03785
 H1673 H 0.78335 0.27605 -0.05733
 C1674 C 0.79636 0.81245 0.40986
 C1675 C 0.78435 0.82443 0.41773
 C1676 C 0.78231 0.84202 0.41161
 C1677 C 0.79298 0.84751 0.39662
 C1678 C 0.80546 0.83549 0.38809
 C1679 C 0.80734 0.81774 0.39498
 O1680 O 0.79564 0.79617 0.41752
 C1681 C 0.78290 0.79798 0.43048
 C1682 C 0.77566 0.81504 0.43115
 C1683 C 0.76194 0.81995 0.44335
 C1684 C 0.75533 0.80673 0.45540
 C1685 C 0.76239 0.78889 0.45507
 C1686 C 0.77648 0.78451 0.44239
 H1687 H 0.77270 0.85114 0.41802
 H1688 H 0.79156 0.86116 0.39163
 H1689 H 0.81662 0.80825 0.38861
 H1690 H 0.75643 0.83347 0.44351
 H1691 H 0.74456 0.81041 0.46490
 H1692 H 0.78213 0.77106 0.44169
 C1693 C 0.72633 0.29547 0.55602
 C1694 C 0.74369 0.30254 0.55531
 C1695 C 0.74911 0.31711 0.56619
 C1696 C 0.73615 0.32444 0.57844
 C1697 C 0.71826 0.31706 0.57961
 C1698 C 0.71333 0.30254 0.56793
 O1699 O 0.72392 0.28134 0.54507
 C1700 C 0.74014 0.27934 0.53727
 C1701 C 0.75278 0.29193 0.54299
 C1702 C 0.77078 0.29182 0.53682
 C1703 C 0.77590 0.27817 0.52434
 C1704 C 0.76305 0.26499 0.51834
 C1705 C 0.74488 0.26576 0.52491
 H1706 H 0.76288 0.32242 0.56554
 H1707 H 0.74021 0.33542 0.58738
 H1708 H 0.69978 0.29668 0.56827
 H1709 H 0.78057 0.30177 0.54157
 H1710 H 0.78987 0.27782 0.51948
 H1711 H 0.73472 0.25591 0.52077
 C1712 C 0.68727 0.79167 1.06183
 C1713 C 0.67697 0.78290 1.04889
 C1714 C 0.65807 0.78278 1.04921
 C1715 C 0.64937 0.79171 1.06374
 C1716 C 0.65957 0.80036 1.07769
 C1717 C 0.67884 0.80073 1.07645
 O1718 O 0.70505 0.78920 1.05945
 C1719 C 0.70593 0.77852 1.04478
 C1720 C 0.68906 0.77423 1.03791
 C1721 C 0.68654 0.76212 1.02358
 C1722 C 0.70204 0.75401 1.01599
 C1723 C 0.71962 0.75829 1.02262
 C1724 C 0.72166 0.77093 1.03708
 H1725 H 0.65031 0.77566 1.03891
 H1726 H 0.63465 0.79150 1.06438
 H1727 H 0.68697 0.80690 1.08707
 H1728 H 0.67309 0.75871 1.01868
 H1729 H 0.70038 0.74438 1.00491
 H1730 H 0.73493 0.77413 1.04258
 C1731 C 0.19602 0.29834 1.08225
 C1732 C 0.18235 0.28860 1.07395
 C1733 C 0.16432 0.28933 1.07982
 C1734 C 0.16026 0.30038 1.09496
 C1735 C 0.17417 0.31035 1.10407
 C1736 C 0.19232 0.30935 1.09739
 O1737 O 0.21222 0.29582 1.07451
 C1738 C 0.20869 0.28424 1.06105
 C1739 C 0.19064 0.27931 1.06013
 C1740 C 0.18407 0.26714 1.04714
 C1741 C 0.19663 0.25987 1.03449
 C1742 C 0.21529 0.26497 1.03501
 C1743 C 0.22132 0.27730 1.04860
 H1744 H 0.15375 0.28168 1.07299
 H1745 H 0.14623 0.30119 1.09949
 H1746 H 0.20333 0.31656 1.10399
 H1747 H 0.16980 0.26341 1.04671
 H1748 H 0.19177 0.25050 1.02418
 H1749 H 0.23547 0.28144 1.04947
 C1750 C 0.18124 0.82601 0.60450
 C1751 C 0.16654 0.81729 0.59681
 C1752 C 0.14957 0.81628 0.60528
 C1753 C 0.14776 0.82416 0.62263
 C1754 C 0.16283 0.83268 0.63122
 C1755 C 0.17970 0.83406 0.62179
 O1756 O 0.19642 0.82430 0.59463
 C1757 C 0.19118 0.81419 0.58053
 C1758 C 0.17303 0.80950 0.58130
 C1759 C 0.16497 0.79771 0.56886
 C1760 C 0.17609 0.79038 0.55506
 C1761 C 0.19481 0.79511 0.55386
 C1762 C 0.20241 0.80738 0.56665
 H1763 H 0.13827 0.80920 0.59902
 H1764 H 0.13474 0.82317 0.62965
 H1765 H 0.19148 0.84014 0.62821
 H1766 H 0.15073 0.79393 0.57002
 H1767 H 0.17017 0.78099 0.54535
 H1768 H 0.21676 0.81087 0.56626
 C1769 C 0.28361 0.72449 0.59783
 C1770 C 0.29569 0.73611 0.58934
 C1771 C 0.31352 0.73850 0.59491
 C1772 C 0.31914 0.72864 0.61002
 C1773 C 0.30693 0.71679 0.61942
 C1774 C 0.28890 0.71454 0.61303
 O1775 O 0.26723 0.72445 0.59030
 C1776 C 0.26909 0.73636 0.57683
 C1777 C 0.28626 0.74387 0.57578
 C1778 C 0.29122 0.75700 0.56315
 C1779 C 0.27789 0.76271 0.55105
 C1780 C 0.26005 0.75516 0.55168
 C1781 C 0.25562 0.74167 0.56471
 H1782 H 0.32277 0.74765 0.58787
 H1783 H 0.33312 0.73019 0.61425
 H1784 H 0.27925 0.70568 0.61990
 H1785 H 0.30482 0.76275 0.56271
 H1786 H 0.28153 0.77294 0.54109
 H1787 H 0.24209 0.73578 0.56560
 C1788 C 0.30652 0.19182 1.07624
 C1789 C 0.29813 0.17824 1.06647
 C1790 C 0.30063 0.16004 1.07010
 C1791 C 0.31201 0.15566 1.08462
 C1792 C 0.32046 0.16944 1.09530
 C1793 C 0.31779 0.18780 1.09079
 O1794 O 0.30233 0.20824 1.07056
 C1795 C 0.29100 0.20493 1.05694
 C1796 C 0.28789 0.18679 1.05395
 C1797 C 0.27621 0.18032 1.04058
 C1798 C 0.26753 0.19309 1.02969
 C1799 C 0.27081 0.21189 1.03227
 C1800 C 0.28267 0.21784 1.04620
 H1801 H 0.29399 0.14958 1.06212
 H1802 H 0.31415 0.14153 1.08755
 H1803 H 0.32377 0.19869 1.09869
 H1804 H 0.27391 0.16597 1.03856
 H1805 H 0.25856 0.18831 1.01903
 H1806 H 0.28542 0.23207 1.04856
 C1807 C 0.80175 0.70036 1.09618
 C1808 C 0.81477 0.71179 1.08891
 C1809 C 0.83046 0.71675 1.09813
 C1810 C 0.83275 0.70985 1.11573
 C1811 C 0.81941 0.69830 1.12385
 C1812 C 0.80378 0.69326 1.11374
 O1813 O 0.78762 0.69785 1.08522
 C1814 C 0.79185 0.70797 1.07077
 C1815 C 0.80832 0.71679 1.07244
 C1816 C 0.81516 0.72866 1.05938
 C1817 C 0.80457 0.73167 1.04392
 C1818 C 0.78752 0.72276 1.04171
 C1819 C 0.78114 0.71059 1.05531
 H1820 H 0.84049 0.72579 1.09208
 H1821 H 0.84493 0.71359 1.12306
 H1822 H 0.79326 0.68466 1.11961
 H1823 H 0.82809 0.73555 1.06112
 H1824 H 0.80972 0.74096 1.03366
 H1825 H 0.76810 0.70375 1.05413
 C1826 C 0.81756 0.17844 0.57703
 C1827 C 0.80080 0.17029 0.57505
 C1828 C 0.79339 0.15854 0.58795
 C1829 C 0.80369 0.15500 0.60353
 C1830 C 0.82111 0.16316 0.60596
 C1831 C 0.82807 0.17507 0.59239
 O1832 O 0.82190 0.18951 0.56339
 C1833 C 0.80754 0.18834 0.55258
 C1834 C 0.79427 0.17673 0.55910
 C1835 C 0.77791 0.17379 0.55019
 C1836 C 0.77500 0.18336 0.53400
 C1837 C 0.78837 0.19561 0.52703
 C1838 C 0.80498 0.19794 0.53644
 H1839 H 0.78007 0.15244 0.58618
 H1840 H 0.79790 0.14614 0.61382
 H1841 H 0.84129 0.18148 0.59363
 H1842 H 0.76763 0.16464 0.55563
 H1843 H 0.76220 0.18137 0.52705
 H1844 H 0.81539 0.20730 0.53165
 C1845 C 0.68101 0.70970 0.40482
 C1846 C 0.66850 0.72062 0.41344
 C1847 C 0.65040 0.72130 0.40804
 C1848 C 0.64504 0.71019 0.39331
 C1849 C 0.65774 0.69869 0.38427
 C1850 C 0.67606 0.69876 0.39014
 O1851 O 0.69738 0.71054 0.41220
 C1852 C 0.69521 0.72222 0.42584
 C1853 C 0.67784 0.72889 0.42723
 C1854 C 0.67271 0.74116 0.44082
 C1855 C 0.68599 0.74663 0.45350
 C1856 C 0.70394 0.73969 0.45244
 C1857 C 0.70852 0.72738 0.43826
 H1858 H 0.64070 0.72986 0.41509
 H1859 H 0.63093 0.71027 0.38928
 H1860 H 0.68629 0.69048 0.38355
 H1861 H 0.65896 0.74623 0.44173
 H1862 H 0.68222 0.75603 0.46426
 H1863 H 0.72204 0.72178 0.43698
 C1864 C 0.69926 0.19704 -0.08107
 C1865 C 0.70481 0.18576 -0.06737
 C1866 C 0.70430 0.16705 -0.06886
 C1867 C 0.69835 0.15961 -0.08538
 C1868 C 0.69326 0.17087 -0.10007
 C1869 C 0.69319 0.18988 -0.09767
 O1870 O 0.70205 0.21444 -0.07724
 C1871 C 0.70967 0.21406 -0.06087
 C1872 C 0.71175 0.19680 -0.05433
 C1873 C 0.72092 0.19304 -0.03832
 C1874 C 0.72828 0.20769 -0.02861
 C1875 C 0.72609 0.22561 -0.03488
 C1876 C 0.71646 0.22892 -0.05111
 H1877 H 0.70890 0.15849 -0.05793
 H1878 H 0.69831 0.14505 -0.08702
 H1879 H 0.68980 0.19877 -0.10880
 H1880 H 0.72274 0.17930 -0.03372
 H1881 H 0.73566 0.20512 -0.01618
 H1882 H 0.71499 0.24250 -0.05632
 C1883 C 0.19143 0.68468 -0.07738
 C1884 C 0.20066 0.67213 -0.06734
 C1885 C 0.20193 0.65409 -0.07240
 C1886 C 0.19375 0.64878 -0.08876
 C1887 C 0.18474 0.66149 -0.09991
 C1888 C 0.18319 0.67968 -0.09387
 O1889 O 0.19221 0.70120 -0.07011
 C1890 C 0.20222 0.69896 -0.05527
 C1891 C 0.20780 0.68142 -0.05309
 C1892 C 0.21904 0.67608 -0.03902
 C1893 C 0.22466 0.68934 -0.02651
 C1894 C 0.21884 0.70749 -0.02812
 C1895 C 0.20740 0.71236 -0.04274
 H1896 H 0.20917 0.64448 -0.06418
 H1897 H 0.19472 0.63475 -0.09290
 H1898 H 0.17656 0.68970 -0.10212
 H1899 H 0.22339 0.66221 -0.03776
 H1900 H 0.23328 0.68538 -0.01534
 H1901 H 0.20285 0.72613 -0.04438
 C1902 C 0.18766 0.22459 0.42899
 C1903 C 0.18225 0.24233 0.42857
 C1904 C 0.17102 0.24892 0.41499
 C1905 C 0.16543 0.23679 0.40119
 C1906 C 0.17122 0.21851 0.40121
 C1907 C 0.18218 0.21237 0.41563
 O1908 O 0.19914 0.22111 0.44229
 C1909 C 0.20115 0.23701 0.45046
 C1910 C 0.19110 0.25050 0.44270
 C1911 C 0.19206 0.26839 0.44870
 C1912 C 0.20402 0.27250 0.46306
 C1913 C 0.21479 0.25880 0.47095
 C1914 C 0.21302 0.24077 0.46465
 H1915 H 0.16710 0.26299 0.41473
 H1916 H 0.15721 0.24180 0.39019
 H1917 H 0.18676 0.19853 0.41623
 H1918 H 0.18421 0.27886 0.44230
 H1919 H 0.20526 0.28641 0.46764
 H1920 H 0.22111 0.22998 0.47018
 C1921 C 0.33112 0.41657 0.68885
 C1922 C 0.34436 0.42902 0.69335
 C1923 C 0.36283 0.42516 0.69267
 C1924 C 0.36791 0.40773 0.68708
 C1925 C 0.35456 0.39458 0.68231
 C1926 C 0.33587 0.39918 0.68311
 O1927 O 0.31432 0.42269 0.69148
 C1928 C 0.31704 0.43937 0.69778
 C1929 C 0.33520 0.44388 0.69911
 C1930 C 0.34124 0.46023 0.70634
 C1931 C 0.32807 0.47227 0.71289
 C1932 C 0.30923 0.46786 0.71210
 C1933 C 0.30362 0.45131 0.70402
 H1934 H 0.37298 0.43515 0.69649
 H1935 H 0.38223 0.40450 0.68636
 H1936 H 0.32537 0.38936 0.67988
 H1937 H 0.35561 0.46337 0.70742
 H1938 H 0.33257 0.48487 0.71907
 H1939 H 0.28939 0.44739 0.70365
 C1940 C 0.29021 0.92261 0.22130
 C1941 C 0.28221 0.93286 0.20806
 C1942 C 0.27851 0.92633 0.19067
 C1943 C 0.28314 0.90842 0.18672
 C1944 C 0.29123 0.89733 0.20010
 C1945 C 0.29501 0.90466 0.21763
 O1946 O 0.29185 0.93136 0.23715
 C1947 C 0.28469 0.94744 0.23379
 C1948 C 0.27861 0.94895 0.21616
 C1949 C 0.26983 0.96415 0.20978
 C1950 C 0.26692 0.97834 0.22214
 C1951 C 0.27288 0.97720 0.24047
 C1952 C 0.28220 0.96163 0.24633
 H1953 H 0.27215 0.93471 0.18053
 H1954 H 0.28050 0.90324 0.17314
 H1955 H 0.30101 0.89651 0.22817
 H1956 H 0.26504 0.96489 0.19587
 H1957 H 0.25984 0.99021 0.21748
 H1958 H 0.28661 0.96030 0.26032
 C1959 C 0.80764 0.42320 0.20390
 C1960 C 0.82129 0.43156 0.21355
 C1961 C 0.83902 0.42520 0.21377
 C1962 C 0.84288 0.40957 0.20354
 C1963 C 0.82906 0.40058 0.19344
 C1964 C 0.81116 0.40761 0.19369
 O1965 O 0.79161 0.43120 0.20594
 C1966 C 0.79524 0.44491 0.21716
 C1967 C 0.81322 0.44568 0.22221
 C1968 C 0.81993 0.45843 0.23445
 C1969 C 0.80755 0.47070 0.24206
 C1970 C 0.78887 0.47014 0.23727
 C1971 C 0.78268 0.45722 0.22437
 H1972 H 0.84951 0.43202 0.22154
 H1973 H 0.85669 0.40465 0.20335
 H1974 H 0.80020 0.40100 0.18644
 H1975 H 0.83410 0.45867 0.23830
 H1976 H 0.81248 0.48054 0.25189
 H1977 H 0.76847 0.45629 0.22071
 C1978 C 0.81847 0.89263 0.69964
 C1979 C 0.80969 0.90260 0.68670
 C1980 C 0.80743 0.89671 0.66883
 C1981 C 0.81442 0.87976 0.66406
 C1982 C 0.82333 0.86892 0.67715
 C1983 C 0.82547 0.87562 0.69522
 O1984 O 0.81890 0.90071 0.71591
 C1985 C 0.81014 0.91608 0.71314
 C1986 C 0.80421 0.91781 0.69548
 C1987 C 0.79421 0.93246 0.68963
 C1988 C 0.79003 0.94589 0.70253
 C1989 C 0.79600 0.94456 0.72086
 C1990 C 0.80637 0.92947 0.72619
 H1991 H 0.80053 0.90488 0.65889
 H1992 H 0.81299 0.87521 0.65008
 H1993 H 0.83202 0.86772 0.70560
 H1994 H 0.78958 0.93341 0.67568
 H1995 H 0.78213 0.95736 0.69821
 H1996 H 0.81092 0.92798 0.74011
 C1997 C 0.67174 0.59269 0.69431
 C1998 C 0.65853 0.58651 0.70626
 C1999 C 0.64208 0.59534 0.70893
 C2000 C 0.63916 0.61117 0.69889
 C2001 C 0.65263 0.61791 0.68650
 C2002 C 0.66916 0.60840 0.68426
 O2003 O 0.68637 0.58233 0.69368
 C2004 C 0.68232 0.56931 0.70550
 C2005 C 0.66546 0.57122 0.71361
 C2006 C 0.65860 0.55906 0.72646
 C2007 C 0.66954 0.54431 0.73107
 C2008 C 0.68697 0.54199 0.72279
 C2009 C 0.69337 0.55478 0.70982
 H2010 H 0.63181 0.59017 0.71831
 H2011 H 0.62629 0.61800 0.70062
 H2012 H 0.67984 0.61315 0.67513
 H2013 H 0.64530 0.56083 0.73270
 H2014 H 0.66438 0.53468 0.74100
 H2015 H 0.70658 0.55349 0.70324
 C2016 C 0.67708 0.06492 0.16372
 C2017 C 0.66285 0.05493 0.17088
 C2018 C 0.64478 0.05952 0.16859
 C2019 C 0.64119 0.07533 0.15890
 C2020 C 0.65560 0.08656 0.15215
 C2021 C 0.67385 0.08094 0.15428
 O2022 O 0.69325 0.05816 0.16763
 C2023 C 0.68907 0.04370 0.17759
 C2024 C 0.67064 0.04126 0.18014
 C2025 C 0.66322 0.02762 0.19101
 C2026 C 0.67533 0.01589 0.19951
 C2027 C 0.69436 0.01779 0.19664
 C2028 C 0.70134 0.03185 0.18547
 H2029 H 0.63381 0.05131 0.17421
 H2030 H 0.62712 0.07892 0.15700
 H2031 H 0.68522 0.08912 0.14954
 H2032 H 0.64866 0.02618 0.19301
 H2033 H 0.66992 0.00511 0.20801
 H2034 H 0.71585 0.03364 0.18327
 C2035 C 0.17997 0.57588 0.20878
 C2036 C 0.16747 0.56548 0.21824
 C2037 C 0.14896 0.56913 0.21849
 C2038 C 0.14310 0.58422 0.20873
 C2039 C 0.15572 0.59537 0.19902
 C2040 C 0.17444 0.59094 0.19892
 O2041 O 0.19697 0.57032 0.21073
 C2042 C 0.19513 0.55613 0.22168
 C2043 C 0.17735 0.55262 0.22667
 C2044 C 0.17236 0.53872 0.23848
 C2045 C 0.18628 0.52803 0.24550
 C2046 C 0.20478 0.53134 0.24060
 C2047 C 0.20919 0.54559 0.22840
 H2048 H 0.13938 0.56075 0.22605
 H2049 H 0.12872 0.58719 0.20874
 H2050 H 0.18445 0.59926 0.19187
 H2051 H 0.15827 0.53631 0.24230
 H2052 H 0.18262 0.51720 0.25478
 H2053 H 0.22315 0.54860 0.22450
 C2054 C 0.21128 0.10016 0.70631
 C2055 C 0.22219 0.09253 0.69301
 C2056 C 0.22349 0.09938 0.67538
 C2057 C 0.21311 0.11467 0.67129
 C2058 C 0.20171 0.12286 0.68476
 C2059 C 0.20090 0.11538 0.70257
 O2060 O 0.21187 0.09155 0.72216
 C2061 C 0.22339 0.07817 0.71879
 C2062 C 0.23011 0.07815 0.70118
 C2063 C 0.24235 0.06526 0.69478
 C2064 C 0.24785 0.05186 0.70705
 C2065 C 0.24107 0.05155 0.72531
 C2066 C 0.22864 0.06499 0.73118
 H2067 H 0.23209 0.09310 0.66509
 H2068 H 0.21377 0.11990 0.65753
 H2069 H 0.19256 0.12127 0.71329
 H2070 H 0.24746 0.06549 0.68085
 H2071 H 0.25735 0.04172 0.70227
 H2072 H 0.22317 0.06522 0.74499
 C2073 C 0.28011 0.59067 0.31988
 C2074 C 0.26898 0.58194 0.33230
 C2075 C 0.26646 0.58816 0.35011
 C2076 C 0.27578 0.60402 0.35531
 C2077 C 0.28731 0.61341 0.34273
 C2078 C 0.28943 0.60649 0.32471
 O2079 O 0.28080 0.58246 0.30371
 C2080 C 0.26987 0.56823 0.30598
 C2081 C 0.26224 0.56729 0.32320
 C2082 C 0.25038 0.55343 0.32847
 C2083 C 0.24628 0.53997 0.31547
 C2084 C 0.25410 0.54055 0.29762
 C2085 C 0.26604 0.55499 0.29288
 H2086 H 0.25773 0.58100 0.35970
 H2087 H 0.27416 0.60878 0.36922
 H2088 H 0.29790 0.61328 0.31464
 H2089 H 0.24454 0.55297 0.34211
 H2090 H 0.23714 0.52905 0.31938
 H2091 H 0.27225 0.55590 0.27942
 C2092 C 0.32072 0.09294 0.80626
 C2093 C 0.33315 0.08247 0.79693
 C2094 C 0.35160 0.08668 0.79617
 C2095 C 0.35746 0.10243 0.80523
 C2096 C 0.34488 0.11373 0.81469
 C2097 C 0.32623 0.10869 0.81533
 O2098 O 0.30378 0.08671 0.80503
 C2099 C 0.30556 0.07203 0.79466
 C2100 C 0.32324 0.06885 0.78929
 C2101 C 0.32807 0.05449 0.77790
 C2102 C 0.31408 0.04294 0.77182
 C2103 C 0.29572 0.04586 0.77728
 C2104 C 0.29150 0.06064 0.78894
 H2105 H 0.36115 0.07821 0.78879
 H2106 H 0.37181 0.10578 0.80484
 H2107 H 0.31621 0.11703 0.82218
 H2108 H 0.34207 0.05235 0.77373
 H2109 H 0.31756 0.03172 0.76291
 H2110 H 0.27763 0.06338 0.79323
 C2111 C 0.78235 0.56705 0.79797
 C2112 C 0.77161 0.55834 0.81074
 C2113 C 0.77331 0.56135 0.82941
 C2114 C 0.78660 0.57387 0.83515
 C2115 C 0.79782 0.58317 0.82224
 C2116 C 0.79553 0.57960 0.80334
 O2117 O 0.77868 0.56220 0.78091
 C2118 C 0.76531 0.55015 0.78294
 C2119 C 0.76043 0.54734 0.80091
 C2120 C 0.74666 0.53534 0.80611
 C2121 C 0.73758 0.52584 0.79221
 C2122 C 0.74246 0.52839 0.77353
 C2123 C 0.75657 0.54078 0.76891
 H2124 H 0.76478 0.55424 0.83923
 H2125 H 0.78824 0.57609 0.84966
 H2126 H 0.80357 0.58652 0.79301
 H2127 H 0.74303 0.53336 0.82034
 H2128 H 0.72687 0.51639 0.79604
 H2129 H 0.76062 0.54310 0.75484
 C2130 C 0.78836 0.06146 0.26803
 C2131 C 0.79979 0.05369 0.25527
 C2132 C 0.81782 0.05892 0.25295
 C2133 C 0.82436 0.07296 0.26404
 C2134 C 0.81281 0.08175 0.27700
 C2135 C 0.79453 0.07565 0.27916
 O2136 O 0.77170 0.05426 0.26799
 C2137 C 0.77270 0.04176 0.25487
 C2138 C 0.78959 0.04101 0.24663
 C2139 C 0.79367 0.02926 0.23232
 C2140 C 0.77978 0.01768 0.22627
 C2141 C 0.76227 0.01789 0.23469
 C2142 C 0.75870 0.03014 0.24924
 H2143 H 0.82659 0.05241 0.24295
 H2144 H 0.83850 0.07687 0.26247
 H2145 H 0.78532 0.08200 0.28882
 H2146 H 0.80708 0.02903 0.22602
 H2147 H 0.78279 0.00833 0.21522
 H2148 H 0.74547 0.03066 0.25589
 C2149 C 0.70670 0.41125 0.30464
 C2150 C 0.69238 0.41987 0.29667
 C2151 C 0.67492 0.41252 0.29625
 C2152 C 0.67213 0.39552 0.30428
 C2153 C 0.68676 0.38606 0.31231
 C2154 C 0.70430 0.39426 0.31252
 O2155 O 0.72225 0.42047 0.30341
 C2156 C 0.71764 0.43523 0.29440
 C2157 C 0.69953 0.43547 0.28987
 C2158 C 0.69194 0.44930 0.27979
 C2159 C 0.70352 0.46343 0.27410
 C2160 C 0.72223 0.46357 0.27872
 C2161 C 0.72933 0.44930 0.28916
 H2162 H 0.66383 0.41962 0.28995
 H2163 H 0.65852 0.38983 0.30422
 H2164 H 0.71591 0.38754 0.31821
 H2165 H 0.67768 0.44911 0.27625
 H2166 H 0.69789 0.47429 0.26613
 H2167 H 0.74360 0.44892 0.29268
 C2168 C 0.71574 0.90532 0.80415
 C2169 C 0.72663 0.91185 0.81789
 C2170 C 0.72724 0.90410 0.83511
 C2171 C 0.71629 0.88882 0.83830
 C2172 C 0.70501 0.88160 0.82440
 C2173 C 0.70453 0.89017 0.80712
 O2174 O 0.71808 0.91418 0.78850
 C2175 C 0.73075 0.92652 0.79249
 C2176 C 0.73636 0.92560 0.81033
 C2177 C 0.75016 0.93643 0.81732
 C2178 C 0.75877 0.94858 0.80539
 C2179 C 0.75349 0.94979 0.78683
 C2180 C 0.73901 0.93879 0.78035
 H2181 H 0.73608 0.90942 0.84561
 H2182 H 0.71664 0.88252 0.85161
 H2183 H 0.69626 0.88477 0.79620
 H2184 H 0.75443 0.93528 0.83137
 H2185 H 0.76976 0.95695 0.81058
 H2186 H 0.73492 0.93920 0.76619
 C2187 C 0.22145 0.41272 0.78779
 C2188 C 0.23166 0.42046 0.80145
 C2189 C 0.23092 0.41461 0.81940
 C2190 C 0.21957 0.39984 0.82340
 C2191 C 0.20938 0.39100 0.80950
 C2192 C 0.21002 0.39785 0.79146
 O2193 O 0.22425 0.42052 0.77166
 C2194 C 0.23654 0.43334 0.77530
 C2195 C 0.24159 0.43375 0.79331
 C2196 C 0.25452 0.44580 0.80009
 C2197 C 0.26238 0.45822 0.78785
 C2198 C 0.25709 0.45848 0.76927
 C2199 C 0.24406 0.44571 0.76291
 H2200 H 0.23894 0.42108 0.82994
 H2201 H 0.21890 0.39513 0.83736
 H2202 H 0.20249 0.39137 0.78057
 H2203 H 0.25832 0.44574 0.81434
 H2204 H 0.27218 0.46797 0.79299
 H2205 H 0.23973 0.44555 0.74882
 C2206 C 0.19621 0.94388 0.32759
 C2207 C 0.21168 0.94473 0.33795
 C2208 C 0.21466 0.93323 0.35252
 C2209 C 0.20113 0.92031 0.35660
 C2210 C 0.18494 0.91911 0.34617
 C2211 C 0.18254 0.93119 0.33145
 O2212 O 0.19633 0.95568 0.31399
 C2213 C 0.21224 0.96413 0.31580
 C2214 C 0.22214 0.95795 0.33027
 C2215 C 0.23941 0.96453 0.33433
 C2216 C 0.24688 0.97790 0.32288
 C2217 C 0.23705 0.98438 0.30769
 C2218 C 0.21936 0.97747 0.30428
 H2219 H 0.22706 0.93401 0.36033
 H2220 H 0.20353 0.91102 0.36765
 H2221 H 0.17041 0.93078 0.32322
 H2222 H 0.24698 0.95936 0.34574
 H2223 H 0.26044 0.98297 0.32571
 H2224 H 0.21155 0.98195 0.29273
 C2225 C 0.45431 0.30260 0.69925
 C2226 C 0.46492 0.29819 0.68428
 C2227 C 0.45982 0.30168 0.66645
 C2228 C 0.44291 0.30976 0.66386
 C2229 C 0.43148 0.31416 0.67897
 C2230 C 0.43744 0.31091 0.69697
 O2231 O 0.46112 0.29673 0.71488
 C2232 C 0.47628 0.28837 0.70961
 C2233 C 0.47915 0.28890 0.69099
 C2234 C 0.49319 0.27972 0.68222
 C2235 C 0.50466 0.26936 0.69303
 C2236 C 0.50206 0.26853 0.71222
 C2237 C 0.48786 0.27841 0.72073
 H2238 H 0.46829 0.29780 0.65490
 H2239 H 0.43842 0.31220 0.65006
 H2240 H 0.42873 0.31373 0.70866
 H2241 H 0.49489 0.28004 0.66751
 H2242 H 0.51543 0.26171 0.68645
 H2243 H 0.48532 0.27752 0.73531
 C2244 C 0.38862 0.79377 0.20157
 C2245 C 0.40101 0.80667 0.20711
 C2246 C 0.39751 0.82508 0.20681
 C2247 C 0.38039 0.83047 0.20080
 C2248 C 0.36711 0.81751 0.19532
 C2249 C 0.37145 0.79886 0.19543
 O2250 O 0.39455 0.77697 0.20363
 C2251 C 0.41102 0.77938 0.21067
 C2252 C 0.41553 0.79732 0.21306
 C2253 C 0.43169 0.80305 0.22096
 C2254 C 0.44372 0.78973 0.22672
 C2255 C 0.43952 0.77107 0.22446
 C2256 C 0.42295 0.76582 0.21612
 H2257 H 0.40750 0.83494 0.21130
 H2258 H 0.37742 0.84476 0.20054
 H2259 H 0.36153 0.78866 0.19158
 H2260 H 0.43482 0.81726 0.22284
 H2261 H 0.45634 0.79402 0.23298
 H2262 H 0.41926 0.75171 0.21439
 C2263 C 0.91731 0.30091 0.19187
 C2264 C 0.92615 0.29266 0.17747
 C2265 C 0.92069 0.29437 0.15947
 C2266 C 0.90541 0.30499 0.15612
 C2267 C 0.89582 0.31362 0.17068
 C2268 C 0.90202 0.31157 0.18886
 O2269 O 0.92470 0.29731 0.20795
 C2270 C 0.93848 0.28654 0.20355
 C2271 C 0.93989 0.28330 0.18506
 C2272 C 0.95307 0.27222 0.17736
 C2273 C 0.96532 0.26405 0.18918
 C2274 C 0.96430 0.26706 0.20837
 C2275 C 0.95066 0.27861 0.21564
 H2276 H 0.92793 0.28775 0.14838
 H2277 H 0.90118 0.30661 0.14213
 H2278 H 0.89498 0.31777 0.20032
 H2279 H 0.95384 0.26986 0.16275
 H2280 H 0.97565 0.25536 0.18329
 H2281 H 0.94943 0.28113 0.23018
 C2282 C 0.92378 0.78276 0.70448
 C2283 C 0.93715 0.77994 0.69149
 C2284 C 0.93463 0.78300 0.67298
 C2285 C 0.91755 0.78914 0.66757
 C2286 C 0.90349 0.79221 0.68063
 C2287 C 0.90674 0.78923 0.69941
 O2288 O 0.92861 0.77763 0.72112
 C2289 C 0.94539 0.77142 0.71853
 C2290 C 0.95121 0.77266 0.70063
 C2291 C 0.96781 0.76600 0.69451
 C2292 C 0.97873 0.75734 0.70724
 C2293 C 0.97296 0.75542 0.72574
 C2294 C 0.95618 0.76296 0.73156
 H2295 H 0.94528 0.78035 0.66300
 H2296 H 0.91516 0.79141 0.65320
 H2297 H 0.89607 0.79113 0.70956
 H2298 H 0.97197 0.76696 0.68030
 H2299 H 0.99152 0.75169 0.70255
 H2300 H 0.95124 0.76135 0.74547
 C2301 C 0.60071 0.28641 0.29768
 C2302 C 0.59406 0.27330 0.30928
 C2303 C 0.60249 0.26898 0.32557
 C2304 C 0.61838 0.27862 0.33012
 C2305 C 0.62554 0.29229 0.31841
 C2306 C 0.61650 0.29609 0.30188
 O2307 O 0.59057 0.28863 0.28300
 C2308 C 0.57719 0.27666 0.28538
 C2309 C 0.57868 0.26692 0.30124
 C2310 C 0.56604 0.25377 0.30646
 C2311 C 0.55125 0.25055 0.29488
 C2312 C 0.54933 0.26048 0.27844
 C2313 C 0.56259 0.27372 0.27368
 H2314 H 0.59693 0.25868 0.33455
 H2315 H 0.62484 0.27566 0.34294
 H2316 H 0.62159 0.30623 0.29248
 H2317 H 0.56748 0.24628 0.31902
 H2318 H 0.54126 0.24038 0.29878
 H2319 H 0.56159 0.28155 0.26129
 C2320 C 0.58187 0.82330 0.80623
 C2321 C 0.57085 0.81752 0.82044
 C2322 C 0.57697 0.81590 0.83823
 C2323 C 0.59530 0.81997 0.84147
 C2324 C 0.60711 0.82548 0.82701
 C2325 C 0.60015 0.82767 0.80922
 O2326 O 0.57387 0.82208 0.79008
 C2327 C 0.55753 0.81527 0.79418
 C2328 C 0.55503 0.81223 0.81259
 C2329 C 0.53983 0.80328 0.81973
 C2330 C 0.52680 0.79693 0.80737
 C2331 C 0.52908 0.79982 0.78835
 C2332 C 0.54446 0.80948 0.78167
 H2333 H 0.56814 0.81096 0.84909
 H2334 H 0.60052 0.81825 0.85511
 H2335 H 0.60903 0.83130 0.79788
 H2336 H 0.53843 0.80062 0.83421
 H2337 H 0.51512 0.78940 0.81252
 H2338 H 0.54677 0.81126 0.76714
 C2339 C 0.08940 0.30828 0.80746
 C2340 C 0.07894 0.32285 0.80292
 C2341 C 0.08561 0.34053 0.80295
 C2342 C 0.10381 0.34334 0.80792
 C2343 C 0.11490 0.32859 0.81281
 C2344 C 0.10749 0.31081 0.81270
 O2345 O 0.08086 0.29250 0.80516
 C2346 C 0.06463 0.29722 0.79903
 C2347 C 0.06278 0.31566 0.79753
 C2348 C 0.04749 0.32362 0.79019
 C2349 C 0.03379 0.31211 0.78357
 C2350 C 0.03551 0.29304 0.78447
 C2351 C 0.05095 0.28545 0.79275
 H2352 H 0.07718 0.35174 0.79899
 H2353 H 0.10927 0.35699 0.80804
 H2354 H 0.11575 0.29926 0.81598
 H2355 H 0.04649 0.33814 0.78888
 H2356 H 0.02214 0.31801 0.77702
 H2357 H 0.05290 0.27096 0.79296
 C2358 C 0.08626 0.82132 0.30211
 C2359 C 0.08348 0.83049 0.28614
 C2360 C 0.09197 0.84694 0.28229
 C2361 C 0.10364 0.85431 0.29554
 C2362 C 0.10667 0.84517 0.31229
 C2363 C 0.09798 0.82818 0.31526
 O2364 O 0.07593 0.80660 0.30382
 C2365 C 0.06634 0.80648 0.28861
 C2366 C 0.07051 0.82074 0.27724
 C2367 C 0.06135 0.82374 0.26105
 C2368 C 0.04710 0.81178 0.25660
 C2369 C 0.04216 0.79729 0.26842
 C2370 C 0.05224 0.79446 0.28447
 H2371 H 0.08931 0.85411 0.26976
 H2372 H 0.10980 0.86736 0.29283
 H2373 H 0.09979 0.82052 0.32761
 H2374 H 0.06472 0.83515 0.25241
 H2375 H 0.03951 0.81425 0.24429
 H2376 H 0.04871 0.78373 0.29393
 C2377 C 0.57611 0.72439 0.69669
 C2378 C 0.57724 0.74180 0.69030
 C2379 C 0.58992 0.74714 0.67707
 C2380 C 0.60184 0.73397 0.67011
 C2381 C 0.60085 0.71577 0.67628
 C2382 C 0.58769 0.71106 0.68985
 O2383 O 0.56322 0.72210 0.70936
 C2384 C 0.55602 0.73843 0.71099
 C2385 C 0.56404 0.75097 0.69957
 C2386 C 0.55835 0.76883 0.69884
 C2387 C 0.54383 0.77397 0.71037
 C2388 C 0.53543 0.76133 0.72244
 C2389 C 0.54171 0.74328 0.72270
 H2390 H 0.59069 0.76098 0.67236
 H2391 H 0.61196 0.73808 0.66008
 H2392 H 0.58626 0.69738 0.69484
 H2393 H 0.56478 0.77845 0.68966
 H2394 H 0.53922 0.78782 0.70993
 H2395 H 0.53556 0.73325 0.73161
 C2396 C 0.57440 0.19529 0.17525
 C2397 C 0.56015 0.18359 0.17892
 C2398 C 0.55886 0.16646 0.17121
 C2399 C 0.57318 0.16086 0.15979
 C2400 C 0.58859 0.17222 0.15654
 C2401 C 0.58891 0.18995 0.16396
 O2402 O 0.57308 0.21084 0.18434
 C2403 C 0.55778 0.20879 0.19402
 C2404 C 0.54947 0.19227 0.19132
 C2405 C 0.53384 0.18685 0.20082
 C2406 C 0.52627 0.19912 0.21340
 C2407 C 0.53422 0.21648 0.21598
 C2408 C 0.55026 0.22134 0.20618
 H2409 H 0.54744 0.15755 0.17420
 H2410 H 0.57257 0.14739 0.15396
 H2411 H 0.60055 0.19883 0.16197
 H2412 H 0.52773 0.17365 0.19865
 H2413 H 0.51392 0.19533 0.22072
 H2414 H 0.55668 0.23446 0.20801
 C2415 C 0.06182 0.70082 0.20023
 C2416 C 0.04985 0.68957 0.20940
 C2417 C 0.05180 0.67093 0.20985
 C2418 C 0.06691 0.66356 0.20079
 C2419 C 0.07986 0.67484 0.19170
 C2420 C 0.07700 0.69375 0.19106
 O2421 O 0.05800 0.71824 0.20248
 C2422 C 0.04341 0.71793 0.21341
 C2423 C 0.03796 0.70069 0.21808
 C2424 C 0.02402 0.69715 0.23060
 C2425 C 0.01540 0.71201 0.23877
 C2426 C 0.02063 0.72991 0.23412
 C2427 C 0.03466 0.73294 0.22104
 H2428 H 0.04225 0.66239 0.21727
 H2429 H 0.06874 0.64907 0.20117
 H2430 H 0.08680 0.70271 0.18455
 H2431 H 0.02027 0.68346 0.23434
 H2432 H 0.00472 0.70961 0.24884
 H2433 H 0.03919 0.74650 0.21764
 C2434 C 0.08867 0.20900 0.71299
 C2435 C 0.08063 0.19616 0.72400
 C2436 C 0.08742 0.17875 0.72555
 C2437 C 0.10310 0.17441 0.71529
 C2438 C 0.11178 0.18746 0.70383
 C2439 C 0.10433 0.20507 0.70286
 O2440 O 0.08003 0.22468 0.71324
 C2441 C 0.06621 0.22169 0.72469
 C2442 C 0.06597 0.20448 0.73173
 C2443 C 0.05273 0.19857 0.74412
 C2444 C 0.03921 0.21089 0.74944
 C2445 C 0.03905 0.22870 0.74223
 C2446 C 0.05281 0.23410 0.72963
 H2447 H 0.08080 0.16881 0.73424
 H2448 H 0.10825 0.16081 0.71615
 H2449 H 0.11051 0.21559 0.69462
 H2450 H 0.05282 0.18497 0.74952
 H2451 H 0.02877 0.20650 0.75905
 H2452 H 0.05317 0.24758 0.72393
 C2453 C 0.39566 0.69114 0.30925
 C2454 C 0.40793 0.69879 0.32115
 C2455 C 0.40524 0.69901 0.33995
 C2456 C 0.38901 0.69145 0.34677
 C2457 C 0.37577 0.68401 0.33482
 C2458 C 0.37938 0.68345 0.31578
 O2459 O 0.40062 0.69303 0.29184
 C2460 C 0.41626 0.70215 0.29283
 C2461 C 0.42127 0.70607 0.31046
 C2462 C 0.43663 0.71632 0.31466
 C2463 C 0.44737 0.72274 0.30007
 C2464 C 0.44268 0.71870 0.28173
 C2465 C 0.42689 0.70818 0.27810
 H2466 H 0.41509 0.70514 0.34902
 H2467 H 0.38654 0.69175 0.36138
 H2468 H 0.36942 0.67813 0.30633
 H2469 H 0.44012 0.71942 0.32867
 H2470 H 0.45942 0.73071 0.30308
 H2471 H 0.42284 0.70505 0.26425
 C2472 C 0.44526 0.19979 0.79759
 C2473 C 0.45519 0.20970 0.80999
 C2474 C 0.44935 0.21262 0.82787
 C2475 C 0.43255 0.20506 0.83321
 C2476 C 0.42187 0.19488 0.82066
 C2477 C 0.42848 0.19220 0.80257
 O2478 O 0.45322 0.19877 0.78123
 C2479 C 0.46848 0.20826 0.78337
 C2480 C 0.47031 0.21526 0.80071
 C2481 C 0.48505 0.22596 0.80585
 C2482 C 0.49844 0.22967 0.79253
 C2483 C 0.49693 0.22260 0.77451
 C2484 C 0.48172 0.21163 0.76995
 H2485 H 0.45745 0.22043 0.83740
 H2486 H 0.42801 0.20700 0.84719
 H2487 H 0.42068 0.18472 0.79257
 H2488 H 0.48614 0.23138 0.81957
 H2489 H 0.50999 0.23805 0.79629
 H2490 H 0.48006 0.20617 0.75630
 C2491 C 0.91114 0.66833 0.79137
 C2492 C 0.91833 0.65664 0.77856
 C2493 C 0.91156 0.63915 0.77611
 C2494 C 0.89697 0.63351 0.78744
 C2495 C 0.88952 0.64535 0.80091
 C2496 C 0.89666 0.66310 0.80258
 O2497 O 0.91989 0.68403 0.79226
 C2498 C 0.93297 0.68226 0.77981
 C2499 C 0.93267 0.66582 0.77091
 C2500 C 0.94573 0.66107 0.75782
 C2501 C 0.95974 0.67369 0.75400
 C2502 C 0.96046 0.69054 0.76340
 C2503 C 0.94665 0.69487 0.77627
 H2504 H 0.91752 0.63005 0.76612
 H2505 H 0.89186 0.61981 0.78606
 H2506 H 0.89130 0.67263 0.81248
 H2507 H 0.94537 0.64801 0.75107
 H2508 H 0.97027 0.67013 0.74418
 H2509 H 0.94677 0.70754 0.78376
 C2510 C 0.91559 0.17977 0.28257
 C2511 C 0.92556 0.16838 0.27149
 C2512 C 0.92089 0.15038 0.26864
 C2513 C 0.90505 0.14388 0.27726
 C2514 C 0.89413 0.15540 0.28837
 C2515 C 0.89972 0.17355 0.29136
 O2516 O 0.92229 0.19653 0.28301
 C2517 C 0.93673 0.19565 0.27190
 C2518 C 0.93923 0.17872 0.26448
 C2519 C 0.95305 0.17482 0.25199
 C2520 C 0.96490 0.18894 0.24699
 C2521 C 0.96283 0.20654 0.25457
 C2522 C 0.94850 0.20990 0.26726
 H2523 H 0.92900 0.14170 0.25988
 H2524 H 0.90117 0.12989 0.27511
 H2525 H 0.89159 0.18269 0.29959
 H2526 H 0.95460 0.16140 0.24624
 H2527 H 0.97582 0.18609 0.23736
 H2528 H 0.94649 0.22319 0.27319
 C2529 C 0.32132 0.30569 0.58868
 C2530 C 0.33154 0.29350 0.57884
 C2531 C 0.34905 0.28877 0.58364
 C2532 C 0.35636 0.29687 0.59930
 C2533 C 0.34605 0.30930 0.61006
 C2534 C 0.32822 0.31378 0.60447
 O2535 O 0.30492 0.30822 0.58172
 C2536 C 0.30482 0.29731 0.56723
 C2537 C 0.32077 0.28794 0.56495
 C2538 C 0.32344 0.27529 0.55109
 C2539 C 0.30903 0.27208 0.53911
 C2540 C 0.29246 0.28166 0.54103
 C2541 C 0.29040 0.29460 0.55522
 H2542 H 0.35686 0.27921 0.57558
 H2543 H 0.37013 0.29348 0.60282
 H2544 H 0.31980 0.32300 0.61227
 H2545 H 0.33608 0.26799 0.54969
 H2546 H 0.31078 0.26218 0.52828
 H2547 H 0.27782 0.30192 0.55714
 C2548 C 0.27191 0.79535 0.10228
 C2549 C 0.26124 0.80784 0.09374
 C2550 C 0.25906 0.82535 0.10021
 C2551 C 0.26807 0.83020 0.11628
 C2552 C 0.27885 0.81752 0.12580
 C2553 C 0.28092 0.79983 0.11847
 O2554 O 0.27219 0.77948 0.09364
 C2555 C 0.26142 0.78207 0.07943
 C2556 C 0.25433 0.79919 0.07897
 C2557 C 0.24246 0.80480 0.06554
 C2558 C 0.23773 0.79226 0.05193
 C2559 C 0.24502 0.77455 0.05185
 C2560 C 0.25708 0.76941 0.06586
 H2561 H 0.25076 0.83499 0.09310
 H2562 H 0.26667 0.84395 0.12113
 H2563 H 0.28896 0.78979 0.12529
 H2564 H 0.23701 0.81834 0.06556
 H2565 H 0.22858 0.79646 0.04131
 H2566 H 0.26280 0.75598 0.06624
 C2567 C 0.80080 0.31697 0.07850
 C2568 C 0.78909 0.32991 0.07234
 C2569 C 0.78742 0.34674 0.08066
 C2570 C 0.79815 0.35034 0.09602
 C2571 C 0.81010 0.33706 0.10301
 C2572 C 0.81141 0.32014 0.09387
 O2573 O 0.80023 0.30178 0.06877
 C2574 C 0.78783 0.30519 0.05626
 C2575 C 0.78050 0.32217 0.05789
 C2576 C 0.76666 0.32819 0.04669
 C2577 C 0.76008 0.31616 0.03332
 C2578 C 0.76758 0.29864 0.03128
 C2579 C 0.78177 0.29319 0.04285
 H2580 H 0.77818 0.35677 0.07551
 H2581 H 0.79708 0.36353 0.10235
 H2582 H 0.82007 0.30951 0.09872
 H2583 H 0.76094 0.34154 0.04837
 H2584 H 0.74917 0.32047 0.02458
 H2585 H 0.78752 0.27979 0.04184
 C2586 C 0.80264 0.78366 0.57807
 C2587 C 0.81467 0.77417 0.56727
 C2588 C 0.83246 0.77086 0.57245
 C2589 C 0.83811 0.77766 0.58944
 C2590 C 0.82598 0.78749 0.60097
 C2591 C 0.80792 0.79046 0.59506
 O2592 O 0.78632 0.78524 0.57064
 C2593 C 0.78811 0.77654 0.55480
 C2594 C 0.80519 0.76949 0.55211
 C2595 C 0.80996 0.75958 0.53661
 C2596 C 0.79654 0.75672 0.52339
 C2597 C 0.77876 0.76383 0.52579
 C2598 C 0.77458 0.77401 0.54174
 H2599 H 0.84171 0.76339 0.56367
 H2600 H 0.85204 0.77545 0.59340
 H2601 H 0.79817 0.79766 0.60348
 H2602 H 0.82347 0.75411 0.53482
 H2603 H 0.80002 0.74892 0.51130
 H2604 H 0.76113 0.77947 0.54409
 C2605 C 0.27734 0.71257 0.43505
 C2606 C 0.29081 0.72246 0.44348
 C2607 C 0.30901 0.72148 0.43841
 C2608 C 0.31354 0.71013 0.42374
 C2609 C 0.29991 0.70027 0.41414
 C2610 C 0.28152 0.70127 0.42020
 O2611 O 0.26088 0.71566 0.44209
 C2612 C 0.26411 0.72785 0.45513
 C2613 C 0.28221 0.73253 0.45637
 C2614 C 0.28866 0.74560 0.46843
 C2615 C 0.27592 0.75419 0.47981
 C2616 C 0.25721 0.74937 0.47916
 C2617 C 0.25121 0.73594 0.46668
 H2618 H 0.31936 0.72927 0.44543
 H2619 H 0.32773 0.70918 0.41982
 H2620 H 0.27077 0.69405 0.41319
 H2621 H 0.30297 0.74916 0.46896
 H2622 H 0.28068 0.76435 0.48940
 H2623 H 0.23697 0.73213 0.46582
 C2624 C 0.31381 0.20084 0.91579
 C2625 C 0.32591 0.20905 0.92746
 C2626 C 0.34457 0.20933 0.92436
 C2627 C 0.35109 0.20107 0.90836
 C2628 C 0.33898 0.19286 0.89572
 C2629 C 0.32004 0.19246 0.89969
 O2630 O 0.29657 0.20260 0.92124
 C2631 C 0.29789 0.21219 0.93662
 C2632 C 0.31558 0.21650 0.94091
 C2633 C 0.32024 0.22704 0.95592
 C2634 C 0.30607 0.23343 0.96707
 C2635 C 0.28763 0.22913 0.96317
 C2636 C 0.28350 0.21823 0.94773
 H2637 H 0.35378 0.21586 0.93381
 H2638 H 0.36561 0.20118 0.90576
 H2639 H 0.31046 0.18647 0.89025
 H2640 H 0.33428 0.23036 0.95887
 H2641 H 0.30952 0.24164 0.97886
 H2642 H 0.26957 0.21483 0.94432
 C2643 C 0.81296 0.67163 0.92081
 C2644 C 0.82678 0.68265 0.92700
 C2645 C 0.84408 0.68272 0.91913
 C2646 C 0.84718 0.67115 0.90415
 C2647 C 0.83298 0.66000 0.89704
 C2648 C 0.81566 0.66020 0.90581
 O2649 O 0.79743 0.67384 0.92993
 C2650 C 0.80150 0.68659 0.94208
 C2651 C 0.81925 0.69257 0.94081
 C2652 C 0.82603 0.70663 0.95157
 C2653 C 0.81398 0.71491 0.96407
 C2654 C 0.79568 0.70879 0.96572
 C2655 C 0.78946 0.69431 0.95464
 H2656 H 0.85479 0.69144 0.92428
 H2657 H 0.86068 0.67104 0.89812
 H2658 H 0.80434 0.65222 0.90084
 H2659 H 0.83998 0.71131 0.95015
 H2660 H 0.81885 0.72605 0.97241
 H2661 H 0.77546 0.68962 0.95530
 C2662 C 0.81405 0.16543 0.39695
 C2663 C 0.80206 0.15376 0.40548
 C2664 C 0.79705 0.13718 0.39793
 C2665 C 0.80461 0.13250 0.38084
 C2666 C 0.81677 0.14446 0.37146
 C2667 C 0.82159 0.16115 0.37988
 O2668 O 0.81668 0.18071 0.40621
 C2669 C 0.80606 0.17867 0.42088
 C2670 C 0.79674 0.16244 0.42105
 C2671 C 0.78406 0.15797 0.43461
 C2672 C 0.78073 0.17083 0.44843
 C2673 C 0.79024 0.18763 0.44859
 C2674 C 0.80327 0.19146 0.43471
 H2675 H 0.78759 0.12819 0.40490
 H2676 H 0.80092 0.11954 0.37501
 H2677 H 0.83050 0.17084 0.37320
 H2678 H 0.77668 0.14523 0.43432
 H2679 H 0.77065 0.16778 0.45892
 H2680 H 0.81041 0.20434 0.43423
 C2681 C 0.72861 0.28207 0.40139
 C2682 C 0.74635 0.28815 0.40051
 C2683 C 0.75230 0.30106 0.38801
 C2684 C 0.73942 0.30801 0.37596
 C2685 C 0.72098 0.30201 0.37661
 C2686 C 0.71561 0.28877 0.38956
 O2687 O 0.72570 0.26987 0.41433
 C2688 C 0.74195 0.26819 0.42179
 C2689 C 0.75508 0.27906 0.41386
 C2690 C 0.77303 0.27948 0.41972
 C2691 C 0.77759 0.26824 0.43436
 C2692 C 0.76426 0.25689 0.44278
 C2693 C 0.74618 0.25692 0.43630
 H2694 H 0.76634 0.30562 0.38753
 H2695 H 0.74388 0.31792 0.36601
 H2696 H 0.70166 0.28404 0.39065
 H2697 H 0.78313 0.28818 0.41330
 H2698 H 0.79149 0.26841 0.43911
 H2699 H 0.73563 0.24850 0.44239
 C2700 C 0.71348 0.77863 0.90632
 C2701 C 0.70651 0.76130 0.90619
 C2702 C 0.69381 0.75539 0.89350
 C2703 C 0.68791 0.76791 0.88056
 C2704 C 0.69470 0.78598 0.88053
 C2705 C 0.70787 0.79128 0.89354
 O2706 O 0.72502 0.78165 0.91983
 C2707 C 0.72531 0.76590 0.92843
 C2708 C 0.71422 0.75299 0.92066
 C2709 C 0.71207 0.73571 0.92786
 C2710 C 0.72175 0.73160 0.94373
 C2711 C 0.73331 0.74470 0.95201
 C2712 C 0.73512 0.76209 0.94411
 H2713 H 0.68849 0.74169 0.89367
 H2714 H 0.67803 0.76355 0.87058
 H2715 H 0.71310 0.80500 0.89411
 H2716 H 0.70315 0.72580 0.92158
 H2717 H 0.72018 0.71824 0.94956
 H2718 H 0.74368 0.77248 0.95013
 C2719 C 0.20250 0.29785 0.91151
 C2720 C 0.20993 0.31187 0.92149
 C2721 C 0.21041 0.32960 0.91538
 C2722 C 0.20331 0.33295 0.89809
 C2723 C 0.19601 0.31867 0.88729
 C2724 C 0.19518 0.30092 0.89429
 O2725 O 0.20443 0.28188 0.91940
 C2726 C 0.21333 0.28595 0.93459
 C2727 C 0.21703 0.30412 0.93649
 C2728 C 0.22721 0.31123 0.95076
 C2729 C 0.23389 0.29909 0.96365
 C2730 C 0.23023 0.28028 0.96204
 C2731 C 0.21965 0.27367 0.94734
 H2732 H 0.21647 0.34036 0.92341
 H2733 H 0.20384 0.34662 0.89288
 H2734 H 0.18998 0.28979 0.88616
 H2735 H 0.23018 0.32557 0.95177
 H2736 H 0.24194 0.30434 0.97481
 H2737 H 0.21688 0.25937 0.94557
 C2738 C 0.17035 0.82781 0.43663
 C2739 C 0.15773 0.81501 0.44204
 C2740 C 0.14048 0.81377 0.43451
 C2741 C 0.13622 0.82604 0.42064
 C2742 C 0.14922 0.83910 0.41448
 C2743 C 0.16646 0.84003 0.42289
 O2744 O 0.18603 0.82662 0.44527
 C2745 C 0.18330 0.81274 0.45635
 C2746 C 0.16625 0.80506 0.45489
 C2747 C 0.16079 0.79001 0.46497
 C2748 C 0.17338 0.78272 0.47715
 C2749 C 0.19095 0.79064 0.47905
 C2750 C 0.19591 0.80585 0.46841
 H2751 H 0.13072 0.80363 0.43901
 H2752 H 0.12287 0.82523 0.41461
 H2753 H 0.17691 0.84946 0.41843
 H2754 H 0.14735 0.78409 0.46352
 H2755 H 0.16936 0.77111 0.48525
 H2756 H 0.20923 0.81215 0.46942
 C2757 C 0.68620 0.70199 0.57356
 C2758 C 0.69362 0.68764 0.56416
 C2759 C 0.69127 0.66984 0.56983
 C2760 C 0.68097 0.66676 0.58586
 C2761 C 0.67331 0.68139 0.59597
 C2762 C 0.67602 0.69927 0.58953
 O2763 O 0.69005 0.71786 0.56601
 C2764 C 0.70013 0.71345 0.55153
 C2765 C 0.70282 0.69514 0.54975
 C2766 C 0.71332 0.68774 0.53565
 C2767 C 0.72133 0.69969 0.52291
 C2768 C 0.71860 0.71863 0.52440
 C2769 C 0.70780 0.72549 0.53899
 H2770 H 0.69716 0.65872 0.56219
 H2771 H 0.67889 0.65295 0.59026
 H2772 H 0.67073 0.71083 0.59690
 H2773 H 0.71533 0.67329 0.53454
 H2774 H 0.72956 0.69420 0.51187
 H2775 H 0.70552 0.73986 0.54070
 C2776 C 0.69497 0.20290 0.07568
 C2777 C 0.71299 0.19860 0.07774
 C2778 C 0.71874 0.18549 0.08986
 C2779 C 0.70537 0.17632 0.10018
 C2780 C 0.68662 0.18032 0.09823
 C2781 C 0.68142 0.19399 0.08588
 O2782 O 0.69241 0.21540 0.06300
 C2783 C 0.70917 0.21902 0.05694
 C2784 C 0.72224 0.20909 0.06552
 C2785 C 0.74062 0.21027 0.06090
 C2786 C 0.74575 0.22209 0.04676
 C2787 C 0.73257 0.23250 0.03758
 C2788 C 0.71399 0.23099 0.04292
 H2789 H 0.73301 0.18230 0.09120
 H2790 H 0.70965 0.16611 0.10970
 H2791 H 0.66725 0.19717 0.08384
 H2792 H 0.75064 0.20222 0.06778
 H2793 H 0.76001 0.22303 0.04291
 H2794 H 0.70355 0.23855 0.03609
 C2795 C 0.17087 0.68856 0.09035
 C2796 C 0.17860 0.67513 0.07986
 C2797 C 0.17791 0.65700 0.08466
 C2798 C 0.16905 0.65248 0.10108
 C2799 C 0.16118 0.66603 0.11242
 C2800 C 0.16188 0.68435 0.10678
 O2801 O 0.17397 0.70504 0.08371
 C2802 C 0.18394 0.70189 0.06875
 C2803 C 0.18713 0.68378 0.06586
 C2804 C 0.19826 0.67737 0.05183
 C2805 C 0.20669 0.69016 0.04043
 C2806 C 0.20374 0.70892 0.04309
 C2807 C 0.19192 0.71490 0.05726
 H2808 H 0.18423 0.64671 0.07620
 H2809 H 0.16840 0.63840 0.10501
 H2810 H 0.15629 0.69502 0.11526
 H2811 H 0.20079 0.66307 0.05005
 H2812 H 0.21578 0.68549 0.02966
 H2813 H 0.18982 0.72917 0.05982
 C2814 C 0.20086 0.22098 0.59402
 C2815 C 0.19477 0.23849 0.59506
 C2816 C 0.18359 0.24462 0.60917
 C2817 C 0.17838 0.23219 0.62271
 C2818 C 0.18430 0.21393 0.62194
 C2819 C 0.19581 0.20836 0.60732
 O2820 O 0.21161 0.21799 0.57962
 C2821 C 0.21231 0.23397 0.57142
 C2822 C 0.20222 0.24696 0.58029
 C2823 C 0.20120 0.26468 0.57414
 C2824 C 0.21113 0.26924 0.55827
 C2825 C 0.22184 0.25613 0.54894
 C2826 C 0.22227 0.23819 0.55563
 H2827 H 0.17911 0.25852 0.60979
 H2828 H 0.16992 0.23693 0.63391
 H2829 H 0.20052 0.19458 0.60618
 H2830 H 0.19318 0.27468 0.58138
 H2831 H 0.21065 0.28303 0.55343
 H2832 H 0.23034 0.22785 0.54894
   
