data_POSCAR
  _audit_creation_date              2014-09-24
  _audit_creation_method            'ToBaCCo'
  _symmetry_space_group_name_H-M    'P1'
  _symmetry_Int_Tables_number       1
  _symmetry_cell_setting            triclinic
  loop_
  _symmetry_equiv_pos_as_xyz
 x,y,z
_cell_length_a 62.1761
_cell_length_b 62.1117
_cell_length_c 57.5811
_cell_angle_alpha 90.012900
_cell_angle_beta 89.731400
_cell_angle_gamma 90.274600
loop_
  _atom_site_label
  _atom_site_type_symbol
  _atom_site_fract_x
  _atom_site_fract_y
  _atom_site_fract_z
C1 C 0.39210 0.02354 0.27179
 H2 H 0.39312 0.03162 0.25517
 C3 C 0.40357 0.03158 0.29076
 H4 H 0.41358 0.04576 0.28863
 C5 C 0.37696 -0.00416 0.29509
 H6 H 0.36616 -0.01772 0.29690
 C7 C 0.38795 0.00342 0.31449
 H8 H 0.38598 -0.00484 0.33093
 N9 N 0.37920 0.00593 0.27426
 C10 C 0.36675 -0.01813 0.20449
 H11 H 0.34943 -0.01950 0.20576
 C12 C 0.37728 -0.02448 0.18423
 H13 H 0.36791 -0.03084 0.16996
 C14 C 0.39991 -0.00868 0.22199
 H15 H 0.40864 -0.00273 0.23686
 C16 C 0.41111 -0.01476 0.20196
 H17 H 0.42843 -0.01288 0.20142
 Zn18 Zn 0.36173 -0.00251 0.24908
 N19 N 0.37809 -0.01015 0.22271
 C20 C 0.34469 0.03113 0.22146
 N21 N 0.34398 0.02111 0.24244
 C22 C 0.33204 0.02901 0.26031
 C23 C 0.32041 0.04796 0.25758
 C24 C 0.33330 0.05016 0.21797
 C25 C 0.35623 -0.04525 0.26131
 C26 C 0.34535 -0.06449 0.26564
 C27 C 0.31177 -0.04567 0.26082
 C28 C 0.32340 -0.02675 0.25672
 N29 N 0.34521 -0.02693 0.25698
 H30 H 0.35462 0.02481 0.20764
 H31 H 0.33215 0.02091 0.27694
 H32 H 0.31166 0.05441 0.27229
 H33 H 0.33425 0.05813 0.20127
 H34 H 0.37363 -0.04497 0.26085
 H35 H 0.35520 -0.07863 0.26763
 H36 H 0.29447 -0.04431 0.26123
 H37 H 0.31494 -0.01201 0.25301
 C38 C 0.39975 -0.02261 0.18265
 C39 C 0.40131 0.02161 0.31251
 C40 C 0.32255 -0.06534 0.26516
 C41 C 0.32124 0.05897 0.23631
 C42 C 0.10859 0.02385 0.71854
 H43 H 0.10742 0.03328 0.73429
 C44 C 0.09696 0.02985 0.69891
 H45 H 0.08679 0.04394 0.69965
 C46 C 0.12391 -0.00558 0.69825
 H47 H 0.13472 -0.01914 0.69793
 C48 C 0.11267 -0.00010 0.67821
 H49 H 0.11453 -0.00991 0.66279
 N50 N 0.12157 0.00630 0.71793
 C51 C 0.12988 -0.01034 0.79074
 H52 H 0.14725 -0.00996 0.79165
 C53 C 0.11780 -0.01573 0.81038
 H54 H 0.12602 -0.01897 0.82652
 C55 C 0.09818 -0.00632 0.76848
 H56 H 0.09065 -0.00312 0.75198
 C57 C 0.08546 -0.01171 0.78769
 H58 H 0.06816 -0.01245 0.78578
 Zn59 Zn 0.13792 0.00018 0.74465
 N60 N 0.11996 -0.00552 0.77043
 C61 C 0.15270 0.03694 0.76932
 N62 N 0.15534 0.02459 0.75002
 C63 C 0.16891 0.03065 0.73261
 C64 C 0.18027 0.05001 0.73405
 C65 C 0.16374 0.05647 0.77146
 C66 C 0.14333 -0.04335 0.73701
 C67 C 0.15400 -0.06298 0.73568
 C68 C 0.18769 -0.04409 0.74111
 C69 C 0.17634 -0.02474 0.74225
 N70 N 0.15455 -0.02477 0.74024
 H71 H 0.14137 0.03215 0.78265
 H72 H 0.17040 0.02068 0.71729
 H73 H 0.19085 0.05464 0.71990
 H74 H 0.16080 0.06648 0.78653
 H75 H 0.12597 -0.04291 0.73600
 H76 H 0.14468 -0.07764 0.73374
 H77 H 0.20502 -0.04387 0.74290
 H78 H 0.18489 -0.00984 0.74536
 C79 C 0.09526 -0.01644 0.80903
 C80 C 0.09900 0.01784 0.67838
 C81 C 0.17645 -0.06355 0.73797
 C82 C 0.17744 0.06340 0.75347
 C83 C 0.61064 0.52166 0.22264
 H84 H 0.60968 0.53116 0.23836
 C85 C 0.59899 0.52777 0.20304
 H86 H 0.58893 0.54193 0.20378
 C87 C 0.62574 0.49219 0.20221
 H88 H 0.63656 0.47866 0.20173
 C89 C 0.61452 0.49779 0.18223
 H90 H 0.61638 0.48808 0.16674
 N91 N 0.62359 0.50408 0.22191
 C92 C 0.63587 0.48632 0.29376
 H93 H 0.65322 0.48531 0.29274
 C94 C 0.62529 0.48117 0.31441
 H95 H 0.63465 0.47612 0.32923
 C96 C 0.60270 0.49342 0.27522
 H97 H 0.59399 0.49792 0.25979
 C98 C 0.59143 0.48850 0.29562
 H99 H 0.57408 0.48980 0.29583
 Zn100 Zn 0.64101 0.49799 0.24785
 N101 N 0.62455 0.49251 0.27479
 C102 C 0.65737 0.53431 0.27185
 N103 N 0.65884 0.52223 0.25222
 C104 C 0.67135 0.52850 0.23400
 C105 C 0.68271 0.54789 0.23489
 C106 C 0.66844 0.55385 0.27347
 C107 C 0.64568 0.45446 0.24016
 C108 C 0.65609 0.43478 0.23789
 C109 C 0.69021 0.45344 0.24062
 C110 C 0.67910 0.47285 0.24275
 N111 N 0.65723 0.47295 0.24250
 H112 H 0.64690 0.52930 0.28589
 H113 H 0.67193 0.51871 0.21847
 H114 H 0.69238 0.55275 0.22009
 H115 H 0.66636 0.56368 0.28884
 H116 H 0.62829 0.45503 0.24051
 H117 H 0.64657 0.42019 0.23664
 H118 H 0.70762 0.45353 0.24100
 H119 H 0.68793 0.48770 0.24514
 C120 C 0.60277 0.48237 0.31561
 C121 C 0.60106 0.51587 0.18243
 C122 C 0.67864 0.43407 0.23829
 C123 C 0.68097 0.56106 0.25464
 C124 C 0.89507 0.52250 0.77367
 H125 H 0.89630 0.53143 0.75759
 C126 C 0.90594 0.52977 0.79339
 H127 H 0.91522 0.54448 0.79193
 C128 C 0.87979 0.49358 0.79488
 H129 H 0.86927 0.47971 0.79554
 C130 C 0.89013 0.50035 0.81503
 H131 H 0.88803 0.49061 0.83044
 N132 N 0.88238 0.50466 0.77474
 C133 C 0.87182 0.48411 0.70332
 H134 H 0.85448 0.48263 0.70405
 C135 C 0.88284 0.47857 0.68308
 H136 H 0.87382 0.47273 0.66831
 C137 C 0.90452 0.49286 0.72217
 H138 H 0.91288 0.49816 0.73756
 C139 C 0.91622 0.48757 0.70218
 H140 H 0.93354 0.48940 0.70223
 Zn141 Zn 0.86561 0.49729 0.74862
 N142 N 0.88269 0.49131 0.72223
 C143 C 0.84908 0.53233 0.72280
 N144 N 0.84761 0.52102 0.74297
 C145 C 0.83509 0.52788 0.76088
 C146 C 0.82382 0.54717 0.75915
 C147 C 0.83806 0.55172 0.72033
 C148 C 0.86125 0.45387 0.75760
 C149 C 0.85102 0.43401 0.75996
 C150 C 0.81676 0.45188 0.75612
 C151 C 0.82770 0.47149 0.75385
 N152 N 0.84956 0.47206 0.75452
 H153 H 0.85946 0.52683 0.70895
 H154 H 0.83460 0.51877 0.77688
 H155 H 0.81468 0.55281 0.77399
 H156 H 0.83971 0.56072 0.70431
 H157 H 0.87863 0.45483 0.75780
 H158 H 0.86065 0.41971 0.76237
 H159 H 0.79939 0.45155 0.75487
 H160 H 0.81876 0.48611 0.75088
 C161 C 0.90534 0.48043 0.68223
 C162 C 0.90338 0.51890 0.81478
 C163 C 0.82850 0.43277 0.75887
 C164 C 0.82559 0.55959 0.73885
 C165 C 0.22337 0.41776 0.97521
 H166 H 0.23814 0.42018 0.96554
 C167 C 0.20502 0.42958 0.96954
 H168 H 0.20574 0.44128 0.95561
 C169 C 0.20408 0.39901 1.00455
 H170 H 0.20349 0.38677 1.01782
 C171 C 0.18542 0.41020 0.99930
 H172 H 0.17087 0.40685 1.00908
 N173 N 0.22266 0.40308 0.99276
 C174 C 0.28817 0.39155 1.01588
 H175 H 0.28642 0.37442 1.01875
 C176 C 0.30794 0.40150 1.01959
 H177 H 0.32130 0.39195 1.02567
 C178 C 0.27277 0.42464 1.00416
 H179 H 0.25905 0.43354 0.99805
 C180 C 0.29239 0.43527 1.00753
 H181 H 0.29366 0.45228 1.00359
 Zn182 Zn 0.24696 0.38621 1.00012
 N183 N 0.27130 0.40301 1.00761
 C184 C 0.27295 0.37115 0.96325
 N185 N 0.25352 0.36898 0.97400
 C186 C 0.23804 0.35575 0.96534
 C187 C 0.24183 0.34407 0.94501
 C188 C 0.27742 0.35975 0.94294
 C189 C 0.23706 0.38068 1.04642
 C190 C 0.23200 0.37002 1.06700
 C191 C 0.23498 0.33614 1.04658
 C192 C 0.23986 0.34752 1.02626
 N193 N 0.24064 0.36940 1.02657
 H194 H 0.28485 0.38218 0.96996
 H195 H 0.22262 0.35457 0.97404
 H196 H 0.22931 0.33364 0.93832
 H197 H 0.29276 0.36216 0.93432
 H198 H 0.23789 0.39808 1.04612
 H199 H 0.22879 0.37939 1.08247
 H200 H 0.23477 0.31872 1.04617
 H201 H 0.24315 0.33888 1.01036
 C202 C 0.31043 0.42350 1.01470
 C203 C 0.18574 0.42570 0.98163
 C204 C 0.23100 0.34744 1.06731
 C205 C 0.26168 0.34617 0.93343
 C206 C 0.77627 0.08749 0.98148
 H207 H 0.76377 0.08732 0.96847
 C208 C 0.79520 0.07578 0.97788
 H209 H 0.79655 0.06626 0.96222
 C210 C 0.78904 0.09989 1.01773
 H211 H 0.78701 0.10969 1.03302
 C212 C 0.80796 0.08833 1.01505
 H213 H 0.82006 0.09021 1.02833
 N214 N 0.77353 0.09916 1.00123
 C215 C 0.70694 0.10798 1.02166
 H216 H 0.70779 0.12487 1.02616
 C217 C 0.68767 0.09675 1.02441
 H218 H 0.67381 0.10503 1.03144
 C219 C 0.72399 0.07688 1.00656
 H220 H 0.73811 0.06935 0.99925
 C221 C 0.70495 0.06501 1.00893
 H222 H 0.70454 0.04841 1.00321
 Zn223 Zn 0.74848 0.11582 1.00607
 N224 N 0.72444 0.09809 1.01239
 C225 C 0.72301 0.13042 0.96901
 N226 N 0.74275 0.13212 0.97897
 C227 C 0.75853 0.14437 0.96914
 C228 C 0.75462 0.15569 0.94861
 C229 C 0.71843 0.14140 0.94854
 C230 C 0.75121 0.12389 1.05331
 C231 C 0.75677 0.13490 1.07349
 C232 C 0.76523 0.16618 1.05015
 C233 C 0.75948 0.15452 1.03034
 N234 N 0.75299 0.13365 1.03225
 H235 H 0.71073 0.12036 0.97674
 H236 H 0.77426 0.14507 0.97707
 H237 H 0.76747 0.16508 0.94081
 H238 H 0.70255 0.13993 0.94105
 H239 H 0.74612 0.10724 1.05433
 H240 H 0.75533 0.12677 1.09006
 H241 H 0.77095 0.18258 1.04830
 H242 H 0.76082 0.16197 1.01345
 C243 C 0.68634 0.07513 1.01743
 C244 C 0.81149 0.07587 0.99492
 C245 C 0.76427 0.15621 1.07204
 C246 C 0.73435 0.15418 0.93800
 C247 C 0.28106 0.58983 0.48339
 H248 H 0.26785 0.58837 0.47132
 C249 C 0.30023 0.57878 0.47910
 H250 H 0.30161 0.56865 0.46387
 C251 C 0.29591 0.60573 0.51715
 H252 H 0.29447 0.61642 0.53182
 C253 C 0.31529 0.59514 0.51346
 H254 H 0.32831 0.59755 0.52563
 N255 N 0.27922 0.60298 0.50223
 C256 C 0.21275 0.61086 0.52434
 H257 H 0.21431 0.62704 0.53108
 C258 C 0.19323 0.59996 0.52658
 H259 H 0.17992 0.60782 0.53525
 C260 C 0.22822 0.58109 0.50485
 H261 H 0.24178 0.57383 0.49620
 C262 C 0.20891 0.56959 0.50665
 H263 H 0.20781 0.55369 0.49904
 Zn264 Zn 0.25393 0.61937 0.50771
 N265 N 0.22960 0.60157 0.51311
 C266 C 0.22881 0.64727 0.48063
 N267 N 0.24811 0.63708 0.48173
 C268 C 0.26264 0.63862 0.46407
 C269 C 0.25766 0.65013 0.44401
 C270 C 0.22312 0.65884 0.46082
 C271 C 0.25778 0.62639 0.55527
 C272 C 0.26308 0.63759 0.57543
 C273 C 0.26926 0.66946 0.55220
 C274 C 0.26381 0.65762 0.53242
 N275 N 0.25843 0.63646 0.53432
 H276 H 0.21761 0.64611 0.49496
 H277 H 0.27802 0.63073 0.46537
 H278 H 0.26922 0.65070 0.42989
 H279 H 0.20760 0.66665 0.46016
 H280 H 0.25360 0.60949 0.55620
 H281 H 0.26239 0.62928 0.59195
 H282 H 0.27401 0.68617 0.55036
 H283 H 0.26447 0.66515 0.51549
 C284 C 0.19095 0.57927 0.51712
 C285 C 0.31770 0.58161 0.49416
 C286 C 0.26918 0.65934 0.57403
 C287 C 0.23755 0.66017 0.44208
 C288 C 0.71708 0.91329 0.47941
 H289 H 0.73039 0.91465 0.46733
 C290 C 0.69827 0.92499 0.47554
 H291 H 0.69727 0.93549 0.46058
 C292 C 0.70161 0.89701 0.51278
 H293 H 0.70268 0.88587 0.52709
 C294 C 0.68257 0.90827 0.50952
 H295 H 0.66943 0.90594 0.52168
 N296 N 0.71843 0.89963 0.49784
 C297 C 0.78475 0.88886 0.51819
 H298 H 0.78284 0.87237 0.52389
 C299 C 0.80445 0.89924 0.52106
 H300 H 0.81757 0.89063 0.52910
 C301 C 0.76985 0.92007 0.50109
 H302 H 0.75640 0.92813 0.49323
 C303 C 0.78937 0.93108 0.50356
 H304 H 0.79076 0.94743 0.49721
 Zn305 Zn 0.74317 0.88228 0.50233
 N306 N 0.76808 0.89914 0.50785
 C307 C 0.76707 0.85452 0.47335
 N308 N 0.74804 0.86506 0.47564
 C309 C 0.73292 0.86418 0.45866
 C310 C 0.73697 0.85295 0.43812
 C311 C 0.77183 0.84320 0.45303
 C312 C 0.73910 0.87446 0.54967
 C313 C 0.73460 0.86277 0.56977
 C314 C 0.72927 0.83103 0.54612
 C315 C 0.73388 0.84338 0.52641
 N316 N 0.73851 0.86469 0.52856
 H317 H 0.77876 0.85515 0.48713
 H318 H 0.71775 0.87233 0.46090
 H319 H 0.72494 0.85290 0.42459
 H320 H 0.78713 0.83506 0.45144
 H321 H 0.74282 0.89146 0.55081
 H322 H 0.73536 0.87082 0.58643
 H323 H 0.72525 0.81416 0.54413
 H324 H 0.73338 0.83605 0.50938
 C325 C 0.80711 0.92046 0.51320
 C326 C 0.68064 0.92231 0.49060
 C327 C 0.72944 0.84079 0.56815
 C328 C 0.75675 0.84250 0.43500
 C329 C 0.01850 0.27767 0.40929
 H330 H 0.03220 0.26701 0.40980
 C331 C 0.01832 0.29632 0.42294
 H332 H 0.03187 0.29972 0.43412
 C333 C -0.01572 0.28614 0.39404
 H334 H -0.02880 0.28243 0.38242
 C335 C -0.01658 0.30491 0.40737
 H336 H -0.03034 0.31541 0.40572
 N337 N 0.00155 0.27283 0.39534
 C338 C 0.00345 0.20321 0.38383
 H339 H 0.00205 0.20302 0.36511
 C340 C 0.00446 0.18384 0.39605
 H341 H 0.00311 0.16912 0.38614
 C342 C 0.00529 0.22311 0.41875
 H343 H 0.00553 0.23845 0.42756
 C344 C 0.00622 0.20409 0.43175
 H345 H 0.00792 0.20557 0.45036
 Zn346 Zn 0.00277 0.24759 0.37653
 N347 N 0.00421 0.22234 0.39520
 C348 C 0.04320 0.23426 0.35855
 N349 N 0.02770 0.24960 0.35716
 C350 C 0.03015 0.26689 0.34284
 C351 C 0.04858 0.26902 0.32891
 C352 C 0.06177 0.23571 0.34490
 C353 C -0.04129 0.24170 0.37066
 C354 C -0.06092 0.24008 0.35912
 C355 C -0.04212 0.24496 0.32270
 C356 C -0.02277 0.24653 0.33499
 N357 N -0.02276 0.24522 0.35859
 H358 H 0.04140 0.22098 0.37049
 H359 H 0.01778 0.27907 0.34229
 H360 H 0.05012 0.28277 0.31747
 H361 H 0.07398 0.22344 0.34658
 H362 H -0.04080 0.24035 0.38938
 H363 H -0.07544 0.23728 0.36915
 H364 H -0.04188 0.24654 0.30398
 H365 H -0.00785 0.24893 0.32564
 C366 C 0.00601 0.18382 0.42054
 C367 C 0.00058 0.31026 0.42211
 C368 C -0.06159 0.24194 0.33482
 C369 C 0.06468 0.25323 0.32977
 C370 C 0.01386 0.72641 0.09329
 H371 H 0.02785 0.73684 0.09356
 C372 C 0.01386 0.70794 0.07940
 H373 H 0.02786 0.70445 0.06883
 C374 C -0.02136 0.71849 0.10668
 H375 H -0.03494 0.72241 0.11761
 C376 C -0.02204 0.69985 0.09306
 H377 H -0.03617 0.68963 0.09381
 N378 N -0.00365 0.73146 0.10641
 C379 C -0.00003 0.80127 0.11671
 H380 H -0.00145 0.80213 0.13542
 C381 C 0.00179 0.82020 0.10369
 H382 H 0.00157 0.83556 0.11258
 C383 C 0.00132 0.78017 0.08248
 H384 H 0.00092 0.76458 0.07421
 C385 C 0.00311 0.79871 0.06879
 H386 H 0.00446 0.79707 0.05012
 Zn387 Zn -0.00234 0.75673 0.12514
 N388 N 0.00007 0.78173 0.10604
 C389 C 0.03812 0.76945 0.14387
 N390 N 0.02224 0.75432 0.14473
 C391 C 0.02399 0.73675 0.15870
 C392 C 0.04208 0.73406 0.17279
 C393 C 0.05641 0.76745 0.15771
 C394 C -0.04653 0.76320 0.13138
 C395 C -0.06607 0.76531 0.14323
 C396 C -0.04720 0.76018 0.17927
 C397 C -0.02801 0.75825 0.16662
 N398 N -0.02804 0.75948 0.14308
 H399 H 0.03685 0.78300 0.13223
 H400 H 0.01132 0.72475 0.15883
 H401 H 0.04304 0.72008 0.18395
 H402 H 0.06895 0.77955 0.15646
 H403 H -0.04615 0.76419 0.11262
 H404 H -0.08020 0.76702 0.13259
 H405 H -0.04584 0.75985 0.19794
 H406 H -0.01306 0.75594 0.17575
 C407 C 0.00351 0.81910 0.07937
 C408 C -0.00427 0.69434 0.07913
 C409 C -0.06706 0.76369 0.16781
 C410 C 0.05861 0.74959 0.17247
 C411 C 0.49915 0.23088 0.58124
 H412 H 0.50204 0.24640 0.57334
 C413 C 0.49697 0.21265 0.56712
 H414 H 0.49824 0.21439 0.54846
 C415 C 0.49328 0.20982 0.61498
 H416 H 0.49186 0.20887 0.63368
 C417 C 0.49092 0.19124 0.60154
 H418 H 0.48799 0.17600 0.61015
 N419 N 0.49756 0.22912 0.60475
 C420 C 0.48861 0.29522 0.60984
 H421 H 0.47513 0.29310 0.62150
 C422 C 0.49072 0.31447 0.59751
 H423 H 0.47850 0.32671 0.59954
 C424 C 0.52086 0.28203 0.59322
 H425 H 0.53267 0.26936 0.59185
 C426 C 0.52356 0.30107 0.58046
 H427 H 0.53758 0.30294 0.56941
 Zn428 Zn 0.50038 0.25337 0.62481
 N429 N 0.50346 0.27935 0.60738
 C430 C 0.53030 0.26631 0.65899
 N431 N 0.52520 0.25026 0.64387
 C432 C 0.53797 0.23263 0.64165
 C433 C 0.55647 0.23051 0.65515
 C434 C 0.54866 0.26483 0.67286
 C435 C 0.45589 0.25464 0.63143
 C436 C 0.43633 0.25556 0.64340
 C437 C 0.45591 0.25585 0.67951
 C438 C 0.47516 0.25488 0.66681
 N439 N 0.47482 0.25454 0.64317
 H440 H 0.52008 0.28031 0.66024
 H441 H 0.53406 0.22028 0.62914
 H442 H 0.56655 0.21652 0.65274
 H443 H 0.55225 0.27768 0.68496
 H444 H 0.45604 0.25419 0.61264
 H445 H 0.42152 0.25604 0.63362
 H446 H 0.45650 0.25598 0.69829
 H447 H 0.49030 0.25434 0.67589
 C448 C 0.50837 0.31765 0.58256
 C449 C 0.49286 0.19245 0.57725
 C450 C 0.43613 0.25622 0.66779
 C451 C 0.56208 0.24673 0.67106
 C452 C 0.51734 0.78576 0.89554
 H453 H 0.53100 0.78408 0.88405
 C454 C 0.51547 0.80429 0.90912
 H455 H 0.52776 0.81665 0.90783
 C456 C 0.48431 0.77230 0.91032
 H457 H 0.47217 0.75976 0.91055
 C458 C 0.48175 0.79065 0.92416
 H459 H 0.46768 0.79200 0.93521
 N460 N 0.50200 0.77010 0.89652
 C461 C 0.51141 0.70125 0.88469
 H462 H 0.51305 0.70132 0.86597
 C463 C 0.51306 0.68193 0.89691
 H464 H 0.51619 0.66722 0.88743
 C465 C 0.50567 0.72053 0.91965
 H466 H 0.50287 0.73561 0.92847
 C467 C 0.50723 0.70153 0.93260
 H468 H 0.50522 0.70219 0.95127
 Zn469 Zn 0.50449 0.74514 0.87753
 N470 N 0.50736 0.71999 0.89608
 C471 C 0.54877 0.74614 0.86991
 N472 N 0.52962 0.74716 0.85866
 C473 C 0.52879 0.74895 0.83512
 C474 C 0.54780 0.75017 0.82202
 C475 C 0.56809 0.74723 0.85753
 C476 C 0.46639 0.72518 0.86089
 C477 C 0.44707 0.72392 0.84870
 C478 C 0.45410 0.75936 0.83315
 C479 C 0.47336 0.75993 0.84564
 N480 N 0.47914 0.74299 0.85918
 H481 H 0.54898 0.74456 0.88862
 H482 H 0.51344 0.74934 0.82644
 H483 H 0.54686 0.75143 0.80330
 H484 H 0.58311 0.74673 0.86694
 H485 H 0.47093 0.71202 0.87204
 H486 H 0.43728 0.70953 0.85029
 H487 H 0.44957 0.77321 0.82291
 H488 H 0.48355 0.77409 0.84489
 C489 C 0.51068 0.68182 0.92119
 C490 C 0.49752 0.80693 0.92374
 C491 C 0.44054 0.74122 0.83475
 C492 C 0.56782 0.74926 0.83323
 C493 C -0.22640 0.64142 0.97641
 H494 H -0.21665 0.64153 0.99192
 C495 C -0.22048 0.65409 0.95735
 H496 H -0.20629 0.66422 0.95836
 C497 C -0.25666 0.62786 0.95613
 H498 H -0.27042 0.61722 0.95543
 C499 C -0.25144 0.64035 0.93680
 H500 H -0.26138 0.63928 0.92145
 N501 N -0.24433 0.62880 0.97553
 C502 C -0.26464 0.61656 1.04670
 H503 H -0.26533 0.59916 1.04623
 C504 C -0.27110 0.62753 1.06664
 H505 H -0.27714 0.61802 1.08099
 C506 C -0.25743 0.64939 1.02732
 H507 H -0.25227 0.65783 1.01185
 C508 C -0.26370 0.66108 1.04692
 H509 H -0.26221 0.67841 1.04611
 Zn510 Zn -0.25074 0.61100 1.00128
 N511 N -0.25779 0.62754 1.02767
 C512 C -0.21540 0.59562 1.02728
 N513 N -0.22615 0.59422 1.00682
 C514 C -0.21836 0.58246 0.98877
 C515 C -0.19878 0.57178 0.99074
 C516 C -0.19574 0.58518 1.03000
 C517 C -0.29390 0.60419 0.99264
 C518 C -0.31295 0.59276 0.98940
 C519 C -0.29282 0.55962 0.99160
 C520 C -0.27405 0.57175 0.99470
 N521 N -0.27496 0.59362 0.99509
 H522 H -0.22166 0.60539 1.04125
 H523 H -0.22706 0.58202 0.97255
 H524 H -0.19248 0.56317 0.97586
 H525 H -0.18724 0.58668 1.04630
 H526 H -0.29417 0.62159 0.99353
 H527 H -0.32792 0.60150 0.98796
 H528 H -0.29192 0.54222 0.99138
 H529 H -0.25889 0.56367 0.99719
 C530 C -0.27063 0.65027 1.06727
 C531 C -0.23319 0.65373 0.93728
 C532 C -0.31260 0.57018 0.98897
 C533 C -0.18703 0.57336 1.01144
 C534 C -0.22585 0.35733 0.52990
 H535 H -0.21688 0.35421 0.51411
 C536 C -0.22137 0.34641 0.54932
 H537 H -0.20912 0.33416 0.54845
 C538 C -0.25354 0.37744 0.54849
 H539 H -0.26556 0.38992 0.54839
 C540 C -0.24922 0.36589 0.57024
 H541 H -0.25825 0.37088 0.58537
 N542 N -0.24279 0.37297 0.52971
 C543 C -0.25990 0.37922 0.45679
 H544 H -0.25873 0.39653 0.45508
 C545 C -0.26622 0.36674 0.43787
 H546 H -0.26936 0.37457 0.42144
 C547 C -0.25699 0.34813 0.48039
 H548 H -0.25390 0.34102 0.49716
 C549 C -0.26335 0.33501 0.46193
 H550 H -0.26489 0.31783 0.46465
 Zn551 Zn -0.24830 0.38843 0.50216
 N552 N -0.25516 0.36977 0.47741
 C553 C -0.21173 0.40121 0.47581
 N554 N -0.22343 0.40473 0.49545
 C555 C -0.21657 0.41867 0.51206
 C556 C -0.19708 0.42961 0.50940
 C557 C -0.19212 0.41181 0.47243
 C558 C -0.29116 0.39535 0.51063
 C559 C -0.31035 0.40649 0.51333
 C560 C -0.29097 0.43971 0.50645
 C561 C -0.27204 0.42783 0.50410
 N562 N -0.27252 0.40607 0.50633
 H563 H -0.21721 0.38969 0.46307
 H564 H -0.22601 0.42079 0.52773
 H565 H -0.19157 0.44010 0.52318
 H566 H -0.18291 0.40869 0.45680
 H567 H -0.29109 0.37796 0.51176
 H568 H -0.32484 0.39707 0.51582
 H569 H -0.28983 0.45705 0.50519
 H570 H -0.25704 0.43600 0.50033
 C571 C -0.26800 0.34430 0.44028
 C572 C -0.23390 0.35052 0.57108
 C573 C -0.31069 0.42913 0.51121
 C574 C -0.18444 0.42600 0.48952
 C575 C 0.27206 -0.14282 0.03419
 H576 H 0.28068 -0.14580 0.01815
 C577 C 0.27802 -0.15273 0.05376
 H578 H 0.29178 -0.16330 0.05308
 C579 C 0.24450 -0.12314 0.05357
 H580 H 0.23192 -0.11122 0.05363
 C581 C 0.25049 -0.13359 0.07554
 H582 H 0.24075 -0.12991 0.09061
 N583 N 0.25451 -0.12788 0.03439
 C584 C 0.23512 -0.12274 -0.03791
 H585 H 0.23535 -0.10538 -0.03940
 C586 C 0.22901 -0.13530 -0.05682
 H587 H 0.22504 -0.12744 -0.07302
 C588 C 0.24042 -0.15389 -0.01491
 H589 H 0.24445 -0.16101 0.00161
 C590 C 0.23433 -0.16712 -0.03342
 H591 H 0.23392 -0.18440 -0.03101
 Zn592 Zn 0.24778 -0.11306 0.00676
 N593 N 0.24096 -0.13215 -0.01761
 C594 C 0.28327 -0.09989 -0.02093
 N595 N 0.27201 -0.09618 -0.00104
 C596 C 0.27900 -0.08174 0.01501
 C597 C 0.29828 -0.07058 0.01154
 C598 C 0.30261 -0.08907 -0.02512
 C599 C 0.20485 -0.10717 0.01600
 C600 C 0.18516 -0.09670 0.01705
 C601 C 0.20341 -0.06327 0.00810
 C602 C 0.22285 -0.07449 0.00730
 N603 N 0.22312 -0.09607 0.01103
 H604 H 0.27770 -0.11178 -0.03322
 H605 H 0.26992 -0.07944 0.03088
 H606 H 0.30398 -0.05976 0.02493
 H607 H 0.31150 -0.09241 -0.04092
 H608 H 0.20560 -0.12438 0.01883
 H609 H 0.17121 -0.10620 0.02179
 H610 H 0.20379 -0.04634 0.00381
 H611 H 0.23755 -0.06608 0.00279
 C612 C 0.22861 -0.15782 -0.05477
 C613 C 0.26663 -0.14810 0.07608
 C614 C 0.18391 -0.07440 0.01250
 C615 C 0.31054 -0.07447 -0.00857
 C616 C 0.26880 1.14384 0.47334
 H617 H 0.27888 1.14357 0.48861
 C618 C 0.27488 1.15615 0.45407
 H619 H 0.28951 1.16566 0.45467
 C620 C 0.23765 1.13140 0.45380
 H621 H 0.22350 1.12128 0.45343
 C622 C 0.24300 1.14359 0.43429
 H623 H 0.23276 1.14281 0.41914
 N624 N 0.25042 1.13187 0.47289
 C625 C 0.23068 1.11905 0.54413
 H626 H 0.22937 1.10170 0.54324
 C627 C 0.22498 1.12981 0.56447
 H628 H 0.21921 1.12057 0.57920
 C629 C 0.23918 1.15210 0.52557
 H630 H 0.24451 1.16069 0.51027
 C631 C 0.23374 1.16352 0.54564
 H632 H 0.23545 1.18088 0.54574
 Zn633 Zn 0.24412 1.11395 0.49855
 N634 N 0.23781 1.13025 0.52531
 C635 C 0.27947 1.09764 0.52380
 N636 N 0.26854 1.09676 0.50342
 C637 C 0.27605 1.08528 0.48503
 C638 C 0.29553 1.07436 0.48655
 C639 C 0.29903 1.08695 0.52609
 C640 C 0.20071 1.10770 0.49080
 C641 C 0.18151 1.09646 0.48771
 C642 C 0.20146 1.06316 0.48865
 C643 C 0.22036 1.07509 0.49164
 N644 N 0.21961 1.09695 0.49258
 H645 H 0.27342 1.10719 0.53806
 H646 H 0.26721 1.08525 0.46888
 H647 H 0.30164 1.06598 0.47143
 H648 H 0.30767 1.08803 0.54233
 H649 H 0.20058 1.12508 0.49212
 H650 H 0.16658 1.10532 0.48680
 H651 H 0.20226 1.04576 0.48795
 H652 H 0.23551 1.06686 0.49358
 C653 C 0.22662 1.15234 0.56549
 C654 C 0.26183 1.15614 0.43426
 C655 C 0.18172 1.07389 0.48670
 C656 C 0.30747 1.07543 0.50717
 C657 C 0.17225 0.47314 0.25306
 H658 H 0.18038 0.48852 0.25200
 C659 C 0.18421 0.45442 0.25639
 H660 H 0.20150 0.45556 0.25821
 C661 C 0.13993 0.45279 0.25154
 H662 H 0.12267 0.45233 0.24927
 C663 C 0.15120 0.43374 0.25492
 H664 H 0.14250 0.41860 0.25505
 N665 N 0.15050 0.47197 0.25088
 C666 C 0.15084 0.53238 0.22108
 H667 H 0.14179 0.52652 0.20640
 C668 C 0.16196 0.55187 0.21930
 H669 H 0.16170 0.56063 0.20304
 C670 C 0.16166 0.52851 0.26027
 H671 H 0.16099 0.51948 0.27633
 C672 C 0.17298 0.54793 0.25927
 H673 H 0.18094 0.55382 0.27472
 Zn674 Zn 0.13354 0.49643 0.24508
 N675 N 0.15081 0.52121 0.24138
 C676 C 0.10314 0.52011 0.27068
 N677 N 0.11489 0.50167 0.27048
 C678 C 0.11492 0.48813 0.28903
 C679 C 0.10269 0.49282 0.30870
 C680 C 0.09083 0.52556 0.29019
 C681 C 0.13011 0.48419 0.19909
 C682 C 0.12032 0.47927 0.17803
 C683 C 0.08594 0.48739 0.19551
 C684 C 0.09651 0.49211 0.21628
 N685 N 0.11823 0.49073 0.21756
 H686 H 0.10375 0.53081 0.25587
 H687 H 0.12484 0.47393 0.28892
 H688 H 0.10324 0.48202 0.32345
 H689 H 0.08167 0.54035 0.29021
 H690 H 0.14736 0.48264 0.20084
 H691 H 0.13071 0.47325 0.16447
 H692 H 0.06879 0.48999 0.19534
 H693 H 0.08734 0.49712 0.23131
 C694 C 0.17298 0.56003 0.23866
 C695 C 0.17364 0.43440 0.25738
 C696 C 0.09772 0.48102 0.17546
 C697 C 0.09056 0.51180 0.30952
 C698 C -0.16100 1.02455 0.27155
 H699 H -0.16376 1.00991 0.28130
 C700 C -0.17204 1.04337 0.27751
 H701 H -0.18345 1.04313 0.29178
 C702 C -0.14229 1.04300 0.24156
 H703 H -0.13043 1.04306 0.22783
 C704 C -0.15271 1.06209 0.24707
 H705 H -0.14913 1.07644 0.23707
 N706 N -0.14673 1.02463 0.25354
 C707 C -0.13944 0.95895 0.22824
 H708 H -0.12232 0.95958 0.22487
 C709 C -0.15079 0.93991 0.22447
 H710 H -0.14233 0.92600 0.21780
 C711 C -0.17107 0.97632 0.24149
 H712 H -0.17886 0.99049 0.24829
 C713 C -0.18306 0.95750 0.23809
 H714 H -0.19997 0.95731 0.24269
 Zn715 Zn -0.13121 0.99952 0.24550
 N716 N -0.14951 0.97641 0.23735
 C717 C -0.11784 0.97162 0.28128
 N718 N -0.11462 0.99133 0.27150
 C719 C -0.10080 1.00583 0.28105
 C720 C -0.08950 1.00066 0.30120
 C721 C -0.10693 0.96582 0.30140
 C722 C -0.12475 1.00916 0.19923
 C723 C -0.11382 1.01531 0.17913
 C724 C -0.08047 1.01337 0.20034
 C725 C -0.09214 1.00727 0.22010
 N726 N -0.11391 1.00566 0.21926
 H727 H -0.12924 0.96046 0.27384
 H728 H -0.09890 1.02157 0.27326
 H729 H -0.07893 1.01258 0.30886
 H730 H -0.10974 0.95006 0.30890
 H731 H -0.14207 1.00746 0.19901
 H732 H -0.12320 1.01730 0.16353
 H733 H -0.06329 1.01544 0.20212
 H734 H -0.08381 1.00430 0.23620
 C735 C -0.17274 0.93879 0.23016
 C736 C -0.16782 1.06244 0.26519
 C737 C -0.09123 1.01783 0.17929
 C738 C -0.09266 0.98047 0.31173
 C739 C 0.33848 0.52684 -0.22537
 H740 H 0.33507 0.51246 -0.21540
 C741 C 0.32773 0.54603 -0.22023
 H742 H 0.31594 0.54634 -0.20633
 C743 C 0.35842 0.54421 -0.25518
 H744 H 0.37064 0.54370 -0.26852
 C745 C 0.34828 0.56365 -0.25050
 H746 H 0.35246 0.57768 -0.26076
 N747 N 0.35324 0.52620 -0.24289
 C748 C 0.36014 0.45867 -0.26651
 H749 H 0.37743 0.45870 -0.26872
 C750 C 0.34882 0.44083 -0.27084
 H751 H 0.35759 0.42661 -0.27600
 C752 C 0.32890 0.47841 -0.25563
 H753 H 0.32124 0.49295 -0.24961
 C754 C 0.31568 0.45902 -0.26002
 H755 H 0.29849 0.46041 -0.25767
 Zn756 Zn 0.36834 0.50054 -0.24991
 N757 N 0.34969 0.47767 -0.25803
 C758 C 0.38073 0.47305 -0.21328
 N759 N 0.38438 0.49252 -0.22343
 C760 C 0.39857 0.50684 -0.21419
 C761 C 0.41003 0.50161 -0.19416
 C762 C 0.39178 0.46719 -0.19324
 C763 C 0.37589 0.50902 -0.29633
 C764 C 0.38740 0.51445 -0.31632
 C765 C 0.42027 0.51224 -0.29422
 C766 C 0.40808 0.50681 -0.27459
 N767 N 0.38627 0.50570 -0.27593
 H768 H 0.36903 0.46206 -0.22047
 H769 H 0.40080 0.52241 -0.22227
 H770 H 0.42103 0.51333 -0.18687
 H771 H 0.38874 0.45156 -0.18554
 H772 H 0.35854 0.50785 -0.29690
 H773 H 0.37878 0.51697 -0.33237
 H774 H 0.43757 0.51358 -0.29276
 H775 H 0.41605 0.50387 -0.25828
 C776 C 0.32507 0.44043 -0.26689
 C777 C 0.33269 0.56474 -0.23289
 C778 C 0.40988 0.51639 -0.31538
 C779 C 0.40663 0.48156 -0.18340
 C780 C 0.66339 -0.03078 -0.23424
 H781 H 0.66569 -0.01727 -0.22264
 C782 C 0.67407 -0.04919 -0.23066
 H783 H 0.68463 -0.05016 -0.21583
 C784 C 0.64470 -0.04532 -0.26671
 H785 H 0.63291 -0.04421 -0.28030
 C786 C 0.65603 -0.06578 -0.26352
 H787 H 0.65297 -0.07823 -0.27621
 N788 N 0.64841 -0.02903 -0.25308
 C789 C 0.63817 0.03812 -0.27149
 H790 H 0.62112 0.03690 -0.27491
 C791 C 0.64868 0.05779 -0.27425
 H792 H 0.63938 0.07110 -0.28083
 C793 C 0.67047 0.02147 -0.25977
 H794 H 0.67882 0.00731 -0.25383
 C795 C 0.68170 0.04092 -0.26218
 H796 H 0.69847 0.04111 -0.25735
 Zn797 Zn 0.63178 -0.00380 -0.25727
 N798 N 0.64898 0.02063 -0.26375
 C799 C 0.61817 0.02060 -0.21857
 N800 N 0.61599 0.00135 -0.22964
 C801 C 0.60357 -0.01465 -0.22053
 C802 C 0.59261 -0.01153 -0.19956
 C803 C 0.60749 0.02442 -0.19764
 C804 C 0.62319 -0.00853 -0.30413
 C805 C 0.61134 -0.01299 -0.32403
 C806 C 0.57929 -0.01546 -0.30025
 C807 C 0.59180 -0.01092 -0.28072
 N808 N 0.61339 -0.00793 -0.28298
 H809 H 0.62851 0.03297 -0.22569
 H810 H 0.60235 -0.02992 -0.22948
 H811 H 0.58271 -0.02441 -0.19262
 H812 H 0.60979 0.03971 -0.18893
 H813 H 0.64037 -0.00593 -0.30540
 H814 H 0.61948 -0.01333 -0.34069
 H815 H 0.56220 -0.01829 -0.29812
 H816 H 0.58430 -0.01019 -0.26378
 C817 C 0.67072 0.05985 -0.26880
 C818 C 0.67022 -0.06821 -0.24604
 C819 C 0.58912 -0.01680 -0.32224
 C820 C 0.59458 0.00822 -0.18780
 C821 C 0.03066 0.27094 0.84183
 H822 H 0.02220 0.28609 0.84292
 C823 C 0.04936 0.26935 0.82834
 H824 H 0.05530 0.28347 0.81931
 C825 C 0.03347 0.23435 0.85294
 H826 H 0.02716 0.22071 0.86247
 C827 C 0.05219 0.23204 0.83967
 H828 H 0.06001 0.21651 0.83905
 N829 N 0.02317 0.25360 0.85387
 C830 C -0.04623 0.25989 0.86404
 H831 H -0.04721 0.25957 0.88280
 C832 C -0.06502 0.26115 0.85097
 H833 H -0.08039 0.26167 0.85986
 C834 C -0.02499 0.25872 0.82981
 H835 H -0.00935 0.25762 0.82164
 C836 C -0.04344 0.25986 0.81603
 H837 H -0.04178 0.25989 0.79730
 Zn838 Zn -0.00185 0.25656 0.87263
 N839 N -0.02668 0.25884 0.85340
 C840 C -0.01437 0.29748 0.89039
 N841 N 0.00115 0.28209 0.89107
 C842 C 0.01935 0.28521 0.90374
 C843 C 0.02216 0.30404 0.91682
 C844 C -0.01227 0.31642 0.90326
 C845 C -0.02047 0.21681 0.88610
 C846 C -0.02254 0.19758 0.89848
 C847 C 0.00739 0.20848 0.92231
 C848 C 0.00886 0.22758 0.90948
 N849 N -0.00496 0.23143 0.89170
 H850 H -0.02833 0.29538 0.87960
 H851 H 0.03194 0.27329 0.90336
 H852 H 0.03667 0.30611 0.92690
 H853 H -0.02476 0.32847 0.90216
 H854 H -0.03098 0.21968 0.87157
 H855 H -0.03506 0.18628 0.89365
 H856 H 0.01891 0.20553 0.93598
 H857 H 0.02140 0.23906 0.91344
 C858 C -0.06381 0.26116 0.82661
 C859 C 0.06049 0.24971 0.82723
 C860 C -0.00837 0.19304 0.91672
 C861 C 0.00613 0.31991 0.91680
 C862 C 0.47219 0.26079 0.15607
 H863 H 0.48179 0.27534 0.15521
 C864 C 0.45322 0.26042 0.16921
 H865 H 0.44851 0.27474 0.17863
 C866 C 0.46687 0.22446 0.14488
 H867 H 0.47221 0.21051 0.13528
 C868 C 0.44778 0.22339 0.15779
 H869 H 0.43847 0.20862 0.15769
 N870 N 0.47859 0.24300 0.14418
 C871 C 0.54844 0.24806 0.13509
 H872 H 0.54981 0.24710 0.11637
 C873 C 0.56698 0.24994 0.14856
 H874 H 0.58252 0.25027 0.14001
 C875 C 0.52652 0.24804 0.16882
 H876 H 0.51074 0.24719 0.17669
 C877 C 0.54469 0.24986 0.18298
 H878 H 0.54261 0.25067 0.20164
 Zn879 Zn 0.50396 0.24490 0.12571
 N880 N 0.52866 0.24736 0.14528
 C881 C 0.51758 0.28504 0.10611
 N882 N 0.50158 0.27000 0.10655
 C883 C 0.48308 0.27313 0.09447
 C884 C 0.48036 0.29162 0.08092
 C885 C 0.51558 0.30368 0.09272
 C886 C 0.52209 0.20489 0.11225
 C887 C 0.52410 0.18589 0.09944
 C888 C 0.49399 0.19688 0.07609
 C889 C 0.49257 0.21573 0.08934
 N890 N 0.50656 0.21947 0.10703
 H891 H 0.53186 0.28290 0.11637
 H892 H 0.47015 0.26149 0.09575
 H893 H 0.46556 0.29369 0.07136
 H894 H 0.52844 0.31550 0.09293
 H895 H 0.53280 0.20774 0.12665
 H896 H 0.53670 0.17467 0.10388
 H897 H 0.48240 0.19409 0.06242
 H898 H 0.48006 0.22717 0.08565
 C899 C 0.56528 0.25096 0.17287
 C900 C 0.44062 0.24157 0.17009
 C901 C 0.50987 0.18157 0.08112
 C902 C 0.49680 0.30719 0.07985
 C903 C -0.02735 0.76453 0.65789
 H904 H -0.01861 0.77957 0.65630
 C905 C -0.04524 0.76348 0.67089
 H906 H -0.05074 0.77814 0.67904
 C907 C -0.03017 0.72770 0.64677
 H908 H -0.02428 0.71383 0.63741
 C909 C -0.04995 0.72573 0.66093
 H910 H -0.05728 0.70995 0.66195
 N911 N -0.01984 0.74592 0.64553
 C912 C 0.04970 0.75178 0.63519
 H913 H 0.05082 0.75109 0.61645
 C914 C 0.06843 0.75292 0.64843
 H915 H 0.08386 0.75347 0.63965
 C916 C 0.02819 0.75181 0.66923
 H917 H 0.01249 0.75109 0.67731
 C918 C 0.04655 0.75301 0.68317
 H919 H 0.04474 0.75308 0.70187
 Zn920 Zn 0.00511 0.74855 0.62656
 N921 N 0.03004 0.75123 0.64567
 C922 C 0.01790 0.78869 0.60636
 N923 N 0.00195 0.77363 0.60761
 C924 C -0.01697 0.77660 0.59626
 C925 C -0.02019 0.79493 0.58260
 C926 C 0.01540 0.80719 0.59284
 C927 C 0.02335 0.70871 0.61274
 C928 C 0.02536 0.68980 0.59977
 C929 C -0.00470 0.70101 0.57645
 C930 C -0.00612 0.71976 0.58986
 N931 N 0.00784 0.72334 0.60761
 H932 H 0.03256 0.78661 0.61601
 H933 H -0.02979 0.76490 0.59813
 H934 H -0.03529 0.79683 0.57357
 H935 H 0.02824 0.81902 0.59235
 H936 H 0.03401 0.71143 0.62720
 H937 H 0.03793 0.67853 0.60414
 H938 H -0.01626 0.69834 0.56273
 H939 H -0.01861 0.73125 0.58624
 C940 C 0.06705 0.75342 0.67278
 C941 C -0.05773 0.74289 0.67275
 C942 C 0.01115 0.68565 0.58139
 C943 C -0.00382 0.81050 0.58065
 C944 C 0.52043 0.75079 0.32978
 H945 H 0.50501 0.75292 0.32157
 C946 C 0.53892 0.74851 0.31600
 H947 H 0.53747 0.74892 0.29728
 C948 C 0.54104 0.74697 0.36400
 H949 H 0.54171 0.74639 0.38276
 C950 C 0.55985 0.74455 0.35094
 H951 H 0.57497 0.74242 0.35987
 N952 N 0.52185 0.75024 0.35335
 C953 C 0.45566 0.73974 0.35931
 H954 H 0.45802 0.72690 0.37164
 C955 C 0.43614 0.74106 0.34755
 H956 H 0.42397 0.72886 0.35064
 C957 C 0.46838 0.77133 0.34066
 H958 H 0.48094 0.78327 0.33837
 C959 C 0.44904 0.77324 0.32844
 H960 H 0.44684 0.78674 0.31682
 Zn961 Zn 0.49736 0.75307 0.37311
 N962 N 0.47140 0.75467 0.35564
 C963 C 0.48321 0.78381 0.40581
 N964 N 0.49965 0.77871 0.39116
 C965 C 0.51688 0.79210 0.38855
 C966 C 0.51815 0.81132 0.40112
 C967 C 0.48383 0.80289 0.41872
 C968 C 0.49646 0.70883 0.38143
 C969 C 0.49523 0.68972 0.39411
 C970 C 0.49500 0.71063 0.42947
 C971 C 0.49616 0.72941 0.41606
 N972 N 0.49653 0.72820 0.39245
 H973 H 0.46954 0.77306 0.40736
 H974 H 0.52955 0.78813 0.37641
 H975 H 0.53182 0.82189 0.39839
 H976 H 0.47066 0.80650 0.43043
 H977 H 0.49711 0.70829 0.36266
 H978 H 0.49519 0.67451 0.38492
 H979 H 0.49428 0.71191 0.44820
 H980 H 0.49662 0.74491 0.42455
 C981 C 0.43253 0.75803 0.33194
 C982 C 0.55900 0.74536 0.32657
 C983 C 0.49427 0.69042 0.41848
 C984 C 0.50146 0.81701 0.41644
 B985 B -0.01178 0.01620 1.01414
 B986 B -0.02504 0.01102 0.98966
 B987 B -0.00480 0.02875 0.98966
 B988 B 0.01443 0.02016 1.00797
 B989 B 0.00553 -0.00378 1.01926
 B990 B -0.01927 -0.00925 1.00793
 B991 B 0.00967 -0.00847 0.97238
 B992 B 0.02291 -0.00327 0.99685
 B993 B 0.00267 -0.02100 0.99689
 B994 B -0.01655 -0.01243 0.97855
 B995 B -0.00766 0.01154 0.96724
 B996 B 0.01716 0.01700 0.97858
 B997 B 0.49174 0.51521 0.51911
 B998 B 0.47890 0.50987 0.49441
 B999 B 0.49878 0.52800 0.49478
 B1000 B 0.51794 0.51975 0.51333
 B1001 B 0.50940 0.49558 0.52439
 B1002 B 0.48484 0.48964 0.51267
 B1003 B 0.51421 0.49116 0.47756
 B1004 B 0.52703 0.49656 0.50224
 B1005 B 0.50719 0.47839 0.50190
 B1006 B 0.48800 0.48663 0.48332
 B1007 B 0.49656 0.51082 0.47224
 B1008 B 0.52109 0.51676 0.48398
 B1009 B 0.50796 0.99419 0.51311
 B1010 B 0.52159 0.99919 0.48870
 B1011 B 0.50087 0.98203 0.48849
 B1012 B 0.48173 0.99099 0.50688
 B1013 B 0.49115 1.01460 0.51844
 B1014 B 0.51621 1.01948 0.50717
 B1015 B 0.48759 1.01978 0.47160
 B1016 B 0.47399 1.01473 0.49601
 B1017 B 0.49468 1.03191 0.49623
 B1018 B 0.51385 1.02297 0.47781
 B1019 B 0.50441 0.99934 0.46625
 B1020 B 0.47936 0.99446 0.47753
 B1021 B 0.01601 0.49696 1.01239
 B1022 B 0.02802 0.50248 0.98714
 B1023 B 0.00798 0.48455 0.98827
 B1024 B -0.01042 0.49278 1.00791
 B1025 B -0.00123 0.51672 1.01888
 B1026 B 0.02296 0.52254 1.00599
 B1027 B -0.00765 0.52174 0.97238
 B1028 B -0.01965 0.51621 0.99763
 B1029 B 0.00038 0.53416 0.99653
 B1030 B 0.01879 0.52593 0.97685
 B1031 B 0.00959 0.50196 0.96589
 B1032 B -0.01457 0.49615 0.97880
 B1033 B 0.01543 0.51118 0.47834
 B1034 B 0.02875 0.50685 0.50294
 B1035 B 0.00816 0.52396 0.50257
 B1036 B -0.01087 0.51445 0.48442
 B1037 B -0.00146 0.49056 0.47365
 B1038 B 0.02344 0.48607 0.48511
 B1039 B -0.00557 0.48665 0.52062
 B1040 B -0.01887 0.49097 0.49603
 B1041 B 0.00172 0.47386 0.49641
 B1042 B 0.02074 0.48337 0.51457
 B1043 B 0.01133 0.50725 0.52534
 B1044 B -0.01356 0.51176 0.51385
 B1045 B 0.51262 0.00611 -0.02050
 B1046 B 0.52496 0.00155 0.00464
 B1047 B 0.50518 0.01956 0.00326
 B1048 B 0.48633 0.01065 -0.01545
 B1049 B 0.49497 -0.01379 -0.02551
 B1050 B 0.51927 -0.01923 -0.01305
 B1051 B 0.48927 -0.01686 0.02134
 B1052 B 0.47692 -0.01229 -0.00378
 B1053 B 0.49670 -0.03028 -0.00238
 B1054 B 0.51556 -0.02139 0.01631
 B1055 B 0.50690 0.00304 0.02639
 B1056 B 0.48261 0.00848 0.01393
 B1057 B 0.48842 0.48344 -0.01813
 B1058 B 0.47571 0.48865 0.00678
 B1059 B 0.49536 0.47046 0.00603
 B1060 B 0.51458 0.47881 -0.01272
 B1061 B 0.50630 0.50307 -0.02348
 B1062 B 0.48186 0.50898 -0.01139
 B1063 B 0.51127 0.50715 0.02334
 B1064 B 0.52398 0.50192 -0.00155
 B1065 B 0.50433 0.52008 -0.00080
 B1066 B 0.48511 0.51177 0.01794
 B1067 B 0.49339 0.48749 0.02873
 B1068 B 0.51785 0.48160 0.01663
 B1069 B -0.01639 0.98519 0.47982
 B1070 B -0.02926 0.99011 0.50470
 B1071 B -0.00918 0.97239 0.50399
 B1072 B 0.00986 0.98117 0.48527
 B1073 B 0.00104 1.00523 0.47448
 B1074 B -0.02356 1.01058 0.48653
 B1075 B 0.00588 1.00943 0.52129
 B1076 B 0.01871 1.00448 0.49642
 B1077 B -0.00133 1.02220 0.49715
 B1078 B -0.02039 1.01346 0.51588
 B1079 B -0.01156 0.98938 0.52668
 B1080 B 0.01303 0.98404 0.51460
 B1081 B 0.76184 0.23442 0.23818
 B1082 B 0.75684 0.22157 0.26304
 B1083 B 0.77431 0.24203 0.26238
 B1084 B 0.76549 0.26080 0.24362
 B1085 B 0.74167 0.25141 0.23270
 B1086 B 0.73650 0.22673 0.24473
 B1087 B 0.73698 0.25641 0.27947
 B1088 B 0.74201 0.26924 0.25463
 B1089 B 0.72452 0.24879 0.25525
 B1090 B 0.73332 0.23000 0.27406
 B1091 B 0.75717 0.23941 0.28497
 B1092 B 0.76233 0.26407 0.27293
 B1093 B 0.74356 0.75996 0.73335
 B1094 B 0.74810 0.77359 0.75779
 B1095 B 0.73104 0.75278 0.75780
 B1096 B 0.74036 0.73368 0.73961
 B1097 B 0.76410 0.74322 0.72839
 B1098 B 0.76870 0.76831 0.73964
 B1099 B 0.76848 0.73959 0.77532
 B1100 B 0.76392 0.72599 0.75088
 B1101 B 0.78101 0.74677 0.75086
 B1102 B 0.77169 0.76591 0.76907
 B1103 B 0.74792 0.75636 0.78028
 B1104 B 0.74334 0.73128 0.76901
 B1105 B 0.25962 0.26530 0.76680
 B1106 B 0.25501 0.27815 0.74191
 B1107 B 0.27251 0.25788 0.74267
 B1108 B 0.26342 0.23895 0.76134
 B1109 B 0.23939 0.24805 0.77207
 B1110 B 0.23438 0.27269 0.76002
 B1111 B 0.23547 0.24311 0.72524
 B1112 B 0.24011 0.23028 0.75010
 B1113 B 0.22261 0.25053 0.74936
 B1114 B 0.23168 0.26946 0.73067
 B1115 B 0.25571 0.26035 0.71993
 B1116 B 0.26072 0.23572 0.73199
 B1117 B 0.23208 0.73846 0.27539
 B1118 B 0.23717 0.72576 0.25048
 B1119 B 0.21940 0.74580 0.25121
 B1120 B 0.22803 0.76477 0.27001
 B1121 B 0.25204 0.75592 0.28080
 B1122 B 0.25751 0.73140 0.26869
 B1123 B 0.25649 0.76108 0.23403
 B1124 B 0.25137 0.77375 0.25892
 B1125 B 0.26913 0.75373 0.25817
 B1126 B 0.26053 0.73476 0.23937
 B1127 B 0.23653 0.74361 0.22855
 B1128 B 0.23106 0.76814 0.24068
 B1129 B 0.26330 0.73851 0.73988
 B1130 B 0.25842 0.72508 0.76440
 B1131 B 0.27553 0.74586 0.76432
 B1132 B 0.26648 0.76484 0.74594
 B1133 B 0.24287 0.75526 0.73467
 B1134 B 0.23808 0.73027 0.74611
 B1135 B 0.23787 0.75924 0.78153
 B1136 B 0.24279 0.77266 0.75702
 B1137 B 0.22566 0.75190 0.75706
 B1138 B 0.23471 0.73289 0.77547
 B1139 B 0.25834 0.74249 0.78675
 B1140 B 0.26313 0.76748 0.77531
 B1141 B 0.23980 0.25954 0.22871
 B1142 B 0.24509 0.27273 0.25322
 B1143 B 0.22733 0.25253 0.25325
 B1144 B 0.23580 0.23331 0.23469
 B1145 B 0.25972 0.24219 0.22323
 B1146 B 0.26527 0.26698 0.23473
 B1147 B 0.26453 0.23793 0.27006
 B1148 B 0.25923 0.22474 0.24553
 B1149 B 0.27700 0.24495 0.24551
 B1150 B 0.26852 0.26418 0.26406
 B1151 B 0.24460 0.25530 0.27551
 B1152 B 0.23904 0.23051 0.26402
 B1153 B 0.75768 0.76490 0.26678
 B1154 B 0.75270 0.77768 0.24194
 B1155 B 0.77076 0.75791 0.24261
 B1156 B 0.76220 0.73869 0.26121
 B1157 B 0.73792 0.74709 0.27197
 B1158 B 0.73223 0.77162 0.26003
 B1159 B 0.73414 0.74218 0.22513
 B1160 B 0.73913 0.72941 0.24994
 B1161 B 0.72107 0.74917 0.24928
 B1162 B 0.72962 0.76840 0.23066
 B1163 B 0.75389 0.75998 0.21989
 B1164 B 0.75959 0.73548 0.23185
 B1165 B 0.73740 0.23471 0.77080
 B1166 B 0.74171 0.22203 0.74571
 B1167 B 0.72415 0.24224 0.74705
 B1168 B 0.73343 0.26108 0.76562
 B1169 B 0.75764 0.25202 0.77564
 B1170 B 0.76259 0.22746 0.76330
 B1171 B 0.76088 0.25722 0.72876
 B1172 B 0.75653 0.26990 0.75382
 B1173 B 0.77409 0.24973 0.75246
 B1174 B 0.76485 0.23086 0.73390
 B1175 B 0.74064 0.23995 0.72387
 B1176 B 0.73571 0.26449 0.73622
 C1177 C 0.44588 1.04097 0.35212
 C1178 C 0.43527 1.04110 0.37363
 C1179 C 0.41322 1.03666 0.37478
 C1180 C 0.40199 1.03117 0.35469
 C1181 C 0.41270 1.02999 0.33318
 C1182 C 0.43462 1.03557 0.33194
 C1183 C 0.44736 1.04229 0.39480
 C1184 C 0.45715 1.04109 0.41273
 C1185 C 0.46814 1.03697 0.43357
 C1186 C 0.47708 1.03104 0.45089
 H1187 H 0.46303 1.04405 0.35110
 H1188 H 0.40490 1.03649 0.39136
 H1189 H 0.38503 1.02726 0.35606
 H1190 H 0.44327 1.03467 0.31560
 C1191 C -0.08413 0.52709 0.87773
 C1192 C -0.06452 0.53804 0.87647
 C1193 C -0.05609 0.54391 0.85483
 C1194 C -0.06694 0.53826 0.83445
 C1195 C -0.08633 0.52623 0.83534
 C1196 C -0.09494 0.52127 0.85750
 C1197 C -0.05201 0.54055 0.89723
 C1198 C -0.04163 0.54044 0.91483
 C1199 C -0.02968 0.53749 0.93530
 C1200 C -0.01971 0.53238 0.95227
 H1201 H -0.09083 0.52246 0.89442
 H1202 H -0.04070 0.55210 0.85364
 H1203 H -0.05921 0.54218 0.81812
 H1204 H -0.11026 0.51314 0.85950
 C1205 C 0.05156 -0.01335 0.85496
 C1206 C 0.05886 -0.02819 0.87137
 C1207 C 0.07744 -0.04013 0.86687
 C1208 C 0.08897 -0.03682 0.84624
 C1209 C 0.08211 -0.02141 0.82996
 C1210 C 0.06306 -0.00997 0.83440
 C1211 C 0.04838 -0.02931 0.89364
 C1212 C 0.03958 -0.02832 0.91227
 C1213 C 0.02927 -0.02466 0.93373
 C1214 C 0.02052 -0.01920 0.95143
 H1215 H 0.03733 -0.00383 0.85841
 H1216 H 0.08331 -0.05156 0.87952
 H1217 H 0.10339 -0.04612 0.84317
 H1218 H 0.05750 0.00221 0.82243
 C1219 C 0.56027 0.46378 0.35893
 C1220 C 0.56904 0.47120 0.37982
 C1221 C 0.58906 0.48155 0.37979
 C1222 C 0.60013 0.48487 0.35896
 C1223 C 0.59133 0.47785 0.33778
 C1224 C 0.57138 0.46703 0.33802
 C1225 C 0.55675 0.47039 0.40100
 C1226 C 0.54668 0.47154 0.41886
 C1227 C 0.53520 0.47527 0.43959
 C1228 C 0.52568 0.48068 0.45685
 H1229 H 0.54468 0.45593 0.35875
 H1230 H 0.59582 0.48766 0.39581
 H1231 H 0.61526 0.49356 0.35937
 H1232 H 0.56432 0.46120 0.32205
 C1233 C 0.55603 0.53149 0.14171
 C1234 C 0.56631 0.52974 0.12011
 C1235 C 0.58827 0.52504 0.11904
 C1236 C 0.59975 0.52129 0.13940
 C1237 C 0.58937 0.52212 0.16113
 C1238 C 0.56752 0.52782 0.16215
 C1239 C 0.55397 0.52979 0.09908
 C1240 C 0.54388 0.52796 0.08139
 C1241 C 0.53238 0.52352 0.06092
 C1242 C 0.52284 0.51770 0.04389
 H1243 H 0.53896 0.53483 0.14272
 H1244 H 0.59634 0.52347 0.10241
 H1245 H 0.61664 0.51727 0.13813
 H1246 H 0.55912 0.52844 0.17865
 C1247 C 0.05307 1.03330 0.63873
 C1248 C 0.06279 1.03131 0.61686
 C1249 C 0.08465 1.02628 0.61519
 C1250 C 0.09661 1.02255 0.63524
 C1251 C 0.08681 1.02375 0.65727
 C1252 C 0.06503 1.02964 0.65884
 C1253 C 0.04992 1.03160 0.59620
 C1254 C 0.03933 1.03001 0.57883
 C1255 C 0.02728 1.02582 0.55866
 C1256 C 0.01744 1.02010 0.54179
 H1257 H 0.03608 1.03689 0.64021
 H1258 H 0.09229 1.02451 0.59834
 H1259 H 0.11343 1.01836 0.63352
 H1260 H 0.05703 1.03050 0.67556
 C1261 C -0.08003 0.47770 0.61832
 C1262 C -0.05980 0.46799 0.61900
 C1263 C -0.05113 0.46168 0.64033
 C1264 C -0.06258 0.46536 0.66094
 C1265 C -0.08278 0.47551 0.66043
 C1266 C -0.09144 0.48144 0.63884
 C1267 C -0.04728 0.46670 0.59799
 C1268 C -0.03715 0.46749 0.58014
 C1269 C -0.02574 0.47086 0.55924
 C1270 C -0.01645 0.47610 0.54173
 H1271 H -0.08674 0.48295 0.60195
 H1272 H -0.03538 0.45435 0.64107
 H1273 H -0.05559 0.46036 0.67725
 H1274 H -0.10675 0.48961 0.63783
 C1275 C 0.41304 -0.02636 0.11850
 C1276 C 0.43347 -0.03566 0.11893
 C1277 C 0.44257 -0.04165 0.14015
 C1278 C 0.43142 -0.03792 0.16092
 C1279 C 0.41109 -0.02803 0.16068
 C1280 C 0.40192 -0.02257 0.13919
 C1281 C 0.44584 -0.03664 0.09783
 C1282 C 0.45603 -0.03562 0.08003
 C1283 C 0.46771 -0.03208 0.05937
 C1284 C 0.47744 -0.02690 0.04213
 H1285 H 0.40600 -0.02136 0.10220
 H1286 H 0.45847 -0.04867 0.14068
 H1287 H 0.43878 -0.04256 0.17715
 H1288 H 0.38649 -0.01462 0.13838
 C1289 C 0.37041 0.43149 0.00738
 C1290 C 0.37327 0.45233 0.01600
 C1291 C 0.35560 0.46388 0.02445
 C1292 C 0.33505 0.45455 0.02421
 C1293 C 0.33207 0.43356 0.01556
 C1294 C 0.34998 0.42218 0.00712
 C1295 C 0.39442 0.46170 0.01560
 C1296 C 0.41247 0.46869 0.01455
 C1297 C 0.43384 0.47604 0.01259
 C1298 C 0.45222 0.48182 0.01037
 H1299 H 0.38396 0.42249 0.00065
 H1300 H 0.35768 0.48006 0.03113
 H1301 H 0.32157 0.46364 0.03092
 H1302 H 0.34816 0.40618 -0.00011
 C1303 C -0.13267 0.92879 0.50853
 C1304 C -0.13061 0.95060 0.51410
 C1305 C -0.14888 0.96265 0.51972
 C1306 C -0.16921 0.95288 0.51965
 C1307 C -0.17142 0.93095 0.51397
 C1308 C -0.15291 0.91902 0.50844
 C1309 C -0.10969 0.96048 0.51342
 C1310 C -0.09186 0.96805 0.51229
 C1311 C -0.07075 0.97618 0.51036
 C1312 C -0.05257 0.98260 0.50821
 H1313 H -0.11864 0.91936 0.50401
 H1314 H -0.14742 0.97957 0.52403
 H1315 H -0.18315 0.96242 0.52415
 H1316 H -0.15411 0.90222 0.50357
 C1317 C -0.14012 0.05063 0.96707
 C1318 C -0.12818 0.04509 0.98667
 C1319 C -0.13679 0.04834 1.00878
 C1320 C -0.15690 0.05782 1.01145
 C1321 C -0.16895 0.06446 0.99196
 C1322 C -0.16041 0.06006 0.96963
 C1323 C -0.10663 0.03706 0.98457
 C1324 C -0.08833 0.03082 0.98416
 C1325 C -0.06681 0.02393 0.98501
 C1326 C -0.04842 0.01821 0.98660
 H1327 H -0.13353 0.04820 0.94982
 H1328 H -0.12778 0.04382 1.02409
 H1329 H -0.16301 0.05953 1.02897
 H1330 H -0.16861 0.06505 0.95403
 C1331 C 0.37763 0.57231 0.49072
 C1332 C 0.37849 0.55031 0.48570
 C1333 C 0.35945 0.53869 0.48205
 C1334 C 0.33954 0.54899 0.48401
 C1335 C 0.33857 0.57095 0.48985
 C1336 C 0.35782 0.58257 0.49277
 C1337 C 0.39898 0.53975 0.48574
 C1338 C 0.41656 0.53177 0.48670
 C1339 C 0.43747 0.52341 0.48868
 C1340 C 0.45556 0.51699 0.49093
 H1341 H 0.39227 0.58145 0.49355
 H1342 H 0.35997 0.52162 0.47824
 H1343 H 0.32492 0.53966 0.48181
 H1344 H 0.35754 0.59958 0.49693
 C1345 C 0.13095 0.57050 0.51103
 C1346 C 0.12912 0.54832 0.51464
 C1347 C 0.14745 0.53616 0.51954
 C1348 C 0.16762 0.54619 0.52065
 C1349 C 0.16961 0.56850 0.51689
 C1350 C 0.15103 0.58053 0.51212
 C1351 C 0.10839 0.53819 0.51280
 C1352 C 0.09074 0.53036 0.51091
 C1353 C 0.06986 0.52185 0.50839
 C1354 C 0.05187 0.51501 0.50606
 H1355 H 0.11687 0.58002 0.50710
 H1356 H 0.14617 0.51896 0.52236
 H1357 H 0.18161 0.53655 0.52452
 H1358 H 0.15207 0.59765 0.50870
 C1359 C 0.64373 0.03140 0.02337
 C1360 C 0.62535 0.04249 0.01626
 C1361 C 0.62688 0.06415 0.00989
 C1362 C 0.64668 0.07473 0.01049
 C1363 C 0.66530 0.06379 0.01755
 C1364 C 0.66364 0.04199 0.02400
 C1365 C 0.60484 0.03184 0.01497
 C1366 C 0.58726 0.02382 0.01334
 C1367 C 0.56635 0.01537 0.01087
 C1368 C 0.54826 0.00887 0.00837
 H1369 H 0.64268 0.01460 0.02833
 H1370 H 0.61277 0.07283 0.00422
 H1371 H 0.64750 0.09138 0.00496
 H1372 H 0.67768 0.03321 0.02963
 C1373 C 0.64016 0.96640 0.47864
 C1374 C 0.62077 0.95527 0.48212
 C1375 C 0.62099 0.93327 0.48722
 C1376 C 0.64049 0.92250 0.48941
 C1377 C 0.66008 0.93360 0.48656
 C1378 C 0.65976 0.95559 0.48075
 C1379 C 0.60055 0.96635 0.48173
 C1380 C 0.58320 0.97484 0.48225
 C1381 C 0.56254 0.98392 0.48372
 C1382 C 0.54465 0.99104 0.48557
 H1383 H 0.64013 0.98347 0.47476
 H1384 H 0.60607 0.92451 0.48992
 H1385 H 0.64026 0.90548 0.49351
 H1386 H 0.67463 0.96453 0.47860
 C1387 C 0.12693 0.43770 0.97276
 C1388 C 0.12707 0.46021 0.97229
 C1389 C 0.14664 0.47146 0.97277
 C1390 C 0.16601 0.46019 0.97460
 C1391 C 0.16585 0.43761 0.97623
 C1392 C 0.14619 0.42646 0.97471
 C1393 C 0.10695 0.47142 0.97350
 C1394 C 0.08964 0.47981 0.97554
 C1395 C 0.06900 0.48852 0.97888
 C1396 C 0.05112 0.49515 0.98228
 H1397 H 0.11188 0.42885 0.97243
 H1398 H 0.14688 0.48890 0.97255
 H1399 H 0.18096 0.46911 0.97590
 H1400 H 0.14569 0.40905 0.97566
 C1401 C -0.01975 0.35760 0.45791
 C1402 C -0.00113 0.37021 0.45989
 C1403 C 0.01821 0.36285 0.45026
 C1404 C 0.01888 0.34319 0.43840
 C1405 C 0.00016 0.33057 0.43591
 C1406 C -0.01912 0.33793 0.44605
 C1407 C -0.00200 0.39124 0.47056
 C1408 C -0.00232 0.40922 0.47858
 C1409 C -0.00203 0.43074 0.48667
 C1410 C -0.00102 0.44948 0.49216
 H1411 H -0.03483 0.36312 0.46524
 H1412 H 0.03271 0.37252 0.45151
 H1413 H 0.03391 0.33819 0.43057
 H1414 H -0.03376 0.32849 0.44475
 C1415 C 0.51146 -0.14454 -0.03901
 C1416 C 0.49164 -0.13402 -0.03757
 C1417 C 0.47346 -0.14333 -0.04785
 C1418 C 0.47520 -0.16284 -0.05992
 C1419 C 0.49521 -0.17322 -0.06200
 C1420 C 0.51324 -0.16398 -0.05110
 C1421 C 0.49049 -0.11293 -0.02713
 C1422 C 0.49036 -0.09488 -0.01934
 C1423 C 0.49122 -0.07330 -0.01155
 C1424 C 0.49292 -0.05455 -0.00633
 H1425 H 0.52566 -0.13748 -0.03121
 H1426 H 0.45807 -0.13526 -0.04704
 H1427 H 0.46107 -0.16941 -0.06831
 H1428 H 0.52879 -0.17171 -0.05208
 C1429 C 0.01961 -0.12446 1.06016
 C1430 C 0.00839 -0.12241 1.03925
 C1431 C -0.00401 -0.13969 1.03113
 C1432 C -0.00538 -0.15882 1.04397
 C1433 C 0.00556 -0.16090 1.06521
 C1434 C 0.01823 -0.14353 1.07303
 C1435 C 0.00862 -0.10210 1.02702
 C1436 C 0.00839 -0.08463 1.01777
 C1437 C 0.00748 -0.06360 1.00836
 C1438 C 0.00597 -0.04516 1.00193
 H1439 H 0.02921 -0.11119 1.06669
 H1440 H -0.01293 -0.13826 1.01510
 H1441 H -0.01547 -0.17177 1.03757
 H1442 H 0.02711 -0.14469 1.08911
 C1443 C 0.51941 0.35790 0.53390
 C1444 C 0.51388 0.37735 0.54467
 C1445 C 0.50716 0.37728 0.56790
 C1446 C 0.50568 0.35795 0.58024
 C1447 C 0.51087 0.33826 0.56954
 C1448 C 0.51798 0.33848 0.54627
 C1449 C 0.51443 0.39747 0.53207
 C1450 C 0.51415 0.41487 0.52268
 C1451 C 0.51292 0.43588 0.51325
 C1452 C 0.51102 0.45429 0.50686
 H1453 H 0.52459 0.35771 0.51591
 H1454 H 0.50289 0.39220 0.57648
 H1455 H 0.50052 0.35843 0.59821
 H1456 H 0.52192 0.32360 0.53746
 C1457 C 0.47457 1.13755 0.55550
 C1458 C 0.48876 1.13406 0.53695
 C1459 C 0.50375 1.15006 0.53096
 C1460 C 0.50477 1.16926 0.54371
 C1461 C 0.49089 1.17268 0.56273
 C1462 C 0.47559 1.15668 0.56828
 C1463 C 0.48888 1.11350 0.52522
 C1464 C 0.48933 1.09586 0.51640
 C1465 C 0.49036 1.07466 0.50745
 C1466 C 0.49181 1.05613 0.50128
 H1467 H 0.46294 1.12529 0.56037
 H1468 H 0.51496 1.14751 0.51678
 H1469 H 0.51689 1.18111 0.53913
 H1470 H 0.46446 1.15893 0.58258
 C1471 C 0.01372 0.64239 1.05007
 C1472 C -0.00517 0.63563 1.03904
 C1473 C -0.02368 0.64829 1.04069
 C1474 C -0.02336 0.66749 1.05347
 C1475 C -0.00450 0.67430 1.06485
 C1476 C 0.01408 0.66155 1.06285
 C1477 C -0.00565 0.61519 1.02707
 C1478 C -0.00550 0.59767 1.01793
 C1479 C -0.00459 0.57663 1.00852
 C1480 C -0.00302 0.55823 1.00196
 H1481 H 0.02811 0.63266 1.04911
 H1482 H -0.03842 0.64323 1.03229
 H1483 H -0.03786 0.67704 1.05439
 H1484 H 0.02877 0.66610 1.07164
 C1485 C 0.50186 0.62316 -0.06275
 C1486 C 0.51208 0.62186 -0.04120
 C1487 C 0.52184 0.64023 -0.03178
 C1488 C 0.52141 0.65980 -0.04391
 C1489 C 0.51124 0.66119 -0.06568
 C1490 C 0.50142 0.64262 -0.07488
 C1491 C 0.51237 0.60151 -0.02912
 C1492 C 0.51191 0.58392 -0.02020
 C1493 C 0.51048 0.56273 -0.01135
 C1494 C 0.50841 0.54420 -0.00541
 H1495 H 0.49416 0.60909 -0.07019
 H1496 H 0.52984 0.63943 -0.01512
 H1497 H 0.52928 0.67374 -0.03644
 H1498 H 0.49313 0.64319 -0.09136
 C1499 C 0.00093 1.14325 0.46890
 C1500 C 0.00803 1.12452 0.45787
 C1501 C 0.01504 1.12553 0.43482
 C1502 C 0.01464 1.14500 0.42267
 C1503 C 0.00713 1.16413 0.43327
 C1504 C 0.00056 1.16285 0.45684
 C1505 C 0.00721 1.10397 0.46956
 C1506 C 0.00616 1.08627 0.47819
 C1507 C 0.00441 1.06499 0.48678
 C1508 C 0.00235 1.04641 0.49258
 H1509 H -0.00475 1.14264 0.48670
 H1510 H 0.02072 1.11116 0.42610
 H1511 H 0.02089 1.14489 0.40513
 H1512 H -0.00595 1.17661 0.46590
 C1513 C 0.79834 0.67987 0.88806
 C1514 C 0.78184 0.69040 0.87619
 C1515 C 0.76081 0.68972 0.88489
 C1516 C 0.75609 0.67818 0.90503
 C1517 C 0.77237 0.66712 0.91683
 C1518 C 0.79364 0.66833 0.90840
 C1519 C 0.78564 0.70111 0.85442
 C1520 C 0.78633 0.71008 0.83590
 C1521 C 0.78398 0.72046 0.81433
 C1522 C 0.77911 0.72914 0.79644
 H1523 H 0.81466 0.68022 0.88140
 H1524 H 0.74793 0.69783 0.87583
 H1525 H 0.73964 0.67777 0.91131
 H1526 H 0.80644 0.65983 0.91710
 C1527 C 0.29374 0.17935 0.38368
 C1528 C 0.27761 0.19047 0.37185
 C1529 C 0.25678 0.19126 0.38108
 C1530 C 0.25185 0.18055 0.40169
 C1531 C 0.26773 0.16886 0.41343
 C1532 C 0.28884 0.16865 0.40448
 C1533 C 0.28150 0.20027 0.34961
 C1534 C 0.28224 0.20862 0.33077
 C1535 C 0.27993 0.21854 0.30895
 C1536 C 0.27509 0.22711 0.29099
 H1537 H 0.30989 0.17857 0.37662
 H1538 H 0.24418 0.19984 0.37206
 H1539 H 0.23555 0.18120 0.40835
 H1540 H 0.30132 0.15963 0.41314
 C1541 C 0.73243 0.29914 0.39609
 C1542 C 0.71784 0.30673 0.37962
 C1543 C 0.70677 0.32593 0.38366
 C1544 C 0.71077 0.33782 0.40382
 C1545 C 0.72605 0.33071 0.42007
 C1546 C 0.73651 0.31101 0.41618
 C1547 C 0.71634 0.29597 0.35759
 C1548 C 0.71714 0.28697 0.33910
 C1549 C 0.72070 0.27644 0.31778
 C1550 C 0.72617 0.26750 0.30021
 H1551 H 0.74129 0.28442 0.39297
 H1552 H 0.69555 0.33202 0.37093
 H1553 H 0.70220 0.35275 0.40650
 H1554 H 0.74855 0.30522 0.42815
 C1555 C 0.20389 0.82363 0.88845
 C1556 C 0.21633 0.80548 0.88352
 C1557 C 0.23155 0.79839 0.89959
 C1558 C 0.23495 0.80984 0.92013
 C1559 C 0.22316 0.82862 0.92484
 C1560 C 0.20721 0.83509 0.90904
 C1561 C 0.21550 0.79551 0.86103
 C1562 C 0.21681 0.78729 0.84215
 C1563 C 0.22089 0.77773 0.82041
 C1564 C 0.22673 0.76957 0.80253
 H1565 H 0.19215 0.82933 0.87607
 H1566 H 0.24144 0.78450 0.89581
 H1567 H 0.24751 0.80458 0.93174
 H1568 H 0.19763 0.84929 0.91236
 C1569 C 0.27132 0.83865 0.13934
 C1570 C 0.27967 0.81786 0.13834
 C1571 C 0.28523 0.80891 0.11689
 C1572 C 0.28172 0.82044 0.09639
 C1573 C 0.27217 0.84106 0.09694
 C1574 C 0.26766 0.85017 0.11896
 C1575 C 0.27981 0.80498 0.15906
 C1576 C 0.27795 0.79443 0.17650
 C1577 C 0.27337 0.78248 0.19671
 C1578 C 0.26736 0.77269 0.21358
 H1579 H 0.26701 0.84577 0.15589
 H1580 H 0.29144 0.79266 0.11591
 H1581 H 0.28517 0.81235 0.08018
 H1582 H 0.26145 0.86633 0.12073
 C1583 C 0.75739 0.32437 0.62900
 C1584 C 0.77711 0.31433 0.63252
 C1585 C 0.79341 0.31632 0.61588
 C1586 C 0.78991 0.32832 0.59566
 C1587 C 0.76996 0.33861 0.59173
 C1588 C 0.75378 0.33629 0.60894
 C1589 C 0.77970 0.30141 0.65299
 C1590 C 0.77949 0.29076 0.67045
 C1591 C 0.77635 0.27868 0.69086
 C1592 C 0.77117 0.26881 0.70798
 H1593 H 0.74452 0.32264 0.64164
 H1594 H 0.80880 0.30859 0.61850
 H1595 H 0.80321 0.32996 0.58364
 H1596 H 0.73781 0.34275 0.60673
 C1597 C 0.20804 0.19565 0.60756
 C1598 C 0.21470 0.18701 0.62877
 C1599 C 0.22432 0.16672 0.62939
 C1600 C 0.22776 0.15528 0.60887
 C1601 C 0.22162 0.16399 0.58736
 C1602 C 0.21142 0.18418 0.58696
 C1603 C 0.21404 0.19974 0.64960
 C1604 C 0.21536 0.21016 0.66716
 C1605 C 0.21930 0.22200 0.68757
 C1606 C 0.22488 0.23169 0.70462
 H1607 H 0.20077 0.21145 0.60688
 H1608 H 0.22983 0.16004 0.64569
 H1609 H 0.23595 0.13996 0.60978
 H1610 H 0.20625 0.19119 0.57071
 C1611 C 0.71270 0.69523 0.10698
 C1612 C 0.71486 0.68548 0.12868
 C1613 C 0.72062 0.66383 0.13007
 C1614 C 0.72484 0.65208 0.10991
 C1615 C 0.72354 0.66180 0.08771
 C1616 C 0.71689 0.68356 0.08671
 C1617 C 0.71391 0.69818 0.14951
 C1618 C 0.71496 0.70866 0.16706
 C1619 C 0.71857 0.72063 0.18745
 C1620 C 0.72387 0.73049 0.20449
 H1621 H 0.70828 0.71204 0.10572
 H1622 H 0.72273 0.65622 0.14684
 H1623 H 0.73049 0.63580 0.11217
 H1624 H 0.71455 0.69174 0.07036
 C1625 C 0.21205 0.60602 0.24938
 C1626 C 0.20143 0.62310 0.23861
 C1627 C 0.18200 0.61943 0.22711
 C1628 C 0.17299 0.59880 0.22669
 C1629 C 0.18332 0.58157 0.23783
 C1630 C 0.20306 0.58535 0.24899
 C1631 C 0.20988 0.64460 0.24024
 C1632 C 0.21652 0.66276 0.24197
 C1633 C 0.22387 0.68411 0.24440
 C1634 C 0.22987 0.70240 0.24683
 H1635 H 0.22710 0.60872 0.25835
 H1636 H 0.17359 0.63259 0.21885
 H1637 H 0.15762 0.59649 0.21828
 H1638 H 0.21148 0.57235 0.25751
 C1639 C 0.67921 0.11954 0.73462
 C1640 C 0.70152 0.12113 0.73268
 C1641 C 0.71377 0.10255 0.72958
 C1642 C 0.70372 0.08235 0.72872
 C1643 C 0.68111 0.08033 0.73095
 C1644 C 0.66910 0.09948 0.73378
 C1645 C 0.71163 0.14191 0.73459
 C1646 C 0.71931 0.15964 0.73663
 C1647 C 0.72753 0.18065 0.73942
 C1648 C 0.73404 0.19876 0.74205
 H1649 H 0.66959 0.13385 0.73727
 H1650 H 0.73110 0.10364 0.72790
 H1651 H 0.71384 0.06852 0.72567
 H1652 H 0.65191 0.09923 0.73662
 C1653 C 0.78762 0.10275 0.27526
 C1654 C 0.79927 0.12210 0.27497
 C1655 C 0.82172 0.12175 0.27353
 C1656 C 0.83247 0.10220 0.27142
 C1657 C 0.82089 0.08272 0.27069
 C1658 C 0.79840 0.08309 0.27325
 C1659 C 0.78842 0.14244 0.27416
 C1660 C 0.78018 0.15986 0.27252
 C1661 C 0.77144 0.18057 0.26976
 C1662 C 0.76463 0.19847 0.26695
 H1663 H 0.77021 0.10288 0.27626
 H1664 H 0.83087 0.13664 0.27328
 H1665 H 0.84983 0.10231 0.26975
 H1666 H 0.78913 0.06830 0.27257
 C1667 C 0.28878 0.60613 0.77577
 C1668 C 0.30077 0.62527 0.77514
 C1669 C 0.32320 0.62449 0.77371
 C1670 C 0.33362 0.60471 0.77206
 C1671 C 0.32171 0.58541 0.77178
 C1672 C 0.29922 0.58625 0.77420
 C1673 C 0.29024 0.64581 0.77429
 C1674 C 0.28216 0.66332 0.77277
 C1675 C 0.27345 0.68409 0.77030
 C1676 C 0.26654 0.70201 0.76783
 H1677 H 0.27139 0.60658 0.77679
 H1678 H 0.33263 0.63921 0.77323
 H1679 H 0.35099 0.60450 0.77052
 H1680 H 0.28968 0.57162 0.77386
 C1681 C 0.28388 0.39705 0.74317
 C1682 C 0.29249 0.38028 0.72997
 C1683 C 0.31084 0.38388 0.71645
 C1684 C 0.32107 0.40393 0.71677
 C1685 C 0.31325 0.42089 0.73082
 C1686 C 0.29402 0.41718 0.74353
 C1687 C 0.28342 0.35900 0.73148
 C1688 C 0.27643 0.34096 0.73324
 C1689 C 0.26880 0.31969 0.73578
 C1690 C 0.26259 0.30145 0.73828
 H1691 H 0.26971 0.39436 0.75383
 H1692 H 0.31750 0.37104 0.70595
 H1693 H 0.33499 0.40599 0.70566
 H1694 H 0.28739 0.42918 0.75508
 C1695 C 0.81540 0.87941 0.23770
 C1696 C 0.79403 0.87805 0.23046
 C1697 C 0.78345 0.89650 0.22260
 C1698 C 0.79426 0.91633 0.22216
 C1699 C 0.81577 0.91782 0.22955
 C1700 C 0.82619 0.89912 0.23729
 C1701 C 0.78314 0.85764 0.23167
 C1702 C 0.77497 0.84010 0.23332
 C1703 C 0.76644 0.81919 0.23583
 C1704 C 0.75992 0.80108 0.23834
 H1705 H 0.82368 0.86524 0.24395
 H1706 H 0.76688 0.89558 0.21695
 H1707 H 0.78587 0.93043 0.21599
 H1708 H 0.84257 0.89979 0.24357
 C1709 C 0.71218 0.89158 0.77104
 C1710 C 0.70319 0.87253 0.76243
 C1711 C 0.68305 0.87293 0.75192
 C1712 C 0.67206 0.89228 0.74948
 C1713 C 0.68103 0.91193 0.75744
 C1714 C 0.70118 0.91110 0.76872
 C1715 C 0.71460 0.85248 0.76354
 C1716 C 0.72329 0.83520 0.76345
 C1717 C 0.73255 0.81456 0.76234
 C1718 C 0.73979 0.79668 0.76072
 H1719 H 0.72786 0.89144 0.77916
 H1720 H 0.67581 0.85820 0.74546
 H1721 H 0.65621 0.89147 0.74189
 H1722 H 0.70913 0.92554 0.77479
 C1723 C 0.18826 0.37773 0.27531
 C1724 C 0.20690 0.37430 0.26215
 C1725 C 0.21540 0.39093 0.24847
 C1726 C 0.20497 0.41079 0.24748
 C1727 C 0.18585 0.41415 0.26009
 C1728 C 0.17780 0.39753 0.27432
 C1729 C 0.21635 0.35327 0.26147
 C1730 C 0.22363 0.33539 0.26038
 C1731 C 0.23149 0.31425 0.25854
 C1732 C 0.23774 0.29605 0.25651
 H1733 H 0.18155 0.36493 0.28592
 H1734 H 0.22974 0.38836 0.23810
 H1735 H 0.21139 0.42321 0.23619
 H1736 H 0.16326 0.39978 0.28444
 C1737 C 0.11755 0.23431 0.81018
 C1738 C 0.12013 0.24509 0.78900
 C1739 C 0.10303 0.25705 0.78001
 C1740 C 0.08355 0.25837 0.79225
 C1741 C 0.08090 0.24779 0.81371
 C1742 C 0.09812 0.23562 0.82243
 C1743 C 0.14075 0.24486 0.77737
 C1744 C 0.15847 0.24504 0.76867
 C1745 C 0.17976 0.24588 0.75991
 C1746 C 0.19836 0.24731 0.75397
 H1747 H 0.13071 0.22519 0.81746
 H1748 H 0.10484 0.26555 0.76368
 H1749 H 0.07056 0.26765 0.78489
 H1750 H 0.09680 0.22755 0.83905
 C1751 C 0.61451 0.72747 0.30664
 C1752 C 0.61818 0.74096 0.28754
 C1753 C 0.60209 0.75525 0.28056
 C1754 C 0.58262 0.75633 0.29286
 C1755 C 0.57902 0.74320 0.31245
 C1756 C 0.59511 0.72854 0.31898
 C1757 C 0.63901 0.74119 0.27632
 C1758 C 0.65687 0.74184 0.26795
 C1759 C 0.67826 0.74328 0.25952
 C1760 C 0.69688 0.74525 0.25380
 H1761 H 0.62683 0.71638 0.31229
 H1762 H 0.60478 0.76592 0.26594
 H1763 H 0.57069 0.76793 0.28752
 H1764 H 0.59274 0.71799 0.33374
 C1765 C 0.60592 0.24226 0.22121
 C1766 C 0.62311 0.25518 0.21370
 C1767 C 0.62107 0.26728 0.19332
 C1768 C 0.60216 0.26620 0.18031
 C1769 C 0.58493 0.25295 0.18745
 C1770 C 0.58693 0.24119 0.20823
 C1771 C 0.64338 0.25502 0.22586
 C1772 C 0.66085 0.25454 0.23495
 C1773 C 0.68190 0.25344 0.24412
 C1774 C 0.70035 0.25190 0.25035
 H1775 H 0.60734 0.23267 0.23684
 H1776 H 0.63427 0.27730 0.18726
 H1777 H 0.60104 0.27570 0.16460
 H1778 H 0.57407 0.23067 0.21409
 C1779 C 0.12378 0.74232 0.69373
 C1780 C 0.12501 0.75523 0.71362
 C1781 C 0.10713 0.76737 0.72044
 C1782 C 0.08818 0.76669 0.70733
 C1783 C 0.08692 0.75392 0.68715
 C1784 C 0.10493 0.74165 0.68062
 C1785 C 0.14491 0.75616 0.72642
 C1786 C 0.16217 0.75635 0.73597
 C1787 C 0.18308 0.75582 0.74556
 C1788 C 0.20148 0.75464 0.75204
 H1789 H 0.13747 0.73281 0.68828
 H1790 H 0.10789 0.77749 0.73574
 H1791 H 0.07468 0.77647 0.71272
 H1792 H 0.10440 0.73137 0.66544
 C1793 C 0.89914 0.75598 0.71650
 C1794 C 0.88358 0.74039 0.71145
 C1795 C 0.88765 0.72521 0.69410
 C1796 C 0.90700 0.72573 0.68162
 C1797 C 0.92289 0.74163 0.68611
 C1798 C 0.91855 0.75661 0.70406
 C1799 C 0.86288 0.74076 0.72292
 C1800 C 0.84514 0.74134 0.73153
 C1801 C 0.82386 0.74247 0.74024
 C1802 C 0.80527 0.74395 0.74618
 H1803 H 0.89622 0.76782 0.72995
 H1804 H 0.87559 0.71321 0.68979
 H1805 H 0.90871 0.71422 0.66766
 H1806 H 0.93021 0.76863 0.70914
 C1807 C 0.38638 0.25845 0.19469
 C1808 C 0.37992 0.23992 0.20673
 C1809 C 0.39350 0.22201 0.20720
 C1810 C 0.41334 0.22257 0.19554
 C1811 C 0.41987 0.24109 0.18319
 C1812 C 0.40616 0.25906 0.18303
 C1813 C 0.35899 0.23920 0.21770
 C1814 C 0.34111 0.23922 0.22604
 C1815 C 0.31974 0.24006 0.23459
 C1816 C 0.30116 0.24158 0.24054
 H1817 H 0.37596 0.27238 0.19403
 H1818 H 0.38870 0.20754 0.21641
 H1819 H 0.42359 0.20855 0.19626
 H1820 H 0.41047 0.27344 0.17343
 C1821 C 0.39047 0.76678 0.28496
 C1822 C 0.37146 0.76177 0.29701
 C1823 C 0.37243 0.75616 0.32051
 C1824 C 0.39222 0.75524 0.33186
 C1825 C 0.41147 0.75991 0.31988
 C1826 C 0.41036 0.76591 0.29633
 C1827 C 0.35087 0.76175 0.28548
 C1828 C 0.33315 0.76108 0.27698
 C1829 C 0.31186 0.75950 0.26851
 C1830 C 0.29330 0.75746 0.26276
 H1831 H 0.38995 0.77110 0.26674
 H1832 H 0.35786 0.75232 0.33007
 H1833 H 0.39245 0.75094 0.35008
 H1834 H 0.42488 0.76944 0.28658
 C1835 C 0.87968 0.27515 0.80721
 C1836 C 0.87706 0.26159 0.78800
 C1837 C 0.89419 0.24865 0.78066
 C1838 C 0.91367 0.24893 0.79279
 C1839 C 0.91621 0.26206 0.81253
 C1840 C 0.89909 0.27541 0.81937
 C1841 C 0.85629 0.25990 0.77708
 C1842 C 0.83842 0.25821 0.76913
 C1843 C 0.81700 0.25585 0.76135
 C1844 C 0.79835 0.25345 0.75624
 H1845 H 0.86655 0.28520 0.81311
 H1846 H 0.89231 0.23796 0.76594
 H1847 H 0.92646 0.23832 0.78722
 H1848 H 0.90063 0.28592 0.83428
 C1849 C 0.57385 0.96203 0.61825
 C1850 C 0.55399 0.97200 0.61487
 C1851 C 0.54497 0.98449 0.63263
 C1852 C 0.55606 0.98758 0.65342
 C1853 C 0.57639 0.97828 0.65667
 C1854 C 0.58495 0.96508 0.63904
 C1855 C 0.54399 0.97161 0.59243
 C1856 C 0.53577 0.97309 0.57361
 C1857 C 0.52624 0.97721 0.55193
 C1858 C 0.51814 0.98304 0.53408
 H1859 H 0.58104 0.95246 0.60456
 H1860 H 0.52972 0.99250 0.63007
 H1861 H 0.54914 0.99800 0.66653
 H1862 H 0.60042 0.95740 0.64119
 C1863 C 0.05522 0.47098 1.13148
 C1864 C 0.06715 0.47207 1.11095
 C1865 C 0.08936 0.47496 1.11192
 C1866 C 0.09962 0.47739 1.13329
 C1867 C 0.08785 0.47717 1.15453
 C1868 C 0.06534 0.47339 1.15296
 C1869 C 0.05641 0.47279 1.08891
 C1870 C 0.04742 0.47507 1.07060
 C1871 C 0.03684 0.47987 1.04967
 C1872 C 0.02771 0.48598 1.03253
 H1873 H 0.03794 0.46869 1.13091
 H1874 H 0.09873 0.47623 1.09605
 H1875 H 0.11660 0.48101 1.13245
 H1876 H 0.05521 0.47167 1.16812
 C1877 C -0.04752 0.02351 1.13459
 C1878 C -0.05840 0.03402 1.11674
 C1879 C -0.07965 0.04044 1.12009
 C1880 C -0.09027 0.03573 1.14092
 C1881 C -0.07989 0.02422 1.15888
 C1882 C -0.05803 0.01874 1.15547
 C1883 C -0.04858 0.03570 1.09417
 C1884 C -0.04039 0.03518 1.07520
 C1885 C -0.03075 0.03199 1.05330
 C1886 C -0.02242 0.02680 1.03527
 H1887 H -0.03111 0.01816 1.13201
 H1888 H -0.08823 0.04863 1.10636
 H1889 H -0.10657 0.04145 1.14280
 H1890 H -0.04922 0.00948 1.16810
 C1891 C 0.42504 0.54188 0.62686
 C1892 C 0.44409 0.53102 0.62156
 C1893 C 0.45259 0.51630 0.63744
 C1894 C 0.44180 0.51198 0.65826
 C1895 C 0.42229 0.52230 0.66345
 C1896 C 0.41423 0.53762 0.64772
 C1897 C 0.45387 0.53310 0.59900
 C1898 C 0.46214 0.53296 0.58005
 C1899 C 0.47199 0.53025 0.55818
 C1900 C 0.48061 0.52544 0.54018
 H1901 H 0.41826 0.55321 0.61464
 H1902 H 0.46720 0.50762 0.63337
 H1903 H 0.44829 0.49995 0.66984
 H1904 H 0.39942 0.54609 0.65141
 C1905 C 0.41745 0.46147 -0.12232
 C1906 C 0.43901 0.46740 -0.11947
 C1907 C 0.45023 0.47714 -0.13783
 C1908 C 0.43984 0.48138 -0.15879
 C1909 C 0.41804 0.47594 -0.16165
 C1910 C 0.40703 0.46564 -0.14330
 C1911 C 0.44907 0.46567 -0.09711
 C1912 C 0.45769 0.46596 -0.07842
 C1913 C 0.46800 0.46869 -0.05687
 C1914 C 0.47697 0.47341 -0.03909
 H1915 H 0.40853 0.45420 -0.10811
 H1916 H 0.46688 0.48197 -0.13575
 H1917 H 0.44880 0.48906 -0.17269
 H1918 H 0.39016 0.46150 -0.14488
 C1919 C -0.08358 0.96073 0.37325
 C1920 C -0.06231 0.96723 0.37701
 C1921 C -0.05064 0.97717 0.35910
 C1922 C -0.06033 0.98106 0.33767
 C1923 C -0.08186 0.97507 0.33389
 C1924 C -0.09329 0.96456 0.35180
 C1925 C -0.05312 0.96592 0.39982
 C1926 C -0.04524 0.96658 0.41888
 C1927 C -0.03575 0.96975 0.44079
 C1928 C -0.02736 0.97481 0.45878
 H1929 H -0.09285 0.95331 0.38710
 H1930 H -0.03422 0.98243 0.36190
 H1931 H -0.05107 0.98894 0.32413
 H1932 H -0.10998 0.96001 0.34953
 C1933 C 0.06976 0.54221 0.36214
 C1934 C 0.05846 0.52587 0.37375
 C1935 C 0.05651 0.50549 0.36359
 C1936 C 0.06636 0.50118 0.34231
 C1937 C 0.07831 0.51723 0.33082
 C1938 C 0.07957 0.53795 0.34067
 C1939 C 0.04981 0.52901 0.39670
 C1940 C 0.04244 0.52928 0.41608
 C1941 C 0.03357 0.52664 0.43847
 C1942 C 0.02574 0.52169 0.45688
 H1943 H 0.07143 0.55802 0.36990
 H1944 H 0.04779 0.49273 0.37242
 H1945 H 0.06493 0.48518 0.33499
 H1946 H 0.08884 0.55054 0.33223
 C1947 C 0.57373 -0.00141 -0.12672
 C1948 C 0.56423 0.01840 -0.12151
 C1949 C 0.56451 0.03494 -0.13800
 C1950 C 0.57431 0.03164 -0.15964
 C1951 C 0.58385 0.01172 -0.16504
 C1952 C 0.58347 -0.00475 -0.14831
 C1953 C 0.55357 0.02110 -0.09948
 C1954 C 0.54450 0.02162 -0.08096
 C1955 C 0.53370 0.01975 -0.05947
 C1956 C 0.52438 0.01564 -0.04164
 H1957 H 0.57355 -0.01434 -0.11409
 H1958 H 0.55705 0.05028 -0.13422
 H1959 H 0.57417 0.04456 -0.17227
 H1960 H 0.59096 -0.02013 -0.15178
 C1961 C 0.63078 0.55469 -0.02845
 C1962 C 0.62663 0.53745 -0.01345
 C1963 C 0.64283 0.52993 0.00122
 C1964 C 0.66295 0.54006 0.00139
 C1965 C 0.66701 0.55790 -0.01305
 C1966 C 0.65085 0.56485 -0.02829
 C1967 C 0.60530 0.52857 -0.01193
 C1968 C 0.58719 0.52181 -0.01021
 C1969 C 0.56582 0.51456 -0.00772
 C1970 C 0.54747 0.50878 -0.00524
 H1971 H 0.61832 0.56064 -0.03985
 H1972 H 0.63971 0.51667 0.01300
 H1973 H 0.67500 0.53452 0.01348
 H1974 H 0.65363 0.57838 -0.03979
 C1975 C 0.13723 1.03348 0.49861
 C1976 C 0.12085 1.04136 0.48442
 C1977 C 0.12478 1.05899 0.46989
 C1978 C 0.14487 1.06914 0.47002
 C1979 C 0.16124 1.06178 0.48477
 C1980 C 0.15736 1.04359 0.49875
 C1981 C 0.09958 1.03237 0.48594
 C1982 C 0.08154 1.02544 0.48768
 C1983 C 0.06029 1.01790 0.49021
 C1984 C 0.04204 1.01182 0.49272
 H1985 H 0.13427 1.01991 0.51002
 H1986 H 0.11218 1.06522 0.45886
 H1987 H 0.14750 1.08295 0.45887
 H1988 H 0.16958 1.03773 0.51047
 C1989 C 0.12484 -0.06523 1.00518
 C1990 C 0.12339 -0.04309 1.00882
 C1991 C 0.14188 -0.03116 1.01392
 C1992 C 0.16184 -0.04137 1.01529
 C1993 C 0.16369 -0.06384 1.01163
 C1994 C 0.14466 -0.07550 1.00654
 C1995 C 0.10282 -0.03287 1.00694
 C1996 C 0.08520 -0.02517 1.00502
 C1997 C 0.06426 -0.01704 1.00247
 C1998 C 0.04617 -0.01068 1.00010
 H1999 H 0.11062 -0.07457 1.00095
 H2000 H 0.14086 -0.01397 1.01690
 H2001 H 0.17557 -0.03159 1.01999
 H2002 H 0.14491 -0.09248 1.00245
 C2003 C 0.63215 0.44214 0.52593
 C2004 C 0.62926 0.46120 0.51356
 C2005 C 0.64658 0.47051 0.50165
 C2006 C 0.66663 0.46042 0.50149
 C2007 C 0.66964 0.44055 0.51304
 C2008 C 0.65207 0.43195 0.52577
 C2009 C 0.60814 0.47027 0.51195
 C2010 C 0.59012 0.47703 0.51028
 C2011 C 0.56880 0.48415 0.50795
 C2012 C 0.55046 0.48979 0.50566
 H2013 H 0.61887 0.43492 0.53542
 H2014 H 0.64442 0.48525 0.49188
 H2015 H 0.67920 0.46765 0.49102
 H2016 H 0.65359 0.41746 0.53603
 C2017 C -0.12461 0.43255 0.47877
 C2018 C -0.12110 0.45361 0.48651
 C2019 C -0.13842 0.46604 0.49424
 C2020 C -0.15916 0.45728 0.49467
 C2021 C -0.16279 0.43595 0.48739
 C2022 C -0.14532 0.42376 0.47918
 C2023 C -0.09958 0.46205 0.48756
 C2024 C -0.08146 0.46883 0.48890
 C2025 C -0.06021 0.47651 0.49093
 C2026 C -0.04204 0.48293 0.49298
 H2027 H -0.11127 0.42276 0.47289
 H2028 H -0.13585 0.48237 0.50027
 H2029 H -0.17234 0.46712 0.50084
 H2030 H -0.14753 0.40719 0.47380
 C2031 C 0.37014 -0.06817 -0.02082
 C2032 C 0.37387 -0.04703 -0.01346
 C2033 C 0.35672 -0.03444 -0.00556
 C2034 C 0.33595 -0.04313 -0.00455
 C2035 C 0.33213 -0.06455 -0.01141
 C2036 C 0.34942 -0.07689 -0.01982
 C2037 C 0.39547 -0.03879 -0.01275
 C2038 C 0.41372 -0.03233 -0.01158
 C2039 C 0.43516 -0.02521 -0.00959
 C2040 C 0.45352 -0.01939 -0.00738
 H2041 H 0.38334 -0.07810 -0.02679
 H2042 H 0.35947 -0.01806 0.00021
 H2043 H 0.32293 -0.03318 0.00178
 H2044 H 0.34708 -0.09353 -0.02486
 C2045 C 0.35439 1.03765 0.49741
 C2046 C 0.37122 1.04932 0.50753
 C2047 C 0.36706 1.06898 0.51845
 C2048 C 0.34619 1.07720 0.51887
 C2049 C 0.32922 1.06583 0.50831
 C2050 C 0.33349 1.04584 0.49780
 C2051 C 0.39291 1.04162 0.50583
 C2052 C 0.41116 1.03546 0.50404
 C2053 C 0.43254 1.02844 0.50160
 C2054 C 0.45080 1.02246 0.49928
 H2055 H 0.35747 1.02240 0.48891
 H2056 H 0.38001 1.07818 0.52622
 H2057 H 0.34349 1.09278 0.52676
 H2058 H 0.32071 1.03664 0.48974
 C2059 C -0.12740 0.56786 1.02312
 C2060 C -0.12293 0.54811 1.01254
 C2061 C -0.13960 0.53602 1.00267
 C2062 C -0.16061 0.54391 1.00289
 C2063 C -0.16518 0.56402 1.01298
 C2064 C -0.14838 0.57578 1.02338
 C2065 C -0.10109 0.54085 1.01066
 C2066 C -0.08273 0.53509 1.00852
 C2067 C -0.06124 0.52859 1.00541
 C2068 C -0.04292 0.52314 1.00229
 H2069 H -0.11457 0.57740 1.03068
 H2070 H -0.13628 0.52071 0.99441
 H2071 H -0.17325 0.53441 0.99497
 H2072 H -0.15131 0.59145 1.03096
 C2073 C 0.00949 0.64520 0.53160
 C2074 C 0.01403 0.62595 0.54320
 C2075 C 0.01789 0.62629 0.56713
 C2076 C 0.01710 0.64567 0.57945
 C2077 C 0.01243 0.66513 0.56803
 C2078 C 0.00870 0.66466 0.54392
 C2079 C 0.01395 0.60561 0.53103
 C2080 C 0.01354 0.58805 0.52200
 C2081 C 0.01254 0.56686 0.51301
 C2082 C 0.01109 0.54829 0.50702
 H2083 H 0.00642 0.64516 0.51310
 H2084 H 0.02124 0.61149 0.57636
 H2085 H 0.01968 0.64533 0.59802
 H2086 H 0.00530 0.67936 0.53455
 C2087 C 0.51680 0.12213 0.06721
 C2088 C 0.51285 0.12163 0.04331
 C2089 C 0.50820 0.14081 0.03160
 C2090 C 0.50739 0.16034 0.04379
 C2091 C 0.51120 0.16096 0.06789
 C2092 C 0.51599 0.14159 0.07941
 C2093 C 0.51269 0.10121 0.03127
 C2094 C 0.51213 0.08361 0.02234
 C2095 C 0.51082 0.06239 0.01344
 C2096 C 0.50896 0.04381 0.00753
 H2097 H 0.52022 0.10739 0.07653
 H2098 H 0.50505 0.14065 0.01312
 H2099 H 0.50390 0.17497 0.03433
 H2100 H 0.51864 0.14136 0.09797
 C2101 C -0.01472 0.13306 0.92802
 C2102 C -0.01106 0.13179 0.95194
 C2103 C -0.00668 0.15061 0.96451
 C2104 C -0.00591 0.17058 0.95317
 C2105 C -0.00950 0.17198 0.92908
 C2106 C -0.01394 0.15294 0.91668
 C2107 C -0.01104 0.11097 0.96310
 C2108 C -0.01068 0.09308 0.97132
 C2109 C -0.00966 0.07164 0.97952
 C2110 C -0.00811 0.05297 0.98510
 H2111 H -0.01792 0.11861 0.91805
 H2112 H -0.00375 0.14984 0.98302
 H2113 H -0.00264 0.18492 0.96327
 H2114 H -0.01638 0.15333 0.89809
 C2115 C 0.50346 0.64777 0.46485
 C2116 C 0.49069 0.63078 0.45664
 C2117 C 0.47854 0.63360 0.43648
 C2118 C 0.47942 0.65309 0.42435
 C2119 C 0.49253 0.67013 0.43217
 C2120 C 0.50433 0.66735 0.45276
 C2121 C 0.49106 0.60999 0.46784
 C2122 C 0.49174 0.59215 0.47615
 C2123 C 0.49313 0.57076 0.48449
 C2124 C 0.49502 0.55216 0.49018
 H2125 H 0.51309 0.64575 0.48033
 H2126 H 0.46864 0.62058 0.42989
 H2127 H 0.46987 0.65481 0.40879
 H2128 H 0.51472 0.68006 0.45912
 C2129 C 0.48423 0.87016 0.44347
 C2130 C 0.50376 0.87817 0.45197
 C2131 C 0.52246 0.86591 0.44944
 C2132 C 0.52169 0.84589 0.43824
 C2133 C 0.50217 0.83783 0.42934
 C2134 C 0.48341 0.85017 0.43228
 C2135 C 0.50465 0.89940 0.46221
 C2136 C 0.50492 0.91747 0.47000
 C2137 C 0.50457 0.93902 0.47803
 C2138 C 0.50354 0.95773 0.48367
 H2139 H 0.46966 0.87955 0.44514
 H2140 H 0.53769 0.87191 0.45589
 H2141 H 0.53637 0.83671 0.43656
 H2142 H 0.46819 0.84466 0.42536
 C2143 C 0.03030 0.37125 0.94199
 C2144 C 0.01235 0.38046 0.95284
 C2145 C -0.00730 0.36936 0.95285
 C2146 C -0.00915 0.34946 0.94166
 C2147 C 0.00864 0.34030 0.93019
 C2148 C 0.02850 0.35128 0.93080
 C2149 C 0.01352 0.40185 0.96262
 C2150 C 0.01369 0.42004 0.97008
 C2151 C 0.01292 0.44167 0.97782
 C2152 C 0.01138 0.46037 0.98333
 H2153 H 0.04557 0.37973 0.94170
 H2154 H -0.02133 0.37630 0.96113
 H2155 H -0.02458 0.34129 0.94181
 H2156 H 0.04244 0.34479 0.92196
 C2157 C 0.50991 0.35562 0.04186
 C2158 C 0.49042 0.36682 0.04221
 C2159 C 0.47270 0.35805 0.05404
 C2160 C 0.47457 0.33840 0.06580
 C2161 C 0.49427 0.32729 0.06602
 C2162 C 0.51182 0.33602 0.05363
 C2163 C 0.48922 0.38797 0.03187
 C2164 C 0.48901 0.40602 0.02404
 C2165 C 0.48979 0.42756 0.01604
 C2166 C 0.49146 0.44626 0.01051
 H2167 H 0.52377 0.36224 0.03284
 H2168 H 0.45758 0.36664 0.05463
 H2169 H 0.46082 0.33227 0.07537
 H2170 H 0.52711 0.32775 0.05316
 C2171 C 0.00787 0.85819 0.54108
 C2172 C -0.01167 0.86929 0.54184
 C2173 C -0.02895 0.86072 0.55456
 C2174 C -0.02660 0.84136 0.56677
 C2175 C -0.00685 0.83035 0.56653
 C2176 C 0.01027 0.83888 0.55329
 C2177 C -0.01334 0.89018 0.53100
 C2178 C -0.01398 0.90806 0.52277
 C2179 C -0.01372 0.92947 0.51437
 C2180 C -0.01250 0.94813 0.50859
 H2181 H 0.02140 0.86467 0.53139
 H2182 H -0.04409 0.86924 0.55548
 H2183 H -0.04001 0.83539 0.57699
 H2184 H 0.02558 0.83067 0.55247
 C2185 C 0.21046 0.30589 0.11062
 C2186 C 0.21965 0.31349 0.13121
 C2187 C 0.23200 0.33235 0.13100
 C2188 C 0.23547 0.34345 0.11027
 C2189 C 0.22658 0.33586 0.08938
 C2190 C 0.21385 0.31705 0.08979
 C2191 C 0.21847 0.30111 0.15224
 C2192 C 0.21952 0.29109 0.17007
 C2193 C 0.22334 0.27981 0.19081
 C2194 C 0.22897 0.27056 0.20808
 H2195 H 0.20105 0.29116 0.11058
 H2196 H 0.23947 0.33818 0.14678
 H2197 H 0.24567 0.35762 0.11052
 H2198 H 0.20660 0.31094 0.07404
 C2199 C 0.73062 0.79632 0.61314
 C2200 C 0.71952 0.80589 0.63163
 C2201 C 0.71038 0.82624 0.62884
 C2202 C 0.71293 0.83730 0.60786
 C2203 C 0.72480 0.82817 0.58948
 C2204 C 0.73321 0.80735 0.59217
 C2205 C 0.71984 0.79588 0.65412
 C2206 C 0.72187 0.78767 0.67291
 C2207 C 0.72649 0.77817 0.69451
 C2208 C 0.73253 0.77011 0.71230
 H2209 H 0.73799 0.78067 0.61524
 H2210 H 0.70189 0.83385 0.64309
 H2211 H 0.70597 0.85316 0.60617
 H2212 H 0.74261 0.79999 0.57845
 C2213 C 0.27226 0.70317 0.61972
 C2214 C 0.28352 0.69273 0.63741
 C2215 C 0.29127 0.67189 0.63385
 C2216 C 0.28721 0.66127 0.61292
 C2217 C 0.27520 0.67133 0.59535
 C2218 C 0.26816 0.69257 0.59878
 C2219 C 0.28464 0.70245 0.66003
 C2220 C 0.28364 0.71054 0.67899
 C2221 C 0.27993 0.72003 0.70084
 C2222 C 0.27433 0.72817 0.71882
 H2223 H 0.26594 0.71920 0.62243
 H2224 H 0.29984 0.66361 0.64751
 H2225 H 0.29316 0.64505 0.61062
 H2226 H 0.25870 0.70067 0.58571
 C2227 C 0.76989 0.19970 0.11782
 C2228 C 0.78042 0.18853 0.13553
 C2229 C 0.78692 0.16727 0.13191
 C2230 C 0.78230 0.15698 0.11093
 C2231 C 0.77096 0.16780 0.09336
 C2232 C 0.76523 0.18944 0.09682
 C2233 C 0.78195 0.19800 0.15822
 C2234 C 0.78128 0.20594 0.17728
 C2235 C 0.77791 0.21537 0.19922
 C2236 C 0.77257 0.22363 0.21723
 H2237 H 0.76452 0.21608 0.12057
 H2238 H 0.79492 0.15843 0.14557
 H2239 H 0.78726 0.14043 0.10859
 H2240 H 0.75634 0.19812 0.08373
 C2241 C 0.73390 0.19676 0.89078
 C2242 C 0.72246 0.18622 0.87320
 C2243 C 0.71449 0.16542 0.87697
 C2244 C 0.71813 0.15509 0.89815
 C2245 C 0.72991 0.16543 0.91580
 C2246 C 0.73760 0.18645 0.91195
 C2247 C 0.72065 0.19613 0.85072
 C2248 C 0.72072 0.20458 0.83189
 C2249 C 0.72312 0.21467 0.81011
 C2250 C 0.72757 0.22346 0.79208
 H2251 H 0.74030 0.21281 0.88796
 H2252 H 0.70587 0.15700 0.86337
 H2253 H 0.71225 0.13880 0.90048
 H2254 H 0.74649 0.19491 0.92529
 C2255 C 0.20603 0.67883 0.38950
 C2256 C 0.22146 0.69145 0.37804
 C2257 C 0.24176 0.69449 0.38796
 C2258 C 0.24683 0.68466 0.40899
 C2259 C 0.23163 0.67161 0.42046
 C2260 C 0.21106 0.66900 0.41067
 C2261 C 0.21734 0.70066 0.35560
 C2262 C 0.21612 0.70870 0.33662
 C2263 C 0.21768 0.71851 0.31462
 C2264 C 0.22193 0.72720 0.29648
 H2265 H 0.19031 0.67628 0.38192
 H2266 H 0.25382 0.70424 0.37922
 H2267 H 0.26268 0.68719 0.41625
 H2268 H 0.19912 0.65886 0.41903
 C2269 C 0.78606 0.82373 0.38067
 C2270 C 0.76994 0.81168 0.36975
 C2271 C 0.74988 0.80910 0.38053
 C2272 C 0.74574 0.81880 0.40193
 C2273 C 0.76165 0.83125 0.41289
 C2274 C 0.78196 0.83343 0.40219
 C2275 C 0.77321 0.80250 0.34708
 C2276 C 0.77388 0.79452 0.32803
 C2277 C 0.77190 0.78478 0.30604
 C2278 C 0.76756 0.77616 0.28793
 H2279 H 0.80161 0.82590 0.37242
 H2280 H 0.73729 0.79978 0.37223
 H2281 H 0.73007 0.81660 0.40989
 H2282 H 0.79444 0.84311 0.41014
 C2283 C 0.25297 0.32460 0.87271
 C2284 C 0.27300 0.31549 0.86769
 C2285 C 0.28938 0.31616 0.88425
 C2286 C 0.28572 0.32601 0.90577
 C2287 C 0.26558 0.33519 0.91094
 C2288 C 0.24927 0.33439 0.89415
 C2289 C 0.27601 0.30491 0.84572
 C2290 C 0.27651 0.29599 0.82717
 C2291 C 0.27434 0.28548 0.80563
 C2292 C 0.26980 0.27650 0.78780
 H2293 H 0.24017 0.32413 0.86002
 H2294 H 0.30489 0.30900 0.88059
 H2295 H 0.29853 0.32626 0.91844
 H2296 H 0.23375 0.34163 0.89744
 C2297 C 0.78813 0.38839 0.77251
 C2298 C 0.79720 0.37101 0.76054
 C2299 C 0.81631 0.37386 0.74801
 C2300 C 0.82641 0.39395 0.74748
 C2301 C 0.81754 0.41152 0.75953
 C2302 C 0.79822 0.40857 0.77200
 C2303 C 0.78708 0.35017 0.76080
 C2304 C 0.77928 0.33240 0.76032
 C2305 C 0.77089 0.31134 0.75898
 C2306 C 0.76425 0.29319 0.75717
 H2307 H 0.77331 0.38632 0.78226
 H2308 H 0.82339 0.36054 0.73857
 H2309 H 0.84103 0.39580 0.73737
 H2310 H 0.79112 0.42178 0.78156
 C2311 C 0.31098 0.87748 0.27925
 C2312 C 0.29039 0.87510 0.27016
 C2313 C 0.27990 0.89285 0.26077
 C2314 C 0.29023 0.91286 0.25977
 C2315 C 0.31162 0.91558 0.26790
 C2316 C 0.32145 0.89738 0.27827
 C2317 C 0.28069 0.85411 0.26910
 C2318 C 0.27321 0.83627 0.26758
 C2319 C 0.26515 0.81519 0.26518
 C2320 C 0.25878 0.79704 0.26269
 H2321 H 0.31914 0.86383 0.28687
 H2322 H 0.26394 0.89108 0.25350
 H2323 H 0.28165 0.92549 0.25095
 H2324 H 0.33705 0.89824 0.28639
 C2325 C 0.21314 0.89115 0.75665
 C2326 C 0.20645 0.87452 0.74193
 C2327 C 0.19086 0.87845 0.72504
 C2328 C 0.18158 0.89881 0.72324
 C2329 C 0.18776 0.91549 0.73837
 C2330 C 0.20388 0.91155 0.75487
 C2331 C 0.21479 0.85316 0.74486
 C2332 C 0.22137 0.83514 0.74752
 C2333 C 0.22876 0.81395 0.75076
 C2334 C 0.23494 0.79581 0.75354
 H2335 H 0.22514 0.88823 0.76985
 H2336 H 0.18560 0.86568 0.71354
 H2337 H 0.16938 0.90145 0.71019
 H2338 H 0.20877 0.92398 0.76695
 C2339 C 0.71583 0.38826 0.25390
 C2340 C 0.70793 0.37179 0.23967
 C2341 C 0.69145 0.37604 0.22390
 C2342 C 0.68242 0.39656 0.22284
 C2343 C 0.68977 0.41305 0.23760
 C2344 C 0.70683 0.40881 0.25285
 C2345 C 0.71584 0.35024 0.24217
 C2346 C 0.72200 0.33205 0.24464
 C2347 C 0.72887 0.31071 0.24784
 C2348 C 0.73463 0.29246 0.25075
 H2349 H 0.72853 0.38507 0.26624
 H2350 H 0.68525 0.36339 0.21280
 H2351 H 0.66947 0.39945 0.21074
 H2352 H 0.71263 0.42111 0.26462
 C2353 C 0.70816 0.61227 0.27574
 C2354 C 0.70706 0.62516 0.25585
 C2355 C 0.69817 0.61688 0.23544
 C2356 C 0.69010 0.59588 0.23495
 C2357 C 0.69083 0.58285 0.25492
 C2358 C 0.70009 0.59122 0.27529
 C2359 C 0.71448 0.64709 0.25633
 C2360 C 0.72032 0.66559 0.25604
 C2361 C 0.72684 0.68731 0.25489
 C2362 C 0.73228 0.70585 0.25321
 H2363 H 0.71506 0.61855 0.29162
 H2364 H 0.69716 0.62677 0.21999
 H2365 H 0.68273 0.59007 0.21913
 H2366 H 0.70104 0.58150 0.29086
 C2367 C 0.20425 0.11438 0.77586
 C2368 C 0.20472 0.12703 0.75575
 C2369 C 0.19685 0.11871 0.73487
 C2370 C 0.18832 0.09790 0.73409
 C2371 C 0.18755 0.08508 0.75422
 C2372 C 0.19571 0.09351 0.77512
 C2373 C 0.21278 0.14875 0.75641
 C2374 C 0.21922 0.16706 0.75621
 C2375 C 0.22648 0.18856 0.75511
 C2376 C 0.23254 0.20692 0.75343
 H2377 H 0.21033 0.12069 0.79211
 H2378 H 0.19705 0.12841 0.71923
 H2379 H 0.18182 0.09206 0.71784
 H2380 H 0.19550 0.08396 0.79085
 C2381 C 0.28202 0.10497 0.24395
 C2382 C 0.29335 0.12188 0.23342
 C2383 C 0.31312 0.11796 0.22257
 C2384 C 0.32184 0.09729 0.22280
 C2385 C 0.31089 0.08030 0.23395
 C2386 C 0.29072 0.08428 0.24421
 C2387 C 0.28539 0.14349 0.23499
 C2388 C 0.27913 0.16171 0.23684
 C2389 C 0.27217 0.18309 0.23948
 C2390 C 0.26641 0.20140 0.24202
 H2391 H 0.26670 0.10787 0.25240
 H2392 H 0.32206 0.13099 0.21450
 H2393 H 0.33755 0.09481 0.21507
 H2394 H 0.28183 0.07145 0.25270
 C2395 C 0.78719 0.60613 0.74821
 C2396 C 0.79912 0.62330 0.73898
 C2397 C 0.81917 0.61948 0.72871
 C2398 C 0.82749 0.59865 0.72808
 C2399 C 0.81586 0.58133 0.73776
 C2400 C 0.79549 0.58526 0.74761
 C2401 C 0.79127 0.64495 0.74092
 C2402 C 0.78500 0.66318 0.74286
 C2403 C 0.77785 0.68454 0.74541
 C2404 C 0.77177 0.70278 0.74774
 H2405 H 0.77164 0.60893 0.75620
 H2406 H 0.82858 0.63269 0.72162
 H2407 H 0.84336 0.59623 0.72073
 H2408 H 0.78608 0.57222 0.75500
 C2409 C 0.87542 0.77501 0.18132
 C2410 C 0.87351 0.76690 0.20383
 C2411 C 0.89159 0.75834 0.21467
 C2412 C 0.91140 0.75757 0.20298
 C2413 C 0.91374 0.76523 0.17980
 C2414 C 0.89510 0.77427 0.16949
 C2415 C 0.85271 0.76640 0.21514
 C2416 C 0.83489 0.76556 0.22362
 C2417 C 0.81355 0.76394 0.23219
 C2418 C 0.79496 0.76186 0.23802
 H2419 H 0.86156 0.78188 0.17276
 H2420 H 0.89030 0.75175 0.23205
 H2421 H 0.92431 0.74969 0.21206
 H2422 H 0.89543 0.78167 0.15254
 C2423 C 0.37775 0.24650 0.68482
 C2424 C 0.37549 0.25983 0.70427
 C2425 C 0.39323 0.27168 0.71219
 C2426 C 0.41305 0.27033 0.70056
 C2427 C 0.41536 0.25717 0.68078
 C2428 C 0.39748 0.24516 0.67317
 C2429 C 0.35477 0.26142 0.71559
 C2430 C 0.33694 0.26210 0.72400
 C2431 C 0.31551 0.26199 0.73244
 C2432 C 0.29682 0.26095 0.73816
 H2433 H 0.36419 0.23719 0.67854
 H2434 H 0.39170 0.28210 0.72719
 H2435 H 0.42643 0.27994 0.70673
 H2436 H 0.39877 0.23462 0.65826
 C2437 C 0.39684 0.74894 0.78932
 C2438 C 0.37894 0.73989 0.80059
 C2439 C 0.38126 0.73113 0.82282
 C2440 C 0.40126 0.73147 0.83380
 C2441 C 0.41937 0.74060 0.82272
 C2442 C 0.41692 0.74930 0.80030
 C2443 C 0.35795 0.74027 0.78998
 C2444 C 0.33998 0.74078 0.78213
 C2445 C 0.31848 0.74176 0.77424
 C2446 C 0.29980 0.74311 0.76883
 H2447 H 0.39525 0.75584 0.77215
 H2448 H 0.36751 0.72426 0.83182
 H2449 H 0.40243 0.72499 0.85119
 H2450 H 0.43055 0.75625 0.79119
 C2451 C 0.87936 0.25000 0.32080
 C2452 C 0.87733 0.23894 0.29975
 C2453 C 0.89539 0.22905 0.28986
 C2454 C 0.91534 0.23013 0.30109
 C2455 C 0.91745 0.24105 0.32242
 C2456 C 0.89921 0.25107 0.33204
 C2457 C 0.85655 0.23779 0.28870
 C2458 C 0.83867 0.23745 0.28057
 C2459 C 0.81722 0.23789 0.27245
 C2460 C 0.79856 0.23907 0.26691
 H2461 H 0.86554 0.25780 0.32860
 H2462 H 0.89404 0.22041 0.27359
 H2463 H 0.92902 0.22209 0.29333
 H2464 H 0.90031 0.25992 0.34819
 C2465 C 0.11330 0.23802 0.29311
 C2466 C 0.12402 0.25779 0.29097
 C2467 C 0.11482 0.27633 0.30061
 C2468 C 0.09523 0.27501 0.31270
 C2469 C 0.08464 0.25507 0.31545
 C2470 C 0.09378 0.23665 0.30521
 C2471 C 0.14510 0.25862 0.28031
 C2472 C 0.16307 0.25856 0.27223
 C2473 C 0.18453 0.25760 0.26393
 C2474 C 0.20315 0.25597 0.25814
 H2475 H 0.12024 0.22354 0.28580
 H2476 H 0.12302 0.29171 0.29925
 H2477 H 0.08876 0.28944 0.32056
 H2478 H 0.08591 0.22113 0.30671
 C2479 C 0.62540 0.73863 0.81433
 C2480 C 0.62799 0.75315 0.79594
 C2481 C 0.61067 0.76605 0.78923
 C2482 C 0.59095 0.76458 0.80106
 C2483 C 0.58835 0.75027 0.81985
 C2484 C 0.60578 0.73718 0.82618
 C2485 C 0.64870 0.75498 0.78463
 C2486 C 0.66654 0.75587 0.77628
 C2487 C 0.68800 0.75602 0.76796
 C2488 C 0.70670 0.75528 0.76231
 H2489 H 0.63864 0.72852 0.81967
 H2490 H 0.61248 0.77740 0.77507
 H2491 H 0.57792 0.77501 0.79589
 H2492 H 0.60424 0.72575 0.84029
 C2493 C 0.60822 0.22328 0.70614
 C2494 C 0.62117 0.24148 0.70968
 C2495 C 0.61445 0.26149 0.70125
 C2496 C 0.59510 0.26327 0.68909
 C2497 C 0.58212 0.24502 0.68508
 C2498 C 0.58884 0.22502 0.69398
 C2499 C 0.64192 0.23959 0.72069
 C2500 C 0.65972 0.23862 0.72898
 C2501 C 0.68111 0.23840 0.73734
 C2502 C 0.69980 0.23923 0.74294
 H2503 H 0.61324 0.20768 0.71250
 H2504 H 0.62439 0.27568 0.70369
 H2505 H 0.59063 0.27884 0.68224
 H2506 H 0.57912 0.21070 0.69150
 C2507 C 0.10727 0.72482 0.20205
 C2508 C 0.11685 0.74294 0.21223
 C2509 C 0.10691 0.76303 0.21019
 C2510 C 0.08778 0.76509 0.19770
 C2511 C 0.07824 0.74707 0.18697
 C2512 C 0.08807 0.72684 0.18957
 C2513 C 0.13758 0.74138 0.22337
 C2514 C 0.15533 0.74082 0.23183
 C2515 C 0.17662 0.74116 0.24049
 C2516 C 0.19519 0.74243 0.24646
 H2517 H 0.11488 0.70921 0.20331
 H2518 H 0.11417 0.77721 0.21790
 H2519 H 0.08049 0.78084 0.19634
 H2520 H 0.08131 0.71269 0.18134
   
