data_POSCAR
  _audit_creation_date              2014-09-24
  _audit_creation_method            'ToBaCCo'
  _symmetry_space_group_name_H-M    'P1'
  _symmetry_Int_Tables_number       1
  _symmetry_cell_setting            triclinic
  loop_
  _symmetry_equiv_pos_as_xyz
 x,y,z
_cell_length_a 86.7915
_cell_length_b 86.4360
_cell_length_c 86.6646
_cell_angle_alpha 90.006100
_cell_angle_beta 90.073400
_cell_angle_gamma 90.016400
loop_
  _atom_site_label
  _atom_site_type_symbol
  _atom_site_fract_x
  _atom_site_fract_y
  _atom_site_fract_z
C1 C 0.32197 0.44912 0.92821
 C2 C 0.31545 0.45544 0.91479
 C3 C 0.30217 0.44887 0.90833
 C4 C 0.29521 0.43603 0.91531
 C5 C 0.30157 0.42957 0.92873
 C6 C 0.31502 0.43612 0.93522
 C7 C 0.33548 0.45538 0.93456
 C8 C 0.34210 0.44875 0.94777
 C9 C 0.33518 0.43590 0.95478
 C10 C 0.32167 0.42950 0.94857
 C11 C 0.31486 0.41641 0.95528
 C12 C 0.30159 0.40988 0.94876
 C13 C 0.29492 0.41647 0.93559
 H14 H 0.32081 0.46531 0.90924
 H15 H 0.28499 0.43097 0.91016
 H16 H 0.34095 0.46527 0.92913
 H17 H 0.34041 0.43076 0.96494
 H18 H 0.32000 0.41114 0.96541
 H19 H 0.28471 0.41126 0.93057
 C20 C 0.44970 0.82047 0.42959
 C21 C 0.45615 0.83372 0.43636
 C22 C 0.44958 0.84013 0.44968
 C23 C 0.43661 0.83323 0.45641
 C24 C 0.43001 0.81997 0.44979
 C25 C 0.43656 0.81356 0.43631
 C26 C 0.45593 0.81421 0.41603
 C27 C 0.44915 0.80122 0.40914
 C28 C 0.43618 0.79429 0.41582
 C29 C 0.42980 0.80040 0.42938
 C30 C 0.41656 0.79380 0.43594
 C31 C 0.41004 0.80025 0.44924
 C32 C 0.41678 0.81323 0.45619
 H33 H 0.46613 0.83917 0.43114
 H34 H 0.43150 0.83831 0.46665
 H35 H 0.46591 0.81955 0.41071
 H36 H 0.43095 0.78430 0.41033
 H37 H 0.41119 0.78382 0.43058
 H38 H 0.41157 0.81821 0.46642
 C39 C 0.94877 0.92840 0.82165
 C40 C 0.95505 0.91493 0.81517
 C41 C 0.94814 0.90808 0.80224
 C42 C 0.93497 0.91473 0.79561
 C43 C 0.92855 0.92820 0.80194
 C44 C 0.93545 0.93508 0.81503
 C45 C 0.95538 0.93514 0.83482
 C46 C 0.94880 0.94839 0.84143
 C47 C 0.93564 0.95507 0.83481
 C48 C 0.92888 0.94848 0.82165
 C49 C 0.91550 0.95486 0.81516
 C50 C 0.90863 0.94797 0.80224
 C51 C 0.91517 0.93473 0.79561
 H52 H 0.96519 0.90968 0.82031
 H53 H 0.92962 0.90932 0.78565
 H54 H 0.96551 0.92996 0.84005
 H55 H 0.93053 0.96526 0.84004
 H56 H 0.91029 0.96505 0.82027
 H57 H 0.90970 0.92943 0.78566
 C58 C 0.45011 -0.06979 0.31967
 C59 C 0.45629 -0.08335 0.31329
 C60 C 0.44950 -0.09008 0.30025
 C61 C 0.43657 -0.08323 0.29338
 C62 C 0.43024 -0.06967 0.29960
 C63 C 0.43701 -0.06290 0.31282
 C64 C 0.45656 -0.06320 0.33298
 C65 C 0.45004 -0.04990 0.33951
 C66 C 0.43712 -0.04299 0.33269
 C67 C 0.43052 -0.04943 0.31937
 C68 C 0.41732 -0.04286 0.31270
 C69 C 0.41056 -0.04965 0.29965
 C70 C 0.41704 -0.06295 0.29308
 H71 H 0.46623 -0.08880 0.31859
 H72 H 0.43132 -0.08860 0.28335
 H73 H 0.46649 -0.06853 0.33843
 H74 H 0.43207 -0.03278 0.33791
 H75 H 0.41214 -0.03264 0.31777
 H76 H 0.41164 -0.06818 0.28306
 C77 C 0.82140 0.30091 0.32128
 C78 C 0.81452 0.29444 0.33442
 C79 C 0.80131 0.30119 0.34080
 C80 C 0.79479 0.31437 0.33402
 C81 C 0.80153 0.32099 0.32087
 C82 C 0.81491 0.31426 0.31447
 C83 C 0.83486 0.29448 0.31503
 C84 C 0.84186 0.30126 0.30214
 C85 C 0.83540 0.31445 0.29531
 C86 C 0.82195 0.32104 0.30141
 C87 C 0.81559 0.33446 0.29490
 C88 C 0.80237 0.34115 0.30133
 C89 C 0.79532 0.33441 0.31422
 H90 H 0.81954 0.28431 0.33982
 H91 H 0.78463 0.31957 0.33911
 H92 H 0.84001 0.28434 0.32029
 H93 H 0.84097 0.31967 0.28540
 H94 H 0.82101 0.33982 0.28499
 H95 H 0.78516 0.33975 0.31917
 C96 C -0.19861 0.82162 0.82007
 C97 C -0.20472 0.83511 0.81347
 C98 C -0.19762 0.84187 0.80061
 C99 C -0.18444 0.83509 0.79416
 C100 C -0.17819 0.82159 0.80061
 C101 C -0.18528 0.81481 0.81364
 C102 C -0.20539 0.81500 0.83319
 C103 C -0.19896 0.80175 0.83993
 C104 C -0.18580 0.79493 0.83352
 C105 C -0.17888 0.80139 0.82040
 C106 C -0.16547 0.79489 0.81413
 C107 C -0.15842 0.80168 0.80127
 C108 C -0.16479 0.81493 0.79449
 H109 H -0.21485 0.84047 0.81848
 H110 H -0.17894 0.84043 0.78426
 H111 H -0.21551 0.82026 0.83832
 H112 H -0.18084 0.78475 0.83890
 H113 H -0.16038 0.78470 0.81935
 H114 H -0.15918 0.82016 0.78460
 C115 C 0.92874 0.32139 0.44882
 C116 C 0.93512 0.33489 0.45515
 C117 C 0.94797 0.34186 0.44825
 C118 C 0.95461 0.33528 0.43505
 C119 C 0.94837 0.32179 0.42857
 C120 C 0.93537 0.31479 0.43546
 C121 C 0.91565 0.31453 0.45541
 C122 C 0.90914 0.30127 0.44878
 C123 C 0.91575 0.29466 0.43559
 C124 C 0.92883 0.30136 0.42885
 C125 C 0.93532 0.29505 0.41543
 C126 C 0.94816 0.30205 0.40857
 C127 C 0.95471 0.31532 0.41515
 H128 H 0.92997 0.34008 0.46531
 H129 H 0.96450 0.34079 0.42970
 H130 H 0.91038 0.31963 0.46555
 H131 H 0.91055 0.28446 0.43048
 H132 H 0.93027 0.28484 0.41018
 H133 H 0.96459 0.32071 0.40970
 C134 C 0.42856 0.44922 0.82124
 C135 C 0.43509 0.45562 0.83461
 C136 C 0.44839 0.44909 0.84108
 C137 C 0.45535 0.43624 0.83416
 C138 C 0.44897 0.42969 0.82078
 C139 C 0.43550 0.43619 0.81429
 C140 C 0.41500 0.45538 0.81492
 C141 C 0.40832 0.44862 0.80183
 C142 C 0.41524 0.43576 0.79485
 C143 C 0.42880 0.42945 0.80102
 C144 C 0.43557 0.41630 0.79440
 C145 C 0.44886 0.40982 0.80093
 C146 C 0.45558 0.41654 0.81402
 H147 H 0.42972 0.46550 0.84014
 H148 H 0.46557 0.43120 0.83933
 H149 H 0.40949 0.46526 0.82030
 H150 H 0.40991 0.43054 0.78479
 H151 H 0.43038 0.41093 0.78434
 H152 H 0.46580 0.41136 0.81906
 C153 C 0.82057 0.93025 0.94972
 C154 C 0.81384 0.91705 0.95628
 C155 C 0.80084 0.91025 0.94945
 C156 C 0.79439 0.91673 0.93609
 C157 C 0.80098 0.92993 0.92938
 C158 C 0.81414 0.93673 0.93619
 C159 C 0.83383 0.93688 0.95623
 C160 C 0.84072 0.94982 0.94934
 C161 C 0.83430 0.95632 0.93598
 C162 C 0.82105 0.94983 0.92932
 C163 C 0.81477 0.95600 0.91572
 C164 C 0.80177 0.94919 0.90894
 C165 C 0.79485 0.93625 0.91578
 H166 H 0.81884 0.91192 0.96656
 H167 H 0.78439 0.91135 0.93078
 H168 H 0.83891 0.93184 0.96651
 H169 H 0.83975 0.96627 0.93063
 H170 H 0.82010 0.96595 0.91028
 H171 H 0.78486 0.93100 0.91038
 C172 C 0.32129 0.82052 0.30014
 C173 C 0.31474 0.83381 0.29356
 C174 C 0.30145 0.84040 0.29998
 C175 C 0.29452 0.83363 0.31293
 C176 C 0.30092 0.82033 0.31965
 C177 C 0.31437 0.81374 0.31326
 C178 C 0.33481 0.81407 0.29406
 C179 C 0.34147 0.80103 0.30096
 C180 C 0.33459 0.79424 0.31391
 C181 C 0.32107 0.80053 0.32015
 C182 C 0.31430 0.79406 0.33335
 C183 C 0.30102 0.80067 0.33972
 C184 C 0.29431 0.81371 0.33286
 H185 H 0.32012 0.83917 0.28360
 H186 H 0.28430 0.83884 0.31792
 H187 H 0.34029 0.81930 0.28410
 H188 H 0.33990 0.78420 0.31924
 H189 H 0.31947 0.78403 0.33882
 H190 H 0.28409 0.81881 0.33795
 C191 C 0.82189 0.42935 0.44838
 C192 C 0.81506 0.41631 0.45517
 C193 C 0.80184 0.40971 0.44863
 C194 C 0.79523 0.41618 0.43536
 C195 C 0.80191 0.42921 0.42842
 C196 C 0.81532 0.43583 0.43494
 C197 C 0.83539 0.43579 0.45459
 C198 C 0.84236 0.44856 0.44746
 C199 C 0.83579 0.45507 0.43418
 C200 C 0.82231 0.44877 0.42783
 C201 C 0.81588 0.45494 0.41431
 C202 C 0.80264 0.44830 0.40783
 C203 C 0.79564 0.43553 0.41489
 H204 H 0.82015 0.41114 0.46538
 H205 H 0.78506 0.41090 0.43032
 H206 H 0.84058 0.43074 0.46481
 H207 H 0.84130 0.46488 0.42865
 H208 H 0.82128 0.46475 0.40869
 H209 H 0.78546 0.43041 0.40972
 C210 C 0.94972 0.81976 -0.07099
 C211 C 0.95630 0.83296 -0.06423
 C212 C 0.94982 0.83941 -0.05090
 C213 C 0.93681 0.83263 -0.04414
 C214 C 0.93008 0.81944 -0.05075
 C215 C 0.93653 0.81297 -0.06425
 C216 C 0.95588 0.81345 -0.08456
 C217 C 0.94896 0.80052 -0.09146
 C218 C 0.93593 0.79371 -0.08474
 C219 C 0.92963 0.79988 -0.07117
 C220 C 0.91634 0.79342 -0.06458
 C221 C 0.90992 0.79992 -0.05125
 C222 C 0.91680 0.81283 -0.04432
 H223 H 0.96630 0.83836 -0.06944
 H224 H 0.93180 0.83779 -0.03390
 H225 H 0.96590 0.81873 -0.08987
 H226 H 0.93057 0.78377 -0.09020
 H227 H 0.91086 0.78349 -0.06993
 H228 H 0.91166 0.81785 -0.03407
 C229 C 0.32021 0.32025 0.80034
 C230 C 0.31398 0.33381 0.79401
 C231 C 0.30097 0.34069 0.80068
 C232 C 0.29401 0.33398 0.81363
 C233 C 0.30010 0.32042 0.82011
 C234 C 0.31327 0.31351 0.81346
 C235 C 0.33347 0.31349 0.79400
 C236 C 0.33984 0.30018 0.80067
 C237 C 0.33292 0.29342 0.81362
 C238 C 0.31966 0.30002 0.82010
 C239 C 0.31288 0.29360 0.83332
 C240 C 0.29988 0.30053 0.83994
 C241 C 0.29346 0.31384 0.83332
 H242 H 0.31934 0.33915 0.78404
 H243 H 0.28402 0.33946 0.81877
 H244 H 0.33899 0.31870 0.78405
 H245 H 0.33801 0.28319 0.81877
 H246 H 0.31783 0.28336 0.83860
 H247 H 0.28347 0.31918 0.83861
 C248 C 0.18021 0.54979 0.56913
 C249 C 0.16700 0.54331 0.56238
 C250 C 0.16022 0.55027 0.54945
 C251 C 0.16670 0.56366 0.54305
 C252 C 0.17991 0.57030 0.54965
 C253 C 0.18670 0.56335 0.56276
 C254 C 0.18682 0.54317 0.58235
 C255 C 0.19974 0.54999 0.58926
 C256 C 0.20627 0.56338 0.58291
 C257 C 0.19981 0.57015 0.56970
 C258 C 0.20597 0.58381 0.56351
 C259 C 0.19916 0.59072 0.55057
 C260 C 0.18623 0.58395 0.54361
 H261 H 0.16182 0.53302 0.56732
 H262 H 0.16129 0.56903 0.53312
 H263 H 0.18178 0.53288 0.58743
 H264 H 0.21620 0.56864 0.58843
 H265 H 0.21591 0.58920 0.56888
 H266 H 0.18097 0.58946 0.53368
 C267 C 0.57067 0.70022 0.07001
 C268 C 0.58417 0.70639 0.06361
 C269 C 0.59088 0.69947 0.05063
 C270 C 0.58407 0.68643 0.04386
 C271 C 0.57056 0.68011 0.05012
 C272 C 0.56381 0.68702 0.06326
 C273 C 0.56408 0.70680 0.08325
 C274 C 0.55082 0.70030 0.08979
 C275 C 0.54395 0.68727 0.08306
 C276 C 0.55038 0.68055 0.06982
 C277 C 0.54384 0.66725 0.06324
 C278 C 0.55060 0.66037 0.05028
 C279 C 0.56386 0.66681 0.04369
 H280 H 0.58960 0.71641 0.06882
 H281 H 0.58942 0.68110 0.03389
 H282 H 0.56938 0.71681 0.08862
 H283 H 0.53375 0.68226 0.08828
 H284 H 0.53364 0.66210 0.06832
 H285 H 0.56908 0.66133 0.03373
 C286 C 0.69819 0.17873 0.67886
 C287 C 0.70437 0.18526 0.66541
 C288 C 0.69735 0.19815 0.65859
 C289 C 0.68416 0.20470 0.66524
 C290 C 0.67782 0.19831 0.67870
 C291 C 0.68485 0.18526 0.68555
 C292 C 0.70492 0.16559 0.68557
 C293 C 0.69843 0.15891 0.69879
 C294 C 0.68525 0.16543 0.70550
 C295 C 0.67838 0.17857 0.69894
 C296 C 0.66497 0.18495 0.70534
 C297 C 0.65799 0.19784 0.69848
 C298 C 0.66442 0.20454 0.68525
 H299 H 0.71452 0.18022 0.66012
 H300 H 0.67875 0.21462 0.65981
 H301 H 0.71506 0.16042 0.68037
 H302 H 0.68022 0.16015 0.71568
 H303 H 0.65984 0.17979 0.71552
 H304 H 0.65886 0.21446 0.67997
 C305 C 1.07157 0.05027 0.17818
 C306 C 1.08498 0.04400 0.18471
 C307 C 1.09147 0.05065 0.19796
 C308 C 1.08452 0.06353 0.20486
 C309 C 1.07110 0.06996 0.19849
 C310 C 1.06459 0.06332 0.18507
 C311 C 1.06519 0.04393 0.16471
 C312 C 1.05199 0.05052 0.15806
 C313 C 1.04501 0.06342 0.16493
 C314 C 1.05124 0.06990 0.17841
 C315 C 1.04456 0.08303 0.18516
 C316 C 1.05110 0.08964 0.19840
 C317 C 1.06427 0.08309 0.20508
 H318 H 1.09051 0.03409 0.17940
 H319 H 1.08969 0.06866 0.21505
 H320 H 1.07060 0.03401 0.15928
 H321 H 1.03485 0.06853 0.15969
 H322 H 1.03442 0.08826 0.18001
 H323 H 1.06931 0.08836 0.21527
 C324 C 0.05124 0.17834 1.07109
 C325 C 0.04484 0.16488 1.06469
 C326 C 0.05165 0.15791 1.05178
 C327 C 0.06483 0.16445 1.04508
 C328 C 0.07138 0.17791 1.05133
 C329 C 0.06458 0.18490 1.06440
 C330 C 0.04474 0.18518 1.08424
 C331 C 0.05145 0.19840 1.09076
 C332 C 0.06461 0.20498 1.08410
 C333 C 0.07126 0.19830 1.07095
 C334 C 0.08465 0.20457 1.06441
 C335 C 0.09142 0.19758 1.05150
 C336 C 0.08477 0.18434 1.04495
 H337 H 0.03470 0.15971 1.06988
 H338 H 0.07011 0.15895 1.03515
 H339 H 0.03462 0.18011 1.08955
 H340 H 0.06977 0.21516 1.08930
 H341 H 0.08994 0.21476 1.06946
 H342 H 0.09016 0.17896 1.03502
 C343 C 0.18013 0.68084 0.69949
 C344 C 0.16693 0.68745 0.70609
 C345 C 0.16009 0.70049 0.69935
 C346 C 0.16647 0.70711 0.68606
 C347 C 0.17967 0.70065 0.67931
 C348 C 0.18654 0.68744 0.68603
 C349 C 0.18683 0.66753 0.70589
 C350 C 0.19975 0.66077 0.69896
 C351 C 0.20618 0.66735 0.68567
 C352 C 0.19964 0.68065 0.67912
 C353 C 0.20574 0.68710 0.66558
 C354 C 0.19885 0.70014 0.65890
 C355 C 0.18592 0.70694 0.66577
 H356 H 0.16183 0.68234 0.71631
 H357 H 0.16101 0.71713 0.68087
 H358 H 0.18186 0.66228 0.71611
 H359 H 0.21612 0.66196 0.68033
 H360 H 0.21568 0.68186 0.66010
 H361 H 0.18061 0.71697 0.66044
 C362 C 1.19870 0.17811 0.17844
 C363 C 1.20506 0.16462 0.18479
 C364 C 1.19850 0.15789 0.19796
 C365 C 1.18562 0.16469 0.20495
 C366 C 1.17911 0.17819 0.19874
 C367 C 1.18566 0.18494 0.18542
 C368 C 1.20494 0.18472 0.16504
 C369 C 1.19826 0.19798 0.15858
 C370 C 1.18539 0.20482 0.16553
 C371 C 1.17900 0.19837 0.17892
 C372 C 1.16588 0.20490 0.18575
 C373 C 1.15936 0.19813 0.19890
 C374 C 1.16599 0.18487 0.20541
 H375 H 1.21498 0.15924 0.17938
 H376 H 1.18053 0.15938 0.21508
 H377 H 1.21484 0.17945 0.15952
 H378 H 1.18025 0.21503 0.16037
 H379 H 1.16059 0.21510 0.18073
 H380 H 1.16078 0.17966 0.21553
 C381 C 0.67843 1.07203 0.55110
 C382 C 0.66503 1.06561 0.54467
 C383 C 0.65842 1.05233 0.55115
 C384 C 0.66522 1.04528 0.56402
 C385 C 0.67863 1.05153 0.57059
 C386 C 0.68527 1.06498 0.56413
 C387 C 0.68494 1.08554 0.54493
 C388 C 0.69812 1.09206 0.55167
 C389 C 0.70497 1.08503 0.56454
 C390 C 0.69861 1.07152 0.57085
 C391 C 0.70515 1.06462 0.58396
 C392 C 0.69849 1.05135 0.59040
 C393 C 0.68532 1.04478 0.58371
 H394 H 0.65962 1.07104 0.53477
 H395 H 0.65995 1.03506 0.56901
 H396 H 0.67963 1.09108 0.53503
 H397 H 0.71512 1.09019 0.56977
 H398 H 0.71528 1.06967 0.58930
 H399 H 0.68018 1.03458 0.58885
 C400 C 0.54932 0.56872 0.18098
 C401 C 0.54289 0.56206 0.16769
 C402 C 0.54966 0.54897 0.16100
 C403 C 0.56281 0.54233 0.16764
 C404 C 0.56940 0.54883 0.18093
 C405 C 0.56265 0.56210 0.18764
 C406 C 0.54290 0.58209 0.18751
 C407 C 0.54968 0.58890 0.20052
 C408 C 0.56284 0.58231 0.20721
 C409 C 0.56942 0.56894 0.20083
 C410 C 0.58284 0.56250 0.20716
 C411 C 0.58956 0.54940 0.20042
 C412 C 0.58282 0.54255 0.18742
 H413 H 0.53278 0.56719 0.16238
 H414 H 0.56804 0.53227 0.16230
 H415 H 0.53279 0.58735 0.18235
 H416 H 0.56808 0.58775 0.21720
 H417 H 0.58822 0.56780 0.21715
 H418 H 0.58819 0.53248 0.18222
 C419 C 0.67979 0.70029 0.17911
 C420 C 0.66658 0.70668 0.18590
 C421 C 0.66025 0.70001 0.19919
 C422 C 0.66716 0.68700 0.20590
 C423 C 0.68039 0.68046 0.19927
 C424 C 0.68674 0.68711 0.18580
 C425 C 0.68598 0.70662 0.16557
 C426 C 0.69894 0.69989 0.15866
 C427 C 0.70590 0.68688 0.16532
 C428 C 0.69986 0.68040 0.17886
 C429 C 0.70649 0.66712 0.18540
 C430 C 0.70011 0.66050 0.19870
 C431 C 0.68716 0.66718 0.20565
 H432 H 0.66107 0.71668 0.18073
 H433 H 0.66210 0.68185 0.21612
 H434 H 0.68062 0.71663 0.16026
 H435 H 0.71586 0.68169 0.15982
 H436 H 0.71645 0.66179 0.18004
 H437 H 0.68224 0.66190 0.21587
 C438 C 0.17641 0.05240 1.07321
 C439 C 0.16307 0.04602 1.06661
 C440 C 0.15643 0.05279 1.05349
 C441 C 0.16316 0.06591 1.04680
 C442 C 0.17650 0.07244 1.05325
 C443 C 0.18316 0.06568 1.06652
 C444 C 0.18295 0.04591 1.08653
 C445 C 0.19609 0.05258 1.09322
 C446 C 0.20285 0.06570 1.08656
 C447 C 0.19645 0.07233 1.07324
 C448 C 0.20293 0.08567 1.06668
 C449 C 0.19625 0.09239 1.05357
 C450 C 0.18313 0.08577 1.04684
 H451 H 0.15776 0.03591 1.07179
 H452 H 0.15792 0.07115 1.03669
 H453 H 0.17772 0.03581 1.09179
 H454 H 0.21296 0.07086 1.09184
 H455 H 0.21303 0.09094 1.07185
 H456 H 0.17799 0.09112 1.03675
 C457 C 0.57217 0.17829 0.55256
 C458 C 0.58545 0.18491 0.54613
 C459 C 0.59207 0.19809 0.55282
 C460 C 0.58540 0.20484 0.56590
 C461 C 0.57212 0.19837 0.57248
 C462 C 0.56547 0.18502 0.56581
 C463 C 0.56566 0.16488 0.54618
 C464 C 0.55262 0.15815 0.55292
 C465 C 0.54590 0.16485 0.56600
 C466 C 0.55226 0.17826 0.57253
 C467 C 0.54585 0.18484 0.58585
 C468 C 0.55251 0.19802 0.59249
 C469 C 0.56555 0.20481 0.58580
 H470 H 0.59077 0.17972 0.53607
 H471 H 0.59068 0.21498 0.57105
 H472 H 0.57084 0.15954 0.53611
 H473 H 0.53586 0.15949 0.57119
 H474 H 0.53581 0.17962 0.59118
 H475 H 0.57069 0.21495 0.59110
 C476 C 0.06891 0.54892 0.68079
 C477 C 0.08226 0.54258 0.68739
 C478 C 0.08892 0.54942 0.70045
 C479 C 0.08220 0.56255 0.70711
 C480 C 0.06885 0.56904 0.70067
 C481 C 0.06217 0.56222 0.68743
 C482 C 0.06241 0.54243 0.66744
 C483 C 0.04935 0.54913 0.66068
 C484 C 0.04258 0.56226 0.66730
 C485 C 0.04892 0.56889 0.68065
 C486 C 0.04251 0.58230 0.68711
 C487 C 0.04921 0.58909 0.70018
 C488 C 0.06228 0.58244 0.70698
 H489 H 0.08763 0.53249 0.68224
 H490 H 0.08751 0.56783 0.71715
 H491 H 0.06764 0.53235 0.66215
 H492 H 0.03254 0.56743 0.66190
 H493 H 0.03247 0.58761 0.68186
 H494 H 0.06746 0.58786 0.71701
 C495 C 0.67970 0.57068 0.04949
 C496 C 0.66644 0.56403 0.04300
 C497 C 0.66000 0.55067 0.04950
 C498 C 0.66684 0.54377 0.06243
 C499 C 0.68009 0.55027 0.06907
 C500 C 0.68656 0.56380 0.06260
 C501 C 0.68601 0.58429 0.04334
 C502 C 0.69901 0.59107 0.05017
 C503 C 0.70588 0.58421 0.06311
 C504 C 0.69972 0.57061 0.06941
 C505 C 0.70626 0.56388 0.08262
 C506 C 0.69976 0.55053 0.08907
 C507 C 0.68678 0.54370 0.08227
 H508 H 0.66099 0.56935 0.03306
 H509 H 0.66169 0.53351 0.06744
 H510 H 0.68071 0.58975 0.03339
 H511 H 0.71588 0.58961 0.06837
 H512 H 0.71624 0.56915 0.08804
 H513 H 0.68176 0.53344 0.08742
 C514 C 0.05054 0.68048 0.57012
 C515 C 0.04410 0.68723 0.58334
 C516 C 0.05098 0.70025 0.59007
 C517 C 0.06426 0.70673 0.58355
 C518 C 0.07086 0.70013 0.57033
 C519 C 0.06400 0.68693 0.56357
 C520 C 0.04399 0.66719 0.56353
 C521 C 0.05076 0.66030 0.55057
 C522 C 0.06404 0.66673 0.54400
 C523 C 0.07075 0.68002 0.55044
 C524 C 0.08428 0.68632 0.54420
 C525 C 0.09110 0.69935 0.55098
 C526 C 0.08438 0.70628 0.56394
 H527 H 0.03389 0.68223 0.58855
 H528 H 0.06956 0.71675 0.58892
 H529 H 0.03378 0.66205 0.56860
 H530 H 0.06926 0.66125 0.53403
 H531 H 0.08963 0.68098 0.53423
 H532 H 0.08982 0.71630 0.56916
 C533 C 0.55172 1.07080 0.67798
 C534 C 0.54559 1.06433 0.66446
 C535 C 0.55228 1.05109 0.65796
 C536 C 0.56506 1.04413 0.66503
 C537 C 0.57134 1.05046 0.67856
 C538 C 0.56467 1.06387 0.68507
 C539 C 0.54538 1.08430 0.68434
 C540 C 0.55187 1.09092 0.69759
 C541 C 0.56464 1.08402 0.70470
 C542 C 0.57113 1.07052 0.69851
 C543 C 0.58418 1.06376 0.70528
 C544 C 0.59082 1.05053 0.69874
 C545 C 0.58439 1.04386 0.68549
 H546 H 0.53577 1.06973 0.65887
 H547 H 0.57026 1.03396 0.65988
 H548 H 0.53557 1.08980 0.67885
 H549 H 0.56965 1.08931 0.71489
 H550 H 0.58933 1.06892 0.71546
 H551 H 0.58970 1.03369 0.68045
 C552 C 0.42923 0.32072 0.94998
 C553 C 0.43550 0.33433 0.95621
 C554 C 0.44854 0.34113 0.94949
 C555 C 0.45548 0.33428 0.93658
 C556 C 0.44935 0.32068 0.93021
 C557 C 0.43615 0.31386 0.93692
 C558 C 0.41595 0.31405 0.95638
 C559 C 0.40955 0.30069 0.94983
 C560 C 0.41644 0.29381 0.93694
 C561 C 0.42972 0.30033 0.93040
 C562 C 0.43648 0.29376 0.91724
 C563 C 0.44950 0.30060 0.91056
 C564 C 0.45596 0.31395 0.91706
 H565 H 0.43012 0.33973 0.96613
 H566 H 0.46551 0.33965 0.93137
 H567 H 0.41046 0.31935 0.96629
 H568 H 0.41133 0.28354 0.93188
 H569 H 0.43150 0.28349 0.91205
 H570 H 0.46597 0.31922 0.91173
 C571 C 0.92806 0.44797 0.32236
 C572 C 0.93462 0.45440 0.33570
 C573 C 0.94768 0.44762 0.34242
 C574 C 0.95435 0.43445 0.33577
 C575 C 0.94792 0.42788 0.32242
 C576 C 0.93471 0.43464 0.31568
 C577 C 0.91478 0.45445 0.31575
 C578 C 0.90811 0.44773 0.30263
 C579 C 0.91473 0.43456 0.29594
 C580 C 0.92801 0.42793 0.30240
 C581 C 0.93452 0.41454 0.29601
 C582 C 0.94757 0.40781 0.30276
 C583 C 0.95429 0.41449 0.31587
 H584 H 0.92946 0.46454 0.34096
 H585 H 0.96440 0.42920 0.34108
 H586 H 0.90951 0.46458 0.32090
 H587 H 0.90942 0.42939 0.28585
 H588 H 0.92935 0.40923 0.28591
 H589 H 0.96434 0.40913 0.32107
 C590 C 0.32007 0.95140 0.43075
 C591 C 0.31356 0.95776 0.41735
 C592 C 0.30047 0.95103 0.41068
 C593 C 0.29367 0.93799 0.41743
 C594 C 0.30003 0.93147 0.43083
 C595 C 0.31330 0.93818 0.43753
 C596 C 0.33344 0.95778 0.43727
 C597 C 0.34010 0.95106 0.45041
 C598 C 0.33333 0.93801 0.45721
 C599 C 0.31997 0.93148 0.45082
 C600 C 0.31337 0.91814 0.45727
 C601 C 0.30028 0.91145 0.45054
 C602 C 0.29358 0.91814 0.43742
 H603 H 0.31880 0.96779 0.41195
 H604 H 0.28361 0.93279 0.41211
 H605 H 0.33879 0.96782 0.43200
 H606 H 0.33861 0.93279 0.46730
 H607 H 0.31854 0.91281 0.46735
 H608 H 0.28352 0.91280 0.43223
 O609 O 0.24883 0.54136 0.72952
 O610 O 0.27509 0.53636 0.73155
 O611 O 0.23017 0.50059 0.70846
 O612 O 0.22955 0.47518 0.71321
 O613 O 0.20856 0.52000 0.74894
 O614 O 0.21436 0.51909 0.77577
 O615 O 0.26988 0.45976 0.75043
 O616 O 0.26690 0.46409 0.72423
 O617 O 0.29000 0.49911 0.76958
 O618 O 0.28469 0.52698 0.76842
 O619 O 0.25090 0.48041 0.79009
 O620 O 0.22336 0.48113 0.78479
 O621 O 0.25140 0.45978 0.76911
 O622 O 0.22285 0.46546 0.76764
 O623 O 0.26932 0.49916 0.79017
 O624 O 0.26765 0.52758 0.78416
 O625 O 0.28990 0.48015 0.75134
 O626 O 0.28490 0.48525 0.72340
 O627 O 0.23054 0.54158 0.74842
 O628 O 0.23181 0.53586 0.77581
 O629 O 0.20842 0.50131 0.73041
 O630 O 0.21475 0.47338 0.73294
 O631 O 0.24839 0.51958 0.70842
 O632 O 0.27615 0.51617 0.71458
 Zr633 Zr 0.25800 0.51888 0.73076
 O634 O 0.27280 0.50548 0.74464
 Zr635 Zr 0.23076 0.49178 0.73108
 O636 O 0.24468 0.47704 0.74450
 Zr637 Zr 0.23104 0.51914 0.75802
 O638 O 0.24454 0.50540 0.77288
 Zr639 Zr 0.26809 0.48198 0.74088
 O640 O 0.25420 0.49530 0.72579
 Zr641 Zr 0.26796 0.50915 0.76807
 O642 O 0.25445 0.52408 0.75425
 Zr643 Zr 0.24100 0.48183 0.76796
 O644 O 0.22584 0.49559 0.75455
 O645 O 0.23465 0.51517 0.73469
 O646 O 0.26438 0.48563 0.76435
 C647 C 0.23828 0.54801 0.73751
 C648 C 0.23785 0.51145 0.70190
 C649 C 0.20195 0.51207 0.73829
 C650 C 0.26237 0.45337 0.76147
 C651 C 0.29629 0.48786 0.76226
 C652 C 0.26182 0.48807 0.79652
 H653 H 0.28364 0.50793 0.74210
 H654 H 0.24198 0.50791 0.78370
 H655 H 0.22805 0.52173 0.72806
 H656 H 0.24237 0.46615 0.74190
 H657 H 0.26360 0.46898 0.71444
 H658 H 0.23752 0.46733 0.71544
 H659 H 0.25892 0.52586 0.79127
 H660 H 0.24189 0.54114 0.77492
 H661 H 0.29219 0.47643 0.72386
 H662 H 0.27521 0.52433 0.70658
 H663 H 0.22382 0.49092 0.79068
 H664 H 0.20959 0.50869 0.77567
 H665 H 0.27494 0.54068 0.74212
 H666 H 0.29094 0.52604 0.75893
 H667 H 0.20868 0.47525 0.74242
 H668 H 0.22477 0.45821 0.75903
 O669 O 0.27051 -0.04129 0.25074
 O670 O 0.26827 -0.03642 0.22443
 O671 O 0.29155 -0.00038 0.26908
 O672 O 0.28674 0.02503 0.26962
 O673 O 0.25135 -0.01981 0.29110
 O674 O 0.22450 -0.01898 0.28547
 O675 O 0.24924 0.04014 0.22940
 O676 O 0.27544 0.03592 0.23222
 O677 O 0.23010 0.00065 0.20958
 O678 O 0.23137 -0.02720 0.21504
 O679 O 0.20984 0.01947 0.24880
 O680 O 0.21531 0.01892 0.27632
 O681 O 0.23072 0.04016 0.24804
 O682 O 0.23246 0.03459 0.27668
 O683 O 0.20969 0.00065 0.23044
 O684 O 0.21575 -0.02774 0.23219
 O685 O 0.24827 0.01966 0.20945
 O686 O 0.27621 0.01465 0.21430
 O687 O 0.25177 -0.04149 0.26919
 O688 O 0.22439 -0.03586 0.26809
 O689 O 0.26979 -0.00106 0.29102
 O690 O 0.26714 0.02685 0.28454
 O691 O 0.29151 -0.01946 0.25093
 O692 O 0.28516 -0.01619 0.22316
 Zr693 Zr 0.26914 -0.01886 0.24145
 O694 O 0.25514 -0.00557 0.22666
 Zr695 Zr 0.26894 0.00837 0.26861
 O696 O 0.25540 0.02300 0.25468
 Zr697 Zr 0.24211 -0.01908 0.26865
 O698 O 0.22714 -0.00544 0.25517
 Zr699 Zr 0.25887 0.01796 0.23124
 O700 O 0.27406 0.00475 0.24511
 Zr701 Zr 0.23178 -0.00928 0.23169
 O702 O 0.24572 -0.02411 0.24520
 Zr703 Zr 0.23201 0.01817 0.25856
 O704 O 0.24554 0.00451 0.27372
 O705 O 0.26537 -0.01505 0.26484
 O706 O 0.23546 0.01426 0.23514
 C707 C 0.26262 -0.04792 0.26140
 C708 C 0.29807 -0.01126 0.26141
 C709 C 0.26201 -0.01182 0.29760
 C710 C 0.23824 0.04653 0.23696
 C711 C 0.23734 0.01189 0.20317
 C712 C 0.20337 0.01175 0.23794
 H713 H 0.25761 -0.00807 0.21580
 H714 H 0.21637 -0.00797 0.25782
 H715 H 0.27205 -0.02156 0.27144
 H716 H 0.25799 0.03392 0.25692
 H717 H 0.28526 0.03107 0.23546
 H718 H 0.28447 0.03281 0.26158
 H719 H 0.20874 -0.02602 0.24101
 H720 H 0.22520 -0.04116 0.25800
 H721 H 0.27568 0.02343 0.20696
 H722 H 0.29317 -0.02433 0.22409
 H723 H 0.20951 0.00908 0.27600
 H724 H 0.22464 -0.00857 0.29023
 H725 H 0.25773 -0.04078 0.22469
 H726 H 0.24079 -0.02626 0.20870
 H727 H 0.25775 0.02496 0.29073
 H728 H 0.24097 0.04191 0.27462
 O729 O 0.54151 0.72998 0.24919
 O730 O 0.53654 0.73201 0.27550
 O731 O 0.50097 0.70869 0.23055
 O732 O 0.47565 0.71334 0.22986
 O733 O 0.52014 0.74936 0.20886
 O734 O 0.51910 0.77627 0.21463
 O735 O 0.46017 0.75062 0.27026
 O736 O 0.46455 0.72437 0.26730
 O737 O 0.49932 0.76992 0.29041
 O738 O 0.52702 0.76898 0.28508
 O739 O 0.48058 0.79046 0.25113
 O740 O 0.48123 0.78513 0.22362
 O741 O 0.46009 0.76933 0.25171
 O742 O 0.46575 0.76782 0.22310
 O743 O 0.49921 0.79062 0.26962
 O744 O 0.52756 0.78472 0.26797
 O745 O 0.48053 0.75154 0.29034
 O746 O 0.48567 0.72357 0.28528
 O747 O 0.54163 0.74895 0.23087
 O748 O 0.53581 0.77639 0.23212
 O749 O 0.50161 0.73070 0.20873
 O750 O 0.47376 0.73313 0.21507
 O751 O 0.51990 0.70873 0.24879
 O752 O 0.51651 0.71491 0.27658
 Zr753 Zr 0.51912 0.73113 0.25838
 O754 O 0.50573 0.74499 0.27318
 Zr755 Zr 0.49211 0.73133 0.23109
 O756 O 0.47738 0.74471 0.24502
 Zr757 Zr 0.51924 0.75847 0.23136
 O758 O 0.50550 0.77330 0.24485
 Zr759 Zr 0.48233 0.74111 0.26847
 O760 O 0.49565 0.72605 0.25458
 Zr761 Zr 0.50926 0.76851 0.26832
 O762 O 0.52420 0.75472 0.25481
 Zr763 Zr 0.48204 0.76826 0.24130
 O764 O 0.49580 0.75488 0.22614
 O765 O 0.51539 0.73506 0.23500
 O766 O 0.48586 0.76467 0.26473
 C767 C 0.54809 0.73803 0.23861
 C768 C 0.51181 0.70215 0.23825
 C769 C 0.51230 0.73865 0.20226
 C770 C 0.45376 0.76166 0.26272
 C771 C 0.48820 0.76249 0.29674
 C772 C 0.48818 0.79695 0.26206
 H773 H 0.50819 0.74245 0.28404
 H774 H 0.50795 0.78416 0.24226
 H775 H 0.52195 0.72844 0.22840
 H776 H 0.46654 0.74205 0.24271
 H777 H 0.46945 0.71458 0.26398
 H778 H 0.46785 0.71551 0.23786
 H779 H 0.52579 0.79184 0.25922
 H780 H 0.54109 0.77552 0.24221
 H781 H 0.47690 0.72399 0.29260
 H782 H 0.52468 0.70693 0.27565
 H783 H 0.49100 0.79100 0.22399
 H784 H 0.50875 0.77608 0.20981
 H785 H 0.54083 0.74262 0.27530
 H786 H 0.52623 0.75940 0.29127
 H787 H 0.47560 0.74261 0.20894
 H788 H 0.45852 0.75919 0.22507
 O789 O 0.04132 0.73023 0.74923
 O790 O 0.03633 0.73209 0.77553
 O791 O 0.00083 0.70896 0.73043
 O792 O -0.02450 0.71360 0.72968
 O793 O 0.02001 0.74977 0.70899
 O794 O 0.01885 0.77667 0.71490
 O795 O -0.04007 0.75058 0.77032
 O796 O -0.03564 0.72435 0.76718
 O797 O -0.00100 0.76982 0.79063
 O798 O 0.02672 0.76897 0.78531
 O799 O -0.01976 0.79055 0.75147
 O800 O -0.01907 0.78547 0.72397
 O801 O -0.04017 0.76938 0.75186
 O802 O -0.03441 0.76802 0.72321
 O803 O -0.00116 0.79064 0.77000
 O804 O 0.02721 0.78485 0.76833
 O805 O -0.01975 0.75139 0.79042
 O806 O -0.01454 0.72347 0.78520
 O807 O 0.04144 0.74933 0.73105
 O808 O 0.03554 0.77675 0.73240
 O809 O 0.00151 0.73108 0.70873
 O810 O -0.02637 0.73346 0.71502
 O811 O 0.01975 0.70894 0.74868
 O812 O 0.01633 0.71495 0.77651
 Zr813 Zr 0.01892 0.73128 0.75840
 O814 O 0.00548 0.74502 0.77326
 Zr815 Zr -0.00805 0.73159 0.73107
 O816 O -0.02283 0.74485 0.74506
 Zr817 Zr 0.01903 0.75878 0.73153
 O818 O 0.00523 0.77350 0.74510
 Zr819 Zr -0.01790 0.74111 0.76849
 O820 O -0.00453 0.72617 0.75453
 Zr821 Zr 0.00897 0.76857 0.76854
 O822 O 0.02395 0.75490 0.75496
 Zr823 Zr -0.01820 0.76843 0.74148
 O824 O -0.00440 0.75518 0.72625
 O825 O 0.01522 0.73534 0.73503
 O826 O -0.01442 0.76470 0.76490
 C827 C 0.04790 0.73838 0.73873
 C828 C 0.01168 0.70240 0.73810
 C829 C 0.01222 0.73906 0.70232
 C830 C -0.04650 0.76165 0.76282
 C831 C -0.01212 0.76233 0.79690
 C832 C -0.01222 0.79698 0.76248
 H833 H 0.00794 0.74242 0.78410
 H834 H 0.00766 0.78438 0.74259
 H835 H 0.02181 0.72877 0.72841
 H836 H -0.03366 0.74219 0.74272
 H837 H -0.03072 0.71457 0.76383
 H838 H -0.03229 0.71568 0.73772
 H839 H 0.02542 0.79204 0.75963
 H840 H 0.04077 0.77587 0.74252
 H841 H -0.02333 0.72382 0.79250
 H842 H 0.02450 0.70699 0.77553
 H843 H -0.00924 0.79125 0.72429
 H844 H 0.00854 0.77644 0.71002
 H845 H 0.04057 0.74272 0.77542
 H846 H 0.02592 0.75937 0.79146
 H847 H -0.02450 0.74296 0.70892
 H848 H -0.04168 0.75943 0.72516
 O849 O -0.00107 -0.02021 -0.04109
 O850 O 0.02522 -0.01806 -0.03612
 O851 O -0.01954 -0.04163 -0.00060
 O852 O -0.02015 -0.03705 0.02479
 O853 O -0.04134 -0.00099 -0.01969
 O854 O -0.03566 0.02593 -0.01855
 O855 O 0.02008 0.00031 0.04042
 O856 O 0.01716 -0.02594 0.03595
 O857 O 0.04006 0.01980 0.00133
 O858 O 0.03469 0.01883 -0.02648
 O859 O 0.00088 0.04013 0.02012
 O860 O -0.02664 0.03474 0.01937
 O861 O 0.00152 0.01898 0.04054
 O862 O -0.02706 0.01741 0.03487
 O863 O 0.01929 0.04040 0.00145
 O864 O 0.01762 0.03459 -0.02695
 O865 O 0.04006 0.00137 0.02009
 O866 O 0.03512 -0.02662 0.01482
 O867 O -0.01942 -0.00130 -0.04118
 O868 O -0.01820 0.02616 -0.03528
 O869 O -0.04138 -0.01969 -0.00119
 O870 O -0.03502 -0.01732 0.02671
 O871 O -0.00133 -0.04148 -0.01952
 O872 O 0.02640 -0.03523 -0.01612
 Zr873 Zr 0.00817 -0.01906 -0.01868
 O874 O 0.02294 -0.00519 -0.00520
 Zr875 Zr -0.01904 -0.01901 0.00836
 O876 O -0.00514 -0.00562 0.02316
 Zr877 Zr -0.01890 0.00820 -0.01874
 O878 O -0.00544 0.02303 -0.00492
 Zr879 Zr 0.01827 -0.00915 0.01821
 O880 O 0.00442 -0.02421 0.00480
 Zr881 Zr 0.01800 0.01831 -0.00869
 O882 O 0.00452 0.00453 -0.02370
 Zr883 Zr -0.00892 0.01793 0.01855
 O884 O -0.02406 0.00454 0.00472
 O885 O -0.01518 -0.01521 -0.01495
 O886 O 0.01447 0.01441 0.01473
 C887 C -0.01168 -0.01220 -0.04766
 C888 C -0.01184 -0.04811 -0.01147
 C889 C -0.04788 -0.01175 -0.01189
 C890 C 0.01255 0.01133 0.04686
 C891 C 0.04640 0.01238 0.01248
 C892 C 0.01177 0.04666 0.01254
 H893 H 0.03378 -0.00770 -0.00767
 H894 H -0.00805 0.03389 -0.00735
 H895 H -0.02177 -0.02183 -0.02153
 H896 H -0.00742 -0.00831 0.03401
 H897 H 0.01389 -0.03574 0.03101
 H898 H -0.01220 -0.03483 0.03265
 H899 H 0.00883 0.04166 -0.02519
 H900 H -0.00813 0.02531 -0.04057
 H901 H 0.04242 -0.02620 0.02363
 H902 H 0.02548 -0.04318 -0.02434
 H903 H -0.02623 0.04070 0.00964
 H904 H -0.04042 0.02572 -0.00818
 H905 H 0.02496 -0.00744 -0.04039
 H906 H 0.04095 0.00931 -0.02564
 H907 H -0.04117 -0.00784 0.02490
 H908 H -0.02507 0.00876 0.04206
 O909 O 0.00096 0.54118 0.51990
 O910 O -0.02532 0.53626 0.51783
 O911 O 0.01943 0.50038 0.54103
 O912 O 0.02002 0.47497 0.53631
 O913 O 0.04116 0.51969 0.50055
 O914 O 0.03541 0.51876 0.47372
 O915 O -0.02037 0.45961 0.49901
 O916 O -0.01740 0.46394 0.52523
 O917 O -0.04031 0.49900 0.47984
 O918 O -0.03491 0.52682 0.48092
 O919 O -0.00123 0.48013 0.45941
 O920 O 0.02628 0.48077 0.46472
 O921 O -0.00184 0.45955 0.48039
 O922 O 0.02676 0.46517 0.48195
 O923 O -0.01961 0.49890 0.45928
 O924 O -0.01780 0.52737 0.46523
 O925 O -0.04032 0.48007 0.49809
 O926 O -0.03531 0.48517 0.52603
 O927 O 0.01926 0.54132 0.50101
 O928 O 0.01799 0.53555 0.47361
 O929 O 0.04122 0.50103 0.51911
 O930 O 0.03478 0.47308 0.51660
 O931 O 0.00128 0.51942 0.54103
 O932 O -0.02649 0.51608 0.53481
 Zr933 Zr -0.00830 0.51872 0.51867
 O934 O -0.02312 0.50534 0.50478
 Zr935 Zr 0.01886 0.49154 0.51842
 O936 O 0.00490 0.47682 0.50501
 Zr937 Zr 0.01870 0.51887 0.49144
 O938 O 0.00518 0.50513 0.47658
 Zr939 Zr -0.01850 0.48183 0.50858
 O940 O -0.00459 0.49514 0.52366
 Zr941 Zr -0.01823 0.50896 0.48135
 O942 O -0.00470 0.52388 0.49517
 Zr943 Zr 0.00864 0.48156 0.48154
 O944 O 0.02383 0.49531 0.49495
 O945 O 0.01504 0.51494 0.51477
 O946 O -0.01474 0.48544 0.48510
 C947 C 0.01154 0.54778 0.51191
 C948 C 0.01177 0.51126 0.54757
 C949 C 0.04773 0.51178 0.51122
 C950 C -0.01286 0.45319 0.48799
 C951 C -0.04666 0.48779 0.48716
 C952 C -0.01214 0.48778 0.45296
 H953 H -0.03395 0.50783 0.50730
 H954 H 0.00777 0.50762 0.46576
 H955 H 0.02165 0.52149 0.52140
 H956 H 0.00716 0.46592 0.50762
 H957 H -0.01410 0.46883 0.53502
 H958 H 0.01198 0.46717 0.53412
 H959 H -0.00911 0.52555 0.45809
 H960 H 0.00793 0.54087 0.47449
 H961 H -0.04264 0.47638 0.52557
 H962 H -0.02554 0.52426 0.54280
 H963 H 0.02591 0.49058 0.45887
 H964 H 0.04014 0.50834 0.47383
 H965 H -0.02511 0.54059 0.50725
 H966 H -0.04111 0.52598 0.49045
 H967 H 0.04092 0.47495 0.50716
 H968 H 0.02476 0.45789 0.49053
 O969 O 0.45876 -0.00107 0.48031
 O970 O 0.46377 0.02527 0.48237
 O971 O 0.49913 -0.01971 0.45882
 O972 O 0.52447 -0.02047 0.46334
 O973 O 0.48016 -0.04157 0.49940
 O974 O 0.48140 -0.03588 0.52625
 O975 O 0.54024 0.02000 0.50053
 O976 O 0.53569 0.01707 0.47435
 O977 O 0.50128 0.04013 0.52002
 O978 O 0.47352 0.03475 0.51920
 O979 O 0.52017 0.00076 0.54027
 O980 O 0.51936 -0.02685 0.53495
 O981 O 0.54044 0.00134 0.51912
 O982 O 0.53470 -0.02738 0.51755
 O983 O 0.50157 0.01931 0.54058
 O984 O 0.47316 0.01760 0.53493
 O985 O 0.51995 0.04009 0.50159
 O986 O 0.51459 0.03511 0.47370
 O987 O 0.45871 -0.01948 0.49919
 O988 O 0.46474 -0.01831 0.52654
 O989 O 0.49857 -0.04165 0.48070
 O990 O 0.52646 -0.03531 0.48303
 O991 O 0.48022 -0.00144 0.45900
 O992 O 0.48370 0.02641 0.46522
 Zr993 Zr 0.48116 0.00812 0.48136
 O994 O 0.49467 0.02293 0.49515
 Zr995 Zr 0.50813 -0.01925 0.48136
 O996 O 0.52297 -0.00531 0.49465
 Zr997 Zr 0.48117 -0.01905 0.50856
 O998 O 0.49505 -0.00556 0.52332
 Zr999 Zr 0.51803 0.01820 0.49114
 O1000 O 0.50459 0.00432 0.47616
 Zr1001 Zr 0.49129 0.01798 0.51861
 O1002 O 0.47624 0.00447 0.50491
 Zr1003 Zr 0.51847 -0.00911 0.51815
 O1004 O 0.50458 -0.02428 0.50485
 O1005 O 0.48487 -0.01533 0.48521
 O1006 O 0.51465 0.01439 0.51464
 C1007 C 0.45220 -0.01168 0.48835
 C1008 C 0.48825 -0.01198 0.45237
 C1009 C 0.48791 -0.04816 0.48865
 C1010 C 0.54672 0.01242 0.51150
 C1011 C 0.51238 0.04648 0.51259
 C1012 C 0.51268 0.01175 0.54678
 H1013 H 0.49220 0.03382 0.49266
 H1014 H 0.49268 -0.00817 0.53416
 H1015 H 0.47826 -0.02193 0.47862
 H1016 H 0.53379 -0.00762 0.49194
 H1017 H 0.53073 0.01377 0.46460
 H1018 H 0.53228 -0.01242 0.46544
 H1019 H 0.47500 0.00883 0.54203
 H1020 H 0.45950 -0.00818 0.52574
 H1021 H 0.52337 0.04244 0.47409
 H1022 H 0.47548 0.02550 0.45730
 H1023 H 0.50965 -0.02645 0.54089
 H1024 H 0.49176 -0.04068 0.52603
 H1025 H 0.45957 0.02507 0.49298
 H1026 H 0.47432 0.04103 0.50970
 H1027 H 0.52465 -0.04151 0.49246
 H1028 H 0.54191 -0.02535 0.50896
 O1029 O 0.50076 0.54101 0.02040
 O1030 O 0.47448 0.53607 0.01837
 O1031 O 0.51927 0.50019 0.04151
 O1032 O 0.51984 0.47478 0.03677
 O1033 O 0.54095 0.51955 0.00103
 O1034 O 0.53517 0.51858 -0.02582
 O1035 O 0.47945 0.45944 -0.00049
 O1036 O 0.48243 0.46376 0.02571
 O1037 O 0.45945 0.49884 -0.01962
 O1038 O 0.46484 0.52665 -0.01853
 O1039 O 0.49858 0.48004 -0.04013
 O1040 O 0.52609 0.48066 -0.03477
 O1041 O 0.49795 0.45940 -0.01915
 O1042 O 0.52650 0.46498 -0.01762
 O1043 O 0.48019 0.49881 -0.04023
 O1044 O 0.48192 0.52724 -0.03421
 O1045 O 0.45946 0.47991 -0.00136
 O1046 O 0.46453 0.48498 0.02657
 O1047 O 0.51904 0.54116 0.00149
 O1048 O 0.51778 0.53541 -0.02589
 O1049 O 0.54104 0.50087 0.01957
 O1050 O 0.53461 0.47293 0.01704
 O1051 O 0.50112 0.51924 0.04153
 O1052 O 0.47336 0.51590 0.03537
 Zr1053 Zr 0.49151 0.51854 0.01918
 O1054 O 0.47668 0.50517 0.00531
 Zr1055 Zr 0.51867 0.49137 0.01889
 O1056 O 0.50470 0.47666 0.00548
 Zr1057 Zr 0.51848 0.51871 -0.00807
 O1058 O 0.50495 0.50499 -0.02292
 Zr1059 Zr 0.48130 0.48166 0.00908
 O1060 O 0.49523 0.49496 0.02416
 Zr1061 Zr 0.48153 0.50880 -0.01813
 O1062 O 0.49509 0.52372 -0.00432
 Zr1063 Zr 0.50842 0.48141 -0.01799
 O1064 O 0.52362 0.49515 -0.00458
 O1065 O 0.51485 0.51477 0.01526
 O1066 O 0.48504 0.48528 -0.01440
 C1067 C 0.51133 0.54762 0.01239
 C1068 C 0.51162 0.51108 0.04806
 C1069 C 0.54753 0.51163 0.01169
 C1070 C 0.48695 0.45303 -0.01153
 C1071 C 0.45310 0.48764 -0.01228
 C1072 C 0.48770 0.48773 -0.04658
 H1073 H 0.46585 0.50766 0.00784
 H1074 H 0.50753 0.50749 -0.03374
 H1075 H 0.52146 0.52133 0.02189
 H1076 H 0.50697 0.46576 0.00809
 H1077 H 0.48577 0.46864 0.03550
 H1078 H 0.51184 0.46695 0.03455
 H1079 H 0.49065 0.52549 -0.04131
 H1080 H 0.50772 0.54072 -0.02501
 H1081 H 0.45719 0.47619 0.02610
 H1082 H 0.47432 0.52409 0.04335
 H1083 H 0.52569 0.49045 -0.04066
 H1084 H 0.53994 0.50818 -0.02566
 H1085 H 0.47467 0.54040 0.00780
 H1086 H 0.45865 0.52581 -0.00899
 H1087 H 0.54072 0.47479 0.00757
 H1088 H 0.52456 0.45775 -0.00900
 O1089 O 0.77018 0.29139 0.49941
 O1090 O 0.76816 0.28642 0.52573
 O1091 O 0.79116 0.25062 0.48081
 O1092 O 0.78643 0.22518 0.48027
 O1093 O 0.75078 0.27000 0.45910
 O1094 O 0.72395 0.26904 0.46484
 O1095 O 0.74922 0.20984 0.52063
 O1096 O 0.77540 0.21411 0.51766
 O1097 O 0.73020 0.24924 0.54066
 O1098 O 0.73136 0.27709 0.53525
 O1099 O 0.70967 0.23046 0.50146
 O1100 O 0.71496 0.23114 0.47389
 O1101 O 0.73058 0.20983 0.50206
 O1102 O 0.73205 0.21544 0.47346
 O1103 O 0.70962 0.24921 0.51990
 O1104 O 0.71561 0.27764 0.51820
 O1105 O 0.74840 0.23028 0.54064
 O1106 O 0.77630 0.23532 0.53562
 O1107 O 0.75128 0.29158 0.48107
 O1108 O 0.72393 0.28586 0.48227
 O1109 O 0.76926 0.25130 0.45902
 O1110 O 0.76671 0.22336 0.46539
 O1111 O 0.79122 0.26964 0.49902
 O1112 O 0.78511 0.26625 0.52684
 Zr1113 Zr 0.76893 0.26892 0.50864
 O1114 O 0.75508 0.25555 0.52346
 Zr1115 Zr 0.76858 0.24178 0.48140
 O1116 O 0.75519 0.22706 0.49535
 Zr1117 Zr 0.74169 0.26914 0.48158
 O1118 O 0.72686 0.25543 0.49510
 Zr1119 Zr 0.75881 0.23204 0.51879
 O1120 O 0.77388 0.24533 0.50489
 Zr1121 Zr 0.73168 0.25921 0.51856
 O1122 O 0.74547 0.27413 0.50502
 Zr1123 Zr 0.73176 0.23185 0.49160
 O1124 O 0.74514 0.24558 0.47641
 O1125 O 0.76498 0.26517 0.48526
 O1126 O 0.73537 0.23569 0.51502
 C1127 C 0.76219 0.29801 0.48881
 C1128 C 0.79771 0.26152 0.48846
 C1129 C 0.76142 0.26209 0.45253
 C1130 C 0.73818 0.20345 0.51310
 C1131 C 0.73752 0.23802 0.54701
 C1132 C 0.70327 0.23812 0.51238
 H1133 H 0.75763 0.25802 0.53431
 H1134 H 0.71605 0.25794 0.49251
 H1135 H 0.77159 0.27173 0.47865
 H1136 H 0.75777 0.21616 0.49306
 H1137 H 0.78517 0.21898 0.51433
 H1138 H 0.78416 0.21730 0.48821
 H1139 H 0.70850 0.27590 0.50944
 H1140 H 0.72479 0.29114 0.49237
 H1141 H 0.77584 0.22652 0.54295
 H1142 H 0.79310 0.27441 0.52588
 H1143 H 0.70909 0.24093 0.47432
 H1144 H 0.72409 0.25864 0.46005
 H1145 H 0.75761 0.29078 0.52551
 H1146 H 0.74084 0.27618 0.54152
 H1147 H 0.75725 0.22523 0.45928
 H1148 H 0.74065 0.20818 0.47542
 O1149 O 0.75057 0.77100 -0.04169
 O1150 O 0.72429 0.76905 -0.03668
 O1151 O 0.76933 0.79218 -0.00111
 O1152 O 0.76995 0.78751 0.02426
 O1153 O 0.79080 0.75146 -0.02034
 O1154 O 0.78496 0.72459 -0.01933
 O1155 O 0.72951 0.75032 0.03975
 O1156 O 0.73258 0.77657 0.03540
 O1157 O 0.70932 0.73114 0.00054
 O1158 O 0.71462 0.73211 -0.02720
 O1159 O 0.74847 0.71047 0.01929
 O1160 O 0.77598 0.71572 0.01857
 O1161 O 0.74798 0.73157 0.03981
 O1162 O 0.77653 0.73297 0.03415
 O1163 O 0.73000 0.71038 0.00062
 O1164 O 0.73165 0.71632 -0.02777
 O1165 O 0.70946 0.74951 0.01937
 O1166 O 0.71459 0.77746 0.01426
 O1167 O 0.76881 0.75198 -0.04184
 O1168 O 0.76747 0.72451 -0.03602
 O1169 O 0.79100 0.77010 -0.00176
 O1170 O 0.78469 0.76768 0.02612
 O1171 O 0.75110 0.79221 -0.02006
 O1172 O 0.72332 0.78616 -0.01662
 Zr1173 Zr 0.74141 0.76986 -0.01926
 O1174 O 0.72660 0.75603 -0.00586
 Zr1175 Zr 0.76868 0.76954 0.00777
 O1176 O 0.75473 0.75618 0.02251
 Zr1177 Zr 0.76831 0.74243 -0.01943
 O1178 O 0.75479 0.72762 -0.00567
 Zr1179 Zr 0.73133 0.75986 0.01757
 O1180 O 0.74524 0.77490 0.00424
 Zr1181 Zr 0.73138 0.73250 -0.00943
 O1182 O 0.74490 0.74626 -0.02437
 Zr1183 Zr 0.75837 0.73263 0.01782
 O1184 O 0.77355 0.74597 0.00404
 O1185 O 0.76475 0.76584 -0.01555
 O1186 O 0.73498 0.73629 0.01401
 C1187 C 0.76110 0.76293 -0.04828
 C1188 C 0.76167 0.79874 -0.01198
 C1189 C 0.79743 0.76215 -0.01249
 C1190 C 0.73702 0.73926 0.04616
 C1191 C 0.70303 0.73858 0.01169
 C1192 C 0.73753 0.70402 0.01168
 H1193 H 0.71577 0.75861 -0.00832
 H1194 H 0.75733 0.71676 -0.00814
 H1195 H 0.77136 0.77244 -0.02212
 H1196 H 0.75706 0.75882 0.03337
 H1197 H 0.73590 0.78637 0.03051
 H1198 H 0.76199 0.78533 0.03210
 H1199 H 0.74035 0.70914 -0.02600
 H1200 H 0.75740 0.72543 -0.04131
 H1201 H 0.70731 0.77707 0.02306
 H1202 H 0.72428 0.79414 -0.02480
 H1203 H 0.77555 0.70983 0.00880
 H1204 H 0.78975 0.72471 -0.00896
 H1205 H 0.72446 0.75845 -0.04099
 H1206 H 0.70849 0.74171 -0.02639
 H1207 H 0.79077 0.75817 0.02428
 H1208 H 0.77462 0.74163 0.04136
 O1209 O 1.04125 0.22928 0.24936
 O1210 O 1.03632 0.23123 0.27568
 O1211 O 1.00071 0.20805 0.23070
 O1212 O 0.97536 0.21270 0.23010
 O1213 O 1.01987 0.24870 0.20911
 O1214 O 1.01879 0.27562 0.21489
 O1215 O 0.95998 0.24989 0.27063
 O1216 O 0.96434 0.22363 0.26757
 O1217 O 0.99913 0.26916 0.29070
 O1218 O 1.02685 0.26820 0.28532
 O1219 O 0.98031 0.28974 0.25155
 O1220 O 0.98088 0.28455 0.22406
 O1221 O 0.95986 0.26863 0.25212
 O1222 O 0.96549 0.26713 0.22343
 O1223 O 0.99898 0.28986 0.27001
 O1224 O 1.02734 0.28398 0.26825
 O1225 O 0.98034 0.25077 0.29063
 O1226 O 0.98550 0.22280 0.28553
 O1227 O 1.04136 0.24829 0.23108
 O1228 O 1.03552 0.27574 0.23238
 O1229 O 1.00131 0.23006 0.20896
 O1230 O 0.97346 0.23252 0.21533
 O1231 O 1.01967 0.20804 0.24890
 O1232 O 1.01629 0.21414 0.27674
 Zr1233 Zr 1.01888 0.23041 0.25858
 O1234 O 1.00552 0.24424 0.27343
 Zr1235 Zr 0.99182 0.23068 0.23133
 O1236 O 0.97712 0.24402 0.24532
 Zr1237 Zr 1.01897 0.25781 0.23160
 O1238 O 1.00524 0.27261 0.24515
 Zr1239 Zr 0.98212 0.24037 0.26875
 O1240 O 0.99541 0.22534 0.25480
 Zr1241 Zr 1.00905 0.26777 0.26860
 O1242 O 1.02396 0.25400 0.25504
 Zr1243 Zr 0.98178 0.26758 0.24164
 O1244 O 0.99552 0.25424 0.22641
 O1245 O 1.01511 0.23440 0.23522
 O1246 O 0.98565 0.26393 0.26505
 C1247 C 1.04781 0.23735 0.23878
 C1248 C 1.01159 0.20150 0.23833
 C1249 C 1.01203 0.23799 0.20250
 C1250 C 0.95356 0.26096 0.26314
 C1251 C 0.98800 0.26174 0.29703
 C1252 C 0.98790 0.29619 0.26250
 H1253 H 1.00800 0.24168 0.28428
 H1254 H 1.00768 0.28348 0.24259
 H1255 H 1.02167 0.22780 0.22860
 H1256 H 0.96627 0.24138 0.24303
 H1257 H 0.96923 0.21384 0.26424
 H1258 H 0.96757 0.21486 0.23812
 H1259 H 1.02552 0.29117 0.25955
 H1260 H 1.04080 0.27486 0.24247
 H1261 H 0.97673 0.22319 0.29284
 H1262 H 1.02443 0.20614 0.27576
 H1263 H 0.99073 0.29030 0.22431
 H1264 H 1.00844 0.27542 0.21008
 H1265 H 1.04061 0.24184 0.27551
 H1266 H 1.02604 0.25862 0.29152
 H1267 H 0.97531 0.24201 0.20921
 H1268 H 0.95821 0.25857 0.22546
 O1269 O 0.74925 1.04138 0.72965
 O1270 O 0.77557 1.03655 0.73159
 O1271 O 0.73079 1.00059 0.70852
 O1272 O 0.73041 0.97513 0.71315
 O1273 O 0.70922 1.01969 0.74910
 O1274 O 0.71510 1.01866 0.77594
 O1275 O 0.77095 0.95985 0.75019
 O1276 O 0.76786 0.96425 0.72401
 O1277 O 0.79087 0.99926 0.76941
 O1278 O 0.78537 1.02708 0.76841
 O1279 O 0.75193 0.98023 0.79000
 O1280 O 0.72442 0.98073 0.78480
 O1281 O 0.75253 0.95967 0.76893
 O1282 O 0.72391 0.96518 0.76753
 O1283 O 0.77024 0.99908 0.79008
 O1284 O 0.76836 1.02752 0.78418
 O1285 O 0.79085 0.98038 0.75109
 O1286 O 0.78569 0.98554 0.72319
 O1287 O 0.73103 1.04139 0.74862
 O1288 O 0.73244 1.03558 0.77599
 O1289 O 0.70915 1.00106 0.73051
 O1290 O 0.71568 0.97314 0.73294
 O1291 O 0.74888 1.01970 0.70849
 O1292 O 0.77669 1.01643 0.71452
 Zr1293 Zr 0.75860 1.01896 0.73078
 O1294 O 0.77354 1.00561 0.74456
 Zr1295 Zr 0.73155 0.99166 0.73109
 O1296 O 0.74562 0.97697 0.74440
 Zr1297 Zr 0.73173 1.01893 0.75814
 O1298 O 0.74537 1.00522 0.77289
 Zr1299 Zr 0.76898 0.98209 0.74072
 O1300 O 0.75495 0.99537 0.72574
 Zr1301 Zr 0.76875 1.00915 0.76803
 O1302 O 0.75509 1.02405 0.75431
 Zr1303 Zr 0.74198 0.98164 0.76790
 O1304 O 0.72667 0.99535 0.75459
 O1305 O 0.73530 1.01507 0.73479
 O1306 O 0.76532 0.98563 0.76423
 C1307 C 0.73867 1.04791 0.73770
 C1308 C 0.73835 1.01154 0.70198
 C1309 C 0.70265 1.01178 0.73843
 C1310 C 0.76352 0.95338 0.76124
 C1311 C 0.79722 0.98810 0.76202
 C1312 C 0.76282 0.98794 0.79642
 H1313 H 0.78435 1.00815 0.74199
 H1314 H 0.74282 1.00767 0.78373
 H1315 H 0.72863 1.02161 0.72821
 H1316 H 0.74338 0.96607 0.74177
 H1317 H 0.76446 0.96916 0.71426
 H1318 H 0.73840 0.96730 0.71535
 H1319 H 0.75966 1.02570 0.79131
 H1320 H 0.74248 1.04094 0.77509
 H1321 H 0.79305 0.97678 0.72360
 H1322 H 0.77567 1.02463 0.70657
 H1323 H 0.72474 0.99055 0.79064
 H1324 H 0.71035 1.00825 0.77575
 H1325 H 0.77540 1.04085 0.74217
 H1326 H 0.79155 1.02626 0.75887
 H1327 H 0.70959 0.97496 0.74242
 H1328 H 0.72589 0.95793 0.75892
 O1329 O 0.70937 0.52004 0.24829
 O1330 O 0.71445 0.51814 0.27456
 O1331 O 0.74986 0.54131 0.22952
 O1332 O 0.77519 0.53665 0.22885
 O1333 O 0.73059 0.50066 0.20794
 O1334 O 0.73167 0.47374 0.21372
 O1335 O 0.79075 0.49943 0.26934
 O1336 O 0.78640 0.52569 0.26628
 O1337 O 0.75172 0.48017 0.28949
 O1338 O 0.72399 0.48113 0.28420
 O1339 O 0.77032 0.45959 0.25025
 O1340 O 0.76961 0.46483 0.22276
 O1341 O 0.79077 0.48068 0.25083
 O1342 O 0.78503 0.48222 0.22216
 O1343 O 0.75175 0.45947 0.26876
 O1344 O 0.72337 0.46538 0.26710
 O1345 O 0.77049 0.49857 0.28937
 O1346 O 0.76533 0.52654 0.28430
 O1347 O 0.70918 0.50104 0.23000
 O1348 O 0.71503 0.47362 0.23121
 O1349 O 0.74916 0.51928 0.20777
 O1350 O 0.77704 0.51683 0.21410
 O1351 O 0.73097 0.54131 0.24776
 O1352 O 0.73450 0.53521 0.27558
 Zr1353 Zr 0.73181 0.51894 0.25742
 O1354 O 0.74523 0.50510 0.27224
 Zr1355 Zr 0.75873 0.51867 0.23012
 O1356 O 0.77350 0.50532 0.24407
 Zr1357 Zr 0.73158 0.49155 0.23044
 O1358 O 0.74537 0.47674 0.24395
 Zr1359 Zr 0.76861 0.50897 0.26750
 O1360 O 0.75526 0.52401 0.25360
 Zr1361 Zr 0.74168 0.48157 0.26741
 O1362 O 0.72671 0.49535 0.25389
 Zr1363 Zr 0.76882 0.48176 0.24038
 O1364 O 0.75501 0.49511 0.22520
 O1365 O 0.73545 0.51496 0.23405
 O1366 O 0.76506 0.48540 0.26380
 C1367 C 0.70275 0.51195 0.23776
 C1368 C 0.73902 0.54786 0.23719
 C1369 C 0.73842 0.51136 0.20132
 C1370 C 0.79713 0.48834 0.26185
 C1371 C 0.76288 0.48760 0.29578
 C1372 C 0.76277 0.45313 0.26121
 H1373 H 0.74280 0.50766 0.28309
 H1374 H 0.74291 0.46587 0.24138
 H1375 H 0.72886 0.52156 0.22745
 H1376 H 0.78434 0.50796 0.24175
 H1377 H 0.78150 0.53549 0.26297
 H1378 H 0.78303 0.53449 0.23685
 H1379 H 0.72515 0.45819 0.25840
 H1380 H 0.70982 0.47445 0.24133
 H1381 H 0.77413 0.52613 0.29160
 H1382 H 0.72635 0.54321 0.27463
 H1383 H 0.75978 0.45905 0.22306
 H1384 H 0.74200 0.47394 0.20887
 H1385 H 0.71021 0.50751 0.27445
 H1386 H 0.72482 0.49071 0.29038
 H1387 H 0.77516 0.50735 0.20797
 H1388 H 0.79235 0.49076 0.22420
 O1389 O 0.45871 0.25026 0.77079
 O1390 O 0.46370 0.22390 0.76868
 O1391 O 0.49925 0.26889 0.79209
 O1392 O 0.52459 0.26946 0.78747
 O1393 O 0.48005 0.29079 0.75165
 O1394 O 0.48104 0.28515 0.72481
 O1395 O 0.54002 0.22919 0.75005
 O1396 O 0.53566 0.23203 0.77629
 O1397 O 0.50088 0.20915 0.73070
 O1398 O 0.47315 0.21447 0.73173
 O1399 O 0.51958 0.24854 0.71047
 O1400 O 0.51885 0.27616 0.71591
 O1401 O 0.54006 0.24788 0.73148
 O1402 O 0.53442 0.27655 0.73313
 O1403 O 0.50093 0.23004 0.71022
 O1404 O 0.47257 0.23170 0.71613
 O1405 O 0.51972 0.20911 0.74900
 O1406 O 0.51456 0.21397 0.77695
 O1407 O 0.45856 0.26873 0.75197
 O1408 O 0.46435 0.26760 0.72458
 O1409 O 0.49863 0.29082 0.77024
 O1410 O 0.52646 0.28444 0.76781
 O1411 O 0.48032 0.25061 0.79198
 O1412 O 0.48376 0.22275 0.78573
 Zr1413 Zr 0.48111 0.24105 0.76961
 O1414 O 0.49448 0.22626 0.75570
 Zr1415 Zr 0.50812 0.26839 0.76951
 O1416 O 0.52282 0.25447 0.75609
 Zr1417 Zr 0.48094 0.26828 0.74246
 O1418 O 0.49466 0.25481 0.72759
 Zr1419 Zr 0.51788 0.23095 0.75957
 O1420 O 0.50458 0.24481 0.77467
 Zr1421 Zr 0.49089 0.23127 0.73227
 O1422 O 0.47599 0.24476 0.74610
 Zr1423 Zr 0.51812 0.25833 0.73263
 O1424 O 0.50438 0.27348 0.74605
 O1425 O 0.48483 0.26451 0.76579
 O1426 O 0.51430 0.23483 0.73610
 C1427 C 0.45212 0.26091 0.76281
 C1428 C 0.48839 0.26118 0.79857
 C1429 C 0.48792 0.29735 0.76236
 C1430 C 0.54640 0.23679 0.73906
 C1431 C 0.51207 0.20278 0.73802
 C1432 C 0.51199 0.23761 0.70395
 H1433 H 0.49202 0.21537 0.75817
 H1434 H 0.49219 0.25745 0.71678
 H1435 H 0.47827 0.27111 0.77241
 H1436 H 0.53367 0.25677 0.75874
 H1437 H 0.53076 0.23528 0.78608
 H1438 H 0.53242 0.26149 0.78522
 H1439 H 0.47436 0.24047 0.70902
 H1440 H 0.45909 0.25747 0.72541
 H1441 H 0.52334 0.20665 0.77649
 H1442 H 0.47561 0.22366 0.79370
 H1443 H 0.50913 0.27572 0.70996
 H1444 H 0.49141 0.28992 0.72496
 H1445 H 0.45943 0.22411 0.75809
 H1446 H 0.47399 0.20819 0.74124
 H1447 H 0.52463 0.29062 0.75837
 H1448 H 0.54165 0.27453 0.74173
 O1449 O 0.25092 0.77044 0.45840
 O1450 O 0.22464 0.76849 0.46333
 O1451 O 0.26954 0.79179 0.49895
 O1452 O 0.27022 0.78720 0.52432
 O1453 O 0.29109 0.75100 0.47987
 O1454 O 0.28526 0.72412 0.48102
 O1455 O 0.22973 0.75011 0.53989
 O1456 O 0.23278 0.77634 0.53542
 O1457 O 0.20958 0.73075 0.50073
 O1458 O 0.21493 0.73158 0.47300
 O1459 O 0.24869 0.71017 0.51964
 O1460 O 0.27623 0.71542 0.51894
 O1461 O 0.24820 0.73136 0.54006
 O1462 O 0.27675 0.73273 0.53443
 O1463 O 0.23024 0.71000 0.50096
 O1464 O 0.23198 0.71579 0.47253
 O1465 O 0.20970 0.74919 0.51949
 O1466 O 0.21483 0.77713 0.51425
 O1467 O 0.26913 0.75140 0.45834
 O1468 O 0.26779 0.72397 0.46428
 O1469 O 0.29126 0.76972 0.49837
 O1470 O 0.28492 0.76739 0.52627
 O1471 O 0.25135 0.79175 0.47998
 O1472 O 0.22357 0.78566 0.48334
 Zr1473 Zr 0.24170 0.76938 0.48081
 O1474 O 0.22687 0.75560 0.49425
 Zr1475 Zr 0.26893 0.76917 0.50788
 O1476 O 0.25496 0.75589 0.52266
 Zr1477 Zr 0.26860 0.74195 0.48080
 O1478 O 0.25507 0.72721 0.49461
 Zr1479 Zr 0.23157 0.75954 0.51767
 O1480 O 0.24550 0.77452 0.50429
 Zr1481 Zr 0.23166 0.73206 0.49079
 O1482 O 0.24520 0.74576 0.47581
 Zr1483 Zr 0.25861 0.73232 0.51808
 O1484 O 0.27381 0.74560 0.50426
 O1485 O 0.26504 0.76539 0.48457
 O1486 O 0.23523 0.73596 0.51422
 C1487 C 0.26145 0.76233 0.45185
 C1488 C 0.26188 0.79832 0.48807
 C1489 C 0.29771 0.76173 0.48769
 C1490 C 0.23723 0.73907 0.54636
 C1491 C 0.20328 0.73822 0.51185
 C1492 C 0.23775 0.70370 0.51206
 H1493 H 0.21604 0.75817 0.49176
 H1494 H 0.25761 0.71633 0.49219
 H1495 H 0.27165 0.77197 0.47799
 H1496 H 0.25727 0.75858 0.53351
 H1497 H 0.23611 0.78611 0.53049
 H1498 H 0.26218 0.78510 0.53211
 H1499 H 0.24065 0.70860 0.47438
 H1500 H 0.25772 0.72485 0.45898
 H1501 H 0.20753 0.77676 0.52303
 H1502 H 0.22454 0.79361 0.47514
 H1503 H 0.27576 0.70942 0.50923
 H1504 H 0.29002 0.72429 0.49141
 H1505 H 0.22482 0.75787 0.45907
 H1506 H 0.20879 0.74119 0.47375
 H1507 H 0.29100 0.75787 0.52446
 H1508 H 0.27485 0.74143 0.54159
 O1509 O 0.29065 0.25107 0.98000
 O1510 O 0.28563 0.22470 0.98204
 O1511 O 0.25012 0.26975 0.95875
 O1512 O 0.22480 0.27041 0.96339
 O1513 O 0.26940 0.29155 0.99923
 O1514 O 0.26835 0.28583 1.02610
 O1515 O 0.20931 0.23001 1.00065
 O1516 O 0.21367 0.23294 0.97444
 O1517 O 0.24841 0.20985 1.01994
 O1518 O 0.27618 0.21518 1.01889
 O1519 O 0.22979 0.24922 1.04033
 O1520 O 0.23052 0.27684 1.03498
 O1521 O 0.20929 0.24862 1.01930
 O1522 O 0.21497 0.27730 1.01773
 O1523 O 0.24841 0.23069 1.04050
 O1524 O 0.27673 0.23232 1.03462
 O1525 O 0.22959 0.20990 1.00161
 O1526 O 0.23474 0.21488 0.97369
 O1527 O 0.29083 0.26948 0.99889
 O1528 O 0.28504 0.26830 1.02625
 O1529 O 0.25084 0.29165 0.98063
 O1530 O 0.22298 0.28533 0.98311
 O1531 O 0.26903 0.25147 0.95881
 O1532 O 0.26556 0.22361 0.96499
 Zr1533 Zr 0.26825 0.24187 0.98116
 O1534 O 0.25485 0.22705 0.99501
 Zr1535 Zr 0.24128 0.26924 0.98133
 O1536 O 0.22655 0.25530 0.99471
 Zr1537 Zr 0.26845 0.26902 1.00838
 O1538 O 0.25471 0.25552 1.02320
 Zr1539 Zr 0.23146 0.23179 0.99114
 O1540 O 0.24478 0.24568 0.97609
 Zr1541 Zr 0.25843 0.23198 1.01845
 O1542 O 0.27336 0.24550 1.00467
 Zr1543 Zr 0.23125 0.25907 1.01819
 O1544 O 0.24502 0.27425 1.00481
 O1545 O 0.26456 0.26532 0.98505
 O1546 O 0.23503 0.23558 1.01463
 C1547 C 0.29726 0.26169 0.98801
 C1548 C 0.26096 0.26204 0.95224
 C1549 C 0.26158 0.29814 0.98852
 C1550 C 0.20294 0.23757 1.01168
 C1551 C 0.23724 0.20352 1.01257
 C1552 C 0.23737 0.23826 1.04680
 H1553 H 0.25728 0.21617 0.99249
 H1554 H 0.25718 0.25812 1.03403
 H1555 H 0.27113 0.27192 0.97843
 H1556 H 0.21571 0.25761 0.99206
 H1557 H 0.21856 0.23625 0.96467
 H1558 H 0.21695 0.26244 0.96562
 H1559 H 0.27500 0.24113 1.04171
 H1560 H 0.29027 0.25816 1.02543
 H1561 H 0.22596 0.20755 0.97413
 H1562 H 0.27371 0.22453 0.95702
 H1563 H 0.24028 0.27643 1.04087
 H1564 H 0.25801 0.29066 1.02590
 H1565 H 0.28990 0.22488 0.99263
 H1566 H 0.27526 0.20888 1.00941
 H1567 H 0.22485 0.29148 0.99257
 H1568 H 0.20775 0.27532 1.00912
 C1569 C 0.28493 0.38183 0.78413
 N1570 N 0.27234 0.38855 0.79053
 N1571 N 0.26760 0.40241 0.78572
 C1572 C 0.27530 0.40995 0.77438
 N1573 N 0.28787 0.40322 0.76798
 N1574 N 0.29261 0.38937 0.77278
 C1575 C 0.29037 0.36719 0.78971
 C1576 C 0.29511 0.35502 0.79459
 C1577 C 0.27054 0.42511 0.76961
 C1578 C 0.26671 0.43796 0.76579
 C1579 C 0.28496 -0.11972 0.28331
 N1580 N 0.27257 -0.11291 0.29000
 N1581 N 0.26772 -0.09909 0.28520
 C1582 C 0.27510 -0.09167 0.27356
 N1583 N 0.28747 -0.09850 0.26686
 N1584 N 0.29232 -0.11231 0.27166
 C1585 C 0.29065 -0.13423 0.28900
 C1586 C 0.29563 -0.14623 0.29403
 C1587 C 0.27038 -0.07645 0.26895
 C1588 C 0.26668 -0.06350 0.26535
 C1589 C 0.78655 0.88203 0.78399
 N1590 N 0.79514 0.89033 0.77387
 N1591 N 0.79033 0.90413 0.76899
 C1592 C 0.77680 0.91006 0.77409
 N1593 N 0.76820 0.90176 0.78419
 N1594 N 0.77301 0.88795 0.78907
 C1595 C 0.79203 0.86746 0.78970
 C1596 C 0.79680 0.85537 0.79472
 C1597 C 0.77192 0.92517 0.76931
 C1598 C 0.76799 0.93799 0.76550
 C1599 C 0.46569 0.86869 0.28412
 N1600 N 0.45863 0.86148 0.27215
 N1601 N 0.46337 0.84758 0.26748
 C1602 C 0.47532 0.84047 0.27467
 N1603 N 0.48240 0.84768 0.28663
 N1604 N 0.47765 0.86158 0.29129
 C1605 C 0.46021 0.88337 0.28953
 C1606 C 0.45542 0.89556 0.29429
 C1607 C 0.48006 0.82527 0.27001
 C1608 C 0.48386 0.81239 0.26628
 C1609 C -0.03555 0.86806 0.78570
 N1610 N -0.02242 0.86181 0.79147
 N1611 N -0.01750 0.84807 0.78653
 C1612 C -0.02557 0.84017 0.77567
 N1613 N -0.03869 0.84644 0.76989
 N1614 N -0.04360 0.86017 0.77483
 C1615 C -0.04118 0.88257 0.79144
 C1616 C -0.04610 0.89462 0.79643
 C1617 C -0.02061 0.82512 0.77079
 C1618 C -0.01666 0.81234 0.76688
 C1619 C -0.03331 -0.12009 -0.03364
 N1620 N -0.02138 -0.11283 -0.04067
 N1621 N -0.01666 -0.09900 -0.03576
 C1622 C -0.02372 -0.09202 -0.02367
 N1623 N -0.03563 -0.09931 -0.01661
 N1624 N -0.04035 -0.11313 -0.02152
 C1625 C -0.03893 -0.13458 -0.03945
 C1626 C -0.04392 -0.14655 -0.04456
 C1627 C -0.01922 -0.07676 -0.01897
 C1628 C -0.01571 -0.06377 -0.01535
 C1629 C -0.03585 0.38196 0.46475
 N1630 N -0.04295 0.38904 0.47676
 N1631 N -0.03811 0.40282 0.48170
 C1632 C -0.02601 0.40992 0.47478
 N1633 N -0.01890 0.40283 0.46278
 N1634 N -0.02375 0.38906 0.45784
 C1635 C -0.04145 0.36742 0.45904
 C1636 C -0.04633 0.35534 0.45406
 C1637 C -0.02118 0.42501 0.47970
 C1638 C -0.01728 0.43782 0.48362
 C1639 C 0.46598 -0.12005 0.46661
 N1640 N 0.45838 -0.11261 0.47809
 N1641 N 0.46315 -0.09879 0.48297
 C1642 C 0.47567 -0.09200 0.47651
 N1643 N 0.48329 -0.09945 0.46506
 N1644 N 0.47851 -0.11327 0.46018
 C1645 C 0.46036 -0.13454 0.46081
 C1646 C 0.45541 -0.14653 0.45570
 C1647 C 0.48030 -0.07676 0.48117
 C1648 C 0.48392 -0.06379 0.48477
 C1649 C 0.46435 0.38152 -0.03435
 N1650 N 0.47679 0.38837 -0.04089
 N1651 N 0.48153 0.40222 -0.03605
 C1652 C 0.47397 0.40963 -0.02453
 N1653 N 0.46154 0.40276 -0.01797
 N1654 N 0.45681 0.38892 -0.02281
 C1655 C 0.45890 0.36687 -0.03994
 C1656 C 0.45413 0.35471 -0.04482
 C1657 C 0.47873 0.42478 -0.01971
 C1658 C 0.48257 0.43762 -0.01586
 C1659 C 0.78454 0.36957 0.46627
 N1660 N 0.79181 0.36236 0.47811
 N1661 N 0.78691 0.34863 0.48309
 C1662 C 0.77459 0.34170 0.47639
 N1663 N 0.76729 0.34893 0.46456
 N1664 N 0.77219 0.36266 0.45958
 C1665 C 0.79033 0.38394 0.46035
 C1666 C 0.79544 0.39580 0.45514
 C1667 C 0.76987 0.32653 0.48115
 C1668 C 0.76620 0.31360 0.48483
 C1669 C 0.78401 0.87055 -0.03382
 N1670 N 0.79114 0.86332 -0.02190
 N1671 N 0.78624 0.84953 -0.01707
 C1672 C 0.77407 0.84255 -0.02401
 N1673 N 0.76693 0.84980 -0.03592
 N1674 N 0.77182 0.86359 -0.04075
 C1675 C 0.78979 0.88500 -0.03954
 C1676 C 0.79487 0.89695 -0.04460
 C1677 C 0.76936 0.82733 -0.01940
 C1678 C 0.76568 0.81437 -0.01583
 C1679 C 0.78373 0.28426 0.38102
 N1680 N 0.77238 0.29201 0.38850
 N1681 N 0.76743 0.28716 0.40222
 C1682 C 0.77367 0.27441 0.40888
 N1683 N 0.78499 0.26665 0.40139
 N1684 N 0.78994 0.27150 0.38766
 C1685 C 0.78962 0.28996 0.36664
 C1686 C 0.79482 0.29497 0.35476
 C1687 C 0.76897 0.26972 0.42404
 C1688 C 0.76533 0.26607 0.43695
 C1689 C 0.78343 0.78492 -0.11983
 N1690 N 0.78964 0.77216 -0.11316
 N1691 N 0.78469 0.76735 -0.09942
 C1692 C 0.77338 0.77515 -0.09194
 N1693 N 0.76716 0.78789 -0.09863
 N1694 N 0.77210 0.79270 -0.11237
 C1695 C 0.78933 0.79057 -0.13422
 C1696 C 0.79454 0.79555 -0.14611
 C1697 C 0.76868 0.77051 -0.07677
 C1698 C 0.76504 0.76688 -0.06385
 C1699 C 0.28516 0.46536 0.86764
 N1700 N 0.29157 0.47793 0.86081
 N1701 N 0.28658 0.48273 0.84707
 C1702 C 0.27503 0.47511 0.83974
 N1703 N 0.26861 0.46255 0.84658
 N1704 N 0.27360 0.45775 0.86032
 C1705 C 0.29095 0.45982 0.88213
 C1706 C 0.29598 0.45495 0.89416
 C1707 C 0.27009 0.47989 0.82467
 C1708 C 0.26618 0.48373 0.81188
 C1709 C 0.28389 -0.03270 0.36971
 N1710 N 0.29121 -0.02104 0.36224
 N1711 N 0.28644 -0.01647 0.34835
 C1712 C 0.27421 -0.02344 0.34150
 N1713 N 0.26687 -0.03509 0.34898
 N1714 N 0.27164 -0.03965 0.36287
 C1715 C 0.28949 -0.03812 0.38433
 C1716 C 0.29439 -0.04292 0.39644
 C1717 C 0.26957 -0.01906 0.32621
 C1718 C 0.26595 -0.01562 0.31322
 C1719 C -0.03420 -0.03466 -0.11908
 N1720 N -0.04106 -0.02243 -0.11210
 N1721 N -0.03611 -0.01749 -0.09839
 C1722 C -0.02415 -0.02463 -0.09126
 N1723 N -0.01727 -0.03684 -0.09826
 N1724 N -0.02222 -0.04178 -0.11196
 C1725 C -0.04004 -0.04048 -0.13346
 C1726 C -0.04517 -0.04560 -0.14534
 C1727 C -0.01939 -0.01987 -0.07612
 C1728 C -0.01570 -0.01619 -0.06322
 C1729 C -0.03559 0.46437 0.38211
 N1730 N -0.02323 0.45763 0.38895
 N1731 N -0.01822 0.46263 0.40262
 C1732 C -0.02542 0.47451 0.40985
 N1733 N -0.03776 0.48126 0.40300
 N1734 N -0.04277 0.47627 0.38934
 C1735 C -0.04137 0.45858 0.36771
 C1736 C -0.04642 0.45352 0.35576
 C1737 C -0.02045 0.47944 0.42486
 C1738 C -0.01652 0.48337 0.43762
 C1739 C 0.46670 -0.03334 0.38032
 N1740 N 0.45975 -0.02122 0.38740
 N1741 N 0.46447 -0.01655 0.40128
 C1742 C 0.47629 -0.02385 0.40849
 N1743 N 0.48326 -0.03595 0.40139
 N1744 N 0.47853 -0.04062 0.38751
 C1745 C 0.46111 -0.03887 0.36574
 C1746 C 0.45618 -0.04376 0.35368
 C1747 C 0.48084 -0.01935 0.42376
 C1748 C 0.48438 -0.01583 0.43675
 C1749 C 0.46508 0.46552 -0.11808
 N1750 N 0.47685 0.45814 -0.11087
 N1751 N 0.48168 0.46285 -0.09704
 C1752 C 0.47487 0.47507 -0.09000
 N1753 N 0.46311 0.48247 -0.09721
 N1754 N 0.45828 0.47776 -0.11104
 C1755 C 0.45944 0.46003 -0.13264
 C1756 C 0.45451 0.45517 -0.14472
 C1757 C 0.47964 0.47974 -0.07484
 C1758 C 0.48344 0.48348 -0.06199
 C1759 C 0.46551 0.78518 0.36804
 N1760 N 0.45890 0.77273 0.36117
 N1761 N 0.46368 0.76800 0.34734
 C1762 C 0.47520 0.77558 0.33996
 N1763 N 0.48182 0.78801 0.34684
 N1764 N 0.47704 0.79274 0.36067
 C1765 C 0.45998 0.79061 0.38266
 C1766 C 0.45515 0.79535 0.39481
 C1767 C 0.47999 0.77080 0.32486
 C1768 C 0.48384 0.76693 0.31207
 C1769 C -0.03507 0.78470 0.86821
 N1770 N -0.04263 0.77326 0.86062
 N1771 N -0.03780 0.76856 0.84679
 C1772 C -0.02528 0.77516 0.84015
 N1773 N -0.01772 0.78659 0.84775
 N1774 N -0.02254 0.79129 0.86157
 C1775 C -0.04060 0.79015 0.88283
 C1776 C -0.04542 0.79492 0.89497
 C1777 C -0.02042 0.77046 0.82504
 C1778 C -0.01652 0.76667 0.81224
 C1779 C 0.38247 0.78442 0.28503
 N1780 N 0.38998 0.77312 0.29286
 N1781 N 0.40379 0.76827 0.28819
 C1782 C 0.41049 0.77458 0.27554
 N1783 N 0.40298 0.78588 0.26770
 N1784 N 0.38917 0.79072 0.27238
 C1785 C 0.36788 0.79005 0.29041
 C1786 C 0.35576 0.79495 0.29511
 C1787 C 0.42560 0.76977 0.27084
 C1788 C 0.43840 0.76595 0.26705
 C1789 C -0.11766 0.78459 0.78526
 N1790 N -0.10995 0.77365 0.79340
 N1791 N -0.09618 0.76872 0.78870
 C1792 C -0.08972 0.77459 0.77571
 N1793 N -0.09745 0.78551 0.76756
 N1794 N -0.11122 0.79043 0.77226
 C1795 C -0.13219 0.79035 0.79067
 C1796 C -0.14423 0.79540 0.79540
 C1797 C -0.07464 0.76974 0.77099
 C1798 C -0.06185 0.76591 0.76717
 C1799 C 0.86907 0.28377 0.46606
 N1800 N 0.86211 0.29067 0.47825
 N1801 N 0.84843 0.28572 0.48318
 C1802 C 0.84130 0.27371 0.47606
 N1803 N 0.84827 0.26678 0.46389
 N1804 N 0.86196 0.27174 0.45896
 C1805 C 0.88340 0.28964 0.46024
 C1806 C 0.89524 0.29481 0.45513
 C1807 C 0.82617 0.26899 0.48078
 C1808 C 0.81327 0.26537 0.48446
 C1809 C 0.86925 0.78353 -0.03432
 N1810 N 0.86106 0.79225 -0.02423
 N1811 N 0.84724 0.78759 -0.01943
 C1812 C 0.84119 0.77406 -0.02455
 N1813 N 0.84939 0.76532 -0.03461
 N1814 N 0.86322 0.76998 -0.03943
 C1815 C 0.88378 0.78895 -0.04006
 C1816 C 0.89580 0.79379 -0.04507
 C1817 C 0.82597 0.76948 -0.01999
 C1818 C 0.81302 0.76595 -0.01642
 C1819 C -0.11953 -0.03363 -0.03399
 N1820 N -0.11243 -0.04075 -0.02199
 N1821 N -0.09866 -0.03595 -0.01715
 C1822 C -0.09156 -0.02387 -0.02416
 N1823 N -0.09867 -0.01673 -0.03615
 N1824 N -0.11245 -0.02153 -0.04099
 C1825 C -0.13399 -0.03930 -0.03970
 C1826 C -0.14596 -0.04430 -0.04474
 C1827 C -0.07638 -0.01925 -0.01950
 C1828 C -0.06345 -0.01565 -0.01586
 C1829 C -0.11736 0.46474 0.46315
 N1830 N -0.11478 0.46713 0.47840
 N1831 N -0.10105 0.47198 0.48333
 C1832 C -0.08949 0.47459 0.47313
 N1833 N -0.09207 0.47221 0.45788
 N1834 N -0.10580 0.46736 0.45297
 C1835 C -0.13199 0.45915 0.45781
 C1836 C -0.14412 0.45426 0.45308
 C1837 C -0.07457 0.47945 0.47839
 C1838 C -0.06190 0.48336 0.48254
 C1839 C 0.38020 -0.03288 0.46673
 N1840 N 0.38729 -0.02073 0.45984
 N1841 N 0.40116 -0.01611 0.46459
 C1842 C 0.40835 -0.02350 0.47638
 N1843 N 0.40124 -0.03564 0.48329
 N1844 N 0.38737 -0.04026 0.47853
 C1845 C 0.36562 -0.03835 0.46111
 C1846 C 0.35355 -0.04319 0.45618
 C1847 C 0.42361 -0.01904 0.48096
 C1848 C 0.43659 -0.01555 0.48451
 C1849 C 0.38216 0.46489 -0.03589
 N1850 N 0.38948 0.47674 -0.04306
 N1851 N 0.40321 0.48154 -0.03809
 C1852 C 0.41004 0.47463 -0.02581
 N1853 N 0.40271 0.46279 -0.01863
 N1854 N 0.38898 0.45799 -0.02360
 C1855 C 0.36764 0.45934 -0.04159
 C1856 C 0.35558 0.45447 -0.04652
 C1857 C 0.42507 0.47942 -0.02081
 C1858 C 0.43781 0.48327 -0.01681
 C1859 C 0.36693 0.46439 0.78603
 N1860 N 0.36582 0.47482 0.77438
 N1861 N 0.35206 0.47965 0.76953
 C1862 C 0.33900 0.47419 0.77618
 N1863 N 0.34012 0.46377 0.78782
 N1864 N 0.35388 0.45894 0.79267
 C1865 C 0.38170 0.45912 0.79130
 C1866 C 0.39393 0.45446 0.79597
 C1867 C 0.32414 0.47928 0.77100
 C1868 C 0.31150 0.48333 0.76688
 C1869 C 0.37003 -0.03266 0.28289
 N1870 N 0.36305 -0.03950 0.27065
 N1871 N 0.34922 -0.03473 0.26594
 C1872 C 0.34195 -0.02298 0.27331
 N1873 N 0.34894 -0.01612 0.28553
 N1874 N 0.36277 -0.02088 0.29025
 C1875 C 0.38452 -0.03834 0.28849
 C1876 C 0.39650 -0.04337 0.29345
 C1877 C 0.32670 -0.01846 0.26879
 C1878 C 0.31371 -0.01498 0.26527
 C1879 C 0.12983 0.53319 0.71704
 N1880 N 0.13724 0.54084 0.72853
 N1881 N 0.15115 0.53625 0.73319
 C1882 C 0.15806 0.52388 0.72652
 N1883 N 0.15063 0.51621 0.71506
 N1884 N 0.13673 0.52080 0.71039
 C1885 C 0.11522 0.53861 0.71149
 C1886 C 0.10312 0.54340 0.70658
 C1887 C 0.17335 0.51943 0.73100
 C1888 C 0.18634 0.51594 0.73449
 C1889 C 0.13218 0.03423 0.21489
 N1890 N 0.13918 0.02193 0.20818
 N1891 N 0.15292 0.01715 0.21312
 C1892 C 0.16009 0.02454 0.22493
 N1893 N 0.15308 0.03683 0.23165
 N1894 N 0.13934 0.04160 0.22671
 C1895 C 0.11768 0.03976 0.20915
 C1896 C 0.10564 0.04461 0.20414
 C1897 C 0.17518 0.01981 0.22981
 C1898 C 0.18798 0.01603 0.23366
 C1899 C 0.61976 0.71651 0.21646
 N1900 N 0.61250 0.70892 0.22806
 N1901 N 0.59871 0.71360 0.23294
 C1902 C 0.59177 0.72603 0.22637
 N1903 N 0.59905 0.73364 0.21480
 N1904 N 0.61283 0.72895 0.20991
 C1905 C 0.63423 0.71098 0.21067
 C1906 C 0.64619 0.70611 0.20556
 C1907 C 0.57658 0.73056 0.23106
 C1908 C 0.56365 0.73412 0.23468
 C1909 C 0.11962 0.71708 0.71657
 N1910 N 0.11249 0.72924 0.70975
 N1911 N 0.09870 0.73391 0.71464
 C1912 C 0.09163 0.72655 0.72650
 N1913 N 0.09878 0.71440 0.73335
 N1914 N 0.11257 0.70974 0.72846
 C1915 C 0.13409 0.71154 0.71078
 C1916 C 0.14605 0.70664 0.70569
 C1917 C 0.07642 0.73103 0.73119
 C1918 C 0.06348 0.73453 0.73481
 C1919 C 0.63244 0.21507 0.53574
 N1920 N 0.63952 0.22723 0.54265
 N1921 N 0.65318 0.23215 0.53765
 C1922 C 0.66017 0.22506 0.52558
 N1923 N 0.65308 0.21291 0.51865
 N1924 N 0.63942 0.20800 0.52365
 C1925 C 0.61805 0.20936 0.54154
 C1926 C 0.60612 0.20434 0.54659
 C1927 C 0.67518 0.22991 0.52064
 C1928 C 0.68794 0.23378 0.51673
 C1929 C 0.63186 0.71576 0.03432
 N1930 N 0.63896 0.72779 0.04141
 N1931 N 0.65275 0.73259 0.03666
 C1932 C 0.65986 0.72549 0.02466
 N1933 N 0.65275 0.71346 0.01755
 N1934 N 0.63895 0.70867 0.02231
 C1935 C 0.61727 0.71023 0.03981
 C1936 C 0.60516 0.70542 0.04463
 C1937 C 0.67494 0.73030 0.01989
 C1938 C 0.68771 0.73417 0.01605
 C1939 C 0.11685 0.03611 0.03654
 N1940 N 0.10969 0.02407 0.04355
 N1941 N 0.09609 0.01907 0.03843
 C1942 C 0.08924 0.02595 0.02615
 N1943 N 0.09641 0.03798 0.01913
 N1944 N 0.11002 0.04298 0.02425
 C1945 C 0.13121 0.04188 0.04243
 C1946 C 0.14312 0.04691 0.04754
 C1947 C 0.07431 0.02097 0.02105
 C1948 C 0.06163 0.01695 0.01700
 C1949 C 0.11963 0.53350 0.53260
 N1950 N 0.11278 0.52113 0.53936
 N1951 N 0.09895 0.51637 0.53466
 C1952 C 0.09154 0.52383 0.52305
 N1953 N 0.09841 0.53617 0.51627
 N1954 N 0.11224 0.54094 0.52097
 C1955 C 0.13415 0.53913 0.53821
 C1956 C 0.14614 0.54409 0.54319
 C1957 C 0.07630 0.51924 0.51856
 C1958 C 0.06333 0.51566 0.51506
 C1959 C 0.61775 0.03570 0.53429
 N1960 N 0.61021 0.04333 0.52288
 N1961 N 0.59649 0.03841 0.51800
 C1962 C 0.58989 0.02571 0.52439
 N1963 N 0.59744 0.01807 0.53579
 N1964 N 0.61117 0.02299 0.54066
 C1965 C 0.63224 0.04136 0.53997
 C1966 C 0.64425 0.04627 0.54495
 C1967 C 0.57484 0.02078 0.51958
 C1968 C 0.56207 0.01685 0.51577
 C1969 C 0.61939 0.53368 0.03290
 N1970 N 0.61243 0.52157 0.04001
 N1971 N 0.59861 0.51673 0.03536
 C1972 C 0.59132 0.52384 0.02346
 N1973 N 0.59829 0.53592 0.01633
 N1974 N 0.61212 0.54077 0.02098
 C1975 C 0.63390 0.53940 0.03842
 C1976 C 0.64590 0.54443 0.04333
 C1977 C 0.57608 0.51917 0.01901
 C1978 C 0.56313 0.51555 0.01552
 C1979 C 0.03574 0.03413 0.11802
 N1980 N 0.04336 0.02273 0.11046
 N1981 N 0.03846 0.01787 0.09670
 C1982 C 0.02580 0.02426 0.09010
 N1983 N 0.01817 0.03565 0.09767
 N1984 N 0.02307 0.04051 0.11142
 C1985 C 0.04137 0.03978 0.13254
 C1986 C 0.04627 0.04473 0.14460
 C1987 C 0.02089 0.01946 0.07502
 C1988 C 0.01697 0.01563 0.06223
 C1989 C 0.03306 0.53244 0.61977
 N1990 N 0.04086 0.52117 0.61219
 N1991 N 0.03624 0.51649 0.59828
 C1992 C 0.02367 0.52292 0.59154
 N1993 N 0.01585 0.53416 0.59914
 N1994 N 0.02047 0.53885 0.61304
 C1995 C 0.03851 0.53803 0.63439
 C1996 C 0.04332 0.54296 0.64648
 C1997 C 0.01918 0.51846 0.57624
 C1998 C 0.01565 0.51500 0.56323
 C1999 C 0.53684 0.03510 0.61745
 N2000 N 0.54465 0.03887 0.60444
 N2001 N 0.53973 0.03400 0.59071
 C2002 C 0.52684 0.02521 0.58956
 N2003 N 0.51901 0.02142 0.60256
 N2004 N 0.52394 0.02630 0.61631
 C2005 C 0.54212 0.04055 0.63217
 C2006 C 0.54678 0.04538 0.64437
 C2007 C 0.52153 0.02016 0.57470
 C2008 C 0.51733 0.01617 0.56205
 C2009 C 0.53311 0.53226 0.12020
 N2010 N 0.52077 0.53899 0.11332
 N2011 N 0.51609 0.53430 0.09944
 C2012 C 0.52360 0.52274 0.09201
 N2013 N 0.53593 0.51599 0.09889
 N2014 N 0.54061 0.52068 0.11278
 C2015 C 0.53865 0.53785 0.13478
 C2016 C 0.54354 0.54279 0.14684
 C2017 C 0.51908 0.51827 0.07671
 C2018 C 0.51553 0.51481 0.06371
 C2019 C 0.21633 0.53292 0.62988
 N2020 N 0.22873 0.53955 0.63675
 N2021 N 0.23342 0.53477 0.65060
 C2022 C 0.22586 0.52323 0.65800
 N2023 N 0.21347 0.51658 0.65112
 N2024 N 0.20878 0.52135 0.63727
 C2025 C 0.21078 0.53862 0.61536
 C2026 C 0.20588 0.54367 0.60335
 C2027 C 0.23039 0.51869 0.67327
 C2028 C 0.23394 0.51520 0.68626
 C2029 C 0.21292 0.03557 0.13274
 N2030 N 0.22597 0.04152 0.13900
 N2031 N 0.23110 0.03645 0.15259
 C2032 C 0.22334 0.02527 0.16033
 N2033 N 0.21030 0.01930 0.15407
 N2034 N 0.20517 0.02437 0.14048
 C2035 C 0.20707 0.04145 0.11841
 C2036 C 0.20200 0.04659 0.10651
 C2037 C 0.22850 0.02027 0.17525
 C2038 C 0.23264 0.01631 0.18793
 C2039 C 0.71394 0.21493 0.61788
 N2040 N 0.72655 0.20845 0.61128
 N2041 N 0.73151 0.21333 0.59757
 C2042 C 0.72400 0.22485 0.59005
 N2043 N 0.71141 0.23134 0.59665
 N2044 N 0.70645 0.22646 0.61036
 C2045 C 0.70828 0.20928 0.63237
 C2046 C 0.70337 0.20432 0.64440
 C2047 C 0.72899 0.22971 0.57503
 C2048 C 0.73300 0.23361 0.56230
 C2049 C 0.71478 0.71649 0.11757
 N2050 N 0.72714 0.70988 0.11066
 N2051 N 0.73180 0.71472 0.09683
 C2052 C 0.72423 0.72631 0.08949
 N2053 N 0.71187 0.73294 0.09641
 N2054 N 0.70722 0.72810 0.11024
 C2055 C 0.70941 0.71089 0.13219
 C2056 C 0.70474 0.70598 0.14434
 C2057 C 0.72890 0.73113 0.07436
 C2058 C 0.73269 0.73496 0.06154
 C2059 C 0.53408 0.71720 0.13037
 N2060 N 0.54147 0.72888 0.13776
 N2061 N 0.53670 0.73361 0.15159
 C2062 C 0.52440 0.72680 0.15844
 N2063 N 0.51699 0.71514 0.15103
 N2064 N 0.52176 0.71042 0.13720
 C2065 C 0.53971 0.71157 0.11586
 C2066 C 0.54466 0.70657 0.10387
 C2067 C 0.51980 0.73131 0.17368
 C2068 C 0.51622 0.73482 0.18665
 C2069 C 0.03423 0.71735 0.63058
 N2070 N 0.04188 0.72876 0.63812
 N2071 N 0.03710 0.73358 0.65191
 C2072 C 0.02451 0.72713 0.65858
 N2073 N 0.01684 0.71574 0.65103
 N2074 N 0.02163 0.71092 0.63723
 C2075 C 0.03985 0.71162 0.61610
 C2076 C 0.04480 0.70656 0.60413
 C2077 C 0.01986 0.73172 0.67379
 C2078 C 0.01622 0.73525 0.68673
 C2079 C 0.53307 0.62985 0.21693
 N2080 N 0.52146 0.63722 0.20944
 N2081 N 0.51677 0.65114 0.21409
 C2082 C 0.52355 0.65812 0.22637
 N2083 N 0.53513 0.65074 0.23387
 N2084 N 0.53982 0.63682 0.22922
 C2085 C 0.53864 0.61523 0.21144
 C2086 C 0.54355 0.60312 0.20659
 C2087 C 0.51906 0.67344 0.23086
 C2088 C 0.51558 0.68647 0.23438
 C2089 C 0.03277 0.63012 0.71654
 N2090 N 0.03976 0.63716 0.72867
 N2091 N 0.03513 0.65109 0.73335
 C2092 C 0.02338 0.65840 0.72605
 N2093 N 0.01637 0.65136 0.71394
 N2094 N 0.02100 0.63743 0.70926
 C2095 C 0.03825 0.61547 0.71103
 C2096 C 0.04311 0.60334 0.70620
 C2097 C 0.01892 0.67372 0.73059
 C2098 C 0.01546 0.68674 0.73416
 C2099 C 0.03495 0.11788 0.03564
 N2100 N 0.04079 0.11147 0.02261
 N2101 N 0.03582 0.09771 0.01776
 C2102 C 0.02486 0.08994 0.02579
 N2103 N 0.01901 0.09636 0.03880
 N2104 N 0.02398 0.11012 0.04366
 C2105 C 0.04074 0.13240 0.04120
 C2106 C 0.04578 0.14445 0.04607
 C2107 C 0.01996 0.07486 0.02091
 C2108 C 0.01608 0.06205 0.01699
 C2109 C 0.03367 0.61965 0.53384
 N2110 N 0.04043 0.61266 0.52158
 N2111 N 0.03557 0.59884 0.51680
 C2112 C 0.02381 0.59159 0.52413
 N2113 N 0.01704 0.59859 0.53638
 N2114 N 0.02190 0.61242 0.54116
 C2115 C 0.03941 0.63417 0.53947
 C2116 C 0.04446 0.64619 0.54441
 C2117 C 0.01914 0.57635 0.51950
 C2118 C 0.01551 0.56339 0.51588
 C2119 C 0.53580 0.11747 0.53603
 N2120 N 0.54322 0.11008 0.52440
 N2121 N 0.53827 0.09634 0.51946
 C2122 C 0.52577 0.08960 0.52598
 N2123 N 0.51834 0.09701 0.53759
 N2124 N 0.52328 0.11074 0.54254
 C2125 C 0.54149 0.13196 0.54175
 C2126 C 0.54646 0.14399 0.54674
 C2127 C 0.52081 0.07456 0.52105
 C2128 C 0.51684 0.06180 0.51709
 C2129 C 0.53351 0.61963 0.03378
 N2130 N 0.52164 0.61254 0.04108
 N2131 N 0.51677 0.59867 0.03643
 C2132 C 0.52362 0.59149 0.02433
 N2133 N 0.53548 0.59860 0.01702
 N2134 N 0.54035 0.61246 0.02167
 C2135 C 0.53927 0.63418 0.03929
 C2136 C 0.54432 0.64622 0.04416
 C2137 C 0.51892 0.57622 0.01984
 C2138 C 0.51528 0.56324 0.01631
 C2139 C 0.71477 0.13221 0.53581
 N2140 N 0.70885 0.13876 0.52288
 N2141 N 0.71384 0.15254 0.51813
 C2142 C 0.72491 0.16018 0.52616
 N2143 N 0.73084 0.15361 0.53907
 N2144 N 0.72585 0.13984 0.54383
 C2145 C 0.70899 0.11765 0.54127
 C2146 C 0.70396 0.10556 0.54605
 C2147 C 0.72986 0.17527 0.52136
 C2148 C 0.73379 0.18807 0.51750
 C2149 C 0.71518 0.63234 0.03409
 N2150 N 0.70853 0.63920 0.02169
 N2151 N 0.71325 0.65309 0.01698
 C2152 C 0.72476 0.66054 0.02454
 N2153 N 0.73142 0.65368 0.03694
 N2154 N 0.72670 0.63978 0.04164
 C2155 C 0.70971 0.61765 0.03952
 C2156 C 0.70493 0.60545 0.04426
 C2157 C 0.72947 0.67573 0.01981
 C2158 C 0.73325 0.68859 0.01600
 C2159 C 0.21663 0.62003 0.71563
 N2160 N 0.22812 0.61256 0.70809
 N2161 N 0.23287 0.59870 0.71285
 C2162 C 0.22629 0.59189 0.72531
 N2163 N 0.21482 0.59937 0.73287
 N2164 N 0.21007 0.61323 0.72810
 C2165 C 0.21098 0.63458 0.71003
 C2166 C 0.20600 0.64663 0.70510
 C2167 C 0.23084 0.57662 0.72993
 C2168 C 0.23439 0.56364 0.73355
 C2169 C 0.21499 0.11776 0.21403
 N2170 N 0.22662 0.11044 0.20657
 N2171 N 0.23155 0.09666 0.21139
 C2172 C 0.22499 0.08978 0.22383
 N2173 N 0.21338 0.09711 0.23130
 N2174 N 0.20845 0.11089 0.22648
 C2175 C 0.20929 0.13231 0.20848
 C2176 C 0.20432 0.14439 0.20363
 C2177 C 0.22990 0.07469 0.22866
 C2178 C 0.23382 0.06189 0.23255
 C2179 C 0.71572 1.11943 0.71558
 N2180 N 0.72789 1.11252 0.70859
 N2181 N 0.73293 1.09880 0.71345
 C2182 C 0.72596 1.09157 0.72545
 N2183 N 0.71382 1.09849 0.73246
 N2184 N 0.70878 1.11222 0.72760
 C2185 C 0.70979 1.13381 0.70983
 C2186 C 0.70456 1.14569 0.70476
 C2187 C 0.73082 1.07641 0.73011
 C2188 C 0.73458 1.06349 0.73374
 C2189 C 0.71724 0.61983 0.21531
 N2190 N 0.72848 0.61224 0.20752
 N2191 N 0.73330 0.59840 0.21228
 C2192 C 0.72703 0.59174 0.22498
 N2193 N 0.71581 0.59934 0.23278
 N2194 N 0.71099 0.61318 0.22802
 C2195 C 0.71151 0.63436 0.20973
 C2196 C 0.70644 0.64638 0.20482
 C2197 C 0.73163 0.57648 0.22961
 C2198 C 0.73518 0.56350 0.23323
 C2199 C 0.53543 0.13210 0.71359
 N2200 N 0.53001 0.13375 0.72818
 N2201 N 0.52513 0.14749 0.73316
 C2202 C 0.52553 0.15999 0.72370
 N2203 N 0.53093 0.15833 0.70912
 N2204 N 0.53580 0.14460 0.70414
 C2205 C 0.54097 0.11742 0.70824
 C2206 C 0.54582 0.10524 0.70351
 C2207 C 0.52055 0.17487 0.72907
 C2208 C 0.51657 0.18753 0.73331
 C2209 C 1.03372 0.12989 0.21572
 N2210 N 1.04052 0.13679 0.22803
 N2211 N 1.03561 0.15052 0.23299
 C2212 C 1.02375 0.15777 0.22580
 N2213 N 1.01693 0.15086 0.21351
 N2214 N 1.02184 0.13712 0.20854
 C2215 C 1.03953 0.11550 0.20988
 C2216 C 1.04467 0.10360 0.20476
 C2217 C 1.01907 0.17295 0.23057
 C2218 C 1.01546 0.18589 0.23429
 C2219 C 0.21520 0.63230 0.53519
 N2220 N 0.21851 0.63481 0.52011
 N2221 N 0.22324 0.64870 0.51538
 C2222 C 0.22480 0.66049 0.52560
 N2223 N 0.22150 0.65797 0.54068
 N2224 N 0.21677 0.64409 0.54540
 C2225 C 0.20978 0.61748 0.54031
 C2226 C 0.20504 0.60519 0.54485
 C2227 C 0.22957 0.67555 0.52053
 C2228 C 0.23340 0.68833 0.51653
 C2229 C 0.21343 0.13281 1.03645
 N2230 N 0.22586 0.13961 1.04309
 N2231 N 0.23091 0.15327 1.03804
 C2232 C 0.22368 0.16053 1.02620
 N2233 N 0.21126 0.15371 1.01954
 N2234 N 0.20622 0.14006 1.02459
 C2235 C 0.20762 0.11841 1.04227
 C2236 C 0.20255 0.10647 1.04733
 C2237 C 0.22872 0.17551 1.02117
 C2238 C 0.23274 0.18823 1.01714
 C2239 C 0.21484 0.71661 0.61782
 N2240 N 0.22718 0.70993 0.61093
 N2241 N 0.23188 0.71471 0.59709
 C2242 C 0.22436 0.72632 0.58972
 N2243 N 0.21203 0.73302 0.59661
 N2244 N 0.20734 0.72823 0.61045
 C2245 C 0.20943 0.71106 0.63244
 C2246 C 0.20471 0.70619 0.64458
 C2247 C 0.22907 0.73107 0.57458
 C2248 C 0.23288 0.73485 0.56175
 C2249 C 0.21466 0.21502 1.11790
 N2250 N 0.20736 0.22690 1.11074
 N2251 N 0.21216 0.23187 1.09701
 C2252 C 0.22440 0.22511 1.09001
 N2253 N 0.23172 0.21325 1.09718
 N2254 N 0.22692 0.20828 1.11092
 C2255 C 0.20912 0.20926 1.13239
 C2256 C 0.20427 0.20422 1.14442
 C2257 C 0.22918 0.23004 1.07495
 C2258 C 0.23301 0.23393 1.06216
 C2259 C 0.71656 0.53338 0.12957
 N2260 N 0.70919 0.52160 0.13680
 N2261 N 0.71395 0.51673 0.15060
 C2262 C 0.72622 0.52349 0.15757
 N2263 N 0.73360 0.53526 0.15033
 N2264 N 0.72885 0.54013 0.13653
 C2265 C 0.71094 0.53915 0.11509
 C2266 C 0.70598 0.54423 0.10312
 C2267 C 0.73082 0.51883 0.17278
 C2268 C 0.73443 0.51523 0.18573
 C2269 C 0.71568 1.03376 0.63056
 N2270 N 0.70812 1.02228 0.63806
 N2271 N 0.71307 1.01733 0.65176
 C2272 C 0.72574 1.02371 0.65837
 N2273 N 0.73332 1.03517 0.65085
 N2274 N 0.72837 1.04012 0.63715
 C2275 C 0.70988 1.03964 0.61620
 C2276 C 0.70480 1.04484 0.60434
 C2277 C 0.73053 1.01902 0.67351
 C2278 C 0.73427 1.01541 0.68642
 C2279 C 0.53545 0.21481 0.63299
 N2280 N 0.54206 0.22722 0.63993
 N2281 N 0.53705 0.23208 0.65362
 C2282 C 0.52527 0.22469 0.66079
 N2283 N 0.51865 0.21230 0.65383
 N2284 N 0.52366 0.20743 0.64014
 C2285 C 0.54126 0.20918 0.61855
 C2286 C 0.54630 0.20422 0.60658
 C2287 C 0.52032 0.22950 0.67582
 C2288 C 0.51639 0.23333 0.68860
 C2289 C 1.03438 0.21581 0.13101
 N2290 N 1.02192 0.20920 0.13775
 N2291 N 1.01702 0.21411 0.15147
 C2292 C 1.02443 0.22578 0.15886
 N2293 N 1.03687 0.23241 0.15210
 N2294 N 1.04177 0.22750 0.13838
 C2295 C 1.04014 0.20998 0.11662
 C2296 C 1.04518 0.20483 0.10473
 C2297 C 1.01970 0.23046 0.17401
 C2298 C 1.01602 0.23408 0.18693
 C2299 C 0.61734 0.21414 0.71558
 N2300 N 0.61060 0.22685 0.70938
 N2301 N 0.59689 0.23161 0.71440
 C2302 C 0.58951 0.22380 0.72578
 N2303 N 0.59626 0.21110 0.73200
 N2304 N 0.60997 0.20634 0.72697
 C2305 C 0.63181 0.20865 0.70976
 C2306 C 0.64383 0.20384 0.70470
 C2307 C 0.57448 0.22857 0.73075
 C2308 C 0.56172 0.23241 0.73469
 C2309 C 1.11918 0.21518 0.21633
 N2310 N 1.11228 0.22759 0.20969
 N2311 N 1.09858 0.23245 0.21463
 C2312 C 1.09136 0.22506 0.22638
 N2313 N 1.09827 0.21267 0.23305
 N2314 N 1.11197 0.20780 0.22810
 C2315 C 1.13354 0.20945 0.21048
 C2316 C 1.14541 0.20441 0.20532
 C2317 C 1.07623 0.22974 0.23112
 C2318 C 1.06335 0.23338 0.23480
 C2319 C 0.13210 0.71553 0.53461
 N2320 N 0.13918 0.70838 0.52263
 N2321 N 0.15298 0.71314 0.51784
 C2322 C 0.16011 0.72519 0.52489
 N2323 N 0.15302 0.73235 0.53686
 N2324 N 0.13922 0.72759 0.54165
 C2325 C 0.11751 0.71005 0.54014
 C2326 C 0.10539 0.70527 0.54497
 C2327 C 0.17519 0.72997 0.52008
 C2328 C 0.18796 0.73383 0.51622
 C2329 C 0.13202 0.21429 1.03467
 N2330 N 0.13932 0.20693 1.02295
 N2331 N 0.15302 0.21186 1.01805
 C2332 C 0.15983 0.22430 1.02473
 N2333 N 0.15253 0.23167 1.03644
 N2334 N 0.13883 0.22674 1.04134
 C2335 C 0.11756 0.20861 1.04035
 C2336 C 0.10556 0.20367 1.04532
 C2337 C 0.17486 0.22922 1.01988
 C2338 C 0.18761 0.23315 1.01601
 C2339 C 0.63059 0.53314 0.21671
 N2340 N 0.63763 0.52105 0.20968
 N2341 N 0.65155 0.51642 0.21428
 C2342 C 0.65884 0.52376 0.22604
 N2343 N 0.65178 0.53584 0.23309
 N2344 N 0.63786 0.54046 0.22849
 C2345 C 0.61595 0.53860 0.21126
 C2346 C 0.60382 0.54341 0.20645
 C2347 C 0.67414 0.51929 0.23047
 C2348 C 0.68713 0.51579 0.23394
 C2349 C 0.63102 1.03353 0.71629
 N2350 N 0.63829 1.04103 0.72797
 N2351 N 0.65203 1.03624 0.73289
 C2352 C 0.65892 1.02381 0.72630
 N2353 N 0.65164 1.01629 0.71465
 N2354 N 0.63789 1.02108 0.70972
 C2355 C 0.61663 1.03921 0.71041
 C2356 C 0.60475 1.04423 0.70522
 C2357 C 0.67411 1.01922 0.73098
 C2358 C 0.68705 1.01566 0.73457
 C2359 C 0.86780 0.46489 0.28548
 N2360 N 0.86076 0.45787 0.27338
 N2361 N 0.84713 0.46288 0.26835
 C2362 C 0.84013 0.47506 0.27528
 N2363 N 0.84717 0.48209 0.28737
 N2364 N 0.86081 0.47708 0.29239
 C2365 C 0.88217 0.45909 0.29130
 C2366 C 0.89408 0.45401 0.29637
 C2367 C 0.82515 0.48002 0.27029
 C2368 C 0.81243 0.48395 0.26631
 C2369 C 0.86805 0.96485 0.78545
 N2370 N 0.86098 0.97694 0.79248
 N2371 N 0.84729 0.98188 0.78753
 C2372 C 0.84026 0.97487 0.77542
 N2373 N 0.84733 0.96280 0.76838
 N2374 N 0.86102 0.95786 0.77333
 C2375 C 0.88250 0.95915 0.79115
 C2376 C 0.89449 0.95416 0.79611
 C2377 C 0.82525 0.97979 0.77048
 C2378 C 0.81252 0.98371 0.76651
 C2379 C 0.38041 0.28299 0.78429
 N2380 N 0.38769 0.27134 0.79183
 N2381 N 0.40149 0.26648 0.78716
 C2382 C 0.40842 0.27311 0.77480
 N2383 N 0.40113 0.28474 0.76724
 N2384 N 0.38733 0.28960 0.77191
 C2385 C 0.36592 0.28875 0.78979
 C2386 C 0.35393 0.29384 0.79463
 C2387 C 0.42363 0.26845 0.77028
 C2388 C 0.43656 0.26483 0.76673
 C2389 C 0.88267 0.28414 0.28627
 N2390 N 0.89249 0.27716 0.29626
 N2391 N 0.90621 0.27219 0.29147
 C2392 C 0.91052 0.27405 0.27655
 N2393 N 0.90069 0.28102 0.26656
 N2394 N 0.88697 0.28599 0.27134
 C2395 C 0.86813 0.28996 0.29159
 C2396 C 0.85607 0.29502 0.29628
 C2397 C 0.92552 0.26919 0.27157
 C2398 C 0.93825 0.26531 0.26760
 C2399 C 0.36949 0.78324 0.46587
 N2400 N 0.36185 0.77200 0.45807
 N2401 N 0.34804 0.76724 0.46282
 C2402 C 0.34146 0.77357 0.47552
 N2403 N 0.34911 0.78478 0.48335
 N2404 N 0.36292 0.78954 0.47860
 C2405 C 0.38398 0.78893 0.46030
 C2406 C 0.39597 0.79396 0.45538
 C2407 C 0.32624 0.76904 0.48013
 C2408 C 0.31330 0.76553 0.48374
 C2409 C 0.36897 0.28368 0.96640
 N2410 N 0.36197 0.29052 0.97860
 N2411 N 0.34817 0.28569 0.98332
 C2412 C 0.34096 0.27386 0.97597
 N2413 N 0.34797 0.26700 0.96378
 N2414 N 0.36177 0.27184 0.95907
 C2415 C 0.38346 0.28939 0.96084
 C2416 C 0.39545 0.29442 0.95594
 C2417 C 0.32576 0.26922 0.98052
 C2418 C 0.31283 0.26560 0.98409
 C2419 C 0.78652 0.46458 0.36671
 N2420 N 0.77125 0.46479 0.36335
 N2421 N 0.76637 0.46962 0.34957
 C2422 C 0.77661 0.47437 0.33875
 N2423 N 0.79187 0.47416 0.34213
 N2424 N 0.79675 0.46934 0.35589
 C2425 C 0.79187 0.45902 0.38136
 C2426 C 0.79663 0.45421 0.39352
 C2427 C 0.77146 0.47920 0.32378
 C2428 C 0.76739 0.48312 0.31106
 C2429 C 0.78583 0.96548 0.86774
 N2430 N 0.79555 0.97315 0.85818
 N2431 N 0.79076 0.97791 0.84436
 C2432 C 0.77611 0.97513 0.83967
 N2433 N 0.76637 0.96747 0.84923
 N2434 N 0.77116 0.96272 0.86306
 C2435 C 0.79117 0.95994 0.88240
 C2436 C 0.79588 0.95513 0.89458
 C2437 C 0.77115 0.97982 0.82458
 C2438 C 0.76721 0.98361 0.81178
 C2439 C 0.28375 0.78394 0.38016
 N2440 N 0.29061 0.77179 0.38730
 N2441 N 0.28570 0.76705 0.40108
 C2442 C 0.27378 0.77431 0.40813
 N2443 N 0.26689 0.78643 0.40097
 N2444 N 0.27180 0.79118 0.38719
 C2445 C 0.28955 0.78955 0.36571
 C2446 C 0.29466 0.79449 0.35376
 C2447 C 0.26906 0.76976 0.42332
 C2448 C 0.26541 0.76621 0.43626
 C2449 C 0.28271 0.28383 0.88044
 N2450 N 0.27128 0.29149 0.88787
 N2451 N 0.26645 0.28673 0.90167
 C2452 C 0.27290 0.27416 0.90845
 N2453 N 0.28431 0.26648 0.90100
 N2454 N 0.28914 0.27124 0.88720
 C2455 C 0.28845 0.28944 0.86597
 C2456 C 0.29353 0.29437 0.85400
 C2457 C 0.26831 0.26955 0.92367
 C2458 C 0.26477 0.26596 0.93663
 C2459 C 0.46662 0.28344 0.87022
 N2460 N 0.45997 0.27097 0.86344
 N2461 N 0.46479 0.26607 0.84968
 C2462 C 0.47641 0.27350 0.84230
 N2463 N 0.48308 0.28595 0.84910
 N2464 N 0.47826 0.29084 0.86285
 C2465 C 0.46089 0.28921 0.88464
 C2466 C 0.45583 0.29428 0.89656
 C2467 C 0.48099 0.26878 0.82711
 C2468 C 0.48455 0.26513 0.81417
 C2469 C 0.96488 0.28526 0.36791
 N2470 N 0.97666 0.29254 0.36064
 N2471 N 0.98156 0.28758 0.34693
 C2472 C 0.97483 0.27518 0.34009
 N2473 N 0.96306 0.26789 0.34738
 N2474 N 0.95817 0.27285 0.36108
 C2475 C 0.95923 0.29096 0.38239
 C2476 C 0.95428 0.29592 0.39440
 C2477 C 0.97970 0.27021 0.32507
 C2478 C 0.98360 0.26623 0.31233
 C2479 C 0.46604 0.36931 0.78409
 N2480 N 0.46004 0.36281 0.77116
 N2481 N 0.46487 0.34897 0.76641
 C2482 C 0.47585 0.34122 0.77444
 N2483 N 0.48187 0.34774 0.78735
 N2484 N 0.47704 0.36157 0.79210
 C2485 C 0.46026 0.38380 0.78968
 C2486 C 0.45518 0.39578 0.79466
 C2487 C 0.48044 0.32597 0.76983
 C2488 C 0.48401 0.31298 0.76626
 C2489 C 0.96445 0.36721 0.28577
 N2490 N 0.97705 0.36054 0.29223
 N2491 N 0.98203 0.34683 0.28727
 C2492 C 0.97455 0.33938 0.27569
 N2493 N 0.96197 0.34606 0.26922
 N2494 N 0.95700 0.35977 0.27418
 C2495 C 0.95873 0.38167 0.29153
 C2496 C 0.95375 0.39367 0.29655
 C2497 C 0.97952 0.32434 0.27079
 C2498 C 0.98348 0.31156 0.26688
 C2499 C 0.28361 0.87056 0.46703
 N2500 N 0.29085 0.86320 0.47881
 N2501 N 0.28611 0.84929 0.48343
 C2502 C 0.27398 0.84232 0.47641
 N2503 N 0.26672 0.84969 0.46465
 N2504 N 0.27147 0.86360 0.46003
 C2505 C 0.28922 0.88517 0.46153
 C2506 C 0.29414 0.89726 0.45666
 C2507 C 0.26939 0.82700 0.48083
 C2508 C 0.26580 0.81398 0.48429
 C2509 C 0.28416 0.36972 0.96623
 N2510 N 0.29132 0.36249 0.97813
 N2511 N 0.28635 0.34876 0.98306
 C2512 C 0.27407 0.34185 0.97624
 N2513 N 0.26690 0.34910 0.96435
 N2514 N 0.27186 0.36282 0.95942
 C2515 C 0.29002 0.38408 0.96038
 C2516 C 0.29518 0.39595 0.95521
 C2517 C 0.26930 0.32668 0.98094
 C2518 C 0.26560 0.31374 0.98458
 C2519 C 0.78586 0.38189 0.28425
 N2520 N 0.77313 0.38848 0.29049
 N2521 N 0.76825 0.40225 0.28557
 C2522 C 0.77595 0.40983 0.27426
 N2523 N 0.78867 0.40323 0.26800
 N2524 N 0.79355 0.38946 0.27292
 C2525 C 0.79147 0.36738 0.29000
 C2526 C 0.79635 0.35534 0.29504
 C2527 C 0.77107 0.42493 0.26940
 C2528 C 0.76717 0.43774 0.26554
   
