data_POSCAR
  _audit_creation_date              2014-09-24
  _audit_creation_method            'ToBaCCo'
  _symmetry_space_group_name_H-M    'P1'
  _symmetry_Int_Tables_number       1
  _symmetry_cell_setting            triclinic
  loop_
  _symmetry_equiv_pos_as_xyz
 x,y,z
_cell_length_a 56.4676
_cell_length_b 56.3652
_cell_length_c 56.1377
_cell_angle_alpha 89.950800
_cell_angle_beta 90.146300
_cell_angle_gamma 89.875200
loop_
  _atom_site_label
  _atom_site_type_symbol
  _atom_site_fract_x
  _atom_site_fract_y
  _atom_site_fract_z
C1 C 0.21640 0.99584 -0.01759
 C2 C 0.21919 0.99653 0.00647
 C3 C 0.22060 0.97474 0.02126
 C4 C 0.22207 1.01919 0.01961
 C5 C 0.21540 1.01793 -0.03203
 C6 C 0.21624 0.97315 -0.03104
 C7 C 0.20188 0.95837 0.02203
 C8 C 0.20265 0.93930 0.03805
 C9 C 0.22214 0.93652 0.05334
 C10 C 0.24100 0.95249 0.05221
 C11 C 0.24022 0.97151 0.03634
 C12 C 0.20673 1.02445 0.03852
 C13 C 0.21056 1.04442 0.05269
 C14 C 0.22989 1.05931 0.04819
 C15 C 0.24508 1.05438 0.02909
 C16 C 0.24122 1.03436 0.01489
 C17 C 0.23183 1.02121 -0.05046
 C18 C 0.23203 1.04227 -0.06353
 C19 C 0.21571 1.06027 -0.05847
 C20 C 0.19885 1.05696 -0.04051
 C21 C 0.19861 1.03581 -0.02741
 C22 C 0.23539 0.95723 -0.02950
 C23 C 0.23618 0.93717 -0.04413
 C24 C 0.21794 0.93290 -0.06052
 C25 C 0.19868 0.94851 -0.06190
 C26 C 0.19787 0.96856 -0.04730
 H27 H 0.18644 0.96078 0.01079
 H28 H 0.18792 0.92705 0.03886
 H29 H 0.25614 0.95052 0.06396
 H30 H 0.25479 0.98398 0.03607
 H31 H 0.19204 1.01281 0.04255
 H32 H 0.19872 1.04789 0.06747
 H33 H 0.25353 1.03030 0.00070
 H34 H 0.24489 1.00766 -0.05435
 H35 H 0.24516 1.04466 -0.07736
 H36 H 0.18612 1.07078 -0.03648
 H37 H 0.18556 1.03348 -0.01350
 H38 H 0.25006 0.96075 -0.01756
 H39 H 0.25130 0.92534 -0.04310
 H40 H 0.18456 0.94547 -0.07464
 H41 H 0.18312 0.98078 -0.04896
 H42 H 0.26022 1.06561 0.02549
 C43 C 0.71338 0.49487 0.48033
 C44 C 0.71576 0.49623 0.50442
 C45 C 0.71863 0.51925 0.51689
 C46 C 0.71722 0.47483 0.51981
 C47 C 0.71318 0.47181 0.46757
 C48 C 0.71301 0.51653 0.46518
 C49 C 0.73806 0.53401 0.51210
 C50 C 0.74189 0.55439 0.52575
 C51 C 0.72639 0.56009 0.54434
 C52 C 0.70680 0.54564 0.54892
 C53 C 0.70298 0.52528 0.53531
 C54 C 0.73680 0.47213 0.53504
 C55 C 0.73794 0.45319 0.55098
 C56 C 0.71948 0.43674 0.55204
 C57 C 0.69997 0.43908 0.53671
 C58 C 0.69882 0.45809 0.52063
 C59 C 0.69483 0.46682 0.45141
 C60 C 0.69556 0.44629 0.43750
 C61 C 0.71471 0.43060 0.43948
 C62 C 0.73294 0.43530 0.45575
 C63 C 0.73224 0.45585 0.46969
 C64 C 0.69643 0.53482 0.46888
 C65 C 0.69730 0.55553 0.45510
 C66 C 0.71457 0.55799 0.43741
 C67 C 0.73070 0.53958 0.43329
 C68 C 0.72988 0.51896 0.44702
 H69 H 0.75062 0.52935 0.49831
 H70 H 0.75724 0.56534 0.52224
 H71 H 0.69482 0.54980 0.56338
 H72 H 0.68807 0.51394 0.53942
 H73 H 0.75115 0.48485 0.53472
 H74 H 0.75312 0.45155 0.56273
 H75 H 0.68343 0.46006 0.50925
 H76 H 0.68017 0.47907 0.44930
 H77 H 0.68146 0.44292 0.42482
 H78 H 0.74798 0.42341 0.45723
 H79 H 0.74688 0.45966 0.48156
 H80 H 0.68307 0.53315 0.48257
 H81 H 0.68471 0.56967 0.45841
 H82 H 0.74415 0.54132 0.41967
 H83 H 0.74281 0.50510 0.44385
 H84 H 0.68555 0.42645 0.53744
 C85 C 0.77704 1.00599 0.99310
 C86 C 0.77706 0.98186 0.99368
 C87 C 0.77841 0.96730 0.97169
 C88 C 0.77498 0.96855 1.01641
 C89 C 0.77545 1.02040 1.01517
 C90 C 0.77711 1.01961 0.97047
 C91 C 0.76123 0.94976 0.96767
 C92 C 0.76273 0.93497 0.94782
 C93 C 0.78148 0.93739 0.93178
 C94 C 0.79868 0.95488 0.93556
 C95 C 0.79720 0.96976 0.95548
 C96 C 0.75525 0.97158 1.03134
 C97 C 0.75304 0.95803 1.05210
 C98 C 0.77041 0.94123 1.05799
 C99 C 0.79008 0.93816 1.04318
 C100 C 0.79232 0.95169 1.02247
 C101 C 0.79252 1.01854 1.03335
 C102 C 0.79094 1.03292 1.05361
 C103 C 0.77238 1.04932 1.05574
 C104 C 0.75539 1.05121 1.03767
 C105 C 0.75694 1.03691 1.01749
 C106 C 0.79411 1.03745 0.96717
 C107 C 0.79250 1.05289 0.94779
 C108 C 0.77380 1.05076 0.93151
 C109 C 0.75714 1.03256 0.93428
 C110 C 0.75877 1.01706 0.95371
 H111 H 0.74667 0.94750 0.97998
 H112 H 0.74934 0.92149 0.94509
 H113 H 0.81332 0.95684 0.92329
 H114 H 0.81086 0.98289 0.95848
 H115 H 0.74144 0.98412 1.02671
 H116 H 0.73765 0.96039 1.06334
 H117 H 0.80752 0.94896 1.01106
 H118 H 0.80712 1.00616 1.03170
 H119 H 0.80423 1.03139 1.06748
 H120 H 0.74099 1.06386 1.03913
 H121 H 0.74365 1.03866 1.00365
 H122 H 0.80822 1.03985 0.98005
 H123 H 0.80543 1.06697 0.94596
 H124 H 0.74247 1.03083 0.92193
 H125 H 0.74519 1.00376 0.95624
 H126 H 0.80353 0.92510 1.04750
 C127 C 0.27704 0.48100 0.49666
 C128 C 0.27777 0.50511 0.49573
 C129 C 0.27744 0.51839 0.47289
 C130 C 0.27745 0.51990 0.51764
 C131 C 0.27494 0.46811 0.51963
 C132 C 0.27758 0.46610 0.47483
 C133 C 0.29471 0.53578 0.46874
 C134 C 0.29280 0.55094 0.44917
 C135 C 0.27354 0.54897 0.43358
 C136 C 0.25659 0.53122 0.43717
 C137 C 0.25850 0.51599 0.45678
 C138 C 0.29498 0.51756 0.53532
 C139 C 0.29469 0.53234 0.55537
 C140 C 0.27697 0.54962 0.55777
 C141 C 0.25952 0.55197 0.54020
 C142 C 0.25978 0.53726 0.52025
 C143 C 0.25569 0.47218 0.53494
 C144 C 0.25343 0.45912 0.55599
 C145 C 0.27027 0.44177 0.56182
 C146 C 0.28944 0.43763 0.54663
 C147 C 0.29173 0.45068 0.52560
 C148 C 0.25996 0.44887 0.47142
 C149 C 0.26066 0.43386 0.45168
 C150 C 0.27905 0.43575 0.43514
 C151 C 0.29670 0.45291 0.43834
 C152 C 0.29601 0.46799 0.45815
 H153 H 0.30928 0.53806 0.48112
 H154 H 0.30591 0.56472 0.44665
 H155 H 0.24150 0.52971 0.42532
 H156 H 0.24471 0.50305 0.45997
 H157 H 0.30896 0.50452 0.53345
 H158 H 0.30832 0.53044 0.56885
 H159 H 0.24616 0.53940 0.50679
 H160 H 0.24228 0.48519 0.53038
 H161 H 0.23841 0.46231 0.56755
 H162 H 0.30248 0.42414 0.55091
 H163 H 0.30656 0.44715 0.51392
 H164 H 0.24565 0.44703 0.48410
 H165 H 0.24693 0.42065 0.44940
 H166 H 0.31107 0.45446 0.42569
 H167 H 0.31001 0.48085 0.46067
 H168 H 0.24575 0.56528 0.54187
 C169 C 0.99170 0.22725 -0.00408
 C170 C 0.99250 0.22694 0.02014
 C171 C 1.01521 0.22925 0.03336
 C172 C 0.97078 0.22520 0.03491
 C173 C 0.96908 0.22701 -0.01760
 C174 C 1.01346 0.22958 -0.01870
 C175 C 1.02174 0.21174 0.04992
 C176 C 1.04252 0.21408 0.06326
 C177 C 1.05694 0.23406 0.06030
 C178 C 1.05051 0.25165 0.04383
 C179 C 1.02968 0.24931 0.03049
 C180 C 0.95485 0.20622 0.03240
 C181 C 0.93515 0.20445 0.04744
 C182 C 0.93133 0.22158 0.06511
 C183 C 0.94711 0.24052 0.06756
 C184 C 0.96672 0.24228 0.05263
 C185 C 0.95237 0.24532 -0.01494
 C186 C 0.93304 0.24697 -0.03055
 C187 C 0.93031 0.23035 -0.04892
 C188 C 0.94650 0.21163 -0.05109
 C189 C 0.96580 0.21002 -0.03558
 C190 C 1.01522 0.24848 -0.03489
 C191 C 1.03513 0.25082 -0.04931
 C192 C 1.05355 0.23422 -0.04785
 C193 C 1.05198 0.21525 -0.03175
 C194 C 1.03196 0.21290 -0.01725
 H195 H 1.01068 0.19628 0.05253
 H196 H 1.04719 0.20041 0.07603
 H197 H 1.06139 0.26729 0.04149
 H198 H 1.02467 0.26326 0.01818
 H199 H 0.95787 0.19264 0.01911
 H200 H 0.92307 0.18967 0.04544
 H201 H 0.97881 0.25701 0.05491
 H202 H 0.95488 0.25889 -0.00154
 H203 H 0.92077 0.26167 -0.02878
 H204 H 0.94470 0.19872 -0.06528
 H205 H 0.97865 0.19595 -0.03806
 H206 H 1.00113 0.26148 -0.03631
 H207 H 1.03607 0.26554 -0.06172
 H208 H 1.06607 0.20221 -0.03052
 H209 H 1.03077 0.19801 -0.00511
 H210 H 0.94432 0.25387 0.08115
 C211 C 0.49586 0.72541 0.51789
 C212 C 0.49477 0.72520 0.49369
 C213 C 0.47196 0.72499 0.48054
 C214 C 0.51636 0.72712 0.47876
 C215 C 0.51869 0.72833 0.53069
 C216 C 0.47432 0.72402 0.53295
 C217 C 0.46818 0.70778 0.46288
 C218 C 0.44854 0.70932 0.44781
 C219 C 0.43255 0.72817 0.45013
 C220 C 0.43581 0.74504 0.46815
 C221 C 0.45546 0.74348 0.48330
 C222 C 0.53492 0.71054 0.48053
 C223 C 0.55488 0.71262 0.46591
 C224 C 0.55632 0.73121 0.44938
 C225 C 0.53784 0.74767 0.44755
 C226 C 0.51798 0.74563 0.46209
 C227 C 0.53274 0.74858 0.52715
 C228 C 0.55372 0.75155 0.54006
 C229 C 0.56073 0.73442 0.55674
 C230 C 0.54676 0.71426 0.56038
 C231 C 0.52580 0.71127 0.54749
 C232 C 0.47044 0.74152 0.55029
 C233 C 0.45077 0.74031 0.56520
 C234 C 0.43476 0.72152 0.56310
 C235 C 0.43844 0.70394 0.54587
 C236 C 0.45820 0.70514 0.53085
 H237 H 0.48088 0.69358 0.46031
 H238 H 0.44628 0.69629 0.43382
 H239 H 0.42366 0.75983 0.46991
 H240 H 0.45837 0.75723 0.49644
 H241 H 0.53385 0.69596 0.49305
 H242 H 0.56906 0.69972 0.46737
 H243 H 0.50386 0.75857 0.46042
 H244 H 0.52727 0.76219 0.51465
 H245 H 0.56429 0.76733 0.53729
 H246 H 0.55195 0.70100 0.57338
 H247 H 0.51505 0.69569 0.55062
 H248 H 0.48265 0.75619 0.55224
 H249 H 0.44809 0.75400 0.57847
 H250 H 0.42619 0.68928 0.54415
 H251 H 0.46107 0.69127 0.51784
 H252 H 0.53876 0.76208 0.43479
 C253 C -0.01944 0.77277 0.00303
 C254 C 0.00450 0.77008 0.00307
 C255 C 0.01832 0.76798 -0.01929
 C256 C 0.01848 0.76833 0.02540
 C257 C -0.03345 0.77273 0.02539
 C258 C -0.03315 0.77428 -0.01953
 C259 C 0.01422 0.74934 -0.03537
 C260 C 0.02893 0.74633 -0.05517
 C261 C 0.04791 0.76187 -0.05894
 C262 C 0.05182 0.78067 -0.04313
 C263 C 0.03715 0.78366 -0.02339
 C264 C 0.03330 0.74859 0.02889
 C265 C 0.04850 0.74758 0.04846
 C266 C 0.04920 0.76633 0.06473
 C267 C 0.03412 0.78590 0.06170
 C268 C 0.01878 0.78690 0.04208
 C269 C -0.04943 0.79131 0.02983
 C270 C -0.06428 0.79057 0.04968
 C271 C -0.06343 0.77115 0.06524
 C272 C -0.04736 0.75264 0.06105
 C273 C -0.03249 0.75338 0.04118
 C274 C -0.02823 0.79168 -0.03679
 C275 C -0.04099 0.79224 -0.05821
 C276 C -0.05890 0.77555 -0.06240
 C277 C -0.06415 0.75854 -0.04503
 C278 C -0.05142 0.75795 -0.02371
 H279 H 0.00008 0.73678 -0.03222
 H280 H 0.02582 0.73160 -0.06716
 H281 H 0.06651 0.79273 -0.04575
 H282 H 0.04071 0.79798 -0.01104
 H283 H 0.03339 0.73416 0.01616
 H284 H 0.06014 0.73241 0.05060
 H285 H 0.00773 0.80242 0.03948
 H286 H -0.05061 0.80623 0.01771
 H287 H -0.07671 0.80495 0.05262
 H288 H -0.04666 0.73740 0.07282
 H289 H -0.02072 0.73859 0.03775
 H290 H -0.01445 0.80466 -0.03372
 H291 H -0.03678 0.80554 -0.07148
 H292 H -0.07794 0.74552 -0.04803
 H293 H -0.05553 0.74446 -0.01062
 H294 H 0.03465 0.80057 0.07414
 C295 C 0.50202 0.27303 0.50650
 C296 C 0.47809 0.27581 0.50726
 C297 C 0.46492 0.27640 0.53013
 C298 C 0.46359 0.27681 0.48513
 C299 C 0.51501 0.27022 0.48372
 C300 C 0.51685 0.27174 0.52833
 C301 C 0.46656 0.25754 0.54647
 C302 C 0.45254 0.25741 0.56698
 C303 C 0.43665 0.27603 0.57128
 C304 C 0.43508 0.29494 0.55518
 C305 C 0.44907 0.29508 0.53468
 C306 C 0.44511 0.26048 0.48196
 C307 C 0.43179 0.26048 0.46098
 C308 C 0.43666 0.27689 0.44294
 C309 C 0.45473 0.29359 0.44612
 C310 C 0.46809 0.29363 0.46718
 C311 C 0.53376 0.28567 0.47849
 C312 C 0.54786 0.28188 0.45848
 C313 C 0.54348 0.26253 0.44353
 C314 C 0.52457 0.24723 0.44838
 C315 C 0.51040 0.25102 0.46844
 C316 C 0.51818 0.29082 0.54438
 C317 C 0.53455 0.29028 0.56321
 C318 C 0.54959 0.27065 0.56608
 C319 C 0.54780 0.25138 0.55050
 C320 C 0.53160 0.25194 0.53173
 H321 H 0.47821 0.24265 0.54302
 H322 H 0.45372 0.24257 0.57920
 H323 H 0.42272 0.30934 0.55824
 H324 H 0.44735 0.30963 0.52216
 H325 H 0.44131 0.24740 0.49557
 H326 H 0.41787 0.24747 0.45871
 H327 H 0.48202 0.30662 0.46943
 H328 H 0.53772 0.30041 0.49021
 H329 H 0.56254 0.29372 0.45497
 H330 H 0.52117 0.23208 0.43703
 H331 H 0.49634 0.23863 0.47247
 H332 H 0.50719 0.30639 0.54183
 H333 H 0.53589 0.30534 0.57510
 H334 H 0.55938 0.23615 0.55250
 H335 H 0.53091 0.23712 0.51949
 H336 H 0.45861 0.30641 0.43230
 C337 C 1.00519 0.01757 0.23084
 C338 C 1.00597 -0.00654 0.23121
 C339 C 1.02857 -0.01995 0.23065
 C340 C 0.98427 -0.02118 0.23371
 C341 C 0.98247 0.03071 0.23270
 C342 C 1.02694 0.03228 0.22949
 C343 C 1.03178 -0.03746 0.21320
 C344 C 1.05115 -0.05282 0.21436
 C345 C 1.06747 -0.05094 0.23307
 C346 C 1.06480 -0.03300 0.25015
 C347 C 1.04540 -0.01755 0.24896
 C348 C 0.96579 -0.02009 0.21691
 C349 C 0.94602 -0.03488 0.21925
 C350 C 0.94468 -0.05091 0.23833
 C351 C 0.96302 -0.05194 0.25510
 C352 C 0.98269 -0.03722 0.25278
 C353 C 0.96769 0.02800 0.25263
 C354 C 0.94676 0.04117 0.25442
 C355 C 0.94057 0.05729 0.23644
 C356 C 0.95529 0.06012 0.21663
 C357 C 0.97617 0.04695 0.21480
 C358 C 1.03087 0.04968 0.24693
 C359 C 1.05066 0.06439 0.24569
 C360 C 1.06674 0.06203 0.22693
 C361 C 1.06301 0.04472 0.20941
 C362 C 1.04313 0.02992 0.21064
 H363 H 1.01883 -0.03971 0.19912
 H364 H 1.05289 -0.06671 0.20112
 H365 H 1.07718 -0.03149 0.26486
 H366 H 1.04293 -0.00448 0.26286
 H367 H 0.96685 -0.00807 0.20190
 H368 H 0.93199 -0.03399 0.20607
 H369 H 0.99678 -0.03837 0.26587
 H370 H 0.97251 0.01592 0.26686
 H371 H 0.93557 0.03901 0.26992
 H372 H 0.95072 0.07266 0.20271
 H373 H 0.98747 0.04942 0.19944
 H374 H 1.01857 0.05185 0.26155
 H375 H 1.05337 0.07771 0.25933
 H376 H 1.07531 0.04281 0.19476
 H377 H 1.04021 0.01689 0.19679
 H378 H 0.96227 -0.06429 0.26990
 C379 C 0.50776 0.49506 0.73341
 C380 C 0.50840 0.51911 0.73144
 C381 C 0.53105 0.53243 0.73048
 C382 C 0.48635 0.53359 0.73141
 C383 C 0.48520 0.48197 0.73658
 C384 C 0.52947 0.48018 0.73296
 C385 C 0.54802 0.53028 0.74873
 C386 C 0.56812 0.54476 0.74881
 C387 C 0.57139 0.56157 0.73073
 C388 C 0.55473 0.56353 0.71233
 C389 C 0.53465 0.54910 0.71224
 C390 C 0.48365 0.55172 0.74833
 C391 C 0.46305 0.56544 0.74876
 C392 C 0.44495 0.56133 0.73221
 C393 C 0.44760 0.54348 0.71507
 C394 C 0.46826 0.52971 0.71460
 C395 C 0.47935 0.46374 0.72060
 C396 C 0.45937 0.44974 0.72445
 C397 C 0.44509 0.45369 0.74439
 C398 C 0.45061 0.47203 0.76027
 C399 C 0.47063 0.48611 0.75642
 C400 C 0.54461 0.48001 0.71311
 C401 C 0.56319 0.46354 0.71180
 C402 C 0.56671 0.44718 0.73031
 C403 C 0.55207 0.44778 0.75035
 C404 C 0.53355 0.46411 0.75165
 H405 H 0.54532 0.51795 0.76327
 H406 H 0.58079 0.54325 0.76327
 H407 H 0.55699 0.57658 0.69835
 H408 H 0.52166 0.55121 0.69816
 H409 H 0.49740 0.55505 0.76138
 H410 H 0.46120 0.57923 0.76208
 H411 H 0.47017 0.51607 0.70117
 H412 H 0.49049 0.46015 0.70534
 H413 H 0.45534 0.43550 0.71214
 H414 H 0.43976 0.47510 0.77586
 H415 H 0.47513 0.49976 0.76920
 H416 H 0.54149 0.49199 0.69834
 H417 H 0.57435 0.46313 0.69614
 H418 H 0.55458 0.43516 0.76472
 H419 H 0.52200 0.46387 0.76703
 H420 H 0.43373 0.54022 0.70212
 C421 C 1.02210 1.00627 0.76575
 C422 C 0.99804 1.00680 0.76460
 C423 C 0.98386 0.98478 0.76220
 C424 C 0.98429 1.02927 0.76458
 C425 C 1.03642 1.02817 0.76842
 C426 C 1.03554 0.98364 0.76395
 C427 C 0.96826 0.98248 0.74284
 C428 C 0.95400 0.96244 0.74066
 C429 C 0.95507 0.94450 0.75786
 C430 C 0.97063 0.94658 0.77722
 C431 C 0.98497 0.96669 0.77942
 C432 C 0.98748 1.04639 0.74666
 C433 C 0.97196 1.06574 0.74486
 C434 C 0.95313 1.06807 0.76095
 C435 C 0.95037 1.05143 0.77925
 C436 C 0.96580 1.03214 0.78101
 C437 C 1.03278 1.04392 0.78748
 C438 C 1.04726 1.06388 0.79016
 C439 C 1.06556 1.06815 0.77390
 C440 C 1.06921 1.05252 0.75491
 C441 C 1.05480 1.03263 0.75223
 C442 C 1.05143 0.97727 0.78215
 C443 C 1.06464 0.95636 0.78050
 C444 C 1.06223 0.94165 0.76055
 C445 C 1.04651 0.94796 0.74224
 C446 C 1.03330 0.96891 0.74388
 H447 H 0.96710 0.99628 0.72943
 H448 H 0.94195 0.96104 0.72567
 H449 H 0.97146 0.93283 0.79069
 H450 H 0.99664 0.96834 0.79467
 H451 H 1.00132 1.04423 0.73352
 H452 H 0.97420 1.07839 0.73050
 H453 H 0.96292 1.01900 0.79480
 H454 H 1.01900 1.04056 0.80042
 H455 H 1.04435 1.07583 0.80497
 H456 H 1.08332 1.05564 0.74225
 H457 H 1.05798 1.02065 0.73749
 H458 H 1.05353 0.98850 0.79766
 H459 H 1.07684 0.95178 0.79473
 H460 H 1.04461 0.93684 0.72661
 H461 H 1.02150 0.97377 0.72943
 H462 H 0.93582 1.05291 0.79173
 C463 C 0.49510 0.50565 0.26527
 C464 C 0.51916 0.50497 0.26604
 C465 C 0.53236 0.48223 0.26442
 C466 C 0.53371 0.52679 0.26804
 C467 C 0.48154 0.52821 0.26512
 C468 C 0.48070 0.48374 0.26330
 C469 C 0.54833 0.47596 0.28257
 C470 C 0.56135 0.45493 0.28105
 C471 C 0.55865 0.44004 0.26130
 C472 C 0.54286 0.44623 0.24305
 C473 C 0.52982 0.46730 0.24454
 C474 C 0.53060 0.54288 0.28691
 C475 C 0.54540 0.56269 0.28901
 C476 C 0.56345 0.56645 0.27236
 C477 C 0.56654 0.55050 0.25354
 C478 C 0.55182 0.53077 0.25143
 C479 C 0.48445 0.54492 0.24677
 C480 C 0.46895 0.56426 0.24486
 C481 C 0.45048 0.56697 0.26125
 C482 C 0.44802 0.55079 0.27998
 C483 C 0.46342 0.53150 0.28188
 C484 C 0.46484 0.48136 0.24415
 C485 C 0.45031 0.46147 0.24241
 C486 C 0.45135 0.44376 0.25985
 C487 C 0.46718 0.44589 0.27898
 C488 C 0.48180 0.46585 0.28074
 H489 H 0.55066 0.48736 0.29793
 H490 H 0.57365 0.45036 0.29519
 H491 H 0.54080 0.43491 0.22759
 H492 H 0.51794 0.47208 0.23013
 H493 H 0.51703 0.53990 0.30016
 H494 H 0.54292 0.57489 0.30369
 H495 H 0.55459 0.51853 0.23684
 H496 H 0.49800 0.54241 0.23338
 H497 H 0.47086 0.57659 0.23018
 H498 H 0.43370 0.55264 0.29266
 H499 H 0.46076 0.51866 0.29599
 H500 H 0.46369 0.49499 0.23058
 H501 H 0.43807 0.46003 0.22759
 H502 H 0.46800 0.43232 0.29263
 H503 H 0.49366 0.46756 0.29582
 H504 H 0.58046 0.55323 0.24058
 O505 O 0.26212 0.18930 0.20195
 O506 O 0.29015 0.18266 0.23473
 O507 O 0.20161 0.21718 0.23679
 O508 O 0.19332 0.24747 0.26169
 O509 O 0.22906 0.25145 0.17450
 O510 O 0.26187 0.27778 0.16790
 O511 O 0.26505 0.28190 0.29810
 O512 O 0.23704 0.25076 0.30440
 O513 O 0.32462 0.25171 0.26789
 O514 O 0.33088 0.22355 0.23754
 O515 O 0.29553 0.31125 0.23783
 O516 O 0.26119 0.31909 0.21067
 O517 O 0.26469 0.31088 0.26981
 O518 O 0.23647 0.31875 0.23664
 O519 O 0.32405 0.28265 0.23662
 O520 O 0.33005 0.24903 0.20793
 O521 O 0.29658 0.25134 0.29697
 O522 O 0.26458 0.22272 0.30442
 O523 O 0.26184 0.21831 0.17363
 O524 O 0.28840 0.25128 0.16730
 O525 O 0.20103 0.25079 0.20362
 O526 O 0.19593 0.27805 0.23723
 O527 O 0.23012 0.18846 0.23518
 O528 O 0.26182 0.18272 0.26296
 Zr529 Zr 0.26199 0.20765 0.23468
 O530 O 0.28454 0.22769 0.25676
 Zr531 Zr 0.22034 0.24951 0.23573
 O532 O 0.24097 0.27122 0.25822
 Zr533 Zr 0.26140 0.25007 0.19330
 O534 O 0.28376 0.27194 0.21374
 Zr535 Zr 0.26418 0.25015 0.27851
 O536 O 0.24141 0.22823 0.25822
 Zr537 Zr 0.30504 0.25070 0.23597
 O538 O 0.28459 0.22856 0.21346
 Zr539 Zr 0.26332 0.29248 0.23724
 O540 O 0.24068 0.27268 0.21464
 O541 O 0.23979 0.22792 0.21317
 O542 O 0.28581 0.27253 0.25876
 C543 C 0.26194 0.19650 0.18024
 C544 C 0.20847 0.19540 0.23613
 C545 C 0.20750 0.25145 0.18173
 C546 C 0.26553 0.30369 0.29149
 C547 C 0.31809 0.25226 0.28977
 C548 C 0.31720 0.30431 0.23777
 H549 H 0.29489 0.21694 0.26605
 H550 H 0.29335 0.28194 0.20301
 H551 H 0.22948 0.21801 0.20299
 H552 H 0.23058 0.28079 0.26862
 H553 H 0.22510 0.23890 0.29940
 H554 H 0.19850 0.25698 0.27555
 H555 H 0.32741 0.26287 0.19741
 H556 H 0.30064 0.23970 0.17233
 H557 H 0.27745 0.21150 0.30043
 H558 H 0.25033 0.18849 0.27493
 H559 H 0.27420 0.31635 0.19923
 H560 H 0.25112 0.29027 0.17396
 H561 H 0.28377 0.16688 0.23024
 H562 H 0.32433 0.20995 0.22858
 H563 H 0.20076 0.28962 0.22490
 H564 H 0.22539 0.31534 0.24981
 O565 O 0.75129 0.82352 0.22922
 O566 O 0.72424 0.83003 0.26262
 O567 O 0.81248 0.79458 0.26233
 O568 O 0.82114 0.76405 0.28687
 O569 O 0.78289 0.76115 0.20055
 O570 O 0.74964 0.73543 0.19433
 O571 O 0.74927 0.72993 0.32461
 O572 O 0.77853 0.76022 0.33052
 O573 O 0.69010 0.76095 0.29603
 O574 O 0.68303 0.78929 0.26600
 O575 O 0.71780 0.70133 0.26443
 O576 O 0.75151 0.69356 0.23683
 O577 O 0.74868 0.70129 0.29605
 O578 O 0.77676 0.69350 0.26252
 O579 O 0.68948 0.73015 0.26448
 O580 O 0.68294 0.76424 0.23619
 O581 O 0.71886 0.76114 0.32454
 O582 O 0.75159 0.78913 0.33127
 O583 O 0.75043 0.79474 0.20074
 O584 O 0.72341 0.76208 0.19468
 O585 O 0.81181 0.76118 0.22894
 O586 O 0.81749 0.73362 0.26229
 O587 O 0.78421 0.82359 0.26164
 O588 O 0.75331 0.82933 0.29028
 Zr589 Zr 0.75213 0.80475 0.26175
 O590 O 0.72997 0.78469 0.28413
 Zr591 Zr 0.79340 0.76246 0.26151
 O592 O 0.77316 0.74073 0.28434
 Zr593 Zr 0.75113 0.76276 0.22006
 O594 O 0.72916 0.74085 0.24078
 Zr595 Zr 0.75070 0.76184 0.30527
 O596 O 0.77316 0.78373 0.28466
 Zr597 Zr 0.70870 0.76205 0.26364
 O598 O 0.72872 0.78428 0.24090
 Zr599 Zr 0.75007 0.71992 0.26363
 O600 O 0.77224 0.73973 0.24069
 O601 O 0.77353 0.78447 0.23958
 O602 O 0.72835 0.73987 0.28578
 C603 C 0.75071 0.81650 0.20746
 C604 C 0.80581 0.81642 0.26198
 C605 C 0.80466 0.76073 0.20722
 C606 C 0.74804 0.70826 0.31778
 C607 C 0.69718 0.76036 0.31776
 C608 C 0.69619 0.70841 0.26503
 H609 H 0.71999 0.79546 0.29374
 H610 H 0.71921 0.73105 0.23015
 H611 H 0.78365 0.79436 0.22922
 H612 H 0.78365 0.73093 0.29448
 H613 H 0.79051 0.77200 0.32548
 H614 H 0.81632 0.75435 0.30071
 H615 H 0.68509 0.75041 0.22557
 H616 H 0.71142 0.77371 0.20009
 H617 H 0.73876 0.80055 0.32768
 H618 H 0.76529 0.82348 0.30178
 H619 H 0.73839 0.69662 0.22552
 H620 H 0.76042 0.72274 0.19998
 H621 H 0.73068 0.84581 0.25823
 H622 H 0.68957 0.80307 0.25731
 H623 H 0.81210 0.72213 0.25011
 H624 H 0.78772 0.69630 0.27599
 O625 O 0.75394 0.18714 0.77921
 O626 O 0.72746 0.18049 0.74571
 O627 O 0.81436 0.21877 0.74679
 O628 O 0.82277 0.25054 0.72478
 O629 O 0.78312 0.24944 0.80998
 O630 O 0.74958 0.27401 0.81660
 O631 O 0.74956 0.28237 0.68594
 O632 O 0.77879 0.25286 0.67925
 O633 O 0.69070 0.24914 0.71409
 O634 O 0.68436 0.22092 0.74379
 O635 O 0.71727 0.30944 0.74598
 O636 O 0.74989 0.31791 0.77387
 O637 O 0.74827 0.31063 0.71487
 O638 O 0.77642 0.31782 0.74944
 O639 O 0.68962 0.28011 0.74508
 O640 O 0.68424 0.24539 0.77388
 O641 O 0.71924 0.25095 0.68556
 O642 O 0.75311 0.22315 0.67862
 O643 O 0.75182 0.21506 0.80848
 O644 O 0.72354 0.24728 0.81467
 O645 O 0.81232 0.25070 0.78207
 O646 O 0.81688 0.28001 0.74891
 O647 O 0.78720 0.18885 0.74684
 O648 O 0.75613 0.18308 0.71794
 Zr649 Zr 0.75436 0.20670 0.74725
 O650 O 0.73139 0.22664 0.72539
 Zr651 Zr 0.79420 0.25013 0.74906
 O652 O 0.77340 0.27150 0.72621
 Zr653 Zr 0.75174 0.24762 0.78996
 O654 O 0.72944 0.26970 0.76954
 Zr655 Zr 0.75142 0.25028 0.70475
 O656 O 0.77474 0.22887 0.72512
 Zr657 Zr 0.70956 0.24846 0.74625
 O658 O 0.73021 0.22604 0.76838
 Zr659 Zr 0.74985 0.29146 0.74711
 O660 O 0.77225 0.27175 0.77014
 O661 O 0.77498 0.22697 0.77018
 O662 O 0.72861 0.27142 0.72455
 C663 C 0.75284 0.19350 0.80112
 C664 C 0.80854 0.19675 0.74641
 C665 C 0.80491 0.25037 0.80372
 C666 C 0.74795 0.30392 0.69302
 C667 C 0.69755 0.25065 0.69241
 C668 C 0.69587 0.30199 0.74470
 H669 H 0.72168 0.21580 0.71558
 H670 H 0.71921 0.27913 0.78020
 H671 H 0.78538 0.21701 0.78028
 H672 H 0.78369 0.28165 0.71629
 H673 H 0.79146 0.24180 0.68442
 H674 H 0.81702 0.25838 0.71010
 H675 H 0.68502 0.25992 0.78372
 H676 H 0.71231 0.23496 0.80921
 H677 H 0.73960 0.21229 0.68103
 H678 H 0.76819 0.18935 0.70684
 H679 H 0.73758 0.31370 0.78563
 H680 H 0.75930 0.28748 0.81097
 H681 H 0.73457 0.16479 0.74944
 H682 H 0.69176 0.20681 0.75124
 H683 H 0.81204 0.29022 0.76239
 H684 H 0.78673 0.31629 0.73531
 O685 O 0.23652 0.79865 0.78288
 O686 O 0.26451 0.80470 0.75007
 O687 O 0.17658 0.76874 0.74817
 O688 O 0.16913 0.73752 0.72418
 O689 O 0.20452 0.73699 0.81178
 O690 O 0.23776 0.71125 0.81957
 O691 O 0.24294 0.70311 0.68985
 O692 O 0.21308 0.73282 0.68221
 O693 O 0.30040 0.73568 0.71935
 O694 O 0.30615 0.76435 0.74923
 O695 O 0.27238 0.67607 0.75143
 O696 O 0.23782 0.66884 0.77838
 O697 O 0.24267 0.67505 0.71904
 O698 O 0.21353 0.66781 0.75164
 O699 O 0.30031 0.70515 0.75130
 O700 O 0.30567 0.73964 0.77932
 O701 O 0.27249 0.73503 0.69000
 O702 O 0.23953 0.76208 0.68151
 O703 O 0.23682 0.77048 0.81202
 O704 O 0.26372 0.73811 0.81970
 O705 O 0.17652 0.73629 0.78247
 O706 O 0.17224 0.70773 0.74984
 O707 O 0.20459 0.79787 0.74923
 O708 O 0.23629 0.80341 0.72172
 Zr709 Zr 0.23684 0.77928 0.75070
 O710 O 0.25987 0.75894 0.72948
 Zr711 Zr 0.19600 0.73676 0.75053
 O712 O 0.21722 0.71464 0.72893
 Zr713 Zr 0.23692 0.73816 0.79333
 O714 O 0.25984 0.71604 0.77385
 Zr715 Zr 0.24009 0.73547 0.70825
 O716 O 0.21678 0.75767 0.72759
 Zr717 Zr 0.28077 0.73692 0.75114
 O718 O 0.25977 0.75941 0.77275
 Zr719 Zr 0.23988 0.69446 0.75086
 O720 O 0.21672 0.71460 0.77255
 O721 O 0.21494 0.75935 0.77259
 O722 O 0.26207 0.71413 0.72895
 C723 C 0.23658 0.79209 0.80480
 C724 C 0.18307 0.79061 0.74822
 C725 C 0.18298 0.73648 0.80441
 C726 C 0.24422 0.68159 0.69722
 C727 C 0.29398 0.73478 0.69741
 C728 C 0.29389 0.68334 0.75107
 H729 H 0.26998 0.76962 0.71995
 H730 H 0.26957 0.70653 0.78498
 H731 H 0.20443 0.76946 0.78236
 H732 H 0.20720 0.70452 0.71868
 H733 H 0.20077 0.74459 0.68653
 H734 H 0.17439 0.72729 0.71090
 H735 H 0.30346 0.72588 0.79002
 H736 H 0.27597 0.74941 0.81427
 H737 H 0.25177 0.77397 0.68544
 H738 H 0.22487 0.79720 0.70988
 H739 H 0.25076 0.67205 0.78982
 H740 H 0.22703 0.69855 0.81394
 H741 H 0.25784 0.82050 0.75412
 H742 H 0.29920 0.77816 0.75757
 H743 H 0.17742 0.69658 0.76246
 H744 H 0.20288 0.67035 0.73786
 O745 O 0.25068 0.32784 0.73590
 O746 O 0.22278 0.33424 0.76858
 O747 O 0.31135 0.29976 0.77113
 O748 O 0.31983 0.26930 0.79567
 O749 O 0.28387 0.26589 0.70847
 O750 O 0.25120 0.23954 0.70153
 O751 O 0.24743 0.23473 0.83173
 O752 O 0.27603 0.26549 0.83826
 O753 O 0.18854 0.26482 0.80140
 O754 O 0.18194 0.29297 0.77106
 O755 O 0.21782 0.20543 0.77085
 O756 O 0.25226 0.19789 0.74427
 O757 O 0.24792 0.20595 0.80330
 O758 O 0.27693 0.19835 0.77051
 O759 O 0.18916 0.23390 0.76998
 O760 O 0.18296 0.26782 0.74138
 O761 O 0.21653 0.26545 0.83067
 O762 O 0.24868 0.29397 0.83814
 O763 O 0.25084 0.29888 0.70761
 O764 O 0.22460 0.26580 0.70096
 O765 O 0.31203 0.26643 0.73761
 O766 O 0.31706 0.23884 0.77118
 O767 O 0.28284 0.32848 0.76938
 O768 O 0.25106 0.33400 0.79701
 Zr769 Zr 0.25096 0.30927 0.76858
 O770 O 0.22844 0.28904 0.79046
 Zr771 Zr 0.29271 0.26744 0.76967
 O772 O 0.27212 0.24561 0.79205
 Zr773 Zr 0.25158 0.26704 0.72711
 O774 O 0.22931 0.24499 0.74733
 Zr775 Zr 0.24886 0.26655 0.81227
 O776 O 0.27160 0.28858 0.79214
 Zr777 Zr 0.20799 0.26604 0.76953
 O778 O 0.22837 0.28839 0.74723
 Zr779 Zr 0.24987 0.22442 0.77083
 O780 O 0.27240 0.24437 0.74839
 O781 O 0.27319 0.28915 0.74711
 O782 O 0.22732 0.24420 0.79230
 C783 C 0.25065 0.32067 0.71419
 C784 C 0.30449 0.32152 0.77050
 C785 C 0.30546 0.26585 0.71570
 C786 C 0.24669 0.21301 0.82497
 C787 C 0.19504 0.26437 0.82332
 C788 C 0.19612 0.21224 0.77081
 H789 H 0.21807 0.29973 0.79974
 H790 H 0.21977 0.23502 0.73649
 H791 H 0.28344 0.29916 0.73700
 H792 H 0.28247 0.23599 0.80252
 H793 H 0.28799 0.27738 0.83344
 H794 H 0.31465 0.25980 0.80952
 H795 H 0.18550 0.25393 0.73093
 H796 H 0.21224 0.27720 0.70601
 H797 H 0.23572 0.30513 0.83421
 H798 H 0.26271 0.32830 0.80891
 H799 H 0.23956 0.20088 0.73248
 H800 H 0.26209 0.22708 0.70750
 H801 H 0.22915 0.35007 0.76427
 H802 H 0.18858 0.30681 0.76255
 H803 H 0.31225 0.22738 0.75874
 H804 H 0.28750 0.20135 0.78424
 O805 O 0.76457 0.69010 0.69963
 O806 O 0.79338 0.68329 0.73175
 O807 O 0.70526 0.71872 0.73576
 O808 O 0.69734 0.74951 0.75987
 O809 O 0.73241 0.75271 0.67245
 O810 O 0.76543 0.77840 0.66531
 O811 O 0.77000 0.78301 0.79544
 O812 O 0.74193 0.75208 0.80226
 O813 O 0.82900 0.75207 0.76447
 O814 O 0.83464 0.72385 0.73423
 O815 O 0.80011 0.81181 0.73481
 O816 O 0.76551 0.81990 0.70791
 O817 O 0.76956 0.81188 0.76706
 O818 O 0.74114 0.81996 0.73421
 O819 O 0.82832 0.78293 0.73320
 O820 O 0.83350 0.74911 0.70444
 O821 O 0.80136 0.75227 0.79394
 O822 O 0.76921 0.72384 0.80197
 O823 O 0.76445 0.71908 0.67130
 O824 O 0.79157 0.75156 0.66458
 O825 O 0.70462 0.75217 0.70182
 O826 O 0.70023 0.77972 0.73546
 O827 O 0.73345 0.68971 0.73388
 O828 O 0.76577 0.68369 0.76066
 Zr829 Zr 0.76547 0.70856 0.73232
 O830 O 0.78852 0.72845 0.75403
 Zr831 Zr 0.72426 0.75087 0.73377
 O832 O 0.74541 0.77242 0.75593
 Zr833 Zr 0.76484 0.75085 0.69087
 O834 O 0.78765 0.77259 0.71090
 Zr835 Zr 0.76869 0.75120 0.77598
 O836 O 0.74543 0.72946 0.75606
 Zr837 Zr 0.80897 0.75117 0.73289
 O838 O 0.78804 0.72913 0.71075
 Zr839 Zr 0.76770 0.79339 0.73458
 O840 O 0.74459 0.77375 0.71235
 O841 O 0.74317 0.72898 0.71107
 O842 O 0.79027 0.77328 0.75585
 C843 C 0.76417 0.69730 0.67792
 C844 C 0.71190 0.69687 0.73538
 C845 C 0.71093 0.75291 0.67986
 C846 C 0.77055 0.80477 0.78875
 C847 C 0.82278 0.75288 0.78642
 C848 C 0.82170 0.80465 0.73445
 H849 H 0.79889 0.71762 0.76321
 H850 H 0.79720 0.78245 0.70001
 H851 H 0.73252 0.71913 0.70117
 H852 H 0.73524 0.78212 0.76642
 H853 H 0.72980 0.74035 0.79742
 H854 H 0.70303 0.75851 0.77387
 H855 H 0.83098 0.76303 0.69400
 H856 H 0.80361 0.73969 0.66940
 H857 H 0.78219 0.71271 0.79807
 H858 H 0.75478 0.68971 0.77298
 H859 H 0.77853 0.81716 0.69648
 H860 H 0.75505 0.79115 0.67150
 H861 H 0.78675 0.66757 0.72743
 H862 H 0.82781 0.71021 0.72554
 H863 H 0.70493 0.79109 0.72289
 H864 H 0.73009 0.81662 0.74742
 O865 O 0.25067 0.68681 0.28102
 O866 O 0.22316 0.68099 0.24826
 O867 O 0.31074 0.71766 0.24730
 O868 O 0.31917 0.74934 0.22527
 O869 O 0.28183 0.74833 0.31150
 O870 O 0.24887 0.77333 0.31935
 O871 O 0.24554 0.78300 0.18880
 O872 O 0.27404 0.75309 0.18105
 O873 O 0.18689 0.75050 0.21814
 O874 O 0.18055 0.72258 0.24783
 O875 O 0.21564 0.81018 0.25067
 O876 O 0.24927 0.81780 0.27684
 O877 O 0.24561 0.81102 0.21798
 O878 O 0.27498 0.81724 0.25176
 O879 O 0.18730 0.78151 0.25018
 O880 O 0.18194 0.74627 0.27810
 O881 O 0.21473 0.75152 0.18888
 O882 O 0.24795 0.72391 0.18075
 O883 O 0.24996 0.71448 0.31058
 O884 O 0.22238 0.74709 0.31785
 O885 O 0.31028 0.74937 0.28280
 O886 O 0.31449 0.77879 0.24976
 O887 O 0.28304 0.68824 0.24785
 O888 O 0.25109 0.68335 0.21967
 Zr889 Zr 0.25057 0.70669 0.24926
 O890 O 0.22741 0.72730 0.22826
 Zr891 Zr 0.29126 0.74934 0.25032
 O892 O 0.27030 0.77130 0.22824
 Zr893 Zr 0.24990 0.74721 0.29238
 O894 O 0.22756 0.76993 0.27278
 Zr895 Zr 0.24731 0.75072 0.20726
 O896 O 0.27076 0.72866 0.22676
 Zr897 Zr 0.20656 0.74939 0.24985
 O898 O 0.22734 0.72630 0.27118
 Zr899 Zr 0.24776 0.79151 0.24999
 O900 O 0.27033 0.77115 0.27223
 O901 O 0.27219 0.72635 0.27177
 O902 O 0.22541 0.77221 0.22778
 C903 C 0.25036 0.69299 0.30301
 C904 C 0.30450 0.69576 0.24694
 C905 C 0.30344 0.74900 0.30463
 C906 C 0.24466 0.80452 0.19608
 C907 C 0.19323 0.75151 0.19626
 C908 C 0.19406 0.80325 0.25030
 H909 H 0.21725 0.71670 0.21864
 H910 H 0.21788 0.77944 0.28389
 H911 H 0.28268 0.71612 0.28151
 H912 H 0.28051 0.78133 0.21813
 H913 H 0.28669 0.74183 0.18580
 H914 H 0.31327 0.75757 0.21087
 H915 H 0.18365 0.76035 0.28846
 H916 H 0.21085 0.73492 0.31266
 H917 H 0.23487 0.71272 0.18392
 H918 H 0.26316 0.68935 0.20842
 H919 H 0.23784 0.81334 0.28937
 H920 H 0.25896 0.78655 0.31379
 H921 H 0.23009 0.66512 0.25157
 H922 H 0.18805 0.70800 0.25416
 H923 H 0.31025 0.78897 0.26347
 H924 H 0.28471 0.81578 0.23721
 O925 O 0.73287 0.29455 0.28531
 O926 O 0.76111 0.30073 0.25283
 O927 O 0.67286 0.26570 0.24973
 O928 O 0.66510 0.23476 0.22557
 O929 O 0.70000 0.23299 0.31329
 O930 O 0.73284 0.20672 0.32097
 O931 O 0.73829 0.20021 0.19107
 O932 O 0.70934 0.23060 0.18370
 O933 O 0.79647 0.23159 0.22146
 O934 O 0.80236 0.25983 0.25165
 O935 O 0.76756 0.17197 0.25274
 O936 O 0.73281 0.16464 0.27904
 O937 O 0.73776 0.17175 0.21987
 O938 O 0.70857 0.16441 0.25240
 O939 O 0.79579 0.20076 0.25334
 O940 O 0.80136 0.23495 0.28148
 O941 O 0.76874 0.23156 0.19193
 O942 O 0.73626 0.25925 0.18356
 O943 O 0.73267 0.26605 0.31412
 O944 O 0.75916 0.23323 0.32156
 O945 O 0.67218 0.23298 0.28381
 O946 O 0.66783 0.20473 0.25081
 O947 O 0.70116 0.29451 0.25139
 O948 O 0.73314 0.30002 0.22421
 Zr949 Zr 0.73319 0.27557 0.25293
 O950 O 0.75613 0.25524 0.23161
 Zr951 Zr 0.69187 0.23350 0.25199
 O952 O 0.71298 0.21147 0.23024
 Zr953 Zr 0.73251 0.23395 0.29505
 O954 O 0.75528 0.21181 0.27541
 Zr955 Zr 0.73621 0.23230 0.20996
 O956 O 0.71302 0.25447 0.22945
 Zr957 Zr 0.77662 0.23271 0.25312
 O958 O 0.75574 0.25518 0.27488
 Zr959 Zr 0.73527 0.19072 0.25201
 O960 O 0.71221 0.21085 0.27385
 O961 O 0.71091 0.25564 0.27443
 O962 O 0.75784 0.21038 0.23047
 C963 C 0.73272 0.28774 0.30715
 C964 C 0.67958 0.28749 0.25006
 C965 C 0.67850 0.23287 0.30579
 C966 C 0.73918 0.17858 0.19812
 C967 C 0.79019 0.23102 0.19947
 C968 C 0.78915 0.17903 0.25286
 H969 H 0.76644 0.26592 0.22229
 H970 H 0.76481 0.20207 0.28652
 H971 H 0.70045 0.26577 0.28422
 H972 H 0.70287 0.20162 0.21980
 H973 H 0.69714 0.24242 0.18821
 H974 H 0.67045 0.22486 0.21207
 H975 H 0.79874 0.22127 0.29220
 H976 H 0.77149 0.24460 0.31646
 H977 H 0.74870 0.27087 0.18768
 H978 H 0.72174 0.29407 0.21221
 H979 H 0.74538 0.16786 0.29090
 H980 H 0.72200 0.19423 0.31511
 H981 H 0.75455 0.31655 0.25695
 H982 H 0.79546 0.27369 0.25994
 H983 H 0.67269 0.19348 0.26347
 H984 H 0.69794 0.16732 0.23867
 C985 C 0.25258 0.14586 0.12913
 C986 C 0.23479 0.12867 0.13328
 C987 C 0.22986 0.11123 0.11571
 C988 C 0.24285 0.11099 0.09416
 C989 C 0.26058 0.12821 0.08998
 C990 C 0.26544 0.14572 0.10753
 C991 C 0.28321 0.16278 0.10296
 C992 C 0.29584 0.16254 0.08166
 C993 C 0.29109 0.14541 0.06451
 C994 C 0.27368 0.12839 0.06853
 C995 C 0.21193 0.09429 0.12021
 C996 C 0.19933 0.09450 0.14152
 C997 C 0.20427 0.11145 0.15878
 C998 C 0.22169 0.12844 0.15478
 C999 C 0.23829 0.09264 0.07662
 C1000 C 0.23434 0.07691 0.06264
 C1001 C 0.25717 0.16391 0.14696
 C1002 C 0.26004 0.17883 0.16203
 H1003 H 0.28754 0.17644 0.11578
 H1004 H 0.30937 0.17572 0.07845
 H1005 H 0.30094 0.14530 0.04799
 H1006 H 0.27060 0.11543 0.05465
 H1007 H 0.20744 0.08073 0.10735
 H1008 H 0.18569 0.08141 0.14469
 H1009 H 0.19454 0.11143 0.17537
 H1010 H 0.22480 0.14130 0.16873
 C1011 C 0.75219 0.64830 0.62583
 C1012 C 0.72828 0.64204 0.62149
 C1013 C 0.72278 0.62494 0.60374
 C1014 C 0.74121 0.61421 0.59049
 C1015 C 0.76507 0.62082 0.59453
 C1016 C 0.77057 0.63793 0.61227
 C1017 C 0.79454 0.64420 0.61607
 C1018 C 0.81258 0.63387 0.60270
 C1019 C 0.80721 0.61713 0.58535
 C1020 C 0.78376 0.61061 0.58123
 C1021 C 0.69877 0.61890 0.59975
 C1022 C 0.68071 0.62948 0.61291
 C1023 C 0.68608 0.64620 0.63026
 C1024 C 0.70956 0.65246 0.63460
 C1025 C 0.73577 0.59566 0.57345
 C1026 C 0.73141 0.57974 0.55982
 C1027 C 0.75772 0.66542 0.64428
 C1028 C 0.76140 0.67981 0.65968
 H1029 H 0.79958 0.65714 0.62937
 H1030 H 0.83082 0.63888 0.60582
 H1031 H 0.82128 0.60917 0.57500
 H1032 H 0.78046 0.59755 0.56750
 H1033 H 0.69371 0.60602 0.58641
 H1034 H 0.66244 0.62468 0.60961
 H1035 H 0.67199 0.65436 0.64043
 H1036 H 0.71281 0.66556 0.64829
 C1037 C 0.75719 0.86523 0.15400
 C1038 C 0.77108 0.85864 0.13409
 C1039 C 0.77413 0.87480 0.11491
 C1040 C 0.76318 0.89742 0.11570
 C1041 C 0.74957 0.90413 0.13575
 C1042 C 0.74659 0.88799 0.15498
 C1043 C 0.73293 0.89508 0.17484
 C1044 C 0.72250 0.91750 0.17569
 C1045 C 0.72539 0.93327 0.15687
 C1046 C 0.73875 0.92676 0.13708
 C1047 C 0.78814 0.86783 0.09522
 C1048 C 0.79875 0.84549 0.09447
 C1049 C 0.79564 0.82963 0.11315
 C1050 C 0.78206 0.83606 0.13282
 C1051 C 0.76562 0.91352 0.09567
 C1052 C 0.76772 0.92644 0.07868
 C1053 C 0.75395 0.84854 0.17341
 C1054 C 0.75193 0.83418 0.18918
 H1055 H 0.73019 0.88342 0.18991
 H1056 H 0.71211 0.92265 0.19102
 H1057 H 0.71725 0.95066 0.15762
 H1058 H 0.74053 0.93964 0.12290
 H1059 H 0.79108 0.87953 0.08024
 H1060 H 0.80942 0.84046 0.07929
 H1061 H 0.80389 0.81229 0.11247
 H1062 H 0.78031 0.82313 0.14696
 C1063 C 0.25709 0.36855 0.65997
 C1064 C 0.27356 0.36294 0.64182
 C1065 C 0.27654 0.37859 0.62221
 C1066 C 0.26296 0.39970 0.62080
 C1067 C 0.24670 0.40544 0.63908
 C1068 C 0.24376 0.38982 0.65874
 C1069 C 0.22739 0.39589 0.67678
 C1070 C 0.21427 0.41683 0.67544
 C1071 C 0.21714 0.43211 0.65622
 C1072 C 0.23313 0.42657 0.63818
 C1073 C 0.29313 0.37262 0.60429
 C1074 C 0.30629 0.35171 0.60565
 C1075 C 0.30326 0.33633 0.62475
 C1076 C 0.28719 0.34182 0.64272
 C1077 C 0.26540 0.41518 0.60028
 C1078 C 0.26754 0.42758 0.58292
 C1079 C 0.25387 0.35228 0.67974
 C1080 C 0.25187 0.33819 0.69575
 H1081 H 0.22456 0.38456 0.69208
 H1082 H 0.20183 0.42122 0.68940
 H1083 H 0.20691 0.44835 0.65527
 H1084 H 0.23477 0.43902 0.62360
 H1085 H 0.29611 0.38400 0.58907
 H1086 H 0.31888 0.34741 0.59180
 H1087 H 0.31344 0.32006 0.62566
 H1088 H 0.28558 0.32932 0.65726
 C1089 C 0.75881 0.14003 0.85000
 C1090 C 0.74811 0.11776 0.84557
 C1091 C 0.75145 0.09875 0.86190
 C1092 C 0.76550 0.10212 0.88253
 C1093 C 0.77628 0.12437 0.88692
 C1094 C 0.77288 0.14340 0.87063
 C1095 C 0.78373 0.16552 0.87544
 C1096 C 0.79753 0.16874 0.89579
 C1097 C 0.80098 0.15010 0.91165
 C1098 C 0.79052 0.12814 0.90736
 C1099 C 0.74058 0.07666 0.85711
 C1100 C 0.72680 0.07343 0.83674
 C1101 C 0.72355 0.09201 0.82076
 C1102 C 0.73403 0.11396 0.82503
 C1103 C 0.76850 0.08292 0.89954
 C1104 C 0.77098 0.06746 0.91420
 C1105 C 0.75591 0.15926 0.83302
 C1106 C 0.75407 0.17506 0.81865
 H1107 H 0.78166 0.18053 0.86359
 H1108 H 0.80567 0.18578 0.89922
 H1109 H 0.81182 0.15267 0.92736
 H1110 H 0.79372 0.11419 0.92024
 H1111 H 0.74262 0.06167 0.86900
 H1112 H 0.71862 0.05641 0.83334
 H1113 H 0.71283 0.08940 0.80496
 H1114 H 0.73096 0.12788 0.81209
 C1115 C 0.25722 0.63913 0.35131
 C1116 C 0.24653 0.61685 0.34693
 C1117 C 0.25014 0.59778 0.36314
 C1118 C 0.26445 0.60111 0.38360
 C1119 C 0.27528 0.62336 0.38790
 C1120 C 0.27161 0.64244 0.37173
 C1121 C 0.28252 0.66455 0.37646
 C1122 C 0.29663 0.66771 0.39660
 C1123 C 0.30034 0.64902 0.41233
 C1124 C 0.28982 0.62707 0.40814
 C1125 C 0.23926 0.57568 0.35840
 C1126 C 0.22523 0.57249 0.33820
 C1127 C 0.22172 0.59112 0.32234
 C1128 C 0.23220 0.61309 0.32656
 C1129 C 0.26764 0.58189 0.40054
 C1130 C 0.27030 0.56647 0.41519
 C1131 C 0.25397 0.65846 0.33451
 C1132 C 0.25186 0.67437 0.32032
 H1133 H 0.28027 0.67960 0.36469
 H1134 H 0.30482 0.68474 0.39995
 H1135 H 0.31142 0.65154 0.42788
 H1136 H 0.29323 0.61308 0.42091
 H1137 H 0.24150 0.56066 0.37021
 H1138 H 0.21705 0.55547 0.33484
 H1139 H 0.21082 0.58855 0.30667
 H1140 H 0.22893 0.62705 0.31371
 C1141 C 0.23010 0.84321 0.85603
 C1142 C 0.25024 0.85297 0.86742
 C1143 C 0.24737 0.87072 0.88516
 C1144 C 0.22438 0.87864 0.89139
 C1145 C 0.20422 0.86869 0.88017
 C1146 C 0.20709 0.85091 0.86245
 C1147 C 0.18668 0.84126 0.85146
 C1148 C 0.16409 0.84895 0.85778
 C1149 C 0.16129 0.86634 0.87509
 C1150 C 0.18106 0.87616 0.88622
 C1151 C 0.26779 0.88024 0.89627
 C1152 C 0.29037 0.87244 0.89003
 C1153 C 0.29316 0.85509 0.87268
 C1154 C 0.27339 0.84541 0.86144
 C1155 C 0.22160 0.89743 0.90887
 C1156 C 0.21972 0.91338 0.92307
 C1157 C 0.23301 0.82524 0.83775
 C1158 C 0.23503 0.81021 0.82262
 H1159 H 0.18793 0.82769 0.83789
 H1160 H 0.14868 0.84137 0.84919
 H1161 H 0.14370 0.87224 0.87994
 H1162 H 0.17799 0.88962 0.89960
 H1163 H 0.26654 0.89375 0.90989
 H1164 H 0.30578 0.87990 0.89871
 H1165 H 0.31074 0.84909 0.86789
 H1166 H 0.27646 0.83195 0.84806
 C1167 C 0.72644 0.33876 0.35847
 C1168 C 0.74655 0.34810 0.37023
 C1169 C 0.74376 0.36617 0.38765
 C1170 C 0.72085 0.37482 0.39318
 C1171 C 0.70069 0.36518 0.38170
 C1172 C 0.70349 0.34709 0.36429
 C1173 C 0.68308 0.33778 0.35301
 C1174 C 0.66055 0.34607 0.35877
 C1175 C 0.65781 0.36376 0.37578
 C1176 C 0.67759 0.37329 0.38716
 C1177 C 0.76415 0.37528 0.39913
 C1178 C 0.78666 0.36677 0.39356
 C1179 C 0.78938 0.34911 0.37652
 C1180 C 0.76963 0.33982 0.36493
 C1181 C 0.71819 0.39413 0.41008
 C1182 C 0.71639 0.41053 0.42374
 C1183 C 0.72931 0.32070 0.34028
 C1184 C 0.73126 0.30569 0.32513
 H1185 H 0.68428 0.32399 0.33966
 H1186 H 0.64513 0.33872 0.34998
 H1187 H 0.64027 0.37014 0.38018
 H1188 H 0.67457 0.38700 0.40029
 H1189 H 0.76295 0.38900 0.41254
 H1190 H 0.80206 0.37392 0.40253
 H1191 H 0.80690 0.34256 0.37226
 H1192 H 0.77265 0.32609 0.35182
 C1193 C 0.15342 0.24621 0.13352
 C1194 C 0.15142 0.26096 0.11319
 C1195 C 0.13184 0.25831 0.09743
 C1196 C 0.11441 0.24091 0.10210
 C1197 C 0.11658 0.22594 0.12227
 C1198 C 0.13611 0.22863 0.13805
 C1199 C 0.13777 0.21358 0.15822
 C1200 C 0.12063 0.19641 0.16266
 C1201 C 0.10163 0.19367 0.14714
 C1202 C 0.09953 0.20822 0.12716
 C1203 C 0.13018 0.27331 0.07727
 C1204 C 0.14738 0.29042 0.07277
 C1205 C 0.16653 0.29300 0.08816
 C1206 C 0.16861 0.27849 0.10818
 C1207 C 0.09398 0.23865 0.08649
 C1208 C 0.07673 0.23660 0.07396
 C1209 C 0.17312 0.24909 0.14994
 C1210 C 0.18909 0.25073 0.16413
 H1211 H 0.15227 0.21492 0.17078
 H1212 H 0.12209 0.18517 0.17824
 H1213 H 0.08842 0.18023 0.15063
 H1214 H 0.08440 0.20541 0.11564
 H1215 H 0.11562 0.27195 0.06477
 H1216 H 0.14585 0.30174 0.05725
 H1217 H 0.17984 0.30631 0.08458
 H1218 H 0.18382 0.28114 0.11964
 C1219 C 0.65799 0.74989 0.63027
 C1220 C 0.63885 0.76613 0.63091
 C1221 C 0.61950 0.76339 0.61493
 C1222 C 0.61941 0.74440 0.59842
 C1223 C 0.63884 0.72851 0.59737
 C1224 C 0.65823 0.73130 0.61331
 C1225 C 0.67746 0.71520 0.61193
 C1226 C 0.67756 0.69692 0.59523
 C1227 C 0.65853 0.69410 0.57976
 C1228 C 0.63933 0.70966 0.58074
 C1229 C 0.60050 0.77977 0.61599
 C1230 C 0.60061 0.79833 0.63237
 C1231 C 0.61953 0.80099 0.64802
 C1232 C 0.63848 0.78512 0.64739
 C1233 C 0.59900 0.74085 0.58309
 C1234 C 0.58172 0.73791 0.57082
 C1235 C 0.67698 0.75174 0.64761
 C1236 C 0.69255 0.75270 0.66227
 H1237 H 0.69266 0.71663 0.62363
 H1238 H 0.69249 0.68489 0.59429
 H1239 H 0.65866 0.67982 0.56688
 H1240 H 0.62497 0.70680 0.56827
 H1241 H 0.58539 0.77847 0.60417
 H1242 H 0.58594 0.81071 0.63293
 H1243 H 0.61955 0.81544 0.66071
 H1244 H 0.65282 0.78796 0.65988
 C1245 C 0.13125 0.74367 0.85462
 C1246 C 0.13393 0.76204 0.87162
 C1247 C 0.11599 0.76597 0.88888
 C1248 C 0.09555 0.75145 0.88912
 C1249 C 0.09283 0.73318 0.87205
 C1250 C 0.11074 0.72928 0.85473
 C1251 C 0.10764 0.71092 0.83784
 C1252 C 0.08741 0.69680 0.83805
 C1253 C 0.06990 0.70060 0.85500
 C1254 C 0.07249 0.71855 0.87186
 C1255 C 0.11902 0.78449 0.90565
 C1256 C 0.13924 0.79862 0.90544
 C1257 C 0.15684 0.79467 0.88865
 C1258 C 0.15428 0.77669 0.87183
 C1259 C 0.07767 0.75502 0.90729
 C1260 C 0.06335 0.75814 0.92287
 C1261 C 0.14945 0.73999 0.83679
 C1262 C 0.16472 0.73776 0.82201
 H1263 H 0.12078 0.70729 0.82432
 H1264 H 0.08531 0.68284 0.82500
 H1265 H 0.05422 0.68959 0.85509
 H1266 H 0.05838 0.72086 0.88467
 H1267 H 0.10583 0.78824 0.91909
 H1268 H 0.14128 0.81268 0.91840
 H1269 H 0.17258 0.80560 0.88866
 H1270 H 0.16845 0.77438 0.85910
 C1271 C 0.62684 0.24105 0.35592
 C1272 C 0.62996 0.25945 0.37281
 C1273 C 0.61213 0.26391 0.39007
 C1274 C 0.59135 0.24988 0.39042
 C1275 C 0.58821 0.23155 0.37349
 C1276 C 0.60600 0.22713 0.35617
 C1277 C 0.60247 0.20873 0.33940
 C1278 C 0.58193 0.19507 0.33975
 C1279 C 0.56454 0.19937 0.35669
 C1280 C 0.56755 0.21738 0.37342
 C1281 C 0.61561 0.28245 0.40672
 C1282 C 0.63616 0.29610 0.40641
 C1283 C 0.65366 0.29162 0.38964
 C1284 C 0.65065 0.27361 0.37293
 C1285 C 0.57356 0.25403 0.40857
 C1286 C 0.55941 0.25774 0.42417
 C1287 C 0.64492 0.23689 0.33807
 C1288 C 0.66016 0.23437 0.32330
 H1289 H 0.61551 0.20471 0.32590
 H1290 H 0.57950 0.18106 0.32679
 H1291 H 0.54862 0.18871 0.35688
 H1292 H 0.55352 0.22009 0.38624
 H1293 H 0.60253 0.28661 0.42014
 H1294 H 0.63855 0.31018 0.41928
 H1295 H 0.66965 0.30217 0.38958
 H1296 H 0.66476 0.27089 0.36020
 C1297 C 0.85512 0.76364 0.15520
 C1298 C 0.85912 0.78565 0.14370
 C1299 C 0.87643 0.78734 0.12544
 C1300 C 0.88971 0.76704 0.11886
 C1301 C 0.88587 0.74510 0.13053
 C1302 C 0.86851 0.74340 0.14874
 C1303 C 0.86494 0.72127 0.16010
 C1304 C 0.87817 0.70139 0.15367
 C1305 C 0.89515 0.70306 0.13588
 C1306 C 0.89903 0.72461 0.12437
 C1307 C 0.88001 0.80948 0.11410
 C1308 C 0.86697 0.82942 0.12071
 C1309 C 0.85017 0.82782 0.13869
 C1310 C 0.84615 0.80622 0.15005
 C1311 C 0.90700 0.76861 0.09981
 C1312 C 0.92108 0.76983 0.08374
 C1313 C 0.83724 0.76192 0.17366
 C1314 C 0.82236 0.76097 0.18898
 H1315 H 0.85193 0.71910 0.17405
 H1316 H 0.87522 0.68461 0.16256
 H1317 H 0.90539 0.68756 0.13096
 H1318 H 0.91246 0.72502 0.11066
 H1319 H 0.89293 0.81163 0.10006
 H1320 H 0.86993 0.84622 0.11186
 H1321 H 0.84009 0.84336 0.14377
 H1322 H 0.83279 0.80585 0.16383
 C1323 C 0.35685 0.26924 0.66460
 C1324 C 0.36264 0.29170 0.65491
 C1325 C 0.37973 0.29340 0.63643
 C1326 C 0.39097 0.27264 0.62779
 C1327 C 0.38551 0.25024 0.63782
 C1328 C 0.36838 0.24854 0.65627
 C1329 C 0.36314 0.22596 0.66593
 C1330 C 0.37452 0.20563 0.65764
 C1331 C 0.39126 0.20728 0.63962
 C1332 C 0.39676 0.22928 0.62975
 C1333 C 0.38511 0.31601 0.62693
 C1334 C 0.37400 0.33638 0.63549
 C1335 C 0.35735 0.33474 0.65360
 C1336 C 0.35163 0.31270 0.66324
 C1337 C 0.40761 0.27417 0.60814
 C1338 C 0.42108 0.27515 0.59153
 C1339 C 0.33878 0.26745 0.68288
 C1340 C 0.32362 0.26635 0.69792
 H1341 H 0.35026 0.22378 0.68000
 H1342 H 0.37031 0.18850 0.66525
 H1343 H 0.40006 0.19144 0.63325
 H1344 H 0.40994 0.22966 0.61579
 H1345 H 0.39798 0.31820 0.61285
 H1346 H 0.37833 0.35354 0.62803
 H1347 H 0.34876 0.35061 0.66020
 H1348 H 0.33855 0.31234 0.67728
 C1349 C 0.85170 0.24491 0.85913
 C1350 C 0.86251 0.26495 0.86970
 C1351 C 0.87775 0.26201 0.88970
 C1352 C 0.88210 0.23903 0.89899
 C1353 C 0.87108 0.21901 0.88857
 C1354 C 0.85588 0.22194 0.86855
 C1355 C 0.84521 0.20162 0.85833
 C1356 C 0.84945 0.17907 0.86761
 C1357 C 0.86418 0.17623 0.88728
 C1358 C 0.87494 0.19589 0.89769
 C1359 C 0.88838 0.28231 0.89994
 C1360 C 0.88409 0.30487 0.89070
 C1361 C 0.86920 0.30774 0.87114
 C1362 C 0.85849 0.28807 0.86069
 C1363 C 0.89873 0.23590 0.91854
 C1364 C 0.91318 0.23329 0.93420
 C1365 C 0.83584 0.24785 0.83892
 C1366 C 0.82213 0.24956 0.82250
 H1367 H 0.83352 0.20291 0.84308
 H1368 H 0.84112 0.16374 0.85959
 H1369 H 0.86729 0.15868 0.89451
 H1370 H 0.88626 0.19278 0.91297
 H1371 H 0.90005 0.28099 0.91521
 H1372 H 0.89235 0.32022 0.89876
 H1373 H 0.86594 0.32530 0.86403
 H1374 H 0.84707 0.29118 0.84549
 C1375 C 0.35142 0.74303 0.35883
 C1376 C 0.36273 0.76300 0.36900
 C1377 C 0.37832 0.75998 0.38869
 C1378 C 0.38250 0.73701 0.39807
 C1379 C 0.37099 0.71707 0.38804
 C1380 C 0.35545 0.72008 0.36832
 C1381 C 0.34427 0.69984 0.35848
 C1382 C 0.34837 0.67730 0.36785
 C1383 C 0.36346 0.67438 0.38723
 C1384 C 0.37471 0.69397 0.39727
 C1385 C 0.38946 0.78021 0.39855
 C1386 C 0.38531 0.80276 0.38922
 C1387 C 0.37007 0.80570 0.36996
 C1388 C 0.35885 0.78611 0.35989
 C1389 C 0.39943 0.73380 0.41730
 C1390 C 0.41412 0.73119 0.43269
 C1391 C 0.33518 0.74607 0.33899
 C1392 C 0.32111 0.74792 0.32292
 H1393 H 0.33230 0.70120 0.34346
 H1394 H 0.33966 0.66203 0.36012
 H1395 H 0.36646 0.65685 0.39453
 H1396 H 0.38629 0.69081 0.41234
 H1397 H 0.40142 0.77883 0.41358
 H1398 H 0.39397 0.81803 0.39699
 H1399 H 0.36691 0.82325 0.36277
 H1400 H 0.34717 0.78928 0.34491
 C1401 C 0.15785 0.14381 0.23172
 C1402 C 0.14894 0.13278 0.25250
 C1403 C 0.13112 0.11511 0.25057
 C1404 C 0.12229 0.10857 0.22787
 C1405 C 0.13150 0.11930 0.20705
 C1406 C 0.14932 0.13699 0.20898
 C1407 C 0.15818 0.14755 0.18793
 C1408 C 0.14971 0.14080 0.16561
 C1409 C 0.13230 0.12351 0.16373
 C1410 C 0.12321 0.11283 0.18416
 C1411 C 0.12244 0.10441 0.27164
 C1412 C 0.13112 0.11097 0.29394
 C1413 C 0.14854 0.12824 0.29580
 C1414 C 0.15742 0.13908 0.27539
 C1415 C 0.10312 0.09148 0.22620
 C1416 C 0.08678 0.07773 0.22589
 C1417 C 0.17570 0.16220 0.23375
 C1418 C 0.19058 0.17744 0.23519
 H1419 H 0.17175 0.16107 0.18847
 H1420 H 0.15671 0.14904 0.14970
 H1421 H 0.12579 0.11833 0.14635
 H1422 H 0.10971 0.09943 0.18181
 H1423 H 0.10891 0.09086 0.27114
 H1424 H 0.12428 0.10259 0.30985
 H1425 H 0.15523 0.13327 0.31316
 H1426 H 0.17097 0.15241 0.27776
 C1427 C 0.66101 0.64530 0.73521
 C1428 C 0.64314 0.64479 0.75284
 C1429 C 0.62539 0.62694 0.75213
 C1430 C 0.62559 0.60972 0.73376
 C1431 C 0.64362 0.61008 0.71627
 C1432 C 0.66140 0.62790 0.71701
 C1433 C 0.67927 0.62785 0.69936
 C1434 C 0.67960 0.61065 0.68154
 C1435 C 0.66215 0.59332 0.68075
 C1436 C 0.64432 0.59295 0.69787
 C1437 C 0.60769 0.62683 0.76995
 C1438 C 0.60753 0.64384 0.78794
 C1439 C 0.62487 0.66129 0.78862
 C1440 C 0.64251 0.66185 0.77132
 C1441 C 0.60692 0.59204 0.73261
 C1442 C 0.59100 0.57783 0.73172
 C1443 C 0.67891 0.66377 0.73569
 C1444 C 0.69386 0.67902 0.73581
 H1445 H 0.69319 0.64101 0.69916
 H1446 H 0.69349 0.61076 0.66829
 H1447 H 0.66246 0.58005 0.66683
 H1448 H 0.63117 0.57907 0.69655
 H1449 H 0.59383 0.61360 0.77020
 H1450 H 0.59387 0.64348 0.80143
 H1451 H 0.62467 0.67447 0.80264
 H1452 H 0.65562 0.67576 0.77261
 C1453 C 0.86313 0.14893 0.74859
 C1454 C 0.85872 0.12506 0.75503
 C1455 C 0.87788 0.10880 0.75724
 C1456 C 0.90137 0.11650 0.75299
 C1457 C 0.90577 0.14033 0.74640
 C1458 C 0.88659 0.15660 0.74419
 C1459 C 0.89144 0.18035 0.73766
 C1460 C 0.91457 0.18782 0.73344
 C1461 C 0.93330 0.17191 0.73559
 C1462 C 0.92905 0.14841 0.74199
 C1463 C 0.87300 0.08505 0.76379
 C1464 C 0.84989 0.07758 0.76804
 C1465 C 0.83116 0.09348 0.76589
 C1466 C 0.83542 0.11697 0.75946
 C1467 C 0.92089 0.09984 0.75557
 C1468 C 0.93646 0.08534 0.75797
 C1469 C 0.84360 0.16572 0.74715
 C1470 C 0.82746 0.17975 0.74646
 H1471 H 0.87746 0.19337 0.73574
 H1472 H 0.91796 0.20605 0.72846
 H1473 H 0.95123 0.17781 0.73229
 H1474 H 0.94419 0.13669 0.74345
 H1475 H 0.88696 0.07199 0.76570
 H1476 H 0.84649 0.05935 0.77303
 H1477 H 0.81324 0.08760 0.76921
 H1478 H 0.82026 0.12867 0.75800
 C1479 C 0.35871 0.64764 0.24850
 C1480 C 0.35542 0.62543 0.25979
 C1481 C 0.37477 0.60943 0.26208
 C1482 C 0.39732 0.61574 0.25307
 C1483 C 0.40057 0.63788 0.24165
 C1484 C 0.38120 0.65389 0.23936
 C1485 C 0.38490 0.67597 0.22796
 C1486 C 0.40710 0.68207 0.21908
 C1487 C 0.42603 0.66641 0.22132
 C1488 C 0.42290 0.64454 0.23246
 C1489 C 0.37105 0.58735 0.27352
 C1490 C 0.34887 0.58127 0.28244
 C1491 C 0.32995 0.59694 0.28021
 C1492 C 0.33308 0.61878 0.26903
 C1493 C 0.41703 0.59935 0.25560
 C1494 C 0.43277 0.58506 0.25800
 C1495 C 0.33917 0.66437 0.24710
 C1496 C 0.32313 0.67849 0.24660
 H1497 H 0.37071 0.68873 0.22576
 H1498 H 0.40962 0.69904 0.21041
 H1499 H 0.44323 0.67123 0.21440
 H1500 H 0.43815 0.63295 0.23380
 H1501 H 0.38520 0.57455 0.27571
 H1502 H 0.34635 0.56432 0.29113
 H1503 H 0.31275 0.59214 0.28718
 H1504 H 0.31781 0.63035 0.26770
 C1505 C 0.13420 0.84399 0.75222
 C1506 C 0.13859 0.86177 0.76950
 C1507 C 0.12301 0.88150 0.77146
 C1508 C 0.10318 0.88341 0.75607
 C1509 C 0.09858 0.86545 0.73907
 C1510 C 0.11413 0.84567 0.73715
 C1511 C 0.10920 0.82797 0.71999
 C1512 C 0.08946 0.82975 0.70513
 C1513 C 0.07427 0.84910 0.70699
 C1514 C 0.07869 0.86681 0.72373
 C1515 C 0.12778 0.89905 0.78886
 C1516 C 0.14745 0.89722 0.80379
 C1517 C 0.16277 0.87802 0.80177
 C1518 C 0.15844 0.86040 0.78493
 C1519 C 0.08789 0.90412 0.75746
 C1520 C 0.07563 0.92161 0.75878
 C1521 C 0.15065 0.82430 0.74981
 C1522 C 0.16502 0.80852 0.74853
 H1523 H 0.12051 0.81258 0.71791
 H1524 H 0.08594 0.81605 0.69211
 H1525 H 0.05897 0.85040 0.69541
 H1526 H 0.06635 0.88150 0.72453
 H1527 H 0.11639 0.91434 0.79111
 H1528 H 0.15085 0.91081 0.81697
 H1529 H 0.17811 0.87677 0.81331
 H1530 H 0.17084 0.84575 0.78416
 C1531 C 0.63105 0.34111 0.25362
 C1532 C 0.63536 0.35891 0.27089
 C1533 C 0.61980 0.37866 0.27270
 C1534 C 0.60009 0.38055 0.25716
 C1535 C 0.59558 0.36258 0.24015
 C1536 C 0.61111 0.34278 0.23838
 C1537 C 0.60630 0.32506 0.22121
 C1538 C 0.58668 0.32685 0.20619
 C1539 C 0.57150 0.34622 0.20790
 C1540 C 0.57581 0.36395 0.22465
 C1541 C 0.62447 0.39624 0.29009
 C1542 C 0.64404 0.39442 0.30517
 C1543 C 0.65935 0.37519 0.30329
 C1544 C 0.65510 0.35754 0.28646
 C1545 C 0.58485 0.40127 0.25838
 C1546 C 0.57265 0.41879 0.25957
 C1547 C 0.64744 0.32139 0.25140
 C1548 C 0.66172 0.30554 0.25025
 H1549 H 0.61760 0.30966 0.21923
 H1550 H 0.58325 0.31314 0.19316
 H1551 H 0.55629 0.34753 0.19619
 H1552 H 0.56349 0.37866 0.22534
 H1553 H 0.61309 0.41156 0.29223
 H1554 H 0.64737 0.40804 0.31834
 H1555 H 0.67461 0.37395 0.31493
 H1556 H 0.66748 0.34288 0.28581
 C1557 C 0.85659 0.86746 0.25468
 C1558 C 0.87746 0.86726 0.26868
 C1559 C 0.89515 0.88476 0.26492
 C1560 C 0.89185 0.90236 0.24716
 C1561 C 0.87093 0.90261 0.23323
 C1562 C 0.85325 0.88509 0.23698
 C1563 C 0.83253 0.88563 0.22272
 C1564 C 0.82937 0.90297 0.20529
 C1565 C 0.84665 0.92012 0.20166
 C1566 C 0.86724 0.92003 0.21542
 C1567 C 0.91592 0.88413 0.27910
 C1568 C 0.91912 0.86672 0.29645
 C1569 C 0.90182 0.84962 0.30012
 C1570 C 0.88119 0.84980 0.28645
 C1571 C 0.91020 0.91991 0.24317
 C1572 C 0.92605 0.93395 0.24049
 C1573 C 0.83875 0.84928 0.25814
 C1574 C 0.82383 0.83420 0.26041
 H1575 H 0.81857 0.87268 0.22488
 H1576 H 0.81342 0.90311 0.19454
 H1577 H 0.84411 0.93356 0.18811
 H1578 H 0.88019 0.93372 0.21195
 H1579 H 0.92991 0.89704 0.27694
 H1580 H 0.93512 0.86651 0.30711
 H1581 H 0.90439 0.83613 0.31362
 H1582 H 0.86823 0.83613 0.28996
 C1583 C 0.35593 0.37190 0.76388
 C1584 C 0.37205 0.36928 0.74475
 C1585 C 0.38975 0.38672 0.74087
 C1586 C 0.39131 0.40663 0.75618
 C1587 C 0.37520 0.40924 0.77529
 C1588 C 0.35745 0.39181 0.77915
 C1589 C 0.34154 0.39478 0.79836
 C1590 C 0.34314 0.41441 0.81335
 C1591 C 0.36051 0.43144 0.80959
 C1592 C 0.37640 0.42898 0.79079
 C1593 C 0.40562 0.38375 0.72159
 C1594 C 0.40410 0.36407 0.70666
 C1595 C 0.38686 0.34696 0.71054
 C1596 C 0.37093 0.34947 0.72928
 C1597 C 0.40980 0.42408 0.75246
 C1598 C 0.42560 0.43799 0.74900
 C1599 C 0.33761 0.35424 0.76744
 C1600 C 0.32245 0.33938 0.76948
 H1601 H 0.32775 0.38199 0.80200
 H1602 H 0.33085 0.41640 0.82798
 H1603 H 0.36167 0.44665 0.82129
 H1604 H 0.38959 0.44270 0.78856
 H1605 H 0.41936 0.39657 0.71784
 H1606 H 0.41640 0.36207 0.69204
 H1607 H 0.38585 0.33163 0.69899
 H1608 H 0.35781 0.33568 0.73152
 C1609 C 0.14367 0.25370 0.87330
 C1610 C 0.12262 0.26737 0.87302
 C1611 C 0.10448 0.26270 0.88986
 C1612 C 0.10749 0.24434 0.90688
 C1613 C 0.12857 0.23071 0.90721
 C1614 C 0.14675 0.23544 0.89040
 C1615 C 0.16773 0.22164 0.89114
 C1616 C 0.17066 0.20374 0.90804
 C1617 C 0.15280 0.19902 0.92435
 C1618 C 0.13196 0.21230 0.92403
 C1619 C 0.08357 0.27660 0.88920
 C1620 C 0.08067 0.29458 0.87238
 C1621 C 0.09842 0.29913 0.85591
 C1622 C 0.11919 0.28575 0.85614
 C1623 C 0.08877 0.23964 0.92390
 C1624 C 0.07257 0.23659 0.93750
 C1625 C 0.16192 0.25814 0.85572
 C1626 C 0.17701 0.26144 0.84095
 H1627 H 0.18208 0.22457 0.87875
 H1628 H 0.18686 0.19344 0.90846
 H1629 H 0.15513 0.18501 0.93736
 H1630 H 0.11858 0.20802 0.93711
 H1631 H 0.06923 0.27377 0.90162
 H1632 H 0.06456 0.30503 0.87213
 H1633 H 0.09609 0.31312 0.84287
 H1634 H 0.13249 0.28998 0.84297
 C1635 C 0.64684 0.75033 0.36891
 C1636 C 0.62589 0.76415 0.36892
 C1637 C 0.60795 0.75959 0.38601
 C1638 C 0.61106 0.74119 0.40296
 C1639 C 0.63207 0.72747 0.40305
 C1640 C 0.65006 0.73209 0.38600
 C1641 C 0.67099 0.71821 0.38650
 C1642 C 0.67406 0.70033 0.40340
 C1643 C 0.65638 0.69569 0.41993
 C1644 C 0.63559 0.70906 0.41985
 C1645 C 0.58713 0.77365 0.38564
 C1646 C 0.58413 0.79166 0.36888
 C1647 C 0.60168 0.79610 0.35217
 C1648 C 0.62235 0.78256 0.35210
 C1649 C 0.59248 0.73653 0.42014
 C1650 C 0.57637 0.73353 0.43386
 C1651 C 0.66479 0.75454 0.35097
 C1652 C 0.67957 0.75764 0.33585
 H1653 H 0.68520 0.72106 0.37392
 H1654 H 0.69022 0.68996 0.40363
 H1655 H 0.65881 0.68169 0.43293
 H1656 H 0.62235 0.70485 0.43310
 H1657 H 0.57294 0.77090 0.39826
 H1658 H 0.56810 0.80223 0.36887
 H1659 H 0.59928 0.81011 0.33918
 H1660 H 0.63550 0.78672 0.33876
 C1661 C 0.87314 0.76290 0.83771
 C1662 C 0.87697 0.78621 0.84629
 C1663 C 0.89244 0.78999 0.86593
 C1664 C 0.90390 0.77044 0.87686
 C1665 C 0.90082 0.74727 0.86763
 C1666 C 0.88537 0.74349 0.84799
 C1667 C 0.88237 0.72015 0.83920
 C1668 C 0.89433 0.70107 0.84951
 C1669 C 0.90945 0.70475 0.86872
 C1670 C 0.91271 0.72753 0.87776
 C1671 C 0.89591 0.81340 0.87431
 C1672 C 0.88453 0.83256 0.86348
 C1673 C 0.86943 0.82887 0.84425
 C1674 C 0.86552 0.80598 0.83576
 C1675 C 0.91787 0.77375 0.89833
 C1676 C 0.92902 0.77525 0.91661
 C1677 C 0.85586 0.75878 0.81903
 C1678 C 0.84101 0.75566 0.80393
 H1679 H 0.87085 0.71642 0.82425
 H1680 H 0.89186 0.68335 0.84254
 H1681 H 0.91871 0.68987 0.87667
 H1682 H 0.92471 0.72948 0.89269
 H1683 H 0.90754 0.81712 0.88919
 H1684 H 0.88743 0.85037 0.87006
 H1685 H 0.86061 0.84381 0.83591
 H1686 H 0.85362 0.80401 0.82075
 C1687 C 0.36743 0.26242 0.34214
 C1688 C 0.37160 0.28584 0.35025
 C1689 C 0.38680 0.28979 0.37009
 C1690 C 0.39772 0.27030 0.38169
 C1691 C 0.39415 0.24696 0.37306
 C1692 C 0.37896 0.24301 0.35324
 C1693 C 0.37553 0.21952 0.34505
 C1694 C 0.38682 0.20045 0.35611
 C1695 C 0.40168 0.20429 0.37549
 C1696 C 0.40536 0.22722 0.38395
 C1697 C 0.39059 0.31332 0.37795
 C1698 C 0.37978 0.33244 0.36647
 C1699 C 0.36494 0.32859 0.34706
 C1700 C 0.36075 0.30559 0.33903
 C1701 C 0.41190 0.27395 0.40300
 C1702 C 0.42336 0.27592 0.42106
 C1703 C 0.35056 0.25823 0.32305
 C1704 C 0.33604 0.25508 0.30761
 H1705 H 0.36417 0.21565 0.33000
 H1706 H 0.38402 0.18260 0.34960
 H1707 H 0.41042 0.18941 0.38402
 H1708 H 0.41713 0.22928 0.39905
 H1709 H 0.40202 0.31718 0.39296
 H1710 H 0.38291 0.35034 0.37268
 H1711 H 0.35657 0.34349 0.33822
 H1712 H 0.34907 0.30350 0.32387
 C1713 C 0.13911 0.75750 0.14814
 C1714 C 0.13282 0.78020 0.13930
 C1715 C 0.11346 0.78262 0.12324
 C1716 C 0.10056 0.76233 0.11608
 C1717 C 0.10675 0.73965 0.12505
 C1718 C 0.12609 0.73723 0.14112
 C1719 C 0.13201 0.71437 0.14978
 C1720 C 0.11918 0.69446 0.14276
 C1721 C 0.10027 0.69682 0.12704
 C1722 C 0.09405 0.71911 0.11823
 C1723 C 0.10750 0.80548 0.11462
 C1724 C 0.12034 0.82538 0.12164
 C1725 C 0.13929 0.82300 0.13731
 C1726 C 0.14554 0.80073 0.14611
 C1727 C 0.08164 0.76454 0.09867
 C1728 C 0.06645 0.76577 0.08360
 C1729 C 0.15871 0.75505 0.16473
 C1730 C 0.17471 0.75322 0.17886
 H1731 H 0.14659 0.71162 0.16203
 H1732 H 0.12395 0.67711 0.14955
 H1733 H 0.09036 0.68131 0.12164
 H1734 H 0.07917 0.72003 0.10607
 H1735 H 0.09288 0.80821 0.10242
 H1736 H 0.11556 0.84274 0.11488
 H1737 H 0.14921 0.83850 0.14266
 H1738 H 0.16043 0.79981 0.15826
 C1739 C 0.64369 0.25946 0.64448
 C1740 C 0.62978 0.28035 0.64614
 C1741 C 0.60997 0.28355 0.63076
 C1742 C 0.60418 0.26584 0.61386
 C1743 C 0.61818 0.24500 0.61216
 C1744 C 0.63799 0.24183 0.62750
 C1745 C 0.65170 0.22086 0.62549
 C1746 C 0.64599 0.20351 0.60879
 C1747 C 0.62661 0.20658 0.59380
 C1748 C 0.61281 0.22704 0.59537
 C1749 C 0.59631 0.30453 0.63276
 C1750 C 0.60200 0.32183 0.64955
 C1751 C 0.62131 0.31868 0.66464
 C1752 C 0.63514 0.29825 0.66299
 C1753 C 0.58409 0.26893 0.59794
 C1754 C 0.56792 0.27039 0.58392
 C1755 C 0.66342 0.25584 0.66071
 C1756 C 0.67938 0.25309 0.67474
 H1757 H 0.66697 0.21767 0.63674
 H1758 H 0.65666 0.18758 0.60750
 H1759 H 0.62223 0.19304 0.58086
 H1760 H 0.59792 0.22857 0.58330
 H1761 H 0.58110 0.30773 0.62143
 H1762 H 0.59134 0.33776 0.65088
 H1763 H 0.62559 0.33212 0.67773
 H1764 H 0.65004 0.29665 0.67506
 C1765 C 0.84127 0.22537 0.14828
 C1766 C 0.85003 0.24609 0.13713
 C1767 C 0.86763 0.24421 0.11918
 C1768 C 0.87640 0.22161 0.11249
 C1769 C 0.86735 0.20085 0.12337
 C1770 C 0.84974 0.20274 0.14135
 C1771 C 0.84103 0.18177 0.15205
 C1772 C 0.84943 0.15955 0.14515
 C1773 C 0.86662 0.15771 0.12756
 C1774 C 0.87556 0.17807 0.11675
 C1775 C 0.87615 0.26521 0.10834
 C1776 C 0.86752 0.28740 0.11502
 C1777 C 0.85032 0.28923 0.13258
 C1778 C 0.84161 0.26887 0.14357
 C1779 C 0.89533 0.22004 0.09508
 C1780 C 0.91149 0.22001 0.08108
 C1781 C 0.82342 0.22740 0.16674
 C1782 C 0.80842 0.22919 0.18187
 H1783 H 0.82765 0.18229 0.16580
 H1784 H 0.84255 0.14369 0.15350
 H1785 H 0.87306 0.14041 0.12225
 H1786 H 0.88889 0.17577 0.10312
 H1787 H 0.88949 0.26475 0.09455
 H1788 H 0.87422 0.30326 0.10652
 H1789 H 0.84367 0.30650 0.13771
 H1790 H 0.82823 0.27123 0.15713
 C1791 C 0.34483 0.72818 0.64616
 C1792 C 0.35590 0.74863 0.63673
 C1793 C 0.37344 0.74625 0.61879
 C1794 C 0.37981 0.72343 0.61035
 C1795 C 0.36849 0.70300 0.61953
 C1796 C 0.35101 0.70537 0.63758
 C1797 C 0.34013 0.68467 0.64670
 C1798 C 0.34627 0.66228 0.63816
 C1799 C 0.36322 0.65998 0.62039
 C1800 C 0.37429 0.68005 0.61114
 C1801 C 0.38433 0.76699 0.60972
 C1802 C 0.37806 0.78938 0.61813
 C1803 C 0.36090 0.79169 0.63567
 C1804 C 0.34989 0.77161 0.64493
 C1805 C 0.39865 0.72119 0.59294
 C1806 C 0.41483 0.72060 0.57897
 C1807 C 0.32704 0.73068 0.66459
 C1808 C 0.31210 0.73276 0.67974
 H1809 H 0.32674 0.68555 0.66043
 H1810 H 0.33768 0.64664 0.64524
 H1811 H 0.36781 0.64256 0.61373
 H1812 H 0.38738 0.67741 0.59734
 H1813 H 0.39775 0.76616 0.59602
 H1814 H 0.38656 0.80503 0.61098
 H1815 H 0.35609 0.80912 0.64215
 H1816 H 0.33665 0.77433 0.65856
 C1817 C 0.23393 0.16102 0.87395
 C1818 C 0.21030 0.15312 0.87675
 C1819 C 0.20538 0.13344 0.89179
 C1820 C 0.22413 0.12177 0.90385
 C1821 C 0.24764 0.13025 0.90171
 C1822 C 0.25254 0.14993 0.88671
 C1823 C 0.27618 0.15797 0.88468
 C1824 C 0.29448 0.14688 0.89715
 C1825 C 0.28970 0.12762 0.91183
 C1826 C 0.26660 0.11932 0.91414
 C1827 C 0.18167 0.12579 0.89426
 C1828 C 0.16329 0.13734 0.88231
 C1829 C 0.16809 0.15659 0.86761
 C1830 C 0.19130 0.16439 0.86470
 C1831 C 0.21964 0.10044 0.91760
 C1832 C 0.21712 0.08230 0.92869
 C1833 C 0.23917 0.17991 0.85723
 C1834 C 0.24311 0.19522 0.84280
 H1835 H 0.28077 0.17292 0.87351
 H1836 H 0.31246 0.15327 0.89542
 H1837 H 0.30397 0.11907 0.92150
 H1838 H 0.26379 0.10432 0.92583
 H1839 H 0.17709 0.11091 0.90554
 H1840 H 0.14524 0.13130 0.88444
 H1841 H 0.15376 0.16548 0.85834
 H1842 H 0.19414 0.17944 0.85308
 C1843 C 0.73500 0.65652 0.36700
 C1844 C 0.71117 0.64958 0.37058
 C1845 C 0.70591 0.63030 0.38602
 C1846 C 0.72452 0.61804 0.39771
 C1847 C 0.74829 0.62545 0.39465
 C1848 C 0.75353 0.64475 0.37926
 C1849 C 0.77741 0.65174 0.37636
 C1850 C 0.79562 0.63999 0.38835
 C1851 C 0.79052 0.62111 0.40340
 C1852 C 0.76717 0.61384 0.40658
 C1853 C 0.68199 0.62365 0.38929
 C1854 C 0.66375 0.63576 0.37771
 C1855 C 0.66888 0.65461 0.36260
 C1856 C 0.69228 0.66145 0.35893
 C1857 C 0.71954 0.59725 0.41213
 C1858 C 0.71656 0.57955 0.42382
 C1859 C 0.74046 0.67522 0.35011
 C1860 C 0.74448 0.69046 0.33562
 H1861 H 0.78226 0.66635 0.36486
 H1862 H 0.81379 0.64558 0.38594
 H1863 H 0.80472 0.61205 0.41269
 H1864 H 0.76412 0.59910 0.41853
 H1865 H 0.67716 0.60911 0.40089
 H1866 H 0.64554 0.63048 0.38044
 H1867 H 0.65465 0.66394 0.35362
 H1868 H 0.69537 0.67623 0.34702
 C1869 C 0.75350 0.12836 0.14773
 C1870 C 0.74256 0.10580 0.14822
 C1871 C 0.74799 0.08879 0.13037
 C1872 C 0.76434 0.09445 0.11216
 C1873 C 0.77582 0.11676 0.11208
 C1874 C 0.77033 0.13381 0.12988
 C1875 C 0.78180 0.15612 0.12925
 C1876 C 0.79820 0.16143 0.11153
 C1877 C 0.80371 0.14468 0.09425
 C1878 C 0.79268 0.12259 0.09441
 C1879 C 0.73671 0.06640 0.13112
 C1880 C 0.72057 0.06095 0.14904
 C1881 C 0.71527 0.07759 0.16651
 C1882 C 0.72608 0.09979 0.16618
 C1883 C 0.76823 0.07792 0.09275
 C1884 C 0.77062 0.06458 0.07616
 C1885 C 0.74756 0.14596 0.16560
 C1886 C 0.74318 0.16076 0.18042
 H1887 H 0.77823 0.16969 0.14239
 H1888 H 0.80675 0.17860 0.11126
 H1889 H 0.81658 0.14884 0.08062
 H1890 H 0.79756 0.11013 0.08060
 H1891 H 0.74032 0.05284 0.11797
 H1892 H 0.71214 0.04372 0.14938
 H1893 H 0.70273 0.07327 0.18039
 H1894 H 0.72139 0.11214 0.18015
 C1895 C 0.26097 0.63048 0.64849
 C1896 C 0.25376 0.60667 0.65181
 C1897 C 0.25929 0.58932 0.63431
 C1898 C 0.27201 0.59588 0.61365
 C1899 C 0.28029 0.61943 0.61095
 C1900 C 0.27471 0.63680 0.62840
 C1901 C 0.28293 0.66029 0.62517
 C1902 C 0.29631 0.66643 0.60529
 C1903 C 0.30187 0.64941 0.58829
 C1904 C 0.29396 0.62616 0.59096
 C1905 C 0.25171 0.56566 0.63789
 C1906 C 0.23911 0.55931 0.65823
 C1907 C 0.23373 0.57628 0.67535
 C1908 C 0.24090 0.59972 0.67226
 C1909 C 0.27502 0.57893 0.59443
 C1910 C 0.27648 0.56526 0.57799
 C1911 C 0.25421 0.64848 0.66565
 C1912 C 0.24906 0.66356 0.67994
 H1913 H 0.27921 0.67412 0.63800
 H1914 H 0.30254 0.68446 0.60315
 H1915 H 0.31239 0.65425 0.57295
 H1916 H 0.29877 0.61352 0.57730
 H1917 H 0.25558 0.55182 0.62512
 H1918 H 0.23352 0.54113 0.66072
 H1919 H 0.22396 0.57125 0.69112
 H1920 H 0.23633 0.61228 0.68608
 C1921 C 0.77821 0.85580 0.83993
 C1922 C 0.79379 0.85197 0.85937
 C1923 C 0.79604 0.86951 0.87742
 C1924 C 0.78264 0.89074 0.87594
 C1925 C 0.76755 0.89483 0.85617
 C1926 C 0.76531 0.87730 0.83812
 C1927 C 0.74997 0.88172 0.81862
 C1928 C 0.73723 0.90286 0.81699
 C1929 C 0.73943 0.92000 0.83462
 C1930 C 0.75438 0.91613 0.85403
 C1931 C 0.81165 0.86526 0.89672
 C1932 C 0.82463 0.84424 0.89820
 C1933 C 0.82232 0.82703 0.88063
 C1934 C 0.80717 0.83079 0.86135
 C1935 C 0.78329 0.90775 0.89536
 C1936 C 0.78296 0.92153 0.91177
 C1937 C 0.77529 0.83758 0.82189
 C1938 C 0.77293 0.82254 0.80683
 H1939 H 0.74767 0.86893 0.80444
 H1940 H 0.72558 0.90594 0.80195
 H1941 H 0.72951 0.93640 0.83326
 H1942 H 0.75555 0.93003 0.86726
 H1943 H 0.81405 0.87813 0.91081
 H1944 H 0.83653 0.84129 0.91306
 H1945 H 0.83244 0.81074 0.88187
 H1946 H 0.80612 0.81695 0.84805
 C1947 C 0.27320 0.35428 0.34314
 C1948 C 0.28896 0.35020 0.36239
 C1949 C 0.29154 0.36759 0.38054
 C1950 C 0.27826 0.38892 0.37939
 C1951 C 0.26290 0.39321 0.35987
 C1952 C 0.26036 0.37584 0.34170
 C1953 C 0.24479 0.38048 0.32244
 C1954 C 0.23211 0.40168 0.32115
 C1955 C 0.23461 0.41867 0.33890
 C1956 C 0.24979 0.41457 0.35808
 C1957 C 0.30737 0.36310 0.39961
 C1958 C 0.32022 0.34199 0.40078
 C1959 C 0.31758 0.32492 0.38313
 C1960 C 0.30224 0.32892 0.36406
 C1961 C 0.27947 0.40591 0.39881
 C1962 C 0.27971 0.41975 0.41519
 C1963 C 0.27013 0.33629 0.32488
 C1964 C 0.26776 0.32138 0.30968
 H1965 H 0.24225 0.36781 0.30819
 H1966 H 0.22029 0.40494 0.30629
 H1967 H 0.22474 0.43512 0.33780
 H1968 H 0.25118 0.42836 0.37141
 H1969 H 0.31001 0.37585 0.41377
 H1970 H 0.33228 0.33885 0.41547
 H1971 H 0.32760 0.30855 0.38413
 H1972 H 0.30093 0.31517 0.35067
 C1973 C 0.23498 0.85365 0.14337
 C1974 C 0.25233 0.85603 0.12537
 C1975 C 0.24857 0.87209 0.10620
 C1976 C 0.22749 0.88573 0.10517
 C1977 C 0.21004 0.88320 0.12306
 C1978 C 0.21379 0.86710 0.14222
 C1979 C 0.19609 0.86486 0.15989
 C1980 C 0.17528 0.87816 0.15865
 C1981 C 0.17164 0.89393 0.13995
 C1982 C 0.18876 0.89649 0.12230
 C1983 C 0.26619 0.87417 0.08842
 C1984 C 0.28692 0.86076 0.08955
 C1985 C 0.29060 0.84506 0.10829
 C1986 C 0.27357 0.84265 0.12605
 C1987 C 0.22438 0.90309 0.08629
 C1988 C 0.22277 0.91799 0.07095
 C1989 C 0.23872 0.83691 0.16268
 C1990 C 0.24170 0.82248 0.17825
 H1991 H 0.19811 0.85285 0.17481
 H1992 H 0.16186 0.87615 0.17224
 H1993 H 0.15544 0.90420 0.13908
 H1994 H 0.18511 0.90893 0.10805
 H1995 H 0.26414 0.88611 0.07345
 H1996 H 0.30020 0.86257 0.07579
 H1997 H 0.30674 0.83468 0.10909
 H1998 H 0.27727 0.83021 0.14027
 C1999 C 0.73640 0.35280 0.64042
 C2000 C 0.75492 0.35960 0.62493
 C2001 C 0.75036 0.37588 0.60612
 C2002 C 0.72730 0.38534 0.60296
 C2003 C 0.70871 0.37837 0.61831
 C2004 C 0.71325 0.36198 0.63705
 C2005 C 0.69435 0.35515 0.65208
 C2006 C 0.67165 0.36432 0.64874
 C2007 C 0.66725 0.38047 0.63053
 C2008 C 0.68550 0.38747 0.61541
 C2009 C 0.76919 0.38238 0.59085
 C2010 C 0.79185 0.37307 0.59407
 C2011 C 0.79631 0.35716 0.61248
 C2012 C 0.77813 0.35045 0.62779
 C2013 C 0.72311 0.40290 0.58446
 C2014 C 0.72075 0.41798 0.56939
 C2015 C 0.74105 0.33600 0.65949
 C2016 C 0.74462 0.32166 0.67503
 H2017 H 0.69691 0.34273 0.66658
 H2018 H 0.65743 0.35902 0.66047
 H2019 H 0.64960 0.38761 0.62809
 H2020 H 0.68122 0.40001 0.60144
 H2021 H 0.76662 0.39466 0.57624
 H2022 H 0.80603 0.37822 0.58221
 H2023 H 0.81394 0.34998 0.61491
 H2024 H 0.78248 0.33802 0.64185
 C2025 C 0.14520 0.16106 0.77607
 C2026 C 0.12408 0.16290 0.76255
 C2027 C 0.10684 0.14461 0.76375
 C2028 C 0.11084 0.12457 0.77846
 C2029 C 0.13159 0.12311 0.79262
 C2030 C 0.14885 0.14139 0.79138
 C2031 C 0.16959 0.13941 0.80548
 C2032 C 0.17316 0.11994 0.82038
 C2033 C 0.15621 0.10215 0.82170
 C2034 C 0.13565 0.10360 0.80799
 C2035 C 0.08594 0.14677 0.74994
 C2036 C 0.08216 0.16646 0.73538
 C2037 C 0.09901 0.18434 0.73420
 C2038 C 0.11977 0.18268 0.74758
 C2039 C 0.09429 0.10489 0.77791
 C2040 C 0.08091 0.08830 0.77656
 C2041 C 0.16326 0.17921 0.77400
 C2042 C 0.17828 0.19428 0.77233
 H2043 H 0.18321 0.15289 0.80520
 H2044 H 0.18910 0.11872 0.83107
 H2045 H 0.15901 0.08713 0.83341
 H2046 H 0.12295 0.08934 0.80963
 H2047 H 0.07227 0.13335 0.75031
 H2048 H 0.06605 0.16784 0.72496
 H2049 H 0.09600 0.19960 0.72286
 H2050 H 0.13234 0.19706 0.74608
 C2051 C 0.64467 0.65800 0.27174
 C2052 C 0.62332 0.66005 0.25861
 C2053 C 0.60580 0.64208 0.26040
 C2054 C 0.60974 0.62216 0.27529
 C2055 C 0.63074 0.62051 0.28903
 C2056 C 0.64829 0.63846 0.28721
 C2057 C 0.66928 0.63629 0.30091
 C2058 C 0.67281 0.61694 0.31598
 C2059 C 0.65558 0.59947 0.31788
 C2060 C 0.63477 0.60112 0.30457
 C2061 C 0.58465 0.64444 0.24699
 C2062 C 0.58092 0.66401 0.23226
 C2063 C 0.59806 0.68158 0.23050
 C2064 C 0.61905 0.67971 0.24348
 C2065 C 0.59284 0.60277 0.27532
 C2066 C 0.57916 0.58640 0.27446
 C2067 C 0.66297 0.67585 0.26912
 C2068 C 0.67817 0.69068 0.26701
 H2069 H 0.68312 0.64951 0.30018
 H2070 H 0.68894 0.61557 0.32637
 H2071 H 0.65836 0.58455 0.32973
 H2072 H 0.62187 0.58711 0.30665
 H2073 H 0.57076 0.63127 0.24781
 H2074 H 0.56463 0.66555 0.22216
 H2075 H 0.59507 0.69675 0.21904
 H2076 H 0.63184 0.69385 0.24154
 C2077 C 0.14639 0.85758 0.24559
 C2078 C 0.15410 0.87858 0.23411
 C2079 C 0.13838 0.89816 0.23167
 C2080 C 0.11511 0.89666 0.24084
 C2081 C 0.10746 0.87571 0.25245
 C2082 C 0.12315 0.85610 0.25480
 C2083 C 0.11512 0.83532 0.26639
 C2084 C 0.09221 0.83395 0.27544
 C2085 C 0.07685 0.85312 0.27317
 C2086 C 0.08428 0.87380 0.26183
 C2087 C 0.14640 0.91889 0.22000
 C2088 C 0.16938 0.92030 0.21111
 C2089 C 0.18482 0.90123 0.21364
 C2090 C 0.17735 0.88054 0.22492
 C2091 C 0.09879 0.91639 0.23799
 C2092 C 0.08453 0.93216 0.23566
 C2093 C 0.16244 0.83758 0.24784
 C2094 C 0.17639 0.82145 0.24930
 H2095 H 0.12643 0.81995 0.26859
 H2096 H 0.08635 0.81793 0.28427
 H2097 H 0.05907 0.85198 0.28024
 H2098 H 0.07167 0.88823 0.26052
 H2099 H 0.13504 0.93421 0.21766
 H2100 H 0.17523 0.93629 0.20221
 H2101 H 0.20263 0.90239 0.20665
 H2102 H 0.18998 0.86613 0.22629
 C2103 C 0.64621 0.35385 0.73431
 C2104 C 0.65303 0.37437 0.72146
 C2105 C 0.63687 0.39357 0.71876
 C2106 C 0.61405 0.39217 0.72901
 C2107 C 0.60691 0.37125 0.74102
 C2108 C 0.62304 0.35203 0.74364
 C2109 C 0.61556 0.33136 0.75579
 C2110 C 0.59276 0.32971 0.76509
 C2111 C 0.57699 0.34850 0.76256
 C2112 C 0.58388 0.36908 0.75070
 C2113 C 0.64406 0.41389 0.70588
 C2114 C 0.66662 0.41523 0.69596
 C2115 C 0.68248 0.39653 0.69871
 C2116 C 0.67586 0.37628 0.71128
 C2117 C 0.59813 0.41243 0.72816
 C2118 C 0.58426 0.42873 0.72853
 C2119 C 0.66323 0.33494 0.73842
 C2120 C 0.67779 0.31961 0.74167
 H2121 H 0.62719 0.31625 0.75816
 H2122 H 0.58732 0.31375 0.77430
 H2123 H 0.55930 0.34713 0.76981
 H2124 H 0.57093 0.38318 0.74914
 H2125 H 0.63231 0.42886 0.70327
 H2126 H 0.67182 0.43087 0.68608
 H2127 H 0.69996 0.39764 0.69093
 H2128 H 0.68876 0.36213 0.71278
 C2129 C 0.84281 0.13077 0.24684
 C2130 C 0.84384 0.10976 0.26062
 C2131 C 0.86342 0.09406 0.25822
 C2132 C 0.88179 0.09945 0.24199
 C2133 C 0.88054 0.12025 0.22787
 C2134 C 0.86103 0.13601 0.23036
 C2135 C 0.86031 0.15686 0.21625
 C2136 C 0.87837 0.16198 0.20020
 C2137 C 0.89735 0.14647 0.19762
 C2138 C 0.89852 0.12583 0.21126
 C2139 C 0.86415 0.07322 0.27229
 C2140 C 0.84601 0.06801 0.28824
 C2141 C 0.82685 0.08335 0.29057
 C2142 C 0.82569 0.10403 0.27697
 C2143 C 0.90225 0.08397 0.24018
 C2144 C 0.91956 0.07154 0.23858
 C2145 C 0.82324 0.14722 0.24971
 C2146 C 0.80740 0.16142 0.25158
 H2147 H 0.84586 0.16943 0.21749
 H2148 H 0.87763 0.17807 0.18967
 H2149 H 0.91127 0.15048 0.18503
 H2150 H 0.91366 0.11433 0.20862
 H2151 H 0.87868 0.06073 0.27108
 H2152 H 0.84683 0.05198 0.29884
 H2153 H 0.81280 0.07922 0.30297
 H2154 H 0.81043 0.11542 0.27939
 C2155 C 0.34737 0.63485 0.74453
 C2156 C 0.34898 0.62096 0.72358
 C2157 C 0.36845 0.60524 0.72041
 C2158 C 0.38620 0.60355 0.73820
 C2159 C 0.38450 0.61735 0.75922
 C2160 C 0.36503 0.63303 0.76239
 C2161 C 0.36378 0.64675 0.78347
 C2162 C 0.38129 0.64503 0.80093
 C2163 C 0.40033 0.62970 0.79785
 C2164 C 0.40201 0.61596 0.77729
 C2165 C 0.36973 0.59162 0.69929
 C2166 C 0.35227 0.59347 0.68178
 C2167 C 0.33323 0.60884 0.68486
 C2168 C 0.33152 0.62248 0.70548
 C2169 C 0.40647 0.58798 0.73494
 C2170 C 0.42378 0.57554 0.73315
 C2171 C 0.32801 0.65157 0.74740
 C2172 C 0.31225 0.66585 0.74946
 H2173 H 0.34931 0.65893 0.78670
 H2174 H 0.38007 0.65567 0.81692
 H2175 H 0.41389 0.62843 0.81145
 H2176 H 0.41717 0.60430 0.77575
 H2177 H 0.38421 0.57941 0.69611
 H2178 H 0.35352 0.58292 0.66572
 H2179 H 0.31971 0.61021 0.67121
 H2180 H 0.31639 0.63419 0.70706
 C2181 C 0.87357 0.85450 0.74193
 C2182 C 0.89037 0.85193 0.76056
 C2183 C 0.90782 0.86971 0.76420
 C2184 C 0.90838 0.88987 0.74916
 C2185 C 0.89182 0.89223 0.73031
 C2186 C 0.87436 0.87448 0.72669
 C2187 C 0.85794 0.87725 0.70778
 C2188 C 0.85876 0.89699 0.69285
 C2189 C 0.87583 0.91436 0.69639
 C2190 C 0.89221 0.91211 0.71487
 C2191 C 0.92437 0.86686 0.78296
 C2192 C 0.92380 0.84690 0.79763
 C2193 C 0.90683 0.82944 0.79398
 C2194 C 0.89018 0.83189 0.77577
 C2195 C 0.92569 0.90843 0.75313
 C2196 C 0.93948 0.92451 0.75574
 C2197 C 0.85522 0.83682 0.73872
 C2198 C 0.83988 0.82220 0.73640
 H2199 H 0.84435 0.86419 0.70429
 H2200 H 0.84609 0.89881 0.67846
 H2201 H 0.87640 0.92967 0.68475
 H2202 H 0.90515 0.92610 0.71686
 H2203 H 0.93794 0.87994 0.78643
 H2204 H 0.93663 0.84495 0.81186
 H2205 H 0.90659 0.81391 0.80533
 H2206 H 0.87727 0.81787 0.77370
 C2207 C 0.36872 0.35450 0.24545
 C2208 C 0.38568 0.35188 0.26392
 C2209 C 0.40326 0.36957 0.26737
 C2210 C 0.40380 0.38970 0.25229
 C2211 C 0.38698 0.39218 0.23367
 C2212 C 0.36939 0.37453 0.23025
 C2213 C 0.35274 0.37741 0.21156
 C2214 C 0.35347 0.39717 0.19666
 C2215 C 0.37067 0.41445 0.20000
 C2216 C 0.38727 0.41208 0.21825
 C2217 C 0.41997 0.36666 0.28598
 C2218 C 0.41943 0.34673 0.30068
 C2219 C 0.40234 0.32935 0.29722
 C2220 C 0.38553 0.33186 0.27917
 C2221 C 0.42140 0.40807 0.25592
 C2222 C 0.43545 0.42396 0.25819
 C2223 C 0.35043 0.33676 0.24225
 C2224 C 0.33519 0.32203 0.23986
 H2225 H 0.33903 0.36443 0.20824
 H2226 H 0.34061 0.39908 0.18245
 H2227 H 0.37117 0.42977 0.18837
 H2228 H 0.40031 0.42601 0.22010
 H2229 H 0.43364 0.37968 0.28930
 H2230 H 0.43238 0.34473 0.31479
 H2231 H 0.40212 0.31384 0.30860
 H2232 H 0.37253 0.31791 0.27725
   
