data_POSCAR
  _audit_creation_date              2014-09-24
  _audit_creation_method            'ToBaCCo'
  _symmetry_space_group_name_H-M    'P1'
  _symmetry_Int_Tables_number       1
  _symmetry_cell_setting            triclinic
  loop_
  _symmetry_equiv_pos_as_xyz
 x,y,z
_cell_length_a 48.3225
_cell_length_b 48.2948
_cell_length_c 48.2870
_cell_angle_alpha 90.023900
_cell_angle_beta 89.973400
_cell_angle_gamma 89.973300
loop_
  _atom_site_label
  _atom_site_type_symbol
  _atom_site_fract_x
  _atom_site_fract_y
  _atom_site_fract_z
O1 O 0.87613 0.16329 0.80327
 O2 O 0.90612 0.12492 0.79501
 O3 O 0.80374 0.12333 0.83664
 O4 O 0.79368 0.09614 0.87257
 O5 O 0.83719 0.19653 0.87567
 O6 O 0.87574 0.20431 0.90583
 O7 O 0.87632 0.05303 0.91296
 O8 O 0.84392 0.04598 0.87595
 O9 O 0.94698 0.08635 0.87582
 O10 O 0.95566 0.12546 0.84436
 O11 O 0.91375 0.12362 0.94631
 O12 O 0.87422 0.15505 0.95498
 O13 O 0.87668 0.08627 0.94622
 O14 O 0.84489 0.12563 0.95482
 O15 O 0.94697 0.12366 0.91306
 O16 O 0.95527 0.15541 0.87331
 O17 O 0.91387 0.05310 0.87664
 O18 O 0.88056 0.04437 0.84481
 O19 O 0.87610 0.19654 0.83659
 O20 O 0.90641 0.20431 0.87509
 O21 O 0.80399 0.16323 0.87527
 O22 O 0.79758 0.12420 0.90728
 O23 O 0.83686 0.12484 0.80327
 O24 O 0.87689 0.09446 0.79459
 Zr25 Zr 0.87450 0.12571 0.82526
 O26 O 0.90034 0.09982 0.84895
 Zr27 Zr 0.82603 0.12559 0.87394
 O28 O 0.84975 0.09956 0.89971
 Zr29 Zr 0.87462 0.17427 0.87399
 O30 O 0.90046 0.15052 0.89983
 Zr31 Zr 0.87649 0.07526 0.87561
 O32 O 0.85013 0.09859 0.84931
 Zr33 Zr 0.92488 0.12392 0.87554
 O34 O 0.90135 0.15011 0.84942
 Zr35 Zr 0.87624 0.12386 0.92422
 O36 O 0.85014 0.15012 0.90071
 O37 O 0.84884 0.15144 0.84827
 O38 O 0.90229 0.09800 0.90158
 C39 C 0.87677 0.18873 0.81114
 C40 C 0.81148 0.12345 0.81116
 C41 C 0.81177 0.18868 0.87614
 C42 C 0.87663 0.06084 0.93840
 C43 C 0.93932 0.06085 0.87647
 C44 C 0.93917 0.12350 0.93850
 H45 H 0.91155 0.08811 0.83642
 H46 H 0.91188 0.16306 0.91128
 H47 H 0.83698 0.16328 0.83647
 H48 H 0.83733 0.08784 0.91099
 H49 H 0.83151 0.05072 0.86034
 H50 H 0.80059 0.07917 0.88169
 H51 H 0.95177 0.16862 0.88858
 H52 H 0.92106 0.19774 0.86234
 H53 H 0.86930 0.05049 0.82890
 H54 H 0.86067 0.08219 0.79702
 H55 H 0.88906 0.16861 0.95114
 H56 H 0.86312 0.19768 0.92056
 H57 H 0.92100 0.13725 0.80183
 H58 H 0.95134 0.11094 0.83056
 H59 H 0.80316 0.13882 0.92053
 H60 H 0.83157 0.11057 0.95100
 O61 O 0.83640 0.69663 0.37564
 O62 O 0.87471 0.70496 0.40568
 O63 O 0.87653 0.66315 0.30330
 O64 O 0.90374 0.62722 0.29330
 O65 O 0.80337 0.62415 0.33683
 O66 O 0.79558 0.59406 0.37548
 O67 O 0.94676 0.58699 0.37613
 O68 O 0.95378 0.62390 0.34354
 O69 O 0.91334 0.62438 0.44671
 O70 O 0.87417 0.65576 0.45531
 O71 O 0.87620 0.55373 0.41358
 O72 O 0.84484 0.54499 0.37402
 O73 O 0.91355 0.55375 0.37652
 O74 O 0.87429 0.54507 0.34472
 O75 O 0.87612 0.58705 0.44676
 O76 O 0.84432 0.62676 0.45501
 O77 O 0.94664 0.62353 0.41354
 O78 O 0.95535 0.65516 0.38010
 O79 O 0.80322 0.66330 0.37568
 O80 O 0.79547 0.62488 0.40608
 O81 O 0.83670 0.62451 0.30361
 O82 O 0.87571 0.59252 0.29726
 O83 O 0.87492 0.69657 0.33638
 O84 O 0.90516 0.70538 0.37644
 Zr85 Zr 0.87401 0.67467 0.37408
 O86 O 0.89990 0.65105 0.39996
 Zr87 Zr 0.87427 0.62590 0.32567
 O88 O 0.90029 0.60019 0.34945
 Zr89 Zr 0.82555 0.62592 0.37429
 O90 O 0.84929 0.60016 0.40021
 Zr91 Zr 0.92451 0.62435 0.37615
 O92 O 0.90118 0.65059 0.34975
 Zr93 Zr 0.87582 0.62452 0.42459
 O94 O 0.84962 0.65056 0.40099
 Zr95 Zr 0.87598 0.57574 0.37601
 O96 O 0.84975 0.59918 0.34984
 O97 O 0.84836 0.65160 0.34844
 O98 O 0.90178 0.59844 0.40204
 C99 C 0.81099 0.68875 0.37629
 C100 C 0.87638 0.68863 0.31101
 C101 C 0.81126 0.62362 0.31139
 C102 C 0.93897 0.56156 0.37649
 C103 C 0.93878 0.62380 0.43895
 C104 C 0.87629 0.56160 0.43900
 H105 H 0.91156 0.66362 0.41115
 H106 H 0.83676 0.58874 0.41165
 H107 H 0.83653 0.66337 0.33654
 H108 H 0.91202 0.58888 0.33705
 H109 H 0.94904 0.63948 0.33108
 H110 H 0.92068 0.61805 0.30020
 H111 H 0.83113 0.61150 0.45152
 H112 H 0.80202 0.63763 0.42074
 H113 H 0.94921 0.67104 0.36879
 H114 H 0.91749 0.70290 0.36026
 H115 H 0.83128 0.54883 0.38889
 H116 H 0.80222 0.57933 0.36285
 H117 H 0.86230 0.69821 0.42054
 H118 H 0.88861 0.66959 0.45094
 H119 H 0.86114 0.57927 0.30289
 H120 H 0.88935 0.54886 0.33137
 O121 O 0.37532 0.16314 0.30383
 O122 O 0.40541 0.12468 0.29577
 O123 O 0.30297 0.12323 0.33733
 O124 O 0.29292 0.09617 0.37337
 O125 O 0.33647 0.19657 0.37612
 O126 O 0.37496 0.20448 0.40624
 O127 O 0.37548 0.05321 0.41400
 O128 O 0.34305 0.04608 0.37696
 O129 O 0.44617 0.08645 0.37655
 O130 O 0.45486 0.12540 0.34506
 O131 O 0.41302 0.12391 0.44702
 O132 O 0.37346 0.15537 0.45560
 O133 O 0.37587 0.08654 0.44710
 O134 O 0.34416 0.12598 0.45557
 O135 O 0.44619 0.12386 0.41372
 O136 O 0.45446 0.15547 0.37388
 O137 O 0.41303 0.05315 0.37755
 O138 O 0.37970 0.04425 0.34591
 O139 O 0.37533 0.19649 0.33704
 O140 O 0.40570 0.20432 0.37555
 O141 O 0.30325 0.16328 0.37582
 O142 O 0.29678 0.12444 0.40796
 O143 O 0.33611 0.12462 0.30397
 O144 O 0.37611 0.09430 0.29535
 Zr145 Zr 0.37373 0.12561 0.32596
 O146 O 0.39951 0.09978 0.34976
 Zr147 Zr 0.32526 0.12564 0.37464
 O148 O 0.34895 0.09970 0.40054
 Zr149 Zr 0.37387 0.17432 0.37452
 O150 O 0.39969 0.15066 0.40046
 Zr151 Zr 0.37567 0.07531 0.37654
 O152 O 0.34936 0.09856 0.35011
 Zr153 Zr 0.42408 0.12398 0.37623
 O154 O 0.40058 0.15009 0.35001
 Zr155 Zr 0.37548 0.12407 0.42496
 O156 O 0.34940 0.15024 0.40133
 O157 O 0.34807 0.15141 0.34888
 O158 O 0.40152 0.09813 0.40239
 C159 C 0.37597 0.18861 0.31160
 C160 C 0.31073 0.12324 0.31185
 C161 C 0.31105 0.18873 0.37660
 C162 C 0.37578 0.06101 0.43947
 C163 C 0.43842 0.06101 0.37726
 C164 C 0.43843 0.12380 0.43917
 H165 H 0.41071 0.08803 0.33726
 H166 H 0.41110 0.16323 0.41186
 H167 H 0.33622 0.16320 0.33703
 H168 H 0.33652 0.08804 0.41187
 H169 H 0.33067 0.05077 0.36132
 H170 H 0.29978 0.07928 0.38267
 H171 H 0.45097 0.16873 0.38911
 H172 H 0.42029 0.19777 0.36273
 H173 H 0.36860 0.05039 0.32990
 H174 H 0.35997 0.08196 0.29790
 H175 H 0.38831 0.16891 0.45172
 H176 H 0.36240 0.19787 0.42102
 H177 H 0.42018 0.13721 0.30245
 H178 H 0.45045 0.11095 0.33123
 H179 H 0.30242 0.13904 0.42119
 H180 H 0.33079 0.11094 0.45179
 O181 O 0.12408 0.33654 0.30340
 O182 O 0.09402 0.37493 0.29531
 O183 O 0.19654 0.37654 0.33649
 O184 O 0.20681 0.40360 0.37241
 O185 O 0.16306 0.30325 0.37573
 O186 O 0.12454 0.29558 0.40595
 O187 O 0.12439 0.44690 0.41317
 O188 O 0.15669 0.45386 0.37609
 O189 O 0.05346 0.41357 0.37610
 O190 O 0.04474 0.37438 0.34476
 O191 O 0.08690 0.37639 0.44661
 O192 O 0.12641 0.34489 0.45512
 O193 O 0.12406 0.41366 0.44641
 O194 O 0.15577 0.37421 0.45484
 O195 O 0.05359 0.37629 0.41347
 O196 O 0.04507 0.34459 0.37383
 O197 O 0.08673 0.44691 0.37680
 O198 O 0.12006 0.45548 0.34495
 O199 O 0.12410 0.30330 0.33669
 O200 O 0.09383 0.29563 0.37530
 O201 O 0.19640 0.33657 0.37517
 O202 O 0.20292 0.37560 0.40714
 O203 O 0.16329 0.37503 0.30327
 O204 O 0.12323 0.40533 0.29474
 Zr205 Zr 0.12576 0.37413 0.32542
 O206 O 0.10008 0.40008 0.34923
 Zr207 Zr 0.17440 0.37423 0.37389
 O208 O 0.15081 0.40031 0.39977
 Zr209 Zr 0.12570 0.32559 0.37411
 O210 O 0.10000 0.34940 0.40008
 Zr211 Zr 0.12405 0.42465 0.37579
 O212 O 0.15025 0.40124 0.34937
 Zr213 Zr 0.07555 0.37601 0.37587
 O214 O 0.09894 0.34977 0.34965
 Zr215 Zr 0.12433 0.37606 0.42437
 O216 O 0.15029 0.34975 0.40073
 O217 O 0.15146 0.34838 0.34831
 O218 O 0.09826 0.40194 0.40183
 C219 C 0.12340 0.31110 0.31124
 C220 C 0.18869 0.37647 0.31105
 C221 C 0.18838 0.31125 0.37614
 C222 C 0.12418 0.43910 0.43861
 C223 C 0.06143 0.43889 0.37663
 C224 C 0.06146 0.37647 0.43888
 H225 H 0.08886 0.41177 0.33671
 H226 H 0.08861 0.33689 0.41157
 H227 H 0.16327 0.33654 0.33645
 H228 H 0.16329 0.41199 0.41101
 H229 H 0.16909 0.44907 0.36048
 H230 H 0.20000 0.42058 0.38162
 H231 H 0.04869 0.33131 0.38899
 H232 H 0.07919 0.30219 0.36254
 H233 H 0.13142 0.44937 0.32909
 H234 H 0.13942 0.41764 0.29710
 H235 H 0.11146 0.33140 0.45140
 H236 H 0.13712 0.30225 0.42069
 H237 H 0.07925 0.36244 0.30208
 H238 H 0.04911 0.38879 0.33088
 H239 H 0.19731 0.36105 0.42043
 H240 H 0.16909 0.38928 0.45103
 O241 O 0.62409 0.83638 0.30328
 O242 O 0.59406 0.87477 0.29512
 O243 O 0.69648 0.87631 0.33658
 O244 O 0.70652 0.90357 0.37248
 O245 O 0.66291 0.80310 0.37571
 O246 O 0.62434 0.79536 0.40582
 O247 O 0.62400 0.94667 0.41314
 O248 O 0.65637 0.95370 0.37614
 O249 O 0.55320 0.91327 0.37596
 O250 O 0.54455 0.87419 0.34454
 O251 O 0.58648 0.87611 0.44647
 O252 O 0.62606 0.84459 0.45500
 O253 O 0.62358 0.91341 0.44636
 O254 O 0.65532 0.87404 0.45488
 O255 O 0.55325 0.87597 0.41325
 O256 O 0.54497 0.84422 0.37347
 O257 O 0.58643 0.94665 0.37675
 O258 O 0.61979 0.95527 0.34490
 O259 O 0.62407 0.80313 0.33657
 O260 O 0.59369 0.79542 0.37509
 O261 O 0.69623 0.83646 0.37528
 O262 O 0.70266 0.87548 0.40724
 O263 O 0.66333 0.87483 0.30327
 O264 O 0.62326 0.90524 0.29471
 Zr265 Zr 0.62571 0.87397 0.32533
 O266 O 0.59990 0.89985 0.34911
 Zr267 Zr 0.67420 0.87409 0.37393
 O268 O 0.65050 0.90011 0.39978
 Zr269 Zr 0.62553 0.82540 0.37401
 O270 O 0.59974 0.84915 0.39994
 Zr271 Zr 0.62378 0.92444 0.37574
 O272 O 0.65009 0.90109 0.34937
 Zr273 Zr 0.57532 0.87574 0.37569
 O274 O 0.59883 0.84957 0.34948
 Zr275 Zr 0.62398 0.87582 0.42431
 O276 O 0.65004 0.84958 0.40070
 O277 O 0.65135 0.84823 0.34829
 O278 O 0.59795 0.90168 0.40171
 C279 C 0.62343 0.81095 0.31112
 C280 C 0.68872 0.87621 0.31111
 C281 C 0.68822 0.81113 0.37619
 C282 C 0.62369 0.93886 0.43857
 C283 C 0.56114 0.93860 0.37657
 C284 C 0.56105 0.87617 0.43869
 H285 H 0.58870 0.91154 0.33659
 H286 H 0.58834 0.83662 0.41139
 H287 H 0.66319 0.83640 0.33646
 H288 H 0.66293 0.91181 0.41106
 H289 H 0.66881 0.94894 0.36054
 H290 H 0.69969 0.92048 0.38180
 H291 H 0.54845 0.83103 0.38874
 H292 H 0.57909 0.80196 0.36228
 H293 H 0.63119 0.94919 0.32907
 H294 H 0.63951 0.91748 0.29708
 H295 H 0.61106 0.83116 0.45131
 H296 H 0.63685 0.80205 0.42061
 H297 H 0.57925 0.86233 0.30187
 H298 H 0.54899 0.88855 0.33064
 H299 H 0.69699 0.86097 0.42055
 H300 H 0.66865 0.88910 0.45108
 O301 O 0.62444 0.66288 0.19656
 O302 O 0.59444 0.62445 0.20471
 O303 O 0.69694 0.62283 0.16304
 O304 O 0.70684 0.59550 0.12710
 O305 O 0.66340 0.69602 0.12403
 O306 O 0.62487 0.70386 0.09394
 O307 O 0.62421 0.55259 0.08665
 O308 O 0.65669 0.54553 0.12364
 O309 O 0.55360 0.58602 0.12401
 O310 O 0.54494 0.62511 0.15542
 O311 O 0.58677 0.62324 0.05344
 O312 O 0.62635 0.65461 0.04479
 O313 O 0.62382 0.58581 0.05348
 O314 O 0.65559 0.62512 0.04485
 O315 O 0.55359 0.62332 0.08674
 O316 O 0.54536 0.65510 0.12654
 O317 O 0.58673 0.55268 0.12315
 O318 O 0.62009 0.54387 0.15479
 O319 O 0.62446 0.69618 0.16317
 O320 O 0.59415 0.70386 0.12462
 O321 O 0.69660 0.66268 0.12437
 O322 O 0.70301 0.62369 0.09241
 O323 O 0.66377 0.62434 0.19652
 O324 O 0.62373 0.59400 0.20513
 Zr325 Zr 0.62612 0.62527 0.17452
 O326 O 0.60029 0.59941 0.15078
 Zr327 Zr 0.67457 0.62507 0.12576
 O328 O 0.65082 0.59908 0.09996
 Zr329 Zr 0.62597 0.67383 0.12577
 O330 O 0.60011 0.65011 0.09993
 Zr331 Zr 0.62410 0.57481 0.12406
 O332 O 0.65045 0.59812 0.15039
 Zr333 Zr 0.57571 0.62354 0.12424
 O334 O 0.59927 0.64970 0.15036
 Zr335 Zr 0.62430 0.62340 0.07551
 O336 O 0.65042 0.64962 0.09903
 O337 O 0.65177 0.65097 0.15147
 O338 O 0.59826 0.59758 0.09815
 C339 C 0.62375 0.68821 0.18851
 C340 C 0.68903 0.62291 0.18842
 C341 C 0.68881 0.68814 0.12348
 C342 C 0.62388 0.56032 0.06117
 C343 C 0.56133 0.56057 0.12339
 C344 C 0.56136 0.62318 0.06129
 H345 H 0.58909 0.58772 0.16331
 H346 H 0.58869 0.66265 0.08850
 H347 H 0.66363 0.66281 0.16326
 H348 H 0.66322 0.58735 0.08865
 H349 H 0.66912 0.55026 0.13925
 H350 H 0.69998 0.57863 0.11776
 H351 H 0.54877 0.66823 0.11120
 H352 H 0.57950 0.69732 0.13737
 H353 H 0.63133 0.54999 0.17071
 H354 H 0.63989 0.58167 0.20260
 H355 H 0.61147 0.66815 0.04861
 H356 H 0.63743 0.69718 0.07918
 H357 H 0.57960 0.63684 0.19793
 H358 H 0.54929 0.61063 0.16923
 H359 H 0.69734 0.63822 0.07912
 H360 H 0.66893 0.61005 0.04865
 O361 O 0.37556 0.83738 0.69679
 O362 O 0.40566 0.87575 0.70486
 O363 O 0.30316 0.87743 0.66358
 O364 O 0.29310 0.90467 0.62765
 O365 O 0.33649 0.80416 0.62451
 O366 O 0.37495 0.79622 0.59430
 O367 O 0.37560 0.94764 0.58688
 O368 O 0.34326 0.95464 0.62406
 O369 O 0.44638 0.91407 0.62409
 O370 O 0.45511 0.87505 0.65535
 O371 O 0.41299 0.87674 0.55347
 O372 O 0.37333 0.84542 0.54504
 O373 O 0.37583 0.91427 0.55358
 O374 O 0.34406 0.87489 0.54523
 O375 O 0.44633 0.87667 0.58674
 O376 O 0.45449 0.84493 0.62658
 O377 O 0.41329 0.94745 0.62333
 O378 O 0.38000 0.95634 0.65498
 O379 O 0.37543 0.80409 0.66351
 O380 O 0.40572 0.79627 0.62489
 O381 O 0.30331 0.83752 0.62496
 O382 O 0.29683 0.87648 0.59297
 O383 O 0.33635 0.87591 0.69684
 O384 O 0.37640 0.90623 0.70537
 Zr385 Zr 0.37394 0.87495 0.67473
 O386 O 0.39973 0.90076 0.65091
 Zr387 Zr 0.32538 0.87512 0.62620
 O388 O 0.34908 0.90106 0.60029
 Zr389 Zr 0.37393 0.82634 0.62607
 O390 O 0.39972 0.85001 0.60009
 Zr391 Zr 0.37587 0.92537 0.62428
 O392 O 0.34957 0.90211 0.65071
 Zr393 Zr 0.42423 0.87658 0.62430
 O394 O 0.40073 0.85047 0.65054
 Zr395 Zr 0.37550 0.87670 0.57569
 O396 O 0.34944 0.85053 0.59937
 O397 O 0.34821 0.84925 0.65183
 O398 O 0.40163 0.90254 0.59826
 C399 C 0.37615 0.81193 0.68896
 C400 C 0.31095 0.87733 0.68904
 C401 C 0.31108 0.81205 0.62409
 C402 C 0.37578 0.93962 0.56155
 C403 C 0.43867 0.93954 0.62356
 C404 C 0.43832 0.87676 0.56142
 H405 H 0.41096 0.91244 0.66342
 H406 H 0.41109 0.83742 0.58865
 H407 H 0.33637 0.83745 0.66368
 H408 H 0.33662 0.91277 0.58905
 H409 H 0.33093 0.94993 0.63976
 H410 H 0.29996 0.92157 0.61838
 H411 H 0.45095 0.83172 0.61133
 H412 H 0.42032 0.80273 0.63774
 H413 H 0.36896 0.95015 0.67103
 H414 H 0.36021 0.91853 0.70295
 H415 H 0.38811 0.83179 0.54892
 H416 H 0.36232 0.80285 0.57959
 H417 H 0.42042 0.86323 0.69811
 H418 H 0.45064 0.88935 0.66932
 H419 H 0.30238 0.86186 0.57971
 H420 H 0.33068 0.88990 0.54915
 O421 O 0.87603 0.33668 0.69672
 O422 O 0.90608 0.37510 0.70488
 O423 O 0.80363 0.37681 0.66338
 O424 O 0.79358 0.40401 0.62749
 O425 O 0.83703 0.30358 0.62423
 O426 O 0.87556 0.29574 0.59405
 O427 O 0.87611 0.44712 0.58707
 O428 O 0.84372 0.45404 0.62424
 O429 O 0.94687 0.41357 0.62424
 O430 O 0.95551 0.37443 0.65558
 O431 O 0.91363 0.37638 0.55358
 O432 O 0.87407 0.34503 0.54495
 O433 O 0.87646 0.41382 0.55370
 O434 O 0.84472 0.37443 0.54519
 O435 O 0.94691 0.37626 0.58691
 O436 O 0.95508 0.34447 0.62665
 O437 O 0.91374 0.44691 0.62347
 O438 O 0.88045 0.45572 0.65517
 O439 O 0.87598 0.30339 0.66329
 O440 O 0.90629 0.29571 0.62467
 O441 O 0.80386 0.33694 0.62473
 O442 O 0.79745 0.37596 0.59278
 O443 O 0.83675 0.37523 0.69672
 O444 O 0.87675 0.40546 0.70547
 Zr445 Zr 0.87438 0.37429 0.67473
 O446 O 0.90020 0.40017 0.65102
 Zr447 Zr 0.82592 0.37452 0.62607
 O448 O 0.84964 0.40054 0.60029
 Zr449 Zr 0.87448 0.32575 0.62592
 O450 O 0.90032 0.34951 0.60009
 Zr451 Zr 0.87636 0.42480 0.62440
 O452 O 0.85003 0.40146 0.65071
 Zr453 Zr 0.92475 0.37605 0.62441
 O454 O 0.90121 0.34986 0.65051
 Zr455 Zr 0.87611 0.37622 0.57571
 O456 O 0.85002 0.34998 0.59925
 O457 O 0.84871 0.34861 0.65170
 O458 O 0.90217 0.40203 0.59840
 C459 C 0.87669 0.31137 0.68863
 C460 C 0.81138 0.37670 0.68885
 C461 C 0.81162 0.31148 0.62379
 C462 C 0.87637 0.43914 0.56174
 C463 C 0.93914 0.43903 0.62369
 C464 C 0.93894 0.37642 0.56158
 H465 H 0.91140 0.41184 0.66357
 H466 H 0.91173 0.33695 0.58864
 H467 H 0.83684 0.33678 0.66350
 H468 H 0.83719 0.41226 0.58905
 H469 H 0.83139 0.44930 0.63992
 H470 H 0.80049 0.42098 0.61838
 H471 H 0.95158 0.33128 0.61138
 H472 H 0.92091 0.30219 0.63747
 H473 H 0.86940 0.44949 0.67119
 H474 H 0.86060 0.41782 0.70300
 H475 H 0.88884 0.33139 0.54885
 H476 H 0.86292 0.30238 0.57936
 H477 H 0.92089 0.36265 0.69809
 H478 H 0.95119 0.38892 0.66940
 H479 H 0.80299 0.36133 0.57953
 H480 H 0.83135 0.38946 0.54908
 O481 O 0.80335 0.87518 0.16297
 O482 O 0.79530 0.90523 0.12450
 O483 O 0.83690 0.80265 0.12295
 O484 O 0.87284 0.79269 0.09572
 O485 O 0.87580 0.83629 0.19629
 O486 O 0.90585 0.87488 0.20409
 O487 O 0.91342 0.87530 0.05280
 O488 O 0.87649 0.84283 0.04569
 O489 O 0.87594 0.94608 0.08619
 O490 O 0.84455 0.95470 0.12528
 O491 O 0.94647 0.91279 0.12341
 O492 O 0.95503 0.87325 0.15492
 O493 O 0.94650 0.87569 0.08611
 O494 O 0.95499 0.84393 0.12549
 O495 O 0.91323 0.94603 0.12348
 O496 O 0.87346 0.95433 0.15523
 O497 O 0.87686 0.91283 0.05277
 O498 O 0.84525 0.87938 0.04402
 O499 O 0.83666 0.87522 0.19633
 O500 O 0.87515 0.90560 0.20402
 O501 O 0.87549 0.80296 0.16289
 O502 O 0.90751 0.79657 0.12394
 O503 O 0.80346 0.83585 0.12438
 O504 O 0.79491 0.87595 0.09406
 Zr505 Zr 0.82546 0.87351 0.12538
 O506 O 0.84925 0.89931 0.09954
 Zr507 Zr 0.87416 0.82500 0.12528
 O508 O 0.89999 0.84873 0.09930
 Zr509 Zr 0.87408 0.87370 0.17404
 O510 O 0.89997 0.89952 0.15031
 Zr511 Zr 0.87597 0.87545 0.07496
 O512 O 0.84961 0.84914 0.09827
 Zr513 Zr 0.87573 0.92393 0.12370
 O514 O 0.84956 0.90040 0.14983
 Zr515 Zr 0.92439 0.87527 0.12366
 O516 O 0.90082 0.84919 0.14986
 O517 O 0.84844 0.84787 0.15112
 O518 O 0.90183 0.90132 0.09778
 C519 C 0.81135 0.87590 0.18832
 C520 C 0.81154 0.81057 0.12297
 C521 C 0.87635 0.81097 0.18823
 C522 C 0.93888 0.87561 0.06059
 C523 C 0.87657 0.93814 0.06084
 C524 C 0.93865 0.93823 0.12332
 H525 H 0.83674 0.91051 0.08783
 H526 H 0.91138 0.91095 0.16286
 H527 H 0.83662 0.83601 0.16294
 H528 H 0.91132 0.83631 0.08761
 H529 H 0.86093 0.83036 0.05043
 H530 H 0.88226 0.79950 0.07888
 H531 H 0.88877 0.95090 0.16839
 H532 H 0.86240 0.92023 0.19744
 H533 H 0.82941 0.86800 0.05007
 H534 H 0.79743 0.85978 0.08173
 H535 H 0.95129 0.88823 0.16837
 H536 H 0.92064 0.86236 0.19740
 H537 H 0.80200 0.92002 0.13700
 H538 H 0.83071 0.95028 0.11086
 H539 H 0.92077 0.80226 0.13849
 H540 H 0.95128 0.83062 0.11037
 O541 O 0.37532 0.33636 0.19661
 O542 O 0.40527 0.37492 0.20465
 O543 O 0.30304 0.37614 0.16280
 O544 O 0.29282 0.40294 0.12677
 O545 O 0.33674 0.30271 0.12413
 O546 O 0.37521 0.29481 0.09411
 O547 O 0.37605 0.44639 0.08668
 O548 O 0.34370 0.45395 0.12275
 O549 O 0.44645 0.41285 0.12398
 O550 O 0.45496 0.37333 0.15535
 O551 O 0.41324 0.37570 0.05333
 O552 O 0.37395 0.34456 0.04443
 O553 O 0.37619 0.41312 0.05343
 O554 O 0.34426 0.37357 0.04500
 O555 O 0.44639 0.37561 0.08662
 O556 O 0.45477 0.34390 0.12615
 O557 O 0.41324 0.44629 0.12353
 O558 O 0.37511 0.45473 0.15565
 O559 O 0.37557 0.30292 0.16332
 O560 O 0.40606 0.29517 0.12464
 O561 O 0.30345 0.33595 0.12437
 O562 O 0.29722 0.37453 0.09187
 O563 O 0.33621 0.37543 0.19633
 O564 O 0.37477 0.40570 0.20428
 Zr565 Zr 0.37377 0.37380 0.17431
 O566 O 0.39980 0.39953 0.15069
 Zr567 Zr 0.32536 0.37363 0.12548
 O568 O 0.34913 0.39981 0.09990
 Zr569 Zr 0.37408 0.32504 0.12577
 O570 O 0.39988 0.34878 0.09985
 Zr571 Zr 0.37578 0.42416 0.12407
 O572 O 0.34940 0.40062 0.15000
 Zr573 Zr 0.42429 0.37534 0.12412
 O574 O 0.40071 0.34928 0.15031
 Zr575 Zr 0.37573 0.37551 0.07543
 O576 O 0.34970 0.34913 0.09888
 O577 O 0.34817 0.34796 0.15135
 O578 O 0.40171 0.40138 0.09813
 C579 C 0.37611 0.31100 0.18865
 C580 C 0.31095 0.37656 0.18818
 C581 C 0.31130 0.31051 0.12360
 C582 C 0.37627 0.43857 0.06123
 C583 C 0.43852 0.43821 0.12362
 C584 C 0.43864 0.37577 0.06118
 H585 H 0.41130 0.41080 0.16328
 H586 H 0.41129 0.33624 0.08839
 H587 H 0.33631 0.33621 0.16323
 H588 H 0.33676 0.41153 0.08857
 H589 H 0.32948 0.44794 0.13625
 H590 H 0.29895 0.41937 0.11622
 H591 H 0.45113 0.33059 0.11101
 H592 H 0.42056 0.30169 0.13757
 H593 H 0.38971 0.45029 0.16927
 H594 H 0.36210 0.42037 0.19762
 H595 H 0.38835 0.33063 0.04865
 H596 H 0.36285 0.30153 0.07922
 H597 H 0.42018 0.36253 0.19798
 H598 H 0.45100 0.38806 0.16902
 H599 H 0.30290 0.35972 0.07886
 H600 H 0.33116 0.38892 0.04852
 O601 O 0.37588 0.66399 0.80360
 O602 O 0.40605 0.62559 0.79548
 O603 O 0.30349 0.62381 0.83680
 O604 O 0.29339 0.59656 0.87266
 O605 O 0.33673 0.69701 0.87607
 O606 O 0.37517 0.70479 0.90634
 O607 O 0.37591 0.55336 0.91317
 O608 O 0.34356 0.54651 0.87598
 O609 O 0.44669 0.58696 0.87606
 O610 O 0.45535 0.62618 0.84484
 O611 O 0.41325 0.62405 0.94680
 O612 O 0.37368 0.65539 0.95542
 O613 O 0.37610 0.58662 0.94658
 O614 O 0.34428 0.62605 0.95504
 O615 O 0.44660 0.62419 0.91351
 O616 O 0.45485 0.65606 0.87386
 O617 O 0.41359 0.55362 0.87674
 O618 O 0.38033 0.54488 0.84503
 O619 O 0.37576 0.69724 0.83707
 O620 O 0.40601 0.70484 0.87575
 O621 O 0.30358 0.66365 0.87548
 O622 O 0.29716 0.62460 0.90742
 O623 O 0.33668 0.62542 0.80351
 O624 O 0.37675 0.59520 0.79480
 Zr625 Zr 0.37427 0.62635 0.82557
 O626 O 0.40004 0.60042 0.84929
 Zr627 Zr 0.32570 0.62605 0.87416
 O628 O 0.34938 0.59999 0.89995
 Zr629 Zr 0.37421 0.67482 0.87443
 O630 O 0.40001 0.65101 0.90028
 Zr631 Zr 0.37618 0.57574 0.87585
 O632 O 0.34989 0.59914 0.84953
 Zr633 Zr 0.42453 0.62450 0.87597
 O634 O 0.40102 0.65073 0.84986
 Zr635 Zr 0.37578 0.62426 0.92461
 O636 O 0.34972 0.65055 0.90105
 O637 O 0.34852 0.65199 0.84859
 O638 O 0.40191 0.59848 0.90192
 C639 C 0.37649 0.68930 0.81170
 C640 C 0.31129 0.62396 0.81134
 C641 C 0.31131 0.68912 0.87644
 C642 C 0.37609 0.56129 0.93852
 C643 C 0.43898 0.56150 0.87655
 C644 C 0.43858 0.62399 0.93884
 H645 H 0.41129 0.58877 0.83674
 H646 H 0.41138 0.66354 0.91177
 H647 H 0.33667 0.66383 0.83679
 H648 H 0.33692 0.58825 0.91116
 H649 H 0.33124 0.55129 0.86031
 H650 H 0.30027 0.57960 0.88181
 H651 H 0.45128 0.66924 0.88913
 H652 H 0.42065 0.69837 0.86295
 H653 H 0.36926 0.55111 0.82903
 H654 H 0.36060 0.58284 0.79723
 H655 H 0.38840 0.66907 0.95151
 H656 H 0.36251 0.69812 0.92101
 H657 H 0.42080 0.63808 0.80229
 H658 H 0.45105 0.61174 0.83096
 H659 H 0.30265 0.63924 0.92068
 H660 H 0.33097 0.61099 0.95115
 O661 O 0.12430 0.66396 0.69664
 O662 O 0.09443 0.62552 0.70482
 O663 O 0.19689 0.62416 0.66318
 O664 O 0.20703 0.59712 0.62712
 O665 O 0.16301 0.69746 0.62429
 O666 O 0.12441 0.70506 0.59413
 O667 O 0.12463 0.55370 0.58672
 O668 O 0.15709 0.54684 0.62364
 O669 O 0.05371 0.58688 0.62414
 O670 O 0.04496 0.62599 0.65556
 O671 O 0.08680 0.62432 0.55346
 O672 O 0.12625 0.65593 0.54493
 O673 O 0.12418 0.58706 0.55344
 O674 O 0.15568 0.62661 0.54498
 O675 O 0.05352 0.62423 0.58682
 O676 O 0.04519 0.65592 0.62660
 O677 O 0.08707 0.55360 0.62327
 O678 O 0.12054 0.54509 0.65496
 O679 O 0.12412 0.69725 0.66339
 O680 O 0.09376 0.70492 0.62490
 O681 O 0.19646 0.66421 0.62464
 O682 O 0.20299 0.62530 0.59250
 O683 O 0.16368 0.62550 0.69662
 O684 O 0.12364 0.59509 0.70516
 Zr685 Zr 0.12607 0.62639 0.67458
 O686 O 0.10038 0.60045 0.65082
 Zr687 Zr 0.17457 0.62649 0.62588
 O688 O 0.15094 0.60041 0.60006
 Zr689 Zr 0.12572 0.67502 0.62594
 O690 O 0.10000 0.65119 0.60004
 Zr691 Zr 0.12434 0.57595 0.62412
 O692 O 0.15057 0.59939 0.65046
 Zr693 Zr 0.07567 0.62450 0.62431
 O694 O 0.09911 0.65074 0.65047
 Zr695 Zr 0.12433 0.62464 0.57556
 O696 O 0.15030 0.65095 0.59917
 O697 O 0.15162 0.65223 0.65161
 O698 O 0.09840 0.59866 0.59821
 C699 C 0.12350 0.68941 0.68883
 C700 C 0.18895 0.62414 0.68855
 C701 C 0.18836 0.68953 0.62379
 C702 C 0.12436 0.56172 0.56140
 C703 C 0.06175 0.56157 0.62356
 C704 C 0.06149 0.62414 0.56148
 H705 H 0.08924 0.58871 0.66336
 H706 H 0.08853 0.66371 0.58863
 H707 H 0.16341 0.66408 0.66345
 H708 H 0.16343 0.58877 0.58875
 H709 H 0.16955 0.55166 0.63919
 H710 H 0.20025 0.58020 0.61780
 H711 H 0.04870 0.66920 0.61141
 H712 H 0.07919 0.69834 0.63772
 H713 H 0.13206 0.55113 0.67072
 H714 H 0.13987 0.58283 0.70274
 H715 H 0.11132 0.66940 0.54878
 H716 H 0.13707 0.69850 0.57940
 H717 H 0.07958 0.63794 0.69810
 H718 H 0.04945 0.61159 0.66941
 H719 H 0.19732 0.63992 0.57930
 H720 H 0.16914 0.61168 0.54884
 O721 O 0.12394 0.16304 0.19673
 O722 O 0.09382 0.12470 0.20476
 O723 O 0.19652 0.12288 0.16364
 O724 O 0.20663 0.09556 0.12777
 O725 O 0.16322 0.19616 0.12434
 O726 O 0.12477 0.20392 0.09405
 O727 O 0.12420 0.05265 0.08692
 O728 O 0.15646 0.04559 0.12399
 O729 O 0.05332 0.08617 0.12396
 O730 O 0.04460 0.12537 0.15525
 O731 O 0.08699 0.12332 0.05337
 O732 O 0.12669 0.15468 0.04502
 O733 O 0.12406 0.08585 0.05372
 O734 O 0.15583 0.12513 0.04520
 O735 O 0.05353 0.12346 0.08655
 O736 O 0.04515 0.15527 0.12627
 O737 O 0.08653 0.05273 0.12332
 O738 O 0.11980 0.04409 0.15516
 O739 O 0.12413 0.19633 0.16332
 O740 O 0.09397 0.20400 0.12465
 O741 O 0.19649 0.16273 0.12491
 O742 O 0.20296 0.12370 0.09300
 O743 O 0.16316 0.12441 0.19693
 O744 O 0.12297 0.09417 0.20532
 Zr745 Zr 0.12565 0.12542 0.17471
 O746 O 0.09993 0.09957 0.15086
 Zr747 Zr 0.17438 0.12515 0.12623
 O748 O 0.15075 0.09915 0.10033
 Zr749 Zr 0.12578 0.17396 0.12594
 O750 O 0.10006 0.15020 0.09998
 Zr751 Zr 0.12389 0.07491 0.12431
 O752 O 0.15011 0.09824 0.15075
 Zr753 Zr 0.07547 0.12368 0.12417
 O754 O 0.09893 0.14985 0.15040
 Zr755 Zr 0.12437 0.12347 0.07570
 O756 O 0.15037 0.14969 0.09935
 O757 O 0.15144 0.15108 0.15178
 O758 O 0.09819 0.09768 0.09824
 C759 C 0.12332 0.18836 0.18866
 C760 C 0.18846 0.12295 0.18897
 C761 C 0.18853 0.18808 0.12393
 C762 C 0.12407 0.06036 0.06143
 C763 C 0.06124 0.06081 0.12347
 C764 C 0.06164 0.12330 0.06125
 H765 H 0.08867 0.08790 0.16336
 H766 H 0.08872 0.16275 0.08848
 H767 H 0.16325 0.16290 0.16363
 H768 H 0.16321 0.08741 0.08910
 H769 H 0.16888 0.05036 0.13958
 H770 H 0.19985 0.07871 0.11834
 H771 H 0.04876 0.16847 0.11103
 H772 H 0.07929 0.19750 0.13738
 H773 H 0.13125 0.05011 0.17097
 H774 H 0.13916 0.08184 0.20297
 H775 H 0.11177 0.16822 0.04871
 H776 H 0.13746 0.19726 0.07938
 H777 H 0.07906 0.13717 0.19792
 H778 H 0.04892 0.11096 0.16914
 H779 H 0.19736 0.13822 0.07966
 H780 H 0.16916 0.11008 0.04911
 O781 O 0.69697 0.37600 0.83688
 O782 O 0.70509 0.40592 0.87543
 O783 O 0.66357 0.30336 0.87668
 O784 O 0.62761 0.29339 0.90393
 O785 O 0.62463 0.33712 0.80354
 O786 O 0.59447 0.37569 0.79583
 O787 O 0.58706 0.37584 0.94714
 O788 O 0.62408 0.34338 0.95407
 O789 O 0.62443 0.44677 0.91394
 O790 O 0.65580 0.45546 0.87487
 O791 O 0.55383 0.41358 0.87646
 O792 O 0.54542 0.37399 0.84486
 O793 O 0.55383 0.37625 0.91375
 O794 O 0.54538 0.34471 0.87433
 O795 O 0.58713 0.44688 0.87655
 O796 O 0.62698 0.45509 0.84483
 O797 O 0.62359 0.41345 0.94725
 O798 O 0.65520 0.38001 0.95587
 O799 O 0.66362 0.37607 0.80356
 O800 O 0.62512 0.40640 0.79592
 O801 O 0.62500 0.30381 0.83677
 O802 O 0.59301 0.29726 0.87569
 O803 O 0.69698 0.33656 0.87532
 O804 O 0.70550 0.37659 0.90580
 Zr805 Zr 0.67494 0.37424 0.87448
 O806 O 0.65115 0.40001 0.90041
 Zr807 Zr 0.62629 0.32575 0.87446
 O808 O 0.60045 0.34945 0.90049
 Zr809 Zr 0.62626 0.37451 0.82588
 O810 O 0.60040 0.40033 0.84966
 Zr811 Zr 0.62447 0.37611 0.92494
 O812 O 0.65083 0.34982 0.90154
 Zr813 Zr 0.62463 0.42470 0.87634
 O814 O 0.65078 0.40117 0.85013
 Zr815 Zr 0.57596 0.37603 0.87622
 O816 O 0.59955 0.34996 0.84997
 O817 O 0.65196 0.34864 0.84868
 O818 O 0.59856 0.40202 0.90219
 C819 C 0.68893 0.37675 0.81156
 C820 C 0.68892 0.31127 0.87665
 C821 C 0.62414 0.31166 0.81133
 C822 C 0.56177 0.37610 0.93909
 C823 C 0.62386 0.43878 0.93927
 C824 C 0.56181 0.43890 0.87661
 H825 H 0.66367 0.41118 0.91214
 H826 H 0.58900 0.41178 0.83712
 H827 H 0.66377 0.33681 0.83681
 H828 H 0.58916 0.33698 0.91214
 H829 H 0.63969 0.33097 0.94928
 H830 H 0.61822 0.30019 0.92081
 H831 H 0.61170 0.45168 0.83165
 H832 H 0.63786 0.42104 0.80251
 H833 H 0.67109 0.36872 0.94973
 H834 H 0.70303 0.36036 0.91805
 H835 H 0.54921 0.38896 0.83142
 H836 H 0.57980 0.36297 0.80238
 H837 H 0.69835 0.42077 0.86301
 H838 H 0.66966 0.45098 0.88925
 H839 H 0.57978 0.30291 0.86109
 H840 H 0.54934 0.33117 0.88917
 O841 O 0.12394 0.83713 0.80384
 O842 O 0.09395 0.87560 0.79590
 O843 O 0.19648 0.87694 0.83739
 O844 O 0.20647 0.90400 0.87348
 O845 O 0.16287 0.80349 0.87615
 O846 O 0.12430 0.79572 0.90633
 O847 O 0.12401 0.94703 0.91418
 O848 O 0.15640 0.95409 0.87719
 O849 O 0.05313 0.91384 0.87673
 O850 O 0.04452 0.87479 0.84521
 O851 O 0.08638 0.87616 0.94728
 O852 O 0.12597 0.84466 0.95562
 O853 O 0.12366 0.91356 0.94735
 O854 O 0.15524 0.87408 0.95566
 O855 O 0.05309 0.87630 0.91396
 O856 O 0.04485 0.84477 0.87404
 O857 O 0.08639 0.94718 0.87764
 O858 O 0.11981 0.95590 0.84600
 O859 O 0.12391 0.80367 0.83708
 O860 O 0.09361 0.79587 0.87562
 O861 O 0.19620 0.83683 0.87586
 O862 O 0.20259 0.87568 0.90805
 O863 O 0.16327 0.87564 0.80397
 O864 O 0.12318 0.90604 0.79559
 Zr865 Zr 0.12564 0.87463 0.82606
 O866 O 0.09986 0.90043 0.84995
 Zr867 Zr 0.17416 0.87450 0.87471
 O868 O 0.15043 0.90042 0.90065
 Zr869 Zr 0.12547 0.82583 0.87459
 O870 O 0.09966 0.84953 0.90056
 Zr871 Zr 0.12374 0.92491 0.87670
 O872 O 0.15004 0.90162 0.85025
 Zr873 Zr 0.07523 0.87626 0.87642
 O874 O 0.09878 0.85015 0.85016
 Zr875 Zr 0.12390 0.87606 0.92511
 O876 O 0.14997 0.84990 0.90139
 O877 O 0.15128 0.84877 0.84894
 O878 O 0.09787 0.90206 0.90258
 C879 C 0.12322 0.81177 0.81178
 C880 C 0.18854 0.87701 0.81202
 C881 C 0.18820 0.81149 0.87666
 C882 C 0.12379 0.93892 0.93948
 C883 C 0.06108 0.93918 0.87735
 C884 C 0.06106 0.87628 0.93929
 H885 H 0.08868 0.91219 0.83746
 H886 H 0.08824 0.83695 0.91195
 H887 H 0.16312 0.83698 0.83706
 H888 H 0.16288 0.91206 0.91197
 H889 H 0.16884 0.94935 0.86158
 H890 H 0.19964 0.92084 0.88292
 H891 H 0.04839 0.83146 0.88919
 H892 H 0.07899 0.80248 0.86289
 H893 H 0.13122 0.94988 0.83015
 H894 H 0.13938 0.91831 0.79806
 H895 H 0.11108 0.83116 0.95175
 H896 H 0.13697 0.80226 0.92104
 H897 H 0.07913 0.86314 0.80262
 H898 H 0.04891 0.88929 0.83143
 H899 H 0.19696 0.86104 0.92124
 H900 H 0.16870 0.88902 0.95180
 O901 O 0.69681 0.12456 0.66334
 O902 O 0.70488 0.09451 0.62489
 O903 O 0.66341 0.19713 0.62337
 O904 O 0.62748 0.20712 0.59616
 O905 O 0.62445 0.16362 0.69673
 O906 O 0.59429 0.12507 0.70452
 O907 O 0.58687 0.12451 0.55318
 O908 O 0.62386 0.15695 0.54613
 O909 O 0.62424 0.05369 0.58660
 O910 O 0.65557 0.04508 0.62570
 O911 O 0.55362 0.08714 0.62398
 O912 O 0.54519 0.12677 0.65547
 O913 O 0.55364 0.12429 0.58661
 O914 O 0.54526 0.15605 0.62600
 O915 O 0.58689 0.05377 0.62394
 O916 O 0.62668 0.04555 0.65570
 O917 O 0.62342 0.08690 0.55318
 O918 O 0.65504 0.12032 0.54444
 O919 O 0.66349 0.12461 0.69672
 O920 O 0.62495 0.09433 0.70446
 O921 O 0.62483 0.19692 0.66334
 O922 O 0.59281 0.20331 0.62438
 O923 O 0.69680 0.16388 0.62479
 O924 O 0.70529 0.12374 0.59443
 Zr925 Zr 0.67474 0.12625 0.62578
 O926 O 0.65094 0.10044 0.59995
 Zr927 Zr 0.62611 0.17483 0.62571
 O928 O 0.60028 0.15109 0.59975
 Zr929 Zr 0.62609 0.12618 0.67446
 O930 O 0.60019 0.10036 0.65075
 Zr931 Zr 0.62428 0.12432 0.57537
 O932 O 0.65064 0.15064 0.59868
 Zr933 Zr 0.62441 0.07587 0.62412
 O934 O 0.65059 0.09942 0.65024
 Zr935 Zr 0.57577 0.12463 0.62413
 O936 O 0.59939 0.15071 0.65031
 O937 O 0.65178 0.15195 0.65154
 O938 O 0.59836 0.09852 0.59822
 C939 C 0.68880 0.12388 0.68869
 C940 C 0.68875 0.18917 0.62338
 C941 C 0.62395 0.18894 0.68869
 C942 C 0.56157 0.12431 0.56125
 C943 C 0.62369 0.06160 0.56125
 C944 C 0.56159 0.06180 0.62386
 H945 H 0.66346 0.08922 0.58824
 H946 H 0.58877 0.08897 0.66332
 H947 H 0.66361 0.16380 0.66335
 H948 H 0.58899 0.16354 0.58807
 H949 H 0.63945 0.16938 0.55087
 H950 H 0.61809 0.20029 0.57931
 H951 H 0.61139 0.04903 0.66888
 H952 H 0.63770 0.07968 0.69790
 H953 H 0.67088 0.13170 0.55049
 H954 H 0.70284 0.13994 0.58213
 H955 H 0.54898 0.11184 0.66896
 H956 H 0.57959 0.13773 0.69792
 H957 H 0.69814 0.07972 0.63737
 H958 H 0.66943 0.04948 0.61129
 H959 H 0.57958 0.19772 0.63901
 H960 H 0.54911 0.16942 0.61098
 C961 C 0.37787 0.74904 0.75200
 C962 C 0.37766 0.74155 0.72401
 C963 C 0.37729 0.76197 0.70348
 C964 C 0.37710 0.79023 0.71070
 C965 C 0.37744 0.79751 0.73895
 C966 C 0.37782 0.77704 0.75942
 C967 C 0.37772 0.72799 0.77311
 C968 C 0.37732 0.71034 0.79076
 H969 H 0.37766 0.71992 0.71803
 H970 H 0.37700 0.75558 0.68199
 H971 H 0.37728 0.81902 0.74529
 H972 H 0.37793 0.78307 0.78103
 C973 C 0.37757 0.25143 0.24850
 C974 C 0.37743 0.22341 0.24111
 C975 C 0.37710 0.20296 0.26160
 C976 C 0.37688 0.21027 0.28984
 C977 C 0.37715 0.23854 0.29703
 C978 C 0.37748 0.25894 0.27648
 C979 C 0.37737 0.27245 0.22738
 C980 C 0.37695 0.29006 0.20969
 H981 H 0.37744 0.21737 0.21949
 H982 H 0.37687 0.18145 0.25528
 H983 H 0.37697 0.24495 0.31852
 H984 H 0.37754 0.28057 0.28244
 C985 C 0.62199 0.74797 0.24816
 C986 C 0.62245 0.77595 0.24070
 C987 C 0.62271 0.79646 0.26115
 C988 C 0.62253 0.78923 0.28940
 C989 C 0.62191 0.76099 0.29666
 C990 C 0.62164 0.74054 0.27616
 C991 C 0.62230 0.72688 0.22710
 C992 C 0.62282 0.70922 0.20947
 H993 H 0.62276 0.78193 0.21908
 H994 H 0.62322 0.81795 0.25478
 H995 H 0.62176 0.75464 0.31816
 H996 H 0.62132 0.71892 0.28215
 C997 C 0.12164 0.24813 0.24830
 C998 C 0.12209 0.27611 0.24084
 C999 C 0.12245 0.29662 0.26128
 C1000 C 0.12240 0.28939 0.28954
 C1001 C 0.12178 0.26115 0.29679
 C1002 C 0.12141 0.24070 0.27630
 C1003 C 0.12188 0.22705 0.22724
 C1004 C 0.12237 0.20938 0.20961
 H1005 H 0.12231 0.28209 0.21921
 H1006 H 0.12295 0.31811 0.25491
 H1007 H 0.12172 0.25481 0.31830
 H1008 H 0.12110 0.21908 0.28230
 C1009 C 0.12160 0.75225 0.75190
 C1010 C 0.12169 0.75975 0.72392
 C1011 C 0.12210 0.73935 0.70338
 C1012 C 0.12245 0.71109 0.71057
 C1013 C 0.12217 0.70379 0.73881
 C1014 C 0.12176 0.72425 0.75930
 C1015 C 0.12182 0.77327 0.77302
 C1016 C 0.12230 0.79086 0.79072
 H1017 H 0.12161 0.78138 0.71797
 H1018 H 0.12230 0.74574 0.68189
 H1019 H 0.12243 0.68229 0.74514
 H1020 H 0.12174 0.71822 0.78091
 C1021 C 0.87831 0.25166 0.74824
 C1022 C 0.87825 0.22368 0.74076
 C1023 C 0.87794 0.20319 0.76119
 C1024 C 0.87768 0.21044 0.78945
 C1025 C 0.87789 0.23868 0.79672
 C1026 C 0.87819 0.25912 0.77624
 C1027 C 0.87806 0.27272 0.72719
 C1028 C 0.87759 0.29037 0.70957
 H1029 H 0.87829 0.21769 0.71914
 H1030 H 0.87777 0.18169 0.75482
 H1031 H 0.87766 0.24504 0.81823
 H1032 H 0.87819 0.28074 0.78224
 C1033 C 0.74848 0.37843 0.75179
 C1034 C 0.77645 0.37811 0.75924
 C1035 C 0.79692 0.37775 0.73879
 C1036 C 0.78967 0.37768 0.71054
 C1037 C 0.76145 0.37817 0.70329
 C1038 C 0.74102 0.37852 0.72380
 C1039 C 0.72746 0.37818 0.77287
 C1040 C 0.70986 0.37769 0.79055
 H1041 H 0.78243 0.37799 0.78086
 H1042 H 0.81840 0.37739 0.74515
 H1043 H 0.75510 0.37809 0.68179
 H1044 H 0.71941 0.37872 0.71782
 C1045 C 0.24852 0.62242 0.74829
 C1046 C 0.24100 0.62225 0.77628
 C1047 C 0.26138 0.62254 0.79681
 C1048 C 0.28963 0.62303 0.78961
 C1049 C 0.29693 0.62303 0.76137
 C1050 C 0.27650 0.62274 0.74089
 C1051 C 0.22752 0.62270 0.72718
 C1052 C 0.20993 0.62321 0.70950
 H1053 H 0.21938 0.62205 0.78223
 H1054 H 0.25499 0.62256 0.81831
 H1055 H 0.31843 0.62340 0.75504
 H1056 H 0.28254 0.62291 0.71927
 C1057 C 0.24791 0.12141 0.24884
 C1058 C 0.24042 0.12108 0.27684
 C1059 C 0.26082 0.12148 0.29737
 C1060 C 0.28905 0.12223 0.29014
 C1061 C 0.29633 0.12240 0.26189
 C1062 C 0.27589 0.12201 0.24143
 C1063 C 0.22692 0.12161 0.22773
 C1064 C 0.20936 0.12205 0.21002
 H1065 H 0.21881 0.12067 0.28280
 H1066 H 0.25444 0.12136 0.31887
 H1067 H 0.31782 0.12300 0.25555
 H1068 H 0.28191 0.12231 0.21981
 C1069 C 0.74849 0.12206 0.74832
 C1070 C 0.74108 0.12152 0.77633
 C1071 C 0.76154 0.12176 0.79679
 C1072 C 0.78975 0.12258 0.78949
 C1073 C 0.79695 0.12297 0.76122
 C1074 C 0.77644 0.12272 0.74082
 C1075 C 0.72741 0.12239 0.72729
 C1076 C 0.70977 0.12292 0.70966
 H1077 H 0.71949 0.12105 0.78236
 H1078 H 0.75522 0.12147 0.81831
 H1079 H 0.81842 0.12362 0.75483
 H1080 H 0.78240 0.12319 0.71919
 C1081 C 0.75166 0.87764 0.24808
 C1082 C 0.72369 0.87664 0.24066
 C1083 C 0.70321 0.87638 0.26112
 C1084 C 0.71043 0.87710 0.28937
 C1085 C 0.73864 0.87826 0.29659
 C1086 C 0.75908 0.87852 0.27607
 C1087 C 0.77273 0.87734 0.22699
 C1088 C 0.79036 0.87683 0.20932
 H1089 H 0.71771 0.87591 0.21905
 H1090 H 0.68174 0.87545 0.25477
 H1091 H 0.74498 0.87882 0.31809
 H1092 H 0.78067 0.87926 0.28206
 C1093 C 0.74795 0.75154 0.37778
 C1094 C 0.77590 0.75906 0.37767
 C1095 C 0.79643 0.73867 0.37738
 C1096 C 0.78925 0.71041 0.37717
 C1097 C 0.76104 0.70309 0.37742
 C1098 C 0.74056 0.72354 0.37771
 C1099 C 0.72686 0.77256 0.37754
 C1100 C 0.70920 0.79017 0.37708
 H1101 H 0.78184 0.78070 0.37768
 H1102 H 0.81790 0.74507 0.37717
 H1103 H 0.75473 0.68158 0.37724
 H1104 H 0.71897 0.71751 0.37775
 C1105 C 0.74849 0.24877 0.62191
 C1106 C 0.74113 0.27678 0.62266
 C1107 C 0.76163 0.29720 0.62309
 C1108 C 0.78985 0.28985 0.62279
 C1109 C 0.79699 0.26159 0.62189
 C1110 C 0.77644 0.24122 0.62146
 C1111 C 0.72737 0.22777 0.62207
 C1112 C 0.70970 0.21016 0.62250
 H1113 H 0.71955 0.28285 0.62306
 H1114 H 0.75535 0.31871 0.62380
 H1115 H 0.81846 0.25515 0.62164
 H1116 H 0.78236 0.21959 0.62093
 C1117 C 0.75188 0.75091 0.12149
 C1118 C 0.75926 0.72290 0.12182
 C1119 C 0.73878 0.70246 0.12227
 C1120 C 0.71056 0.70979 0.12243
 C1121 C 0.70338 0.73805 0.12192
 C1122 C 0.72392 0.75843 0.12147
 C1123 C 0.77298 0.77192 0.12165
 C1124 C 0.79062 0.78955 0.12208
 H1125 H 0.78085 0.71684 0.12188
 H1126 H 0.74509 0.68095 0.12266
 H1127 H 0.68191 0.74447 0.12203
 H1128 H 0.71798 0.78007 0.12126
 C1129 C 0.24833 0.24762 0.12221
 C1130 C 0.24091 0.27562 0.12231
 C1131 C 0.26136 0.29609 0.12256
 C1132 C 0.28959 0.28881 0.12274
 C1133 C 0.29681 0.26055 0.12247
 C1134 C 0.27631 0.24013 0.12222
 C1135 C 0.22724 0.22659 0.12252
 C1136 C 0.20956 0.20900 0.12302
 H1137 H 0.21931 0.28164 0.12234
 H1138 H 0.25502 0.31759 0.12276
 H1139 H 0.31830 0.25417 0.12260
 H1140 H 0.28228 0.21850 0.12218
 C1141 C 0.24807 0.75187 0.87805
 C1142 C 0.27603 0.75940 0.87858
 C1143 C 0.29661 0.73903 0.87824
 C1144 C 0.28950 0.71076 0.87736
 C1145 C 0.26129 0.70343 0.87698
 C1146 C 0.24076 0.72385 0.87731
 C1147 C 0.22691 0.77288 0.87786
 C1148 C 0.20922 0.79050 0.87746
 H1149 H 0.28193 0.78104 0.87911
 H1150 H 0.31807 0.74547 0.87855
 H1151 H 0.25503 0.68192 0.87627
 H1152 H 0.21918 0.71778 0.87685
 C1153 C 0.24806 0.25160 0.37783
 C1154 C 0.27603 0.25909 0.37793
 C1155 C 0.29654 0.23867 0.37772
 C1156 C 0.28933 0.21041 0.37740
 C1157 C 0.26110 0.20314 0.37745
 C1158 C 0.24065 0.22361 0.37765
 C1159 C 0.22699 0.27264 0.37752
 C1160 C 0.20934 0.29028 0.37702
 H1161 H 0.28198 0.28071 0.37803
 H1162 H 0.31802 0.24504 0.37767
 H1163 H 0.25478 0.18163 0.37717
 H1164 H 0.21905 0.21760 0.37753
 C1165 C 0.49831 0.62303 0.99847
 C1166 C 0.49092 0.62305 1.02649
 C1167 C 0.51139 0.62301 1.04693
 C1168 C 0.53961 0.62297 1.03962
 C1169 C 0.54680 0.62282 1.01134
 C1170 C 0.52627 0.62286 0.99095
 C1171 C 0.47720 0.62333 0.97745
 C1172 C 0.45954 0.62364 0.95983
 H1173 H 0.46932 0.62316 1.03254
 H1174 H 0.50508 0.62307 1.06846
 H1175 H 0.56828 0.62273 1.00493
 H1176 H 0.53221 0.62282 0.96931
 C1177 C 0.50162 0.12362 0.50184
 C1178 C 0.50893 0.12351 0.47381
 C1179 C 0.48841 0.12349 0.45342
 C1180 C 0.46021 0.12362 0.46081
 C1181 C 0.45309 0.12361 0.48910
 C1182 C 0.47367 0.12362 0.50944
 C1183 C 0.52278 0.12385 0.52279
 C1184 C 0.54052 0.12407 0.54034
 H1185 H 0.53052 0.12348 0.46771
 H1186 H 0.49468 0.12344 0.43189
 H1187 H 0.43162 0.12365 0.49555
 H1188 H 0.46778 0.12369 0.53109
 C1189 C 0.49806 0.87693 0.50167
 C1190 C 0.49065 0.87624 0.47368
 C1191 C 0.51110 0.87604 0.45318
 C1192 C 0.53933 0.87650 0.46042
 C1193 C 0.54655 0.87728 0.48867
 C1194 C 0.52604 0.87748 0.50912
 C1195 C 0.47697 0.87693 0.52275
 C1196 C 0.45931 0.87687 0.54039
 H1197 H 0.46905 0.87582 0.46768
 H1198 H 0.50476 0.87547 0.43169
 H1199 H 0.56803 0.87771 0.49503
 H1200 H 0.53201 0.87803 0.53074
 C1201 C 0.99863 0.37698 0.50192
 C1202 C 1.02661 0.37757 0.50934
 C1203 C 1.04707 0.37747 0.48887
 C1204 C 1.03980 0.37676 0.46064
 C1205 C 1.01156 0.37627 0.45343
 C1206 C 0.99116 0.37637 0.47395
 C1207 C 0.97759 0.37684 0.52299
 C1208 C 0.95993 0.37666 0.54062
 H1209 H 1.03261 0.37806 0.53096
 H1210 H 1.06857 0.37792 0.49519
 H1211 H 1.00519 0.37574 0.43194
 H1212 H 0.96955 0.37592 0.46799
 C1213 C 0.00114 0.87635 0.99887
 C1214 C -0.02679 0.87599 0.99130
 C1215 C -0.04740 0.87578 1.01164
 C1216 C -0.04040 0.87590 1.04003
 C1217 C -0.01210 0.87634 1.04731
 C1218 C 0.00842 0.87656 1.02689
 C1219 C 0.02232 0.87638 0.97788
 C1220 C 0.04004 0.87635 0.96028
 H1221 H -0.03266 0.87584 0.96965
 H1222 H -0.06881 0.87548 1.00499
 H1223 H -0.00566 0.87651 1.06880
 H1224 H 0.03000 0.87685 1.03298
 C1225 C 0.00210 0.12283 0.00143
 C1226 C 0.00954 0.12278 -0.02657
 C1227 C -0.01089 0.12294 -0.04706
 C1228 C -0.03912 0.12317 -0.03980
 C1229 C -0.04637 0.12309 -0.01154
 C1230 C -0.02588 0.12293 0.00890
 C1231 C 0.02315 0.12293 0.02250
 C1232 C 0.04075 0.12308 0.04018
 H1233 H 0.03115 0.12268 -0.03258
 H1234 H -0.00454 0.12293 -0.06857
 H1235 H -0.06785 0.12320 -0.00517
 H1236 H -0.03187 0.12295 0.03052
 C1237 C 0.12368 0.99845 0.99939
 C1238 C 0.12367 1.02642 0.99198
 C1239 C 0.12379 1.04692 1.01243
 C1240 C 0.12392 1.03974 1.04078
 C1241 C 0.12387 1.01138 1.04791
 C1242 C 0.12375 0.99097 1.02736
 C1243 C 0.12368 0.97741 0.97828
 C1244 C 0.12373 0.95982 0.96057
 H1245 H 0.12360 1.03243 0.97036
 H1246 H 0.12379 1.06837 1.00591
 H1247 H 0.12393 1.00481 1.06935
 H1248 H 0.12375 0.96934 1.03331
 C1249 C 0.12400 0.50204 0.50163
 C1250 C 0.12454 0.50950 0.47364
 C1251 C 0.12456 0.48906 0.45313
 C1252 C 0.12406 0.46081 0.46035
 C1253 C 0.12343 0.45356 0.48860
 C1254 C 0.12341 0.47405 0.50906
 C1255 C 0.12412 0.52311 0.52272
 C1256 C 0.12424 0.54075 0.54038
 H1257 H 0.12498 0.53112 0.46767
 H1258 H 0.12501 0.49542 0.43163
 H1259 H 0.12298 0.43206 0.49493
 H1260 H 0.12297 0.46806 0.53067
 C1261 C 0.37668 0.50151 0.99820
 C1262 C 0.37721 0.47351 0.99078
 C1263 C 0.37715 0.45302 1.01124
 C1264 C 0.37656 0.46029 1.03949
 C1265 C 0.37616 0.48854 1.04671
 C1266 C 0.37621 0.50897 1.02620
 C1267 C 0.37650 0.52258 0.97712
 C1268 C 0.37630 0.54025 0.95948
 H1269 H 0.37760 0.46750 0.96916
 H1270 H 0.37753 0.43152 1.00489
 H1271 H 0.37573 0.49492 1.06821
 H1272 H 0.37582 0.53060 1.03218
 C1273 C 0.87685 0.49879 0.50204
 C1274 C 0.87686 0.49128 0.47406
 C1275 C 0.87674 0.51168 0.45354
 C1276 C 0.87660 0.53994 0.46075
 C1277 C 0.87672 0.54725 0.48899
 C1278 C 0.87684 0.52680 0.50946
 C1279 C 0.87673 0.47777 0.52313
 C1280 C 0.87657 0.46014 0.54077
 H1281 H 0.87690 0.46965 0.46810
 H1282 H 0.87671 0.50528 0.43204
 H1283 H 0.87667 0.56876 0.49531
 H1284 H 0.87685 0.53283 0.53108
 C1285 C 0.87735 0.99790 0.00129
 C1286 C 0.87740 0.99044 -0.02671
 C1287 C 0.87722 1.01089 -0.04719
 C1288 C 0.87697 1.03913 -0.03991
 C1289 C 0.87706 1.04638 -0.01165
 C1290 C 0.87723 1.02588 0.00877
 C1291 C 0.87719 0.97683 0.02232
 C1292 C 0.87695 0.95916 0.03993
 H1293 H 0.87750 0.96882 -0.03272
 H1294 H 0.87724 1.00453 -0.06870
 H1295 H 0.87693 1.06788 -0.00528
 H1296 H 0.87720 1.03186 0.03040
 C1297 C 0.62310 0.00179 0.50160
 C1298 C 0.62374 0.00925 0.47361
 C1299 C 0.62389 -0.01118 0.45310
 C1300 C 0.62342 -0.03943 0.46032
 C1301 C 0.62268 -0.04669 0.48856
 C1302 C 0.62253 -0.02620 0.50902
 C1303 C 0.62320 0.02286 0.52268
 C1304 C 0.62338 0.04054 0.54031
 H1305 H 0.62417 0.03087 0.46764
 H1306 H 0.62442 -0.00482 0.43161
 H1307 H 0.62225 -0.06819 0.49490
 H1308 H 0.62202 -0.03220 0.53064
 C1309 C 0.50142 0.99819 0.37789
 C1310 C 0.50883 1.02617 0.37724
 C1311 C 0.48837 1.04664 0.37717
 C1312 C 0.46016 1.03935 0.37772
 C1313 C 0.45296 1.01110 0.37855
 C1314 C 0.47347 0.99069 0.37862
 C1315 C 0.52249 0.97715 0.37753
 C1316 C 0.54014 0.95954 0.37712
 H1317 H 0.53043 1.03218 0.37669
 H1318 H 0.49468 1.06814 0.37658
 H1319 H 0.43149 1.00472 0.37905
 H1320 H 0.46753 0.96907 0.37914
 C1321 C 0.00153 0.00119 0.12270
 C1322 C 0.00899 -0.02680 0.12208
 C1323 C -0.01143 -0.04730 0.12223
 C1324 C -0.03965 -0.04006 0.12301
 C1325 C -0.04691 -0.01181 0.12352
 C1326 C -0.02644 0.00863 0.12337
 C1327 C 0.02258 0.02225 0.12285
 C1328 C 0.04022 0.03988 0.12309
 H1329 H 0.03060 -0.03279 0.12155
 H1330 H -0.00507 -0.06880 0.12176
 H1331 H -0.06839 -0.00546 0.12410
 H1332 H -0.03243 0.03025 0.12386
 C1333 C 0.49830 0.49777 0.12273
 C1334 C 0.49090 0.52577 0.12335
 C1335 C 0.51136 0.54622 0.12345
 C1336 C 0.53958 0.53891 0.12296
 C1337 C 0.54677 0.51065 0.12217
 C1338 C 0.52625 0.49026 0.12207
 C1339 C 0.47721 0.47674 0.12297
 C1340 C 0.45955 0.45913 0.12326
 H1341 H 0.46930 0.53180 0.12384
 H1342 H 0.50505 0.56773 0.12401
 H1343 H 0.56825 0.50425 0.12171
 H1344 H 0.53220 0.46863 0.12156
 C1345 C 0.00214 0.50185 0.62291
 C1346 C 0.00956 0.47385 0.62349
 C1347 C -0.01090 0.45339 0.62367
 C1348 C -0.03912 0.46069 0.62328
 C1349 C -0.04632 0.48894 0.62259
 C1350 C -0.02582 0.50934 0.62241
 C1351 C 0.02320 0.52290 0.62303
 C1352 C 0.04081 0.54055 0.62323
 H1353 H 0.03116 0.46783 0.62388
 H1354 H -0.00457 0.43188 0.62418
 H1355 H -0.06780 0.49534 0.62224
 H1356 H -0.03178 0.53097 0.62195
 C1357 C 0.50209 0.49864 0.87713
 C1358 C 0.50947 0.52665 0.87663
 C1359 C 0.48899 0.54711 0.87651
 C1360 C 0.46077 0.53983 0.87688
 C1361 C 0.45360 0.51156 0.87749
 C1362 C 0.47413 0.49115 0.87760
 C1363 C 0.52318 0.47758 0.87701
 C1364 C 0.54083 0.45992 0.87684
 H1365 H 0.53106 0.53267 0.87627
 H1366 H 0.49529 0.56862 0.87607
 H1367 H 0.43213 0.50517 0.87781
 H1368 H 0.46818 0.46953 0.87800
 C1369 C 0.62319 0.49843 0.99909
 C1370 C 0.62305 0.52642 0.99169
 C1371 C 0.62322 0.54690 1.01216
 C1372 C 0.62356 0.53971 1.04050
 C1373 C 0.62356 0.51134 1.04761
 C1374 C 0.62339 0.49095 1.02705
 C1375 C 0.62331 0.47739 0.97797
 C1376 C 0.62352 0.45977 0.96028
 H1377 H 0.62288 0.53243 0.97008
 H1378 H 0.62314 0.56836 1.00565
 H1379 H 0.62373 0.50477 1.06905
 H1380 H 0.62347 0.46932 1.03300
 C1381 C 0.37622 0.99924 0.50167
 C1382 C 0.37605 0.99170 0.47371
 C1383 C 0.37596 1.01206 0.45312
 C1384 C 0.37601 1.04044 0.46018
 C1385 C 0.37631 1.04769 0.48852
 C1386 C 0.37640 1.02725 0.50902
 C1387 C 0.37610 0.97822 0.52282
 C1388 C 0.37596 0.96060 0.54052
 H1389 H 0.37594 0.97006 0.46779
 H1390 H 0.37580 1.00543 0.43169
 H1391 H 0.37643 1.06917 0.49500
 H1392 H 0.37656 1.03331 0.53063
 C1393 C 0.00171 0.62329 0.50189
 C1394 C 0.00913 0.62260 0.47390
 C1395 C -0.01131 0.62266 0.45342
 C1396 C -0.03953 0.62344 0.46069
 C1397 C -0.04676 0.62397 0.48894
 C1398 C -0.02626 0.62390 0.50937
 C1399 C 0.02280 0.62353 0.52292
 C1400 C 0.04048 0.62380 0.54052
 H1401 H 0.03073 0.62209 0.46788
 H1402 H -0.00496 0.62218 0.43192
 H1403 H -0.06825 0.62451 0.49531
 H1404 H -0.03223 0.62441 0.53100
 C1405 C 0.50182 0.37633 0.99850
 C1406 C 0.47389 0.37686 0.99092
 C1407 C 0.45330 0.37672 1.01127
 C1408 C 0.46042 0.37604 1.03954
 C1409 C 0.48861 0.37560 1.04691
 C1410 C 0.50914 0.37574 1.02651
 C1411 C 0.52299 0.37628 0.97755
 C1412 C 0.54073 0.37620 0.96001
 H1413 H 0.46801 0.37734 0.96927
 H1414 H 0.43184 0.37713 1.00483
 H1415 H 0.49487 0.37510 1.06844
 H1416 H 0.53072 0.37534 1.03260
 C1417 C 0.50181 0.00224 0.62316
 C1418 C 0.50917 -0.02577 0.62365
 C1419 C 0.48867 -0.04619 0.62369
 C1420 C 0.46046 -0.03884 0.62324
 C1421 C 0.45332 -0.01056 0.62263
 C1422 C 0.47387 0.00980 0.62260
 C1423 C 0.52293 0.02324 0.62337
 C1424 C 0.54059 0.04084 0.62360
 H1425 H 0.53075 -0.03184 0.62407
 H1426 H 0.49495 -0.06771 0.62414
 H1427 H 0.43185 -0.00413 0.62225
 H1428 H 0.46796 0.03144 0.62220
 C1429 C 0.00182 0.49859 0.37738
 C1430 C 0.00930 0.52657 0.37731
 C1431 C -0.01111 0.54708 0.37708
 C1432 C -0.03935 0.53985 0.37690
 C1433 C -0.04662 0.51161 0.37711
 C1434 C -0.02615 0.49115 0.37734
 C1435 C 0.02284 0.47751 0.37726
 C1436 C 0.04046 0.45986 0.37703
 H1437 H 0.03091 0.53253 0.37735
 H1438 H -0.00475 0.56858 0.37700
 H1439 H -0.06811 0.50527 0.37704
 H1440 H -0.03215 0.46954 0.37741
 C1441 C 0.00134 0.99892 0.87782
 C1442 C 0.00875 1.02690 0.87724
 C1443 C -0.01169 1.04741 0.87687
 C1444 C -0.04002 1.04024 0.87705
 C1445 C -0.04713 1.01189 0.87780
 C1446 C -0.02661 0.99148 0.87817
 C1447 C 0.02242 0.97783 0.87782
 C1448 C 0.04007 0.96017 0.87767
 H1449 H 0.03036 1.03289 0.87698
 H1450 H -0.00517 1.06886 0.87637
 H1451 H -0.06857 1.00533 0.87805
 H1452 H -0.03257 0.96985 0.87864
 C1453 C 0.74861 0.62164 0.24820
 C1454 C 0.74104 0.62164 0.27617
 C1455 C 0.76138 0.62211 0.29675
 C1456 C 0.78964 0.62260 0.28960
 C1457 C 0.79700 0.62246 0.26137
 C1458 C 0.77661 0.62200 0.24085
 C1459 C 0.72764 0.62174 0.22704
 C1460 C 0.71004 0.62210 0.20936
 H1461 H 0.71941 0.62142 0.28208
 H1462 H 0.75494 0.62222 0.31823
 H1463 H 0.81851 0.62286 0.25509
 H1464 H 0.78269 0.62206 0.21925
 C1465 C 0.24815 0.87883 0.75219
 C1466 C 0.27614 0.87818 0.75956
 C1467 C 0.29658 0.87790 0.73905
 C1468 C 0.28928 0.87825 0.71081
 C1469 C 0.26104 0.87907 0.70365
 C1470 C 0.24065 0.87935 0.72421
 C1471 C 0.22714 0.87852 0.77334
 C1472 C 0.20953 0.87799 0.79103
 H1473 H 0.28218 0.87773 0.78116
 H1474 H 0.31807 0.87725 0.74535
 H1475 H 0.25465 0.87933 0.68216
 H1476 H 0.21904 0.87981 0.71828
 C1477 C 0.25134 0.37839 0.24787
 C1478 C 0.22337 0.37726 0.24052
 C1479 C 0.20297 0.37683 0.26104
 C1480 C 0.21030 0.37750 0.28927
 C1481 C 0.23852 0.37881 0.29641
 C1482 C 0.25887 0.37923 0.27583
 C1483 C 0.27232 0.37815 0.22675
 C1484 C 0.28993 0.37762 0.20909
 H1485 H 0.21733 0.37655 0.21893
 H1486 H 0.18148 0.37581 0.25477
 H1487 H 0.24493 0.37934 0.31789
 H1488 H 0.28049 0.38006 0.28173
 C1489 C 0.87799 0.75136 0.24792
 C1490 C 0.87851 0.72335 0.24053
 C1491 C 0.87819 0.70292 0.26103
 C1492 C 0.87731 0.71026 0.28924
 C1493 C 0.87694 0.73852 0.29642
 C1494 C 0.87727 0.75890 0.27588
 C1495 C 0.87774 0.77236 0.22682
 C1496 C 0.87726 0.78999 0.20918
 H1497 H 0.87902 0.71730 0.21893
 H1498 H 0.87846 0.68140 0.25473
 H1499 H 0.87625 0.74495 0.31790
 H1500 H 0.87681 0.78054 0.28181
 C1501 C 0.62243 0.24871 0.74835
 C1502 C 0.62238 0.27670 0.74090
 C1503 C 0.62274 0.29720 0.76135
 C1504 C 0.62318 0.28996 0.78960
 C1505 C 0.62306 0.26171 0.79684
 C1506 C 0.62270 0.24126 0.77634
 C1507 C 0.62265 0.22763 0.72728
 C1508 C 0.62309 0.20996 0.70965
 H1509 H 0.62221 0.28269 0.71928
 H1510 H 0.62282 0.31871 0.75500
 H1511 H 0.62340 0.25535 0.81834
 H1512 H 0.62278 0.21964 0.78233
 C1513 C 0.74866 0.25154 0.87792
 C1514 C 0.77663 0.25903 0.87799
 C1515 C 0.79717 0.23863 0.87759
 C1516 C 0.79001 0.21036 0.87709
 C1517 C 0.76178 0.20307 0.87716
 C1518 C 0.74129 0.22353 0.87756
 C1519 C 0.72754 0.27258 0.87780
 C1520 C 0.70988 0.29023 0.87744
 H1521 H 0.78257 0.28066 0.87822
 H1522 H 0.81864 0.24503 0.87752
 H1523 H 0.75548 0.18156 0.87676
 H1524 H 0.71970 0.21749 0.87746
 C1525 C 0.24801 0.74925 0.62246
 C1526 C 0.24062 0.77727 0.62287
 C1527 C 0.26110 0.79771 0.62322
 C1528 C 0.28932 0.79040 0.62320
 C1529 C 0.29650 0.76213 0.62267
 C1530 C 0.27598 0.74174 0.62231
 C1531 C 0.22692 0.72822 0.62261
 C1532 C 0.20929 0.71057 0.62299
 H1533 H 0.21903 0.78331 0.62304
 H1534 H 0.25479 0.81922 0.62365
 H1535 H 0.31798 0.75572 0.62266
 H1536 H 0.28193 0.72011 0.62204
   
