data_POSCAR
  _audit_creation_date              2014-09-24
  _audit_creation_method            'ToBaCCo'
  _symmetry_space_group_name_H-M    'P1'
  _symmetry_Int_Tables_number       1
  _symmetry_cell_setting            triclinic
  loop_
  _symmetry_equiv_pos_as_xyz
 x,y,z
_cell_length_a 50.3330
_cell_length_b 49.4271
_cell_length_c 52.7119
_cell_angle_alpha 90.114100
_cell_angle_beta 90.556200
_cell_angle_gamma 89.682600
loop_
  _atom_site_label
  _atom_site_type_symbol
  _atom_site_fract_x
  _atom_site_fract_y
  _atom_site_fract_z
C1 C 0.39815 -0.00169 0.24819
 C2 C 0.10503 -0.00224 0.74895
 C3 C 0.60064 0.50223 0.24931
 C4 C 0.89832 0.50305 0.75232
 C5 C 0.24827 0.35819 1.00512
 C6 C 0.74085 0.14505 0.99716
 C7 C 0.25267 0.64308 0.50196
 C8 C 0.76018 0.85849 0.50083
 C9 C -0.00041 0.25216 0.36636
 C10 C -0.00196 0.75145 0.12859
 C11 C 0.50620 0.24777 0.63000
 C12 C 0.50056 0.74852 0.86716
 C13 C -0.25215 0.64606 1.00067
 C14 C -0.24618 0.35814 0.50052
 C15 C 0.23890 -0.13951 -0.00142
 C16 C 0.25568 1.14568 0.49913
 C17 C 0.10429 0.50182 0.25218
 C18 C -0.10518 1.00105 0.24631
 C19 C 0.39770 0.49508 -0.24920
 C20 C 0.60266 0.00738 -0.24806
 C21 C 0.00252 0.25005 0.87547
 C22 C 0.49362 0.25254 0.12602
 C23 C 0.00061 0.75353 0.62708
 C24 C 0.49829 0.74816 0.37377
 Zr25 Zr 0.00723 -0.02191 1.02509
 O26 O 0.03217 -0.00589 1.05391
 O27 O 0.00558 -0.06271 1.03501
 O28 O -0.01113 -0.02292 1.06134
 O29 O 0.05814 -0.02698 0.98135
 O30 O -0.05255 -0.00600 1.05326
 O31 O 0.04680 -0.03711 1.02203
 O32 O -0.02139 -0.08161 1.00487
 O33 O -0.03223 -0.03240 1.01655
 O34 O 0.00744 -0.04078 0.98956
 O35 O -0.01431 0.01473 1.02522
 O36 O 0.02449 0.00634 1.00020
 Zr37 Zr -0.03790 0.01359 0.95408
 Zr38 Zr -0.05317 0.00421 1.01480
 Zr39 Zr 0.02267 -0.01251 0.96460
 Zr40 Zr -0.03179 -0.04973 0.98040
 O41 O 0.05412 0.01360 0.95482
 O42 O -0.06768 -0.06648 0.99387
 O43 O -0.01616 -0.02305 0.95358
 O44 O -0.05478 -0.01440 0.97915
 O45 O -0.03844 0.03276 0.98951
 O46 O 0.00150 0.02383 0.96282
 C47 C -0.00644 -0.08287 1.02474
 C48 C 0.06341 -0.03683 1.00343
 C49 C -0.03463 -0.01546 1.06837
 O50 O -0.08649 -0.02044 1.02197
 O51 O -0.08727 0.02254 0.99920
 O52 O -0.07638 0.03131 0.95809
 C53 C -0.09236 0.03250 0.97717
 O54 O 0.02863 0.04987 1.02825
 Zr55 Zr 0.00092 0.04165 0.99858
 O56 O -0.03678 0.05417 0.94369
 O57 O -0.06345 0.03851 1.03681
 O58 O -0.01644 0.07049 1.02334
 O59 O 0.03440 0.06131 0.98310
 O60 O -0.01431 0.07388 0.97658
 C61 C -0.02785 0.07483 0.95575
 O62 O -0.06425 -0.00225 0.92636
 O63 O 0.03557 -0.04766 0.94511
 O64 O -0.02027 0.01234 0.91747
 O65 O 0.02005 -0.00752 0.92537
 O66 O -0.01351 -0.08039 0.95829
 O67 O -0.05536 -0.05861 0.94778
 C68 C 0.00223 0.00223 0.91033
 H69 H 0.01837 -0.05747 0.98907
 H70 H -0.07326 -0.01874 0.97406
 H71 H 0.00924 0.03611 0.95009
 H72 H -0.01359 0.02344 1.04214
 H73 H -0.06694 -0.08625 0.99075
 H74 H -0.09799 -0.01028 1.03386
 H75 H -0.08079 0.03462 1.04474
 H76 H -0.00797 0.08817 1.02001
 H77 H -0.02297 -0.09755 0.96160
 H78 H 0.05277 -0.04330 0.93712
 H79 H 0.06567 0.00337 0.94304
 H80 H 0.03235 0.08091 0.98660
 H81 H -0.06203 -0.07737 0.94893
 H82 H -0.06934 0.01299 0.91507
 H83 H 0.03739 -0.02117 1.06510
 H84 H 0.03229 0.06952 1.02888
 Zr85 Zr 0.52876 0.48283 0.53747
 O86 O 0.55501 0.49785 0.56570
 O87 O 0.52676 0.44205 0.54687
 O88 O 0.51161 0.48082 0.57422
 O89 O 0.57751 0.47761 0.49168
 O90 O 0.47064 0.50003 0.56830
 O91 O 0.56788 0.46706 0.53272
 O92 O 0.49800 0.42453 0.51756
 O93 O 0.48877 0.47355 0.53016
 O94 O 0.52720 0.46490 0.50151
 O95 O 0.50811 0.51990 0.53933
 O96 O 0.54568 0.51125 0.51257
 Zr97 Zr 0.48154 0.52098 0.46896
 Zr98 Zr 0.46863 0.51069 0.53002
 Zr99 Zr 0.54193 0.49356 0.47657
 Zr100 Zr 0.48747 0.45699 0.49370
 O101 O 0.57418 0.51879 0.46710
 O102 O 0.45172 0.44066 0.50791
 O103 O 0.50251 0.48396 0.46671
 O104 O 0.46515 0.49281 0.49413
 O105 O 0.48305 0.53931 0.50480
 O106 O 0.52141 0.53031 0.47664
 C107 C 0.51356 0.42251 0.53698
 C108 C 0.58363 0.46751 0.51346
 C109 C 0.48888 0.48938 0.58230
 O110 O 0.43490 0.48683 0.53765
 O111 O 0.43509 0.53155 0.51612
 O112 O 0.44277 0.53774 0.47397
 C113 C 0.42841 0.54057 0.49407
 O114 O 0.55222 0.55353 0.54145
 Zr115 Zr 0.52292 0.54702 0.51280
 O116 O 0.48198 0.56218 0.46080
 O117 O 0.46010 0.54453 0.55332
 O118 O 0.50738 0.57550 0.53900
 O119 O 0.55610 0.56645 0.49647
 O120 O 0.50757 0.58017 0.49249
 C121 C 0.49219 0.58218 0.47296
 O122 O 0.45467 0.50615 0.44117
 O123 O 0.55218 0.45888 0.45508
 O124 O 0.49816 0.52138 0.43188
 O125 O 0.53909 0.50214 0.43787
 O126 O 0.50417 0.42617 0.47068
 O127 O 0.46263 0.44944 0.46165
 C128 C 0.52101 0.51303 0.42381
 H129 H 0.53772 0.44797 0.50031
 H130 H 0.44638 0.48896 0.48969
 H131 H 0.52885 0.54305 0.46415
 H132 H 0.50978 0.52813 0.55640
 H133 H 0.45200 0.42095 0.50442
 H134 H 0.42404 0.49716 0.54994
 H135 H 0.44293 0.54095 0.56172
 H136 H 0.51626 0.59303 0.53592
 H137 H 0.49437 0.40924 0.47410
 H138 H 0.56941 0.46275 0.44693
 H139 H 0.58523 0.50859 0.45486
 H140 H 0.55473 0.58595 0.50071
 H141 H 0.45559 0.43080 0.46260
 H142 H 0.44938 0.52175 0.43039
 H143 H 0.56035 0.48225 0.57646
 H144 H 0.55628 0.57308 0.54259
 Zr145 Zr 0.48616 1.02585 0.52907
 O146 O 0.45921 1.01660 0.55837
 O147 O 0.49164 1.06724 0.53499
 O148 O 0.50340 1.02789 0.56633
 O149 O 0.43765 1.03061 0.48203
 O150 O 0.54300 1.00579 0.56173
 O151 O 0.44734 1.04248 0.52288
 O152 O 0.52132 1.07979 0.50482
 O153 O 0.52670 1.03132 0.52156
 O154 O 0.48872 1.04055 0.49192
 O155 O 0.50393 0.98747 0.53348
 O156 O 0.46705 0.99692 0.50573
 Zr157 Zr 0.52979 0.97815 0.46374
 Zr158 Zr 0.54389 0.99275 0.52407
 Zr159 Zr 0.47186 1.01117 0.46864
 Zr160 Zr 0.52890 1.04447 0.48395
 O161 O 0.43761 0.98804 0.46014
 O162 O 0.56594 1.05908 0.49755
 O163 O 0.51178 1.01653 0.45868
 O164 O 0.54834 1.00715 0.48710
 O165 O 0.52720 0.96309 0.50077
 O166 O 0.48934 0.97303 0.47154
 C167 C 0.50609 1.08477 0.52368
 C168 C 0.43158 1.04170 0.50330
 C169 C 0.52543 1.01785 0.57522
 O170 O 0.57896 1.01502 0.53115
 O171 O 0.57632 0.96956 0.51186
 O172 O 0.56761 0.95936 0.47044
 C173 C 0.58230 0.95811 0.49074
 O174 O 0.45806 0.95766 0.53794
 Zr175 Zr 0.48681 0.95958 0.50873
 O176 O 0.52507 0.93653 0.45825
 O177 O 0.55048 0.95979 0.54899
 O178 O 0.50115 0.93176 0.53631
 O179 O 0.45124 0.94262 0.49399
 O180 O 0.49754 0.92382 0.49016
 C181 C 0.51212 0.91879 0.47087
 O182 O 0.55753 0.98782 0.43527
 O183 O 0.46433 1.04488 0.44488
 O184 O 0.51285 0.97656 0.42643
 O185 O 0.47351 0.99935 0.43063
 O186 O 0.51403 1.07404 0.45830
 O187 O 0.55415 1.04741 0.45199
 C188 C 0.49058 0.98604 0.41757
 H189 H 0.47930 1.05799 0.48946
 H190 H 0.56729 1.00928 0.48270
 H191 H 0.48057 0.96012 0.45982
 H192 H 0.50181 0.98050 0.55092
 H193 H 0.56729 1.07832 0.49250
 H194 H 0.58931 1.00484 0.54411
 H195 H 0.56797 0.96266 0.55736
 H196 H 0.49072 0.91490 0.53450
 H197 H 0.52497 1.09052 0.46043
 H198 H 0.44673 1.04193 0.43676
 H199 H 0.42738 0.99806 0.44698
 H200 H 0.45063 0.92350 0.49956
 H201 H 0.56219 1.06564 0.45153
 H202 H 0.56118 0.97091 0.42569
 H203 H 0.45546 1.03371 0.56761
 H204 H 0.45284 0.93860 0.54062
 Zr205 Zr -0.03051 0.51474 1.03885
 O206 O -0.05711 0.50059 1.06664
 O207 O -0.02840 0.55598 1.04751
 O208 O -0.01391 0.51729 1.07619
 O209 O -0.07878 0.51809 0.99151
 O210 O 0.02743 0.49866 1.07173
 O211 O -0.06989 0.52990 1.03256
 O212 O 0.00017 0.57268 1.01820
 O213 O 0.00939 0.52446 1.03221
 O214 O -0.02895 0.53145 1.00248
 O215 O -0.00917 0.47803 1.04194
 O216 O -0.04659 0.48499 1.01429
 Zr217 Zr 0.01787 0.47517 0.97246
 Zr218 Zr 0.03026 0.48777 1.03351
 Zr219 Zr -0.04302 0.50164 0.97797
 Zr220 Zr 0.01067 0.53972 0.99529
 O221 O -0.07489 0.47553 0.96880
 O222 O 0.04631 0.55714 1.00935
 O223 O -0.00377 0.51163 0.96873
 O224 O 0.03360 0.50446 0.99723
 O225 O 0.01665 0.45793 1.00867
 O226 O -0.02184 0.46527 0.97932
 C227 C -0.01512 0.57524 1.03743
 C228 C -0.08538 0.52892 1.01277
 C229 C 0.00877 0.50904 1.08509
 O230 O 0.06267 0.51333 1.04224
 O231 O 0.06526 0.46907 1.02066
 O232 O 0.05666 0.45905 0.97912
 C233 C 0.07175 0.45875 0.99916
 O234 O -0.05242 0.44323 1.04391
 Zr235 Zr -0.02314 0.44957 1.01578
 O236 O 0.01812 0.43381 0.96509
 O237 O 0.03982 0.45429 1.05693
 O238 O -0.00714 0.42233 1.04305
 O239 O -0.05588 0.42908 0.99911
 O240 O -0.00702 0.41586 0.99656
 C241 C 0.00853 0.41379 0.97739
 O242 O 0.04491 0.48932 0.94507
 O243 O -0.05366 0.53523 0.95510
 O244 O 0.00171 0.47374 0.93491
 O245 O -0.03981 0.49180 0.93959
 O246 O -0.00665 0.56962 0.97142
 O247 O 0.03510 0.54642 0.96326
 C248 C -0.02127 0.48128 0.92615
 H249 H -0.03962 0.54823 1.00064
 H250 H 0.05227 0.50865 0.99307
 H251 H -0.02893 0.45202 0.96691
 H252 H -0.01085 0.47014 1.05908
 H253 H 0.04582 0.57666 1.00510
 H254 H 0.07382 0.50363 1.05491
 H255 H 0.05669 0.45861 1.06587
 H256 H -0.01558 0.40449 1.04019
 H257 H 0.00306 0.58674 0.97445
 H258 H -0.07074 0.53076 0.94660
 H259 H -0.08591 0.48492 0.95581
 H260 H -0.05417 0.40972 1.00374
 H261 H 0.04183 0.56520 0.96368
 H262 H 0.05053 0.47341 0.93490
 H263 H -0.06262 0.51651 1.07685
 H264 H -0.05613 0.42364 1.04533
 Zr265 Zr -0.01561 0.47508 0.46980
 O266 O -0.04175 0.48792 0.44046
 O267 O -0.01144 0.43388 0.46180
 O268 O 0.00246 0.47326 0.43340
 O269 O -0.06428 0.46740 0.51531
 O270 O 0.04300 0.49263 0.44023
 O271 O -0.05446 0.45865 0.47393
 O272 O 0.01779 0.41858 0.49193
 O273 O 0.02475 0.46794 0.47800
 O274 O -0.01349 0.45793 0.50605
 O275 O 0.00296 0.51307 0.46775
 O276 O -0.03458 0.50299 0.49415
 Zr277 Zr 0.02792 0.51726 0.53845
 Zr278 Zr 0.04275 0.50599 0.47790
 Zr279 Zr -0.03028 0.48607 0.53043
 Zr280 Zr 0.02651 0.45232 0.51472
 O281 O -0.06394 0.50985 0.53961
 O282 O 0.06316 0.43754 0.50064
 O283 O 0.00949 0.47909 0.54093
 O284 O 0.04646 0.48928 0.51418
 O285 O 0.02616 0.53473 0.50231
 O286 O -0.01237 0.52392 0.53012
 C287 C 0.00233 0.41515 0.47265
 C288 C -0.06998 0.45747 0.49336
 C289 C 0.02568 0.48092 0.42601
 O290 O 0.07818 0.48391 0.47129
 O291 O 0.07567 0.52724 0.49222
 O292 O 0.06523 0.53662 0.53337
 C293 C 0.08080 0.53785 0.51400
 O294 O -0.04211 0.54466 0.46355
 Zr295 Zr -0.01410 0.53995 0.49368
 O296 O 0.02344 0.55823 0.54684
 O297 O 0.04940 0.53964 0.45408
 O298 O 0.00133 0.56917 0.46844
 O299 O -0.04976 0.55688 0.50798
 O300 O -0.00352 0.57420 0.51518
 C301 C 0.01094 0.57730 0.53521
 O302 O 0.05574 0.50500 0.56657
 O303 O -0.03919 0.45112 0.55187
 O304 O 0.01108 0.51678 0.57540
 O305 O -0.02751 0.49349 0.56938
 O306 O 0.01130 0.42179 0.53871
 O307 O 0.05185 0.44648 0.54676
 C308 C -0.01033 0.50547 0.58355
 H309 H -0.02310 0.44060 0.50743
 H310 H 0.06531 0.48644 0.51907
 H311 H -0.02106 0.53611 0.54249
 H312 H 0.00136 0.52076 0.45047
 H313 H 0.06407 0.41791 0.50437
 H314 H 0.08855 0.49425 0.45872
 H315 H 0.06692 0.53672 0.44607
 H316 H -0.00872 0.58623 0.47106
 H317 H 0.02179 0.40507 0.53572
 H318 H -0.05656 0.45436 0.56008
 H319 H -0.07424 0.49934 0.55208
 H320 H -0.05002 0.57633 0.50342
 H321 H 0.05981 0.42812 0.54606
 H322 H 0.05964 0.52114 0.57716
 H323 H -0.04602 0.47174 0.43004
 H324 H -0.04681 0.56404 0.46168
 Zr325 Zr 0.46470 -0.01561 -0.03965
 O326 O 0.43560 -0.00152 -0.06577
 O327 O 0.46933 -0.05582 -0.05114
 O328 O 0.47960 -0.01449 -0.07748
 O329 O 0.42101 -0.02835 0.00941
 O330 O 0.51852 0.00877 -0.07334
 O331 O 0.42680 -0.03339 -0.03322
 O332 O 0.50255 -0.07155 -0.02532
 O333 O 0.50588 -0.02134 -0.03566
 O334 O 0.47105 -0.03539 -0.00500
 O335 O 0.48135 0.02334 -0.04061
 O336 O 0.44742 0.00944 -0.01164
 Zr337 Zr 0.51363 0.02306 0.02771
 Zr338 Zr 0.52219 0.01750 -0.03468
 Zr339 Zr 0.45598 -0.00993 0.02288
 Zr340 Zr 0.51191 -0.03974 -0.00047
 O341 O 0.42279 0.01164 0.03693
 O342 O 0.54767 -0.05178 -0.01833
 O343 O 0.49684 -0.01597 0.02915
 O344 O 0.53038 -0.00199 -0.00027
 O345 O 0.50729 0.04319 -0.00678
 O346 O 0.47249 0.02868 0.02361
 C347 C 0.48541 -0.07436 -0.04335
 C348 C 0.41319 -0.03637 -0.01268
 C349 C 0.50076 -0.00348 -0.08658
 O350 O 0.55731 -0.00248 -0.04633
 O351 O 0.55498 0.03988 -0.02184
 O352 O 0.55050 0.04288 0.02107
 C353 C 0.56298 0.04775 0.00021
 O354 O 0.43412 0.05243 -0.03736
 Zr355 Zr 0.46625 0.04726 -0.01132
 O356 O 0.50994 0.06359 0.03820
 O357 O 0.52512 0.05347 -0.05619
 O358 O 0.47656 0.07866 -0.03672
 O359 O 0.43269 0.06218 0.00845
 O360 O 0.47957 0.08057 0.00998
 C361 C 0.49651 0.08309 0.02824
 O362 O 0.54379 0.00923 0.05286
 O363 O 0.45054 -0.04693 0.04232
 O364 O 0.50005 0.02015 0.06582
 O365 O 0.46246 -0.00532 0.06196
 O366 O 0.50014 -0.07302 0.02206
 O367 O 0.54033 -0.04698 0.02887
 C368 C 0.48016 0.00716 0.07518
 H369 H 0.46222 -0.05320 -0.00414
 H370 H 0.54973 -0.00441 0.00255
 H371 H 0.46493 0.03976 0.03747
 H372 H 0.47753 0.03228 -0.05704
 H373 H 0.54960 -0.07160 -0.01608
 H374 H 0.56611 0.00963 -0.05860
 H375 H 0.54184 0.05224 -0.06593
 H376 H 0.46623 0.09499 -0.03193
 H377 H 0.51085 -0.08892 0.01680
 H378 H 0.43396 -0.04512 0.05220
 H379 H 0.41411 -0.00034 0.04937
 H380 H 0.43160 0.08191 0.00528
 H381 H 0.54855 -0.06503 0.02643
 H382 H 0.54847 0.02464 0.06411
 H383 H 0.43091 -0.01702 -0.07690
 H384 H 0.42808 0.07153 -0.03711
 Zr385 Zr 0.52085 0.52524 -0.03195
 O386 O 0.54738 0.51145 -0.06016
 O387 O 0.51949 0.56665 -0.03943
 O388 O 0.50439 0.52833 -0.06927
 O389 O 0.56861 0.52938 0.01607
 O390 O 0.46259 0.51150 -0.06476
 O391 O 0.56021 0.53922 -0.02551
 O392 O 0.49018 0.58343 -0.01056
 O393 O 0.48070 0.53462 -0.02585
 O394 O 0.51839 0.54203 0.00445
 O395 O 0.50049 0.48842 -0.03567
 O396 O 0.53752 0.49613 -0.00711
 Zr397 Zr 0.47251 0.48465 0.03346
 Zr398 Zr 0.46081 0.49758 -0.02750
 Zr399 Zr 0.53279 0.51272 0.02925
 Zr400 Zr 0.47844 0.54984 0.01101
 O401 O 0.56438 0.48667 0.04008
 O402 O 0.44336 0.56693 -0.00495
 O403 O 0.49294 0.52170 0.03751
 O404 O 0.45650 0.51403 0.00878
 O405 O 0.47494 0.46770 -0.00284
 O406 O 0.51277 0.47592 0.02733
 C407 C 0.50659 0.58610 -0.02894
 C408 C 0.57541 0.53912 -0.00556
 C409 C 0.48110 0.52204 -0.07798
 O410 O 0.42659 0.52140 -0.03519
 O411 O 0.42682 0.47700 -0.01572
 O412 O 0.43437 0.46751 0.02601
 C413 C 0.41994 0.46663 0.00554
 O414 O 0.54463 0.45499 -0.03754
 Zr415 Zr 0.51517 0.46045 -0.00934
 O416 O 0.47433 0.44322 0.04127
 O417 O 0.45353 0.46496 -0.05266
 O418 O 0.50014 0.43256 -0.03647
 O419 O 0.54869 0.44088 0.00720
 O420 O 0.50087 0.42662 0.01003
 C421 C 0.48572 0.42374 0.02930
 O422 O 0.44413 0.49798 0.06017
 O423 O 0.54312 0.54687 0.05153
 O424 O 0.48752 0.48441 0.07132
 O425 O 0.52758 0.50563 0.06800
 O426 O 0.49424 0.57894 0.03655
 O427 O 0.45205 0.55674 0.04162
 C428 C 0.50893 0.49477 0.08086
 H429 H 0.52893 0.55873 0.00663
 H430 H 0.43762 0.51776 0.01265
 H431 H 0.52012 0.46305 0.03998
 H432 H 0.50240 0.48087 -0.05297
 H433 H 0.44343 0.58653 -0.00097
 H434 H 0.41627 0.51187 -0.04856
 H435 H 0.43646 0.46887 -0.06148
 H436 H 0.50931 0.41502 -0.03362
 H437 H 0.48495 0.59633 0.03325
 H438 H 0.55995 0.54242 0.06058
 H439 H 0.57477 0.49642 0.05324
 H440 H 0.54796 0.42156 0.00219
 H441 H 0.44515 0.57552 0.04076
 H442 H 0.43893 0.48194 0.07023
 H443 H 0.55289 0.52752 -0.07002
 H444 H 0.54893 0.43550 -0.03921
 Zr445 Zr 0.03218 1.01818 0.45732
 O446 O 0.05630 1.00391 0.42742
 O447 O 0.02994 1.05936 0.44944
 O448 O 0.01254 1.02181 0.42149
 O449 O 0.08386 1.02092 0.50128
 O450 O -0.02891 1.00545 0.42928
 O451 O 0.07181 1.03296 0.46103
 O452 O 0.00334 1.07629 0.48053
 O453 O -0.00712 1.02804 0.46689
 O454 O 0.03322 1.03474 0.49386
 O455 O 0.01078 0.98178 0.45507
 O456 O 0.05051 0.98849 0.48037
 Zr457 Zr -0.01055 0.97784 0.52645
 Zr458 Zr -0.02784 0.99148 0.46669
 Zr459 Zr 0.04930 1.00481 0.51707
 Zr460 Zr -0.00576 1.04310 0.50384
 O461 O 0.08165 0.97843 0.52467
 O462 O -0.04236 1.06056 0.49190
 O463 O 0.01070 1.01452 0.52893
 O464 O -0.02832 1.00769 0.50335
 O465 O -0.01194 0.96115 0.48991
 O466 O 0.02868 0.96839 0.51667
 C467 C 0.01755 1.07875 0.46050
 C468 C 0.08867 1.03196 0.47975
 C469 C -0.01152 1.01597 0.41467
 O470 O -0.06185 1.01631 0.46152
 O471 O -0.06146 0.97248 0.48168
 O472 O -0.04952 0.96160 0.52228
 C473 C -0.06622 0.96193 0.50344
 O474 O 0.05361 0.94744 0.44888
 Zr475 Zr 0.02736 0.95326 0.47980
 O476 O -0.00854 0.93626 0.53355
 O477 O -0.03826 0.95885 0.44260
 O478 O 0.00901 0.92589 0.45410
 O479 O 0.06221 0.93326 0.49301
 O480 O 0.01499 0.91938 0.50026
 C481 C 0.00158 0.91669 0.52067
 O482 O -0.03606 0.99097 0.55576
 O483 O 0.06172 1.03853 0.53893
 O484 O 0.00803 0.97738 0.56302
 O485 O 0.04838 0.99639 0.55578
 O486 O 0.01307 1.07241 0.52721
 O487 O -0.02818 1.05015 0.53720
 C488 C 0.03092 0.98634 0.57056
 H489 H 0.04394 1.05142 0.49517
 H490 H -0.04663 1.01181 0.50893
 H491 H 0.03706 0.95530 0.52852
 H492 H 0.01092 0.97434 0.43762
 H493 H -0.04163 1.08014 0.49588
 H494 H -0.07359 1.00702 0.44910
 H495 H -0.05587 0.96332 0.43508
 H496 H 0.01814 0.90817 0.45589
 H497 H 0.00355 1.08981 0.52463
 H498 H 0.07939 1.03399 0.54629
 H499 H 0.09341 0.98787 0.53696
 H500 H 0.06086 0.91400 0.48793
 H501 H -0.03491 1.06901 0.53717
 H502 H -0.04029 0.97484 0.56613
 H503 H 0.06110 1.01988 0.41709
 H504 H 0.05728 0.92788 0.44669
 Zr505 Zr 0.72096 0.26944 0.21499
 O506 O 0.73179 0.29509 0.18473
 O507 O 0.68047 0.26460 0.20838
 O508 O 0.71801 0.24955 0.17908
 O509 O 0.71378 0.32041 0.25969
 O510 O 0.73879 0.20910 0.18626
 O511 O 0.70379 0.30880 0.21879
 O512 O 0.66697 0.23597 0.23959
 O513 O 0.71533 0.22856 0.22422
 O514 O 0.70567 0.26836 0.25178
 O515 O 0.75860 0.25109 0.21219
 O516 O 0.74860 0.29022 0.23814
 Zr517 Zr 0.76637 0.22854 0.28337
 Zr518 Zr 0.75320 0.21090 0.22354
 Zr519 Zr 0.73372 0.28679 0.27504
 Zr520 Zr 0.70146 0.22790 0.26138
 O521 O 0.75641 0.32182 0.28276
 O522 O 0.68743 0.19003 0.24805
 O523 O 0.72839 0.24658 0.28648
 O524 O 0.73838 0.20829 0.26036
 O525 O 0.78184 0.22931 0.24664
 O526 O 0.77138 0.26932 0.27393
 C527 C 0.66267 0.25124 0.22021
 C528 C 0.70289 0.32518 0.23798
 C529 C 0.72610 0.22584 0.17194
 O530 O 0.73233 0.17421 0.21835
 O531 O 0.77562 0.17836 0.23798
 O532 O 0.78625 0.19077 0.27854
 C533 C 0.78712 0.17422 0.25952
 O534 O 0.78752 0.29773 0.20620
 Zr535 Zr 0.78535 0.27003 0.23689
 O536 O 0.80698 0.23414 0.29019
 O537 O 0.78553 0.20371 0.19902
 O538 O 0.81339 0.25430 0.21087
 O539 O 0.80172 0.30697 0.25010
 O540 O 0.82011 0.26030 0.25705
 C541 C 0.82468 0.24658 0.27729
 O542 O 0.75651 0.20098 0.31245
 O543 O 0.70005 0.29604 0.29732
 O544 O 0.76660 0.24691 0.32006
 O545 O 0.74263 0.28566 0.31382
 O546 O 0.67233 0.24370 0.28626
 O547 O 0.69746 0.20273 0.29376
 C548 C 0.75522 0.26881 0.32811
 H549 H 0.68848 0.27795 0.25356
 H550 H 0.73636 0.18924 0.26574
 H551 H 0.78361 0.27881 0.28574
 H552 H 0.76539 0.25218 0.19467
 H553 H 0.66829 0.18900 0.25212
 H554 H 0.74228 0.16338 0.20572
 H555 H 0.78280 0.18557 0.19141
 H556 H 0.82982 0.26514 0.21261
 H557 H 0.65595 0.23291 0.28386
 H558 H 0.70301 0.31413 0.30497
 H559 H 0.74626 0.33263 0.29524
 H560 H 0.82054 0.30741 0.24476
 H561 H 0.67958 0.19446 0.29360
 H562 H 0.77291 0.19777 0.32262
 H563 H 0.71539 0.29885 0.17471
 H564 H 0.80624 0.30304 0.20364
 Zr565 Zr 0.77619 0.73471 0.72000
 O566 O 0.76655 0.70780 0.69005
 O567 O 0.81654 0.74073 0.71441
 O568 O 0.77935 0.75346 0.68378
 O569 O 0.78295 0.68519 0.76582
 O570 O 0.75849 0.79413 0.68933
 O571 O 0.79418 0.69584 0.72529
 O572 O 0.82872 0.77089 0.74518
 O573 O 0.78099 0.77591 0.72868
 O574 O 0.79069 0.73705 0.75728
 O575 O 0.73842 0.75250 0.71529
 O576 O 0.74818 0.71423 0.74231
 Zr577 Zr 0.72874 0.77701 0.78592
 Zr578 Zr 0.74300 0.79303 0.72606
 Zr579 Zr 0.76217 0.71885 0.77962
 Zr580 Zr 0.79401 0.77781 0.76634
 O581 O 0.74006 0.68334 0.78642
 O582 O 0.80751 0.81602 0.75375
 O583 O 0.76680 0.75936 0.79077
 O584 O 0.75693 0.79695 0.76341
 O585 O 0.71418 0.77497 0.74854
 O586 O 0.72437 0.73597 0.77679
 C587 C 0.83363 0.75559 0.72598
 C588 C 0.79462 0.67993 0.74479
 C589 C 0.77135 0.77691 0.67580
 O590 O 0.76317 0.83012 0.72140
 O591 O 0.71858 0.82473 0.73870
 O592 O 0.70940 0.81515 0.77998
 C593 C 0.70738 0.83022 0.75995
 O594 O 0.71012 0.70522 0.70930
 Zr595 Zr 0.71130 0.73403 0.73928
 O596 O 0.68788 0.77145 0.79070
 O597 O 0.71160 0.79898 0.69962
 O598 O 0.68396 0.74866 0.71159
 O599 O 0.69474 0.69748 0.75280
 O600 O 0.67593 0.74436 0.75746
 C601 C 0.67064 0.75870 0.77710
 O602 O 0.73757 0.80498 0.81524
 O603 O 0.79514 0.71129 0.80389
 O604 O 0.72794 0.75898 0.82291
 O605 O 0.75088 0.71949 0.81748
 O606 O 0.82344 0.76281 0.79180
 O607 O 0.79673 0.80299 0.79899
 C608 C 0.73788 0.73633 0.83118
 H609 H 0.80805 0.72789 0.75976
 H610 H 0.75858 0.81619 0.76844
 H611 H 0.71184 0.72660 0.78813
 H612 H 0.73205 0.75081 0.69754
 H613 H 0.82648 0.81755 0.75872
 H614 H 0.75327 0.84046 0.70824
 H615 H 0.71421 0.81703 0.69191
 H616 H 0.66757 0.73773 0.71282
 H617 H 0.83949 0.77412 0.78982
 H618 H 0.79253 0.69319 0.81150
 H619 H 0.75011 0.67269 0.79926
 H620 H 0.67606 0.69676 0.74671
 H621 H 0.81445 0.81158 0.79963
 H622 H 0.72089 0.80805 0.82473
 H623 H 0.78318 0.70420 0.68064
 H624 H 0.69152 0.69966 0.70611
 Zr625 Zr 0.23773 0.22044 0.79211
 O626 O 0.25125 0.19357 0.82072
 O627 O 0.19832 0.22652 0.80221
 O628 O 0.23826 0.23956 0.82839
 O629 O 0.22746 0.16960 0.74770
 O630 O 0.25738 0.28042 0.82041
 O631 O 0.21904 0.18202 0.78861
 O632 O 0.18246 0.25622 0.77257
 O633 O 0.23142 0.26147 0.78376
 O634 O 0.21911 0.22219 0.75646
 O635 O 0.27555 0.23827 0.79290
 O636 O 0.26335 0.19974 0.76714
 Zr637 Zr 0.27663 0.26211 0.72161
 Zr638 Zr 0.26922 0.27867 0.78250
 Zr639 Zr 0.24517 0.20372 0.73138
 Zr640 Zr 0.21419 0.26285 0.74765
 O641 O 0.26701 0.16842 0.72201
 O642 O 0.20158 0.30123 0.76111
 O643 O 0.23864 0.24414 0.72062
 O644 O 0.25100 0.28222 0.74680
 O645 O 0.29553 0.26050 0.75721
 O646 O 0.28269 0.22115 0.73033
 C647 C 0.17992 0.24127 0.79236
 C648 C 0.21765 0.16526 0.76975
 C649 C 0.24631 0.26333 0.83520
 O650 O 0.24944 0.31596 0.78873
 O651 O 0.29197 0.31008 0.76753
 O652 O 0.29587 0.30035 0.72542
 C653 C 0.30025 0.31546 0.74512
 O654 O 0.30539 0.19137 0.79621
 Zr655 Zr 0.30007 0.21966 0.76624
 O656 O 0.31654 0.25676 0.71236
 O657 O 0.30305 0.28470 0.80596
 O658 O 0.33024 0.23496 0.79061
 O659 O 0.31535 0.18284 0.75147
 O660 O 0.33280 0.22963 0.74392
 C661 C 0.33542 0.24396 0.72381
 O662 O 0.26372 0.28968 0.69333
 O663 O 0.20965 0.19551 0.71103
 O664 O 0.27415 0.24388 0.68486
 O665 O 0.25219 0.20448 0.69239
 O666 O 0.18203 0.24757 0.72574
 O667 O 0.20756 0.28738 0.71510
 C668 C 0.26370 0.22123 0.67754
 H669 H 0.20169 0.21300 0.75587
 H670 H 0.24853 0.30140 0.74187
 H671 H 0.29401 0.21173 0.71779
 H672 H 0.28385 0.23677 0.80994
 H673 H 0.18216 0.30260 0.75807
 H674 H 0.26052 0.32639 0.80089
 H675 H 0.30114 0.30287 0.81375
 H676 H 0.34661 0.22425 0.78755
 H677 H 0.16628 0.25905 0.72931
 H678 H 0.21183 0.17741 0.70316
 H679 H 0.25572 0.15768 0.71028
 H680 H 0.33464 0.18230 0.75539
 H681 H 0.18984 0.29606 0.71618
 H682 H 0.27913 0.29308 0.68220
 H683 H 0.23593 0.19004 0.83191
 H684 H 0.32438 0.18613 0.79749
 Zr685 Zr 0.27254 0.77092 0.28605
 O686 O 0.26249 0.79598 0.31717
 O687 O 0.31317 0.76470 0.29213
 O688 O 0.27509 0.74999 0.32141
 O689 O 0.27771 0.82439 0.24394
 O690 O 0.25382 0.71036 0.31300
 O691 O 0.29040 0.80976 0.28329
 O692 O 0.32573 0.73725 0.25950
 O693 O 0.27773 0.73033 0.27533
 O694 O 0.28739 0.77104 0.24911
 O695 O 0.23462 0.75344 0.28831
 O696 O 0.24457 0.79294 0.26401
 Zr697 Zr 0.22664 0.73313 0.21631
 Zr698 Zr 0.23967 0.71359 0.27574
 Zr699 Zr 0.25914 0.79090 0.22698
 Zr700 Zr 0.29115 0.73083 0.23796
 O701 O 0.23614 0.82616 0.22013
 O702 O 0.30518 0.69222 0.24957
 O703 O 0.26444 0.75110 0.21381
 O704 O 0.25431 0.71163 0.23876
 O705 O 0.21125 0.73306 0.25313
 O706 O 0.22151 0.77365 0.22725
 C707 C 0.33059 0.75138 0.27945
 C708 C 0.28962 0.82766 0.26540
 C709 C 0.26632 0.72646 0.32801
 O710 O 0.25999 0.67616 0.27907
 O711 O 0.21516 0.68320 0.26101
 O712 O 0.20705 0.69504 0.21984
 C713 C 0.20433 0.67915 0.23917
 O714 O 0.20521 0.80044 0.29559
 Zr715 Zr 0.20765 0.77336 0.26432
 O716 O 0.18616 0.73910 0.21002
 O717 O 0.20788 0.70626 0.30080
 O718 O 0.17996 0.75726 0.29027
 O719 O 0.19123 0.81070 0.25184
 O720 O 0.17271 0.76378 0.24425
 C721 C 0.16830 0.75051 0.22365
 O722 O 0.23629 0.70660 0.18617
 O723 O 0.29298 0.80103 0.20546
 O724 O 0.22685 0.75292 0.18017
 O725 O 0.25021 0.79140 0.18834
 O726 O 0.32049 0.74680 0.21364
 O727 O 0.29415 0.70720 0.20436
 C728 C 0.23803 0.77526 0.17317
 H729 H 0.30458 0.78049 0.24758
 H730 H 0.25611 0.69268 0.23286
 H731 H 0.20922 0.78358 0.21577
 H732 H 0.22788 0.75417 0.30588
 H733 H 0.32416 0.69092 0.24489
 H734 H 0.24994 0.66511 0.29132
 H735 H 0.21036 0.68773 0.30762
 H736 H 0.16340 0.76811 0.28881
 H737 H 0.33649 0.73510 0.21512
 H738 H 0.29003 0.81955 0.19879
 H739 H 0.24633 0.83747 0.20819
 H740 H 0.17227 0.81095 0.25674
 H741 H 0.31172 0.69810 0.20401
 H742 H 0.21983 0.70404 0.17596
 H743 H 0.27905 0.79894 0.32715
 H744 H 0.18648 0.80606 0.29799
 Zr745 Zr 0.22762 0.76723 0.72011
 O746 O 0.24066 0.79345 0.69113
 O747 O 0.18700 0.76478 0.71220
 O748 O 0.22518 0.74895 0.68346
 O749 O 0.22311 0.81737 0.76576
 O750 O 0.24286 0.70686 0.68988
 O751 O 0.21215 0.80721 0.72478
 O752 O 0.17141 0.73653 0.74275
 O753 O 0.21931 0.72650 0.72803
 O754 O 0.21151 0.76600 0.75655
 O755 O 0.26420 0.74663 0.71770
 O756 O 0.25604 0.78551 0.74435
 Zr757 Zr 0.26872 0.72147 0.78829
 Zr758 Zr 0.25607 0.70649 0.72762
 Zr759 Zr 0.24013 0.78200 0.78079
 Zr760 Zr 0.20467 0.72561 0.76491
 O761 O 0.26518 0.81481 0.79025
 O762 O 0.18856 0.68914 0.75035
 O763 O 0.23195 0.74191 0.79100
 O764 O 0.24026 0.70363 0.76406
 O765 O 0.28500 0.72239 0.75190
 O766 O 0.27670 0.76208 0.78024
 C767 C 0.16825 0.75219 0.72349
 C768 C 0.21229 0.82324 0.74425
 C769 C 0.23215 0.72509 0.67570
 O770 O 0.23308 0.67140 0.72106
 O771 O 0.27670 0.67242 0.74152
 O772 O 0.28677 0.68292 0.78268
 C773 C 0.28762 0.66710 0.76312
 O774 O 0.29596 0.79231 0.71443
 Zr775 Zr 0.29151 0.76298 0.74349
 O776 O 0.30945 0.72357 0.79596
 O777 O 0.28852 0.69806 0.70356
 O778 O 0.31891 0.74759 0.71667
 O779 O 0.31064 0.79734 0.75926
 O780 O 0.32511 0.74813 0.76282
 C781 C 0.32834 0.73350 0.78275
 O782 O 0.25636 0.69359 0.81616
 O783 O 0.20648 0.79347 0.80223
 O784 O 0.26859 0.73861 0.82556
 O785 O 0.24695 0.77888 0.81978
 O786 O 0.17584 0.74239 0.78957
 O787 O 0.19850 0.69994 0.79660
 C788 C 0.25783 0.76074 0.83388
 H789 H 0.19486 0.77656 0.75824
 H790 H 0.23700 0.68458 0.76883
 H791 H 0.28928 0.77012 0.79265
 H792 H 0.27159 0.74792 0.70041
 H793 H 0.16930 0.68925 0.75407
 H794 H 0.24273 0.66031 0.70841
 H795 H 0.28494 0.68034 0.69541
 H796 H 0.33592 0.75728 0.71922
 H797 H 0.15896 0.73259 0.78660
 H798 H 0.21056 0.81103 0.81048
 H799 H 0.25539 0.82605 0.80266
 H800 H 0.32962 0.79622 0.75452
 H801 H 0.18023 0.69261 0.79582
 H802 H 0.27225 0.68902 0.82662
 H803 H 0.22479 0.79840 0.68078
 H804 H 0.31491 0.79737 0.71311
 Zr805 Zr 0.26771 0.22375 0.21792
 O806 O 0.25473 0.19705 0.18896
 O807 O 0.30833 0.22605 0.21110
 O808 O 0.27110 0.24127 0.18123
 O809 O 0.27201 0.17434 0.26421
 O810 O 0.25437 0.28395 0.18661
 O811 O 0.28318 0.18394 0.22339
 O812 O 0.32383 0.25490 0.24160
 O813 O 0.27653 0.26441 0.22589
 O814 O 0.28321 0.22517 0.25488
 O815 O 0.23160 0.24502 0.21385
 O816 O 0.23847 0.20620 0.24105
 Zr817 Zr 0.22619 0.27114 0.28401
 Zr818 Zr 0.24024 0.28513 0.22381
 Zr819 Zr 0.25377 0.20979 0.27803
 Zr820 Zr 0.29052 0.26550 0.26328
 O821 O 0.22860 0.17661 0.28529
 O822 O 0.30726 0.30203 0.24997
 O823 O 0.26242 0.24987 0.28841
 O824 O 0.25542 0.28815 0.26078
 O825 O 0.21050 0.27010 0.24708
 O826 O 0.21764 0.23057 0.27582
 C827 C 0.32695 0.23923 0.22234
 C828 C 0.28311 0.16823 0.24301
 C829 C 0.26495 0.26519 0.17313
 O830 O 0.26407 0.31960 0.21769
 O831 O 0.22028 0.31987 0.23683
 O832 O 0.20943 0.31025 0.27776
 C833 C 0.20944 0.32592 0.25813
 O834 O 0.19909 0.20010 0.20944
 Zr835 Zr 0.20346 0.22949 0.23865
 O836 O 0.18527 0.26985 0.29005
 O837 O 0.20842 0.29391 0.19856
 O838 O 0.17694 0.24542 0.21086
 O839 O 0.18345 0.19551 0.25364
 O840 O 0.16964 0.24469 0.25687
 C841 C 0.16640 0.25976 0.27650
 O842 O 0.23839 0.29897 0.31233
 O843 O 0.28618 0.19926 0.30203
 O844 O 0.22529 0.25457 0.32132
 O845 O 0.24333 0.21243 0.31622
 O846 O 0.31929 0.24837 0.28823
 O847 O 0.29602 0.29047 0.29576
 C848 C 0.23308 0.23127 0.32985
 H849 H 0.29983 0.21463 0.25716
 H850 H 0.25898 0.30717 0.26560
 H851 H 0.20454 0.22285 0.28764
 H852 H 0.22457 0.24364 0.19630
 H853 H 0.32639 0.30177 0.25462
 H854 H 0.25485 0.33074 0.20466
 H855 H 0.21254 0.31142 0.19040
 H856 H 0.15969 0.23610 0.21276
 H857 H 0.33609 0.25839 0.28590
 H858 H 0.28191 0.18163 0.30990
 H859 H 0.23775 0.16537 0.29828
 H860 H 0.16464 0.19679 0.24802
 H861 H 0.31424 0.29793 0.29576
 H862 H 0.22236 0.30396 0.32215
 H863 H 0.27062 0.19180 0.17906
 H864 H 0.18006 0.19562 0.20721
 Zr865 Zr 0.73108 0.72663 0.28666
 O866 O 0.74533 0.69762 0.31303
 O867 O 0.69220 0.73234 0.29863
 O868 O 0.73375 0.74301 0.32405
 O869 O 0.71747 0.67971 0.23937
 O870 O 0.75772 0.78166 0.31866
 O871 O 0.71206 0.68860 0.28156
 O872 O 0.67599 0.76482 0.27193
 O873 O 0.72617 0.76850 0.28186
 O874 O 0.71061 0.73202 0.25225
 O875 O 0.76967 0.74267 0.28651
 O876 O 0.75421 0.70722 0.25871
 Zr877 Zr 0.76768 0.77261 0.21739
 Zr878 Zr 0.76468 0.78411 0.27965
 Zr879 Zr 0.73427 0.71496 0.22435
 Zr880 Zr 0.70698 0.77353 0.24689
 O881 O 0.75418 0.68038 0.21007
 O882 O 0.69643 0.81048 0.26475
 O883 O 0.72894 0.75642 0.21716
 O884 O 0.74447 0.79141 0.24544
 O885 O 0.78856 0.76712 0.25162
 O886 O 0.77242 0.73081 0.22252
 C887 C 0.67363 0.74788 0.29025
 C888 C 0.70958 0.67334 0.26171
 C889 C 0.74572 0.76434 0.33253
 O890 O 0.74617 0.82067 0.29094
 O891 O 0.78686 0.81654 0.26545
 O892 O 0.78801 0.80988 0.22265
 C893 C 0.79378 0.82347 0.24295
 O894 O 0.79747 0.69437 0.28458
 Zr895 Zr 0.79165 0.72544 0.25723
 O896 O 0.80706 0.76758 0.20604
 O897 O 0.80088 0.78738 0.30019
 O898 O 0.82400 0.73708 0.28084
 O899 O 0.80414 0.68937 0.23890
 O900 O 0.82319 0.73595 0.23380
 C901 C 0.82562 0.75253 0.21527
 O902 O 0.75379 0.80255 0.19177
 O903 O 0.69695 0.70917 0.20633
 O904 O 0.76324 0.75723 0.17978
 O905 O 0.73756 0.71980 0.18509
 O906 O 0.67355 0.76178 0.22475
 O907 O 0.69955 0.80199 0.21744
 C908 C 0.74992 0.73679 0.17113
 H909 H 0.69299 0.72323 0.25183
 H910 H 0.74240 0.81103 0.24218
 H911 H 0.78256 0.72217 0.20866
 H912 H 0.77900 0.73919 0.30281
 H913 H 0.67693 0.81271 0.26294
 H914 H 0.75864 0.82976 0.30282
 H915 H 0.80027 0.80476 0.30959
 H916 H 0.83961 0.72604 0.27591
 H917 H 0.65829 0.77318 0.23001
 H918 H 0.69801 0.69177 0.19700
 H919 H 0.74161 0.67120 0.19835
 H920 H 0.82361 0.68769 0.24151
 H921 H 0.68222 0.81101 0.22028
 H922 H 0.76858 0.80648 0.18004
 H923 H 0.73044 0.69351 0.32458
 H924 H 0.81622 0.68820 0.28434
 Zr925 Zr 0.77338 0.27692 0.78637
 O926 O 0.76089 0.30210 0.81656
 O927 O 0.81420 0.27472 0.79287
 O928 O 0.77752 0.25762 0.82233
 O929 O 0.77404 0.32947 0.74287
 O930 O 0.76174 0.21512 0.81478
 O931 O 0.78814 0.31698 0.78247
 O932 O 0.82956 0.24770 0.76098
 O933 O 0.78280 0.23683 0.77645
 O934 O 0.78788 0.27779 0.74931
 O935 O 0.73774 0.25519 0.78950
 O936 O 0.74319 0.29549 0.76429
 Zr937 Zr 0.73099 0.23306 0.71825
 Zr938 Zr 0.74690 0.21576 0.77758
 Zr939 Zr 0.75750 0.29419 0.72710
 Zr940 Zr 0.79579 0.23802 0.73897
 O941 O 0.73124 0.32715 0.72092
 O942 O 0.81353 0.20092 0.75036
 O943 O 0.76673 0.25481 0.71475
 O944 O 0.76113 0.21493 0.74044
 O945 O 0.71633 0.23191 0.75524
 O946 O 0.72185 0.27301 0.72842
 C947 C 0.83281 0.26248 0.78088
 C948 C 0.78602 0.33420 0.76408
 C949 C 0.77180 0.23329 0.82940
 O950 O 0.77148 0.18114 0.78158
 O951 O 0.72652 0.18188 0.76324
 O952 O 0.71426 0.19395 0.72302
 C953 C 0.71460 0.17733 0.74197
 O954 O 0.70455 0.29965 0.79624
 Zr955 Zr 0.70867 0.27186 0.76568
 O956 O 0.68994 0.23451 0.71227
 O957 O 0.71611 0.20524 0.80273
 O958 O 0.68317 0.25436 0.79286
 O959 O 0.68755 0.30634 0.75232
 O960 O 0.67473 0.25702 0.74706
 C961 C 0.67124 0.24331 0.72658
 O962 O 0.74298 0.20666 0.68878
 O963 O 0.78943 0.30668 0.70411
 O964 O 0.72880 0.25170 0.68179
 O965 O 0.74659 0.29346 0.68875
 O966 O 0.82360 0.25678 0.71478
 O967 O 0.80090 0.21493 0.70529
 C968 C 0.73617 0.27541 0.67427
 H969 H 0.80418 0.28870 0.74749
 H970 H 0.76477 0.19620 0.73468
 H971 H 0.70830 0.28124 0.71703
 H972 H 0.73106 0.25556 0.80709
 H973 H 0.83253 0.20162 0.74568
 H974 H 0.76290 0.16926 0.79418
 H975 H 0.72080 0.18733 0.80997
 H976 H 0.66572 0.26366 0.79150
 H977 H 0.84063 0.24675 0.71650
 H978 H 0.78456 0.32465 0.69709
 H979 H 0.73992 0.33927 0.70859
 H980 H 0.66889 0.30448 0.75787
 H981 H 0.81926 0.20766 0.70482
 H982 H 0.72678 0.20212 0.67880
 H983 H 0.77700 0.30692 0.82654
 H984 H 0.68551 0.30401 0.79863
 C985 C 0.44689 0.98948 0.31699
 C986 C 0.45960 0.98916 0.29340
 C987 C 0.44456 0.99280 0.27107
 C988 C 0.41680 0.99746 0.27199
 C989 C 0.40520 0.99744 0.29626
 N990 N 0.42016 0.99353 0.31750
 C991 C 0.46088 0.98482 0.34163
 N992 N 0.44576 0.97789 0.36180
 C993 C 0.45573 0.97574 0.38569
 C994 C 0.48252 0.98145 0.39082
 C995 C 0.49906 0.98742 0.37031
 C996 C 0.48831 0.98911 0.34558
 H997 H 0.45480 0.99087 0.25326
 H998 H 0.38395 1.00003 0.29823
 H999 H 0.44232 0.97097 0.40097
 H1000 H 0.51973 0.99243 0.37359
 H1001 H 0.48068 0.98519 0.29201
 H1002 H 0.50102 0.99512 0.33019
 C1003 C -0.05871 0.48873 0.82359
 C1004 C -0.04465 0.48709 0.80081
 C1005 C -0.05787 0.49207 0.77776
 C1006 C -0.08507 0.49955 0.77716
 C1007 C -0.09823 0.50044 0.80064
 N1008 N -0.08501 0.49516 0.82266
 C1009 C -0.04657 0.48302 0.84880
 N1010 N -0.06321 0.47641 0.86793
 C1011 C -0.05479 0.47346 0.89225
 C1012 C -0.02812 0.47804 0.89894
 C1013 C -0.01012 0.48360 0.87949
 C1014 C -0.01928 0.48611 0.85430
 H1015 H -0.04673 0.48912 0.76057
 H1016 H -0.11925 0.50509 0.80139
 H1017 H -0.06931 0.46884 0.90662
 H1018 H 0.01054 0.48760 0.88395
 H1019 H -0.02394 0.48110 0.80062
 H1020 H -0.00542 0.49182 0.83972
 C1021 C 0.05348 0.00243 0.81489
 C1022 C 0.08058 -0.00340 0.81787
 C1023 C 0.09687 -0.00428 0.79670
 C1024 C 0.08621 -0.00073 0.77211
 C1025 C 0.05909 0.00700 0.77033
 N1026 N 0.04361 0.00807 0.79140
 C1027 C 0.03580 0.00099 0.83701
 N1028 N 0.02105 0.02282 0.84447
 C1029 C 0.00757 0.02307 0.86688
 C1030 C 0.00927 0.00071 0.88323
 C1031 C 0.02293 -0.02243 0.87490
 C1032 C 0.03621 -0.02234 0.85195
 H1033 H 0.11783 -0.00857 0.79939
 H1034 H 0.05006 0.01238 0.75236
 H1035 H -0.00272 0.04130 0.87272
 H1036 H 0.02462 -0.04014 0.88690
 H1037 H 0.08904 -0.00735 0.83648
 H1038 H 0.04767 -0.03996 0.84638
 C1039 C 0.55833 0.50972 0.32112
 C1040 C 0.54381 0.51210 0.29837
 C1041 C 0.55683 0.50910 0.27514
 C1042 C 0.58434 0.50308 0.27424
 C1043 C 0.59793 0.50134 0.29769
 N1044 N 0.58487 0.50456 0.31991
 C1045 C 0.54647 0.51338 0.34665
 N1046 N 0.56350 0.51721 0.36647
 C1047 C 0.55531 0.51886 0.39082
 C1048 C 0.52833 0.51606 0.39679
 C1049 C 0.51002 0.51315 0.37673
 C1050 C 0.51902 0.51174 0.35156
 H1051 H 0.54523 0.51248 0.25810
 H1052 H 0.61915 0.49772 0.29827
 H1053 H 0.57013 0.52149 0.40563
 H1054 H 0.48908 0.51067 0.38058
 H1055 H 0.52288 0.51710 0.29831
 H1056 H 0.50472 0.50829 0.33648
 C1057 C 0.55096 0.50223 0.18092
 C1058 C 0.56946 0.52305 0.18456
 C1059 C 0.58523 0.52361 0.20644
 C1060 C 0.58238 0.50383 0.22544
 C1061 C 0.56376 0.48303 0.22064
 N1062 N 0.54892 0.48268 0.19890
 C1063 C 0.53524 0.50030 0.15704
 N1064 N 0.53021 0.47560 0.14644
 C1065 C 0.51900 0.47293 0.12288
 C1066 C 0.51285 0.49601 0.10852
 C1067 C 0.51643 0.52148 0.11968
 C1068 C 0.52733 0.52373 0.14395
 H1069 H 0.60013 0.53918 0.20773
 H1070 H 0.56133 0.46683 0.23419
 H1071 H 0.51674 0.45296 0.11470
 H1072 H 0.51209 0.53972 0.10901
 H1073 H 0.57259 0.53822 0.17014
 H1074 H 0.53047 0.54366 0.15195
 C1075 C 0.06481 0.99242 0.67546
 C1076 C 0.05750 0.97515 0.69520
 C1077 C 0.06998 0.97764 0.71890
 C1078 C 0.08935 0.99772 0.72351
 C1079 C 0.09593 1.01454 0.70299
 N1080 N 0.08381 1.01138 0.68004
 C1081 C 0.05459 0.98947 0.64909
 N1082 N 0.06961 0.99989 0.63029
 C1083 C 0.06248 0.99850 0.60551
 C1084 C 0.03850 0.98617 0.59797
 C1085 C 0.02242 0.97523 0.61699
 C1086 C 0.03044 0.97675 0.64260
 H1087 H 0.06490 0.96344 0.73368
 H1088 H 0.11146 1.02944 0.70459
 H1089 H 0.07565 1.00745 0.59181
 H1090 H 0.00370 0.96576 0.61212
 H1091 H 0.04322 0.95916 0.69223
 H1092 H 0.01764 0.96857 0.65702
 C1093 C -0.05325 0.50588 0.68398
 C1094 C -0.04857 0.52414 0.70389
 C1095 C -0.06400 0.52273 0.72577
 C1096 C -0.08388 0.50286 0.72846
 C1097 C -0.08804 0.48533 0.70770
 N1098 N -0.07281 0.48721 0.68663
 C1099 C -0.03836 0.50616 0.65974
 N1100 N -0.04090 0.48426 0.64430
 C1101 C -0.03037 0.48320 0.62077
 C1102 C -0.01664 0.50543 0.61093
 C1103 C -0.01260 0.52794 0.62671
 C1104 C -0.02350 0.52844 0.65117
 H1105 H -0.06039 0.53720 0.74085
 H1106 H -0.10371 0.47053 0.70762
 H1107 H -0.03368 0.46529 0.60933
 H1108 H -0.00236 0.54557 0.61967
 H1109 H -0.03321 0.53928 0.70284
 H1110 H -0.02129 0.54652 0.66253
 C1111 C 0.44151 0.00008 0.17654
 C1112 C 0.42311 -0.02058 0.18089
 C1113 C 0.40929 -0.02145 0.20366
 C1114 C 0.41389 -0.00210 0.22290
 C1115 C 0.43178 0.01896 0.21717
 N1116 N 0.44493 0.01948 0.19464
 C1117 C 0.45595 0.00164 0.15202
 N1118 N 0.46217 0.02617 0.14180
 C1119 C 0.47254 0.02862 0.11803
 C1120 C 0.47650 0.00553 0.10294
 C1121 C 0.47164 -0.01986 0.11366
 C1122 C 0.46175 -0.02192 0.13816
 H1123 H 0.39454 -0.03707 0.20556
 H1124 H 0.43528 0.03501 0.23078
 H1125 H 0.47590 0.04857 0.11031
 H1126 H 0.47445 -0.03813 0.10259
 H1127 H 0.41863 -0.03556 0.16650
 H1128 H 0.45792 -0.04181 0.14579
 C1129 C 0.32030 0.40798 0.00261
 C1130 C 0.29823 0.41457 -0.01287
 C1131 C 0.27544 0.39836 -0.01247
 C1132 C 0.27368 0.37614 0.00414
 C1133 C 0.29711 0.36942 0.01796
 N1134 N 0.31899 0.38541 0.01720
 C1135 C 0.34520 0.42437 0.00340
 N1136 N 0.36252 0.42143 0.02336
 C1137 C 0.38603 0.43507 0.02504
 C1138 C 0.39363 0.45274 0.00561
 C1139 C 0.37596 0.45611 -0.01505
 C1140 C 0.35197 0.44209 -0.01624
 H1141 H 0.25890 0.40355 -0.02483
 H1142 H 0.29832 0.35133 0.02939
 H1143 H 0.39899 0.43161 0.04123
 H1144 H 0.38079 0.46940 -0.03062
 H1145 H 0.29815 0.43220 -0.02496
 H1146 H 0.33942 0.44471 -0.03281
 C1147 C -0.16792 0.90823 0.50568
 C1148 C -0.19287 0.92117 0.50526
 C1149 C -0.21619 0.90578 0.50362
 C1150 C -0.21497 0.87731 0.50153
 C1151 C -0.18932 0.86539 0.50262
 N1152 N -0.16704 0.88076 0.50463
 C1153 C -0.14252 0.92362 0.50687
 N1154 N -0.12084 0.91277 0.51896
 C1155 C -0.09664 0.92519 0.51941
 C1156 C -0.09294 0.94960 0.50635
 C1157 C -0.11505 0.96114 0.49388
 C1158 C -0.13981 0.94845 0.49431
 H1159 H -0.23494 0.91640 0.50455
 H1160 H -0.18710 0.84361 0.50186
 H1161 H -0.08007 0.91544 0.52899
 H1162 H -0.11308 0.97987 0.48345
 H1163 H -0.19441 0.94296 0.50682
 H1164 H -0.15633 0.95745 0.48402
 C1165 C -0.18851 0.09496 0.98504
 C1166 C -0.18611 0.12200 0.99261
 C1167 C -0.20888 0.13718 0.99783
 C1168 C -0.23452 0.12589 0.99544
 C1169 C -0.23584 0.09849 0.98776
 N1170 N -0.21322 0.08396 0.98317
 C1171 C -0.16456 0.07818 0.97979
 N1172 N -0.16315 0.05244 0.98883
 C1173 C -0.14084 0.03690 0.98665
 C1174 C -0.11812 0.04703 0.97467
 C1175 C -0.11953 0.07300 0.96408
 C1176 C -0.14262 0.08872 0.96678
 H1177 H -0.20655 0.15820 1.00317
 H1178 H -0.25468 0.08873 0.98443
 H1179 H -0.14050 0.01694 0.99507
 H1180 H -0.10233 0.08167 0.95503
 H1181 H -0.16678 0.13131 0.99465
 H1182 H -0.14317 0.10905 0.95919
 C1183 C 0.32721 0.59738 0.49428
 C1184 C 0.30605 0.59288 0.47729
 C1185 C 0.28203 0.60696 0.48042
 C1186 C 0.27848 0.62549 0.50060
 C1187 C 0.30069 0.62969 0.51674
 N1188 N 0.32371 0.61557 0.51339
 C1189 C 0.35310 0.58261 0.49268
 N1190 N 0.36769 0.57944 0.51433
 C1191 C 0.39150 0.56633 0.51492
 C1192 C 0.40253 0.55547 0.49263
 C1193 C 0.38820 0.55897 0.46984
 C1194 C 0.36342 0.57233 0.46980
 H1195 H 0.26609 0.60351 0.46689
 H1196 H 0.30032 0.64466 0.53166
 H1197 H 0.40187 0.56454 0.53293
 H1198 H 0.39595 0.55110 0.45220
 H1199 H 0.30780 0.57844 0.46194
 H1200 H 0.35277 0.57491 0.45204
 C1201 C 0.17876 0.59771 0.51033
 C1202 C 0.17817 0.62572 0.50640
 C1203 C 0.20190 0.63963 0.50264
 C1204 C 0.22669 0.62605 0.50289
 C1205 C 0.22618 0.59782 0.50715
 N1206 N 0.20268 0.58465 0.51033
 C1207 C 0.15384 0.58205 0.51358
 N1208 N 0.15168 0.55727 0.50248
 C1209 C 0.12893 0.54253 0.50334
 C1210 C 0.10648 0.55241 0.51617
 C1211 C 0.10854 0.57740 0.52866
 C1212 C 0.13209 0.59240 0.52721
 H1213 H 0.20100 0.66131 0.49988
 H1214 H 0.24431 0.58615 0.50870
 H1215 H 0.12820 0.52325 0.49359
 H1216 H 0.09165 0.58580 0.53861
 H1217 H 0.15954 0.63675 0.50588
 H1218 H 0.13323 0.61190 0.53654
 C1219 C 0.66323 0.10523 -0.00120
 C1220 C 0.66741 0.12683 -0.01791
 C1221 C 0.69222 0.13925 -0.01889
 C1222 C 0.71368 0.13007 -0.00370
 C1223 C 0.70806 0.10919 0.01376
 N1224 N 0.68358 0.09739 0.01440
 C1225 C 0.63715 0.09093 -0.00061
 N1226 N 0.62808 0.07968 0.02131
 C1227 C 0.60430 0.06640 0.02250
 C1228 C 0.58831 0.06342 0.00063
 C1229 C 0.59752 0.07485 -0.02204
 C1230 C 0.62166 0.08845 -0.02274
 H1231 H 0.69410 0.15657 -0.03121
 H1232 H 0.72326 0.10231 0.02692
 H1233 H 0.59818 0.05775 0.04035
 H1234 H 0.58611 0.07316 -0.03949
 H1235 H 0.65147 0.13463 -0.02977
 H1236 H 0.62832 0.09638 -0.04069
 C1237 C 0.68277 0.89970 0.49484
 C1238 C 0.68733 0.88062 0.51406
 C1239 C 0.71195 0.86777 0.51628
 C1240 C 0.73301 0.87400 0.49977
 C1241 C 0.72690 0.89217 0.47976
 N1242 N 0.70255 0.90453 0.47798
 C1243 C 0.65695 0.91476 0.49338
 N1244 N 0.64573 0.92189 0.47061
 C1245 C 0.62181 0.93523 0.46887
 C1246 C 0.60790 0.94250 0.49095
 C1247 C 0.61945 0.93542 0.51444
 C1248 C 0.64367 0.92177 0.51572
 H1249 H 0.71388 0.85240 0.53071
 H1250 H 0.74167 0.89655 0.46558
 H1251 H 0.61387 0.94046 0.45036
 H1252 H 0.60978 0.94047 0.53211
 H1253 H 0.67177 0.87519 0.52710
 H1254 H 0.65209 0.91714 0.53419
 C1255 C 0.17231 0.40175 1.00365
 C1256 C 0.17319 0.37358 1.00087
 C1257 C 0.19747 0.35996 1.00291
 C1258 C 0.22149 0.37418 1.00647
 C1259 C 0.21927 0.40221 1.01138
 N1260 N 0.19520 0.41504 1.00965
 C1261 C 0.14684 0.41698 1.00086
 N1262 N 0.14206 0.43873 1.01606
 C1263 C 0.11867 0.45274 1.01520
 C1264 C 0.09828 0.44528 0.99811
 C1265 C 0.10318 0.42357 0.98159
 C1266 C 0.12728 0.40928 0.98303
 H1267 H 0.19773 0.33820 1.00046
 H1268 H 0.23647 0.41405 1.01651
 H1269 H 0.11588 0.46953 1.02813
 H1270 H 0.08810 0.41712 0.96816
 H1271 H 0.15528 0.36211 0.99729
 H1272 H 0.13057 0.39240 0.97030
 C1273 C -0.00348 0.31173 0.42619
 C1274 C 0.02042 0.29840 0.42096
 C1275 C 0.02087 0.27887 0.40212
 C1276 C -0.00225 0.27286 0.38799
 C1277 C -0.02630 0.28479 0.39581
 N1278 N -0.02613 0.30428 0.41389
 C1279 C -0.00376 0.33651 0.44126
 N1280 N -0.02071 0.35658 0.43400
 C1281 C -0.01961 0.38164 0.44427
 C1282 C -0.00019 0.38764 0.46263
 C1283 C 0.01664 0.36685 0.47131
 C1284 C 0.01485 0.34118 0.46070
 H1285 H 0.03966 0.26928 0.39765
 H1286 H -0.04515 0.27927 0.38741
 H1287 H -0.03348 0.39691 0.43758
 H1288 H 0.03155 0.37051 0.48584
 H1289 H 0.03894 0.30411 0.43002
 H1290 H 0.02824 0.32541 0.46725
 C1291 C 0.48559 -0.17737 -0.09173
 C1292 C 0.46419 -0.18979 -0.10414
 C1293 C 0.46844 -0.21386 -0.11721
 C1294 C 0.49419 -0.22516 -0.11860
 C1295 C 0.51447 -0.21289 -0.10415
 N1296 N 0.50981 -0.18954 -0.09161
 C1297 C 0.48309 -0.15145 -0.07865
 N1298 N 0.50117 -0.14572 -0.06017
 C1299 C 0.50194 -0.12144 -0.04843
 C1300 C 0.48401 -0.10097 -0.05557
 C1301 C 0.46499 -0.10646 -0.07448
 C1302 C 0.46446 -0.13175 -0.08611
 H1303 H 0.45137 -0.22352 -0.12578
 H1304 H 0.53425 -0.22157 -0.10342
 H1305 H 0.51689 -0.11814 -0.03386
 H1306 H 0.45079 -0.09118 -0.08053
 H1307 H 0.44433 -0.18132 -0.10346
 H1308 H 0.45031 -0.13537 -0.10130
 C1309 C 0.00486 -0.18492 1.07321
 C1310 C 0.02791 -0.19422 1.08543
 C1311 C 0.02607 -0.21509 1.10278
 C1312 C 0.00118 -0.22649 1.10843
 C1313 C -0.02047 -0.21921 1.09274
 N1314 N -0.01837 -0.19828 1.07637
 C1315 C 0.00452 -0.15964 1.05890
 N1316 N -0.01514 -0.15550 1.04146
 C1317 C -0.01866 -0.13132 1.02982
 C1318 C -0.00227 -0.10946 1.03627
 C1319 C 0.01829 -0.11341 1.05397
 C1320 C 0.02176 -0.13844 1.06533
 H1321 H 0.04428 -0.22196 1.11176
 H1322 H -0.03946 -0.22917 1.09455
 H1323 H -0.03469 -0.12907 1.01613
 H1324 H 0.03149 -0.09708 1.05933
 H1325 H 0.04709 -0.18521 1.08202
 H1326 H 0.03698 -0.14063 1.07982
 C1327 C 0.51778 0.32087 0.58706
 C1328 C 0.53912 0.31062 0.60136
 C1329 C 0.53565 0.28728 0.61549
 C1330 C 0.51074 0.27438 0.61592
 C1331 C 0.49061 0.28445 0.59975
 N1332 N 0.49445 0.30727 0.58625
 C1333 C 0.51944 0.34623 0.57306
 N1334 N 0.50217 0.35034 0.55345
 C1335 C 0.50055 0.37424 0.54107
 C1336 C 0.51654 0.39590 0.54882
 C1337 C 0.53486 0.39194 0.56871
 C1338 C 0.53635 0.36713 0.58091
 H1339 H 0.55274 0.27921 0.62555
 H1340 H 0.47166 0.27431 0.59813
 H1341 H 0.48623 0.37643 0.52574
 H1342 H 0.54762 0.40813 0.57525
 H1343 H 0.55841 0.32016 0.60133
 H1344 H 0.54974 0.36489 0.59695
 C1345 C 0.50500 1.18843 0.56984
 C1346 C 0.52888 1.20131 0.57618
 C1347 C 0.52895 1.22078 0.59519
 C1348 C 0.50556 1.22677 0.60859
 C1349 C 0.48168 1.21540 0.59957
 N1350 N 0.48216 1.19628 0.58123
 C1351 C 0.50435 1.16378 0.55454
 N1352 N 0.48487 1.14570 0.55956
 C1353 C 0.48451 1.12072 0.54914
 C1354 C 0.50495 1.11263 0.53296
 C1355 C 0.52448 1.13141 0.52637
 C1356 C 0.52423 1.15713 0.53711
 H1357 H 0.54754 1.23040 0.60027
 H1358 H 0.46261 1.22116 0.60716
 H1359 H 0.46864 1.10708 0.55413
 H1360 H 0.54035 1.12601 0.51356
 H1361 H 0.54756 1.19550 0.56774
 H1362 H 0.53967 1.17127 0.53220
 C1363 C -0.01555 0.67873 1.08485
 C1364 C -0.03667 0.68992 1.09834
 C1365 C -0.03264 0.71337 1.11222
 C1366 C -0.00733 0.72556 1.11328
 C1367 C 0.01247 0.71490 1.09741
 N1368 N 0.00810 0.69182 1.08418
 C1369 C -0.01796 0.65279 1.07174
 N1370 N -0.00159 0.64765 1.05197
 C1371 C -0.00103 0.62332 1.04021
 C1372 C -0.01721 0.60225 1.04876
 C1373 C -0.03452 0.60722 1.06892
 C1374 C -0.03494 0.63248 1.08049
 H1375 H -0.04963 0.72185 1.12185
 H1376 H 0.03169 0.72451 1.09620
 H1377 H 0.01260 0.62036 1.02468
 H1378 H -0.04728 0.59148 1.07612
 H1379 H -0.05619 0.68085 1.09806
 H1380 H -0.04760 0.63558 1.09672
 C1381 C 0.51597 0.68935 -0.07439
 C1382 C 0.53752 0.69896 -0.08828
 C1383 C 0.53315 0.71862 -0.10667
 C1384 C 0.50724 0.72840 -0.11154
 C1385 C 0.48720 0.72095 -0.09452
 N1386 N 0.49178 0.70131 -0.07720
 C1387 C 0.51754 0.66450 -0.05939
 N1388 N 0.49789 0.65959 -0.04250
 C1389 C 0.49474 0.63506 -0.03159
 C1390 C 0.51136 0.61347 -0.03844
 C1391 C 0.53240 0.61834 -0.05501
 C1392 C 0.53559 0.64382 -0.06550
 H1393 H 0.55012 0.72574 -0.11707
 H1394 H 0.46742 0.72951 -0.09616
 H1395 H 0.47852 0.63222 -0.01855
 H1396 H 0.54593 0.60229 -0.06050
 H1397 H 0.55740 0.69101 -0.08548
 H1398 H 0.55094 0.64655 -0.07947
 C1399 C 0.01642 1.18017 0.41007
 C1400 C 0.03684 1.19124 0.39562
 C1401 C 0.03171 1.21413 0.38109
 C1402 C 0.00605 1.22574 0.38040
 C1403 C -0.01320 1.21478 0.39657
 N1404 N -0.00773 1.19248 0.41048
 C1405 C 0.01986 1.15523 0.42459
 N1406 N 0.00303 1.15055 0.44410
 C1407 C 0.00278 1.12672 0.45668
 C1408 C 0.01969 1.10565 0.44915
 C1409 C 0.03774 1.11030 0.42954
 C1410 C 0.03788 1.13506 0.41719
 H1411 H 0.04818 1.22297 0.37113
 H1412 H -0.03271 1.22396 0.39800
 H1413 H -0.01135 1.12399 0.47179
 H1414 H 0.05124 1.09458 0.42323
 H1415 H 0.05670 1.18276 0.39589
 H1416 H 0.05102 1.13774 0.40128
 C1417 C 0.74616 0.69751 0.93347
 C1418 C 0.76889 0.68172 0.93827
 C1419 C 0.77089 0.66654 0.96059
 C1420 C 0.74967 0.66601 0.97785
 C1421 C 0.72852 0.68453 0.97331
 N1422 N 0.72696 0.69897 0.95135
 C1423 C 0.74099 0.70828 0.90769
 N1424 N 0.73910 0.73540 0.90296
 C1425 C 0.73599 0.74535 0.87884
 C1426 C 0.73491 0.72753 0.85800
 C1427 C 0.73528 0.69958 0.86304
 C1428 C 0.73849 0.68999 0.88762
 H1429 H 0.78876 0.65479 0.96365
 H1430 H 0.71220 0.68587 0.98647
 H1431 H 0.73583 0.76700 0.87584
 H1432 H 0.73418 0.68497 0.84772
 H1433 H 0.78456 0.68041 0.92437
 H1434 H 0.73954 0.66837 0.89093
 C1435 C 0.25011 0.19442 0.43084
 C1436 C 0.26608 0.17120 0.43102
 C1437 C 0.27019 0.15700 0.45350
 C1438 C 0.25858 0.16569 0.47641
 C1439 C 0.24451 0.19073 0.47553
 N1440 N 0.24031 0.20392 0.45310
 C1441 C 0.24105 0.20581 0.40626
 N1442 N 0.24514 0.23228 0.40019
 C1443 C 0.24001 0.24205 0.37636
 C1444 C 0.23092 0.22455 0.35710
 C1445 C 0.22499 0.19779 0.36366
 C1446 C 0.22998 0.18841 0.38808
 H1447 H 0.28119 0.13833 0.45216
 H1448 H 0.23439 0.19835 0.49207
 H1449 H 0.24493 0.26280 0.37197
 H1450 H 0.21793 0.18364 0.34942
 H1451 H 0.27415 0.16322 0.41353
 H1452 H 0.22629 0.16737 0.39248
 C1453 C 0.75609 0.31030 0.43056
 C1454 C 0.77456 0.30524 0.45013
 C1455 C 0.77315 0.32020 0.47269
 C1456 C 0.75314 0.33997 0.47641
 C1457 C 0.73521 0.34429 0.45608
 N1458 N 0.73714 0.32961 0.43435
 C1459 C 0.75650 0.29644 0.40538
 N1460 N 0.73607 0.30190 0.38911
 C1461 C 0.73501 0.29219 0.36507
 C1462 C 0.75567 0.27600 0.35552
 C1463 C 0.77667 0.26909 0.37203
 C1464 C 0.77724 0.27935 0.39698
 H1465 H 0.78795 0.31655 0.48736
 H1466 H 0.72016 0.35990 0.45677
 H1467 H 0.71815 0.29771 0.35323
 H1468 H 0.79302 0.25673 0.36539
 H1469 H 0.79008 0.29022 0.44823
 H1470 H 0.79409 0.27450 0.40900
 C1471 C 0.24926 0.80684 0.93317
 C1472 C 0.26732 0.80585 0.95358
 C1473 C 0.26336 0.82265 0.97464
 C1474 C 0.24126 0.84038 0.97597
 C1475 C 0.22383 0.84066 0.95487
 N1476 N 0.22817 0.82415 0.93463
 C1477 C 0.25235 0.79049 0.90957
 N1478 N 0.23083 0.78829 0.89394
 C1479 C 0.23203 0.77650 0.87073
 C1480 C 0.25621 0.76653 0.86138
 C1481 C 0.27861 0.76733 0.87738
 C1482 C 0.27678 0.77931 0.90157
 H1483 H 0.27776 0.82199 0.99003
 H1484 H 0.20716 0.85445 0.95382
 H1485 H 0.21429 0.77624 0.85894
 H1486 H 0.29771 0.76033 0.87063
 H1487 H 0.28428 0.79233 0.95347
 H1488 H 0.29459 0.78105 0.91307
 C1489 C 0.23462 0.82014 0.07221
 C1490 C 0.23669 0.84836 0.07065
 C1491 C 0.23792 0.86083 0.04704
 C1492 C 0.23793 0.84547 0.02450
 C1493 C 0.23401 0.81721 0.02703
 N1494 N 0.23278 0.80546 0.05041
 C1495 C 0.23633 0.80658 0.09727
 N1496 N 0.21943 0.78625 0.10384
 C1497 C 0.21984 0.77487 0.12755
 C1498 C 0.23789 0.78418 0.14613
 C1499 C 0.25614 0.80418 0.13894
 C1500 C 0.25535 0.81534 0.11486
 H1501 H 0.23943 0.88267 0.04630
 H1502 H 0.23169 0.80432 0.01061
 H1503 H 0.20564 0.75930 0.13209
 H1504 H 0.27100 0.81170 0.15211
 H1505 H 0.23751 0.86071 0.08764
 H1506 H 0.26950 0.83092 0.11006
 C1507 C 0.74311 0.31464 0.57193
 C1508 C 0.74124 0.30018 0.54905
 C1509 C 0.74544 0.31351 0.52598
 C1510 C 0.75216 0.34127 0.52538
 C1511 C 0.75344 0.35480 0.54894
 N1512 N 0.74903 0.34145 0.57098
 C1513 C 0.73814 0.30245 0.59726
 N1514 N 0.73391 0.31964 0.61700
 C1515 C 0.73121 0.31103 0.64124
 C1516 C 0.73335 0.28340 0.64721
 C1517 C 0.73659 0.26496 0.62717
 C1518 C 0.73904 0.27439 0.60213
 H1519 H 0.74233 0.30203 0.50877
 H1520 H 0.75751 0.37626 0.54971
 H1521 H 0.72848 0.32599 0.65602
 H1522 H 0.73869 0.24354 0.63100
 H1523 H 0.73569 0.27908 0.54872
 H1524 H 0.74278 0.25993 0.58716
 C1525 C 0.25469 0.18487 0.57372
 C1526 C 0.23783 0.16297 0.56882
 C1527 C 0.23684 0.15136 0.54473
 C1528 C 0.25244 0.16140 0.52478
 C1529 C 0.26734 0.18509 0.53024
 N1530 N 0.26841 0.19572 0.55416
 C1531 C 0.25910 0.19454 0.60019
 N1532 N 0.26275 0.22133 0.60558
 C1533 C 0.26563 0.23065 0.62995
 C1534 C 0.26466 0.21253 0.65049
 C1535 C 0.26230 0.18482 0.64496
 C1536 C 0.25959 0.17584 0.62011
 H1537 H 0.22420 0.13403 0.54248
 H1538 H 0.27973 0.19401 0.51588
 H1539 H 0.26764 0.25215 0.63332
 H1540 H 0.26210 0.16991 0.65998
 H1541 H 0.22592 0.15433 0.58373
 H1542 H 0.25782 0.15434 0.61658
 C1543 C 0.74794 0.69819 0.06796
 C1544 C 0.76979 0.69778 0.05163
 C1545 C 0.76896 0.68172 0.02978
 C1546 C 0.74688 0.66512 0.02419
 C1547 C 0.72462 0.66808 0.04001
 N1548 N 0.72597 0.68376 0.06124
 C1549 C 0.74830 0.71196 0.09320
 N1550 N 0.72818 0.70638 0.10937
 C1551 C 0.72769 0.71558 0.13362
 C1552 C 0.74867 0.73121 0.14344
 C1553 C 0.76908 0.73851 0.12691
 C1554 C 0.76900 0.72895 0.10178
 H1555 H 0.78620 0.68125 0.01764
 H1556 H 0.70610 0.65807 0.03585
 H1557 H 0.71124 0.70982 0.14551
 H1558 H 0.78560 0.75056 0.13369
 H1559 H 0.78774 0.70888 0.05577
 H1560 H 0.78529 0.73446 0.08969
 C1561 C 0.14564 0.57870 0.24016
 C1562 C 0.14826 0.55750 0.22260
 C1563 C 0.13532 0.53289 0.22690
 C1564 C 0.12004 0.52869 0.24891
 C1565 C 0.11740 0.55102 0.26549
 N1566 N 0.13025 0.57465 0.26091
 C1567 C 0.15979 0.60507 0.23782
 N1568 N 0.16281 0.62028 0.25916
 C1569 C 0.17607 0.64412 0.25949
 C1570 C 0.18757 0.65442 0.23731
 C1571 C 0.18400 0.63972 0.21471
 C1572 C 0.17023 0.61497 0.21489
 H1573 H 0.13731 0.51688 0.21299
 H1574 H 0.10475 0.55024 0.28187
 H1575 H 0.17788 0.65489 0.27732
 H1576 H 0.19245 0.64693 0.19718
 H1577 H 0.16042 0.55954 0.20592
 H1578 H 0.16784 0.60392 0.19730
 C1579 C 0.65175 0.08001 0.74562
 C1580 C 0.62409 0.08208 0.74749
 C1581 C 0.60897 0.05877 0.75070
 C1582 C 0.62094 0.03284 0.75210
 C1583 C 0.64893 0.03188 0.74997
 N1584 N 0.66329 0.05505 0.74717
 C1585 C 0.66849 0.10453 0.74248
 N1586 N 0.69226 0.10614 0.75492
 C1587 C 0.70771 0.12868 0.75412
 C1588 C 0.69964 0.15149 0.73998
 C1589 C 0.67574 0.14987 0.72616
 C1590 C 0.66005 0.12657 0.72750
 H1591 H 0.58758 0.06087 0.75165
 H1592 H 0.65955 0.01288 0.74960
 H1593 H 0.72610 0.12899 0.76495
 H1594 H 0.66867 0.16700 0.71517
 H1595 H 0.61419 0.10157 0.74669
 H1596 H 0.64144 0.12587 0.71705
 C1597 C 0.84894 0.07580 0.25642
 C1598 C 0.87631 0.07674 0.25200
 C1599 C 0.89042 0.05272 0.24797
 C1600 C 0.87767 0.02732 0.24837
 C1601 C 0.85012 0.02751 0.25340
 N1602 N 0.83673 0.05129 0.25681
 C1603 C 0.83292 0.10093 0.25955
 N1604 N 0.80816 0.10217 0.24902
 C1605 C 0.79296 0.12501 0.24975
 C1606 C 0.80234 0.14853 0.26184
 C1607 C 0.82736 0.14746 0.27376
 C1608 C 0.84282 0.12378 0.27246
 H1609 H 0.91158 0.05388 0.24467
 H1610 H 0.83913 0.00895 0.25525
 H1611 H 0.77367 0.12496 0.24048
 H1612 H 0.83536 0.16521 0.28313
 H1613 H 0.88665 0.09586 0.25119
 H1614 H 0.86230 0.12339 0.28133
 C1615 C 0.34988 0.56891 0.75884
 C1616 C 0.37751 0.57035 0.75646
 C1617 C 0.39227 0.54668 0.75282
 C1618 C 0.37993 0.52106 0.75162
 C1619 C 0.35199 0.52076 0.75435
 N1620 N 0.33801 0.54425 0.75747
 C1621 C 0.33344 0.59376 0.76208
 N1622 N 0.30964 0.59575 0.74973
 C1623 C 0.29434 0.61854 0.75065
 C1624 C 0.30259 0.64116 0.76486
 C1625 C 0.32654 0.63921 0.77858
 C1626 C 0.34212 0.61566 0.77707
 H1627 H 0.41364 0.54827 0.75127
 H1628 H 0.34112 0.50203 0.75474
 H1629 H 0.27590 0.61916 0.73992
 H1630 H 0.33370 0.65623 0.78962
 H1631 H 0.38764 0.58961 0.75708
 H1632 H 0.36079 0.61464 0.78741
 C1633 C 0.35540 0.41805 0.74335
 C1634 C 0.35110 0.43877 0.72559
 C1635 C 0.36413 0.46358 0.72865
 C1636 C 0.38130 0.46842 0.74954
 C1637 C 0.38523 0.44670 0.76658
 N1638 N 0.37226 0.42284 0.76320
 C1639 C 0.34175 0.39132 0.74194
 N1640 N 0.34016 0.37653 0.76359
 C1641 C 0.32774 0.35224 0.76459
 C1642 C 0.31574 0.34098 0.74280
 C1643 C 0.31777 0.35535 0.71994
 C1644 C 0.33065 0.38056 0.71943
 H1645 H 0.36097 0.47915 0.71449
 H1646 H 0.39910 0.44806 0.78224
 H1647 H 0.32708 0.34183 0.78262
 H1648 H 0.30890 0.34744 0.70267
 H1649 H 0.33767 0.43615 0.70966
 H1650 H 0.33196 0.39125 0.70161
 C1651 C 0.85050 0.92509 0.24070
 C1652 C 0.84498 0.94638 0.22385
 C1653 C 0.85877 0.97080 0.22630
 C1654 C 0.87794 0.97469 0.24572
 C1655 C 0.88313 0.95234 0.26176
 N1656 N 0.86933 0.92888 0.25905
 C1657 C 0.83613 0.89880 0.23976
 N1658 N 0.83472 0.88397 0.26142
 C1659 C 0.82180 0.85993 0.26257
 C1660 C 0.80921 0.84904 0.24092
 C1661 C 0.81096 0.86356 0.21811
 C1662 C 0.82426 0.88847 0.21747
 H1663 H 0.85452 0.98682 0.21286
 H1664 H 0.89858 0.95293 0.27607
 H1665 H 0.82132 0.84939 0.28054
 H1666 H 0.80166 0.85593 0.20094
 H1667 H 0.82998 0.94446 0.20913
 H1668 H 0.82542 0.89925 0.19968
 C1669 C 0.64519 0.92968 0.75813
 C1670 C 0.62608 0.93354 0.73895
 C1671 C 0.61255 0.95813 0.73692
 C1672 C 0.61816 0.97989 0.75353
 C1673 C 0.63605 0.97425 0.77377
 N1674 N 0.64917 0.94995 0.77533
 C1675 C 0.66131 0.90417 0.75902
 N1676 N 0.66886 0.89262 0.78153
 C1677 C 0.68316 0.86893 0.78269
 C1678 C 0.69102 0.85564 0.76027
 C1679 C 0.68355 0.86759 0.73706
 C1680 C 0.66891 0.89154 0.73637
 H1681 H 0.59731 0.95957 0.72241
 H1682 H 0.63987 0.98947 0.78812
 H1683 H 0.68863 0.86068 0.80102
 H1684 H 0.68901 0.85841 0.71917
 H1685 H 0.62131 0.91751 0.72567
 H1686 H 0.66391 0.90029 0.71811
 C1687 C 0.15353 0.42840 0.25640
 C1688 C 0.16599 0.45367 0.25477
 C1689 C 0.15067 0.47734 0.25307
 C1690 C 0.12263 0.47621 0.25214
 C1691 C 0.11115 0.45024 0.25438
 N1692 N 0.12653 0.42755 0.25643
 C1693 C 0.16909 0.40271 0.25800
 N1694 N 0.15968 0.38143 0.27166
 C1695 C 0.17269 0.35713 0.27304
 C1696 C 0.19627 0.35290 0.25950
 C1697 C 0.20624 0.37458 0.24534
 C1698 C 0.19292 0.39945 0.24472
 H1699 H 0.16108 0.49637 0.25321
 H1700 H 0.08977 0.44811 0.25466
 H1701 H 0.16414 0.34085 0.28391
 H1702 H 0.22427 0.37220 0.23449
 H1703 H 0.18743 0.45523 0.25554
 H1704 H 0.20077 0.41563 0.23324
 C1705 C 0.07880 0.24075 0.83983
 C1706 C 0.07435 0.22903 0.86355
 C1707 C 0.04956 0.23166 0.87451
 C1708 C 0.02885 0.24543 0.86177
 C1709 C 0.03468 0.25787 0.83849
 N1710 N 0.05907 0.25509 0.82825
 C1711 C 0.10479 0.23972 0.82774
 N1712 N 0.11077 0.25927 0.81064
 C1713 C 0.13456 0.26012 0.79893
 C1714 C 0.15394 0.24053 0.80447
 C1715 C 0.14800 0.21989 0.82169
 C1716 C 0.12339 0.21930 0.83324
 H1717 H 0.04656 0.22323 0.89320
 H1718 H 0.02033 0.27050 0.82869
 H1719 H 0.13834 0.27626 0.78562
 H1720 H 0.16226 0.20403 0.82605
 H1721 H 0.08995 0.21876 0.87407
 H1722 H 0.11902 0.20284 0.84600
 C1723 C 0.57039 0.73795 0.33158
 C1724 C 0.56027 0.71535 0.34413
 C1725 C 0.53657 0.71783 0.35723
 C1726 C 0.52340 0.74302 0.35836
 C1727 C 0.53289 0.76408 0.34305
 N1728 N 0.55607 0.76124 0.33071
 C1729 C 0.59665 0.73819 0.32025
 N1730 N 0.60164 0.75742 0.30258
 C1731 C 0.62611 0.76108 0.29293
 C1732 C 0.64738 0.74503 0.30147
 C1733 C 0.64271 0.72508 0.31977
 C1734 C 0.61734 0.72161 0.32925
 H1735 H 0.52886 0.70004 0.36641
 H1736 H 0.52253 0.78330 0.34201
 H1737 H 0.62880 0.77656 0.27871
 H1738 H 0.65860 0.71217 0.32678
 H1739 H 0.57050 0.69604 0.34394
 H1740 H 0.61431 0.70680 0.34400
 C1741 C 0.55825 0.26079 0.17965
 C1742 C 0.54696 0.28429 0.16924
 C1743 C 0.52589 0.28200 0.15222
 C1744 C 0.51622 0.25631 0.14533
 C1745 C 0.52585 0.23382 0.15902
 N1746 N 0.54684 0.23646 0.17501
 C1747 C 0.58383 0.26111 0.19300
 N1748 N 0.59053 0.23970 0.20801
 C1749 C 0.61540 0.23644 0.21766
 C1750 C 0.63528 0.25488 0.21138
 C1751 C 0.62862 0.27739 0.19646
 C1752 C 0.60296 0.28060 0.18726
 H1753 H 0.51745 0.30040 0.14446
 H1754 H 0.51759 0.21390 0.15595
 H1755 H 0.61978 0.21898 0.22937
 H1756 H 0.64333 0.29235 0.19152
 H1757 H 0.55458 0.30417 0.17372
 H1758 H 0.59876 0.29736 0.17466
 C1759 C 0.06470 0.76265 0.68124
 C1760 C 0.04907 0.73937 0.68139
 C1761 C 0.02830 0.73714 0.66421
 C1762 C 0.02308 0.75781 0.64648
 C1763 C 0.03772 0.78191 0.64873
 N1764 N 0.05843 0.78334 0.66529
 C1765 C 0.09006 0.76310 0.69484
 N1766 N 0.11103 0.77503 0.68342
 C1767 C 0.13611 0.77248 0.69263
 C1768 C 0.14106 0.75656 0.71418
 C1769 C 0.11950 0.74524 0.72694
 C1770 C 0.09392 0.74862 0.71741
 H1771 H 0.01691 0.71862 0.66394
 H1772 H 0.03325 0.79943 0.63721
 H1773 H 0.15212 0.78216 0.68260
 H1774 H 0.12237 0.73342 0.74404
 H1775 H 0.05379 0.72225 0.69341
 H1776 H 0.07749 0.73941 0.72721
 C1777 C 0.93419 0.75472 0.67820
 C1778 C 0.94760 0.77870 0.67279
 C1779 C 0.96860 0.77798 0.65601
 C1780 C 0.97594 0.75367 0.64386
 C1781 C 0.96262 0.72991 0.65085
 N1782 N 0.94214 0.73117 0.66726
 C1783 C 0.91001 0.75452 0.69331
 N1784 N 0.89232 0.73445 0.68867
 C1785 C 0.86827 0.73389 0.69975
 C1786 C 0.86074 0.75471 0.71631
 C1787 C 0.87914 0.77489 0.72247
 C1788 C 0.90393 0.77484 0.71102
 H1789 H 0.97912 0.79657 0.65223
 H1790 H 0.96858 0.71026 0.64391
 H1791 H 0.85489 0.71752 0.69503
 H1792 H 0.87412 0.79106 0.73550
 H1793 H 0.94161 0.79796 0.68070
 H1794 H 0.91787 0.79067 0.71579
 C1795 C 0.42768 0.23688 0.17541
 C1796 C 0.43911 0.21515 0.16236
 C1797 C 0.46024 0.21991 0.14632
 C1798 C 0.46971 0.24643 0.14276
 C1799 C 0.45922 0.26700 0.15826
 N1800 N 0.43844 0.26191 0.17354
 C1801 C 0.40330 0.23402 0.18989
 N1802 N 0.39777 0.25291 0.20788
 C1803 C 0.37393 0.25412 0.21947
 C1804 C 0.35377 0.23616 0.21230
 C1805 C 0.35933 0.21595 0.19441
 C1806 C 0.38409 0.21480 0.18315
 H1807 H 0.46924 0.20264 0.13711
 H1808 H 0.46716 0.28729 0.15773
 H1809 H 0.37047 0.26987 0.23337
 H1810 H 0.34434 0.20154 0.18852
 H1811 H 0.43195 0.19470 0.16453
 H1812 H 0.38744 0.20002 0.16834
 C1813 C 0.43608 0.75547 0.31761
 C1814 C 0.44984 0.73098 0.32036
 C1815 C 0.47029 0.72926 0.33799
 C1816 C 0.47680 0.75165 0.35332
 C1817 C 0.46445 0.77658 0.34777
 N1818 N 0.44407 0.77761 0.33088
 C1819 C 0.41039 0.75642 0.30471
 N1820 N 0.39130 0.77263 0.31473
 C1821 C 0.36576 0.77170 0.30665
 C1822 C 0.35829 0.75320 0.28776
 C1823 C 0.37793 0.73717 0.27635
 C1824 C 0.40408 0.73881 0.28472
 H1825 H 0.48022 0.70996 0.34070
 H1826 H 0.47028 0.79511 0.35708
 H1827 H 0.35135 0.78502 0.31539
 H1828 H 0.37307 0.72307 0.26127
 H1829 H 0.44377 0.71281 0.31046
 H1830 H 0.41900 0.72606 0.27603
 C1831 C 0.93442 0.26825 0.82806
 C1832 C 0.93787 0.28238 0.85093
 C1833 C 0.96022 0.27734 0.86578
 C1834 C 0.97973 0.25876 0.85778
 C1835 C 0.97511 0.24478 0.83487
 N1836 N 0.95300 0.24985 0.82085
 C1837 C 0.90950 0.26964 0.81349
 N1838 N 0.90332 0.24843 0.79807
 C1839 C 0.87935 0.24632 0.78636
 C1840 C 0.85978 0.26593 0.79072
 C1841 C 0.86613 0.28864 0.80547
 C1842 C 0.89110 0.29078 0.81660
 H1843 H 0.96149 0.28723 0.88407
 H1844 H 0.98870 0.22924 0.82846
 H1845 H 0.87525 0.22872 0.77474
 H1846 H 0.85166 0.30455 0.80867
 H1847 H 0.92290 0.29596 0.85826
 H1848 H 0.89553 0.30854 0.82784
 C1849 C 0.56286 1.01671 0.67839
 C1850 C 0.59016 1.01138 0.67998
 C1851 C 0.60238 1.00850 0.70358
 C1852 C 0.58759 1.01010 0.72612
 C1853 C 0.56031 1.01696 0.72358
 N1854 N 0.54877 1.01975 0.70013
 C1855 C 0.54955 1.01626 0.65321
 N1856 N 0.53519 1.03783 0.64421
 C1857 C 0.52568 1.03870 0.61975
 C1858 C 0.53120 1.01732 0.60292
 C1859 C 0.54471 0.99455 0.61256
 C1860 C 0.55387 0.99398 0.63743
 H1861 H 0.62355 1.00448 0.70434
 H1862 H 0.54811 1.02031 0.74003
 H1863 H 0.51506 1.05648 0.61316
 H1864 H 0.54884 0.97723 0.60059
 H1865 H 0.60191 1.00913 0.66298
 H1866 H 0.56495 0.97650 0.64414
 C1867 C 0.05164 0.50675 1.18588
 C1868 C 0.04884 0.52534 1.20581
 C1869 C 0.06521 0.52297 1.22736
 C1870 C 0.08430 0.50197 1.22954
 C1871 C 0.08625 0.48392 1.20888
 N1872 N 0.07013 0.48670 1.18823
 C1873 C 0.03607 0.50816 1.16179
 N1874 N 0.03572 0.48563 1.14698
 C1875 C 0.02498 0.48536 1.12332
 C1876 C 0.01421 0.50903 1.11268
 C1877 C 0.01309 0.53239 1.12776
 C1878 C 0.02404 0.53206 1.15245
 H1879 H 0.06326 0.53783 1.24236
 H1880 H 0.10111 0.46812 1.20838
 H1881 H 0.02607 0.46689 1.11229
 H1882 H 0.00527 0.55112 1.12000
 H1883 H 0.03434 0.54154 1.20490
 H1884 H 0.02433 0.55062 1.16333
 C1885 C -0.06639 -0.00784 1.17307
 C1886 C -0.05871 -0.02453 1.19334
 C1887 C -0.07058 -0.02091 1.21704
 C1888 C -0.08951 -0.00014 1.22111
 C1889 C -0.09631 0.01613 1.20004
 N1890 N -0.08494 0.01177 1.17714
 C1891 C -0.05712 -0.01207 1.14673
 N1892 N -0.07352 -0.00377 1.12766
 C1893 C -0.06697 -0.00578 1.10289
 C1894 C -0.04209 -0.01625 1.09566
 C1895 C -0.02474 -0.02529 1.11497
 C1896 C -0.03226 -0.02339 1.14057
 H1897 H -0.06546 -0.03479 1.23221
 H1898 H -0.11161 0.03147 1.20113
 H1899 H -0.08117 0.00153 1.08893
 H1900 H -0.00532 -0.03333 1.11035
 H1901 H -0.04471 -0.04097 1.19070
 H1902 H -0.01849 -0.02989 1.15526
 C1903 C 0.44569 0.48921 0.68231
 C1904 C 0.44920 0.47034 0.70189
 C1905 C 0.43384 0.47260 0.72379
 C1906 C 0.41523 0.49389 0.72676
 C1907 C 0.41207 0.51186 0.70622
 N1908 N 0.42722 0.50917 0.68519
 C1909 C 0.46075 0.48846 0.65822
 N1910 N 0.45957 0.51090 0.64340
 C1911 C 0.47026 0.51184 0.61997
 C1912 C 0.48274 0.48898 0.60961
 C1913 C 0.48542 0.46579 0.62470
 C1914 C 0.47437 0.46541 0.64912
 H1915 H 0.43658 0.45776 0.73869
 H1916 H 0.39730 0.52776 0.70632
 H1917 H 0.46801 0.53020 0.60896
 H1918 H 0.49466 0.44768 0.61716
 H1919 H 0.46365 0.45415 0.70060
 H1920 H 0.47547 0.44692 0.66000
 C1921 C 0.44214 0.50994 -0.17906
 C1922 C 0.45595 0.50955 -0.20200
 C1923 C 0.44233 0.50365 -0.22460
 C1924 C 0.41490 0.49734 -0.22460
 C1925 C 0.40214 0.49788 -0.20090
 N1926 N 0.41575 0.50413 -0.17932
 C1927 C 0.45479 0.51738 -0.15448
 N1928 N 0.43875 0.52655 -0.13570
 C1929 C 0.44774 0.53116 -0.11177
 C1930 C 0.47428 0.52557 -0.10512
 C1931 C 0.49171 0.51754 -0.12437
 C1932 C 0.48204 0.51345 -0.14917
 H1933 H 0.45331 0.50543 -0.24200
 H1934 H 0.38101 0.49418 -0.19974
 H1935 H 0.43366 0.53746 -0.09748
 H1936 H 0.51218 0.51250 -0.11987
 H1937 H 0.47673 0.51491 -0.20276
 H1938 H 0.49539 0.50572 -0.16344
 C1939 C -0.05688 1.01185 0.31483
 C1940 C -0.04437 1.01298 0.29120
 C1941 C -0.05930 1.00876 0.26897
 C1942 C -0.08669 1.00263 0.27004
 C1943 C -0.09822 1.00214 0.29430
 N1944 N -0.08337 1.00661 0.31549
 C1945 C -0.04287 1.01680 0.33933
 N1946 N -0.05800 1.02295 0.35979
 C1947 C -0.04775 1.02521 0.38356
 C1948 C -0.02062 1.02038 0.38819
 C1949 C -0.00418 1.01531 0.36734
 C1950 C -0.01524 1.01348 0.34281
 H1951 H -0.04935 1.01141 0.25110
 H1952 H -0.11931 0.99865 0.29630
 H1953 H -0.06112 1.02940 0.39907
 H1954 H 0.01677 1.01108 0.37019
 H1955 H -0.02357 1.01804 0.28969
 H1956 H -0.00249 1.00810 0.32717
 C1957 C 0.06771 0.48930 0.32603
 C1958 C 0.09465 0.49615 0.32425
 C1959 C 0.10569 0.50117 0.30060
 C1960 C 0.09014 0.50015 0.27825
 C1961 C 0.06296 0.49359 0.28106
 N1962 N 0.05267 0.48858 0.30444
 C1963 C 0.05563 0.48293 0.35099
 N1964 N 0.02961 0.48913 0.35547
 C1965 C 0.01846 0.48609 0.37884
 C1966 C 0.03398 0.47696 0.39941
 C1967 C 0.06025 0.46894 0.39475
 C1968 C 0.07102 0.47161 0.37066
 H1969 H 0.12674 0.50545 0.29963
 H1970 H 0.04998 0.49126 0.26480
 H1971 H -0.00185 0.49262 0.38174
 H1972 H 0.07285 0.46171 0.41011
 H1973 H 0.10724 0.49765 0.34093
 H1974 H 0.09144 0.46549 0.36775
 C1975 C 0.54954 0.00307 -0.18295
 C1976 C 0.56908 0.02316 -0.18362
 C1977 C 0.58618 0.02476 -0.20422
 C1978 C 0.58356 0.00696 -0.22505
 C1979 C 0.56403 -0.01343 -0.22310
 N1980 N 0.54788 -0.01489 -0.20249
 C1981 C 0.53173 0.00084 -0.16069
 N1982 N 0.52679 -0.02376 -0.15001
 C1983 C 0.51383 -0.02624 -0.12745
 C1984 C 0.50562 -0.00304 -0.11417
 C1985 C 0.50910 0.02222 -0.12567
 C1986 C 0.52195 0.02425 -0.14888
 H1987 H 0.60171 0.03972 -0.20328
 H1988 H 0.56172 -0.02825 -0.23807
 H1989 H 0.51186 -0.04604 -0.11896
 H1990 H 0.50341 0.04060 -0.11582
 H1991 H 0.57169 0.03709 -0.16791
 H1992 H 0.52527 0.04406 -0.15694
 C1993 C 0.67670 0.59515 -0.00752
 C1994 C 0.68579 0.61009 -0.02829
 C1995 C 0.70868 0.62573 -0.02593
 C1996 C 0.72267 0.62786 -0.00260
 C1997 C 0.71398 0.61080 0.01709
 N1998 N 0.69142 0.59574 0.01437
 C1999 C 0.65126 0.57940 -0.00840
 N2000 N 0.64173 0.56885 0.01356
 C2001 C 0.61820 0.55537 0.01474
 C2002 C 0.60219 0.55198 -0.00710
 C2003 C 0.61179 0.56219 -0.03006
 C2004 C 0.63618 0.57566 -0.03085
 H2005 H 0.71520 0.63601 -0.04280
 H2006 H 0.72475 0.61013 0.03494
 H2007 H 0.61179 0.54784 0.03293
 H2008 H 0.60034 0.55999 -0.04743
 H2009 H 0.67550 0.61028 -0.04633
 H2010 H 0.64270 0.58299 -0.04901
 C2011 C 0.18523 1.09483 0.48381
 C2012 C 0.18738 1.12016 0.47220
 C2013 C 0.20947 1.13636 0.47715
 C2014 C 0.23029 1.12787 0.49368
 C2015 C 0.22675 1.10233 0.50530
 N2016 N 0.20489 1.08694 0.50021
 C2017 C 0.16139 1.07724 0.48012
 N2018 N 0.15660 1.05762 0.49753
 C2019 C 0.13445 1.04196 0.49675
 C2020 C 0.11491 1.04573 0.47772
 C2021 C 0.11992 1.06497 0.45884
 C2022 C 0.14309 1.08063 0.45988
 H2023 H 0.20957 1.15565 0.46775
 H2024 H 0.24137 1.09470 0.51870
 H2025 H 0.13174 1.02718 0.51160
 H2026 H 0.10554 1.06859 0.44380
 H2027 H 0.17193 1.12800 0.45984
 H2028 H 0.14627 1.09532 0.44509
 C2029 C 0.16364 -0.09454 1.00317
 C2030 C 0.16387 -0.12288 1.00246
 C2031 C 0.18795 -0.13681 0.99982
 C2032 C 0.21235 -0.12294 0.99795
 C2033 C 0.21099 -0.09434 0.99890
 N2034 N 0.18716 -0.08123 1.00111
 C2035 C 0.13830 -0.07893 1.00553
 N2036 N 0.13504 -0.05548 0.99231
 C2037 C 0.11183 -0.04111 0.99241
 C2038 C 0.08999 -0.04997 1.00660
 C2039 C 0.09326 -0.07348 1.02124
 C2040 C 0.11724 -0.08809 1.02061
 H2041 H 0.18766 -0.15872 0.99966
 H2042 H 0.22872 -0.08219 0.99870
 H2043 H 0.11023 -0.02304 0.98090
 H2044 H 0.07691 -0.08120 1.03225
 H2045 H 0.14560 -0.13423 1.00366
 H2046 H 0.11921 -0.10644 1.03166
 C2047 C 0.68343 0.40996 0.50921
 C2048 C 0.70859 0.42198 0.50819
 C2049 C 0.73128 0.40585 0.50504
 C2050 C 0.72925 0.37751 0.50203
 C2051 C 0.70343 0.36646 0.50366
 N2052 N 0.68172 0.38258 0.50716
 C2053 C 0.65875 0.42638 0.51227
 N2054 N 0.63777 0.41609 0.52526
 C2055 C 0.61418 0.42965 0.52749
 C2056 C 0.61035 0.45472 0.51546
 C2057 C 0.63179 0.46574 0.50219
 C2058 C 0.65600 0.45186 0.50079
 H2059 H 0.75028 0.41585 0.50571
 H2060 H 0.70065 0.34481 0.50234
 H2061 H 0.59801 0.42023 0.53752
 H2062 H 0.62958 0.48487 0.49237
 H2063 H 0.71084 0.44361 0.51054
 H2064 H 0.67195 0.46046 0.48986
 C2065 C -0.17043 0.40065 0.49193
 C2066 C -0.19095 0.40430 0.47405
 C2067 C -0.21513 0.39087 0.47724
 C2068 C -0.21948 0.37386 0.49834
 C2069 C -0.19775 0.37013 0.51518
 N2070 N -0.17457 0.38367 0.51179
 C2071 C -0.14473 0.41541 0.49068
 N2072 N -0.13133 0.42005 0.51276
 C2073 C -0.10781 0.43337 0.51375
 C2074 C -0.09582 0.44286 0.49147
 C2075 C -0.10892 0.43789 0.46827
 C2076 C -0.13347 0.42437 0.46780
 H2077 H -0.23075 0.39391 0.46324
 H2078 H -0.19869 0.35622 0.53088
 H2079 H -0.09838 0.43627 0.53208
 H2080 H -0.10036 0.44464 0.45063
 H2081 H -0.18866 0.41778 0.45809
 H2082 H -0.14320 0.42061 0.44976
 C2083 C 0.31211 -0.09258 -0.01099
 C2084 C 0.29153 -0.09078 -0.02910
 C2085 C 0.26794 -0.10527 -0.02549
 C2086 C 0.26418 -0.12142 -0.00370
 C2087 C 0.28589 -0.12300 0.01351
 N2088 N 0.30847 -0.10863 0.00961
 C2089 C 0.33766 -0.07748 -0.01300
 N2090 N 0.35177 -0.07278 0.00868
 C2091 C 0.37546 -0.05971 0.00900
 C2092 C 0.38697 -0.05055 -0.01365
 C2093 C 0.37301 -0.05541 -0.03644
 C2094 C 0.34832 -0.06870 -0.03620
 H2095 H 0.25247 -0.10402 -0.03987
 H2096 H 0.28562 -0.13623 0.02974
 H2097 H 0.38542 -0.05678 0.02708
 H2098 H 0.38109 -0.04888 -0.05436
 H2099 H 0.29339 -0.07820 -0.04575
 H2100 H 0.33811 -0.07249 -0.05399
 C2101 C 0.32873 1.09564 0.50272
 C2102 C 0.30686 1.08724 0.48799
 C2103 C 0.28378 1.10311 0.48697
 C2104 C 0.28141 1.12740 0.50106
 C2105 C 0.30406 1.13465 0.51580
 N2106 N 0.32642 1.11897 0.51621
 C2107 C 0.35454 1.08041 0.50335
 N2108 N 0.37250 1.08493 0.52250
 C2109 C 0.39684 1.07247 0.52356
 C2110 C 0.40459 1.05447 0.50428
 C2111 C 0.38625 1.04953 0.48451
 C2112 C 0.36153 1.06235 0.48391
 H2113 H 0.26792 1.09649 0.47448
 H2114 H 0.30466 1.15282 0.52693
 H2115 H 0.41028 1.07710 0.53910
 H2116 H 0.39109 1.03592 0.46908
 H2117 H 0.30727 1.06864 0.47721
 H2118 H 0.34858 1.05861 0.46784
 C2119 C -0.18454 0.58924 1.00660
 C2120 C -0.19990 0.59070 0.98416
 C2121 C -0.22173 0.60842 0.98266
 C2122 C -0.22812 0.62587 1.00294
 C2123 C -0.21306 0.62228 1.02560
 N2124 N -0.19194 0.60491 1.02658
 C2125 C -0.16017 0.57175 1.00908
 N2126 N -0.14191 0.57707 1.02778
 C2127 C -0.11862 0.56291 1.03040
 C2128 C -0.11224 0.54206 1.01329
 C2129 C -0.13126 0.53561 0.99451
 C2130 C -0.15509 0.55013 0.99244
 H2131 H -0.23329 0.60909 0.96524
 H2132 H -0.21794 0.63295 1.04282
 H2133 H -0.10465 0.56868 1.04516
 H2134 H -0.12753 0.51950 0.98102
 H2135 H -0.19501 0.57888 0.96757
 H2136 H -0.16915 0.54434 0.97782
 C2137 C 0.01163 0.68079 0.58274
 C2138 C 0.03353 0.69206 0.59528
 C2139 C 0.03010 0.71524 0.60969
 C2140 C 0.00474 0.72719 0.61213
 C2141 C -0.01606 0.71653 0.59721
 N2142 N -0.01229 0.69363 0.58350
 C2143 C 0.01366 0.65496 0.56927
 N2144 N -0.00419 0.64942 0.55047
 C2145 C -0.00480 0.62509 0.53860
 C2146 C 0.01288 0.60451 0.54609
 C2147 C 0.03168 0.60997 0.56516
 C2148 C 0.03211 0.63511 0.57683
 H2149 H 0.04759 0.72389 0.61851
 H2150 H -0.03543 0.72614 0.59688
 H2151 H -0.01964 0.62164 0.52397
 H2152 H 0.04571 0.59464 0.57148
 H2153 H 0.05322 0.68333 0.59383
 H2154 H 0.04601 0.63842 0.59228
 C2155 C 0.50608 0.18704 0.07322
 C2156 C 0.52818 0.19743 0.08619
 C2157 C 0.52472 0.21901 0.10278
 C2158 C 0.49914 0.22979 0.10694
 C2159 C 0.47838 0.22085 0.09102
 N2160 N 0.48214 0.19958 0.07530
 C2161 C 0.50708 0.16152 0.05922
 N2162 N 0.48755 0.15651 0.04188
 C2163 C 0.48437 0.13187 0.03109
 C2164 C 0.50093 0.11032 0.03839
 C2165 C 0.52167 0.11521 0.05570
 C2166 C 0.52484 0.14080 0.06616
 H2167 H 0.54211 0.22696 0.11232
 H2168 H 0.45879 0.22991 0.09208
 H2169 H 0.46831 0.12903 0.01755
 H2170 H 0.53508 0.09916 0.06163
 H2171 H 0.54783 0.18885 0.08386
 H2172 H 0.54005 0.14374 0.08052
 C2173 C -0.02821 0.17631 0.90731
 C2174 C -0.01225 0.17499 0.88583
 C2175 C -0.00221 0.19861 0.87581
 C2176 C -0.00779 0.22380 0.88720
 C2177 C -0.02655 0.22422 0.90690
 N2178 N -0.03532 0.20074 0.91706
 C2179 C -0.03442 0.15136 0.92069
 N2180 N -0.03775 0.12821 0.90710
 C2181 C -0.03775 0.10360 0.91828
 C2182 C -0.03275 0.10142 0.94439
 C2183 C -0.03071 0.12509 0.95895
 C2184 C -0.03188 0.15022 0.94714
 H2185 H 0.01008 0.19698 0.85915
 H2186 H -0.03358 0.24317 0.91472
 H2187 H -0.03980 0.08579 0.90645
 H2188 H -0.02724 0.12415 0.97925
 H2189 H -0.00656 0.15577 0.87753
 H2190 H -0.02876 0.16839 0.95827
 C2191 C 0.48171 0.68459 0.42710
 C2192 C 0.46093 0.69416 0.41173
 C2193 C 0.46592 0.71464 0.39449
 C2194 C 0.49175 0.72523 0.39213
 C2195 C 0.51107 0.71687 0.40995
 N2196 N 0.50583 0.69667 0.42631
 C2197 C 0.47946 0.65999 0.44211
 N2198 N 0.49735 0.65599 0.46122
 C2199 C 0.50058 0.63164 0.47250
 C2200 C 0.48610 0.60936 0.46366
 C2201 C 0.46655 0.61333 0.44491
 C2202 C 0.46311 0.63867 0.43410
 H2203 H 0.44936 0.72211 0.38327
 H2204 H 0.53065 0.72582 0.41025
 H2205 H 0.51552 0.62950 0.48727
 H2206 H 0.45465 0.59668 0.43788
 H2207 H 0.44114 0.68582 0.41280
 H2208 H 0.44924 0.64086 0.41843
 C2209 C 0.50667 0.81513 0.42576
 C2210 C 0.48157 0.80392 0.42140
 C2211 C 0.47907 0.78256 0.40448
 C2212 C 0.50133 0.77275 0.39130
 C2213 C 0.52638 0.78361 0.39774
 N2214 N 0.52824 0.80461 0.41406
 C2215 C 0.50993 0.83991 0.44033
 N2216 N 0.52845 0.85791 0.43256
 C2217 C 0.53056 0.88282 0.44301
 C2218 C 0.51299 0.89075 0.46209
 C2219 C 0.49485 0.87184 0.47144
 C2220 C 0.49328 0.84633 0.46059
 H2221 H 0.45960 0.77389 0.40129
 H2222 H 0.54464 0.77551 0.39020
 H2223 H 0.54524 0.89663 0.43571
 H2224 H 0.48117 0.87704 0.48644
 H2225 H 0.46391 0.81212 0.43017
 H2226 H 0.47881 0.83210 0.46755
 C2227 C 0.02265 0.31438 0.92757
 C2228 C 0.02076 0.31941 0.90155
 C2229 C 0.01439 0.29851 0.88525
 C2230 C 0.00961 0.27236 0.89460
 C2231 C 0.01416 0.26778 0.92072
 N2232 N 0.01952 0.28885 0.93651
 C2233 C 0.02430 0.33724 0.94500
 N2234 N 0.00555 0.33990 0.96326
 C2235 C 0.00145 0.36374 0.97547
 C2236 C 0.01584 0.38669 0.96838
 C2237 C 0.03660 0.38366 0.95103
 C2238 C 0.04102 0.35889 0.93946
 H2239 H 0.01239 0.30292 0.86521
 H2240 H 0.01331 0.24774 0.92875
 H2241 H -0.01427 0.36514 0.98929
 H2242 H 0.04860 0.40070 0.94542
 H2243 H 0.02282 0.33965 0.89398
 H2244 H 0.05607 0.35714 0.92498
 C2245 C 0.48374 0.32065 0.07568
 C2246 C 0.50873 0.30862 0.07893
 C2247 C 0.51154 0.28699 0.09535
 C2248 C 0.48964 0.27736 0.10898
 C2249 C 0.46458 0.28922 0.10396
 N2250 N 0.46244 0.31072 0.08813
 C2251 C 0.48091 0.34539 0.06088
 N2252 N 0.46594 0.36600 0.07030
 C2253 C 0.46589 0.39093 0.05963
 C2254 C 0.48209 0.39611 0.03870
 C2255 C 0.49624 0.37457 0.02779
 C2256 C 0.49566 0.34917 0.03883
 H2257 H 0.53101 0.27788 0.09776
 H2258 H 0.44662 0.28150 0.11224
 H2259 H 0.45415 0.40685 0.06821
 H2260 H 0.50862 0.37751 0.01134
 H2261 H 0.52613 0.31641 0.06956
 H2262 H 0.50734 0.33289 0.03075
 C2263 C -0.00311 0.81434 0.56847
 C2264 C 0.02090 0.80082 0.57339
 C2265 C 0.02181 0.78107 0.59204
 C2266 C -0.00090 0.77522 0.60638
 C2267 C -0.02507 0.78751 0.59890
 N2268 N -0.02536 0.80705 0.58098
 C2269 C -0.00403 0.83878 0.55302
 N2270 N -0.02061 0.85909 0.56031
 C2271 C -0.02008 0.88384 0.54941
 C2272 C -0.00168 0.88920 0.53034
 C2273 C 0.01450 0.86805 0.52150
 C2274 C 0.01337 0.84275 0.53282
 H2275 H 0.04054 0.77099 0.59597
 H2276 H -0.04376 0.78206 0.60733
 H2277 H -0.03338 0.89944 0.55628
 H2278 H 0.02872 0.87128 0.50653
 H2279 H 0.03909 0.80635 0.56400
 H2280 H 0.02640 0.82675 0.52627
 C2281 C 0.25653 0.31302 0.07570
 C2282 C 0.25612 0.34137 0.07575
 C2283 C 0.25176 0.35530 0.05319
 C2284 C 0.24857 0.34137 0.03001
 C2285 C 0.24585 0.31295 0.03143
 N2286 N 0.25030 0.29969 0.05380
 C2287 C 0.26299 0.29782 0.09930
 N2288 N 0.25091 0.27377 0.10420
 C2289 C 0.25390 0.26083 0.12693
 C2290 C 0.26920 0.27255 0.14642
 C2291 C 0.28308 0.29630 0.14117
 C2292 C 0.28035 0.30877 0.11762
 H2293 H 0.25236 0.37719 0.05356
 H2294 H 0.24049 0.30111 0.01496
 H2295 H 0.24260 0.24268 0.13048
 H2296 H 0.29483 0.30606 0.15586
 H2297 H 0.25928 0.35283 0.09302
 H2298 H 0.29095 0.32738 0.11421
 C2299 C 0.77144 0.81583 0.57296
 C2300 C 0.77308 0.80093 0.55027
 C2301 C 0.76917 0.81402 0.52689
 C2302 C 0.76310 0.84196 0.52583
 C2303 C 0.76245 0.85598 0.54915
 N2304 N 0.76636 0.84284 0.57147
 C2305 C 0.77487 0.80385 0.59876
 N2306 N 0.77601 0.82125 0.61877
 C2307 C 0.77683 0.81286 0.64325
 C2308 C 0.77601 0.78519 0.64914
 C2309 C 0.77602 0.76659 0.62897
 C2310 C 0.77537 0.77581 0.60373
 H2311 H 0.77162 0.80218 0.50982
 H2312 H 0.75876 0.87757 0.54955
 H2313 H 0.77709 0.82796 0.65815
 H2314 H 0.77508 0.74508 0.63269
 H2315 H 0.77780 0.77958 0.55029
 H2316 H 0.77420 0.76107 0.58860
 C2317 C 0.24091 0.68666 0.57325
 C2318 C 0.23960 0.70123 0.55042
 C2319 C 0.24440 0.68791 0.52736
 C2320 C 0.25121 0.66011 0.52677
 C2321 C 0.25208 0.64654 0.55028
 N2322 N 0.24705 0.65984 0.57228
 C2323 C 0.23510 0.69873 0.59854
 N2324 N 0.23018 0.68145 0.61796
 C2325 C 0.22689 0.68990 0.64222
 C2326 C 0.22916 0.71741 0.64857
 C2327 C 0.23300 0.73596 0.62881
 C2328 C 0.23601 0.72672 0.60373
 H2329 H 0.24154 0.69934 0.51010
 H2330 H 0.25610 0.62502 0.55102
 H2331 H 0.22375 0.67487 0.65679
 H2332 H 0.23528 0.75730 0.63294
 H2333 H 0.23393 0.72235 0.55011
 H2334 H 0.24028 0.74122 0.58902
 C2335 C 0.73182 0.18452 0.07062
 C2336 C 0.74981 0.16296 0.06809
 C2337 C 0.75377 0.15106 0.04444
 C2338 C 0.74022 0.16069 0.02270
 C2339 C 0.72234 0.18257 0.02625
 N2340 N 0.71881 0.19388 0.04963
 C2341 C 0.72594 0.19568 0.09613
 N2342 N 0.72550 0.22293 0.10047
 C2343 C 0.72318 0.23354 0.12436
 C2344 C 0.72175 0.21628 0.14549
 C2345 C 0.72041 0.18830 0.14100
 C2346 C 0.72249 0.17800 0.11654
 H2347 H 0.76669 0.13355 0.04364
 H2348 H 0.71065 0.19015 0.01044
 H2349 H 0.72420 0.25523 0.12698
 H2350 H 0.71895 0.17420 0.15663
 H2351 H 0.76039 0.15498 0.08445
 H2352 H 0.72222 0.15630 0.11368
 C2353 C 0.75878 0.19193 0.92944
 C2354 C 0.76072 0.20476 0.95315
 C2355 C 0.75402 0.19051 0.97518
 C2356 C 0.74453 0.16366 0.97372
 C2357 C 0.74285 0.15195 0.94934
 N2358 N 0.74995 0.16601 0.92842
 C2359 C 0.76678 0.20481 0.90527
 N2360 N 0.77347 0.18822 0.88572
 C2361 C 0.77805 0.19750 0.86199
 C2362 C 0.77498 0.22509 0.85632
 C2363 C 0.76956 0.24297 0.87639
 C2364 C 0.76550 0.23290 0.90098
 H2365 H 0.75749 0.20028 0.99325
 H2366 H 0.73667 0.13114 0.94704
 H2367 H 0.78241 0.18299 0.84716
 H2368 H 0.76660 0.26434 0.87275
 H2369 H 0.76842 0.22509 0.95485
 H2370 H 0.75981 0.24675 0.91592
 C2371 C 0.26182 0.68692 0.43076
 C2372 C 0.27750 0.69397 0.45185
 C2373 C 0.27380 0.68053 0.47496
 C2374 C 0.25384 0.66073 0.47764
 C2375 C 0.23853 0.65469 0.45580
 N2376 N 0.24302 0.66751 0.43350
 C2377 C 0.26619 0.69793 0.40494
 N2378 N 0.25972 0.68186 0.38494
 C2379 C 0.26134 0.69020 0.36054
 C2380 C 0.26917 0.71677 0.35472
 C2381 C 0.27673 0.73369 0.37501
 C2382 C 0.27541 0.72428 0.40018
 H2383 H 0.28700 0.68510 0.49071
 H2384 H 0.22388 0.63882 0.45583
 H2385 H 0.25553 0.67614 0.34576
 H2386 H 0.28272 0.75434 0.37150
 H2387 H 0.29325 0.70867 0.45026
 H2388 H 0.28046 0.73779 0.41565
 C2389 C 0.75560 0.80905 0.43198
 C2390 C 0.77510 0.82910 0.43413
 C2391 C 0.77694 0.84476 0.45606
 C2392 C 0.75988 0.84031 0.47670
 C2393 C 0.74001 0.82042 0.47328
 N2394 N 0.73838 0.80560 0.45144
 C2395 C 0.75306 0.79282 0.40830
 N2396 N 0.72861 0.78655 0.39854
 C2397 C 0.72546 0.77486 0.37516
 C2398 C 0.74774 0.76958 0.36007
 C2399 C 0.77301 0.77446 0.37043
 C2400 C 0.77577 0.78577 0.39449
 H2401 H 0.79140 0.86081 0.45618
 H2402 H 0.72567 0.81685 0.48805
 H2403 H 0.70565 0.77148 0.36770
 H2404 H 0.79066 0.77065 0.35933
 H2405 H 0.78833 0.83337 0.41858
 H2406 H 0.79551 0.78986 0.40182
 C2407 C 0.24835 0.31108 0.93458
 C2408 C 0.26555 0.30347 0.95451
 C2409 C 0.26632 0.31902 0.97685
 C2410 C 0.24891 0.34123 0.98017
 C2411 C 0.23398 0.34928 0.95858
 N2412 N 0.23383 0.33414 0.93712
 C2413 C 0.24652 0.29645 0.90995
 N2414 N 0.23706 0.31044 0.88954
 C2415 C 0.23524 0.29947 0.86600
 C2416 C 0.24320 0.27265 0.86168
 C2417 C 0.25200 0.25723 0.88248
 C2418 C 0.25379 0.26910 0.90672
 H2419 H 0.28023 0.31339 0.99174
 H2420 H 0.22231 0.36770 0.95853
 H2421 H 0.22837 0.31203 0.85043
 H2422 H 0.25864 0.23655 0.87978
 H2423 H 0.27871 0.28621 0.95274
 H2424 H 0.26090 0.25707 0.92252
 C2425 C 0.84539 0.43341 0.75965
 C2426 C 0.83440 0.45955 0.75935
 C2427 C 0.85088 0.48201 0.75643
 C2428 C 0.87854 0.47883 0.75294
 C2429 C 0.88856 0.45202 0.75374
 N2430 N 0.87212 0.43053 0.75705
 C2431 C 0.82860 0.40895 0.76281
 N2432 N 0.83867 0.38676 0.77500
 C2433 C 0.82471 0.36331 0.77733
 C2434 C 0.79934 0.36088 0.76626
 C2435 C 0.78851 0.38358 0.75387
 C2436 C 0.80288 0.40764 0.75233
 H2437 H 0.84172 0.50174 0.75784
 H2438 H 0.90968 0.44830 0.75211
 H2439 H 0.83400 0.34615 0.78662
 H2440 H 0.76916 0.38249 0.74476
 H2441 H 0.81335 0.46273 0.76221
 H2442 H 0.79438 0.42457 0.74204
 C2443 C 0.35151 0.92505 0.26137
 C2444 C 0.37903 0.92342 0.25797
 C2445 C 0.39340 0.94688 0.25298
 C2446 C 0.38076 0.97245 0.25125
 C2447 C 0.35300 0.97298 0.25526
 N2448 N 0.33941 0.94970 0.25974
 C2449 C 0.33517 0.90045 0.26541
 N2450 N 0.31023 0.89955 0.25524
 C2451 C 0.29482 0.87706 0.25645
 C2452 C 0.30424 0.85348 0.26852
 C2453 C 0.32936 0.85431 0.28026
 C2454 C 0.34494 0.87768 0.27863
 H2455 H 0.41469 0.94517 0.25055
 H2456 H 0.34194 0.99171 0.25547
 H2457 H 0.27549 0.87731 0.24726
 H2458 H 0.33745 0.83651 0.28955
 H2459 H 0.38937 0.90417 0.25865
 H2460 H 0.36450 0.87779 0.28733
 C2461 C 0.15031 0.92204 0.74383
 C2462 C 0.12984 0.92427 0.76153
 C2463 C 0.11508 0.94815 0.76321
 C2464 C 0.12119 0.97076 0.74804
 C2465 C 0.14093 0.96679 0.72939
 N2466 N 0.15493 0.94311 0.72794
 C2467 C 0.16746 0.89751 0.74338
 N2468 N 0.17335 0.88463 0.72118
 C2469 C 0.18801 0.86121 0.72057
 C2470 C 0.19785 0.84970 0.74323
 C2471 C 0.19246 0.86337 0.76608
 C2472 C 0.17729 0.88695 0.76622
 H2473 H 0.09866 0.94839 0.77623
 H2474 H 0.14546 0.98285 0.71622
 H2475 H 0.19173 0.85151 0.70253
 H2476 H 0.19942 0.85555 0.78414
 H2477 H 0.12511 0.90750 0.77385
 H2478 H 0.17322 0.89687 0.78412
 C2479 C 0.64323 0.42555 0.23791
 C2480 C 0.64586 0.44666 0.22041
 C2481 C 0.63229 0.47110 0.22441
 C2482 C 0.61618 0.47507 0.24597
 C2483 C 0.61332 0.45267 0.26229
 N2484 N 0.62698 0.42929 0.25812
 C2485 C 0.65851 0.39978 0.23614
 N2486 N 0.66379 0.38625 0.25804
 C2487 C 0.67777 0.36272 0.25871
 C2488 C 0.68736 0.35088 0.23626
 C2489 C 0.68169 0.36403 0.21322
 C2490 C 0.66745 0.38863 0.21309
 H2491 H 0.63460 0.48725 0.21077
 H2492 H 0.60009 0.45324 0.27825
 H2493 H 0.68116 0.35318 0.27692
 H2494 H 0.68850 0.35551 0.19548
 H2495 H 0.65874 0.44469 0.20419
 H2496 H 0.66320 0.39848 0.19518
 C2497 C 0.65177 0.57312 0.25905
 C2498 C 0.66350 0.54741 0.25699
 C2499 C 0.64755 0.52458 0.25372
 C2500 C 0.61962 0.52700 0.25166
 C2501 C 0.60884 0.55331 0.25475
 N2502 N 0.62482 0.57520 0.25820
 C2503 C 0.66814 0.59798 0.26158
 N2504 N 0.65911 0.61949 0.27538
 C2505 C 0.67276 0.64324 0.27717
 C2506 C 0.69653 0.64663 0.26384
 C2507 C 0.70620 0.62467 0.24969
 C2508 C 0.69229 0.60034 0.24871
 H2509 H 0.65743 0.50515 0.25342
 H2510 H 0.58753 0.55636 0.25431
 H2511 H 0.66444 0.65986 0.28795
 H2512 H 0.72431 0.62655 0.23890
 H2513 H 0.68484 0.54485 0.25845
 H2514 H 0.69982 0.58399 0.23708
 C2515 C 0.15349 0.06964 0.76322
 C2516 C 0.12635 0.07223 0.75750
 C2517 C 0.11137 0.04915 0.75207
 C2518 C 0.12304 0.02309 0.75230
 C2519 C 0.15037 0.02162 0.75875
 N2520 N 0.16461 0.04448 0.76350
 C2521 C 0.17047 0.09371 0.76786
 N2522 N 0.19551 0.09400 0.75835
 C2523 C 0.21150 0.11606 0.76023
 C2524 C 0.20263 0.13971 0.77242
 C2525 C 0.17738 0.13948 0.78346
 C2526 C 0.16115 0.11661 0.78105
 H2527 H 0.09039 0.05156 0.74787
 H2528 H 0.16052 0.00245 0.76073
 H2529 H 0.23085 0.11545 0.75145
 H2530 H 0.16967 0.15743 0.79271
 H2531 H 0.11685 0.09192 0.75677
 H2532 H 0.14145 0.11695 0.78911
 C2533 C 0.34911 0.07187 0.24379
 C2534 C 0.36841 0.06951 0.26300
 C2535 C 0.38456 0.04649 0.26434
 C2536 C 0.38112 0.02481 0.24713
 C2537 C 0.36243 0.02895 0.22721
 N2538 N 0.34707 0.05180 0.22616
 C2539 C 0.33073 0.09558 0.24315
 N2540 N 0.32497 0.10865 0.22095
 C2541 C 0.30930 0.13136 0.22006
 C2542 C 0.29821 0.14207 0.24240
 C2543 C 0.30334 0.12818 0.26522
 C2544 C 0.31956 0.10524 0.26567
 H2545 H 0.39978 0.04616 0.27890
 H2546 H 0.35972 0.01359 0.21277
 H2547 H 0.30586 0.14126 0.20202
 H2548 H 0.29541 0.13541 0.28303
 H2549 H 0.37120 0.08554 0.27680
 H2550 H 0.32341 0.09516 0.28357
 C2551 C 0.85708 0.58116 0.74683
 C2552 C 0.87543 0.57676 0.76661
 C2553 C 0.88884 0.55207 0.76852
 C2554 C 0.88375 0.53095 0.75113
 C2555 C 0.86646 0.53710 0.73054
 N2556 N 0.85356 0.56142 0.72909
 C2557 C 0.84087 0.60642 0.74590
 N2558 N 0.83456 0.61863 0.72338
 C2559 C 0.81993 0.64206 0.72215
 C2560 C 0.81040 0.65424 0.74447
 C2561 C 0.81647 0.64149 0.76767
 C2562 C 0.83156 0.61788 0.76845
 H2563 H 0.90341 0.55001 0.78357
 H2564 H 0.86284 0.52217 0.71588
 H2565 H 0.81566 0.65104 0.70384
 H2566 H 0.80976 0.64986 0.78551
 H2567 H 0.87957 0.59241 0.78047
 H2568 H 0.83560 0.60849 0.78664
 C2569 C 0.93046 0.75887 0.17728
 C2570 C 0.94922 0.73839 0.18154
 C2571 C 0.97128 0.73703 0.16632
 C2572 C 0.97551 0.75663 0.14744
 C2573 C 0.95867 0.77948 0.14721
 N2574 N 0.93623 0.77950 0.16126
 C2575 C 0.90368 0.75704 0.18768
 N2576 N 0.88793 0.77951 0.18808
 C2577 C 0.86240 0.77857 0.19606
 C2578 C 0.85182 0.75398 0.20418
 C2579 C 0.86742 0.73059 0.20332
 C2580 C 0.89321 0.73194 0.19483
 H2581 H 0.98439 0.71971 0.16831
 H2582 H 0.96238 0.79676 0.13534
 H2583 H 0.85070 0.79701 0.19666
 H2584 H 0.85958 0.71120 0.20909
 H2585 H 0.94644 0.72269 0.19550
 H2586 H 0.90433 0.71325 0.19339
 C2587 C 0.43614 0.24662 0.67635
 C2588 C 0.45007 0.22261 0.67166
 C2589 C 0.47241 0.22333 0.65661
 C2590 C 0.48068 0.24776 0.64556
 C2591 C 0.46673 0.27158 0.65194
 N2592 N 0.44483 0.27030 0.66654
 C2593 C 0.41128 0.24655 0.69022
 N2594 N 0.39191 0.26431 0.68315
 C2595 C 0.36764 0.26424 0.69397
 C2596 C 0.36197 0.24538 0.71295
 C2597 C 0.38204 0.22756 0.72114
 C2598 C 0.40677 0.22811 0.70982
 H2599 H 0.48318 0.20467 0.65318
 H2600 H 0.47319 0.29128 0.64579
 H2601 H 0.35282 0.27867 0.68749
 H2602 H 0.37853 0.21288 0.73595
 H2603 H 0.44342 0.20335 0.67890
 H2604 H 0.42209 0.21422 0.71627
 C2605 C 0.43358 0.72549 0.82042
 C2606 C 0.44462 0.70600 0.83664
 C2607 C 0.46680 0.71263 0.85123
 C2608 C 0.47739 0.73899 0.85032
 C2609 C 0.46747 0.75653 0.83146
 N2610 N 0.44578 0.74969 0.81765
 C2611 C 0.40762 0.72216 0.80833
 N2612 N 0.40194 0.73763 0.78770
 C2613 C 0.37695 0.74037 0.77845
 C2614 C 0.35575 0.72800 0.79091
 C2615 C 0.36126 0.71094 0.81154
 C2616 C 0.38724 0.70791 0.82029
 H2617 H 0.47526 0.69705 0.86321
 H2618 H 0.47610 0.77631 0.82872
 H2619 H 0.37366 0.75328 0.76215
 H2620 H 0.34547 0.70074 0.82145
 H2621 H 0.43603 0.68607 0.83833
 H2622 H 0.39093 0.69610 0.83724
 C2623 C 0.92872 0.24824 0.31982
 C2624 C 0.94115 0.27311 0.32397
 C2625 C 0.96393 0.27403 0.33888
 C2626 C 0.97413 0.25038 0.35031
 C2627 C 0.96189 0.22562 0.34406
 N2628 N 0.93946 0.22530 0.32972
 C2629 C 0.90311 0.24667 0.30681
 N2630 N 0.88503 0.22853 0.31519
 C2631 C 0.86001 0.22755 0.30556
 C2632 C 0.85217 0.24575 0.28655
 C2633 C 0.87093 0.26383 0.27691
 C2634 C 0.89645 0.26434 0.28701
 H2635 H 0.97336 0.29340 0.34209
 H2636 H 0.96993 0.20644 0.35032
 H2637 H 0.84625 0.21294 0.31312
 H2638 H 0.86575 0.27803 0.26202
 H2639 H 0.93290 0.29180 0.31658
 H2640 H 0.91068 0.27856 0.27959
 C2641 C 0.06189 0.27084 0.31380
 C2642 C 0.05201 0.29170 0.32907
 C2643 C 0.03134 0.28627 0.34550
 C2644 C 0.02083 0.25994 0.34708
 C2645 C 0.02869 0.24108 0.32857
 N2646 N 0.04932 0.24660 0.31320
 C2647 C 0.08751 0.27283 0.30112
 N2648 N 0.09292 0.25491 0.28226
 C2649 C 0.11776 0.25144 0.27317
 C2650 C 0.13904 0.26567 0.28404
 C2651 C 0.13376 0.28508 0.30275
 C2652 C 0.10800 0.28879 0.31131
 H2653 H 0.02407 0.30269 0.35715
 H2654 H 0.01961 0.22130 0.32756
 H2655 H 0.12093 0.23657 0.25838
 H2656 H 0.14961 0.29675 0.31138
 H2657 H 0.06060 0.31172 0.32894
 H2658 H 0.10472 0.30260 0.32692
 C2659 C 0.56585 0.75646 0.81530
 C2660 C 0.55465 0.73104 0.81948
 C2661 C 0.53336 0.72889 0.83580
 C2662 C 0.52348 0.75188 0.84847
 C2663 C 0.53382 0.77729 0.84165
 N2664 N 0.55497 0.77879 0.82610
 C2665 C 0.59122 0.75903 0.80250
 N2666 N 0.60907 0.77712 0.81185
 C2667 C 0.63433 0.77816 0.80336
 C2668 C 0.64277 0.75992 0.78471
 C2669 C 0.62422 0.74209 0.77389
 C2670 C 0.59838 0.74160 0.78275
 H2671 H 0.52518 0.70906 0.83943
 H2672 H 0.52558 0.79602 0.84871
 H2673 H 0.64789 0.79266 0.81172
 H2674 H 0.62981 0.72792 0.75916
 H2675 H 0.56310 0.71280 0.81142
 H2676 H 0.58439 0.72735 0.77467
 C2677 C 0.56730 0.23390 0.68651
 C2678 C 0.55252 0.25796 0.68683
 C2679 C 0.53270 0.26187 0.66880
 C2680 C 0.52775 0.24216 0.65006
 C2681 C 0.54119 0.21717 0.65229
 N2682 N 0.56097 0.21410 0.66965
 C2683 C 0.59245 0.23194 0.70037
 N2684 N 0.61316 0.21962 0.68861
 C2685 C 0.63839 0.22168 0.69746
 C2686 C 0.64379 0.23766 0.71886
 C2687 C 0.62247 0.24888 0.73231
 C2688 C 0.59670 0.24594 0.72316
 H2689 H 0.52189 0.28087 0.66873
 H2690 H 0.53654 0.20021 0.64013
 H2691 H 0.65419 0.21192 0.68703
 H2692 H 0.62571 0.26078 0.74932
 H2693 H 0.55730 0.27439 0.69964
 H2694 H 0.58048 0.25547 0.73321
 C2695 C 0.06527 0.74780 0.17982
 C2696 C 0.05142 0.77212 0.17641
 C2697 C 0.03007 0.77288 0.15972
 C2698 C 0.02265 0.74966 0.14587
 C2699 C 0.03636 0.72534 0.15100
 N2700 N 0.05734 0.72522 0.16723
 C2701 C 0.09018 0.74685 0.19407
 N2702 N 0.10927 0.72946 0.18598
 C2703 C 0.13411 0.72958 0.19591
 C2704 C 0.14084 0.74840 0.21478
 C2705 C 0.12106 0.76549 0.22442
 C2706 C 0.09558 0.76473 0.21412
 H2707 H 0.01943 0.79181 0.15716
 H2708 H 0.03047 0.70633 0.14264
 H2709 H 0.14865 0.71549 0.18850
 H2710 H 0.12543 0.77997 0.23932
 H2711 H 0.05755 0.79066 0.18565
 H2712 H 0.08054 0.77832 0.22142
   
