data_POSCAR
  _audit_creation_date              2014-09-24
  _audit_creation_method            'ToBaCCo'
  _symmetry_space_group_name_H-M    'P1'
  _symmetry_Int_Tables_number       1
  _symmetry_cell_setting            triclinic
  loop_
  _symmetry_equiv_pos_as_xyz
 x,y,z
_cell_length_a 36.5647
_cell_length_b 36.5535
_cell_length_c 36.6281
_cell_angle_alpha 89.218700
_cell_angle_beta 90.945500
_cell_angle_gamma 89.289300
loop_
  _atom_site_label
  _atom_site_type_symbol
  _atom_site_fract_x
  _atom_site_fract_y
  _atom_site_fract_z
C1 C 0.12639 -0.00508 0.25725
 C2 C 0.37623 0.00454 0.75138
 C3 C 0.87340 0.49503 0.24712
 C4 C 0.62334 0.50602 0.74667
 C5 C 0.25651 0.12605 0.99713
 C6 C 0.75219 0.37157 1.00402
 C7 C 0.25032 0.87173 0.49622
 C8 C 0.74249 0.62565 0.49844
 C9 C -0.00552 0.25368 0.12830
 C10 C 0.00045 0.74870 0.37557
 C11 C 0.49869 0.24744 0.87583
 C12 C 0.49733 0.74563 0.62556
 C13 C 0.87709 1.00108 0.75324
 C14 C 0.37384 0.49366 0.24443
 C15 C 0.62518 0.99806 0.25453
 C16 C 0.12252 0.50718 0.75194
 C17 C 0.75966 0.87452 -0.00408
 C18 C 0.24465 0.37527 0.49415
 C19 C 0.24819 0.62385 -0.00200
 C20 C 0.74767 0.12333 0.50813
 C21 C 1.00219 0.75735 0.87623
 C22 C 0.49855 0.24837 0.37690
 C23 C 0.99440 0.24560 0.62731
 C24 C 0.49702 0.74257 0.12302
 O25 O -0.01174 0.98961 0.89836
 O26 O 0.05123 1.00636 0.90004
 O27 O -0.00533 0.90100 0.98218
 O28 O 0.00124 0.89608 1.04188
 O29 O -0.09661 0.98537 0.98127
 O30 O -0.09781 1.04839 0.99863
 O31 O 0.07692 0.99687 1.08501
 O32 O 0.08418 0.94105 1.05641
 O33 O 0.08689 1.07527 0.99769
 O34 O 0.05005 1.08603 0.93915
 O35 O -0.00129 1.08308 1.07412
 O36 O -0.06229 1.04641 1.07561
 O37 O 0.02579 1.02444 1.10710
 O38 O -0.03164 1.00719 1.11028
 O39 O 0.02771 1.10814 1.02569
 O40 O 0.01109 1.11372 0.96468
 O41 O 0.10986 1.02596 1.02922
 O42 O 0.11207 0.96621 1.00322
 O43 O -0.06349 1.01395 0.92201
 O44 O -0.07352 1.06930 0.95339
 O45 O -0.07136 0.93265 1.00419
 O46 O -0.04055 0.92564 1.06486
 O47 O 0.01630 0.92762 0.93048
 O48 O 0.07196 0.95931 0.92409
 Zr49 Zr 0.02333 0.98265 0.94444
 O50 O 0.05733 1.01470 0.97767
 Zr51 Zr -0.01649 0.94557 1.01642
 O52 O 0.01555 0.97663 1.05240
 Zr53 Zr -0.05170 1.02075 0.97761
 O54 O -0.02075 1.05503 1.01158
 Zr55 Zr 0.06579 0.98944 1.02902
 O56 O 0.03541 0.95479 0.99420
 Zr57 Zr 0.03089 1.06439 0.98905
 O58 O -0.00200 1.03390 0.95258
 Zr59 Zr -0.00936 1.02778 1.06125
 O60 O -0.04394 0.99469 1.02881
 O61 O -0.02746 0.97044 0.96601
 O62 O 0.04178 1.04014 1.04001
 C63 C -0.04445 1.00272 0.89515
 C64 C 0.00662 0.89969 0.94943
 C65 C -0.09882 0.95203 0.99244
 C66 C 0.05780 1.00999 1.11117
 C67 C 0.11341 1.05703 1.01302
 C68 C 0.01244 1.11036 1.05689
 H69 H 0.08069 1.01802 0.96487
 H70 H -0.03487 1.07790 1.01525
 H71 H -0.04233 0.95505 0.94955
 H72 H 0.01908 0.96256 1.07546
 H73 H 0.08006 0.92067 1.03934
 H74 H 0.02408 0.90150 1.05543
 H75 H -0.01517 1.11588 0.97042
 H76 H -0.05435 1.07921 0.93738
 H77 H 0.13292 0.96553 1.02093
 H78 H 0.08252 0.94373 0.94400
 H79 H -0.05984 1.06625 1.09363
 H80 H -0.10321 1.03672 1.02244
 H81 H 0.03991 1.03074 0.89530
 H82 H 0.07161 1.07122 0.93227
 H83 H -0.06177 0.94180 1.06986
 H84 H -0.03044 0.98022 1.10905
 O85 O 0.47849 0.47605 0.39407
 O86 O 0.54064 0.49498 0.39631
 O87 O 0.47638 0.39416 0.47998
 O88 O 0.48867 0.39082 0.53916
 O89 O 0.39121 0.47838 0.47266
 O90 O 0.38902 0.54085 0.48838
 O91 O 0.56278 0.49415 0.58179
 O92 O 0.57045 0.43667 0.55625
 O93 O 0.57296 0.56966 0.49424
 O94 O 0.54161 0.57733 0.43354
 O95 O 0.48807 0.57761 0.56745
 O96 O 0.42569 0.54893 0.56764
 O97 O 0.50979 0.52037 0.60153
 O98 O 0.44748 0.50180 0.59995
 O99 O 0.51438 0.60179 0.51705
 O100 O 0.49752 0.60326 0.45301
 O101 O 0.59653 0.52049 0.52551
 O102 O 0.59909 0.45906 0.50198
 O103 O 0.42704 0.50439 0.41412
 O104 O 0.41613 0.56167 0.44382
 O105 O 0.41478 0.42850 0.50283
 O106 O 0.44595 0.42195 0.56269
 O107 O 0.50522 0.41755 0.43059
 O108 O 0.56164 0.44913 0.42357
 Zr109 Zr 0.51221 0.47314 0.44126
 O110 O 0.54534 0.50683 0.47368
 Zr111 Zr 0.46999 0.43986 0.51347
 O112 O 0.50162 0.47191 0.54876
 Zr113 Zr 0.43632 0.51340 0.46993
 O114 O 0.46616 0.54868 0.50381
 Zr115 Zr 0.55254 0.48357 0.52607
 O116 O 0.52269 0.44738 0.49232
 Zr117 Zr 0.51828 0.55685 0.48211
 O118 O 0.48684 0.52485 0.44592
 Zr119 Zr 0.47612 0.52322 0.55468
 O120 O 0.44229 0.48957 0.52239
 O121 O 0.46069 0.46255 0.46183
 O122 O 0.52773 0.53439 0.53407
 C123 C 0.44658 0.49046 0.38885
 C124 C 0.49149 0.39095 0.44880
 C125 C 0.38815 0.44679 0.48793
 C126 C 0.54246 0.50795 0.60664
 C127 C 0.59940 0.55241 0.51072
 C128 C 0.50201 0.60427 0.54949
 H129 H 0.56910 0.50991 0.46156
 H130 H 0.45229 0.57186 0.50657
 H131 H 0.44584 0.44664 0.44587
 H132 H 0.50475 0.45865 0.57232
 H133 H 0.56675 0.41542 0.54017
 H134 H 0.50996 0.39720 0.55467
 H135 H 0.47302 0.60906 0.46258
 H136 H 0.43562 0.57027 0.42745
 H137 H 0.61963 0.45924 0.52001
 H138 H 0.57082 0.43320 0.44387
 H139 H 0.42943 0.56462 0.58925
 H140 H 0.38533 0.53236 0.51381
 H141 H 0.53011 0.51966 0.39134
 H142 H 0.56311 0.56178 0.42806
 H143 H 0.42564 0.43921 0.56781
 H144 H 0.45865 0.47787 0.60685
 O145 O 0.41969 -0.07162 0.48985
 O146 O 0.45295 -0.07885 0.43470
 O147 O 0.50379 -0.08546 0.57155
 O148 O 0.55682 -0.05934 0.58581
 O149 O 0.42681 0.00484 0.57926
 O150 O 0.41772 0.06063 0.54758
 O151 O 0.60393 0.01698 0.48599
 O152 O 0.60530 -0.04236 0.50552
 O153 O 0.52129 0.02062 0.39989
 O154 O 0.45839 0.00683 0.39590
 O155 O 0.52163 0.10132 0.48581
 O156 O 0.50240 0.10047 0.54853
 O157 O 0.57933 0.06648 0.51397
 O158 O 0.54470 0.07401 0.57073
 O159 O 0.49748 0.07943 0.43309
 O160 O 0.43721 0.04916 0.42161
 O161 O 0.57263 -0.00551 0.42503
 O162 O 0.57549 -0.06607 0.45263
 O163 O 0.39523 -0.02186 0.51735
 O164 O 0.39500 0.04116 0.49990
 O165 O 0.47672 -0.02373 0.60462
 O166 O 0.54092 -0.00767 0.60658
 O167 O 0.48061 -0.10678 0.51799
 O168 O 0.49764 -0.10530 0.45664
 Zr169 Zr 0.47551 -0.06004 0.48446
 O170 O 0.50928 -0.02753 0.45199
 Zr171 Zr 0.51297 -0.02958 0.56090
 O172 O 0.54879 0.00387 0.53137
 Zr173 Zr 0.44009 0.01288 0.52432
 O174 O 0.47276 0.04857 0.49388
 Zr175 Zr 0.55882 -0.01772 0.47958
 O176 O 0.52664 -0.05394 0.51099
 Zr177 Zr 0.48546 0.02447 0.44391
 O178 O 0.44928 -0.00964 0.47268
 Zr179 Zr 0.52364 0.05490 0.52037
 O180 O 0.48908 0.02273 0.55323
 O181 O 0.46287 -0.03867 0.53522
 O182 O 0.53606 0.03413 0.46909
 C183 C 0.39251 -0.05323 0.50226
 C184 C 0.49221 -0.11119 0.55095
 C185 C 0.44510 -0.00827 0.60674
 C186 C 0.60652 0.04834 0.50132
 C187 C 0.55385 0.00750 0.39768
 C188 C 0.51019 0.10534 0.45270
 H189 H 0.51327 -0.04044 0.42880
 H190 H 0.45959 0.07217 0.49054
 H191 H 0.44681 -0.05451 0.54995
 H192 H 0.57177 0.00609 0.54572
 H193 H 0.59729 -0.06615 0.51566
 H194 H 0.57909 -0.05283 0.57238
 H195 H 0.43094 0.07058 0.43659
 H196 H 0.39260 0.03209 0.47464
 H197 H 0.60067 -0.06257 0.44367
 H198 H 0.52326 -0.10829 0.46543
 H199 H 0.47882 0.10762 0.53669
 H200 H 0.43663 0.07011 0.56450
 H201 H 0.43527 -0.05985 0.42588
 H202 H 0.46703 -0.01839 0.39117
 H203 H 0.52927 0.01629 0.61160
 H204 H 0.56531 0.05772 0.57842
 O205 O 0.00266 0.42145 1.06869
 O206 O 0.06160 0.45017 1.07664
 O207 O -0.07186 0.50876 1.07897
 O208 O -0.08539 0.56258 1.05142
 O209 O -0.08252 0.43253 0.99144
 O210 O -0.05316 0.42690 0.93387
 O211 O 0.01749 0.60834 0.98328
 O212 O -0.00128 0.60673 1.04211
 O213 O 0.10061 0.52179 0.97938
 O214 O 0.10199 0.45854 0.99398
 O215 O 0.01594 0.52824 0.89634
 O216 O -0.04572 0.51410 0.89265
 O217 O -0.00864 0.58643 0.93132
 O218 O -0.06924 0.55342 0.92169
 O219 O 0.06737 0.50116 0.92027
 O220 O 0.07507 0.43908 0.95062
 O221 O 0.07662 0.57378 1.00303
 O222 O 0.05142 0.57450 1.06463
 O223 O -0.02213 0.39884 1.01639
 O224 O -0.00530 0.40094 0.95348
 O225 O -0.10624 0.48365 1.01720
 O226 O -0.10548 0.54863 0.99962
 O227 O -0.02010 0.48218 1.10291
 O228 O 0.04227 0.49567 1.10337
 Zr229 Zr 0.01325 0.47669 1.05711
 O230 O 0.04780 0.51011 1.02635
 Zr231 Zr -0.06116 0.51853 1.02347
 O232 O -0.02958 0.55432 0.99196
 Zr233 Zr -0.02763 0.44546 0.98229
 O234 O 0.00472 0.47817 0.94826
 Zr235 Zr 0.02236 0.56099 1.01608
 O236 O -0.01101 0.52901 1.05040
 Zr237 Zr 0.05510 0.48768 0.97450
 O238 O 0.02427 0.45157 1.00703
 Zr239 Zr -0.01908 0.53052 0.94132
 O240 O -0.05414 0.49600 0.97143
 O241 O -0.03778 0.46730 1.03338
 O242 O 0.03236 0.53966 0.96455
 C243 C -0.01003 0.39523 1.04935
 C244 C -0.05254 0.49539 1.10578
 C245 C -0.10911 0.45126 1.00441
 C246 C 0.00428 0.61254 0.95079
 C247 C 0.10338 0.55467 0.99073
 C248 C 0.04873 0.51573 0.89372
 H249 H 0.07122 0.51287 1.03988
 H250 H 0.00767 0.46578 0.92466
 H251 H -0.05334 0.45169 1.04887
 H252 H -0.04291 0.57794 0.98949
 H253 H -0.01149 0.59758 1.06534
 H254 H -0.06946 0.58390 1.04767
 H255 H 0.06059 0.43474 0.92807
 H256 H 0.01968 0.39662 0.96357
 H257 H 0.06215 0.59907 1.06112
 H258 H 0.03523 0.52171 1.10603
 H259 H -0.04009 0.48780 0.88960
 H260 H -0.07092 0.44622 0.92597
 H261 H 0.06851 0.43201 1.05808
 H262 H 0.10636 0.46579 1.01958
 H263 H -0.11127 0.53714 0.97593
 H264 H -0.07438 0.57570 0.93587
 O265 O 0.09858 0.48213 0.52066
 O266 O 0.09494 0.54492 0.50436
 O267 O 0.01590 0.47756 0.60591
 O268 O -0.04758 0.49513 0.60598
 O269 O 0.01753 0.39421 0.52329
 O270 O -0.00048 0.39311 0.46095
 O271 O -0.09131 0.56489 0.50746
 O272 O -0.05528 0.57505 0.56578
 O273 O -0.00447 0.57751 0.42986
 O274 O 0.05550 0.54578 0.42285
 O275 O -0.07719 0.48924 0.42055
 O276 O -0.08230 0.42900 0.45677
 O277 O -0.11196 0.51332 0.48034
 O278 O -0.11188 0.45242 0.49474
 O279 O -0.02847 0.51953 0.39798
 O280 O 0.03478 0.50319 0.39706
 O281 O -0.03252 0.60098 0.47928
 O282 O -0.01804 0.60470 0.54080
 O283 O 0.07600 0.43080 0.49492
 O284 O 0.04394 0.41874 0.44016
 O285 O -0.01228 0.41658 0.57229
 O286 O -0.06713 0.44846 0.58354
 O287 O 0.06447 0.50707 0.58194
 O288 O 0.07010 0.56360 0.55053
 Zr289 Zr 0.05120 0.51495 0.52643
 O290 O 0.01743 0.54880 0.49301
 Zr291 Zr -0.02039 0.47275 0.56076
 O292 O -0.05718 0.50424 0.52804
 Zr293 Zr 0.01975 0.43983 0.48764
 O294 O -0.01461 0.47037 0.45180
 Zr295 Zr -0.03457 0.55557 0.51593
 O296 O 0.00103 0.52536 0.55197
 Zr297 Zr 0.00696 0.52271 0.44330
 O298 O 0.04388 0.49036 0.47526
 Zr299 Zr -0.06494 0.48017 0.47668
 O300 O -0.03193 0.44610 0.51135
 O301 O 0.03056 0.46327 0.53804
 O302 O -0.04491 0.53233 0.46495
 C303 C 0.10256 0.45045 0.50644
 C304 C 0.04704 0.49333 0.60891
 C305 C 0.00184 0.39018 0.55417
 C306 C -0.11691 0.54494 0.49419
 C307 C -0.01819 0.60426 0.44752
 C308 C -0.05945 0.50400 0.39415
 H309 H 0.02985 0.57243 0.48962
 H310 H -0.01735 0.45677 0.42881
 H311 H 0.04708 0.44789 0.55372
 H312 H -0.08035 0.50637 0.54141
 H313 H -0.07579 0.55918 0.57282
 H314 H -0.03728 0.51972 0.60986
 H315 H 0.02556 0.47849 0.39169
 H316 H 0.05876 0.43865 0.42966
 H317 H 0.00822 0.60776 0.53565
 H318 H 0.05069 0.57202 0.56709
 H319 H -0.06889 0.42400 0.43409
 H320 H -0.02516 0.38868 0.47066
 H321 H 0.09885 0.53556 0.47948
 H322 H 0.06114 0.56775 0.43729
 H323 H -0.07745 0.43226 0.56465
 H324 H -0.11453 0.45781 0.52095
 O325 O 0.52762 0.89089 0.02054
 O326 O 0.51020 0.89086 -0.04133
 O327 O 0.61030 0.97555 0.02192
 O328 O 0.61355 1.03442 0.01128
 O329 O 0.52450 0.97238 0.10484
 O330 O 0.46330 0.99052 0.10462
 O331 O 0.51301 1.07570 -0.07151
 O332 O 0.56932 1.04749 -0.07488
 O333 O 0.43518 0.99103 -0.08009
 O334 O 0.42446 0.93424 -0.04987
 O335 O 0.42643 1.06762 0.00350
 O336 O 0.45654 1.07716 0.06145
 O337 O 0.48545 1.09862 -0.02137
 O338 O 0.50317 1.09813 0.04489
 O339 O 0.40209 1.01677 -0.02163
 O340 O 0.40311 0.95085 -0.00351
 O341 O 0.48504 1.01936 -0.10274
 O342 O 0.54581 0.99326 -0.10240
 O343 O 0.49684 0.91313 0.06904
 O344 O 0.44103 0.94690 0.07796
 O345 O 0.57454 1.00109 0.08310
 O346 O 0.58137 1.05992 0.04960
 O347 O 0.58761 0.92576 -0.00671
 O348 O 0.55444 0.91669 -0.06269
 Zr349 Zr 0.53140 0.93691 -0.01425
 O350 O 0.49775 0.96909 -0.04935
 Zr351 Zr 0.56413 1.00986 0.02701
 O352 O 0.53294 1.04510 -0.00750
 Zr353 Zr 0.49013 0.96952 0.05857
 O354 O 0.45555 1.00399 0.02662
 Zr355 Zr 0.52159 1.02035 -0.05772
 O356 O 0.55729 0.98693 -0.02517
 Zr357 Zr 0.44743 0.98066 -0.02480
 O358 O 0.47925 0.94426 0.00844
 Zr359 Zr 0.48135 1.05386 0.01527
 O360 O 0.51391 1.02128 0.05180
 O361 O 0.54148 0.95886 0.03701
 O362 O 0.47029 1.03165 -0.03578
 C363 C 0.51099 0.88681 0.05088
 C364 C 0.61416 0.94442 0.00652
 C365 C 0.55574 0.98741 0.10916
 C366 C 0.49917 1.10218 -0.05333
 C367 C 0.45316 1.00538 -0.10635
 C368 C 0.39944 1.04950 -0.00955
 H369 H 0.49466 0.95610 -0.07269
 H370 H 0.43231 1.00754 0.03960
 H371 H 0.55726 0.94280 0.05278
 H372 H 0.54652 1.06808 -0.01096
 H373 H 0.59016 1.03053 -0.06979
 H374 H 0.60877 1.04594 -0.01292
 H375 H 0.39438 0.96370 0.01835
 H376 H 0.43232 0.92970 0.05918
 H377 H 0.54599 1.01047 -0.12359
 H378 H 0.57083 0.93591 -0.07200
 H379 H 0.43887 1.05929 0.07099
 H380 H 0.47118 1.01620 0.10697
 H381 H 0.48476 0.88806 -0.03299
 H382 H 0.44299 0.92395 -0.06634
 H383 H 0.56397 1.06615 0.06906
 H384 H 0.52536 1.10643 0.03226
 O385 O 0.49100 0.41649 -0.07286
 O386 O 0.43637 0.44919 -0.08438
 O387 O 0.57087 0.50207 -0.08181
 O388 O 0.57914 0.55999 -0.04987
 O389 O 0.57968 0.42375 0.00438
 O390 O 0.54971 0.41612 0.06112
 O391 O 0.47469 0.59981 0.01504
 O392 O 0.49848 0.60290 -0.04072
 O393 O 0.39617 0.51732 0.01780
 O394 O 0.39441 0.45393 0.00042
 O395 O 0.48088 0.51577 0.10020
 O396 O 0.54322 0.50156 0.10250
 O397 O 0.50164 0.57550 0.06645
 O398 O 0.56411 0.54372 0.07500
 O399 O 0.42948 0.49092 0.07595
 O400 O 0.42072 0.43164 0.04329
 O401 O 0.41830 0.56736 -0.01150
 O402 O 0.44876 0.57063 -0.07029
 O403 O 0.51799 0.39230 -0.02153
 O404 O 0.50280 0.39190 0.04104
 O405 O 0.60371 0.47645 -0.01793
 O406 O 0.60389 0.53910 -0.00565
 O407 O 0.51958 0.47751 -0.10661
 O408 O 0.45620 0.49534 -0.10790
 Zr409 Zr 0.48423 0.47239 -0.06191
 O410 O 0.44903 0.50490 -0.03073
 Zr411 Zr 0.55802 0.51138 -0.02693
 O412 O 0.52571 0.54625 0.00488
 Zr413 Zr 0.52448 0.43738 0.01284
 O414 O 0.49159 0.46905 0.04713
 Zr415 Zr 0.47401 0.55490 -0.01983
 O416 O 0.50817 0.52394 -0.05441
 Zr417 Zr 0.44122 0.48086 0.02092
 O418 O 0.47271 0.44578 -0.01206
 Zr419 Zr 0.51499 0.52065 0.05496
 O420 O 0.55051 0.48700 0.02469
 O421 O 0.53513 0.46078 -0.03792
 O422 O 0.46364 0.53181 0.03143
 C423 C 0.50329 0.38938 -0.05340
 C424 C 0.55204 0.49035 -0.10909
 C425 C 0.60663 0.44340 -0.00576
 C426 C 0.48690 0.60218 0.04796
 C427 C 0.39220 0.54922 0.00302
 C428 C 0.44842 0.50333 0.10284
 H429 H 0.42577 0.50855 -0.04456
 H430 H 0.48875 0.45547 0.07041
 H431 H 0.55068 0.44488 -0.05311
 H432 H 0.53850 0.56971 0.00801
 H433 H 0.50970 0.59633 -0.06415
 H434 H 0.56292 0.56704 -0.07073
 H435 H 0.43563 0.42518 0.06528
 H436 H 0.47744 0.38903 0.03177
 H437 H 0.43874 0.59577 -0.06773
 H438 H 0.46658 0.51988 -0.11218
 H439 H 0.53685 0.47554 0.10596
 H440 H 0.56731 0.43470 0.06953
 H441 H 0.42552 0.43432 -0.06464
 H442 H 0.38829 0.46476 -0.02385
 H443 H 0.60586 0.53222 0.02054
 H444 H 0.56777 0.56729 0.06205
 O445 O -0.01855 0.01393 0.60673
 O446 O 0.04397 -0.00028 0.60732
 O447 O -0.02337 0.09981 0.52232
 O448 O -0.00680 0.10039 0.45808
 O449 O -0.10536 0.01528 0.52135
 O450 O -0.10573 -0.04717 0.50761
 O451 O 0.06871 0.00077 0.42409
 O452 O 0.07331 0.05800 0.44791
 O453 O 0.07881 -0.07549 0.50764
 O454 O 0.04865 -0.08389 0.56794
 O455 O -0.00379 -0.08279 0.43208
 O456 O -0.06735 -0.05344 0.42898
 O457 O 0.01692 -0.02355 0.39948
 O458 O -0.04552 -0.00694 0.39783
 O459 O 0.02011 -0.10763 0.48453
 O460 O 0.00406 -0.10844 0.54833
 O461 O 0.10142 -0.02402 0.48137
 O462 O 0.10088 0.03734 0.50546
 O463 O -0.07066 -0.01099 0.58359
 O464 O -0.07833 -0.06833 0.55256
 O465 O -0.08222 0.06679 0.49569
 O466 O -0.05256 0.07575 0.43901
 O467 O 0.00420 0.07596 0.57351
 O468 O 0.06345 0.04512 0.58062
 Zr469 Zr 0.01485 0.02076 0.56116
 O470 O 0.04928 -0.01255 0.53000
 Zr471 Zr -0.02705 0.05479 0.48727
 O472 O 0.00568 0.02316 0.45312
 Zr473 Zr -0.05936 -0.01960 0.52797
 O474 O -0.02794 -0.05431 0.49500
 Zr475 Zr 0.05628 0.01185 0.47853
 O476 O 0.02528 0.04772 0.51123
 Zr477 Zr 0.02400 -0.06258 0.51930
 O478 O -0.00883 -0.03104 0.55431
 Zr479 Zr -0.01762 -0.02833 0.44479
 O480 O -0.05287 0.00490 0.47601
 O481 O -0.03664 0.03118 0.53813
 O482 O 0.03376 -0.03923 0.46824
 C483 C -0.05081 0.00107 0.61003
 C484 C -0.01023 0.10268 0.55485
 C485 C -0.10871 0.04785 0.50797
 C486 C 0.04979 -0.01173 0.39716
 C487 C 0.10489 -0.05683 0.49385
 C488 C 0.00895 -0.10990 0.45128
 H489 H 0.07298 -0.01573 0.54313
 H490 H -0.04121 -0.07744 0.49139
 H491 H -0.05243 0.04646 0.55368
 H492 H 0.00890 0.03690 0.42997
 H493 H 0.06948 0.07963 0.46337
 H494 H 0.01592 0.10799 0.47071
 H495 H -0.02021 -0.11430 0.53778
 H496 H -0.05940 -0.07630 0.57071
 H497 H 0.12192 0.03759 0.48871
 H498 H 0.07042 0.06362 0.56209
 H499 H -0.06268 -0.06976 0.40809
 H500 H -0.10848 -0.03991 0.48158
 H501 H 0.03728 -0.02635 0.60964
 H502 H 0.07030 -0.06894 0.57373
 H503 H -0.06995 0.05697 0.43060
 H504 H -0.03698 0.01830 0.39361
 O505 O 0.72931 0.22969 0.35988
 O506 O 0.74407 0.29197 0.35872
 O507 O 0.64431 0.22936 0.27281
 O508 O 0.64066 0.23708 0.21355
 O509 O 0.73135 0.14290 0.27815
 O510 O 0.79362 0.14277 0.26376
 O511 O 0.74125 0.31796 0.17440
 O512 O 0.68320 0.32200 0.19973
 O513 O 0.81749 0.32722 0.25760
 O514 O 0.82642 0.29634 0.31958
 O515 O 0.82628 0.24468 0.18485
 O516 O 0.79922 0.18155 0.18317
 O517 O 0.76648 0.26564 0.15198
 O518 O 0.75107 0.20233 0.15254
 O519 O 0.85145 0.26770 0.23661
 O520 O 0.85348 0.25323 0.29977
 O521 O 0.76563 0.35030 0.23048
 O522 O 0.70517 0.35023 0.25494
 O523 O 0.75522 0.17745 0.33837
 O524 O 0.81399 0.17060 0.30857
 O525 O 0.67920 0.16664 0.25237
 O526 O 0.67325 0.19665 0.19109
 O527 O 0.66782 0.25468 0.32428
 O528 O 0.69854 0.31232 0.33183
 Zr529 Zr 0.72323 0.26356 0.31318
 O530 O 0.75565 0.29794 0.28099
 Zr531 Zr 0.69019 0.22152 0.24033
 O532 O 0.72051 0.25465 0.20527
 Zr533 Zr 0.76484 0.18905 0.28277
 O534 O 0.79865 0.22037 0.24867
 Zr535 Zr 0.73093 0.30520 0.22927
 O536 O 0.69627 0.27392 0.26268
 Zr537 Zr 0.80616 0.27236 0.27110
 O538 O 0.77549 0.23963 0.30732
 Zr539 Zr 0.77237 0.23083 0.19809
 O540 O 0.74042 0.19534 0.23043
 O541 O 0.71354 0.21211 0.29179
 O542 O 0.78241 0.28223 0.21976
 C543 C 0.74235 0.19712 0.36415
 C544 C 0.64114 0.24244 0.30488
 C545 C 0.69857 0.13995 0.26558
 C546 C 0.75415 0.29864 0.14837
 C547 C 0.79833 0.35346 0.24295
 C548 C 0.85349 0.25677 0.20356
 H549 H 0.75840 0.32160 0.29346
 H550 H 0.82205 0.20700 0.24544
 H551 H 0.69802 0.19693 0.30775
 H552 H 0.70670 0.25793 0.18199
 H553 H 0.66228 0.31753 0.21596
 H554 H 0.64524 0.26052 0.20078
 H555 H 0.85796 0.22768 0.29232
 H556 H 0.82065 0.18920 0.32684
 H557 H 0.70406 0.37117 0.23741
 H558 H 0.68088 0.32054 0.31256
 H559 H 0.81454 0.18638 0.16155
 H560 H 0.78665 0.14031 0.23770
 H561 H 0.77008 0.28447 0.36155
 H562 H 0.81187 0.31880 0.32398
 H563 H 0.69034 0.17598 0.18684
 H564 H 0.72636 0.21231 0.14675
 O565 O 0.75832 0.68267 0.66573
 O566 O 0.81330 0.67027 0.69766
 O567 O 0.68153 0.67430 0.75601
 O568 O 0.67126 0.70308 0.80794
 O569 O 0.66928 0.76500 0.67772
 O570 O 0.70339 0.81787 0.66527
 O571 O 0.77717 0.76890 0.84965
 O572 O 0.75546 0.71073 0.85051
 O573 O 0.85725 0.76970 0.76451
 O574 O 0.85508 0.75236 0.69965
 O575 O 0.77523 0.85522 0.76429
 O576 O 0.71198 0.85929 0.75215
 O577 O 0.75334 0.82197 0.82568
 O578 O 0.69159 0.83297 0.79421
 O579 O 0.82557 0.82983 0.73861
 O580 O 0.83219 0.79855 0.68077
 O581 O 0.83358 0.74631 0.81662
 O582 O 0.80658 0.68580 0.81920
 O583 O 0.72819 0.73300 0.64287
 O584 O 0.74817 0.79518 0.64115
 O585 O 0.64848 0.73486 0.72776
 O586 O 0.65152 0.75566 0.79060
 O587 O 0.73015 0.64911 0.72727
 O588 O 0.79334 0.64649 0.74373
 Zr589 Zr 0.76621 0.69333 0.72149
 O590 O 0.80276 0.72372 0.75358
 Zr591 Zr 0.69439 0.72958 0.76230
 O592 O 0.72786 0.76101 0.79647
 Zr593 Zr 0.72624 0.76886 0.68750
 O594 O 0.76106 0.80236 0.71848
 Zr595 Zr 0.77897 0.73525 0.80387
 O596 O 0.74384 0.70128 0.77348
 Zr597 Zr 0.81124 0.77516 0.72918
 O598 O 0.77781 0.74310 0.69469
 Zr599 Zr 0.73940 0.81101 0.77056
 O600 O 0.70221 0.78121 0.73771
 O601 O 0.71542 0.71818 0.71117
 O602 O 0.79032 0.78637 0.78062
 C603 C 0.74354 0.70140 0.63937
 C604 C 0.69879 0.64699 0.74245
 C605 C 0.64363 0.75089 0.69674
 C606 C 0.76621 0.80220 0.85250
 C607 C 0.86031 0.75798 0.79766
 C608 C 0.80747 0.85708 0.75116
 H609 H 0.82580 0.70952 0.75698
 H610 H 0.76417 0.82560 0.70485
 H611 H 0.69898 0.70309 0.69596
 H612 H 0.71553 0.76435 0.82003
 H613 H 0.74429 0.68761 0.84238
 H614 H 0.68667 0.70898 0.82942
 H615 H 0.81492 0.81803 0.67231
 H616 H 0.77261 0.78401 0.63742
 H617 H 0.81767 0.68893 0.84385
 H618 H 0.78478 0.64359 0.76909
 H619 H 0.71877 0.86342 0.72640
 H620 H 0.68846 0.82885 0.68468
 H621 H 0.82365 0.68952 0.68177
 H622 H 0.86279 0.72928 0.71210
 H623 H 0.64685 0.77955 0.77824
 H624 H 0.68652 0.81854 0.81656
 O625 O 0.31880 0.17425 0.74282
 O626 O 0.32394 0.20423 0.68374
 O627 O 0.33078 0.26099 0.81685
 O628 O 0.30394 0.31644 0.82551
 O629 O 0.24528 0.18504 0.82939
 O630 O 0.18587 0.17812 0.80059
 O631 O 0.22676 0.35925 0.72379
 O632 O 0.28674 0.36008 0.74339
 O633 O 0.22279 0.27322 0.64405
 O634 O 0.23906 0.21138 0.64332
 O635 O 0.14369 0.27827 0.72811
 O636 O 0.14916 0.25462 0.79501
 O637 O 0.17774 0.33706 0.75421
 O638 O 0.16781 0.30862 0.80905
 O639 O 0.16549 0.24843 0.67888
 O640 O 0.19952 0.18853 0.67252
 O641 O 0.24734 0.32534 0.66629
 O642 O 0.30930 0.32842 0.69193
 O643 O 0.26746 0.15144 0.76854
 O644 O 0.20384 0.15182 0.75520
 O645 O 0.27246 0.23592 0.85152
 O646 O 0.25260 0.29964 0.84992
 O647 O 0.35255 0.23531 0.76514
 O648 O 0.35056 0.25032 0.70247
 Zr649 Zr 0.30575 0.22973 0.73176
 O650 O 0.27266 0.26259 0.69682
 Zr651 Zr 0.27492 0.27102 0.80543
 O652 O 0.24057 0.30560 0.77329
 Zr653 Zr 0.23310 0.19748 0.77432
 O654 O 0.19699 0.22904 0.74113
 Zr655 Zr 0.26191 0.31323 0.72096
 O656 O 0.29893 0.28204 0.75453
 Zr657 Zr 0.22109 0.23884 0.69037
 O658 O 0.25559 0.20363 0.72205
 Zr659 Zr 0.18971 0.28106 0.76374
 O660 O 0.22274 0.24792 0.79961
 O661 O 0.28437 0.21993 0.78314
 O662 O 0.21052 0.29050 0.71182
 C663 C 0.29987 0.14791 0.75603
 C664 C 0.35664 0.24752 0.79759
 C665 C 0.25999 0.20341 0.85533
 C666 C 0.19564 0.36331 0.73925
 C667 C 0.23411 0.30607 0.64021
 C668 C 0.13940 0.26267 0.69712
 H669 H 0.28521 0.26577 0.67329
 H670 H 0.17354 0.21595 0.73915
 H671 H 0.30071 0.20420 0.79862
 H672 H 0.23796 0.32920 0.78590
 H673 H 0.31049 0.35182 0.75420
 H674 H 0.29412 0.33844 0.81257
 H675 H 0.17774 0.18313 0.68724
 H676 H 0.21207 0.14739 0.73001
 H677 H 0.30475 0.35292 0.68063
 H678 H 0.35297 0.27628 0.70937
 H679 H 0.12461 0.26376 0.78707
 H680 H 0.17920 0.19648 0.81903
 H681 H 0.30541 0.18581 0.67720
 H682 H 0.26471 0.21848 0.63929
 H683 H 0.22956 0.28732 0.85634
 H684 H 0.18828 0.32105 0.82148
 O685 O 0.18046 0.82559 0.24520
 O686 O 0.17034 0.79732 0.18741
 O687 O 0.17006 0.73611 0.31999
 O688 O 0.19828 0.68250 0.33197
 O689 O 0.25785 0.81268 0.33003
 O690 O 0.31564 0.81868 0.30031
 O691 O 0.26569 0.63984 0.22516
 O692 O 0.20835 0.63976 0.24875
 O693 O 0.27066 0.72462 0.14679
 O694 O 0.25355 0.78810 0.14458
 O695 O 0.35321 0.72119 0.23060
 O696 O 0.35571 0.73227 0.29316
 O697 O 0.31827 0.66158 0.25041
 O698 O 0.32759 0.69055 0.31360
 O699 O 0.32857 0.74814 0.17949
 O700 O 0.29612 0.80930 0.17185
 O701 O 0.24244 0.67431 0.16938
 O702 O 0.18208 0.67375 0.19733
 O703 O 0.23305 0.84757 0.27005
 O704 O 0.29540 0.84605 0.25389
 O705 O 0.23110 0.76192 0.35349
 O706 O 0.25115 0.69737 0.35180
 O707 O 0.14622 0.76502 0.26946
 O708 O 0.14483 0.75103 0.20613
 Zr709 Zr 0.19130 0.77022 0.23479
 O710 O 0.22180 0.73749 0.19938
 Zr711 Zr 0.22568 0.72729 0.30826
 O712 O 0.25712 0.69217 0.27573
 Zr713 Zr 0.26673 0.80079 0.27505
 O714 O 0.30048 0.76892 0.24188
 Zr715 Zr 0.23206 0.68642 0.22422
 O716 O 0.19806 0.71763 0.25838
 Zr717 Zr 0.27376 0.75986 0.19169
 O718 O 0.24144 0.79536 0.22340
 Zr719 Zr 0.30770 0.71631 0.26494
 O720 O 0.27777 0.75001 0.30084
 O721 O 0.21564 0.77887 0.28552
 O722 O 0.28365 0.70786 0.21387
 C723 C 0.20013 0.85156 0.25793
 C724 C 0.14323 0.75054 0.30141
 C725 C 0.24428 0.79416 0.35648
 C726 C 0.29899 0.63602 0.23613
 C727 C 0.25716 0.69257 0.14334
 C728 C 0.35564 0.73440 0.19806
 H729 H 0.20802 0.73491 0.17610
 H730 H 0.32393 0.78174 0.23906
 H731 H 0.20020 0.79440 0.30116
 H732 H 0.26008 0.66813 0.28820
 H733 H 0.18498 0.64805 0.25937
 H734 H 0.20405 0.66088 0.31711
 H735 H 0.31862 0.81414 0.18627
 H736 H 0.28581 0.85049 0.22877
 H737 H 0.18422 0.64844 0.18817
 H738 H 0.14078 0.72572 0.21496
 H739 H 0.35929 0.75849 0.28744
 H740 H 0.32305 0.79961 0.31851
 H741 H 0.18987 0.81365 0.17873
 H742 H 0.22819 0.78001 0.14009
 H743 H 0.27477 0.70929 0.35709
 H744 H 0.31421 0.66743 0.31703
 O745 O 0.33126 0.74276 0.68413
 O746 O 0.29792 0.68740 0.67601
 O747 O 0.24698 0.82409 0.66816
 O748 O 0.19291 0.83753 0.69320
 O749 O 0.32346 0.83329 0.75640
 O750 O 0.32990 0.80349 0.81504
 O751 O 0.14589 0.73834 0.76796
 O752 O 0.14585 0.75769 0.70818
 O753 O 0.22836 0.65254 0.77406
 O754 O 0.29312 0.65017 0.75996
 O755 O 0.22752 0.73868 0.85440
 O756 O 0.24534 0.80115 0.85428
 O757 O 0.16949 0.76537 0.81874
 O758 O 0.20391 0.82387 0.82595
 O759 O 0.25127 0.68584 0.83244
 O760 O 0.31132 0.67408 0.80480
 O761 O 0.17699 0.67817 0.74848
 O762 O 0.17550 0.70396 0.68676
 O763 O 0.35565 0.76997 0.73416
 O764 O 0.35445 0.75550 0.79725
 O765 O 0.27273 0.85781 0.72841
 O766 O 0.20903 0.85956 0.74506
 O767 O 0.27187 0.77106 0.64751
 O768 O 0.25388 0.70987 0.64832
 Zr769 Zr 0.27532 0.73735 0.69420
 O770 O 0.24111 0.70455 0.72586
 Zr771 Zr 0.23690 0.81369 0.72366
 O772 O 0.20078 0.78403 0.75658
 Zr773 Zr 0.30969 0.77839 0.76724
 O774 O 0.27660 0.74734 0.80221
 Zr775 Zr 0.19153 0.73214 0.73465
 O776 O 0.22406 0.76360 0.69905
 Zr777 Zr 0.26438 0.69695 0.77811
 O778 O 0.30100 0.72627 0.74499
 Zr779 Zr 0.22539 0.77331 0.80791
 O780 O 0.26024 0.80666 0.77628
 O781 O 0.28730 0.78838 0.71549
 O782 O 0.21365 0.72192 0.78675
 C783 C 0.35848 0.75472 0.70291
 C784 C 0.25984 0.80389 0.64279
 C785 C 0.30502 0.86031 0.74224
 C786 C 0.14294 0.75220 0.79979
 C787 C 0.19536 0.65070 0.76175
 C788 C 0.23839 0.70531 0.85823
 H789 H 0.23720 0.68121 0.71309
 H790 H 0.28944 0.74408 0.82600
 H791 H 0.30365 0.80285 0.69973
 H792 H 0.17767 0.79815 0.75844
 H793 H 0.15458 0.76754 0.68459
 H794 H 0.17046 0.82491 0.70076
 H795 H 0.31817 0.69020 0.82521
 H796 H 0.35623 0.72952 0.79014
 H797 H 0.15047 0.69447 0.69030
 H798 H 0.22822 0.71842 0.64514
 H799 H 0.27030 0.79165 0.85976
 H800 H 0.31132 0.82191 0.82206
 H801 H 0.31528 0.67862 0.69532
 H802 H 0.28231 0.64329 0.73612
 H803 H 0.22040 0.86451 0.76918
 H804 H 0.18279 0.83064 0.80993
 O805 O 0.25735 0.17586 0.16851
 O806 O 0.31298 0.16546 0.20268
 O807 O 0.18115 0.16363 0.25973
 O808 O 0.16569 0.19446 0.30911
 O809 O 0.16633 0.25363 0.17866
 O810 O 0.19894 0.30902 0.16746
 O811 O 0.27032 0.26542 0.35213
 O812 O 0.24919 0.20611 0.35414
 O813 O 0.35139 0.26657 0.26943
 O814 O 0.35201 0.24743 0.20545
 O815 O 0.26896 0.34771 0.27029
 O816 O 0.20471 0.34758 0.24430
 O817 O 0.24258 0.31596 0.32673
 O818 O 0.18481 0.32541 0.29654
 O819 O 0.31838 0.32432 0.24156
 O820 O 0.32738 0.29207 0.18427
 O821 O 0.32804 0.24124 0.32084
 O822 O 0.30141 0.18089 0.32445
 O823 O 0.22615 0.22516 0.14494
 O824 O 0.24367 0.28702 0.14316
 O825 O 0.14463 0.22239 0.22759
 O826 O 0.14537 0.24516 0.29014
 O827 O 0.22954 0.14088 0.22879
 O828 O 0.29121 0.13970 0.24712
 Zr829 Zr 0.26398 0.18634 0.22468
 O830 O 0.29866 0.21794 0.25775
 Zr831 Zr 0.19000 0.22010 0.26364
 O832 O 0.22170 0.25326 0.29797
 Zr833 Zr 0.22248 0.26033 0.18966
 O834 O 0.25581 0.29512 0.22083
 Zr835 Zr 0.27350 0.22965 0.30744
 O836 O 0.24038 0.19408 0.27631
 Zr837 Zr 0.30628 0.26923 0.23287
 O838 O 0.27465 0.23617 0.19780
 Zr839 Zr 0.23226 0.30353 0.27189
 O840 O 0.19660 0.27194 0.23907
 O841 O 0.21264 0.20930 0.21315
 O842 O 0.28366 0.28050 0.28341
 C843 C 0.24284 0.19432 0.14170
 C844 C 0.19927 0.13714 0.24560
 C845 C 0.14037 0.23860 0.19652
 C846 C 0.25641 0.29786 0.35409
 C847 C 0.35457 0.25409 0.30229
 C848 C 0.30055 0.35082 0.25586
 H849 H 0.32198 0.20441 0.26190
 H850 H 0.25849 0.31856 0.20738
 H851 H 0.19721 0.19343 0.19769
 H852 H 0.20876 0.25639 0.32121
 H853 H 0.23886 0.18245 0.34644
 H854 H 0.18113 0.19997 0.33068
 H855 H 0.31022 0.31159 0.17565
 H856 H 0.26892 0.27753 0.14032
 H857 H 0.31151 0.18455 0.34943
 H858 H 0.28385 0.13794 0.27296
 H859 H 0.21018 0.37079 0.25692
 H860 H 0.18300 0.31920 0.18647
 H861 H 0.32209 0.18446 0.18573
 H862 H 0.35975 0.22458 0.21832
 H863 H 0.13967 0.26827 0.27668
 H864 H 0.17576 0.30709 0.31420
 O865 O 0.81878 0.66589 0.24156
 O866 O 0.82977 0.69826 0.18607
 O867 O 0.82941 0.75460 0.31847
 O868 O 0.79498 0.81040 0.32848
 O869 O 0.73867 0.67777 0.32746
 O870 O 0.68469 0.66770 0.29286
 O871 O 0.72828 0.85091 0.22283
 O872 O 0.78530 0.85340 0.24640
 O873 O 0.72902 0.76837 0.14211
 O874 O 0.74502 0.70596 0.14062
 O875 O 0.64589 0.77081 0.22331
 O876 O 0.64540 0.74657 0.28579
 O877 O 0.67785 0.82745 0.24985
 O878 O 0.67010 0.79642 0.30852
 O879 O 0.66905 0.74112 0.17461
 O880 O 0.70438 0.68251 0.16699
 O881 O 0.75589 0.81854 0.16610
 O882 O 0.81448 0.82107 0.19730
 O883 O 0.76899 0.64324 0.27002
 O884 O 0.70750 0.64301 0.24847
 O885 O 0.76737 0.72705 0.35110
 O886 O 0.75082 0.78986 0.35064
 O887 O 0.85288 0.72529 0.26966
 O888 O 0.85403 0.74375 0.20710
 Zr889 Zr 0.80785 0.72207 0.23337
 O890 O 0.77630 0.75539 0.19734
 Zr891 Zr 0.77333 0.76226 0.30571
 O892 O 0.74054 0.79701 0.27249
 Zr893 Zr 0.73352 0.68889 0.27135
 O894 O 0.69895 0.72091 0.23706
 Zr895 Zr 0.76454 0.80569 0.22167
 O896 O 0.80004 0.77412 0.25651
 Zr897 Zr 0.72490 0.73223 0.18747
 O898 O 0.75820 0.69648 0.22027
 Zr899 Zr 0.69037 0.77228 0.26039
 O900 O 0.72168 0.73876 0.29690
 O901 O 0.78428 0.71129 0.28361
 O902 O 0.71352 0.78326 0.20962
 C903 C 0.80038 0.63945 0.25532
 C904 C 0.85619 0.74051 0.30090
 C905 C 0.75170 0.69596 0.35432
 C906 C 0.69609 0.85403 0.23626
 C907 C 0.74344 0.80018 0.13905
 C908 C 0.64240 0.75535 0.19226
 H909 H 0.79023 0.75882 0.17466
 H910 H 0.67566 0.70777 0.23379
 H911 H 0.79968 0.69550 0.29999
 H912 H 0.73751 0.82049 0.28524
 H913 H 0.80929 0.84664 0.25757
 H914 H 0.81394 0.81923 0.31170
 H915 H 0.68330 0.67547 0.18202
 H916 H 0.71853 0.63913 0.22430
 H917 H 0.81144 0.84621 0.18705
 H918 H 0.85721 0.76881 0.21644
 H919 H 0.62287 0.76163 0.28166
 H920 H 0.67371 0.68733 0.30762
 H921 H 0.81075 0.68193 0.17613
 H922 H 0.77067 0.71356 0.13763
 H923 H 0.72575 0.78047 0.35363
 H924 H 0.68668 0.81628 0.31584
 O925 O 0.66721 0.25061 0.82324
 O926 O 0.69554 0.19141 0.83181
 O927 O 0.75803 0.32227 0.83265
 O928 O 0.80800 0.33587 0.80332
 O929 O 0.67903 0.33506 0.73871
 O930 O 0.66734 0.30087 0.68655
 O931 O 0.85140 0.22764 0.73785
 O932 O 0.85187 0.24958 0.79606
 O933 O 0.76545 0.14735 0.73665
 O934 O 0.70212 0.14836 0.75025
 O935 O 0.76833 0.23114 0.65112
 O936 O 0.75436 0.29504 0.64806
 O937 O 0.82767 0.25256 0.68522
 O938 O 0.79746 0.31409 0.67430
 O939 O 0.74320 0.18001 0.67559
 O940 O 0.68202 0.17433 0.70597
 O941 O 0.81773 0.17068 0.76066
 O942 O 0.82046 0.19823 0.82064
 O943 O 0.64363 0.27475 0.77021
 O944 O 0.64318 0.25635 0.70840
 O945 O 0.72850 0.35680 0.76939
 O946 O 0.79293 0.35323 0.75136
 O947 O 0.73153 0.27188 0.85705
 O948 O 0.74101 0.20919 0.85852
 Zr949 Zr 0.72206 0.23846 0.81162
 O950 O 0.75462 0.20212 0.78173
 Zr951 Zr 0.76330 0.31080 0.77680
 O952 O 0.79813 0.27741 0.74604
 Zr953 Zr 0.68909 0.27828 0.73585
 O954 O 0.72072 0.24401 0.70271
 Zr955 Zr 0.80534 0.22583 0.77118
 O956 O 0.77433 0.26084 0.80455
 Zr957 Zr 0.73109 0.19380 0.72983
 O958 O 0.69600 0.22674 0.76152
 Zr959 Zr 0.77281 0.26640 0.69563
 O960 O 0.73942 0.30301 0.72488
 O961 O 0.71194 0.28953 0.78703
 O962 O 0.78268 0.21513 0.71975
 C963 C 0.64053 0.26285 0.80315
 C964 C 0.74680 0.30316 0.85991
 C965 C 0.69798 0.36129 0.75192
 C966 C 0.85426 0.23903 0.70474
 C967 C 0.79845 0.14399 0.74892
 C968 C 0.75641 0.19843 0.64881
 H969 H 0.75766 0.17903 0.79591
 H970 H 0.70763 0.24093 0.67915
 H971 H 0.69696 0.30620 0.80199
 H972 H 0.82184 0.28977 0.74327
 H973 H 0.84361 0.26048 0.81916
 H974 H 0.82888 0.31856 0.80184
 H975 H 0.67680 0.18887 0.68346
 H976 H 0.63997 0.23132 0.71839
 H977 H 0.84523 0.18736 0.81774
 H978 H 0.76767 0.21329 0.86031
 H979 H 0.72978 0.28585 0.64163
 H980 H 0.68710 0.31535 0.67546
 H981 H 0.67718 0.18445 0.81307
 H982 H 0.70993 0.14455 0.77602
 H983 H 0.78079 0.35841 0.72746
 H984 H 0.81941 0.31924 0.68942
 C985 C 0.07637 1.02226 1.21276
 C986 C 0.10371 0.99574 1.22095
 C987 C 0.11247 0.97192 1.19166
 C988 C 0.09725 0.97666 1.15663
 C989 C 0.07256 1.00537 1.14869
 C990 C 0.06038 1.02612 1.17808
 C991 C 0.05609 1.06651 1.18162
 C992 C 0.07384 1.06245 1.21937
 H993 H 0.13347 0.95099 1.19406
 H994 H 0.10607 0.95841 1.13536
 H995 H 0.02686 1.07516 1.18241
 H996 H 0.07298 1.08197 1.16185
 H997 H 0.05494 1.06907 1.24186
 H998 H 0.10085 1.07590 1.22080
 C999 C 0.59803 0.53906 0.68678
 C1000 C 0.59692 0.50948 0.71236
 C1001 C 0.57154 0.48160 0.70324
 C1002 C 0.55226 0.48177 0.66953
 C1003 C 0.55748 0.50990 0.64375
 C1004 C 0.57821 0.53955 0.65420
 C1005 C 0.60632 0.55968 0.63351
 C1006 C 0.62891 0.55870 0.66855
 H1007 H 0.56941 0.45746 0.72048
 H1008 H 0.53533 0.45868 0.66264
 H1009 H 0.59680 0.58766 0.62536
 H1010 H 0.61845 0.54327 0.61129
 H1011 H 0.63355 0.58653 0.67936
 H1012 H 0.65377 0.54144 0.66604
 C1013 C 0.43302 -0.00966 0.70946
 C1014 C 0.39807 0.00644 0.71523
 C1015 C 0.37968 0.01810 0.68229
 C1016 C 0.39472 0.01332 0.64742
 C1017 C 0.42893 -0.00399 0.64314
 C1018 C 0.44706 -0.01445 0.67529
 C1019 C 0.48078 -0.03390 0.68761
 C1020 C 0.46621 -0.02910 0.72621
 H1021 H 0.35276 0.02999 0.68237
 H1022 H 0.37895 0.02277 0.62376
 H1023 H 0.50575 -0.01787 0.68201
 H1024 H 0.48144 -0.06281 0.67860
 H1025 H 0.48430 -0.01116 0.74247
 H1026 H 0.46073 -0.05577 0.73959
 C1027 C -0.06660 0.50126 1.20843
 C1028 C -0.10422 0.49414 1.21158
 C1029 C -0.12442 0.49140 1.17813
 C1030 C -0.10754 0.49218 1.14424
 C1031 C -0.06952 0.49516 1.14194
 C1032 C -0.04986 0.50110 1.17449
 C1033 C -0.01527 0.48456 1.18934
 C1034 C -0.03304 0.48508 1.22665
 H1035 H -0.15389 0.48884 1.17823
 H1036 H -0.12434 0.48928 1.11983
 H1037 H 0.00813 0.50353 1.18708
 H1038 H -0.01021 0.45648 1.17914
 H1039 H -0.01957 0.50457 1.24543
 H1040 H -0.03708 0.45747 1.23858
 C1041 C -0.07697 0.51921 0.29234
 C1042 C -0.10420 0.49369 0.28358
 C1043 C -0.11371 0.46945 0.31279
 C1044 C -0.09909 0.47285 0.34821
 C1045 C -0.07432 0.50060 0.35656
 C1046 C -0.06165 0.52171 0.32728
 C1047 C -0.05694 0.56203 0.32379
 C1048 C -0.07402 0.55952 0.28575
 H1049 H -0.13475 0.44920 0.30985
 H1050 H -0.10835 0.45436 0.36939
 H1051 H -0.02762 0.56972 0.32352
 H1052 H -0.07407 0.57755 0.34321
 H1053 H -0.05466 0.56619 0.26362
 H1054 H -0.10087 0.57394 0.28383
 C1055 C 0.38603 0.98406 -0.18180
 C1056 C 0.40027 1.00049 -0.21340
 C1057 C 0.43546 1.01594 -0.20920
 C1058 C 0.45343 1.01718 -0.17476
 C1059 C 0.43638 1.00358 -0.14321
 C1060 C 0.40359 0.98518 -0.14822
 C1061 C 0.36867 0.98794 -0.12799
 C1062 C 0.34924 0.98649 -0.16484
 H1063 H 0.44791 1.03014 -0.23170
 H1064 H 0.47962 1.03054 -0.17266
 H1065 H 0.36526 1.01465 -0.11418
 H1066 H 0.36396 0.96339 -0.11053
 H1067 H 0.33432 1.01233 -0.17209
 H1068 H 0.33366 0.96082 -0.16826
 C1069 C 0.62117 0.50798 -0.18270
 C1070 C 0.60236 0.50299 -0.21626
 C1071 C 0.56511 0.49261 -0.21266
 C1072 C 0.54918 0.48655 -0.17815
 C1073 C 0.56925 0.49174 -0.14550
 C1074 C 0.60584 0.50123 -0.14889
 C1075 C 0.62666 0.53064 -0.13047
 C1076 C 0.64235 0.53960 -0.16738
 H1077 H 0.54678 0.49065 -0.23567
 H1078 H 0.52050 0.47965 -0.17715
 H1079 H 0.64733 0.51940 -0.11060
 H1080 H 0.60881 0.55284 -0.12000
 H1081 H 0.67247 0.53590 -0.16806
 H1082 H 0.63241 0.56685 -0.17707
 C1083 C 0.06545 -0.00237 0.29492
 C1084 C 0.10373 -0.00640 0.29261
 C1085 C 0.12336 -0.00990 0.32630
 C1086 C 0.10572 -0.01189 0.35974
 C1087 C 0.06745 -0.01112 0.36128
 C1088 C 0.04795 -0.00476 0.32845
 C1089 C 0.01576 -0.02380 0.31265
 C1090 C 0.03448 -0.02117 0.27594
 H1091 H 0.15287 -0.01124 0.32674
 H1092 H 0.12226 -0.01499 0.38442
 H1093 H -0.00964 -0.00687 0.31391
 H1094 H 0.01333 -0.05234 0.32308
 H1095 H 0.01951 -0.00272 0.25634
 H1096 H 0.04204 -0.04826 0.26485
 C1097 C 0.19350 1.10498 0.97121
 C1098 C 0.22209 1.10177 0.99753
 C1099 C 0.21518 1.07793 1.02761
 C1100 C 0.18019 1.06246 1.03278
 C1101 C 0.15081 1.07121 1.00857
 C1102 C 0.15941 1.09049 0.97686
 C1103 C 0.13982 1.11985 0.95557
 C1104 C 0.17723 1.13582 0.94849
 H1105 H 0.23612 1.07323 1.04844
 H1106 H 0.17565 1.04560 1.05677
 H1107 H 0.12247 1.13751 0.97291
 H1108 H 0.12635 1.10937 0.93047
 H1109 H 0.18104 1.16316 0.96045
 H1110 H 0.18467 1.13408 0.91926
 C1111 C 0.70251 0.56871 0.51711
 C1112 C 0.70574 0.60441 0.50220
 C1113 C 0.67218 0.62275 0.49319
 C1114 C 0.63813 0.60688 0.49873
 C1115 C 0.63538 0.57082 0.51180
 C1116 C 0.66811 0.55246 0.52154
 C1117 C 0.68079 0.51617 0.50870
 C1118 C 0.71772 0.53327 0.50306
 H1119 H 0.67185 0.64958 0.48039
 H1120 H 0.61390 0.62249 0.49062
 H1121 H 0.66710 0.50792 0.48280
 H1122 H 0.68092 0.49517 0.53093
 H1123 H 0.72549 0.53518 0.47387
 H1124 H 0.73893 0.52065 0.52145
 C1125 C 0.68471 0.37728 -0.01738
 C1126 C 0.71502 0.39210 0.00124
 C1127 C 0.70695 0.42478 0.02054
 C1128 C 0.67207 0.44244 0.01740
 C1129 C 0.64331 0.42677 -0.00309
 C1130 C 0.65107 0.39358 -0.01905
 C1131 C 0.63459 0.36590 -0.04328
 C1132 C 0.67241 0.34711 -0.04191
 H1133 H 0.72739 0.43705 0.03794
 H1134 H 0.66738 0.46773 0.03176
 H1135 H 0.62701 0.37746 -0.07063
 H1136 H 0.61295 0.34999 -0.02949
 H1137 H 0.68591 0.34768 -0.06882
 H1138 H 0.67236 0.31992 -0.02812
 C1139 C 0.20811 -0.06878 0.49297
 C1140 C 0.21312 -0.10719 0.49408
 C1141 C 0.18069 -0.12808 0.49373
 C1142 C 0.14583 -0.11199 0.49462
 C1143 C 0.14155 -0.07390 0.49356
 C1144 C 0.17319 -0.05276 0.49327
 C1145 C 0.18252 -0.02308 0.46707
 C1146 C 0.22010 -0.04051 0.46541
 H1147 H 0.18214 -0.15731 0.49089
 H1148 H 0.12215 -0.12951 0.49435
 H1149 H 0.18256 0.00419 0.48012
 H1150 H 0.16679 -0.02446 0.44089
 H1151 H 0.24153 -0.02193 0.47587
 H1152 H 0.22552 -0.05152 0.43799
 C1153 C 0.31758 -0.11889 0.47787
 C1154 C 0.28569 -0.10452 0.49378
 C1155 C 0.28991 -0.06935 0.50953
 C1156 C 0.32411 -0.05192 0.51137
 C1157 C 0.35577 -0.06915 0.49815
 C1158 C 0.35104 -0.10170 0.47952
 C1159 C 0.37203 -0.13679 0.48251
 C1160 C 0.33545 -0.15579 0.48067
 H1161 H 0.26784 -0.05577 0.52318
 H1162 H 0.32597 -0.02589 0.52500
 H1163 H 0.38645 -0.14041 0.50933
 H1164 H 0.38912 -0.14163 0.45819
 H1165 H 0.32889 -0.17043 0.50651
 H1166 H 0.33195 -0.17140 0.45505
 C1167 C -0.17967 0.37894 1.01660
 C1168 C -0.21309 0.39552 1.00566
 C1169 C -0.21164 0.43352 0.99715
 C1170 C -0.17799 0.45239 0.99811
 C1171 C -0.14486 0.43356 1.00635
 C1172 C -0.14715 0.39718 1.01750
 C1173 C -0.12536 0.36357 1.00935
 C1174 C -0.16153 0.34321 1.00847
 H1175 H -0.23567 0.44850 0.98771
 H1176 H -0.17764 0.48105 0.99026
 H1177 H -0.10711 0.35506 1.03261
 H1178 H -0.11205 0.36502 0.98230
 H1179 H -0.16413 0.32303 1.03123
 H1180 H -0.16857 0.33291 0.98087
 C1181 C -0.19845 0.60156 0.46559
 C1182 C -0.22273 0.59991 0.49554
 C1183 C -0.21219 0.57451 0.52369
 C1184 C -0.17858 0.55479 0.52284
 C1185 C -0.15444 0.55970 0.49369
 C1186 C -0.16610 0.58136 0.46449
 C1187 C -0.14525 0.61028 0.44574
 C1188 C -0.17971 0.63324 0.44726
 H1189 H -0.22880 0.57164 0.54771
 H1190 H -0.17058 0.53747 0.54589
 H1191 H -0.13766 0.60247 0.41761
 H1192 H -0.12264 0.62068 0.46316
 H1193 H -0.19078 0.63942 0.41945
 H1194 H -0.17653 0.65725 0.46529
 C1195 C 0.29672 1.06548 -0.00132
 C1196 C 0.29305 1.10388 -0.00373
 C1197 C 0.32625 1.12364 -0.00589
 C1198 C 0.36036 1.10596 -0.00805
 C1199 C 0.36304 1.06761 -0.00892
 C1200 C 0.33072 1.04805 -0.00384
 C1201 C 0.31534 1.01639 -0.02379
 C1202 C 0.27806 1.03509 -0.02095
 H1203 H 0.32572 1.15326 -0.00607
 H1204 H 0.38462 1.12253 -0.00999
 H1205 H 0.31770 0.99054 -0.00755
 H1206 H 0.32523 1.01476 -0.05228
 H1207 H 0.25920 1.01979 -0.00300
 H1208 H 0.26617 1.04333 -0.04789
 C1209 C 0.02204 1.21139 1.07794
 C1210 C -0.00367 1.21774 1.10563
 C1211 C -0.02496 1.18670 1.11519
 C1212 C -0.01950 1.15241 1.09936
 C1213 C 0.00757 1.14688 1.07314
 C1214 C 0.02624 1.17777 1.06103
 C1215 C 0.06596 1.18341 1.05489
 C1216 C 0.06162 1.22003 1.07377
 H1217 H -0.04470 1.18747 1.13678
 H1218 H -0.03609 1.12989 1.10863
 H1219 H 0.07223 1.18623 1.02540
 H1220 H 0.08360 1.16344 1.07043
 H1221 H 0.06593 1.24392 1.05531
 H1222 H 0.07711 1.22030 1.10002
 C1223 C 0.50743 0.70683 0.56565
 C1224 C 0.49907 0.70951 0.60320
 C1225 C 0.49243 0.67593 0.62166
 C1226 C 0.49569 0.64214 0.60489
 C1227 C 0.50377 0.63989 0.56783
 C1228 C 0.50998 0.67258 0.54870
 C1229 C 0.49062 0.68503 0.51478
 C1230 C 0.48641 0.72169 0.53267
 H1231 H 0.48410 0.67550 0.64982
 H1232 H 0.49029 0.61776 0.62095
 H1233 H 0.46418 0.67096 0.51017
 H1234 H 0.50909 0.68550 0.49097
 H1235 H 0.45755 0.72880 0.53847
 H1236 H 0.50083 0.74319 0.51711
 C1237 C -0.02386 0.70724 0.42867
 C1238 C -0.00138 0.71235 0.39808
 C1239 C 0.01587 0.68005 0.38521
 C1240 C 0.01009 0.64564 0.40125
 C1241 C -0.01382 0.64117 0.43072
 C1242 C -0.02894 0.67305 0.44522
 C1243 C -0.06774 0.68186 0.45370
 C1244 C -0.06217 0.71913 0.43603
 H1245 H 0.03268 0.68052 0.36121
 H1246 H 0.02390 0.62227 0.38962
 H1247 H -0.07249 0.68308 0.48355
 H1248 H -0.08721 0.66489 0.43796
 H1249 H -0.06337 0.74181 0.45588
 H1250 H -0.07920 0.72298 0.41090
 C1251 C 0.52200 1.18101 -0.11720
 C1252 C 0.50468 1.21152 -0.10141
 C1253 C 0.48564 1.20477 -0.06856
 C1254 C 0.48278 1.16936 -0.05355
 C1255 C 0.49968 1.13924 -0.07012
 C1256 C 0.51927 1.14581 -0.10197
 C1257 C 0.55850 1.13665 -0.10745
 C1258 C 0.56245 1.17504 -0.12220
 H1259 H 0.47078 1.22655 -0.05540
 H1260 H 0.46737 1.16569 -0.02880
 H1261 H 0.56215 1.11533 -0.12847
 H1262 H 0.57390 1.13156 -0.08139
 H1263 H 0.57098 1.17554 -0.15110
 H1264 H 0.57936 1.19236 -0.10397
 C1265 C 0.47443 0.31261 -0.11531
 C1266 C 0.49208 0.28143 -0.09996
 C1267 C 0.51165 0.28657 -0.06666
 C1268 C 0.51614 0.32150 -0.05183
 C1269 C 0.50005 0.35250 -0.06893
 C1270 C 0.47863 0.34728 -0.10030
 C1271 C 0.43913 0.35694 -0.10449
 C1272 C 0.43380 0.31906 -0.11911
 H1273 H 0.52590 0.26394 -0.05315
 H1274 H 0.53243 0.32415 -0.02708
 H1275 H 0.43427 0.37889 -0.12537
 H1276 H 0.42550 0.36141 -0.07796
 H1277 H 0.42364 0.31942 -0.14780
 H1278 H 0.41792 0.30120 -0.10051
 C1279 C 0.00581 -0.18210 0.37947
 C1280 C 0.00362 -0.21591 0.39791
 C1281 C 0.00755 -0.21383 0.43661
 C1282 C 0.01027 -0.17947 0.45435
 C1283 C 0.00974 -0.14613 0.43406
 C1284 C 0.00812 -0.14947 0.39645
 C1285 C 0.00659 -0.12760 0.36195
 C1286 C 0.00431 -0.16447 0.34238
 H1287 H 0.00919 -0.23814 0.45355
 H1288 H 0.01218 -0.17908 0.48387
 H1289 H 0.03247 -0.11281 0.35705
 H1290 H -0.01887 -0.11078 0.35928
 H1291 H 0.02900 -0.17062 0.32618
 H1292 H -0.02222 -0.16849 0.32787
 C1293 C 0.51324 -0.21063 0.57078
 C1294 C 0.49153 -0.21925 0.60126
 C1295 C 0.46665 -0.19073 0.61150
 C1296 C 0.46650 -0.15598 0.59467
 C1297 C 0.49060 -0.14814 0.56648
 C1298 C 0.51152 -0.17694 0.55309
 C1299 C 0.55017 -0.17915 0.54112
 C1300 C 0.55241 -0.21651 0.56014
 H1301 H 0.44837 -0.19365 0.63413
 H1302 H 0.44844 -0.13477 0.60469
 H1303 H 0.56768 -0.15824 0.55425
 H1304 H 0.55220 -0.18069 0.51093
 H1305 H 0.57256 -0.21709 0.58297
 H1306 H 0.55628 -0.23908 0.54058
 C1307 C -0.01162 0.32350 1.12310
 C1308 C -0.00842 0.28966 1.10519
 C1309 C -0.00694 0.29183 1.06643
 C1310 C -0.00793 0.32597 1.04770
 C1311 C -0.01071 0.35893 1.06703
 C1312 C -0.01143 0.35663 1.10482
 C1313 C -0.03642 0.37470 1.13087
 C1314 C -0.03685 0.33837 1.15141
 H1315 H -0.00610 0.26769 1.04995
 H1316 H -0.00667 0.32654 1.01818
 H1317 H -0.06328 0.38251 1.11817
 H1318 H -0.02263 0.39671 1.14632
 H1319 H -0.06439 0.32595 1.15115
 H1320 H -0.02355 0.34045 1.17869
 C1321 C 0.74193 0.31390 0.04634
 C1322 C 0.75128 0.35082 0.04139
 C1323 C 0.76088 0.37001 0.07369
 C1324 C 0.76315 0.35275 0.10794
 C1325 C 0.75485 0.31570 0.11188
 C1326 C 0.74461 0.29647 0.08064
 C1327 C 0.70983 0.27639 0.07502
 C1328 C 0.70596 0.29609 0.03857
 H1329 H 0.76724 0.39882 0.07260
 H1330 H 0.77079 0.36867 0.13156
 H1331 H 0.68837 0.28423 0.09473
 H1332 H 0.71464 0.24645 0.07254
 H1333 H 0.68275 0.31605 0.03768
 H1334 H 0.70673 0.27699 0.01528
 C1335 C 0.24430 0.81491 0.54096
 C1336 C 0.25155 0.85229 0.53445
 C1337 C 0.26012 0.87302 0.56590
 C1338 C 0.26539 0.85695 0.60040
 C1339 C 0.26081 0.81942 0.60566
 C1340 C 0.25086 0.79841 0.57550
 C1341 C 0.21774 0.77545 0.57399
 C1342 C 0.20768 0.79597 0.53942
 H1343 H 0.26197 0.90224 0.56479
 H1344 H 0.27158 0.87431 0.62339
 H1345 H 0.19848 0.78053 0.59662
 H1346 H 0.22473 0.74617 0.56958
 H1347 H 0.18427 0.81486 0.54430
 H1348 H 0.20338 0.77774 0.51585
 C1349 C 0.77407 0.64585 0.55865
 C1350 C 0.74561 0.65062 0.53257
 C1351 C 0.71657 0.67443 0.54287
 C1352 C 0.71585 0.69116 0.57719
 C1353 C 0.74416 0.68494 0.60283
 C1354 C 0.77307 0.66193 0.59298
 C1355 C 0.81267 0.67110 0.59233
 C1356 C 0.81377 0.65442 0.55477
 H1357 H 0.69386 0.68056 0.52485
 H1358 H 0.69288 0.70875 0.58374
 H1359 H 0.82880 0.65521 0.61324
 H1360 H 0.81751 0.70108 0.59213
 H1361 H 0.83141 0.62949 0.55400
 H1362 H 0.81868 0.67478 0.53261
 C1363 C 0.22683 0.17372 0.04123
 C1364 C 0.25548 0.14881 0.03300
 C1365 C 0.28105 0.14177 0.06225
 C1366 C 0.27714 0.15706 0.09684
 C1367 C 0.24730 0.17985 0.10457
 C1368 C 0.22368 0.18956 0.07558
 C1369 C 0.18305 0.18935 0.07455
 C1370 C 0.18586 0.17166 0.03751
 H1371 H 0.30329 0.12230 0.06018
 H1372 H 0.29701 0.14977 0.11806
 H1373 H 0.17114 0.21748 0.07323
 H1374 H 0.17139 0.17109 0.09581
 H1375 H 0.17409 0.18966 0.01561
 H1376 H 0.17524 0.14340 0.03786
 C1377 C 0.26500 0.18650 0.95809
 C1378 C 0.25775 0.14872 0.96102
 C1379 C 0.25961 0.12905 0.92786
 C1380 C 0.26197 0.14670 0.89388
 C1381 C 0.26375 0.18495 0.89137
 C1382 C 0.26818 0.20391 0.92411
 C1383 C 0.25101 0.23852 0.93640
 C1384 C 0.24674 0.21975 0.97332
 H1385 H 0.25742 0.09965 0.92806
 H1386 H 0.26087 0.13028 0.86950
 H1387 H 0.22453 0.24471 0.92212
 H1388 H 0.27075 0.26139 0.93697
 H1389 H 0.21759 0.21560 0.97972
 H1390 H 0.26337 0.23240 0.99535
 C1391 C 0.75390 0.68307 0.45756
 C1392 C 0.73953 0.64775 0.46224
 C1393 C 0.73085 0.62832 0.43003
 C1394 C 0.73524 0.64381 0.39532
 C1395 C 0.74856 0.67949 0.39110
 C1396 C 0.75852 0.69830 0.42277
 C1397 C 0.74744 0.73562 0.43424
 C1398 C 0.74135 0.71923 0.47187
 H1399 H 0.72192 0.60022 0.43172
 H1400 H 0.72817 0.62757 0.37178
 H1401 H 0.72182 0.74553 0.42039
 H1402 H 0.77062 0.75498 0.43347
 H1403 H 0.71201 0.71970 0.47919
 H1404 H 0.76040 0.72988 0.49305
 C1405 C 0.24491 0.80920 0.45910
 C1406 C 0.24971 0.84767 0.46127
 C1407 C 0.24872 0.86728 0.42757
 C1408 C 0.24502 0.85014 0.39403
 C1409 C 0.24272 0.81208 0.39218
 C1410 C 0.24126 0.79226 0.42505
 C1411 C 0.26316 0.75937 0.43562
 C1412 C 0.26849 0.77706 0.47228
 H1413 H 0.25205 0.89649 0.42705
 H1414 H 0.24545 0.86685 0.36938
 H1415 H 0.28885 0.75676 0.41997
 H1416 H 0.24618 0.73438 0.43669
 H1417 H 0.29735 0.78353 0.47802
 H1418 H 0.25642 0.76007 0.49412
 C1419 C 0.76241 0.37031 0.93541
 C1420 C 0.75732 0.35014 0.96805
 C1421 C 0.75773 0.31150 0.96383
 C1422 C 0.75431 0.29573 0.92875
 C1423 C 0.75291 0.31796 0.89691
 C1424 C 0.76078 0.35470 0.90144
 C1425 C 0.74478 0.38817 0.88391
 C1426 C 0.74806 0.40626 0.92083
 H1427 H 0.75995 0.29287 0.98660
 H1428 H 0.75217 0.26631 0.92669
 H1429 H 0.71590 0.38355 0.87563
 H1430 H 0.76292 0.40012 0.86295
 H1431 H 0.72114 0.41484 0.93148
 H1432 H 0.76924 0.42780 0.92129
 C1433 C 0.86940 0.42585 0.24209
 C1434 C 0.85088 0.45960 0.24441
 C1435 C 0.81203 0.45741 0.24263
 C1436 C 0.79438 0.42288 0.24105
 C1437 C 0.81499 0.38973 0.24106
 C1438 C 0.85255 0.39319 0.24103
 C1439 C 0.88711 0.37141 0.24125
 C1440 C 0.90657 0.40839 0.24216
 H1441 H 0.79501 0.48172 0.24235
 H1442 H 0.76478 0.42219 0.24069
 H1443 H 0.89091 0.35634 0.21539
 H1444 H 0.89098 0.35489 0.26675
 H1445 H 0.92147 0.41437 0.21660
 H1446 H 0.92209 0.41284 0.26803
 C1447 C 0.31630 0.96357 0.74256
 C1448 C 0.35452 0.96791 0.74821
 C1449 C 0.37557 0.93490 0.74803
 C1450 C 0.35998 0.90032 0.74458
 C1451 C 0.32209 0.89669 0.74136
 C1452 C 0.30099 0.92884 0.73908
 C1453 C 0.26752 0.93803 0.75948
 C1454 C 0.28327 0.97580 0.76380
 H1455 H 0.40457 0.93551 0.75260
 H1456 H 0.37767 0.87633 0.74595
 H1457 H 0.26566 0.92253 0.78571
 H1458 H 0.24256 0.93761 0.74175
 H1459 H 0.28914 0.98264 0.79256
 H1460 H 0.26562 0.99643 0.74931
 C1461 C 0.18643 0.95479 0.25514
 C1462 C 0.14833 0.95851 0.25924
 C1463 C 0.12807 0.92566 0.26096
 C1464 C 0.14496 0.89135 0.26016
 C1465 C 0.18309 0.88811 0.25864
 C1466 C 0.20327 0.92030 0.25511
 C1467 C 0.23563 0.93271 0.27653
 C1468 C 0.21759 0.97034 0.27675
 H1469 H 0.09863 0.92656 0.26239
 H1470 H 0.12804 0.86728 0.26177
 H1471 H 0.26107 0.93179 0.26035
 H1472 H 0.23775 0.91954 0.30405
 H1473 H 0.23307 0.99093 0.26086
 H1474 H 0.20991 0.97913 0.30449
 C1475 C 0.67518 0.46031 0.77020
 C1476 C 0.64853 0.47110 0.74360
 C1477 C 0.64504 0.44528 0.71459
 C1478 C 0.66052 0.40947 0.71710
 C1479 C 0.68373 0.39910 0.74660
 C1480 C 0.69286 0.42702 0.77002
 C1481 C 0.71347 0.43206 0.80426
 C1482 C 0.69476 0.46953 0.80537
 H1483 H 0.63004 0.45159 0.68974
 H1484 H 0.65452 0.39014 0.69573
 H1485 H 0.74349 0.43298 0.80016
 H1486 H 0.70366 0.41290 0.82532
 H1487 H 0.71411 0.49251 0.80227
 H1488 H 0.67735 0.47065 0.82974
 C1489 C 0.68364 0.54425 0.74627
 C1490 C 0.64534 0.54166 0.74875
 C1491 C 0.62598 0.57502 0.75418
 C1492 C 0.64354 0.60889 0.75301
 C1493 C 0.68106 0.61100 0.74538
 C1494 C 0.70067 0.57791 0.74415
 C1495 C 0.72960 0.56419 0.71950
 C1496 C 0.71167 0.52684 0.72247
 H1497 H 0.59668 0.57487 0.75808
 H1498 H 0.62718 0.63346 0.75629
 H1499 H 0.75726 0.56489 0.73251
 H1500 H 0.72739 0.57659 0.69165
 H1501 H 0.72916 0.50657 0.73768
 H1502 H 0.70055 0.51667 0.69625
 C1503 C 0.17784 0.03670 0.23211
 C1504 C 0.15016 0.02989 0.25764
 C1505 C 0.14282 0.05916 0.28194
 C1506 C 0.15977 0.09312 0.27857
 C1507 C 0.18468 0.09997 0.25065
 C1508 C 0.19538 0.07022 0.22951
 C1509 C 0.19978 0.06733 0.18931
 C1510 C 0.18023 0.03090 0.19189
 H1511 H 0.12175 0.05772 0.30217
 H1512 H 0.15177 0.11465 0.29694
 H1513 H 0.22896 0.06445 0.18169
 H1514 H 0.18396 0.08875 0.17377
 H1515 H 0.19800 0.00709 0.18527
 H1516 H 0.15329 0.03202 0.17751
 C1517 C 0.36828 0.07145 0.77410
 C1518 C 0.35360 0.04102 0.75537
 C1519 C 0.31878 0.04753 0.73851
 C1520 C 0.30008 0.08136 0.74090
 C1521 C 0.31664 0.11120 0.75784
 C1522 C 0.35030 0.10524 0.77514
 C1523 C 0.38418 0.12685 0.77181
 C1524 C 0.40429 0.09057 0.77025
 H1525 H 0.30689 0.02800 0.72034
 H1526 H 0.27404 0.08505 0.72671
 H1527 H 0.39036 0.14247 0.79696
 H1528 H 0.38538 0.14286 0.74584
 H1529 H 0.42268 0.08665 0.79446
 H1530 H 0.41716 0.08569 0.74341
 C1531 C 0.82273 0.53864 0.27220
 C1532 C 0.85024 0.53113 0.24667
 C1533 C 0.85786 0.56055 0.22198
 C1534 C 0.84107 0.59494 0.22467
 C1535 C 0.81595 0.60222 0.25219
 C1536 C 0.80526 0.57268 0.27409
 C1537 C 0.80142 0.56986 0.31446
 C1538 C 0.82082 0.53288 0.31261
 H1539 H 0.87883 0.55878 0.20170
 H1540 H 0.84904 0.61636 0.20579
 H1541 H 0.77235 0.56782 0.32256
 H1542 H 0.81750 0.59082 0.32923
 H1543 H 0.80307 0.50956 0.32005
 H1544 H 0.84797 0.53314 0.32660
 C1545 C 0.95594 0.24909 0.18813
 C1546 C 0.95870 0.25338 0.15004
 C1547 C 0.92508 0.25472 0.12995
 C1548 C 0.89124 0.25607 0.14738
 C1549 C 0.88941 0.25644 0.18569
 C1550 C 0.92237 0.25108 0.20522
 C1551 C 0.93816 0.26835 0.23841
 C1552 C 0.97531 0.26530 0.22021
 H1553 H 0.92513 0.25565 0.10038
 H1554 H 0.86655 0.25799 0.13068
 H1555 H 0.93590 0.25054 0.26308
 H1556 H 0.92858 0.29708 0.24162
 H1557 H 0.99385 0.24515 0.23432
 H1558 H 0.98804 0.29198 0.21421
 C1559 C 0.43055 0.72932 0.63587
 C1560 C 0.46364 0.74240 0.65043
 C1561 C 0.46219 0.75560 0.68672
 C1562 C 0.42820 0.75924 0.70475
 C1563 C 0.39509 0.74946 0.68705
 C1564 C 0.39800 0.73195 0.65369
 C1565 C 0.37626 0.73517 0.61891
 C1566 C 0.41236 0.73187 0.59909
 H1567 H 0.48653 0.76570 0.70016
 H1568 H 0.42775 0.77122 0.73161
 H1569 H 0.36276 0.76244 0.61526
 H1570 H 0.35817 0.71132 0.61470
 H1571 H 0.41912 0.75711 0.58357
 H1572 H 0.41498 0.70593 0.58380
 C1573 C 0.45854 0.25500 0.81504
 C1574 C 0.46331 0.24256 0.85173
 C1575 C 0.43102 0.22878 0.86807
 C1576 C 0.39692 0.22937 0.85003
 C1577 C 0.39307 0.24390 0.81472
 C1578 C 0.42471 0.25452 0.79692
 C1579 C 0.43163 0.28855 0.77559
 C1580 C 0.46868 0.28956 0.79484
 H1581 H 0.43045 0.21983 0.89602
 H1582 H 0.37312 0.21991 0.86449
 H1583 H 0.41308 0.31152 0.78299
 H1584 H 0.43343 0.28329 0.74585
 H1585 H 0.47218 0.31374 0.81237
 H1586 H 0.49112 0.28583 0.77516
 C1587 C 0.93533 0.77362 0.35841
 C1588 C 0.96504 0.74986 0.35184
 C1589 C 0.95777 0.72270 0.32518
 C1590 C 0.92280 0.71978 0.30776
 C1591 C 0.89330 0.74301 0.31737
 C1592 C 0.90162 0.76976 0.34262
 C1593 C 0.88331 0.79675 0.36631
 C1594 C 0.92097 0.80144 0.38455
 H1595 H 0.97880 0.70292 0.31853
 H1596 H 0.91860 0.69847 0.28793
 H1597 H 0.86305 0.78382 0.38457
 H1598 H 0.87347 0.82137 0.35078
 H1599 H 0.92198 0.79191 0.41343
 H1600 H 0.93195 0.82925 0.37984
 C1601 C 0.06993 0.74471 0.37207
 C1602 C 0.03623 0.74875 0.35358
 C1603 C 0.03886 0.75476 0.31519
 C1604 C 0.07355 0.75572 0.29784
 C1605 C 0.10668 0.75055 0.31818
 C1606 C 0.10279 0.74503 0.35544
 C1607 C 0.12404 0.73978 0.39014
 C1608 C 0.08683 0.73940 0.40916
 H1609 H 0.01460 0.75969 0.29852
 H1610 H 0.07432 0.76039 0.26862
 H1611 H 0.14083 0.76400 0.39687
 H1612 H 0.13878 0.71300 0.39142
 H1613 H 0.08240 0.76338 0.42694
 H1614 H 0.08022 0.71243 0.42160
 C1615 C 0.53908 0.24950 0.81658
 C1616 C 0.53464 0.25467 0.85447
 C1617 C 0.56681 0.26540 0.87380
 C1618 C 0.60039 0.27028 0.85671
 C1619 C 0.60406 0.26366 0.81946
 C1620 C 0.57261 0.25448 0.79962
 C1621 C 0.56706 0.22339 0.77437
 C1622 C 0.53039 0.21778 0.79226
 H1623 H 0.56766 0.26762 0.90295
 H1624 H 0.62408 0.27724 0.87324
 H1625 H 0.58681 0.20046 0.77962
 H1626 H 0.56461 0.23272 0.74541
 H1627 H 0.52812 0.19125 0.80694
 H1628 H 0.50745 0.22330 0.77268
 C1629 C 0.54972 0.71987 0.66945
 C1630 C 0.53357 0.74887 0.64853
 C1631 C 0.55421 0.78197 0.64959
 C1632 C 0.59037 0.78298 0.66433
 C1633 C 0.60603 0.75203 0.68202
 C1634 C 0.58340 0.72230 0.68599
 C1635 C 0.58525 0.68445 0.70033
 C1636 C 0.54771 0.68043 0.68207
 H1637 H 0.54360 0.80717 0.63759
 H1638 H 0.60578 0.80800 0.66216
 H1639 H 0.58466 0.68331 0.73064
 H1640 H 0.60720 0.66797 0.68746
 H1641 H 0.52551 0.67578 0.70193
 H1642 H 0.54941 0.66038 0.65966
 C1643 C 0.05960 0.27644 0.14274
 C1644 C 0.03012 0.25353 0.15193
 C1645 C 0.03914 0.22286 0.17475
 C1646 C 0.07492 0.21714 0.18912
 C1647 C 0.10325 0.24126 0.18018
 C1648 C 0.09491 0.26999 0.15606
 C1649 C 0.10338 0.30928 0.16041
 C1650 C 0.06473 0.31694 0.14726
 H1651 H 0.01859 0.20272 0.18083
 H1652 H 0.08036 0.19388 0.20711
 H1653 H 0.12432 0.31866 0.14085
 H1654 H 0.10838 0.31688 0.18935
 H1655 H 0.06382 0.33208 0.12072
 H1656 H 0.04735 0.32864 0.16895
 C1657 C -0.06079 1.00082 0.79184
 C1658 C -0.09931 1.00339 0.78887
 C1659 C -0.11797 1.01098 0.82175
 C1660 C -0.09985 1.01234 0.85552
 C1661 C -0.06211 1.00538 0.85853
 C1662 C -0.04287 1.00181 0.82595
 C1663 C -0.01477 0.97419 0.81618
 C1664 C -0.03435 0.97199 0.77953
 H1665 H -0.14746 1.01411 0.82164
 H1666 H -0.11613 1.01665 0.87955
 H1667 H -0.01640 0.94858 0.83280
 H1668 H 0.01293 0.98621 0.81443
 H1669 H -0.04733 0.94506 0.77594
 H1670 H -0.01727 0.98151 0.75653
 C1671 C 0.42631 0.47163 0.28873
 C1672 C 0.39670 0.49553 0.28034
 C1673 C 0.38649 0.51972 0.30868
 C1674 C 0.40361 0.51854 0.34304
 C1675 C 0.43127 0.49266 0.35138
 C1676 C 0.44372 0.47087 0.32287
 C1677 C 0.45027 0.43055 0.32158
 C1678 C 0.43120 0.43130 0.28430
 H1679 H 0.36340 0.53833 0.30582
 H1680 H 0.39380 0.53704 0.36366
 H1681 H 0.43494 0.41533 0.34278
 H1682 H 0.47987 0.42348 0.32028
 H1683 H 0.40508 0.41614 0.28433
 H1684 H 0.44982 0.42462 0.26159
 C1685 C 0.62181 -0.00853 0.32345
 C1686 C 0.60342 -0.00185 0.29017
 C1687 C 0.56646 0.01024 0.29338
 C1688 C 0.55010 0.01394 0.32827
 C1689 C 0.57010 0.00564 0.36103
 C1690 C 0.60582 -0.00628 0.35646
 C1691 C 0.63936 -0.01836 0.37686
 C1692 C 0.65793 -0.01994 0.33969
 H1693 H 0.55045 0.01803 0.26939
 H1694 H 0.52195 0.02331 0.32946
 H1695 H 0.63632 -0.04563 0.39014
 H1696 H 0.65025 0.00331 0.39436
 H1697 H 0.66667 -0.04801 0.33219
 H1698 H 0.67885 0.00152 0.33647
 C1699 C 0.06327 0.51392 0.79157
 C1700 C 0.10117 0.50897 0.78790
 C1701 C 0.12166 0.51017 0.82140
 C1702 C 0.10473 0.51311 0.85550
 C1703 C 0.06646 0.51675 0.85792
 C1704 C 0.04715 0.51819 0.82479
 C1705 C 0.00967 0.52289 0.80926
 C1706 C 0.02737 0.51862 0.77173
 H1707 H 0.15121 0.50799 0.82124
 H1708 H 0.12181 0.51241 0.87996
 H1709 H -0.00170 0.55074 0.81393
 H1710 H -0.00837 0.49985 0.81687
 H1711 H 0.02617 0.54402 0.75469
 H1712 H 0.01826 0.49345 0.75783
 C1713 C 0.07067 0.48075 0.71013
 C1714 C 0.09885 0.50614 0.71623
 C1715 C 0.10784 0.52819 0.68537
 C1716 C 0.09042 0.52439 0.65133
 C1717 C 0.06372 0.49765 0.64570
 C1718 C 0.05297 0.47737 0.67625
 C1719 C 0.04905 0.43708 0.68068
 C1720 C 0.06826 0.44051 0.71755
 H1721 H 0.13009 0.54734 0.68624
 H1722 H 0.09909 0.54171 0.62894
 H1723 H 0.06521 0.42140 0.66058
 H1724 H 0.01995 0.42899 0.68282
 H1725 H 0.09532 0.42636 0.71861
 H1726 H 0.04981 0.43410 0.74048
 C1727 C 0.61423 1.01823 0.18772
 C1728 C 0.60220 0.99940 0.21892
 C1729 C 0.57217 0.97574 0.21259
 C1730 C 0.55636 0.97172 0.17711
 C1731 C 0.57082 0.99038 0.14653
 C1732 C 0.59958 1.01364 0.15387
 C1733 C 0.62663 1.03708 0.13523
 C1734 C 0.64370 1.04242 0.17328
 H1735 H 0.56141 0.95962 0.23473
 H1736 H 0.53362 0.95334 0.17360
 H1737 H 0.61392 1.06238 0.12327
 H1738 H 0.64441 1.02123 0.11668
 H1739 H 0.64118 1.07108 0.18271
 H1740 H 0.67155 1.03024 0.17610
 C1741 C 0.37794 0.49433 0.17510
 C1742 C 0.39649 0.49452 0.20903
 C1743 C 0.43495 0.49987 0.20683
 C1744 C 0.45234 0.50338 0.17237
 C1745 C 0.43186 0.50192 0.13917
 C1746 C 0.39462 0.49725 0.14257
 C1747 C 0.36014 0.49527 0.12073
 C1748 C 0.34081 0.49207 0.15751
 H1749 H 0.45174 0.50247 0.23113
 H1750 H 0.48166 0.50709 0.17183
 H1751 H 0.35872 0.47006 0.10416
 H1752 H 0.35392 0.52133 0.10584
 H1753 H 0.32776 0.46512 0.16191
 H1754 H 0.32315 0.51623 0.16298
 C1755 C -0.07579 -0.02544 0.70672
 C1756 C -0.10140 0.00200 0.71647
 C1757 C -0.10886 0.02927 0.68878
 C1758 C -0.09137 0.02952 0.65510
 C1759 C -0.06654 0.00194 0.64650
 C1760 C -0.05801 -0.02470 0.67307
 C1761 C -0.05932 -0.06497 0.66864
 C1762 C -0.07996 -0.06629 0.70403
 H1763 H -0.12957 0.05025 0.69147
 H1764 H -0.09858 0.05056 0.63502
 H1765 H -0.03165 -0.07784 0.67075
 H1766 H -0.07603 -0.07324 0.64454
 H1767 H -0.06492 -0.08224 0.72552
 H1768 H -0.10869 -0.07483 0.69963
 C1769 C -0.17083 0.87956 0.99636
 C1770 C -0.20500 0.89754 0.99538
 C1771 C -0.20311 0.93631 0.99112
 C1772 C -0.16874 0.95445 0.98949
 C1773 C -0.13514 0.93453 0.99196
 C1774 C -0.13829 0.89689 0.99525
 C1775 C -0.11630 0.86244 0.99836
 C1776 C -0.15309 0.84258 0.99936
 H1777 H -0.22765 0.95285 0.98816
 H1778 H -0.16857 0.98396 0.98659
 H1779 H -0.10047 0.86045 1.02449
 H1780 H -0.10047 0.85695 0.97336
 H1781 H -0.15814 0.82870 1.02594
 H1782 H -0.15822 0.82574 0.97483
 C1783 C 0.28839 0.42521 0.47015
 C1784 C 0.28064 0.39675 0.49480
 C1785 C 0.31083 0.38543 0.51766
 C1786 C 0.34529 0.40195 0.51544
 C1787 C 0.35173 0.43031 0.48997
 C1788 C 0.32180 0.44144 0.46839
 C1789 C 0.31184 0.46396 0.43556
 C1790 C 0.27415 0.44571 0.43725
 H1791 H 0.30894 0.36241 0.53634
 H1792 H 0.36706 0.39182 0.53343
 H1793 H 0.32780 0.45600 0.41128
 H1794 H 0.31109 0.49370 0.44146
 H1795 H 0.26890 0.42766 0.41363
 H1796 H 0.25154 0.46502 0.44371
 C1797 C 0.31146 0.60729 -0.02893
 C1798 C 0.28333 0.59982 -0.00404
 C1799 C 0.29159 0.57182 0.02213
 C1800 C 0.32641 0.55430 0.02398
 C1801 C 0.35481 0.56531 0.00073
 C1802 C 0.34538 0.59037 -0.02694
 C1803 C 0.36456 0.62282 -0.04199
 C1804 C 0.32736 0.64173 -0.04428
 H1805 H 0.27177 0.56458 0.04239
 H1806 H 0.33158 0.53356 0.04483
 H1807 H 0.37617 0.61751 -0.06928
 H1808 H 0.38357 0.63531 -0.02183
 H1809 H 0.31822 0.64741 -0.07291
 H1810 H 0.32534 0.66536 -0.02577
 C1811 C -0.21169 0.06240 0.50637
 C1812 C -0.21582 0.10117 0.50456
 C1813 C -0.18257 0.12072 0.50237
 C1814 C -0.14837 0.10336 0.50210
 C1815 C -0.14515 0.06530 0.50596
 C1816 C -0.17737 0.04534 0.50656
 C1817 C -0.18799 0.01489 0.53119
 C1818 C -0.22559 0.03272 0.53166
 H1819 H -0.18194 0.14991 0.50415
 H1820 H -0.12424 0.12024 0.50140
 H1821 H -0.17343 0.01540 0.55808
 H1822 H -0.18755 -0.01191 0.51721
 H1823 H -0.23305 0.04167 0.55926
 H1824 H -0.24630 0.01476 0.51896
 C1825 C 0.70789 0.06593 0.49290
 C1826 C 0.71356 0.09871 0.51224
 C1827 C 0.68289 0.11127 0.53222
 C1828 C 0.64857 0.09442 0.52945
 C1829 C 0.64324 0.06411 0.50670
 C1830 C 0.67441 0.04881 0.49139
 C1831 C 0.68108 0.03306 0.45496
 C1832 C 0.71862 0.05047 0.45666
 H1833 H 0.68426 0.13572 0.54835
 H1834 H 0.62586 0.10636 0.54391
 H1835 H 0.66276 0.04595 0.43388
 H1836 H 0.68207 0.00265 0.45577
 H1837 H 0.72253 0.07049 0.43426
 H1838 H 0.74080 0.02952 0.45872
 C1839 C 0.20626 0.56618 0.99110
 C1840 C 0.21151 0.60359 0.99680
 C1841 C 0.17869 0.62499 0.99902
 C1842 C 0.14375 0.60931 0.99652
 C1843 C 0.13977 0.57152 0.99081
 C1844 C 0.17221 0.55135 0.98765
 C1845 C 0.18626 0.51371 0.98155
 C1846 C 0.22471 0.53002 0.98521
 H1847 H 0.18017 0.65422 1.00315
 H1848 H 0.11994 0.62694 0.99913
 H1849 H 0.17960 0.50399 0.95363
 H1850 H 0.17937 0.49463 1.00423
 H1851 H 0.24039 0.52931 0.95952
 H1852 H 0.23969 0.51940 1.00982
 C1853 C 0.17603 0.38291 0.48419
 C1854 C 0.20948 0.39928 0.49307
 C1855 C 0.20713 0.43641 0.50405
 C1856 C 0.17254 0.45401 0.50846
 C1857 C 0.13969 0.43504 0.50144
 C1858 C 0.14301 0.40055 0.48626
 C1859 C 0.12322 0.36588 0.49338
 C1860 C 0.15991 0.34619 0.49101
 H1861 H 0.23152 0.45113 0.51159
 H1862 H 0.17158 0.48173 0.51847
 H1863 H 0.10384 0.35908 0.47085
 H1864 H 0.11180 0.36545 0.52123
 H1865 H 0.16192 0.32806 0.46700
 H1866 H 0.16810 0.33372 0.51769
 C1867 C 0.71598 0.92550 0.01974
 C1868 C 0.72339 0.89716 -0.00494
 C1869 C 0.69353 0.88771 -0.02835
 C1870 C 0.65865 0.90362 -0.02497
 C1871 C 0.65162 0.92965 0.00200
 C1872 C 0.68168 0.94214 0.02214
 C1873 C 0.68614 0.94846 0.06205
 C1874 C 0.72346 0.92981 0.05968
 H1875 H 0.69568 0.86581 -0.04773
 H1876 H 0.63676 0.89420 -0.04262
 H1877 H 0.66628 0.93279 0.07858
 H1878 H 0.68779 0.97805 0.06839
 H1879 H 0.72434 0.90349 0.07511
 H1880 H 0.74659 0.94850 0.06519
 C1881 C -0.01790 0.82480 0.88541
 C1882 C 0.00228 0.79354 0.89805
 C1883 C 0.02943 0.80070 0.92516
 C1884 C 0.03103 0.83504 0.94270
 C1885 C 0.00771 0.86415 0.93129
 C1886 C -0.01403 0.85901 0.90050
 C1887 C -0.05247 0.87058 0.89293
 C1888 C -0.05784 0.83267 0.87766
 H1889 H 0.04935 0.77978 0.93296
 H1890 H 0.05050 0.83887 0.96486
 H1891 H -0.05442 0.89265 0.87179
 H1892 H -0.06807 0.87576 0.91816
 H1893 H -0.06478 0.83315 0.84803
 H1894 H -0.07638 0.81636 0.89504
 C1895 C 0.47867 0.28991 0.43051
 C1896 C 0.49808 0.28460 0.39811
 C1897 C 0.51628 0.31575 0.38400
 C1898 C 0.51487 0.34951 0.40112
 C1899 C 0.49417 0.35442 0.43261
 C1900 C 0.47757 0.32358 0.44785
 C1901 C 0.43902 0.31856 0.45937
 C1902 C 0.43994 0.28205 0.44002
 H1903 H 0.53078 0.31487 0.35853
 H1904 H 0.52902 0.37217 0.38855
 H1905 H 0.41982 0.33890 0.44640
 H1906 H 0.43685 0.31571 0.48950
 H1907 H 0.42118 0.28191 0.41589
 H1908 H 0.43778 0.25817 0.45893
 C1909 C 0.01962 0.28964 0.57747
 C1910 C -0.00707 0.28130 0.60360
 C1911 C -0.03254 0.31018 0.61051
 C1912 C -0.03006 0.34476 0.59370
 C1913 C -0.00191 0.35265 0.56934
 C1914 C 0.02100 0.32357 0.55957
 C1915 C 0.06155 0.32248 0.55775
 C1916 C 0.06057 0.28660 0.57881
 H1917 H -0.05316 0.30781 0.63112
 H1918 H -0.04945 0.36589 0.60119
 H1919 H 0.07470 0.34493 0.57318
 H1920 H 0.07071 0.31895 0.52925
 H1921 H 0.07245 0.28952 0.60667
 H1922 H 0.07172 0.26327 0.56324
 C1923 C 0.52642 0.78630 0.07478
 C1924 C 0.49798 0.77839 0.09936
 C1925 C 0.47215 0.80745 0.10414
 C1926 C 0.47603 0.84181 0.08745
 C1927 C 0.50597 0.84937 0.06532
 C1928 C 0.52939 0.82023 0.05717
 C1929 C 0.57005 0.81897 0.05773
 C1930 C 0.56733 0.78265 0.07795
 H1931 H 0.45001 0.80564 0.12312
 H1932 H 0.45622 0.86310 0.09341
 H1933 H 0.58231 0.84097 0.07449
 H1934 H 0.58133 0.81635 0.02988
 H1935 H 0.57799 0.78479 0.10634
 H1936 H 0.57860 0.75937 0.06236
 C1937 C 0.48511 0.70466 0.06349
 C1938 C 0.49413 0.70675 0.10099
 C1939 C 0.49306 0.67331 0.12115
 C1940 C 0.48847 0.63966 0.10418
 C1941 C 0.48418 0.63782 0.06615
 C1942 C 0.48002 0.67096 0.04671
 C1943 C 0.49707 0.68298 0.01210
 C1944 C 0.50362 0.71939 0.03030
 H1945 H 0.49731 0.67307 0.15036
 H1946 H 0.49005 0.61496 0.12084
 H1947 H 0.47687 0.68477 -0.01089
 H1948 H 0.52270 0.66759 0.00626
 H1949 H 0.48797 0.74241 0.01713
 H1950 H 0.53318 0.72432 0.03494
 C1951 C -0.01620 0.20554 0.56867
 C1952 C -0.00702 0.20917 0.60597
 C1953 C -0.00582 0.17599 0.62684
 C1954 C -0.00802 0.14163 0.61048
 C1955 C -0.01274 0.13874 0.57253
 C1956 C -0.01952 0.17127 0.55273
 C1957 C -0.00540 0.18397 0.51701
 C1958 C -0.00088 0.22123 0.53428
 H1959 H -0.00171 0.17671 0.65617
 H1960 H -0.00486 0.11736 0.62760
 H1961 H -0.02683 0.18371 0.49514
 H1962 H 0.02099 0.17054 0.51006
 H1963 H -0.01905 0.24268 0.52170
 H1964 H 0.02832 0.22850 0.53696
 C1965 C 0.50078 0.17920 0.38165
 C1966 C 0.50221 0.21271 0.39980
 C1967 C 0.50997 0.20978 0.43800
 C1968 C 0.51376 0.17489 0.45575
 C1969 C 0.51033 0.14207 0.43579
 C1970 C 0.50435 0.14628 0.39856
 C1971 C 0.49781 0.12514 0.36472
 C1972 C 0.49409 0.16244 0.34515
 H1973 H 0.51384 0.23378 0.45434
 H1974 H 0.51880 0.17372 0.48495
 H1975 H 0.47180 0.10974 0.36550
 H1976 H 0.52233 0.10905 0.35672
 H1977 H 0.51657 0.16751 0.32579
 H1978 H 0.46608 0.16807 0.33410
 C1979 C -0.00633 0.68833 0.88138
 C1980 C -0.00006 0.72144 0.89950
 C1981 C 0.00457 0.71759 0.93809
 C1982 C 0.00650 0.68223 0.95528
 C1983 C 0.00266 0.64980 0.93467
 C1984 C -0.00483 0.65498 0.89780
 C1985 C -0.00835 0.63469 0.86302
 C1986 C -0.01011 0.67246 0.84410
 H1987 H 0.00687 0.74111 0.95534
 H1988 H 0.01084 0.68041 0.98456
 H1989 H -0.03436 0.61936 0.86110
 H1990 H 0.01682 0.61874 0.85682
 H1991 H -0.03717 0.67882 0.83112
 H1992 H 0.01388 0.67793 0.82671
 C1993 C 0.24220 0.63129 0.92925
 C1994 C 0.24471 0.64826 0.96331
 C1995 C 0.24006 0.68708 0.96199
 C1996 C 0.23683 0.70643 0.92790
 C1997 C 0.23712 0.68744 0.89439
 C1998 C 0.23894 0.64968 0.89714
 C1999 C 0.24027 0.61620 0.87458
 C2000 C 0.24333 0.59494 0.91094
 H2001 H 0.23836 0.70273 0.98666
 H2002 H 0.23475 0.73600 0.92785
 H2003 H 0.26547 0.61453 0.85807
 H2004 H 0.21418 0.61170 0.85937
 H2005 H 0.26992 0.58027 0.91472
 H2006 H 0.21871 0.57840 0.91647
 C2007 C 0.71777 0.13756 0.44468
 C2008 C 0.74189 0.14815 0.47303
 C2009 C 0.76490 0.17803 0.46416
 C2010 C 0.76510 0.19397 0.42892
 C2011 C 0.74227 0.18091 0.40103
 C2012 C 0.71889 0.15236 0.40934
 C2013 C 0.67842 0.15294 0.40480
 C2014 C 0.67668 0.13889 0.44366
 H2015 H 0.78246 0.19028 0.48428
 H2016 H 0.78312 0.21664 0.42349
 H2017 H 0.66899 0.13278 0.38434
 H2018 H 0.66688 0.18090 0.40092
 H2019 H 0.66401 0.11159 0.44531
 H2020 H 0.66528 0.15930 0.46279
 C2021 C 0.26811 0.32033 0.45523
 C2022 C 0.24604 0.35195 0.45900
 C2023 C 0.22838 0.36492 0.42638
 C2024 C 0.23140 0.34686 0.39330
 C2025 C 0.25364 0.31553 0.39013
 C2026 C 0.27079 0.30179 0.42208
 C2027 C 0.31031 0.29297 0.42840
 C2028 C 0.30787 0.31390 0.46380
 H2029 H 0.21317 0.39045 0.42534
 H2030 H 0.21704 0.35860 0.36976
 H2031 H 0.32820 0.30614 0.40790
 H2032 H 0.31524 0.26315 0.43270
 H2033 H 0.32416 0.33931 0.46290
 H2034 H 0.31264 0.29638 0.48847
 C2035 C 0.76303 0.87229 0.92654
 C2036 C 0.76276 0.85299 0.95998
 C2037 C 0.76719 0.81440 0.95692
 C2038 C 0.76949 0.79757 0.92204
 C2039 C 0.76739 0.81867 0.88915
 C2040 C 0.76459 0.85618 0.89348
 C2041 C 0.75985 0.89119 0.87267
 C2042 C 0.75844 0.90972 0.91004
 H2043 H 0.76924 0.79701 0.98094
 H2044 H 0.77208 0.76807 0.92092
 H2045 H 0.73342 0.89262 0.85725
 H2046 H 0.78437 0.89837 0.85677
 H2047 H 0.73139 0.92241 0.91561
 H2048 H 0.78239 0.92734 0.91554
 C2049 C 0.73421 0.82179 0.03707
 C2050 C 0.75907 0.85059 0.03145
 C2051 C 0.78100 0.85933 0.06255
 C2052 C 0.77608 0.84248 0.09676
 C2053 C 0.74896 0.81604 0.10204
 C2054 C 0.73033 0.80417 0.07079
 C2055 C 0.69067 0.79757 0.06434
 C2056 C 0.69456 0.81728 0.02777
 H2057 H 0.80033 0.88142 0.06195
 H2058 H 0.79280 0.85149 0.11951
 H2059 H 0.67302 0.81250 0.08377
 H2060 H 0.68470 0.76799 0.06160
 H2061 H 0.67883 0.84342 0.02700
 H2062 H 0.69020 0.79923 0.00396
 C2063 C 0.23604 0.31715 0.53714
 C2064 C 0.24106 0.35478 0.53110
 C2065 C 0.24163 0.37621 0.56346
 C2066 C 0.23839 0.36061 0.59856
 C2067 C 0.23349 0.32275 0.60335
 C2068 C 0.23158 0.30242 0.57141
 C2069 C 0.22671 0.26454 0.55844
 C2070 C 0.23127 0.28057 0.51980
 H2071 H 0.24557 0.40546 0.56170
 H2072 H 0.24010 0.37838 0.62194
 H2073 H 0.19877 0.25425 0.56365
 H2074 H 0.24958 0.24607 0.56747
 H2075 H 0.20603 0.27917 0.50260
 H2076 H 0.25640 0.26998 0.50687
 C2077 C 0.74972 0.18335 0.54677
 C2078 C 0.75261 0.14504 0.54397
 C2079 C 0.76133 0.12564 0.57684
 C2080 C 0.76388 0.14304 0.61060
 C2081 C 0.75800 0.18083 0.61298
 C2082 C 0.75286 0.20074 0.58031
 C2083 C 0.72404 0.22846 0.57031
 C2084 C 0.72048 0.20964 0.53371
 H2085 H 0.76480 0.09652 0.57688
 H2086 H 0.76917 0.12664 0.63503
 H2087 H 0.73530 0.25650 0.56814
 H2088 H 0.69927 0.22600 0.58735
 H2089 H 0.72948 0.22726 0.51067
 H2090 H 0.69354 0.19658 0.52928
 C2091 C 0.23365 0.62989 0.06628
 C2092 C 0.25084 0.64371 0.03496
 C2093 C 0.27435 0.67374 0.04176
 C2094 C 0.27680 0.69013 0.07684
 C2095 C 0.25737 0.67576 0.10688
 C2096 C 0.23692 0.64492 0.09981
 C2097 C 0.21278 0.61807 0.11787
 C2098 C 0.20915 0.60039 0.08034
 H2099 H 0.29060 0.68502 0.02015
 H2100 H 0.29405 0.71373 0.08035
 H2101 H 0.18684 0.63082 0.12701
 H2102 H 0.22771 0.60072 0.13850
 H2103 H 0.18076 0.60232 0.06921
 H2104 H 0.22179 0.57266 0.07946
 C2105 C 0.18087 0.54795 0.75977
 C2106 C 0.14333 0.54378 0.75314
 C2107 C 0.12276 0.57726 0.75144
 C2108 C 0.13946 0.61174 0.75473
 C2109 C 0.17748 0.61459 0.76119
 C2110 C 0.19675 0.58141 0.76409
 C2111 C 0.23387 0.56561 0.77118
 C2112 C 0.21612 0.52788 0.76683
 H2113 H 0.09337 0.57667 0.74736
 H2114 H 0.12240 0.63611 0.75234
 H2115 H 0.24391 0.57086 0.79941
 H2116 H 0.25319 0.57257 0.74910
 H2117 H 0.21584 0.51148 0.79260
 H2118 H 0.22588 0.51307 0.74251
 C2119 C 0.68474 0.03741 0.26402
 C2120 C 0.64694 0.03366 0.25757
 C2121 C 0.62645 0.06710 0.25671
 C2122 C 0.64314 0.10125 0.26031
 C2123 C 0.68121 0.10390 0.26582
 C2124 C 0.70058 0.07088 0.26857
 C2125 C 0.73824 0.05603 0.27338
 C2126 C 0.72114 0.01820 0.26840
 H2127 H 0.59710 0.06689 0.25240
 H2128 H 0.62599 0.12560 0.25837
 H2129 H 0.74940 0.06054 0.30134
 H2130 H 0.75627 0.06434 0.25066
 H2131 H 0.72331 0.00052 0.29322
 H2132 H 0.73086 0.00515 0.24313
 C2133 C 0.87045 0.07032 0.75815
 C2134 C 0.85297 0.03651 0.75437
 C2135 C 0.81407 0.03917 0.75141
 C2136 C 0.79579 0.07401 0.74898
 C2137 C 0.81564 0.10715 0.75064
 C2138 C 0.85304 0.10318 0.75616
 C2139 C 0.88744 0.12446 0.75785
 C2140 C 0.90742 0.08723 0.76010
 H2141 H 0.79740 0.01507 0.75096
 H2142 H 0.76628 0.07489 0.74615
 H2143 H 0.88987 0.14058 0.78326
 H2144 H 0.89237 0.13985 0.73204
 H2145 H 0.92148 0.08199 0.78683
 H2146 H 0.92411 0.08147 0.73571
 C2147 C 0.31351 0.53324 0.23366
 C2148 C 0.35152 0.52980 0.23989
 C2149 C 0.37187 0.56268 0.23711
 C2150 C 0.35486 0.59692 0.23354
 C2151 C 0.31667 0.59997 0.23216
 C2152 C 0.29672 0.56758 0.22933
 C2153 C 0.26299 0.55631 0.24829
 C2154 C 0.28132 0.51917 0.25405
 H2155 H 0.40142 0.56193 0.23960
 H2156 H 0.37172 0.62108 0.23386
 H2157 H 0.23892 0.55567 0.22938
 H2158 H 0.25864 0.57137 0.27408
 H2159 H 0.26714 0.49689 0.23934
 H2160 H 0.28754 0.51365 0.28332
 C2161 C 0.32566 0.45007 0.27343
 C2162 C 0.35156 0.45761 0.24612
 C2163 C 0.35936 0.42807 0.22239
 C2164 C 0.34204 0.39439 0.22531
 C2165 C 0.31691 0.38748 0.25294
 C2166 C 0.30787 0.41637 0.27594
 C2167 C 0.30859 0.41622 0.31658
 C2168 C 0.32886 0.45206 0.31430
 H2169 H 0.38050 0.42937 0.20225
 H2170 H 0.34955 0.37315 0.20639
 H2171 H 0.32539 0.39335 0.32859
 H2172 H 0.28073 0.41914 0.32796
 H2173 H 0.35743 0.44920 0.32479
 H2174 H 0.31323 0.47520 0.32599
 C2175 C 0.86973 0.93398 0.77510
 C2176 C 0.85599 0.96454 0.75456
 C2177 C 0.82893 0.95627 0.72777
 C2178 C 0.81260 0.92137 0.72661
 C2179 C 0.82501 0.89288 0.75014
 C2180 C 0.85567 0.89919 0.77179
 C2181 C 0.86355 0.88854 0.81036
 C2182 C 0.87763 0.92706 0.81508
 H2183 H 0.82032 0.97674 0.70771
 H2184 H 0.79048 0.91664 0.70729
 H2185 H 0.88539 0.86720 0.81270
 H2186 H 0.83847 0.88273 0.82599
 H2187 H 0.90730 0.92763 0.82205
 H2188 H 0.85975 0.94328 0.83318
 C2189 C 0.63427 0.92938 0.26735
 C2190 C 0.64710 0.96207 0.25186
 C2191 C 0.67618 0.95724 0.22691
 C2192 C 0.69289 0.92238 0.22145
 C2193 C 0.67927 0.89069 0.23884
 C2194 C 0.64942 0.89611 0.26109
 C2195 C 0.62248 0.87563 0.28303
 C2196 C 0.60456 0.91292 0.28992
 H2197 H 0.68539 0.98005 0.21078
 H2198 H 0.71566 0.92023 0.20304
 H2199 H 0.63502 0.86286 0.30799
 H2200 H 0.60534 0.85738 0.26604
 H2201 H 0.60598 0.92038 0.31917
 H2202 H 0.57698 0.91574 0.27705
 C2203 C 0.14569 0.44426 0.77862
 C2204 C 0.14740 0.47241 0.75186
 C2205 C 0.17068 0.46481 0.72207
 C2206 C 0.18743 0.42979 0.71789
 C2207 C 0.18058 0.40094 0.74286
 C2208 C 0.16137 0.41022 0.77397
 C2209 C 0.13356 0.39085 0.79592
 C2210 C 0.11627 0.42824 0.80193
 H2211 H 0.17434 0.48534 0.70092
 H2212 H 0.20390 0.42480 0.69413
 H2213 H 0.14545 0.37843 0.82137
 H2214 H 0.11606 0.37264 0.77919
 H2215 H 0.11864 0.43653 0.83093
 H2216 H 0.08839 0.43118 0.78998
 C2217 C 0.04889 0.78308 0.82915
 C2218 C 0.03849 0.75537 0.85409
 C2219 C 0.06455 0.72609 0.85920
 C2220 C 0.09727 0.72430 0.84003
 C2221 C 0.10666 0.75231 0.81598
 C2222 C 0.08168 0.78106 0.80999
 C2223 C 0.08864 0.82090 0.81269
 C2224 C 0.05400 0.82345 0.83459
 H2225 H 0.06133 0.70450 0.87917
 H2226 H 0.11625 0.70181 0.84554
 H2227 H 0.08640 0.83499 0.78565
 H2228 H 0.11377 0.82702 0.82888
 H2229 H 0.03275 0.84086 0.82082
 H2230 H 0.05976 0.83068 0.86343
 C2231 C 0.56757 0.25076 0.37379
 C2232 C 0.53412 0.24667 0.35502
 C2233 C 0.53709 0.23915 0.31718
 C2234 C 0.57192 0.23731 0.30037
 C2235 C 0.60458 0.24329 0.32082
 C2236 C 0.60039 0.25015 0.35754
 C2237 C 0.62117 0.25910 0.39144
 C2238 C 0.58402 0.25929 0.41033
 H2239 H 0.51319 0.23369 0.30056
 H2240 H 0.57315 0.23143 0.27153
 H2241 H 0.63386 0.28654 0.38976
 H2242 H 0.63968 0.23660 0.40093
 H2243 H 0.57608 0.28672 0.42042
 H2244 H 0.58125 0.23646 0.43037
 C2245 C 0.54019 0.76680 0.17415
 C2246 C 0.53276 0.74146 0.14642
 C2247 C 0.56268 0.71806 0.13733
 C2248 C 0.59782 0.72264 0.15241
 C2249 C 0.60499 0.75071 0.17726
 C2250 C 0.57479 0.77040 0.18995
 C2251 C 0.56943 0.81037 0.19569
 C2252 C 0.53163 0.80660 0.17817
 H2253 H 0.56050 0.69806 0.11601
 H2254 H 0.61974 0.70497 0.14327
 H2255 H 0.58834 0.82728 0.17924
 H2256 H 0.56848 0.81712 0.22514
 H2257 H 0.52922 0.82176 0.15178
 H2258 H 0.50902 0.81151 0.19749
 C2259 C 0.03716 0.27296 0.67752
 C2260 C 0.03051 0.24679 0.65022
 C2261 C 0.06096 0.22398 0.64180
 C2262 C 0.09559 0.22913 0.65757
 C2263 C 0.10198 0.25749 0.68234
 C2264 C 0.07145 0.27730 0.69398
 C2265 C 0.06585 0.31746 0.69821
 C2266 C 0.02848 0.31293 0.68000
 H2267 H 0.05958 0.20373 0.62065
 H2268 H 0.11781 0.21156 0.64895
 H2269 H 0.08505 0.33385 0.68159
 H2270 H 0.06425 0.32532 0.72735
 H2271 H 0.02674 0.32716 0.65307
 H2272 H 0.00538 0.31848 0.69855
 C2273 C 0.92517 0.24069 0.63242
 C2274 C 0.95936 0.24295 0.65033
 C2275 C 0.95804 0.23962 0.68913
 C2276 C 0.92397 0.23707 0.70745
 C2277 C 0.89034 0.23747 0.68756
 C2278 C 0.89299 0.23870 0.64994
 C2279 C 0.87027 0.24074 0.61593
 C2280 C 0.90664 0.24265 0.59566
 H2281 H 0.98276 0.23871 0.70562
 H2282 H 0.92401 0.23565 0.73699
 H2283 H 0.85378 0.26645 0.61381
 H2284 H 0.85496 0.21511 0.61110
 H2285 H 0.91055 0.26921 0.58125
 H2286 H 0.91183 0.21800 0.57905
 C2287 C 0.45822 0.74335 0.18353
 C2288 C 0.46111 0.74194 0.14520
 C2289 C 0.42745 0.74023 0.12521
 C2290 C 0.39374 0.73755 0.14245
 C2291 C 0.39179 0.73567 0.18065
 C2292 C 0.42446 0.74033 0.20055
 C2293 C 0.44019 0.71934 0.23228
 C2294 C 0.47715 0.72265 0.21412
 H2295 H 0.42729 0.74077 0.09566
 H2296 H 0.36918 0.73594 0.12562
 H2297 H 0.43011 0.69078 0.23369
 H2298 H 0.43834 0.73485 0.25808
 H2299 H 0.48875 0.69587 0.20602
 H2300 H 0.49631 0.74005 0.22985
 C2301 C 0.45577 0.26795 0.32207
 C2302 C 0.46225 0.24767 0.35460
 C2303 C 0.43179 0.22822 0.36816
 C2304 C 0.39737 0.23022 0.35098
 C2305 C 0.39133 0.25211 0.31957
 C2306 C 0.42175 0.26904 0.30437
 C2307 C 0.42634 0.30762 0.29181
 C2308 C 0.46322 0.30679 0.31161
 H2309 H 0.43363 0.21266 0.39346
 H2310 H 0.37518 0.21531 0.36321
 H2311 H 0.40615 0.32671 0.30400
 H2312 H 0.42862 0.30986 0.26164
 H2313 H 0.46349 0.32558 0.33514
 H2314 H 0.48673 0.30922 0.29292
 C2315 C 0.96354 0.76003 0.81438
 C2316 C 0.96638 0.75684 0.85281
 C2317 C 0.93331 0.74984 0.87140
 C2318 C 0.89952 0.74933 0.85331
 C2319 C 0.89674 0.75640 0.81564
 C2320 C 0.92939 0.75976 0.79645
 C2321 C 0.93946 0.78795 0.76903
 C2322 C 0.97622 0.78928 0.78855
 H2323 H 0.93340 0.74630 0.90081
 H2324 H 0.87536 0.74513 0.86948
 H2325 H 0.92310 0.81366 0.77128
 H2326 H 0.94100 0.77660 0.74109
 H2327 H 0.98041 0.81587 0.80206
 H2328 H 0.99904 0.77981 0.77121
   
