data_POSCAR
  _audit_creation_date              2014-09-24
  _audit_creation_method            'ToBaCCo'
  _symmetry_space_group_name_H-M    'P1'
  _symmetry_Int_Tables_number       1
  _symmetry_cell_setting            triclinic
  loop_
  _symmetry_equiv_pos_as_xyz
 x,y,z
_cell_length_a 76.7738
_cell_length_b 77.1521
_cell_length_c 76.1794
_cell_angle_alpha 90.019400
_cell_angle_beta 90.068400
_cell_angle_gamma 89.944100
loop_
  _atom_site_label
  _atom_site_type_symbol
  _atom_site_fract_x
  _atom_site_fract_y
  _atom_site_fract_z
C1 C 0.31092 0.43736 0.92141
 C2 C 0.32616 0.44480 0.92844
 C3 C 0.33345 0.43877 0.94435
 C4 C 0.32461 0.42538 0.95325
 C5 C 0.31013 0.41698 0.94593
 C6 C 0.30314 0.42332 0.93018
 H7 H 0.33283 0.45450 0.92075
 H8 H 0.32881 0.42139 0.96618
 H9 H 0.29182 0.41712 0.92454
 C10 C 0.44287 0.82832 0.44450
 C11 C 0.42842 0.81920 0.45128
 C12 C 0.42010 0.80602 0.44170
 C13 C 0.42703 0.80109 0.42542
 C14 C 0.44216 0.80894 0.41881
 C15 C 0.44992 0.82251 0.42839
 H16 H 0.42370 0.82201 0.46433
 H17 H 0.42032 0.79147 0.41760
 H18 H 0.46107 0.82888 0.42272
 C19 C 0.93921 0.91545 0.80962
 C20 C 0.94659 0.92240 0.82501
 C21 C 0.93986 0.93767 0.83279
 C22 C 0.92513 0.94544 0.82488
 C23 C 0.91772 0.93877 0.80946
 C24 C 0.92512 0.92404 0.80175
 H25 H 0.95776 0.91594 0.83061
 H26 H 0.91859 0.95615 0.83123
 H27 H 0.91986 0.91921 0.78949
 C28 C 0.44177 -0.07992 0.30623
 C29 C 0.44974 -0.07250 0.32102
 C30 C 0.44174 -0.05900 0.33039
 C31 C 0.42601 -0.05208 0.32403
 C32 C 0.41826 -0.05859 0.30863
 C33 C 0.42622 -0.07260 0.29990
 H34 H 0.46219 -0.07746 0.32544
 H35 H 0.41940 -0.04208 0.33144
 H36 H 0.42011 -0.07804 0.28835
 C37 C 0.80732 0.31179 0.32778
 C38 C 0.82194 0.30351 0.32044
 C39 C 0.83047 0.31050 0.30576
 C40 C 0.82415 0.32593 0.29836
 C41 C 0.80971 0.33458 0.30555
 C42 C 0.80129 0.32731 0.32018
 H43 H 0.82685 0.29170 0.32631
 H44 H 0.83072 0.33141 0.28710
 H45 H 0.79018 0.33387 0.32584
 C46 C -0.18811 0.83636 0.80854
 C47 C -0.17232 0.82916 0.80244
 C48 C -0.16607 0.81326 0.80888
 C49 C -0.17556 0.80460 0.82199
 C50 C -0.19106 0.81159 0.82894
 C51 C -0.19743 0.82707 0.82145
 H52 H -0.16422 0.83629 0.79338
 H53 H -0.17029 0.79270 0.82720
 H54 H -0.21035 0.83133 0.82498
 C55 C 0.94028 0.33079 0.44170
 C56 C 0.92541 0.32289 0.44877
 C57 C 0.91626 0.31009 0.43943
 C58 C 0.92279 0.30450 0.42316
 C59 C 0.93820 0.31158 0.41622
 C60 C 0.94678 0.32478 0.42558
 H61 H 0.92082 0.32689 0.46158
 H62 H 0.91552 0.29513 0.41553
 H63 H 0.95838 0.33064 0.42014
 C64 C 0.44177 0.43728 0.83366
 C65 C 0.42714 0.44522 0.82572
 C66 C 0.42076 0.43968 0.80935
 C67 C 0.42917 0.42597 0.80070
 C68 C 0.44326 0.41729 0.80848
 C69 C 0.44953 0.42313 0.82479
 H70 H 0.41988 0.45505 0.83269
 H71 H 0.42471 0.42203 0.78782
 H72 H 0.46071 0.41665 0.83033
 C73 C 0.80914 0.91978 0.93988
 C74 C 0.82332 0.92804 0.94800
 C75 C 0.83156 0.94231 0.94013
 C76 C 0.82474 0.94898 0.92438
 C77 C 0.81025 0.94123 0.91623
 C78 C 0.80276 0.92647 0.92396
 H79 H 0.82797 0.92339 0.96056
 H80 H 0.83084 0.96011 0.91835
 H81 H 0.79226 0.91985 0.91725
 C82 C 0.30883 0.83163 0.30785
 C83 C 0.32489 0.82483 0.30192
 C84 C 0.33229 0.80993 0.30955
 C85 C 0.32359 0.80182 0.32352
 C86 C 0.30773 0.80832 0.32984
 C87 C 0.30029 0.82284 0.32165
 H88 H 0.33237 0.83165 0.29211
 H89 H 0.32933 0.79055 0.32969
 H90 H 0.28746 0.82684 0.32584
 C91 C 0.80777 0.42028 0.44388
 C92 C 0.82204 0.42819 0.45221
 C93 C 0.83018 0.44304 0.44508
 C94 C 0.82276 0.45037 0.42977
 C95 C 0.80844 0.44268 0.42124
 C96 C 0.80126 0.42750 0.42831
 H97 H 0.82632 0.42299 0.46466
 H98 H 0.82846 0.46173 0.42389
 H99 H 0.79086 0.42097 0.42137
 C100 C 0.94204 0.83232 -0.05865
 C101 C 0.92775 0.82374 -0.05085
 C102 C 0.91982 0.80933 -0.05887
 C103 C 0.92685 0.80287 -0.07457
 C104 C 0.94128 0.81080 -0.08247
 C105 C 0.94858 0.82555 -0.07457
 H106 H 0.92302 0.82781 -0.03815
 H107 H 0.92094 0.79173 -0.08080
 H108 H 0.95876 0.83228 -0.08159
 C109 C 0.30931 0.33065 0.80743
 C110 C 0.30213 0.32402 0.82303
 C111 C 0.30939 0.30934 0.83122
 C112 C 0.32431 0.30162 0.82386
 C113 C 0.33152 0.30788 0.80816
 C114 C 0.32353 0.32202 0.79981
 H115 H 0.29103 0.33039 0.82892
 H116 H 0.33063 0.29105 0.83070
 H117 H 0.32851 0.32644 0.78730
 C118 C 0.16942 0.55691 0.56024
 C119 C 0.17633 0.55164 0.57647
 C120 C 0.19099 0.55994 0.58372
 C121 C 0.19840 0.57403 0.57470
 C122 C 0.19152 0.57968 0.55859
 C123 C 0.17747 0.57060 0.55122
 H124 H 0.16987 0.54151 0.58382
 H125 H 0.20935 0.58082 0.58041
 H126 H 0.17262 0.57437 0.53843
 C127 C 0.58217 0.69097 0.05768
 C128 C 0.57318 0.69917 0.07147
 C129 C 0.55729 0.69260 0.07772
 C130 C 0.55007 0.67798 0.06950
 C131 C 0.55897 0.66925 0.05601
 C132 C 0.57503 0.67588 0.05021
 H133 H 0.57873 0.71056 0.07759
 H134 H 0.53744 0.67336 0.07370
 H135 H 0.58231 0.66892 0.04029
 C136 C 0.68995 0.19041 0.66608
 C137 C 0.67446 0.19654 0.67361
 C138 C 0.66869 0.19019 0.68987
 C139 C 0.67845 0.17720 0.69838
 C140 C 0.69378 0.17032 0.69085
 C141 C 0.69966 0.17774 0.67501
 H142 H 0.66655 0.20581 0.66651
 H143 H 0.67346 0.17201 0.71052
 H144 H 0.71213 0.17401 0.66960
 C145 C 1.07934 0.05870 0.19379
 C146 C 1.07115 0.07302 0.20158
 C147 C 1.05675 0.08103 0.19361
 C148 C 1.05000 0.07395 0.17799
 C149 C 1.05759 0.05921 0.17001
 C150 C 1.07252 0.05199 0.17807
 H151 H 1.07598 0.07793 0.21398
 H152 H 1.03859 0.07995 0.17235
 H153 H 1.07964 0.04170 0.17164
 C154 C 0.05931 0.16829 1.05707
 C155 C 0.05078 0.17696 1.07081
 C156 C 0.05802 0.19179 1.07886
 C157 C 0.07374 0.19839 1.07189
 C158 C 0.08233 0.19008 1.05792
 C159 C 0.07511 0.17493 1.05078
 H160 H 0.03808 0.17234 1.07473
 H161 H 0.07983 0.20965 1.07763
 H162 H 0.08210 0.16801 1.04062
 C163 C 0.16883 0.68871 0.69101
 C164 C 0.17754 0.67561 0.70035
 C165 C 0.19187 0.66681 0.69316
 C166 C 0.19858 0.67251 0.67700
 C167 C 0.19070 0.68628 0.66778
 C168 C 0.17561 0.69404 0.67476
 H169 H 0.17291 0.67199 0.71325
 H170 H 0.20977 0.66605 0.67140
 H171 H 0.16876 0.70377 0.66718
 C172 C 1.19020 0.16760 0.19375
 C173 C 1.19696 0.17311 0.17755
 C174 C 1.18964 0.18729 0.16858
 C175 C 1.17507 0.19571 0.17584
 C176 C 1.16828 0.19062 0.19216
 C177 C 1.17634 0.17692 0.20122
 H178 H 1.20777 0.16620 0.17175
 H179 H 1.16863 0.20583 0.16844
 H180 H 1.17167 0.17334 0.21412
 C181 C 0.66504 1.06230 0.55959
 C182 C 0.67188 1.07737 0.55158
 C183 C 0.68801 1.08463 0.55678
 C184 C 0.69735 1.07624 0.57031
 C185 C 0.69069 1.06161 0.57887
 C186 C 0.67472 1.05470 0.57335
 H187 H 0.66388 1.08436 0.54233
 H188 H 0.71023 1.08059 0.57396
 H189 H 0.67012 1.04310 0.57975
 C190 C 0.55890 0.55971 0.17166
 C191 C 0.55159 0.57432 0.17984
 C192 C 0.55973 0.58218 0.19436
 C193 C 0.57539 0.57505 0.20076
 C194 C 0.58302 0.56051 0.19270
 C195 C 0.57453 0.55285 0.17830
 H196 H 0.53966 0.57979 0.17467
 H197 H 0.58185 0.58105 0.21182
 H198 H 0.58032 0.54169 0.17198
 C199 C 0.67054 0.69476 0.19052
 C200 C 0.67762 0.70068 0.17462
 C201 C 0.69243 0.69279 0.16725
 C202 C 0.69969 0.67820 0.17558
 C203 C 0.69262 0.67183 0.19133
 C204 C 0.67854 0.68067 0.19900
 H205 H 0.67127 0.71112 0.16760
 H206 H 0.71071 0.67168 0.16968
 H207 H 0.67373 0.67642 0.21162
 C208 C 0.16794 0.05909 1.05937
 C209 C 0.17509 0.05276 1.07521
 C210 C 0.18990 0.06033 1.08290
 C211 C 0.19750 0.07480 1.07482
 C212 C 0.19062 0.08159 1.05918
 C213 C 0.17615 0.07348 1.05144
 H214 H 0.16864 0.04248 1.08232
 H215 H 0.20875 0.08089 1.08079
 H216 H 0.17184 0.07813 1.03878
 C217 C 0.58141 0.18775 0.55820
 C218 C 0.57374 0.19521 0.57315
 C219 C 0.55893 0.18781 0.58096
 C220 C 0.55172 0.17277 0.57348
 C221 C 0.55919 0.16504 0.55856
 C222 C 0.57398 0.17270 0.55098
 H223 H 0.57944 0.20674 0.57884
 H224 H 0.54035 0.16693 0.57941
 H225 H 0.57985 0.16683 0.53952
 C226 C 0.08238 0.55792 0.69415
 C227 C 0.07371 0.57167 0.70250
 C228 C 0.05908 0.57964 0.69488
 C229 C 0.05201 0.57244 0.67949
 C230 C 0.05987 0.55802 0.67136
 C231 C 0.07527 0.55112 0.67861
 H232 H 0.07860 0.57645 0.71491
 H233 H 0.04057 0.57824 0.67364
 H234 H 0.08207 0.54087 0.67173
 C235 C 0.66975 0.56118 0.05880
 C236 C 0.67758 0.57509 0.04995
 C237 C 0.69155 0.58423 0.05741
 C238 C 0.69856 0.57844 0.07340
 C239 C 0.69135 0.56415 0.08225
 C240 C 0.67678 0.55575 0.07494
 H241 H 0.67265 0.57898 0.03723
 H242 H 0.70944 0.58529 0.07917
 H243 H 0.67050 0.54543 0.08216
 C244 C 0.05718 0.69006 0.57846
 C245 C 0.07324 0.69639 0.57242
 C246 C 0.08221 0.68808 0.55869
 C247 C 0.07491 0.67313 0.55109
 C248 C 0.05868 0.66676 0.55671
 C249 C 0.04978 0.67561 0.57011
 H250 H 0.07894 0.70764 0.57865
 H251 H 0.08219 0.66608 0.54124
 H252 H 0.03703 0.67119 0.57417
 C253 C 0.55623 1.05712 0.67093
 C254 C 0.54905 1.07188 0.67914
 C255 C 0.55767 1.08058 0.69297
 C256 C 0.57374 1.07380 0.69883
 C257 C 0.58098 1.05886 0.69129
 C258 C 0.57206 1.05054 0.67758
 H259 H 0.53609 1.07593 0.67546
 H260 H 0.58134 1.08071 0.70852
 H261 H 0.57807 1.03936 0.67159
 C262 C 0.44168 0.33201 0.94254
 C263 C 0.44833 0.32526 0.92673
 C264 C 0.44142 0.31007 0.91935
 C265 C 0.42780 0.30156 0.92807
 C266 C 0.42032 0.30849 0.94334
 C267 C 0.42756 0.32358 0.95066
 H268 H 0.45848 0.33221 0.91984
 H269 H 0.42287 0.28947 0.92283
 H270 H 0.42204 0.32892 0.96256
 C271 C 0.94341 0.44041 0.33131
 C272 C 0.92918 0.44921 0.32356
 C273 C 0.92119 0.44314 0.30811
 C274 C 0.92783 0.42820 0.29996
 C275 C 0.94219 0.41937 0.30704
 C276 C 0.94982 0.42553 0.32261
 H277 H 0.92368 0.46049 0.32983
 H278 H 0.92174 0.42332 0.28814
 H279 H 0.96102 0.41869 0.32768
 C280 C 0.30567 0.93973 0.42267
 C281 C 0.29883 0.92472 0.43051
 C282 C 0.30672 0.91733 0.44540
 C283 C 0.32160 0.92529 0.45253
 C284 C 0.32872 0.94027 0.44489
 C285 C 0.32058 0.94742 0.43003
 H286 H 0.28743 0.91864 0.42485
 H287 H 0.32783 0.91967 0.46394
 H288 H 0.32601 0.95891 0.42401
 O289 O 0.29795 0.49805 0.77503
 O290 O 0.29113 0.52831 0.77612
 O291 O 0.25275 0.47464 0.79742
 O292 O 0.22387 0.47513 0.79258
 O293 O 0.27464 0.45444 0.75048
 O294 O 0.27306 0.46284 0.72012
 O295 O 0.20602 0.52236 0.75220
 O296 O 0.21061 0.51715 0.78264
 O297 O 0.25004 0.54709 0.73346
 O298 O 0.28132 0.54119 0.73420
 O299 O 0.22953 0.50428 0.70666
 O300 O 0.23106 0.47268 0.71075
 O301 O 0.20606 0.50275 0.72992
 O302 O 0.21275 0.47106 0.72960
 O303 O 0.24957 0.52587 0.70863
 O304 O 0.28196 0.52328 0.71483
 O305 O 0.22850 0.54515 0.75378
 O306 O 0.23081 0.53738 0.78532
 O307 O 0.29823 0.47859 0.75256
 O308 O 0.29201 0.48269 0.72160
 O309 O 0.25341 0.45244 0.77118
 O310 O 0.22215 0.45899 0.76859
 O311 O 0.27328 0.49583 0.79939
 O312 O 0.27133 0.52682 0.79510
 Zr313 Zr 0.27246 0.50824 0.77473
 O314 O 0.25712 0.52581 0.76028
 Zr315 Zr 0.24229 0.47742 0.77208
 O316 O 0.22540 0.49381 0.75786
 Zr317 Zr 0.27312 0.48019 0.74160
 O318 O 0.25753 0.49635 0.72580
 Zr319 Zr 0.23068 0.51985 0.76385
 O320 O 0.24595 0.50340 0.77996
 Zr321 Zr 0.26139 0.52227 0.73330
 O322 O 0.27852 0.50623 0.74784
 Zr323 Zr 0.23107 0.49151 0.73097
 O324 O 0.24673 0.47369 0.74508
 O325 O 0.26858 0.48239 0.76835
 O326 O 0.23495 0.51755 0.73698
 C327 C 0.30548 0.48646 0.76554
 C328 C 0.26478 0.48288 0.80570
 C329 C 0.26601 0.44602 0.76215
 C330 C 0.19883 0.51479 0.73903
 C331 C 0.23705 0.55341 0.74194
 C332 C 0.23744 0.51763 0.70053
 H333 H 0.25988 0.53778 0.76396
 H334 H 0.26042 0.49442 0.71332
 H335 H 0.27609 0.47459 0.77536
 H336 H 0.21314 0.49091 0.76049
 H337 H 0.21569 0.51081 0.79272
 H338 H 0.21352 0.48200 0.78919
 H339 H 0.27963 0.51453 0.70564
 H340 H 0.29772 0.49405 0.72342
 H341 H 0.24080 0.54533 0.78394
 H342 H 0.25974 0.52557 0.80065
 H343 H 0.24175 0.47433 0.70373
 H344 H 0.26162 0.45692 0.72029
 H345 H 0.29675 0.52885 0.76444
 H346 H 0.28044 0.54725 0.74561
 H347 H 0.22423 0.45324 0.75717
 H348 H 0.20484 0.47213 0.73978
 O349 O 0.27049 -0.04630 0.25199
 O350 O 0.26913 -0.03874 0.22137
 O351 O 0.29434 -0.00130 0.27470
 O352 O 0.28890 0.02727 0.27567
 O353 O 0.24918 -0.02422 0.29833
 O354 O 0.21850 -0.02265 0.29190
 O355 O 0.24611 0.04603 0.23201
 O356 O 0.27686 0.04035 0.23452
 O357 O 0.22567 0.00218 0.20651
 O358 O 0.22752 -0.02925 0.21158
 O359 O 0.20209 0.02153 0.25142
 O360 O 0.20808 0.01859 0.28355
 O361 O 0.22467 0.04456 0.25248
 O362 O 0.22643 0.03737 0.28432
 O363 O 0.20217 0.00102 0.22999
 O364 O 0.20919 -0.03052 0.23044
 O365 O 0.24516 0.02431 0.20788
 O366 O 0.27473 0.02126 0.21093
 O367 O 0.24976 -0.04721 0.27326
 O368 O 0.21886 -0.04137 0.27150
 O369 O 0.26955 -0.00282 0.29932
 O370 O 0.26677 0.02840 0.29336
 O371 O 0.29423 -0.02230 0.25373
 O372 O 0.28804 -0.01965 0.22199
 Zr373 Zr 0.26929 -0.02075 0.24231
 O374 O 0.25373 -0.00505 0.22601
 Zr375 Zr 0.26877 0.00863 0.27419
 O376 O 0.25319 0.02564 0.25923
 Zr377 Zr 0.23858 -0.02231 0.27295
 O378 O 0.22163 -0.00671 0.25802
 Zr379 Zr 0.25729 0.02116 0.23240
 O380 O 0.27474 0.00562 0.24727
 Zr381 Zr 0.22730 -0.00985 0.23123
 O382 O 0.24289 -0.02711 0.24609
 Zr383 Zr 0.22680 0.01955 0.26319
 O384 O 0.24235 0.00386 0.27979
 O385 O 0.26484 -0.01746 0.26896
 O386 O 0.23093 0.01641 0.23640
 C387 C 0.26210 -0.05413 0.26424
 C388 C 0.30165 -0.01365 0.26606
 C389 C 0.26112 -0.01551 0.30622
 C390 C 0.23318 0.05255 0.24044
 C391 C 0.23326 0.01555 0.20000
 C392 C 0.19489 0.01336 0.23864
 H393 H 0.25676 -0.00719 0.21358
 H394 H 0.20944 -0.00980 0.26073
 H395 H 0.27234 -0.02500 0.27627
 H396 H 0.25591 0.03777 0.26238
 H397 H 0.28771 0.03434 0.23804
 H398 H 0.28556 0.03695 0.26787
 H399 H 0.20151 -0.02944 0.24079
 H400 H 0.21989 -0.04682 0.25978
 H401 H 0.28480 0.01409 0.21445
 H402 H 0.29630 -0.01026 0.22496
 H403 H 0.20044 0.00850 0.28136
 H404 H 0.21894 -0.01132 0.29798
 H405 H 0.25771 -0.04468 0.22179
 H406 H 0.23817 -0.02764 0.20447
 H407 H 0.25577 0.02637 0.29980
 H408 H 0.23647 0.04527 0.28290
 O409 O 0.54735 0.73133 0.24626
 O410 O 0.54209 0.73349 0.27712
 O411 O 0.50168 0.70490 0.22807
 O412 O 0.47298 0.70925 0.22803
 O413 O 0.52090 0.75024 0.20064
 O414 O 0.51909 0.78062 0.20619
 O415 O 0.45624 0.75354 0.27317
 O416 O 0.46132 0.72317 0.27034
 O417 O 0.49979 0.77612 0.29317
 O418 O 0.53135 0.77530 0.28602
 O419 O 0.47685 0.79689 0.24843
 O420 O 0.47688 0.78931 0.21713
 O421 O 0.45438 0.77312 0.25095
 O422 O 0.45941 0.76981 0.21846
 O423 O 0.49813 0.79794 0.26917
 O424 O 0.53026 0.79275 0.26631
 O425 O 0.48004 0.75430 0.29506
 O426 O 0.48271 0.72295 0.28993
 O427 O 0.54627 0.75148 0.22448
 O428 O 0.53880 0.78195 0.22529
 O429 O 0.50119 0.72830 0.20230
 O430 O 0.46988 0.73104 0.20993
 O431 O 0.52411 0.70664 0.24755
 O432 O 0.52303 0.71384 0.27849
 Zr433 Zr 0.52249 0.73196 0.25768
 O434 O 0.50748 0.74748 0.27458
 Zr435 Zr 0.49092 0.73004 0.22791
 O436 O 0.47426 0.74522 0.24371
 Zr437 Zr 0.52066 0.76136 0.22586
 O438 O 0.50518 0.77807 0.24119
 Zr439 Zr 0.48097 0.74235 0.27028
 O440 O 0.49605 0.72528 0.25470
 Zr441 Zr 0.51051 0.77369 0.26787
 O442 O 0.52744 0.75830 0.25246
 Zr443 Zr 0.47872 0.77158 0.23825
 O444 O 0.49412 0.75630 0.22109
 O445 O 0.51726 0.73519 0.23114
 O446 O 0.48407 0.76861 0.26487
 C447 C 0.55420 0.73972 0.23344
 C448 C 0.51483 0.69840 0.23623
 C449 C 0.51260 0.73734 0.19400
 C450 C 0.44821 0.76544 0.26457
 C451 C 0.48802 0.76753 0.30140
 C452 C 0.48527 0.80460 0.26074
 H453 H 0.51096 0.74526 0.28686
 H454 H 0.50748 0.79020 0.23776
 H455 H 0.52467 0.72771 0.22368
 H456 H 0.46197 0.74192 0.24172
 H457 H 0.46640 0.71273 0.26477
 H458 H 0.46310 0.71271 0.23558
 H459 H 0.52771 0.80022 0.25607
 H460 H 0.54502 0.78170 0.23668
 H461 H 0.49343 0.72498 0.29683
 H462 H 0.51184 0.70748 0.27802
 H463 H 0.48737 0.79674 0.21743
 H464 H 0.50728 0.77974 0.20104
 H465 H 0.54707 0.74529 0.27630
 H466 H 0.53049 0.76527 0.29406
 H467 H 0.47156 0.74152 0.20263
 H468 H 0.45173 0.75994 0.22135
 O469 O 0.00186 0.70218 0.72874
 O470 O -0.02873 0.70806 0.72992
 O471 O 0.02106 0.74737 0.70166
 O472 O 0.02198 0.77584 0.70573
 O473 O 0.04658 0.72789 0.74842
 O474 O 0.04065 0.73093 0.77917
 O475 O -0.02393 0.79398 0.74873
 O476 O -0.02055 0.78813 0.71808
 O477 O -0.04516 0.75130 0.77185
 O478 O -0.03873 0.71990 0.77188
 O479 O -0.00111 0.77377 0.79366
 O480 O 0.03022 0.77297 0.78700
 O481 O -0.00241 0.79571 0.76919
 O482 O 0.02971 0.79012 0.76696
 O483 O -0.02217 0.75309 0.79450
 O484 O -0.01932 0.72075 0.78989
 O485 O -0.04605 0.77104 0.74975
 O486 O -0.04039 0.76722 0.71793
 O487 O 0.02296 0.70377 0.74967
 O488 O 0.02129 0.71158 0.78044
 O489 O 0.04632 0.74740 0.72605
 O490 O 0.03910 0.77888 0.72826
 O491 O 0.00139 0.72535 0.70313
 O492 O -0.02940 0.72675 0.70973
 Zr493 Zr -0.00916 0.72726 0.72856
 O494 O -0.02613 0.74283 0.74351
 Zr495 Zr 0.02099 0.75823 0.72698
 O496 O 0.00510 0.77534 0.74154
 Zr497 Zr 0.02153 0.72926 0.75925
 O498 O 0.00616 0.74515 0.77545
 Zr499 Zr -0.02130 0.76906 0.73800
 O500 O -0.00557 0.75345 0.72152
 Zr501 Zr -0.02024 0.74018 0.77028
 O502 O -0.00482 0.72279 0.75548
 Zr503 Zr 0.00975 0.77126 0.76844
 O504 O 0.02698 0.75542 0.75380
 O505 O 0.01711 0.73219 0.73252
 O506 O -0.01664 0.76632 0.76476
 C507 C 0.01443 0.69559 0.73773
 C508 C 0.01285 0.73443 0.69495
 C509 C 0.05380 0.73564 0.73540
 C510 C -0.01559 0.80198 0.76092
 C511 C -0.05278 0.76335 0.76309
 C512 C -0.01375 0.76585 0.80123
 H513 H -0.03832 0.73958 0.74100
 H514 H 0.00918 0.74301 0.78787
 H515 H 0.02451 0.72457 0.72520
 H516 H 0.00736 0.78746 0.73802
 H517 H -0.01486 0.78271 0.70779
 H518 H 0.01416 0.78562 0.70863
 H519 H -0.00970 0.72360 0.79803
 H520 H 0.00996 0.70549 0.77993
 H521 H -0.04791 0.75712 0.72045
 H522 H -0.02887 0.73794 0.70338
 H523 H 0.02954 0.76264 0.79466
 H524 H 0.04619 0.74244 0.77791
 H525 H -0.02832 0.70333 0.74199
 H526 H -0.04618 0.72049 0.76130
 H527 H 0.04622 0.77707 0.73895
 H528 H 0.02738 0.79750 0.75661
 O529 O 0.04653 0.02157 0.00130
 O530 O 0.04052 0.01951 -0.02956
 O531 O 0.00131 0.04598 0.02190
 O532 O -0.02771 0.04129 0.02115
 O533 O 0.02214 0.00108 0.04695
 O534 O 0.02066 -0.02940 0.04082
 O535 O -0.04556 -0.00144 -0.02240
 O536 O -0.03962 0.02890 -0.01995
 O537 O -0.00158 -0.02368 -0.04532
 O538 O 0.03017 -0.02158 -0.03956
 O539 O -0.02241 -0.04567 -0.00114
 O540 O -0.02093 -0.03917 0.03084
 O541 O -0.04530 -0.02272 -0.00175
 O542 O -0.03939 -0.02043 0.03050
 O543 O -0.00099 -0.04613 -0.02167
 O544 O 0.03076 -0.03953 -0.02018
 O545 O -0.02245 -0.00277 -0.04575
 O546 O -0.01941 0.02649 -0.04259
 O547 O 0.04659 0.00076 0.02245
 O548 O 0.04003 -0.02979 0.02126
 O549 O 0.00151 0.02226 0.04642
 O550 O -0.02970 0.01942 0.03963
 O551 O 0.02238 0.04569 0.00094
 O552 O 0.02171 0.03842 -0.03066
 Zr553 Zr 0.02138 0.02046 -0.00965
 O554 O 0.00602 0.00501 -0.02634
 Zr555 Zr -0.00928 0.02088 0.02103
 O556 O -0.02605 0.00550 0.00560
 Zr557 Zr 0.02127 -0.00971 0.02155
 O558 O 0.00588 -0.02650 0.00624
 Zr559 Zr -0.02044 0.00921 -0.02107
 O560 O -0.00515 0.02647 -0.00581
 Zr561 Zr 0.01014 -0.02129 -0.02048
 O562 O 0.02714 -0.00587 -0.00516
 Zr563 Zr -0.02062 -0.02083 0.01017
 O564 O -0.00521 -0.00543 0.02720
 O565 O 0.01705 0.01645 0.01691
 O566 O -0.01635 -0.01707 -0.01650
 C567 C 0.05395 0.01298 0.01369
 C568 C 0.01367 0.05319 0.01319
 C569 C 0.01362 0.01358 0.05412
 C570 C -0.05267 -0.01411 -0.01416
 C571 C -0.01417 -0.01550 -0.05274
 C572 C -0.01376 -0.05314 -0.01344
 H573 H 0.00869 0.00778 -0.03872
 H574 H 0.00869 -0.03864 0.00926
 H575 H 0.02448 0.02391 0.02436
 H576 H -0.03831 0.00846 0.00820
 H577 H -0.03369 0.03959 -0.01597
 H578 H -0.03761 0.03760 0.01373
 H579 H 0.02914 -0.04710 -0.00984
 H580 H 0.04595 -0.02913 0.00974
 H581 H -0.01274 0.03670 -0.03862
 H582 H 0.01228 0.04691 -0.02855
 H583 H -0.01064 -0.04677 0.02944
 H584 H 0.00900 -0.02883 0.04632
 H585 H 0.04593 0.00788 -0.02887
 H586 H 0.02857 -0.01134 -0.04721
 H587 H -0.02799 0.00852 0.04627
 H588 H -0.04715 -0.01038 0.02848
 O589 O 0.04702 0.51869 0.50338
 O590 O 0.04129 0.51613 0.47242
 O591 O 0.00180 0.54363 0.52290
 O592 O -0.02713 0.53908 0.52257
 O593 O 0.02222 0.49883 0.54911
 O594 O 0.02067 0.46842 0.54347
 O595 O -0.04476 0.49567 0.47887
 O596 O -0.03924 0.52564 0.48065
 O597 O -0.00062 0.47298 0.45699
 O598 O 0.03111 0.47463 0.46337
 O599 O -0.02246 0.45194 0.50115
 O600 O -0.02125 0.45870 0.53303
 O601 O -0.04520 0.47522 0.50033
 O602 O -0.03928 0.47777 0.53248
 O603 O -0.00058 0.45074 0.48114
 O604 O 0.03105 0.45704 0.48281
 O605 O -0.02119 0.49416 0.45577
 O606 O -0.01869 0.52567 0.46065
 O607 O 0.04688 0.49812 0.52480
 O608 O 0.04004 0.46749 0.52394
 O609 O 0.00198 0.52038 0.54802
 O610 O -0.02931 0.51721 0.54124
 O611 O 0.02290 0.54293 0.50197
 O612 O 0.02192 0.53546 0.47129
 Zr613 Zr 0.02201 0.51742 0.49217
 O614 O 0.00686 0.50173 0.47554
 Zr615 Zr -0.00885 0.51853 0.52265
 O616 O -0.02557 0.50316 0.50715
 Zr617 Zr 0.02149 0.48777 0.52386
 O618 O 0.00604 0.47087 0.50873
 Zr619 Zr -0.01965 0.50635 0.48045
 O620 O -0.00448 0.52357 0.49579
 Zr621 Zr 0.01067 0.47554 0.48200
 O622 O 0.02763 0.49114 0.49716
 Zr623 Zr -0.02046 0.47685 0.51221
 O624 O -0.00503 0.49229 0.52920
 O625 O 0.01747 0.51389 0.51878
 O626 O -0.01586 0.48008 0.48550
 C627 C 0.05432 0.51024 0.51596
 C628 C 0.01417 0.55068 0.51405
 C629 C 0.01388 0.51162 0.55596
 C630 C -0.05229 0.48352 0.48755
 C631 C -0.01289 0.48126 0.44913
 C632 C -0.01363 0.44410 0.48922
 H633 H 0.00998 0.50407 0.46319
 H634 H 0.00868 0.45876 0.51200
 H635 H 0.02488 0.52149 0.52611
 H636 H -0.03783 0.50627 0.50956
 H637 H -0.03414 0.53596 0.48641
 H638 H -0.03736 0.53519 0.51573
 H639 H 0.02939 0.44985 0.49342
 H640 H 0.04624 0.46812 0.51257
 H641 H -0.00837 0.52350 0.45321
 H642 H 0.01041 0.54126 0.47156
 H643 H -0.01098 0.45104 0.53191
 H644 H 0.00884 0.46889 0.54861
 H645 H 0.04671 0.50452 0.47339
 H646 H 0.02975 0.48466 0.45539
 H647 H -0.02739 0.50659 0.54827
 H648 H -0.04679 0.48798 0.53038
 O649 O 0.45330 -0.00439 0.47836
 O650 O 0.45988 0.02602 0.47902
 O651 O 0.49863 -0.02692 0.45644
 O652 O 0.52735 -0.02711 0.46193
 O653 O 0.47569 -0.04857 0.50232
 O654 O 0.47669 -0.04120 0.53288
 O655 O 0.54480 0.01891 0.50373
 O656 O 0.54055 0.01482 0.47334
 O657 O 0.50042 0.04332 0.52279
 O658 O 0.46919 0.03778 0.52138
 O659 O 0.51986 -0.00077 0.54874
 O660 O 0.51901 -0.03187 0.54331
 O661 O 0.54364 -0.00036 0.52623
 O662 O 0.53756 -0.03270 0.52453
 O663 O 0.50007 0.02109 0.54718
 O664 O 0.46792 0.01929 0.54000
 O665 O 0.52259 0.04177 0.50309
 O666 O 0.52016 0.03509 0.47096
 O667 O 0.45201 -0.02362 0.50097
 O668 O 0.45805 -0.02133 0.53197
 O669 O 0.49740 -0.05010 0.48209
 O670 O 0.52864 -0.04369 0.48543
 O671 O 0.47839 -0.00542 0.45479
 O672 O 0.48009 0.02532 0.46035
 Zr673 Zr 0.47862 0.00595 0.47992
 O674 O 0.49373 0.02297 0.49523
 Zr675 Zr 0.50856 -0.02513 0.48212
 O676 O 0.52526 -0.00927 0.49715
 Zr677 Zr 0.47714 -0.02310 0.51207
 O678 O 0.49252 -0.00757 0.52867
 Zr679 Zr 0.52021 0.01696 0.49191
 O680 O 0.50519 0.00109 0.47501
 Zr681 Zr 0.48892 0.01861 0.52201
 O682 O 0.47201 0.00316 0.50661
 Zr683 Zr 0.51906 -0.01232 0.52382
 O684 O 0.50358 -0.02961 0.50889
 O685 O 0.48220 -0.02014 0.48549
 O686 O 0.51538 0.01388 0.51861
 C687 C 0.44526 -0.01567 0.48777
 C688 C 0.48691 -0.01820 0.44818
 C689 C 0.48466 -0.05677 0.49072
 C690 C 0.55134 0.01156 0.51735
 C691 C 0.51371 0.04973 0.51490
 C692 C 0.51183 0.01232 0.55530
 H693 H 0.49109 0.03506 0.49190
 H694 H 0.48937 -0.00994 0.54101
 H695 H 0.47481 -0.02768 0.47808
 H696 H 0.53757 -0.01214 0.49467
 H697 H 0.53562 0.00883 0.46297
 H698 H 0.53751 -0.02008 0.46553
 H699 H 0.46986 0.01007 0.54881
 H700 H 0.45252 -0.00980 0.53069
 H701 H 0.51084 0.04369 0.47308
 H702 H 0.49181 0.02433 0.45503
 H703 H 0.50787 -0.03097 0.54974
 H704 H 0.48807 -0.04725 0.53269
 H705 H 0.45389 0.02595 0.49052
 H706 H 0.47006 0.04389 0.51001
 H707 H 0.52645 -0.04962 0.49674
 H708 H 0.54635 -0.03047 0.51533
 O709 O 0.50254 0.54585 0.02232
 O710 O 0.47195 0.53958 0.02084
 O711 O 0.52307 0.50135 0.04860
 O712 O 0.52396 0.47275 0.04441
 O713 O 0.54755 0.52166 0.00206
 O714 O 0.54131 0.51859 -0.02885
 O715 O 0.47907 0.45366 0.00129
 O716 O 0.48263 0.45970 0.03225
 O717 O 0.45587 0.49640 -0.02098
 O718 O 0.46159 0.52770 -0.02071
 O719 O 0.49999 0.47464 -0.04313
 O720 O 0.53194 0.47719 -0.03720
 O721 O 0.50066 0.45277 -0.01908
 O722 O 0.53228 0.45946 -0.01767
 O723 O 0.47910 0.49549 -0.04425
 O724 O 0.48082 0.52770 -0.03897
 O725 O 0.45634 0.47608 0.00058
 O726 O 0.46006 0.48013 0.03023
 O727 O 0.52313 0.54546 0.00087
 O728 O 0.52169 0.53780 -0.02972
 O729 O 0.54785 0.50145 0.02382
 O730 O 0.54127 0.47018 0.02214
 O731 O 0.50289 0.52292 0.04736
 O732 O 0.47130 0.52123 0.04056
 Zr733 Zr 0.49189 0.52071 0.02211
 O734 O 0.47533 0.50474 0.00716
 Zr735 Zr 0.52271 0.49047 0.02327
 O736 O 0.50743 0.47310 0.00847
 Zr737 Zr 0.52239 0.51987 -0.00875
 O738 O 0.50723 0.50378 -0.02506
 Zr739 Zr 0.48095 0.47861 0.01221
 O740 O 0.49609 0.49453 0.02902
 Zr741 Zr 0.48070 0.50794 -0.01969
 O742 O 0.49586 0.52556 -0.00480
 Zr743 Zr 0.51168 0.47771 -0.01837
 O744 O 0.52850 0.49377 -0.00353
 O745 O 0.51824 0.51647 0.01795
 O746 O 0.48518 0.48183 -0.01453
 C747 C 0.51462 0.55307 0.01321
 C748 C 0.51470 0.51414 0.05540
 C749 C 0.55506 0.51350 0.01469
 C750 C 0.48773 0.44600 -0.01087
 C751 C 0.44891 0.48395 -0.01226
 C752 C 0.48739 0.48255 -0.05083
 H753 H 0.46306 0.50740 0.01005
 H754 H 0.51003 0.50613 -0.03748
 H755 H 0.52560 0.52417 0.02523
 H756 H 0.51013 0.46102 0.01183
 H757 H 0.48667 0.46576 0.04297
 H758 H 0.51602 0.46306 0.04155
 H759 H 0.49059 0.52538 -0.04710
 H760 H 0.51008 0.54338 -0.02933
 H761 H 0.46443 0.48656 0.04054
 H762 H 0.47382 0.51229 0.04952
 H763 H 0.53000 0.48687 -0.04548
 H764 H 0.54707 0.50716 -0.02770
 H765 H 0.47253 0.54472 0.00895
 H766 H 0.45473 0.52708 -0.00975
 H767 H 0.54801 0.47181 0.01119
 H768 H 0.53074 0.45223 -0.00706
 O769 O 0.74805 0.27545 0.45081
 O770 O 0.71734 0.27349 0.45698
 O771 O 0.76922 0.29697 0.49727
 O772 O 0.76872 0.29107 0.52620
 O773 O 0.79311 0.25307 0.47367
 O774 O 0.78673 0.22251 0.47415
 O775 O 0.72450 0.24800 0.54233
 O776 O 0.72731 0.27825 0.53843
 O777 O 0.70105 0.22896 0.49679
 O778 O 0.70723 0.23161 0.46505
 O779 O 0.74513 0.20498 0.51707
 O780 O 0.77678 0.21080 0.51570
 O781 O 0.74493 0.22671 0.54094
 O782 O 0.77713 0.22896 0.53488
 O783 O 0.72402 0.20580 0.49617
 O784 O 0.72608 0.21336 0.46407
 O785 O 0.70173 0.24794 0.51962
 O786 O 0.70694 0.27992 0.51785
 O787 O 0.76821 0.25382 0.44939
 O788 O 0.76715 0.22312 0.45480
 O789 O 0.79303 0.27287 0.49580
 O790 O 0.78665 0.26854 0.52711
 O791 O 0.74792 0.29828 0.47650
 O792 O 0.71718 0.29175 0.47762
 Zr793 Zr 0.73729 0.27308 0.47612
 O794 O 0.72055 0.25709 0.49083
 Zr795 Zr 0.76802 0.27146 0.50679
 O796 O 0.75255 0.25568 0.52304
 Zr797 Zr 0.76779 0.24241 0.47450
 O798 O 0.75245 0.22515 0.48932
 Zr799 Zr 0.72611 0.26008 0.51767
 O800 O 0.74153 0.27763 0.50307
 Zr801 Zr 0.72597 0.23092 0.48545
 O802 O 0.74127 0.24696 0.46901
 Zr803 Zr 0.75669 0.22961 0.51620
 O804 O 0.77373 0.24533 0.50131
 O805 O 0.76361 0.26841 0.48009
 O806 O 0.73027 0.23397 0.51224
 C807 C 0.75985 0.26669 0.44272
 C808 C 0.76049 0.30501 0.48537
 C809 C 0.80042 0.26497 0.48295
 C810 C 0.73257 0.23487 0.54877
 C811 C 0.69428 0.23613 0.51041
 C812 C 0.73236 0.19818 0.50863
 H813 H 0.70832 0.26000 0.48807
 H814 H 0.75523 0.21309 0.48598
 H815 H 0.77099 0.27612 0.47287
 H816 H 0.75524 0.25798 0.53552
 H817 H 0.73289 0.28880 0.53364
 H818 H 0.76202 0.28683 0.53641
 H819 H 0.73576 0.20509 0.46589
 H820 H 0.75548 0.22381 0.44930
 H821 H 0.69856 0.27768 0.50824
 H822 H 0.71767 0.29665 0.48962
 H823 H 0.77549 0.20401 0.50476
 H824 H 0.79238 0.22262 0.48583
 H825 H 0.71798 0.26226 0.45072
 H826 H 0.70004 0.24212 0.46670
 H827 H 0.79314 0.25771 0.52468
 H828 H 0.77502 0.23831 0.54351
 O829 O 0.79562 0.75235 -0.02586
 O830 O 0.78860 0.72193 -0.02507
 O831 O 0.75004 0.77471 -0.04906
 O832 O 0.72119 0.77450 -0.04364
 O833 O 0.77271 0.79715 -0.00331
 O834 O 0.77136 0.79001 0.02762
 O835 O 0.70335 0.73029 -0.00101
 O836 O 0.70834 0.73423 -0.03207
 O837 O 0.74771 0.70545 0.01821
 O838 O 0.77931 0.71106 0.01629
 O839 O 0.72870 0.74983 0.04373
 O840 O 0.73033 0.78145 0.03761
 O841 O 0.70495 0.74972 0.02135
 O842 O 0.71090 0.78152 0.01970
 O843 O 0.74809 0.72760 0.04219
 O844 O 0.78013 0.72921 0.03558
 O845 O 0.72554 0.70707 -0.00150
 O846 O 0.72807 0.71113 -0.03122
 O847 O 0.79622 0.77272 -0.00426
 O848 O 0.79060 0.77038 0.02658
 O849 O 0.75107 0.79823 -0.02371
 O850 O 0.72005 0.79203 -0.02087
 O851 O 0.77065 0.75352 -0.04997
 O852 O 0.76964 0.72228 -0.04391
 Zr853 Zr 0.77007 0.74222 -0.02482
 O854 O 0.75453 0.72556 -0.00956
 Zr855 Zr 0.74003 0.77326 -0.02339
 O856 O 0.72324 0.75797 -0.00792
 Zr857 Zr 0.77127 0.77182 0.00686
 O858 O 0.75603 0.75638 0.02364
 Zr859 Zr 0.72808 0.73168 -0.01283
 O860 O 0.74344 0.74689 -0.03007
 Zr861 Zr 0.75944 0.73008 0.01719
 O862 O 0.77646 0.74546 0.00186
 Zr863 Zr 0.72957 0.76132 0.01873
 O864 O 0.74489 0.77829 0.00335
 O865 O 0.76637 0.76838 -0.01971
 O866 O 0.73301 0.73504 0.01379
 C867 C 0.80331 0.76428 -0.01692
 C868 C 0.76196 0.76599 -0.05700
 C869 C 0.76377 0.80507 -0.01515
 C870 C 0.69704 0.73784 0.01263
 C871 C 0.73433 0.69911 0.01037
 C872 C 0.73641 0.73651 0.05022
 H873 H 0.75681 0.71339 -0.01296
 H874 H 0.75922 0.75882 0.03596
 H875 H 0.77379 0.77582 -0.02717
 H876 H 0.71095 0.76091 -0.01043
 H877 H 0.71410 0.73821 -0.04297
 H878 H 0.71110 0.76749 -0.03985
 H879 H 0.77845 0.73882 0.04400
 H880 H 0.79573 0.75863 0.02578
 H881 H 0.73454 0.71530 -0.04158
 H882 H 0.75976 0.72466 -0.05190
 H883 H 0.74081 0.77967 0.04495
 H884 H 0.76019 0.79638 0.02691
 H885 H 0.79463 0.72228 -0.01358
 H886 H 0.77763 0.70420 0.00545
 H887 H 0.72170 0.79769 -0.00933
 H888 H 0.70274 0.77992 0.00978
 O889 O 1.04542 0.22987 0.24677
 O890 O 1.03951 0.23206 0.27746
 O891 O 0.99976 0.20434 0.22725
 O892 O 0.97108 0.20925 0.22674
 O893 O 1.02037 0.24955 0.20065
 O894 O 1.01905 0.27986 0.20635
 O895 O 0.95369 0.25332 0.27093
 O896 O 0.95911 0.22267 0.26839
 O897 O 0.99702 0.27571 0.29237
 O898 O 1.02884 0.27363 0.28679
 O899 O 0.97550 0.29628 0.24842
 O900 O 0.97730 0.28953 0.21630
 O901 O 0.95288 0.27283 0.24859
 O902 O 0.95915 0.27060 0.21671
 O903 O 0.99769 0.29765 0.26815
 O904 O 1.02940 0.29100 0.26693
 O905 O 0.97667 0.25437 0.29363
 O906 O 0.98011 0.22497 0.29072
 O907 O 1.04518 0.25002 0.22497
 O908 O 1.03839 0.28064 0.22590
 O909 O 1.00023 0.22797 0.20166
 O910 O 0.96882 0.23078 0.20866
 O911 O 1.02186 0.20562 0.24711
 O912 O 1.02058 0.21313 0.27882
 Zr913 Zr 1.02030 0.23085 0.25761
 O914 O 1.00499 0.24657 0.27410
 Zr915 Zr 0.98946 0.22964 0.22708
 O916 O 0.97267 0.24515 0.24236
 Zr917 Zr 1.01978 0.26045 0.22591
 O918 O 1.00427 0.27741 0.24089
 Zr919 Zr 0.97854 0.24210 0.26909
 O920 O 0.99378 0.22462 0.25402
 Zr921 Zr 1.00882 0.27277 0.26766
 O922 O 1.02586 0.25713 0.25264
 Zr923 Zr 0.97780 0.27142 0.23718
 O924 O 0.99329 0.25585 0.22042
 O925 O 1.01579 0.23432 0.23097
 O926 O 0.98235 0.26829 0.26390
 C927 C 1.05269 0.23812 0.23409
 C928 C 1.01266 0.19758 0.23558
 C929 C 1.01197 0.23688 0.19369
 C930 C 0.94606 0.26513 0.26186
 C931 C 0.98466 0.26752 0.30013
 C932 C 0.98449 0.30420 0.26019
 H933 H 1.00780 0.24407 0.28651
 H934 H 1.00694 0.28951 0.23760
 H935 H 1.02321 0.22678 0.22360
 H936 H 0.96041 0.24203 0.23992
 H937 H 0.96490 0.21185 0.26454
 H938 H 0.96164 0.21250 0.23493
 H939 H 1.02777 0.29825 0.25634
 H940 H 1.04462 0.27996 0.23727
 H941 H 0.98622 0.21449 0.28653
 H942 H 1.01144 0.20438 0.27653
 H943 H 0.98713 0.29763 0.21797
 H944 H 1.00717 0.27958 0.20130
 H945 H 1.04452 0.24386 0.27693
 H946 H 1.02724 0.26365 0.29477
 H947 H 0.97074 0.24126 0.20142
 H948 H 0.95180 0.26024 0.21857
 O949 O 0.75209 1.04867 0.72510
 O950 O 0.78269 1.04190 0.72700
 O951 O 0.73171 1.00340 0.69968
 O952 O 0.73092 0.97484 0.70472
 O953 O 0.70615 1.02497 0.74510
 O954 O 0.71198 1.02301 0.77615
 O955 O 0.77477 0.95691 0.74892
 O956 O 0.77196 0.96190 0.71814
 O957 O 0.79775 1.00073 0.77020
 O958 O 0.79143 1.03227 0.76901
 O959 O 0.75259 0.98013 0.79299
 O960 O 0.72118 0.98168 0.78585
 O961 O 0.75368 0.95736 0.76981
 O962 O 0.72161 0.96335 0.76690
 O963 O 0.77462 0.99979 0.79294
 O964 O 0.77249 1.03195 0.78747
 O965 O 0.79741 0.97915 0.74987
 O966 O 0.79272 0.98200 0.71772
 O967 O 0.73109 1.04893 0.74615
 O968 O 0.73142 1.04215 0.77679
 O969 O 0.70674 1.00452 0.72357
 O970 O 0.71274 0.97329 0.72694
 O971 O 0.75201 1.02487 0.70055
 O972 O 0.78264 1.02265 0.70727
 Zr973 Zr 0.76242 1.02339 0.72606
 O974 O 0.77879 1.00793 0.74178
 Zr975 Zr 0.73161 0.99324 0.72532
 O976 O 0.74662 0.97633 0.74096
 Zr977 Zr 0.73126 1.02361 0.75636
 O978 O 0.74623 1.00813 0.77345
 Zr979 Zr 0.77317 0.98162 0.73739
 O980 O 0.75825 0.99705 0.71999
 Zr981 Zr 0.77285 1.01202 0.76835
 O982 O 0.75788 1.02913 0.75270
 Zr983 Zr 0.74193 0.98187 0.76759
 O984 O 0.72532 0.99737 0.75190
 O985 O 0.73598 1.01941 0.72988
 O986 O 0.76847 0.98579 0.76394
 C987 C 0.74001 1.05623 0.73395
 C988 C 0.74019 1.01599 0.69265
 C989 C 0.69913 1.01662 0.73228
 C990 C 0.76640 0.95002 0.76175
 C991 C 0.80465 0.98766 0.76239
 C992 C 0.76570 0.98767 0.80018
 H993 H 0.79108 1.01073 0.73924
 H994 H 0.74322 1.01087 0.78575
 H995 H 0.72883 1.02699 0.72226
 H996 H 0.74398 0.96413 0.73801
 H997 H 0.76682 0.96721 0.70749
 H998 H 0.73768 0.96462 0.70861
 H999 H 0.76278 1.02961 0.79565
 H1000 H 0.74328 1.04716 0.77701
 H1001 H 0.80057 0.99189 0.72003
 H1002 H 0.78209 1.01108 0.70169
 H1003 H 0.72235 0.99209 0.79333
 H1004 H 0.70605 1.01166 0.77511
 H1005 H 0.78188 1.04762 0.73860
 H1006 H 0.79912 1.03090 0.75870
 H1007 H 0.70603 0.97529 0.73785
 H1008 H 0.72384 0.95542 0.75695
 O1009 O 0.79912 0.50416 0.27419
 O1010 O 0.79149 0.53459 0.27412
 O1011 O 0.75375 0.48061 0.29623
 O1012 O 0.72522 0.47954 0.29018
 O1013 O 0.77785 0.45995 0.24991
 O1014 O 0.77622 0.46777 0.21918
 O1015 O 0.70653 0.52494 0.24923
 O1016 O 0.71178 0.52064 0.28021
 O1017 O 0.75070 0.55157 0.23096
 O1018 O 0.78214 0.54664 0.23277
 O1019 O 0.73240 0.50771 0.20402
 O1020 O 0.73501 0.47603 0.20884
 O1021 O 0.70873 0.50623 0.22629
 O1022 O 0.71582 0.47452 0.22693
 O1023 O 0.75137 0.53019 0.20641
 O1024 O 0.78368 0.52879 0.21322
 O1025 O 0.72818 0.54885 0.25008
 O1026 O 0.73073 0.54420 0.27978
 O1027 O 0.80079 0.48526 0.25132
 O1028 O 0.79485 0.48776 0.22064
 O1029 O 0.75605 0.45765 0.27000
 O1030 O 0.72463 0.46335 0.26687
 O1031 O 0.77460 0.50149 0.29761
 O1032 O 0.77218 0.53301 0.29296
 Zr1033 Zr 0.77347 0.51392 0.27304
 O1034 O 0.75767 0.53075 0.25815
 Zr1035 Zr 0.74424 0.48233 0.27033
 O1036 O 0.72718 0.49777 0.25525
 Zr1037 Zr 0.77566 0.48546 0.24038
 O1038 O 0.76008 0.50102 0.22398
 Zr1039 Zr 0.73134 0.52403 0.26098
 O1040 O 0.74693 0.50855 0.27788
 Zr1041 Zr 0.76283 0.52713 0.23132
 O1042 O 0.78015 0.51173 0.24633
 Zr1043 Zr 0.73372 0.49532 0.22856
 O1044 O 0.74942 0.47825 0.24349
 O1045 O 0.77048 0.48788 0.26700
 O1046 O 0.73650 0.52152 0.23432
 C1047 C 0.80739 0.49314 0.26462
 C1048 C 0.76588 0.48892 0.30430
 C1049 C 0.76904 0.45144 0.26139
 C1050 C 0.70043 0.51755 0.23541
 C1051 C 0.73700 0.55737 0.23863
 C1052 C 0.73978 0.52143 0.19807
 H1053 H 0.75966 0.54285 0.26194
 H1054 H 0.76335 0.49906 0.21160
 H1055 H 0.77807 0.48040 0.27427
 H1056 H 0.71497 0.49446 0.25760
 H1057 H 0.71770 0.51661 0.29102
 H1058 H 0.71544 0.48732 0.28711
 H1059 H 0.78180 0.51995 0.20401
 H1060 H 0.79957 0.49965 0.22160
 H1061 H 0.73782 0.54021 0.28981
 H1062 H 0.76248 0.52981 0.30087
 H1063 H 0.74558 0.47821 0.20178
 H1064 H 0.76515 0.46122 0.21962
 H1065 H 0.79776 0.53459 0.26277
 H1066 H 0.78065 0.55274 0.24409
 H1067 H 0.72688 0.45768 0.25544
 H1068 H 0.70749 0.47568 0.23676
 O1069 O 0.54619 0.22581 0.75010
 O1070 O 0.53976 0.22810 0.78090
 O1071 O 0.50093 0.20239 0.72888
 O1072 O 0.47212 0.20765 0.72842
 O1073 O 0.52302 0.24706 0.70397
 O1074 O 0.52207 0.27751 0.71025
 O1075 O 0.45425 0.25026 0.77215
 O1076 O 0.45940 0.22041 0.77024
 O1077 O 0.49840 0.27179 0.79614
 O1078 O 0.53022 0.26958 0.79047
 O1079 O 0.47834 0.29435 0.75128
 O1080 O 0.47994 0.28802 0.71959
 O1081 O 0.45507 0.27161 0.75162
 O1082 O 0.46161 0.26927 0.71928
 O1083 O 0.49945 0.29460 0.77221
 O1084 O 0.53096 0.28761 0.77145
 O1085 O 0.47666 0.25181 0.79555
 O1086 O 0.47961 0.21979 0.79076
 O1087 O 0.54706 0.24661 0.72893
 O1088 O 0.54104 0.27743 0.73029
 O1089 O 0.50229 0.22600 0.70422
 O1090 O 0.47095 0.22984 0.71007
 O1091 O 0.52153 0.20227 0.75038
 O1092 O 0.51988 0.20926 0.78120
 Zr1093 Zr 0.52095 0.22760 0.76062
 O1094 O 0.50567 0.24333 0.77710
 Zr1095 Zr 0.49086 0.22773 0.72923
 O1096 O 0.47407 0.24323 0.74444
 Zr1097 Zr 0.52194 0.25773 0.72944
 O1098 O 0.50647 0.27473 0.74447
 Zr1099 Zr 0.47925 0.23937 0.77120
 O1100 O 0.49446 0.22209 0.75606
 Zr1101 Zr 0.51023 0.26954 0.77129
 O1102 O 0.52725 0.25382 0.75628
 Zr1103 Zr 0.47993 0.26949 0.74007
 O1104 O 0.49547 0.25397 0.72326
 O1105 O 0.51716 0.23165 0.73396
 O1106 O 0.48375 0.26564 0.76681
 C1107 C 0.55397 0.23415 0.73777
 C1108 C 0.51294 0.19492 0.73792
 C1109 C 0.51457 0.23455 0.69674
 C1110 C 0.44740 0.26304 0.76385
 C1111 C 0.48517 0.26413 0.80297
 C1112 C 0.48694 0.30177 0.76366
 H1113 H 0.50834 0.24069 0.78950
 H1114 H 0.50947 0.28682 0.74148
 H1115 H 0.52457 0.22399 0.72671
 H1116 H 0.46182 0.24046 0.74162
 H1117 H 0.46450 0.21006 0.76451
 H1118 H 0.46184 0.21165 0.73511
 H1119 H 0.52987 0.29486 0.76080
 H1120 H 0.54687 0.27645 0.74184
 H1121 H 0.48881 0.22257 0.79941
 H1122 H 0.50818 0.20391 0.78063
 H1123 H 0.49064 0.29506 0.72079
 H1124 H 0.51047 0.27725 0.70456
 H1125 H 0.54549 0.23956 0.78025
 H1126 H 0.52847 0.25941 0.79816
 H1127 H 0.47321 0.24061 0.70339
 H1128 H 0.45349 0.25953 0.72131
 O1129 O 0.29629 0.74785 0.47518
 O1130 O 0.28922 0.71743 0.47554
 O1131 O 0.25067 0.77111 0.45355
 O1132 O 0.22186 0.77076 0.45935
 O1133 O 0.27419 0.79214 0.49941
 O1134 O 0.27328 0.78424 0.53016
 O1135 O 0.20434 0.72577 0.50107
 O1136 O 0.20892 0.73031 0.47008
 O1137 O 0.24892 0.70007 0.51900
 O1138 O 0.28046 0.70556 0.51680
 O1139 O 0.23020 0.74368 0.54586
 O1140 O 0.23236 0.77550 0.54083
 O1141 O 0.20635 0.74473 0.52383
 O1142 O 0.21279 0.77651 0.52302
 O1143 O 0.24962 0.72156 0.54347
 O1144 O 0.28170 0.72330 0.53647
 O1145 O 0.22636 0.70235 0.49980
 O1146 O 0.22848 0.70705 0.47014
 O1147 O 0.29748 0.76754 0.49739
 O1148 O 0.29235 0.76447 0.52831
 O1149 O 0.25207 0.79389 0.47958
 O1150 O 0.22110 0.78774 0.48255
 O1151 O 0.27087 0.74959 0.45166
 O1152 O 0.26991 0.71821 0.45708
 Zr1153 Zr 0.27075 0.73776 0.47656
 O1154 O 0.25536 0.72083 0.49167
 Zr1155 Zr 0.24097 0.76895 0.47930
 O1156 O 0.22433 0.75339 0.49465
 Zr1157 Zr 0.27271 0.76656 0.50896
 O1158 O 0.25761 0.75081 0.52562
 Zr1159 Zr 0.22891 0.72719 0.48897
 O1160 O 0.24409 0.74274 0.47187
 Zr1161 Zr 0.26073 0.72468 0.51843
 O1162 O 0.27762 0.74030 0.50321
 Zr1163 Zr 0.23110 0.75604 0.52127
 O1164 O 0.24631 0.77328 0.50607
 O1165 O 0.26733 0.76381 0.48241
 O1166 O 0.23429 0.72988 0.51558
 C1167 C 0.30424 0.75947 0.48429
 C1168 C 0.26227 0.76238 0.44516
 C1169 C 0.26498 0.80043 0.48805
 C1170 C 0.19822 0.73314 0.51490
 C1171 C 0.23532 0.69403 0.51129
 C1172 C 0.23789 0.73010 0.55184
 H1173 H 0.25751 0.70874 0.48793
 H1174 H 0.26098 0.75289 0.53796
 H1175 H 0.27464 0.77141 0.47500
 H1176 H 0.21204 0.75649 0.49240
 H1177 H 0.21456 0.73449 0.45919
 H1178 H 0.21179 0.76370 0.46311
 H1179 H 0.28004 0.73252 0.54534
 H1180 H 0.29736 0.75270 0.52712
 H1181 H 0.23481 0.71140 0.45977
 H1182 H 0.25992 0.72081 0.44929
 H1183 H 0.24288 0.77331 0.54802
 H1184 H 0.26205 0.79055 0.52991
 H1185 H 0.29547 0.71755 0.48691
 H1186 H 0.27869 0.69909 0.50572
 H1187 H 0.22295 0.79313 0.49419
 H1188 H 0.20440 0.77520 0.51325
 O1189 O 0.25317 0.27340 0.95596
 O1190 O 0.22251 0.27192 0.96241
 O1191 O 0.27517 0.29341 1.00268
 O1192 O 0.27524 0.28688 1.03140
 O1193 O 0.29768 0.24973 0.97757
 O1194 O 0.29095 0.21922 0.97759
 O1195 O 0.23010 0.24443 1.04711
 O1196 O 0.23336 0.27466 1.04384
 O1197 O 0.20560 0.22706 1.00123
 O1198 O 0.21144 0.22958 0.96991
 O1199 O 0.25028 0.20118 1.02016
 O1200 O 0.28147 0.20693 1.01940
 O1201 O 0.24965 0.22238 1.04489
 O1202 O 0.28209 0.22477 1.03887
 O1203 O 0.22799 0.20343 1.00064
 O1204 O 0.23034 0.21138 0.96822
 O1205 O 0.20688 0.24534 1.02459
 O1206 O 0.21286 0.27717 1.02359
 O1207 O 0.27266 0.25125 0.95382
 O1208 O 0.27107 0.22049 0.95864
 O1209 O 0.29885 0.26851 1.00058
 O1210 O 0.29234 0.26397 1.03180
 O1211 O 0.25366 0.29561 0.98222
 O1212 O 0.22286 0.28961 0.98357
 Zr1213 Zr 0.24262 0.27064 0.98135
 O1214 O 0.22571 0.25467 0.99588
 Zr1215 Zr 0.27372 0.26769 1.01161
 O1216 O 0.25803 0.25192 1.02769
 Zr1217 Zr 0.27234 0.23940 0.97868
 O1218 O 0.25692 0.22213 0.99336
 Zr1219 Zr 0.23160 0.25695 1.02272
 O1220 O 0.24729 0.27447 1.00835
 Zr1221 Zr 0.23053 0.22851 0.98995
 O1222 O 0.24588 0.24460 0.97362
 Zr1223 Zr 0.26158 0.22592 1.02029
 O1224 O 0.27875 0.24157 1.00546
 O1225 O 0.26889 0.26536 0.98490
 O1226 O 0.23517 0.23087 1.01675
 C1227 C 0.26460 0.26448 0.94752
 C1228 C 0.26640 0.30192 0.99114
 C1229 C 0.30566 0.26086 0.98725
 C1230 C 0.23771 0.23082 1.05309
 C1231 C 0.19903 0.23407 1.01502
 C1232 C 0.23690 0.19507 1.01218
 H1233 H 0.21352 0.25788 0.99329
 H1234 H 0.25945 0.21011 0.98970
 H1235 H 0.27635 0.27309 0.97779
 H1236 H 0.26087 0.25392 1.04019
 H1237 H 0.23915 0.28518 1.03924
 H1238 H 0.26821 0.28278 1.04144
 H1239 H 0.23924 0.20233 0.97031
 H1240 H 0.25933 0.22146 0.95335
 H1241 H 0.20444 0.27544 1.01392
 H1242 H 0.22364 0.29428 0.99565
 H1243 H 0.28069 0.20107 1.00788
 H1244 H 0.29711 0.21927 0.98902
 H1245 H 0.22293 0.26089 0.95578
 H1246 H 0.20520 0.24074 0.97111
 H1247 H 0.29850 0.25299 1.02919
 H1248 H 0.27971 0.23346 1.04812
 C1249 C 0.29125 0.37892 0.78494
 C1250 C 0.27933 0.36770 0.79337
 C1251 C 0.28508 0.35176 0.80025
 C1252 C 0.30279 0.34712 0.79953
 C1253 C 0.31460 0.35868 0.79173
 C1254 C 0.30895 0.37424 0.78443
 C1255 C 0.28465 0.39571 0.77765
 C1256 C 0.29517 0.40698 0.76773
 C1257 C 0.28878 0.42296 0.76211
 C1258 C 0.27177 0.42818 0.76628
 C1259 C 0.26089 0.41668 0.77543
 C1260 C 0.26713 0.40040 0.78088
 C1261 C 0.26188 0.37269 0.79533
 C1262 C 0.25600 0.38885 0.78956
 H1263 H 0.25274 0.36419 0.80188
 H1264 H 0.24251 0.39231 0.79185
 H1265 H 0.27576 0.34307 0.80624
 H1266 H 0.32843 0.35591 0.79156
 H1267 H 0.29743 0.43149 0.75496
 H1268 H 0.24762 0.42044 0.77844
 H1269 H 0.31874 0.38261 0.77888
 H1270 H 0.30839 0.40378 0.76422
 C1271 C 0.28805 -0.12143 0.28640
 C1272 C 0.28348 -0.12685 0.30350
 C1273 C 0.29032 -0.14226 0.31042
 C1274 C 0.30169 -0.15289 0.30057
 C1275 C 0.30587 -0.14747 0.28339
 C1276 C 0.29920 -0.13207 0.27644
 C1277 C 0.28092 -0.10453 0.27977
 C1278 C 0.28538 -0.09748 0.26330
 C1279 C 0.27892 -0.08134 0.25808
 C1280 C 0.26770 -0.07189 0.26902
 C1281 C 0.26290 -0.07898 0.28528
 C1282 C 0.26956 -0.09501 0.29079
 C1283 C 0.27218 -0.11679 0.31373
 C1284 C 0.26526 -0.10129 0.30746
 H1285 H 0.26861 -0.12096 0.32683
 H1286 H 0.25659 -0.09399 0.31592
 H1287 H 0.28728 -0.14537 0.32392
 H1288 H 0.31387 -0.15534 0.27484
 H1289 H 0.28290 -0.07617 0.24549
 H1290 H 0.25445 -0.07172 0.29400
 H1291 H 0.30285 -0.12882 0.26318
 H1292 H 0.29408 -0.10403 0.25440
 C1293 C 0.79184 0.88467 0.78971
 C1294 C 0.80386 0.87517 0.77948
 C1295 C 0.81043 0.85924 0.78562
 C1296 C 0.80556 0.85260 0.80222
 C1297 C 0.79422 0.86278 0.81256
 C1298 C 0.78745 0.87840 0.80643
 C1299 C 0.78460 0.90123 0.78247
 C1300 C 0.77151 0.91079 0.79106
 C1301 C 0.76541 0.92632 0.78404
 C1302 C 0.77214 0.93282 0.76824
 C1303 C 0.78490 0.92316 0.75931
 C1304 C 0.79099 0.90735 0.76620
 C1305 C 0.80935 0.88171 0.76323
 C1306 C 0.80329 0.89759 0.75688
 H1307 H 0.81868 0.87455 0.75539
 H1308 H 0.80815 0.90218 0.74437
 H1309 H 0.81884 0.85188 0.77701
 H1310 H 0.79090 0.85918 0.82585
 H1311 H 0.75555 0.93340 0.79125
 H1312 H 0.79013 0.92792 0.74702
 H1313 H 0.77905 0.88550 0.81519
 H1314 H 0.76573 0.90651 0.80320
 C1315 C 0.46134 0.87225 0.28399
 C1316 C 0.46316 0.87580 0.30212
 C1317 C 0.45676 0.89133 0.30912
 C1318 C 0.44903 0.90394 0.29831
 C1319 C 0.44784 0.90068 0.28020
 C1320 C 0.45384 0.88504 0.27312
 C1321 C 0.46758 0.85505 0.27725
 C1322 C 0.46483 0.84939 0.25985
 C1323 C 0.47060 0.83303 0.25440
 C1324 C 0.47953 0.82212 0.26606
 C1325 C 0.48236 0.82768 0.28334
 C1326 C 0.47615 0.84377 0.28911
 C1327 C 0.47142 0.86388 0.31321
 C1328 C 0.47806 0.84835 0.30678
 H1329 H 0.47294 0.86668 0.32707
 H1330 H 0.48447 0.83961 0.31588
 H1331 H 0.45755 0.89341 0.32317
 H1332 H 0.44233 0.91026 0.27143
 H1333 H 0.46814 0.82895 0.24102
 H1334 H 0.48893 0.81920 0.29254
 H1335 H 0.45261 0.88326 0.25913
 H1336 H 0.45799 0.85724 0.25037
 C1337 C -0.04253 0.86733 0.78700
 C1338 C -0.03056 0.87895 0.79483
 C1339 C -0.03645 0.89472 0.80195
 C1340 C -0.05428 0.89890 0.80194
 C1341 C -0.06612 0.88698 0.79473
 C1342 C -0.06037 0.87150 0.78729
 C1343 C -0.03573 0.85081 0.77924
 C1344 C -0.04638 0.83913 0.76991
 C1345 C -0.03961 0.82359 0.76351
 C1346 C -0.02209 0.81922 0.76630
 C1347 C -0.01121 0.83102 0.77507
 C1348 C -0.01784 0.84686 0.78129
 C1349 C -0.01286 0.87459 0.79582
 C1350 C -0.00670 0.85875 0.78949
 H1351 H -0.00368 0.88340 0.80191
 H1352 H 0.00705 0.85584 0.79091
 H1353 H -0.02711 0.90375 0.80743
 H1354 H -0.07999 0.88949 0.79505
 H1355 H -0.04829 0.81473 0.75679
 H1356 H 0.00242 0.82787 0.77705
 H1357 H -0.07016 0.86286 0.78215
 H1358 H -0.05996 0.84170 0.76741
 C1359 C -0.03652 -0.12089 -0.03769
 C1360 C -0.05369 -0.12591 -0.03342
 C1361 C -0.06062 -0.14143 -0.04010
 C1362 C -0.05067 -0.15242 -0.05106
 C1363 C -0.03330 -0.14753 -0.05455
 C1364 C -0.02637 -0.13211 -0.04804
 C1365 C -0.02994 -0.10378 -0.03107
 C1366 C -0.01349 -0.09707 -0.03564
 C1367 C -0.00820 -0.08082 -0.02965
 C1368 C -0.01906 -0.07083 -0.01882
 C1369 C -0.03538 -0.07750 -0.01400
 C1370 C -0.04096 -0.09372 -0.02022
 C1371 C -0.06396 -0.11532 -0.02262
 C1372 C -0.05767 -0.09968 -0.01600
 H1373 H -0.07710 -0.11919 -0.01922
 H1374 H -0.06612 -0.09200 -0.00768
 H1375 H -0.07413 -0.14429 -0.03737
 H1376 H -0.02462 -0.15582 -0.06195
 H1377 H 0.00444 -0.07600 -0.03364
 H1378 H -0.04401 -0.06984 -0.00583
 H1379 H -0.01299 -0.12930 -0.05120
 H1380 H -0.00462 -0.10398 -0.04408
 C1381 C -0.03731 0.37681 0.46491
 C1382 C -0.05541 0.37359 0.46609
 C1383 C -0.06249 0.35848 0.45876
 C1384 C -0.05180 0.34613 0.45051
 C1385 C -0.03375 0.34898 0.45009
 C1386 C -0.02658 0.36411 0.45715
 C1387 C -0.03047 0.39370 0.47182
 C1388 C -0.01301 0.39895 0.46975
 C1389 C -0.00750 0.41518 0.47568
 C1390 C -0.01916 0.42648 0.48406
 C1391 C -0.03648 0.42124 0.48648
 C1392 C -0.04227 0.40517 0.48015
 C1393 C -0.06639 0.38551 0.47444
 C1394 C -0.05992 0.40084 0.48155
 H1395 H -0.08023 0.38295 0.47551
 H1396 H -0.06895 0.40964 0.48788
 H1397 H -0.07648 0.35664 0.45905
 H1398 H -0.02510 0.33952 0.44424
 H1399 H 0.00593 0.41895 0.47359
 H1400 H -0.04567 0.43000 0.49266
 H1401 H -0.01263 0.36559 0.45637
 H1402 H -0.00351 0.39092 0.46323
 C1403 C 0.46105 -0.12489 0.46858
 C1404 C 0.47213 -0.13449 0.45741
 C1405 C 0.46644 -0.15028 0.45014
 C1406 C 0.44943 -0.15661 0.45320
 C1407 C 0.43863 -0.14683 0.46450
 C1408 C 0.44433 -0.13139 0.47208
 C1409 C 0.46735 -0.10783 0.47559
 C1410 C 0.45744 -0.09752 0.48715
 C1411 C 0.46337 -0.08125 0.49243
 C1412 C 0.47934 -0.07475 0.48638
 C1413 C 0.48965 -0.08523 0.47543
 C1414 C 0.48383 -0.10169 0.47011
 C1415 C 0.48866 -0.12806 0.45315
 C1416 C 0.49430 -0.11193 0.45918
 H1417 H 0.49722 -0.13540 0.44462
 H1418 H 0.50702 -0.10735 0.45513
 H1419 H 0.47558 -0.15757 0.44225
 H1420 H 0.42522 -0.15033 0.46688
 H1421 H 0.45515 -0.07356 0.50096
 H1422 H 0.50213 -0.08050 0.47083
 H1423 H 0.43515 -0.12449 0.48019
 H1424 H 0.44500 -0.10167 0.49216
 C1425 C 0.46357 0.37917 -0.03609
 C1426 C 0.44546 0.37593 -0.03486
 C1427 C 0.43841 0.36062 -0.04186
 C1428 C 0.44917 0.34815 -0.04982
 C1429 C 0.46718 0.35119 -0.05053
 C1430 C 0.47430 0.36647 -0.04382
 C1431 C 0.47047 0.39601 -0.02910
 C1432 C 0.48801 0.40110 -0.03093
 C1433 C 0.49366 0.41718 -0.02472
 C1434 C 0.48207 0.42848 -0.01628
 C1435 C 0.46464 0.42344 -0.01417
 C1436 C 0.45871 0.40752 -0.02078
 C1437 C 0.43450 0.38796 -0.02664
 C1438 C 0.44101 0.40331 -0.01956
 H1439 H 0.42065 0.38545 -0.02559
 H1440 H 0.43198 0.41218 -0.01330
 H1441 H 0.42446 0.35858 -0.04134
 H1442 H 0.47587 0.34165 -0.05619
 H1443 H 0.50715 0.42082 -0.02661
 H1444 H 0.45549 0.43224 -0.00799
 H1445 H 0.48822 0.36799 -0.04472
 H1446 H 0.49750 0.39305 -0.03743
 C1447 C 0.78502 0.37284 0.46359
 C1448 C 0.80311 0.37595 0.46536
 C1449 C 0.81040 0.39139 0.45899
 C1450 C 0.79989 0.40416 0.45117
 C1451 C 0.78185 0.40131 0.45008
 C1452 C 0.77451 0.38588 0.45614
 C1453 C 0.77792 0.35577 0.46973
 C1454 C 0.76046 0.35069 0.46710
 C1455 C 0.75469 0.33435 0.47247
 C1456 C 0.76607 0.32280 0.48086
 C1457 C 0.78340 0.32784 0.48377
 C1458 C 0.78947 0.34399 0.47798
 C1459 C 0.81385 0.36364 0.47347
 C1460 C 0.80713 0.34811 0.47987
 H1461 H 0.82768 0.36607 0.47496
 H1462 H 0.81599 0.33902 0.48606
 H1463 H 0.82436 0.39329 0.45983
 H1464 H 0.77332 0.41109 0.44457
 H1465 H 0.74130 0.33070 0.46995
 H1466 H 0.79242 0.31886 0.48989
 H1467 H 0.76058 0.38447 0.45494
 H1468 H 0.75117 0.35896 0.46056
 C1469 C 0.78702 0.87277 -0.03869
 C1470 C 0.80495 0.87643 -0.03660
 C1471 C 0.81202 0.89169 -0.04360
 C1472 C 0.80142 0.90383 -0.05231
 C1473 C 0.78349 0.90047 -0.05370
 C1474 C 0.77638 0.88515 -0.04707
 C1475 C 0.78022 0.85580 -0.03195
 C1476 C 0.76300 0.85013 -0.03484
 C1477 C 0.75757 0.83385 -0.02902
 C1478 C 0.76906 0.82288 -0.01995
 C1479 C 0.78611 0.82857 -0.01666
 C1480 C 0.79184 0.84471 -0.02285
 C1481 C 0.81576 0.86486 -0.02752
 C1482 C 0.80927 0.84950 -0.02054
 H1483 H 0.82946 0.86777 -0.02572
 H1484 H 0.81815 0.84104 -0.01353
 H1485 H 0.82592 0.89392 -0.04253
 H1486 H 0.77486 0.90975 -0.05988
 H1487 H 0.74436 0.82975 -0.03179
 H1488 H 0.79521 0.82009 -0.00994
 H1489 H 0.76253 0.88333 -0.04856
 H1490 H 0.75366 0.85787 -0.04195
 C1491 C 0.78418 0.29045 0.37480
 C1492 C 0.78486 0.30860 0.37225
 C1493 C 0.79232 0.31545 0.35693
 C1494 C 0.79877 0.30449 0.34370
 C1495 C 0.79731 0.28648 0.34595
 C1496 C 0.79019 0.27953 0.36126
 C1497 C 0.77716 0.28369 0.39185
 C1498 C 0.77763 0.26599 0.39645
 C1499 C 0.77169 0.26046 0.41283
 C1500 C 0.76484 0.27235 0.42491
 C1501 C 0.76401 0.28995 0.42036
 C1502 C 0.77046 0.29573 0.40415
 C1503 C 0.77814 0.31983 0.38502
 C1504 C 0.77084 0.31352 0.40050
 H1505 H 0.77848 0.33373 0.38301
 H1506 H 0.76580 0.32275 0.40995
 H1507 H 0.79342 0.32938 0.35553
 H1508 H 0.80165 0.27766 0.33579
 H1509 H 0.77256 0.24683 0.41612
 H1510 H 0.75911 0.29928 0.42980
 H1511 H 0.78944 0.26561 0.36219
 H1512 H 0.78294 0.25628 0.38779
 C1513 C 0.78564 0.78900 -0.12550
 C1514 C 0.78273 0.80660 -0.12968
 C1515 C 0.79006 0.81380 -0.14489
 C1516 C 0.80036 0.80377 -0.15646
 C1517 C 0.80242 0.78600 -0.15252
 C1518 C 0.79522 0.77877 -0.13736
 C1519 C 0.77868 0.78218 -0.10844
 C1520 C 0.78204 0.76524 -0.10238
 C1521 C 0.77620 0.75988 -0.08590
 C1522 C 0.76669 0.77116 -0.07509
 C1523 C 0.76281 0.78787 -0.08122
 C1524 C 0.76895 0.79353 -0.09761
 C1525 C 0.77282 0.81709 -0.11847
 C1526 C 0.76594 0.81065 -0.10287
 H1527 H 0.77045 0.83056 -0.12173
 H1528 H 0.75850 0.81935 -0.09459
 H1529 H 0.78847 0.82759 -0.14694
 H1530 H 0.80927 0.77734 -0.16128
 H1531 H 0.77937 0.74690 -0.08150
 H1532 H 0.75567 0.79680 -0.07290
 H1533 H 0.79735 0.76512 -0.13520
 H1534 H 0.78951 0.75606 -0.10995
 C1535 C 0.28942 0.45560 0.87222
 C1536 C 0.29726 0.46737 0.88407
 C1537 C 0.30398 0.46142 0.90015
 C1538 C 0.30362 0.44369 0.90443
 C1539 C 0.29641 0.43201 0.89229
 C1540 C 0.28933 0.43784 0.87649
 C1541 C 0.28207 0.46250 0.85538
 C1542 C 0.27273 0.45210 0.84345
 C1543 C 0.26669 0.45895 0.82763
 C1544 C 0.26987 0.47631 0.82321
 C1545 C 0.27866 0.48695 0.83526
 C1546 C 0.28451 0.48025 0.85139
 C1547 C 0.29864 0.48495 0.87966
 C1548 C 0.29271 0.49118 0.86353
 H1549 H 0.30475 0.49397 0.88867
 H1550 H 0.29443 0.50482 0.86059
 H1551 H 0.30947 0.47064 0.90935
 H1552 H 0.29647 0.41821 0.89485
 H1553 H 0.25991 0.45045 0.81860
 H1554 H 0.28094 0.50046 0.83210
 H1555 H 0.28416 0.42818 0.86768
 H1556 H 0.26994 0.43865 0.84604
 C1557 C 0.28430 -0.03896 0.37475
 C1558 C 0.28426 -0.05708 0.37765
 C1559 C 0.29113 -0.06391 0.39328
 C1560 C 0.29771 -0.05294 0.40644
 C1561 C 0.29699 -0.03494 0.40382
 C1562 C 0.29044 -0.02802 0.38821
 C1563 C 0.27782 -0.03227 0.35745
 C1564 C 0.27893 -0.01468 0.35255
 C1565 C 0.27330 -0.00921 0.33601
 C1566 C 0.26613 -0.02105 0.32407
 C1567 C 0.26478 -0.03856 0.32888
 C1568 C 0.27088 -0.04428 0.34525
 C1569 C 0.27741 -0.06829 0.36494
 C1570 C 0.27061 -0.06201 0.34921
 H1571 H 0.27723 -0.08216 0.36722
 H1572 H 0.26542 -0.07122 0.33983
 H1573 H 0.29167 -0.07784 0.39500
 H1574 H 0.30148 -0.02611 0.41391
 H1575 H 0.27458 0.00434 0.33252
 H1576 H 0.25964 -0.04787 0.31956
 H1577 H 0.29024 -0.01410 0.38700
 H1578 H 0.28447 -0.00500 0.36111
 C1579 C -0.03911 -0.04033 -0.12021
 C1580 C -0.03645 -0.05806 -0.12406
 C1581 C -0.04324 -0.06527 -0.13958
 C1582 C -0.05268 -0.05506 -0.15172
 C1583 C -0.05457 -0.03724 -0.14794
 C1584 C -0.04797 -0.03003 -0.13254
 C1585 C -0.03237 -0.03330 -0.10315
 C1586 C -0.03546 -0.01615 -0.09756
 C1587 C -0.02935 -0.01037 -0.08132
 C1588 C -0.01984 -0.02143 -0.07030
 C1589 C -0.01655 -0.03850 -0.07579
 C1590 C -0.02294 -0.04456 -0.09195
 C1591 C -0.02711 -0.06855 -0.11233
 C1592 C -0.02035 -0.06190 -0.09673
 H1593 H -0.02496 -0.08213 -0.11528
 H1594 H -0.01321 -0.07056 -0.08812
 H1595 H -0.04175 -0.07907 -0.14157
 H1596 H -0.06069 -0.02845 -0.15714
 H1597 H -0.03213 0.00284 -0.07736
 H1598 H -0.00950 -0.04727 -0.06723
 H1599 H -0.04983 -0.01631 -0.13066
 H1600 H -0.04282 -0.00706 -0.10534
 C1601 C -0.03572 0.45668 0.38079
 C1602 C -0.04447 0.46863 0.36984
 C1603 C -0.05087 0.46337 0.35339
 C1604 C -0.04931 0.44601 0.34760
 C1605 C -0.04068 0.43423 0.35885
 C1606 C -0.03398 0.43945 0.37503
 C1607 C -0.02910 0.46280 0.39826
 C1608 C -0.01947 0.45213 0.40973
 C1609 C -0.01400 0.45829 0.42604
 C1610 C -0.01803 0.47521 0.43143
 C1611 C -0.02730 0.48608 0.41997
 C1612 C -0.03266 0.48008 0.40341
 C1613 C -0.04705 0.48574 0.37547
 C1614 C -0.04149 0.49127 0.39197
 H1615 H -0.05378 0.49493 0.36711
 H1616 H -0.04408 0.50455 0.39582
 H1617 H -0.05667 0.47313 0.34504
 H1618 H -0.03973 0.42059 0.35577
 H1619 H -0.00686 0.44961 0.43461
 H1620 H -0.03028 0.49926 0.42390
 H1621 H -0.02789 0.42963 0.38301
 H1622 H -0.01601 0.43899 0.40639
 C1623 C 0.46352 -0.04233 0.37999
 C1624 C 0.45493 -0.03027 0.36898
 C1625 C 0.44819 -0.03560 0.35267
 C1626 C 0.44932 -0.05303 0.34737
 C1627 C 0.45735 -0.06501 0.35867
 C1628 C 0.46444 -0.05977 0.37465
 C1629 C 0.47070 -0.03614 0.39718
 C1630 C 0.48058 -0.04683 0.40841
 C1631 C 0.48629 -0.04074 0.42466
 C1632 C 0.48227 -0.02387 0.43021
 C1633 C 0.47300 -0.01288 0.41883
 C1634 C 0.46741 -0.01882 0.40231
 C1635 C 0.45275 -0.01307 0.37450
 C1636 C 0.45858 -0.00755 0.39094
 H1637 H 0.44609 -0.00383 0.36614
 H1638 H 0.45621 0.00577 0.39476
 H1639 H 0.44202 -0.02617 0.34415
 H1640 H 0.45788 -0.07864 0.35535
 H1641 H 0.49347 -0.04949 0.43312
 H1642 H 0.47006 0.00028 0.42285
 H1643 H 0.47022 -0.06967 0.38278
 H1644 H 0.48403 -0.05994 0.40494
 C1645 C 0.46218 0.45511 -0.11722
 C1646 C 0.45219 0.46629 -0.12793
 C1647 C 0.44558 0.46040 -0.14408
 C1648 C 0.44834 0.44319 -0.14985
 C1649 C 0.45788 0.43208 -0.13868
 C1650 C 0.46469 0.43791 -0.12275
 C1651 C 0.46937 0.46202 -0.10029
 C1652 C 0.48038 0.45225 -0.08927
 C1653 C 0.48647 0.45912 -0.07348
 C1654 C 0.48173 0.47589 -0.06817
 C1655 C 0.47105 0.48588 -0.07922
 C1656 C 0.46504 0.47916 -0.09527
 C1657 C 0.44874 0.48329 -0.12242
 C1658 C 0.45482 0.48950 -0.10634
 H1659 H 0.44102 0.49188 -0.13057
 H1660 H 0.45158 0.50267 -0.10259
 H1661 H 0.43883 0.46964 -0.15233
 H1662 H 0.45965 0.41850 -0.14167
 H1663 H 0.49467 0.45109 -0.06523
 H1664 H 0.46745 0.49893 -0.07537
 H1665 H 0.47163 0.42859 -0.11484
 H1666 H 0.48449 0.43929 -0.09258
 C1667 C 0.46355 0.79262 0.36889
 C1668 C 0.45553 0.78047 0.38018
 C1669 C 0.44895 0.78580 0.39650
 C1670 C 0.44950 0.80332 0.40158
 C1671 C 0.45686 0.81543 0.38999
 C1672 C 0.46389 0.81018 0.37395
 C1673 C 0.47082 0.78632 0.35178
 C1674 C 0.48056 0.79698 0.34044
 C1675 C 0.48660 0.79064 0.32440
 C1676 C 0.48292 0.77361 0.31911
 C1677 C 0.47373 0.76271 0.33058
 C1678 C 0.46797 0.76883 0.34695
 C1679 C 0.45377 0.76314 0.37495
 C1680 C 0.45952 0.75754 0.35854
 H1681 H 0.44750 0.75385 0.38352
 H1682 H 0.45750 0.74409 0.35495
 H1683 H 0.44337 0.77624 0.40526
 H1684 H 0.45695 0.82911 0.39313
 H1685 H 0.49390 0.79925 0.31596
 H1686 H 0.47111 0.74941 0.32682
 H1687 H 0.46919 0.82011 0.36556
 H1688 H 0.48371 0.81021 0.34373
 C1689 C -0.03747 0.79149 0.86872
 C1690 C -0.05562 0.79077 0.87192
 C1691 C -0.06247 0.79726 0.88768
 C1692 C -0.05146 0.80401 0.90075
 C1693 C -0.03342 0.80418 0.89774
 C1694 C -0.02650 0.79810 0.88195
 C1695 C -0.03076 0.78493 0.85148
 C1696 C -0.01318 0.78649 0.84632
 C1697 C -0.00764 0.78027 0.83002
 C1698 C -0.01939 0.77210 0.81863
 C1699 C -0.03689 0.77055 0.82362
 C1700 C -0.04271 0.77719 0.83970
 C1701 C -0.06682 0.78339 0.85947
 C1702 C -0.06047 0.77648 0.84384
 H1703 H -0.08070 0.78273 0.86195
 H1704 H -0.06964 0.77073 0.83471
 H1705 H -0.07644 0.79717 0.88968
 H1706 H -0.02454 0.80888 0.90772
 H1707 H 0.00591 0.78176 0.82636
 H1708 H -0.04613 0.76462 0.81470
 H1709 H -0.01254 0.79848 0.88049
 H1710 H -0.00358 0.79270 0.85453
 C1711 C 0.38198 0.79004 0.29179
 C1712 C 0.37010 0.79738 0.27967
 C1713 C 0.35390 0.80364 0.28547
 C1714 C 0.34944 0.80321 0.30337
 C1715 C 0.36156 0.79646 0.31539
 C1716 C 0.37753 0.78990 0.30972
 C1717 C 0.39894 0.78308 0.28502
 C1718 C 0.41101 0.77433 0.29579
 C1719 C 0.42675 0.76835 0.28897
 C1720 C 0.43099 0.77100 0.27126
 C1721 C 0.41894 0.77942 0.26032
 C1722 C 0.40288 0.78521 0.26700
 C1723 C 0.37457 0.79864 0.26188
 C1724 C 0.39071 0.79295 0.25574
 H1725 H 0.36554 0.80437 0.25260
 H1726 H 0.39363 0.79447 0.24191
 H1727 H 0.34471 0.80877 0.27599
 H1728 H 0.35882 0.79645 0.32933
 H1729 H 0.43582 0.76192 0.29773
 H1730 H 0.42199 0.78133 0.24656
 H1731 H 0.38629 0.78504 0.31964
 H1732 H 0.40854 0.77190 0.30950
 C1733 C -0.11771 0.79094 0.79035
 C1734 C -0.12838 0.80062 0.77880
 C1735 C -0.14417 0.80770 0.78481
 C1736 C -0.14921 0.80595 0.80248
 C1737 C -0.13799 0.79722 0.81407
 C1738 C -0.12256 0.78971 0.80812
 C1739 C -0.10141 0.78288 0.78328
 C1740 C -0.09115 0.77130 0.79313
 C1741 C -0.07580 0.76451 0.78621
 C1742 C -0.07008 0.76923 0.76938
 C1743 C -0.08059 0.78025 0.75917
 C1744 C -0.09635 0.78679 0.76587
 C1745 C -0.12304 0.80342 0.76143
 C1746 C -0.10716 0.79702 0.75525
 H1747 H -0.13108 0.81099 0.75260
 H1748 H -0.10344 0.79988 0.74184
 H1749 H -0.15256 0.81450 0.77566
 H1750 H -0.14100 0.79629 0.82792
 H1751 H -0.06820 0.75577 0.79428
 H1752 H -0.07653 0.78373 0.74601
 H1753 H -0.11446 0.78329 0.81770
 H1754 H -0.09479 0.76722 0.80616
 C1755 C 0.86717 0.29137 0.45961
 C1756 C 0.87809 0.28015 0.44989
 C1757 C 0.89422 0.28613 0.44360
 C1758 C 0.89938 0.30343 0.44629
 C1759 C 0.88805 0.31465 0.45525
 C1760 C 0.87227 0.30873 0.46190
 C1761 C 0.85033 0.28444 0.46654
 C1762 C 0.83951 0.29410 0.47779
 C1763 C 0.82366 0.28742 0.48342
 C1764 C 0.81803 0.27097 0.47797
 C1765 C 0.82898 0.26095 0.46724
 C1766 C 0.84522 0.26746 0.46176
 C1767 C 0.87265 0.26318 0.44621
 C1768 C 0.85641 0.25710 0.45170
 H1769 H 0.88092 0.25459 0.43864
 H1770 H 0.85264 0.24402 0.44817
 H1771 H 0.90274 0.27729 0.43663
 H1772 H 0.89123 0.32822 0.45692
 H1773 H 0.81558 0.29542 0.49180
 H1774 H 0.82491 0.24811 0.46319
 H1775 H 0.86411 0.31809 0.46846
 H1776 H 0.84304 0.30682 0.48246
 C1777 C 0.87194 0.78718 -0.03902
 C1778 C 0.87566 0.80499 -0.03663
 C1779 C 0.89126 0.81202 -0.04300
 C1780 C 0.90374 0.80149 -0.05127
 C1781 C 0.90041 0.78363 -0.05275
 C1782 C 0.88471 0.77657 -0.04682
 C1783 C 0.85457 0.78048 -0.03308
 C1784 C 0.84871 0.76349 -0.03658
 C1785 C 0.83213 0.75812 -0.03123
 C1786 C 0.82115 0.76945 -0.02203
 C1787 C 0.82694 0.78632 -0.01840
 C1788 C 0.84330 0.79199 -0.02413
 C1789 C 0.86380 0.81573 -0.02788
 C1790 C 0.84814 0.80928 -0.02145
 H1791 H 0.86673 0.82933 -0.02584
 H1792 H 0.83949 0.81807 -0.01460
 H1793 H 0.89345 0.82584 -0.04183
 H1794 H 0.90995 0.77502 -0.05852
 H1795 H 0.82790 0.74508 -0.03431
 H1796 H 0.81841 0.79533 -0.01165
 H1797 H 0.88287 0.76280 -0.04837
 H1798 H 0.85656 0.75430 -0.04374
 C1799 C -0.12068 -0.03661 -0.03860
 C1800 C -0.12429 -0.05455 -0.03735
 C1801 C -0.13986 -0.06123 -0.04421
 C1802 C -0.15229 -0.05029 -0.05202
 C1803 C -0.14895 -0.03241 -0.05264
 C1804 C -0.13337 -0.02564 -0.04608
 C1805 C -0.10347 -0.03015 -0.03192
 C1806 C -0.09793 -0.01285 -0.03394
 C1807 C -0.08153 -0.00763 -0.02799
 C1808 C -0.07035 -0.01942 -0.01964
 C1809 C -0.07581 -0.03663 -0.01740
 C1810 C -0.09206 -0.04213 -0.02374
 C1811 C -0.11234 -0.06574 -0.02928
 C1812 C -0.09669 -0.05962 -0.02240
 H1813 H -0.11517 -0.07946 -0.02820
 H1814 H -0.08793 -0.06880 -0.01624
 H1815 H -0.14210 -0.07509 -0.04377
 H1816 H -0.15845 -0.02357 -0.05817
 H1817 H -0.07757 0.00570 -0.02995
 H1818 H -0.06712 -0.04593 -0.01128
 H1819 H -0.13158 -0.01181 -0.04692
 H1820 H -0.10589 -0.00323 -0.04037
 C1821 C -0.12176 0.46302 0.46519
 C1822 C -0.12692 0.44586 0.46900
 C1823 C -0.14288 0.43947 0.46267
 C1824 C -0.15427 0.44997 0.45263
 C1825 C -0.14929 0.46738 0.44984
 C1826 C -0.13338 0.47375 0.45593
 C1827 C -0.10410 0.46896 0.47117
 C1828 C -0.09710 0.48524 0.46666
 C1829 C -0.08038 0.48995 0.47210
 C1830 C -0.07024 0.47866 0.48232
 C1831 C -0.07714 0.46246 0.48700
 C1832 C -0.09380 0.45744 0.48127
 C1833 C -0.11604 0.43506 0.47896
 C1834 C -0.09998 0.44082 0.48519
 H1835 H -0.12003 0.42194 0.48205
 H1836 H -0.09212 0.43198 0.49292
 H1837 H -0.14576 0.42593 0.46490
 H1838 H -0.15781 0.47648 0.44330
 H1839 H -0.07538 0.50251 0.46826
 H1840 H -0.06935 0.45351 0.49467
 H1841 H -0.13049 0.48718 0.45332
 H1842 H -0.10416 0.49441 0.45869
 C1843 C 0.37671 -0.03860 0.46555
 C1844 C 0.37335 -0.03839 0.44728
 C1845 C 0.35773 -0.04522 0.44068
 C1846 C 0.34501 -0.05197 0.45203
 C1847 C 0.34811 -0.05153 0.47019
 C1848 C 0.36373 -0.04500 0.47688
 C1849 C 0.39399 -0.03208 0.47195
 C1850 C 0.39928 -0.03319 0.48965
 C1851 C 0.41580 -0.02759 0.49481
 C1852 C 0.42737 -0.02047 0.48255
 C1853 C 0.42214 -0.01904 0.46496
 C1854 C 0.40575 -0.02507 0.45953
 C1855 C 0.38561 -0.03140 0.43567
 C1856 C 0.40135 -0.02466 0.44169
 H1857 H 0.38298 -0.03108 0.42169
 H1858 H 0.41039 -0.01938 0.43217
 H1859 H 0.35566 -0.04560 0.42661
 H1860 H 0.33839 -0.05620 0.47932
 H1861 H 0.41958 -0.02890 0.50845
 H1862 H 0.43113 -0.01389 0.45531
 H1863 H 0.36532 -0.04501 0.49095
 H1864 H 0.39103 -0.03871 0.49964
 C1865 C 0.38206 0.45744 -0.03574
 C1866 C 0.37211 0.46783 -0.04727
 C1867 C 0.35597 0.46184 -0.05364
 C1868 C 0.34959 0.44525 -0.04906
 C1869 C 0.36011 0.43487 -0.03804
 C1870 C 0.37591 0.44084 -0.03147
 C1871 C 0.39900 0.46433 -0.02895
 C1872 C 0.40913 0.45542 -0.01644
 C1873 C 0.42504 0.46207 -0.01085
 C1874 C 0.43141 0.47777 -0.01757
 C1875 C 0.42118 0.48702 -0.02969
 C1876 C 0.40496 0.48052 -0.03524
 C1877 C 0.37845 0.48404 -0.05257
 C1878 C 0.39465 0.49012 -0.04691
 H1879 H 0.37092 0.49204 -0.06149
 H1880 H 0.39909 0.50260 -0.05164
 H1881 H 0.34832 0.47046 -0.06177
 H1882 H 0.35673 0.42163 -0.03495
 H1883 H 0.43250 0.45468 -0.00138
 H1884 H 0.42581 0.49929 -0.03481
 H1885 H 0.38329 0.43200 -0.02341
 H1886 H 0.40503 0.44332 -0.01073
 C1887 C 0.37343 0.46245 0.78873
 C1888 C 0.37711 0.44467 0.78607
 C1889 C 0.39253 0.43741 0.79273
 C1890 C 0.40475 0.44766 0.80172
 C1891 C 0.40137 0.46545 0.80371
 C1892 C 0.38593 0.47276 0.79737
 C1893 C 0.35633 0.46945 0.78227
 C1894 C 0.35064 0.48652 0.78567
 C1895 C 0.33427 0.49215 0.77998
 C1896 C 0.32330 0.48104 0.77049
 C1897 C 0.32896 0.46413 0.76680
 C1898 C 0.34514 0.45817 0.77290
 C1899 C 0.36538 0.43418 0.77683
 C1900 C 0.34985 0.44085 0.77017
 H1901 H 0.36826 0.42059 0.77467
 H1902 H 0.34122 0.43219 0.76310
 H1903 H 0.39479 0.42362 0.79121
 H1904 H 0.41072 0.47380 0.81017
 H1905 H 0.33014 0.50523 0.78309
 H1906 H 0.32042 0.45532 0.75981
 H1907 H 0.38409 0.48648 0.79931
 H1908 H 0.35844 0.49558 0.79304
 C1909 C 0.36963 -0.03706 0.28979
 C1910 C 0.37308 -0.05502 0.28822
 C1911 C 0.38878 -0.06194 0.29457
 C1912 C 0.40154 -0.05119 0.30207
 C1913 C 0.39825 -0.03332 0.30320
 C1914 C 0.38253 -0.02633 0.29722
 C1915 C 0.35242 -0.03031 0.28337
 C1916 C 0.34707 -0.01294 0.28559
 C1917 C 0.33069 -0.00745 0.27976
 C1918 C 0.31938 -0.01903 0.27133
 C1919 C 0.32464 -0.03629 0.26894
 C1920 C 0.34084 -0.04206 0.27515
 C1921 C 0.36091 -0.06599 0.28021
 C1922 C 0.34526 -0.05961 0.27359
 H1923 H 0.36360 -0.07972 0.27890
 H1924 H 0.33632 -0.06862 0.26742
 H1925 H 0.39093 -0.07580 0.29381
 H1926 H 0.40797 -0.02462 0.30855
 H1927 H 0.32685 0.00590 0.28189
 H1928 H 0.31582 -0.04546 0.26282
 H1929 H 0.38083 -0.01250 0.29837
 H1930 H 0.35517 -0.00349 0.29207
 C1931 C 0.13189 0.54030 0.71474
 C1932 C 0.12075 0.52852 0.70599
 C1933 C 0.10447 0.53414 0.69962
 C1934 C 0.09939 0.55160 0.70118
 C1935 C 0.11098 0.56334 0.70911
 C1936 C 0.12688 0.55780 0.71590
 C1937 C 0.14887 0.53377 0.72184
 C1938 C 0.15990 0.54402 0.73234
 C1939 C 0.17583 0.53759 0.73822
 C1940 C 0.18131 0.52083 0.73370
 C1941 C 0.17017 0.51027 0.72369
 C1942 C 0.15387 0.51651 0.71805
 C1943 C 0.12611 0.51134 0.70332
 C1944 C 0.14247 0.50558 0.70887
 H1945 H 0.11769 0.50232 0.69649
 H1946 H 0.14616 0.49229 0.70614
 H1947 H 0.09581 0.52488 0.69345
 H1948 H 0.10792 0.57702 0.70985
 H1949 H 0.18406 0.54594 0.74607
 H1950 H 0.17412 0.49717 0.72043
 H1951 H 0.13521 0.56752 0.72164
 H1952 H 0.15645 0.55701 0.73626
 C1953 C 0.12702 0.03694 0.21470
 C1954 C 0.12356 0.05490 0.21626
 C1955 C 0.10802 0.06186 0.20953
 C1956 C 0.09548 0.05115 0.20160
 C1957 C 0.09864 0.03323 0.20079
 C1958 C 0.11418 0.02621 0.20718
 C1959 C 0.14421 0.03019 0.22117
 C1960 C 0.14967 0.01290 0.21868
 C1961 C 0.16604 0.00740 0.22450
 C1962 C 0.17725 0.01889 0.23319
 C1963 C 0.17188 0.03608 0.23586
 C1964 C 0.15569 0.04188 0.22961
 C1965 C 0.13562 0.06582 0.22451
 C1966 C 0.15121 0.05941 0.23129
 H1967 H 0.13292 0.07955 0.22584
 H1968 H 0.16007 0.06839 0.23762
 H1969 H 0.10589 0.07574 0.21018
 H1970 H 0.08904 0.02455 0.19522
 H1971 H 0.16994 -0.00590 0.22218
 H1972 H 0.18060 0.04515 0.24225
 H1973 H 0.11583 0.01236 0.20618
 H1974 H 0.14166 0.00352 0.21197
 C1975 C 0.62258 0.71701 0.21026
 C1976 C 0.62673 0.69942 0.21345
 C1977 C 0.64223 0.69233 0.20689
 C1978 C 0.65430 0.70263 0.19778
 C1979 C 0.65052 0.72032 0.19541
 C1980 C 0.63485 0.72740 0.20143
 C1981 C 0.60532 0.72373 0.21651
 C1982 C 0.59896 0.74039 0.21232
 C1983 C 0.58246 0.74573 0.21798
 C1984 C 0.57205 0.73471 0.22817
 C1985 C 0.57839 0.71820 0.23256
 C1986 C 0.59466 0.71254 0.22654
 C1987 C 0.61547 0.68898 0.22327
 C1988 C 0.59998 0.69553 0.23002
 H1989 H 0.61878 0.67558 0.22595
 H1990 H 0.59184 0.68701 0.23777
 H1991 H 0.64467 0.67862 0.20869
 H1992 H 0.65972 0.72879 0.18893
 H1993 H 0.57782 0.75849 0.21432
 H1994 H 0.57034 0.70941 0.24012
 H1995 H 0.63266 0.74104 0.19920
 H1996 H 0.60634 0.74931 0.20437
 C1997 C 0.12008 0.70842 0.71137
 C1998 C 0.13103 0.71939 0.70142
 C1999 C 0.14705 0.71312 0.69502
 C2000 C 0.15204 0.69577 0.69782
 C2001 C 0.14056 0.68478 0.70688
 C2002 C 0.12494 0.69099 0.71366
 C2003 C 0.10344 0.71563 0.71851
 C2004 C 0.09279 0.70628 0.73014
 C2005 C 0.07706 0.71316 0.73592
 C2006 C 0.07138 0.72953 0.73026
 C2007 C 0.08223 0.73930 0.71918
 C2008 C 0.09836 0.73258 0.71356
 C2009 C 0.12568 0.73637 0.69761
 C2010 C 0.10952 0.74268 0.70320
 H2011 H 0.13393 0.74478 0.68984
 H2012 H 0.10581 0.75575 0.69955
 H2013 H 0.15561 0.72178 0.68789
 H2014 H 0.14350 0.67116 0.70856
 H2015 H 0.06910 0.70534 0.74457
 H2016 H 0.07814 0.75210 0.71498
 H2017 H 0.11668 0.68179 0.72029
 H2018 H 0.09636 0.69364 0.73500
 C2019 C 0.62825 0.20932 0.53557
 C2020 C 0.62570 0.20944 0.55397
 C2021 C 0.61051 0.20232 0.56121
 C2022 C 0.59742 0.19541 0.55039
 C2023 C 0.59976 0.19577 0.53212
 C2024 C 0.61496 0.20257 0.52478
 C2025 C 0.64496 0.21649 0.52843
 C2026 C 0.64943 0.21574 0.51049
 C2027 C 0.66535 0.22227 0.50459
 C2028 C 0.67708 0.22995 0.51636
 C2029 C 0.67273 0.23082 0.53422
 C2030 C 0.65699 0.22392 0.54036
 C2031 C 0.63827 0.21673 0.56506
 C2032 C 0.65347 0.22402 0.55839
 H2033 H 0.63627 0.21692 0.57915
 H2034 H 0.66275 0.22958 0.56752
 H2035 H 0.60902 0.20198 0.57535
 H2036 H 0.58974 0.19091 0.52341
 H2037 H 0.66851 0.22132 0.49076
 H2038 H 0.68191 0.23635 0.54350
 H2039 H 0.61595 0.20255 0.51067
 H2040 H 0.64097 0.20991 0.50085
 C2041 C 0.63141 0.71179 0.03984
 C2042 C 0.61988 0.70381 0.02781
 C2043 C 0.60384 0.69718 0.03364
 C2044 C 0.59923 0.69788 0.05149
 C2045 C 0.61107 0.70520 0.06344
 C2046 C 0.62686 0.71212 0.05774
 C2047 C 0.64814 0.71921 0.03302
 C2048 C 0.65976 0.72866 0.04366
 C2049 C 0.67534 0.73501 0.03682
 C2050 C 0.67986 0.73206 0.01923
 C2051 C 0.66821 0.72297 0.00840
 C2052 C 0.65231 0.71679 0.01509
 C2053 C 0.62453 0.70229 0.01009
 C2054 C 0.64052 0.70836 0.00393
 H2055 H 0.61578 0.69606 0.00087
 H2056 H 0.64360 0.70662 -0.00984
 H2057 H 0.59489 0.69160 0.02420
 H2058 H 0.60825 0.70541 0.07736
 H2059 H 0.68407 0.74195 0.04551
 H2060 H 0.67146 0.72079 -0.00527
 H2061 H 0.63540 0.71744 0.06761
 H2062 H 0.65707 0.73135 0.05728
 C2063 C 0.12159 0.03655 0.03814
 C2064 C 0.12619 0.05381 0.03401
 C2065 C 0.14151 0.06109 0.04088
 C2066 C 0.15275 0.05146 0.05187
 C2067 C 0.14824 0.03406 0.05537
 C2068 C 0.13299 0.02676 0.04868
 C2069 C 0.10466 0.02958 0.03127
 C2070 C 0.09831 0.01296 0.03556
 C2071 C 0.08206 0.00743 0.02951
 C2072 C 0.07179 0.01820 0.01887
 C2073 C 0.07818 0.03460 0.01419
 C2074 C 0.09432 0.04043 0.02048
 C2075 C 0.11539 0.06383 0.02319
 C2076 C 0.09988 0.05724 0.01645
 H2077 H 0.11895 0.07703 0.01992
 H2078 H 0.09196 0.06556 0.00822
 H2079 H 0.14400 0.07464 0.03823
 H2080 H 0.15671 0.02566 0.06289
 H2081 H 0.07744 -0.00528 0.03334
 H2082 H 0.07027 0.04317 0.00618
 H2083 H 0.13045 0.01339 0.05184
 H2084 H 0.10549 0.00418 0.04386
 C2085 C 0.12186 0.53419 0.54026
 C2086 C 0.12547 0.55200 0.53773
 C2087 C 0.14087 0.55922 0.54437
 C2088 C 0.15322 0.54892 0.55314
 C2089 C 0.14983 0.53116 0.55523
 C2090 C 0.13436 0.52388 0.54894
 C2091 C 0.10484 0.52721 0.53359
 C2092 C 0.09926 0.51005 0.53663
 C2093 C 0.08299 0.50442 0.53066
 C2094 C 0.07203 0.51564 0.52127
 C2095 C 0.07758 0.53264 0.51797
 C2096 C 0.09365 0.53856 0.52429
 C2097 C 0.11374 0.56255 0.52857
 C2098 C 0.09828 0.55593 0.52179
 H2099 H 0.11659 0.57616 0.52653
 H2100 H 0.08965 0.56463 0.51476
 H2101 H 0.14308 0.57301 0.54289
 H2102 H 0.15923 0.52282 0.56165
 H2103 H 0.07893 0.49126 0.53346
 H2104 H 0.06905 0.54154 0.51106
 H2105 H 0.13250 0.51016 0.55089
 H2106 H 0.10708 0.50091 0.54389
 C2107 C 0.61677 0.03970 0.54313
 C2108 C 0.62636 0.05036 0.53157
 C2109 C 0.64221 0.05775 0.53702
 C2110 C 0.64877 0.05509 0.55416
 C2111 C 0.63864 0.04493 0.56570
 C2112 C 0.62304 0.03735 0.56030
 C2113 C 0.60018 0.03164 0.53665
 C2114 C 0.59026 0.01998 0.54677
 C2115 C 0.57470 0.01314 0.54029
 C2116 C 0.56857 0.01772 0.52356
 C2117 C 0.57860 0.02900 0.51321
 C2118 C 0.59435 0.03583 0.51954
 C2119 C 0.62006 0.05367 0.51462
 C2120 C 0.60429 0.04676 0.50883
 H2121 H 0.62733 0.06191 0.50575
 H2122 H 0.59988 0.04992 0.49569
 H2123 H 0.64964 0.06503 0.52747
 H2124 H 0.64223 0.04320 0.57931
 H2125 H 0.56727 0.00448 0.54860
 H2126 H 0.57412 0.03257 0.50020
 H2127 H 0.61596 0.02993 0.56992
 H2128 H 0.59425 0.01597 0.55972
 C2129 C 0.62246 0.53807 0.03862
 C2130 C 0.62581 0.55595 0.03632
 C2131 C 0.64113 0.56330 0.04301
 C2132 C 0.65364 0.55307 0.05162
 C2133 C 0.65052 0.53523 0.05347
 C2134 C 0.63514 0.52782 0.04712
 C2135 C 0.60552 0.53094 0.03194
 C2136 C 0.60020 0.51368 0.03482
 C2137 C 0.58395 0.50791 0.02893
 C2138 C 0.57276 0.51908 0.01977
 C2139 C 0.57806 0.53618 0.01658
 C2140 C 0.59411 0.54225 0.02284
 C2141 C 0.61389 0.56646 0.02733
 C2142 C 0.59850 0.55970 0.02053
 H2143 H 0.61654 0.58013 0.02545
 H2144 H 0.58971 0.56837 0.01366
 H2145 H 0.64314 0.57714 0.04171
 H2146 H 0.66005 0.52693 0.05974
 H2147 H 0.58009 0.49468 0.03164
 H2148 H 0.56934 0.54503 0.00984
 H2149 H 0.63349 0.51405 0.04888
 H2150 H 0.60819 0.50456 0.04192
 C2151 C 0.03763 0.03738 0.12237
 C2152 C 0.03417 0.05486 0.12670
 C2153 C 0.04076 0.06201 0.14233
 C2154 C 0.05070 0.05198 0.15421
 C2155 C 0.05355 0.03439 0.14989
 C2156 C 0.04721 0.02726 0.13432
 C2157 C 0.03097 0.03046 0.10521
 C2158 C 0.03467 0.01358 0.09914
 C2159 C 0.02872 0.00800 0.08275
 C2160 C 0.01875 0.01899 0.07205
 C2161 C 0.01472 0.03571 0.07812
 C2162 C 0.02094 0.04158 0.09441
 C2163 C 0.02420 0.06519 0.11537
 C2164 C 0.01757 0.05864 0.09968
 H2165 H 0.02143 0.07857 0.11870
 H2166 H 0.00989 0.06715 0.09142
 H2167 H 0.03864 0.07568 0.14462
 H2168 H 0.06020 0.02570 0.15880
 H2169 H 0.03207 -0.00494 0.07838
 H2170 H 0.00726 0.04445 0.06987
 H2171 H 0.04980 0.01371 0.13201
 H2172 H 0.04243 0.00459 0.10666
 C2173 C 0.03869 0.53594 0.62366
 C2174 C 0.03767 0.55400 0.62674
 C2175 C 0.04470 0.56112 0.64217
 C2176 C 0.05239 0.55047 0.65498
 C2177 C 0.05288 0.53250 0.65210
 C2178 C 0.04620 0.52532 0.63667
 C2179 C 0.03171 0.52896 0.60665
 C2180 C 0.03340 0.51144 0.60164
 C2181 C 0.02728 0.50575 0.58534
 C2182 C 0.01907 0.51729 0.57376
 C2183 C 0.01705 0.53468 0.57875
 C2184 C 0.02357 0.54064 0.59488
 C2185 C 0.02959 0.56487 0.61446
 C2186 C 0.02247 0.55830 0.59900
 H2187 H 0.02867 0.57869 0.61688
 H2188 H 0.01630 0.56724 0.58997
 H2189 H 0.04436 0.57504 0.64403
 H2190 H 0.05831 0.52388 0.66190
 H2191 H 0.02909 0.49229 0.58174
 H2192 H 0.01105 0.54379 0.56974
 H2193 H 0.04692 0.51142 0.63528
 H2194 H 0.03975 0.50201 0.60990
 C2195 C 0.53457 0.03521 0.62427
 C2196 C 0.53104 0.05261 0.62883
 C2197 C 0.53775 0.05959 0.64446
 C2198 C 0.54815 0.04955 0.65593
 C2199 C 0.55085 0.03198 0.65155
 C2200 C 0.54419 0.02494 0.63607
 C2201 C 0.52815 0.02859 0.60691
 C2202 C 0.53199 0.01183 0.60065
 C2203 C 0.52642 0.00655 0.58406
 C2204 C 0.51675 0.01774 0.57328
 C2205 C 0.51257 0.03435 0.57950
 C2206 C 0.51836 0.03990 0.59608
 C2207 C 0.52113 0.06310 0.61759
 C2208 C 0.51481 0.05684 0.60164
 H2209 H 0.51831 0.07642 0.62112
 H2210 H 0.50733 0.06553 0.59337
 H2211 H 0.53565 0.07325 0.64696
 H2212 H 0.55779 0.02331 0.66025
 H2213 H 0.52983 -0.00636 0.57963
 H2214 H 0.50528 0.04320 0.57122
 H2215 H 0.54679 0.01143 0.63362
 H2216 H 0.53953 0.00268 0.60819
 C2217 C 0.53741 0.53778 0.12408
 C2218 C 0.53633 0.55582 0.12729
 C2219 C 0.54317 0.56283 0.14284
 C2220 C 0.55077 0.55210 0.15564
 C2221 C 0.55105 0.53412 0.15277
 C2222 C 0.54453 0.52704 0.13722
 C2223 C 0.53100 0.53098 0.10679
 C2224 C 0.53307 0.51356 0.10156
 C2225 C 0.52754 0.50805 0.08499
 C2226 C 0.51956 0.51967 0.07333
 C2227 C 0.51720 0.53697 0.07851
 C2228 C 0.52314 0.54275 0.09492
 C2229 C 0.52850 0.56679 0.11493
 C2230 C 0.52180 0.56035 0.09923
 H2231 H 0.52750 0.58058 0.11746
 H2232 H 0.51583 0.56936 0.09014
 H2233 H 0.54294 0.57675 0.14474
 H2234 H 0.55636 0.52544 0.16258
 H2235 H 0.52959 0.49465 0.08126
 H2236 H 0.51136 0.54614 0.06946
 H2237 H 0.54516 0.51314 0.13577
 H2238 H 0.53929 0.50408 0.10988
 C2239 C 0.21215 0.54352 0.63367
 C2240 C 0.20518 0.53122 0.62180
 C2241 C 0.19855 0.53663 0.60550
 C2242 C 0.19818 0.55427 0.60095
 C2243 C 0.20460 0.56646 0.61303
 C2244 C 0.21156 0.56120 0.62910
 C2245 C 0.21944 0.53717 0.65077
 C2246 C 0.22786 0.54816 0.66290
 C2247 C 0.23405 0.54168 0.67884
 C2248 C 0.23190 0.52415 0.68316
 C2249 C 0.22391 0.51302 0.67101
 C2250 C 0.21793 0.51933 0.65481
 C2251 C 0.20461 0.51365 0.62635
 C2252 C 0.21058 0.50787 0.64262
 H2253 H 0.19918 0.50423 0.61732
 H2254 H 0.20957 0.49418 0.64564
 H2255 H 0.19372 0.52702 0.59633
 H2256 H 0.20402 0.58020 0.61019
 H2257 H 0.24019 0.55052 0.68799
 H2258 H 0.22245 0.49939 0.67413
 H2259 H 0.21614 0.57120 0.63785
 H2260 H 0.22983 0.56176 0.66034
 C2261 C 0.20964 0.03936 0.13168
 C2262 C 0.21004 0.05745 0.12859
 C2263 C 0.20361 0.06423 0.11273
 C2264 C 0.19710 0.05321 0.09958
 C2265 C 0.19736 0.03524 0.10247
 C2266 C 0.20347 0.02839 0.11827
 C2267 C 0.21589 0.03271 0.14908
 C2268 C 0.21464 0.01514 0.15401
 C2269 C 0.22036 0.00963 0.17048
 C2270 C 0.22768 0.02140 0.18240
 C2271 C 0.22902 0.03892 0.17764
 C2272 C 0.22292 0.04469 0.16126
 C2273 C 0.21689 0.06866 0.14132
 C2274 C 0.22342 0.06239 0.15719
 H2275 H 0.21732 0.08250 0.13893
 H2276 H 0.22867 0.07159 0.16656
 H2277 H 0.20345 0.07814 0.11077
 H2278 H 0.19289 0.02637 0.09241
 H2279 H 0.21910 -0.00395 0.17389
 H2280 H 0.23433 0.04819 0.18692
 H2281 H 0.20336 0.01449 0.11963
 H2282 H 0.20904 0.00548 0.14547
 C2283 C 0.70815 0.20799 0.61548
 C2284 C 0.69948 0.21963 0.62687
 C2285 C 0.69361 0.21394 0.64337
 C2286 C 0.69581 0.19658 0.64854
 C2287 C 0.70362 0.18493 0.63676
 C2288 C 0.70978 0.19052 0.62054
 C2289 C 0.71496 0.21470 0.59838
 C2290 C 0.72523 0.20457 0.58701
 C2291 C 0.73118 0.21133 0.57116
 C2292 C 0.72697 0.22830 0.56611
 C2293 C 0.71699 0.23863 0.57748
 C2294 C 0.71123 0.23206 0.59367
 C2295 C 0.69658 0.23681 0.62165
 C2296 C 0.70204 0.24279 0.60526
 H2297 H 0.68978 0.24571 0.63026
 H2298 H 0.69928 0.25613 0.60174
 H2299 H 0.68751 0.22309 0.65225
 H2300 H 0.70490 0.17133 0.64003
 H2301 H 0.73890 0.20308 0.56269
 H2302 H 0.71385 0.25185 0.57383
 H2303 H 0.71556 0.18089 0.61209
 H2304 H 0.72896 0.19145 0.59013
 C2305 C 0.71296 0.71329 0.11869
 C2306 C 0.71310 0.69521 0.12182
 C2307 C 0.70645 0.68856 0.13763
 C2308 C 0.69994 0.69971 0.15066
 C2309 C 0.70049 0.71767 0.14774
 C2310 C 0.70684 0.72439 0.13202
 C2311 C 0.71937 0.71982 0.10133
 C2312 C 0.71832 0.73739 0.09635
 C2313 C 0.72404 0.74277 0.07985
 C2314 C 0.73117 0.73086 0.06797
 C2315 C 0.73238 0.71334 0.07280
 C2316 C 0.72625 0.70771 0.08921
 C2317 C 0.71988 0.68388 0.10918
 C2318 C 0.72654 0.69002 0.09333
 H2319 H 0.72013 0.67004 0.11160
 H2320 H 0.73170 0.68072 0.08401
 H2321 H 0.70608 0.67466 0.13962
 H2322 H 0.69604 0.72663 0.15773
 H2323 H 0.72287 0.75634 0.07637
 H2324 H 0.73751 0.70397 0.06353
 H2325 H 0.70693 0.73829 0.13063
 H2326 H 0.71284 0.74715 0.10484
 C2327 C 0.53504 0.71443 0.12497
 C2328 C 0.53385 0.69645 0.12154
 C2329 C 0.54084 0.68954 0.10603
 C2330 C 0.54881 0.70030 0.09351
 C2331 C 0.54926 0.71823 0.09660
 C2332 C 0.54251 0.72523 0.11210
 C2333 C 0.52849 0.72108 0.14228
 C2334 C 0.53049 0.73845 0.14768
 C2335 C 0.52500 0.74377 0.16432
 C2336 C 0.51715 0.73202 0.17590
 C2337 C 0.51473 0.71480 0.17050
 C2338 C 0.52061 0.70920 0.15400
 C2339 C 0.52587 0.68539 0.13369
 C2340 C 0.51920 0.69167 0.14946
 H2341 H 0.52481 0.67164 0.13099
 H2342 H 0.51321 0.68256 0.15844
 H2343 H 0.54051 0.67564 0.10399
 H2344 H 0.55490 0.72693 0.08702
 H2345 H 0.52705 0.75713 0.16819
 H2346 H 0.50896 0.70552 0.17947
 H2347 H 0.54332 0.73909 0.11374
 H2348 H 0.53663 0.74803 0.13946
 C2349 C 0.03513 0.71181 0.62580
 C2350 C 0.03368 0.69388 0.62221
 C2351 C 0.04058 0.68701 0.60665
 C2352 C 0.04873 0.69776 0.59425
 C2353 C 0.04944 0.71566 0.59748
 C2354 C 0.04277 0.72262 0.61303
 C2355 C 0.02869 0.71840 0.64317
 C2356 C 0.03094 0.73568 0.64873
 C2357 C 0.02551 0.74094 0.66540
 C2358 C 0.01746 0.72920 0.67686
 C2359 C 0.01482 0.71206 0.67131
 C2360 C 0.02063 0.70652 0.65476
 C2361 C 0.02553 0.68283 0.63425
 C2362 C 0.01895 0.68906 0.65007
 H2363 H 0.02427 0.66912 0.63142
 H2364 H 0.01282 0.67995 0.65897
 H2365 H 0.04006 0.67313 0.60449
 H2366 H 0.05524 0.72435 0.58799
 H2367 H 0.02773 0.75423 0.66938
 H2368 H 0.00889 0.70279 0.68017
 H2369 H 0.04378 0.73645 0.61480
 H2370 H 0.03723 0.74524 0.64059
 C2371 C 0.53819 0.62994 0.21486
 C2372 C 0.55641 0.62711 0.21488
 C2373 C 0.56330 0.61155 0.20831
 C2374 C 0.55230 0.59831 0.20217
 C2375 C 0.53419 0.60083 0.20306
 C2376 C 0.52721 0.61642 0.20921
 C2377 C 0.53146 0.64722 0.22088
 C2378 C 0.51380 0.65211 0.21954
 C2379 C 0.50834 0.66864 0.22472
 C2380 C 0.52028 0.68057 0.23166
 C2381 C 0.53784 0.67575 0.23322
 C2382 C 0.54355 0.65941 0.22755
 C2383 C 0.56768 0.63982 0.22144
 C2384 C 0.56135 0.65547 0.22795
 H2385 H 0.58162 0.63760 0.22165
 H2386 H 0.57059 0.66482 0.23299
 H2387 H 0.57730 0.60998 0.20763
 H2388 H 0.52531 0.59071 0.19897
 H2389 H 0.49475 0.67211 0.22326
 H2390 H 0.54725 0.68502 0.23818
 H2391 H 0.51321 0.61759 0.20954
 H2392 H 0.50409 0.64353 0.21414
 C2393 C 0.04031 0.62836 0.71585
 C2394 C 0.02856 0.61684 0.70757
 C2395 C 0.03449 0.60071 0.70128
 C2396 C 0.05224 0.59620 0.70235
 C2397 C 0.06388 0.60813 0.70991
 C2398 C 0.05803 0.62384 0.71669
 C2399 C 0.03353 0.64527 0.72265
 C2400 C 0.04385 0.65671 0.73259
 C2401 C 0.03731 0.67270 0.73790
 C2402 C 0.02035 0.67783 0.73340
 C2403 C 0.00967 0.66621 0.72411
 C2404 C 0.01605 0.64986 0.71900
 C2405 C 0.01112 0.62174 0.70516
 C2406 C 0.00511 0.63805 0.71038
 H2407 H 0.00210 0.61302 0.69870
 H2408 H -0.00836 0.64141 0.70778
 H2409 H 0.02528 0.59179 0.69542
 H2410 H 0.07774 0.60556 0.71026
 H2411 H 0.04582 0.68129 0.74518
 H2412 H -0.00358 0.66989 0.72086
 H2413 H 0.06772 0.63247 0.72205
 H2414 H 0.05700 0.65358 0.73644
 C2415 C 0.03840 0.12069 0.03570
 C2416 C 0.03646 0.12466 0.05373
 C2417 C 0.04338 0.14008 0.06056
 C2418 C 0.05187 0.15204 0.04962
 C2419 C 0.05330 0.14832 0.03164
 C2420 C 0.04672 0.13286 0.02476
 C2421 C 0.03151 0.10370 0.02912
 C2422 C 0.03406 0.09782 0.01178
 C2423 C 0.02795 0.08158 0.00652
 C2424 C 0.01891 0.07091 0.01829
 C2425 C 0.01605 0.07676 0.03548
 C2426 C 0.02254 0.09284 0.04105
 C2427 C 0.02760 0.11325 0.06487
 C2428 C 0.02057 0.09781 0.05861
 H2429 H 0.02598 0.11636 0.07866
 H2430 H 0.01376 0.08947 0.06775
 H2431 H 0.04232 0.14262 0.07451
 H2432 H 0.05940 0.15745 0.02279
 H2433 H 0.03041 0.07729 -0.00680
 H2434 H 0.00941 0.06845 0.04480
 H2435 H 0.04817 0.13077 0.01084
 H2436 H 0.04107 0.10536 0.00221
 C2437 C 0.03834 0.61877 0.53556
 C2438 C 0.03538 0.62336 0.55330
 C2439 C 0.04213 0.63887 0.56004
 C2440 C 0.05141 0.65041 0.54927
 C2441 C 0.05382 0.64610 0.53153
 C2442 C 0.04746 0.63049 0.52476
 C2443 C 0.03164 0.60162 0.52917
 C2444 C 0.03521 0.59507 0.51227
 C2445 C 0.02923 0.57870 0.50722
 C2446 C 0.01933 0.56856 0.51878
 C2447 C 0.01545 0.57511 0.53551
 C2448 C 0.02176 0.59132 0.54087
 C2449 C 0.02563 0.61248 0.56423
 C2450 C 0.01872 0.59696 0.55806
 H2451 H 0.02319 0.61609 0.57776
 H2452 H 0.01115 0.58908 0.56700
 H2453 H 0.04034 0.64179 0.57383
 H2454 H 0.06055 0.65487 0.52277
 H2455 H 0.03249 0.57390 0.49427
 H2456 H 0.00810 0.56726 0.54469
 H2457 H 0.04970 0.62792 0.51103
 H2458 H 0.04293 0.60218 0.50290
 C2459 C 0.53770 0.11721 0.53837
 C2460 C 0.55590 0.12006 0.53820
 C2461 C 0.56279 0.13562 0.54477
 C2462 C 0.55180 0.14874 0.55120
 C2463 C 0.53371 0.14609 0.55077
 C2464 C 0.52674 0.13056 0.54450
 C2465 C 0.53093 0.10010 0.53197
 C2466 C 0.51322 0.09539 0.53301
 C2467 C 0.50764 0.07912 0.52729
 C2468 C 0.51949 0.06724 0.52014
 C2469 C 0.53713 0.07181 0.51895
 C2470 C 0.54296 0.08796 0.52508
 C2471 C 0.56714 0.10739 0.53145
 C2472 C 0.56079 0.09179 0.52481
 H2473 H 0.58107 0.10962 0.53120
 H2474 H 0.57002 0.08245 0.51966
 H2475 H 0.57679 0.13737 0.54513
 H2476 H 0.52487 0.15611 0.55519
 H2477 H 0.49398 0.07582 0.52846
 H2478 H 0.54646 0.06254 0.51382
 H2479 H 0.51275 0.12935 0.54446
 H2480 H 0.50351 0.10393 0.53849
 C2481 C 0.53884 0.62114 0.03488
 C2482 C 0.53610 0.62559 0.05268
 C2483 C 0.54281 0.64113 0.05943
 C2484 C 0.55183 0.65282 0.04860
 C2485 C 0.55406 0.64862 0.03081
 C2486 C 0.54774 0.63299 0.02403
 C2487 C 0.53213 0.60400 0.02845
 C2488 C 0.53543 0.59760 0.01142
 C2489 C 0.52943 0.58124 0.00634
 C2490 C 0.51978 0.57095 0.01798
 C2491 C 0.51618 0.57734 0.03484
 C2492 C 0.52252 0.59354 0.04023
 C2493 C 0.52662 0.61456 0.06369
 C2494 C 0.51973 0.59902 0.05752
 H2495 H 0.52437 0.61805 0.07728
 H2496 H 0.51238 0.59102 0.06653
 H2497 H 0.54117 0.64397 0.07326
 H2498 H 0.56059 0.65749 0.02201
 H2499 H 0.53249 0.57657 -0.00671
 H2500 H 0.50904 0.56939 0.04409
 H2501 H 0.54982 0.63051 0.01026
 H2502 H 0.54293 0.60484 0.00198
 C2503 C 0.70694 0.13158 0.53364
 C2504 C 0.71230 0.12655 0.55065
 C2505 C 0.70600 0.11118 0.55816
 C2506 C 0.69446 0.10017 0.54897
 C2507 C 0.68946 0.10522 0.53186
 C2508 C 0.69556 0.12060 0.52436
 C2509 C 0.71364 0.14840 0.52635
 C2510 C 0.70844 0.15511 0.50993
 C2511 C 0.71472 0.17110 0.50401
 C2512 C 0.72651 0.18071 0.51419
 C2513 C 0.73194 0.17398 0.53043
 C2514 C 0.72545 0.15815 0.53665
 C2515 C 0.72389 0.13693 0.56021
 C2516 C 0.73044 0.15230 0.55330
 H2517 H 0.72804 0.13307 0.57324
 H2518 H 0.73939 0.15983 0.56124
 H2519 H 0.70967 0.10836 0.57157
 H2520 H 0.68128 0.09706 0.52379
 H2521 H 0.71023 0.17599 0.49147
 H2522 H 0.74089 0.18131 0.53855
 H2523 H 0.69133 0.12355 0.51119
 H2524 H 0.69932 0.14838 0.50158
 C2525 C 0.70902 0.63249 0.03466
 C2526 C 0.72107 0.62135 0.04307
 C2527 C 0.71551 0.60537 0.04991
 C2528 C 0.69788 0.60052 0.04909
 C2529 C 0.68596 0.61183 0.04105
 C2530 C 0.69141 0.62749 0.03385
 C2531 C 0.71541 0.64941 0.02753
 C2532 C 0.70466 0.66083 0.01799
 C2533 C 0.71101 0.67672 0.01215
 C2534 C 0.72822 0.68172 0.01569
 C2535 C 0.73920 0.67026 0.02480
 C2536 C 0.73299 0.65408 0.03052
 C2537 C 0.73849 0.62644 0.04501
 C2538 C 0.74425 0.64257 0.03912
 H2539 H 0.74773 0.61798 0.05152
 H2540 H 0.75776 0.64605 0.04127
 H2541 H 0.72492 0.59680 0.05600
 H2542 H 0.67219 0.60881 0.04071
 H2543 H 0.70224 0.68529 0.00515
 H2544 H 0.75260 0.67389 0.02740
 H2545 H 0.68152 0.63566 0.02812
 H2546 H 0.69131 0.65778 0.01486
 C2547 C 0.21096 0.61977 0.71759
 C2548 C 0.22251 0.63057 0.70813
 C2549 C 0.21648 0.64621 0.70078
 C2550 C 0.19881 0.65092 0.70196
 C2551 C 0.18736 0.63978 0.71089
 C2552 C 0.19332 0.62457 0.71871
 C2553 C 0.21782 0.60323 0.72525
 C2554 C 0.20775 0.59242 0.73613
 C2555 C 0.21433 0.57663 0.74208
 C2556 C 0.23106 0.57109 0.73726
 C2557 C 0.24153 0.58218 0.72713
 C2558 C 0.23513 0.59828 0.72135
 C2559 C 0.23982 0.62538 0.70556
 C2560 C 0.24588 0.60942 0.71169
 H2561 H 0.24869 0.63355 0.69823
 H2562 H 0.25923 0.60578 0.70890
 H2563 H 0.22557 0.65456 0.69396
 H2564 H 0.17354 0.64253 0.71148
 H2565 H 0.20605 0.56852 0.75011
 H2566 H 0.25463 0.57824 0.72362
 H2567 H 0.18377 0.61650 0.72509
 H2568 H 0.19475 0.59589 0.74018
 C2569 C 0.20810 0.11963 0.21702
 C2570 C 0.21989 0.13037 0.20780
 C2571 C 0.21424 0.14631 0.20091
 C2572 C 0.19671 0.15144 0.20231
 C2573 C 0.18502 0.14047 0.21110
 C2574 C 0.19062 0.12490 0.21847
 C2575 C 0.21459 0.10273 0.22417
 C2576 C 0.20427 0.09184 0.23473
 C2577 C 0.21059 0.07585 0.24041
 C2578 C 0.22730 0.07020 0.23562
 C2579 C 0.23794 0.08124 0.22566
 C2580 C 0.23181 0.09754 0.22017
 C2581 C 0.23707 0.12486 0.20502
 C2582 C 0.24279 0.10865 0.21075
 H2583 H 0.24609 0.13301 0.19786
 H2584 H 0.25606 0.10479 0.20786
 H2585 H 0.22351 0.15459 0.19425
 H2586 H 0.17131 0.14364 0.21191
 H2587 H 0.20217 0.06774 0.24828
 H2588 H 0.25101 0.07717 0.22217
 H2589 H 0.18090 0.11697 0.22476
 H2590 H 0.19129 0.09539 0.23877
 C2591 C 0.71707 1.12473 0.71253
 C2592 C 0.71979 1.12917 0.69476
 C2593 C 0.71250 1.14439 0.68786
 C2594 C 0.70247 1.15574 0.69838
 C2595 C 0.70074 1.15159 0.71634
 C2596 C 0.70786 1.13639 0.72327
 C2597 C 0.72384 1.10762 0.71897
 C2598 C 0.72041 1.10123 0.73595
 C2599 C 0.72605 1.08474 0.74093
 C2600 C 0.73544 1.07426 0.72922
 C2601 C 0.73935 1.08070 0.71246
 C2602 C 0.73338 1.09708 0.70717
 C2603 C 0.72948 1.11822 0.68381
 C2604 C 0.73633 1.10263 0.68994
 H2605 H 0.73174 1.12170 0.67021
 H2606 H 0.74365 1.09459 0.68091
 H2607 H 0.71387 1.14660 0.67391
 H2608 H 0.69416 1.16017 0.72538
 H2609 H 0.72285 1.08008 0.75394
 H2610 H 0.74637 1.07262 0.70320
 H2611 H 0.70599 1.13404 0.73709
 H2612 H 0.71302 1.10854 0.74543
 C2613 C 0.71063 0.62360 0.21399
 C2614 C 0.72260 0.63495 0.20579
 C2615 C 0.71682 0.65084 0.19880
 C2616 C 0.69910 0.65541 0.19934
 C2617 C 0.68727 0.64384 0.20709
 C2618 C 0.69291 0.62825 0.21439
 C2619 C 0.71727 0.60683 0.22136
 C2620 C 0.70662 0.59520 0.23072
 C2621 C 0.71322 0.57942 0.23671
 C2622 C 0.73059 0.57476 0.23351
 C2623 C 0.74147 0.58649 0.22468
 C2624 C 0.73501 0.60253 0.21879
 C2625 C 0.74015 0.63021 0.20427
 C2626 C 0.74616 0.61424 0.21038
 H2627 H 0.74933 0.63884 0.19792
 H2628 H 0.75979 0.61104 0.20855
 H2629 H 0.72616 0.65959 0.19290
 H2630 H 0.67345 0.64663 0.20721
 H2631 H 0.70453 0.57065 0.24351
 H2632 H 0.75499 0.58315 0.22234
 H2633 H 0.68311 0.61990 0.21993
 H2634 H 0.69315 0.59798 0.23354
 C2635 C 0.53719 0.12729 0.71507
 C2636 C 0.53261 0.12220 0.69785
 C2637 C 0.53929 0.10680 0.69072
 C2638 C 0.55056 0.09596 0.70046
 C2639 C 0.55471 0.10105 0.71776
 C2640 C 0.54816 0.11638 0.72492
 C2641 C 0.53032 0.14420 0.72191
 C2642 C 0.53479 0.15088 0.73854
 C2643 C 0.52874 0.16711 0.74392
 C2644 C 0.51793 0.17703 0.73298
 C2645 C 0.51302 0.17028 0.71659
 C2646 C 0.51927 0.15413 0.71092
 C2647 C 0.52153 0.13259 0.68770
 C2648 C 0.51490 0.14815 0.69414
 H2649 H 0.51794 0.12867 0.67452
 H2650 H 0.50643 0.15574 0.68573
 H2651 H 0.53625 0.10388 0.67716
 H2652 H 0.56261 0.09296 0.72620
 H2653 H 0.53276 0.17200 0.75663
 H2654 H 0.50484 0.17788 0.70789
 H2655 H 0.55181 0.11936 0.73825
 H2656 H 0.54322 0.14399 0.74746
 C2657 C 1.03525 0.12892 0.21386
 C2658 C 1.05328 0.12538 0.21530
 C2659 C 1.06010 0.10976 0.20881
 C2660 C 1.04919 0.09719 0.20123
 C2661 C 1.03119 0.10042 0.20056
 C2662 C 1.02430 0.11607 0.20670
 C2663 C 1.02868 0.14624 0.21998
 C2664 C 1.01132 0.15176 0.21758
 C2665 C 1.00606 0.16831 0.22289
 C2666 C 1.01786 0.17966 0.23097
 C2667 C 1.03510 0.17418 0.23364
 C2668 C 1.04065 0.15778 0.22793
 C2669 C 1.06444 0.13744 0.22318
 C2670 C 1.05821 0.15316 0.22962
 H2671 H 1.07823 0.13466 0.22446
 H2672 H 1.06736 0.16200 0.23567
 H2673 H 1.07404 0.10759 0.20933
 H2674 H 1.02234 0.09082 0.19530
 H2675 H 0.99271 0.17226 0.22058
 H2676 H 1.04444 0.18296 0.23955
 H2677 H 1.01039 0.11780 0.20580
 H2678 H 1.00172 0.14368 0.21127
 C2679 C 0.20953 0.62749 0.53531
 C2680 C 0.22147 0.61630 0.54383
 C2681 C 0.21573 0.60045 0.55084
 C2682 C 0.19804 0.59579 0.55008
 C2683 C 0.18625 0.60714 0.54190
 C2684 C 0.19187 0.62267 0.53453
 C2685 C 0.21609 0.64432 0.52810
 C2686 C 0.20544 0.65582 0.51854
 C2687 C 0.21191 0.67169 0.51276
 C2688 C 0.22914 0.67658 0.51636
 C2689 C 0.24004 0.66498 0.52539
 C2690 C 0.23371 0.64885 0.53109
 C2691 C 0.23894 0.62122 0.54571
 C2692 C 0.24486 0.63726 0.53973
 H2693 H 0.24809 0.61271 0.55229
 H2694 H 0.25840 0.64062 0.54186
 H2695 H 0.22504 0.59185 0.55705
 H2696 H 0.17245 0.60427 0.54157
 H2697 H 0.20319 0.68034 0.50579
 H2698 H 0.25346 0.66852 0.52803
 H2699 H 0.18208 0.63087 0.52871
 H2700 H 0.19208 0.65288 0.51540
 C2701 C 0.21268 0.12812 1.03674
 C2702 C 0.19449 0.12522 1.03623
 C2703 C 0.18746 0.11004 1.04348
 C2704 C 0.19829 0.09739 1.05106
 C2705 C 0.21636 0.10007 1.05106
 C2706 C 0.22349 0.11520 1.04404
 C2707 C 0.21957 0.14490 1.02963
 C2708 C 0.23727 0.14960 1.03070
 C2709 C 0.24290 0.16572 1.02463
 C2710 C 0.23112 0.17747 1.01711
 C2711 C 0.21353 0.17278 1.01561
 C2712 C 0.20764 0.15677 1.02206
 C2713 C 0.18339 0.13751 1.02858
 C2714 C 0.18985 0.15286 1.02148
 H2715 H 0.16947 0.13523 1.02808
 H2716 H 0.18070 0.16197 1.01576
 H2717 H 0.17346 0.10825 1.04352
 H2718 H 0.22508 0.09037 1.05642
 H2719 H 0.25654 0.16906 1.02598
 H2720 H 0.20426 0.18192 1.01012
 H2721 H 0.23746 0.11647 1.04442
 H2722 H 0.24692 0.14123 1.03652
 C2723 C 0.21219 0.70344 0.61824
 C2724 C 0.20446 0.71547 0.62990
 C2725 C 0.19766 0.70983 0.64603
 C2726 C 0.19791 0.69218 0.65063
 C2727 C 0.20507 0.68024 0.63872
 C2728 C 0.21218 0.68575 0.62282
 C2729 C 0.21967 0.71006 0.60133
 C2730 C 0.22875 0.69938 0.58943
 C2731 C 0.23507 0.70606 0.57364
 C2732 C 0.23243 0.72353 0.56923
 C2733 C 0.22378 0.73437 0.58119
 C2734 C 0.21762 0.72784 0.59724
 C2735 C 0.20335 0.73302 0.62531
 C2736 C 0.20953 0.73902 0.60922
 H2737 H 0.19733 0.74223 0.63419
 H2738 H 0.20808 0.75267 0.60618
 H2739 H 0.19225 0.71925 0.65507
 H2740 H 0.20499 0.66649 0.64157
 H2741 H 0.24167 0.69739 0.56466
 H2742 H 0.22185 0.74794 0.57802
 H2743 H 0.21735 0.67592 0.61421
 H2744 H 0.23113 0.68585 0.59204
 C2745 C 0.21128 0.20418 1.11908
 C2746 C 0.20421 0.21636 1.13101
 C2747 C 0.19740 0.21079 1.14714
 C2748 C 0.19692 0.19309 1.15145
 C2749 C 0.20339 0.18101 1.13929
 C2750 C 0.21054 0.18644 1.12339
 C2751 C 0.21886 0.21072 1.10222
 C2752 C 0.22745 0.19987 1.09011
 C2753 C 0.23396 0.20653 1.07441
 C2754 C 0.23196 0.22414 1.07030
 C2755 C 0.22377 0.23514 1.08243
 C2756 C 0.21748 0.22863 1.09841
 C2757 C 0.20375 0.23400 1.12669
 C2758 C 0.20996 0.23996 1.11061
 H2759 H 0.19823 0.24332 1.13577
 H2760 H 0.20904 0.25370 1.10777
 H2761 H 0.19255 0.22031 1.15639
 H2762 H 0.20272 0.16724 1.14194
 H2763 H 0.24021 0.19777 1.06525
 H2764 H 0.22239 0.24882 1.07947
 H2765 H 0.21516 0.17653 1.11456
 H2766 H 0.22933 0.18622 1.09252
 C2767 C 0.71326 0.54746 0.13176
 C2768 C 0.70635 0.53519 0.11984
 C2769 C 0.69941 0.54067 0.10370
 C2770 C 0.69870 0.55837 0.09938
 C2771 C 0.70500 0.57052 0.11155
 C2772 C 0.71226 0.56518 0.12746
 C2773 C 0.72095 0.54104 0.14866
 C2774 C 0.72939 0.55204 0.16075
 C2775 C 0.73591 0.54551 0.17653
 C2776 C 0.73411 0.52791 0.18072
 C2777 C 0.72614 0.51676 0.16857
 C2778 C 0.71981 0.52314 0.15252
 C2779 C 0.70615 0.51755 0.12420
 C2780 C 0.71246 0.51169 0.14031
 H2781 H 0.70075 0.50815 0.11513
 H2782 H 0.71172 0.49796 0.14319
 H2783 H 0.69464 0.53110 0.09446
 H2784 H 0.70414 0.58428 0.10891
 H2785 H 0.74200 0.55440 0.18568
 H2786 H 0.72490 0.50308 0.17159
 H2787 H 0.71673 0.57516 0.13629
 H2788 H 0.73111 0.56569 0.15829
 C2789 C 0.71549 1.03944 0.62466
 C2790 C 0.71614 1.05752 0.62158
 C2791 C 0.70836 1.06457 0.60650
 C2792 C 0.70013 1.05386 0.59409
 C2793 C 0.70037 1.03584 0.59673
 C2794 C 0.70789 1.02871 0.61180
 C2795 C 0.72273 1.03261 0.64161
 C2796 C 0.72105 1.01515 0.64682
 C2797 C 0.72710 1.00966 0.66321
 C2798 C 0.73526 1.02133 0.67468
 C2799 C 0.73737 1.03864 0.66944
 C2800 C 0.73087 1.04441 0.65324
 C2801 C 0.72439 1.06850 0.63364
 C2802 C 0.73183 1.06205 0.64900
 H2803 H 0.72507 1.08232 0.63119
 H2804 H 0.73800 1.07109 0.65793
 H2805 H 0.70826 1.07851 0.60472
 H2806 H 0.69465 1.02718 0.58714
 H2807 H 0.72522 0.99626 0.66701
 H2808 H 0.74332 1.04786 0.67837
 H2809 H 0.70757 1.01480 0.61312
 H2810 H 0.71467 1.00564 0.63868
 C2811 C 0.53841 0.21007 0.62882
 C2812 C 0.53804 0.19192 0.62610
 C2813 C 0.54473 0.18480 0.61055
 C2814 C 0.55139 0.19549 0.59723
 C2815 C 0.55106 0.21353 0.59969
 C2816 C 0.54475 0.22074 0.61526
 C2817 C 0.53196 0.21706 0.64601
 C2818 C 0.53337 0.23468 0.65078
 C2819 C 0.52758 0.24043 0.66718
 C2820 C 0.51996 0.22884 0.67906
 C2821 C 0.51843 0.21131 0.67440
 C2822 C 0.52467 0.20530 0.65821
 C2823 C 0.53094 0.18097 0.63888
 C2824 C 0.52414 0.18754 0.65446
 H2825 H 0.53052 0.16708 0.63674
 H2826 H 0.51869 0.17853 0.66388
 H2827 H 0.54500 0.17084 0.60899
 H2828 H 0.55563 0.22218 0.58949
 H2829 H 0.52904 0.25398 0.67059
 H2830 H 0.51297 0.20216 0.68370
 H2831 H 0.54481 0.23468 0.61635
 H2832 H 0.53921 0.24415 0.64221
 C2833 C 1.03583 0.21402 0.12517
 C2834 C 1.03239 0.19661 0.12062
 C2835 C 1.03945 0.18950 0.10523
 C2836 C 1.05003 0.19944 0.09388
 C2837 C 1.05281 0.21698 0.09829
 C2838 C 1.04586 0.22414 0.11361
 C2839 C 1.02891 0.22078 0.14227
 C2840 C 1.03251 0.23760 0.14853
 C2841 C 1.02661 0.24292 0.16500
 C2842 C 1.01682 0.23172 0.17562
 C2843 C 1.01272 0.21513 0.16929
 C2844 C 1.01886 0.20953 0.15289
 C2845 C 1.02218 0.18621 0.13163
 C2846 C 1.01546 0.19257 0.14734
 H2847 H 1.01944 0.17288 0.12810
 H2848 H 1.00777 0.18394 0.15545
 H2849 H 1.03739 0.17583 0.10283
 H2850 H 1.05998 0.22558 0.08975
 H2851 H 1.02994 0.25581 0.16953
 H2852 H 1.00532 0.20628 0.17744
 H2853 H 1.04850 0.23764 0.11610
 H2854 H 1.04016 0.24672 0.14112
 C2855 C 0.62028 0.20814 0.71252
 C2856 C 0.63115 0.21976 0.70326
 C2857 C 0.64700 0.21394 0.69616
 C2858 C 0.65200 0.19645 0.69758
 C2859 C 0.64080 0.18487 0.70620
 C2860 C 0.62525 0.19060 0.71365
 C2861 C 0.60364 0.21488 0.72018
 C2862 C 0.59271 0.20471 0.73083
 C2863 C 0.57694 0.21128 0.73699
 C2864 C 0.57158 0.22814 0.73269
 C2865 C 0.58269 0.23865 0.72265
 C2866 C 0.59876 0.23223 0.71661
 C2867 C 0.62594 0.23701 0.70082
 C2868 C 0.60994 0.24302 0.70706
 H2869 H 0.63419 0.24592 0.69363
 H2870 H 0.60634 0.25636 0.70447
 H2871 H 0.65546 0.22306 0.68952
 H2872 H 0.64389 0.17120 0.70696
 H2873 H 0.56868 0.20288 0.74475
 H2874 H 0.57881 0.25180 0.71947
 H2875 H 0.61716 0.18100 0.71990
 H2876 H 0.59604 0.19163 0.73453
 C2877 C 1.12075 0.21395 0.21153
 C2878 C 1.12461 0.19634 0.21500
 C2879 C 1.14002 0.18892 0.20862
 C2880 C 1.15220 0.19887 0.19928
 C2881 C 1.14867 0.21653 0.19650
 C2882 C 1.13314 0.22397 0.20244
 C2883 C 1.10361 0.22105 0.21770
 C2884 C 1.09764 0.23784 0.21346
 C2885 C 1.08123 0.24353 0.21899
 C2886 C 1.07051 0.23274 0.22910
 C2887 C 1.07646 0.21612 0.23359
 C2888 C 1.09266 0.21011 0.22772
 C2889 C 1.11310 0.18619 0.22484
 C2890 C 1.09763 0.19303 0.23135
 H2891 H 1.11616 0.17276 0.22768
 H2892 H 1.08925 0.18470 0.23904
 H2893 H 1.14231 0.17521 0.21071
 H2894 H 1.15797 0.22469 0.18974
 H2895 H 1.07689 0.25638 0.21526
 H2896 H 1.06815 0.20752 0.24109
 H2897 H 1.13115 0.23759 0.19991
 H2898 H 1.10526 0.24660 0.20556
 C2899 C 0.13199 0.70803 0.54148
 C2900 C 0.12036 0.70047 0.52926
 C2901 C 0.10415 0.69411 0.53490
 C2902 C 0.09945 0.69470 0.55272
 C2903 C 0.11134 0.70162 0.56485
 C2904 C 0.12733 0.70825 0.55935
 C2905 C 0.14893 0.71515 0.53487
 C2906 C 0.16074 0.72412 0.54572
 C2907 C 0.17648 0.73025 0.53905
 C2908 C 0.18096 0.72753 0.52141
 C2909 C 0.16915 0.71889 0.51038
 C2910 C 0.15311 0.71294 0.51691
 C2911 C 0.12506 0.69911 0.51154
 C2912 C 0.14119 0.70495 0.50556
 H2913 H 0.11622 0.69321 0.50219
 H2914 H 0.14430 0.70337 0.49177
 H2915 H 0.09513 0.68884 0.52534
 H2916 H 0.10841 0.70173 0.57875
 H2917 H 0.18534 0.73683 0.54788
 H2918 H 0.17238 0.71690 0.49667
 H2919 H 0.13590 0.71327 0.56935
 H2920 H 0.15808 0.72661 0.55939
 C2921 C 0.13114 0.20952 1.03761
 C2922 C 0.12759 0.21021 1.05583
 C2923 C 0.11177 0.20378 1.06238
 C2924 C 0.09910 0.19695 1.05100
 C2925 C 0.10251 0.19666 1.03291
 C2926 C 0.11829 0.20280 1.02628
 C2927 C 0.14841 0.21605 1.03122
 C2928 C 0.15369 0.21487 1.01354
 C2929 C 0.17002 0.22088 1.00830
 C2930 C 0.18144 0.22843 1.02047
 C2931 C 0.17631 0.22972 1.03810
 C2932 C 0.16006 0.22338 1.04358
 C2933 C 0.13981 0.21738 1.06741
 C2934 C 0.15560 0.22400 1.06140
 H2935 H 0.13707 0.21800 1.08135
 H2936 H 0.16456 0.22950 1.07089
 H2937 H 0.10944 0.20392 1.07640
 H2938 H 0.09286 0.19181 1.02377
 H2939 H 0.17372 0.21963 0.99464
 H2940 H 0.18519 0.23519 1.04770
 H2941 H 0.12006 0.20231 1.01225
 H2942 H 0.14554 0.20913 1.00358
 C2943 C 0.63316 0.54098 0.20967
 C2944 C 0.62122 0.54764 0.22211
 C2945 C 0.60480 0.55369 0.21661
 C2946 C 0.60023 0.55376 0.19872
 C2947 C 0.61243 0.54771 0.18643
 C2948 C 0.62858 0.54133 0.19178
 C2949 C 0.65037 0.53428 0.21607
 C2950 C 0.66251 0.52614 0.20493
 C2951 C 0.67851 0.52044 0.21140
 C2952 C 0.68294 0.52276 0.22911
 C2953 C 0.67081 0.53054 0.24044
 C2954 C 0.65449 0.53603 0.23411
 C2955 C 0.62585 0.54849 0.23989
 C2956 C 0.64223 0.54310 0.24571
 H2957 H 0.61678 0.55370 0.24942
 H2958 H 0.64529 0.54431 0.25955
 H2959 H 0.59558 0.55830 0.22631
 H2960 H 0.60963 0.54815 0.17250
 H2961 H 0.68762 0.51450 0.20235
 H2962 H 0.67400 0.53218 0.25420
 H2963 H 0.63737 0.53704 0.18164
 H2964 H 0.65991 0.52397 0.19119
 C2965 C 0.63152 1.03992 0.70760
 C2966 C 0.61995 1.04711 0.72008
 C2967 C 0.60342 1.05302 0.71478
 C2968 C 0.59840 1.05244 0.69703
 C2969 C 0.61028 1.04599 0.68463
 C2970 C 0.62653 1.03973 0.68981
 C2971 C 0.64879 1.03325 0.71380
 C2972 C 0.66044 1.02442 0.70269
 C2973 C 0.67653 1.01878 0.70892
 C2974 C 0.68155 1.02185 0.72636
 C2975 C 0.66989 1.03029 0.73769
 C2976 C 0.65345 1.03572 0.73162
 C2977 C 0.62507 1.04863 0.73768
 C2978 C 0.64159 1.04337 0.74325
 H2979 H 0.61630 1.05427 0.74724
 H2980 H 0.64504 1.04511 0.75694
 H2981 H 0.59446 1.05803 0.72452
 H2982 H 0.60715 1.04600 0.67077
 H2983 H 0.68526 1.01227 0.69989
 H2984 H 0.67354 1.03248 0.75127
 H2985 H 0.63508 1.03511 0.67961
 H2986 H 0.65737 1.02164 0.68916
 C2987 C 0.87496 0.46772 0.28705
 C2988 C 0.87798 0.46735 0.30537
 C2989 C 0.89295 0.45928 0.31210
 C2990 C 0.90549 0.45203 0.30084
 C2991 C 0.90282 0.45316 0.28263
 C2992 C 0.88776 0.46080 0.27581
 C2993 C 0.85817 0.47535 0.28052
 C2994 C 0.85301 0.47462 0.26277
 C2995 C 0.83674 0.48091 0.25755
 C2996 C 0.82533 0.48835 0.26979
 C2997 C 0.83058 0.48966 0.28738
 C2998 C 0.84667 0.48289 0.29287
 C2999 C 0.86606 0.47504 0.31690
 C3000 C 0.85092 0.48294 0.31074
 H3001 H 0.86850 0.47501 0.33092
 H3002 H 0.84218 0.48879 0.32018
 H3003 H 0.89459 0.45839 0.32619
 H3004 H 0.91245 0.44817 0.27356
 H3005 H 0.83297 0.47970 0.24389
 H3006 H 0.82173 0.49509 0.29701
 H3007 H 0.88645 0.46124 0.26172
 H3008 H 0.86107 0.46876 0.25282
 C3009 C 0.87078 0.96185 0.78851
 C3010 C 0.87335 0.94369 0.78774
 C3011 C 0.88862 0.93632 0.79459
 C3012 C 0.90175 0.94676 0.80185
 C3013 C 0.89941 0.96481 0.80206
 C3014 C 0.88414 0.97227 0.79554
 C3015 C 0.85397 0.96912 0.78168
 C3016 C 0.84943 0.98678 0.78320
 C3017 C 0.83348 0.99285 0.77684
 C3018 C 0.82180 0.98153 0.76858
 C3019 C 0.82615 0.96393 0.76704
 C3020 C 0.84193 0.95762 0.77377
 C3021 C 0.86073 0.93299 0.78008
 C3022 C 0.84547 0.93983 0.77301
 H3023 H 0.86276 0.91910 0.77939
 H3024 H 0.83617 0.93101 0.76710
 H3025 H 0.89012 0.92235 0.79448
 H3026 H 0.90947 0.97324 0.80719
 H3027 H 0.83028 1.00645 0.77834
 H3028 H 0.81698 0.95499 0.76109
 H3029 H 0.88313 0.98621 0.79600
 H3030 H 0.85788 0.99606 0.78950
 C3031 C 0.37945 0.28617 0.78785
 C3032 C 0.37570 0.30402 0.78583
 C3033 C 0.36020 0.31093 0.79258
 C3034 C 0.34785 0.30027 0.80087
 C3035 C 0.35134 0.28246 0.80229
 C3036 C 0.36693 0.27549 0.79595
 C3037 C 0.39660 0.27952 0.78123
 C3038 C 0.40234 0.26238 0.78403
 C3039 C 0.41869 0.25700 0.77813
 C3040 C 0.42966 0.26846 0.76908
 C3041 C 0.42397 0.28548 0.76601
 C3042 C 0.40775 0.29115 0.77228
 C3043 C 0.38738 0.31488 0.77701
 C3044 C 0.40291 0.30851 0.77012
 H3045 H 0.38442 0.32851 0.77529
 H3046 H 0.41142 0.31740 0.76327
 H3047 H 0.35791 0.32476 0.79156
 H3048 H 0.34194 0.27380 0.80821
 H3049 H 0.42280 0.24382 0.78074
 H3050 H 0.43246 0.29453 0.75931
 H3051 H 0.36884 0.26171 0.79739
 H3052 H 0.39458 0.25304 0.79105
 C3053 C 0.87798 0.28877 0.28481
 C3054 C 0.87467 0.28827 0.30307
 C3055 C 0.85908 0.29510 0.30979
 C3056 C 0.84644 0.30219 0.29854
 C3057 C 0.84943 0.30189 0.28036
 C3058 C 0.86497 0.29532 0.27357
 C3059 C 0.89524 0.28233 0.27828
 C3060 C 0.90048 0.28381 0.26061
 C3061 C 0.91691 0.27809 0.25528
 C3062 C 0.92842 0.27053 0.26735
 C3063 C 0.92331 0.26891 0.28495
 C3064 C 0.90701 0.27503 0.29054
 C3065 C 0.88696 0.28104 0.31454
 C3066 C 0.90267 0.27433 0.30838
 H3067 H 0.88438 0.28051 0.32852
 H3068 H 0.91173 0.26884 0.31779
 H3069 H 0.85703 0.29530 0.32386
 H3070 H 0.83972 0.30680 0.27132
 H3071 H 0.92062 0.27958 0.24165
 H3072 H 0.93229 0.26344 0.29446
 H3073 H 0.86649 0.29548 0.25950
 H3074 H 0.89226 0.28965 0.25076
 C3075 C 0.37204 0.78327 0.46050
 C3076 C 0.37621 0.80073 0.46430
 C3077 C 0.39171 0.80800 0.45798
 C3078 C 0.40371 0.79801 0.44841
 C3079 C 0.39982 0.78049 0.44519
 C3080 C 0.38418 0.77323 0.45105
 C3081 C 0.35490 0.77630 0.46682
 C3082 C 0.34865 0.75966 0.46240
 C3083 C 0.33231 0.75405 0.46823
 C3084 C 0.32195 0.76477 0.47883
 C3085 C 0.32817 0.78126 0.48342
 C3086 C 0.34428 0.78719 0.47727
 C3087 C 0.36498 0.81087 0.47450
 C3088 C 0.34953 0.80413 0.48112
 H3089 H 0.36827 0.82419 0.47757
 H3090 H 0.34139 0.81244 0.48914
 H3091 H 0.39428 0.82160 0.46039
 H3092 H 0.40894 0.77230 0.43822
 H3093 H 0.32776 0.74132 0.46439
 H3094 H 0.32014 0.78982 0.49130
 H3095 H 0.38193 0.75972 0.44821
 H3096 H 0.35600 0.75095 0.45417
 C3097 C 0.37326 0.28607 0.96476
 C3098 C 0.37637 0.28602 0.94646
 C3099 C 0.39163 0.29339 0.93971
 C3100 C 0.40435 0.30045 0.95089
 C3101 C 0.40149 0.30002 0.96909
 C3102 C 0.38616 0.29298 0.97595
 C3103 C 0.35632 0.27884 0.97130
 C3104 C 0.35121 0.27961 0.98906
 C3105 C 0.33493 0.27341 0.99431
 C3106 C 0.32346 0.26603 0.98207
 C3107 C 0.32857 0.26487 0.96444
 C3108 C 0.34467 0.27149 0.95894
 C3109 C 0.36424 0.27865 0.93493
 C3110 C 0.34884 0.27133 0.94106
 H3111 H 0.36670 0.27849 0.92092
 H3112 H 0.33988 0.26579 0.93159
 H3113 H 0.39342 0.29387 0.92561
 H3114 H 0.41118 0.30503 0.97809
 H3115 H 0.33123 0.27453 1.00798
 H3116 H 0.31965 0.25953 0.95481
 H3117 H 0.38471 0.29298 0.99003
 H3118 H 0.35940 0.28530 0.99901
 C3119 C 0.78773 0.46350 0.37267
 C3120 C 0.80566 0.46509 0.37669
 C3121 C 0.81233 0.45810 0.39232
 C3122 C 0.80130 0.45013 0.40462
 C3123 C 0.78337 0.44929 0.40091
 C3124 C 0.77668 0.45574 0.38514
 C3125 C 0.78134 0.47031 0.35537
 C3126 C 0.76421 0.46770 0.34918
 C3127 C 0.75911 0.47389 0.33270
 C3128 C 0.77083 0.48309 0.32213
 C3129 C 0.78785 0.48587 0.32825
 C3130 C 0.79326 0.47927 0.34451
 C3131 C 0.81683 0.47383 0.36520
 C3132 C 0.81067 0.48111 0.34966
 H3133 H 0.83052 0.47528 0.36837
 H3134 H 0.81977 0.48799 0.34137
 H3135 H 0.82622 0.45872 0.39473
 H3136 H 0.77440 0.44373 0.41029
 H3137 H 0.74594 0.47146 0.32820
 H3138 H 0.79715 0.49262 0.32002
 H3139 H 0.76282 0.45473 0.38307
 H3140 H 0.75470 0.46058 0.35669
 C3141 C 0.78919 0.96156 0.86769
 C3142 C 0.80734 0.96200 0.87091
 C3143 C 0.81414 0.95520 0.88660
 C3144 C 0.80307 0.94833 0.89952
 C3145 C 0.78503 0.94836 0.89645
 C3146 C 0.77817 0.95481 0.88078
 C3147 C 0.78252 0.96847 0.85053
 C3148 C 0.76489 0.96739 0.84543
 C3149 C 0.75941 0.97377 0.82917
 C3150 C 0.77128 0.98162 0.81771
 C3151 C 0.78886 0.98278 0.82266
 C3152 C 0.79459 0.97602 0.83876
 C3153 C 0.81862 0.96934 0.85854
 C3154 C 0.81236 0.97641 0.84293
 H3155 H 0.83252 0.96977 0.86104
 H3156 H 0.82162 0.98206 0.83385
 H3157 H 0.82811 0.95514 0.88863
 H3158 H 0.77611 0.94357 0.90632
 H3159 H 0.74581 0.97258 0.82556
 H3160 H 0.79822 0.98844 0.81368
 H3161 H 0.76420 0.95456 0.87928
 H3162 H 0.75517 0.96142 0.85365
 C3163 C 0.28518 0.78606 0.37668
 C3164 C 0.28409 0.80409 0.37350
 C3165 C 0.29125 0.81115 0.35815
 C3166 C 0.29930 0.80051 0.34556
 C3167 C 0.29971 0.78254 0.34843
 C3168 C 0.29279 0.77539 0.36376
 C3169 C 0.27840 0.77922 0.39380
 C3170 C 0.28023 0.76176 0.39893
 C3171 C 0.27460 0.75625 0.41543
 C3172 C 0.26675 0.76790 0.42714
 C3173 C 0.26442 0.78521 0.42199
 C3174 C 0.27046 0.79099 0.40562
 C3175 C 0.27603 0.81503 0.38572
 C3176 C 0.26917 0.80859 0.40133
 H3177 H 0.27505 0.82883 0.38320
 H3178 H 0.26314 0.81762 0.41039
 H3179 H 0.29095 0.82507 0.35626
 H3180 H 0.30542 0.77394 0.33878
 H3181 H 0.27657 0.74283 0.41912
 H3182 H 0.25865 0.79438 0.43107
 H3183 H 0.29355 0.76151 0.36521
 H3184 H 0.28637 0.75225 0.39061
 C3185 C 0.28817 0.28824 0.87926
 C3186 C 0.28803 0.30636 0.87631
 C3187 C 0.29494 0.31318 0.86069
 C3188 C 0.30174 0.30219 0.84766
 C3189 C 0.30126 0.28421 0.85042
 C3190 C 0.29464 0.27731 0.86597
 C3191 C 0.28146 0.28153 0.89646
 C3192 C 0.28239 0.26391 0.90125
 C3193 C 0.27659 0.25840 0.91768
 C3194 C 0.26947 0.27022 0.92968
 C3195 C 0.26821 0.28776 0.92495
 C3196 C 0.27443 0.29353 0.90862
 C3197 C 0.28100 0.31755 0.88895
 C3198 C 0.27415 0.31125 0.90465
 H3199 H 0.28076 0.33141 0.88665
 H3200 H 0.26886 0.32046 0.91398
 H3201 H 0.29528 0.32710 0.85886
 H3202 H 0.30595 0.27536 0.84044
 H3203 H 0.27778 0.24481 0.92106
 H3204 H 0.26306 0.29706 0.93428
 H3205 H 0.29463 0.26339 0.86723
 H3206 H 0.28789 0.25422 0.89270
 C3207 C 0.45892 0.29012 0.86936
 C3208 C 0.47096 0.29796 0.88099
 C3209 C 0.46531 0.30434 0.89732
 C3210 C 0.44764 0.30346 0.90209
 C3211 C 0.43569 0.29637 0.89012
 C3212 C 0.44120 0.28973 0.87406
 C3213 C 0.46549 0.28290 0.85237
 C3214 C 0.45480 0.27353 0.84072
 C3215 C 0.46139 0.26726 0.82493
 C3216 C 0.47880 0.27019 0.82022
 C3217 C 0.48969 0.27926 0.83185
 C3218 C 0.48324 0.28535 0.84799
 C3219 C 0.48849 0.29955 0.87612
 C3220 C 0.49443 0.29366 0.85986
 H3221 H 0.49772 0.30567 0.88493
 H3222 H 0.50805 0.29543 0.85662
 H3223 H 0.47470 0.30986 0.90636
 H3224 H 0.42190 0.29611 0.89307
 H3225 H 0.45268 0.26032 0.81621
 H3226 H 0.50323 0.28138 0.82844
 H3227 H 0.43132 0.28460 0.86545
 H3228 H 0.44133 0.27078 0.84357
 C3229 C 0.95875 0.29428 0.36637
 C3230 C 0.95041 0.28243 0.37776
 C3231 C 0.94389 0.28809 0.39400
 C3232 C 0.94503 0.30561 0.39895
 C3233 C 0.95268 0.31742 0.38726
 C3234 C 0.95952 0.31187 0.37126
 C3235 C 0.96608 0.28762 0.34944
 C3236 C 0.97589 0.29804 0.33793
 C3237 C 0.98221 0.29133 0.32218
 C3238 C 0.97885 0.27410 0.31739
 C3239 C 0.96938 0.26349 0.32891
 C3240 C 0.96323 0.27004 0.34496
 C3241 C 0.94844 0.26506 0.37279
 C3242 C 0.95445 0.25907 0.35661
 H3243 H 0.94193 0.25599 0.38143
 H3244 H 0.95237 0.24557 0.35327
 H3245 H 0.93803 0.27878 0.40286
 H3246 H 0.95323 0.33111 0.39036
 H3247 H 0.98946 0.29981 0.31353
 H3248 H 0.96690 0.25009 0.32544
 H3249 H 0.96512 0.32161 0.36284
 H3250 H 0.97891 0.31138 0.34086
 C3251 C 0.46483 0.37021 0.78651
 C3252 C 0.44702 0.37432 0.78412
 C3253 C 0.44018 0.38973 0.79108
 C3254 C 0.45091 0.40158 0.80001
 C3255 C 0.46880 0.39793 0.80138
 C3256 C 0.47567 0.38245 0.79483
 C3257 C 0.47129 0.35296 0.78014
 C3258 C 0.48821 0.34675 0.78366
 C3259 C 0.49333 0.33026 0.77810
 C3260 C 0.48183 0.31961 0.76868
 C3261 C 0.46505 0.32579 0.76488
 C3262 C 0.45960 0.34215 0.77082
 C3263 C 0.43612 0.36300 0.77486
 C3264 C 0.44237 0.34744 0.76804
 H3265 H 0.42253 0.36625 0.77278
 H3266 H 0.43345 0.33921 0.76084
 H3267 H 0.42634 0.39223 0.78991
 H3268 H 0.47757 0.40703 0.80760
 H3269 H 0.50634 0.32579 0.78126
 H3270 H 0.45594 0.31758 0.75786
 H3271 H 0.48947 0.38034 0.79637
 H3272 H 0.49754 0.35424 0.79104
 C3273 C 0.96229 0.37213 0.28420
 C3274 C 0.94416 0.37545 0.28423
 C3275 C 0.93769 0.39093 0.29147
 C3276 C 0.94906 0.40342 0.29847
 C3277 C 0.96707 0.40039 0.29765
 C3278 C 0.97362 0.38499 0.29067
 C3279 C 0.96859 0.35500 0.27738
 C3280 C 0.98618 0.34980 0.27830
 C3281 C 0.99130 0.33344 0.27244
 C3282 C 0.97912 0.32191 0.26527
 C3283 C 0.96161 0.32702 0.26404
 C3284 C 0.95623 0.34329 0.27033
 C3285 C 0.93259 0.36328 0.27715
 C3286 C 0.93851 0.34765 0.27013
 H3287 H 0.91871 0.36587 0.27702
 H3288 H 0.92902 0.33867 0.26482
 H3289 H 0.92374 0.39304 0.29203
 H3290 H 0.97619 0.41000 0.30245
 H3291 H 1.00487 0.32976 0.27361
 H3292 H 0.95204 0.31804 0.25884
 H3293 H 0.98758 0.38346 0.29044
 H3294 H 0.99613 0.35800 0.28385
 C3295 C 0.28659 0.86920 0.46625
 C3296 C 0.30470 0.87258 0.46643
 C3297 C 0.31114 0.88824 0.45968
 C3298 C 0.29977 0.90098 0.45310
 C3299 C 0.28176 0.89786 0.45364
 C3300 C 0.27524 0.88220 0.46006
 C3301 C 0.28035 0.85188 0.47260
 C3302 C 0.26283 0.84657 0.47137
 C3303 C 0.25782 0.83000 0.47673
 C3304 C 0.27006 0.81840 0.48372
 C3305 C 0.28748 0.82366 0.48533
 C3306 C 0.29275 0.84010 0.47950
 C3307 C 0.31630 0.86031 0.47332
 C3308 C 0.31042 0.84455 0.47997
 H3309 H 0.33016 0.86296 0.47364
 H3310 H 0.31992 0.83554 0.48520
 H3311 H 0.32509 0.89031 0.45924
 H3312 H 0.27262 0.90759 0.44915
 H3313 H 0.24431 0.82620 0.47528
 H3314 H 0.29711 0.81465 0.49038
 H3315 H 0.26129 0.88060 0.46013
 H3316 H 0.25286 0.85482 0.46590
 C3317 C 0.29160 0.36914 0.96889
 C3318 C 0.27978 0.38035 0.96023
 C3319 C 0.28563 0.39623 0.95333
 C3320 C 0.30336 0.40079 0.95420
 C3321 C 0.31505 0.38925 0.96228
 C3322 C 0.30929 0.37378 0.96965
 C3323 C 0.28495 0.35236 0.97609
 C3324 C 0.29538 0.34110 0.98616
 C3325 C 0.28902 0.32507 0.99158
 C3326 C 0.27211 0.31979 0.98711
 C3327 C 0.26128 0.33131 0.97785
 C3328 C 0.26750 0.34762 0.97254
 C3329 C 0.26237 0.37534 0.95801
 C3330 C 0.25646 0.35917 0.96370
 H3331 H 0.25330 0.38383 0.95130
 H3332 H 0.24301 0.35569 0.96118
 H3333 H 0.27639 0.40489 0.94711
 H3334 H 0.32889 0.39191 0.96257
 H3335 H 0.29764 0.31654 0.99882
 H3336 H 0.24807 0.32751 0.97461
 H3337 H 0.31901 0.36543 0.97538
 H3338 H 0.30852 0.34434 0.98992
 C3339 C 0.79344 0.38398 0.28422
 C3340 C 0.78095 0.37231 0.29102
 C3341 C 0.78622 0.35610 0.29758
 C3342 C 0.80395 0.35154 0.29816
 C3343 C 0.81631 0.36347 0.29197
 C3344 C 0.81117 0.37938 0.28500
 C3345 C 0.78730 0.40104 0.27713
 C3346 C 0.79851 0.41289 0.26877
 C3347 C 0.79235 0.42897 0.26313
 C3348 C 0.77491 0.43370 0.26575
 C3349 C 0.76347 0.42173 0.27344
 C3350 C 0.76947 0.40537 0.27887
 C3351 C 0.76333 0.37705 0.29161
 C3352 C 0.75777 0.39336 0.28599
 H3353 H 0.75375 0.36818 0.29690
 H3354 H 0.74407 0.39657 0.28713
 H3355 H 0.77648 0.34708 0.30227
 H3356 H 0.83011 0.36068 0.29279
 H3357 H 0.80145 0.43794 0.25718
 H3358 H 0.74989 0.42516 0.27523
 H3359 H 0.82133 0.38802 0.28067
 H3360 H 0.81207 0.41004 0.26649
   
