data_POSCAR
  _audit_creation_date              2014-09-24
  _audit_creation_method            'ToBaCCo'
  _symmetry_space_group_name_H-M    'P1'
  _symmetry_Int_Tables_number       1
  _symmetry_cell_setting            triclinic
  loop_
  _symmetry_equiv_pos_as_xyz
 x,y,z
_cell_length_a 85.8256
_cell_length_b 87.9941
_cell_length_c 88.3844
_cell_angle_alpha 90.094400
_cell_angle_beta 90.239900
_cell_angle_gamma 89.942400
loop_
  _atom_site_label
  _atom_site_type_symbol
  _atom_site_fract_x
  _atom_site_fract_y
  _atom_site_fract_z
C1 C 0.35865 0.33026 0.33856
 C2 C 0.34763 0.33012 0.35019
 C3 C 0.33582 0.34078 0.35046
 C4 C 0.33496 0.35185 0.33906
 C5 C 0.34585 0.35198 0.32756
 C6 C 0.35778 0.34105 0.32727
 C7 C 0.37084 0.32075 0.33519
 N8 N 0.37745 0.32539 0.32203
 C9 C 0.36954 0.33789 0.31714
 C10 C 0.34192 0.36367 0.31795
 N11 N 0.32895 0.37072 0.32333
 C12 C 0.32462 0.36349 0.33625
 C13 C 0.32640 0.33726 0.36256
 N14 N 0.33221 0.32470 0.36958
 C15 C 0.34528 0.32037 0.36207
 H16 H 0.37452 0.31110 0.34188
 H17 H 0.37179 0.34395 0.30674
 H18 H 0.34795 0.36660 0.30763
 H19 H 0.31477 0.36652 0.34323
 H20 H 0.31577 0.34311 0.36562
 H21 H 0.35256 0.31072 0.36488
 C22 C 0.35097 0.83708 -0.15894
 C23 C 0.33940 0.83630 -0.14781
 C24 C 0.32778 0.84719 -0.14726
 C25 C 0.32763 0.85907 -0.15787
 C26 C 0.33907 0.85980 -0.16875
 C27 C 0.35078 0.84870 -0.16932
 C28 C 0.36326 0.82773 -0.16252
 N29 N 0.37070 0.83331 -0.17498
 C30 C 0.36297 0.84627 -0.17908
 C31 C 0.33590 0.87218 -0.17768
 N32 N 0.32271 0.87921 -0.17260
 C33 C 0.31766 0.87109 -0.16039
 C34 C 0.31794 0.84323 -0.13562
 N35 N 0.32332 0.83021 -0.12911
 C36 C 0.33648 0.82598 -0.13654
 H37 H 0.36610 0.81742 -0.15651
 H38 H 0.36569 0.85356 -0.18852
 H39 H 0.34276 0.87539 -0.18737
 H40 H 0.30750 0.87352 -0.15362
 H41 H 0.30744 0.84922 -0.13243
 H42 H 0.34355 0.81612 -0.13395
 C43 C 0.85686 0.33730 -0.15816
 C44 C 0.84561 0.33617 -0.14678
 C45 C 0.83370 0.34671 -0.14593
 C46 C 0.83295 0.35860 -0.15648
 C47 C 0.84406 0.35970 -0.16765
 C48 C 0.85608 0.34892 -0.16854
 C49 C 0.86919 0.32820 -0.16209
 N50 N 0.87610 0.33389 -0.17478
 C51 C 0.86801 0.34670 -0.17867
 C52 C 0.84018 0.37196 -0.17649
 N53 N 0.82689 0.37854 -0.17105
 C54 C 0.82248 0.37024 -0.15872
 C55 C 0.82417 0.34234 -0.13421
 N56 N 0.83003 0.32941 -0.12793
 C57 C 0.84319 0.32564 -0.13559
 H58 H 0.87233 0.31789 -0.15621
 H59 H 0.87028 0.35399 -0.18823
 H60 H 0.84665 0.37543 -0.18635
 H61 H 0.81242 0.37227 -0.15170
 H62 H 0.81351 0.34796 -0.13084
 H63 H 0.85056 0.31592 -0.13327
 C64 C 0.85945 0.83059 0.34564
 C65 C 0.84744 0.82975 0.35627
 C66 C 0.83527 0.84001 0.35578
 C67 C 0.83500 0.85132 0.34457
 C68 C 0.84683 0.85210 0.33407
 C69 C 0.85916 0.84159 0.33458
 C70 C 0.87234 0.82171 0.34321
 N71 N 0.88009 0.82690 0.33079
 C72 C 0.87195 0.83917 0.32551
 C73 C 0.84335 0.86390 0.32445
 N74 N 0.82963 0.87050 0.32877
 C75 C 0.82455 0.86268 0.34117
 C76 C 0.82512 0.83611 0.36718
 N77 N 0.83086 0.82371 0.37453
 C78 C 0.84456 0.81982 0.36790
 H79 H 0.87529 0.81181 0.34985
 H80 H 0.87490 0.84602 0.31581
 H81 H 0.85056 0.86725 0.31505
 H82 H 0.81394 0.86473 0.34736
 H83 H 0.81416 0.84167 0.36963
 H84 H 0.85199 0.81047 0.37126
 C85 C 0.64182 0.66907 0.34224
 C86 C 0.65286 0.67025 0.35393
 C87 C 0.66460 0.65954 0.35522
 C88 C 0.66547 0.64749 0.34483
 C89 C 0.65456 0.64635 0.33335
 C90 C 0.64269 0.65720 0.33204
 C91 C 0.62944 0.67806 0.33790
 N92 N 0.62276 0.67190 0.32531
 C93 C 0.63083 0.65910 0.32172
 C94 C 0.65844 0.63394 0.32472
 N95 N 0.67147 0.62740 0.33065
 C96 C 0.67583 0.63566 0.34299
 C97 C 0.67379 0.66375 0.36731
 N98 N 0.66791 0.67674 0.37345
 C99 C 0.65508 0.68075 0.36528
 H100 H 0.62588 0.68852 0.34332
 H101 H 0.62831 0.65161 0.31230
 H102 H 0.65243 0.63025 0.31457
 H103 H 0.68581 0.63330 0.35014
 H104 H 0.68420 0.65792 0.37109
 H105 H 0.64779 0.69055 0.36744
 C106 C 0.64284 0.16451 -0.15513
 C107 C 0.65436 0.16528 -0.14386
 C108 C 0.66588 0.15433 -0.14317
 C109 C 0.66600 0.14240 -0.15371
 C110 C 0.65466 0.14165 -0.16477
 C111 C 0.64299 0.15281 -0.16550
 C112 C 0.63077 0.17402 -0.15902
 N113 N 0.62345 0.16849 -0.17164
 C114 C 0.63100 0.15538 -0.17553
 C115 C 0.65797 0.12928 -0.17370
 N116 N 0.67113 0.12230 -0.16841
 C117 C 0.67602 0.13044 -0.15608
 C118 C 0.67583 0.15835 -0.13159
 N119 N 0.67063 0.17148 -0.12519
 C120 C 0.65744 0.17574 -0.13267
 H121 H 0.62798 0.18436 -0.15303
 H122 H 0.62846 0.14821 -0.18516
 H123 H 0.65106 0.12585 -0.18336
 H124 H 0.68630 0.12827 -0.14933
 H125 H 0.68636 0.15234 -0.12843
 H126 H 0.65053 0.18573 -0.13024
 C127 C 0.14496 0.66491 -0.15476
 C128 C 0.15652 0.66463 -0.14350
 C129 C 0.16705 0.65278 -0.14299
 C130 C 0.16620 0.64106 -0.15371
 C131 C 0.15490 0.64135 -0.16483
 C132 C 0.14413 0.65340 -0.16534
 C133 C 0.13342 0.67520 -0.15819
 N134 N 0.12541 0.67034 -0.17069
 C135 C 0.13208 0.65691 -0.17505
 C136 C 0.15736 0.62887 -0.17394
 N137 N 0.16998 0.62092 -0.16868
 C138 C 0.17532 0.62850 -0.15620
 C139 C 0.17723 0.65565 -0.13130
 N140 N 0.17320 0.66904 -0.12466
 C141 C 0.16048 0.67458 -0.13207
 H142 H 0.13142 0.68556 -0.15193
 H143 H 0.12864 0.64996 -0.18457
 H144 H 0.15035 0.62606 -0.18372
 H145 H 0.18540 0.62559 -0.14945
 H146 H 0.18687 0.64847 -0.12791
 H147 H 0.15478 0.68528 -0.12967
 C148 C 0.13899 0.16890 0.34481
 C149 C 0.15130 0.16933 0.35528
 C150 C 0.16291 0.15843 0.35481
 C151 C 0.16230 0.14686 0.34383
 C152 C 0.15012 0.14646 0.33363
 C153 C 0.13843 0.15757 0.33409
 C154 C 0.12664 0.17849 0.34204
 N155 N 0.11848 0.17333 0.32974
 C156 C 0.12578 0.16038 0.32497
 C157 C 0.15269 0.13449 0.32401
 N158 N 0.16624 0.12736 0.32797
 C159 C 0.17214 0.13503 0.34019
 C160 C 0.17362 0.16212 0.36587
 N161 N 0.16878 0.17499 0.37304
 C162 C 0.15509 0.17941 0.36659
 H163 H 0.12426 0.18867 0.34847
 H164 H 0.12261 0.15348 0.31533
 H165 H 0.14521 0.13169 0.31456
 H166 H 0.18280 0.13241 0.34619
 H167 H 0.18435 0.15609 0.36820
 H168 H 0.14829 0.18923 0.36984
 C169 C 0.65097 0.33552 0.65743
 C170 C 0.66200 0.33531 0.64572
 C171 C 0.67251 0.34712 0.64440
 C172 C 0.67229 0.35918 0.65473
 C173 C 0.66155 0.35937 0.66629
 C174 C 0.65078 0.34748 0.66762
 C175 C 0.63958 0.32546 0.66184
 N176 N 0.63245 0.33103 0.67442
 C177 C 0.63930 0.34451 0.67799
 C178 C 0.66482 0.37185 0.67517
 N179 N 0.67733 0.37923 0.66927
 C180 C 0.68187 0.37153 0.65668
 C181 C 0.68229 0.34369 0.63264
 N182 N 0.67810 0.33002 0.62672
 C183 C 0.66562 0.32484 0.63464
 H184 H 0.63694 0.31472 0.65643
 H185 H 0.63612 0.35177 0.68738
 H186 H 0.65893 0.37488 0.68555
 H187 H 0.69161 0.37448 0.64953
 H188 H 0.69185 0.35068 0.62878
 H189 H 0.65991 0.31402 0.63288
 C190 C 0.63911 0.83224 1.15908
 C191 C 0.65104 0.83132 1.14832
 C192 C 0.66317 0.84165 1.14866
 C193 C 0.66351 0.85307 1.15975
 C194 C 0.65169 0.85397 1.17029
 C195 C 0.63942 0.84348 1.16994
 C196 C 0.62636 0.82328 1.16197
 N197 N 0.61879 0.82869 1.17445
 C198 C 0.62687 0.84119 1.17926
 C199 C 0.65524 0.86574 1.17994
 N200 N 0.66897 0.87205 1.17560
 C201 C 0.67408 0.86434 1.16321
 C202 C 0.67328 0.83768 1.13726
 N203 N 0.66759 0.82520 1.12999
 C204 C 0.65396 0.82127 1.13675
 H205 H 0.62318 0.81341 1.15536
 H206 H 0.62437 0.84802 1.18911
 H207 H 0.64824 0.86941 1.18943
 H208 H 0.68491 0.86644 1.15735
 H209 H 0.68418 0.84328 1.13473
 H210 H 0.64661 0.81183 1.13348
 C211 C 0.14481 0.33021 1.15742
 C212 C 0.15687 0.32913 1.14681
 C213 C 0.16885 0.33962 1.14694
 C214 C 0.16889 0.35138 1.15769
 C215 C 0.15696 0.35244 1.16810
 C216 C 0.14485 0.34174 1.16797
 C217 C 0.13213 0.32118 1.16035
 N218 N 0.12431 0.32683 1.17258
 C219 C 0.13218 0.33954 1.17718
 C220 C 0.16023 0.36461 1.17735
 N221 N 0.17388 0.37100 1.17288
 C222 C 0.17924 0.36293 1.16082
 C223 C 0.17909 0.33548 1.13571
 N224 N 0.17362 0.32274 1.12876
 C225 C 0.16000 0.31883 1.13553
 H226 H 0.12931 0.31101 1.15408
 H227 H 0.12929 0.34674 1.18666
 H228 H 0.15307 0.36851 1.18663
 H229 H 0.19007 0.36499 1.15495
 H230 H 0.18992 0.34117 1.13308
 H231 H 0.15277 0.30923 1.13245
 C232 C 0.14713 0.83467 0.65986
 C233 C 0.15875 0.83511 0.64874
 C234 C 0.16899 0.84720 0.64826
 C235 C 0.16781 0.85899 0.65888
 C236 C 0.15642 0.85858 0.66980
 C237 C 0.14596 0.84634 0.67029
 C238 C 0.13580 0.82418 0.66331
 N239 N 0.12775 0.82918 0.67560
 C240 C 0.13395 0.84276 0.67990
 C241 C 0.15850 0.87112 0.67889
 N242 N 0.17100 0.87928 0.67385
 C243 C 0.17663 0.87176 0.66148
 C244 C 0.17921 0.84449 0.63663
 N245 N 0.17548 0.83101 0.62999
 C246 C 0.16294 0.82521 0.63738
 H247 H 0.13385 0.81352 0.65749
 H248 H 0.13000 0.84965 0.68928
 H249 H 0.15140 0.87372 0.68861
 H250 H 0.18664 0.87489 0.65483
 H251 H 0.18862 0.85190 0.63323
 H252 H 0.15744 0.81442 0.63494
 C253 C 0.34830 0.66326 0.66188
 C254 C 0.33747 0.66337 0.64993
 C255 C 0.32656 0.65190 0.64880
 C256 C 0.32619 0.64028 0.65956
 C257 C 0.33673 0.64018 0.67140
 C258 C 0.34794 0.65175 0.67253
 C259 C 0.36001 0.67309 0.66605
 N260 N 0.36688 0.66784 0.67894
 C261 C 0.35948 0.65478 0.68297
 C262 C 0.33288 0.62809 0.68056
 N263 N 0.32021 0.62094 0.67455
 C264 C 0.31617 0.62834 0.66163
 C265 C 0.31712 0.65513 0.63666
 N266 N 0.32191 0.66838 0.63033
 C267 C 0.33443 0.67347 0.63837
 H268 H 0.36306 0.68347 0.66024
 H269 H 0.36234 0.64784 0.69269
 H270 H 0.33851 0.62515 0.69114
 H271 H 0.30650 0.62542 0.65429
 H272 H 0.30740 0.64830 0.63283
 H273 H 0.34056 0.68401 0.63634
 C274 C 0.36163 0.16370 1.15678
 C275 C 0.34997 0.16358 1.14558
 C276 C 0.33908 0.15201 1.14531
 C277 C 0.33961 0.14046 1.15622
 C278 C 0.35106 0.14057 1.16716
 C279 C 0.36215 0.15224 1.16746
 C280 C 0.37333 0.17381 1.16035
 N281 N 0.38092 0.16876 1.17294
 C282 C 0.37411 0.15553 1.17730
 C283 C 0.34816 0.12863 1.17675
 N284 N 0.33506 0.12118 1.17202
 C285 C 0.32989 0.12847 1.15931
 C286 C 0.32879 0.15509 1.13378
 N287 N 0.33307 0.16829 1.12699
 C288 C 0.34606 0.17354 1.13416
 H289 H 0.37579 0.18431 1.15447
 H290 H 0.37754 0.14875 1.18695
 H291 H 0.35490 0.12621 1.18681
 H292 H 0.31968 0.12563 1.15271
 H293 H 0.31888 0.14817 1.13063
 H294 H 0.35199 0.18407 1.13162
 C295 C 0.85842 0.66786 1.15863
 C296 C 0.84616 0.66815 1.14811
 C297 C 0.83475 0.65712 1.14853
 C298 C 0.83541 0.64563 1.15949
 C299 C 0.84750 0.64532 1.16986
 C300 C 0.85912 0.65652 1.16942
 C301 C 0.87079 0.67743 1.16116
 N302 N 0.87906 0.67223 1.17326
 C303 C 0.87195 0.65942 1.17837
 C304 C 0.84474 0.63334 1.17948
 N305 N 0.83123 0.62640 1.17525
 C306 C 0.82550 0.63391 1.16298
 C307 C 0.82417 0.66043 1.13728
 N308 N 0.82884 0.67327 1.13003
 C309 C 0.84231 0.67805 1.13666
 H310 H 0.87329 0.68769 1.15490
 H311 H 0.87578 0.65266 1.18791
 H312 H 0.85205 0.63004 1.18893
 H313 H 0.81461 0.63143 1.15729
 H314 H 0.81389 0.65385 1.13457
 H315 H 0.84872 0.68818 1.13365
 C316 C 0.85262 0.16113 0.65817
 C317 C 0.84177 0.16085 0.64623
 C318 C 0.83085 0.14935 0.64547
 C319 C 0.83051 0.13808 0.65663
 C320 C 0.84109 0.13842 0.66842
 C321 C 0.85227 0.15002 0.66915
 C322 C 0.86433 0.17108 0.66206
 N323 N 0.87126 0.16633 0.67520
 C324 C 0.86372 0.15338 0.67951
 C325 C 0.83735 0.12669 0.67803
 N326 N 0.82471 0.11925 0.67237
 C327 C 0.82054 0.12616 0.65920
 C328 C 0.82134 0.15227 0.63329
 N329 N 0.82609 0.16536 0.62659
 C330 C 0.83867 0.17064 0.63444
 H331 H 0.86729 0.18108 0.65563
 H332 H 0.86611 0.14666 0.68946
 H333 H 0.84305 0.12422 0.68869
 H334 H 0.81084 0.12294 0.65203
 H335 H 0.81157 0.14537 0.62972
 H336 H 0.84476 0.18114 0.63216
 C337 C 0.33016 0.35429 0.65620
 C338 C 0.33001 0.34394 0.64410
 C339 C 0.34156 0.33305 0.64297
 C340 C 0.35341 0.33232 0.65391
 C341 C 0.35356 0.34250 0.66582
 C342 C 0.34185 0.35356 0.66698
 C343 C 0.32019 0.36577 0.66047
 N344 N 0.32555 0.37207 0.67357
 C345 C 0.33884 0.36462 0.67758
 C346 C 0.36605 0.33882 0.67491
 N347 N 0.37352 0.32663 0.66882
 C348 C 0.36583 0.32262 0.65593
 C349 C 0.33824 0.32431 0.63047
 N350 N 0.32496 0.32962 0.62388
 C351 C 0.31987 0.34167 0.63220
 H352 H 0.30959 0.36899 0.65463
 H353 H 0.34590 0.36706 0.68746
 H354 H 0.36914 0.34438 0.68543
 H355 H 0.36898 0.31333 0.64852
 H356 H 0.34484 0.31452 0.62673
 H357 H 0.30957 0.34835 0.62981
 C358 C 0.32869 0.86069 0.15438
 C359 C 0.32816 0.84946 0.14308
 C360 C 0.33896 0.83778 0.14312
 C361 C 0.35045 0.83713 0.15443
 C362 C 0.35103 0.84826 0.16545
 C363 C 0.34010 0.86009 0.16542
 C364 C 0.31906 0.87272 0.15788
 N365 N 0.32435 0.87940 0.17083
 C366 C 0.33730 0.87173 0.17541
 C367 C 0.36268 0.84437 0.17541
 N368 N 0.36921 0.83106 0.17081
 C369 C 0.36179 0.82660 0.15791
 C370 C 0.33527 0.82826 0.13128
 N371 N 0.32253 0.83388 0.12399
 C372 C 0.31811 0.84685 0.13119
 H373 H 0.30859 0.87588 0.15180
 H374 H 0.34414 0.87422 0.18541
 H375 H 0.36598 0.85076 0.18539
 H376 H 0.36400 0.81615 0.15181
 H377 H 0.34124 0.81780 0.12847
 H378 H 0.30833 0.85396 0.12804
 C379 C 0.83005 0.36138 0.15229
 C380 C 0.82957 0.35005 0.14109
 C381 C 0.84071 0.33867 0.14100
 C382 C 0.85246 0.33843 0.15206
 C383 C 0.85298 0.34964 0.16298
 C384 C 0.84172 0.36117 0.16310
 C385 C 0.82025 0.37326 0.15588
 N386 N 0.82569 0.38021 0.16863
 C387 C 0.83890 0.37286 0.17301
 C388 C 0.86501 0.34617 0.17268
 N389 N 0.87183 0.33303 0.16800
 C390 C 0.86421 0.32826 0.15532
 C391 C 0.83713 0.32899 0.12928
 N392 N 0.82411 0.33420 0.12214
 C393 C 0.81940 0.34708 0.12936
 H394 H 0.80959 0.37617 0.14998
 H395 H 0.84594 0.37564 0.18281
 H396 H 0.86839 0.35272 0.18253
 H397 H 0.86656 0.31785 0.14921
 H398 H 0.84339 0.31871 0.12642
 H399 H 0.80937 0.35388 0.12630
 C400 C 0.83143 0.85657 0.65535
 C401 C 0.83054 0.84465 0.64488
 C402 C 0.84113 0.83282 0.64546
 C403 C 0.85285 0.83281 0.65662
 C404 C 0.85373 0.84462 0.66694
 C405 C 0.84293 0.85658 0.66632
 C406 C 0.82211 0.86900 0.65790
 N407 N 0.82761 0.87661 0.67020
 C408 C 0.84041 0.86907 0.67539
 C409 C 0.86577 0.84142 0.67673
 N410 N 0.87229 0.82791 0.67269
 C411 C 0.86442 0.82259 0.66036
 C412 C 0.83704 0.82271 0.63419
 N413 N 0.82423 0.82815 0.62683
 C414 C 0.82024 0.84159 0.63335
 H415 H 0.81167 0.87188 0.65160
 H416 H 0.84729 0.87226 0.68517
 H417 H 0.86949 0.84849 0.68609
 H418 H 0.86662 0.81188 0.65474
 H419 H 0.84278 0.81203 0.63178
 H420 H 0.81060 0.84876 0.62994
 C421 C 0.66760 0.64869 0.65851
 C422 C 0.66849 0.65926 0.64670
 C423 C 0.65749 0.67068 0.64550
 C424 C 0.64543 0.67169 0.65614
 C425 C 0.64457 0.66125 0.66777
 C426 C 0.65575 0.64968 0.66898
 C427 C 0.67693 0.63667 0.66267
 N428 N 0.67102 0.63027 0.67541
 C429 C 0.65802 0.63820 0.67932
 C430 C 0.63201 0.66519 0.67656
 N431 N 0.62514 0.67776 0.67055
 C432 C 0.63332 0.68179 0.65803
 C433 C 0.66150 0.67944 0.63323
 N434 N 0.67465 0.67360 0.62692
 C435 C 0.67895 0.66122 0.63513
 H436 H 0.68748 0.63314 0.65699
 H437 H 0.65066 0.63582 0.68894
 H438 H 0.62843 0.65948 0.68681
 H439 H 0.63068 0.69132 0.65074
 H440 H 0.65544 0.68954 0.62945
 H441 H 0.68893 0.65405 0.63287
 C442 C 0.67823 0.14432 0.15437
 C443 C 0.67745 0.15515 0.14274
 C444 C 0.66593 0.16608 0.14299
 C445 C 0.65518 0.16651 0.15482
 C446 C 0.65596 0.15598 0.16637
 C447 C 0.66759 0.14471 0.16611
 C448 C 0.68839 0.13258 0.15724
 N449 N 0.68424 0.12575 0.17043
 C450 C 0.67152 0.13316 0.17592
 C451 C 0.64459 0.15989 0.17670
 N452 N 0.63709 0.17258 0.17165
 C453 C 0.64351 0.17657 0.15821
 C454 C 0.66838 0.17562 0.13099
 N455 N 0.68127 0.17091 0.12341
 C456 C 0.68684 0.15829 0.13051
 H457 H 0.69801 0.12920 0.15011
 H458 H 0.66570 0.13059 0.18645
 H459 H 0.64237 0.15426 0.18735
 H460 H 0.64007 0.18620 0.15137
 H461 H 0.66134 0.18543 0.12818
 H462 H 0.69734 0.15221 0.12747
 C463 C 0.17219 0.64485 0.15434
 C464 C 0.17237 0.65653 0.14350
 C465 C 0.16035 0.66700 0.14309
 C466 C 0.14806 0.66603 0.15342
 C467 C 0.14788 0.65459 0.16406
 C468 C 0.16001 0.64391 0.16450
 C469 C 0.18251 0.63336 0.15792
 N470 N 0.17688 0.62552 0.17000
 C471 C 0.16308 0.63195 0.17402
 C472 C 0.13508 0.65699 0.17310
 N473 N 0.12751 0.66967 0.16821
 C474 C 0.13542 0.67522 0.15612
 C475 C 0.16365 0.67729 0.13193
 N476 N 0.17743 0.67346 0.12544
 C477 C 0.18284 0.66071 0.13245
 H478 H 0.19351 0.63119 0.15238
 H479 H 0.15572 0.62823 0.18320
 H480 H 0.13170 0.65010 0.18267
 H481 H 0.13261 0.68557 0.15009
 H482 H 0.15641 0.68685 0.12874
 H483 H 0.19376 0.65508 0.12997
 C484 C 0.16911 0.14910 0.65232
 C485 C 0.16908 0.15983 0.64057
 C486 C 0.15741 0.17063 0.63984
 C487 C 0.14568 0.17096 0.65080
 C488 C 0.14575 0.16049 0.66241
 C489 C 0.15752 0.14945 0.66315
 C490 C 0.17910 0.13745 0.65613
 N491 N 0.17387 0.13071 0.66900
 C492 C 0.16068 0.13808 0.67335
 C493 C 0.13346 0.16401 0.67175
 N494 N 0.12595 0.17640 0.66610
 C495 C 0.13338 0.18066 0.65323
 C496 C 0.16062 0.17999 0.62785
 N497 N 0.17408 0.17529 0.62125
 C498 C 0.17929 0.16288 0.62895
 H499 H 0.18935 0.13410 0.64986
 H500 H 0.15398 0.13561 0.68339
 H501 H 0.13059 0.15825 0.68218
 H502 H 0.13020 0.19019 0.64613
 H503 H 0.15366 0.18962 0.62433
 H504 H 0.19002 0.15684 0.62669
 C505 C 0.32643 0.64269 0.34683
 C506 C 0.32614 0.65357 0.35846
 C507 C 0.33664 0.66547 0.35839
 C508 C 0.34759 0.66667 0.34672
 C509 C 0.34786 0.65598 0.33527
 C510 C 0.33720 0.64392 0.33531
 C511 C 0.31735 0.63018 0.34368
 N512 N 0.32232 0.62378 0.33051
 C513 C 0.33450 0.63218 0.32537
 C514 C 0.35941 0.66014 0.32538
 N515 N 0.36625 0.67310 0.33055
 C516 C 0.35902 0.67716 0.34363
 C517 C 0.33328 0.67458 0.37060
 N518 N 0.32097 0.66854 0.37815
 C519 C 0.31658 0.65563 0.37076
 H520 H 0.30782 0.62608 0.35052
 H521 H 0.34070 0.63021 0.31491
 H522 H 0.36238 0.65426 0.31502
 H523 H 0.36192 0.68694 0.35052
 H524 H 0.33908 0.68513 0.37342
 H525 H 0.30709 0.64826 0.37400
 C526 C 0.33236 0.14951 0.84246
 C527 C 0.33284 0.16100 0.85349
 C528 C 0.34454 0.17179 0.85316
 C529 C 0.35591 0.17127 0.84181
 C530 C 0.35546 0.15991 0.83102
 C531 C 0.34363 0.14896 0.83136
 C532 C 0.32201 0.13790 0.83955
 N533 N 0.32672 0.13032 0.82692
 C534 C 0.33999 0.13705 0.82192
 C535 C 0.36740 0.16260 0.82106
 N536 N 0.37508 0.17541 0.82543
 C537 C 0.36809 0.18074 0.83819
 C538 C 0.34193 0.18169 0.86493
 N539 N 0.32892 0.17722 0.87245
 C540 C 0.32329 0.16456 0.86546
 H541 H 0.31155 0.13551 0.84591
 H542 H 0.34660 0.13362 0.81209
 H543 H 0.37013 0.15574 0.81126
 H544 H 0.37121 0.19107 0.84413
 H545 H 0.34913 0.19136 0.86784
 H546 H 0.31284 0.15850 0.86863
 C547 C 0.83194 0.64801 0.84838
 C548 C 0.83198 0.65908 0.85978
 C549 C 0.84279 0.67071 0.85955
 C550 C 0.85384 0.67133 0.84787
 C551 C 0.85376 0.66038 0.83662
 C552 C 0.84270 0.64867 0.83685
 C553 C 0.82228 0.63591 0.84544
 N554 N 0.82685 0.62918 0.83232
 C555 C 0.83940 0.63693 0.82703
 C556 C 0.86539 0.66397 0.82662
 N557 N 0.87268 0.67680 0.83148
 C558 C 0.86562 0.68139 0.84449
 C559 C 0.83940 0.68018 0.87155
 N560 N 0.82677 0.67458 0.87899
 C561 C 0.82228 0.66160 0.87183
 H562 H 0.81258 0.63238 0.85237
 H563 H 0.84540 0.63460 0.81653
 H564 H 0.86807 0.65778 0.81636
 H565 H 0.86884 0.69124 0.85114
 H566 H 0.84535 0.69067 0.87428
 H567 H 0.81257 0.65449 0.87502
 C568 C 0.83093 0.14191 0.34512
 C569 C 0.83090 0.15309 0.35643
 C570 C 0.84112 0.16518 0.35565
 C571 C 0.85159 0.16622 0.34354
 C572 C 0.85159 0.15521 0.33236
 C573 C 0.84116 0.14297 0.33314
 C574 C 0.82181 0.12931 0.34268
 N575 N 0.82618 0.12264 0.32946
 C576 C 0.83807 0.13096 0.32359
 C577 C 0.86261 0.15934 0.32189
 N578 N 0.86938 0.17257 0.32643
 C579 C 0.86263 0.17684 0.33969
 C580 C 0.83787 0.17464 0.36765
 N581 N 0.82588 0.16860 0.37569
 C582 C 0.82165 0.15535 0.36888
 H583 H 0.81262 0.12537 0.35003
 H584 H 0.84375 0.12878 0.31289
 H585 H 0.86524 0.15324 0.31157
 H586 H 0.86560 0.18685 0.34621
 H587 H 0.84344 0.18543 0.36996
 H588 H 0.81239 0.14791 0.37255
 C589 C 0.67262 0.35782 0.34725
 C590 C 0.67290 0.34709 0.35897
 C591 C 0.66239 0.33522 0.35893
 C592 C 0.65141 0.33391 0.34721
 C593 C 0.65116 0.34446 0.33565
 C594 C 0.66186 0.35650 0.33565
 C595 C 0.68185 0.37016 0.34405
 N596 N 0.67700 0.37639 0.33076
 C597 C 0.66473 0.36807 0.32558
 C598 C 0.63965 0.34010 0.32566
 N599 N 0.63285 0.32718 0.33090
 C600 C 0.64004 0.32335 0.34410
 C601 C 0.66590 0.32615 0.37114
 N602 N 0.67832 0.33220 0.37863
 C603 C 0.68261 0.34508 0.37123
 H604 H 0.69142 0.37424 0.35095
 H605 H 0.65860 0.36994 0.31503
 H606 H 0.63673 0.34580 0.31519
 H607 H 0.63719 0.31365 0.35106
 H608 H 0.66017 0.31558 0.37395
 H609 H 0.69219 0.35242 0.37437
 C610 C 0.66564 0.85231 0.84787
 C611 C 0.66588 0.84172 0.85964
 C612 C 0.65531 0.82992 0.85984
 C613 C 0.64417 0.82867 0.84821
 C614 C 0.64394 0.83915 0.83654
 C615 C 0.65483 0.85106 0.83633
 C616 C 0.67522 0.86428 0.84452
 N617 N 0.67064 0.87040 0.83112
 C618 C 0.65807 0.86241 0.82605
 C619 C 0.63229 0.83486 0.82669
 N620 N 0.62535 0.82207 0.83209
 C621 C 0.63264 0.81822 0.84524
 C622 C 0.65911 0.82087 0.87205
 N623 N 0.67178 0.82693 0.87916
 C624 C 0.67586 0.83976 0.87163
 H625 H 0.68493 0.86813 0.85137
 H626 H 0.65209 0.86430 0.81542
 H627 H 0.62932 0.84053 0.81621
 H628 H 0.62970 0.80860 0.85229
 H629 H 0.65347 0.81032 0.87508
 H630 H 0.68555 0.84710 0.87448
 C631 C 0.16584 0.35075 0.84884
 C632 C 0.16638 0.33998 0.86049
 C633 C 0.15595 0.32804 0.86062
 C634 C 0.14473 0.32676 0.84908
 C635 C 0.14423 0.33739 0.83757
 C636 C 0.15489 0.34946 0.83743
 C637 C 0.17507 0.36303 0.84550
 N638 N 0.17008 0.36924 0.83225
 C639 C 0.15767 0.36099 0.82728
 C640 C 0.13258 0.33309 0.82776
 N641 N 0.12588 0.32014 0.83301
 C642 C 0.13332 0.31618 0.84606
 C643 C 0.15987 0.31891 0.87270
 N644 N 0.17247 0.32501 0.87988
 C645 C 0.17642 0.33797 0.87246
 H646 H 0.18480 0.36702 0.85224
 H647 H 0.15144 0.36284 0.81678
 H648 H 0.12947 0.33886 0.81737
 H649 H 0.13059 0.30641 0.85297
 H650 H 0.15433 0.30828 0.87562
 H651 H 0.18603 0.34538 0.87539
 C652 C 0.17107 0.86004 0.34950
 C653 C 0.17107 0.84918 0.36109
 C654 C 0.16074 0.83718 0.36057
 C655 C 0.15021 0.83587 0.34847
 C656 C 0.15021 0.84655 0.33702
 C657 C 0.16074 0.85873 0.33753
 C658 C 0.18033 0.87244 0.34673
 N659 N 0.17594 0.87874 0.33333
 C660 C 0.16391 0.87040 0.32766
 C661 C 0.13918 0.84210 0.32656
 N662 N 0.13244 0.82899 0.33141
 C663 C 0.13918 0.82515 0.34483
 C664 C 0.16403 0.82795 0.37273
 N665 N 0.17615 0.83405 0.38063
 C666 C 0.18045 0.84710 0.37357
 H667 H 0.18965 0.87650 0.35396
 H668 H 0.15820 0.87232 0.31689
 H669 H 0.13656 0.84785 0.31604
 H670 H 0.13625 0.81533 0.35159
 H671 H 0.15841 0.81724 0.37520
 H672 H 0.18986 0.85451 0.37706
 O673 O 0.26386 0.98834 0.24528
 O674 O 0.24606 1.01846 0.26836
 O675 O 0.24422 0.98887 0.26750
 O676 O 0.26546 1.01784 0.24578
 O677 O 0.24582 1.01931 0.22968
 O678 O 0.22468 0.99024 0.25126
 O679 O 0.22642 1.01980 0.25225
 O680 O 0.24441 0.98983 0.22894
 Cu681 Cu 0.25685 1.00325 0.25837
 Cu682 Cu 0.23335 1.00495 0.23893
 C683 C 0.25723 0.98392 0.23317
 C684 C 0.23319 1.02430 0.26426
 C685 C 0.23085 0.98451 0.26303
 C686 C 0.25928 1.02351 0.23398
 O687 O 0.22072 0.48041 0.74982
 O688 O 0.24367 0.51033 0.73089
 O689 O 0.24253 0.48079 0.72935
 O690 O 0.22108 0.51005 0.75036
 O691 O 0.23866 0.50926 0.76861
 O692 O 0.26000 0.47946 0.74768
 O693 O 0.26129 0.50897 0.74908
 O694 O 0.23831 0.47960 0.76806
 Cu695 Cu 0.23024 0.49549 0.73828
 Cu696 Cu 0.25130 0.49422 0.76020
 C697 C 0.22569 0.47486 0.76221
 C698 C 0.25644 0.51473 0.73678
 C699 C 0.25489 0.47507 0.73487
 C700 C 0.22622 0.51479 0.76300
 O701 O 0.75855 -0.01961 0.26544
 O702 O 0.73656 0.01050 0.24587
 O703 O 0.73693 -0.01912 0.24479
 O704 O 0.75854 0.01005 0.26615
 O705 O 0.77658 0.01035 0.24845
 O706 O 0.75456 -0.01823 0.22673
 O707 O 0.75460 0.01144 0.22819
 O708 O 0.77625 -0.01926 0.24742
 Cu709 Cu 0.74587 -0.00462 0.25735
 Cu710 Cu 0.76727 -0.00388 0.23590
 C711 C 0.77109 -0.02469 0.25975
 C712 C 0.74189 0.01626 0.23378
 C713 C 0.74205 -0.02368 0.23209
 C714 C 0.77125 0.01522 0.26094
 O715 O 0.77340 0.51899 0.75019
 O716 O 0.75075 0.48957 0.73018
 O717 O 0.75161 0.51911 0.72958
 O718 O 0.77275 0.48944 0.75042
 O719 O 0.75490 0.48989 0.76829
 O720 O 0.73393 0.52009 0.74760
 O721 O 0.73283 0.49053 0.74797
 O722 O 0.75564 0.51956 0.76815
 Cu723 Cu 0.76391 0.50422 0.73830
 Cu724 Cu 0.74255 0.50508 0.75982
 C725 C 0.76835 0.52433 0.76261
 C726 C 0.73791 0.48503 0.73565
 C727 C 0.73920 0.52473 0.73501
 C728 C 0.76743 0.48449 0.76285
 O729 O 0.23889 0.51294 0.23889
 O730 O 0.25940 0.48302 0.26043
 O731 O 0.25900 0.51269 0.26091
 O732 O 0.23871 0.48323 0.23895
 O733 O 0.25761 0.48325 0.22212
 O734 O 0.27796 0.51298 0.24415
 O735 O 0.27838 0.48336 0.24368
 O736 O 0.25777 0.51291 0.22204
 Cu737 Cu 0.24710 0.49796 0.25146
 Cu738 Cu 0.26982 0.49814 0.23131
 C739 C 0.24487 0.51808 0.22680
 C740 C 0.27241 0.47804 0.25568
 C741 C 0.27189 0.51795 0.25629
 C742 C 0.24469 0.47808 0.22687
 O743 O 0.76594 0.98155 0.75305
 O744 O 0.74303 1.01118 0.77213
 O745 O 0.74262 0.98151 0.77162
 O746 O 0.76605 1.01107 0.75303
 O747 O 0.74930 1.01144 0.73404
 O748 O 0.72601 0.98179 0.75250
 O749 O 0.72635 1.01141 0.75308
 O750 O 0.74947 0.98189 0.73383
 Cu751 Cu 0.75604 0.99631 0.76440
 Cu752 Cu 0.73610 0.99664 0.74145
 C753 C 0.76167 0.97667 0.74016
 C754 C 0.73082 1.01643 0.76587
 C755 C 0.73037 0.97651 0.76520
 C756 C 0.76165 1.01633 0.74033
 O757 O 0.72337 0.48841 0.24753
 O758 O 0.74405 0.51871 0.22699
 O759 O 0.74366 0.48921 0.22573
 O760 O 0.72330 0.51798 0.24847
 O761 O 0.74227 0.51751 0.26537
 O762 O 0.76253 0.48840 0.24272
 O763 O 0.76294 0.51799 0.24397
 O764 O 0.74230 0.48786 0.26448
 Cu765 Cu 0.73169 0.50366 0.23549
 Cu766 Cu 0.75440 0.50288 0.25584
 C767 C 0.72936 0.48290 0.25951
 C768 C 0.75706 0.52352 0.23197
 C769 C 0.75655 0.48383 0.23035
 C770 C 0.72928 0.52272 0.26077
 O771 O 0.21950 0.02082 0.75561
 O772 O 0.23929 -0.00918 0.77760
 O773 O 0.24012 0.02048 0.77740
 O774 O 0.21859 -0.00882 0.75606
 O775 O 0.23738 -0.00951 0.73912
 O776 O 0.25883 0.01984 0.76037
 O777 O 0.25809 -0.00979 0.76067
 O778 O 0.23835 0.02010 0.73873
 Cu779 Cu 0.22749 0.00592 0.76836
 Cu780 Cu 0.25004 0.00508 0.74804
 C781 C 0.22558 0.02564 0.74343
 C782 C 0.25206 -0.01468 0.77283
 C783 C 0.25312 0.02524 0.77249
 C784 C 0.22435 -0.01425 0.74398
 O785 O 0.23543 0.24958 1.01956
 O786 O 0.25453 0.22771 0.98925
 O787 O 0.25704 0.22897 1.01869
 O788 O 0.23271 0.24828 0.99023
 O789 O 0.25054 0.26617 0.98802
 O790 O 0.27491 0.24683 1.01652
 O791 O 0.27226 0.24569 0.98708
 O792 O 0.25319 0.26754 1.01736
 Cu793 Cu 0.24316 0.23682 1.00464
 Cu794 Cu 0.26452 0.25834 1.00205
 C795 C 0.24106 0.26230 1.02366
 C796 C 0.26659 0.23303 0.98289
 C797 C 0.27007 0.23462 1.02257
 C798 C 0.23748 0.26051 0.98420
 O799 O 0.25168 0.73120 0.48959
 O800 O 0.23014 0.75146 0.51932
 O801 O 0.22997 0.75186 0.48994
 O802 O 0.25228 0.73132 0.51916
 O803 O 0.27013 0.74934 0.51903
 O804 O 0.24780 0.76990 0.48994
 O805 O 0.24797 0.76950 0.51950
 O806 O 0.26953 0.74921 0.48960
 Cu807 Cu 0.23926 0.73963 0.50449
 Cu808 Cu 0.26063 0.76131 0.50450
 C809 C 0.26425 0.73673 0.48445
 C810 C 0.23537 0.76390 0.52455
 C811 C 0.23510 0.76442 0.48494
 C812 C 0.26498 0.73685 0.52415
 O813 O 0.26799 0.75573 -0.01811
 O814 O 0.25102 0.73214 0.01196
 O815 O 0.24801 0.73362 -0.01737
 O816 O 0.27066 0.75467 0.01131
 O817 O 0.25134 0.77104 0.01366
 O818 O 0.22873 0.75002 -0.01491
 O819 O 0.23181 0.74862 0.01444
 O820 O 0.24879 0.77223 -0.01572
 Cu821 Cu 0.26136 0.74241 -0.00329
 Cu822 Cu 0.23823 0.76212 -0.00042
 C823 C 0.26129 0.76796 -0.02213
 C824 C 0.23856 0.73638 0.01842
 C825 C 0.23450 0.73826 -0.02109
 C826 C 0.26481 0.76641 0.01748
 O827 O 0.27447 0.25153 0.48059
 O828 O 0.25562 0.22878 0.51035
 O829 O 0.25469 0.22915 0.48093
 O830 O 0.27571 0.25097 0.51011
 O831 O 0.25627 0.26734 0.51124
 O832 O 0.23557 0.24590 0.48150
 O833 O 0.23627 0.24529 0.51102
 O834 O 0.25538 0.26828 0.48179
 Cu835 Cu 0.26707 0.23847 0.49541
 Cu836 Cu 0.24393 0.25835 0.49646
 C837 C 0.26815 0.26380 0.47610
 C838 C 0.24269 0.23319 0.51580
 C839 C 0.24157 0.23384 0.47614
 C840 C 0.26955 0.26280 0.51579
 O841 O 0.74903 0.77198 0.99009
 O842 O 0.77255 0.75345 1.01989
 O843 O 0.77228 0.75298 0.99046
 O844 O 0.75018 0.77348 1.01954
 O845 O 0.73331 0.75463 1.02078
 O846 O 0.75514 0.73433 0.99098
 O847 O 0.75558 0.73467 1.02055
 O848 O 0.73190 0.75336 0.99139
 Cu849 Cu 0.76270 0.76486 1.00491
 Cu850 Cu 0.74230 0.74235 1.00600
 C851 C 0.73641 0.76582 0.98567
 C852 C 0.76801 0.74086 1.02534
 C853 C 0.76748 0.74022 0.98564
 C854 C 0.73806 0.76758 1.02524
 O855 O 0.73303 0.24914 0.51675
 O856 O 0.75531 0.22984 0.48689
 O857 O 0.75549 0.22931 0.51644
 O858 O 0.73318 0.25008 0.48738
 O859 O 0.75073 0.26838 0.48786
 O860 O 0.77304 0.24760 0.51683
 O861 O 0.77285 0.24814 0.48742
 O862 O 0.75057 0.26744 0.51739
 Cu863 Cu 0.74253 0.23773 0.50180
 Cu864 Cu 0.76353 0.25975 0.50242
 C865 C 0.73801 0.26158 0.52222
 C866 C 0.76784 0.23567 0.48200
 C867 C 0.76806 0.23493 0.52165
 C868 C 0.73816 0.26280 0.48263
 O869 O 0.77459 0.25195 -0.01885
 O870 O 0.75714 0.22822 0.01087
 O871 O 0.75553 0.22897 -0.01848
 O872 O 0.77610 0.25131 0.01065
 O873 O 0.75605 0.26694 0.01212
 O874 O 0.73577 0.24499 -0.01746
 O875 O 0.73716 0.24397 0.01202
 O876 O 0.75486 0.26796 -0.01729
 Cu877 Cu 0.76786 0.23855 -0.00409
 Cu878 Cu 0.74395 0.25754 -0.00254
 C879 C 0.76774 0.26401 -0.02315
 C880 C 0.74414 0.23206 0.01654
 C881 C 0.74214 0.23320 -0.02300
 C882 C 0.76955 0.26287 0.01648
 O883 O 0.76831 0.75206 0.48452
 O884 O 0.74735 0.73124 0.51449
 O885 O 0.74728 0.73075 0.48501
 O886 O 0.76945 0.75141 0.51400
 O887 O 0.75112 0.76897 0.51494
 O888 O 0.72951 0.74887 0.48467
 O889 O 0.72900 0.74881 0.51414
 O890 O 0.75054 0.77016 0.48544
 Cu891 Cu 0.75991 0.73959 0.49946
 Cu892 Cu 0.73825 0.76100 0.49982
 C893 C 0.76299 0.76474 0.47991
 C894 C 0.73450 0.73649 0.51938
 C895 C 0.73471 0.73626 0.47976
 C896 C 0.76404 0.76359 0.51961
 O897 O 0.98054 0.24619 0.22133
 O898 O 1.00996 0.22508 0.24329
 O899 O 0.97968 0.22545 0.24235
 O900 O 1.01085 0.24573 0.22230
 O901 O 1.01063 0.26365 0.23978
 O902 O 0.97935 0.24339 0.25981
 O903 O 1.00968 0.24298 0.26079
 O904 O 0.98028 0.26404 0.23887
 Cu905 Cu 0.99528 0.23382 0.23056
 Cu906 Cu 0.99496 0.25532 0.25156
 C907 C 0.97535 0.25873 0.22637
 C908 C 1.01487 0.23042 0.25580
 C909 C 0.97417 0.23094 0.25451
 C910 C 1.01611 0.25814 0.22761
 O911 O 0.48723 0.25654 0.73119
 O912 O 0.51695 0.23535 0.75283
 O913 O 0.48664 0.23666 0.75285
 O914 O 0.51759 0.25497 0.73075
 O915 O 0.51891 0.27347 0.74756
 O916 O 0.48770 0.25525 0.76960
 O917 O 0.51792 0.25396 0.76955
 O918 O 0.48854 0.27520 0.74784
 Cu919 Cu 0.50201 0.24403 0.74021
 Cu920 Cu 0.50337 0.26636 0.76029
 C921 C 0.48276 0.26949 0.73587
 C922 C 0.52249 0.24104 0.76494
 C923 C 0.48185 0.24280 0.76499
 C924 C 0.52363 0.26730 0.73540
 O925 O 0.01399 0.24954 0.76753
 O926 O -0.01744 0.22998 0.74665
 O927 O 0.01287 0.22886 0.74649
 O928 O -0.01633 0.25032 0.76804
 O929 O -0.01637 0.26826 0.75064
 O930 O 0.01347 0.24704 0.72936
 O931 O -0.01694 0.24791 0.72925
 O932 O 0.01390 0.26775 0.75040
 Cu933 Cu -0.00176 0.23786 0.75890
 Cu934 Cu -0.00145 0.25953 0.73816
 C935 C 0.01927 0.26206 0.76255
 C936 C -0.02256 0.23561 0.73436
 C937 C 0.01827 0.23430 0.73431
 C938 C -0.02140 0.26292 0.76305
 O939 O 0.49356 0.27170 0.24504
 O940 O 0.52488 0.24864 0.22797
 O941 O 0.49461 0.24975 0.22527
 O942 O 0.52380 0.27118 0.24705
 O943 O 0.52235 0.25444 0.26553
 O944 O 0.49248 0.23334 0.24398
 O945 O 0.52270 0.23191 0.24639
 O946 O 0.49198 0.25517 0.26370
 Cu947 Cu 0.50942 0.26196 0.23446
 Cu948 Cu 0.50721 0.24207 0.25678
 C949 C 0.48739 0.26731 0.25733
 C950 C 0.52912 0.23631 0.23426
 C951 C 0.48842 0.23797 0.23093
 C952 C 0.52815 0.26647 0.25996
 O953 O 0.98479 0.74523 0.72499
 O954 O 1.01491 0.72412 0.74592
 O955 O 0.98454 0.72486 0.74638
 O956 O 1.01515 0.74509 0.72518
 O957 O 1.01555 0.76290 0.74277
 O958 O 0.98491 0.74289 0.76374
 O959 O 1.01531 0.74195 0.76349
 O960 O 0.98509 0.76318 0.74244
 Cu961 Cu 0.99980 0.73303 0.73388
 Cu962 Cu 1.00026 0.75453 0.75485
 C963 C 0.97973 0.75778 0.73012
 C964 C 1.02032 0.72940 0.75825
 C965 C 0.97944 0.73048 0.75867
 C966 C 1.02065 0.75744 0.73043
 O967 O 0.47806 0.74568 0.22715
 O968 O 0.50860 0.72689 0.24992
 O969 O 0.47824 0.72572 0.24896
 O970 O 0.50833 0.74638 0.22789
 O971 O 0.50745 0.76499 0.24461
 O972 O 0.47700 0.74442 0.26557
 O973 O 0.50730 0.74543 0.26670
 O974 O 0.47713 0.76427 0.24390
 Cu975 Cu 0.49339 0.73428 0.23682
 Cu976 Cu 0.49213 0.75664 0.25687
 C977 C 0.47239 0.75824 0.23166
 C978 C 0.51319 0.73299 0.26220
 C979 C 0.47241 0.73153 0.26082
 C980 C 0.51310 0.75919 0.23264
 O981 O 0.02195 0.75422 0.26991
 O982 O -0.00929 0.73175 0.25218
 O983 O 0.02105 0.73120 0.25149
 O984 O -0.00839 0.75495 0.27039
 O985 O -0.00872 0.77048 0.25083
 O986 O 0.02092 0.74689 0.23205
 O987 O -0.00935 0.74725 0.23259
 O988 O 0.02165 0.77002 0.25056
 Cu989 Cu 0.00635 0.74147 0.26295
 Cu990 Cu 0.00613 0.76024 0.23956
 C991 C 0.02715 0.76596 0.26330
 C992 C -0.01467 0.73563 0.23934
 C993 C 0.02604 0.73500 0.23853
 C994 C -0.01368 0.76672 0.26382
 O995 O 0.48076 0.76902 0.75286
 O996 O 0.51101 0.74831 0.73159
 O997 O 0.48060 0.74839 0.73168
 O998 O 0.51110 0.76919 0.75245
 O999 O 0.51177 0.75112 0.76971
 O1000 O 0.48044 0.73075 0.74938
 O1001 O 0.51081 0.73023 0.74884
 O1002 O 0.48138 0.75133 0.77050
 Cu1003 Cu 0.49583 0.76051 0.74039
 Cu1004 Cu 0.49613 0.73907 0.76136
 C1005 C 0.47592 0.76372 0.76536
 C1006 C 0.51606 0.73569 0.73660
 C1007 C 0.47520 0.73608 0.73701
 C1008 C 0.51676 0.76368 0.76455
 C1009 C 0.39313 0.30236 0.31693
 C1010 C 0.40561 0.29511 0.30988
 C1011 C 0.41533 0.30311 0.30009
 C1012 C 0.41242 0.31858 0.29733
 C1013 C 0.39995 0.32592 0.30446
 C1014 C 0.39019 0.31790 0.31442
 N1015 N 0.42811 0.29519 0.29333
 N1016 N 0.43700 0.30108 0.28347
 C1017 C 0.44975 0.29266 0.27718
 C1018 C 0.45817 0.29879 0.26511
 C1019 C 0.47046 0.29061 0.25862
 C1020 C 0.47461 0.27621 0.26424
 C1021 C 0.46625 0.27021 0.27650
 C1022 C 0.45392 0.27831 0.28287
 H1023 H 0.38572 0.29571 0.32423
 H1024 H 0.40770 0.28317 0.31203
 H1025 H 0.41985 0.32500 0.28982
 H1026 H 0.39813 0.33790 0.30238
 H1027 H 0.45510 0.30984 0.26063
 H1028 H 0.47670 0.29556 0.24921
 H1029 H 0.46912 0.25915 0.28109
 H1030 H 0.44766 0.27333 0.29224
 C1031 C 0.38922 0.83315 0.80419
 C1032 C 0.40168 0.82634 0.79663
 C1033 C 0.40863 0.81318 0.80229
 C1034 C 0.40308 0.80691 0.81580
 C1035 C 0.39062 0.81365 0.82343
 C1036 C 0.38327 0.82688 0.81774
 N1037 N 0.42109 0.80627 0.79399
 N1038 N 0.42776 0.79416 0.79849
 C1039 C 0.44005 0.78702 0.79016
 C1040 C 0.44663 0.77364 0.79582
 C1041 C 0.45837 0.76613 0.78783
 C1042 C 0.46375 0.77192 0.77397
 C1043 C 0.45720 0.78547 0.76837
 C1044 C 0.44545 0.79296 0.77639
 H1045 H 0.38428 0.84319 0.79910
 H1046 H 0.40587 0.83130 0.78620
 H1047 H 0.40832 0.79673 0.82047
 H1048 H 0.38695 0.80830 0.83379
 H1049 H 0.44257 0.76895 0.80641
 H1050 H 0.46316 0.75574 0.79247
 H1051 H 0.46108 0.79023 0.75775
 H1052 H 0.44052 0.80330 0.77178
 C1053 C -0.10635 0.33360 0.80361
 C1054 C -0.09419 0.32675 0.79561
 C1055 C -0.08682 0.31378 0.80124
 C1056 C -0.09156 0.30782 0.81518
 C1057 C -0.10368 0.31460 0.82323
 C1058 C -0.11153 0.32756 0.81756
 N1059 N -0.07478 0.30669 0.79252
 N1060 N -0.06812 0.29454 0.79693
 C1061 C -0.05625 0.28708 0.78834
 C1062 C -0.04988 0.27358 0.79393
 C1063 C -0.03852 0.26576 0.78575
 C1064 C -0.03330 0.27137 0.77177
 C1065 C -0.03964 0.28503 0.76622
 C1066 C -0.05104 0.29282 0.77442
 H1067 H -0.11173 0.34344 0.79853
 H1068 H -0.09061 0.33148 0.78487
 H1069 H -0.08595 0.29784 0.81985
 H1070 H -0.10668 0.30950 0.83391
 H1071 H -0.05382 0.26905 0.80464
 H1072 H -0.03387 0.25530 0.79036
 H1073 H -0.03586 0.28965 0.75549
 H1074 H -0.05582 0.30326 0.76988
 C1075 C -0.09842 0.80894 0.33218
 C1076 C -0.08549 0.80200 0.32559
 C1077 C -0.08039 0.80640 0.31130
 C1078 C -0.08821 0.81814 0.30368
 C1079 C -0.10117 0.82517 0.31024
 C1080 C -0.10673 0.82056 0.32457
 N1081 N -0.06756 0.79842 0.30469
 N1082 N -0.06227 0.80156 0.29164
 C1083 C -0.04970 0.79308 0.28512
 C1084 C -0.04431 0.79703 0.27074
 C1085 C -0.03246 0.78860 0.26386
 C1086 C -0.02582 0.77602 0.27128
 C1087 C -0.03113 0.77220 0.28581
 C1088 C -0.04295 0.78065 0.29268
 H1089 H -0.10164 0.80511 0.34333
 H1090 H -0.07947 0.79302 0.33162
 H1091 H -0.08445 0.82174 0.29258
 H1092 H -0.10695 0.83389 0.30372
 H1093 H -0.04943 0.80657 0.26479
 H1094 H -0.02864 0.79184 0.25266
 H1095 H -0.02625 0.76260 0.29185
 H1096 H -0.04691 0.77735 0.30381
 C1097 C 0.60759 0.67456 0.30155
 C1098 C 0.59500 0.68055 0.29347
 C1099 C 0.58436 0.69024 0.30053
 C1100 C 0.58635 0.69380 0.31592
 C1101 C 0.59888 0.68773 0.32407
 C1102 C 0.60971 0.67806 0.31698
 N1103 N 0.57176 0.69639 0.29180
 N1104 N 0.56242 0.70624 0.29714
 C1105 C 0.54989 0.71243 0.28835
 C1106 C 0.54114 0.72440 0.29436
 C1107 C 0.52915 0.73103 0.28591
 C1108 C 0.52560 0.72566 0.27129
 C1109 C 0.53423 0.71345 0.26538
 C1110 C 0.54632 0.70692 0.27380
 H1111 H 0.61578 0.66738 0.29563
 H1112 H 0.59362 0.67778 0.28159
 H1113 H 0.57821 0.70122 0.32166
 H1114 H 0.59999 0.69050 0.33595
 H1115 H 0.54377 0.72872 0.30556
 H1116 H 0.52268 0.74038 0.29081
 H1117 H 0.53180 0.70908 0.25416
 H1118 H 0.55290 0.69763 0.26893
 C1119 C 0.60464 0.16835 0.80763
 C1120 C 0.59258 0.17542 0.79961
 C1121 C 0.58667 0.18941 0.80437
 C1122 C 0.59280 0.19621 0.81745
 C1123 C 0.60484 0.18920 0.82552
 C1124 C 0.61120 0.17516 0.82072
 N1125 N 0.57466 0.19659 0.79562
 N1126 N 0.56906 0.20946 0.79932
 C1127 C 0.55724 0.21693 0.79061
 C1128 C 0.55182 0.23109 0.79550
 C1129 C 0.54050 0.23889 0.78719
 C1130 C 0.53437 0.23263 0.77377
 C1131 C 0.53979 0.21834 0.76891
 C1132 C 0.55114 0.21055 0.77726
 H1133 H 0.60868 0.15758 0.80332
 H1134 H 0.58790 0.17003 0.78956
 H1135 H 0.58838 0.20703 0.82140
 H1136 H 0.60908 0.19510 0.83541
 H1137 H 0.55645 0.23612 0.80576
 H1138 H 0.53659 0.24986 0.79126
 H1139 H 0.53530 0.21321 0.75864
 H1140 H 0.55517 0.19960 0.77325
 C1141 C 1.10686 0.69130 0.82842
 C1142 C 1.09452 0.69883 0.82128
 C1143 C 1.08801 0.69309 0.80796
 C1144 C 1.09394 0.67958 0.80182
 C1145 C 1.10629 0.67198 0.80890
 C1146 C 1.11312 0.67769 0.82238
 N1147 N 1.07552 0.70128 0.80087
 N1148 N 1.06903 0.69668 0.78872
 C1149 C 1.05666 0.70494 0.78152
 C1150 C 1.05019 0.69918 0.76815
 C1151 C 1.03831 0.70706 0.76066
 C1152 C 1.03266 0.72091 0.76644
 C1153 C 1.03911 0.72662 0.77995
 C1154 C 1.05100 0.71871 0.78744
 H1155 H 1.11126 0.69633 0.83871
 H1156 H 1.09002 0.70924 0.82615
 H1157 H 1.08909 0.67490 0.79149
 H1158 H 1.11041 0.66172 0.80355
 H1159 H 1.05444 0.68858 0.76348
 H1160 H 1.03362 0.70233 0.75028
 H1161 H 1.03503 0.73725 0.78470
 H1162 H 1.05582 0.72341 0.79778
 C1163 C 1.09950 0.19392 0.32875
 C1164 C 1.08704 0.20116 0.32151
 C1165 C 1.08043 0.19496 0.30844
 C1166 C 1.08622 0.18118 0.30279
 C1167 C 1.09865 0.17388 0.30998
 C1168 C 1.10577 0.18018 0.32304
 N1169 N 1.06812 0.20300 0.30092
 N1170 N 1.06200 0.19810 0.28872
 C1171 C 1.04993 0.20620 0.28093
 C1172 C 1.04403 0.20020 0.26741
 C1173 C 1.03256 0.20801 0.25927
 C1174 C 1.02679 0.22199 0.26457
 C1175 C 1.03265 0.22792 0.27824
 C1176 C 1.04413 0.22011 0.28635
 H1177 H 1.10414 0.19938 0.33873
 H1178 H 1.08262 0.21177 0.32601
 H1179 H 1.08123 0.17610 0.29272
 H1180 H 1.10257 0.16337 0.30499
 H1181 H 1.04843 0.18950 0.26312
 H1182 H 1.02828 0.20312 0.24880
 H1183 H 1.02844 0.23866 0.28263
 H1184 H 1.04853 0.22497 0.29678
 C1185 C 0.61750 0.32728 0.69803
 C1186 C 0.60519 0.32065 0.70592
 C1187 C 0.59512 0.31047 0.69869
 C1188 C 0.59749 0.30695 0.68336
 C1189 C 0.60976 0.31364 0.67540
 C1190 C 0.61991 0.32393 0.68263
 N1191 N 0.58258 0.30400 0.70716
 N1192 N 0.57355 0.29393 0.70166
 C1193 C 0.56098 0.28759 0.71021
 C1194 C 0.55246 0.27552 0.70407
 C1195 C 0.54028 0.26893 0.71222
 C1196 C 0.53633 0.27444 0.72665
 C1197 C 0.54481 0.28671 0.73272
 C1198 C 0.55706 0.29320 0.72461
 H1199 H 0.62520 0.33492 0.70406
 H1200 H 0.60352 0.32341 0.71775
 H1201 H 0.58980 0.29915 0.67750
 H1202 H 0.61111 0.31093 0.66354
 H1203 H 0.55534 0.27112 0.69298
 H1204 H 0.53396 0.25953 0.70720
 H1205 H 0.54208 0.29120 0.74381
 H1206 H 0.56344 0.30257 0.72958
 C1207 C 0.59872 0.82950 0.19384
 C1208 C 0.58602 0.82281 0.20108
 C1209 C 0.58005 0.80895 0.19602
 C1210 C 0.58677 0.80191 0.18339
 C1211 C 0.59946 0.80854 0.17609
 C1212 C 0.60589 0.82243 0.18125
 N1213 N 0.56741 0.80214 0.20407
 N1214 N 0.56162 0.78943 0.20010
 C1215 C 0.54921 0.78234 0.20824
 C1216 C 0.54355 0.76835 0.20313
 C1217 C 0.53174 0.76088 0.21099
 C1218 C 0.52538 0.76731 0.22418
 C1219 C 0.53101 0.78145 0.22923
 C1220 C 0.54283 0.78891 0.22134
 H1221 H 0.60273 0.84023 0.19829
 H1222 H 0.58088 0.82840 0.21078
 H1223 H 0.58232 0.79117 0.17922
 H1224 H 0.60423 0.80243 0.16658
 H1225 H 0.54839 0.76317 0.19307
 H1226 H 0.52768 0.75001 0.20678
 H1227 H 0.52635 0.78671 0.23933
 H1228 H 0.54704 0.79973 0.22551
 C1229 C 1.10484 0.32693 0.19258
 C1230 C 1.09199 0.32025 0.19961
 C1231 C 1.08521 0.30713 0.19364
 C1232 C 1.09127 0.30081 0.18034
 C1233 C 1.10410 0.30743 0.17325
 C1234 C 1.11133 0.32058 0.17928
 N1235 N 1.07237 0.30031 0.20141
 N1236 N 1.06594 0.28816 0.19667
 C1237 C 1.05327 0.28109 0.20447
 C1238 C 1.04699 0.26766 0.19859
 C1239 C 1.03486 0.26024 0.20604
 C1240 C 1.02878 0.26617 0.21958
 C1241 C 1.03504 0.27975 0.22541
 C1242 C 1.04719 0.28715 0.21793
 H1243 H 1.10961 0.33696 0.19787
 H1244 H 1.08739 0.32526 0.20987
 H1245 H 1.08617 0.29068 0.17544
 H1246 H 1.10816 0.30202 0.16304
 H1247 H 1.05159 0.26287 0.18823
 H1248 H 1.03031 0.24981 0.20124
 H1249 H 1.03062 0.28462 0.23580
 H1250 H 1.05187 0.29754 0.22270
 C1251 C 1.11166 0.82417 0.69826
 C1252 C 1.09941 0.81661 0.70537
 C1253 C 1.09038 0.80603 0.69743
 C1254 C 1.09371 0.80311 0.68215
 C1255 C 1.10592 0.81072 0.67498
 C1256 C 1.11509 0.82135 0.68295
 N1257 N 1.07796 0.79850 0.70516
 N1258 N 1.06989 0.78799 0.69905
 C1259 C 1.05747 0.78063 0.70697
 C1260 C 1.04992 0.76825 0.70022
 C1261 C 1.03792 0.76069 0.70778
 C1262 C 1.03318 0.76551 0.72224
 C1263 C 1.04069 0.77806 0.72891
 C1264 C 1.05274 0.78552 0.72139
 H1265 H 1.11858 0.83205 0.70485
 H1266 H 1.09699 0.81893 0.71717
 H1267 H 1.08683 0.79502 0.67574
 H1268 H 1.10804 0.80841 0.66314
 H1269 H 1.05344 0.76438 0.68911
 H1270 H 1.03236 0.75109 0.70232
 H1271 H 1.03735 0.78205 0.74004
 H1272 H 1.05836 0.79509 0.72685
 C1273 C 0.38212 0.67218 0.70246
 C1274 C 0.39448 0.67909 0.71018
 C1275 C 0.40458 0.68895 0.70263
 C1276 C 0.40225 0.69173 0.68714
 C1277 C 0.38995 0.68476 0.67938
 C1278 C 0.37967 0.67492 0.68694
 N1279 N 0.41701 0.69601 0.71092
 N1280 N 0.42577 0.70602 0.70500
 C1281 C 0.43823 0.71315 0.71318
 C1282 C 0.44629 0.72511 0.70635
 C1283 C 0.45832 0.73253 0.71407
 C1284 C 0.46262 0.72801 0.72876
 C1285 C 0.45463 0.71585 0.73553
 C1286 C 0.44249 0.70852 0.72784
 H1287 H 0.37436 0.66487 0.70874
 H1288 H 0.39613 0.67688 0.72214
 H1289 H 0.40995 0.69923 0.68101
 H1290 H 0.38864 0.68695 0.66740
 H1291 H 0.44313 0.72876 0.69505
 H1292 H 0.46427 0.74181 0.70851
 H1293 H 0.45764 0.71212 0.74684
 H1294 H 0.43645 0.69927 0.73333
 C1295 C 0.39620 0.17384 0.19620
 C1296 C 0.40853 0.18100 0.20369
 C1297 C 0.41846 0.19079 0.19588
 C1298 C 0.41594 0.19336 0.18037
 C1299 C 0.40363 0.18614 0.17283
 C1300 C 0.39361 0.17628 0.18066
 N1301 N 0.43091 0.19797 0.20401
 N1302 N 0.43992 0.20764 0.19792
 C1303 C 0.45228 0.21477 0.20624
 C1304 C 0.46091 0.22628 0.19933
 C1305 C 0.47275 0.23376 0.20729
 C1306 C 0.47624 0.22972 0.22233
 C1307 C 0.46771 0.21797 0.22916
 C1308 C 0.45581 0.21059 0.22122
 H1309 H 0.38859 0.16657 0.20268
 H1310 H 0.41031 0.17900 0.21566
 H1311 H 0.42351 0.20086 0.17408
 H1312 H 0.40210 0.18813 0.16084
 H1313 H 0.45832 0.22959 0.18779
 H1314 H 0.47912 0.24273 0.20169
 H1315 H 0.47009 0.21461 0.24073
 H1316 H 0.44933 0.20167 0.22680
 C1317 C -0.09780 0.68881 0.17089
 C1318 C -0.08502 0.69627 0.17731
 C1319 C -0.08149 0.69447 0.19266
 C1320 C -0.09083 0.68495 0.20157
 C1321 C -0.10367 0.67751 0.19518
 C1322 C -0.10738 0.67943 0.17977
 N1323 N -0.06862 0.70271 0.19894
 N1324 N -0.06428 0.70110 0.21263
 C1325 C -0.05163 0.70965 0.21895
 C1326 C -0.04677 0.70658 0.23375
 C1327 C -0.03466 0.71491 0.24036
 C1328 C -0.02728 0.72659 0.23225
 C1329 C -0.03217 0.72964 0.21736
 C1330 C -0.04421 0.72122 0.21074
 H1331 H -0.10013 0.69035 0.15896
 H1332 H -0.07788 0.70355 0.17032
 H1333 H -0.08837 0.68343 0.21349
 H1334 H -0.11088 0.67056 0.20240
 H1335 H -0.05242 0.69771 0.24020
 H1336 H -0.03119 0.71231 0.25186
 H1337 H -0.02671 0.73854 0.21081
 H1338 H -0.04780 0.72385 0.19928
 C1339 C -0.11055 0.16729 0.69641
 C1340 C -0.09822 0.17435 0.70401
 C1341 C -0.09148 0.18753 0.69826
 C1342 C -0.09721 0.19366 0.68470
 C1343 C -0.10955 0.18666 0.67703
 C1344 C -0.11656 0.17328 0.68271
 N1345 N -0.07890 0.19445 0.70643
 N1346 N -0.07223 0.20650 0.70185
 C1347 C -0.05970 0.21344 0.71009
 C1348 C -0.05305 0.22677 0.70446
 C1349 C -0.04093 0.23394 0.71229
 C1350 C -0.03524 0.22786 0.72595
 C1351 C -0.04189 0.21440 0.73154
 C1352 C -0.05402 0.20725 0.72369
 H1353 H -0.11521 0.15716 0.70152
 H1354 H -0.09389 0.16951 0.71448
 H1355 H -0.09216 0.20388 0.68000
 H1356 H -0.11340 0.19191 0.66665
 H1357 H -0.05732 0.23164 0.69398
 H1358 H -0.03607 0.24428 0.70766
 H1359 H -0.03778 0.20943 0.74202
 H1360 H -0.05897 0.19694 0.72828
 C1361 C 0.30521 0.38628 0.31915
 C1362 C 0.29765 0.39864 0.31241
 C1363 C 0.30577 0.40845 0.30283
 C1364 C 0.32167 0.40584 0.30015
 C1365 C 0.32927 0.39354 0.30693
 C1366 C 0.32113 0.38354 0.31648
 N1367 N 0.29760 0.42085 0.29587
 N1368 N 0.30408 0.42949 0.28623
 C1369 C 0.29603 0.44184 0.27911
 C1370 C 0.30354 0.44987 0.26761
 C1371 C 0.29591 0.46170 0.26008
 C1372 C 0.28062 0.46583 0.26404
 C1373 C 0.27319 0.45791 0.27579
 C1374 C 0.28080 0.44597 0.28323
 H1375 H 0.29850 0.37875 0.32625
 H1376 H 0.28537 0.40050 0.31454
 H1377 H 0.32824 0.41331 0.29285
 H1378 H 0.34157 0.39197 0.30481
 H1379 H 0.31528 0.44681 0.26435
 H1380 H 0.30199 0.46759 0.25112
 H1381 H 0.26141 0.46079 0.27908
 H1382 H 0.27477 0.43996 0.29212
 C1383 C 0.32285 -0.10015 0.80910
 C1384 C 0.31570 -0.08749 0.80258
 C1385 C 0.30137 -0.08228 0.80786
 C1386 C 0.29423 -0.08981 0.81995
 C1387 C 0.30133 -0.10253 0.82655
 C1388 C 0.31579 -0.10809 0.82119
 N1389 N 0.29430 -0.06949 0.80053
 N1390 N 0.28133 -0.06387 0.80466
 C1391 C 0.27443 -0.05125 0.79687
 C1392 C 0.26020 -0.04540 0.80193
 C1393 C 0.25298 -0.03338 0.79427
 C1394 C 0.25991 -0.02702 0.78134
 C1395 C 0.27429 -0.03282 0.77639
 C1396 C 0.28149 -0.04480 0.78407
 H1397 H 0.33398 -0.10345 0.80452
 H1398 H 0.32135 -0.08172 0.79329
 H1399 H 0.28309 -0.08598 0.82423
 H1400 H 0.29519 -0.10798 0.83567
 H1401 H 0.25463 -0.05027 0.81177
 H1402 H 0.24191 -0.02918 0.79837
 H1403 H 0.27995 -0.02818 0.76649
 H1404 H 0.29249 -0.04910 0.77991
 C1405 C 0.80496 0.39617 0.82898
 C1406 C 0.79718 0.40864 0.82268
 C1407 C 0.80340 0.41630 0.81029
 C1408 C 0.81766 0.41145 0.80428
 C1409 C 0.82549 0.39902 0.81052
 C1410 C 0.81929 0.39098 0.82297
 N1411 N 0.79498 0.42882 0.80385
 N1412 N 0.80003 0.43591 0.79234
 C1413 C 0.79179 0.44830 0.78551
 C1414 C 0.79805 0.45503 0.77258
 C1415 C 0.79020 0.46686 0.76531
 C1416 C 0.77589 0.47223 0.77091
 C1417 C 0.76971 0.46558 0.78404
 C1418 C 0.77758 0.45368 0.79128
 H1419 H 0.79945 0.39066 0.83843
 H1420 H 0.78617 0.41228 0.82742
 H1421 H 0.82278 0.41723 0.79471
 H1422 H 0.83644 0.39595 0.80541
 H1423 H 0.80899 0.45097 0.76804
 H1424 H 0.79531 0.47174 0.75525
 H1425 H 0.75871 0.46946 0.78862
 H1426 H 0.77252 0.44865 0.80129
 C1427 C 0.80851 -0.11099 0.32799
 C1428 C 0.80107 -0.09873 0.32098
 C1429 C 0.80707 -0.09242 0.30776
 C1430 C 0.82073 -0.09850 0.30156
 C1431 C 0.82825 -0.11077 0.30852
 C1432 C 0.82230 -0.11736 0.32192
 N1433 N 0.79900 -0.07994 0.30085
 N1434 N 0.80377 -0.07362 0.28878
 C1435 C 0.79557 -0.06122 0.28187
 C1436 C 0.80138 -0.05493 0.26850
 C1437 C 0.79352 -0.04298 0.26134
 C1438 C 0.77966 -0.03711 0.26748
 C1439 C 0.77392 -0.04339 0.28098
 C1440 C 0.78179 -0.05533 0.28811
 H1441 H 0.80330 -0.11524 0.33823
 H1442 H 0.79053 -0.09412 0.32589
 H1443 H 0.82560 -0.09381 0.29130
 H1444 H 0.83863 -0.11499 0.30312
 H1445 H 0.81199 -0.05936 0.26358
 H1446 H 0.79825 -0.03841 0.25097
 H1447 H 0.76328 -0.03914 0.28601
 H1448 H 0.77706 -0.05999 0.29844
 C1449 C 0.29603 0.60599 0.67767
 C1450 C 0.28793 0.59378 0.68390
 C1451 C 0.29541 0.58370 0.69372
 C1452 C 0.31123 0.58591 0.69725
 C1453 C 0.31941 0.59810 0.69095
 C1454 C 0.31190 0.60830 0.68107
 N1455 N 0.28660 0.57145 0.70000
 N1456 N 0.29222 0.56244 0.70985
 C1457 C 0.28322 0.55029 0.71609
 C1458 C 0.28949 0.54179 0.72800
 C1459 C 0.28083 0.53017 0.73466
 C1460 C 0.26573 0.52676 0.72940
 C1461 C 0.25955 0.53515 0.71726
 C1462 C 0.26819 0.54686 0.71069
 H1463 H 0.28974 0.61374 0.67038
 H1464 H 0.27572 0.59224 0.68117
 H1465 H 0.31728 0.57821 0.70481
 H1466 H 0.33163 0.59943 0.69368
 H1467 H 0.30106 0.54430 0.73224
 H1468 H 0.28595 0.52388 0.74396
 H1469 H 0.24796 0.53281 0.71297
 H1470 H 0.26310 0.55324 0.70144
 C1471 C 0.33511 1.10184 0.19168
 C1472 C 0.32761 1.09006 0.19931
 C1473 C 0.31287 1.08515 0.19472
 C1474 C 0.30577 1.09197 0.18213
 C1475 C 0.31321 1.10374 0.17443
 C1476 C 0.32800 1.10912 0.17915
 N1477 N 0.30527 1.07347 0.20320
 N1478 N 0.29169 1.06874 0.19979
 C1479 C 0.28394 1.05727 0.20840
 C1480 C 0.26904 1.05262 0.20392
 C1481 C 0.26103 1.04163 0.21221
 C1482 C 0.26781 1.03510 0.22517
 C1483 C 0.28282 1.03977 0.22962
 C1484 C 0.29083 1.05075 0.22131
 H1485 H 0.34652 1.10503 0.19573
 H1486 H 0.33326 1.08480 0.20896
 H1487 H 0.29435 1.08834 0.17834
 H1488 H 0.30701 1.10871 0.16503
 H1489 H 0.26362 1.05757 0.19401
 H1490 H 0.24949 1.03829 0.20847
 H1491 H 0.28838 1.03496 0.23954
 H1492 H 0.30234 1.05418 0.22501
 C1493 C 0.82695 0.61074 0.19817
 C1494 C 0.81937 0.59885 0.20558
 C1495 C 0.80845 0.58989 0.19790
 C1496 C 0.80537 0.59275 0.18255
 C1497 C 0.81303 0.60455 0.17508
 C1498 C 0.82382 0.61381 0.18282
 N1499 N 0.80058 0.57809 0.20597
 N1500 N 0.78939 0.57056 0.20015
 C1501 C 0.78154 0.55877 0.20826
 C1502 C 0.76842 0.55192 0.20174
 C1503 C 0.76039 0.54050 0.20943
 C1504 C 0.76547 0.53564 0.22378
 C1505 C 0.77873 0.54248 0.23025
 C1506 C 0.78666 0.55398 0.22259
 H1507 H 0.83499 0.61770 0.20458
 H1508 H 0.82183 0.59676 0.21742
 H1509 H 0.79707 0.58588 0.17633
 H1510 H 0.81053 0.60635 0.16322
 H1511 H 0.76436 0.55551 0.19069
 H1512 H 0.75025 0.53543 0.20412
 H1513 H 0.78294 0.53902 0.24129
 H1514 H 0.79680 0.55908 0.22786
 C1515 C 0.80077 1.10406 0.67615
 C1516 C 0.79282 1.09220 0.68319
 C1517 C 0.80037 1.08298 0.69377
 C1518 C 0.81614 1.08561 0.69718
 C1519 C 0.82418 1.09741 0.69006
 C1520 C 0.81657 1.10684 0.67949
 N1521 N 0.79170 1.07111 0.70089
 N1522 N 0.79723 1.06311 0.71162
 C1523 C 0.78828 1.05130 0.71854
 C1524 C 0.79425 1.04389 0.73130
 C1525 C 0.78562 1.03251 0.73844
 C1526 C 0.77090 1.02828 0.73280
 C1527 C 0.76502 1.03565 0.71988
 C1528 C 0.77359 1.04709 0.71284
 H1529 H 0.79441 1.11119 0.66832
 H1530 H 0.78065 1.09030 0.68051
 H1531 H 0.82225 1.07854 0.70528
 H1532 H 0.83636 1.09905 0.69275
 H1533 H 0.80556 1.04702 0.73579
 H1534 H 0.79049 1.02701 0.74835
 H1535 H 0.75372 1.03267 0.71526
 H1536 H 0.76874 1.05262 0.70296
 C1537 C 0.69551 0.61217 0.32698
 C1538 C 0.70331 0.59992 0.32032
 C1539 C 0.69528 0.58969 0.31100
 C1540 C 0.67919 0.59161 0.30872
 C1541 C 0.67136 0.60377 0.31544
 C1542 C 0.67945 0.61435 0.32448
 N1543 N 0.70371 0.57773 0.30364
 N1544 N 0.69727 0.56926 0.29375
 C1545 C 0.70544 0.55738 0.28603
 C1546 C 0.69788 0.54974 0.27422
 C1547 C 0.70560 0.53844 0.26606
 C1548 C 0.72104 0.53446 0.26969
 C1549 C 0.72854 0.54198 0.28174
 C1550 C 0.72083 0.55340 0.28982
 H1551 H 0.70214 0.62014 0.33373
 H1552 H 0.71572 0.59857 0.32215
 H1553 H 0.67267 0.58378 0.30169
 H1554 H 0.65896 0.60487 0.31353
 H1555 H 0.68602 0.55271 0.27122
 H1556 H 0.69947 0.53283 0.25689
 H1557 H 0.74043 0.53918 0.28479
 H1558 H 0.72689 0.55914 0.29894
 C1559 C 0.69138 1.10292 0.83257
 C1560 C 0.69876 1.09029 0.82620
 C1561 C 0.69334 1.08400 0.81267
 C1562 C 0.68027 1.09040 0.80557
 C1563 C 0.67283 1.10302 0.81187
 C1564 C 0.67827 1.10968 0.82550
 N1565 N 0.70145 1.07130 0.80628
 N1566 N 0.69719 1.06514 0.79390
 C1567 C 0.70547 1.05262 0.78737
 C1568 C 0.70030 1.04661 0.77358
 C1569 C 0.70841 1.03472 0.76665
 C1570 C 0.72188 1.02864 0.77344
 C1571 C 0.72693 1.03458 0.78741
 C1572 C 0.71881 1.04647 0.79431
 H1573 H 0.69610 1.10716 0.84309
 H1574 H 0.70882 1.08541 0.83182
 H1575 H 0.67585 1.08573 0.79505
 H1576 H 0.66297 1.10752 0.80574
 H1577 H 0.69003 1.05126 0.76812
 H1578 H 0.70420 1.03041 0.75590
 H1579 H 0.73725 1.03015 0.79294
 H1580 H 0.72304 1.05092 0.80499
 C1581 C 0.18901 0.60040 0.83216
 C1582 C 0.19590 0.58765 0.82554
 C1583 C 0.19048 0.58203 0.81174
 C1584 C 0.17783 0.58921 0.80462
 C1585 C 0.17087 0.60200 0.81118
 C1586 C 0.17642 0.60802 0.82505
 N1587 N 0.19825 0.56926 0.80507
 N1588 N 0.19390 0.56350 0.79253
 C1589 C 0.20189 0.55096 0.78570
 C1590 C 0.19635 0.54522 0.77194
 C1591 C 0.20413 0.53335 0.76467
 C1592 C 0.21769 0.52699 0.77106
 C1593 C 0.22315 0.53265 0.78500
 C1594 C 0.21532 0.54454 0.79227
 H1595 H 0.19373 0.60406 0.84288
 H1596 H 0.20562 0.58216 0.83118
 H1597 H 0.17341 0.58505 0.79390
 H1598 H 0.16135 0.60715 0.80505
 H1599 H 0.18602 0.55008 0.76677
 H1600 H 0.19961 0.52926 0.75396
 H1601 H 0.23355 0.52801 0.79021
 H1602 H 0.21984 0.54880 0.80291
 C1603 C 0.16477 1.10747 0.30888
 C1604 C 0.17153 1.09526 0.30124
 C1605 C 0.18637 1.09012 0.30517
 C1606 C 0.19444 1.09726 0.31703
 C1607 C 0.18774 1.10954 0.32473
 C1608 C 0.17277 1.11504 0.32073
 N1609 N 0.19296 1.07781 0.29673
 N1610 N 0.20632 1.07224 0.29965
 C1611 C 0.21272 1.06008 0.29083
 C1612 C 0.22726 1.05408 0.29480
 C1613 C 0.23389 1.04237 0.28625
 C1614 C 0.22607 1.03651 0.27350
 C1615 C 0.21143 1.04254 0.26957
 C1616 C 0.20480 1.05420 0.27815
 H1617 H 0.15320 1.11071 0.30534
 H1618 H 0.16516 1.08977 0.29215
 H1619 H 0.20598 1.09347 0.32026
 H1620 H 0.19458 1.11474 0.33360
 H1621 H 0.23349 1.05852 0.30453
 H1622 H 0.24520 1.03799 0.28958
 H1623 H 0.20509 1.03827 0.25983
 H1624 H 0.19354 1.05865 0.27482
 C1625 C 0.70093 0.39506 0.67267
 C1626 C 0.70859 0.40742 0.67925
 C1627 C 0.70072 0.41711 0.68915
 C1628 C 0.68492 0.41447 0.69227
 C1629 C 0.67718 0.40217 0.68560
 C1630 C 0.68512 0.39224 0.67579
 N1631 N 0.70915 0.42935 0.69603
 N1632 N 0.70324 0.43782 0.70618
 C1633 C 0.71191 0.44990 0.71307
 C1634 C 0.70538 0.45780 0.72524
 C1635 C 0.71377 0.46929 0.73255
 C1636 C 0.72885 0.47314 0.72769
 C1637 C 0.73528 0.46535 0.71529
 C1638 C 0.72691 0.45379 0.70808
 H1639 H 0.70754 0.38757 0.66542
 H1640 H 0.72079 0.40931 0.67681
 H1641 H 0.67857 0.42189 0.69984
 H1642 H 0.66497 0.40049 0.68809
 H1643 H 0.69383 0.45491 0.72918
 H1644 H 0.70848 0.47511 0.74203
 H1645 H 0.74685 0.46804 0.71129
 H1646 H 0.73220 0.44787 0.69866
 C1647 C 0.67419 -0.11253 0.19852
 C1648 C 0.68178 -0.10051 0.20579
 C1649 C 0.69224 -0.09135 0.19790
 C1650 C 0.69503 -0.09428 0.18251
 C1651 C 0.68739 -0.10626 0.17518
 C1652 C 0.67686 -0.11555 0.18310
 N1653 N 0.69986 -0.07922 0.20581
 N1654 N 0.71027 -0.07098 0.19972
 C1655 C 0.71779 -0.05893 0.20785
 C1656 C 0.73016 -0.05121 0.20106
 C1657 C 0.73801 -0.03967 0.20887
 C1658 C 0.73349 -0.03558 0.22361
 C1659 C 0.72089 -0.04320 0.23030
 C1660 C 0.71314 -0.05480 0.22252
 H1661 H 0.66641 -0.11956 0.20506
 H1662 H 0.67958 -0.09840 0.21766
 H1663 H 0.70304 -0.08729 0.17615
 H1664 H 0.68957 -0.10811 0.16328
 H1665 H 0.73384 -0.05426 0.18975
 H1666 H 0.74764 -0.03399 0.20339
 H1667 H 0.71713 -0.04034 0.24164
 H1668 H 0.70357 -0.06057 0.22800
 C1669 C 0.17849 0.38757 0.19514
 C1670 C 0.18586 0.39995 0.20199
 C1671 C 0.19647 0.40878 0.19390
 C1672 C 0.19961 0.40515 0.17874
 C1673 C 0.19216 0.39281 0.17181
 C1674 C 0.18152 0.38382 0.17994
 N1675 N 0.20385 0.42130 0.20141
 N1676 N 0.21453 0.42921 0.19531
 C1677 C 0.22169 0.44168 0.20313
 C1678 C 0.23453 0.44895 0.19666
 C1679 C 0.24200 0.46088 0.20427
 C1680 C 0.23661 0.46580 0.21847
 C1681 C 0.22356 0.45861 0.22482
 C1682 C 0.21620 0.44664 0.21726
 H1683 H 0.17061 0.38081 0.20186
 H1684 H 0.18339 0.40261 0.21371
 H1685 H 0.20772 0.41188 0.17223
 H1686 H 0.19462 0.39043 0.16005
 H1687 H 0.23886 0.44525 0.18577
 H1688 H 0.25200 0.46620 0.19908
 H1689 H 0.21912 0.46210 0.23574
 H1690 H 0.20626 0.44125 0.22249
 C1691 C 0.19027 -0.10041 0.67402
 C1692 C 0.19680 -0.08759 0.68089
 C1693 C 0.19046 -0.08161 0.69413
 C1694 C 0.17725 -0.08849 0.70039
 C1695 C 0.17065 -0.10133 0.69358
 C1696 C 0.17711 -0.10774 0.68030
 N1697 N 0.19789 -0.06883 0.70114
 N1698 N 0.19277 -0.06277 0.71323
 C1699 C 0.20053 -0.05024 0.72038
 C1700 C 0.19427 -0.04412 0.73365
 C1701 C 0.20187 -0.03227 0.74122
 C1702 C 0.21593 -0.02636 0.73563
 C1703 C 0.22208 -0.03241 0.72218
 C1704 C 0.21446 -0.04424 0.71461
 H1705 H 0.19580 -0.10443 0.66384
 H1706 H 0.20698 -0.08235 0.67592
 H1707 H 0.17209 -0.08404 0.71064
 H1708 H 0.16058 -0.10616 0.69902
 H1709 H 0.18355 -0.04866 0.73822
 H1710 H 0.19682 -0.02788 0.75155
 H1711 H 0.23288 -0.02811 0.71756
 H1712 H 0.21954 -0.04878 0.70437
 C1713 C 0.32856 0.30130 0.38468
 C1714 C 0.32205 0.29362 0.39693
 C1715 C 0.31214 0.30117 0.40693
 C1716 C 0.30881 0.31664 0.40461
 C1717 C 0.31542 0.32439 0.39239
 C1718 C 0.32539 0.31681 0.38226
 N1719 N 0.30561 0.29280 0.41925
 N1720 N 0.29550 0.29840 0.42815
 C1721 C 0.28913 0.28974 0.44037
 C1722 C 0.27676 0.29580 0.44869
 C1723 C 0.26998 0.28743 0.46037
 C1724 C 0.27560 0.27286 0.46402
 C1725 C 0.28821 0.26691 0.45581
 C1726 C 0.29488 0.27524 0.44405
 H1727 H 0.33589 0.29495 0.37701
 H1728 H 0.32463 0.28169 0.39856
 H1729 H 0.30121 0.32273 0.41225
 H1730 H 0.31286 0.33635 0.39100
 H1731 H 0.27224 0.30697 0.44598
 H1732 H 0.26031 0.29235 0.46651
 H1733 H 0.29279 0.25572 0.45833
 H1734 H 0.30448 0.27032 0.43782
 C1735 C 0.31904 0.80644 -0.11476
 C1736 C 0.31245 0.79858 -0.10267
 C1737 C 0.30280 0.80607 -0.09237
 C1738 C 0.29976 0.82164 -0.09429
 C1739 C 0.30644 0.82958 -0.10636
 C1740 C 0.31622 0.82208 -0.11674
 N1741 N 0.29642 0.79757 -0.08007
 N1742 N 0.28660 0.80310 -0.07081
 C1743 C 0.28056 0.79428 -0.05854
 C1744 C 0.26846 0.80021 -0.04973
 C1745 C 0.26218 0.79171 -0.03786
 C1746 C 0.26804 0.77716 -0.03450
 C1747 C 0.28033 0.77133 -0.04325
 C1748 C 0.28649 0.77977 -0.05518
 H1749 H 0.32622 0.80018 -0.12263
 H1750 H 0.31482 0.78657 -0.10134
 H1751 H 0.29237 0.82769 -0.08641
 H1752 H 0.30415 0.84162 -0.10739
 H1753 H 0.26381 0.81138 -0.05218
 H1754 H 0.25275 0.79653 -0.03131
 H1755 H 0.28509 0.76016 -0.04098
 H1756 H 0.29588 0.77494 -0.06177
 C1757 C 0.82658 0.30528 -0.11396
 C1758 C 0.82018 0.29702 -0.10204
 C1759 C 0.81025 0.30404 -0.09168
 C1760 C 0.80679 0.31956 -0.09330
 C1761 C 0.81328 0.32791 -0.10517
 C1762 C 0.82327 0.32087 -0.11566
 N1763 N 0.80391 0.29512 -0.07966
 N1764 N 0.79374 0.30027 -0.07055
 C1765 C 0.78760 0.29115 -0.05856
 C1766 C 0.77512 0.29672 -0.05005
 C1767 C 0.76866 0.28793 -0.03850
 C1768 C 0.77472 0.27345 -0.03518
 C1769 C 0.78740 0.26798 -0.04362
 C1770 C 0.79375 0.27672 -0.05524
 H1771 H 0.83395 0.29937 -0.12193
 H1772 H 0.82287 0.28504 -0.10094
 H1773 H 0.79918 0.32526 -0.08536
 H1774 H 0.81063 0.33989 -0.10599
 H1775 H 0.77030 0.30783 -0.05248
 H1776 H 0.75893 0.29248 -0.03217
 H1777 H 0.79232 0.25687 -0.04135
 H1778 H 0.80344 0.27218 -0.06163
 C1779 C 0.82685 0.80029 0.38951
 C1780 C 0.82000 0.79260 0.40158
 C1781 C 0.80971 0.80013 0.41125
 C1782 C 0.80633 0.81556 0.40874
 C1783 C 0.81324 0.82330 0.39669
 C1784 C 0.82361 0.81576 0.38692
 N1785 N 0.80285 0.79182 0.42345
 N1786 N 0.79275 0.79770 0.43220
 C1787 C 0.78584 0.78935 0.44434
 C1788 C 0.77382 0.79610 0.45259
 C1789 C 0.76649 0.78815 0.46423
 C1790 C 0.77117 0.77328 0.46791
 C1791 C 0.78345 0.76659 0.45976
 C1792 C 0.79069 0.77454 0.44803
 H1793 H 0.83453 0.79402 0.38210
 H1794 H 0.82263 0.78070 0.40335
 H1795 H 0.79843 0.82165 0.41610
 H1796 H 0.81062 0.83523 0.39515
 H1797 H 0.77000 0.80751 0.44988
 H1798 H 0.75712 0.79365 0.47031
 H1799 H 0.78730 0.75515 0.46231
 H1800 H 0.80001 0.76908 0.44184
 C1801 C 0.70184 0.32523 0.61166
 C1802 C 0.70950 0.31797 0.59978
 C1803 C 0.70163 0.30751 0.59064
 C1804 C 0.68588 0.30430 0.59355
 C1805 C 0.67815 0.31162 0.60543
 C1806 C 0.68603 0.32223 0.61460
 N1807 N 0.70993 0.30045 0.57850
 N1808 N 0.70399 0.29013 0.57020
 C1809 C 0.71257 0.28331 0.55807
 C1810 C 0.70609 0.27100 0.55026
 C1811 C 0.71431 0.26395 0.53857
 C1812 C 0.72916 0.26921 0.53441
 C1813 C 0.73556 0.28171 0.54216
 C1814 C 0.72738 0.28867 0.55392
 H1815 H 0.70840 0.33306 0.61864
 H1816 H 0.72165 0.32047 0.59769
 H1817 H 0.67954 0.29626 0.58658
 H1818 H 0.66595 0.30916 0.60726
 H1819 H 0.69468 0.26679 0.55334
 H1820 H 0.70904 0.25437 0.53279
 H1821 H 0.74698 0.28602 0.53924
 H1822 H 0.73263 0.29822 0.55975
 C1823 C 0.67185 0.80182 1.11488
 C1824 C 0.67895 0.79420 1.10286
 C1825 C 0.68924 0.80183 1.09330
 C1826 C 0.69230 0.81732 1.09583
 C1827 C 0.68515 0.82499 1.10782
 C1828 C 0.67486 0.81733 1.11753
 N1829 N 0.69649 0.79360 1.08123
 N1830 N 0.70664 0.79966 1.07269
 C1831 C 0.71402 0.79148 1.06066
 C1832 C 0.72592 0.79859 1.05257
 C1833 C 0.73366 0.79086 1.04100
 C1834 C 0.72954 0.77585 1.03724
 C1835 C 0.71742 0.76879 1.04526
 C1836 C 0.70975 0.77652 1.05691
 H1837 H 0.66419 0.79549 1.12223
 H1838 H 0.67654 0.78225 1.10106
 H1839 H 0.70016 0.82350 1.08855
 H1840 H 0.68757 0.83695 1.10936
 H1841 H 0.72930 0.81012 1.05534
 H1842 H 0.74291 0.79664 1.03503
 H1843 H 0.71398 0.75724 1.04265
 H1844 H 0.70055 0.77080 1.06299
 C1845 C 0.17808 0.29906 1.11422
 C1846 C 0.18515 0.29122 1.10232
 C1847 C 0.19536 0.29868 1.09257
 C1848 C 0.19845 0.31421 1.09481
 C1849 C 0.19132 0.32210 1.10667
 C1850 C 0.18104 0.31462 1.11653
 N1851 N 0.20236 0.29024 1.08051
 N1852 N 0.21249 0.29599 1.07174
 C1853 C 0.21935 0.28743 1.05967
 C1854 C 0.23136 0.29397 1.05124
 C1855 C 0.23842 0.28583 1.03951
 C1856 C 0.23348 0.27101 1.03595
 C1857 C 0.22131 0.26453 1.04436
 C1858 C 0.21433 0.27264 1.05614
 H1859 H 0.17046 0.29284 1.12170
 H1860 H 0.18272 0.27924 1.10074
 H1861 H 0.20626 0.32025 1.08735
 H1862 H 0.19371 0.33410 1.10796
 H1863 H 0.23531 0.30536 1.05383
 H1864 H 0.24774 0.29116 1.03323
 H1865 H 0.21725 0.25313 1.04192
 H1866 H 0.20504 0.26734 1.06247
 C1867 C 0.19929 0.82751 0.61460
 C1868 C 0.20712 0.82075 0.60250
 C1869 C 0.19950 0.81032 0.59310
 C1870 C 0.18382 0.80674 0.59590
 C1871 C 0.17594 0.81355 0.60795
 C1872 C 0.18358 0.82401 0.61749
 N1873 N 0.20796 0.80349 0.58091
 N1874 N 0.20206 0.79316 0.57259
 C1875 C 0.21051 0.78628 0.56041
 C1876 C 0.20379 0.77404 0.55267
 C1877 C 0.21183 0.76682 0.54097
 C1878 C 0.22674 0.77182 0.53671
 C1879 C 0.23338 0.78427 0.54437
 C1880 C 0.22536 0.79141 0.55616
 H1881 H 0.20564 0.83530 0.62180
 H1882 H 0.21922 0.82356 0.60050
 H1883 H 0.17765 0.79875 0.58874
 H1884 H 0.16381 0.81074 0.60968
 H1885 H 0.19234 0.77000 0.55583
 H1886 H 0.20636 0.75730 0.53528
 H1887 H 0.24485 0.78838 0.54137
 H1888 H 0.23078 0.80089 0.56196
 C1889 C 0.29863 0.67328 0.61446
 C1890 C 0.29141 0.68038 0.60220
 C1891 C 0.29974 0.69036 0.59302
 C1892 C 0.31553 0.69320 0.59622
 C1893 C 0.32283 0.68602 0.60848
 C1894 C 0.31446 0.67593 0.61773
 N1895 N 0.29183 0.69741 0.58060
 N1896 N 0.29817 0.70742 0.57228
 C1897 C 0.28990 0.71430 0.55995
 C1898 C 0.29672 0.72646 0.55227
 C1899 C 0.28869 0.73373 0.54053
 C1900 C 0.27373 0.72883 0.53619
 C1901 C 0.26704 0.71641 0.54375
 C1902 C 0.27502 0.70924 0.55555
 H1903 H 0.29171 0.66586 0.62148
 H1904 H 0.27922 0.67817 0.59988
 H1905 H 0.32222 0.70087 0.58923
 H1906 H 0.33505 0.68820 0.61056
 H1907 H 0.30819 0.73044 0.55553
 H1908 H 0.29418 0.74324 0.53490
 H1909 H 0.25553 0.71237 0.54069
 H1910 H 0.26952 0.69981 0.56128
 C1911 C 0.30893 0.17284 1.11224
 C1912 C 0.30101 0.17978 1.10028
 C1913 C 0.30877 0.18972 1.09058
 C1914 C 0.32469 0.19267 1.09295
 C1915 C 0.33268 0.18565 1.10489
 C1916 C 0.32489 0.17562 1.11468
 N1917 N 0.30017 0.19658 1.07847
 N1918 N 0.30599 0.20651 1.06971
 C1919 C 0.29703 0.21315 1.05769
 C1920 C 0.30335 0.22516 1.04937
 C1921 C 0.29468 0.23211 1.03786
 C1922 C 0.27953 0.22703 1.03440
 C1923 C 0.27333 0.21480 1.04262
 C1924 C 0.28196 0.20795 1.05418
 H1925 H 0.30246 0.16544 1.11967
 H1926 H 0.28873 0.17748 1.09860
 H1927 H 0.33095 0.20028 1.08554
 H1928 H 0.34498 0.18792 1.10630
 H1929 H 0.31496 0.22925 1.05194
 H1930 H 0.29980 0.24148 1.03172
 H1931 H 0.26170 0.21063 1.04026
 H1932 H 0.27681 0.19865 1.06039
 C1933 C 0.80472 0.67834 1.11538
 C1934 C 0.79694 0.68548 1.10345
 C1935 C 0.80494 0.69516 1.09367
 C1936 C 0.82096 0.69758 1.09587
 C1937 C 0.82882 0.69035 1.10774
 C1938 C 0.82079 0.68065 1.11769
 N1939 N 0.79652 0.70230 1.08161
 N1940 N 0.80256 0.71235 1.07312
 C1941 C 0.79390 0.71922 1.06105
 C1942 C 0.80034 0.73151 1.05323
 C1943 C 0.79198 0.73859 1.04158
 C1944 C 0.77708 0.73335 1.03748
 C1945 C 0.77074 0.72088 1.04524
 C1946 C 0.77903 0.71392 1.05695
 H1947 H 0.79807 0.67119 1.12290
 H1948 H 0.78457 0.68357 1.10187
 H1949 H 0.82742 0.70495 1.08837
 H1950 H 0.84120 0.69222 1.10898
 H1951 H 0.81180 0.73568 1.05627
 H1952 H 0.79719 0.74814 1.03578
 H1953 H 0.75928 0.71658 1.04239
 H1954 H 0.77381 0.70440 1.06278
 C1955 C 0.80274 0.16986 0.61067
 C1956 C 0.79537 0.17696 0.59847
 C1957 C 0.80353 0.18715 0.58936
 C1958 C 0.81930 0.19011 0.59250
 C1959 C 0.82675 0.18291 0.60465
 C1960 C 0.81854 0.17270 0.61392
 N1961 N 0.79544 0.19435 0.57712
 N1962 N 0.80159 0.20468 0.56906
 C1963 C 0.79322 0.21179 0.55693
 C1964 C 0.79987 0.22424 0.54957
 C1965 C 0.79176 0.23173 0.53803
 C1966 C 0.77686 0.22675 0.53355
 C1967 C 0.77033 0.21406 0.54078
 C1968 C 0.77840 0.20667 0.55240
 H1969 H 0.79592 0.16233 0.61766
 H1970 H 0.78319 0.17465 0.59621
 H1971 H 0.82587 0.19791 0.58554
 H1972 H 0.83895 0.18524 0.60668
 H1973 H 0.81129 0.22828 0.55294
 H1974 H 0.79713 0.24144 0.53265
 H1975 H 0.75888 0.20995 0.53760
 H1976 H 0.77302 0.19702 0.55787
 C1977 C 0.67152 0.70060 0.38802
 C1978 C 0.67795 0.70854 0.40025
 C1979 C 0.68738 0.70106 0.41082
 C1980 C 0.69016 0.68541 0.40915
 C1981 C 0.68366 0.67743 0.39698
 C1982 C 0.67433 0.68493 0.38620
 N1983 N 0.69420 0.70961 0.42298
 N1984 N 0.70395 0.70365 0.43210
 C1985 C 0.71105 0.71198 0.44422
 C1986 C 0.72284 0.70497 0.45264
 C1987 C 0.73044 0.71283 0.46424
 C1988 C 0.72624 0.72788 0.46774
 C1989 C 0.71417 0.73484 0.45945
 C1990 C 0.70667 0.72698 0.44772
 H1991 H 0.66458 0.70681 0.37987
 H1992 H 0.67576 0.72061 0.40139
 H1993 H 0.69733 0.67934 0.41722
 H1994 H 0.68587 0.66536 0.39612
 H1995 H 0.72629 0.69341 0.45006
 H1996 H 0.73963 0.70712 0.47045
 H1997 H 0.71070 0.74643 0.46187
 H1998 H 0.69754 0.73262 0.44138
 C1999 C 0.67527 0.19535 -0.11090
 C2000 C 0.68258 0.20332 -0.09919
 C2001 C 0.69294 0.19594 -0.08941
 C2002 C 0.69580 0.18034 -0.09135
 C2003 C 0.68838 0.17230 -0.10298
 C2004 C 0.67807 0.17971 -0.11298
 N2005 N 0.70041 0.20455 -0.07769
 N2006 N 0.71123 0.19903 -0.06949
 C2007 C 0.71864 0.20769 -0.05777
 C2008 C 0.73175 0.20165 -0.05048
 C2009 C 0.73942 0.20993 -0.03918
 C2010 C 0.73396 0.22437 -0.03486
 C2011 C 0.72066 0.23032 -0.04207
 C2012 C 0.71310 0.22209 -0.05348
 H2013 H 0.66764 0.20154 -0.11846
 H2014 H 0.68032 0.21536 -0.09783
 H2015 H 0.70368 0.17436 -0.08384
 H2016 H 0.69065 0.16025 -0.10402
 H2017 H 0.73611 0.19055 -0.05367
 H2018 H 0.74959 0.20501 -0.03381
 H2019 H 0.71618 0.24142 -0.03901
 H2020 H 0.70294 0.22698 -0.05891
 C2021 C 0.19722 0.67330 -0.10964
 C2022 C 0.20511 0.68037 -0.09771
 C2023 C 0.19737 0.69058 -0.08823
 C2024 C 0.18149 0.69363 -0.09074
 C2025 C 0.17354 0.68652 -0.10264
 C2026 C 0.18132 0.67628 -0.11227
 N2027 N 0.20593 0.69776 -0.07627
 N2028 N 0.19991 0.70778 -0.06769
 C2029 C 0.20863 0.71496 -0.05583
 C2030 C 0.20170 0.72670 -0.04755
 C2031 C 0.21004 0.73422 -0.03617
 C2032 C 0.22550 0.73003 -0.03283
 C2033 C 0.23236 0.71808 -0.04102
 C2034 C 0.22403 0.71063 -0.05245
 H2035 H 0.20366 0.66571 -0.11694
 H2036 H 0.21736 0.67799 -0.09592
 H2037 H 0.17523 0.70145 -0.08351
 H2038 H 0.16128 0.68892 -0.10420
 H2039 H 0.18984 0.73013 -0.05003
 H2040 H 0.20441 0.74335 -0.03005
 H2041 H 0.24424 0.71458 -0.03874
 H2042 H 0.22964 0.70156 -0.05867
 C2043 C 0.17422 0.19845 0.38767
 C2044 C 0.18185 0.20604 0.39944
 C2045 C 0.19235 0.19833 0.40879
 C2046 C 0.19516 0.18279 0.40628
 C2047 C 0.18745 0.17512 0.39457
 C2048 C 0.17685 0.18286 0.38510
 N2049 N 0.19992 0.20655 0.42073
 N2050 N 0.21057 0.20070 0.42893
 C2051 C 0.21798 0.20908 0.44087
 C2052 C 0.23082 0.20270 0.44830
 C2053 C 0.23849 0.21071 0.45979
 C2054 C 0.23330 0.22523 0.46416
 C2055 C 0.22025 0.23153 0.45681
 C2056 C 0.21269 0.22356 0.44522
 H2057 H 0.16641 0.20488 0.38050
 H2058 H 0.17965 0.21803 0.40122
 H2059 H 0.20319 0.17656 0.41343
 H2060 H 0.18962 0.16311 0.39308
 H2061 H 0.23499 0.19154 0.44507
 H2062 H 0.24847 0.20553 0.46526
 H2063 H 0.21598 0.24270 0.45989
 H2064 H 0.20273 0.22872 0.43969
 C2065 C 0.32091 0.38594 0.69758
 C2066 C 0.31375 0.39767 0.70567
 C2067 C 0.30374 0.40786 0.69837
 C2068 C 0.30104 0.40628 0.68275
 C2069 C 0.30826 0.39462 0.67462
 C2070 C 0.31825 0.38425 0.68193
 N2071 N 0.29640 0.41959 0.70706
 N2072 N 0.28624 0.42844 0.70133
 C2073 C 0.27879 0.44018 0.70992
 C2074 C 0.26674 0.44848 0.70318
 C2075 C 0.25899 0.45983 0.71127
 C2076 C 0.26330 0.46318 0.72629
 C2077 C 0.27555 0.45494 0.73300
 C2078 C 0.28321 0.44349 0.72490
 H2079 H 0.32831 0.37808 0.70366
 H2080 H 0.31589 0.39874 0.71771
 H2081 H 0.29341 0.41408 0.67683
 H2082 H 0.30612 0.39384 0.66257
 H2083 H 0.26325 0.44605 0.69164
 H2084 H 0.24964 0.46599 0.70576
 H2085 H 0.27912 0.45723 0.74454
 H2086 H 0.29254 0.43724 0.73035
 C2087 C 0.31965 0.89380 0.19448
 C2088 C 0.31255 0.90570 0.20230
 C2089 C 0.30255 0.91573 0.19482
 C2090 C 0.29976 0.91383 0.17926
 C2091 C 0.30697 0.90198 0.17134
 C2092 C 0.31701 0.89178 0.17887
 N2093 N 0.29547 0.92771 0.20334
 N2094 N 0.28511 0.93650 0.19787
 C2095 C 0.27836 0.94842 0.20676
 C2096 C 0.26574 0.95666 0.20092
 C2097 C 0.25880 0.96820 0.20949
 C2098 C 0.26451 0.97178 0.22400
 C2099 C 0.27728 0.96357 0.22976
 C2100 C 0.28410 0.95197 0.22126
 H2101 H 0.32700 0.88607 0.20077
 H2102 H 0.31473 0.90703 0.21431
 H2103 H 0.29212 0.92153 0.17321
 H2104 H 0.30481 0.90091 0.15932
 H2105 H 0.26122 0.95406 0.18976
 H2106 H 0.24902 0.97436 0.20472
 H2107 H 0.28194 0.96602 0.24090
 H2108 H 0.29387 0.94581 0.22602
 C2109 C 0.82119 0.39477 0.19221
 C2110 C 0.81411 0.40669 0.20002
 C2111 C 0.80394 0.41659 0.19257
 C2112 C 0.80097 0.41452 0.17705
 C2113 C 0.80815 0.40264 0.16916
 C2114 C 0.81835 0.39259 0.17665
 N2115 N 0.79679 0.42854 0.20108
 N2116 N 0.78639 0.43723 0.19551
 C2117 C 0.77935 0.44909 0.20427
 C2118 C 0.76676 0.45713 0.19816
 C2119 C 0.75937 0.46847 0.20660
 C2120 C 0.76458 0.47205 0.22129
 C2121 C 0.77740 0.46411 0.22730
 C2122 C 0.78469 0.45269 0.21890
 H2123 H 0.82869 0.38714 0.19847
 H2124 H 0.81643 0.40814 0.21199
 H2125 H 0.79318 0.42210 0.17103
 H2126 H 0.80583 0.40143 0.15718
 H2127 H 0.76256 0.45448 0.18689
 H2128 H 0.74956 0.47442 0.20162
 H2129 H 0.78168 0.46659 0.23858
 H2130 H 0.79445 0.44666 0.22386
 C2131 C 0.81098 0.89954 0.66840
 C2132 C 0.80325 0.91173 0.67520
 C2133 C 0.80485 0.91443 0.69072
 C2134 C 0.81451 0.90490 0.69940
 C2135 C 0.82220 0.89266 0.69263
 C2136 C 0.82041 0.88974 0.67706
 N2137 N 0.79620 0.92661 0.69743
 N2138 N 0.79766 0.93010 0.71134
 C2139 C 0.78869 0.94198 0.71818
 C2140 C 0.79185 0.94603 0.73318
 C2141 C 0.78314 0.95738 0.74030
 C2142 C 0.77099 0.96479 0.73253
 C2143 C 0.76783 0.96068 0.71744
 C2144 C 0.77664 0.94941 0.71030
 H2145 H 0.80955 0.89779 0.65636
 H2146 H 0.79588 0.91903 0.66838
 H2147 H 0.81588 0.90673 0.71145
 H2148 H 0.82917 0.88526 0.69969
 H2149 H 0.80108 0.94036 0.73937
 H2150 H 0.78585 0.96025 0.75194
 H2151 H 0.75857 0.96619 0.71115
 H2152 H 0.77394 0.94642 0.69870
 C2153 C 0.67473 0.61557 0.69907
 C2154 C 0.68144 0.60344 0.70697
 C2155 C 0.69124 0.59316 0.69956
 C2156 C 0.69408 0.59498 0.68403
 C2157 C 0.68731 0.60703 0.67610
 C2158 C 0.67764 0.61757 0.68353
 N2159 N 0.69830 0.58112 0.70806
 N2160 N 0.70839 0.57228 0.70224
 C2161 C 0.71565 0.56027 0.71060
 C2162 C 0.72769 0.55204 0.70381
 C2163 C 0.73531 0.54047 0.71172
 C2164 C 0.73090 0.53683 0.72659
 C2165 C 0.71865 0.54499 0.73333
 C2166 C 0.71112 0.55666 0.72543
 H2167 H 0.66753 0.62353 0.70523
 H2168 H 0.67919 0.60218 0.71894
 H2169 H 0.70152 0.58711 0.67801
 H2170 H 0.68958 0.60802 0.66411
 H2171 H 0.73127 0.55471 0.69238
 H2172 H 0.74466 0.53437 0.70618
 H2173 H 0.71500 0.54247 0.74477
 H2174 H 0.70180 0.56285 0.73091
 C2175 C 0.70784 0.10994 0.17424
 C2176 C 0.71535 0.09743 0.18072
 C2177 C 0.70734 0.08772 0.19048
 C2178 C 0.69161 0.09067 0.19372
 C2179 C 0.68404 0.10316 0.18719
 C2180 C 0.69206 0.11295 0.17734
 N2181 N 0.71546 0.07501 0.19688
 N2182 N 0.70924 0.06621 0.20654
 C2183 C 0.71746 0.05352 0.21289
 C2184 C 0.71051 0.04523 0.22454
 C2185 C 0.71838 0.03304 0.23125
 C2186 C 0.73334 0.02883 0.22631
 C2187 C 0.74019 0.03703 0.21442
 C2188 C 0.73235 0.04930 0.20780
 H2189 H 0.71448 0.11733 0.16694
 H2190 H 0.72749 0.09531 0.17818
 H2191 H 0.68514 0.08329 0.20120
 H2192 H 0.67185 0.10498 0.18968
 H2193 H 0.69903 0.04834 0.22854
 H2194 H 0.71276 0.02694 0.24035
 H2195 H 0.75170 0.03411 0.21037
 H2196 H 0.73796 0.05550 0.19877
 C2197 C 0.18098 0.60965 0.19279
 C2198 C 0.18795 0.59730 0.20007
 C2199 C 0.19847 0.58798 0.19238
 C2200 C 0.20198 0.59114 0.17719
 C2201 C 0.19495 0.60347 0.16983
 C2202 C 0.18432 0.61287 0.17754
 N2203 N 0.20536 0.57545 0.20029
 N2204 N 0.21578 0.56701 0.19444
 C2205 C 0.22256 0.55453 0.20254
 C2206 C 0.23510 0.54670 0.19614
 C2207 C 0.24228 0.53477 0.20395
 C2208 C 0.23691 0.53036 0.21830
 C2209 C 0.22412 0.53807 0.22460
 C2210 C 0.21704 0.55009 0.21683
 H2211 H 0.17311 0.61676 0.19920
 H2212 H 0.18520 0.59503 0.21180
 H2213 H 0.21006 0.58406 0.17098
 H2214 H 0.19766 0.60549 0.15807
 H2215 H 0.23945 0.54998 0.18513
 H2216 H 0.25207 0.52903 0.19876
 H2217 H 0.21972 0.53497 0.23564
 H2218 H 0.20731 0.55592 0.22201
 C2219 C 0.19706 0.11496 0.67507
 C2220 C 0.20403 0.10286 0.68281
 C2221 C 0.19524 0.09374 0.69251
 C2222 C 0.17928 0.09672 0.69426
 C2223 C 0.17227 0.10874 0.68645
 C2224 C 0.18108 0.11809 0.67682
 N2225 N 0.20281 0.08160 0.70046
 N2226 N 0.19584 0.07377 0.71046
 C2227 C 0.20341 0.06162 0.71840
 C2228 C 0.19560 0.05451 0.73032
 C2229 C 0.20275 0.04280 0.73847
 C2230 C 0.21785 0.03788 0.73470
 C2231 C 0.22559 0.04493 0.72260
 C2232 C 0.21847 0.05673 0.71456
 H2233 H 0.20428 0.12199 0.66793
 H2234 H 0.21635 0.10069 0.68138
 H2235 H 0.17220 0.08975 0.70161
 H2236 H 0.15990 0.11058 0.68788
 H2237 H 0.18397 0.05817 0.73338
 H2238 H 0.19646 0.03758 0.74769
 H2239 H 0.23724 0.04144 0.71944
 H2240 H 0.22474 0.06201 0.70536
 C2241 C 0.29997 0.60664 0.32553
 C2242 C 0.29336 0.59427 0.31794
 C2243 C 0.30214 0.58580 0.30762
 C2244 C 0.31778 0.58971 0.30513
 C2245 C 0.32444 0.60202 0.31279
 C2246 C 0.31559 0.61074 0.32301
 N2247 N 0.29484 0.57346 0.29974
 N2248 N 0.30170 0.56604 0.28933
 C2249 C 0.29423 0.55379 0.28145
 C2250 C 0.30186 0.54694 0.26924
 C2251 C 0.29468 0.53523 0.26107
 C2252 C 0.27975 0.53010 0.26508
 C2253 C 0.27221 0.53688 0.27748
 C2254 C 0.27935 0.54863 0.28557
 H2255 H 0.29272 0.61317 0.33313
 H2256 H 0.28128 0.59138 0.31993
 H2257 H 0.32484 0.58326 0.29729
 H2258 H 0.33656 0.60464 0.31075
 H2259 H 0.31333 0.55080 0.26596
 H2260 H 0.30081 0.53022 0.25160
 H2261 H 0.26070 0.53321 0.28087
 H2262 H 0.27322 0.55371 0.29498
 C2263 C 0.32104 0.11459 0.80428
 C2264 C 0.31337 0.10245 0.79731
 C2265 C 0.30316 0.09330 0.80552
 C2266 C 0.30076 0.09634 0.82094
 C2267 C 0.30853 0.10842 0.82799
 C2268 C 0.31876 0.11774 0.81974
 N2269 N 0.29542 0.08107 0.79788
 N2270 N 0.28492 0.07306 0.80411
 C2271 C 0.27735 0.06088 0.79620
 C2272 C 0.26461 0.05365 0.80289
 C2273 C 0.25674 0.04200 0.79525
 C2274 C 0.26163 0.03729 0.78080
 C2275 C 0.27458 0.04443 0.77423
 C2276 C 0.28234 0.05615 0.78182
 H2277 H 0.32857 0.12161 0.79745
 H2278 H 0.31527 0.10025 0.78540
 H2279 H 0.29296 0.08935 0.82755
 H2280 H 0.30664 0.11034 0.83994
 H2281 H 0.26067 0.05717 0.81398
 H2282 H 0.24683 0.03670 0.80064
 H2283 H 0.27863 0.04109 0.76312
 H2284 H 0.29220 0.06152 0.77642
 C2285 C 0.80346 0.61332 0.82783
 C2286 C 0.79604 0.60117 0.82064
 C2287 C 0.80414 0.59204 0.81038
 C2288 C 0.81990 0.59509 0.80746
 C2289 C 0.82739 0.60720 0.81473
 C2290 C 0.81925 0.61651 0.82498
 N2291 N 0.79601 0.57986 0.80307
 N2292 N 0.80211 0.57180 0.79270
 C2293 C 0.79368 0.55971 0.78554
 C2294 C 0.80030 0.55221 0.77316
 C2295 C 0.79213 0.54065 0.76570
 C2296 C 0.77722 0.53632 0.77063
 C2297 C 0.77072 0.54373 0.78321
 C2298 C 0.77884 0.55535 0.79057
 H2299 H 0.79671 0.62035 0.83542
 H2300 H 0.78387 0.59895 0.82293
 H2301 H 0.82642 0.58812 0.79961
 H2302 H 0.83959 0.60916 0.81242
 H2303 H 0.81174 0.55546 0.76918
 H2304 H 0.79748 0.53512 0.75606
 H2305 H 0.75926 0.54068 0.78728
 H2306 H 0.77348 0.56093 0.80015
 C2307 C 0.80353 0.10556 0.32599
 C2308 C 0.79652 0.09294 0.31920
 C2309 C 0.80474 0.08404 0.30884
 C2310 C 0.82024 0.08780 0.30542
 C2311 C 0.82732 0.10038 0.31227
 C2312 C 0.81902 0.10947 0.32260
 N2313 N 0.79701 0.07144 0.30183
 N2314 N 0.80334 0.06350 0.29150
 C2315 C 0.79539 0.05104 0.28443
 C2316 C 0.80235 0.04373 0.27212
 C2317 C 0.79461 0.03196 0.26457
 C2318 C 0.77977 0.02722 0.26932
 C2319 C 0.77294 0.03438 0.28190
 C2320 C 0.78065 0.04622 0.28936
 H2321 H 0.79667 0.11238 0.33367
 H2322 H 0.78454 0.09019 0.32188
 H2323 H 0.82687 0.08104 0.29748
 H2324 H 0.83932 0.10290 0.30955
 H2325 H 0.81370 0.04734 0.26822
 H2326 H 0.80020 0.02666 0.25495
 H2327 H 0.76153 0.03100 0.28583
 H2328 H 0.77504 0.05166 0.29889
 C2329 C 0.69967 0.39307 0.32594
 C2330 C 0.70649 0.40538 0.31853
 C2331 C 0.69788 0.41403 0.30821
 C2332 C 0.68221 0.41032 0.30543
 C2333 C 0.67533 0.39805 0.31290
 C2334 C 0.68399 0.38922 0.32322
 N2335 N 0.70537 0.42642 0.30069
 N2336 N 0.69867 0.43419 0.29042
 C2337 C 0.70640 0.44653 0.28301
 C2338 C 0.69895 0.45387 0.27095
 C2339 C 0.70634 0.46575 0.26330
 C2340 C 0.72133 0.47053 0.26770
 C2341 C 0.72870 0.46323 0.27994
 C2342 C 0.72133 0.45132 0.28749
 H2343 H 0.70680 0.38643 0.33359
 H2344 H 0.71860 0.40810 0.32072
 H2345 H 0.67528 0.41690 0.29755
 H2346 H 0.66319 0.39558 0.31069
 H2347 H 0.68743 0.45030 0.26739
 H2348 H 0.70034 0.47116 0.25395
 H2349 H 0.74024 0.46662 0.28360
 H2350 H 0.72734 0.44585 0.29681
 C2351 C 0.69423 0.88569 0.82624
 C2352 C 0.70170 0.89781 0.81919
 C2353 C 0.69359 0.90714 0.80912
 C2354 C 0.67780 0.90420 0.80604
 C2355 C 0.67024 0.89208 0.81318
 C2356 C 0.67836 0.88273 0.82344
 N2357 N 0.70174 0.91954 0.80234
 N2358 N 0.69576 0.92804 0.79223
 C2359 C 0.70436 0.94039 0.78584
 C2360 C 0.69819 0.94822 0.77342
 C2361 C 0.70657 0.96004 0.76672
 C2362 C 0.72124 0.96432 0.77248
 C2363 C 0.72727 0.95659 0.78512
 C2364 C 0.71895 0.94471 0.79170
 H2365 H 0.70098 0.87857 0.83377
 H2366 H 0.71390 0.89993 0.82157
 H2367 H 0.67129 0.91132 0.79829
 H2368 H 0.65800 0.89020 0.81087
 H2369 H 0.68694 0.94503 0.76882
 H2370 H 0.70159 0.96581 0.75702
 H2371 H 0.73854 0.95959 0.78981
 H2372 H 0.72396 0.93889 0.80135
 C2373 C 0.19295 0.38555 0.82717
 C2374 C 0.19989 0.39772 0.81970
 C2375 C 0.19139 0.40641 0.80933
 C2376 C 0.17569 0.40285 0.80654
 C2377 C 0.16865 0.39071 0.81411
 C2378 C 0.17721 0.38188 0.82452
 N2379 N 0.19905 0.41873 0.80191
 N2380 N 0.19270 0.42657 0.79148
 C2381 C 0.20088 0.43884 0.78442
 C2382 C 0.19423 0.44619 0.77192
 C2383 C 0.20220 0.45797 0.76466
 C2384 C 0.21694 0.46264 0.76991
 C2385 C 0.22347 0.45534 0.78258
 C2386 C 0.21556 0.44355 0.78973
 H2387 H 0.20002 0.37890 0.83485
 H2388 H 0.21203 0.40034 0.82189
 H2389 H 0.16886 0.40948 0.79862
 H2390 H 0.15648 0.38835 0.81192
 H2391 H 0.18292 0.44269 0.76772
 H2392 H 0.19686 0.46339 0.75494
 H2393 H 0.23479 0.45864 0.78691
 H2394 H 0.22095 0.43810 0.79940
 C2395 C 0.19887 0.89525 0.32922
 C2396 C 0.20598 0.90757 0.32210
 C2397 C 0.19768 0.91643 0.31172
 C2398 C 0.18203 0.91292 0.30859
 C2399 C 0.17486 0.90062 0.31575
 C2400 C 0.18321 0.89160 0.32612
 N2401 N 0.20549 0.92876 0.30442
 N2402 N 0.19897 0.93682 0.29426
 C2403 C 0.20697 0.94902 0.28693
 C2404 C 0.19956 0.95672 0.27509
 C2405 C 0.20724 0.96836 0.26738
 C2406 C 0.22250 0.97254 0.27148
 C2407 C 0.22983 0.96492 0.28355
 C2408 C 0.22216 0.95324 0.29118
 H2409 H 0.20575 0.88844 0.33693
 H2410 H 0.21807 0.91014 0.32456
 H2411 H 0.17535 0.91965 0.30063
 H2412 H 0.16275 0.89827 0.31325
 H2413 H 0.18785 0.95358 0.27172
 H2414 H 0.20126 0.97402 0.25817
 H2415 H 0.24158 0.96786 0.28698
 H2416 H 0.22814 0.94748 0.30033
 C2417 C 0.38982 0.30359 0.67203
 C2418 C 0.40257 0.29613 0.67854
 C2419 C 0.41260 0.30386 0.68839
 C2420 C 0.40989 0.31930 0.69150
 C2421 C 0.39719 0.32680 0.68495
 C2422 C 0.38691 0.31901 0.67521
 N2423 N 0.42523 0.29573 0.69527
 N2424 N 0.43407 0.30182 0.70516
 C2425 C 0.44656 0.29368 0.71226
 C2426 C 0.45489 0.30072 0.72396
 C2427 C 0.46676 0.29292 0.73154
 C2428 C 0.47058 0.27792 0.72745
 C2429 C 0.46238 0.27097 0.71550
 C2430 C 0.45043 0.27876 0.70799
 H2431 H 0.38207 0.29716 0.66477
 H2432 H 0.40451 0.28422 0.67609
 H2433 H 0.41754 0.32556 0.69902
 H2434 H 0.39549 0.33872 0.68745
 H2435 H 0.45202 0.31222 0.72733
 H2436 H 0.47288 0.29861 0.74066
 H2437 H 0.46503 0.25943 0.71209
 H2438 H 0.44417 0.27309 0.69895
 C2439 C 0.38361 0.82495 0.19435
 C2440 C 0.39527 0.81701 0.20204
 C2441 C 0.40472 0.80664 0.19438
 C2442 C 0.40246 0.80430 0.17880
 C2443 C 0.39084 0.81233 0.17104
 C2444 C 0.38126 0.82278 0.17872
 N2445 N 0.41657 0.79882 0.20274
 N2446 N 0.42490 0.78830 0.19706
 C2447 C 0.43676 0.78088 0.20581
 C2448 C 0.44459 0.76835 0.19970
 C2449 C 0.45615 0.76088 0.20809
 C2450 C 0.46014 0.76597 0.22269
 C2451 C 0.45230 0.77862 0.22874
 C2452 C 0.44070 0.78597 0.22041
 H2453 H 0.37632 0.83263 0.20075
 H2454 H 0.39689 0.81886 0.21406
 H2455 H 0.40972 0.79638 0.17263
 H2456 H 0.38951 0.81050 0.15900
 H2457 H 0.44168 0.76433 0.18846
 H2458 H 0.46201 0.75119 0.20312
 H2459 H 0.45507 0.78281 0.23995
 H2460 H 0.43486 0.79566 0.22539
 C2461 C 0.88707 0.32745 0.19118
 C2462 C 0.89902 0.31968 0.19863
 C2463 C 0.90838 0.30935 0.19080
 C2464 C 0.90578 0.30695 0.17528
 C2465 C 0.89389 0.31481 0.16776
 C2466 C 0.88433 0.32513 0.17563
 N2467 N 0.92033 0.30145 0.19894
 N2468 N 0.92843 0.29090 0.19301
 C2469 C 0.94032 0.28315 0.20141
 C2470 C 0.94778 0.27062 0.19490
 C2471 C 0.95920 0.26265 0.20297
 C2472 C 0.96341 0.26720 0.21769
 C2473 C 0.95601 0.27991 0.22413
 C2474 C 0.94453 0.28778 0.21609
 H2475 H 0.87983 0.33506 0.19771
 H2476 H 0.90089 0.32158 0.21061
 H2477 H 0.91295 0.29907 0.16897
 H2478 H 0.89228 0.31289 0.15576
 H2479 H 0.94464 0.26696 0.18359
 H2480 H 0.96472 0.25294 0.19769
 H2481 H 0.95898 0.28369 0.23544
 H2482 H 0.93896 0.29746 0.22137
 C2483 C 0.88818 0.82353 0.69575
 C2484 C 0.90054 0.81636 0.70322
 C2485 C 0.90993 0.80589 0.69561
 C2486 C 0.90687 0.80267 0.68030
 C2487 C 0.89455 0.80990 0.67277
 C2488 C 0.88503 0.82043 0.68041
 N2489 N 0.92241 0.79869 0.70370
 N2490 N 0.93077 0.78830 0.69783
 C2491 C 0.94321 0.78110 0.70600
 C2492 C 0.95092 0.76878 0.69938
 C2493 C 0.96284 0.76125 0.70717
 C2494 C 0.96738 0.76604 0.72173
 C2495 C 0.95977 0.77858 0.72827
 C2496 C 0.94776 0.78602 0.72050
 H2497 H 0.88099 0.83134 0.70210
 H2498 H 0.90274 0.81889 0.71503
 H2499 H 0.91402 0.79465 0.67414
 H2500 H 0.89263 0.80737 0.66093
 H2501 H 0.94755 0.76489 0.68820
 H2502 H 0.96848 0.75166 0.70179
 H2503 H 0.96297 0.78254 0.73947
 H2504 H 0.94201 0.79557 0.72585
 C2505 C 0.61807 0.30336 0.32657
 C2506 C 0.60600 0.29537 0.31947
 C2507 C 0.59607 0.30269 0.30924
 C2508 C 0.59822 0.31823 0.30628
 C2509 C 0.61019 0.32626 0.31344
 C2510 C 0.62034 0.31892 0.32364
 N2511 N 0.58401 0.29411 0.30193
 N2512 N 0.57561 0.29977 0.29146
 C2513 C 0.56355 0.29131 0.28403
 C2514 C 0.55610 0.29773 0.27148
 C2515 C 0.54456 0.28968 0.26370
 C2516 C 0.54014 0.27507 0.26846
 C2517 C 0.54747 0.26873 0.28124
 C2518 C 0.55915 0.27675 0.28893
 H2519 H 0.62574 0.29725 0.33415
 H2520 H 0.60450 0.28339 0.32181
 H2521 H 0.59061 0.32418 0.29848
 H2522 H 0.61138 0.33826 0.31109
 H2523 H 0.55938 0.30895 0.26763
 H2524 H 0.53909 0.29491 0.25394
 H2525 H 0.54434 0.25749 0.28516
 H2526 H 0.56472 0.27157 0.29865
 C2527 C 0.61014 0.79846 0.82796
 C2528 C 0.59776 0.79068 0.82114
 C2529 C 0.58763 0.79821 0.81123
 C2530 C 0.58996 0.81372 0.80827
 C2531 C 0.60227 0.82154 0.81515
 C2532 C 0.61257 0.81401 0.82505
 N2533 N 0.57516 0.78986 0.80428
 N2534 N 0.56628 0.79580 0.79435
 C2535 C 0.55379 0.78759 0.78731
 C2536 C 0.54550 0.79450 0.77552
 C2537 C 0.53344 0.78676 0.76817
 C2538 C 0.52935 0.77195 0.77259
 C2539 C 0.53756 0.76509 0.78458
 C2540 C 0.54972 0.77282 0.79185
 H2541 H 0.61792 0.79222 0.83534
 H2542 H 0.59613 0.77872 0.82348
 H2543 H 0.58223 0.81983 0.80071
 H2544 H 0.60359 0.83353 0.81282
 H2545 H 0.54851 0.80589 0.77194
 H2546 H 0.52733 0.79239 0.75902
 H2547 H 0.53471 0.75369 0.78824
 H2548 H 0.55594 0.76726 0.80098
 C2549 C 0.11103 0.29637 0.82848
 C2550 C 0.09887 0.28852 0.82137
 C2551 C 0.08874 0.29607 0.81148
 C2552 C 0.09077 0.31169 0.80891
 C2553 C 0.10284 0.31957 0.81607
 C2554 C 0.11321 0.31201 0.82588
 N2555 N 0.07659 0.28766 0.80410
 N2556 N 0.06799 0.29367 0.79398
 C2557 C 0.05578 0.28552 0.78645
 C2558 C 0.04788 0.29257 0.77451
 C2559 C 0.03604 0.28495 0.76674
 C2560 C 0.03178 0.27011 0.77089
 C2561 C 0.03964 0.26307 0.78300
 C2562 C 0.05159 0.27069 0.79069
 H2563 H 0.11887 0.29012 0.83579
 H2564 H 0.09745 0.27647 0.82343
 H2565 H 0.08301 0.31783 0.80140
 H2566 H 0.10393 0.33164 0.81401
 H2567 H 0.05100 0.30400 0.77116
 H2568 H 0.03018 0.29071 0.75750
 H2569 H 0.03663 0.25165 0.78646
 H2570 H 0.05752 0.26502 0.79993
 C2571 C 0.11833 0.80494 0.32645
 C2572 C 0.10653 0.79681 0.31913
 C2573 C 0.09666 0.80401 0.30876
 C2574 C 0.09868 0.81955 0.30577
 C2575 C 0.11042 0.82775 0.31318
 C2576 C 0.12039 0.82055 0.32364
 N2577 N 0.08460 0.79531 0.30163
 N2578 N 0.07601 0.80065 0.29114
 C2579 C 0.06384 0.79182 0.28431
 C2580 C 0.05590 0.79762 0.27172
 C2581 C 0.04400 0.78921 0.26481
 C2582 C 0.03975 0.77490 0.27052
 C2583 C 0.04769 0.76917 0.28323
 C2584 C 0.05967 0.77751 0.29003
 H2585 H 0.12590 0.79891 0.33419
 H2586 H 0.10510 0.78482 0.32149
 H2587 H 0.09112 0.82539 0.29786
 H2588 H 0.11148 0.83977 0.31087
 H2589 H 0.05899 0.80864 0.26722
 H2590 H 0.03808 0.79396 0.25506
 H2591 H 0.04473 0.75817 0.28789
 H2592 H 0.06559 0.77279 0.29979
 C2593 C 0.60931 0.70115 0.67372
 C2594 C 0.59662 0.70881 0.68005
 C2595 C 0.58623 0.70117 0.68952
 C2596 C 0.58850 0.68562 0.69238
 C2597 C 0.60112 0.67793 0.68599
 C2598 C 0.61179 0.68561 0.67669
 N2599 N 0.57369 0.70947 0.69631
 N2600 N 0.56478 0.70345 0.70609
 C2601 C 0.55233 0.71161 0.71315
 C2602 C 0.54414 0.70463 0.72488
 C2603 C 0.53229 0.71240 0.73242
 C2604 C 0.52829 0.72733 0.72824
 C2605 C 0.53634 0.73424 0.71625
 C2606 C 0.54832 0.72647 0.70880
 H2607 H 0.61735 0.70750 0.66678
 H2608 H 0.59502 0.72080 0.67778
 H2609 H 0.58056 0.67942 0.69957
 H2610 H 0.60244 0.66593 0.68830
 H2611 H 0.54712 0.69317 0.72832
 H2612 H 0.52628 0.70674 0.74156
 H2613 H 0.53356 0.74572 0.71278
 H2614 H 0.55446 0.73210 0.69972
 C2615 C 0.62304 0.19657 0.17666
 C2616 C 0.61095 0.20462 0.18348
 C2617 C 0.60059 0.19729 0.19316
 C2618 C 0.60254 0.18171 0.19614
 C2619 C 0.61464 0.17358 0.18924
 C2620 C 0.62495 0.18090 0.17930
 N2621 N 0.58813 0.20598 0.19955
 N2622 N 0.57860 0.20057 0.20912
 C2623 C 0.56615 0.20960 0.21512
 C2624 C 0.55706 0.20374 0.22683
 C2625 C 0.54499 0.21240 0.23305
 C2626 C 0.54172 0.22705 0.22751
 C2627 C 0.55075 0.23282 0.21561
 C2628 C 0.56289 0.22421 0.20950
 H2629 H 0.63094 0.20268 0.16937
 H2630 H 0.60962 0.21664 0.18118
 H2631 H 0.59462 0.17580 0.20359
 H2632 H 0.61573 0.16153 0.19143
 H2633 H 0.55942 0.19249 0.23124
 H2634 H 0.53822 0.20760 0.24218
 H2635 H 0.54854 0.24407 0.21111
 H2636 H 0.56971 0.22898 0.20039
 C2637 C 0.10416 0.68612 0.16665
 C2638 C 0.09173 0.69365 0.17356
 C2639 C 0.08894 0.69186 0.18902
 C2640 C 0.09862 0.68220 0.19754
 C2641 C 0.11110 0.67470 0.19067
 C2642 C 0.11412 0.67669 0.17516
 N2643 N 0.07658 0.70035 0.19585
 N2644 N 0.07299 0.69888 0.20972
 C2645 C 0.06094 0.70778 0.21657
 C2646 C 0.05678 0.70484 0.23157
 C2647 C 0.04534 0.71358 0.23869
 C2648 C 0.03794 0.72553 0.23092
 C2649 C 0.04212 0.72843 0.21583
 C2650 C 0.05348 0.71962 0.20870
 H2651 H 0.10597 0.68772 0.15466
 H2652 H 0.08432 0.70102 0.16686
 H2653 H 0.09673 0.68068 0.20955
 H2654 H 0.11862 0.66770 0.19761
 H2655 H 0.06248 0.69578 0.23776
 H2656 H 0.04240 0.71107 0.25033
 H2657 H 0.03661 0.73753 0.20953
 H2658 H 0.05653 0.72215 0.19710
 C2659 C 0.11004 0.19959 0.66998
 C2660 C 0.09752 0.20709 0.67674
 C2661 C 0.08763 0.19936 0.68661
 C2662 C 0.09027 0.18388 0.68953
 C2663 C 0.10275 0.17632 0.68271
 C2664 C 0.11285 0.18409 0.67290
 N2665 N 0.07517 0.20755 0.69364
 N2666 N 0.06648 0.20155 0.70361
 C2667 C 0.05414 0.20980 0.71076
 C2668 C 0.04606 0.20296 0.72264
 C2669 C 0.03432 0.21087 0.73022
 C2670 C 0.03037 0.22578 0.72594
 C2671 C 0.03833 0.23254 0.71381
 C2672 C 0.05016 0.22464 0.70631
 H2673 H 0.11767 0.20603 0.66271
 H2674 H 0.09563 0.21904 0.67444
 H2675 H 0.08272 0.17763 0.69707
 H2676 H 0.10440 0.16436 0.68504
 H2677 H 0.04902 0.19153 0.72615
 H2678 H 0.02838 0.20533 0.73948
 H2679 H 0.03557 0.24401 0.71026
 H2680 H 0.05622 0.23016 0.69712
 C2681 C 0.38104 0.69680 0.32588
 C2682 C 0.39317 0.70459 0.31879
 C2683 C 0.40326 0.69695 0.30899
 C2684 C 0.40120 0.68132 0.30645
 C2685 C 0.38914 0.67350 0.31360
 C2686 C 0.37885 0.68115 0.32336
 N2687 N 0.41541 0.70531 0.30169
 N2688 N 0.42419 0.69925 0.29181
 C2689 C 0.43634 0.70750 0.28442
 C2690 C 0.44459 0.70041 0.27276
 C2691 C 0.45634 0.70820 0.26511
 C2692 C 0.46012 0.72323 0.26910
 C2693 C 0.45193 0.73028 0.28094
 C2694 C 0.44009 0.72250 0.28851
 H2695 H 0.37324 0.70312 0.33314
 H2696 H 0.39461 0.71665 0.32080
 H2697 H 0.40892 0.67513 0.29900
 H2698 H 0.38801 0.66142 0.31158
 H2699 H 0.44182 0.68885 0.26953
 H2700 H 0.46246 0.70243 0.25607
 H2701 H 0.45455 0.74185 0.28427
 H2702 H 0.43389 0.72821 0.29753
 C2703 C 0.39018 0.17972 0.80198
 C2704 C 0.40236 0.18674 0.79425
 C2705 C 0.41234 0.19681 0.80175
 C2706 C 0.41013 0.19968 0.81723
 C2707 C 0.39802 0.19256 0.82504
 C2708 C 0.38782 0.18252 0.81750
 N2709 N 0.42455 0.20392 0.79335
 N2710 N 0.43319 0.21427 0.79894
 C2711 C 0.44538 0.22120 0.79033
 C2712 C 0.45348 0.23357 0.79647
 C2713 C 0.46531 0.24066 0.78825
 C2714 C 0.46933 0.23537 0.77376
 C2715 C 0.46125 0.22286 0.76767
 C2716 C 0.44935 0.21588 0.77585
 H2717 H 0.38248 0.17230 0.79569
 H2718 H 0.40393 0.18447 0.78231
 H2719 H 0.41778 0.20736 0.82330
 H2720 H 0.39674 0.19484 0.83700
 H2721 H 0.45054 0.23777 0.80763
 H2722 H 0.47135 0.25024 0.79327
 H2723 H 0.46404 0.21852 0.75654
 H2724 H 0.44330 0.20630 0.77086
 C2725 C 0.88846 0.69981 0.82625
 C2726 C 0.90073 0.70700 0.81873
 C2727 C 0.91021 0.69884 0.80877
 C2728 C 0.90745 0.68326 0.80654
 C2729 C 0.89528 0.67604 0.81412
 C2730 C 0.88553 0.68423 0.82399
 N2731 N 0.92249 0.70660 0.80101
 N2732 N 0.93056 0.70018 0.79077
 C2733 C 0.94285 0.70790 0.78301
 C2734 C 0.95021 0.70064 0.77088
 C2735 C 0.96210 0.70794 0.76293
 C2736 C 0.96695 0.72262 0.76712
 C2737 C 0.95963 0.72982 0.77941
 C2738 C 0.94765 0.72256 0.78726
 H2739 H 0.88114 0.70654 0.83360
 H2740 H 0.90273 0.71901 0.82054
 H2741 H 0.91470 0.67667 0.79899
 H2742 H 0.89362 0.66399 0.81231
 H2743 H 0.94662 0.68933 0.76751
 H2744 H 0.96753 0.70207 0.75354
 H2745 H 0.96306 0.74114 0.78291
 H2746 H 0.94218 0.72840 0.79663
 C2747 C 0.88368 0.19636 0.32083
 C2748 C 0.89548 0.20416 0.31324
 C2749 C 0.90526 0.19651 0.30316
 C2750 C 0.90317 0.18085 0.30078
 C2751 C 0.89145 0.17301 0.30844
 C2752 C 0.88152 0.18066 0.31855
 N2753 N 0.91721 0.20485 0.29555
 N2754 N 0.92564 0.19886 0.28534
 C2755 C 0.93770 0.20713 0.27781
 C2756 C 0.94551 0.20024 0.26575
 C2757 C 0.95732 0.20798 0.25812
 C2758 C 0.96162 0.22276 0.26256
 C2759 C 0.95381 0.22962 0.27475
 C2760 C 0.94191 0.22190 0.28228
 H2761 H 0.87615 0.20270 0.32833
 H2762 H 0.89695 0.21623 0.31514
 H2763 H 0.91066 0.17465 0.29311
 H2764 H 0.89034 0.16091 0.30657
 H2765 H 0.94239 0.18885 0.26221
 H2766 H 0.96314 0.20236 0.24881
 H2767 H 0.95683 0.24100 0.27842
 H2768 H 0.93607 0.22746 0.29161
 C2769 C 0.30129 0.32527 0.60827
 C2770 C 0.29393 0.31870 0.59572
 C2771 C 0.30242 0.30993 0.58543
 C2772 C 0.31851 0.30800 0.58767
 C2773 C 0.32592 0.31463 0.60014
 C2774 C 0.31739 0.32324 0.61070
 N2775 N 0.29441 0.30291 0.57300
 N2776 N 0.30117 0.29366 0.56409
 C2777 C 0.29318 0.28647 0.55176
 C2778 C 0.30091 0.27524 0.54345
 C2779 C 0.29330 0.26761 0.53168
 C2780 C 0.27779 0.27121 0.52792
 C2781 C 0.27013 0.28271 0.53611
 C2782 C 0.27773 0.29024 0.54797
 H2783 H 0.29429 0.33163 0.61621
 H2784 H 0.28151 0.32025 0.59414
 H2785 H 0.32536 0.30135 0.57981
 H2786 H 0.33835 0.31306 0.60146
 H2787 H 0.31283 0.27226 0.54626
 H2788 H 0.29953 0.25885 0.52557
 H2789 H 0.25819 0.28573 0.53351
 H2790 H 0.27152 0.29892 0.55420
 C2791 C 0.29898 0.82982 0.10820
 C2792 C 0.29153 0.82304 0.09583
 C2793 C 0.29973 0.81334 0.08617
 C2794 C 0.31562 0.81059 0.08891
 C2795 C 0.32311 0.81742 0.10123
 C2796 C 0.31487 0.82706 0.11109
 N2797 N 0.29162 0.80633 0.07382
 N2798 N 0.29804 0.79661 0.06517
 C2799 C 0.28974 0.78956 0.05294
 C2800 C 0.29699 0.77798 0.04469
 C2801 C 0.28898 0.77051 0.03304
 C2802 C 0.27358 0.77463 0.02939
 C2803 C 0.26644 0.78647 0.03753
 C2804 C 0.27442 0.79384 0.04923
 H2805 H 0.29219 0.83698 0.11563
 H2806 H 0.27926 0.82520 0.09386
 H2807 H 0.32224 0.80319 0.08154
 H2808 H 0.33540 0.81523 0.10294
 H2809 H 0.30880 0.77459 0.04743
 H2810 H 0.29481 0.76147 0.02696
 H2811 H 0.25459 0.78991 0.03503
 H2812 H 0.26858 0.80280 0.05541
 C2813 C 0.80056 0.32926 0.10656
 C2814 C 0.79323 0.32206 0.09434
 C2815 C 0.80170 0.31253 0.08471
 C2816 C 0.81771 0.31044 0.08730
 C2817 C 0.82507 0.31768 0.09946
 C2818 C 0.81657 0.32710 0.10933
 N2819 N 0.79377 0.30498 0.07255
 N2820 N 0.80058 0.29532 0.06413
 C2821 C 0.79269 0.28763 0.05203
 C2822 C 0.80060 0.27626 0.04406
 C2823 C 0.79313 0.26825 0.03244
 C2824 C 0.77761 0.27158 0.02853
 C2825 C 0.76976 0.28316 0.03643
 C2826 C 0.77721 0.29109 0.04811
 H2827 H 0.79360 0.33627 0.11400
 H2828 H 0.78087 0.32375 0.09248
 H2829 H 0.82455 0.30321 0.07995
 H2830 H 0.83745 0.31597 0.10104
 H2831 H 0.81254 0.27350 0.04697
 H2832 H 0.79951 0.25943 0.02656
 H2833 H 0.75779 0.28599 0.03370
 H2834 H 0.77086 0.29986 0.05408
 C2835 C 0.80018 0.82401 0.61185
 C2836 C 0.79234 0.81742 0.59962
 C2837 C 0.80014 0.80761 0.58977
 C2838 C 0.81598 0.80438 0.59232
 C2839 C 0.82387 0.81101 0.60454
 C2840 C 0.81608 0.82098 0.61442
 N2841 N 0.79169 0.80115 0.57732
 N2842 N 0.79779 0.79157 0.56831
 C2843 C 0.78927 0.78512 0.55590
 C2844 C 0.79619 0.77357 0.54739
 C2845 C 0.78805 0.76668 0.53550
 C2846 C 0.77282 0.77136 0.53182
 C2847 C 0.76598 0.78319 0.54020
 C2848 C 0.77411 0.78999 0.55219
 H2849 H 0.79371 0.83138 0.61936
 H2850 H 0.78012 0.81993 0.59783
 H2851 H 0.82227 0.79683 0.58483
 H2852 H 0.83613 0.80856 0.60608
 H2853 H 0.80787 0.76975 0.55011
 H2854 H 0.79368 0.75764 0.52923
 H2855 H 0.75427 0.78703 0.53766
 H2856 H 0.76853 0.79896 0.55858
 C2857 C 0.29782 0.67181 0.39455
 C2858 C 0.29047 0.67857 0.40694
 C2859 C 0.29853 0.68882 0.41620
 C2860 C 0.31422 0.69205 0.41310
 C2861 C 0.32163 0.68521 0.40079
 C2862 C 0.31349 0.67511 0.39124
 N2863 N 0.29047 0.69593 0.42848
 N2864 N 0.29662 0.70641 0.43645
 C2865 C 0.28848 0.71359 0.44865
 C2866 C 0.29535 0.72601 0.45598
 C2867 C 0.28753 0.73352 0.46766
 C2868 C 0.27270 0.72863 0.47229
 C2869 C 0.26592 0.71602 0.46503
 C2870 C 0.27370 0.70859 0.45328
 H2871 H 0.29110 0.66427 0.38739
 H2872 H 0.27836 0.67601 0.40919
 H2873 H 0.32074 0.69985 0.42017
 H2874 H 0.33376 0.68782 0.39879
 H2875 H 0.30673 0.72996 0.45253
 H2876 H 0.29309 0.74317 0.47305
 H2877 H 0.25451 0.71197 0.46830
 H2878 H 0.26816 0.69899 0.44781
 C2879 C 0.32505 0.20022 0.88821
 C2880 C 0.31869 0.20743 0.90086
 C2881 C 0.30933 0.19937 0.91095
 C2882 C 0.30640 0.18389 0.90830
 C2883 C 0.31283 0.17662 0.89569
 C2884 C 0.32224 0.18470 0.88547
 N2885 N 0.30297 0.20720 0.92373
 N2886 N 0.29351 0.20095 0.93286
 C2887 C 0.28725 0.20898 0.94559
 C2888 C 0.27567 0.20208 0.95430
 C2889 C 0.26902 0.20981 0.96652
 C2890 C 0.27397 0.22457 0.97031
 C2891 C 0.28580 0.23136 0.96168
 C2892 C 0.29234 0.22367 0.94941
 H2893 H 0.33200 0.20688 0.88050
 H2894 H 0.32098 0.21938 0.90275
 H2895 H 0.29925 0.17739 0.91599
 H2896 H 0.31059 0.16463 0.89408
 H2897 H 0.27167 0.19075 0.95149
 H2898 H 0.25996 0.20425 0.97295
 H2899 H 0.28986 0.24272 0.96428
 H2900 H 0.30133 0.22924 0.94289
 C2901 C 0.80317 0.67831 0.89461
 C2902 C 0.79559 0.68487 0.90695
 C2903 C 0.80352 0.69481 0.91661
 C2904 C 0.81928 0.69809 0.91384
 C2905 C 0.82694 0.69144 0.90153
 C2906 C 0.81898 0.68146 0.89174
 N2907 N 0.79523 0.70144 0.92901
 N2908 N 0.80123 0.71151 0.93758
 C2909 C 0.79277 0.71814 0.94988
 C2910 C 0.79934 0.73039 0.95771
 C2911 C 0.79117 0.73749 0.96941
 C2912 C 0.77630 0.73232 0.97360
 C2913 C 0.76984 0.71980 0.96591
 C2914 C 0.77797 0.71281 0.95410
 H2915 H 0.79653 0.67095 0.88721
 H2916 H 0.78343 0.68232 0.90891
 H2917 H 0.82568 0.70572 0.92121
 H2918 H 0.83913 0.69399 0.89980
 H2919 H 0.81074 0.73459 0.95459
 H2920 H 0.79650 0.74706 0.97515
 H2921 H 0.75840 0.71557 0.96886
 H2922 H 0.77266 0.70331 0.94825
 C2923 C 0.80285 0.17184 0.39218
 C2924 C 0.79549 0.17863 0.40453
 C2925 C 0.80340 0.18922 0.41350
 C2926 C 0.81892 0.19287 0.41010
 C2927 C 0.82636 0.18601 0.39779
 C2928 C 0.81839 0.17544 0.38862
 N2929 N 0.79531 0.19615 0.42585
 N2930 N 0.80123 0.20675 0.43382
 C2931 C 0.79288 0.21360 0.44607
 C2932 C 0.79936 0.22613 0.45354
 C2933 C 0.79128 0.23331 0.46527
 C2934 C 0.77659 0.22794 0.46980
 C2935 C 0.77021 0.21522 0.46240
 C2936 C 0.77824 0.20813 0.45062
 H2937 H 0.79622 0.16399 0.38529
 H2938 H 0.78351 0.17576 0.40702
 H2939 H 0.82530 0.20099 0.41694
 H2940 H 0.83837 0.18890 0.39555
 H2941 H 0.81063 0.23044 0.45015
 H2942 H 0.79653 0.24306 0.47077
 H2943 H 0.75892 0.21082 0.46560
 H2944 H 0.77299 0.19843 0.44505
 C2945 C 0.70185 0.32892 0.39467
 C2946 C 0.70952 0.32209 0.40687
 C2947 C 0.70173 0.31173 0.41611
 C2948 C 0.68598 0.30847 0.41322
 C2949 C 0.67824 0.31538 0.40110
 C2950 C 0.68611 0.32559 0.39156
 N2951 N 0.71015 0.30449 0.42813
 N2952 N 0.70427 0.29384 0.43598
 C2953 C 0.71278 0.28651 0.44788
 C2954 C 0.70623 0.27387 0.45499
 C2955 C 0.71443 0.26617 0.46633
 C2956 C 0.72933 0.27111 0.47084
 C2957 C 0.73578 0.28396 0.46382
 C2958 C 0.72762 0.29157 0.45240
 H2959 H 0.70839 0.33652 0.38751
 H2960 H 0.72168 0.32466 0.40897
 H2961 H 0.67966 0.30058 0.42029
 H2962 H 0.66607 0.31274 0.39925
 H2963 H 0.69480 0.26987 0.45161
 H2964 H 0.70911 0.25634 0.47155
 H2965 H 0.74723 0.28804 0.46702
 H2966 H 0.73292 0.30135 0.44709
 C2967 C 0.69599 0.82386 0.89415
 C2968 C 0.70411 0.81775 0.90642
 C2969 C 0.69666 0.80805 0.91656
 C2970 C 0.68084 0.80452 0.91435
 C2971 C 0.67263 0.81072 0.90210
 C2972 C 0.68012 0.82049 0.89185
 N2973 N 0.70551 0.80191 0.92887
 N2974 N 0.69999 0.79211 0.93795
 C2975 C 0.70910 0.78605 0.95014
 C2976 C 0.70307 0.77407 0.95866
 C2977 C 0.71190 0.76756 0.97029
 C2978 C 0.72691 0.77305 0.97368
 C2979 C 0.73283 0.78529 0.96528
 C2980 C 0.72403 0.79170 0.95357
 H2981 H 0.70227 0.83104 0.88636
 H2982 H 0.71632 0.82047 0.90796
 H2983 H 0.67482 0.79706 0.92210
 H2984 H 0.66041 0.80801 0.90077
 H2985 H 0.69158 0.76964 0.95615
 H2986 H 0.70698 0.75818 0.97659
 H2987 H 0.74434 0.78976 0.96761
 H2988 H 0.72893 0.80101 0.94716
 C2989 C 0.19660 0.32192 0.89502
 C2990 C 0.20474 0.31546 0.90711
 C2991 C 0.19735 0.30533 0.91688
 C2992 C 0.18156 0.30181 0.91454
 C2993 C 0.17334 0.30835 0.90249
 C2994 C 0.18079 0.31846 0.89253
 N2995 N 0.20624 0.29872 0.92894
 N2996 N 0.20076 0.28856 0.93765
 C2997 C 0.20993 0.28201 0.94956
 C2998 C 0.20384 0.26988 0.95785
 C2999 C 0.21272 0.26293 0.96920
 C3000 C 0.22786 0.26812 0.97251
 C3001 C 0.23385 0.28047 0.96432
 C3002 C 0.22500 0.28733 0.95292
 H3003 H 0.20284 0.32941 0.88748
 H3004 H 0.21693 0.31820 0.90876
 H3005 H 0.17558 0.29405 0.92202
 H3006 H 0.16115 0.30558 0.90105
 H3007 H 0.19224 0.26569 0.95538
 H3008 H 0.20776 0.25347 0.97533
 H3009 H 0.24546 0.28473 0.96658
 H3010 H 0.22996 0.29672 0.94669
 C3011 C 0.19938 0.83075 0.39705
 C3012 C 0.20688 0.82384 0.40929
 C3013 C 0.19902 0.81328 0.41825
 C3014 C 0.18337 0.80989 0.41502
 C3015 C 0.17580 0.81688 0.40284
 C3016 C 0.18375 0.82731 0.39360
 N3017 N 0.20728 0.80602 0.43035
 N3018 N 0.20136 0.79532 0.43809
 C3019 C 0.20981 0.78801 0.45005
 C3020 C 0.20323 0.77539 0.45718
 C3021 C 0.21140 0.76773 0.46857
 C3022 C 0.22629 0.77268 0.47310
 C3023 C 0.23277 0.78550 0.46605
 C3024 C 0.22464 0.79308 0.45459
 H3025 H 0.20598 0.83852 0.39012
 H3026 H 0.21897 0.82651 0.41166
 H3027 H 0.17701 0.80183 0.42186
 H3028 H 0.16371 0.81413 0.40070
 H3029 H 0.19182 0.77139 0.45378
 H3030 H 0.20606 0.75792 0.47381
 H3031 H 0.24421 0.78959 0.46926
 H3032 H 0.22997 0.80284 0.44927
 C3033 C 0.69880 0.67680 0.61196
 C3034 C 0.70670 0.68280 0.59953
 C3035 C 0.69886 0.69184 0.58897
 C3036 C 0.68287 0.69468 0.59086
 C3037 C 0.67492 0.68862 0.60322
 C3038 C 0.68279 0.67965 0.61399
 N3039 N 0.70740 0.69818 0.57660
 N3040 N 0.70120 0.70751 0.56737
 C3041 C 0.70963 0.71410 0.55508
 C3042 C 0.70246 0.72551 0.54655
 C3043 C 0.71049 0.73267 0.53486
 C3044 C 0.72587 0.72840 0.53138
 C3045 C 0.73296 0.71669 0.53975
 C3046 C 0.72493 0.70963 0.55157
 H3047 H 0.70532 0.67016 0.62009
 H3048 H 0.71904 0.68058 0.59824
 H3049 H 0.67651 0.70158 0.58279
 H3050 H 0.66257 0.69085 0.60425
 H3051 H 0.69067 0.72903 0.54913
 H3052 H 0.70467 0.74160 0.52858
 H3053 H 0.74479 0.71318 0.53736
 H3054 H 0.73070 0.70079 0.55800
 C3055 C 0.68536 0.19421 0.10830
 C3056 C 0.69192 0.20173 0.09602
 C3057 C 0.70163 0.19401 0.08598
 C3058 C 0.70474 0.17850 0.08832
 C3059 C 0.69806 0.17087 0.10058
 C3060 C 0.68824 0.17864 0.11073
 N3061 N 0.70808 0.20227 0.07358
 N3062 N 0.71818 0.19670 0.06464
 C3063 C 0.72427 0.20546 0.05236
 C3064 C 0.73689 0.19983 0.04409
 C3065 C 0.74335 0.20841 0.03237
 C3066 C 0.73714 0.22273 0.02865
 C3067 C 0.72429 0.22822 0.03680
 C3068 C 0.71795 0.21971 0.04858
 H3069 H 0.67820 0.20070 0.11599
 H3070 H 0.68952 0.21370 0.09437
 H3071 H 0.71220 0.17228 0.08063
 H3072 H 0.70042 0.15888 0.10199
 H3073 H 0.74185 0.18885 0.04686
 H3074 H 0.75322 0.20385 0.02626
 H3075 H 0.71924 0.23921 0.03423
 H3076 H 0.70814 0.22430 0.05475
 C3077 C 0.18192 0.69733 0.11141
 C3078 C 0.18854 0.70528 0.09940
 C3079 C 0.19837 0.69791 0.08919
 C3080 C 0.20170 0.68239 0.09120
 C3081 C 0.19502 0.67437 0.10322
 C3082 C 0.18492 0.68173 0.11339
 N3083 N 0.20454 0.70646 0.07681
 N3084 N 0.21423 0.70100 0.06739
 C3085 C 0.21998 0.70989 0.05504
 C3086 C 0.23194 0.70404 0.04602
 C3087 C 0.23796 0.71259 0.03406
 C3088 C 0.23196 0.72712 0.03082
 C3089 C 0.21979 0.73287 0.03977
 C3090 C 0.21389 0.72437 0.05179
 H3091 H 0.17450 0.70346 0.11917
 H3092 H 0.18596 0.71724 0.09801
 H3093 H 0.20927 0.67645 0.08341
 H3094 H 0.19746 0.66236 0.10434
 H3095 H 0.23671 0.69289 0.04836
 H3096 H 0.24731 0.70783 0.02736
 H3097 H 0.21494 0.74402 0.03760
 H3098 H 0.20459 0.72913 0.05854
 C3099 C 0.17899 0.19820 0.60579
 C3100 C 0.18627 0.20543 0.59369
 C3101 C 0.19660 0.19747 0.58442
 C3102 C 0.19959 0.18205 0.58734
 C3103 C 0.19221 0.17473 0.59942
 C3104 C 0.18178 0.18273 0.60878
 N3105 N 0.20375 0.20540 0.57215
 N3106 N 0.21422 0.19954 0.56382
 C3107 C 0.22101 0.20792 0.55161
 C3108 C 0.23376 0.20180 0.54388
 C3109 C 0.24083 0.20995 0.53217
 C3110 C 0.23511 0.22432 0.52793
 C3111 C 0.22215 0.23031 0.53558
 C3112 C 0.21520 0.22223 0.54733
 H3113 H 0.17134 0.20485 0.61288
 H3114 H 0.18394 0.21734 0.59159
 H3115 H 0.20750 0.17565 0.58026
 H3116 H 0.19451 0.16279 0.60127
 H3117 H 0.23834 0.19078 0.54704
 H3118 H 0.25077 0.20501 0.52647
 H3119 H 0.21747 0.24135 0.53261
 H3120 H 0.20531 0.22720 0.55308
   
