data_POSCAR
  _audit_creation_date              2014-09-24
  _audit_creation_method            'ToBaCCo'
  _symmetry_space_group_name_H-M    'P1'
  _symmetry_Int_Tables_number       1
  _symmetry_cell_setting            triclinic
  loop_
  _symmetry_equiv_pos_as_xyz
 x,y,z
_cell_length_a 62.5591
_cell_length_b 63.0857
_cell_length_c 63.0004
_cell_angle_alpha 88.624100
_cell_angle_beta 89.211700
_cell_angle_gamma 88.953700
loop_
  _atom_site_label
  _atom_site_type_symbol
  _atom_site_fract_x
  _atom_site_fract_y
  _atom_site_fract_z
C1 C 0.73537 0.64710 0.97435
 H2 H 0.75024 0.64674 0.96538
 C3 C 0.71751 0.65792 0.96608
 H4 H 0.71876 0.66594 0.95073
 C5 C 0.71523 0.63585 1.00456
 H6 H 0.71416 0.62683 1.01930
 C7 C 0.69701 0.64630 0.99683
 H8 H 0.68222 0.64550 1.00594
 N9 N 0.73387 0.63621 0.99320
 C10 C 0.79750 0.62374 1.01860
 H11 H 0.79566 0.60710 1.02266
 C12 C 0.81626 0.63391 1.02373
 H13 H 0.82862 0.62500 1.03206
 C14 C 0.78311 0.65555 1.00346
 H15 H 0.77009 0.66391 0.99565
 C16 C 0.80172 0.66637 1.00820
 H17 H 0.80292 0.68298 1.00370
 Zn18 Zn 0.75704 0.61865 1.00231
 N19 N 0.78149 0.63454 1.00848
 C20 C 0.78387 0.59822 0.97229
 N21 N 0.76356 0.59970 0.98017
 C22 C 0.74736 0.58900 0.97134
 C23 C 0.75128 0.57629 0.95377
 C24 C 0.78852 0.58563 0.95487
 C25 C 0.74769 0.61528 1.04543
 C26 C 0.74050 0.60608 1.06448
 C27 C 0.73630 0.57314 1.04644
 C28 C 0.74381 0.58303 1.02776
 N29 N 0.74886 0.60384 1.02750
 H30 H 0.79646 0.60721 0.97913
 H31 H 0.73128 0.59072 0.97768
 H32 H 0.73817 0.56802 0.94683
 H33 H 0.80469 0.58515 0.94852
 H34 H 0.75222 0.63175 1.04486
 H35 H 0.74086 0.61594 1.07822
 H36 H 0.73129 0.55696 1.04509
 H37 H 0.74495 0.57416 1.01332
 C38 C 0.81868 0.65549 1.01838
 C39 C 0.69791 0.65720 0.97719
 C40 C 0.73396 0.58464 1.06548
 C41 C 0.77209 0.57461 0.94524
 C42 C 0.73500 0.34960 0.52189
 H43 H 0.74947 0.34897 0.53112
 C44 C 0.71681 0.33898 0.52926
 H45 H 0.71744 0.33027 0.54426
 C46 C 0.71630 0.36288 0.49182
 H47 H 0.71593 0.37253 0.47746
 C48 C 0.69786 0.35241 0.49849
 H49 H 0.68372 0.35380 0.48881
 N50 N 0.73437 0.36142 0.50356
 C51 C 0.79864 0.37131 0.47791
 H52 H 0.79801 0.38842 0.47628
 C53 C 0.81659 0.36008 0.47066
 H54 H 0.82959 0.36872 0.46322
 C55 C 0.78194 0.33939 0.48890
 H56 H 0.76832 0.33144 0.49592
 C57 C 0.79965 0.32749 0.48187
 H58 H 0.79958 0.31040 0.48380
 Zn59 Zn 0.75829 0.37802 0.49563
 N60 N 0.78185 0.36091 0.48693
 C61 C 0.78605 0.39219 0.52712
 N62 N 0.76588 0.39397 0.51942
 C63 C 0.75073 0.40627 0.52909
 C64 C 0.75581 0.41785 0.54693
 C65 C 0.79180 0.40344 0.54489
 C66 C 0.74912 0.38655 0.45321
 C67 C 0.74264 0.39830 0.43535
 C68 C 0.74065 0.42957 0.45674
 C69 C 0.74738 0.41722 0.47421
 N70 N 0.75099 0.39602 0.47224
 H71 H 0.79772 0.38187 0.51968
 H72 H 0.73468 0.40706 0.52292
 H73 H 0.74364 0.42783 0.55419
 H74 H 0.80788 0.40156 0.55088
 H75 H 0.75219 0.36968 0.45208
 H76 H 0.74057 0.39031 0.42051
 H77 H 0.73746 0.44636 0.45861
 H78 H 0.74932 0.42455 0.48935
 C79 C 0.81731 0.33785 0.47262
 C80 C 0.69779 0.34055 0.51764
 C81 C 0.73799 0.42005 0.43706
 C82 C 0.77664 0.41660 0.55499
 C83 C 0.23583 -0.14788 0.02057
 H84 H 0.25058 -0.14835 0.02936
 C85 C 0.21798 -0.15870 0.02849
 H86 H 0.21912 -0.16742 0.04345
 C87 C 0.21611 -0.13490 -0.00897
 H88 H 0.21516 -0.12526 -0.02331
 C89 C 0.19799 -0.14553 -0.00173
 H90 H 0.18354 -0.14431 -0.01098
 N91 N 0.23457 -0.13621 0.00218
 C92 C 0.29875 -0.12668 -0.02390
 H93 H 0.29785 -0.10965 -0.02627
 C94 C 0.31699 -0.13791 -0.03038
 H95 H 0.32999 -0.12937 -0.03797
 C96 C 0.28242 -0.15842 -0.01177
 H97 H 0.26883 -0.16632 -0.00464
 C98 C 0.30042 -0.17032 -0.01806
 H99 H 0.30061 -0.18735 -0.01544
 Zn100 Zn 0.25822 -0.11974 -0.00694
 N101 N 0.28202 -0.13698 -0.01464
 C102 C 0.28564 -0.10390 0.02386
 N103 N 0.26566 -0.10217 0.01570
 C104 C 0.25058 -0.08907 0.02439
 C105 C 0.25549 -0.07683 0.04185
 C106 C 0.29122 -0.09197 0.04121
 C107 C 0.24785 -0.11491 -0.04927
 C108 C 0.24081 -0.10497 -0.06793
 C109 C 0.24073 -0.07152 -0.05012
 C110 C 0.24776 -0.08225 -0.03173
 N111 N 0.25060 -0.10363 -0.03151
 H112 H 0.29723 -0.11486 0.01725
 H113 H 0.23466 -0.08829 0.01787
 H114 H 0.24335 -0.06638 0.04849
 H115 H 0.30711 -0.09395 0.04766
 H116 H 0.25083 -0.13186 -0.04881
 H117 H 0.23966 -0.11484 -0.08161
 H118 H 0.23751 -0.05473 -0.04884
 H119 H 0.25037 -0.07350 -0.01749
 C120 C 0.31805 -0.16003 -0.02744
 C121 C 0.19863 -0.15740 0.01739
 C122 C 0.23641 -0.08283 -0.06876
 C123 C 0.27608 -0.07820 0.05045
 C124 C 0.23509 0.15115 0.46767
 H125 H 0.25067 0.15221 0.46010
 C126 C 0.21737 0.16130 0.45832
 H127 H 0.21944 0.17027 0.44358
 C128 C 0.21313 0.13701 0.49528
 H129 H 0.21125 0.12699 0.50926
 C130 C 0.19506 0.14673 0.48643
 H131 H 0.17964 0.14451 0.49410
 N132 N 0.23270 0.13933 0.48588
 C133 C 0.29525 0.13040 0.51509
 H134 H 0.29404 0.11364 0.51886
 C135 C 0.31277 0.14156 0.52198
 H136 H 0.32511 0.13329 0.53099
 C137 C 0.28043 0.16159 0.49899
 H138 H 0.26759 0.16940 0.49041
 C139 C 0.29792 0.17333 0.50532
 H140 H 0.29845 0.19015 0.50152
 Zn141 Zn 0.25624 0.12330 0.49688
 N142 N 0.27950 0.14048 0.50388
 C143 C 0.28501 0.10366 0.46795
 N144 N 0.26469 0.10383 0.47590
 C145 C 0.24943 0.09140 0.46777
 C146 C 0.25425 0.07838 0.45067
 C147 C 0.29056 0.09079 0.45094
 C148 C 0.24128 0.12162 0.53847
 C149 C 0.23311 0.11267 0.55724
 C150 C 0.23982 0.07787 0.54303
 C151 C 0.24749 0.08753 0.52428
 N152 N 0.24762 0.10905 0.52223
 H153 H 0.29680 0.11397 0.47432
 H154 H 0.23333 0.09205 0.47425
 H155 H 0.24184 0.06880 0.44420
 H156 H 0.30664 0.09138 0.44439
 H157 H 0.24188 0.13868 0.53648
 H158 H 0.22746 0.12288 0.56978
 H159 H 0.23924 0.06074 0.54439
 H160 H 0.25300 0.07786 0.51130
 C161 C 0.31422 0.16330 0.51716
 C162 C 0.19699 0.15886 0.46759
 C163 C 0.23207 0.09056 0.55953
 C164 C 0.27500 0.07817 0.44187
 C165 C 0.15042 0.47459 0.23371
 H166 H 0.15012 0.46488 0.24809
 C167 C 0.16244 0.46801 0.21611
 H168 H 0.17136 0.45316 0.21707
 C169 C 0.13813 0.50514 0.21459
 H170 H 0.12836 0.51942 0.21388
 C171 C 0.14982 0.49914 0.19665
 H172 H 0.14918 0.50908 0.18241
 N173 N 0.13850 0.49282 0.23260
 C174 C 0.12488 0.51515 0.29638
 H175 H 0.10777 0.51757 0.29516
 C176 C 0.13534 0.52101 0.31467
 H177 H 0.12613 0.52818 0.32738
 C178 C 0.15764 0.50370 0.28076
 H179 H 0.16627 0.49713 0.26741
 C180 C 0.16876 0.50928 0.29883
 H181 H 0.18589 0.50663 0.29931
 Zn182 Zn 0.12026 0.49985 0.25569
 N183 N 0.13606 0.50658 0.27994
 C184 C 0.10157 0.46795 0.28188
 N185 N 0.10275 0.47623 0.26178
 C186 C 0.09249 0.46712 0.24553
 C187 C 0.08026 0.44905 0.24924
 C188 C 0.08948 0.44998 0.28631
 C189 C 0.11347 0.54306 0.24820
 C190 C 0.10274 0.56151 0.24141
 C191 C 0.07170 0.54058 0.23459
 C192 C 0.08292 0.52255 0.24183
 N193 N 0.10357 0.52405 0.24805
 H194 H 0.11025 0.47502 0.29451
 H195 H 0.09402 0.47378 0.22961
 H196 H 0.07215 0.44203 0.23614
 H197 H 0.08910 0.44343 0.30235
 H198 H 0.12992 0.54378 0.25317
 H199 H 0.11104 0.57643 0.24107
 H200 H 0.05543 0.53914 0.22921
 H201 H 0.07528 0.50734 0.24199
 C202 C 0.15758 0.51808 0.31612
 C203 C 0.16196 0.48021 0.19717
 C204 C 0.08172 0.56031 0.23414
 C205 C 0.07867 0.44025 0.26988
 C206 C -0.15414 0.01783 0.23174
 H207 H -0.15483 0.02614 0.24656
 C208 C -0.16582 0.02557 0.21432
 H209 H -0.17504 0.04007 0.21626
 C210 C -0.13963 -0.01007 0.21136
 H211 H -0.12922 -0.02381 0.21005
 C212 C -0.15090 -0.00291 0.19359
 H213 H -0.14944 -0.01217 0.17941
 N214 N -0.14130 0.00035 0.22995
 C215 C -0.12817 -0.02766 0.29248
 H216 H -0.11104 -0.02968 0.29063
 C217 C -0.13839 -0.03529 0.31083
 H218 H -0.12899 -0.04306 0.32315
 C219 C -0.16114 -0.01490 0.27860
 H220 H -0.16993 -0.00714 0.26589
 C221 C -0.17202 -0.02214 0.29686
 H222 H -0.18920 -0.01997 0.29803
 Zn223 Zn -0.12353 -0.00844 0.25279
 N224 N -0.13957 -0.01764 0.27687
 C225 C -0.10757 0.02202 0.28018
 N226 N -0.10662 0.01484 0.26001
 C227 C -0.09470 0.02483 0.24470
 C228 C -0.08277 0.04256 0.24958
 C229 C -0.09597 0.03965 0.28572
 C230 C -0.11680 -0.05037 0.24220
 C231 C -0.10618 -0.06807 0.23411
 C232 C -0.07393 -0.04764 0.23110
 C233 C -0.08520 -0.03029 0.23940
 N234 N -0.10639 -0.03181 0.24419
 H235 H -0.11760 0.01432 0.29200
 H236 H -0.09457 0.01907 0.22866
 H237 H -0.07318 0.05017 0.23727
 H238 H -0.09730 0.04528 0.30180
 H239 H -0.13361 -0.05118 0.24635
 H240 H -0.11489 -0.08259 0.23240
 H241 H -0.05732 -0.04589 0.22648
 H242 H -0.07714 -0.01549 0.24136
 C243 C -0.16059 -0.03257 0.31320
 C244 C -0.16408 0.01546 0.19456
 C245 C -0.08459 -0.06670 0.22791
 C246 C -0.08329 0.05016 0.27037
 C247 C 0.34843 0.52018 0.73034
 H248 H 0.34768 0.52876 0.74500
 C249 C 0.33664 0.52745 0.71284
 H250 H 0.32688 0.54171 0.71418
 C251 C 0.36314 0.49191 0.71045
 H252 H 0.37380 0.47833 0.70935
 C253 C 0.35161 0.49856 0.69264
 H254 H 0.35321 0.48966 0.67820
 N255 N 0.36143 0.50275 0.72882
 C256 C 0.37441 0.47602 0.79176
 H257 H 0.39162 0.47460 0.79024
 C258 C 0.36414 0.46830 0.81005
 H259 H 0.37357 0.46104 0.82264
 C260 C 0.34129 0.48744 0.77717
 H261 H 0.33248 0.49474 0.76422
 C262 C 0.33036 0.48012 0.79536
 H263 H 0.31311 0.48176 0.79626
 Zn264 Zn 0.37913 0.49497 0.75199
 N265 N 0.36296 0.48540 0.77582
 C266 C 0.39142 0.52715 0.77907
 N267 N 0.39454 0.51922 0.75936
 C268 C 0.40701 0.52938 0.74460
 C269 C 0.41705 0.54826 0.74954
 C270 C 0.40093 0.54598 0.78458
 C271 C 0.38781 0.45324 0.74220
 C272 C 0.39958 0.43547 0.73593
 C273 C 0.43127 0.45682 0.73427
 C274 C 0.41886 0.47423 0.74078
 N275 N 0.39747 0.47220 0.74421
 H276 H 0.38112 0.51917 0.79045
 H277 H 0.40881 0.52304 0.72886
 H278 H 0.42670 0.55635 0.73760
 H279 H 0.39818 0.55205 0.80034
 H280 H 0.37079 0.45207 0.74514
 H281 H 0.39143 0.42068 0.73384
 H282 H 0.44823 0.45868 0.73132
 H283 H 0.42631 0.48934 0.74283
 C284 C 0.34184 0.47033 0.81203
 C285 C 0.33836 0.51673 0.69357
 C286 C 0.42156 0.43716 0.73166
 C287 C 0.41377 0.55688 0.76969
 C288 C 0.65077 0.97879 0.73376
 H289 H 0.65249 0.97077 0.74904
 C290 C 0.66198 0.97125 0.71604
 H291 H 0.67228 0.95736 0.71782
 C292 C 0.63421 1.00581 0.71267
 H293 H 0.62294 1.01889 0.71117
 C294 C 0.64508 0.99885 0.69460
 H295 H 0.64244 1.00709 0.67957
 N296 N 0.63722 0.99581 0.73179
 C297 C 0.62676 1.02071 0.79511
 H298 H 0.60951 1.02223 0.79455
 C299 C 0.63750 1.02687 0.81309
 H300 H 0.62804 1.03380 0.82571
 C301 C 0.65936 1.01099 0.77823
 H302 H 0.66777 1.00473 0.76460
 C303 C 0.67086 1.01703 0.79594
 H304 H 0.68800 1.01457 0.79554
 Zn305 Zn 0.62054 1.00405 0.75566
 N306 N 0.63768 1.01262 0.77831
 C307 C 0.60805 0.97147 0.78418
 N308 N 0.60437 0.98029 0.76463
 C309 C 0.59095 0.97114 0.75086
 C310 C 0.58079 0.95219 0.75653
 C311 C 0.59832 0.95262 0.79044
 C312 C 0.61354 1.04552 0.74243
 C313 C 0.60233 1.06370 0.73581
 C314 C 0.56930 1.04523 0.74236
 C315 C 0.58123 1.02721 0.74859
 N316 N 0.60296 1.02763 0.74816
 H317 H 0.61911 0.97860 0.79476
 H318 H 0.58862 0.97825 0.73524
 H319 H 0.57061 0.94478 0.74521
 H320 H 0.60163 0.94581 0.80602
 H321 H 0.63084 1.04543 0.74245
 H322 H 0.61128 1.07735 0.73038
 H323 H 0.55202 1.04464 0.74286
 H324 H 0.57314 1.01294 0.75370
 C325 C 0.66000 1.02490 0.81405
 C326 C 0.65901 0.98120 0.69607
 C327 C 0.57986 1.06376 0.73559
 C328 C 0.58480 0.94252 0.77642
 C329 C 0.02914 0.22915 -0.13586
 H330 H 0.04050 0.23923 -0.12842
 C331 C 0.03640 0.21113 -0.14639
 H332 H 0.05340 0.20771 -0.14722
 C333 C -0.00677 0.22142 -0.14375
 H334 H -0.02362 0.22536 -0.14222
 C335 C -0.00022 0.20316 -0.15435
 H336 H -0.01219 0.19310 -0.16088
 N337 N 0.00786 0.23376 -0.13448
 C338 C -0.01960 0.29681 -0.12370
 H339 H -0.01927 0.29688 -0.10654
 C340 C -0.02703 0.31468 -0.13496
 H341 H -0.03284 0.32824 -0.12624
 C342 C -0.01258 0.27879 -0.15568
 H343 H -0.00671 0.26481 -0.16365
 C344 C -0.01979 0.29643 -0.16763
 H345 H -0.01931 0.29587 -0.18479
 Zn346 Zn -0.00198 0.25612 -0.11726
 N347 N -0.01264 0.27929 -0.13411
 C348 C 0.02981 0.28480 -0.10639
 N349 N 0.02117 0.26577 -0.10089
 C350 C 0.02954 0.25354 -0.08484
 C351 C 0.04698 0.26050 -0.07342
 C352 C 0.04714 0.29239 -0.09537
 C353 C -0.04386 0.25468 -0.09900
 C354 C -0.06055 0.24579 -0.08709
 C355 C -0.03666 0.21723 -0.07637
 C356 C -0.02050 0.22669 -0.08859
 N357 N -0.02422 0.24519 -0.09946
 H358 H 0.02360 0.29401 -0.11967
 H359 H 0.02290 0.23828 -0.08091
 H360 H 0.05330 0.25064 -0.06059
 H361 H 0.05391 0.30744 -0.10025
 H362 H -0.04699 0.26883 -0.10846
 H363 H -0.07595 0.25365 -0.08853
 H364 H -0.03217 0.20306 -0.06748
 H365 H -0.00506 0.21884 -0.08983
 C366 C -0.02710 0.31475 -0.15725
 C367 C 0.02162 0.19759 -0.15544
 C368 C -0.05749 0.22647 -0.07543
 C369 C 0.05593 0.28022 -0.07861
 C370 C 0.47417 0.23321 0.15518
 H371 H 0.46514 0.24799 0.15461
 C372 C 0.46580 0.21551 0.16595
 H373 H 0.45028 0.21681 0.17366
 C374 C 0.50477 0.21320 0.14465
 H375 H 0.51977 0.21219 0.13603
 C376 C 0.49702 0.19517 0.15517
 H377 H 0.50639 0.18058 0.15482
 N378 N 0.49325 0.23170 0.14465
 C379 C 0.52262 0.29306 0.13382
 H380 H 0.52663 0.29140 0.11718
 C381 C 0.52974 0.31052 0.14466
 H382 H 0.53916 0.32234 0.13624
 C383 C 0.50542 0.27963 0.16496
 H384 H 0.49612 0.26741 0.17282
 C385 C 0.51199 0.29707 0.17639
 H386 H 0.50776 0.29816 0.19305
 Zn387 Zn 0.50277 0.25483 0.12751
 N388 N 0.51075 0.27803 0.14404
 C389 C 0.47428 0.28420 0.10798
 N390 N 0.48029 0.26339 0.10920
 C391 C 0.46971 0.24849 0.09839
 C392 C 0.45233 0.25436 0.08566
 C393 C 0.45714 0.29076 0.09538
 C394 C 0.54604 0.24512 0.12227
 C395 C 0.56474 0.23837 0.11200
 C396 C 0.54444 0.23383 0.08013
 C397 C 0.52614 0.24098 0.09097
 N398 N 0.52723 0.24617 0.11174
 H399 H 0.48254 0.29577 0.11699
 H400 H 0.47461 0.23199 0.09989
 H401 H 0.44405 0.24233 0.07718
 H402 H 0.45239 0.30735 0.09498
 H403 H 0.54647 0.24945 0.13877
 H404 H 0.57955 0.23795 0.12070
 H405 H 0.54306 0.22908 0.06383
 H406 H 0.51104 0.24198 0.08286
 C407 C 0.52446 0.31267 0.16621
 C408 C 0.47713 0.19606 0.16572
 C409 C 0.56409 0.23230 0.09070
 C410 C 0.44587 0.27577 0.08406
 C411 C 0.97150 0.73666 0.66155
 H412 H 0.96334 0.75192 0.66103
 C413 C 0.96266 0.71976 0.67323
 H414 H 0.94787 0.72227 0.68201
 C415 C 1.00030 0.71466 0.65011
 H416 H 1.01461 0.71249 0.64058
 C417 C 0.99206 0.69738 0.66156
 H418 H 1.00021 0.68214 0.66063
 N419 N 0.98991 0.73379 0.65016
 C420 C 1.01986 0.79419 0.63510
 H421 H 1.02286 0.79166 0.61839
 C422 C 1.02746 0.81229 0.64448
 H423 H 1.03621 0.82373 0.63484
 C424 C 1.00456 0.78237 0.66782
 H425 H 0.99577 0.77055 0.67684
 C426 C 1.01171 0.80046 0.67784
 H427 H 1.00844 0.80243 0.69461
 Zn428 Zn 0.99953 0.75590 0.63173
 N429 N 1.00861 0.77970 0.64676
 C430 C 0.97043 0.78481 0.61228
 N431 N 0.97663 0.76407 0.61378
 C432 C 0.96604 0.74889 0.60336
 C433 C 0.94854 0.75441 0.59067
 C434 C 0.95315 0.79103 0.59972
 C435 C 1.04207 0.74333 0.62599
 C436 C 1.06034 0.73619 0.61520
 C437 C 1.03971 0.73506 0.58311
 C438 C 1.02186 0.74246 0.59447
 N439 N 1.02329 0.74615 0.61558
 H440 H 0.97867 0.79660 0.62104
 H441 H 0.97111 0.73246 0.60506
 H442 H 0.94031 0.74216 0.58243
 H443 H 0.94827 0.80758 0.59905
 H444 H 1.04277 0.74652 0.64275
 H445 H 1.07507 0.73369 0.62382
 H446 H 1.03833 0.73207 0.56633
 H447 H 1.00689 0.74512 0.58642
 C448 C 1.02341 0.81563 0.66611
 C449 C 0.97282 0.69970 0.67307
 C450 C 1.05924 0.73181 0.59352
 C451 C 0.94193 0.77576 0.58871
 C452 C 0.52637 0.72790 0.36085
 H453 H 0.53764 0.73822 0.36808
 C454 C 0.53382 0.71003 0.35019
 H455 H 0.55088 0.70698 0.34906
 C456 C 0.49050 0.71941 0.35361
 H457 H 0.47361 0.72300 0.35543
 C458 C 0.49725 0.70127 0.34291
 H459 H 0.48538 0.69093 0.33663
 N460 N 0.50504 0.73207 0.36261
 C461 C 0.47832 0.79522 0.37394
 H462 H 0.47896 0.79518 0.39110
 C463 C 0.47108 0.81332 0.36292
 H464 H 0.46551 0.82654 0.37222
 C465 C 0.48399 0.77716 0.34185
 H466 H 0.48937 0.76309 0.33373
 C467 C 0.47675 0.79493 0.33010
 H468 H 0.47726 0.79408 0.31299
 Zn469 Zn 0.49517 0.75428 0.38001
 N470 N 0.48463 0.77763 0.36337
 C471 C 0.52742 0.78249 0.39080
 N472 N 0.51836 0.76371 0.39650
 C473 C 0.52637 0.75157 0.41281
 C474 C 0.54381 0.75840 0.42430
 C475 C 0.54477 0.78994 0.40189
 C476 C 0.45306 0.75289 0.39757
 C477 C 0.43615 0.74405 0.40920
 C478 C 0.45992 0.71567 0.42082
 C479 C 0.47632 0.72494 0.40877
 N480 N 0.47276 0.74338 0.39763
 H481 H 0.52153 0.79159 0.37730
 H482 H 0.51941 0.73650 0.41691
 H483 H 0.54982 0.74863 0.43734
 H484 H 0.55186 0.80480 0.39686
 H485 H 0.45013 0.76702 0.38800
 H486 H 0.42050 0.75159 0.40831
 H487 H 0.46326 0.70109 0.42967
 H488 H 0.49170 0.71697 0.40776
 C489 C 0.47022 0.81364 0.34052
 C490 C 0.51918 0.69615 0.34144
 C491 C 0.43941 0.72512 0.42101
 C492 C 0.55316 0.77789 0.41892
 C493 C 0.39705 -0.01890 0.27086
 H494 H 0.39661 -0.00427 0.27949
 C495 C 0.40836 -0.03655 0.27897
 H496 H 0.41656 -0.03534 0.29389
 C497 C 0.38571 -0.03856 0.24162
 H498 H 0.37652 -0.03947 0.22730
 C499 C 0.39680 -0.05656 0.24913
 H500 H 0.39634 -0.07099 0.24020
 N501 N 0.38593 -0.02023 0.25256
 C502 C 0.37423 0.04313 0.22545
 H503 H 0.35728 0.04187 0.22266
 C504 C 0.38488 0.06147 0.21906
 H505 H 0.37601 0.07415 0.21108
 C506 C 0.40632 0.02776 0.23880
 H507 H 0.41460 0.01455 0.24646
 C508 C 0.41764 0.04588 0.23267
 H509 H 0.43456 0.04653 0.23593
 Zn510 Zn 0.36843 0.00314 0.24378
 N511 N 0.38494 0.02685 0.23535
 C512 C 0.35001 0.03074 0.27387
 N513 N 0.35049 0.01044 0.26707
 C514 C 0.33964 -0.00510 0.27772
 C515 C 0.32787 -0.00048 0.29613
 C516 C 0.33828 0.03609 0.29199
 C517 C 0.36321 -0.00598 0.20136
 C518 C 0.35268 -0.01127 0.18293
 C519 C 0.31964 -0.01306 0.20318
 C520 C 0.33081 -0.00751 0.22126
 N521 N 0.35225 -0.00432 0.22004
 H522 H 0.35911 0.04280 0.26560
 H523 H 0.34056 -0.02119 0.27217
 H524 H 0.31952 -0.01304 0.30460
 H525 H 0.33853 0.05225 0.29739
 H526 H 0.38024 -0.00327 0.20085
 H527 H 0.36179 -0.01286 0.16829
 H528 H 0.30260 -0.01564 0.20435
 H529 H 0.32238 -0.00586 0.23623
 C530 C 0.40685 0.06313 0.22281
 C531 C 0.40809 -0.05581 0.26820
 C532 C 0.33063 -0.01497 0.18370
 C533 C 0.32720 0.02036 0.30350
 C534 C 0.08902 1.02625 0.77752
 H535 H 0.08759 1.01037 0.78417
 C536 C 0.07738 1.04303 0.78650
 H537 H 0.06668 1.03981 0.79979
 C538 C 0.10517 1.04982 0.75253
 H539 H 0.11656 1.05265 0.73983
 C540 C 0.09392 1.06698 0.76101
 H541 H 0.09683 1.08274 0.75454
 N542 N 0.10246 1.02987 0.76071
 C543 C 0.11424 0.97024 0.72843
 H544 H 0.13125 0.97209 0.72589
 C545 C 0.10408 0.95282 0.72025
 H546 H 0.11342 0.94124 0.71152
 C547 C 0.08157 0.98303 0.74322
 H548 H 0.07285 0.99495 0.75199
 C549 C 0.07077 0.96560 0.73551
 H550 H 0.05374 0.96424 0.73840
 Zn551 Zn 0.11955 1.00726 0.74990
 N552 N 0.10301 0.98484 0.73979
 C553 C 0.13743 0.97602 0.77768
 N554 N 0.13738 0.99696 0.77200
 C555 C 0.14952 1.01098 0.78235
 C556 C 0.16253 1.00404 0.79909
 C557 C 0.15035 0.96839 0.79413
 C558 C 0.12558 1.02508 0.70943
 C559 C 0.13677 1.03279 0.69168
 C560 C 0.16985 1.02263 0.70886
 C561 C 0.15801 1.01552 0.72653
 N562 N 0.13628 1.01711 0.72657
 H563 H 0.12736 0.96519 0.76959
 H564 H 0.14901 1.02758 0.77762
 H565 H 0.17218 1.01535 0.80715
 H566 H 0.15005 0.95170 0.79854
 H567 H 0.10828 1.02571 0.70973
 H568 H 0.12807 1.03943 0.67827
 H569 H 0.18715 1.02146 0.70898
 H570 H 0.16617 1.00866 0.74012
 C571 C 0.08209 0.95028 0.72382
 C572 C 0.07981 1.06377 0.77825
 C573 C 0.15916 1.03163 0.69133
 C574 C 0.16311 0.98246 0.80506
 C575 C 0.58699 0.52349 0.27897
 H576 H 0.58602 0.50802 0.28667
 C577 C 0.57513 0.54058 0.28701
 H578 H 0.56472 0.53798 0.30065
 C579 C 0.60220 0.54571 0.25218
 H580 H 0.61323 0.54785 0.23902
 C581 C 0.59074 0.56322 0.25974
 H582 H 0.59321 0.57860 0.25221
 N583 N 0.60023 0.52634 0.26188
 C584 C 0.61445 0.46463 0.23476
 H585 H 0.63153 0.46652 0.23278
 C586 C 0.60491 0.44626 0.22800
 H587 H 0.61477 0.43424 0.22048
 C588 C 0.58099 0.47845 0.24653
 H589 H 0.57175 0.49108 0.25371
 C590 C 0.57074 0.46018 0.24006
 H591 H 0.55366 0.45884 0.24259
 Zn592 Zn 0.61822 0.50356 0.25322
 N593 N 0.60254 0.48014 0.24408
 C594 C 0.63450 0.47459 0.28413
 N595 N 0.63520 0.49498 0.27669
 C596 C 0.64749 0.50952 0.28614
 C597 C 0.66036 0.50352 0.30332
 C598 C 0.64703 0.46795 0.30124
 C599 C 0.62575 0.51674 0.21128
 C600 C 0.63753 0.52314 0.19336
 C601 C 0.66969 0.52019 0.21411
 C602 C 0.65730 0.51367 0.23161
 N603 N 0.63570 0.51237 0.22997
 H604 H 0.62415 0.46340 0.27691
 H605 H 0.64748 0.52573 0.28014
 H606 H 0.67043 0.51518 0.31031
 H607 H 0.64609 0.45167 0.30698
 H608 H 0.60858 0.51534 0.21037
 H609 H 0.62928 0.52691 0.17871
 H610 H 0.68686 0.52119 0.21567
 H611 H 0.66501 0.50963 0.24642
 C612 C 0.58280 0.44366 0.23086
 C613 C 0.57714 0.56087 0.27753
 C614 C 0.65978 0.52506 0.19469
 C615 C 0.66038 0.48241 0.31095
 C616 C 0.89728 0.48218 0.77322
 H617 H 0.89740 0.49702 0.78146
 C618 C 0.90893 0.46466 0.78115
 H619 H 0.91804 0.46615 0.79551
 C620 C 0.88423 0.46183 0.74521
 H621 H 0.87423 0.46060 0.73148
 C622 C 0.89549 0.44393 0.75266
 H623 H 0.89434 0.42920 0.74430
 N624 N 0.88520 0.48046 0.75558
 C625 C 0.87196 0.54414 0.72965
 H626 H 0.85495 0.54267 0.72735
 C627 C 0.88205 0.56293 0.72371
 H628 H 0.87271 0.57576 0.71656
 C629 C 0.90474 0.52892 0.74144
 H630 H 0.91350 0.51560 0.74831
 C631 C 0.91552 0.54747 0.73567
 H632 H 0.93252 0.54833 0.73843
 Zn633 Zn 0.86730 0.50359 0.74695
 N634 N 0.88326 0.52775 0.73867
 C635 C 0.84876 0.53033 0.77779
 N636 N 0.84916 0.51029 0.77028
 C637 C 0.83791 0.49456 0.78017
 C638 C 0.82564 0.49875 0.79839
 C639 C 0.83661 0.53524 0.79577
 C640 C 0.86251 0.49407 0.70459
 C641 C 0.85229 0.48807 0.68622
 C642 C 0.81913 0.48604 0.70623
 C643 C 0.82997 0.49231 0.72424
 N644 N 0.85135 0.49588 0.72314
 H645 H 0.85824 0.54252 0.77018
 H646 H 0.83879 0.47866 0.77412
 H647 H 0.81688 0.48604 0.80616
 H648 H 0.83692 0.55119 0.80172
 H649 H 0.87948 0.49708 0.70418
 H650 H 0.86157 0.48627 0.67172
 H651 H 0.80215 0.48306 0.70733
 H652 H 0.82135 0.49410 0.73908
 C653 C 0.90409 0.56489 0.72690
 C654 C 0.90785 0.44513 0.77099
 C655 C 0.83035 0.48380 0.68692
 C656 C 0.82496 0.51933 0.80641
 C657 C 0.27411 0.40528 -0.01567
 H658 H 0.28196 0.40683 -0.00061
 C659 C 0.28223 0.41565 -0.03386
 H660 H 0.29634 0.42522 -0.03268
 C661 C 0.24700 0.38984 -0.03583
 H662 H 0.23364 0.37934 -0.03676
 C663 C 0.25465 0.39976 -0.05434
 H664 H 0.24676 0.39712 -0.06922
 N665 N 0.25683 0.39261 -0.01698
 C666 C 0.23018 0.38264 0.04674
 H667 H 0.22836 0.36565 0.04608
 C668 C 0.22347 0.39337 0.06477
 H669 H 0.21620 0.38451 0.07782
 C670 C 0.24139 0.41473 0.03011
 H671 H 0.24829 0.42295 0.01651
 C672 C 0.23491 0.42615 0.04793
 H673 H 0.23715 0.44312 0.04797
 Zn674 Zn 0.24793 0.37625 0.00707
 N675 N 0.23918 0.39332 0.03000
 C676 C 0.27989 0.36147 0.03497
 N677 N 0.27144 0.35880 0.01546
 C678 C 0.28083 0.34544 0.00133
 C679 C 0.29962 0.33424 0.00661
 C680 C 0.29861 0.35073 0.04083
 C681 C 0.20588 0.37203 -0.00386
 C682 C 0.18745 0.36243 -0.01073
 C683 C 0.20614 0.32857 -0.00914
 C684 C 0.22432 0.33889 -0.00222
 N685 N 0.22395 0.36032 -0.00022
 H686 H 0.27257 0.37250 0.04584
 H687 H 0.27407 0.34396 -0.01427
 H688 H 0.30724 0.32409 -0.00498
 H689 H 0.30518 0.35327 0.05636
 H690 H 0.20599 0.38902 -0.00187
 H691 H 0.17331 0.37213 -0.01374
 H692 H 0.20684 0.31161 -0.01138
 H693 H 0.23878 0.32984 0.00106
 C694 C 0.22598 0.41540 0.06566
 C695 C 0.27266 0.41261 -0.05357
 C696 C 0.18754 0.34049 -0.01390
 C697 C 0.30892 0.33718 0.02646
 C698 C 0.77397 0.08824 1.02512
 H699 H 0.78273 0.08678 1.01028
 C700 C 0.78082 0.07692 1.04320
 H701 H 0.79490 0.06673 1.04214
 C702 C 0.74582 0.10438 1.04483
 H703 H 0.73246 0.11543 1.04556
 C704 C 0.75214 0.09345 1.06326
 H705 H 0.74329 0.09592 1.07791
 N706 N 0.75684 0.10175 1.02628
 C707 C 0.73269 0.11487 0.96262
 H708 H 0.73174 0.13198 0.96331
 C709 C 0.72576 0.10475 0.94461
 H710 H 0.71921 0.11422 0.93161
 C711 C 0.74189 0.08186 0.97911
 H712 H 0.74813 0.07304 0.99264
 C713 C 0.73509 0.07104 0.96135
 H714 H 0.73639 0.05391 0.96130
 Zn715 Zn 0.75008 0.11929 1.00242
 N716 N 0.74081 0.10341 0.97927
 C717 C 0.78278 0.13298 0.97420
 N718 N 0.77507 0.13418 0.99443
 C719 C 0.78568 0.14489 1.00941
 C720 C 0.80474 0.15515 1.00417
 C721 C 0.80168 0.14303 0.96828
 C722 C 0.70770 0.12965 1.01149
 C723 C 0.69019 0.14211 1.01769
 C724 C 0.71361 0.17200 1.02001
 C725 C 0.73067 0.15900 1.01346
 N726 N 0.72748 0.13815 1.00973
 H727 H 0.77447 0.12406 0.96259
 H728 H 0.77946 0.14521 1.02551
 H729 H 0.81312 0.16333 1.01637
 H730 H 0.80730 0.14210 0.95200
 H731 H 0.70564 0.11301 1.00842
 H732 H 0.67465 0.13495 1.01951
 H733 H 0.71638 0.18848 1.02331
 H734 H 0.74646 0.16551 1.01173
 C735 C 0.72706 0.08255 0.94372
 C736 C 0.77005 0.07974 1.06268
 C737 C 0.69310 0.16349 1.02231
 C738 C 0.81301 0.15420 0.98336
 C739 C 0.27267 0.59033 0.52492
 H740 H 0.28185 0.59069 0.51024
 C741 C 0.28049 0.57906 0.54263
 H742 H 0.29577 0.57082 0.54143
 C743 C 0.24226 0.60184 0.54463
 H744 H 0.22751 0.61097 0.54544
 C745 C 0.24942 0.59074 0.56267
 H746 H 0.23987 0.59121 0.57712
 N747 N 0.25400 0.60162 0.52631
 C748 C 0.22523 0.61394 0.46466
 H749 H 0.22246 0.63085 0.46585
 C750 C 0.21805 0.60340 0.44701
 H751 H 0.20949 0.61232 0.43483
 C752 C 0.23934 0.58184 0.47947
 H753 H 0.24767 0.57355 0.49217
 C754 C 0.23245 0.57064 0.46201
 H755 H 0.23576 0.55376 0.46134
 Zn756 Zn 0.24553 0.61930 0.50315
 N757 N 0.23587 0.60316 0.48032
 C758 C 0.27419 0.63734 0.47298
 N759 N 0.26945 0.63536 0.49405
 C760 C 0.28244 0.64344 0.50887
 C761 C 0.30121 0.65372 0.50268
 C762 C 0.29261 0.64768 0.46610
 C763 C 0.20265 0.62969 0.51104
 C764 C 0.18521 0.64186 0.51797
 C765 C 0.20953 0.66937 0.52729
 C766 C 0.22653 0.65676 0.51991
 N767 N 0.22280 0.63729 0.51205
 H768 H 0.26389 0.63070 0.46138
 H769 H 0.27850 0.64137 0.52556
 H770 H 0.31166 0.65944 0.51476
 H771 H 0.29587 0.64922 0.44922
 H772 H 0.20015 0.61401 0.50506
 H773 H 0.16931 0.63543 0.51731
 H774 H 0.21270 0.68479 0.53362
 H775 H 0.24269 0.66241 0.52070
 C776 C 0.22182 0.58149 0.44538
 C777 C 0.26897 0.57946 0.56194
 C778 C 0.18856 0.66191 0.52634
 C779 C 0.30664 0.65574 0.48101
 C780 C 0.77052 0.90207 0.48511
 H781 H 0.77812 0.90374 0.50029
 C782 C 0.77885 0.91241 0.46700
 H783 H 0.79288 0.92206 0.46835
 C784 C 0.74379 0.88642 0.46465
 H785 H 0.73048 0.87587 0.46357
 C786 C 0.75162 0.89633 0.44620
 H787 H 0.74392 0.89363 0.43124
 N788 N 0.75332 0.88933 0.48361
 C789 C 0.72621 0.88000 0.54727
 H790 H 0.72476 0.86295 0.54700
 C791 C 0.71942 0.89101 0.56511
 H792 H 0.71247 0.88232 0.57844
 C793 C 0.73668 0.91196 0.52987
 H794 H 0.74335 0.92003 0.51605
 C795 C 0.73000 0.92366 0.54743
 H796 H 0.73182 0.94070 0.54707
 Zn797 Zn 0.74410 0.87316 0.50768
 N798 N 0.73495 0.89049 0.53027
 C799 C 0.77583 0.85908 0.53613
 N800 N 0.76756 0.85591 0.51663
 C801 C 0.77716 0.84226 0.50290
 C802 C 0.79597 0.83130 0.50859
 C803 C 0.79455 0.84858 0.54239
 C804 C 0.70227 0.86886 0.49616
 C805 C 0.68398 0.85928 0.48893
 C806 C 0.70257 0.82538 0.49099
 C807 C 0.72063 0.83568 0.49824
 N808 N 0.72025 0.85713 0.50017
 H809 H 0.76841 0.87036 0.54666
 H810 H 0.77057 0.84039 0.48728
 H811 H 0.80377 0.82092 0.49731
 H812 H 0.80097 0.85154 0.55790
 H813 H 0.70238 0.88585 0.49807
 H814 H 0.66993 0.86900 0.48560
 H815 H 0.70328 0.80841 0.48880
 H816 H 0.73501 0.82663 0.50181
 C817 C 0.72145 0.91312 0.56544
 C818 C 0.76955 0.90928 0.44717
 C819 C 0.68410 0.83733 0.48581
 C820 C 0.80507 0.83476 0.52843
 C821 C -0.01768 0.26812 0.39200
 H822 H -0.00259 0.27624 0.39145
 C823 C -0.03474 0.27618 0.40410
 H824 H -0.03264 0.29055 0.41284
 C825 C -0.03909 0.24023 0.38024
 H826 H -0.04092 0.22647 0.37061
 C827 C -0.05655 0.24777 0.39204
 H828 H -0.07151 0.23943 0.39166
 N829 N -0.02015 0.25048 0.38033
 C830 C 0.04219 0.22195 0.36592
 H831 H 0.04005 0.21982 0.34911
 C832 C 0.06073 0.21428 0.37567
 H833 H 0.07290 0.20636 0.36621
 C834 C 0.02890 0.23508 0.39858
 H835 H 0.01634 0.24300 0.40746
 C836 C 0.04735 0.22780 0.40897
 H837 H 0.04882 0.23011 0.42586
 Zn838 Zn 0.00243 0.24160 0.36204
 N839 N 0.02679 0.23221 0.37738
 C840 C 0.03032 0.27164 0.34353
 N841 N 0.00977 0.26496 0.34416
 C842 C -0.00587 0.27564 0.33331
 C843 C -0.00108 0.29390 0.32128
 C844 C 0.03582 0.28968 0.33164
 C845 C -0.00828 0.19965 0.35693
 C846 C -0.01428 0.18150 0.34653
 C847 C -0.01647 0.20222 0.31384
 C848 C -0.01016 0.22000 0.32486
 N849 N -0.00642 0.21841 0.34607
 H850 H 0.04245 0.26332 0.35264
 H851 H -0.02215 0.27017 0.33435
 H852 H -0.01372 0.30231 0.31284
 H853 H 0.05217 0.29501 0.33183
 H854 H -0.00509 0.19884 0.37377
 H855 H -0.01592 0.16676 0.35552
 H856 H -0.01946 0.20366 0.29697
 H857 H -0.00830 0.23500 0.31647
 C858 C 0.06351 0.21719 0.39746
 C859 C -0.05459 0.26612 0.40399
 C860 C -0.01850 0.18265 0.32472
 C861 C 0.02001 0.30117 0.32043
 C862 C 1.02683 0.77644 0.08623
 H863 H 1.01142 0.78448 0.08547
 C864 C 1.04447 0.78507 0.07554
 H865 H 1.04244 0.79960 0.06624
 C866 C 1.04832 0.74810 0.09992
 H867 H 1.04992 0.73403 0.10991
 C868 C 1.06634 0.75611 0.08940
 H869 H 1.08163 0.74806 0.09144
 N870 N 1.02909 0.75839 0.09829
 C871 C 0.96778 0.72851 0.10958
 H872 H 0.96888 0.72654 0.12664
 C873 C 0.95077 0.71980 0.09898
 H874 H 0.93872 0.71120 0.10798
 C875 C 0.98225 0.74215 0.07717
 H876 H 0.99472 0.75067 0.06877
 C877 C 0.96525 0.73393 0.06592
 H878 H 0.96472 0.73613 0.04883
 Zn879 Zn 1.00562 0.74939 0.11523
 N880 N 0.98311 0.73936 0.09864
 C881 C 0.97505 0.77962 0.12894
 N882 N 0.99571 0.77288 0.13093
 C883 C 1.00966 0.78346 0.14302
 C884 C 1.00287 0.80143 0.15399
 C885 C 0.96765 0.79755 0.13947
 C886 C 1.01738 0.70755 0.12424
 C887 C 1.02291 0.68967 0.13652
 C888 C 1.02223 0.71140 0.16761
 C889 C 1.01632 0.72884 0.15476
 N890 N 1.01422 0.72664 0.13346
 H891 H 0.96428 0.77127 0.11898
 H892 H 1.02614 0.77804 0.14396
 H893 H 1.01419 0.80980 0.16341
 H894 H 0.95111 0.80258 0.13778
 H895 H 1.01544 0.70623 0.10729
 H896 H 1.02544 0.67458 0.12894
 H897 H 1.02391 0.71331 0.18454
 H898 H 1.01338 0.74404 0.16185
 C899 C 0.94938 0.72242 0.07688
 C900 C 1.06462 0.77502 0.07730
 C901 C 1.02545 0.69152 0.15847
 C902 C 0.98164 0.80874 0.15213
 C903 C 0.52426 0.27838 0.58673
 H904 H 0.50882 0.28626 0.58536
 C905 C 0.54199 0.28662 0.57585
 H906 H 0.54001 0.30068 0.56582
 C907 C 0.54575 0.25093 0.60208
 H908 H 0.54742 0.23753 0.61293
 C909 C 0.56384 0.25853 0.59139
 H910 H 0.57916 0.25072 0.59404
 N911 N 0.52642 0.26085 0.59957
 C912 C 0.46293 0.23500 0.61054
 H913 H 0.46402 0.23304 0.62759
 C914 C 0.44475 0.22846 0.60023
 H915 H 0.43209 0.22113 0.60953
 C916 C 0.47863 0.24636 0.57786
 H917 H 0.49194 0.25327 0.56925
 C918 C 0.46056 0.24012 0.56685
 H919 H 0.46005 0.24254 0.54980
 Zn920 Zn 0.50243 0.25222 0.61616
 N921 N 0.47931 0.24394 0.59937
 C922 C 0.47371 0.28392 0.63096
 N923 N 0.49378 0.27550 0.63280
 C924 C 0.50821 0.28390 0.64604
 C925 C 0.50247 0.30118 0.65850
 C926 C 0.46730 0.30114 0.64312
 C927 C 0.51664 0.21057 0.62445
 C928 C 0.52185 0.19253 0.63667
 C929 C 0.51104 0.21135 0.66809
 C930 C 0.50646 0.22919 0.65528
 N931 N 0.50957 0.22856 0.63390
 H932 H 0.46264 0.27742 0.61994
 H933 H 0.52415 0.27704 0.64699
 H934 H 0.51403 0.30743 0.66923
 H935 H 0.45130 0.30772 0.64128
 H936 H 0.51851 0.21035 0.60736
 H937 H 0.52829 0.17874 0.62876
 H938 H 0.50803 0.21215 0.68501
 H939 H 0.50006 0.24339 0.66243
 C940 C 0.44321 0.23118 0.57811
 C941 C 0.56215 0.27675 0.57826
 C942 C 0.51908 0.19270 0.65887
 C943 C 0.48170 0.30992 0.65722
 C944 C 0.48555 0.76917 0.89774
 H945 H 0.50080 0.77698 0.89771
 C946 C 0.46822 0.77761 0.90920
 H947 H 0.47028 0.79196 0.91797
 C948 C 0.46401 0.74171 0.88526
 H949 H 0.46221 0.72798 0.87559
 C950 C 0.44633 0.74959 0.89645
 H951 H 0.43126 0.74151 0.89558
 N952 N 0.48315 0.75154 0.88603
 C953 C 0.54446 0.71980 0.87451
 H954 H 0.54269 0.71710 0.85774
 C955 C 0.56233 0.71165 0.88510
 H956 H 0.57434 0.70272 0.87636
 C957 C 0.53107 0.73508 0.90615
 H958 H 0.51878 0.74411 0.91430
 C959 C 0.54888 0.72741 0.91733
 H960 H 0.55013 0.73052 0.93410
 Zn961 Zn 0.50620 0.74197 0.86864
 N962 N 0.52934 0.73135 0.88507
 C963 C 0.53627 0.77097 0.85256
 N964 N 0.51545 0.76531 0.85169
 C965 C 0.50093 0.77729 0.84058
 C966 C 0.50713 0.79612 0.83022
 C967 C 0.54313 0.78955 0.84246
 C968 C 0.49357 0.70085 0.86259
 C969 C 0.48558 0.68357 0.85210
 C970 C 0.48531 0.70466 0.81956
 C971 C 0.49340 0.72161 0.83073
 N972 N 0.49691 0.71950 0.85194
 H973 H 0.54755 0.76146 0.86164
 H974 H 0.48438 0.77262 0.84044
 H975 H 0.49526 0.80588 0.82207
 H976 H 0.55975 0.79385 0.84356
 H977 H 0.49674 0.69957 0.87941
 H978 H 0.48291 0.66892 0.86096
 H979 H 0.48189 0.70676 0.80284
 H980 H 0.49639 0.73654 0.82255
 C981 C 0.56477 0.71553 0.90675
 C982 C 0.44820 0.76793 0.90842
 C983 C 0.48094 0.68545 0.83039
 C984 C 0.52841 0.80266 0.83151
 C985 C 0.44703 -0.13110 0.30701
 C986 C 0.44627 -0.15111 0.29781
 C987 C 0.45417 -0.16921 0.30857
 C988 C 0.46296 -0.16791 0.32906
 C989 C 0.46402 -0.14755 0.33791
 C990 C 0.45619 -0.12953 0.32708
 C991 C 0.43769 -0.11200 0.29611
 C992 C 0.44786 -0.09232 0.29676
 C993 C 0.43844 -0.07415 0.28747
 C994 C 0.41865 -0.07523 0.27729
 C995 C 0.40866 -0.09497 0.27636
 C996 C 0.41807 -0.11313 0.28564
 H997 H 0.45233 -0.18426 0.30102
 H998 H 0.47143 -0.14515 0.35304
 H999 H 0.44670 -0.05925 0.28818
 H1000 H 0.39323 -0.09630 0.26898
 H1001 H 0.45698 -0.11434 0.33466
 H1002 H 0.46314 -0.09099 0.30443
 H1003 H 0.43944 -0.15282 0.28225
 H1004 H 0.40965 -0.12795 0.28517
 C1005 C 0.94831 0.37018 0.80894
 C1006 C 0.94474 0.34973 0.80142
 C1007 C 0.95300 0.33177 0.81213
 C1008 C 0.96511 0.33382 0.83058
 C1009 C 0.96918 0.35429 0.83773
 C1010 C 0.96083 0.37222 0.82710
 C1011 C 0.93839 0.38924 0.79839
 C1012 C 0.94929 0.40856 0.79691
 C1013 C 0.93947 0.42669 0.78792
 C1014 C 0.91862 0.42585 0.78003
 C1015 C 0.90784 0.40651 0.78123
 C1016 C 0.91757 0.38845 0.79035
 H1017 H 0.94942 0.31627 0.80625
 H1018 H 0.97877 0.35649 0.85166
 H1019 H 0.94824 0.44133 0.78698
 H1020 H 0.89162 0.40547 0.77560
 H1021 H 0.96375 0.38766 0.83349
 H1022 H 0.96546 0.40967 0.80263
 H1023 H 0.93545 0.34758 0.78729
 H1024 H 0.90853 0.37400 0.79161
 C1025 C 0.04286 1.13885 0.81662
 C1026 C 0.02600 1.15087 0.80757
 C1027 C 0.01912 1.16993 0.81655
 C1028 C 0.02892 1.17742 0.83480
 C1029 C 0.04566 1.16530 0.84392
 C1030 C 0.05258 1.14631 0.83492
 C1031 C 0.05075 1.11893 0.80677
 C1032 C 0.05754 1.10150 0.81947
 C1033 C 0.06640 1.08336 0.81022
 C1034 C 0.06863 1.08219 0.78805
 C1035 C 0.06115 1.09932 0.77534
 C1036 C 0.05237 1.11748 0.78458
 H1037 H 0.00629 1.17894 0.80903
 H1038 H 0.05334 1.17039 0.85818
 H1039 H 0.07214 1.07055 0.82049
 H1040 H 0.06233 1.09881 0.75819
 H1041 H 0.06580 1.13764 0.84214
 H1042 H 0.05619 1.10195 0.83660
 H1043 H 0.01803 1.14548 0.79360
 H1044 H 0.04746 1.13064 0.77432
 C1045 C 0.54093 0.63734 0.31396
 C1046 C 0.52374 0.64896 0.30501
 C1047 C 0.51673 0.66809 0.31379
 C1048 C 0.52673 0.67603 0.33173
 C1049 C 0.54387 0.66436 0.34067
 C1050 C 0.55092 0.64533 0.33187
 C1051 C 0.54872 0.61715 0.30458
 C1052 C 0.55581 0.60017 0.31771
 C1053 C 0.56450 0.58174 0.30894
 C1054 C 0.56621 0.57974 0.28680
 C1055 C 0.55846 0.59643 0.27366
 C1056 C 0.54986 0.61492 0.28244
 H1057 H 0.50360 0.67674 0.30640
 H1058 H 0.55173 0.66980 0.35469
 H1059 H 0.57050 0.56933 0.31955
 H1060 H 0.55925 0.59530 0.25655
 H1061 H 0.56440 0.63699 0.33899
 H1062 H 0.55483 0.60120 0.33482
 H1063 H 0.51557 0.64317 0.29133
 H1064 H 0.54468 0.62772 0.27185
 C1065 C 0.54726 0.36705 0.19840
 C1066 C 0.56118 0.35468 0.18591
 C1067 C 0.55377 0.33692 0.17570
 C1068 C 0.53231 0.33101 0.17790
 C1069 C 0.51843 0.34310 0.19072
 C1070 C 0.52580 0.36109 0.20075
 C1071 C 0.55523 0.38634 0.20845
 C1072 C 0.54383 0.40569 0.20678
 C1073 C 0.55248 0.42427 0.21449
 C1074 C 0.57264 0.42381 0.22413
 C1075 C 0.58353 0.40422 0.22659
 C1076 C 0.57498 0.38574 0.21875
 H1077 H 0.56482 0.32778 0.16602
 H1078 H 0.50178 0.33891 0.19256
 H1079 H 0.54374 0.43910 0.21219
 H1080 H 0.59881 0.40318 0.23445
 H1081 H 0.51479 0.37033 0.21038
 H1082 H 0.52863 0.40659 0.19876
 H1083 H 0.57775 0.35902 0.18367
 H1084 H 0.58392 0.37096 0.22057
 C1085 C 0.04642 0.87313 0.69259
 C1086 C 0.02567 0.86614 0.69755
 C1087 C 0.01831 0.84715 0.68945
 C1088 C 0.03152 0.83488 0.67614
 C1089 C 0.05241 0.84157 0.67166
 C1090 C 0.05980 0.86039 0.67985
 C1091 C 0.05419 0.89369 0.70030
 C1092 C 0.06730 0.90643 0.68715
 C1093 C 0.07585 0.92505 0.69466
 C1094 C 0.07135 0.93153 0.71543
 C1095 C 0.05756 0.91935 0.72835
 C1096 C 0.04910 0.90055 0.72089
 H1097 H 0.00208 0.84241 0.69302
 H1098 H 0.06307 0.83221 0.66177
 H1099 H 0.08613 0.93435 0.68424
 H1100 H 0.05397 0.92393 0.74449
 H1101 H 0.07606 0.86496 0.67620
 H1102 H 0.07106 0.90195 0.67103
 H1103 H 0.01491 0.87564 0.70719
 H1104 H 0.03917 0.89106 0.73147
 C1105 C 0.94419 0.64356 0.70058
 C1106 C 0.93147 0.65950 0.69081
 C1107 C 0.94069 0.67795 0.68244
 C1108 C 0.96284 0.68093 0.68363
 C1109 C 0.97549 0.66523 0.69387
 C1110 C 0.96628 0.64674 0.70222
 C1111 C 0.93449 0.62344 0.70835
 C1112 C 0.94489 0.60384 0.70494
 C1113 C 0.93521 0.58484 0.71123
 C1114 C 0.91491 0.58503 0.72107
 C1115 C 0.90474 0.60465 0.72490
 C1116 C 0.91440 0.62362 0.71861
 H1117 H 0.93054 0.68955 0.67434
 H1118 H 0.99257 0.66719 0.69532
 H1119 H 0.94335 0.56998 0.70785
 H1120 H 0.88929 0.60535 0.73284
 H1121 H 0.97644 0.63492 0.70996
 H1122 H 0.96024 0.60315 0.69682
 H1123 H 0.91446 0.65739 0.68900
 H1124 H 0.90615 0.63847 0.72181
 C1125 C 0.44944 0.13936 0.19309
 C1126 C 0.44772 0.15868 0.20374
 C1127 C 0.45680 0.17708 0.19498
 C1128 C 0.46785 0.17654 0.17542
 C1129 C 0.46968 0.15719 0.16488
 C1130 C 0.46059 0.13885 0.17359
 C1131 C 0.43911 0.11993 0.20185
 C1132 C 0.44922 0.09994 0.20007
 C1133 C 0.43894 0.08154 0.20719
 C1134 C 0.41831 0.08271 0.21626
 C1135 C 0.40843 0.10275 0.21850
 C1136 C 0.41869 0.12113 0.21136
 H1137 H 0.45533 0.19170 0.20359
 H1138 H 0.47772 0.15633 0.14958
 H1139 H 0.44694 0.06635 0.20511
 H1140 H 0.39268 0.10423 0.22571
 H1141 H 0.46183 0.12435 0.16476
 H1142 H 0.46507 0.09850 0.19307
 H1143 H 0.43947 0.15955 0.21892
 H1144 H 0.41037 0.13624 0.21281
 C1145 C 0.31087 0.44654 -0.13105
 C1146 C 0.30522 0.46664 -0.13955
 C1147 C 0.31499 0.47427 -0.15827
 C1148 C 0.33079 0.46206 -0.16863
 C1149 C 0.33640 0.44198 -0.16010
 C1150 C 0.32649 0.43427 -0.14157
 C1151 C 0.30053 0.43823 -0.11132
 C1152 C 0.29358 0.41720 -0.11012
 C1153 C 0.28439 0.40903 -0.09143
 C1154 C 0.28206 0.42167 -0.07345
 C1155 C 0.28898 0.44274 -0.07461
 C1156 C 0.29800 0.45100 -0.09344
 H1157 H 0.31050 0.48987 -0.16444
 H1158 H 0.34841 0.43218 -0.16786
 H1159 H 0.27942 0.39267 -0.09091
 H1160 H 0.28727 0.45283 -0.06101
 H1161 H 0.33126 0.41880 -0.13528
 H1162 H 0.29521 0.40707 -0.12371
 H1163 H 0.29311 0.47634 -0.13182
 H1164 H 0.30338 0.46722 -0.09392
 C1165 C 0.80832 0.94352 0.37005
 C1166 C 0.82369 0.93113 0.35931
 C1167 C 0.83364 0.93889 0.34083
 C1168 C 0.82836 0.95916 0.33257
 C1169 C 0.81285 0.97152 0.34317
 C1170 C 0.80301 0.96382 0.36182
 C1171 C 0.79787 0.93513 0.38970
 C1172 C 0.79532 0.94778 0.40766
 C1173 C 0.78614 0.93945 0.42639
 C1174 C 0.77912 0.91841 0.42739
 C1175 C 0.78149 0.90588 0.40933
 C1176 C 0.79080 0.91413 0.39073
 H1177 H 0.84541 0.92895 0.33289
 H1178 H 0.80861 0.98726 0.33722
 H1179 H 0.78440 0.94947 0.44004
 H1180 H 0.77646 0.88954 0.40971
 H1181 H 0.79110 0.97363 0.36971
 H1182 H 0.80079 0.96397 0.40733
 H1183 H 0.82822 0.91551 0.36539
 H1184 H 0.79241 0.90408 0.37708
 C1185 C 0.80507 0.04083 1.13922
 C1186 C 0.79679 0.04503 1.15955
 C1187 C 0.80677 0.03667 1.17773
 C1188 C 0.82536 0.02369 1.17616
 C1189 C 0.83340 0.01945 1.15556
 C1190 C 0.82344 0.02790 1.13748
 C1191 C 0.79506 0.05038 1.11988
 C1192 C 0.79396 0.03884 1.10110
 C1193 C 0.78563 0.04825 1.08259
 C1194 C 0.77809 0.06936 1.08248
 C1195 C 0.77883 0.08077 1.10135
 C1196 C 0.78724 0.07140 1.11981
 H1197 H 0.79929 0.03992 1.19290
 H1198 H 0.84808 0.01050 1.15311
 H1199 H 0.78500 0.03898 1.06837
 H1200 H 0.77347 0.09718 1.10168
 H1201 H 0.83059 0.02480 1.12209
 H1202 H 0.79953 0.02250 1.10071
 H1203 H 0.78239 0.05462 1.16143
 H1204 H 0.78818 0.08086 1.13388
 C1205 C 0.30645 0.54114 0.63759
 C1206 C 0.29611 0.54163 0.65754
 C1207 C 0.30634 0.53357 0.67569
 C1208 C 0.32715 0.52487 0.67429
 C1209 C 0.33740 0.52429 0.65430
 C1210 C 0.32717 0.53229 0.63618
 C1211 C 0.29598 0.55037 0.61839
 C1212 C 0.29781 0.54025 0.59879
 C1213 C 0.28878 0.54948 0.58052
 C1214 C 0.27775 0.56906 0.58146
 C1215 C 0.27570 0.57902 0.60114
 C1216 C 0.28468 0.56977 0.61938
 H1217 H 0.29790 0.53399 0.69080
 H1218 H 0.35359 0.51810 0.65272
 H1219 H 0.29037 0.54126 0.56568
 H1220 H 0.26767 0.59429 0.60235
 H1221 H 0.33570 0.53204 0.62111
 H1222 H 0.30618 0.52514 0.59759
 H1223 H 0.28004 0.54813 0.65908
 H1224 H 0.28330 0.57812 0.63417
 C1225 C 0.18921 0.54026 0.37156
 C1226 C 0.16959 0.52983 0.37350
 C1227 C 0.15964 0.52214 0.35560
 C1228 C 0.16900 0.52478 0.33531
 C1229 C 0.18893 0.53463 0.33345
 C1230 C 0.19893 0.54225 0.35137
 C1231 C 0.19885 0.55004 0.39033
 C1232 C 0.20831 0.57003 0.38835
 C1233 C 0.21615 0.57996 0.40613
 C1234 C 0.21463 0.57021 0.42638
 C1235 C 0.20565 0.54998 0.42833
 C1236 C 0.19784 0.54001 0.41050
 H1237 H 0.14446 0.51431 0.35763
 H1238 H 0.19651 0.53707 0.31806
 H1239 H 0.22330 0.59538 0.40402
 H1240 H 0.20414 0.54210 0.44372
 H1241 H 0.21419 0.54993 0.34937
 H1242 H 0.20912 0.57833 0.37313
 H1243 H 0.16156 0.52820 0.38877
 H1244 H 0.19089 0.52449 0.41252
 C1245 C 0.69249 0.04431 0.86928
 C1246 C 0.70321 0.04360 0.84958
 C1247 C 0.69277 0.03687 0.83150
 C1248 C 0.67113 0.03078 0.83252
 C1249 C 0.66075 0.03101 0.85261
 C1250 C 0.67124 0.03769 0.87061
 C1251 C 0.70295 0.05291 0.88820
 C1252 C 0.69948 0.04377 0.90851
 C1253 C 0.70777 0.05303 0.92651
 C1254 C 0.71970 0.07166 0.92458
 C1255 C 0.72379 0.08036 0.90420
 C1256 C 0.71550 0.07110 0.88623
 H1257 H 0.70158 0.03757 0.81664
 H1258 H 0.64458 0.02556 0.85485
 H1259 H 0.70426 0.04601 0.94198
 H1260 H 0.73321 0.09451 0.90216
 H1261 H 0.66248 0.03810 0.88553
 H1262 H 0.69010 0.02958 0.91052
 H1263 H 0.71969 0.04847 0.84808
 H1264 H 0.71833 0.07864 0.87085
 C1265 C 0.68896 0.95563 0.63995
 C1266 C 0.66784 0.96356 0.63945
 C1267 C 0.65825 0.97197 0.65761
 C1268 C 0.66955 0.97271 0.67670
 C1269 C 0.69075 0.96497 0.67717
 C1270 C 0.70036 0.95653 0.65898
 C1271 C 0.69864 0.94567 0.62089
 C1272 C 0.71074 0.92678 0.62292
 C1273 C 0.71854 0.91652 0.60494
 C1274 C 0.71444 0.92491 0.58449
 C1275 C 0.70290 0.94414 0.58245
 C1276 C 0.69504 0.95440 0.60046
 H1277 H 0.64176 0.97741 0.65681
 H1278 H 0.69996 0.96558 0.69156
 H1279 H 0.72766 0.90188 0.60703
 H1280 H 0.69939 0.95094 0.56691
 H1281 H 0.71674 0.95076 0.65978
 H1282 H 0.71364 0.91957 0.63841
 H1283 H 0.65849 0.96271 0.62517
 H1284 H 0.68598 0.96908 0.59841
 C1285 C 0.19326 0.45677 0.14082
 C1286 C 0.17282 0.46633 0.13979
 C1287 C 0.16289 0.47424 0.15801
 C1288 C 0.17310 0.47272 0.17772
 C1289 C 0.19366 0.46346 0.17876
 C1290 C 0.20367 0.45563 0.16049
 C1291 C 0.20313 0.44711 0.12166
 C1292 C 0.21424 0.42759 0.12334
 C1293 C 0.22214 0.41765 0.10522
 C1294 C 0.21904 0.42690 0.08494
 C1295 C 0.20852 0.44673 0.08328
 C1296 C 0.20066 0.45673 0.10144
 H1297 H 0.14689 0.48097 0.15678
 H1298 H 0.20202 0.46232 0.19369
 H1299 H 0.23050 0.40256 0.10708
 H1300 H 0.20578 0.45422 0.06790
 H1301 H 0.21955 0.44865 0.16177
 H1302 H 0.21626 0.41964 0.13862
 H1303 H 0.16418 0.46710 0.12502
 H1304 H 0.19244 0.47190 0.09963
 C1305 C -0.12791 0.30414 0.44691
 C1306 C -0.12534 0.32294 0.45806
 C1307 C -0.14303 0.33356 0.46681
 C1308 C -0.16376 0.32571 0.46459
 C1309 C -0.16628 0.30662 0.45392
 C1310 C -0.14856 0.29596 0.44520
 C1311 C -0.10923 0.29362 0.43640
 C1312 C -0.11126 0.28501 0.41617
 C1313 C -0.09359 0.27590 0.40583
 C1314 C -0.07343 0.27521 0.41542
 C1315 C -0.07139 0.28366 0.43571
 C1316 C -0.08910 0.29272 0.44611
 H1317 H -0.14049 0.34805 0.47522
 H1318 H -0.18202 0.30021 0.45178
 H1319 H -0.09561 0.26988 0.39004
 H1320 H -0.05612 0.28312 0.44361
 H1321 H -0.15107 0.28135 0.43698
 H1322 H -0.12640 0.28582 0.40804
 H1323 H -0.10971 0.32979 0.45952
 H1324 H -0.08706 0.29893 0.46181
 C1325 C 0.37378 0.80634 0.94900
 C1326 C 0.37586 0.82541 0.95979
 C1327 C 0.35784 0.83603 0.96787
 C1328 C 0.33729 0.82784 0.96535
 C1329 C 0.33526 0.80845 0.95512
 C1330 C 0.35329 0.79783 0.94702
 C1331 C 0.39277 0.79588 0.93906
 C1332 C 0.39131 0.78717 0.91882
 C1333 C 0.40925 0.77802 0.90902
 C1334 C 0.42912 0.77734 0.91919
 C1335 C 0.43060 0.78596 0.93947
 C1336 C 0.41261 0.79511 0.94931
 H1337 H 0.35997 0.85078 0.97595
 H1338 H 0.31966 0.80179 0.95279
 H1339 H 0.40767 0.77190 0.89322
 H1340 H 0.44563 0.78545 0.94781
 H1341 H 0.35119 0.78301 0.93905
 H1342 H 0.37640 0.78790 0.91030
 H1343 H 0.39137 0.83249 0.96144
 H1344 H 0.41420 0.80146 0.96501
 C1345 C 1.14137 0.81317 0.04210
 C1346 C 1.14042 0.83317 0.03182
 C1347 C 1.15897 0.84266 0.02392
 C1348 C 1.17898 0.83235 0.02595
 C1349 C 1.17998 0.81232 0.03619
 C1350 C 1.16138 0.80284 0.04418
 C1351 C 1.12157 0.80333 0.05080
 C1352 C 1.11841 0.78140 0.04941
 C1353 C 1.09983 0.77222 0.05777
 C1354 C 1.08396 0.78478 0.06760
 C1355 C 1.08704 0.80671 0.06884
 C1356 C 1.10564 0.81587 0.06059
 H1357 H 1.15763 0.85824 0.01643
 H1358 H 1.19510 0.80388 0.03787
 H1359 H 1.09779 0.75530 0.05640
 H1360 H 1.07530 0.81674 0.07670
 H1361 H 1.16271 0.78752 0.05223
 H1362 H 1.13021 0.77135 0.04167
 H1363 H 1.12526 0.84147 0.02971
 H1364 H 1.10772 0.83274 0.06229
 C1365 C 0.63951 0.31256 0.54177
 C1366 C 0.63907 0.33226 0.53087
 C1367 C 0.65793 0.34124 0.52306
 C1368 C 0.67775 0.33069 0.52577
 C1369 C 0.67819 0.31090 0.53651
 C1370 C 0.65930 0.30195 0.54444
 C1371 C 0.61943 0.30336 0.55059
 C1372 C 0.61602 0.28139 0.55019
 C1373 C 0.59732 0.27278 0.55889
 C1374 C 0.58154 0.28593 0.56808
 C1375 C 0.58480 0.30789 0.56824
 C1376 C 0.60354 0.31649 0.55967
 H1377 H 0.65699 0.35666 0.51518
 H1378 H 0.69313 0.30225 0.53871
 H1379 H 0.59513 0.25581 0.55834
 H1380 H 0.57310 0.31838 0.57555
 H1381 H 0.66026 0.28687 0.55297
 H1382 H 0.62775 0.27086 0.54300
 H1383 H 0.62411 0.34076 0.52828
 H1384 H 0.60579 0.33342 0.56061
 C1385 C 0.36786 0.19705 0.54045
 C1386 C 0.35565 0.18401 0.55412
 C1387 C 0.33819 0.17320 0.54650
 C1388 C 0.33238 0.17540 0.52511
 C1389 C 0.34432 0.18873 0.51146
 C1390 C 0.36208 0.19931 0.51903
 C1391 C 0.38678 0.20780 0.54870
 C1392 C 0.40668 0.20635 0.53819
 C1393 C 0.42499 0.21449 0.54737
 C1394 C 0.42365 0.22438 0.56714
 C1395 C 0.40347 0.22675 0.57702
 C1396 C 0.38529 0.21843 0.56798
 H1397 H 0.32915 0.16312 0.55736
 H1398 H 0.34017 0.19057 0.49488
 H1399 H 0.44028 0.21226 0.53940
 H1400 H 0.40174 0.23479 0.59195
 H1401 H 0.37122 0.20933 0.50822
 H1402 H 0.40824 0.19810 0.52335
 H1403 H 0.35990 0.18185 0.57065
 H1404 H 0.37006 0.22006 0.57621
 C1405 C 0.87641 0.68586 0.03716
 C1406 C 0.85679 0.69704 0.03752
 C1407 C 0.83809 0.68741 0.03096
 C1408 C 0.83869 0.66646 0.02377
 C1409 C 0.85854 0.65568 0.02259
 C1410 C 0.87715 0.66522 0.02931
 C1411 C 0.89579 0.69509 0.04624
 C1412 C 0.90839 0.68293 0.06042
 C1413 C 0.92598 0.69176 0.07005
 C1414 C 0.93150 0.71288 0.06554
 C1415 C 0.91929 0.72493 0.05093
 C1416 C 0.90144 0.71616 0.04149
 H1417 H 0.82307 0.69610 0.03228
 H1418 H 0.85969 0.63974 0.01663
 H1419 H 0.93524 0.68211 0.08115
 H1420 H 0.92319 0.74129 0.04731
 H1421 H 0.89214 0.65638 0.02857
 H1422 H 0.90428 0.66672 0.06451
 H1423 H 0.85577 0.71290 0.04369
 H1424 H 0.89203 0.72582 0.03054
 C1425 C 0.64060 0.68324 0.94897
 C1426 C 0.64068 0.66308 0.95890
 C1427 C 0.65922 0.65483 0.96828
 C1428 C 0.67816 0.66649 0.96779
 C1429 C 0.67810 0.68670 0.95792
 C1430 C 0.65943 0.69507 0.94873
 C1431 C 0.62103 0.69157 0.93846
 C1432 C 0.61385 0.71253 0.94146
 C1433 C 0.59534 0.72024 0.93148
 C1434 C 0.58386 0.70721 0.91809
 C1435 C 0.59106 0.68626 0.91511
 C1436 C 0.60939 0.67849 0.92527
 H1437 H 0.65887 0.63911 0.97555
 H1438 H 0.69246 0.69603 0.95741
 H1439 H 0.59020 0.73650 0.93390
 H1440 H 0.58243 0.67585 0.90498
 H1441 H 0.65982 0.71060 0.94103
 H1442 H 0.62247 0.72288 0.95167
 H1443 H 0.62635 0.65370 0.95944
 H1444 H 0.61466 0.66232 0.92255
 C1445 C 0.14036 0.18465 0.43782
 C1446 C 0.14089 0.16376 0.44602
 C1447 C 0.15928 0.15550 0.45566
 C1448 C 0.17761 0.16788 0.45723
 C1449 C 0.17717 0.18875 0.44892
 C1450 C 0.15864 0.19712 0.43942
 C1451 C 0.12078 0.19320 0.42744
 C1452 C 0.11279 0.21359 0.43195
 C1453 C 0.09404 0.22134 0.42243
 C1454 C 0.08310 0.20893 0.40802
 C1455 C 0.09117 0.18859 0.40347
 C1456 C 0.10975 0.18079 0.41312
 H1457 H 0.15924 0.13928 0.46171
 H1458 H 0.19105 0.19865 0.45001
 H1459 H 0.08825 0.23713 0.42608
 H1460 H 0.08297 0.17862 0.39257
 H1461 H 0.15870 0.21322 0.43307
 H1462 H 0.12090 0.22341 0.44306
 H1463 H 0.12699 0.15386 0.44515
 H1464 H 0.11564 0.16509 0.40923
 C1465 C 0.54772 0.11895 0.70841
 C1466 C 0.53908 0.09865 0.70643
 C1467 C 0.54910 0.08081 0.71575
 C1468 C 0.56783 0.08284 0.72757
 C1469 C 0.57575 0.10327 0.73053
 C1470 C 0.56599 0.12102 0.72090
 C1471 C 0.53860 0.13767 0.69656
 C1472 C 0.53963 0.15815 0.70480
 C1473 C 0.53308 0.17592 0.69274
 C1474 C 0.52489 0.17369 0.67224
 C1475 C 0.52296 0.15313 0.66439
 C1476 C 0.52991 0.13540 0.67628
 H1477 H 0.54256 0.06536 0.71301
 H1478 H 0.58981 0.10557 0.73996
 H1479 H 0.53504 0.19143 0.69932
 H1480 H 0.51626 0.15065 0.64892
 H1481 H 0.57333 0.13626 0.72268
 H1482 H 0.54578 0.16056 0.72052
 H1483 H 0.52476 0.09644 0.69736
 H1484 H 0.52906 0.11999 0.66921
 C1485 C 1.05312 0.61637 0.20561
 C1486 C 1.05246 0.59676 0.19546
 C1487 C 1.06110 0.57845 0.20510
 C1488 C 1.07088 0.57936 0.22495
 C1489 C 1.07128 0.59879 0.23532
 C1490 C 1.06234 0.61708 0.22582
 C1491 C 1.04504 0.63606 0.19469
 C1492 C 1.05555 0.65542 0.19693
 C1493 C 1.04878 0.67360 0.18563
 C1494 C 1.03160 0.67274 0.17163
 C1495 C 1.02082 0.65360 0.16965
 C1496 C 1.02734 0.63550 0.18119
 H1497 H 1.06088 0.56369 0.19667
 H1498 H 1.07858 0.59982 0.25074
 H1499 H 1.05744 0.68817 0.18726
 H1500 H 1.00733 0.65266 0.15913
 H1501 H 1.06276 0.63179 0.23430
 H1502 H 1.06945 0.65641 0.20687
 H1503 H 1.04591 0.59563 0.17973
 H1504 H 1.01855 0.62104 0.17943
 C1505 C 0.94651 0.88140 0.19574
 C1506 C 0.92504 0.88687 0.19179
 C1507 C 0.91507 0.90363 0.20228
 C1508 C 0.92624 0.91530 0.21713
 C1509 C 0.94771 0.90982 0.22118
 C1510 C 0.95774 0.89299 0.21062
 C1511 C 0.95690 0.86357 0.18430
 C1512 C 0.97058 0.84901 0.19488
 C1513 C 0.97909 0.83143 0.18432
 C1514 C 0.97399 0.82806 0.16303
 C1515 C 0.96088 0.84297 0.15229
 C1516 C 0.95250 0.86054 0.16278
 H1517 H 0.89863 0.90764 0.19851
 H1518 H 0.95669 0.91842 0.23263
 H1519 H 0.98906 0.82011 0.19300
 H1520 H 0.95707 0.84100 0.13575
 H1521 H 0.97434 0.88923 0.21390
 H1522 H 0.97413 0.85082 0.21151
 H1523 H 0.91583 0.87807 0.18067
 H1524 H 0.94245 0.87174 0.15403
 C1525 C 0.45313 0.38259 0.70513
 C1526 C 0.45751 0.40305 0.69706
 C1527 C 0.44799 0.42090 0.70627
 C1528 C 0.43386 0.41862 0.72366
 C1529 C 0.43029 0.39825 0.73233
 C1530 C 0.43985 0.38044 0.72320
 C1531 C 0.46111 0.36353 0.69390
 C1532 C 0.44758 0.34627 0.69125
 C1533 C 0.45443 0.32879 0.67967
 C1534 C 0.47497 0.32812 0.67039
 C1535 C 0.48870 0.34516 0.67337
 C1536 C 0.48182 0.36272 0.68497
 H1537 H 0.45087 0.43640 0.69915
 H1538 H 0.41976 0.39607 0.74597
 H1539 H 0.44358 0.31579 0.67789
 H1540 H 0.50458 0.34515 0.66630
 H1541 H 0.43653 0.36492 0.73005
 H1542 H 0.43143 0.34651 0.69767
 H1543 H 0.46750 0.40522 0.68304
 H1544 H 0.49267 0.37570 0.68687
 C1545 C 0.44162 0.61472 0.78990
 C1546 C 0.41970 0.61102 0.79304
 C1547 C 0.41062 0.59253 0.78590
 C1548 C 0.42319 0.57734 0.77530
 C1549 C 0.44485 0.58145 0.77114
 C1550 C 0.45402 0.59997 0.77844
 C1551 C 0.45158 0.63320 0.79977
 C1552 C 0.46750 0.64493 0.78907
 C1553 C 0.47697 0.66206 0.79885
 C1554 C 0.47079 0.66766 0.81954
 C1555 C 0.45477 0.65600 0.83010
 C1556 C 0.44535 0.63897 0.82038
 H1557 H 0.39377 0.58995 0.78890
 H1558 H 0.45488 0.56994 0.76304
 H1559 H 0.48935 0.67070 0.79037
 H1560 H 0.44941 0.66010 0.84592
 H1561 H 0.47097 0.60230 0.77589
 H1562 H 0.47253 0.64094 0.77313
 H1563 H 0.40960 0.62232 0.80133
 H1564 H 0.43338 0.63008 0.82920
 C1565 C -0.05051 0.10629 0.28860
 C1566 C -0.05117 0.08829 0.30217
 C1567 C -0.06128 0.06995 0.29598
 C1568 C -0.07114 0.06916 0.27612
 C1569 C -0.07004 0.08694 0.26229
 C1570 C -0.05984 0.10532 0.26847
 C1571 C -0.04097 0.12620 0.29597
 C1572 C -0.05076 0.14600 0.29136
 C1573 C -0.04299 0.16449 0.30007
 C1574 C -0.02539 0.16352 0.31367
 C1575 C -0.01512 0.14388 0.31763
 C1576 C -0.02275 0.12544 0.30880
 H1577 H -0.06156 0.05642 0.30688
 H1578 H -0.07760 0.08689 0.24694
 H1579 H -0.05130 0.17942 0.29690
 H1580 H -0.00128 0.14276 0.32777
 H1581 H -0.05939 0.11882 0.25755
 H1582 H -0.06497 0.14713 0.28175
 H1583 H -0.04441 0.08855 0.31789
 H1584 H -0.01454 0.11053 0.31227
 C1585 C 0.04690 0.38167 0.28477
 C1586 C 0.04457 0.39906 0.29819
 C1587 C 0.05430 0.41827 0.29301
 C1588 C 0.06659 0.42056 0.27428
 C1589 C 0.06822 0.40345 0.26042
 C1590 C 0.05851 0.38420 0.26563
 C1591 C 0.03866 0.36062 0.29158
 C1592 C 0.05138 0.34226 0.28892
 C1593 C 0.04489 0.32278 0.29754
 C1594 C 0.02553 0.32121 0.30901
 C1595 C 0.01233 0.33935 0.31082
 C1596 C 0.01885 0.35887 0.30223
 H1597 H 0.05253 0.43127 0.30385
 H1598 H 0.07768 0.40469 0.24594
 H1599 H 0.05526 0.30901 0.29566
 H1600 H -0.00261 0.33867 0.31968
 H1601 H 0.06040 0.37115 0.25487
 H1602 H 0.06681 0.34309 0.28097
 H1603 H 0.03592 0.39757 0.31314
 H1604 H 0.00860 0.37270 0.30431
 C1605 C 0.55895 0.88243 0.79658
 C1606 C 0.54601 0.89741 0.78566
 C1607 C 0.55443 0.91682 0.77861
 C1608 C 0.57590 0.92155 0.78242
 C1609 C 0.58895 0.90620 0.79260
 C1610 C 0.58060 0.88690 0.79957
 C1611 C 0.55003 0.86247 0.80561
 C1612 C 0.55615 0.85529 0.82595
 C1613 C 0.54885 0.83607 0.83432
 C1614 C 0.53521 0.82350 0.82261
 C1615 C 0.52847 0.83093 0.80252
 C1616 C 0.53583 0.85028 0.79409
 H1617 H 0.54402 0.92839 0.77081
 H1618 H 0.60569 0.90917 0.79526
 H1619 H 0.55385 0.83107 0.85008
 H1620 H 0.51798 0.82155 0.79314
 H1621 H 0.59111 0.87546 0.80744
 H1622 H 0.56661 0.86459 0.83545
 H1623 H 0.52925 0.89440 0.78319
 H1624 H 0.53089 0.85540 0.77835
 C1625 C 0.70615 0.55743 0.12115
 C1626 C 0.71390 0.54452 0.10490
 C1627 C 0.72345 0.55339 0.08664
 C1628 C 0.72542 0.57569 0.08379
 C1629 C 0.71763 0.58839 0.10066
 C1630 C 0.70830 0.57940 0.11891
 C1631 C 0.69523 0.54818 0.14014
 C1632 C 0.69950 0.55559 0.16048
 C1633 C 0.68831 0.54775 0.17825
 C1634 C 0.67249 0.53247 0.17601
 C1635 C 0.66847 0.52480 0.15571
 C1636 C 0.67980 0.53251 0.13797
 H1637 H 0.72988 0.54229 0.07535
 H1638 H 0.71732 0.60549 0.09973
 H1639 H 0.69163 0.55404 0.19368
 H1640 H 0.65650 0.51288 0.15357
 H1641 H 0.70203 0.58979 0.13104
 H1642 H 0.71144 0.56755 0.16261
 H1643 H 0.71282 0.52743 0.10643
 H1644 H 0.67608 0.52664 0.12246
 C1645 C 0.20247 1.06431 0.61601
 C1646 C 0.19147 1.07908 0.60288
 C1647 C 0.20117 1.08751 0.58458
 C1648 C 0.22191 1.08104 0.57867
 C1649 C 0.23281 1.06587 0.59128
 C1650 C 0.22326 1.05771 0.60990
 C1651 C 0.19222 1.05603 0.63596
 C1652 C 0.19606 1.03505 0.64330
 C1653 C 0.18576 1.02723 0.66165
 C1654 C 0.17116 1.04011 0.67276
 C1655 C 0.16749 1.06107 0.66571
 C1656 C 0.17808 1.06902 0.64767
 H1657 H 0.19239 1.09899 0.57487
 H1658 H 0.24888 1.06076 0.58699
 H1659 H 0.18868 1.01095 0.66682
 H1660 H 0.15647 1.07132 0.67424
 H1661 H 0.23235 1.04659 0.61969
 H1662 H 0.20658 1.02447 0.63460
 H1663 H 0.17524 1.08408 0.60662
 H1664 H 0.17517 1.08542 0.64296
 C1665 C 0.20954 0.94701 0.87670
 C1666 C 0.21995 0.95899 0.89176
 C1667 C 0.22898 0.94922 0.90978
 C1668 C 0.22801 0.92695 0.91341
 C1669 C 0.21748 0.91518 0.89787
 C1670 C 0.20843 0.92503 0.88001
 C1671 C 0.19927 0.95724 0.85783
 C1672 C 0.19975 0.94708 0.83820
 C1673 C 0.18844 0.95557 0.82096
 C1674 C 0.17653 0.97452 0.82286
 C1675 C 0.17675 0.98520 0.84216
 C1676 C 0.18795 0.97662 0.85951
 H1677 H 0.23750 0.95938 0.92017
 H1678 H 0.21474 0.89839 0.89976
 H1679 H 0.18885 0.94721 0.80613
 H1680 H 0.16756 0.99977 0.84408
 H1681 H 0.19991 0.91537 0.86907
 H1682 H 0.20871 0.93240 0.83622
 H1683 H 0.22141 0.97597 0.88946
 H1684 H 0.18707 0.98473 0.87445
 C1685 C 0.71002 0.45214 0.38289
 C1686 C 0.70201 0.45579 0.40347
 C1687 C 0.71162 0.44602 0.42115
 C1688 C 0.72937 0.43231 0.41862
 C1689 C 0.73789 0.42931 0.39815
 C1690 C 0.72838 0.43917 0.38049
 C1691 C 0.69847 0.46065 0.36397
 C1692 C 0.69620 0.44800 0.34609
 C1693 C 0.68423 0.45528 0.32878
 C1694 C 0.67410 0.47534 0.32892
 C1695 C 0.67673 0.48822 0.34657
 C1696 C 0.68878 0.48094 0.36392
 H1697 H 0.70458 0.44843 0.43672
 H1698 H 0.75178 0.41908 0.39578
 H1699 H 0.68280 0.44510 0.31530
 H1700 H 0.66903 0.50370 0.34722
 H1701 H 0.73522 0.43640 0.36490
 H1702 H 0.70320 0.43219 0.34569
 H1703 H 0.68774 0.46546 0.40587
 H1704 H 0.69040 0.49116 0.37735
 C1705 C 0.79517 0.44974 0.61075
 C1706 C 0.77473 0.44096 0.60960
 C1707 C 0.76852 0.43053 0.59138
 C1708 C 0.78263 0.42865 0.57393
 C1709 C 0.80287 0.43784 0.57494
 C1710 C 0.80908 0.44819 0.59312
 C1711 C 0.80243 0.45974 0.63047
 C1712 C 0.81552 0.47763 0.62935
 C1713 C 0.82406 0.48581 0.64774
 C1714 C 0.81960 0.47640 0.66770
 C1715 C 0.80579 0.45909 0.66897
 C1716 C 0.79734 0.45080 0.65054
 H1717 H 0.75288 0.42349 0.59117
 H1718 H 0.81401 0.43694 0.56166
 H1719 H 0.83436 0.49940 0.64634
 H1720 H 0.80225 0.45140 0.68413
 H1721 H 0.82504 0.45452 0.59355
 H1722 H 0.81937 0.48518 0.61419
 H1723 H 0.76356 0.44207 0.62282
 H1724 H 0.78753 0.43687 0.65196
 C1725 C 0.29429 -0.04544 0.10650
 C1726 C 0.27367 -0.05375 0.10498
 C1727 C 0.26748 -0.06385 0.08656
 C1728 C 0.28181 -0.06590 0.06931
 C1729 C 0.30217 -0.05702 0.07062
 C1730 C 0.30834 -0.04697 0.08898
 C1731 C 0.30166 -0.03617 0.12655
 C1732 C 0.31522 -0.01863 0.12599
 C1733 C 0.32408 -0.01135 0.14463
 C1734 C 0.31948 -0.02133 0.16429
 C1735 C 0.30515 -0.03823 0.16503
 C1736 C 0.29638 -0.04562 0.14634
 H1737 H 0.25174 -0.07065 0.08609
 H1738 H 0.31346 -0.05808 0.05749
 H1739 H 0.33477 0.00197 0.14365
 H1740 H 0.30147 -0.04634 0.17994
 H1741 H 0.32442 -0.04098 0.08968
 H1742 H 0.31925 -0.01070 0.11107
 H1743 H 0.26240 -0.05263 0.11812
 H1744 H 0.28619 -0.05931 0.14732
 C1745 C 0.29166 0.04659 0.38397
 C1746 C 0.27162 0.05674 0.38636
 C1747 C 0.26589 0.06630 0.40545
 C1748 C 0.28014 0.06602 0.42252
 C1749 C 0.29987 0.05522 0.42038
 C1750 C 0.30554 0.04556 0.40133
 C1751 C 0.29877 0.03856 0.36303
 C1752 C 0.31030 0.01931 0.36151
 C1753 C 0.31876 0.01289 0.34197
 C1754 C 0.31602 0.02572 0.32363
 C1755 C 0.30386 0.04458 0.32502
 C1756 C 0.29528 0.05090 0.34449
 H1757 H 0.25066 0.07465 0.40655
 H1758 H 0.31107 0.05457 0.43334
 H1759 H 0.32819 -0.00165 0.34137
 H1760 H 0.30135 0.05467 0.31110
 H1761 H 0.32117 0.03801 0.39991
 H1762 H 0.31308 0.00940 0.37551
 H1763 H 0.26053 0.05762 0.37331
 H1764 H 0.28664 0.06591 0.34518
 C1765 C 0.78769 0.54363 0.88677
 C1766 C 0.76827 0.55497 0.88905
 C1767 C 0.76276 0.56430 0.90833
 C1768 C 0.77660 0.56255 0.92569
 C1769 C 0.79556 0.55043 0.92368
 C1770 C 0.80103 0.54105 0.90444
 C1771 C 0.79493 0.53605 0.86567
 C1772 C 0.80577 0.51646 0.86373
 C1773 C 0.81474 0.51056 0.84423
 C1774 C 0.81315 0.52421 0.82634
 C1775 C 0.80153 0.54337 0.82809
 C1776 C 0.79250 0.54921 0.84752
 H1777 H 0.74811 0.57365 0.90935
 H1778 H 0.80641 0.54860 0.93687
 H1779 H 0.82370 0.49576 0.84338
 H1780 H 0.79985 0.55408 0.81450
 H1781 H 0.81618 0.53257 0.90315
 H1782 H 0.80771 0.50590 0.87740
 H1783 H 0.75757 0.55704 0.87577
 H1784 H 0.78442 0.56449 0.84853
 C1785 C 0.11487 0.70589 0.56180
 C1786 C 0.11656 0.72356 0.57483
 C1787 C 0.09847 0.73215 0.58492
 C1788 C 0.07826 0.72340 0.58203
 C1789 C 0.07644 0.70608 0.56864
 C1790 C 0.09455 0.69735 0.55872
 C1791 C 0.13424 0.69590 0.55205
 C1792 C 0.13342 0.68711 0.53177
 C1793 C 0.15120 0.67643 0.52325
 C1794 C 0.17026 0.67452 0.53470
 C1795 C 0.17137 0.68386 0.55464
 C1796 C 0.15352 0.69435 0.56328
 H1797 H 0.10025 0.74569 0.59496
 H1798 H 0.06109 0.69887 0.56637
 H1799 H 0.15004 0.66960 0.50771
 H1800 H 0.18580 0.68239 0.56390
 H1801 H 0.09268 0.68352 0.54913
 H1802 H 0.11900 0.68840 0.52249
 H1803 H 0.13188 0.73078 0.57724
 H1804 H 0.15465 0.70061 0.57906
 C1805 C 0.62055 0.20723 1.05943
 C1806 C 0.61698 0.20338 1.08120
 C1807 C 0.59870 0.21148 1.09127
 C1808 C 0.58366 0.22391 1.07986
 C1809 C 0.58740 0.22793 1.05806
 C1810 C 0.60559 0.21954 1.04792
 C1811 C 0.63952 0.19773 1.04877
 C1812 C 0.63728 0.18651 1.02998
 C1813 C 0.65483 0.17580 1.02103
 C1814 C 0.67498 0.17641 1.03056
 C1815 C 0.67739 0.18834 1.04887
 C1816 C 0.65978 0.19879 1.05798
 H1817 H 0.59615 0.20759 1.10793
 H1818 H 0.57638 0.23771 1.04884
 H1819 H 0.65263 0.16679 1.00684
 H1820 H 0.69272 0.18892 1.05660
 H1821 H 0.60809 0.22282 1.03113
 H1822 H 0.62179 0.18536 1.02266
 H1823 H 0.62810 0.19360 1.09034
 H1824 H 0.66190 0.20747 1.07241
 C1825 C 0.89037 0.19623 0.95535
 C1826 C 0.88933 0.21794 0.95018
 C1827 C 0.90674 0.22810 0.94058
 C1828 C 0.92596 0.21688 0.93550
 C1829 C 0.92696 0.19511 0.94175
 C1830 C 0.90953 0.18508 0.95145
 C1831 C 0.87120 0.18504 0.96371
 C1832 C 0.86647 0.16477 0.95650
 C1833 C 0.84786 0.15464 0.96326
 C1834 C 0.83340 0.16457 0.97728
 C1835 C 0.83833 0.18464 0.98490
 C1836 C 0.85703 0.19477 0.97819
 H1837 H 0.90485 0.24497 0.93780
 H1838 H 0.94052 0.18495 0.93816
 H1839 H 0.84473 0.13903 0.95737
 H1840 H 0.82746 0.19275 0.99563
 H1841 H 0.91097 0.16835 0.95554
 H1842 H 0.87687 0.15692 0.94516
 H1843 H 0.87480 0.22707 0.95307
 H1844 H 0.86034 0.21027 0.98424
 C1845 C 0.38508 0.69498 0.45111
 C1846 C 0.40190 0.68278 0.44237
 C1847 C 0.41965 0.69252 0.43300
 C1848 C 0.42122 0.71473 0.43236
 C1849 C 0.40478 0.72691 0.44182
 C1850 C 0.38689 0.71716 0.45099
 C1851 C 0.36535 0.68463 0.45938
 C1852 C 0.35415 0.69253 0.47712
 C1853 C 0.33517 0.68315 0.48425
 C1854 C 0.32701 0.66561 0.47386
 C1855 C 0.33844 0.65753 0.45637
 C1856 C 0.35724 0.66699 0.44915
 H1857 H 0.43183 0.68260 0.42568
 H1858 H 0.40561 0.74403 0.44195
 H1859 H 0.32672 0.68987 0.49768
 H1860 H 0.33289 0.64380 0.44822
 H1861 H 0.37419 0.72708 0.45742
 H1862 H 0.36006 0.70593 0.48554
 H1863 H 0.40125 0.66564 0.44253
 H1864 H 0.36521 0.66066 0.43526
 C1865 C 0.60846 0.80113 0.45031
 C1866 C 0.59118 0.81479 0.44525
 C1867 C 0.57309 0.80712 0.43552
 C1868 C 0.57179 0.78558 0.43065
 C1869 C 0.58873 0.77173 0.43635
 C1870 C 0.60691 0.77944 0.44609
 C1871 C 0.62826 0.80979 0.45918
 C1872 C 0.63932 0.79905 0.47562
 C1873 C 0.65767 0.80777 0.48416
 C1874 C 0.66523 0.82737 0.47643
 C1875 C 0.65443 0.83777 0.45966
 C1876 C 0.63619 0.82910 0.45116
 H1877 H 0.56010 0.81809 0.43172
 H1878 H 0.58825 0.75508 0.43263
 H1879 H 0.66562 0.79946 0.49714
 H1880 H 0.66017 0.85262 0.45299
 H1881 H 0.62003 0.76857 0.44967
 H1882 H 0.63352 0.78418 0.48218
 H1883 H 0.59170 0.83150 0.44875
 H1884 H 0.62835 0.83748 0.43814
 C1885 C 0.11139 0.30384 -0.04785
 C1886 C 0.09384 0.31732 -0.05241
 C1887 C 0.07567 0.30951 -0.06190
 C1888 C 0.07460 0.28802 -0.06704
 C1889 C 0.09183 0.27434 -0.06180
 C1890 C 0.11007 0.28219 -0.05229
 C1891 C 0.13126 0.31268 -0.03932
 C1892 C 0.14279 0.30194 -0.02321
 C1893 C 0.16124 0.31077 -0.01504
 C1894 C 0.16847 0.33047 -0.02284
 C1895 C 0.15718 0.34090 -0.03927
 C1896 C 0.13881 0.33212 -0.04739
 H1897 H 0.06247 0.32033 -0.06534
 H1898 H 0.09153 0.25774 -0.06574
 H1899 H 0.16957 0.30244 -0.00230
 H1900 H 0.16264 0.35583 -0.04599
 H1901 H 0.12341 0.27146 -0.04910
 H1902 H 0.13727 0.28697 -0.01663
 H1903 H 0.09420 0.33399 -0.04873
 H1904 H 0.13060 0.34051 -0.06017
 C1905 C 0.38941 0.29846 0.05192
 C1906 C 0.38939 0.27880 0.06292
 C1907 C 0.40799 0.27093 0.07263
 C1908 C 0.42693 0.28258 0.07152
 C1909 C 0.42720 0.30165 0.05955
 C1910 C 0.40866 0.30949 0.04986
 C1911 C 0.36916 0.30831 0.04420
 C1912 C 0.36486 0.32988 0.04771
 C1913 C 0.34543 0.33918 0.04167
 C1914 C 0.32980 0.32717 0.03195
 C1915 C 0.33419 0.30569 0.02798
 C1916 C 0.35367 0.29630 0.03419
 H1917 H 0.40726 0.25627 0.08188
 H1918 H 0.44169 0.31074 0.05804
 H1919 H 0.34260 0.35584 0.04467
 H1920 H 0.32238 0.29608 0.02055
 H1921 H 0.40926 0.32447 0.04111
 H1922 H 0.37633 0.33950 0.05564
 H1923 H 0.37475 0.27004 0.06491
 H1924 H 0.35661 0.27966 0.03119
 C1925 C 0.88557 0.79735 0.55570
 C1926 C 0.90474 0.80851 0.55359
 C1927 C 0.92324 0.80104 0.56362
 C1928 C 0.92301 0.78222 0.57600
 C1929 C 0.90414 0.77045 0.57720
 C1930 C 0.88559 0.77795 0.56715
 C1931 C 0.86533 0.80684 0.54750
 C1932 C 0.85006 0.79443 0.53763
 C1933 C 0.83059 0.80351 0.53097
 C1934 C 0.82599 0.82507 0.53434
 C1935 C 0.84141 0.83747 0.54389
 C1936 C 0.86083 0.82848 0.55038
 H1937 H 0.93766 0.81021 0.56204
 H1938 H 0.90344 0.75597 0.58675
 H1939 H 0.81895 0.79360 0.52367
 H1940 H 0.83842 0.85419 0.54642
 H1941 H 0.87100 0.76910 0.56919
 H1942 H 0.85317 0.77774 0.53511
 H1943 H 0.90531 0.82329 0.54451
 H1944 H 0.87213 0.83840 0.55818
   
