data_POSCAR
  _audit_creation_date              2014-09-24
  _audit_creation_method            'ToBaCCo'
  _symmetry_space_group_name_H-M    'P1'
  _symmetry_Int_Tables_number       1
  _symmetry_cell_setting            triclinic
  loop_
  _symmetry_equiv_pos_as_xyz
 x,y,z
_cell_length_a 59.6715
_cell_length_b 59.6672
_cell_length_c 59.6599
_cell_angle_alpha 90.025400
_cell_angle_beta 90.023000
_cell_angle_gamma 89.997700
loop_
  _atom_site_label
  _atom_site_type_symbol
  _atom_site_fract_x
  _atom_site_fract_y
  _atom_site_fract_z
O1 O 0.26871 1.02111 0.02124
 O2 O 0.26813 0.97698 -0.02182
 O3 O 0.26834 1.02054 -0.02245
 O4 O 0.26811 0.97728 0.02156
 O5 O 0.23113 0.97735 0.02133
 O6 O 0.23139 1.02177 -0.02138
 O7 O 0.23122 0.97812 -0.02252
 O8 O 0.23174 1.02076 0.02217
 Cu9 Cu 0.27203 0.99898 -0.00035
 Cu10 Cu 0.22766 0.99950 -0.00011
 C11 C 0.25034 1.02836 0.02921
 C12 C 0.24960 0.97007 -0.02974
 C13 C 0.24989 1.02865 -0.02933
 C14 C 0.24956 0.96982 0.02886
 O15 O 0.73085 0.52173 0.52193
 O16 O 0.73099 0.47737 0.47901
 O17 O 0.73076 0.47824 0.52279
 O18 O 0.73081 0.52085 0.47812
 O19 O 0.76779 0.52102 0.47835
 O20 O 0.76774 0.47812 0.52275
 O21 O 0.76798 0.47725 0.47929
 O22 O 0.76783 0.52192 0.52185
 Cu23 Cu 0.72714 0.49955 0.50046
 Cu24 Cu 0.77154 0.49959 0.50057
 C25 C 0.74933 0.52943 0.52920
 C26 C 0.74952 0.46970 0.47184
 C27 C 0.74923 0.47085 0.53037
 C28 C 0.74931 0.52824 0.47061
 O29 O 0.73121 0.97834 1.02398
 O30 O 0.73067 1.02143 0.97986
 O31 O 0.73066 0.97769 0.98008
 O32 O 0.73161 1.02171 1.02339
 O33 O 0.76851 1.02221 1.02201
 O34 O 0.76763 0.97683 0.98017
 O35 O 0.76760 1.02041 0.97838
 O36 O 0.76813 0.97833 1.02359
 Cu37 Cu 0.72734 0.99976 1.00184
 Cu38 Cu 0.77167 0.99945 1.00101
 C39 C 0.74975 0.97101 1.03150
 C40 C 0.74902 1.02825 0.97152
 C41 C 0.74900 0.96962 0.97284
 C42 C 0.75023 1.02968 1.03002
 O43 O 0.23125 0.47790 0.52202
 O44 O 0.23128 0.52141 0.47839
 O45 O 0.23152 0.47792 0.47822
 O46 O 0.23141 0.52134 0.52216
 O47 O 0.26840 0.52151 0.52203
 O48 O 0.26851 0.47782 0.47849
 O49 O 0.26827 0.52161 0.47856
 O50 O 0.26824 0.47776 0.52198
 Cu51 Cu 0.22766 0.49963 0.50018
 Cu52 Cu 0.27207 0.49967 0.50026
 C53 C 0.24972 0.47039 0.52947
 C54 C 0.24976 0.52899 0.47105
 C55 C 0.25005 0.47042 0.47088
 C56 C 0.24990 0.52887 0.52957
 O57 O 1.02125 0.23108 0.02133
 O58 O 0.97779 0.23035 -0.02256
 O59 O 1.02151 0.23031 -0.02222
 O60 O 0.97788 0.23069 0.02132
 O61 O 0.97804 0.26768 0.02119
 O62 O 1.02043 0.26725 -0.02365
 O63 O 0.97682 0.26726 -0.02219
 O64 O 1.02179 0.26804 0.02001
 Cu65 Cu 0.99959 0.22690 -0.00054
 Cu66 Cu 0.99928 0.27127 -0.00120
 C67 C 1.02905 0.24972 0.02807
 C68 C 0.96966 0.24869 -0.02977
 C69 C 1.02837 0.24870 -0.03045
 C70 C 0.97065 0.24924 0.02885
 O71 O 0.52191 0.76854 0.52203
 O72 O 0.47782 0.76859 0.47893
 O73 O 0.47827 0.76837 0.52257
 O74 O 0.52145 0.76831 0.47841
 O75 O 0.52261 0.73137 0.47968
 O76 O 0.47702 0.73143 0.52126
 O77 O 0.47899 0.73165 0.47764
 O78 O 0.52065 0.73161 0.52329
 Cu79 Cu 0.49987 0.77216 0.50049
 Cu80 Cu 0.49981 0.72780 0.50047
 C81 C 0.52863 0.75010 0.53024
 C82 C 0.47106 0.75016 0.47070
 C83 C 0.47005 0.74990 0.52925
 C84 C 0.52963 0.74982 0.47171
 O85 O 0.02282 0.73270 -0.02105
 O86 O -0.02220 0.73230 0.02107
 O87 O -0.02089 0.73234 -0.02280
 O88 O 0.02117 0.73318 0.02248
 O89 O 0.02141 0.77014 0.02138
 O90 O -0.02228 0.76923 -0.02212
 O91 O -0.02240 0.76928 0.02128
 O92 O 0.02131 0.76958 -0.02237
 Cu93 Cu 0.00024 0.72893 -0.00010
 Cu94 Cu -0.00050 0.77326 -0.00047
 C95 C 0.02973 0.75118 -0.02909
 C96 C -0.02986 0.75070 0.02854
 C97 C -0.02901 0.75066 -0.03009
 C98 C 0.02859 0.75184 0.02955
 O99 O 0.52106 0.26876 0.47707
 O100 O 0.47864 0.26883 0.52190
 O101 O 0.52225 0.26905 0.52069
 O102 O 0.47745 0.26899 0.47830
 O103 O 0.47867 0.23204 0.47705
 O104 O 0.52103 0.23211 0.52200
 O105 O 0.47743 0.23189 0.52065
 O106 O 0.52226 0.23182 0.47840
 Cu107 Cu 0.49985 0.27263 0.49949
 Cu108 Cu 0.49985 0.22825 0.49953
 C109 C 0.52912 0.25026 0.47029
 C110 C 0.47055 0.25035 0.52871
 C111 C 0.52911 0.25060 0.52882
 C112 C 0.47059 0.25052 0.47021
 O113 O 1.02169 0.02093 0.26985
 O114 O 0.97738 -0.02197 0.26998
 O115 O 1.02102 -0.02268 0.26981
 O116 O 0.97805 0.02163 0.26954
 O117 O 0.97682 0.02007 0.23261
 O118 O 1.02232 -0.02151 0.23287
 O119 O 0.97875 -0.02355 0.23310
 O120 O 1.02044 0.02207 0.23291
 Cu121 Cu 0.99953 -0.00050 0.27351
 Cu122 Cu 0.99957 -0.00074 0.22916
 C123 C 1.02845 0.02905 0.25138
 C124 C 0.97065 -0.03040 0.25159
 C125 C 1.02925 -0.02943 0.25137
 C126 C 0.96986 0.02819 0.25101
 O127 O 0.52189 0.52097 0.73287
 O128 O 0.47732 0.47828 0.73256
 O129 O 0.47821 0.52210 0.73203
 O130 O 0.52071 0.47737 0.73294
 O131 O 0.52093 0.47834 0.76991
 O132 O 0.47697 0.52175 0.76900
 O133 O 0.47710 0.47836 0.76956
 O134 O 0.52054 0.52207 0.76982
 Cu135 Cu 0.49957 0.49969 0.72889
 Cu136 Cu 0.49888 0.50014 0.77328
 C137 C 0.52872 0.52893 0.75141
 C138 C 0.46968 0.47094 0.75103
 C139 C 0.47017 0.52943 0.75034
 C140 C 0.52818 0.47029 0.75156
 O141 O 0.97787 1.02269 0.73084
 O142 O 1.02091 0.97852 0.73128
 O143 O 0.97725 0.97876 0.73081
 O144 O 1.02148 1.02183 0.73174
 O145 O 1.02048 1.02195 0.76871
 O146 O 0.97643 0.97885 0.76779
 O147 O 1.02007 0.97809 0.76826
 O148 O 0.97683 1.02219 0.76775
 Cu149 Cu 0.99936 1.00047 0.72746
 Cu150 Cu 0.99844 1.00026 0.77184
 C151 C 0.96991 1.03005 0.74919
 C152 C 1.02791 0.97080 0.74984
 C153 C 0.96927 0.97146 0.74917
 C154 C 1.02856 1.02922 0.75041
 O155 O 0.47851 0.52157 0.23033
 O156 O 0.52166 0.47759 0.23112
 O157 O 0.47824 0.47777 0.23099
 O158 O 0.52218 0.52120 0.23093
 O159 O 0.52103 0.52238 0.26788
 O160 O 0.47822 0.47797 0.26799
 O161 O 0.52206 0.47864 0.26810
 O162 O 0.47750 0.52135 0.26731
 Cu163 Cu 0.50017 0.49952 0.22713
 Cu164 Cu 0.49973 0.50009 0.27153
 C165 C 0.47049 0.52886 0.24866
 C166 C 0.52933 0.47067 0.24972
 C167 C 0.47079 0.47038 0.24953
 C168 C 0.52899 0.52934 0.24940
 O169 O 0.24886 0.19169 0.21886
 O170 O 0.27371 0.18521 0.24973
 O171 O 0.19108 0.21950 0.25022
 O172 O 0.18325 0.24848 0.27266
 O173 O 0.21858 0.25065 0.19130
 O174 O 0.24987 0.27437 0.18470
 O175 O 0.25113 0.28110 0.30745
 O176 O 0.22460 0.25235 0.31386
 O177 O 0.30755 0.25010 0.28028
 O178 O 0.31473 0.22540 0.24882
 O179 O 0.28077 0.30768 0.25085
 O180 O 0.24915 0.31480 0.22478
 O181 O 0.25009 0.30792 0.28043
 O182 O 0.22502 0.31476 0.24817
 O183 O 0.30754 0.28063 0.24977
 O184 O 0.31365 0.24791 0.22409
 O185 O 0.28078 0.25149 0.30733
 O186 O 0.24967 0.22521 0.31425
 O187 O 0.25010 0.21846 0.19172
 O188 O 0.27468 0.24978 0.18518
 O189 O 0.19160 0.25016 0.21821
 O190 O 0.18664 0.27684 0.24921
 O191 O 0.21780 0.19231 0.25090
 O192 O 0.24933 0.18578 0.27497
 Zr193 Zr 0.24833 0.20992 0.24906
 O194 O 0.26962 0.22903 0.26969
 Zr195 Zr 0.20937 0.24958 0.24870
 O196 O 0.22874 0.27031 0.26981
 Zr197 Zr 0.24882 0.24901 0.20939
 O198 O 0.26979 0.27002 0.22849
 Zr199 Zr 0.25035 0.25079 0.28956
 O200 O 0.22876 0.22981 0.27069
 Zr201 Zr 0.28951 0.25032 0.24998
 O202 O 0.27025 0.22907 0.22909
 Zr203 Zr 0.25031 0.28994 0.25008
 O204 O 0.22915 0.27094 0.22880
 O205 O 0.22776 0.22849 0.22802
 O206 O 0.27138 0.27157 0.27099
 C207 C 0.24994 0.19791 0.19825
 C208 C 0.19727 0.19888 0.25110
 C209 C 0.19799 0.25087 0.19765
 C210 C 0.25076 0.30165 0.30102
 C211 C 0.30131 0.25089 0.30087
 C212 C 0.30130 0.30123 0.25039
 H213 H 0.27891 0.21883 0.27885
 H214 H 0.27906 0.27920 0.21830
 H215 H 0.21810 0.21889 0.21853
 H216 H 0.21876 0.27955 0.27927
 H217 H 0.21288 0.24162 0.30908
 H218 H 0.18808 0.25752 0.28569
 H219 H 0.31133 0.26065 0.21374
 H220 H 0.28630 0.23912 0.19031
 H221 H 0.26208 0.21465 0.31124
 H222 H 0.23932 0.19135 0.28698
 H223 H 0.26139 0.31172 0.21404
 H224 H 0.24042 0.28679 0.19033
 H225 H 0.28555 0.19033 0.23930
 H226 H 0.31052 0.21348 0.25954
 H227 H 0.19116 0.28717 0.23704
 H228 H 0.21399 0.31166 0.26014
 O229 O 0.75017 0.80860 0.22063
 O230 O 0.72662 0.81495 0.25231
 O231 O 0.80890 0.77983 0.25052
 O232 O 0.81675 0.75062 0.27274
 O233 O 0.78029 0.75051 0.19178
 O234 O 0.74880 0.72639 0.18540
 O235 O 0.75034 0.71796 0.30794
 O236 O 0.77619 0.74696 0.31439
 O237 O 0.69272 0.75009 0.28216
 O238 O 0.68558 0.77534 0.25054
 O239 O 0.71844 0.69244 0.24975
 O240 O 0.75014 0.68528 0.22488
 O241 O 0.74809 0.69158 0.28055
 O242 O 0.77419 0.68499 0.24836
 O243 O 0.69193 0.71966 0.25205
 O244 O 0.68529 0.75206 0.22641
 O245 O 0.71985 0.74746 0.30876
 O246 O 0.75098 0.77365 0.31568
 O247 O 0.74988 0.78221 0.19308
 O248 O 0.72404 0.75170 0.18664
 O249 O 0.80761 0.74878 0.21831
 O250 O 0.81289 0.72248 0.24922
 O251 O 0.78240 0.80722 0.25222
 O252 O 0.75138 0.81368 0.27692
 Zr253 Zr 0.75166 0.78995 0.25060
 O254 O 0.73058 0.77070 0.27130
 Zr255 Zr 0.79033 0.74989 0.24908
 O256 O 0.77108 0.72904 0.27013
 Zr257 Zr 0.75036 0.75150 0.21037
 O258 O 0.72946 0.73039 0.22941
 Zr259 Zr 0.75001 0.74851 0.29052
 O260 O 0.77143 0.76956 0.27160
 Zr261 Zr 0.71022 0.74984 0.25158
 O262 O 0.72931 0.77124 0.23067
 Zr263 Zr 0.74901 0.70992 0.25039
 O264 O 0.77007 0.72904 0.22910
 O265 O 0.77185 0.77151 0.22906
 O266 O 0.72849 0.72814 0.27198
 C267 C 0.74966 0.80264 0.19990
 C268 C 0.80287 0.80048 0.25193
 C269 C 0.80093 0.74921 0.19782
 C270 C 0.74912 0.69753 0.30124
 C271 C 0.69924 0.74869 0.30264
 C272 C 0.69798 0.69903 0.25088
 H273 H 0.72151 0.78084 0.28073
 H274 H 0.71999 0.72146 0.21917
 H275 H 0.78148 0.78116 0.21961
 H276 H 0.78111 0.71956 0.27929
 H277 H 0.78779 0.75778 0.30950
 H278 H 0.81199 0.74156 0.28577
 H279 H 0.68778 0.73971 0.21563
 H280 H 0.71265 0.76236 0.19232
 H281 H 0.73860 0.78431 0.31297
 H282 H 0.76142 0.80775 0.28872
 H283 H 0.73895 0.68944 0.21337
 H284 H 0.75918 0.71435 0.19017
 H285 H 0.71436 0.81003 0.24226
 H286 H 0.68941 0.78656 0.26213
 H287 H 0.80772 0.71188 0.23754
 H288 H 0.78456 0.68714 0.26111
 O289 O 0.74893 0.19109 0.78139
 O290 O 0.72421 0.18491 0.75009
 O291 O 0.80713 0.21852 0.74850
 O292 O 0.81557 0.24850 0.72795
 O293 O 0.77989 0.24971 0.80889
 O294 O 0.74847 0.27381 0.81540
 O295 O 0.74947 0.28088 0.69300
 O296 O 0.77498 0.25019 0.68716
 O297 O 0.69127 0.24951 0.71946
 O298 O 0.68418 0.22455 0.75106
 O299 O 0.71787 0.30715 0.75108
 O300 O 0.75021 0.31388 0.77602
 O301 O 0.74742 0.30749 0.72018
 O302 O 0.77354 0.31425 0.75185
 O303 O 0.69108 0.28015 0.74931
 O304 O 0.68439 0.24794 0.77532
 O305 O 0.71819 0.25209 0.69267
 O306 O 0.74480 0.22617 0.68507
 O307 O 0.74816 0.21783 0.80856
 O308 O 0.72381 0.24898 0.81511
 O309 O 0.80688 0.24867 0.78198
 O310 O 0.81196 0.27579 0.75102
 O311 O 0.78044 0.19143 0.75088
 O312 O 0.74865 0.18456 0.72566
 Zr313 Zr 0.74997 0.20922 0.75115
 O314 O 0.72913 0.22856 0.73024
 Zr315 Zr 0.78908 0.24867 0.75148
 O316 O 0.76991 0.26978 0.73063
 Zr317 Zr 0.74959 0.24830 0.79082
 O318 O 0.72866 0.26932 0.77172
 Zr319 Zr 0.74842 0.25045 0.71065
 O320 O 0.76967 0.22893 0.72939
 Zr321 Zr 0.70907 0.24981 0.74989
 O322 O 0.72808 0.22852 0.77100
 Zr323 Zr 0.74830 0.28935 0.75044
 O324 O 0.76944 0.27012 0.77152
 O325 O 0.77059 0.22771 0.77220
 O326 O 0.72735 0.27120 0.72920
 C327 C 0.74808 0.19730 0.80202
 C328 C 0.80091 0.19791 0.74919
 C329 C 0.80048 0.24953 0.80254
 C330 C 0.74841 0.30137 0.69954
 C331 C 0.69762 0.25099 0.69894
 C332 C 0.69734 0.30074 0.75020
 H333 H 0.72013 0.21848 0.72062
 H334 H 0.71936 0.27844 0.78194
 H335 H 0.78017 0.21805 0.78170
 H336 H 0.78003 0.27901 0.72131
 H337 H 0.78463 0.23720 0.69090
 H338 H 0.80963 0.25505 0.71394
 H339 H 0.68684 0.26058 0.78577
 H340 H 0.71179 0.23902 0.80949
 H341 H 0.75226 0.21248 0.69056
 H342 H 0.76178 0.18692 0.71580
 H343 H 0.73832 0.31058 0.78709
 H344 H 0.75886 0.28571 0.81035
 H345 H 0.71256 0.18989 0.76081
 H346 H 0.68811 0.21308 0.73975
 H347 H 0.80742 0.28615 0.76317
 H348 H 0.78438 0.31119 0.73970
 O349 O 0.24869 0.80852 0.78046
 O350 O 0.27346 0.81472 0.74936
 O351 O 0.19071 0.78065 0.74986
 O352 O 0.18256 0.75153 0.72767
 O353 O 0.21879 0.74992 0.80867
 O354 O 0.25018 0.72599 0.81504
 O355 O 0.25003 0.71853 0.69241
 O356 O 0.22333 0.74726 0.68613
 O357 O 0.30671 0.75003 0.71864
 O358 O 0.31424 0.77449 0.75025
 O359 O 0.28011 0.69221 0.74990
 O360 O 0.24841 0.68535 0.77528
 O361 O 0.24951 0.69189 0.71962
 O362 O 0.22434 0.68538 0.75197
 O363 O 0.30694 0.71917 0.74818
 O364 O 0.31360 0.75146 0.77469
 O365 O 0.27964 0.74820 0.69190
 O366 O 0.24847 0.77434 0.68515
 O367 O 0.25050 0.78188 0.80770
 O368 O 0.27497 0.75060 0.81419
 O369 O 0.19149 0.75037 0.78204
 O370 O 0.18617 0.72330 0.75134
 O371 O 0.21747 0.80776 0.74871
 O372 O 0.24877 0.81410 0.72430
 Zr373 Zr 0.24799 0.79011 0.75035
 O374 O 0.26897 0.77083 0.72956
 Zr375 Zr 0.20894 0.75054 0.75137
 O376 O 0.22802 0.72963 0.73019
 Zr377 Zr 0.24886 0.75125 0.79024
 O378 O 0.26956 0.73009 0.77103
 Zr379 Zr 0.24943 0.74898 0.71006
 O380 O 0.22812 0.77014 0.72905
 Zr381 Zr 0.28904 0.74956 0.74912
 O382 O 0.27011 0.77098 0.77015
 Zr383 Zr 0.24973 0.71007 0.74987
 O384 O 0.22886 0.72927 0.77123
 O385 O 0.22763 0.77169 0.77171
 O386 O 0.27058 0.72822 0.72853
 C387 C 0.25006 0.80239 0.80108
 C388 C 0.19693 0.80125 0.74882
 C389 C 0.19813 0.74983 0.80254
 C390 C 0.24989 0.69804 0.69898
 C391 C 0.30025 0.74905 0.69811
 C392 C 0.30064 0.69859 0.74891
 H393 H 0.27816 0.78098 0.72026
 H394 H 0.27893 0.72094 0.78116
 H395 H 0.21811 0.78139 0.78122
 H396 H 0.21794 0.72034 0.72088
 H397 H 0.21171 0.75809 0.69096
 H398 H 0.18717 0.74230 0.71470
 H399 H 0.31168 0.73835 0.78464
 H400 H 0.28681 0.76076 0.80854
 H401 H 0.26078 0.78503 0.68808
 H402 H 0.23860 0.80851 0.71244
 H403 H 0.26018 0.68889 0.78641
 H404 H 0.24008 0.71385 0.80993
 H405 H 0.28525 0.80975 0.75993
 H406 H 0.30994 0.78644 0.73960
 H407 H 0.19081 0.71309 0.76356
 H408 H 0.21334 0.68834 0.73992
 O409 O 0.24895 0.30716 0.71876
 O410 O 0.22468 0.31353 0.74997
 O411 O 0.30779 0.28055 0.75064
 O412 O 0.31602 0.25180 0.77324
 O413 O 0.28116 0.24849 0.69172
 O414 O 0.24997 0.22440 0.68503
 O415 O 0.24866 0.21815 0.80767
 O416 O 0.27485 0.24740 0.81404
 O417 O 0.19189 0.24855 0.78032
 O418 O 0.18478 0.27301 0.74804
 O419 O 0.21964 0.19092 0.75013
 O420 O 0.25186 0.18429 0.72504
 O421 O 0.24989 0.19127 0.78069
 O422 O 0.27546 0.18466 0.74884
 O423 O 0.19248 0.21759 0.75107
 O424 O 0.18551 0.24918 0.72441
 O425 O 0.21859 0.24735 0.80746
 O426 O 0.24917 0.27397 0.81453
 O427 O 0.24998 0.28027 0.69172
 O428 O 0.22498 0.24914 0.68537
 O429 O 0.30802 0.24984 0.71873
 O430 O 0.31330 0.22332 0.74975
 O431 O 0.28065 0.30733 0.75077
 O432 O 0.24916 0.31347 0.77491
 Zr433 Zr 0.25041 0.28920 0.74912
 O434 O 0.22944 0.26983 0.76981
 Zr435 Zr 0.29008 0.25017 0.74910
 O436 O 0.27098 0.22918 0.77013
 Zr437 Zr 0.25082 0.24991 0.70961
 O438 O 0.23007 0.22870 0.72867
 Zr439 Zr 0.24903 0.24843 0.78976
 O440 O 0.27026 0.26972 0.77090
 Zr441 Zr 0.21000 0.24813 0.75010
 O442 O 0.22894 0.26956 0.72913
 Zr443 Zr 0.24982 0.20914 0.75030
 O444 O 0.27079 0.22839 0.72912
 O445 O 0.27141 0.27087 0.72828
 O446 O 0.22843 0.22724 0.77116
 C447 C 0.24900 0.30082 0.69815
 C448 C 0.30127 0.30107 0.75122
 C449 C 0.30172 0.24880 0.69815
 C450 C 0.24920 0.19759 0.80127
 C451 C 0.19808 0.24782 0.80093
 C452 C 0.19902 0.19708 0.75078
 H453 H 0.21997 0.27993 0.77888
 H454 H 0.22098 0.21932 0.71848
 H455 H 0.28095 0.28059 0.71882
 H456 H 0.28106 0.22011 0.77966
 H457 H 0.28630 0.25845 0.80931
 H458 H 0.31137 0.24256 0.78618
 H459 H 0.18836 0.23653 0.71408
 H460 H 0.21318 0.25949 0.69072
 H461 H 0.23690 0.28459 0.81118
 H462 H 0.25922 0.30807 0.78696
 H463 H 0.23990 0.18729 0.71397
 H464 H 0.26001 0.21234 0.69041
 H465 H 0.21278 0.30818 0.73970
 H466 H 0.18805 0.28448 0.75956
 H467 H 0.30893 0.21281 0.73768
 H468 H 0.28638 0.18803 0.76085
 O469 O 0.74977 0.69191 0.71914
 O470 O 0.77520 0.68528 0.74961
 O471 O 0.69207 0.71808 0.75348
 O472 O 0.68377 0.74732 0.77508
 O473 O 0.71780 0.75086 0.69348
 O474 O 0.74878 0.77523 0.68679
 O475 O 0.75137 0.77992 0.80936
 O476 O 0.72548 0.74961 0.81525
 O477 O 0.80834 0.74991 0.78089
 O478 O 0.81512 0.72562 0.74897
 O479 O 0.78031 0.80760 0.75261
 O480 O 0.74806 0.81460 0.72713
 O481 O 0.74994 0.80708 0.78272
 O482 O 0.72450 0.81409 0.75103
 O483 O 0.80743 0.78093 0.75070
 O484 O 0.81372 0.74877 0.72471
 O485 O 0.78197 0.75116 0.80834
 O486 O 0.75547 0.72468 0.81565
 O487 O 0.74967 0.71916 0.69249
 O488 O 0.77372 0.75074 0.68612
 O489 O 0.69134 0.74906 0.72085
 O490 O 0.68659 0.77530 0.75263
 O491 O 0.71901 0.69132 0.75041
 O492 O 0.75163 0.68441 0.77478
 Zr493 Zr 0.74927 0.70943 0.74975
 O494 O 0.77042 0.72857 0.77053
 Zr495 Zr 0.70975 0.74845 0.75101
 O496 O 0.72914 0.76928 0.77197
 Zr497 Zr 0.74843 0.74927 0.71089
 O498 O 0.76947 0.77017 0.72999
 Zr499 Zr 0.75137 0.74984 0.79102
 O500 O 0.72984 0.72853 0.77231
 Zr501 Zr 0.78980 0.75040 0.75087
 O502 O 0.77054 0.72931 0.72980
 Zr503 Zr 0.75006 0.78951 0.75214
 O504 O 0.72874 0.77049 0.73104
 O505 O 0.72802 0.72811 0.72950
 O506 O 0.77177 0.77118 0.77243
 C507 C 0.75007 0.69851 0.69864
 C508 C 0.69849 0.69754 0.75244
 C509 C 0.69733 0.75046 0.70019
 C510 C 0.75066 0.80055 0.80323
 C511 C 0.80239 0.75065 0.80158
 C512 C 0.80091 0.80143 0.75164
 H513 H 0.77974 0.71840 0.77972
 H514 H 0.77846 0.77961 0.71978
 H515 H 0.71832 0.71857 0.72000
 H516 H 0.71912 0.77819 0.78170
 H517 H 0.71551 0.73688 0.81149
 H518 H 0.68980 0.75391 0.78903
 H519 H 0.81077 0.76135 0.71432
 H520 H 0.78567 0.74029 0.69094
 H521 H 0.74646 0.71173 0.81068
 H522 H 0.73858 0.68622 0.78485
 H523 H 0.76034 0.81200 0.71630
 H524 H 0.73894 0.78723 0.69267
 H525 H 0.78666 0.69070 0.73891
 H526 H 0.81130 0.71369 0.75983
 H527 H 0.69047 0.78578 0.74037
 H528 H 0.71348 0.81044 0.76286
 O529 O 0.24859 0.69223 0.28211
 O530 O 0.22412 0.68544 0.25096
 O531 O 0.30728 0.71803 0.24732
 O532 O 0.31560 0.74736 0.22578
 O533 O 0.28196 0.75130 0.30747
 O534 O 0.25078 0.77548 0.31428
 O535 O 0.24925 0.77991 0.19173
 O536 O 0.27412 0.74863 0.18598
 O537 O 0.19120 0.75048 0.22028
 O538 O 0.18483 0.72536 0.25251
 O539 O 0.21917 0.80771 0.24889
 O540 O 0.25181 0.81463 0.27405
 O541 O 0.24836 0.80710 0.21840
 O542 O 0.27493 0.81428 0.24947
 O543 O 0.19207 0.78101 0.25063
 O544 O 0.18544 0.74925 0.27613
 O545 O 0.21755 0.75182 0.19283
 O546 O 0.24348 0.72514 0.18515
 O547 O 0.25084 0.71945 0.30871
 O548 O 0.22601 0.75057 0.31504
 O549 O 0.30832 0.74908 0.28004
 O550 O 0.31303 0.77520 0.24828
 O551 O 0.28033 0.69135 0.25098
 O552 O 0.24814 0.68430 0.22654
 Zr553 Zr 0.25010 0.70954 0.25140
 O554 O 0.22902 0.72868 0.23057
 Zr555 Zr 0.28975 0.74848 0.24998
 O556 O 0.27036 0.76938 0.22912
 Zr557 Zr 0.25127 0.74946 0.29022
 O558 O 0.23011 0.77029 0.27119
 Zr559 Zr 0.24815 0.74990 0.21009
 O560 O 0.26955 0.72853 0.22880
 Zr561 Zr 0.20973 0.75054 0.25031
 O562 O 0.22901 0.72952 0.27142
 Zr563 Zr 0.24943 0.78962 0.24898
 O564 O 0.27087 0.77062 0.26997
 O565 O 0.27152 0.72818 0.27155
 O566 O 0.22776 0.77124 0.22871
 C567 C 0.24929 0.69884 0.30261
 C568 C 0.30083 0.69751 0.24861
 C569 C 0.30241 0.75070 0.30070
 C570 C 0.24870 0.80054 0.19789
 C571 C 0.19712 0.75144 0.19959
 C572 C 0.19856 0.80152 0.24978
 H573 H 0.21966 0.71856 0.22135
 H574 H 0.22116 0.77974 0.28144
 H575 H 0.28122 0.71864 0.28105
 H576 H 0.28038 0.77828 0.21939
 H577 H 0.28361 0.73554 0.18976
 H578 H 0.30939 0.75366 0.21177
 H579 H 0.18920 0.76100 0.28721
 H580 H 0.21423 0.73991 0.31026
 H581 H 0.25070 0.71139 0.19082
 H582 H 0.26102 0.68641 0.21631
 H583 H 0.23949 0.81218 0.28487
 H584 H 0.26071 0.78743 0.30848
 H585 H 0.21240 0.69095 0.26133
 H586 H 0.18764 0.71434 0.24045
 H587 H 0.30890 0.78597 0.26022
 H588 H 0.28562 0.81074 0.23731
 O589 O 0.75063 0.30745 0.28180
 O590 O 0.77575 0.31410 0.25119
 O591 O 0.69261 0.28158 0.24789
 O592 O 0.68384 0.25263 0.22631
 O593 O 0.71861 0.24849 0.30756
 O594 O 0.74944 0.22402 0.31400
 O595 O 0.75239 0.22005 0.19121
 O596 O 0.72579 0.24929 0.18528
 O597 O 0.80847 0.24832 0.21957
 O598 O 0.81564 0.27343 0.25158
 O599 O 0.78036 0.19166 0.24762
 O600 O 0.74839 0.18449 0.27295
 O601 O 0.74997 0.19274 0.21764
 O602 O 0.72437 0.18575 0.24953
 O603 O 0.80760 0.21816 0.24988
 O604 O 0.81438 0.25014 0.27566
 O605 O 0.78199 0.25039 0.19226
 O606 O 0.75133 0.27592 0.18537
 O607 O 0.75055 0.28011 0.30837
 O608 O 0.77463 0.24832 0.31446
 O609 O 0.69195 0.25051 0.28037
 O610 O 0.68702 0.22414 0.24878
 O611 O 0.71971 0.30827 0.25044
 O612 O 0.75113 0.31464 0.22583
 Zr613 Zr 0.74983 0.28995 0.25121
 O614 O 0.77093 0.27093 0.23033
 Zr615 Zr 0.71010 0.25107 0.25009
 O616 O 0.72930 0.23046 0.22876
 Zr617 Zr 0.74909 0.25001 0.28994
 O618 O 0.76986 0.22904 0.27060
 Zr619 Zr 0.75146 0.25004 0.20973
 O620 O 0.73011 0.27101 0.22884
 Zr621 Zr 0.79019 0.24877 0.24973
 O622 O 0.77116 0.26991 0.27096
 Zr623 Zr 0.75025 0.21000 0.24836
 O624 O 0.72921 0.22892 0.26981
 O625 O 0.72862 0.27130 0.27152
 O626 O 0.77187 0.22839 0.22804
 C627 C 0.75100 0.30078 0.30228
 C628 C 0.69913 0.30210 0.24872
 C629 C 0.69810 0.24904 0.30098
 C630 C 0.75129 0.19940 0.19722
 C631 C 0.80243 0.24934 0.19891
 C632 C 0.80099 0.19771 0.24868
 H633 H 0.78049 0.28116 0.22151
 H634 H 0.77883 0.21947 0.28071
 H635 H 0.71904 0.28088 0.28109
 H636 H 0.71926 0.22162 0.21896
 H637 H 0.71428 0.26023 0.19011
 H638 H 0.68892 0.24450 0.21278
 H639 H 0.81118 0.23780 0.28626
 H640 H 0.78647 0.25892 0.30972
 H641 H 0.76245 0.28735 0.18988
 H642 H 0.74036 0.30995 0.21411
 H643 H 0.76035 0.18727 0.28409
 H644 H 0.73969 0.21198 0.30804
 H645 H 0.78759 0.30829 0.26126
 H646 H 0.81251 0.28486 0.24000
 H647 H 0.69096 0.21374 0.26110
 H648 H 0.71361 0.18923 0.23741
 C649 C 0.25091 0.07917 0.08037
 C650 C 0.23199 0.06549 0.07729
 C651 C 0.23176 0.04910 0.06055
 C652 C 0.25059 0.04578 0.04682
 C653 C 0.26960 0.05929 0.05005
 C654 C 0.26968 0.07596 0.06652
 C655 C 0.25103 0.09670 0.09793
 N656 N 0.26539 0.11432 0.09670
 N657 N 0.26534 0.13018 0.11242
 C658 C 0.25106 0.12898 0.13011
 N659 N 0.23677 0.11131 0.13138
 N660 N 0.23670 0.09554 0.11557
 C661 C 0.25099 0.14657 0.14759
 C662 C 0.24207 0.14216 0.16892
 C663 C 0.24200 0.15875 0.18546
 C664 C 0.25047 0.18024 0.18087
 C665 C 0.25927 0.18471 0.15949
 C666 C 0.25971 0.16798 0.14308
 H667 H 0.21724 0.06763 0.08764
 H668 H 0.21690 0.03888 0.05849
 H669 H 0.28432 0.05714 0.03965
 H670 H 0.28454 0.08618 0.06857
 H671 H 0.23531 0.12580 0.17292
 H672 H 0.23500 0.15485 0.20175
 H673 H 0.26598 0.20109 0.15551
 H674 H 0.26661 0.17191 0.12676
 C675 C 0.74938 0.58103 0.57956
 C676 C 0.76825 0.57765 0.56590
 C677 C 0.76829 0.56078 0.54963
 C678 C 0.74930 0.54724 0.54641
 C679 C 0.73032 0.55081 0.55987
 C680 C 0.73043 0.56740 0.57641
 C681 C 0.74949 0.59857 0.59709
 N682 N 0.73524 0.59736 0.61479
 N683 N 0.73547 0.61302 0.63070
 C684 C 0.74984 0.63063 0.62948
 N685 N 0.76401 0.63191 0.61171
 N686 N 0.76391 0.61615 0.59589
 C687 C 0.75006 0.64800 0.64717
 C688 C 0.75874 0.66946 0.64282
 C689 C 0.75865 0.68594 0.65949
 C690 C 0.75029 0.68114 0.68097
 C691 C 0.74185 0.65960 0.68539
 C692 C 0.74155 0.64328 0.66860
 H693 H 0.78313 0.58783 0.56799
 H694 H 0.78313 0.55845 0.53944
 H695 H 0.71547 0.54057 0.55780
 H696 H 0.71560 0.56968 0.58662
 H697 H 0.76533 0.67362 0.62643
 H698 H 0.76530 0.70238 0.65565
 H699 H 0.73515 0.65547 0.70175
 H700 H 0.73484 0.62687 0.67248
 C701 C 0.75009 0.92187 0.08277
 C702 C 0.72995 0.93200 0.07607
 C703 C 0.72979 0.94805 0.05901
 C704 C 0.74989 0.95477 0.04858
 C705 C 0.77011 0.94479 0.05562
 C706 C 0.77015 0.92835 0.07233
 C707 C 0.75015 0.90448 0.10041
 N708 N 0.76640 0.88855 0.10093
 N709 N 0.76627 0.87266 0.11660
 C710 C 0.75001 0.87217 0.13252
 N711 N 0.73385 0.88819 0.13211
 N712 N 0.73385 0.90396 0.11629
 C713 C 0.74983 0.85443 0.14981
 C714 C 0.73974 0.85818 0.17077
 C715 C 0.73983 0.84142 0.18717
 C716 C 0.74952 0.82044 0.18270
 C717 C 0.75936 0.81661 0.16166
 C718 C 0.75974 0.83352 0.14547
 H719 H 0.71422 0.92723 0.08376
 H720 H 0.71387 0.95532 0.05417
 H721 H 0.78594 0.94942 0.04806
 H722 H 0.78594 0.92088 0.07725
 H723 H 0.73207 0.87418 0.17459
 H724 H 0.73210 0.84478 0.20325
 H725 H 0.76710 0.80064 0.15783
 H726 H 0.76754 0.83014 0.12944
 C727 C 0.24938 0.41953 0.58048
 C728 C 0.26840 0.42277 0.56699
 C729 C 0.26861 0.43945 0.55056
 C730 C 0.24964 0.45293 0.54701
 C731 C 0.23056 0.44958 0.56038
 C732 C 0.23050 0.43318 0.57709
 C733 C 0.24920 0.40196 0.59795
 N734 N 0.23464 0.40308 0.61541
 N735 N 0.23450 0.38725 0.63116
 C736 C 0.24879 0.36957 0.62997
 N737 N 0.26329 0.36842 0.61247
 N738 N 0.26355 0.38433 0.59683
 C739 C 0.24858 0.35194 0.64737
 C740 C 0.25739 0.33059 0.64279
 C741 C 0.25720 0.31389 0.65919
 C742 C 0.24857 0.31833 0.68065
 C743 C 0.23986 0.33971 0.68529
 C744 C 0.23968 0.35629 0.66874
 H745 H 0.28323 0.41256 0.56929
 H746 H 0.28352 0.44163 0.54044
 H747 H 0.21573 0.45980 0.55806
 H748 H 0.21557 0.43101 0.58716
 H749 H 0.26427 0.32671 0.62645
 H750 H 0.26415 0.29761 0.65518
 H751 H 0.23305 0.34357 0.70167
 H752 H 0.23285 0.37261 0.67278
 C753 C 0.74825 0.07876 0.92006
 C754 C 0.72964 0.07576 0.93417
 C755 C 0.72981 0.05918 0.95071
 C756 C 0.74874 0.04552 0.95376
 C757 C 0.76742 0.04861 0.93977
 C758 C 0.76709 0.06492 0.92295
 C759 C 0.74801 0.09625 0.90247
 N760 N 0.76212 0.09501 0.88465
 N761 N 0.76187 0.11073 0.86881
 C762 C 0.74763 0.12844 0.87022
 N763 N 0.73358 0.12972 0.88808
 N764 N 0.73370 0.11390 0.90383
 C765 C 0.74749 0.14600 0.85270
 C766 C 0.73876 0.16740 0.85726
 C767 C 0.73901 0.18410 0.84083
 C768 C 0.74760 0.17961 0.81937
 C769 C 0.75607 0.15813 0.81472
 C770 C 0.75620 0.14156 0.83127
 H771 H 0.71484 0.08609 0.93229
 H772 H 0.71520 0.05724 0.96131
 H773 H 0.78222 0.03828 0.94169
 H774 H 0.78172 0.06689 0.91239
 H775 H 0.73202 0.17135 0.87364
 H776 H 0.73232 0.20048 0.84487
 H777 H 0.76294 0.15422 0.79837
 H778 H 0.76296 0.12521 0.82723
 C779 C 0.24939 0.58034 0.42051
 C780 C 0.23048 0.56670 0.42384
 C781 C 0.23056 0.55013 0.44037
 C782 C 0.24969 0.54658 0.45364
 C783 C 0.26868 0.56005 0.45017
 C784 C 0.26846 0.57690 0.43390
 C785 C 0.24919 0.59803 0.40316
 N786 N 0.26372 0.61552 0.40422
 N787 N 0.26347 0.63148 0.38862
 C788 C 0.24881 0.63051 0.37123
 N789 N 0.23433 0.61298 0.37013
 N790 N 0.23446 0.59711 0.38582
 C791 C 0.24868 0.64811 0.35379
 C792 C 0.23942 0.64379 0.33256
 C793 C 0.23966 0.66026 0.31592
 C794 C 0.24880 0.68152 0.32030
 C795 C 0.25779 0.68594 0.34162
 C796 C 0.25791 0.66934 0.35813
 H797 H 0.21551 0.56901 0.41384
 H798 H 0.21571 0.53994 0.44263
 H799 H 0.28362 0.55774 0.46021
 H800 H 0.28331 0.58708 0.43165
 H801 H 0.23227 0.62757 0.32869
 H802 H 0.23256 0.65640 0.29967
 H803 H 0.26506 0.70214 0.34543
 H804 H 0.26508 0.67318 0.37436
 C805 C 0.24956 0.92019 0.91970
 C806 C 0.22949 0.93071 0.92606
 C807 C 0.22941 0.94699 0.94294
 C808 C 0.24951 0.95350 0.95350
 C809 C 0.26962 0.94304 0.94685
 C810 C 0.26959 0.92644 0.93034
 C811 C 0.24968 0.90278 0.90207
 N812 N 0.26607 0.88700 0.90150
 N813 N 0.26622 0.87130 0.88563
 C814 C 0.25011 0.87087 0.86955
 N815 N 0.23377 0.88671 0.87006
 N816 N 0.23350 0.90229 0.88606
 C817 C 0.25034 0.85347 0.85191
 C818 C 0.23999 0.85736 0.83113
 C819 C 0.24027 0.84091 0.81444
 C820 C 0.25050 0.82007 0.81840
 C821 C 0.26074 0.81613 0.83924
 C822 C 0.26088 0.83276 0.85574
 H823 H 0.21379 0.92613 0.91820
 H824 H 0.21358 0.95462 0.94750
 H825 H 0.28547 0.94748 0.95454
 H826 H 0.28533 0.91869 0.92569
 H827 H 0.23183 0.87321 0.82769
 H828 H 0.23212 0.84433 0.79858
 H829 H 0.26879 0.80023 0.84270
 H830 H 0.26891 0.82927 0.87164
 C831 C 0.74987 0.41805 0.42155
 C832 C 0.73088 0.43164 0.42459
 C833 C 0.73067 0.44824 0.44112
 C834 C 0.74960 0.45187 0.45465
 C835 C 0.76863 0.43836 0.45154
 C836 C 0.76869 0.42148 0.43529
 C837 C 0.75009 0.40052 0.40401
 N838 N 0.76455 0.38298 0.40525
 N839 N 0.76476 0.36723 0.38940
 C840 C 0.75064 0.36850 0.37159
 N841 N 0.73623 0.38607 0.37033
 N842 N 0.73590 0.40171 0.38625
 C843 C 0.75097 0.35117 0.35385
 C844 C 0.74250 0.35595 0.33241
 C845 C 0.74283 0.33966 0.31560
 C846 C 0.75127 0.31812 0.31998
 C847 C 0.75960 0.31327 0.34147
 C848 C 0.75966 0.32971 0.35818
 H849 H 0.71610 0.42932 0.41432
 H850 H 0.71579 0.45845 0.44311
 H851 H 0.78342 0.44073 0.46179
 H852 H 0.78360 0.41133 0.43326
 H853 H 0.73577 0.37236 0.32855
 H854 H 0.73614 0.34383 0.29924
 H855 H 0.76625 0.29681 0.34529
 H856 H 0.76622 0.32553 0.37458
 C857 C 0.08013 0.25063 0.07894
 C858 C 0.06642 0.23170 0.07607
 C859 C 0.04999 0.23133 0.05938
 C860 C 0.04666 0.25004 0.04548
 C861 C 0.06025 0.26904 0.04845
 C862 C 0.07696 0.26925 0.06488
 C863 C 0.09758 0.25092 0.09656
 N864 N 0.11522 0.26526 0.09527
 N865 N 0.13097 0.26542 0.11110
 C866 C 0.12964 0.25137 0.12896
 N867 N 0.11196 0.23710 0.13029
 N868 N 0.09630 0.23682 0.11438
 C869 C 0.14708 0.25152 0.14658
 C870 C 0.14247 0.24288 0.16799
 C871 C 0.15892 0.24297 0.18465
 C872 C 0.18046 0.25135 0.18015
 C873 C 0.18513 0.25988 0.15871
 C874 C 0.16854 0.26017 0.14215
 H875 H 0.06853 0.21706 0.08658
 H876 H 0.03970 0.21649 0.05753
 H877 H 0.05810 0.28366 0.03792
 H878 H 0.08722 0.28411 0.06676
 H879 H 0.12607 0.23618 0.17193
 H880 H 0.15488 0.23614 0.20098
 H881 H 0.20156 0.26651 0.15478
 H882 H 0.17261 0.26686 0.12578
 C883 C 0.57895 0.75054 0.58192
 C884 C 0.56518 0.73168 0.57882
 C885 C 0.54896 0.73144 0.56190
 C886 C 0.54591 0.75020 0.54801
 C887 C 0.55954 0.76913 0.55124
 C888 C 0.57602 0.76922 0.56789
 C889 C 0.59634 0.75074 0.59962
 N890 N 0.61388 0.76520 0.59849
 N891 N 0.62961 0.76532 0.61433
 C892 C 0.62835 0.75112 0.63207
 N893 N 0.61075 0.73673 0.63327
 N894 N 0.59511 0.73649 0.61733
 C895 C 0.64587 0.75123 0.64963
 C896 C 0.64154 0.74224 0.67096
 C897 C 0.65814 0.74232 0.68751
 C898 C 0.67953 0.75103 0.68294
 C899 C 0.68389 0.75995 0.66159
 C900 C 0.66717 0.76024 0.64518
 H901 H 0.56711 0.71700 0.58931
 H902 H 0.53864 0.71664 0.55983
 H903 H 0.55762 0.78380 0.54074
 H904 H 0.58630 0.78404 0.56993
 H905 H 0.62527 0.73526 0.67492
 H906 H 0.65434 0.73521 0.70377
 H907 H 0.70019 0.76685 0.65760
 H908 H 0.67104 0.76721 0.62888
 C909 C 0.08068 0.75117 0.92146
 C910 C 0.07453 0.73121 0.93226
 C911 C 0.05758 0.73117 0.94842
 C912 C 0.04668 0.75122 0.95455
 C913 C 0.05315 0.77126 0.94387
 C914 C 0.06977 0.77117 0.92735
 C915 C 0.09829 0.75107 0.90403
 N916 N 0.09862 0.76701 0.88779
 N917 N 0.11429 0.76674 0.87189
 C918 C 0.13040 0.75065 0.87172
 N919 N 0.13016 0.73480 0.88805
 N920 N 0.11435 0.73494 0.90382
 C921 C 0.14774 0.75033 0.85403
 C922 C 0.16865 0.74021 0.85792
 C923 C 0.18512 0.74017 0.84125
 C924 C 0.18079 0.74978 0.82020
 C925 C 0.15979 0.75967 0.81623
 C926 C 0.14352 0.76015 0.83306
 H927 H 0.08258 0.71552 0.92797
 H928 H 0.05318 0.71538 0.95623
 H929 H 0.04522 0.78705 0.94803
 H930 H 0.07427 0.78683 0.91935
 H931 H 0.17239 0.73260 0.87397
 H932 H 0.20116 0.73240 0.84472
 H933 H 0.15607 0.76735 0.80021
 H934 H 0.12753 0.76799 0.82956
 C935 C 0.57997 0.24970 0.41925
 C936 C 0.57691 0.23105 0.43328
 C937 C 0.56028 0.23119 0.44975
 C938 C 0.54664 0.25013 0.45280
 C939 C 0.54984 0.26888 0.43893
 C940 C 0.56621 0.26859 0.42219
 C941 C 0.59741 0.24943 0.40164
 N942 N 0.59624 0.26364 0.38391
 N943 N 0.61189 0.26331 0.36800
 C944 C 0.62943 0.24886 0.36926
 N945 N 0.63064 0.23470 0.38704
 N946 N 0.61491 0.23492 0.40286
 C947 C 0.64690 0.24862 0.35169
 C948 C 0.66817 0.23952 0.35612
 C949 C 0.68482 0.23968 0.33965
 C950 C 0.68041 0.24858 0.31830
 C951 C 0.65905 0.25740 0.31378
 C952 C 0.64253 0.25759 0.33036
 H953 H 0.58719 0.21622 0.43135
 H954 H 0.55824 0.21652 0.46025
 H955 H 0.53951 0.28368 0.44086
 H956 H 0.56825 0.28325 0.41170
 H957 H 0.67206 0.23256 0.37242
 H958 H 0.70111 0.23271 0.34360
 H959 H 0.65521 0.26449 0.29751
 H960 H 0.62627 0.26463 0.32643
 C961 C 0.91876 0.74992 0.07910
 C962 C 0.93237 0.73104 0.07557
 C963 C 0.94891 0.73123 0.05899
 C964 C 0.95245 0.75045 0.04587
 C965 C 0.93896 0.76941 0.04951
 C966 C 0.92214 0.76907 0.06583
 C967 C 0.90117 0.74964 0.09659
 N968 N 0.88365 0.76414 0.09571
 N969 N 0.86780 0.76383 0.11143
 C970 C 0.86891 0.74911 0.12877
 N971 N 0.88648 0.73466 0.12968
 N972 N 0.90223 0.73486 0.11387
 C973 C 0.85142 0.74890 0.14634
 C974 C 0.85590 0.73964 0.16753
 C975 C 0.83951 0.73979 0.18428
 C976 C 0.81818 0.74881 0.18004
 C977 C 0.81361 0.75781 0.15875
 C978 C 0.83013 0.75803 0.14215
 H979 H 0.93010 0.71600 0.08547
 H980 H 0.95911 0.71640 0.05660
 H981 H 0.94127 0.78443 0.03960
 H982 H 0.91197 0.78391 0.06823
 H983 H 0.87218 0.73256 0.17130
 H984 H 0.84349 0.73269 0.20050
 H985 H 0.79737 0.76502 0.15505
 H986 H 0.82616 0.76521 0.12596
 C987 C 0.41957 0.24996 0.57961
 C988 C 0.42261 0.23130 0.56558
 C989 C 0.43929 0.23138 0.54915
 C990 C 0.45300 0.25028 0.54616
 C991 C 0.44982 0.26904 0.56003
 C992 C 0.43339 0.26881 0.57673
 C993 C 0.40210 0.24974 0.59718
 N994 N 0.40332 0.26388 0.61498
 N995 N 0.38767 0.26356 0.63089
 C996 C 0.37006 0.24919 0.62955
 N997 N 0.36879 0.23511 0.61171
 N998 N 0.38453 0.23532 0.59589
 C999 C 0.35263 0.24890 0.64716
 C1000 C 0.33131 0.23992 0.64272
 C1001 C 0.31474 0.23994 0.65926
 C1002 C 0.31928 0.24857 0.68070
 C1003 C 0.34067 0.25731 0.68522
 C1004 C 0.35712 0.25765 0.66856
 H1005 H 0.41228 0.21650 0.56746
 H1006 H 0.44132 0.21671 0.53865
 H1007 H 0.46020 0.28381 0.55814
 H1008 H 0.43137 0.28348 0.58723
 H1009 H 0.32733 0.23314 0.62635
 H1010 H 0.29841 0.23305 0.65532
 H1011 H 0.34460 0.26422 0.70155
 H1012 H 0.37341 0.26460 0.67251
 C1013 C 0.91865 0.24836 0.92080
 C1014 C 0.92515 0.26845 0.93117
 C1015 C 0.94212 0.26859 0.94729
 C1016 C 0.95271 0.24851 0.95385
 C1017 C 0.94592 0.22834 0.94360
 C1018 C 0.92927 0.22832 0.92709
 C1019 C 0.90096 0.24838 0.90345
 N1020 N 0.90035 0.23221 0.88744
 N1021 N 0.88460 0.23245 0.87160
 C1022 C 0.86870 0.24874 0.87128
 N1023 N 0.86922 0.26482 0.88739
 N1024 N 0.88510 0.26471 0.90309
 C1025 C 0.85126 0.24904 0.85369
 C1026 C 0.83048 0.25942 0.85761
 C1027 C 0.81390 0.25947 0.84104
 C1028 C 0.81798 0.24960 0.82006
 C1029 C 0.83886 0.23948 0.81603
 C1030 C 0.85524 0.23899 0.83277
 H1031 H 0.91732 0.28417 0.92656
 H1032 H 0.94676 0.28448 0.95476
 H1033 H 0.95363 0.21253 0.94810
 H1034 H 0.92451 0.21257 0.91943
 H1035 H 0.82693 0.26722 0.87361
 H1036 H 0.79797 0.26742 0.84455
 H1037 H 0.84239 0.23161 0.80006
 H1038 H 0.87114 0.23096 0.82925
 C1039 C 0.42083 0.75073 0.41893
 C1040 C 0.42380 0.76941 0.43296
 C1041 C 0.44025 0.76928 0.44965
 C1042 C 0.45380 0.75030 0.45291
 C1043 C 0.45072 0.73154 0.43901
 C1044 C 0.43453 0.73183 0.42206
 C1045 C 0.40347 0.75097 0.40120
 N1046 N 0.40466 0.73668 0.38351
 N1047 N 0.38903 0.73695 0.36756
 C1048 C 0.37148 0.75141 0.36873
 N1049 N 0.37027 0.76565 0.38645
 N1050 N 0.38598 0.76550 0.40231
 C1051 C 0.35395 0.75153 0.35117
 C1052 C 0.33269 0.76063 0.35563
 C1053 C 0.31596 0.76034 0.33924
 C1054 C 0.32025 0.75132 0.31791
 C1055 C 0.34161 0.74252 0.31333
 C1056 C 0.35823 0.74244 0.32986
 H1057 H 0.41357 0.78426 0.43091
 H1058 H 0.44219 0.78395 0.46015
 H1059 H 0.46099 0.71672 0.44109
 H1060 H 0.43257 0.71714 0.41157
 H1061 H 0.32886 0.76767 0.37191
 H1062 H 0.29968 0.76731 0.34323
 H1063 H 0.34537 0.73533 0.29709
 H1064 H 0.37448 0.73540 0.32591
 C1065 C 0.07906 0.08044 0.25160
 C1066 C 0.07618 0.06640 0.27028
 C1067 C 0.05960 0.04985 0.27027
 C1068 C 0.04583 0.04672 0.25142
 C1069 C 0.04883 0.06062 0.23265
 C1070 C 0.06515 0.07745 0.23282
 C1071 C 0.09651 0.09809 0.25172
 N1072 N 0.09514 0.11589 0.23761
 N1073 N 0.11080 0.13181 0.23779
 C1074 C 0.12856 0.13049 0.25198
 N1075 N 0.12997 0.11265 0.26603
 N1076 N 0.11422 0.09682 0.26597
 C1077 C 0.14606 0.14809 0.25205
 C1078 C 0.16751 0.14359 0.26067
 C1079 C 0.18417 0.16007 0.26034
 C1080 C 0.17958 0.18152 0.25178
 C1081 C 0.15804 0.18611 0.24344
 C1082 C 0.14151 0.16951 0.24339
 H1083 H 0.08657 0.06836 0.28503
 H1084 H 0.05772 0.03934 0.28494
 H1085 H 0.03841 0.05863 0.21792
 H1086 H 0.06703 0.08794 0.21814
 H1087 H 0.17155 0.12722 0.26738
 H1088 H 0.20061 0.15607 0.26692
 H1089 H 0.15405 0.20244 0.23658
 H1090 H 0.12511 0.17350 0.23671
 C1091 C 0.57996 0.57961 0.75206
 C1092 C 0.56603 0.57646 0.77078
 C1093 C 0.54951 0.55987 0.77062
 C1094 C 0.54632 0.54634 0.75160
 C1095 C 0.56011 0.54962 0.73281
 C1096 C 0.57689 0.56596 0.73311
 C1097 C 0.59759 0.59703 0.75233
 N1098 N 0.61517 0.59598 0.73791
 N1099 N 0.63109 0.61162 0.73821
 C1100 C 0.63001 0.62904 0.75283
 N1101 N 0.61239 0.63014 0.76719
 N1102 N 0.59655 0.61441 0.76700
 C1103 C 0.64762 0.64648 0.75304
 C1104 C 0.64340 0.66766 0.76247
 C1105 C 0.65991 0.68427 0.76226
 C1106 C 0.68110 0.67991 0.75299
 C1107 C 0.68542 0.65864 0.74383
 C1108 C 0.66879 0.64217 0.74369
 H1109 H 0.56805 0.58665 0.78566
 H1110 H 0.53908 0.55777 0.78533
 H1111 H 0.55807 0.53939 0.71794
 H1112 H 0.58730 0.56806 0.71839
 H1113 H 0.62721 0.67150 0.76972
 H1114 H 0.65612 0.70049 0.76948
 H1115 H 0.70155 0.65485 0.73642
 H1116 H 0.67257 0.62599 0.73638
 C1117 C 0.91993 0.08050 0.74865
 C1118 C 0.93053 0.07401 0.72867
 C1119 C 0.94688 0.05722 0.72878
 C1120 C 0.95339 0.04686 0.74899
 C1121 C 0.94291 0.05368 0.76903
 C1122 C 0.92622 0.07012 0.76880
 C1123 C 0.90231 0.09793 0.74850
 N1124 N 0.88645 0.09848 0.76481
 N1125 N 0.87049 0.11408 0.76465
 C1126 C 0.86985 0.12989 0.74830
 N1127 N 0.88578 0.12942 0.73205
 N1128 N 0.90163 0.11369 0.73209
 C1129 C 0.85216 0.14725 0.74824
 C1130 C 0.85575 0.16801 0.73773
 C1131 C 0.83915 0.18456 0.73813
 C1132 C 0.81847 0.18045 0.74859
 C1133 C 0.81478 0.15957 0.75882
 C1134 C 0.83154 0.14323 0.75885
 H1135 H 0.92593 0.08167 0.71288
 H1136 H 0.95453 0.05253 0.71300
 H1137 H 0.94736 0.04616 0.78495
 H1138 H 0.91841 0.07488 0.78448
 H1139 H 0.87153 0.17160 0.72952
 H1140 H 0.84241 0.20050 0.73008
 H1141 H 0.79905 0.15601 0.76715
 H1142 H 0.82828 0.12735 0.76701
 C1143 C 0.41912 0.57937 0.24775
 C1144 C 0.42239 0.56598 0.26684
 C1145 C 0.43921 0.54970 0.26719
 C1146 C 0.45284 0.54621 0.24832
 C1147 C 0.44945 0.55944 0.22915
 C1148 C 0.43288 0.57600 0.22894
 C1149 C 0.40146 0.59676 0.24751
 N1150 N 0.40236 0.61406 0.23275
 N1151 N 0.38654 0.62981 0.23268
 C1152 C 0.36908 0.62880 0.24725
 N1153 N 0.36813 0.61144 0.26193
 N1154 N 0.38404 0.59579 0.26211
 C1155 C 0.35153 0.64629 0.24725
 C1156 C 0.33046 0.64203 0.25685
 C1157 C 0.31390 0.65857 0.25698
 C1158 C 0.31817 0.67984 0.24785
 C1159 C 0.33927 0.68414 0.23831
 C1160 C 0.35571 0.66747 0.23784
 H1161 H 0.41212 0.56825 0.28163
 H1162 H 0.44140 0.53968 0.28217
 H1163 H 0.45976 0.55716 0.21439
 H1164 H 0.43069 0.58601 0.21396
 H1165 H 0.32671 0.62585 0.26416
 H1166 H 0.29784 0.65480 0.26457
 H1167 H 0.34302 0.70036 0.23109
 H1168 H 0.37182 0.67127 0.23040
 C1169 C 0.07883 0.91974 0.74973
 C1170 C 0.07566 0.93357 0.73093
 C1171 C 0.05900 0.95001 0.73094
 C1172 C 0.04541 0.95326 0.74989
 C1173 C 0.04871 0.93961 0.76879
 C1174 C 0.06512 0.92287 0.76863
 C1175 C 0.09633 0.90216 0.74954
 N1176 N 0.09518 0.88443 0.76376
 N1177 N 0.11084 0.86852 0.76342
 C1178 C 0.12839 0.86977 0.74897
 N1179 N 0.12959 0.88756 0.73483
 N1180 N 0.11384 0.90338 0.73505
 C1181 C 0.14585 0.85216 0.74866
 C1182 C 0.16716 0.85659 0.73968
 C1183 C 0.18377 0.84007 0.73973
 C1184 C 0.17927 0.81864 0.74837
 C1185 C 0.15787 0.81410 0.75707
 C1186 C 0.14139 0.83075 0.75739
 H1187 H 0.08590 0.93150 0.71609
 H1188 H 0.05690 0.96035 0.71617
 H1189 H 0.03843 0.94171 0.78360
 H1190 H 0.06724 0.91253 0.78339
 H1191 H 0.17112 0.87295 0.73291
 H1192 H 0.20011 0.84403 0.73289
 H1193 H 0.15396 0.79779 0.76400
 H1194 H 0.12510 0.82680 0.76434
 C1195 C 0.58041 0.41983 0.24977
 C1196 C 0.57716 0.43347 0.26871
 C1197 C 0.56039 0.44985 0.26883
 C1198 C 0.54682 0.45315 0.24987
 C1199 C 0.55017 0.43961 0.23090
 C1200 C 0.56666 0.42300 0.23092
 C1201 C 0.59804 0.40241 0.24959
 N1202 N 0.59704 0.38507 0.23488
 N1203 N 0.61292 0.36939 0.23463
 C1204 C 0.63056 0.37051 0.24898
 N1205 N 0.63161 0.38789 0.26366
 N1206 N 0.61563 0.40349 0.26401
 C1207 C 0.64822 0.35312 0.24864
 C1208 C 0.66946 0.35745 0.25784
 C1209 C 0.68613 0.34100 0.25750
 C1210 C 0.68177 0.31976 0.24830
 C1211 C 0.66050 0.31540 0.23918
 C1212 C 0.64396 0.33197 0.23917
 H1213 H 0.58744 0.43135 0.28352
 H1214 H 0.55821 0.46010 0.28366
 H1215 H 0.53991 0.44172 0.21608
 H1216 H 0.56881 0.41282 0.21605
 H1217 H 0.67326 0.37361 0.26518
 H1218 H 0.70232 0.34479 0.26480
 H1219 H 0.65668 0.29919 0.23194
 H1220 H 0.62773 0.32811 0.23202
 C1221 C 0.92110 0.91872 0.25214
 C1222 C 0.92712 0.92977 0.27202
 C1223 C 0.94364 0.94637 0.27189
 C1224 C 0.95422 0.95270 0.25175
 C1225 C 0.94794 0.94171 0.23180
 C1226 C 0.93176 0.92476 0.23206
 C1227 C 0.90374 0.90102 0.25237
 N1228 N 0.90339 0.88485 0.23634
 N1229 N 0.88778 0.86888 0.23660
 C1230 C 0.87178 0.86856 0.25278
 N1231 N 0.87208 0.88478 0.26875
 N1232 N 0.88781 0.90062 0.26861
 C1233 C 0.85429 0.85099 0.25291
 C1234 C 0.83348 0.85494 0.26319
 C1235 C 0.81674 0.83855 0.26283
 C1236 C 0.82067 0.81769 0.25263
 C1237 C 0.84162 0.81359 0.24269
 C1238 C 0.85818 0.83017 0.24261
 H1239 H 0.91926 0.92537 0.28778
 H1240 H 0.94791 0.95439 0.28762
 H1241 H 0.95566 0.94600 0.21594
 H1242 H 0.92736 0.91658 0.21645
 H1243 H 0.82998 0.87087 0.27117
 H1244 H 0.80077 0.84213 0.27067
 H1245 H 0.84504 0.79771 0.23458
 H1246 H 0.87409 0.82662 0.23465
 C1247 C 0.41848 0.42025 0.75111
 C1248 C 0.42178 0.43395 0.76998
 C1249 C 0.43852 0.45032 0.77000
 C1250 C 0.45201 0.45361 0.75100
 C1251 C 0.44854 0.44011 0.73202
 C1252 C 0.43207 0.42345 0.73215
 C1253 C 0.40105 0.40264 0.75124
 N1254 N 0.40232 0.38494 0.73698
 N1255 N 0.38673 0.36897 0.73723
 C1256 C 0.36914 0.37013 0.75163
 N1257 N 0.36781 0.38789 0.76582
 N1258 N 0.38350 0.40377 0.76569
 C1259 C 0.35182 0.35241 0.75183
 C1260 C 0.33037 0.35673 0.76052
 C1261 C 0.31389 0.34007 0.76030
 C1262 C 0.31870 0.31865 0.75178
 C1263 C 0.34024 0.31426 0.74336
 C1264 C 0.35657 0.33102 0.74320
 H1265 H 0.41162 0.43181 0.78487
 H1266 H 0.44078 0.46055 0.78483
 H1267 H 0.45875 0.44223 0.71716
 H1268 H 0.42985 0.41322 0.71732
 H1269 H 0.32620 0.37308 0.76720
 H1270 H 0.29744 0.34390 0.76693
 H1271 H 0.34437 0.29795 0.73653
 H1272 H 0.37298 0.32718 0.73647
 C1273 C 0.07922 0.24806 0.91850
 C1274 C 0.07618 0.22944 0.93259
 C1275 C 0.05950 0.22957 0.94902
 C1276 C 0.04579 0.24848 0.95196
 C1277 C 0.04892 0.26717 0.93800
 C1278 C 0.06534 0.26688 0.92130
 C1279 C 0.09677 0.24784 0.90101
 N1280 N 0.09556 0.26192 0.88317
 N1281 N 0.11135 0.26169 0.86740
 C1282 C 0.12908 0.24750 0.86890
 N1283 N 0.13034 0.23348 0.88679
 N1284 N 0.11446 0.23358 0.90247
 C1285 C 0.14670 0.24738 0.85147
 C1286 C 0.16810 0.23875 0.85614
 C1287 C 0.18485 0.23902 0.83977
 C1288 C 0.18040 0.24756 0.81828
 C1289 C 0.15891 0.25591 0.81352
 C1290 C 0.14229 0.25601 0.83001
 H1291 H 0.08656 0.21466 0.93077
 H1292 H 0.05752 0.21496 0.95960
 H1293 H 0.03854 0.28194 0.93985
 H1294 H 0.06734 0.28151 0.91075
 H1295 H 0.17202 0.23205 0.87255
 H1296 H 0.20123 0.23236 0.84388
 H1297 H 0.15501 0.26266 0.79712
 H1298 H 0.12592 0.26267 0.82588
 C1299 C 0.58129 0.74952 0.42136
 C1300 C 0.57802 0.73079 0.43525
 C1301 C 0.56114 0.73083 0.45150
 C1302 C 0.54744 0.74975 0.45447
 C1303 C 0.55088 0.76858 0.44077
 C1304 C 0.56749 0.76839 0.42425
 C1305 C 0.59888 0.74933 0.40386
 N1306 N 0.59784 0.76368 0.38623
 N1307 N 0.61356 0.76342 0.37038
 C1308 C 0.63106 0.74892 0.37159
 N1309 N 0.63217 0.73463 0.38928
 N1310 N 0.61636 0.73478 0.40505
 C1311 C 0.64852 0.74868 0.35395
 C1312 C 0.66977 0.73944 0.35818
 C1313 C 0.68632 0.73956 0.34158
 C1314 C 0.68182 0.74857 0.32028
 C1315 C 0.66048 0.75756 0.31598
 C1316 C 0.64408 0.75779 0.33269
 H1317 H 0.58832 0.71596 0.43337
 H1318 H 0.55894 0.71611 0.46188
 H1319 H 0.54053 0.78338 0.44263
 H1320 H 0.56966 0.78312 0.41387
 H1321 H 0.67371 0.73235 0.37442
 H1322 H 0.70258 0.73241 0.34534
 H1323 H 0.65653 0.76469 0.29977
 H1324 H 0.62783 0.76493 0.32888
 C1325 C 0.92123 0.75036 0.91922
 C1326 C 0.92737 0.77041 0.92987
 C1327 C 0.94397 0.77053 0.94638
 C1328 C 0.95452 0.75048 0.95304
 C1329 C 0.94816 0.73035 0.94244
 C1330 C 0.93188 0.73035 0.92555
 C1331 C 0.90371 0.75039 0.90168
 N1332 N 0.90322 0.73425 0.88563
 N1333 N 0.88750 0.73444 0.86975
 C1334 C 0.87153 0.75066 0.86942
 N1335 N 0.87196 0.76673 0.88554
 N1336 N 0.88779 0.76666 0.90128
 C1337 C 0.85394 0.75080 0.85196
 C1338 C 0.83318 0.76112 0.85606
 C1339 C 0.81639 0.76095 0.83973
 C1340 C 0.82020 0.75088 0.81878
 C1341 C 0.84108 0.74087 0.81453
 C1342 C 0.85771 0.74061 0.83106
 H1343 H 0.91952 0.78611 0.92524
 H1344 H 0.94830 0.78640 0.95408
 H1345 H 0.95587 0.71456 0.94700
 H1346 H 0.92738 0.71462 0.91767
 H1347 H 0.82978 0.76904 0.87204
 H1348 H 0.80049 0.76888 0.84340
 H1349 H 0.84443 0.73292 0.79856
 H1350 H 0.87360 0.73263 0.82741
 C1351 C 0.41965 0.25076 0.41916
 C1352 C 0.42265 0.26945 0.43318
 C1353 C 0.43932 0.26944 0.44964
 C1354 C 0.45307 0.25057 0.45269
 C1355 C 0.44994 0.23179 0.43883
 C1356 C 0.43353 0.23196 0.42210
 C1357 C 0.40215 0.25088 0.40158
 N1358 N 0.40339 0.23669 0.38382
 N1359 N 0.38768 0.23687 0.36795
 C1360 C 0.36999 0.25113 0.36928
 N1361 N 0.36870 0.26527 0.38708
 N1362 N 0.38450 0.26521 0.40286
 C1363 C 0.35246 0.25122 0.35173
 C1364 C 0.33109 0.26003 0.35622
 C1365 C 0.31443 0.25979 0.33975
 C1366 C 0.31891 0.25109 0.31832
 C1367 C 0.34037 0.24254 0.31374
 C1368 C 0.35691 0.24241 0.33034
 H1369 H 0.41227 0.28422 0.43126
 H1370 H 0.44130 0.28412 0.46013
 H1371 H 0.46035 0.21704 0.44076
 H1372 H 0.43155 0.21727 0.41162
 H1373 H 0.32714 0.26687 0.37256
 H1374 H 0.29808 0.26660 0.34372
 H1375 H 0.34429 0.23566 0.29740
 H1376 H 0.37325 0.23560 0.32635
 C1377 C 0.07851 0.75290 0.08160
 C1378 C 0.06501 0.73389 0.07835
 C1379 C 0.04892 0.73348 0.06132
 C1380 C 0.04572 0.75224 0.04746
 C1381 C 0.05904 0.77136 0.05086
 C1382 C 0.07541 0.77161 0.06763
 C1383 C 0.09581 0.75316 0.09938
 N1384 N 0.11334 0.76764 0.09834
 N1385 N 0.12908 0.76765 0.11419
 C1386 C 0.12784 0.75332 0.13182
 N1387 N 0.11023 0.73893 0.13293
 N1388 N 0.09459 0.73880 0.11700
 C1389 C 0.14543 0.75317 0.14931
 C1390 C 0.14112 0.74402 0.17058
 C1391 C 0.15781 0.74374 0.18703
 C1392 C 0.17928 0.75221 0.18240
 C1393 C 0.18361 0.76133 0.16112
 C1394 C 0.16680 0.76198 0.14482
 H1395 H 0.06707 0.71918 0.08878
 H1396 H 0.03883 0.71855 0.05913
 H1397 H 0.05699 0.78603 0.04038
 H1398 H 0.08551 0.78654 0.06979
 H1399 H 0.12478 0.73721 0.17456
 H1400 H 0.15401 0.73656 0.20326
 H1401 H 0.19996 0.76812 0.15713
 H1402 H 0.17066 0.76908 0.12857
 C1403 C 0.57995 0.25098 0.57998
 C1404 C 0.56617 0.23211 0.57694
 C1405 C 0.54980 0.23190 0.56017
 C1406 C 0.54661 0.25069 0.54636
 C1407 C 0.56027 0.26961 0.54949
 C1408 C 0.57690 0.26968 0.56600
 C1409 C 0.59736 0.25116 0.59764
 N1410 N 0.61488 0.26565 0.59657
 N1411 N 0.63059 0.26576 0.61244
 C1412 C 0.62933 0.25150 0.63014
 N1413 N 0.61176 0.23706 0.63125
 N1414 N 0.59615 0.23684 0.61529
 C1415 C 0.64675 0.25162 0.64780
 C1416 C 0.64227 0.24248 0.66904
 C1417 C 0.65871 0.24254 0.68572
 C1418 C 0.68010 0.25138 0.68141
 C1419 C 0.68461 0.26046 0.66015
 C1420 C 0.66804 0.26075 0.64358
 H1421 H 0.56818 0.21741 0.58738
 H1422 H 0.53947 0.21711 0.55818
 H1423 H 0.55824 0.28431 0.53904
 H1424 H 0.58720 0.28449 0.56799
 H1425 H 0.62599 0.23543 0.67283
 H1426 H 0.65476 0.23537 0.70192
 H1427 H 0.70091 0.26750 0.65638
 H1428 H 0.67201 0.26785 0.62736
 C1429 C 0.92069 0.24955 0.08076
 C1430 C 0.93399 0.23047 0.07710
 C1431 C 0.95010 0.23031 0.06010
 C1432 C 0.95350 0.24936 0.04670
 C1433 C 0.94037 0.26853 0.05052
 C1434 C 0.92399 0.26855 0.06725
 C1435 C 0.90336 0.24960 0.09848
 N1436 N 0.88600 0.26429 0.09765
 N1437 N 0.87025 0.26421 0.11346
 C1438 C 0.87131 0.24956 0.13084
 N1439 N 0.88874 0.23495 0.13174
 N1440 N 0.90440 0.23491 0.11583
 C1441 C 0.85375 0.24947 0.14833
 C1442 C 0.85798 0.24018 0.16956
 C1443 C 0.84138 0.24032 0.18610
 C1444 C 0.82012 0.24938 0.18159
 C1445 C 0.81585 0.25846 0.16029
 C1446 C 0.83255 0.25868 0.14390
 H1447 H 0.93176 0.21555 0.08718
 H1448 H 0.96005 0.21534 0.05758
 H1449 H 0.94259 0.28342 0.04040
 H1450 H 0.91405 0.28353 0.06974
 H1451 H 0.87419 0.23302 0.17347
 H1452 H 0.84510 0.23309 0.20234
 H1453 H 0.79964 0.26563 0.15636
 H1454 H 0.82876 0.26586 0.12767
 C1455 C 0.41842 0.74971 0.57963
 C1456 C 0.42156 0.73102 0.56563
 C1457 C 0.43844 0.73103 0.54937
 C1458 C 0.45225 0.74987 0.54650
 C1459 C 0.44895 0.76866 0.56031
 C1460 C 0.43234 0.76850 0.57684
 C1461 C 0.40082 0.74957 0.59711
 N1462 N 0.40199 0.76375 0.61488
 N1463 N 0.38625 0.76352 0.63071
 C1464 C 0.36859 0.74922 0.62934
 N1465 N 0.36736 0.73511 0.61151
 N1466 N 0.38319 0.73521 0.59577
 C1467 C 0.35110 0.74904 0.64693
 C1468 C 0.32973 0.74015 0.64253
 C1469 C 0.31314 0.74030 0.65908
 C1470 C 0.31771 0.74897 0.68052
 C1471 C 0.33917 0.75760 0.68499
 C1472 C 0.35561 0.75781 0.66832
 H1473 H 0.41117 0.71626 0.56743
 H1474 H 0.44054 0.71633 0.53892
 H1475 H 0.45939 0.78340 0.55852
 H1476 H 0.43027 0.78319 0.58730
 H1477 H 0.32573 0.73333 0.62619
 H1478 H 0.29680 0.73344 0.65518
 H1479 H 0.34317 0.76445 0.70132
 H1480 H 0.37195 0.76467 0.67227
 C1481 C 0.24974 0.07970 0.91980
 C1482 C 0.23103 0.07669 0.93377
 C1483 C 0.23104 0.06000 0.95020
 C1484 C 0.24990 0.04624 0.95325
 C1485 C 0.26871 0.04940 0.93945
 C1486 C 0.26855 0.06583 0.92276
 C1487 C 0.24960 0.09716 0.90222
 N1488 N 0.26378 0.09589 0.88446
 N1489 N 0.26354 0.11155 0.86856
 C1490 C 0.24924 0.12921 0.86985
 N1491 N 0.23513 0.13053 0.88766
 N1492 N 0.23524 0.11478 0.90347
 C1493 C 0.24908 0.14666 0.85226
 C1494 C 0.24022 0.16803 0.85670
 C1495 C 0.24039 0.18462 0.84018
 C1496 C 0.24905 0.18006 0.81876
 C1497 C 0.25764 0.15861 0.81423
 C1498 C 0.25784 0.14214 0.83087
 H1499 H 0.21626 0.08705 0.93184
 H1500 H 0.21634 0.05799 0.96064
 H1501 H 0.28345 0.03899 0.94139
 H1502 H 0.28325 0.06782 0.91231
 H1503 H 0.23341 0.17203 0.87304
 H1504 H 0.23354 0.20097 0.84410
 H1505 H 0.26450 0.15464 0.79789
 H1506 H 0.26468 0.12580 0.82693
 C1507 C 0.74931 0.57845 0.41882
 C1508 C 0.73035 0.56495 0.42237
 C1509 C 0.73028 0.54874 0.43930
 C1510 C 0.74933 0.54542 0.45275
 C1511 C 0.76839 0.55873 0.44903
 C1512 C 0.76831 0.57520 0.43238
 C1513 C 0.74926 0.59593 0.40122
 N1514 N 0.76383 0.61339 0.40220
 N1515 N 0.76369 0.62925 0.38650
 C1516 C 0.74908 0.62824 0.36906
 N1517 N 0.73457 0.61072 0.36800
 N1518 N 0.73460 0.59494 0.38381
 C1519 C 0.74896 0.64593 0.35166
 C1520 C 0.73976 0.64181 0.33036
 C1521 C 0.73997 0.65850 0.31388
 C1522 C 0.74899 0.67976 0.31852
 C1523 C 0.75794 0.68393 0.33992
 C1524 C 0.75811 0.66714 0.35623
 H1525 H 0.71543 0.56711 0.41225
 H1526 H 0.71538 0.53867 0.44173
 H1527 H 0.78328 0.55659 0.45918
 H1528 H 0.78321 0.58528 0.42999
 H1529 H 0.73265 0.62561 0.32632
 H1530 H 0.73284 0.65484 0.29758
 H1531 H 0.76508 0.70012 0.34397
 H1532 H 0.76521 0.67086 0.37252
 C1533 C 0.75103 0.08108 0.07904
 C1534 C 0.77096 0.07440 0.06847
 C1535 C 0.77078 0.05728 0.05244
 C1536 C 0.75054 0.04678 0.04625
 C1537 C 0.73056 0.05379 0.05671
 C1538 C 0.73087 0.07055 0.07306
 C1539 C 0.75122 0.09880 0.09638
 N1540 N 0.73492 0.09959 0.11224
 N1541 N 0.73510 0.11542 0.12798
 C1542 C 0.75146 0.13123 0.12839
 N1543 N 0.76771 0.13052 0.11246
 N1544 N 0.76765 0.11456 0.09683
 C1545 C 0.75158 0.14873 0.14595
 C1546 C 0.76217 0.16944 0.14226
 C1547 C 0.76188 0.18606 0.15881
 C1548 C 0.75142 0.18207 0.17953
 C1549 C 0.74109 0.16125 0.18329
 C1550 C 0.74097 0.14485 0.16659
 H1551 H 0.78677 0.08217 0.07285
 H1552 H 0.78652 0.05246 0.04479
 H1553 H 0.71463 0.04618 0.05249
 H1554 H 0.71522 0.07545 0.08085
 H1555 H 0.77041 0.17290 0.12647
 H1556 H 0.77007 0.20192 0.15553
 H1557 H 0.73284 0.15775 0.19908
 H1558 H 0.73277 0.12901 0.16995
 C1559 C 0.25011 0.57963 0.58079
 C1560 C 0.26898 0.57638 0.56709
 C1561 C 0.26896 0.55977 0.55057
 C1562 C 0.24993 0.54634 0.54714
 C1563 C 0.23098 0.54971 0.56069
 C1564 C 0.23114 0.56606 0.57749
 C1565 C 0.25022 0.59708 0.59841
 N1566 N 0.23589 0.59589 0.61606
 N1567 N 0.23605 0.61158 0.63195
 C1568 C 0.25041 0.62920 0.63076
 N1569 N 0.26468 0.63043 0.61307
 N1570 N 0.26465 0.61465 0.59727
 C1571 C 0.25044 0.64674 0.64829
 C1572 C 0.25913 0.66815 0.64374
 C1573 C 0.25881 0.68485 0.66017
 C1574 C 0.25017 0.68036 0.68161
 C1575 C 0.24176 0.65887 0.68626
 C1576 C 0.24169 0.64229 0.66969
 H1577 H 0.28387 0.58652 0.56930
 H1578 H 0.28378 0.55758 0.54032
 H1579 H 0.21611 0.53955 0.55846
 H1580 H 0.21632 0.56823 0.58773
 H1581 H 0.26592 0.67210 0.62738
 H1582 H 0.26553 0.70122 0.65615
 H1583 H 0.23493 0.65496 0.70261
 H1584 H 0.23498 0.62592 0.67371
 C1585 C 0.74869 0.91787 0.92258
 C1586 C 0.72982 0.93164 0.92565
 C1587 C 0.72977 0.94825 0.94220
 C1588 C 0.74875 0.95170 0.95572
 C1589 C 0.76763 0.93799 0.95259
 C1590 C 0.76753 0.92112 0.93634
 C1591 C 0.74884 0.90033 0.90503
 N1592 N 0.76332 0.88281 0.90623
 N1593 N 0.76356 0.86710 0.89036
 C1594 C 0.74946 0.86837 0.87253
 N1595 N 0.73502 0.88592 0.87129
 N1596 N 0.73465 0.90154 0.88726
 C1597 C 0.74988 0.85103 0.85478
 C1598 C 0.74131 0.85567 0.83334
 C1599 C 0.74182 0.83936 0.81653
 C1600 C 0.75052 0.81792 0.82092
 C1601 C 0.75897 0.81322 0.84240
 C1602 C 0.75884 0.82968 0.85910
 H1603 H 0.71502 0.92946 0.91537
 H1604 H 0.71501 0.95862 0.94420
 H1605 H 0.78246 0.94021 0.96283
 H1606 H 0.78235 0.91084 0.93432
 H1607 H 0.73441 0.87200 0.82947
 H1608 H 0.73511 0.84344 0.80016
 H1609 H 0.76587 0.79688 0.84625
 H1610 H 0.76550 0.82558 0.87548
 C1611 C 0.25050 0.41964 0.41967
 C1612 C 0.23149 0.43316 0.42292
 C1613 C 0.23125 0.44951 0.43972
 C1614 C 0.25016 0.45294 0.45332
 C1615 C 0.26923 0.43954 0.44996
 C1616 C 0.26932 0.42292 0.43344
 C1617 C 0.25070 0.40221 0.40201
 N1618 N 0.26519 0.38469 0.40315
 N1619 N 0.26531 0.36895 0.38731
 C1620 C 0.25108 0.37019 0.36957
 N1621 N 0.23666 0.38776 0.36839
 N1622 N 0.23641 0.40341 0.38433
 C1623 C 0.25120 0.35272 0.35197
 C1624 C 0.24246 0.35724 0.33057
 C1625 C 0.24258 0.34073 0.31393
 C1626 C 0.25104 0.31923 0.31849
 C1627 C 0.25969 0.31468 0.33992
 C1628 C 0.25996 0.33131 0.35642
 H1629 H 0.21670 0.43095 0.41263
 H1630 H 0.21635 0.45964 0.44189
 H1631 H 0.28402 0.44177 0.46025
 H1632 H 0.28425 0.41282 0.43127
 H1633 H 0.23571 0.37361 0.32661
 H1634 H 0.23574 0.34471 0.29759
 H1635 H 0.26644 0.29830 0.34387
 H1636 H 0.26675 0.32731 0.37278
 C1637 C 0.24898 0.91858 0.07952
 C1638 C 0.23011 0.93225 0.07612
 C1639 C 0.23024 0.94877 0.05952
 C1640 C 0.24939 0.95223 0.04628
 C1641 C 0.26834 0.93871 0.04981
 C1642 C 0.26806 0.92191 0.06613
 C1643 C 0.24877 0.90098 0.09696
 N1644 N 0.26311 0.88334 0.09585
 N1645 N 0.26287 0.86746 0.11154
 C1646 C 0.24841 0.86867 0.12907
 N1647 N 0.23411 0.88635 0.13021
 N1648 N 0.23423 0.90213 0.11443
 C1649 C 0.24830 0.85117 0.14661
 C1650 C 0.23955 0.85574 0.16798
 C1651 C 0.23982 0.83933 0.18469
 C1652 C 0.24848 0.81789 0.18023
 C1653 C 0.25694 0.81321 0.15875
 C1654 C 0.25705 0.82976 0.14218
 H1655 H 0.21514 0.93001 0.08612
 H1656 H 0.21542 0.95899 0.05721
 H1657 H 0.28330 0.94097 0.03979
 H1658 H 0.28289 0.91170 0.06844
 H1659 H 0.23275 0.87211 0.17191
 H1660 H 0.23306 0.84337 0.20104
 H1661 H 0.26377 0.79685 0.15486
 H1662 H 0.26381 0.82571 0.12582
 C1663 C 0.74905 0.42037 0.58188
 C1664 C 0.76808 0.42366 0.56842
 C1665 C 0.76823 0.44024 0.55187
 C1666 C 0.74920 0.45359 0.54816
 C1667 C 0.73012 0.45023 0.56152
 C1668 C 0.73011 0.43392 0.57835
 C1669 C 0.74892 0.40281 0.59942
 N1670 N 0.73426 0.40382 0.61681
 N1671 N 0.73417 0.38801 0.63258
 C1672 C 0.74862 0.37045 0.63151
 N1673 N 0.76323 0.36941 0.61408
 N1674 N 0.76343 0.38531 0.59841
 C1675 C 0.74846 0.35278 0.64893
 C1676 C 0.75752 0.33152 0.64442
 C1677 C 0.75730 0.31477 0.66079
 C1678 C 0.74839 0.31905 0.68216
 C1679 C 0.73945 0.34036 0.68674
 C1680 C 0.73930 0.35699 0.67022
 H1681 H 0.78296 0.41354 0.57080
 H1682 H 0.78316 0.44241 0.54177
 H1683 H 0.71524 0.46033 0.55909
 H1684 H 0.71516 0.43172 0.58840
 H1685 H 0.76460 0.32773 0.62814
 H1686 H 0.76436 0.29853 0.65679
 H1687 H 0.73234 0.34411 0.70302
 H1688 H 0.73226 0.37324 0.67421
 C1689 C 0.08045 0.07922 0.75148
 C1690 C 0.06649 0.07612 0.77019
 C1691 C 0.04975 0.05973 0.76993
 C1692 C 0.04638 0.04640 0.75081
 C1693 C 0.06022 0.04962 0.73204
 C1694 C 0.07721 0.06572 0.73245
 C1695 C 0.09824 0.09648 0.75175
 N1696 N 0.11589 0.09517 0.73745
 N1697 N 0.13187 0.11076 0.73762
 C1698 C 0.13075 0.12839 0.75197
 N1699 N 0.11307 0.12973 0.76625
 N1700 N 0.09719 0.11404 0.76620
 C1701 C 0.14832 0.14587 0.75191
 C1702 C 0.14389 0.16729 0.76065
 C1703 C 0.16032 0.18396 0.76015
 C1704 C 0.18165 0.17944 0.75126
 C1705 C 0.18620 0.15793 0.74282
 C1706 C 0.16963 0.14138 0.74295
 H1707 H 0.06865 0.08621 0.78512
 H1708 H 0.03928 0.05766 0.78461
 H1709 H 0.05805 0.03952 0.71711
 H1710 H 0.08764 0.06778 0.71774
 H1711 H 0.12761 0.17127 0.76760
 H1712 H 0.15640 0.20035 0.76691
 H1713 H 0.20247 0.15399 0.73581
 H1714 H 0.17356 0.12500 0.73619
 C1715 C 0.57937 0.58097 0.24958
 C1716 C 0.56551 0.57772 0.26834
 C1717 C 0.54928 0.56082 0.26834
 C1718 C 0.54629 0.54709 0.24943
 C1719 C 0.55997 0.55049 0.23058
 C1720 C 0.57648 0.56713 0.23073
 C1721 C 0.59680 0.59863 0.24971
 N1722 N 0.61445 0.59760 0.23539
 N1723 N 0.63026 0.61336 0.23563
 C1724 C 0.62899 0.63091 0.25010
 N1725 N 0.61127 0.63200 0.26435
 N1726 N 0.59555 0.61614 0.26422
 C1727 C 0.64660 0.64838 0.25037
 C1728 C 0.64231 0.66965 0.25957
 C1729 C 0.65893 0.68619 0.25958
 C1730 C 0.68029 0.68166 0.25075
 C1731 C 0.68463 0.66032 0.24176
 C1732 C 0.66791 0.64393 0.24140
 H1733 H 0.56739 0.58805 0.28314
 H1734 H 0.53891 0.55865 0.28308
 H1735 H 0.55809 0.54012 0.21580
 H1736 H 0.58683 0.56929 0.21599
 H1737 H 0.62604 0.67359 0.26655
 H1738 H 0.65514 0.70244 0.26672
 H1739 H 0.70090 0.65636 0.23476
 H1740 H 0.67176 0.62768 0.23429
 C1741 C 0.08080 0.92020 0.25124
 C1742 C 0.07765 0.93414 0.23253
 C1743 C 0.06080 0.95040 0.23253
 C1744 C 0.04702 0.95333 0.25139
 C1745 C 0.05033 0.93958 0.27021
 C1746 C 0.06692 0.92305 0.27006
 C1747 C 0.09836 0.90272 0.25108
 N1748 N 0.09723 0.88499 0.26530
 N1749 N 0.11293 0.86913 0.26501
 C1750 C 0.13050 0.87043 0.25060
 N1751 N 0.13170 0.88821 0.23645
 N1752 N 0.11590 0.90399 0.23663
 C1753 C 0.14792 0.85280 0.25030
 C1754 C 0.16920 0.85714 0.24120
 C1755 C 0.18573 0.84053 0.24118
 C1756 C 0.18117 0.81914 0.24989
 C1757 C 0.15981 0.81473 0.25876
 C1758 C 0.14342 0.83145 0.25914
 H1759 H 0.08801 0.93228 0.21775
 H1760 H 0.05868 0.96082 0.21781
 H1761 H 0.03991 0.94143 0.28495
 H1762 H 0.06902 0.91263 0.28477
 H1763 H 0.17318 0.87345 0.23433
 H1764 H 0.20200 0.84437 0.23413
 H1765 H 0.15584 0.79843 0.26567
 H1766 H 0.12715 0.82757 0.26617
 C1767 C 0.57862 0.41871 0.75186
 C1768 C 0.57553 0.43250 0.77073
 C1769 C 0.55896 0.44909 0.77077
 C1770 C 0.54543 0.45249 0.75179
 C1771 C 0.54861 0.43879 0.73290
 C1772 C 0.56488 0.42195 0.73301
 C1773 C 0.59611 0.40111 0.75176
 N1774 N 0.59490 0.38361 0.73723
 N1775 N 0.61069 0.36782 0.73704
 C1776 C 0.62844 0.36897 0.75125
 N1777 N 0.62969 0.38650 0.76574
 N1778 N 0.61381 0.40220 0.76605
 C1779 C 0.64608 0.35153 0.75090
 C1780 C 0.66748 0.35598 0.75969
 C1781 C 0.68419 0.33957 0.75922
 C1782 C 0.67975 0.31821 0.75033
 C1783 C 0.65831 0.31370 0.74166
 C1784 C 0.64172 0.33025 0.74176
 H1785 H 0.58579 0.43033 0.78554
 H1786 H 0.55692 0.45944 0.78554
 H1787 H 0.53837 0.44097 0.71806
 H1788 H 0.56691 0.41166 0.71819
 H1789 H 0.67138 0.37225 0.76675
 H1790 H 0.70052 0.34351 0.76610
 H1791 H 0.65443 0.29744 0.73458
 H1792 H 0.62538 0.32630 0.73491
 C1793 C 0.91836 0.07861 0.25040
 C1794 C 0.93217 0.07586 0.26928
 C1795 C 0.94874 0.05931 0.26958
 C1796 C 0.95209 0.04544 0.25085
 C1797 C 0.93837 0.04826 0.23192
 C1798 C 0.92154 0.06455 0.23177
 C1799 C 0.90084 0.09614 0.25009
 N1800 N 0.88334 0.09488 0.23557
 N1801 N 0.86759 0.11070 0.23530
 C1802 C 0.86881 0.12854 0.24941
 N1803 N 0.88634 0.12983 0.26387
 N1804 N 0.90199 0.11392 0.26426
 C1805 C 0.85145 0.14623 0.24903
 C1806 C 0.85603 0.16756 0.25790
 C1807 C 0.83970 0.18433 0.25754
 C1808 C 0.81832 0.18001 0.24866
 C1809 C 0.81369 0.15866 0.23988
 C1810 C 0.83016 0.14199 0.23988
 H1811 H 0.93006 0.08638 0.28392
 H1812 H 0.95912 0.05756 0.28437
 H1813 H 0.94052 0.03775 0.21728
 H1814 H 0.91121 0.06633 0.21694
 H1815 H 0.87231 0.17137 0.26496
 H1816 H 0.84374 0.20060 0.26451
 H1817 H 0.79739 0.15489 0.23281
 H1818 H 0.82613 0.12569 0.23297
 C1819 C 0.41923 0.58050 0.74931
 C1820 C 0.42221 0.56692 0.76832
 C1821 C 0.43890 0.55049 0.76871
 C1822 C 0.45270 0.54701 0.74996
 C1823 C 0.44962 0.56046 0.73087
 C1824 C 0.43319 0.57717 0.73063
 C1825 C 0.40162 0.59798 0.74899
 N1826 N 0.40280 0.61547 0.73446
 N1827 N 0.38700 0.63126 0.73431
 C1828 C 0.36929 0.63011 0.74856
 N1829 N 0.36807 0.61257 0.76302
 N1830 N 0.38395 0.59689 0.76329
 C1831 C 0.35169 0.64760 0.74842
 C1832 C 0.33040 0.64316 0.75743
 C1833 C 0.31376 0.65964 0.75735
 C1834 C 0.31818 0.68106 0.74862
 C1835 C 0.33950 0.68556 0.73970
 C1836 C 0.35603 0.66893 0.73942
 H1837 H 0.41179 0.56915 0.78300
 H1838 H 0.44084 0.54033 0.78363
 H1839 H 0.46007 0.55820 0.71620
 H1840 H 0.43123 0.58731 0.71570
 H1841 H 0.32651 0.62686 0.76439
 H1842 H 0.29751 0.65571 0.76440
 H1843 H 0.34335 0.70187 0.73275
 H1844 H 0.37230 0.67288 0.73242
 C1845 C 0.91787 0.92093 0.74903
 C1846 C 0.92117 0.93465 0.76789
 C1847 C 0.93794 0.95098 0.76792
 C1848 C 0.95150 0.95421 0.74896
 C1849 C 0.94803 0.94072 0.72997
 C1850 C 0.93151 0.92409 0.73009
 C1851 C 0.90041 0.90333 0.74925
 N1852 N 0.90151 0.88565 0.73496
 N1853 N 0.88595 0.86964 0.73542
 C1854 C 0.86857 0.87076 0.75008
 N1855 N 0.86741 0.88851 0.76428
 N1856 N 0.88306 0.90442 0.76394
 C1857 C 0.85129 0.85298 0.75060
 C1858 C 0.83011 0.85718 0.75998
 C1859 C 0.81370 0.84047 0.76024
 C1860 C 0.81828 0.81909 0.75148
 C1861 C 0.83956 0.81481 0.74236
 C1862 C 0.85583 0.83164 0.74174
 H1863 H 0.91100 0.93256 0.78277
 H1864 H 0.94018 0.96120 0.78276
 H1865 H 0.95829 0.94281 0.71515
 H1866 H 0.92929 0.91384 0.71527
 H1867 H 0.82610 0.87349 0.76689
 H1868 H 0.79748 0.84422 0.76747
 H1869 H 0.84354 0.79852 0.73540
 H1870 H 0.87204 0.82787 0.73451
 C1871 C 0.41982 0.41935 0.24993
 C1872 C 0.42324 0.43302 0.26881
 C1873 C 0.43994 0.44945 0.26874
 C1874 C 0.45328 0.45284 0.24964
 C1875 C 0.44973 0.43933 0.23068
 C1876 C 0.43331 0.42261 0.23090
 C1877 C 0.40228 0.40181 0.25010
 N1878 N 0.40329 0.38420 0.23569
 N1879 N 0.38756 0.36836 0.23592
 C1880 C 0.37006 0.36957 0.25043
 N1881 N 0.36900 0.38722 0.26477
 N1882 N 0.38483 0.40297 0.26467
 C1883 C 0.35250 0.35204 0.25057
 C1884 C 0.33119 0.35652 0.25953
 C1885 C 0.31451 0.34007 0.25934
 C1886 C 0.31892 0.31866 0.25056
 C1887 C 0.34032 0.31409 0.24186
 C1888 C 0.35687 0.33067 0.24167
 H1889 H 0.41318 0.43085 0.28375
 H1890 H 0.44225 0.45968 0.28356
 H1891 H 0.45982 0.44152 0.21575
 H1892 H 0.43100 0.41240 0.21606
 H1893 H 0.32731 0.37285 0.26644
 H1894 H 0.29821 0.34403 0.26628
 H1895 H 0.34418 0.29777 0.23491
 H1896 H 0.37316 0.32669 0.23475
   
