data_POSCAR
  _audit_creation_date              2014-09-24
  _audit_creation_method            'ToBaCCo'
  _symmetry_space_group_name_H-M    'P1'
  _symmetry_Int_Tables_number       1
  _symmetry_cell_setting            triclinic
  loop_
  _symmetry_equiv_pos_as_xyz
 x,y,z
_cell_length_a 42.0473
_cell_length_b 41.8517
_cell_length_c 48.4165
_cell_angle_alpha 90.008800
_cell_angle_beta 89.902800
_cell_angle_gamma 89.925800
loop_
  _atom_site_label
  _atom_site_type_symbol
  _atom_site_fract_x
  _atom_site_fract_y
  _atom_site_fract_z
B1 B 0.25693 0.23616 0.21943
 B2 B 0.26398 0.27300 0.23183
 B3 B 0.22648 0.26202 0.22436
 B4 B 0.22181 0.22306 0.23263
 B5 B 0.25719 0.21017 0.24568
 B6 B 0.28356 0.24126 0.24512
 B7 B 0.23453 0.25756 0.27949
 B8 B 0.22740 0.22077 0.26719
 B9 B 0.26498 0.23165 0.27447
 B10 B 0.26955 0.27061 0.26632
 B11 B 0.23423 0.28351 0.25328
 B12 B 0.20785 0.25250 0.25380
 B13 B 0.74225 0.76147 0.21914
 B14 B 0.73430 0.72477 0.23140
 B15 B 0.77202 0.73483 0.22376
 B16 B 0.77775 0.77359 0.23217
 B17 B 0.74278 0.78730 0.24548
 B18 B 0.71560 0.75693 0.24496
 B19 B 0.76434 0.73914 0.27891
 B20 B 0.77238 0.77581 0.26675
 B21 B 0.73458 0.76587 0.27422
 B22 B 0.72894 0.72709 0.26593
 B23 B 0.76389 0.71334 0.25259
 B24 B 0.79106 0.74366 0.25310
 B25 B 0.73245 0.24036 -0.22723
 B26 B 0.72003 0.27757 -0.23434
 B27 B 0.75713 0.27188 -0.22247
 B28 B 0.77132 0.23730 -0.23575
 B29 B 0.74251 0.22208 -0.25666
 B30 B 0.71057 0.24729 -0.25586
 B31 B 0.76046 0.28023 -0.27760
 B32 B 0.77307 0.24305 -0.27028
 B33 B 0.73606 0.24869 -0.28231
 B34 B 0.72159 0.28333 -0.26891
 B35 B 0.75049 0.29856 -0.24807
 B36 B 0.78252 0.27336 -0.24897
 B37 B 0.26703 0.75476 -0.28322
 B38 B 0.22993 0.76009 -0.27118
 B39 B 0.24288 0.72304 -0.27857
 B40 B 0.28171 0.72020 -0.26987
 B41 B 0.29240 0.75629 -0.25678
 B42 B 0.26027 0.78127 -0.25753
 B43 B 0.24588 0.73129 -0.22342
 B44 B 0.28306 0.72590 -0.23529
 B45 B 0.27035 0.76301 -0.22813
 B46 B 0.23149 0.76579 -0.23665
 B47 B 0.22061 0.72966 -0.24995
 B48 B 0.25283 0.70471 -0.24908
 B49 B 1.23813 1.27286 0.72275
 B50 B 1.22526 1.23577 0.72968
 B51 B 1.26231 1.24113 0.71751
 B52 B 1.27700 1.27541 0.73115
 B53 B 1.24829 1.29061 0.75235
 B54 B 1.21616 1.26579 0.75144
 B55 B 1.26608 1.23197 0.77248
 B56 B 1.27868 1.26923 0.76562
 B57 B 1.24171 1.26363 0.77774
 B58 B 1.22710 1.22941 0.76412
 B59 B 1.25570 1.21422 0.74289
 B60 B 1.28794 1.23909 0.74381
 B61 B 0.76020 0.72195 0.72146
 B62 B 0.77296 0.75937 0.72713
 B63 B 0.73564 0.75329 0.71587
 B64 B 0.72162 0.71943 0.73080
 B65 B 0.75092 0.70525 0.75178
 B66 B 0.78278 0.73029 0.74951
 B67 B 0.73311 0.76448 0.77069
 B68 B 0.72069 0.72690 0.76509
 B69 B 0.75787 0.73318 0.77629
 B70 B 0.77182 0.76702 0.76143
 B71 B 0.74263 0.78123 0.74031
 B72 B 0.71067 0.75614 0.74269
 B73 B 1.23791 0.74441 0.28109
 B74 B 1.22954 0.78103 0.26895
 B75 B 1.26739 0.77140 0.27660
 B76 B 1.27363 0.73277 0.26810
 B77 B 1.23898 0.71868 0.25464
 B78 B 1.21137 0.74870 0.25520
 B79 B 1.26009 0.76740 0.22145
 B80 B 1.26861 0.73072 0.23350
 B81 B 1.23075 0.74017 0.22589
 B82 B 1.22441 0.77885 0.23441
 B83 B 1.25908 0.79295 0.24792
 B84 B 1.28667 0.76297 0.24732
 B85 B 0.76981 1.26349 0.22474
 B86 B 0.73200 1.27253 0.23300
 B87 B 0.74085 1.23563 0.22167
 B88 B 0.77704 1.22519 0.23406
 B89 B 0.79013 1.25624 0.25377
 B90 B 0.76200 1.28580 0.25311
 B91 B 0.73510 1.23339 0.27705
 B92 B 0.77286 1.22411 0.26875
 B93 B 0.76422 1.26103 0.28014
 B94 B 0.72796 1.27161 0.26775
 B95 B 0.71489 1.24048 0.24806
 B96 B 0.74299 1.21101 0.24871
 O97 O 0.48004 1.05424 0.03454
 O98 O 0.52332 0.94620 0.03427
 O99 O 0.44717 0.98543 0.03699
 O100 O 0.55668 1.01497 0.03651
 O101 O 0.46917 0.94116 0.02500
 O102 O 0.53430 1.05919 0.02483
 O103 O 0.56504 0.96243 0.01535
 O104 O 0.43835 1.03783 0.01583
 C105 C 0.45081 1.05272 0.03497
 C106 C 0.55254 0.94760 0.03454
 C107 C 0.45180 0.95660 0.04148
 C108 C 0.55185 1.04377 0.04112
 O109 O 0.52099 1.05486 -0.03178
 O110 O 0.48218 0.94578 -0.03177
 O111 O 0.44625 1.01267 -0.03364
 O112 O 0.55704 0.98752 -0.03414
 O113 O 0.53656 0.94248 -0.02239
 O114 O 0.46660 1.05784 -0.02206
 O115 O 0.56333 1.04033 -0.01300
 O116 O 0.43998 0.95997 -0.01250
 Co117 Co 0.50059 1.05146 0.00140
 Co118 Co 0.50270 0.94896 0.00129
 Co119 Co 0.44927 0.99910 0.00166
 Co120 Co 0.55421 1.00117 0.00121
 O121 O 0.50170 1.00018 0.00142
 C122 C 0.55024 1.05424 -0.03238
 C123 C 0.45292 0.94627 -0.03210
 C124 C 0.45010 1.04153 -0.03850
 C125 C 0.55302 0.95868 -0.03898
 O126 O 0.97113 0.54402 0.53370
 O127 O 1.02838 0.45837 0.53516
 O128 O 0.93539 0.46945 0.50528
 O129 O 1.06850 0.52323 0.50918
 O130 O 0.97203 0.46194 0.53462
 O131 O 1.03203 0.54924 0.53275
 O132 O 1.06545 0.46460 0.50616
 O133 O 0.93450 0.52744 0.50563
 C134 C 0.94253 0.53870 0.52876
 C135 C 1.05714 0.45816 0.53018
 C136 C 0.94329 0.46286 0.52945
 C137 C 1.06025 0.54039 0.52948
 O138 O 1.02973 0.56610 0.48074
 O139 O 0.97039 0.43339 0.48384
 O140 O 0.95862 0.52786 0.45393
 O141 O 1.04158 0.46912 0.45507
 O142 O 1.02817 0.43170 0.48318
 O143 O 0.96976 0.56555 0.48212
 O144 O 1.05235 0.52802 0.45686
 O145 O 0.96379 0.47063 0.45465
 Co146 Co 1.00045 0.55063 0.50614
 Co147 Co 0.99986 0.45069 0.50782
 Co148 Co 0.95262 0.49870 0.48113
 Co149 Co 1.05153 0.49623 0.48290
 O150 O 1.00130 0.49949 0.49440
 C151 C 1.04790 0.55702 0.46137
 C152 C 0.96147 0.44198 0.46031
 C153 C 0.95792 0.55662 0.45963
 C154 C 1.03992 0.44016 0.46030
 O155 O 1.02960 0.46773 0.04467
 O156 O 1.03003 0.53445 -0.05584
 O157 O 1.01750 0.43831 -0.03935
 O158 O 1.01736 0.56426 0.02824
 O159 O 1.04008 0.47994 -0.05233
 O160 O 1.03964 0.52230 0.04122
 O161 O 1.04261 0.55625 -0.01702
 O162 O 1.04273 0.44547 0.00616
 C163 C 1.04851 0.45052 0.03096
 C164 C 1.04883 0.55135 -0.04176
 C165 C 1.04060 0.45060 -0.05089
 C166 C 1.03976 0.55168 0.04061
 O167 O 0.97392 0.53474 0.04439
 O168 O 0.97396 0.46735 -0.05567
 O169 O 0.98621 0.43817 0.02860
 O170 O 0.98637 0.56370 -0.03978
 O171 O 0.96393 0.52187 -0.05244
 O172 O 0.96386 0.48019 0.04134
 O173 O 0.96097 0.55661 0.00571
 O174 O 0.96121 0.44577 -0.01675
 Co175 Co 1.00177 0.50123 0.03862
 Co176 Co 1.00200 0.50091 -0.04981
 Co177 Co 1.00193 0.44821 -0.00537
 Co178 Co 1.00182 0.55389 -0.00570
 O179 O 1.00189 0.50106 -0.00556
 C180 C 0.95494 0.55154 0.03046
 C181 C 0.95507 0.45058 -0.04150
 C182 C 0.96367 0.45081 0.04079
 C183 C 0.96345 0.55123 -0.05142
 O184 O 0.52801 0.96816 0.55680
 O185 O 0.53207 1.03583 0.45568
 O186 O 0.52197 0.93933 0.47200
 O187 O 0.51568 1.06449 0.53911
 O188 O 0.54382 0.98185 0.46007
 O189 O 0.53795 1.02334 0.55384
 O190 O 0.54305 1.05804 0.49454
 O191 O 0.54408 0.94779 0.51834
 C192 C 0.54790 0.95143 0.54360
 C193 C 0.55019 1.05296 0.47005
 C194 C 0.54479 0.95250 0.46076
 C195 C 0.53840 1.05265 0.55153
 O196 O 0.47176 1.03529 0.55435
 O197 O 0.47886 0.96733 0.45381
 O198 O 0.48626 0.93900 0.53814
 O199 O 0.48719 1.06402 0.47025
 O200 O 0.46676 1.02132 0.45696
 O201 O 0.46242 0.98026 0.55078
 O202 O 0.46058 1.05648 0.51489
 O203 O 0.46389 0.94576 0.49191
 Co204 Co 0.50031 1.00180 0.54958
 Co205 Co 0.50515 1.00160 0.46095
 Co206 Co 0.50394 0.94923 0.50505
 Co207 Co 0.50179 1.05462 0.50469
 O208 O 0.50278 1.00183 0.50505
 C209 C 0.45357 1.05213 0.53955
 C210 C 0.45915 0.95064 0.46698
 C211 C 0.46248 0.95090 0.54900
 C212 C 0.46545 1.05066 0.45767
 O213 O 1.04874 1.04285 0.48938
 O214 O 0.94073 1.03213 0.52536
 O215 O 0.98212 1.03967 0.46023
 O216 O 1.00612 1.04098 0.55539
 O217 O 0.93836 1.02281 0.47835
 O218 O 1.05217 1.03359 0.53640
 O219 O 0.95688 1.00958 0.56072
 O220 O 1.03600 1.01857 0.45363
 C221 C 1.04709 1.04286 0.46405
 C222 C 0.94260 1.03238 0.55064
 C223 C 0.95308 1.04300 0.46377
 C224 C 1.03367 1.05043 0.55102
 O225 O 1.05540 0.96665 0.52559
 O226 O 0.94812 0.95662 0.48821
 O227 O 1.01497 0.96050 0.45965
 O228 O 0.98925 0.95698 0.55437
 O229 O 0.94355 0.96482 0.53514
 O230 O 1.05840 0.97690 0.47867
 O231 O 1.03823 0.98823 0.56116
 O232 O 0.96113 0.98166 0.45294
 Co233 Co 1.04890 1.00449 0.50755
 Co234 Co 0.94743 0.99462 0.50688
 Co235 Co 0.99849 1.00005 0.46197
 Co236 Co 0.99765 0.99900 0.55285
 O237 O 0.99812 0.99955 0.50731
 C238 C 1.05307 0.96589 0.55085
 C239 C 0.95009 0.95709 0.46291
 C240 C 1.04394 0.95705 0.46357
 C241 C 0.96188 0.94751 0.54942
 O242 O 0.55821 0.52718 -0.01795
 O243 O 0.45160 0.54625 0.01897
 O244 O 0.49449 0.54207 -0.04683
 O245 O 0.51762 0.53738 0.04817
 O246 O 0.44787 0.53897 -0.02793
 O247 O 0.55987 0.51755 0.02929
 O248 O 0.46209 0.52065 0.05459
 O249 O 0.54024 0.50550 -0.05286
 C250 C 0.55654 0.52701 -0.04325
 C251 C 0.45272 0.54576 0.04428
 C252 C 0.46779 0.55394 -0.04273
 C253 C 0.54680 0.53858 0.04427
 O254 O 0.54488 0.45243 0.01920
 O255 O 0.43886 0.47162 -0.01855
 O256 O 0.50302 0.45677 -0.04689
 O257 O 0.47862 0.46124 0.04791
 O258 O 0.43656 0.48109 0.02879
 O259 O 0.54934 0.45984 -0.02759
 O260 O 0.53404 0.47793 0.05483
 O261 O 0.45738 0.49338 -0.05328
 Co262 Co 0.54846 0.49020 0.00065
 Co263 Co 0.44835 0.50853 0.00027
 Co264 Co 0.49875 0.49942 -0.04490
 Co265 Co 0.49813 0.49931 0.04597
 O266 O 0.49842 0.49937 0.00055
 C267 C 0.54359 0.45287 0.04451
 C268 C 0.44085 0.47191 -0.04384
 C269 C 0.52966 0.44489 -0.04258
 C270 C 0.44947 0.46006 0.04387
 C271 C 0.30743 1.18864 0.15072
 C272 C 0.32027 1.21569 0.16356
 C273 C 0.30313 1.23220 0.18358
 C274 C 0.27204 1.22293 0.19107
 C275 C 0.25827 1.19710 0.17679
 C276 C 0.27579 1.18012 0.15683
 C277 C 0.32825 1.16836 0.13305
 N278 N 0.31724 1.14120 0.12107
 N279 N 0.33675 1.12230 0.10667
 C280 C 0.36812 1.12960 0.10382
 N281 N 0.37903 1.15681 0.11570
 N282 N 0.35955 1.17570 0.13001
 C283 C 0.38995 1.10862 0.08782
 C284 C 0.42292 1.11471 0.08688
 C285 C 0.44318 1.09579 0.07064
 C286 C 0.43081 1.07060 0.05486
 C287 C 0.39809 1.06391 0.05649
 C288 C 0.37794 1.08260 0.07281
 H289 H 0.34445 1.22318 0.15940
 H290 H 0.31556 1.25088 0.19450
 H291 H 0.23475 1.18870 0.18223
 H292 H 0.26508 1.15942 0.14721
 H293 H 0.43304 1.13441 0.09837
 H294 H 0.46827 1.10151 0.06973
 H295 H 0.38788 1.04450 0.04468
 H296 H 0.35280 1.07704 0.07314
 C297 C 0.80503 0.65664 0.66036
 C298 C 0.82259 0.67048 0.68182
 C299 C 0.80840 0.69137 0.70040
 C300 C 0.77587 0.69914 0.69846
 C301 C 0.75817 0.68578 0.67665
 C302 C 0.77269 0.66484 0.65763
 C303 C 0.82133 0.63389 0.64151
 N304 N 0.81010 0.62719 0.61582
 N305 N 0.82667 0.60843 0.59866
 C306 C 0.85499 0.59553 0.60657
 N307 N 0.86566 0.60177 0.63242
 N308 N 0.84926 0.62048 0.64945
 C309 C 0.87541 0.57714 0.58712
 C310 C 0.90588 0.56720 0.59554
 C311 C 0.92707 0.55351 0.57676
 C312 C 0.91830 0.54901 0.54910
 C313 C 0.88723 0.55704 0.54090
 C314 C 0.86601 0.57118 0.55971
 H315 H 0.84766 0.66530 0.68434
 H316 H 0.82339 0.70129 0.71635
 H317 H 0.73314 0.69127 0.67443
 H318 H 0.75856 0.65465 0.64118
 H319 H 0.91397 0.57103 0.61649
 H320 H 0.95072 0.54720 0.58375
 H321 H 0.87985 0.55380 0.51966
 H322 H 0.84268 0.57834 0.55257
 C323 C 0.69322 0.80977 0.15025
 C324 C 0.72507 0.81750 0.15624
 C325 C 0.74204 0.80030 0.17635
 C326 C 0.72748 0.77509 0.19089
 C327 C 0.69613 0.76668 0.18359
 C328 C 0.67956 0.78333 0.16341
 C329 C 0.67300 0.83032 0.13244
 N330 N 0.64158 0.82360 0.12941
 N331 N 0.62254 0.84280 0.11506
 C332 C 0.63404 0.86972 0.10311
 N333 N 0.66554 0.87641 0.10591
 N334 N 0.68462 0.85719 0.12036
 C335 C 0.61264 0.89104 0.08715
 C336 C 0.62513 0.91659 0.07182
 C337 C 0.60527 0.93553 0.05554
 C338 C 0.57240 0.92954 0.05429
 C339 C 0.55960 0.90483 0.07040
 C340 C 0.57956 0.88567 0.08659
 H341 H 0.73638 0.83773 0.14638
 H342 H 0.76580 0.80806 0.18167
 H343 H 0.68312 0.74854 0.19473
 H344 H 0.65518 0.77648 0.15937
 H345 H 0.65040 0.92156 0.07187
 H346 H 0.61578 0.95457 0.04345
 H347 H 0.53438 0.89967 0.06979
 H348 H 0.56908 0.86635 0.09835
 C349 C 1.19179 0.33678 0.66175
 C350 C 1.17421 0.32102 0.68222
 C351 C 1.18893 0.30046 0.70069
 C352 C 1.22195 0.29489 0.69956
 C353 C 1.23968 0.31009 0.67867
 C354 C 1.22468 0.33076 0.65980
 C355 C 1.17505 0.35933 0.64313
 N356 N 1.18758 0.36863 0.61851
 N357 N 1.17102 0.38750 0.60152
 C358 C 1.14142 0.39795 0.60857
 N359 N 1.12932 0.38906 0.63337
 N360 N 1.14573 0.37022 0.65022
 C361 C 1.12149 0.41679 0.58918
 C362 C 1.09058 0.42611 0.59702
 C363 C 1.07016 0.44062 0.57811
 C364 C 1.08013 0.44636 0.55091
 C365 C 1.11153 0.43863 0.54335
 C366 C 1.13200 0.42390 0.56229
 H367 H 1.14878 0.32452 0.68409
 H368 H 1.17399 0.28903 0.71597
 H369 H 1.26510 0.30642 0.67714
 H370 H 1.23885 0.34250 0.64412
 H371 H 1.08169 0.42133 0.61760
 H372 H 1.04621 0.44657 0.58461
 H373 H 1.11990 0.44291 0.52251
 H374 H 1.15568 0.41722 0.55561
 C375 C 0.68144 1.18201 -0.16453
 C376 C 0.66524 1.19827 -0.18549
 C377 C 0.68159 1.21631 -0.20480
 C378 C 0.71500 1.21927 -0.20393
 C379 C 0.73151 1.20314 -0.18287
 C380 C 0.71487 1.18459 -0.16333
 C381 C 0.66271 1.16260 -0.14465
 N382 N 0.67686 1.14403 -0.12519
 N383 N 0.65932 1.12641 -0.10797
 C384 C 0.62697 1.12662 -0.10950
 N385 N 0.61296 1.14525 -0.12887
 N386 N 0.63043 1.16277 -0.14602
 C387 C 0.60717 1.10722 -0.09043
 C388 C 0.57369 1.10857 -0.09169
 C389 C 0.55498 1.09095 -0.07323
 C390 C 0.56937 1.07164 -0.05315
 C391 C 0.60277 1.06981 -0.05224
 C392 C 0.62144 1.08739 -0.07062
 H393 H 0.63960 1.19704 -0.18724
 H394 H 0.66742 1.22832 -0.22027
 H395 H 0.75715 1.20471 -0.18158
 H396 H 0.72810 1.17232 -0.14736
 H397 H 0.56185 1.12352 -0.10675
 H398 H 0.52932 1.09281 -0.07441
 H399 H 0.61460 1.05501 -0.03704
 H400 H 0.64707 1.08561 -0.06913
 C401 C 1.19139 0.69988 0.35363
 C402 C 1.17666 0.72477 0.33921
 C403 C 1.19202 0.73953 0.31722
 C404 C 1.22336 0.73115 0.30962
 C405 C 1.23877 0.70716 0.32499
 C406 C 1.22283 0.69149 0.34664
 C407 C 1.17230 0.68077 0.37337
 N408 N 1.17918 0.64951 0.37780
 N409 N 1.15950 0.63116 0.39242
 C410 C 1.13216 0.64326 0.40327
 N411 N 1.12570 0.67473 0.39948
 N412 N 1.14528 0.69304 0.38470
 C413 C 1.10914 0.62201 0.41744
 C414 C 1.08576 0.63410 0.43553
 C415 C 1.06478 0.61331 0.44923
 C416 C 1.06650 0.58017 0.44466
 C417 C 1.08911 0.56848 0.42569
 C418 C 1.11023 0.58903 0.41247
 H419 H 1.15229 0.73147 0.34363
 H420 H 1.17828 0.75647 0.30535
 H421 H 1.26246 0.69930 0.31943
 H422 H 1.23474 0.67217 0.35734
 H423 H 1.08424 0.65949 0.43963
 H424 H 1.04778 0.62305 0.46381
 H425 H 1.09128 0.54313 0.42158
 H426 H 1.12753 0.57896 0.39833
 C427 C 0.32114 0.82105 -0.16522
 C428 C 0.28775 0.81819 -0.16381
 C429 C 0.27114 0.79983 -0.18349
 C430 C 0.28768 0.78417 -0.20485
 C431 C 0.32105 0.78748 -0.20593
 C432 C 0.33735 0.80534 -0.18653
 C433 C 0.33991 0.84011 -0.14515
 N434 N 0.37217 0.84009 -0.14679
 N435 N 0.38970 0.85724 -0.12946
 C436 C 0.37576 0.87533 -0.10963
 N437 N 0.34342 0.87538 -0.10783
 N438 N 0.32582 0.85812 -0.12524
 C439 C 0.39565 0.89431 -0.09039
 C440 C 0.38149 0.91363 -0.07011
 C441 C 0.40027 0.93085 -0.05162
 C442 C 0.43366 0.92916 -0.05288
 C443 C 0.44794 0.91033 -0.07341
 C444 C 0.42913 0.89307 -0.09198
 H445 H 0.27452 0.83004 -0.14757
 H446 H 0.24553 0.79798 -0.18201
 H447 H 0.33528 0.77581 -0.22160
 H448 H 0.36297 0.80680 -0.18847
 H449 H 0.35587 0.91530 -0.06836
 H450 H 0.38854 0.94529 -0.03607
 H451 H 0.47360 0.90860 -0.07487
 H452 H 0.44088 0.87850 -0.10741
 C453 C 0.81232 0.30827 0.35044
 C454 C 0.82675 0.28297 0.33633
 C455 C 0.81100 0.26760 0.31496
 C456 C 0.77945 0.27562 0.30786
 C457 C 0.76442 0.30027 0.32283
 C458 C 0.78088 0.31673 0.34372
 C459 C 0.83180 0.32722 0.36984
 N460 N 0.82840 0.35943 0.37146
 N461 N 0.84906 0.37693 0.38582
 C462 C 0.87390 0.36295 0.39917
 N463 N 0.87680 0.33068 0.39808
 N464 N 0.85632 0.31323 0.38355
 C465 C 0.89795 0.38252 0.41373
 C466 C 0.91751 0.36904 0.43422
 C467 C 0.93938 0.38798 0.44860
 C468 C 0.94250 0.42062 0.44241
 C469 C 0.92399 0.43367 0.42102
 C470 C 0.90178 0.41492 0.40703
 H471 H 0.85119 0.27637 0.34053
 H472 H 0.82451 0.25031 0.30324
 H473 H 0.74059 0.30789 0.31754
 H474 H 0.76931 0.33644 0.35419
 H475 H 0.91523 0.34407 0.43972
 H476 H 0.95321 0.37731 0.46505
 H477 H 0.92569 0.45878 0.41582
 H478 H 0.88745 0.42590 0.39107
 C479 C 1.17513 0.31535 0.15859
 C480 C 1.18240 0.28275 0.15474
 C481 C 1.19756 0.26512 0.17577
 C482 C 1.20593 0.27985 0.20090
 C483 C 1.19739 0.31213 0.20475
 C484 C 1.18244 0.32944 0.18407
 C485 C 1.16019 0.33546 0.13679
 N486 N 1.15621 0.36722 0.14134
 N487 N 1.14216 0.38581 0.12276
 C488 C 1.13144 0.37361 0.09857
 N489 N 1.13570 0.34182 0.09369
 N490 N 1.14986 0.32311 0.11241
 C491 C 1.11366 0.39454 0.07912
 C492 C 1.10381 0.38364 0.05301
 C493 C 1.08432 0.40278 0.03625
 C494 C 1.07400 0.43293 0.04551
 C495 C 1.08509 0.44437 0.07095
 C496 C 1.10483 0.42556 0.08743
 H497 H 1.17684 0.27105 0.13540
 H498 H 1.20348 0.24033 0.17208
 H499 H 1.20281 0.32483 0.22360
 H500 H 1.17695 0.35428 0.18814
 H501 H 1.11035 0.36000 0.04588
 H502 H 1.07593 0.39329 0.01676
 H503 H 1.07757 0.46752 0.07857
 H504 H 1.11206 0.43497 0.10728
 C505 C 0.68793 0.79956 0.64514
 C506 C 0.71619 0.81218 0.65574
 C507 C 0.73239 0.79646 0.67688
 C508 C 0.72181 0.76675 0.68714
 C509 C 0.69455 0.75310 0.67503
 C510 C 0.67754 0.76957 0.65455
 C511 C 0.66778 0.81965 0.62706
 N512 N 0.63575 0.82021 0.63059
 N513 N 0.61782 0.84120 0.61694
 C514 C 0.63116 0.86235 0.59906
 N515 N 0.66313 0.86137 0.59508
 N516 N 0.68111 0.84065 0.60902
 C517 C 0.61132 0.88677 0.58517
 C518 C 0.61822 0.89700 0.55817
 C519 C 0.59821 0.91889 0.54476
 C520 C 0.57157 0.93170 0.55848
 C521 C 0.56559 0.92247 0.58590
 C522 C 0.58498 0.89994 0.59896
 H523 H 0.72446 0.83551 0.64927
 H524 H 0.75207 0.80892 0.68630
 H525 H 0.68508 0.73072 0.68263
 H526 H 0.65567 0.75938 0.64674
 H527 H 0.63842 0.88723 0.54711
 H528 H 0.60322 0.92541 0.52355
 H529 H 0.54505 0.93161 0.59690
 H530 H 0.57933 0.89273 0.61988
 C531 C 1.20008 0.68259 -0.15263
 C532 C 1.19337 0.71501 -0.15781
 C533 C 1.20942 0.73157 -0.17892
 C534 C 1.23269 0.71609 -0.19508
 C535 C 1.24048 0.68420 -0.18848
 C536 C 1.22456 0.66784 -0.16763
 C537 C 1.18028 0.66301 -0.13364
 N538 N 1.17993 0.63069 -0.13634
 N539 N 1.16114 0.61269 -0.12061
 C540 C 1.14198 0.62617 -0.10128
 N541 N 1.14250 0.65851 -0.09829
 N542 N 1.16116 0.67659 -0.11424
 C543 C 1.11998 0.60599 -0.08483
 C544 C 1.10807 0.61651 -0.05926
 C545 C 1.08616 0.59790 -0.04453
 C546 C 1.07515 0.56877 -0.05540
 C547 C 1.08750 0.55798 -0.08069
 C548 C 1.10993 0.57621 -0.09509
 H549 H 1.17459 0.72708 -0.14657
 H550 H 1.20241 0.75589 -0.18348
 H551 H 1.25802 0.67106 -0.20030
 H552 H 1.23071 0.64306 -0.16398
 H553 H 1.11551 0.63922 -0.05075
 H554 H 1.07687 0.60693 -0.02516
 H555 H 1.07942 0.53565 -0.08954
 H556 H 1.11861 0.56744 -0.11475
 C557 C 0.68599 1.18200 0.34527
 C558 C 0.68882 1.21554 0.34625
 C559 C 0.70391 1.23227 0.32465
 C560 C 0.71635 1.21575 0.30169
 C561 C 0.71295 1.18226 0.30089
 C562 C 0.69824 1.16581 0.32224
 C563 C 0.67004 1.16315 0.36736
 N564 N 0.66929 1.13080 0.36543
 N565 N 0.65386 1.11325 0.38396
 C566 C 0.63847 1.12716 0.40545
 N567 N 0.63959 1.15957 0.40781
 N568 N 0.65509 1.17724 0.38914
 C569 C 0.61897 1.10718 0.42434
 C570 C 0.60649 1.11938 0.44918
 C571 C 0.58568 1.10090 0.46530
 C572 C 0.57658 1.07022 0.45651
 C573 C 0.59005 1.05764 0.43234
 C574 C 0.61119 1.07573 0.41661
 H575 H 0.67953 1.22879 0.36370
 H576 H 0.70605 1.25798 0.32601
 H577 H 0.72221 1.16815 0.28399
 H578 H 0.69655 1.14007 0.32050
 H579 H 0.61218 1.14341 0.45580
 H580 H 0.57541 1.11124 0.48379
 H581 H 0.58340 1.03409 0.42509
 H582 H 0.62034 1.06544 0.39767
 C583 C 0.82256 0.68204 0.15719
 C584 C 0.81262 0.66683 0.18151
 C585 C 0.79770 0.68383 0.20246
 C586 C 0.79184 0.71685 0.19996
 C587 C 0.80236 0.73248 0.17587
 C588 C 0.81756 0.71521 0.15463
 C589 C 0.83813 0.66260 0.13528
 N590 N 0.85043 0.67593 0.11197
 N591 N 0.86537 0.65784 0.09323
 C592 C 0.86851 0.62575 0.09703
 N593 N 0.85581 0.61256 0.12011
 N594 N 0.84095 0.63053 0.13871
 C595 C 0.88732 0.60551 0.07778
 C596 C 0.89634 0.57451 0.08588
 C597 C 0.91702 0.55638 0.06967
 C598 C 0.92881 0.56851 0.04469
 C599 C 0.91837 0.59866 0.03559
 C600 C 0.89799 0.61714 0.05213
 H601 H 0.81615 0.64144 0.18451
 H602 H 0.79019 0.67041 0.22038
 H603 H 0.79840 0.75784 0.17322
 H604 H 0.82511 0.72773 0.13619
 H605 H 0.88853 0.56462 0.10541
 H606 H 0.92465 0.53322 0.07714
 H607 H 0.92732 0.60864 0.01646
 H608 H 0.89131 0.64081 0.04519
 C609 C 0.30584 1.19132 0.64634
 C610 C 0.31438 1.22318 0.65202
 C611 C 0.29897 1.24034 0.67318
 C612 C 0.27459 1.22603 0.68884
 C613 C 0.26509 1.19479 0.68170
 C614 C 0.28025 1.17790 0.66076
 C615 C 0.32495 1.17064 0.62770
 N616 N 0.32345 1.13837 0.63046
 N617 N 0.34162 1.11925 0.61516
 C618 C 0.36199 1.13153 0.59621
 N619 N 0.36333 1.16383 0.59313
 N620 N 0.34529 1.18304 0.60867
 C621 C 0.38334 1.11005 0.58038
 C622 C 0.39602 1.11949 0.55480
 C623 C 0.41749 1.09972 0.54073
 C624 C 0.42728 1.07048 0.55229
 C625 C 0.41407 1.06072 0.57754
 C626 C 0.39204 1.08013 0.59128
 H627 H 0.33410 1.23419 0.64123
 H628 H 0.30741 1.26403 0.67825
 H629 H 0.24695 1.18231 0.69331
 H630 H 0.27275 1.15359 0.65676
 H631 H 0.38958 1.14229 0.54582
 H632 H 0.42749 1.10796 0.52137
 H633 H 0.42125 1.03835 0.58691
 H634 H 0.38270 1.07220 0.61097
 C635 C 0.80297 0.32016 -0.15166
 C636 C 0.77859 0.33507 -0.16658
 C637 C 0.76265 0.31884 -0.18745
 C638 C 0.77031 0.28693 -0.19411
 C639 C 0.79344 0.27129 -0.17801
 C640 C 0.80953 0.28771 -0.15689
 C641 C 0.82286 0.33961 -0.13271
 N642 N 0.84197 0.32592 -0.11342
 N643 N 0.86075 0.34389 -0.09754
 C644 C 0.86142 0.37623 -0.10052
 N645 N 0.84227 0.38982 -0.11974
 N646 N 0.82335 0.37193 -0.13539
 C647 C 0.88358 0.39628 -0.08421
 C648 C 0.89380 0.42597 -0.09456
 C649 C 0.91638 0.44407 -0.08029
 C650 C 0.92869 0.43326 -0.05504
 C651 C 0.91752 0.40423 -0.04407
 C652 C 0.89546 0.38574 -0.05867
 H653 H 0.77256 0.35987 -0.16289
 H654 H 0.74521 0.33210 -0.19922
 H655 H 0.80033 0.24694 -0.18261
 H656 H 0.82822 0.27552 -0.14570
 H657 H 0.88514 0.43474 -0.11420
 H658 H 0.92458 0.46633 -0.08921
 H659 H 0.92677 0.39520 -0.02472
 H660 H 0.88788 0.36309 -0.05009
 C661 C 0.32063 0.82347 0.34188
 C662 C 0.30793 0.83933 0.31890
 C663 C 0.29170 0.82268 0.29853
 C664 C 0.28731 0.78937 0.30029
 C665 C 0.30009 0.77322 0.32326
 C666 C 0.31655 0.79013 0.34391
 C667 C 0.33833 0.84234 0.36287
 N668 N 0.35005 0.82891 0.38634
 N669 N 0.36648 0.84645 0.40444
 C670 C 0.37184 0.87808 0.39978
 N671 N 0.35989 0.89137 0.37647
 N672 N 0.34350 0.87395 0.35851
 C673 C 0.39172 0.89767 0.41863
 C674 C 0.40310 0.92754 0.40969
 C675 C 0.42395 0.94522 0.42601
 C676 C 0.43364 0.93380 0.45189
 C677 C 0.42116 0.90471 0.46158
 C678 C 0.40057 0.88665 0.44498
 H679 H 0.31037 0.86492 0.31649
 H680 H 0.28218 0.83650 0.28158
 H681 H 0.29726 0.74765 0.32534
 H682 H 0.32614 0.77714 0.36135
 H683 H 0.39679 0.93690 0.38958
 H684 H 0.43316 0.96757 0.41804
 H685 H 0.42840 0.89527 0.48143
 H686 H 0.39206 0.86387 0.45255
 C687 C 1.17088 1.16122 0.32461
 C688 C 1.19869 1.17640 0.33330
 C689 C 1.21707 1.19356 0.31486
 C690 C 1.20905 1.19568 0.28666
 C691 C 1.18199 1.17899 0.27750
 C692 C 1.16297 1.16199 0.29635
 C693 C 1.14997 1.14660 0.34571
 N694 N 1.12190 1.13276 0.33888
 N695 N 1.10323 1.12036 0.35840
 C696 C 1.11174 1.12153 0.38550
 N697 N 1.13970 1.13549 0.39226
 N698 N 1.15831 1.14782 0.37280
 C699 C 1.09219 1.10588 0.40700
 C700 C 1.10182 1.10576 0.43491
 C701 C 1.08578 1.08699 0.45440
 C702 C 1.06012 1.06799 0.44612
 C703 C 1.04920 1.06994 0.41877
 C704 C 1.06494 1.08876 0.39945
 H705 H 1.20561 1.17660 0.35483
 H706 H 1.23595 1.20740 0.32381
 H707 H 1.17466 1.18031 0.25611
 H708 H 1.14162 1.15036 0.28897
 H709 H 1.12257 1.11903 0.44146
 H710 H 1.09460 1.08582 0.47538
 H711 H 1.02924 1.05570 0.41192
 H712 H 1.05659 1.08861 0.37831
 C713 C 0.65592 0.67671 -0.17749
 C714 C 0.65495 0.66996 -0.20596
 C715 C 0.67439 0.68672 -0.22446
 C716 C 0.69522 0.71045 -0.21483
 C717 C 0.69504 0.71776 -0.18640
 C718 C 0.67560 0.70135 -0.16811
 C719 C 0.63858 0.65682 -0.15726
 N720 N 0.64124 0.66260 -0.12972
 N721 N 0.62778 0.64328 -0.11127
 C722 C 0.61114 0.61730 -0.11965
 N723 N 0.60810 0.61180 -0.14719
 N724 N 0.62156 0.63111 -0.16562
 C725 C 0.59752 0.59468 -0.09942
 C726 C 0.58209 0.56716 -0.10895
 C727 C 0.56958 0.54524 -0.09043
 C728 C 0.57195 0.55019 -0.06181
 C729 C 0.58749 0.57754 -0.05199
 C730 C 0.60025 0.59968 -0.07071
 H731 H 0.63990 0.65110 -0.21387
 H732 H 0.67379 0.68031 -0.24611
 H733 H 0.71107 0.73516 -0.17769
 H734 H 0.67704 0.70722 -0.14637
 H735 H 0.57965 0.56238 -0.13082
 H736 H 0.55780 0.52433 -0.09870
 H737 H 0.58944 0.58193 -0.03001
 H738 H 0.61212 0.62068 -0.06274
 C739 C 0.84073 1.19031 0.67647
 C740 C 0.84015 1.18481 0.70513
 C741 C 0.81976 1.20239 0.72227
 C742 C 0.79950 1.22579 0.71108
 C743 C 0.80126 1.23195 0.68252
 C744 C 0.82161 1.21463 0.66553
 C745 C 0.85918 1.16946 0.65765
 N746 N 0.85731 1.17343 0.62983
 N747 N 0.87183 1.15327 0.61268
 C748 C 0.88883 1.12824 0.62264
 N749 N 0.89108 1.12453 0.65046
 N750 N 0.87653 1.14468 0.66762
 C751 C 0.90340 1.10462 0.60372
 C752 C 0.92059 1.07877 0.61454
 C753 C 0.93310 1.05550 0.59712
 C754 C 0.92886 1.05746 0.56840
 C755 C 0.91209 1.08347 0.55735
 C756 C 0.89941 1.10688 0.57489
 H757 H 0.85470 1.16626 0.71425
 H758 H 0.81921 1.19685 0.74410
 H759 H 0.78566 1.24895 0.67265
 H760 H 0.82136 1.21955 0.64358
 H761 H 0.92420 1.07625 0.63657
 H762 H 0.94607 1.03582 0.60627
 H763 H 0.90867 1.08560 0.53526
 H764 H 0.88627 1.12654 0.56589
 C765 C 0.32859 0.67229 0.17788
 C766 C 0.33481 0.67263 0.20644
 C767 C 0.31483 0.68954 0.22455
 C768 C 0.28835 0.70643 0.21438
 C769 C 0.28188 0.70476 0.18587
 C770 C 0.30143 0.68787 0.16805
 C771 C 0.35045 0.65712 0.15781
 N772 N 0.34478 0.65985 0.13030
 N773 N 0.36398 0.64630 0.11186
 C774 C 0.38983 0.62952 0.12015
 N775 N 0.39574 0.62699 0.14768
 N776 N 0.37651 0.64062 0.16617
 C777 C 0.40951 0.61220 0.09970
 C778 C 0.43419 0.59217 0.10863
 C779 C 0.44949 0.57198 0.09001
 C780 C 0.44060 0.57151 0.06207
 C781 C 0.41771 0.59322 0.05259
 C782 C 0.40217 0.61339 0.07131
 H783 H 0.35557 0.66066 0.21468
 H784 H 0.32087 0.69042 0.24626
 H785 H 0.26307 0.71844 0.17648
 H786 H 0.29575 0.68822 0.14625
 H787 H 0.44075 0.59093 0.13022
 H788 H 0.46744 0.55573 0.09776
 H789 H 0.41056 0.59331 0.03110
 H790 H 0.38348 0.62886 0.06371
 C791 C 1.16132 0.81165 0.67572
 C792 C 1.18113 0.78793 0.66469
 C793 C 1.20187 0.77105 0.68159
 C794 C 1.20338 0.77710 0.71019
 C795 C 1.18254 0.79998 0.72146
 C796 C 1.16173 0.81709 0.70440
 C797 C 1.14209 0.83184 0.65701
 N798 N 1.12344 0.85561 0.66710
 N799 N 1.10795 0.87510 0.65005
 C800 C 1.11049 0.87171 0.62221
 N801 N 1.12884 0.84771 0.61212
 N802 N 1.14430 0.82819 0.62917
 C803 C 1.09478 0.89466 0.60340
 C804 C 1.09945 0.89317 0.57460
 C805 C 1.08581 0.91614 0.55721
 C806 C 1.06736 0.94094 0.56839
 C807 C 1.06229 0.94201 0.59706
 C808 C 1.07578 0.91918 0.61433
 H809 H 1.18153 0.78306 0.64272
 H810 H 1.21784 0.75441 0.67167
 H811 H 1.18288 0.80541 0.74331
 H812 H 1.14666 0.83520 0.71360
 H813 H 1.11396 0.87453 0.56552
 H814 H 1.08991 0.91471 0.53516
 H815 H 1.04800 0.96072 0.60631
 H816 H 1.07155 0.92104 0.63634
 C817 C 0.66971 0.32820 0.17733
 C818 C 0.69662 0.31235 0.16724
 C819 C 0.71684 0.29630 0.18501
 C820 C 0.71127 0.29572 0.21371
 C821 C 0.68496 0.31276 0.22409
 C822 C 0.66433 0.32887 0.20604
 C823 C 0.64733 0.34279 0.15745
 N824 N 0.62153 0.35960 0.16603
 N825 N 0.60194 0.37287 0.14770
 C826 C 0.60723 0.36968 0.12010
 N827 N 0.63281 0.35257 0.11160
 N828 N 0.65235 0.33937 0.12988
 C829 C 0.58726 0.38674 0.09976
 C830 C 0.59439 0.38542 0.07132
 C831 C 0.57868 0.40547 0.05266
 C832 C 0.55581 0.42718 0.06226
 C833 C 0.54708 0.42678 0.09028
 C834 C 0.56257 0.40673 0.10883
 H835 H 0.70166 0.31125 0.14532
 H836 H 0.73560 0.28253 0.17556
 H837 H 0.67961 0.31270 0.24596
 H838 H 0.64377 0.34106 0.21448
 H839 H 0.61309 0.36999 0.06362
 H840 H 0.58570 0.40532 0.03113
 H841 H 0.52913 0.44301 0.09811
 H842 H 0.55615 0.40804 0.13047
 C843 C 0.82992 0.83473 0.32383
 C844 C 0.83749 0.83414 0.29547
 C845 C 0.81829 0.81714 0.27679
 C846 C 0.79135 0.80040 0.28620
 C847 C 0.78371 0.80230 0.31451
 C848 C 0.80231 0.81934 0.33280
 C849 C 0.85079 0.84968 0.34473
 N850 N 0.84329 0.84730 0.37196
 N851 N 0.86159 0.86036 0.39123
 C852 C 0.88837 0.87631 0.38411
 N853 N 0.89611 0.87856 0.35686
 N854 N 0.87775 0.86541 0.33753
 C855 C 0.90728 0.89289 0.40546
 C856 C 0.93327 0.91181 0.39770
 C857 C 0.94823 0.93120 0.41703
 C858 C 0.93773 0.93200 0.44459
 C859 C 0.91335 0.91139 0.45298
 C860 C 0.89813 0.89201 0.43350
 H861 H 0.85867 0.84593 0.28788
 H862 H 0.82531 0.81603 0.25529
 H863 H 0.76486 0.78850 0.32360
 H864 H 0.79560 0.81905 0.35441
 H865 H 0.94123 0.91277 0.37643
 H866 H 0.96730 0.94661 0.41009
 H867 H 0.90492 0.91159 0.47414
 H868 H 0.87835 0.87738 0.44022
 C869 C 0.34359 0.32136 -0.17848
 C870 C 0.34390 0.32788 -0.20701
 C871 C 0.32458 0.31041 -0.22512
 C872 C 0.30449 0.28626 -0.21499
 C873 C 0.30530 0.27937 -0.18651
 C874 C 0.32469 0.29633 -0.16866
 C875 C 0.36062 0.34180 -0.15848
 N876 N 0.35918 0.33534 -0.13099
 N877 N 0.37218 0.35496 -0.11258
 C878 C 0.38714 0.38197 -0.12093
 N879 N 0.38899 0.38821 -0.14845
 N880 N 0.37596 0.36859 -0.16686
 C881 C 0.40035 0.40469 -0.10059
 C882 C 0.41507 0.43271 -0.10990
 C883 C 0.42739 0.45453 -0.09118
 C884 C 0.42547 0.44897 -0.06261
 C885 C 0.41052 0.42117 -0.05303
 C886 C 0.39803 0.39912 -0.07193
 H887 H 0.35832 0.34707 -0.21524
 H888 H 0.32458 0.31663 -0.24682
 H889 H 0.28963 0.26196 -0.17729
 H890 H 0.32365 0.29065 -0.14686
 H891 H 0.41719 0.43791 -0.13173
 H892 H 0.43872 0.47580 -0.09925
 H893 H 0.40892 0.41630 -0.03110
 H894 H 0.38669 0.37774 -0.06411
 C895 C 1.19560 0.31191 -0.15163
 C896 C 1.18844 0.27972 -0.15742
 C897 C 1.20502 0.26306 -0.17815
 C898 C 1.22902 0.27829 -0.19357
 C899 C 1.23725 0.30987 -0.18636
 C900 C 1.22111 0.32621 -0.16559
 C901 C 1.17511 0.33171 -0.13328
 N902 N 1.18052 0.36360 -0.13073
 N903 N 1.16078 0.38220 -0.11638
 C904 C 1.13467 0.36974 -0.10391
 N905 N 1.12946 0.33776 -0.10611
 N906 N 1.14919 0.31914 -0.12054
 C907 C 1.11164 0.39077 -0.08926
 C908 C 1.08602 0.37744 -0.07465
 C909 C 1.06340 0.39704 -0.06199
 C910 C 1.06565 0.43051 -0.06369
 C911 C 1.09150 0.44401 -0.07786
 C912 C 1.11431 0.42432 -0.09049
 H913 H 1.16902 0.26786 -0.14691
 H914 H 1.19771 0.23896 -0.18315
 H915 H 1.25503 0.32300 -0.19782
 H916 H 1.22759 0.35081 -0.16162
 H917 H 1.08323 0.35179 -0.07314
 H918 H 1.04385 0.38585 -0.05109
 H919 H 1.09391 0.46971 -0.07942
 H920 H 1.13374 0.43543 -0.10159
 C921 C 0.68172 0.81904 0.33910
 C922 C 0.69581 0.83476 0.31669
 C923 C 0.71167 0.81773 0.29630
 C924 C 0.71444 0.78418 0.29759
 C925 C 0.70011 0.76816 0.31991
 C926 C 0.68379 0.78545 0.34048
 C927 C 0.66479 0.83829 0.36029
 N928 N 0.64614 0.82446 0.37984
 N929 N 0.62983 0.84242 0.39773
 C930 C 0.63157 0.87489 0.39686
 N931 N 0.65058 0.88858 0.37758
 N932 N 0.66679 0.87069 0.35974
 C933 C 0.61173 0.89510 0.41530
 C934 C 0.61260 0.92870 0.41330
 C935 C 0.59169 0.94765 0.42879
 C936 C 0.56947 0.93338 0.44653
 C937 C 0.56954 0.89994 0.44942
 C938 C 0.59041 0.88103 0.43402
 H939 H 0.69464 0.86050 0.31472
 H940 H 0.72241 0.83145 0.27983
 H941 H 0.70170 0.74243 0.32161
 H942 H 0.67307 0.77260 0.35751
 H943 H 0.62886 0.94039 0.39920
 H944 H 0.59223 0.97335 0.42623
 H945 H 0.55285 0.88824 0.46314
 H946 H 0.58919 0.85532 0.43626
 C947 C 0.80688 0.68707 -0.15354
 C948 C 0.81383 0.71905 -0.16036
 C949 C 0.79633 0.73513 -0.18083
 C950 C 0.77158 0.71953 -0.19499
 C951 C 0.76362 0.68822 -0.18671
 C952 C 0.78070 0.67246 -0.16621
 C953 C 0.82809 0.66779 -0.13539
 N954 N 0.82276 0.63600 -0.13192
 N955 N 0.84289 0.61786 -0.11760
 C956 C 0.86935 0.63068 -0.10605
 N957 N 0.87453 0.66257 -0.10920
 N958 N 0.85441 0.68073 -0.12362
 C959 C 0.89263 0.61011 -0.09121
 C960 C 0.91849 0.62382 -0.07725
 C961 C 0.94109 0.60458 -0.06417
 C962 C 0.93859 0.57107 -0.06479
 C963 C 0.91257 0.55722 -0.07840
 C964 C 0.88978 0.57654 -0.09143
 H965 H 0.83375 0.73116 -0.15087
 H966 H 0.80350 0.75902 -0.18669
 H967 H 0.74533 0.67478 -0.19721
 H968 H 0.77435 0.64801 -0.16143
 H969 H 0.92144 0.64950 -0.07653
 H970 H 0.96079 0.61604 -0.05376
 H971 H 0.90995 0.53149 -0.07915
 H972 H 0.87018 0.56511 -0.10199
 C973 C 0.32195 1.18009 0.33761
 C974 C 0.30659 1.16383 0.31616
 C975 C 0.28914 1.18032 0.29646
 C976 C 0.28597 1.21385 0.29753
 C977 C 0.30127 1.23038 0.31904
 C978 C 0.31921 1.21364 0.33887
 C979 C 0.34088 1.16146 0.35792
 N980 N 0.36010 1.17598 0.37662
 N981 N 0.37796 1.15864 0.39379
 C982 C 0.37730 1.12612 0.39301
 N983 N 0.35781 1.11174 0.37452
 N984 N 0.34004 1.12901 0.35740
 C985 C 0.39834 1.10660 0.41097
 C986 C 0.39798 1.07296 0.40941
 C987 C 0.41924 1.05459 0.42501
 C988 C 0.44133 1.06946 0.44245
 C989 C 0.44109 1.10298 0.44462
 C990 C 0.41987 1.12132 0.42909
 H991 H 0.30811 1.13809 0.31435
 H992 H 0.27764 1.16626 0.28063
 H993 H 0.29938 1.25611 0.32056
 H994 H 0.33079 1.22692 0.35519
 H995 H 0.38164 1.06076 0.39576
 H996 H 0.41880 1.02882 0.42301
 H997 H 0.45771 1.11515 0.45805
 H998 H 0.42076 1.14709 0.43093
 C999 C 1.17721 0.68657 0.16168
 C1000 C 1.17795 0.72026 0.16093
 C1001 C 1.19492 0.73763 0.18099
 C1002 C 1.21124 0.72163 0.20226
 C1003 C 1.21021 0.68795 0.20273
 C1004 C 1.19372 0.67084 0.18280
 C1005 C 1.15913 0.66723 0.14124
 N1006 N 1.16152 0.63484 0.14153
 N1007 N 1.14456 0.61690 0.12431
 C1008 C 1.12437 0.63051 0.10593
 N1009 N 1.12214 0.66297 0.10538
 N1010 N 1.13918 0.68098 0.12265
 C1011 C 1.10428 0.61017 0.08778
 C1012 C 1.08223 0.62405 0.06961
 C1013 C 1.06193 0.60490 0.05388
 C1014 C 1.06313 0.57138 0.05589
 C1015 C 1.08577 0.55738 0.07339
 C1016 C 1.10611 0.57656 0.08918
 H1017 H 1.16547 0.73315 0.14487
 H1018 H 1.19520 0.76347 0.17990
 H1019 H 1.22257 0.67429 0.21834
 H1020 H 1.19381 0.64502 0.18421
 H1021 H 1.08020 0.64976 0.06786
 H1022 H 1.04485 0.61644 0.04044
 H1023 H 1.08730 0.53164 0.07532
 H1024 H 1.12288 0.56499 0.10287
 C1025 C 0.69005 1.19778 0.64866
 C1026 C 0.71664 1.18478 0.66197
 C1027 C 0.73273 1.20205 0.68211
 C1028 C 0.72337 1.23336 0.68931
 C1029 C 0.69817 1.24733 0.67448
 C1030 C 0.68166 1.22972 0.65437
 C1031 C 0.66982 1.17685 0.63117
 N1032 N 0.64340 1.18834 0.61846
 N1033 N 0.62404 1.16876 0.60473
 C1034 C 0.63012 1.13686 0.60325
 N1035 N 0.65668 1.12546 0.61572
 N1036 N 0.67606 1.14503 0.62936
 C1037 C 0.60761 1.11486 0.58920
 C1038 C 0.61088 1.08141 0.59137
 C1039 C 0.58863 1.06089 0.57908
 C1040 C 0.56279 1.07346 0.56430
 C1041 C 0.55995 1.10683 0.56174
 C1042 C 0.58197 1.12722 0.57406
 H1043 H 0.72406 1.16041 0.65806
 H1044 H 0.75125 1.18968 0.69329
 H1045 H 0.68983 1.27109 0.67960
 H1046 H 0.66133 1.24058 0.64438
 H1047 H 0.63036 1.07105 0.60292
 H1048 H 0.59149 1.03530 0.58130
 H1049 H 0.54041 1.11734 0.55037
 H1050 H 0.57873 1.15276 0.57181
 C1051 C 0.82280 0.31633 0.15960
 C1052 C 0.80422 0.33224 0.17933
 C1053 C 0.78762 0.31534 0.19936
 C1054 C 0.78847 0.28166 0.20034
 C1055 C 0.80664 0.26545 0.18031
 C1056 C 0.82376 0.28264 0.16017
 C1057 C 0.84146 0.33553 0.13941
 N1058 N 0.86288 0.32178 0.12204
 N1059 N 0.88047 0.33972 0.10509
 C1060 C 0.87739 0.37211 0.10480
 N1061 N 0.85574 0.38572 0.12195
 N1062 N 0.83822 0.36784 0.13884
 C1063 C 0.89804 0.39242 0.08705
 C1064 C 0.89589 0.42603 0.08810
 C1065 C 0.91666 0.44518 0.07265
 C1066 C 0.94002 0.43114 0.05583
 C1067 C 0.94159 0.39761 0.05420
 C1068 C 0.92090 0.37850 0.06961
 H1069 H 0.80272 0.35807 0.17968
 H1070 H 0.77386 0.32911 0.21404
 H1071 H 0.80792 0.23961 0.18039
 H1072 H 0.83785 0.26960 0.14520
 H1073 H 0.87851 0.43763 0.10124
 H1074 H 0.91482 0.47093 0.07426
 H1075 H 0.95924 0.38603 0.04130
 H1076 H 0.92319 0.35278 0.06815
 C1077 C 0.31186 0.80570 0.64699
 C1078 C 0.32058 0.77386 0.65273
 C1079 C 0.30457 0.75630 0.67321
 C1080 C 0.27955 0.77022 0.68838
 C1081 C 0.26996 0.80147 0.68128
 C1082 C 0.28553 0.81869 0.66077
 C1083 C 0.33153 0.82658 0.62894
 N1084 N 0.32498 0.85833 0.62699
 N1085 N 0.34394 0.87791 0.61287
 C1086 C 0.37034 0.86659 0.60002
 N1087 N 0.37669 0.83475 0.60162
 N1088 N 0.35776 0.81516 0.61583
 C1089 C 0.39255 0.88864 0.58565
 C1090 C 0.41818 0.87633 0.57039
 C1091 C 0.44028 0.89677 0.55819
 C1092 C 0.43751 0.93012 0.56097
 C1093 C 0.41152 0.94265 0.57564
 C1094 C 0.38920 0.92208 0.58785
 H1095 H 0.34074 0.76303 0.64240
 H1096 H 0.31309 0.73260 0.67827
 H1097 H 0.25155 0.81380 0.69270
 H1098 H 0.27791 0.84299 0.65688
 H1099 H 0.42146 0.85081 0.56808
 H1100 H 0.45992 0.88630 0.54685
 H1101 H 0.40873 0.96823 0.57805
 H1102 H 0.36970 0.93239 0.59946
 C1103 C 0.31617 1.17061 -0.16665
 C1104 C 0.28267 1.17129 -0.16689
 C1105 C 0.26627 1.19108 -0.18567
 C1106 C 0.28318 1.21005 -0.20468
 C1107 C 0.31668 1.20854 -0.20440
 C1108 C 0.33277 1.18953 -0.18563
 C1109 C 0.33481 1.15078 -0.14713
 N1110 N 0.36546 1.15874 -0.14175
 N1111 N 0.38352 1.14057 -0.12563
 C1112 C 0.37187 1.11340 -0.11426
 N1113 N 0.34106 1.10539 -0.11942
 N1114 N 0.32284 1.12375 -0.13554
 C1115 C 0.39265 1.09354 -0.09640
 C1116 C 0.38389 1.06247 -0.08839
 C1117 C 0.40347 1.04462 -0.07073
 C1118 C 0.43189 1.05774 -0.06050
 C1119 C 0.44103 1.08836 -0.06915
 C1120 C 0.42177 1.10596 -0.08699
 H1121 H 0.26925 1.15688 -0.15243
 H1122 H 0.24053 1.19134 -0.18543
 H1123 H 0.33101 1.22243 -0.21855
 H1124 H 0.35852 1.18943 -0.18631
 H1125 H 0.36178 1.05212 -0.09548
 H1126 H 0.39574 1.02112 -0.06420
 H1127 H 0.46279 1.09906 -0.06160
 H1128 H 0.42941 1.12973 -0.09279
 C1129 C 0.81036 0.69410 0.35127
 C1130 C 0.82530 0.71884 0.33687
 C1131 C 0.81012 0.73373 0.31490
 C1132 C 0.77869 0.72576 0.30743
 C1133 C 0.76306 0.70192 0.32284
 C1134 C 0.77890 0.68595 0.34435
 C1135 C 0.82934 0.67501 0.37099
 N1136 N 0.82448 0.64309 0.37358
 N1137 N 0.84462 0.62511 0.38808
 C1138 C 0.87039 0.63830 0.40061
 N1139 N 0.87475 0.67033 0.39862
 N1140 N 0.85477 0.68826 0.38395
 C1141 C 0.89402 0.61796 0.41497
 C1142 C 0.91510 0.63097 0.43450
 C1143 C 0.93689 0.61136 0.44838
 C1144 C 0.93837 0.57849 0.44260
 C1145 C 0.91811 0.56583 0.42227
 C1146 C 0.89605 0.58526 0.40881
 H1147 H 0.84973 0.72525 0.34126
 H1148 H 0.82401 0.75052 0.30300
 H1149 H 0.73928 0.69439 0.31738
 H1150 H 0.76691 0.66671 0.35508
 H1151 H 0.91421 0.65616 0.43957
 H1152 H 0.95207 0.62175 0.46403
 H1153 H 0.91849 0.54057 0.41738
 H1154 H 0.88050 0.57459 0.39358
 C1155 C 0.69259 1.18280 0.15476
 C1156 C 0.72491 1.17678 0.16029
 C1157 C 0.74148 1.19546 0.17968
 C1158 C 0.72586 1.22009 0.19424
 C1159 C 0.69377 1.22630 0.18778
 C1160 C 0.67771 1.20851 0.16807
 C1161 C 0.67307 1.16151 0.13707
 N1162 N 0.64382 1.17128 0.12875
 N1163 N 0.62459 1.15171 0.11508
 C1164 C 0.63357 1.12132 0.10922
 N1165 N 0.66305 1.11152 0.11719
 N1166 N 0.68240 1.13121 0.13091
 C1167 C 0.61145 1.09981 0.09420
 C1168 C 0.61959 1.06793 0.08820
 C1169 C 0.59920 1.04874 0.07241
 C1170 C 0.57044 1.06119 0.06219
 C1171 C 0.56169 1.09249 0.06931
 C1172 C 0.58185 1.11150 0.08516
 H1173 H 0.73707 1.15711 0.15028
 H1174 H 0.76592 1.18939 0.18437
 H1175 H 0.68001 1.24379 0.19907
 H1176 H 0.65282 1.21381 0.16461
 H1177 H 0.64204 1.05806 0.09506
 H1178 H 0.60666 1.02474 0.06707
 H1179 H 0.53965 1.10270 0.06180
 H1180 H 0.57452 1.13577 0.08961
 C1181 C 1.19746 0.65965 0.65964
 C1182 C 1.17952 0.67586 0.67966
 C1183 C 1.19396 0.69638 0.69829
 C1184 C 1.22705 0.70148 0.69778
 C1185 C 1.24513 0.68599 0.67723
 C1186 C 1.23040 0.66535 0.65818
 C1187 C 1.18094 0.63681 0.64117
 N1188 N 1.19306 0.62793 0.61626
 N1189 N 1.17639 0.60903 0.59938
 C1190 C 1.14709 0.59816 0.60686
 N1191 N 1.13552 0.60656 0.63198
 N1192 N 1.15202 0.62540 0.64871
 C1193 C 1.12664 0.57969 0.58762
 C1194 C 1.09518 0.57253 0.59539
 C1195 C 1.07419 0.55869 0.57670
 C1196 C 1.08409 0.55118 0.54981
 C1197 C 1.11597 0.55648 0.54233
 C1198 C 1.13706 0.57086 0.56104
 H1199 H 1.15401 0.67266 0.68109
 H1200 H 1.17879 0.70809 0.71327
 H1201 H 1.27061 0.68934 0.67616
 H1202 H 1.24483 0.65328 0.64284
 H1203 H 1.08625 0.57864 0.61570
 H1204 H 1.04985 0.55451 0.58314
 H1205 H 1.12416 0.55088 0.52166
 H1206 H 1.16116 0.57588 0.55445
 C1207 C 0.68391 0.82741 -0.16873
 C1208 C 0.71742 0.82680 -0.16958
 C1209 C 0.73353 0.80654 -0.18825
 C1210 C 0.71634 0.78695 -0.20656
 C1211 C 0.68284 0.78830 -0.20564
 C1212 C 0.66704 0.80782 -0.18697
 C1213 C 0.66559 0.84783 -0.14927
 N1214 N 0.63476 0.84058 -0.14379
 N1215 N 0.61714 0.85908 -0.12751
 C1216 C 0.62942 0.88590 -0.11603
 N1217 N 0.66039 0.89324 -0.12133
 N1218 N 0.67817 0.87455 -0.13762
 C1219 C 0.60915 0.90604 -0.09781
 C1220 C 0.61855 0.93687 -0.08964
 C1221 C 0.59944 0.95494 -0.07166
 C1222 C 0.57086 0.94228 -0.06123
 C1223 C 0.56113 0.91189 -0.07000
 C1224 C 0.57989 0.89410 -0.08817
 H1225 H 0.73109 0.84168 -0.15570
 H1226 H 0.75927 0.80639 -0.18850
 H1227 H 0.66830 0.77393 -0.21921
 H1228 H 0.64128 0.80776 -0.18718
 H1229 H 0.64079 0.94687 -0.09687
 H1230 H 0.60765 0.97824 -0.06504
 H1231 H 0.53924 0.90153 -0.06231
 H1232 H 0.57176 0.87053 -0.09406
 C1233 C 1.18686 0.30175 0.35164
 C1234 C 1.17282 0.27630 0.33751
 C1235 C 1.18860 0.26157 0.31571
 C1236 C 1.21980 0.27045 0.30814
 C1237 C 1.23462 0.29489 0.32339
 C1238 C 1.21815 0.31068 0.34472
 C1239 C 1.16711 0.32077 0.37095
 N1240 N 1.17129 0.35281 0.37318
 N1241 N 1.15064 0.37061 0.38736
 C1242 C 1.12501 0.35714 0.39995
 N1243 N 1.12128 0.32499 0.39832
 N1244 N 1.14178 0.30723 0.38394
 C1245 C 1.10103 0.37735 0.41413
 C1246 C 1.08102 0.36484 0.43480
 C1247 C 1.05969 0.38478 0.44902
 C1248 C 1.05762 0.41743 0.44246
 C1249 C 1.07642 0.42936 0.42071
 C1250 C 1.09801 0.40968 0.40693
 H1251 H 1.14856 0.26924 0.34191
 H1252 H 1.17524 0.24428 0.30393
 H1253 H 1.25821 0.30307 0.31789
 H1254 H 1.22948 0.33043 0.35524
 H1255 H 1.08267 0.33992 0.44064
 H1256 H 1.04566 0.37491 0.46574
 H1257 H 1.07552 0.45439 0.41506
 H1258 H 1.11263 0.41992 0.39077
 C1259 C 0.30818 0.81842 0.15344
 C1260 C 0.27620 0.82543 0.15965
 C1261 C 0.25947 0.80715 0.17926
 C1262 C 0.27461 0.78193 0.19338
 C1263 C 0.30626 0.77457 0.18610
 C1264 C 0.32242 0.79197 0.16613
 C1265 C 0.32809 0.83953 0.13590
 N1266 N 0.35700 0.82919 0.12711
 N1267 N 0.37670 0.84860 0.11372
 C1268 C 0.36855 0.87941 0.10862
 N1269 N 0.33940 0.88978 0.11704
 N1270 N 0.31959 0.87026 0.13048
 C1271 C 0.39118 0.90076 0.09397
 C1272 C 0.38372 0.93293 0.08851
 C1273 C 0.40450 0.95201 0.07297
 C1274 C 0.43300 0.93919 0.06247
 C1275 C 0.44112 0.90759 0.06910
 C1276 C 0.42055 0.88866 0.08469
 H1277 H 0.26451 0.84567 0.15011
 H1278 H 0.23543 0.81411 0.18457
 H1279 H 0.31977 0.75668 0.19708
 H1280 H 0.34705 0.78589 0.16213
 H1281 H 0.36146 0.94312 0.09558
 H1282 H 0.39751 0.97627 0.06803
 H1283 H 0.46294 0.89707 0.06135
 H1284 H 0.42737 0.86415 0.08873
 C1285 C 0.80696 0.34346 0.66089
 C1286 C 0.77398 0.33794 0.65929
 C1287 C 0.75893 0.31737 0.67824
 C1288 C 0.77669 0.30176 0.69886
 C1289 C 0.80982 0.30670 0.69954
 C1290 C 0.82459 0.32718 0.68100
 C1291 C 0.82376 0.36610 0.64234
 N1292 N 0.85302 0.37694 0.64950
 N1293 N 0.86949 0.39583 0.63271
 C1294 C 0.85754 0.40482 0.60791
 N1295 N 0.82798 0.39441 0.60080
 N1296 N 0.81135 0.37550 0.61772
 C1297 C 0.87763 0.42359 0.58854
 C1298 C 0.86759 0.43022 0.56144
 C1299 C 0.88841 0.44451 0.54247
 C1300 C 0.91971 0.45222 0.55022
 C1301 C 0.92912 0.44717 0.57765
 C1302 C 0.90835 0.43313 0.59658
 H1303 H 0.75977 0.35006 0.64387
 H1304 H 0.73344 0.31414 0.67703
 H1305 H 0.82478 0.29489 0.71457
 H1306 H 0.85009 0.33026 0.68257
 H1307 H 0.84406 0.42338 0.55459
 H1308 H 0.88047 0.44825 0.52146
 H1309 H 0.95296 0.45318 0.58431
 H1310 H 0.91687 0.42879 0.61733
 C1311 C 1.15205 1.19241 0.67574
 C1312 C 1.15173 1.18620 0.70431
 C1313 C 1.17464 1.20001 0.72165
 C1314 C 1.19821 1.22023 0.71069
 C1315 C 1.19770 1.22671 0.68216
 C1316 C 1.17506 1.21317 0.66506
 C1317 C 1.13009 1.17627 0.65646
 N1318 N 1.13538 1.17811 0.62883
 N1319 N 1.11730 1.16215 0.61111
 C1320 C 1.09295 1.14379 0.62024
 N1321 N 1.08718 1.14230 0.64786
 N1322 N 1.10544 1.15821 0.66566
 C1323 C 1.07521 1.12356 0.60067
 C1324 C 1.04570 1.11043 0.60802
 C1325 C 1.03100 1.08816 0.59079
 C1326 C 1.04594 1.07821 0.56624
 C1327 C 1.07460 1.09254 0.55822
 C1328 C 1.08897 1.11525 0.57516
 H1329 H 1.13426 1.17020 0.71316
 H1330 H 1.17407 1.19453 0.74349
 H1331 H 1.21529 1.24178 0.67249
 H1332 H 1.17606 1.21866 0.64323
 H1333 H 1.03444 1.11665 0.62742
 H1334 H 1.00885 1.07743 0.59746
 H1335 H 1.08647 1.08536 0.53932
 H1336 H 1.11170 1.12503 0.56891
 C1337 C 0.67982 0.65863 0.17801
 C1338 C 0.70535 0.67619 0.16749
 C1339 C 0.72250 0.69649 0.18444
 C1340 C 0.71554 0.69927 0.21280
 C1341 C 0.69030 0.68100 0.22358
 C1342 C 0.67237 0.66107 0.20626
 C1343 C 0.66038 0.63966 0.15871
 N1344 N 0.62924 0.63362 0.16394
 N1345 N 0.61127 0.61907 0.14511
 C1346 C 0.62373 0.61000 0.12037
 N1347 N 0.65497 0.61560 0.11541
 N1348 N 0.67286 0.63026 0.13412
 C1349 C 0.60384 0.59428 0.09925
 C1350 C 0.61799 0.57835 0.07678
 C1351 C 0.59931 0.56162 0.05785
 C1352 C 0.56613 0.56078 0.06090
 C1353 C 0.55189 0.57820 0.08248
 C1354 C 0.57057 0.59462 0.10155
 H1355 H 0.71124 0.67551 0.14571
 H1356 H 0.74002 0.71130 0.17450
 H1357 H 0.68382 0.68270 0.24518
 H1358 H 0.65262 0.64779 0.21487
 H1359 H 0.64359 0.57785 0.07432
 H1360 H 0.61091 0.54840 0.04144
 H1361 H 0.52635 0.57802 0.08539
 H1362 H 0.55894 0.60707 0.11838
 C1363 C 1.17391 0.84497 0.32336
 C1364 C 1.16579 0.84237 0.29530
 C1365 C 1.18416 0.82329 0.27751
 C1366 C 1.21040 0.80603 0.28773
 C1367 C 1.21793 0.80899 0.31594
 C1368 C 1.20044 0.82850 0.33325
 C1369 C 1.15426 0.86266 0.34336
 N1370 N 1.16743 0.87262 0.36743
 N1371 N 1.14960 0.88531 0.38725
 C1372 C 1.11776 0.88833 0.38396
 N1373 N 1.10454 0.87888 0.35967
 N1374 N 1.12245 0.86618 0.33973
 C1375 C 1.09824 0.90213 0.40633
 C1376 C 1.06495 0.90283 0.40435
 C1377 C 1.04691 0.91856 0.42437
 C1378 C 1.06188 0.93413 0.44655
 C1379 C 1.09494 0.93157 0.44952
 C1380 C 1.11295 0.91565 0.42963
 H1381 H 1.14520 0.85480 0.28724
 H1382 H 1.17721 0.82130 0.25606
 H1383 H 1.23605 0.79470 0.32560
 H1384 H 1.20682 0.82922 0.35491
 H1385 H 1.05289 0.89215 0.38690
 H1386 H 1.02140 0.92004 0.42161
 H1387 H 1.10708 0.94323 0.46646
 H1388 H 1.13855 0.91514 0.43199
 C1389 C 0.64665 0.31725 -0.17789
 C1390 C 0.64477 0.32360 -0.20643
 C1391 C 0.66803 0.31154 -0.22464
 C1392 C 0.69357 0.29321 -0.21451
 C1393 C 0.69494 0.28730 -0.18590
 C1394 C 0.67202 0.29888 -0.16808
 C1395 C 0.62365 0.33022 -0.15758
 N1396 N 0.62779 0.32388 -0.13031
 N1397 N 0.60920 0.33708 -0.11129
 C1398 C 0.58539 0.35710 -0.11869
 N1399 N 0.58059 0.36296 -0.14602
 N1400 N 0.59937 0.34977 -0.16514
 C1401 C 0.56778 0.37484 -0.09723
 C1402 C 0.53864 0.38958 -0.10326
 C1403 C 0.52465 0.41032 -0.08420
 C1404 C 0.54000 0.41723 -0.05909
 C1405 C 0.56802 0.40089 -0.05231
 C1406 C 0.58162 0.37961 -0.07111
 H1407 H 0.62546 0.33783 -0.21464
 H1408 H 0.66595 0.31647 -0.24651
 H1409 H 0.71362 0.27319 -0.17674
 H1410 H 0.67452 0.29336 -0.14634
 H1411 H 0.52731 0.38603 -0.12310
 H1412 H 0.50298 0.42264 -0.08997
 H1413 H 0.58022 0.40575 -0.03307
 H1414 H 0.60406 0.36849 -0.06583
 C1415 C 0.82809 1.16010 0.32341
 C1416 C 0.80304 1.17855 0.33365
 C1417 C 0.78600 1.19837 0.31634
 C1418 C 0.79250 1.19980 0.28782
 C1419 C 0.81751 1.18093 0.27733
 C1420 C 0.83546 1.16145 0.29510
 C1421 C 0.84676 1.14126 0.34324
 N1422 N 0.87849 1.13669 0.33984
 N1423 N 0.89562 1.12304 0.35977
 C1424 C 0.88168 1.11361 0.38380
 N1425 N 0.84990 1.11764 0.38683
 N1426 N 0.83285 1.13132 0.36703
 C1427 C 0.90040 1.09898 0.40624
 C1428 C 0.88489 1.08447 0.42874
 C1429 C 0.90227 1.06814 0.44876
 C1430 C 0.93548 1.06615 0.44674
 C1431 C 0.95115 1.08261 0.42538
 C1432 C 0.93374 1.09872 0.40520
 H1433 H 0.79737 1.17880 0.35549
 H1434 H 0.76877 1.21375 0.32607
 H1435 H 0.82362 1.18167 0.25562
 H1436 H 0.85496 1.14750 0.28679
 H1437 H 0.85920 1.08459 0.43034
 H1438 H 0.88959 1.05576 0.46504
 H1439 H 0.97677 1.08163 0.42336
 H1440 H 0.94639 1.11018 0.38842
 C1441 C 0.35533 0.68513 -0.17853
 C1442 C 0.33041 0.70427 -0.16888
 C1443 C 0.30794 0.71633 -0.18682
 C1444 C 0.30940 0.71025 -0.21541
 C1445 C 0.33460 0.69131 -0.22540
 C1446 C 0.35738 0.67872 -0.20706
 C1447 C 0.37754 0.67131 -0.15804
 N1448 N 0.40166 0.65146 -0.16549
 N1449 N 0.41969 0.63756 -0.14625
 C1450 C 0.41425 0.64297 -0.11892
 N1451 N 0.39059 0.66325 -0.11162
 N1452 N 0.37276 0.67715 -0.13075
 C1453 C 0.43110 0.62464 -0.09744
 C1454 C 0.41652 0.61951 -0.07163
 C1455 C 0.42958 0.59795 -0.05282
 C1456 C 0.45776 0.58168 -0.05926
 C1457 C 0.47376 0.58884 -0.08405
 C1458 C 0.46033 0.60988 -0.10314
 H1459 H 0.32781 0.70988 -0.14716
 H1460 H 0.28938 0.73070 -0.17773
 H1461 H 0.33670 0.68617 -0.24724
 H1462 H 0.37635 0.66390 -0.21515
 H1463 H 0.39398 0.63064 -0.06662
 H1464 H 0.41687 0.59289 -0.03383
 H1465 H 0.49558 0.57658 -0.08957
 H1466 H 0.47221 0.61369 -0.12272
 C1467 C 0.84562 0.80149 0.67188
 C1468 C 0.82298 0.78003 0.66173
 C1469 C 0.80052 0.76666 0.67925
 C1470 C 0.79983 0.77427 0.70757
 C1471 C 0.82316 0.79510 0.71797
 C1472 C 0.84589 0.80857 0.70028
 C1473 C 0.86717 0.81775 0.65232
 N1474 N 0.89242 0.83504 0.66129
 N1475 N 0.91032 0.85130 0.64345
 C1476 C 0.90359 0.85099 0.61600
 N1477 N 0.87861 0.83338 0.60704
 N1478 N 0.86087 0.81702 0.62482
 C1479 C 0.92098 0.87184 0.59666
 C1480 C 0.90649 0.88185 0.57198
 C1481 C 0.92059 0.90543 0.55572
 C1482 C 0.94966 0.91898 0.56364
 C1483 C 0.96529 0.90728 0.58722
 C1484 C 0.95091 0.88411 0.60374
 H1485 H 0.82212 0.77393 0.64001
 H1486 H 0.78301 0.75114 0.67005
 H1487 H 0.82364 0.80141 0.73964
 H1488 H 0.86309 0.82513 0.70870
 H1489 H 0.88342 0.87274 0.56597
 H1490 H 0.90821 0.91392 0.53753
 H1491 H 0.98780 0.91728 0.59377
 H1492 H 0.96274 0.87657 0.62250
 C1493 C 0.31687 0.34062 0.17855
 C1494 C 0.29151 0.32280 0.16812
 C1495 C 0.27483 0.30205 0.18505
 C1496 C 0.28205 0.29910 0.21333
 C1497 C 0.30703 0.31770 0.22405
 C1498 C 0.32454 0.33806 0.20672
 C1499 C 0.33607 0.35979 0.15919
 N1500 N 0.36731 0.36561 0.16408
 N1501 N 0.38515 0.38011 0.14509
 C1502 C 0.37247 0.38932 0.12052
 N1503 N 0.34113 0.38399 0.11590
 N1504 N 0.32337 0.36938 0.13479
 C1505 C 0.39228 0.40483 0.09918
 C1506 C 0.37809 0.42107 0.07694
 C1507 C 0.39678 0.43761 0.05784
 C1508 C 0.43000 0.43795 0.06050
 C1509 C 0.44424 0.42017 0.08181
 C1510 C 0.42557 0.40395 0.10105
 H1511 H 0.28550 0.32356 0.14638
 H1512 H 0.25760 0.28697 0.17514
 H1513 H 0.31372 0.31589 0.24557
 H1514 H 0.34417 0.35153 0.21525
 H1515 H 0.35247 0.42197 0.07482
 H1516 H 0.38517 0.45112 0.04164
 H1517 H 0.46982 0.41994 0.08442
 H1518 H 0.43722 0.39123 0.11767
   
