data_POSCAR
  _audit_creation_date              2014-09-24
  _audit_creation_method            'ToBaCCo'
  _symmetry_space_group_name_H-M    'P1'
  _symmetry_Int_Tables_number       1
  _symmetry_cell_setting            triclinic
  loop_
  _symmetry_equiv_pos_as_xyz
 x,y,z
_cell_length_a 59.6414
_cell_length_b 59.3470
_cell_length_c 58.4157
_cell_angle_alpha 92.240700
_cell_angle_beta 92.549500
_cell_angle_gamma 92.050700
loop_
  _atom_site_label
  _atom_site_type_symbol
  _atom_site_fract_x
  _atom_site_fract_y
  _atom_site_fract_z
C1 C 0.72819 0.65588 0.96714
 H2 H 0.74437 0.65578 0.95957
 C3 C 0.71198 0.67040 0.95901
 H4 H 0.71607 0.68147 0.94539
 C5 C 0.70341 0.64188 0.99420
 H6 H 0.70005 0.63092 1.00804
 C7 C 0.68663 0.65587 0.98641
 H8 H 0.67043 0.65482 0.99402
 N9 N 0.72344 0.64146 0.98395
 C10 C 0.78906 0.61914 1.00685
 H11 H 0.78720 0.60151 1.00140
 C12 C 0.80985 0.62803 1.01538
 H13 H 0.82395 0.61708 1.01669
 C14 C 0.77279 0.65479 1.01169
 H15 H 0.75828 0.66511 1.01001
 C16 C 0.79329 0.66436 1.02056
 H17 H 0.79449 0.68214 1.02556
 Zn18 Zn 0.74425 0.61905 0.99175
 N19 N 0.77112 0.63256 1.00503
 C20 C 0.76647 0.61409 0.95111
 N21 N 0.75193 0.60314 0.96454
 C22 C 0.74417 0.58172 0.95887
 C23 C 0.75064 0.57074 0.93874
 C24 C 0.77351 0.60371 0.93100
 C25 C 0.74105 0.59809 1.03420
 C26 C 0.73035 0.58624 1.05106
 C27 C 0.69993 0.57639 1.02350
 C28 C 0.71136 0.58828 1.00718
 N29 N 0.73126 0.59935 1.01289
 H30 H 0.77310 0.63078 0.95633
 H31 H 0.73304 0.57301 0.96990
 H32 H 0.74397 0.55384 0.93436
 H33 H 0.78554 0.61263 0.92098
 H34 H 0.75676 0.60719 1.03858
 H35 H 0.73843 0.58733 1.06800
 H36 H 0.68440 0.56765 1.01771
 H37 H 0.70380 0.58952 0.99012
 C38 C 0.81218 0.65094 1.02225
 C39 C 0.69057 0.67001 0.96817
 C40 C 0.70884 0.57568 1.04637
 C41 C 0.76553 0.58175 0.92448
 C42 C 0.73289 0.36396 0.50587
 H43 H 0.74833 0.36882 0.51551
 C44 C 0.71728 0.34920 0.51511
 H45 H 0.72082 0.34289 0.53197
 C46 C 0.70906 0.36745 0.47275
 H47 H 0.70573 0.37486 0.45642
 C48 C 0.69303 0.35267 0.48128
 H49 H 0.67770 0.34856 0.47113
 N50 N 0.72852 0.37280 0.48509
 C51 C 0.79062 0.39340 0.45437
 H52 H 0.78679 0.41054 0.45043
 C53 C 0.81041 0.38422 0.44707
 H54 H 0.82190 0.39446 0.43764
 C55 C 0.78018 0.35920 0.47143
 H56 H 0.76821 0.34942 0.48065
 C57 C 0.79992 0.34942 0.46465
 H58 H 0.80295 0.33210 0.46865
 Zn59 Zn 0.74929 0.39454 0.47475
 N60 N 0.77601 0.38087 0.46633
 C61 C 0.77731 0.42133 0.50617
 N62 N 0.75565 0.41605 0.49915
 C63 C 0.73822 0.42401 0.51092
 C64 C 0.74229 0.43721 0.53113
 C65 C 0.78212 0.43466 0.52609
 C66 C 0.73571 0.39553 0.42864
 C67 C 0.72665 0.40433 0.40862
 C68 C 0.72054 0.43909 0.42999
 C69 C 0.72987 0.42966 0.44960
 N70 N 0.73696 0.40814 0.44862
 H71 H 0.79094 0.41454 0.49686
 H72 H 0.72116 0.41930 0.50513
 H73 H 0.72826 0.44284 0.54071
 H74 H 0.79948 0.43790 0.53190
 H75 H 0.74172 0.37854 0.42833
 H76 H 0.72600 0.39403 0.39288
 H77 H 0.71441 0.45603 0.43125
 H78 H 0.73119 0.43943 0.46564
 C79 C 0.81524 0.36196 0.45221
 C80 C 0.69691 0.34351 0.50285
 C81 C 0.71871 0.42633 0.40914
 C82 C 0.76450 0.44233 0.53913
 C83 C 0.22802 -0.15176 0.01310
 H84 H 0.24481 -0.15016 0.02094
 C85 C 0.21130 -0.16408 0.02364
 H86 H 0.21551 -0.17231 0.03939
 C87 C 0.20216 -0.14242 -0.01671
 H88 H 0.19851 -0.13338 -0.03205
 C89 C 0.18488 -0.15447 -0.00668
 H90 H 0.16807 -0.15455 -0.01449
 N91 N 0.22320 -0.14118 -0.00664
 C92 C 0.28855 -0.12708 -0.03469
 H93 H 0.28770 -0.10907 -0.03663
 C94 C 0.30746 -0.13834 -0.04142
 H95 H 0.32111 -0.12890 -0.04867
 C96 C 0.27135 -0.16135 -0.02366
 H97 H 0.25711 -0.17031 -0.01705
 C98 C 0.28988 -0.17332 -0.03033
 H99 H 0.28988 -0.19139 -0.02840
 Zn100 Zn 0.24596 -0.12205 -0.01763
 N101 N 0.27112 -0.13861 -0.02574
 C102 C 0.27526 -0.09796 0.01532
 N103 N 0.25380 -0.10061 0.00648
 C104 C 0.23669 -0.08978 0.01627
 C105 C 0.24075 -0.07611 0.03612
 C106 C 0.28011 -0.08419 0.03497
 C107 C 0.23032 -0.12133 -0.06312
 C108 C 0.22251 -0.11214 -0.08345
 C109 C 0.22567 -0.07522 -0.06447
 C110 C 0.23340 -0.08523 -0.04451
 N111 N 0.23533 -0.10791 -0.04414
 H112 H 0.28855 -0.10714 0.00774
 H113 H 0.21973 -0.09248 0.00909
 H114 H 0.22687 -0.06807 0.04406
 H115 H 0.29716 -0.08288 0.04223
 H116 H 0.23255 -0.13931 -0.06246
 H117 H 0.21979 -0.12371 -0.09811
 H118 H 0.22340 -0.05726 -0.06318
 H119 H 0.23767 -0.07482 -0.02923
 C120 C 0.30827 -0.16178 -0.03928
 C121 C 0.18927 -0.16522 0.01397
 C122 C 0.21977 -0.08856 -0.08470
 C123 C 0.26266 -0.07345 0.04586
 C124 C 0.23441 0.16627 0.47566
 H125 H 0.25099 0.16681 0.46885
 C126 C 0.21778 0.17985 0.46667
 H127 H 0.22191 0.19119 0.45328
 C128 C 0.20885 0.15033 0.50098
 H129 H 0.20519 0.13824 0.51377
 C130 C 0.19171 0.16347 0.49238
 H131 H 0.17506 0.16129 0.49881
 N132 N 0.22968 0.15184 0.49246
 C133 C 0.29527 0.13199 0.51893
 H134 H 0.29189 0.11394 0.51800
 C135 C 0.31651 0.14063 0.52620
 H136 H 0.32944 0.12914 0.53104
 C137 C 0.28237 0.16885 0.51370
 H138 H 0.26897 0.17973 0.50881
 C139 C 0.30342 0.17828 0.52120
 H140 H 0.30620 0.19643 0.52180
 Zn141 Zn 0.25165 0.13127 0.50137
 N142 N 0.27889 0.14604 0.51233
 C143 C 0.27718 0.11600 0.46501
 N144 N 0.25713 0.11314 0.47493
 C145 C 0.24048 0.09932 0.46493
 C146 C 0.24386 0.08746 0.44425
 C147 C 0.28119 0.10466 0.44436
 C148 C 0.23831 0.12649 0.54537
 C149 C 0.23171 0.11596 0.56498
 C150 C 0.23207 0.07998 0.54419
 C151 C 0.23871 0.09128 0.52484
 N152 N 0.24155 0.11416 0.52580
 H153 H 0.28995 0.12763 0.47267
 H154 H 0.22445 0.09784 0.47281
 H155 H 0.23040 0.07671 0.43634
 H156 H 0.29730 0.10718 0.43680
 H157 H 0.24090 0.14464 0.54568
 H158 H 0.22885 0.12624 0.58022
 H159 H 0.23009 0.06176 0.54329
 H160 H 0.24187 0.08175 0.50925
 C161 C 0.32088 0.16403 0.52714
 C162 C 0.19595 0.17831 0.47478
 C163 C 0.22862 0.09239 0.56465
 C164 C 0.26437 0.09031 0.43362
 C165 C 0.17026 0.48610 0.21967
 H166 H 0.17954 0.49257 0.23493
 C167 C 0.18178 0.47590 0.20189
 H168 H 0.19978 0.47425 0.20388
 C169 C 0.13574 0.48036 0.19827
 H170 H 0.11791 0.48272 0.19660
 C171 C 0.14651 0.46998 0.18023
 H172 H 0.13673 0.46417 0.16493
 N173 N 0.14750 0.48752 0.21784
 C174 C 0.14394 0.53289 0.27509
 H175 H 0.13083 0.54209 0.26676
 C176 C 0.15502 0.54239 0.29485
 H177 H 0.15010 0.55874 0.30132
 C178 C 0.16476 0.49981 0.27789
 H179 H 0.16795 0.48288 0.27164
 C180 C 0.17641 0.50878 0.29770
 H181 H 0.18897 0.49884 0.30610
 Zn182 Zn 0.13022 0.49902 0.24202
 N183 N 0.14872 0.51185 0.26709
 C184 C 0.11541 0.46806 0.27434
 N185 N 0.11179 0.47496 0.25258
 C186 C 0.09638 0.46388 0.23791
 C187 C 0.08501 0.44432 0.24445
 C188 C 0.10453 0.44856 0.28153
 C189 C 0.12412 0.53786 0.21850
 C190 C 0.11372 0.55727 0.21162
 C191 C 0.07956 0.54372 0.22810
 C192 C 0.09068 0.52444 0.23473
 N193 N 0.11269 0.52216 0.23018
 H194 H 0.12712 0.47730 0.28610
 H195 H 0.09310 0.46992 0.22096
 H196 H 0.07341 0.43530 0.23226
 H197 H 0.10798 0.44316 0.29879
 H198 H 0.14163 0.53563 0.21524
 H199 H 0.12326 0.56972 0.20263
 H200 H 0.06230 0.54579 0.23256
 H201 H 0.08205 0.51183 0.24431
 C202 C 0.17135 0.53026 0.30664
 C203 C 0.16976 0.46721 0.18209
 C204 C 0.09132 0.56068 0.21689
 C205 C 0.08951 0.43612 0.26633
 C206 C -0.13074 0.02175 0.24005
 H207 H -0.12337 0.03368 0.25293
 C208 C -0.14322 0.02957 0.22141
 H209 H -0.14420 0.04763 0.22026
 C210 C -0.13682 -0.01598 0.22607
 H211 H -0.13431 -0.03375 0.22804
 C212 C -0.14952 -0.00895 0.20715
 H213 H -0.15707 -0.02187 0.19543
 N214 N -0.12741 -0.00063 0.24182
 C215 C -0.11591 -0.03249 0.30679
 H216 H -0.09826 -0.03587 0.30589
 C217 C -0.12770 -0.03933 0.32554
 H218 H -0.11908 -0.04828 0.33891
 C219 C -0.14851 -0.01666 0.29035
 H220 H -0.15642 -0.00757 0.27668
 C221 C -0.16103 -0.02339 0.30875
 H222 H -0.17858 -0.01938 0.30917
 Zn223 Zn -0.10856 -0.01063 0.26607
 N224 N -0.12630 -0.02104 0.28988
 C225 C -0.08887 0.01903 0.30081
 N226 N -0.08932 0.01390 0.27790
 C227 C -0.07819 0.02734 0.26343
 C228 C -0.06720 0.04749 0.27175
 C229 C -0.07783 0.03866 0.30985
 C230 C -0.10189 -0.05603 0.25583
 C231 C -0.09119 -0.07493 0.24746
 C232 C -0.06035 -0.05049 0.23705
 C233 C -0.07161 -0.03200 0.24583
 N234 N -0.09204 -0.03508 0.25492
 H235 H -0.09776 0.00840 0.31218
 H236 H -0.07898 0.02315 0.24522
 H237 H -0.05961 0.05861 0.25980
 H238 H -0.07801 0.04238 0.32813
 H239 H -0.11823 -0.05807 0.26294
 H240 H -0.09929 -0.09142 0.24869
 H241 H -0.04434 -0.04765 0.22940
 H242 H -0.06414 -0.01520 0.24512
 C243 C -0.15050 -0.03458 0.32681
 C244 C -0.15274 0.01427 0.20417
 C245 C -0.07021 -0.07234 0.23769
 C246 C -0.06754 0.05368 0.29521
 C247 C 0.37111 0.50807 0.72791
 H248 H 0.37163 0.51719 0.74434
 C249 C 0.35775 0.51546 0.70968
 H250 H 0.34818 0.53045 0.71221
 C251 C 0.38386 0.47808 0.70452
 H252 H 0.39433 0.46375 0.70243
 C253 C 0.37066 0.48482 0.68584
 H254 H 0.37080 0.47523 0.66971
 N255 N 0.38369 0.48960 0.72511
 C256 C 0.39447 0.46423 0.79361
 H257 H 0.41261 0.46391 0.79475
 C258 C 0.38203 0.45669 0.81167
 H259 H 0.39072 0.45045 0.82667
 C260 C 0.36113 0.47207 0.77226
 H261 H 0.35302 0.47781 0.75678
 C262 C 0.34803 0.46458 0.78988
 H263 H 0.32991 0.46501 0.78790
 Zn264 Zn 0.40198 0.48154 0.75065
 N265 N 0.38393 0.47199 0.77453
 C266 C 0.41987 0.51603 0.78224
 N267 N 0.41982 0.50751 0.76027
 C268 C 0.43104 0.51841 0.74394
 C269 C 0.44247 0.53903 0.74931
 C270 C 0.43140 0.53639 0.78844
 C271 C 0.40962 0.43730 0.73604
 C272 C 0.42202 0.41876 0.72969
 C273 C 0.45606 0.44145 0.73805
 C274 C 0.44296 0.45966 0.74398
 N275 N 0.42018 0.45734 0.74257
 H276 H 0.41045 0.50746 0.79486
 H277 H 0.43049 0.51140 0.72654
 H278 H 0.45087 0.54781 0.73602
 H279 H 0.43077 0.54326 0.80584
 H280 H 0.39147 0.43585 0.73542
 H281 H 0.41316 0.40327 0.72372
 H282 H 0.47417 0.44361 0.73946
 H283 H 0.45102 0.47559 0.74977
 C284 C 0.35848 0.45683 0.80994
 C285 C 0.35738 0.50379 0.68826
 C286 C 0.44561 0.42068 0.73053
 C287 C 0.44254 0.54832 0.77177
 C288 C 0.66736 0.96800 0.73376
 H289 H 0.66510 0.95804 0.74859
 C290 C 0.68092 0.96018 0.71648
 H291 H 0.68911 0.94432 0.71837
 C292 C 0.65920 1.00042 0.71301
 H293 H 0.65061 1.01605 0.71159
 C294 C 0.67262 0.99324 0.69534
 H295 H 0.67380 1.00327 0.68032
 N296 N 0.65617 0.98742 0.73139
 C297 C 0.63394 1.00637 0.79909
 H298 H 0.61650 1.00072 0.79681
 C299 C 0.64266 1.01354 0.82081
 H300 H 0.63131 1.01382 0.83474
 C301 C 0.66905 1.01353 0.78296
 H302 H 0.67927 1.01318 0.76812
 C303 C 0.67841 1.02135 0.80433
 H304 H 0.69604 1.02641 0.80546
 Zn305 Zn 0.63387 0.99509 0.75244
 N306 N 0.64718 1.00629 0.78078
 C307 C 0.62597 0.95399 0.77279
 N308 N 0.61637 0.96872 0.75840
 C309 C 0.59500 0.96493 0.74957
 C310 C 0.58268 0.94545 0.75473
 C311 C 0.61422 0.93444 0.77855
 C312 C 0.61456 1.03803 0.75030
 C313 C 0.60324 1.05532 0.73970
 C314 C 0.59374 1.02966 0.70733
 C315 C 0.60534 1.01294 0.71847
 N316 N 0.61566 1.01741 0.73947
 H317 H 0.64266 0.95769 0.78029
 H318 H 0.58736 0.97696 0.73859
 H319 H 0.56585 0.94260 0.74723
 H320 H 0.62209 0.92330 0.79048
 H321 H 0.62312 1.04137 0.76684
 H322 H 0.60337 1.07186 0.74821
 H323 H 0.58585 1.02575 0.69053
 H324 H 0.60680 0.99656 0.70999
 C325 C 0.66529 1.02127 0.82391
 C326 C 0.68313 0.97250 0.69660
 C327 C 0.59297 1.05136 0.71771
 C328 C 0.59227 0.92987 0.76944
 C329 C 0.02046 0.23396 -0.12965
 H330 H 0.03224 0.24352 -0.11817
 C331 C 0.02821 0.21665 -0.14366
 H332 H 0.04596 0.21336 -0.14277
 C333 C -0.01650 0.22762 -0.14563
 H334 H -0.03391 0.23215 -0.14644
 C335 C -0.00954 0.20978 -0.15964
 H336 H -0.02190 0.20044 -0.17073
 N337 N -0.00168 0.23876 -0.13038
 C338 C -0.02859 0.30507 -0.11498
 H339 H -0.02898 0.30553 -0.09654
 C340 C -0.03486 0.32399 -0.12684
 H341 H -0.04064 0.33854 -0.11736
 C342 C -0.02003 0.28597 -0.14967
 H343 H -0.01376 0.27137 -0.15854
 C344 C -0.02623 0.30450 -0.16223
 H345 H -0.02472 0.30386 -0.18064
 Zn346 Zn -0.01148 0.26158 -0.10956
 N347 N -0.02134 0.28651 -0.12645
 C348 C 0.02369 0.29156 -0.09216
 N349 N 0.01318 0.27116 -0.08956
 C350 C 0.02123 0.25651 -0.07414
 C351 C 0.04116 0.26179 -0.06123
 C352 C 0.04349 0.29762 -0.07944
 C353 C -0.04307 0.26311 -0.07464
 C354 C -0.06122 0.25560 -0.06223
 C355 C -0.06206 0.22053 -0.08452
 C356 C -0.04376 0.22866 -0.09620
 N357 N -0.03512 0.24995 -0.09179
 H358 H 0.01731 0.30278 -0.10481
 H359 H 0.01262 0.24033 -0.07255
 H360 H 0.04769 0.24971 -0.04947
 H361 H 0.05208 0.31355 -0.08242
 H362 H -0.03540 0.27961 -0.07055
 H363 H -0.06744 0.26742 -0.04973
 H364 H -0.06758 0.20322 -0.08846
 H365 H -0.03645 0.21767 -0.10869
 C366 C -0.03365 0.32389 -0.15078
 C367 C 0.01307 0.20378 -0.15847
 C368 C -0.07174 0.23408 -0.06736
 C369 C 0.05271 0.28246 -0.06409
 C370 C 0.47244 0.22184 0.16513
 H371 H 0.46322 0.23711 0.16406
 C372 C 0.46436 0.20435 0.17816
 H373 H 0.44901 0.20645 0.18710
 C374 C 0.50350 0.20052 0.15476
 H375 H 0.51869 0.19900 0.14554
 C376 C 0.49602 0.18258 0.16762
 H377 H 0.50539 0.16729 0.16780
 N378 N 0.49134 0.21942 0.15320
 C379 C 0.50868 0.28822 0.13588
 H380 H 0.50577 0.28641 0.11748
 C381 C 0.51494 0.30924 0.14604
 H382 H 0.51659 0.32365 0.13534
 C383 C 0.50990 0.27148 0.17209
 H384 H 0.50811 0.25660 0.18206
 C385 C 0.51613 0.29232 0.18303
 H386 H 0.51923 0.29336 0.20145
 Zn387 Zn 0.49920 0.24218 0.13265
 N388 N 0.50659 0.26984 0.14889
 C389 C 0.45813 0.26057 0.12262
 N390 N 0.47368 0.24732 0.11316
 C391 C 0.47084 0.23900 0.09114
 C392 C 0.45151 0.24368 0.07792
 C393 C 0.43876 0.26577 0.11006
 C394 C 0.54368 0.24670 0.11891
 C395 C 0.56338 0.24033 0.10894
 C396 C 0.54356 0.20706 0.09229
 C397 C 0.52408 0.21414 0.10258
 N398 N 0.52453 0.23356 0.11586
 H399 H 0.46095 0.26752 0.13993
 H400 H 0.48346 0.22874 0.08375
 H401 H 0.44938 0.23667 0.06054
 H402 H 0.42700 0.27684 0.11791
 H403 H 0.54404 0.26187 0.12972
 H404 H 0.57842 0.25100 0.11187
 H405 H 0.54313 0.19114 0.08254
 H406 H 0.50887 0.20362 0.10076
 C407 C 0.51903 0.31146 0.16988
 C408 C 0.47587 0.18415 0.17904
 C409 C 0.56367 0.22004 0.09584
 C410 C 0.43511 0.25722 0.08741
 C411 C 0.97073 0.73303 0.65659
 H412 H 0.96349 0.74949 0.65663
 C413 C 0.96087 0.71576 0.66876
 H414 H 0.94622 0.71916 0.67846
 C415 C 0.99810 0.70839 0.64314
 H416 H 1.01210 0.70531 0.63250
 C417 C 0.98886 0.69069 0.65514
 H418 H 0.99597 0.67419 0.65362
 N419 N 0.98886 0.72902 0.64393
 C420 C 1.01722 0.79539 0.62921
 H421 H 1.01707 0.79331 0.61072
 C422 C 1.02502 0.81573 0.63993
 H423 H 1.03107 0.82923 0.62961
 C424 C 1.00976 0.78006 0.66508
 H425 H 1.00384 0.76605 0.67475
 C426 C 1.01775 0.80009 0.67658
 H427 H 1.01776 0.80148 0.69512
 Zn428 Zn 0.99884 0.75195 0.62470
 N429 N 1.00943 0.77823 0.64178
 C430 C 0.96454 0.77950 0.60893
 N431 N 0.97373 0.75904 0.60562
 C432 C 0.96366 0.74296 0.59098
 C433 C 0.94351 0.74723 0.57898
 C434 C 0.94444 0.78439 0.59747
 C435 C 1.04215 0.73849 0.62102
 C436 C 1.06158 0.73155 0.61091
 C437 C 1.04212 0.73221 0.57379
 C438 C 1.02293 0.73919 0.58468
 N439 N 1.02329 0.74198 0.60794
 H440 H 0.97227 0.79183 0.62116
 H441 H 0.97094 0.72659 0.58913
 H442 H 0.93542 0.73413 0.56776
 H443 H 0.93735 0.80072 0.60053
 H444 H 1.04199 0.74101 0.63945
 H445 H 1.07621 0.72842 0.62181
 H446 H 1.04168 0.73016 0.55527
 H447 H 1.00789 0.74251 0.57456
 C448 C 1.02526 0.81830 0.66390
 C449 C 0.96974 0.69414 0.66784
 C450 C 1.06182 0.72837 0.58699
 C451 C 0.93349 0.76806 0.58253
 C452 C 0.50305 0.73931 0.35804
 H453 H 0.51010 0.75639 0.35937
 C454 C 0.51218 0.72336 0.34334
 H455 H 0.52597 0.72850 0.33304
 C456 C 0.47669 0.71199 0.37020
 H457 H 0.46335 0.70742 0.38122
 C458 C 0.48546 0.69543 0.35588
 H459 H 0.47865 0.67829 0.35609
 N460 N 0.48552 0.73348 0.37097
 C461 C 0.45853 0.79874 0.38987
 H462 H 0.45789 0.79724 0.40823
 C463 C 0.45173 0.81846 0.37978
 H464 H 0.44528 0.83148 0.39085
 C465 C 0.46646 0.78248 0.35368
 H466 H 0.47206 0.76837 0.34350
 C467 C 0.45981 0.80185 0.34282
 H468 H 0.46146 0.80220 0.32449
 Zn469 Zn 0.47591 0.75572 0.39211
 N470 N 0.46613 0.78143 0.37684
 C471 C 0.51003 0.78477 0.41426
 N472 N 0.50111 0.76334 0.41206
 C473 C 0.51131 0.74600 0.42234
 C474 C 0.53160 0.74977 0.43498
 C475 C 0.53018 0.78934 0.42697
 C476 C 0.43281 0.73662 0.39657
 C477 C 0.41470 0.72745 0.40787
 C478 C 0.43530 0.73564 0.44395
 C479 C 0.45318 0.74427 0.43192
 N480 N 0.45175 0.74431 0.40863
 H481 H 0.50204 0.79824 0.40550
 H482 H 0.50399 0.72907 0.42005
 H483 H 0.53977 0.73570 0.44262
 H484 H 0.53744 0.80636 0.42791
 H485 H 0.43202 0.73715 0.37806
 H486 H 0.40024 0.72056 0.39776
 H487 H 0.43675 0.73608 0.46250
 H488 H 0.46816 0.75105 0.44120
 C489 C 0.45242 0.82055 0.35579
 C490 C 0.50358 0.70097 0.34230
 C491 C 0.41579 0.72672 0.43193
 C492 C 0.54142 0.77163 0.43713
 C493 C 0.37330 -0.02240 0.25636
 C494 C 0.35778 -0.02720 0.23484
 C495 C 0.34626 -0.00913 0.22804
 C496 C 0.35077 0.01219 0.24349
 C497 C 0.38806 -0.00180 0.25062
 C498 C 0.37644 0.01644 0.24387
 C499 C 0.35743 -0.01338 0.27424
 C500 C 0.34582 0.00478 0.26773
 H501 H 0.35579 -0.04323 0.22546
 H502 H 0.34051 0.02643 0.23818
 H503 H 0.40619 -0.00227 0.25099
 H504 H 0.35617 -0.02033 0.29102
 C505 C 0.10249 1.04121 0.75426
 C506 C 0.11818 1.04665 0.73504
 C507 C 0.12981 1.02885 0.72723
 C508 C 0.12484 1.00692 0.73948
 C509 C 0.08749 1.02111 0.74446
 C510 C 0.09911 1.00314 0.73659
 C511 C 0.11752 1.03085 0.77270
 C512 C 0.12947 1.01325 0.76509
 H513 H 0.11925 1.06308 0.72762
 H514 H 0.13481 0.99272 0.73317
 H515 H 0.06942 1.02037 0.74501
 H516 H 0.11837 1.03685 0.79049
 C517 C 0.58563 0.54014 0.24491
 C518 C 0.59835 0.54581 0.22349
 C519 C 0.61275 0.52983 0.21676
 C520 C 0.61307 0.50934 0.23199
 C521 C 0.57402 0.51690 0.23866
 C522 C 0.58842 0.50085 0.23183
 C523 C 0.60394 0.53510 0.26306
 C524 C 0.61821 0.51902 0.25645
 H525 H 0.59600 0.56118 0.21442
 H526 H 0.62487 0.49633 0.22659
 H527 H 0.55611 0.51347 0.23815
 H528 H 0.60436 0.54243 0.28036
 C529 C 0.88594 0.47857 0.74598
 C530 C 0.87013 0.47547 0.72449
 C531 C 0.85863 0.49411 0.71940
 C532 C 0.86398 0.51443 0.73605
 C533 C 0.90106 0.49916 0.74101
 C534 C 0.88974 0.51814 0.73599
 C535 C 0.87096 0.48696 0.76487
 C536 C 0.85944 0.50563 0.75986
 H537 H 0.86929 0.46077 0.71295
 H538 H 0.85402 0.52923 0.73185
 H539 H 0.91912 0.49825 0.74061
 H540 H 0.87029 0.47907 0.78125
 C541 C 0.26901 0.38190 -0.02342
 C542 C 0.24646 0.36894 -0.02867
 C543 C 0.23941 0.35658 -0.01110
 C544 C 0.25524 0.35834 0.01035
 C545 C 0.26491 0.39612 -0.00151
 C546 C 0.25771 0.38386 0.01623
 C547 C 0.28527 0.36410 -0.01566
 C548 C 0.27830 0.35174 0.00199
 H549 H 0.23552 0.37157 -0.04353
 H550 H 0.24923 0.34800 0.02442
 H551 H 0.26585 0.41439 -0.00081
 H552 H 0.30165 0.36256 -0.02274
 C553 C 0.76213 0.10945 1.04212
 C554 C 0.74218 0.12357 1.04846
 C555 C 0.73414 0.13645 1.03146
 C556 C 0.74676 0.13395 1.00918
 C557 C 0.75346 0.09561 1.02034
 C558 C 0.74524 0.10839 1.00304
 C559 C 0.77945 0.12637 1.03349
 C560 C 0.77163 0.13909 1.01630
 H561 H 0.73428 0.12239 1.06474
 H562 H 0.74029 0.14500 0.99573
 H563 H 0.75401 0.07751 1.01849
 H564 H 0.79695 0.12702 1.03943
 C565 C 0.24761 0.59717 0.54091
 C566 C 0.22788 0.61234 0.54577
 C567 C 0.22130 0.62480 0.52781
 C568 C 0.23497 0.62110 0.50640
 C569 C 0.23965 0.58309 0.51928
 C570 C 0.23330 0.59542 0.50096
 C571 C 0.26594 0.61340 0.53284
 C572 C 0.25955 0.62588 0.51478
 H573 H 0.21902 0.61292 0.56147
 H574 H 0.22959 0.63183 0.49226
 H575 H 0.23905 0.56484 0.51887
 H576 H 0.28293 0.61395 0.54024
 C577 C 0.75075 0.87746 0.48000
 C578 C 0.72951 0.86212 0.47596
 C579 C 0.72459 0.84948 0.49405
 C580 C 0.74114 0.85322 0.51481
 C581 C 0.74624 0.89144 0.50199
 C582 C 0.74127 0.87886 0.52038
 C583 C 0.76917 0.86156 0.48727
 C584 C 0.76437 0.84897 0.50548
 H585 H 0.71764 0.86299 0.46153
 H586 H 0.73715 0.84225 0.52909
 H587 H 0.74592 0.90966 0.50236
 H588 H 0.78531 0.86144 0.47946
 C589 C -0.01330 0.27341 0.39299
 C590 C -0.02014 0.25068 0.38107
 C591 C -0.00352 0.24062 0.36969
 C592 C 0.01875 0.25459 0.37094
 C593 C 0.00755 0.26860 0.40829
 C594 C 0.02431 0.25843 0.39692
 C595 C -0.00386 0.28766 0.37417
 C596 C 0.01268 0.27796 0.36245
 H597 H -0.03686 0.24311 0.38196
 H598 H 0.03201 0.24651 0.36118
 H599 H 0.00944 0.27368 0.42622
 H600 H -0.00896 0.30471 0.37135
 C601 C 1.02551 0.75340 0.10451
 C602 C 1.03305 0.73480 0.12020
 C603 C 1.01737 0.72773 0.13478
 C604 C 0.99522 0.74004 0.13247
 C605 C 1.00358 0.74371 0.09238
 C606 C 0.98774 0.73643 0.10691
 C607 C 1.01773 0.77211 0.12073
 C608 C 1.00210 0.76534 0.13550
 H609 H 1.04909 0.72695 0.11882
 H610 H 0.98282 0.73433 0.14480
 H611 H 1.00023 0.74357 0.07410
 H612 H 1.02352 0.78955 0.11981
 C613 C 0.54352 0.24985 0.59869
 C614 C 0.54984 0.22862 0.61131
 C615 C 0.53442 0.22154 0.62620
 C616 C 0.51380 0.23633 0.62712
 C617 C 0.52042 0.24338 0.58719
 C618 C 0.50480 0.23648 0.60199
 C619 C 0.53875 0.26732 0.61762
 C620 C 0.52330 0.26055 0.63273
 H621 H 0.56459 0.21920 0.60790
 H622 H 0.50125 0.22990 0.63891
 H623 H 0.51684 0.24384 0.56888
 H624 H 0.54608 0.28425 0.61770
 C625 C 0.47853 0.75904 0.88688
 C626 C 0.47423 0.73759 0.87146
 C627 C 0.49237 0.73106 0.85998
 C628 C 0.51342 0.74639 0.86495
 C629 C 0.49873 0.75340 0.90260
 C630 C 0.51711 0.74666 0.89131
 C631 C 0.48781 0.77665 0.87105
 C632 C 0.50596 0.77026 0.85944
 H633 H 0.45923 0.72682 0.87148
 H634 H 0.52772 0.74067 0.85506
 H635 H 0.49822 0.75461 0.92108
 H636 H 0.48091 0.79323 0.86997
 C637 C 0.44646 -0.13836 0.35756
 C638 C 0.43977 -0.11874 0.34714
 C639 C 0.43234 -0.11939 0.32413
 C640 C 0.43185 -0.13997 0.31144
 C641 C 0.43852 -0.15964 0.32175
 C642 C 0.44588 -0.15936 0.34514
 N643 N 0.42461 -0.09917 0.31429
 N644 N 0.41766 -0.09873 0.29341
 C645 C 0.40892 -0.07890 0.28368
 C646 C 0.40016 -0.08027 0.26108
 C647 C 0.38945 -0.06199 0.25169
 C648 C 0.38698 -0.04192 0.26495
 C649 C 0.39743 -0.04012 0.28712
 C650 C 0.40803 -0.05849 0.29651
 H651 H 0.45277 -0.13663 0.37520
 H652 H 0.44034 -0.10292 0.35709
 H653 H 0.42592 -0.14096 0.29363
 H654 H 0.43680 -0.17514 0.31138
 H655 H 0.40119 -0.09579 0.25085
 H656 H 0.38317 -0.06396 0.23411
 H657 H 0.39675 -0.02466 0.29750
 H658 H 0.41507 -0.05686 0.31392
 C659 C 0.96635 0.36582 0.84499
 C660 C 0.95994 0.38473 0.83313
 C661 C 0.94711 0.38217 0.81250
 C662 C 0.94103 0.36035 0.80358
 C663 C 0.94749 0.34142 0.81538
 C664 C 0.96005 0.34395 0.83632
 N665 N 0.93974 0.40191 0.80147
 N666 N 0.92707 0.40066 0.78333
 C667 C 0.91879 0.42025 0.77272
 C668 C 0.90287 0.41734 0.75450
 C669 C 0.89270 0.43593 0.74513
 C670 C 0.89865 0.45806 0.75354
 C671 C 0.91519 0.46083 0.77153
 C672 C 0.92517 0.44217 0.78102
 H673 H 0.97630 0.36830 0.86091
 H674 H 0.96474 0.40145 0.84017
 H675 H 0.93105 0.35792 0.78769
 H676 H 0.94223 0.32480 0.80838
 H677 H 0.89765 0.40050 0.74813
 H678 H 0.87958 0.43251 0.73204
 H679 H 0.91983 0.47751 0.77880
 H680 H 0.93741 0.44486 0.79520
 C681 C 0.01111 1.17758 0.80620
 C682 C 0.01866 1.15885 0.79380
 C683 C 0.03630 1.14646 0.80276
 C684 C 0.04592 1.15260 0.82458
 C685 C 0.03815 1.17095 0.83714
 C686 C 0.02085 1.18393 0.82804
 N687 N 0.04435 1.12774 0.78967
 N688 N 0.06382 1.12053 0.79417
 C689 C 0.07272 1.10140 0.78258
 C690 C 0.09568 1.09804 0.78540
 C691 C 0.10498 1.07897 0.77561
 C692 C 0.09138 1.06228 0.76337
 C693 C 0.06828 1.06611 0.75992
 C694 C 0.05903 1.08555 0.76945
 H695 H -0.00207 1.18724 0.79850
 H696 H 0.01106 1.15427 0.77701
 H697 H 0.05931 1.14303 0.83207
 H698 H 0.04560 1.17475 0.85414
 H699 H 0.10642 1.11024 0.79535
 H700 H 0.12291 1.07698 0.77802
 H701 H 0.05721 1.05438 0.74991
 H702 H 0.04119 1.08796 0.76697
 C703 C 0.53758 0.68371 0.32608
 C704 C 0.54769 0.66671 0.31349
 C705 C 0.53472 0.64889 0.30284
 C706 C 0.51128 0.64843 0.30447
 C707 C 0.50108 0.66556 0.31692
 C708 C 0.51414 0.68331 0.32807
 N709 N 0.54593 0.63123 0.29114
 N710 N 0.53577 0.61328 0.28294
 C711 C 0.54772 0.59568 0.27192
 C712 C 0.53655 0.57502 0.26593
 C713 C 0.54823 0.55699 0.25672
 C714 C 0.57141 0.55944 0.25315
 C715 C 0.58229 0.58055 0.25859
 C716 C 0.57066 0.59842 0.26790
 H717 H 0.54822 0.69683 0.33476
 H718 H 0.56578 0.66716 0.31243
 H719 H 0.50090 0.63484 0.29626
 H720 H 0.48298 0.66490 0.31780
 H721 H 0.51885 0.57271 0.26897
 H722 H 0.53894 0.54127 0.25303
 H723 H 0.60009 0.58303 0.25612
 H724 H 0.57971 0.61425 0.27229
 C725 C 0.51782 0.34183 0.20104
 C726 C 0.52457 0.36323 0.21038
 C727 C 0.54045 0.37659 0.19958
 C728 C 0.54976 0.36817 0.17944
 C729 C 0.54298 0.34691 0.17007
 C730 C 0.52678 0.33359 0.18063
 N731 N 0.54660 0.39873 0.20901
 N732 N 0.56128 0.41115 0.19988
 C733 C 0.56768 0.43349 0.20842
 C734 C 0.58478 0.44526 0.19777
 C735 C 0.59145 0.46715 0.20539
 C736 C 0.58101 0.47772 0.22379
 C737 C 0.56371 0.46595 0.23442
 C738 C 0.55712 0.44393 0.22685
 H739 H 0.50522 0.33197 0.20946
 H740 H 0.51726 0.36951 0.22591
 H741 H 0.56214 0.37809 0.17079
 H742 H 0.55045 0.34086 0.15454
 H743 H 0.59292 0.43742 0.18346
 H744 H 0.60454 0.47593 0.19660
 H745 H 0.55553 0.47363 0.24878
 H746 H 0.54382 0.43514 0.23531
 C747 C 0.04912 0.83999 0.69424
 C748 C 0.05815 0.86041 0.70401
 C749 C 0.05160 0.88098 0.69538
 C750 C 0.03565 0.88094 0.67695
 C751 C 0.02683 0.86054 0.66699
 C752 C 0.03362 0.83987 0.67541
 N753 N 0.06201 0.90153 0.70503
 N754 N 0.05527 0.92087 0.69983
 C755 C 0.06643 0.94127 0.70898
 C756 C 0.05612 0.96187 0.70633
 C757 C 0.06667 0.98199 0.71522
 C758 C 0.08793 0.98186 0.72673
 C759 C 0.09842 0.96114 0.72872
 C760 C 0.08773 0.94105 0.72016
 H761 H 0.05477 0.82429 0.70092
 H762 H 0.07048 0.86023 0.71817
 H763 H 0.03035 0.89662 0.66996
 H764 H 0.01475 0.86090 0.65261
 H765 H 0.03981 0.96231 0.69747
 H766 H 0.05827 0.99764 0.71279
 H767 H 0.11479 0.96020 0.73707
 H768 H 0.09622 0.92537 0.72214
 C769 C 0.93476 0.67213 0.67674
 C770 C 0.92399 0.65311 0.68523
 C771 C 0.93644 0.63661 0.69587
 C772 C 0.95992 0.63952 0.69835
 C773 C 0.97075 0.65850 0.68976
 C774 C 0.95829 0.67491 0.67864
 N775 N 0.92488 0.61668 0.70301
 N776 N 0.93483 0.60122 0.71350
 C777 C 0.92308 0.58100 0.71967
 C778 C 0.93443 0.56536 0.73270
 C779 C 0.92361 0.54513 0.73828
 C780 C 0.90118 0.53999 0.73065
 C781 C 0.88981 0.55599 0.71778
 C782 C 0.90061 0.57625 0.71237
 H783 H 0.92471 0.68427 0.66797
 H784 H 0.90589 0.65100 0.68312
 H785 H 0.96991 0.62697 0.70652
 H786 H 0.98888 0.66028 0.69164
 H787 H 0.95174 0.56885 0.73853
 H788 H 0.93288 0.53368 0.74874
 H789 H 0.87269 0.55294 0.71139
 H790 H 0.89145 0.58803 0.70219
 C791 C 0.47969 0.15010 0.20321
 C792 C 0.47035 0.13085 0.21280
 C793 C 0.44734 0.12544 0.20962
 C794 C 0.43365 0.13983 0.19711
 C795 C 0.44292 0.15908 0.18765
 C796 C 0.46607 0.16437 0.19042
 N797 N 0.43829 0.10505 0.21860
 N798 N 0.41786 0.09872 0.21436
 C799 C 0.40801 0.07838 0.22254
 C800 C 0.38589 0.07236 0.21543
 C801 C 0.37569 0.05242 0.22241
 C802 C 0.38740 0.03795 0.23683
 C803 C 0.40965 0.04431 0.24428
 C804 C 0.41990 0.06429 0.23712
 H805 H 0.49755 0.15383 0.20578
 H806 H 0.48109 0.11994 0.22243
 H807 H 0.41582 0.13607 0.19437
 H808 H 0.43203 0.16949 0.17759
 H809 H 0.37657 0.08309 0.20416
 H810 H 0.35872 0.04842 0.21601
 H811 H 0.41916 0.03404 0.25580
 H812 H 0.43702 0.06871 0.24298
 C813 C 0.32547 0.43486 -0.17603
 C814 C 0.31306 0.42659 -0.15823
 C815 C 0.31977 0.43197 -0.13536
 C816 C 0.33903 0.44596 -0.13042
 C817 C 0.35151 0.45416 -0.14820
 C818 C 0.34492 0.44861 -0.17120
 N819 N 0.30721 0.42241 -0.11756
 N820 N 0.31198 0.42706 -0.09641
 C821 C 0.29991 0.41676 -0.07867
 C822 C 0.30596 0.42269 -0.05578
 C823 C 0.29547 0.41192 -0.03806
 C824 C 0.27839 0.39516 -0.04288
 C825 C 0.27252 0.38918 -0.06603
 C826 C 0.28299 0.40002 -0.08370
 H827 H 0.32013 0.43008 -0.19356
 H828 H 0.29831 0.41573 -0.16224
 H829 H 0.34455 0.45035 -0.11285
 H830 H 0.36627 0.46494 -0.14398
 H831 H 0.31923 0.43533 -0.05168
 H832 H 0.30115 0.41631 -0.02055
 H833 H 0.26044 0.37560 -0.07070
 H834 H 0.27829 0.39485 -0.10129
 C835 C 0.84686 0.96212 0.36923
 C836 C 0.83556 0.95496 0.38824
 C837 C 0.81430 0.94424 0.38540
 C838 C 0.80411 0.94130 0.36325
 C839 C 0.81533 0.94863 0.34422
 C840 C 0.83697 0.95880 0.34700
 N841 N 0.80397 0.93559 0.40508
 N842 N 0.78572 0.92375 0.40338
 C843 C 0.77584 0.91416 0.42285
 C844 C 0.75774 0.89869 0.41916
 C845 C 0.74901 0.88724 0.43740
 C846 C 0.75794 0.89144 0.46001
 C847 C 0.77583 0.90753 0.46363
 C848 C 0.78472 0.91876 0.44528
 H849 H 0.86339 0.97021 0.37190
 H850 H 0.84357 0.95735 0.40521
 H851 H 0.78766 0.93304 0.36062
 H852 H 0.80737 0.94575 0.32728
 H853 H 0.75094 0.89482 0.40190
 H854 H 0.73595 0.87453 0.43324
 H855 H 0.78344 0.91086 0.48066
 H856 H 0.79882 0.93062 0.44856
 C857 C 0.83315 0.00876 1.16365
 C858 C 0.82258 0.01698 1.14396
 C859 C 0.81407 0.03859 1.14427
 C860 C 0.81561 0.05174 1.16480
 C861 C 0.82599 0.04358 1.18454
 C862 C 0.83542 0.02203 1.18439
 N863 N 0.80447 0.04709 1.12353
 N864 N 0.79919 0.06762 1.12244
 C865 C 0.78979 0.07701 1.10212
 C866 C 0.78668 0.10019 1.10228
 C867 C 0.77788 0.11021 1.08283
 C868 C 0.77161 0.09721 1.06270
 C869 C 0.77483 0.07376 1.06260
 C870 C 0.78387 0.06377 1.08215
 H871 H 0.84046 -0.00757 1.16193
 H872 H 0.82158 0.00667 1.12821
 H873 H 0.80877 0.06839 1.16563
 H874 H 0.82595 0.05422 1.19997
 H875 H 0.79127 0.11060 1.11753
 H876 H 0.77591 0.12829 1.08349
 H877 H 0.77068 0.06296 1.04763
 H878 H 0.78624 0.04576 1.08165
 C879 C 0.35196 0.51099 0.64628
 C880 C 0.33947 0.51931 0.62786
 C881 C 0.31859 0.52860 0.63123
 C882 C 0.31002 0.52904 0.65326
 C883 C 0.32244 0.52062 0.67169
 C884 C 0.34368 0.51172 0.66848
 N885 N 0.30690 0.53824 0.61225
 N886 N 0.28862 0.54836 0.61450
 C887 C 0.27738 0.55878 0.59572
 C888 C 0.25879 0.57170 0.60000
 C889 C 0.24853 0.58370 0.58254
 C890 C 0.25664 0.58285 0.56020
 C891 C 0.27486 0.56903 0.55589
 C892 C 0.28520 0.55722 0.57343
 H893 H 0.36836 0.50454 0.64324
 H894 H 0.34629 0.51897 0.61099
 H895 H 0.29386 0.53606 0.65629
 H896 H 0.31540 0.52109 0.68846
 H897 H 0.25260 0.57299 0.61713
 H898 H 0.23470 0.59387 0.58711
 H899 H 0.28153 0.56791 0.53895
 H900 H 0.29952 0.54725 0.56964
 C901 C 0.18621 0.56293 0.33235
 C902 C 0.19381 0.57193 0.35387
 C903 C 0.19761 0.55782 0.37214
 C904 C 0.19415 0.53438 0.36854
 C905 C 0.18626 0.52534 0.34708
 C906 C 0.18187 0.53954 0.32878
 N907 N 0.20396 0.56777 0.39432
 N908 N 0.21068 0.55613 0.41094
 C909 C 0.21608 0.56618 0.43329
 C910 C 0.22844 0.55411 0.44921
 C911 C 0.23404 0.56351 0.47112
 C912 C 0.22689 0.58511 0.47777
 C913 C 0.21409 0.59698 0.46173
 C914 C 0.20890 0.58770 0.43968
 H915 H 0.18346 0.57433 0.31857
 H916 H 0.19651 0.59002 0.35641
 H917 H 0.19685 0.52314 0.38247
 H918 H 0.18280 0.50733 0.34511
 H919 H 0.23409 0.53749 0.44448
 H920 H 0.24436 0.55391 0.48256
 H921 H 0.20781 0.61336 0.46606
 H922 H 0.19902 0.59723 0.42774
 C923 C 0.66561 0.02041 0.86617
 C924 C 0.67417 0.02821 0.88781
 C925 C 0.69130 0.04491 0.88994
 C926 C 0.70038 0.05328 0.87006
 C927 C 0.69221 0.04518 0.84835
 C928 C 0.67436 0.02882 0.84592
 N929 N 0.69901 0.05327 0.91238
 N930 N 0.71070 0.07159 0.91534
 C931 C 0.71875 0.08031 0.93752
 C932 C 0.72757 0.10242 0.93960
 C933 C 0.73569 0.11161 0.96084
 C934 C 0.73576 0.09865 0.98053
 C935 C 0.72657 0.07639 0.97837
 C936 C 0.71807 0.06733 0.95709
 H937 H 0.65261 0.00718 0.86551
 H938 H 0.66720 0.02142 0.90302
 H939 H 0.71373 0.06618 0.87128
 H940 H 0.69927 0.05272 0.83360
 H941 H 0.72802 0.11266 0.92467
 H942 H 0.74206 0.12884 0.96147
 H943 H 0.72562 0.06599 0.99312
 H944 H 0.71117 0.05018 0.95591
 C945 C 0.70770 0.97678 0.66289
 C946 C 0.71682 0.96789 0.64293
 C947 C 0.71295 0.94513 0.63622
 C948 C 0.70037 0.93113 0.65013
 C949 C 0.69134 0.93994 0.67007
 C950 C 0.69463 0.96293 0.67656
 N951 N 0.72111 0.93676 0.61488
 N952 N 0.71649 0.91660 0.60745
 C953 C 0.72366 0.90759 0.58600
 C954 C 0.71662 0.88560 0.57909
 C955 C 0.72243 0.87629 0.55797
 C956 C 0.73554 0.88883 0.54315
 C957 C 0.74295 0.91091 0.55039
 C958 C 0.73700 0.92025 0.57158
 H959 H 0.71071 0.99450 0.66753
 H960 H 0.72653 0.97887 0.63242
 H961 H 0.69709 0.91347 0.64536
 H962 H 0.68106 0.92889 0.67997
 H963 H 0.70627 0.87569 0.59003
 H964 H 0.71611 0.85940 0.55330
 H965 H 0.75348 0.92100 0.53983
 H966 H 0.74276 0.93730 0.57665
 C967 C 0.17101 0.43492 0.15343
 C968 C 0.18100 0.42358 0.13539
 C969 C 0.20111 0.43196 0.12703
 C970 C 0.21150 0.45172 0.13729
 C971 C 0.20158 0.46304 0.15552
 C972 C 0.18106 0.45489 0.16355
 N973 N 0.21010 0.42037 0.10775
 N974 N 0.22755 0.42745 0.09805
 C975 C 0.23567 0.41569 0.07836
 C976 C 0.25395 0.42498 0.06729
 C977 C 0.26141 0.41450 0.04730
 C978 C 0.25071 0.39443 0.03809
 C979 C 0.23270 0.38488 0.04957
 C980 C 0.22521 0.39541 0.06947
 H981 H 0.15540 0.42805 0.15950
 H982 H 0.17288 0.40834 0.12767
 H983 H 0.22709 0.45850 0.13110
 H984 H 0.20962 0.47844 0.16294
 H985 H 0.26220 0.44057 0.07398
 H986 H 0.27553 0.42212 0.03905
 H987 H 0.22386 0.36963 0.04286
 H988 H 0.21103 0.38786 0.07767
 C989 C -0.15766 0.35467 0.42157
 C990 C -0.13827 0.34499 0.41380
 C991 C -0.12485 0.33249 0.42845
 C992 C -0.13110 0.32956 0.45108
 C993 C -0.15067 0.33906 0.45883
 C994 C -0.16408 0.35177 0.44415
 N995 N -0.10520 0.32277 0.41969
 N996 N -0.09085 0.31295 0.43220
 C997 C -0.07160 0.30316 0.42256
 C998 C -0.05479 0.29485 0.43705
 C999 C -0.03578 0.28534 0.42797
 C1000 C -0.03324 0.28407 0.40406
 C1001 C -0.05062 0.29187 0.38965
 C1002 C -0.06941 0.30151 0.39874
 H1003 H -0.16784 0.36415 0.40983
 H1004 H -0.13365 0.34724 0.39629
 H1005 H -0.12098 0.31988 0.46268
 H1006 H -0.15519 0.33671 0.47635
 H1007 H -0.05646 0.29573 0.45545
 H1008 H -0.02351 0.27873 0.43980
 H1009 H -0.04964 0.29049 0.37118
 H1010 H -0.08232 0.30746 0.38710
 C1011 C 0.32495 0.80530 0.94037
 C1012 C 0.34345 0.79415 0.93233
 C1013 C 0.36522 0.80320 0.93698
 C1014 C 0.36839 0.82355 0.95003
 C1015 C 0.34988 0.83481 0.95797
 C1016 C 0.32796 0.82587 0.95309
 N1017 N 0.38367 0.79188 0.92747
 N1018 N 0.40401 0.79847 0.93178
 C1019 C 0.42220 0.78750 0.92133
 C1020 C 0.44426 0.79473 0.92754
 C1021 C 0.46228 0.78509 0.91675
 C1022 C 0.45860 0.76784 0.89957
 C1023 C 0.43624 0.76085 0.89327
 C1024 C 0.41830 0.77040 0.90419
 H1025 H 0.30825 0.79815 0.93613
 H1026 H 0.34082 0.77853 0.92219
 H1027 H 0.38508 0.83089 0.95382
 H1028 H 0.35269 0.85050 0.96794
 H1029 H 0.44749 0.80813 0.94051
 H1030 H 0.47915 0.79145 0.92152
 H1031 H 0.43222 0.74861 0.87944
 H1032 H 0.40135 0.76481 0.89876
 C1033 C 1.17018 0.82594 0.05011
 C1034 C 1.15236 0.81638 0.06155
 C1035 C 1.13476 0.80450 0.04930
 C1036 C 1.13528 0.80192 0.02532
 C1037 C 1.15317 0.81141 0.01381
 C1038 C 1.17077 0.82366 0.02608
 N1039 N 1.11647 0.79570 0.06169
 N1040 N 1.09923 0.78557 0.05193
 C1041 C 1.08110 0.77728 0.06495
 C1042 C 1.06221 0.76676 0.05352
 C1043 C 1.04410 0.75889 0.06581
 C1044 C 1.04455 0.76155 0.08994
 C1045 C 1.06385 0.77183 0.10126
 C1046 C 1.08184 0.77968 0.08897
 H1047 H 1.18320 0.83560 0.06006
 H1048 H 1.15208 0.81854 0.08003
 H1049 H 1.12186 0.79270 0.01550
 H1050 H 1.15325 0.80914 -0.00466
 H1051 H 1.06152 0.76468 0.03499
 H1052 H 1.03010 0.75065 0.05616
 H1053 H 1.06494 0.77385 0.11979
 H1054 H 1.09630 0.78764 0.09828
 C1055 C 0.68556 0.31052 0.52607
 C1056 C 0.66918 0.29752 0.53647
 C1057 C 0.64649 0.30252 0.53384
 C1058 C 0.64026 0.32058 0.52039
 C1059 C 0.65661 0.33366 0.51008
 C1060 C 0.67949 0.32889 0.51293
 N1061 N 0.63028 0.28967 0.54577
 N1062 N 0.60931 0.29278 0.54346
 C1063 C 0.59323 0.28064 0.55622
 C1064 C 0.57040 0.28443 0.55241
 C1065 C 0.55440 0.27396 0.56562
 C1066 C 0.56088 0.25911 0.58275
 C1067 C 0.58399 0.25568 0.58669
 C1068 C 0.59994 0.26608 0.57339
 H1069 H 0.70298 0.30620 0.52835
 H1070 H 0.67419 0.28363 0.54679
 H1071 H 0.62282 0.32488 0.51824
 H1072 H 0.65136 0.34790 0.50040
 H1073 H 0.56505 0.29597 0.53952
 H1074 H 0.53697 0.27802 0.56282
 H1075 H 0.59005 0.24565 0.60055
 H1076 H 0.61755 0.26326 0.57702
 C1077 C 0.36254 0.16351 0.52437
 C1078 C 0.38422 0.17134 0.53131
 C1079 C 0.38754 0.18877 0.54804
 C1080 C 0.36881 0.19879 0.55743
 C1081 C 0.34704 0.19114 0.55026
 C1082 C 0.34374 0.17321 0.53389
 N1083 N 0.41007 0.19566 0.55532
 N1084 N 0.41461 0.20936 0.57233
 C1085 C 0.43730 0.21594 0.57942
 C1086 C 0.44135 0.22936 0.59950
 C1087 C 0.46331 0.23587 0.60696
 C1088 C 0.48159 0.22922 0.59430
 C1089 C 0.47750 0.21582 0.57408
 C1090 C 0.45556 0.20915 0.56673
 H1091 H 0.36044 0.14984 0.51152
 H1092 H 0.39851 0.16358 0.52388
 H1093 H 0.37099 0.21238 0.57033
 H1094 H 0.33281 0.19881 0.55791
 H1095 H 0.42744 0.23476 0.60940
 H1096 H 0.46593 0.24652 0.62231
 H1097 H 0.49130 0.21029 0.56409
 H1098 H 0.45288 0.19876 0.55113
 C1099 C 0.85388 0.65535 0.01955
 C1100 C 0.87484 0.66423 0.02777
 C1101 C 0.87668 0.67841 0.04751
 C1102 C 0.85718 0.68392 0.05884
 C1103 C 0.83615 0.67522 0.05050
 C1104 C 0.83432 0.66071 0.03085
 N1105 N 0.89848 0.68699 0.05557
 N1106 N 0.90166 0.69817 0.07454
 C1107 C 0.92342 0.70699 0.08246
 C1108 C 0.92591 0.71776 0.10415
 C1109 C 0.94680 0.72695 0.11226
 C1110 C 0.96563 0.72588 0.09864
 C1111 C 0.96309 0.71455 0.07696
 C1112 C 0.94221 0.70523 0.06894
 H1113 H 0.85292 0.64443 0.00421
 H1114 H 0.88973 0.65995 0.01883
 H1115 H 0.85818 0.69493 0.07410
 H1116 H 0.82136 0.67949 0.05961
 H1117 H 0.91158 0.71910 0.11481
 H1118 H 0.94788 0.73511 0.12907
 H1119 H 0.97725 0.71263 0.06619
 H1120 H 0.94077 0.69677 0.05215
 C1121 C 0.67031 0.68578 0.93402
 C1122 C 0.65185 0.69614 0.92400
 C1123 C 0.63459 0.70363 0.93746
 C1124 C 0.63642 0.70156 0.96133
 C1125 C 0.65505 0.69151 0.97144
 C1126 C 0.67202 0.68303 0.95786
 N1127 N 0.61510 0.71248 0.92638
 N1128 N 0.59710 0.71561 0.93679
 C1129 C 0.57753 0.72406 0.92545
 C1130 C 0.55729 0.72382 0.93663
 C1131 C 0.53770 0.73113 0.92566
 C1132 C 0.53804 0.73920 0.90328
 C1133 C 0.55857 0.73958 0.89228
 C1134 C 0.57806 0.73205 0.90318
 H1135 H 0.68277 0.67917 0.92291
 H1136 H 0.65060 0.69764 0.90557
 H1137 H 0.62339 0.70750 0.97213
 H1138 H 0.65601 0.69018 0.98988
 H1139 H 0.55661 0.71752 0.95375
 H1140 H 0.52229 0.72992 0.93466
 H1141 H 0.55985 0.74576 0.87528
 H1142 H 0.59354 0.73248 0.89418
 C1143 C 0.17612 0.19383 0.44025
 C1144 C 0.15786 0.20430 0.42995
 C1145 C 0.14043 0.21192 0.44313
 C1146 C 0.14178 0.20959 0.46699
 C1147 C 0.16013 0.19929 0.47736
 C1148 C 0.17738 0.19097 0.46408
 N1149 N 0.12130 0.22124 0.43179
 N1150 N 0.10382 0.22625 0.44234
 C1151 C 0.08450 0.23507 0.43086
 C1152 C 0.06515 0.23821 0.44306
 C1153 C 0.04571 0.24591 0.43216
 C1154 C 0.04529 0.25091 0.40874
 C1155 C 0.06494 0.24789 0.39664
 C1156 C 0.08432 0.24005 0.40756
 H1157 H 0.18887 0.18734 0.42943
 H1158 H 0.15699 0.20595 0.41154
 H1159 H 0.12859 0.21552 0.47758
 H1160 H 0.16073 0.19772 0.49578
 H1161 H 0.06501 0.23426 0.46100
 H1162 H 0.03090 0.24736 0.44206
 H1163 H 0.06558 0.25155 0.37875
 H1164 H 0.09910 0.23778 0.39773
 C1165 C 0.58599 0.07168 0.68140
 C1166 C 0.57779 0.08985 0.66955
 C1167 C 0.56651 0.10685 0.68097
 C1168 C 0.56304 0.10529 0.70450
 C1169 C 0.57118 0.08702 0.71642
 C1170 C 0.58294 0.07009 0.70503
 N1171 N 0.55977 0.12585 0.66834
 N1172 N 0.55006 0.14262 0.67718
 C1173 C 0.54461 0.16163 0.66381
 C1174 C 0.53470 0.18025 0.67419
 C1175 C 0.53076 0.19960 0.66182
 C1176 C 0.53688 0.20060 0.63892
 C1177 C 0.54611 0.18160 0.62837
 C1178 C 0.54995 0.16234 0.64065
 H1179 H 0.59532 0.05925 0.67214
 H1180 H 0.58069 0.09097 0.65145
 H1181 H 0.55433 0.11827 0.71368
 H1182 H 0.56835 0.08619 0.73455
 H1183 H 0.53049 0.17995 0.69202
 H1184 H 0.52368 0.21404 0.67036
 H1185 H 0.55050 0.18166 0.61058
 H1186 H 0.55745 0.14815 0.63211
 C1187 C 1.09363 0.60272 0.21552
 C1188 C 1.08479 0.62316 0.20936
 C1189 C 1.06315 0.62380 0.19928
 C1190 C 1.05002 0.60367 0.19601
 C1191 C 1.05888 0.58308 0.20224
 C1192 C 1.08098 0.58238 0.21164
 N1193 N 1.05581 0.64489 0.19122
 N1194 N 1.03646 0.64763 0.18190
 C1195 C 1.03085 0.66890 0.17270
 C1196 C 1.00946 0.67152 0.16245
 C1197 C 1.00455 0.69125 0.15108
 C1198 C 1.02114 0.70848 0.14964
 C1199 C 1.04222 0.70624 0.16081
 C1200 C 1.04703 0.68670 0.17229
 H1201 H 1.11051 0.60281 0.22317
 H1202 H 1.09503 0.63856 0.21198
 H1203 H 1.03325 0.60379 0.18815
 H1204 H 1.04878 0.56767 0.19904
 H1205 H 0.99684 0.65795 0.16260
 H1206 H 0.98823 0.69253 0.14245
 H1207 H 1.05520 0.71941 0.16015
 H1208 H 1.06367 0.68523 0.18013
 C1209 C 0.96442 0.90602 0.22990
 C1210 C 0.97475 0.88721 0.22049
 C1211 C 0.96186 0.86971 0.20904
 C1212 C 0.93842 0.87125 0.20702
 C1213 C 0.92810 0.89007 0.21625
 C1214 C 0.94095 0.90769 0.22785
 N1215 N 0.97294 0.85104 0.19888
 N1216 N 0.96201 0.83390 0.18979
 C1217 C 0.97279 0.81566 0.17849
 C1218 C 0.95957 0.79745 0.16887
 C1219 C 0.96923 0.78048 0.15574
 C1220 C 0.99229 0.78154 0.15188
 C1221 C 1.00569 0.79937 0.16241
 C1222 C 0.99605 0.81629 0.17560
 H1223 H 0.97479 0.91912 0.23896
 H1224 H 0.99284 0.88626 0.22211
 H1225 H 0.92809 0.85808 0.19801
 H1226 H 0.91005 0.89098 0.21391
 H1227 H 0.94161 0.79680 0.17094
 H1228 H 0.95844 0.76722 0.14776
 H1229 H 1.02360 0.80047 0.16006
 H1230 H 1.00666 0.83013 0.18296
 C1231 C 0.47881 0.40508 0.71100
 C1232 C 0.49060 0.38692 0.70240
 C1233 C 0.48283 0.36474 0.70521
 C1234 C 0.46351 0.36082 0.71758
 C1235 C 0.45184 0.37896 0.72646
 C1236 C 0.45908 0.40135 0.72288
 N1237 N 0.49409 0.34669 0.69418
 N1238 N 0.48608 0.32649 0.69287
 C1239 C 0.49697 0.30892 0.68062
 C1240 C 0.48521 0.28847 0.67527
 C1241 C 0.49416 0.27222 0.66065
 C1242 C 0.51514 0.27614 0.65105
 C1243 C 0.52765 0.29602 0.65817
 C1244 C 0.51857 0.31233 0.67254
 H1245 H 0.48475 0.42202 0.70760
 H1246 H 0.50542 0.39014 0.69280
 H1247 H 0.45728 0.34379 0.72012
 H1248 H 0.43703 0.37543 0.73595
 H1249 H 0.46862 0.28552 0.68162
 H1250 H 0.48407 0.25710 0.65640
 H1251 H 0.54435 0.29938 0.65237
 H1252 H 0.52824 0.32781 0.67689
 C1253 C 0.44689 0.58926 0.76386
 C1254 C 0.45402 0.61128 0.77065
 C1255 C 0.46720 0.61552 0.79087
 C1256 C 0.47370 0.59734 0.80406
 C1257 C 0.46626 0.57531 0.79749
 C1258 C 0.45252 0.57113 0.77749
 N1259 N 0.47188 0.63842 0.79872
 N1260 N 0.48616 0.64385 0.81502
 C1261 C 0.48891 0.66662 0.82406
 C1262 C 0.50732 0.67267 0.83904
 C1263 C 0.50910 0.69414 0.84992
 C1264 C 0.49215 0.70961 0.84632
 C1265 C 0.47401 0.70374 0.83086
 C1266 C 0.47248 0.68249 0.81966
 H1267 H 0.43610 0.58649 0.74852
 H1268 H 0.44874 0.62517 0.76046
 H1269 H 0.48374 0.60024 0.81987
 H1270 H 0.47084 0.56158 0.80823
 H1271 H 0.52001 0.66055 0.84269
 H1272 H 0.52312 0.69827 0.86196
 H1273 H 0.46081 0.71547 0.82780
 H1274 H 0.45801 0.67818 0.80828
 C1275 C -0.07084 0.08772 0.32126
 C1276 C -0.06317 0.10878 0.33029
 C1277 C -0.04377 0.11917 0.32244
 C1278 C -0.03194 0.10822 0.30524
 C1279 C -0.03953 0.08687 0.29624
 C1280 C -0.05902 0.07630 0.30432
 N1281 N -0.03674 0.14071 0.33265
 N1282 N -0.02071 0.15313 0.32588
 C1283 C -0.01517 0.17449 0.33754
 C1284 C -0.00065 0.19017 0.32781
 C1285 C 0.00360 0.21164 0.33839
 C1286 C -0.00662 0.21762 0.35889
 C1287 C -0.02041 0.20148 0.36900
 C1288 C -0.02470 0.18025 0.35844
 H1289 H -0.08625 0.08049 0.32744
 H1290 H -0.07249 0.11717 0.34342
 H1291 H -0.01683 0.11601 0.29898
 H1292 H -0.03002 0.07851 0.28326
 H1293 H 0.00689 0.18597 0.31175
 H1294 H 0.01428 0.22374 0.33020
 H1295 H -0.02799 0.20526 0.38514
 H1296 H -0.03567 0.16838 0.36660
 C1297 C 0.05622 0.40912 0.26784
 C1298 C 0.04633 0.38905 0.27507
 C1299 C 0.05905 0.37398 0.28758
 C1300 C 0.08199 0.37902 0.29250
 C1301 C 0.09187 0.39911 0.28538
 C1302 C 0.07904 0.41450 0.27319
 N1303 N 0.04799 0.35456 0.29640
 N1304 N 0.05851 0.34005 0.30775
 C1305 C 0.04701 0.32172 0.31809
 C1306 C 0.05926 0.30754 0.33216
 C1307 C 0.04815 0.29197 0.34551
 C1308 C 0.02461 0.29046 0.34496
 C1309 C 0.01241 0.30358 0.32961
 C1310 C 0.02349 0.31908 0.31629
 H1311 H 0.04589 0.42070 0.25861
 H1312 H 0.02859 0.38543 0.27133
 H1313 H 0.09218 0.36767 0.30219
 H1314 H 0.10958 0.40263 0.28942
 H1315 H 0.07740 0.30943 0.33373
 H1316 H 0.05792 0.28233 0.35737
 H1317 H -0.00578 0.30256 0.32871
 H1318 H 0.01361 0.32971 0.30543
 C1319 C 0.55621 0.91031 0.77972
 C1320 C 0.54437 0.89147 0.78728
 C1321 C 0.55535 0.87151 0.79143
 C1322 C 0.57828 0.87027 0.78717
 C1323 C 0.59010 0.88902 0.77941
 C1324 C 0.57931 0.90941 0.77597
 N1325 N 0.54313 0.85324 0.80105
 N1326 N 0.55262 0.83567 0.80786
 C1327 C 0.54039 0.81802 0.81849
 C1328 C 0.55222 0.80104 0.82906
 C1329 C 0.54098 0.78499 0.84172
 C1330 C 0.51765 0.78561 0.84393
 C1331 C 0.50568 0.80199 0.83218
 C1332 C 0.51693 0.81811 0.81971
 H1333 H 0.54741 0.92578 0.77756
 H1334 H 0.52672 0.89265 0.79060
 H1335 H 0.58710 0.85495 0.79010
 H1336 H 0.60776 0.88759 0.77625
 H1337 H 0.57031 0.80076 0.82823
 H1338 H 0.55077 0.77278 0.85051
 H1339 H 0.48761 0.80261 0.83288
 H1340 H 0.50735 0.83089 0.81141
 C1341 C 0.67306 0.56319 0.06111
 C1342 C 0.66060 0.55596 0.07931
 C1343 C 0.67119 0.55119 0.10021
 C1344 C 0.69466 0.55295 0.10258
 C1345 C 0.70727 0.56037 0.08452
 C1346 C 0.69680 0.56632 0.06339
 N1347 N 0.65763 0.54604 0.11908
 N1348 N 0.66591 0.54029 0.13835
 C1349 C 0.65205 0.53666 0.15739
 C1350 C 0.66139 0.52765 0.17730
 C1351 C 0.64850 0.52502 0.19652
 C1352 C 0.62616 0.53175 0.19619
 C1353 C 0.61675 0.54058 0.17613
 C1354 C 0.62953 0.54292 0.15686
 H1355 H 0.66345 0.56791 0.04607
 H1356 H 0.64244 0.55477 0.07733
 H1357 H 0.70327 0.54903 0.11856
 H1358 H 0.72530 0.56077 0.08733
 H1359 H 0.67875 0.52287 0.17797
 H1360 H 0.65617 0.51831 0.21184
 H1361 H 0.59946 0.54559 0.17532
 H1362 H 0.62192 0.54999 0.14172
 C1363 C 0.23050 1.08915 0.60733
 C1364 C 0.22230 1.08048 0.62731
 C1365 C 0.20537 1.06353 0.62612
 C1366 C 0.19723 1.05462 0.60456
 C1367 C 0.20537 1.06338 0.58446
 C1368 C 0.22171 1.08115 0.58566
 N1369 N 0.19550 1.05729 0.64695
 N1370 N 0.18099 1.04115 0.64801
 C1371 C 0.17017 1.03695 0.66895
 C1372 C 0.15618 1.01762 0.67035
 C1373 C 0.14376 1.01436 0.68984
 C1374 C 0.14489 1.03069 0.70795
 C1375 C 0.15942 1.04969 0.70681
 C1376 C 0.17205 1.05275 0.68757
 H1377 H 0.24342 1.10248 0.60885
 H1378 H 0.22871 1.08745 0.64382
 H1379 H 0.18403 1.04158 0.60324
 H1380 H 0.19818 1.05695 0.56804
 H1381 H 0.15450 1.00535 0.65610
 H1382 H 0.13253 0.99965 0.69030
 H1383 H 0.16071 1.06240 0.72068
 H1384 H 0.18268 1.06787 0.68694
 C1385 C 0.19952 0.90761 0.87800
 C1386 C 0.19053 0.91736 0.85840
 C1387 C 0.19326 0.94046 0.85549
 C1388 C 0.20555 0.95383 0.87227
 C1389 C 0.21459 0.94424 0.89193
 C1390 C 0.21162 0.92082 0.89559
 N1391 N 0.18248 0.95007 0.83597
 N1392 N 0.18382 0.97114 0.83274
 C1393 C 0.17208 0.98106 0.81398
 C1394 C 0.17277 1.00455 0.81284
 C1395 C 0.15953 1.01497 0.79633
 C1396 C 0.14546 1.00199 0.78056
 C1397 C 0.14560 0.97838 0.78103
 C1398 C 0.15874 0.96795 0.79767
 H1399 H 0.19549 0.88988 0.87955
 H1400 H 0.18084 0.90689 0.84567
 H1401 H 0.20812 0.97179 0.87028
 H1402 H 0.22460 0.95546 0.90361
 H1403 H 0.18301 1.01484 0.82528
 H1404 H 0.15992 1.03323 0.79619
 H1405 H 0.13475 0.96801 0.76938
 H1406 H 0.15792 0.94973 0.79822
 C1407 C 0.69438 0.42179 0.37292
 C1408 C 0.68405 0.43063 0.35350
 C1409 C 0.68712 0.45347 0.34901
 C1410 C 0.70105 0.46743 0.36403
 C1411 C 0.71154 0.45858 0.38341
 C1412 C 0.70819 0.43568 0.38819
 N1413 N 0.67523 0.46216 0.32964
 N1414 N 0.67564 0.48310 0.32567
 C1415 C 0.66299 0.49178 0.30679
 C1416 C 0.66129 0.51515 0.30552
 C1417 C 0.64727 0.52412 0.28866
 C1418 C 0.63494 0.50979 0.27262
 C1419 C 0.63745 0.48638 0.27325
 C1420 C 0.65128 0.47741 0.29028
 H1421 H 0.69113 0.40419 0.37625
 H1422 H 0.67323 0.41975 0.34213
 H1423 H 0.70374 0.48515 0.36087
 H1424 H 0.72233 0.46965 0.39459
 H1425 H 0.67027 0.52639 0.31809
 H1426 H 0.64575 0.54224 0.28839
 H1427 H 0.62796 0.47496 0.26124
 H1428 H 0.65238 0.45928 0.29088
 C1429 C 0.75806 0.44631 0.58109
 C1430 C 0.76505 0.45418 0.60321
 C1431 C 0.78336 0.46951 0.60662
 C1432 C 0.79406 0.47777 0.58752
 C1433 C 0.78721 0.46977 0.56539
 C1434 C 0.76949 0.45354 0.56200
 N1435 N 0.79222 0.47443 0.62952
 N1436 N 0.80813 0.48897 0.63417
 C1437 C 0.81842 0.49188 0.65678
 C1438 C 0.83450 0.50942 0.66144
 C1439 C 0.84690 0.51089 0.68239
 C1440 C 0.84353 0.49460 0.69878
 C1441 C 0.82693 0.47744 0.69441
 C1442 C 0.81433 0.47616 0.67364
 H1443 H 0.74455 0.43362 0.57904
 H1444 H 0.75678 0.44758 0.61780
 H1445 H 0.80831 0.48958 0.58974
 H1446 H 0.79619 0.47573 0.55095
 H1447 H 0.83797 0.52150 0.64851
 H1448 H 0.85993 0.52395 0.68523
 H1449 H 0.82413 0.46470 0.70686
 H1450 H 0.80212 0.46234 0.67041
 C1451 C 0.25351 -0.06570 0.08673
 C1452 C 0.25928 -0.05645 0.10865
 C1453 C 0.27850 -0.04236 0.11245
 C1454 C 0.29159 -0.03699 0.09385
 C1455 C 0.28600 -0.04645 0.07196
 C1456 C 0.26712 -0.06121 0.06828
 N1457 N 0.28555 -0.03560 0.13552
 N1458 N 0.30162 -0.02124 0.14015
 C1459 C 0.31013 -0.01629 0.16317
 C1460 C 0.32651 0.00105 0.16728
 C1461 C 0.33741 0.00426 0.18891
 C1462 C 0.33219 -0.01002 0.20664
 C1463 C 0.31523 -0.02691 0.20278
 C1464 C 0.30413 -0.02993 0.18125
 H1465 H 0.23902 -0.07723 0.08442
 H1466 H 0.24917 -0.06086 0.12287
 H1467 H 0.30662 -0.02623 0.09639
 H1468 H 0.29668 -0.04265 0.05799
 H1469 H 0.33147 0.01150 0.15345
 H1470 H 0.35086 0.01695 0.19135
 H1471 H 0.31111 -0.03819 0.21624
 H1472 H 0.29165 -0.04358 0.17846
 C1473 C 0.26261 0.05569 0.40736
 C1474 C 0.26843 0.04442 0.38710
 C1475 C 0.27991 0.05599 0.37047
 C1476 C 0.28490 0.07922 0.37397
 C1477 C 0.27921 0.09045 0.39422
 C1478 C 0.26841 0.07871 0.41132
 N1479 N 0.28776 0.04357 0.35108
 N1480 N 0.29835 0.05318 0.33547
 C1481 C 0.30777 0.04072 0.31697
 C1482 C 0.31962 0.05244 0.30074
 C1483 C 0.33126 0.04074 0.28405
 C1484 C 0.33127 0.01706 0.28347
 C1485 C 0.31855 0.00530 0.29917
 C1486 C 0.30689 0.01701 0.31579
 H1487 H 0.25439 0.04623 0.42029
 H1488 H 0.26457 0.02650 0.38463
 H1489 H 0.29372 0.08857 0.36138
 H1490 H 0.28355 0.10828 0.39667
 H1491 H 0.32050 0.07072 0.30154
 H1492 H 0.34109 0.05025 0.27235
 H1493 H 0.31797 -0.01296 0.29889
 H1494 H 0.29779 0.00755 0.32810
 C1495 C 0.77766 0.54711 0.90290
 C1496 C 0.78634 0.53667 0.88353
 C1497 C 0.79110 0.54914 0.86439
 C1498 C 0.78642 0.57216 0.86450
 C1499 C 0.77754 0.58259 0.88377
 C1500 C 0.77339 0.57028 0.90337
 N1501 N 0.80145 0.53820 0.84554
 N1502 N 0.80885 0.54897 0.82884
 C1503 C 0.81984 0.53778 0.81053
 C1504 C 0.83077 0.55069 0.79454
 C1505 C 0.84322 0.54026 0.77764
 C1506 C 0.84479 0.51667 0.77645
 C1507 C 0.83301 0.50373 0.79198
 C1508 C 0.82075 0.51416 0.80892
 H1509 H 0.77498 0.53717 0.91775
 H1510 H 0.78994 0.51891 0.88365
 H1511 H 0.78980 0.58211 0.84981
 H1512 H 0.77402 0.60034 0.88335
 H1513 H 0.83022 0.56892 0.79563
 H1514 H 0.85227 0.55074 0.76612
 H1515 H 0.83343 0.48549 0.79120
 H1516 H 0.81225 0.50378 0.82092
 C1517 C 0.10372 0.72916 0.58501
 C1518 C 0.12336 0.72027 0.57694
 C1519 C 0.12233 0.70309 0.55983
 C1520 C 0.10131 0.69540 0.55015
 C1521 C 0.08155 0.70423 0.55831
 C1522 C 0.08255 0.72082 0.57625
 N1523 N 0.14272 0.69255 0.55424
 N1524 N 0.14392 0.67778 0.53799
 C1525 C 0.16435 0.66636 0.53442
 C1526 C 0.16603 0.65220 0.51485
 C1527 C 0.18505 0.63932 0.51211
 C1528 C 0.20242 0.64017 0.52918
 C1529 C 0.20097 0.65479 0.54848
 C1530 C 0.18220 0.66787 0.55103
 H1531 H 0.10510 0.74224 0.59850
 H1532 H 0.13946 0.72635 0.58450
 H1533 H 0.10012 0.68201 0.53698
 H1534 H 0.06551 0.69736 0.55132
 H1535 H 0.15237 0.65076 0.50197
 H1536 H 0.18572 0.62799 0.49722
 H1537 H 0.21425 0.65580 0.56180
 H1538 H 0.18133 0.67859 0.56637
 C1539 C 0.60480 0.21433 1.10184
 C1540 C 0.62520 0.20673 1.09445
 C1541 C 0.62661 0.19658 1.07261
 C1542 C 0.60719 0.19404 1.05804
 C1543 C 0.58661 0.20163 1.06548
 C1544 C 0.58524 0.21193 1.08747
 N1545 N 0.64785 0.18838 1.06632
 N1546 N 0.65147 0.17935 1.04676
 C1547 C 0.67308 0.17074 1.04215
 C1548 C 0.67657 0.16014 1.02080
 C1549 C 0.69692 0.14985 1.01678
 C1550 C 0.71394 0.14990 1.03421
 C1551 C 0.71074 0.16137 1.05522
 C1552 C 0.69057 0.17171 1.05916
 H1553 H 0.60426 0.22176 1.11903
 H1554 H 0.64001 0.20856 1.10589
 H1555 H 0.60790 0.18611 1.04110
 H1556 H 0.57184 0.19963 1.05401
 H1557 H 0.66328 0.15928 1.00751
 H1558 H 0.69893 0.14098 1.00049
 H1559 H 0.72372 0.16193 1.06883
 H1560 H 0.68846 0.17992 1.07576
 C1561 C 0.90397 0.23608 0.96523
 C1562 C 0.88522 0.22798 0.97643
 C1563 C 0.87129 0.21058 0.96640
 C1564 C 0.87630 0.20128 0.94491
 C1565 C 0.89513 0.20904 0.93378
 C1566 C 0.90967 0.22661 0.94364
 N1567 N 0.85266 0.20203 0.97859
 N1568 N 0.83824 0.18790 0.96909
 C1569 C 0.82017 0.17795 0.98103
 C1570 C 0.80486 0.16308 0.96882
 C1571 C 0.78837 0.15120 0.98020
 C1572 C 0.78691 0.15404 1.00400
 C1573 C 0.80191 0.16941 1.01623
 C1574 C 0.81839 0.18138 1.00482
 H1575 H 0.91448 0.24889 0.97448
 H1576 H 0.88168 0.23515 0.99316
 H1577 H 0.86570 0.18787 0.93667
 H1578 H 0.89732 0.20168 0.91685
 H1579 H 0.80625 0.16006 0.95055
 H1580 H 0.77773 0.13882 0.97056
 H1581 H 0.80121 0.17169 1.03467
 H1582 H 0.83013 0.19270 1.01465
 C1583 C 0.40134 0.70460 0.46447
 C1584 C 0.38381 0.69428 0.47577
 C1585 C 0.36167 0.69499 0.46700
 C1586 C 0.35708 0.70672 0.44702
 C1587 C 0.37455 0.71742 0.43590
 C1588 C 0.39698 0.71629 0.44432
 N1589 N 0.34431 0.68339 0.47855
 N1590 N 0.32476 0.67923 0.46939
 C1591 C 0.30779 0.66737 0.48126
 C1592 C 0.28900 0.65773 0.46885
 C1593 C 0.27306 0.64458 0.47976
 C1594 C 0.27549 0.64119 0.50343
 C1595 C 0.29392 0.65176 0.51599
 C1596 C 0.30999 0.66455 0.50500
 H1597 H 0.41834 0.70293 0.47128
 H1598 H 0.38754 0.68522 0.49113
 H1599 H 0.34002 0.70769 0.44008
 H1600 H 0.37043 0.72666 0.42076
 H1601 H 0.28713 0.65977 0.45053
 H1602 H 0.25934 0.63646 0.46943
 H1603 H 0.29606 0.65003 0.53432
 H1604 H 0.32421 0.67211 0.51503
 C1605 C 0.58159 0.76151 0.44281
 C1606 C 0.60354 0.76672 0.45118
 C1607 C 0.60834 0.78599 0.46534
 C1608 C 0.59075 0.79977 0.47163
 C1609 C 0.56880 0.79473 0.46305
 C1610 C 0.56408 0.77574 0.44827
 N1611 N 0.63132 0.79230 0.47128
 N1612 N 0.63691 0.80845 0.48560
 C1613 C 0.65984 0.81608 0.48973
 C1614 C 0.66506 0.83284 0.50686
 C1615 C 0.68666 0.84285 0.50922
 C1616 C 0.70325 0.83628 0.49433
 C1617 C 0.69827 0.81899 0.47765
 C1618 C 0.67676 0.80880 0.47545
 H1619 H 0.57847 0.74692 0.43123
 H1620 H 0.61698 0.75608 0.44606
 H1621 H 0.59407 0.81485 0.48246
 H1622 H 0.55558 0.80588 0.46761
 H1623 H 0.65211 0.83879 0.51777
 H1624 H 0.68998 0.85665 0.52169
 H1625 H 0.71084 0.81394 0.46583
 H1626 H 0.67311 0.79602 0.46194
 C1627 C 0.09151 0.27122 -0.05221
 C1628 C 0.11340 0.27681 -0.04380
 C1629 C 0.11919 0.29875 -0.03541
 C1630 C 0.10258 0.31496 -0.03483
 C1631 C 0.08073 0.30944 -0.04339
 C1632 C 0.07507 0.28762 -0.05254
 N1633 N 0.14226 0.30459 -0.02926
 N1634 N 0.14842 0.32401 -0.02074
 C1635 C 0.17156 0.33067 -0.01615
 C1636 C 0.17680 0.35206 -0.00597
 C1637 C 0.19910 0.36013 -0.00348
 C1638 C 0.21643 0.34686 -0.01119
 C1639 C 0.21136 0.32519 -0.02082
 C1640 C 0.18903 0.31706 -0.02323
 H1641 H 0.08771 0.25435 -0.05940
 H1642 H 0.12607 0.26420 -0.04446
 H1643 H 0.10663 0.33206 -0.02845
 H1644 H 0.06834 0.32235 -0.04326
 H1645 H 0.16350 0.36276 -0.00060
 H1646 H 0.20279 0.37702 0.00373
 H1647 H 0.22462 0.31488 -0.02702
 H1648 H 0.18538 0.30052 -0.03129
 C1649 C 0.41574 0.26792 0.05043
 C1650 C 0.39701 0.27579 0.03835
 C1651 C 0.37699 0.27930 0.04936
 C1652 C 0.37551 0.27381 0.07242
 C1653 C 0.39412 0.26572 0.08445
 C1654 C 0.41466 0.26324 0.07379
 N1655 N 0.35898 0.28972 0.03723
 N1656 N 0.34182 0.29663 0.04722
 C1657 C 0.32442 0.30812 0.03527
 C1658 C 0.30827 0.31903 0.04789
 C1659 C 0.29267 0.33258 0.03700
 C1660 C 0.29289 0.33526 0.01320
 C1661 C 0.30837 0.32325 0.00044
 C1662 C 0.32407 0.30993 0.01137
 H1663 H 0.43130 0.26642 0.04173
 H1664 H 0.39836 0.27999 0.02057
 H1665 H 0.36014 0.27616 0.08125
 H1666 H 0.39251 0.26176 0.10225
 H1667 H 0.30839 0.31778 0.06634
 H1668 H 0.28119 0.34175 0.04739
 H1669 H 0.30866 0.32451 -0.01798
 H1670 H 0.33622 0.30145 0.00120
 C1671 C 0.90670 0.76750 0.54802
 C1672 C 0.88637 0.77353 0.53745
 C1673 C 0.87037 0.78462 0.55015
 C1674 C 0.87470 0.78915 0.57374
 C1675 C 0.89502 0.78329 0.58426
 C1676 C 0.91138 0.77274 0.57145
 N1677 N 0.85060 0.79239 0.53855
 N1678 N 0.83541 0.80224 0.54937
 C1679 C 0.81631 0.81153 0.53796
 C1680 C 0.80057 0.82241 0.55113
 C1681 C 0.78308 0.83382 0.54056
 C1682 C 0.78115 0.83461 0.51655
 C1683 C 0.79645 0.82289 0.50333
 C1684 C 0.81389 0.81144 0.51393
 H1685 H 0.91905 0.75946 0.53775
 H1686 H 0.88327 0.77002 0.51923
 H1687 H 0.86263 0.79768 0.58396
 H1688 H 0.89803 0.78718 0.60243
 H1689 H 0.80233 0.82268 0.56968
 H1690 H 0.77175 0.84291 0.55121
 H1691 H 0.79518 0.82294 0.48478
 H1692 H 0.82582 0.80311 0.50336
   
