data_POSCAR
  _audit_creation_date              2014-09-24
  _audit_creation_method            'ToBaCCo'
  _symmetry_space_group_name_H-M    'P1'
  _symmetry_Int_Tables_number       1
  _symmetry_cell_setting            triclinic
  loop_
  _symmetry_equiv_pos_as_xyz
 x,y,z
_cell_length_a 84.8651
_cell_length_b 84.7194
_cell_length_c 84.8206
_cell_angle_alpha 90.098700
_cell_angle_beta 90.055900
_cell_angle_gamma 90.010000
loop_
  _atom_site_label
  _atom_site_type_symbol
  _atom_site_fract_x
  _atom_site_fract_y
  _atom_site_fract_z
N1 N 0.30844 0.43067 0.89799
 N2 N 0.31931 0.44171 0.89824
 C3 C 0.31653 0.45197 0.88644
 C4 C 0.30315 0.44712 0.87833
 C5 C 0.29840 0.43350 0.88604
 H6 H 0.32364 0.46226 0.88404
 H7 H 0.28832 0.42621 0.88331
 Cu8 Cu 0.33556 0.44179 0.91446
 Cu9 Cu 0.30758 0.41381 0.91358
 Cu10 Cu 0.33655 0.41389 0.94246
 N11 N 0.35184 0.44178 0.93066
 N12 N 0.35213 0.43077 0.94154
 C13 C 0.36412 0.43362 0.95152
 C14 C 0.37186 0.44726 0.94676
 C15 C 0.36366 0.45206 0.93338
 H16 H 0.36682 0.42628 0.96156
 H17 H 0.36600 0.46228 0.92617
 N18 N 0.31974 0.39786 0.94139
 N19 N 0.30872 0.39783 0.93041
 C20 C 0.29867 0.38586 0.93323
 C21 C 0.30354 0.37795 0.94667
 C22 C 0.31698 0.38592 0.95147
 H23 H 0.28840 0.38330 0.92615
 H24 H 0.32411 0.38341 0.96172
 H25 H 0.31853 0.42617 0.93156
 H26 H 0.33131 0.41367 0.91873
 N27 N 0.43196 0.85117 0.44311
 N28 N 0.44299 0.85096 0.43227
 C29 C 0.45337 0.86262 0.43527
 C30 C 0.44863 0.87063 0.44879
 C31 C 0.43491 0.86294 0.45336
 H32 H 0.46367 0.86493 0.42817
 H33 H 0.42767 0.86543 0.46352
 Cu34 Cu 0.44296 0.83524 0.41547
 Cu35 Cu 0.41513 0.83556 0.44390
 Cu36 Cu 0.41739 0.80500 0.41695
 N37 N 0.44313 0.81843 0.39971
 N38 N 0.43301 0.80672 0.40029
 C39 C 0.43605 0.79654 0.38848
 C40 C 0.44885 0.80209 0.37999
 C41 C 0.45298 0.81608 0.38748
 H42 H 0.42958 0.78574 0.38650
 H43 H 0.46257 0.82388 0.38444
 N44 N 0.40045 0.80661 0.43271
 N45 N 0.39949 0.81839 0.44285
 C46 C 0.38708 0.81593 0.45241
 C47 C 0.37982 0.80189 0.44813
 C48 C 0.38863 0.79639 0.43550
 H49 H 0.38379 0.82367 0.46198
 H50 H 0.38679 0.78558 0.42899
 H51 H 0.42893 0.81848 0.43410
 H52 H 0.41536 0.82907 0.42032
 N53 N 0.93088 0.89847 0.80834
 N54 N 0.94188 0.89867 0.81924
 C55 C 0.95217 0.88690 0.81639
 C56 C 0.94739 0.87886 0.80294
 C57 C 0.93378 0.88659 0.79820
 H58 H 0.96246 0.88451 0.82350
 H59 H 0.92661 0.88401 0.78799
 Cu60 Cu 0.94187 0.91448 0.83595
 Cu61 Cu 0.91417 0.91419 0.80738
 Cu62 Cu 0.91634 0.94469 0.83444
 N63 N 0.94202 0.93120 0.85178
 N64 N 0.93183 0.94284 0.85128
 C65 C 0.93472 0.95288 0.86324
 C66 C 0.94756 0.94733 0.87179
 C67 C 0.95181 0.93346 0.86409
 H68 H 0.92810 0.96358 0.86526
 H69 H 0.96140 0.92562 0.86704
 N70 N 0.89953 0.94319 0.81847
 N71 N 0.89862 0.93145 0.80829
 C72 C 0.88632 0.93399 0.79858
 C73 C 0.87910 0.94806 0.80280
 C74 C 0.88780 0.95349 0.81555
 H75 H 0.88309 0.92630 0.78894
 H76 H 0.88596 0.96430 0.82205
 H77 H 0.92794 0.93129 0.81727
 H78 H 0.91432 0.92066 0.83093
 N79 N 0.43150 -0.10077 0.30724
 N80 N 0.44293 -0.10008 0.31767
 C81 C 0.45345 -0.11156 0.31457
 C82 C 0.44836 -0.11993 0.30145
 C83 C 0.43433 -0.11271 0.29718
 H84 H 0.46412 -0.11349 0.32123
 H85 H 0.42681 -0.11569 0.28733
 Cu86 Cu 0.44316 -0.08384 0.33385
 Cu87 Cu 0.41442 -0.08541 0.30658
 Cu88 Cu 0.41677 -0.05456 0.33340
 N89 N 0.44301 -0.06771 0.35018
 N90 N 0.43250 -0.05633 0.35000
 C91 C 0.43536 -0.04635 0.36200
 C92 C 0.44847 -0.05168 0.37019
 C93 C 0.45296 -0.06533 0.36233
 H94 H 0.42857 -0.03582 0.36431
 H95 H 0.46289 -0.07283 0.36503
 N96 N 0.39961 -0.05654 0.31789
 N97 N 0.39861 -0.06839 0.30783
 C98 C 0.38602 -0.06612 0.29844
 C99 C 0.37871 -0.05213 0.30275
 C100 C 0.38766 -0.04646 0.31521
 H101 H 0.38266 -0.07393 0.28894
 H102 H 0.38584 -0.03560 0.32165
 H103 H 0.42777 -0.06768 0.31571
 H104 H 0.41523 -0.07863 0.33007
 N105 N 0.80747 0.31889 0.35113
 N106 N 0.81854 0.30807 0.35116
 C107 C 0.81555 0.29766 0.36277
 C108 C 0.80186 0.30221 0.37048
 C109 C 0.79711 0.31579 0.36271
 H110 H 0.82277 0.28748 0.36531
 H111 H 0.78682 0.32288 0.36516
 Cu112 Cu 0.83566 0.30830 0.33588
 Cu113 Cu 0.80686 0.33580 0.33571
 Cu114 Cu 0.83596 0.33589 0.30720
 N115 N 0.85135 0.30823 0.31914
 N116 N 0.85148 0.31907 0.30810
 C117 C 0.86335 0.31609 0.29802
 C118 C 0.87114 0.30257 0.30294
 C119 C 0.86314 0.29794 0.31643
 H120 H 0.86598 0.32322 0.28782
 H121 H 0.86560 0.28777 0.32369
 N122 N 0.81923 0.35195 0.30821
 N123 N 0.80816 0.35192 0.31910
 C124 C 0.79811 0.36388 0.31627
 C125 C 0.80302 0.37185 0.30288
 C126 C 0.81651 0.36393 0.29815
 H127 H 0.78780 0.36639 0.32329
 H128 H 0.82370 0.36648 0.28797
 H129 H 0.81839 0.32310 0.31832
 H130 H 0.83075 0.33628 0.33101
 N131 N -0.18170 0.85130 0.80708
 N132 N -0.19253 0.85129 0.81812
 C133 C -0.20289 0.86297 0.81522
 C134 C -0.19835 0.87082 0.80156
 C135 C -0.18476 0.86299 0.79680
 H136 H -0.21304 0.86542 0.82249
 H137 H -0.17763 0.86541 0.78654
 Cu138 Cu -0.19245 0.83572 0.83501
 Cu139 Cu -0.16479 0.83578 0.80646
 Cu140 Cu -0.16487 0.80705 0.83540
 N141 N -0.19261 0.81893 0.85070
 N142 N -0.18181 0.80783 0.85081
 C143 C -0.18494 0.79761 0.86252
 C144 C -0.19851 0.80248 0.87023
 C145 C -0.20301 0.81611 0.86235
 H146 H -0.17790 0.78731 0.86507
 H147 H -0.21319 0.82336 0.86478
 N148 N -0.14870 0.80814 0.81880
 N149 N -0.14867 0.81909 0.80776
 C150 C -0.13657 0.81634 0.79786
 C151 C -0.12857 0.80297 0.80285
 C152 C -0.13663 0.79815 0.81621
 H153 H -0.13395 0.82344 0.78764
 H154 H -0.13408 0.78797 0.82341
 H155 H -0.17745 0.81825 0.81774
 H156 H -0.16445 0.83089 0.83031
 N157 N 0.94226 0.35151 0.43130
 N158 N 0.93129 0.35134 0.44220
 C159 C 0.93402 0.36317 0.45248
 C160 C 0.94749 0.37126 0.44780
 C161 C 0.95232 0.36343 0.43423
 H162 H 0.92677 0.36554 0.46267
 H163 H 0.96250 0.36598 0.42704
 Cu164 Cu 0.91471 0.33542 0.44223
 Cu165 Cu 0.94312 0.33591 0.41446
 Cu166 Cu 0.91461 0.30671 0.41465
 N167 N 0.89922 0.31844 0.44242
 N168 N 0.89921 0.30734 0.43160
 C169 C 0.88762 0.29698 0.43471
 C170 C 0.87988 0.30177 0.44829
 C171 C 0.88760 0.31549 0.45282
 H172 H 0.88520 0.28662 0.42768
 H173 H 0.88509 0.32273 0.46301
 N174 N 0.93119 0.30799 0.39850
 N175 N 0.94208 0.31909 0.39843
 C176 C 0.95206 0.31637 0.38640
 C177 C 0.94729 0.30286 0.37848
 C178 C 0.93395 0.29793 0.38651
 H179 H 0.96222 0.32359 0.38379
 H180 H 0.92690 0.28761 0.38402
 H181 H 0.91935 0.33065 0.41420
 H182 H 0.93214 0.31822 0.42715
 N183 N 0.44119 0.42987 0.85206
 N184 N 0.43068 0.44123 0.85152
 C185 C 0.43415 0.45203 0.86265
 C186 C 0.44755 0.44718 0.87070
 C187 C 0.45164 0.43300 0.86359
 H188 H 0.42732 0.46258 0.86477
 H189 H 0.46139 0.42537 0.86659
 Cu190 Cu 0.41318 0.44073 0.83666
 Cu191 Cu 0.44026 0.41164 0.83817
 Cu192 Cu 0.41403 0.41415 0.80699
 N193 N 0.39784 0.44107 0.81958
 N194 N 0.39831 0.43078 0.80800
 C195 C 0.38667 0.43397 0.79771
 C196 C 0.37842 0.44705 0.80305
 C197 C 0.38589 0.45121 0.81702
 H198 H 0.38451 0.42728 0.78708
 H199 H 0.38297 0.46095 0.82471
 N200 N 0.43074 0.39809 0.80814
 N201 N 0.44059 0.39702 0.82012
 C202 C 0.45070 0.38508 0.81741
 C203 C 0.44705 0.37823 0.80300
 C204 C 0.43428 0.38682 0.79751
 H205 H 0.46009 0.38175 0.82533
 H206 H 0.42808 0.38512 0.78652
 H207 H 0.43120 0.42545 0.82044
 H208 H 0.41674 0.41253 0.83088
 N209 N 0.80721 0.89925 0.93169
 N210 N 0.81823 0.89945 0.94257
 C211 C 0.81543 0.88778 0.95296
 C212 C 0.80189 0.87982 0.94837
 C213 C 0.79705 0.88747 0.93475
 H214 H 0.82260 0.88544 0.96322
 H215 H 0.78677 0.88488 0.92769
 Cu216 Cu 0.83464 0.91548 0.94238
 Cu217 Cu 0.80623 0.91484 0.91486
 Cu218 Cu 0.83548 0.94347 0.91445
 N219 N 0.85110 0.93146 0.94204
 N220 N 0.85135 0.94234 0.93103
 C221 C 0.86349 0.95219 0.93372
 C222 C 0.87132 0.94729 0.94722
 C223 C 0.86308 0.93404 0.95213
 H224 H 0.86621 0.96230 0.92648
 H225 H 0.86547 0.92691 0.96240
 N226 N 0.81835 0.94258 0.89875
 N227 N 0.80726 0.93167 0.89889
 C228 C 0.79695 0.93465 0.88721
 C229 C 0.80169 0.94815 0.87932
 C230 C 0.81537 0.95279 0.88697
 H231 H 0.78657 0.92766 0.88486
 H232 H 0.82250 0.96302 0.88439
 H233 H 0.83009 0.91970 0.91433
 H234 H 0.81761 0.93271 0.92696
 N235 N 0.30844 0.85191 0.31935
 N236 N 0.31864 0.85099 0.30775
 C237 C 0.31540 0.86233 0.29712
 C238 C 0.30244 0.87087 0.30234
 C239 C 0.29841 0.86387 0.31655
 H240 H 0.32193 0.86414 0.28635
 H241 H 0.28886 0.86712 0.32434
 Cu242 Cu 0.33483 0.83471 0.30769
 Cu243 Cu 0.30888 0.83753 0.33727
 Cu244 Cu 0.33510 0.80615 0.33493
 N245 N 0.35100 0.81844 0.30763
 N246 N 0.35089 0.80719 0.31828
 C247 C 0.36268 0.79703 0.31527
 C248 C 0.37067 0.80208 0.30194
 C249 C 0.36290 0.81578 0.29746
 H250 H 0.36505 0.78659 0.32218
 H251 H 0.36552 0.82315 0.28743
 N252 N 0.31828 0.80744 0.35089
 N253 N 0.30842 0.81944 0.35188
 C254 C 0.29817 0.81671 0.36368
 C255 C 0.30174 0.80228 0.37050
 C256 C 0.31460 0.79680 0.36206
 H257 H 0.28873 0.82461 0.36691
 H258 H 0.32076 0.78578 0.36376
 H259 H 0.33224 0.83003 0.33591
 H260 H 0.31735 0.81905 0.32392
 N261 N 0.80764 0.39881 0.43138
 N262 N 0.81886 0.39881 0.44205
 C263 C 0.81598 0.38725 0.45255
 C264 C 0.80218 0.37957 0.44825
 C265 C 0.79728 0.38727 0.43469
 H266 H 0.82332 0.38476 0.46265
 H267 H 0.78684 0.38485 0.42780
 Cu268 Cu 0.83590 0.41420 0.44166
 Cu269 Cu 0.80687 0.41418 0.41441
 Cu270 Cu 0.83597 0.44277 0.41401
 N271 N 0.85162 0.43095 0.44155
 N272 N 0.85161 0.44201 0.43073
 C273 C 0.86339 0.45222 0.43368
 C274 C 0.87127 0.44738 0.44716
 C275 C 0.86343 0.43378 0.45180
 H276 H 0.86586 0.46251 0.42660
 H277 H 0.86597 0.42655 0.46196
 N278 N 0.81914 0.44166 0.39808
 N279 N 0.80806 0.43076 0.39822
 C280 C 0.79797 0.43351 0.38627
 C281 C 0.80289 0.44685 0.37820
 C282 C 0.81640 0.45164 0.38605
 H283 H 0.78765 0.42646 0.38383
 H284 H 0.82360 0.46180 0.38341
 H285 H 0.83074 0.41891 0.41372
 H286 H 0.81848 0.43164 0.42690
 N287 N 0.93044 0.85140 -0.05799
 N288 N 0.94176 0.85089 -0.06853
 C289 C 0.95200 0.86269 -0.06566
 C290 C 0.94688 0.87104 -0.05255
 C291 C 0.93310 0.86350 -0.04806
 H292 H 0.96253 0.86484 -0.07246
 H293 H 0.92567 0.86634 -0.03812
 Cu294 Cu 0.94228 0.83456 -0.08465
 Cu295 Cu 0.91376 0.83565 -0.05706
 Cu296 Cu 0.91617 0.80489 -0.08390
 N297 N 0.94179 0.81856 -0.10112
 N298 N 0.93144 0.80704 -0.10082
 C299 C 0.93410 0.79725 -0.11303
 C300 C 0.94688 0.80289 -0.12150
 C301 C 0.95139 0.81650 -0.11358
 H302 H 0.92743 0.78662 -0.11527
 H303 H 0.96112 0.82420 -0.11645
 N304 N 0.89936 0.80646 -0.06803
 N305 N 0.89831 0.81830 -0.05797
 C306 C 0.88600 0.81575 -0.04831
 C307 C 0.87892 0.80158 -0.05244
 C308 C 0.88770 0.79610 -0.06508
 H309 H 0.88268 0.82350 -0.03876
 H310 H 0.88598 0.78521 -0.07149
 H311 H 0.92731 0.81813 -0.06637
 H312 H 0.91448 0.82896 -0.08063
 N313 N 0.30851 0.35182 0.81919
 N314 N 0.31961 0.35166 0.80842
 C315 C 0.31692 0.36343 0.79810
 C316 C 0.30340 0.37144 0.80265
 C317 C 0.29843 0.36367 0.81614
 H318 H 0.32422 0.36587 0.78797
 H319 H 0.28814 0.36628 0.82316
 Cu320 Cu 0.33632 0.33591 0.80862
 Cu321 Cu 0.30757 0.33630 0.83604
 Cu322 Cu 0.33629 0.30732 0.83624
 N323 N 0.35193 0.31904 0.80864
 N324 N 0.35192 0.30801 0.81950
 C325 C 0.36370 0.29780 0.81658
 C326 C 0.37159 0.30261 0.80310
 C327 C 0.36372 0.31618 0.79841
 H328 H 0.36618 0.28753 0.82369
 H329 H 0.36628 0.32339 0.78824
 N330 N 0.31948 0.30854 0.85219
 N331 N 0.30854 0.31958 0.85211
 C332 C 0.29841 0.31686 0.86401
 C333 C 0.30314 0.30340 0.87201
 C334 C 0.31661 0.29851 0.86415
 H335 H 0.28817 0.32401 0.86647
 H336 H 0.32367 0.28823 0.86673
 H337 H 0.33136 0.33119 0.83656
 H338 H 0.31881 0.31862 0.82347
 N339 N 0.14878 0.56872 0.55741
 N340 N 0.14898 0.55775 0.56834
 C341 C 0.13732 0.54735 0.56545
 C342 C 0.12935 0.55203 0.55195
 C343 C 0.13699 0.56570 0.54724
 H344 H 0.13502 0.53700 0.57251
 H345 H 0.13437 0.57287 0.53705
 Cu346 Cu 0.16511 0.55795 0.58467
 Cu347 Cu 0.16437 0.58563 0.55656
 Cu348 Cu 0.19333 0.58557 0.58555
 N349 N 0.18141 0.55769 0.60083
 N350 N 0.19239 0.56862 0.60108
 C351 C 0.20253 0.56556 0.61289
 C352 C 0.19774 0.55190 0.62049
 C353 C 0.18423 0.54727 0.61247
 H354 H 0.21274 0.57270 0.61555
 H355 H 0.17712 0.53695 0.61474
 N356 N 0.19221 0.60164 0.56875
 N357 N 0.18120 0.60166 0.55775
 C358 C 0.18399 0.61364 0.54773
 C359 C 0.19744 0.62158 0.55257
 C360 C 0.20228 0.61361 0.56599
 H361 H 0.17686 0.61621 0.53750
 H362 H 0.21252 0.61614 0.57312
 H363 H 0.18224 0.57338 0.56763
 H364 H 0.16957 0.58606 0.58036
 N365 N 0.60137 0.68120 0.05757
 N366 N 0.60152 0.69192 0.06877
 C367 C 0.61342 0.70209 0.06606
 C368 C 0.62116 0.69752 0.05238
 C369 C 0.61313 0.68416 0.04738
 H370 H 0.61610 0.71215 0.07342
 H371 H 0.61547 0.67719 0.03696
 Cu372 Cu 0.58584 0.69190 0.08552
 Cu373 Cu 0.58555 0.66464 0.05653
 Cu374 Cu 0.55681 0.66476 0.08545
 N375 N 0.56919 0.69204 0.10132
 N376 N 0.55797 0.68136 0.10124
 C377 C 0.54786 0.68438 0.11307
 C378 C 0.55294 0.69773 0.12106
 C379 C 0.56657 0.70224 0.11323
 H380 H 0.53746 0.67745 0.11547
 H381 H 0.57398 0.71228 0.11587
 N382 N 0.55758 0.64894 0.06846
 N383 N 0.56852 0.64889 0.05744
 C384 C 0.56547 0.63712 0.04719
 C385 C 0.55189 0.62938 0.05193
 C386 C 0.54727 0.63721 0.06551
 H387 H 0.57250 0.63459 0.03689
 H388 H 0.53701 0.63477 0.07261
 H389 H 0.56822 0.67739 0.06800
 H390 H 0.58062 0.66402 0.08037
 N391 N 0.68132 0.19240 0.64873
 N392 N 0.69160 0.18084 0.64816
 C393 C 0.70158 0.18341 0.63610
 C394 C 0.69734 0.19736 0.62866
 C395 C 0.68437 0.20269 0.63706
 H396 H 0.71128 0.17573 0.63308
 H397 H 0.67767 0.21332 0.63497
 Cu398 Cu 0.69145 0.16380 0.66357
 Cu399 Cu 0.66492 0.19344 0.66468
 Cu400 Cu 0.66260 0.16220 0.69085
 N401 N 0.69188 0.14862 0.68080
 N402 N 0.68063 0.14805 0.69139
 C403 C 0.68371 0.13636 0.70165
 C404 C 0.69775 0.12916 0.69734
 C405 C 0.70257 0.13732 0.68402
 H406 H 0.67618 0.13333 0.71145
 H407 H 0.71304 0.13520 0.67709
 N408 N 0.64811 0.18035 0.69144
 N409 N 0.64910 0.19233 0.68160
 C410 C 0.63794 0.20300 0.68529
 C411 C 0.62948 0.19754 0.69815
 C412 C 0.63631 0.18310 0.70170
 H413 H 0.63620 0.21399 0.67911
 H414 H 0.63305 0.17518 0.71111
 H415 H 0.67632 0.17999 0.68176
 H416 H 0.66334 0.16950 0.66734
 N417 N 1.09962 0.06700 0.19393
 N418 N 1.10053 0.05700 0.18212
 C419 C 1.11317 0.04764 0.18421
 C420 C 1.12056 0.05193 0.19820
 C421 C 1.11158 0.06434 0.20397
 H422 H 1.11644 0.03813 0.17638
 H423 H 1.11324 0.07067 0.21492
 Cu424 Cu 1.08399 0.05630 0.16626
 Cu425 Cu 1.08200 0.08159 0.19627
 Cu426 Cu 1.05923 0.08676 0.16256
 N427 N 1.06767 0.05629 0.15017
 N428 N 1.05793 0.06827 0.14883
 C429 C 1.04783 0.06543 0.13693
 C430 C 1.05131 0.05077 0.13047
 C431 C 1.06402 0.04535 0.13923
 H432 H 1.03868 0.07351 0.13330
 H433 H 1.07015 0.03426 0.13784
 N434 N 1.05821 0.10100 0.18099
 N435 N 1.06670 0.09888 0.19386
 C436 C 1.06290 0.11005 0.20448
 C437 C 1.05133 0.11966 0.19810
 C438 C 1.04869 0.11354 0.18315
 H439 H 1.06805 0.11093 0.21610
 H440 H 1.04034 0.11774 0.17450
 H441 H 1.06512 0.07240 0.18066
 H442 H 1.08171 0.08431 0.17255
 N443 N 0.06821 0.14919 1.05708
 N444 N 0.05741 0.14930 1.06816
 C445 C 0.04703 0.13761 1.06533
 C446 C 0.05155 0.12970 1.05172
 C447 C 0.06510 0.13743 1.04687
 H448 H 0.03686 0.13517 1.07257
 H449 H 0.07214 0.13487 1.03657
 Cu450 Cu 0.05760 0.16495 1.08500
 Cu451 Cu 0.08505 0.16471 1.05625
 Cu452 Cu 0.08513 0.19371 1.08501
 N453 N 0.05751 0.18191 1.10052
 N454 N 0.06832 0.19300 1.10056
 C455 C 0.06525 0.20329 1.11226
 C456 C 0.05171 0.19846 1.12002
 C457 C 0.04716 0.18480 1.11220
 H458 H 0.07229 0.21362 1.11475
 H459 H 0.03699 0.17756 1.11468
 N460 N 0.10114 0.19249 1.06826
 N461 N 0.10111 0.18143 1.05731
 C462 C 0.11297 0.18420 1.04716
 C463 C 0.12089 0.19772 1.05187
 C464 C 0.11304 0.20260 1.06536
 H465 H 0.11543 0.17704 1.03691
 H466 H 0.11557 0.21293 1.07239
 H467 H 0.08553 0.16982 1.08009
 H468 H 0.07239 0.18231 1.06755
 N469 N 0.14920 0.69286 0.68161
 N470 N 0.14963 0.68203 0.69267
 C471 C 0.13798 0.68485 0.70308
 C472 C 0.12980 0.69820 0.69833
 C473 C 0.13730 0.70290 0.68459
 H474 H 0.13577 0.67780 0.71345
 H475 H 0.13452 0.71302 0.67737
 Cu476 Cu 0.16585 0.66579 0.69267
 Cu477 Cu 0.16458 0.69364 0.66458
 Cu478 Cu 0.19354 0.66477 0.66442
 N479 N 0.18214 0.64962 0.69249
 N480 N 0.19291 0.64929 0.68138
 C481 C 0.20300 0.63739 0.68426
 C482 C 0.19839 0.62981 0.69798
 C483 C 0.18504 0.63793 0.70284
 H484 H 0.21308 0.63468 0.67699
 H485 H 0.17807 0.63565 0.71323
 N486 N 0.19221 0.68148 0.64834
 N487 N 0.18119 0.69246 0.64840
 C488 C 0.18383 0.70247 0.63637
 C489 C 0.19719 0.69763 0.62832
 C490 C 0.20213 0.68423 0.63627
 H491 H 0.17666 0.71270 0.63386
 H492 H 0.21236 0.67712 0.63366
 H493 H 0.16971 0.66978 0.66451
 H494 H 0.18266 0.68275 0.67678
 N495 N 1.18189 0.14936 0.19275
 N496 N 1.19265 0.14941 0.18164
 C497 C 1.20299 0.13767 0.18442
 C498 C 1.19850 0.12983 0.19804
 C499 C 1.18500 0.13762 0.20295
 H500 H 1.21313 0.13518 0.17714
 H501 H 1.17802 0.13516 0.21330
 Cu502 Cu 1.19253 0.16514 0.16492
 Cu503 Cu 1.16511 0.16495 0.19368
 Cu504 Cu 1.16508 0.19394 0.16498
 N505 N 1.19261 0.18200 0.14933
 N506 N 1.18184 0.19314 0.14938
 C507 C 1.18492 0.20342 0.13771
 C508 C 1.19840 0.19855 0.12987
 C509 C 1.20291 0.18485 0.13761
 H510 H 1.17793 0.21380 0.13531
 H511 H 1.21304 0.17756 0.13505
 N512 N 1.14912 0.19281 0.18177
 N513 N 1.14913 0.18176 0.19270
 C514 C 1.13726 0.18455 0.20284
 C515 C 1.12936 0.19807 0.19814
 C516 C 1.13723 0.20292 0.18468
 H517 H 1.13476 0.17740 0.21306
 H518 H 1.13470 0.21323 0.17764
 H519 H 1.16459 0.17003 0.16985
 H520 H 1.17773 0.18251 0.18243
 N521 N 0.64856 1.05822 0.56905
 N522 N 0.64783 1.07000 0.55903
 C523 C 0.63548 1.06773 0.54930
 C524 C 0.62806 1.05373 0.55342
 C525 C 0.63673 1.04808 0.56607
 H526 H 0.63230 1.07560 0.53981
 H527 H 0.63483 1.03725 0.57250
 Cu528 Cu 0.66353 1.08678 0.55917
 Cu529 Cu 0.66537 1.05636 0.58449
 Cu530 Cu 0.69220 1.08697 0.58681
 N531 N 0.68032 1.10244 0.55909
 N532 N 0.69128 1.10259 0.57003
 C533 C 0.70150 1.11434 0.56702
 C534 C 0.69676 1.12203 0.55340
 C535 C 0.68322 1.11411 0.54873
 H536 H 0.71175 1.11688 0.57414
 H537 H 0.67607 1.11651 0.53846
 N538 N 0.69125 1.06978 0.60240
 N539 N 0.68116 1.05799 0.60139
 C540 C 0.68396 1.04778 0.61321
 C541 C 0.69653 1.05332 0.62208
 C542 C 0.70079 1.06735 0.61486
 H543 H 0.67748 1.03696 0.61501
 H544 H 0.71032 1.07512 0.61821
 H545 H 0.66866 1.08040 0.58668
 H546 H 0.68236 1.06995 0.57291
 N547 N 0.56840 0.55733 0.14892
 N548 N 0.55772 0.56854 0.14878
 C549 C 0.54741 0.56566 0.13704
 C550 C 0.55183 0.55186 0.12939
 C551 C 0.56527 0.54696 0.13730
 H552 H 0.53734 0.57300 0.13440
 H553 H 0.57218 0.53651 0.13500
 Cu554 Cu 0.55790 0.58553 0.16429
 Cu555 Cu 0.58510 0.55652 0.16462
 Cu556 Cu 0.58522 0.58577 0.19317
 N557 N 0.55790 0.60149 0.18085
 N558 N 0.56861 0.60154 0.19203
 C559 C 0.56564 0.61347 0.20208
 C560 C 0.55227 0.62139 0.19699
 C561 C 0.54772 0.61341 0.18343
 H562 H 0.57261 0.61600 0.21243
 H563 H 0.53766 0.61595 0.17605
 N564 N 0.60104 0.56878 0.19240
 N565 N 0.60100 0.55766 0.18150
 C566 C 0.61280 0.54747 0.18449
 C567 C 0.62067 0.55234 0.19798
 C568 C 0.61286 0.56595 0.20261
 H569 H 0.61528 0.53711 0.17749
 H570 H 0.61541 0.57316 0.21281
 H571 H 0.57251 0.56818 0.18194
 H572 H 0.58578 0.58046 0.16937
 N573 N 0.64855 0.68123 0.19188
 N574 N 0.64871 0.69221 0.18097
 C575 C 0.63678 0.70235 0.18366
 C576 C 0.62870 0.69749 0.19702
 C577 C 0.63656 0.68398 0.20185
 H578 H 0.63432 0.71262 0.17654
 H579 H 0.63395 0.67676 0.21201
 Cu580 Cu 0.66498 0.69243 0.16478
 Cu581 Cu 0.66438 0.66461 0.19293
 Cu582 Cu 0.69323 0.66470 0.16401
 N583 N 0.68113 0.69232 0.14849
 N584 N 0.69208 0.68136 0.14826
 C585 C 0.70202 0.68418 0.13625
 C586 C 0.69712 0.69769 0.12846
 C587 C 0.68376 0.70250 0.13659
 H588 H 0.71219 0.67700 0.13359
 H589 H 0.67659 0.71275 0.13418
 N590 N 0.69240 0.64889 0.18099
 N591 N 0.68143 0.64885 0.19199
 C592 C 0.68447 0.63712 0.20223
 C593 C 0.69806 0.62937 0.19752
 C594 C 0.70270 0.63718 0.18395
 H595 H 0.67743 0.63461 0.21253
 H596 H 0.71299 0.63473 0.17688
 H597 H 0.68216 0.67703 0.18189
 H598 H 0.66943 0.66436 0.16912
 N599 N 0.14971 0.06790 1.05674
 N600 N 0.14993 0.05685 1.06759
 C601 C 0.13819 0.04655 1.06471
 C602 C 0.13017 0.05135 1.05128
 C603 C 0.13785 0.06501 1.04661
 H604 H 0.13586 0.03618 1.07172
 H605 H 0.13520 0.07226 1.03648
 Cu606 Cu 0.16612 0.05675 1.08384
 Cu607 Cu 0.16537 0.08470 1.05590
 Cu608 Cu 0.19427 0.08451 1.08489
 N609 N 0.18231 0.05665 1.10009
 N610 N 0.19325 0.06762 1.10042
 C611 C 0.20331 0.06461 1.11230
 C612 C 0.19850 0.05094 1.11987
 C613 C 0.18506 0.04626 1.11177
 H614 H 0.21348 0.07177 1.11503
 H615 H 0.17796 0.03594 1.11401
 N616 N 0.19327 0.10054 1.06809
 N617 N 0.18229 0.10062 1.05708
 C618 C 0.18525 0.11247 1.04696
 C619 C 0.19880 0.12025 1.05176
 C620 C 0.20350 0.11234 1.06526
 H621 H 0.17820 0.11502 1.03667
 H622 H 0.21380 0.11477 1.07235
 H623 H 0.18323 0.07236 1.06688
 H624 H 0.17049 0.08489 1.07970
 N625 N 0.60177 0.19239 0.56855
 N626 N 0.60152 0.18137 0.55763
 C627 C 0.61343 0.18392 0.54746
 C628 C 0.62160 0.19730 0.55222
 C629 C 0.61382 0.20230 0.56571
 H630 H 0.61582 0.17667 0.53725
 H631 H 0.61651 0.21252 0.57285
 Cu632 Cu 0.58521 0.16522 0.55757
 Cu633 Cu 0.58600 0.19363 0.58519
 Cu634 Cu 0.55703 0.16474 0.58528
 N635 N 0.56898 0.14898 0.55773
 N636 N 0.55806 0.14886 0.56870
 C637 C 0.54804 0.13687 0.56593
 C638 C 0.55285 0.12898 0.55244
 C639 C 0.56624 0.13703 0.54759
 H640 H 0.53787 0.13431 0.57313
 H641 H 0.57336 0.13453 0.53733
 N642 N 0.55798 0.18185 0.60100
 N643 N 0.56898 0.19285 0.60098
 C644 C 0.56599 0.20318 0.61268
 C645 C 0.55240 0.19852 0.62045
 C646 C 0.54772 0.18489 0.61270
 H647 H 0.57306 0.21349 0.61514
 H648 H 0.53743 0.17783 0.61519
 H649 H 0.58086 0.16981 0.58558
 H650 H 0.56815 0.18253 0.57288
 N651 N 0.10057 0.56785 0.69337
 N652 N 0.10032 0.55678 0.68250
 C653 C 0.11206 0.54647 0.68535
 C654 C 0.12012 0.55131 0.69876
 C655 C 0.11245 0.56499 0.70346
 H656 H 0.11439 0.53610 0.67831
 H657 H 0.11508 0.57222 0.71363
 Cu658 Cu 0.08410 0.55662 0.66627
 Cu659 Cu 0.08493 0.58468 0.69422
 Cu660 Cu 0.05605 0.58448 0.66524
 N661 N 0.06791 0.55656 0.65001
 N662 N 0.05701 0.56756 0.64969
 C663 C 0.04696 0.56457 0.63779
 C664 C 0.05173 0.55087 0.63019
 C665 C 0.06513 0.54616 0.63830
 H666 H 0.03678 0.57173 0.63511
 H667 H 0.07222 0.53581 0.63603
 N668 N 0.05707 0.60053 0.68204
 N669 N 0.06804 0.60061 0.69306
 C670 C 0.06510 0.61250 0.70319
 C671 C 0.05157 0.62029 0.69838
 C672 C 0.04687 0.61236 0.68487
 H673 H 0.07214 0.61507 0.71349
 H674 H 0.03659 0.61479 0.67776
 H675 H 0.06703 0.57229 0.68326
 H676 H 0.07983 0.58475 0.67042
 N677 N 0.64889 0.55729 0.06821
 N678 N 0.64870 0.56861 0.05765
 C679 C 0.63695 0.56582 0.04732
 C680 C 0.62933 0.55198 0.05162
 C681 C 0.63728 0.54696 0.06499
 H682 H 0.63429 0.57323 0.03732
 H683 H 0.63500 0.53644 0.07181
 Cu684 Cu 0.66410 0.58566 0.05800
 Cu685 Cu 0.66460 0.55636 0.08487
 Cu686 Cu 0.69309 0.58558 0.08523
 N687 N 0.68071 0.60154 0.05810
 N688 N 0.69193 0.60149 0.06878
 C689 C 0.70196 0.61343 0.06587
 C690 C 0.69683 0.62146 0.05258
 C691 C 0.68327 0.61353 0.04801
 H692 H 0.71234 0.61589 0.07284
 H693 H 0.67588 0.61613 0.03797
 N694 N 0.69236 0.56847 0.10090
 N695 N 0.68149 0.55736 0.10078
 C696 C 0.68449 0.54709 0.11250
 C697 C 0.69797 0.55191 0.12042
 C698 C 0.70257 0.56557 0.11270
 H699 H 0.67750 0.53673 0.11490
 H700 H 0.71275 0.57277 0.11530
 H701 H 0.66925 0.58034 0.08581
 H702 H 0.68179 0.56819 0.07231
 N703 N 0.06854 0.69291 0.60078
 N704 N 0.05771 0.68184 0.60073
 C705 C 0.04747 0.68461 0.61256
 C706 C 0.05207 0.69825 0.62040
 C707 C 0.06557 0.70311 0.61257
 H708 H 0.03723 0.67743 0.61502
 H709 H 0.07274 0.71332 0.61515
 Cu710 Cu 0.05763 0.66542 0.58463
 Cu711 Cu 0.08537 0.69365 0.58522
 Cu712 Cu 0.08738 0.66250 0.55871
 N713 N 0.05753 0.64953 0.56801
 N714 N 0.06917 0.64851 0.55787
 C715 C 0.06617 0.63670 0.54767
 C716 C 0.05180 0.62991 0.55156
 C717 C 0.04672 0.63837 0.56462
 H718 H 0.07404 0.63327 0.53827
 H719 H 0.03588 0.63667 0.57108
 N720 N 0.10239 0.68029 0.55864
 N721 N 0.10152 0.69220 0.56863
 C722 C 0.11300 0.70263 0.56528
 C723 C 0.12154 0.69711 0.55250
 C724 C 0.11442 0.68288 0.54862
 H725 H 0.11487 0.71353 0.57164
 H726 H 0.11763 0.67501 0.53912
 H727 H 0.07428 0.68089 0.56747
 H728 H 0.08602 0.66958 0.58234
 N729 N 0.56905 1.05815 0.64777
 N730 N 0.55798 1.06897 0.64804
 C731 C 0.54786 1.06629 0.63608
 C732 C 0.55279 1.05295 0.62785
 C733 C 0.56637 1.04819 0.63570
 H734 H 0.53758 1.07342 0.63375
 H735 H 0.57368 1.03808 0.63311
 Cu736 Cu 0.55773 1.08510 0.66446
 Cu737 Cu 0.58576 1.05723 0.66355
 Cu738 Cu 0.58534 1.08596 0.69275
 N739 N 0.55745 1.10121 0.68089
 N740 N 0.56838 1.10148 0.69186
 C741 C 0.56534 1.11331 0.70201
 C742 C 0.55168 1.12099 0.69722
 C743 C 0.54708 1.11293 0.68366
 H744 H 0.57247 1.11584 0.71226
 H745 H 0.53686 1.11521 0.67643
 N746 N 0.60146 1.06922 0.69164
 N747 N 0.60161 1.05828 0.68055
 C748 C 0.61362 1.04828 0.68334
 C749 C 0.62145 1.05307 0.69688
 C750 C 0.61338 1.06644 0.70177
 H751 H 0.61630 1.03812 0.67613
 H752 H 0.61583 1.07353 0.71207
 H753 H 0.57327 1.06801 0.68149
 H754 H 0.58575 1.08104 0.66889
 N755 N 0.44166 0.35220 0.93073
 N756 N 0.43060 0.35210 0.94154
 C757 C 0.43333 0.36390 0.95185
 C758 C 0.44690 0.37191 0.94730
 C759 C 0.45178 0.36405 0.93375
 H760 H 0.42599 0.36636 0.96195
 H761 H 0.46201 0.36657 0.92662
 Cu762 Cu 0.41393 0.33628 0.94143
 Cu763 Cu 0.44256 0.33656 0.91391
 Cu764 Cu 0.41378 0.30758 0.91387
 N765 N 0.39820 0.31951 0.94146
 N766 N 0.39820 0.30839 0.93066
 C767 C 0.38646 0.29816 0.93366
 C768 C 0.37861 0.30305 0.94714
 C769 C 0.38643 0.31670 0.95173
 H770 H 0.38398 0.28784 0.92659
 H771 H 0.38385 0.32401 0.96185
 N772 N 0.43054 0.30869 0.89788
 N773 N 0.44151 0.31971 0.89788
 C774 C 0.45153 0.31694 0.88589
 C775 C 0.44669 0.30348 0.87792
 C776 C 0.43329 0.29862 0.88589
 H777 H 0.46175 0.32409 0.88333
 H778 H 0.42617 0.28837 0.88334
 H779 H 0.41877 0.33147 0.91344
 H780 H 0.43136 0.31894 0.92647
 N781 N 0.94201 0.43088 0.35198
 N782 N 0.93081 0.44158 0.35216
 C783 C 0.93331 0.45153 0.36431
 C784 C 0.94689 0.44685 0.37225
 C785 C 0.95200 0.43361 0.36401
 H786 H 0.92588 0.46152 0.36699
 H787 H 0.96236 0.42658 0.36629
 Cu788 Cu 0.91425 0.44165 0.33617
 Cu789 Cu 0.94352 0.41502 0.33537
 Cu790 Cu 0.91480 0.41525 0.30664
 N791 N 0.89824 0.44179 0.31964
 N792 N 0.89834 0.43118 0.30831
 C793 C 0.88637 0.43408 0.29833
 C794 C 0.87826 0.44728 0.30359
 C795 C 0.88616 0.45182 0.31721
 H796 H 0.88400 0.42722 0.28785
 H797 H 0.88348 0.46180 0.32468
 N798 N 0.93089 0.39854 0.30808
 N799 N 0.94190 0.39844 0.31908
 C800 C 0.95152 0.38606 0.31659
 C801 C 0.94642 0.37796 0.30331
 C802 C 0.93323 0.38622 0.29832
 H803 H 0.96168 0.38336 0.32377
 H804 H 0.92601 0.38368 0.28813
 H805 H 0.93194 0.42790 0.31837
 H806 H 0.91968 0.41415 0.33050
 N807 N 0.30825 0.93139 0.39860
 N808 N 0.31933 0.94222 0.39861
 C809 C 0.31667 0.95231 0.38665
 C810 C 0.30316 0.94759 0.37869
 C811 C 0.29820 0.93421 0.38667
 H812 H 0.32395 0.96244 0.38406
 H813 H 0.28790 0.92713 0.38418
 Cu814 Cu 0.33586 0.94243 0.41459
 Cu815 Cu 0.30723 0.91484 0.41444
 Cu816 Cu 0.33577 0.91532 0.44363
 N817 N 0.35138 0.94282 0.43154
 N818 N 0.35135 0.93213 0.44273
 C819 C 0.36299 0.93532 0.45302
 C820 C 0.37084 0.94885 0.44813
 C821 C 0.36306 0.95322 0.43436
 H822 H 0.36532 0.92835 0.46342
 H823 H 0.36555 0.96328 0.42697
 N824 N 0.31899 0.89928 0.44259
 N825 N 0.30811 0.89911 0.43148
 C826 C 0.29796 0.88725 0.43438
 C827 C 0.30261 0.87956 0.44803
 C828 C 0.31605 0.88753 0.45285
 H829 H 0.28778 0.88462 0.42720
 H830 H 0.32304 0.88517 0.46322
 H831 H 0.31832 0.92775 0.43197
 H832 H 0.33101 0.91450 0.41973
 O833 O 0.24866 0.54183 0.72931
 O834 O 0.27591 0.53699 0.73159
 O835 O 0.22975 0.50063 0.70799
 O836 O 0.23024 0.47435 0.71242
 O837 O 0.20807 0.51999 0.74899
 O838 O 0.21382 0.51853 0.77667
 O839 O 0.27151 0.45904 0.75094
 O840 O 0.26799 0.46325 0.72380
 O841 O 0.29127 0.49890 0.77051
 O842 O 0.28570 0.52758 0.76897
 O843 O 0.25195 0.47934 0.79093
 O844 O 0.22338 0.48033 0.78573
 O845 O 0.25261 0.45887 0.77002
 O846 O 0.22311 0.46410 0.76806
 O847 O 0.27069 0.49857 0.79104
 O848 O 0.26817 0.52788 0.78534
 O849 O 0.29127 0.47953 0.75186
 O850 O 0.28642 0.48494 0.72310
 O851 O 0.22991 0.54182 0.74861
 O852 O 0.23169 0.53610 0.77677
 O853 O 0.20807 0.50091 0.73000
 O854 O 0.21460 0.47231 0.73278
 O855 O 0.24828 0.52012 0.70801
 O856 O 0.27690 0.51643 0.71392
 Zr857 Zr 0.25852 0.51908 0.73066
 O858 O 0.27382 0.50551 0.74476
 Zr859 Zr 0.23090 0.49113 0.73089
 O860 O 0.24527 0.47617 0.74456
 Zr861 Zr 0.23093 0.51902 0.75859
 O862 O 0.24489 0.50511 0.77373
 Zr863 Zr 0.26914 0.48151 0.74083
 O864 O 0.25484 0.49500 0.72544
 Zr865 Zr 0.26878 0.50922 0.76872
 O866 O 0.25481 0.52436 0.75468
 Zr867 Zr 0.24142 0.48106 0.76854
 O868 O 0.22578 0.49496 0.75488
 O869 O 0.23477 0.51495 0.73482
 O870 O 0.26520 0.48529 0.76473
 C871 C 0.23752 0.54836 0.73725
 C872 C 0.23722 0.51208 0.70147
 C873 C 0.20151 0.51213 0.73781
 C874 C 0.26417 0.45262 0.76250
 C875 C 0.29761 0.48720 0.76328
 C876 C 0.26338 0.48693 0.79733
 H877 H 0.28489 0.50806 0.74219
 H878 H 0.24232 0.50757 0.78483
 H879 H 0.22796 0.52162 0.72812
 H880 H 0.24307 0.46501 0.74194
 H881 H 0.26462 0.46826 0.71381
 H882 H 0.23786 0.46597 0.71517
 H883 H 0.25960 0.52566 0.79291
 H884 H 0.24189 0.54167 0.77569
 H885 H 0.29392 0.47598 0.72366
 H886 H 0.27581 0.52483 0.70586
 H887 H 0.22418 0.49007 0.79213
 H888 H 0.20893 0.50793 0.77626
 H889 H 0.27546 0.54158 0.74232
 H890 H 0.29236 0.52637 0.75948
 H891 H 0.20833 0.47426 0.74242
 H892 H 0.22543 0.45652 0.75949
 O893 O 0.20832 0.02056 0.24876
 O894 O 0.21343 0.01834 0.27598
 O895 O 0.24916 0.04173 0.22935
 O896 O 0.27536 0.03726 0.22937
 O897 O 0.22955 0.00047 0.20801
 O898 O 0.23110 -0.02719 0.21391
 O899 O 0.29125 -0.00093 0.27071
 O900 O 0.28694 0.02619 0.26716
 O901 O 0.25187 -0.02045 0.29108
 O902 O 0.22318 -0.01904 0.28593
 O903 O 0.27076 -0.04122 0.25143
 O904 O 0.26950 -0.03612 0.22295
 O905 O 0.29118 -0.02022 0.25192
 O906 O 0.28560 -0.01836 0.22242
 O907 O 0.25185 -0.04121 0.27045
 O908 O 0.22258 -0.03545 0.26842
 O909 O 0.27110 -0.00171 0.29079
 O910 O 0.26551 0.02701 0.28584
 O911 O 0.20810 0.00109 0.23010
 O912 O 0.21382 -0.02712 0.23202
 O913 O 0.24855 0.01949 0.20771
 O914 O 0.27723 0.01679 0.21391
 O915 O 0.22998 0.04185 0.24816
 O916 O 0.23394 0.03605 0.27674
 Zr917 Zr 0.23113 0.01920 0.25841
 O918 O 0.24490 0.00519 0.27360
 Zr919 Zr 0.25864 0.01880 0.23042
 O920 O 0.27379 0.00523 0.24467
 Zr921 Zr 0.23086 -0.00894 0.23093
 O922 O 0.24497 -0.02399 0.24476
 Zr923 Zr 0.26878 0.00913 0.26860
 O924 O 0.25509 0.02442 0.25439
 Zr925 Zr 0.24121 -0.01883 0.26871
 O926 O 0.22586 -0.00488 0.25487
 Zr927 Zr 0.26891 -0.01881 0.24096
 O928 O 0.25478 -0.00526 0.22544
 O929 O 0.23493 0.01490 0.23461
 O930 O 0.26503 -0.01484 0.26481
 C931 C 0.20169 0.01257 0.23770
 C932 C 0.23787 0.04833 0.23699
 C933 C 0.23730 0.01161 0.20130
 C934 C 0.29756 -0.01257 0.26336
 C935 C 0.26358 -0.01311 0.29727
 C936 C 0.26333 -0.04759 0.26294
 H937 H 0.24251 0.00784 0.28470
 H938 H 0.24249 -0.03511 0.24225
 H939 H 0.22821 0.02158 0.22785
 H940 H 0.28490 0.00785 0.24232
 H941 H 0.28186 0.03617 0.26383
 H942 H 0.28375 0.03467 0.23703
 H943 H 0.22461 -0.04301 0.25976
 H944 H 0.20835 -0.02590 0.24226
 H945 H 0.27454 0.02654 0.29324
 H946 H 0.22551 0.04410 0.27574
 H947 H 0.25971 -0.04241 0.22376
 H948 H 0.24159 -0.02679 0.20881
 H949 H 0.20888 0.00759 0.27561
 H950 H 0.22435 -0.00942 0.29244
 H951 H 0.27520 0.00711 0.20766
 H952 H 0.29327 -0.00986 0.22471
 O953 O 0.47989 0.79249 0.25085
 O954 O 0.48218 0.78743 0.22364
 O955 O 0.45834 0.75157 0.26990
 O956 O 0.46271 0.72526 0.26975
 O957 O 0.49933 0.77097 0.29170
 O958 O 0.52700 0.76919 0.28612
 O959 O 0.50115 0.70944 0.22857
 O960 O 0.47408 0.71382 0.23193
 O961 O 0.52089 0.74912 0.20865
 O962 O 0.51953 0.77780 0.21411
 O963 O 0.54122 0.72969 0.24821
 O964 O 0.53599 0.73082 0.27670
 O965 O 0.52019 0.70929 0.24756
 O966 O 0.51818 0.71477 0.27706
 O967 O 0.54141 0.74878 0.22936
 O968 O 0.53585 0.77810 0.23168
 O969 O 0.50218 0.72984 0.20866
 O970 O 0.47345 0.73541 0.21345
 O971 O 0.49917 0.79253 0.26967
 O972 O 0.52731 0.78658 0.26810
 O973 O 0.48028 0.75200 0.29173
 O974 O 0.48301 0.72328 0.28541
 O975 O 0.45849 0.77094 0.25126
 O976 O 0.46444 0.76696 0.22271
 Zr977 Zr 0.48115 0.76967 0.24115
 O978 O 0.49521 0.75592 0.22598
 Zr979 Zr 0.48120 0.74196 0.26897
 O980 O 0.49482 0.72681 0.25471
 Zr981 Zr 0.50901 0.76966 0.26888
 O982 O 0.52409 0.75557 0.25505
 Zr983 Zr 0.49116 0.73198 0.23078
 O984 O 0.47582 0.74566 0.24497
 Zr985 Zr 0.51915 0.75954 0.23111
 O986 O 0.50517 0.77486 0.24495
 Zr987 Zr 0.51881 0.73158 0.25862
 O988 O 0.50520 0.74568 0.27416
 O989 O 0.48523 0.76572 0.26495
 O990 O 0.51506 0.73565 0.23478
 C991 C 0.48785 0.79906 0.26197
 C992 C 0.45189 0.76299 0.26232
 C993 C 0.48809 0.76325 0.29826
 C994 C 0.51264 0.70299 0.23600
 C995 C 0.51360 0.73745 0.20231
 C996 C 0.54766 0.73717 0.23676
 H997 H 0.49267 0.75841 0.21488
 H998 H 0.53518 0.75799 0.25766
 H999 H 0.47854 0.77248 0.27169
 H1000 H 0.49214 0.71569 0.25697
 H1001 H 0.46412 0.71889 0.23528
 H1002 H 0.46536 0.71688 0.26208
 H1003 H 0.54336 0.77592 0.24032
 H1004 H 0.52629 0.79210 0.25788
 H1005 H 0.47401 0.72643 0.20595
 H1006 H 0.45642 0.77542 0.22370
 H1007 H 0.54226 0.74063 0.27604
 H1008 H 0.52648 0.75866 0.29112
 H1009 H 0.49291 0.79199 0.22411
 H1010 H 0.51004 0.77663 0.20743
 H1011 H 0.49260 0.72528 0.29177
 H1012 H 0.50960 0.70721 0.27473
 O1013 O 0.04178 0.72916 0.74909
 O1014 O 0.03674 0.73170 0.77631
 O1015 O 0.00068 0.70807 0.72993
 O1016 O -0.02552 0.71272 0.73002
 O1017 O 0.02046 0.74888 0.70821
 O1018 O 0.01910 0.77664 0.71387
 O1019 O -0.04094 0.75147 0.77111
 O1020 O -0.03686 0.72426 0.76768
 O1021 O -0.00124 0.77084 0.79119
 O1022 O 0.02744 0.76912 0.78590
 O1023 O -0.02031 0.79133 0.75163
 O1024 O -0.01911 0.78602 0.72307
 O1025 O -0.04086 0.77053 0.75216
 O1026 O -0.03539 0.76841 0.72268
 O1027 O -0.00127 0.79137 0.77055
 O1028 O 0.02794 0.78549 0.76837
 O1029 O -0.02066 0.75227 0.79105
 O1030 O -0.01535 0.72345 0.78630
 O1031 O 0.04204 0.74844 0.73030
 O1032 O 0.03646 0.77670 0.73193
 O1033 O 0.00133 0.72999 0.70811
 O1034 O -0.02726 0.73303 0.71432
 O1035 O 0.01997 0.70804 0.74866
 O1036 O 0.01615 0.71411 0.77719
 Zr1037 Zr 0.01900 0.73077 0.75876
 O1038 O 0.00538 0.74501 0.77388
 Zr1039 Zr -0.00866 0.73107 0.73084
 O1040 O -0.02366 0.74489 0.74502
 Zr1041 Zr 0.01933 0.75860 0.73105
 O1042 O 0.00539 0.77390 0.74484
 Zr1043 Zr -0.01856 0.74119 0.76895
 O1044 O -0.00502 0.72567 0.75483
 Zr1045 Zr 0.00925 0.76894 0.76880
 O1046 O 0.02443 0.75476 0.75501
 Zr1047 Zr -0.01862 0.76886 0.74117
 O1048 O -0.00466 0.75504 0.72569
 O1049 O 0.01511 0.73485 0.73494
 O1050 O -0.01462 0.76509 0.76500
 C1051 C 0.04844 0.73703 0.73799
 C1052 C 0.01199 0.70149 0.73756
 C1053 C 0.01263 0.73769 0.70162
 C1054 C -0.04723 0.76307 0.76370
 C1055 C -0.01300 0.76367 0.79743
 C1056 C -0.01281 0.79772 0.76312
 H1057 H 0.00781 0.74245 0.78499
 H1058 H 0.00793 0.78498 0.74226
 H1059 H 0.02178 0.72805 0.72821
 H1060 H -0.03479 0.74234 0.74272
 H1061 H -0.03188 0.71421 0.76439
 H1062 H -0.03391 0.71552 0.73759
 H1063 H 0.02591 0.79297 0.75966
 H1064 H 0.04193 0.77562 0.74218
 H1065 H -0.02434 0.72409 0.79373
 H1066 H 0.02454 0.70601 0.77623
 H1067 H -0.00935 0.79234 0.72393
 H1068 H 0.00855 0.77629 0.70888
 H1069 H 0.04145 0.74238 0.77579
 H1070 H 0.02614 0.75964 0.79256
 H1071 H -0.02521 0.74265 0.70804
 H1072 H -0.04303 0.75990 0.72496
 O1073 O 0.00121 0.04126 0.02097
 O1074 O -0.02596 0.03616 0.01855
 O1075 O 0.02047 0.00026 0.04213
 O1076 O 0.02048 -0.02600 0.03753
 O1077 O 0.04207 0.01992 0.00113
 O1078 O 0.03630 0.01848 -0.02653
 O1079 O -0.02062 -0.04175 -0.00103
 O1080 O -0.01719 -0.03754 0.02611
 O1081 O -0.04090 -0.00209 -0.02038
 O1082 O -0.03562 0.02659 -0.01890
 O1083 O -0.00133 -0.02129 -0.04094
 O1084 O 0.02726 -0.01982 -0.03573
 O1085 O -0.00167 -0.04171 -0.02008
 O1086 O 0.02773 -0.03609 -0.01813
 O1087 O -0.02033 -0.00232 -0.04097
 O1088 O -0.01809 0.02705 -0.03525
 O1089 O -0.04067 -0.02149 -0.00183
 O1090 O -0.03584 -0.01607 0.02693
 O1091 O 0.01995 0.04150 0.00165
 O1092 O 0.01823 0.03581 -0.02653
 O1093 O 0.04225 0.00088 0.02008
 O1094 O 0.03610 -0.02778 0.01722
 O1095 O 0.00169 0.01951 0.04216
 O1096 O -0.02683 0.01554 0.03610
 Zr1097 Zr -0.00841 0.01842 0.01946
 O1098 O -0.02351 0.00466 0.00529
 Zr1099 Zr 0.01955 -0.00918 0.01916
 O1100 O 0.00539 -0.02431 0.00542
 Zr1101 Zr 0.01920 0.01871 -0.00844
 O1102 O 0.00543 0.00463 -0.02365
 Zr1103 Zr -0.01854 -0.01927 0.00916
 O1104 O -0.00443 -0.00561 0.02460
 Zr1105 Zr -0.01851 0.00842 -0.01865
 O1106 O -0.00474 0.02375 -0.00454
 Zr1107 Zr 0.00919 -0.01937 -0.01855
 O1108 O 0.02464 -0.00528 -0.00482
 O1109 O 0.01540 0.01459 0.01533
 O1110 O -0.01465 -0.01545 -0.01473
 C1111 C 0.01227 0.04793 0.01305
 C1112 C 0.01279 0.01156 0.04871
 C1113 C 0.04871 0.01213 0.01228
 C1114 C -0.01318 -0.04808 -0.01258
 C1115 C -0.04712 -0.01384 -0.01317
 C1116 C -0.01289 -0.01389 -0.04730
 H1117 H -0.03462 0.00708 0.00787
 H1118 H 0.00798 0.00713 -0.03473
 H1119 H 0.02213 0.02131 0.02208
 H1120 H 0.00773 -0.03544 0.00800
 H1121 H -0.01386 -0.03251 0.03612
 H1122 H 0.01291 -0.03443 0.03478
 H1123 H -0.00956 0.02486 -0.04288
 H1124 H 0.00794 0.04120 -0.02548
 H1125 H -0.04325 -0.02510 0.02633
 H1126 H -0.02588 0.02395 0.04421
 H1127 H 0.02621 -0.01019 -0.04221
 H1128 H 0.04126 0.00791 -0.02625
 H1129 H -0.02551 0.04079 0.00786
 H1130 H -0.04217 0.02543 -0.00933
 H1131 H 0.04234 -0.02577 0.00757
 H1132 H 0.02554 -0.04367 -0.00955
 O1133 O 0.04176 0.52017 0.50121
 O1134 O 0.03657 0.51779 0.47398
 O1135 O 0.00103 0.54155 0.52063
 O1136 O -0.02521 0.53716 0.52061
 O1137 O 0.02050 0.50031 0.54203
 O1138 O 0.01890 0.47264 0.53617
 O1139 O -0.04132 0.49869 0.47947
 O1140 O -0.03692 0.52585 0.48296
 O1141 O -0.00200 0.47898 0.45907
 O1142 O 0.02670 0.48040 0.46413
 O1143 O -0.02090 0.45853 0.49873
 O1144 O -0.01943 0.46381 0.52729
 O1145 O -0.04126 0.47954 0.49833
 O1146 O -0.03561 0.48148 0.52774
 O1147 O -0.00200 0.45838 0.47970
 O1148 O 0.02731 0.46408 0.48169
 O1149 O -0.02123 0.49773 0.45937
 O1150 O -0.01555 0.52650 0.46420
 O1151 O 0.04195 0.50080 0.51992
 O1152 O 0.03616 0.47260 0.51804
 O1153 O 0.00157 0.51940 0.54233
 O1154 O -0.02709 0.51679 0.53620
 O1155 O 0.02017 0.54151 0.50177
 O1156 O 0.01611 0.53555 0.47322
 Zr1157 Zr 0.01892 0.51880 0.49159
 O1158 O 0.00506 0.50473 0.47646
 Zr1159 Zr -0.00854 0.51863 0.51962
 O1160 O -0.02377 0.50500 0.50546
 Zr1161 Zr 0.01916 0.49082 0.51913
 O1162 O 0.00499 0.47572 0.50536
 Zr1163 Zr -0.01881 0.50874 0.48150
 O1164 O -0.00503 0.52409 0.49563
 Zr1165 Zr 0.00871 0.48073 0.48140
 O1166 O 0.02414 0.49473 0.49517
 Zr1167 Zr -0.01893 0.48097 0.50920
 O1168 O -0.00474 0.49459 0.52465
 O1169 O 0.01515 0.51464 0.51540
 O1170 O -0.01509 0.48479 0.48535
 C1171 C 0.04839 0.51222 0.51229
 C1172 C 0.01232 0.54809 0.51295
 C1173 C 0.01279 0.51150 0.54873
 C1174 C -0.04765 0.48711 0.48687
 C1175 C -0.01374 0.48627 0.45291
 C1176 C -0.01352 0.45210 0.48720
 H1177 H 0.00743 0.50731 0.46534
 H1178 H 0.00745 0.46461 0.50789
 H1179 H 0.02190 0.52135 0.52215
 H1180 H -0.03486 0.50765 0.50783
 H1181 H -0.03181 0.53584 0.48623
 H1182 H -0.03366 0.53449 0.51304
 H1183 H 0.02525 0.45654 0.49035
 H1184 H 0.04159 0.47373 0.50778
 H1185 H -0.02462 0.52600 0.45683
 H1186 H 0.02457 0.54358 0.47419
 H1187 H -0.00981 0.45730 0.52627
 H1188 H 0.00840 0.47305 0.54122
 H1189 H 0.04112 0.50704 0.47439
 H1190 H 0.02556 0.49001 0.45764
 H1191 H -0.02514 0.50709 0.54239
 H1192 H -0.04318 0.49009 0.52554
 O1193 O 0.49916 -0.02065 0.45818
 O1194 O 0.52634 -0.01824 0.46343
 O1195 O 0.47970 -0.04174 0.49901
 O1196 O 0.47972 -0.03712 0.52528
 O1197 O 0.45819 -0.00080 0.47921
 O1198 O 0.46389 0.02691 0.48072
 O1199 O 0.52079 0.00164 0.54109
 O1200 O 0.51736 -0.02558 0.53697
 O1201 O 0.54103 0.02093 0.50152
 O1202 O 0.53590 0.01917 0.47280
 O1203 O 0.50140 0.04149 0.52033
 O1204 O 0.47281 0.03615 0.51893
 O1205 O 0.50187 0.02076 0.54090
 O1206 O 0.47249 0.01868 0.53534
 O1207 O 0.52040 0.04146 0.50139
 O1208 O 0.51837 0.03553 0.47216
 O1209 O 0.54082 0.00239 0.52093
 O1210 O 0.53605 -0.02647 0.51557
 O1211 O 0.48040 -0.00132 0.45783
 O1212 O 0.48200 0.02693 0.46348
 O1213 O 0.45795 -0.01969 0.49831
 O1214 O 0.46405 -0.01675 0.52699
 O1215 O 0.49854 -0.04183 0.47986
 O1216 O 0.52704 -0.03586 0.48402
 Zr1217 Zr 0.50868 -0.01912 0.48103
 O1218 O 0.52375 -0.00490 0.49476
 Zr1219 Zr 0.48064 -0.01875 0.50847
 O1220 O 0.49477 -0.00494 0.52360
 Zr1221 Zr 0.48103 0.00882 0.48056
 O1222 O 0.49476 0.02407 0.49461
 Zr1223 Zr 0.51872 -0.00868 0.51867
 O1224 O 0.50464 -0.02419 0.50502
 Zr1225 Zr 0.51871 0.01903 0.49088
 O1226 O 0.50499 0.00488 0.47559
 Zr1227 Zr 0.49096 0.01903 0.51859
 O1228 O 0.47554 0.00525 0.50451
 O1229 O 0.48486 -0.01496 0.48475
 O1230 O 0.51480 0.01521 0.51473
 C1231 C 0.48811 -0.01275 0.45147
 C1232 C 0.48738 -0.04834 0.48773
 C1233 C 0.45153 -0.01194 0.48699
 C1234 C 0.51338 0.01329 0.54733
 C1235 C 0.54723 0.01378 0.51332
 C1236 C 0.51292 0.04785 0.51288
 H1237 H 0.53487 -0.00749 0.49240
 H1238 H 0.49221 0.03515 0.49206
 H1239 H 0.47815 -0.02172 0.47801
 H1240 H 0.49242 -0.00749 0.53473
 H1241 H 0.51405 -0.03562 0.53196
 H1242 H 0.48726 -0.03434 0.53373
 H1243 H 0.50968 0.04305 0.47416
 H1244 H 0.49227 0.02583 0.45805
 H1245 H 0.54346 -0.02581 0.52460
 H1246 H 0.52615 -0.04393 0.47558
 H1247 H 0.47381 0.04257 0.50926
 H1248 H 0.45881 0.02654 0.49121
 H1249 H 0.52589 -0.00756 0.45875
 H1250 H 0.54258 0.00971 0.47416
 H1251 H 0.45783 -0.00708 0.52495
 H1252 H 0.47469 0.01009 0.54292
 O1253 O 0.50069 0.54200 0.02023
 O1254 O 0.47350 0.53695 0.01781
 O1255 O 0.51981 0.50107 0.04164
 O1256 O 0.51966 0.47479 0.03722
 O1257 O 0.54154 0.52049 0.00069
 O1258 O 0.53590 0.51885 -0.02700
 O1259 O 0.47855 0.45896 -0.00140
 O1260 O 0.48192 0.46333 0.02572
 O1261 O 0.45862 0.49854 -0.02117
 O1262 O 0.46391 0.52727 -0.01962
 O1263 O 0.49826 0.47933 -0.04144
 O1264 O 0.52669 0.48041 -0.03604
 O1265 O 0.49749 0.45887 -0.02046
 O1266 O 0.52699 0.46430 -0.01830
 O1267 O 0.47938 0.49841 -0.04164
 O1268 O 0.48152 0.52771 -0.03586
 O1269 O 0.45864 0.47929 -0.00245
 O1270 O 0.46337 0.48491 0.02633
 O1271 O 0.51950 0.54207 0.00099
 O1272 O 0.51787 0.53622 -0.02720
 O1273 O 0.54162 0.50148 0.01969
 O1274 O 0.53532 0.47279 0.01693
 O1275 O 0.50112 0.52040 0.04153
 O1276 O 0.47258 0.51644 0.03549
 Zr1277 Zr 0.49101 0.51917 0.01883
 O1278 O 0.47588 0.50543 0.00466
 Zr1279 Zr 0.51887 0.49148 0.01874
 O1280 O 0.50466 0.47634 0.00503
 Zr1281 Zr 0.51872 0.51923 -0.00899
 O1282 O 0.50495 0.50514 -0.02415
 Zr1283 Zr 0.48073 0.48149 0.00865
 O1284 O 0.49488 0.49516 0.02408
 Zr1285 Zr 0.48100 0.50907 -0.01927
 O1286 O 0.49478 0.52439 -0.00518
 Zr1287 Zr 0.50856 0.48114 -0.01894
 O1288 O 0.52405 0.49524 -0.00524
 O1289 O 0.51481 0.51524 0.01478
 O1290 O 0.48473 0.48519 -0.01524
 C1291 C 0.51181 0.54857 0.01233
 C1292 C 0.51221 0.51247 0.04813
 C1293 C 0.54812 0.51273 0.01191
 C1294 C 0.48595 0.45255 -0.01294
 C1295 C 0.45231 0.48686 -0.01392
 C1296 C 0.48685 0.48684 -0.04792
 H1297 H 0.46477 0.50790 0.00718
 H1298 H 0.50756 0.50759 -0.03523
 H1299 H 0.52155 0.52198 0.02151
 H1300 H 0.50693 0.46521 0.00768
 H1301 H 0.48524 0.46841 0.03571
 H1302 H 0.51202 0.46639 0.03452
 H1303 H 0.49020 0.52559 -0.04334
 H1304 H 0.50766 0.54176 -0.02612
 H1305 H 0.45591 0.47593 0.02574
 H1306 H 0.47355 0.52489 0.04355
 H1307 H 0.52601 0.49023 -0.04229
 H1308 H 0.54093 0.50832 -0.02654
 H1309 H 0.47394 0.54149 0.00708
 H1310 H 0.45724 0.52607 -0.01015
 H1311 H 0.54161 0.47474 0.00731
 H1312 H 0.52459 0.45667 -0.00983
 O1313 O 0.79222 0.25112 0.47962
 O1314 O 0.78714 0.22387 0.48185
 O1315 O 0.75136 0.27044 0.45826
 O1316 O 0.72513 0.27022 0.46259
 O1317 O 0.77076 0.29194 0.49943
 O1318 O 0.76912 0.28613 0.52709
 O1319 O 0.70926 0.22897 0.50084
 O1320 O 0.71362 0.23254 0.47374
 O1321 O 0.74870 0.20877 0.52048
 O1322 O 0.77741 0.21405 0.51911
 O1323 O 0.72955 0.24835 0.54105
 O1324 O 0.73081 0.27694 0.53594
 O1325 O 0.70919 0.24786 0.52003
 O1326 O 0.71468 0.27737 0.51820
 O1327 O 0.74856 0.22939 0.54114
 O1328 O 0.77782 0.23155 0.53556
 O1329 O 0.72948 0.20897 0.50172
 O1330 O 0.73509 0.21386 0.47303
 O1331 O 0.79231 0.26986 0.49902
 O1332 O 0.78647 0.26806 0.52716
 O1333 O 0.75179 0.29214 0.48038
 O1334 O 0.72316 0.28588 0.48299
 O1335 O 0.77062 0.25166 0.45826
 O1336 O 0.76671 0.22304 0.46408
 Zr1337 Zr 0.76942 0.24143 0.48089
 O1338 O 0.75564 0.22622 0.49486
 Zr1339 Zr 0.74179 0.26937 0.48112
 O1340 O 0.72664 0.25511 0.49467
 Zr1341 Zr 0.76950 0.26903 0.50892
 O1342 O 0.75540 0.25516 0.52394
 Zr1343 Zr 0.73175 0.23116 0.49084
 O1344 O 0.74545 0.24537 0.47558
 Zr1345 Zr 0.75927 0.23119 0.51885
 O1346 O 0.77461 0.24506 0.50494
 Zr1347 Zr 0.73145 0.25887 0.51868
 O1348 O 0.74556 0.27443 0.50515
 O1349 O 0.76551 0.26525 0.48511
 O1350 O 0.73544 0.23501 0.51478
 C1351 C 0.79881 0.26221 0.48762
 C1352 C 0.76271 0.26282 0.45174
 C1353 C 0.76302 0.29860 0.48824
 C1354 C 0.70288 0.23635 0.51242
 C1355 C 0.73701 0.20254 0.51314
 C1356 C 0.73699 0.23683 0.54744
 H1357 H 0.75808 0.21510 0.49225
 H1358 H 0.75784 0.25770 0.53505
 H1359 H 0.77225 0.27203 0.47846
 H1360 H 0.71554 0.25742 0.49201
 H1361 H 0.71871 0.23588 0.46378
 H1362 H 0.71665 0.26269 0.46529
 H1363 H 0.77573 0.24024 0.54307
 H1364 H 0.79194 0.25779 0.52605
 H1365 H 0.72606 0.20645 0.47350
 H1366 H 0.77516 0.22406 0.45607
 H1367 H 0.74051 0.27606 0.54234
 H1368 H 0.75860 0.29116 0.52664
 H1369 H 0.79168 0.22428 0.49260
 H1370 H 0.77620 0.20741 0.50958
 H1371 H 0.72510 0.29212 0.49268
 H1372 H 0.70714 0.27513 0.50958
 O1373 O 0.79128 0.75098 -0.02100
 O1374 O 0.78592 0.72379 -0.01886
 O1375 O 0.75053 0.77087 -0.04199
 O1376 O 0.72430 0.77081 -0.03749
 O1377 O 0.77040 0.79201 -0.00091
 O1378 O 0.76898 0.78614 0.02673
 O1379 O 0.70832 0.72967 0.00093
 O1380 O 0.71242 0.73319 -0.02620
 O1381 O 0.74777 0.70902 0.02012
 O1382 O 0.77641 0.71400 0.01865
 O1383 O 0.72912 0.74886 0.04093
 O1384 O 0.73068 0.77744 0.03577
 O1385 O 0.70859 0.74857 0.02011
 O1386 O 0.71433 0.77798 0.01824
 O1387 O 0.74789 0.72966 0.04083
 O1388 O 0.77721 0.73157 0.03498
 O1389 O 0.72838 0.70943 0.00155
 O1390 O 0.73375 0.71435 -0.02719
 O1391 O 0.79172 0.76968 -0.00157
 O1392 O 0.78611 0.76790 0.02661
 O1393 O 0.75127 0.79245 -0.01979
 O1394 O 0.72260 0.78643 -0.01702
 O1395 O 0.76958 0.75189 -0.04219
 O1396 O 0.76530 0.72327 -0.03644
 Zr1397 Zr 0.76839 0.74156 -0.01960
 O1398 O 0.75461 0.72647 -0.00550
 Zr1399 Zr 0.74107 0.76977 -0.01908
 O1400 O 0.72590 0.75563 -0.00542
 Zr1401 Zr 0.76900 0.76908 0.00852
 O1402 O 0.75489 0.75535 0.02363
 Zr1403 Zr 0.73073 0.73163 -0.00930
 O1404 O 0.74442 0.74574 -0.02468
 Zr1405 Zr 0.75848 0.73136 0.01847
 O1406 O 0.77383 0.74507 0.00443
 Zr1407 Zr 0.73095 0.75933 0.01855
 O1408 O 0.74509 0.77475 0.00493
 O1409 O 0.76478 0.76541 -0.01527
 O1410 O 0.73466 0.73543 0.01461
 C1411 C 0.79803 0.76199 -0.01303
 C1412 C 0.76178 0.76318 -0.04862
 C1413 C 0.76262 0.79877 -0.01199
 C1414 C 0.70211 0.73712 0.01256
 C1415 C 0.73598 0.70289 0.01288
 C1416 C 0.73647 0.73725 0.04723
 H1417 H 0.75692 0.71533 -0.00815
 H1418 H 0.75745 0.75785 0.03472
 H1419 H 0.77154 0.77214 -0.02195
 H1420 H 0.71480 0.75806 -0.00798
 H1421 H 0.71743 0.73650 -0.03620
 H1422 H 0.71579 0.76334 -0.03476
 H1423 H 0.77519 0.74017 0.04262
 H1424 H 0.79148 0.75760 0.02542
 H1425 H 0.72467 0.70700 -0.02665
 H1426 H 0.77367 0.72423 -0.04454
 H1427 H 0.74037 0.77639 0.04217
 H1428 H 0.75852 0.79129 0.02639
 H1429 H 0.79058 0.72411 -0.00817
 H1430 H 0.77524 0.70757 0.00898
 H1431 H 0.72467 0.79262 -0.00733
 H1432 H 0.70670 0.77582 0.00968
 O1433 O 1.00060 0.20766 0.22925
 O1434 O 0.97343 0.21270 0.23173
 O1435 O 1.01971 0.24868 0.20801
 O1436 O 1.01939 0.27497 0.21249
 O1437 O 1.04154 0.22920 0.24881
 O1438 O 1.03600 0.23063 0.27651
 O1439 O 0.97848 0.29054 0.25138
 O1440 O 0.98183 0.28639 0.22416
 O1441 O 0.95866 0.25092 0.27085
 O1442 O 0.96398 0.22222 0.26930
 O1443 O 0.99838 0.27015 0.29114
 O1444 O 1.02685 0.26899 0.28570
 O1445 O 0.99753 0.29058 0.27037
 O1446 O 1.02704 0.28523 0.26805
 O1447 O 0.97943 0.25112 0.29127
 O1448 O 0.98170 0.22176 0.28548
 O1449 O 0.95864 0.27025 0.25222
 O1450 O 0.96328 0.26477 0.22343
 O1451 O 1.01950 0.20752 0.24844
 O1452 O 1.01800 0.21325 0.27666
 O1453 O 1.04153 0.24830 0.22991
 O1454 O 1.03520 0.27694 0.23275
 O1455 O 1.00102 0.22933 0.20805
 O1456 O 0.97247 0.23328 0.21413
 Zr1457 Zr 0.99094 0.23048 0.23076
 O1458 O 0.97586 0.24415 0.24501
 Zr1459 Zr 1.01877 0.25822 0.23092
 O1460 O 1.00462 0.27329 0.24472
 Zr1461 Zr 1.01874 0.23032 0.25853
 O1462 O 1.00502 0.24435 0.27379
 Zr1463 Zr 0.98069 0.26811 0.24111
 O1464 O 0.99477 0.25452 0.22559
 Zr1465 Zr 0.98106 0.24042 0.26892
 O1466 O 0.99480 0.22516 0.25475
 Zr1467 Zr 1.00863 0.26836 0.26865
 O1468 O 1.02405 0.25434 0.25487
 O1469 O 1.01475 0.23443 0.23479
 O1470 O 0.98479 0.26430 0.26497
 C1471 C 1.01175 0.20105 0.23709
 C1472 C 1.01211 0.23729 0.20149
 C1473 C 1.04807 0.23704 0.23765
 C1474 C 0.98590 0.29688 0.26296
 C1475 C 0.95233 0.26263 0.26366
 C1476 C 0.98691 0.26270 0.29756
 H1477 H 0.96474 0.24168 0.24250
 H1478 H 1.00768 0.24186 0.28486
 H1479 H 1.02148 0.22771 0.22804
 H1480 H 1.00687 0.28444 0.24213
 H1481 H 0.98505 0.28136 0.21411
 H1482 H 1.01184 0.28339 0.21530
 H1483 H 0.99033 0.22395 0.29301
 H1484 H 1.00776 0.20774 0.27562
 H1485 H 0.95582 0.27375 0.22406
 H1486 H 0.97343 0.22486 0.20603
 H1487 H 1.02605 0.25925 0.29207
 H1488 H 1.04096 0.24120 0.27615
 H1489 H 0.97392 0.20810 0.24244
 H1490 H 0.95734 0.22337 0.25978
 H1491 H 1.04150 0.27500 0.24238
 H1492 H 1.02459 0.29292 0.25964
 O1493 O 0.77035 0.95810 0.75147
 O1494 O 0.76797 0.96300 0.72418
 O1495 O 0.79162 0.99914 0.77054
 O1496 O 0.78727 1.02545 0.77013
 O1497 O 0.75055 0.97991 0.79211
 O1498 O 0.72292 0.98136 0.78629
 O1499 O 0.74887 1.04107 0.72894
 O1500 O 0.77598 1.03669 0.73240
 O1501 O 0.72920 1.00130 0.70896
 O1502 O 0.73063 0.97264 0.71434
 O1503 O 0.70880 1.02083 0.74837
 O1504 O 0.71397 1.01974 0.77693
 O1505 O 0.72976 1.04124 0.74782
 O1506 O 0.73169 1.03587 0.77732
 O1507 O 0.70866 1.00162 0.72956
 O1508 O 0.71433 0.97228 0.73194
 O1509 O 0.74785 1.02064 0.70907
 O1510 O 0.77659 1.01505 0.71387
 O1511 O 0.75105 0.95812 0.77023
 O1512 O 0.72286 0.96388 0.76828
 O1513 O 0.76957 0.99892 0.79219
 O1514 O 0.76693 1.02753 0.78578
 O1515 O 0.79160 0.97973 0.75189
 O1516 O 0.78571 0.98349 0.72327
 Zr1517 Zr 0.76897 0.98087 0.74164
 O1518 O 0.75491 0.99454 0.72640
 Zr1519 Zr 0.76877 1.00875 0.76939
 O1520 O 0.75515 1.02380 0.75509
 Zr1521 Zr 0.74103 0.98093 0.76921
 O1522 O 0.72595 0.99496 0.75532
 Zr1523 Zr 0.75889 1.01852 0.73119
 O1524 O 0.77423 1.00492 0.74543
 Zr1525 Zr 0.73096 0.99091 0.73140
 O1526 O 0.74495 0.97565 0.74530
 Zr1527 Zr 0.73117 1.01898 0.75890
 O1528 O 0.74477 1.00497 0.77448
 O1529 O 0.76480 0.98495 0.76541
 O1530 O 0.73499 1.01481 0.73509
 C1531 C 0.76244 0.95157 0.76262
 C1532 C 0.79813 0.98770 0.76302
 C1533 C 0.76173 0.98773 0.79870
 C1534 C 0.73733 1.04752 0.73631
 C1535 C 0.73644 1.01302 0.70269
 C1536 C 0.70239 1.01329 0.73690
 H1537 H 0.75748 0.99202 0.71530
 H1538 H 0.71485 0.99252 0.75788
 H1539 H 0.77148 0.97826 0.77223
 H1540 H 0.75779 1.03494 0.75734
 H1541 H 0.78595 1.03162 0.73574
 H1542 H 0.78455 1.03385 0.76253
 H1543 H 0.70679 0.97448 0.74055
 H1544 H 0.72406 0.95826 0.75811
 H1545 H 0.77604 1.02401 0.70639
 H1546 H 0.79373 0.97504 0.72431
 H1547 H 0.70757 1.01001 0.77610
 H1548 H 0.72328 0.99196 0.79121
 H1549 H 0.75727 0.95838 0.72468
 H1550 H 0.74022 0.97372 0.70782
 H1551 H 0.75725 1.02564 0.79201
 H1552 H 0.74025 1.04345 0.77502
 O1553 O 0.70833 0.52095 0.24880
 O1554 O 0.71329 0.51859 0.27602
 O1555 O 0.74937 0.54221 0.22980
 O1556 O 0.77559 0.53770 0.22999
 O1557 O 0.72982 0.50123 0.20801
 O1558 O 0.73133 0.47351 0.21364
 O1559 O 0.79104 0.49913 0.27128
 O1560 O 0.78687 0.52631 0.26779
 O1561 O 0.75142 0.47960 0.29105
 O1562 O 0.72278 0.48111 0.28565
 O1563 O 0.77069 0.45912 0.25147
 O1564 O 0.76969 0.46436 0.22304
 O1565 O 0.79112 0.48001 0.25231
 O1566 O 0.78578 0.48217 0.22273
 O1567 O 0.75163 0.45903 0.27034
 O1568 O 0.72237 0.46477 0.26804
 O1569 O 0.77070 0.49830 0.29108
 O1570 O 0.76527 0.52710 0.28627
 O1571 O 0.70821 0.50163 0.22998
 O1572 O 0.71396 0.47338 0.23166
 O1573 O 0.74887 0.52021 0.20799
 O1574 O 0.77750 0.51731 0.21436
 O1575 O 0.73001 0.54220 0.24843
 O1576 O 0.73383 0.53623 0.27701
 Zr1577 Zr 0.73108 0.51951 0.25856
 O1578 O 0.74471 0.50536 0.27374
 Zr1579 Zr 0.75882 0.51926 0.23077
 O1580 O 0.77385 0.50558 0.24504
 Zr1581 Zr 0.73097 0.49159 0.23084
 O1582 O 0.74496 0.47641 0.24467
 Zr1583 Zr 0.76863 0.50931 0.26896
 O1584 O 0.75508 0.52472 0.25475
 Zr1585 Zr 0.74099 0.48140 0.26861
 O1586 O 0.72578 0.49548 0.25477
 Zr1587 Zr 0.76895 0.48158 0.24113
 O1588 O 0.75496 0.49526 0.22558
 O1589 O 0.73506 0.51537 0.23476
 O1590 O 0.76485 0.48538 0.26495
 C1591 C 0.70175 0.51303 0.23765
 C1592 C 0.73800 0.54875 0.23737
 C1593 C 0.73761 0.51243 0.20146
 C1594 C 0.79740 0.48752 0.26391
 C1595 C 0.76309 0.48686 0.29739
 C1596 C 0.76319 0.45271 0.26292
 H1597 H 0.74222 0.50793 0.28484
 H1598 H 0.74249 0.46532 0.24205
 H1599 H 0.72837 0.52211 0.22801
 H1600 H 0.78498 0.50819 0.24282
 H1601 H 0.78187 0.53632 0.26444
 H1602 H 0.78394 0.53501 0.23766
 H1603 H 0.72449 0.45727 0.25934
 H1604 H 0.70839 0.47452 0.24185
 H1605 H 0.77422 0.52653 0.29377
 H1606 H 0.72544 0.54432 0.27600
 H1607 H 0.75982 0.45819 0.22362
 H1608 H 0.74185 0.47396 0.20863
 H1609 H 0.70869 0.50786 0.27554
 H1610 H 0.72395 0.49065 0.29227
 H1611 H 0.77547 0.50770 0.20802
 H1612 H 0.79348 0.49059 0.22519
 O1613 O 0.54165 0.22885 0.74884
 O1614 O 0.53644 0.23099 0.77603
 O1615 O 0.50071 0.20800 0.72908
 O1616 O 0.47447 0.21258 0.72936
 O1617 O 0.52049 0.24907 0.70804
 O1618 O 0.51923 0.27671 0.71400
 O1619 O 0.45885 0.25106 0.77068
 O1620 O 0.46292 0.22387 0.76703
 O1621 O 0.49845 0.27025 0.79109
 O1622 O 0.52711 0.26853 0.78600
 O1623 O 0.47967 0.29108 0.75155
 O1624 O 0.48093 0.28592 0.72297
 O1625 O 0.45906 0.27033 0.75194
 O1626 O 0.46457 0.26838 0.72247
 O1627 O 0.49861 0.29092 0.77058
 O1628 O 0.52786 0.28491 0.76848
 O1629 O 0.47902 0.25170 0.79073
 O1630 O 0.48434 0.22289 0.78576
 O1631 O 0.54201 0.24828 0.73021
 O1632 O 0.53647 0.27654 0.73213
 O1633 O 0.50130 0.23024 0.70762
 O1634 O 0.47270 0.23308 0.71383
 O1635 O 0.51988 0.20772 0.74793
 O1636 O 0.51577 0.21347 0.77657
 Zr1637 Zr 0.51881 0.23033 0.75836
 O1638 O 0.50516 0.24449 0.77357
 Zr1639 Zr 0.49129 0.23096 0.73035
 O1640 O 0.47625 0.24468 0.74461
 Zr1641 Zr 0.51931 0.25848 0.73098
 O1642 O 0.50532 0.27366 0.74482
 Zr1643 Zr 0.48124 0.24077 0.76854
 O1644 O 0.49480 0.22533 0.75431
 Zr1645 Zr 0.50907 0.26847 0.76875
 O1646 O 0.52430 0.25437 0.75491
 Zr1647 Zr 0.48132 0.26867 0.74099
 O1648 O 0.49534 0.25499 0.72546
 O1649 O 0.51504 0.23469 0.73458
 O1650 O 0.48521 0.26469 0.76481
 C1651 C 0.54837 0.23680 0.73783
 C1652 C 0.51200 0.20133 0.73666
 C1653 C 0.51263 0.23802 0.70128
 C1654 C 0.45263 0.26276 0.76337
 C1655 C 0.48665 0.26306 0.79722
 C1656 C 0.48715 0.29738 0.76311
 H1657 H 0.50754 0.24183 0.78467
 H1658 H 0.50789 0.28476 0.74235
 H1659 H 0.52174 0.22799 0.72779
 H1660 H 0.46512 0.24216 0.74224
 H1661 H 0.46790 0.21385 0.76368
 H1662 H 0.46602 0.21535 0.73688
 H1663 H 0.52582 0.29255 0.75991
 H1664 H 0.54194 0.27530 0.74237
 H1665 H 0.47530 0.22347 0.79314
 H1666 H 0.52411 0.20533 0.77554
 H1667 H 0.49066 0.29227 0.72395
 H1668 H 0.50870 0.27647 0.70897
 H1669 H 0.54109 0.24170 0.77575
 H1670 H 0.52583 0.25894 0.79250
 H1671 H 0.47472 0.24280 0.70769
 H1672 H 0.45687 0.25992 0.72471
 O1673 O 0.25087 0.77101 0.45808
 O1674 O 0.22372 0.76869 0.46323
 O1675 O 0.27028 0.79224 0.49907
 O1676 O 0.27017 0.78773 0.52531
 O1677 O 0.29180 0.75133 0.47930
 O1678 O 0.28617 0.72359 0.48079
 O1679 O 0.22908 0.74909 0.54092
 O1680 O 0.23249 0.77626 0.53680
 O1681 O 0.20890 0.72962 0.50124
 O1682 O 0.21417 0.73113 0.47260
 O1683 O 0.24858 0.70913 0.52035
 O1684 O 0.27705 0.71438 0.51911
 O1685 O 0.24806 0.73003 0.54086
 O1686 O 0.27752 0.73211 0.53530
 O1687 O 0.22958 0.70906 0.50139
 O1688 O 0.23174 0.71481 0.47209
 O1689 O 0.20905 0.74824 0.52064
 O1690 O 0.21386 0.77706 0.51531
 O1691 O 0.26964 0.75169 0.45780
 O1692 O 0.26805 0.72346 0.46350
 O1693 O 0.29199 0.77026 0.49844
 O1694 O 0.28582 0.76735 0.52711
 O1695 O 0.25153 0.79225 0.47980
 O1696 O 0.22296 0.78631 0.48383
 Zr1697 Zr 0.24133 0.76957 0.48091
 O1698 O 0.22623 0.75538 0.49458
 Zr1699 Zr 0.26929 0.76930 0.50850
 O1700 O 0.25512 0.75557 0.52356
 Zr1701 Zr 0.26898 0.74165 0.48057
 O1702 O 0.25524 0.72644 0.49459
 Zr1703 Zr 0.23118 0.75928 0.51850
 O1704 O 0.24530 0.77474 0.50492
 Zr1705 Zr 0.23129 0.73142 0.49076
 O1706 O 0.24503 0.74554 0.47552
 Zr1707 Zr 0.25898 0.73158 0.51858
 O1708 O 0.27442 0.74530 0.50454
 O1709 O 0.26513 0.76543 0.48474
 O1710 O 0.23513 0.73536 0.51463
 C1711 C 0.26193 0.76308 0.45140
 C1712 C 0.26268 0.79878 0.48773
 C1713 C 0.29842 0.76251 0.48711
 C1714 C 0.23653 0.73752 0.54723
 C1715 C 0.20264 0.73685 0.51297
 C1716 C 0.23706 0.70273 0.51291
 H1717 H 0.21512 0.75795 0.49215
 H1718 H 0.25782 0.71535 0.49207
 H1719 H 0.27184 0.77216 0.47802
 H1720 H 0.25744 0.75817 0.53469
 H1721 H 0.23582 0.78627 0.53181
 H1722 H 0.26261 0.78499 0.53372
 H1723 H 0.24035 0.70723 0.47422
 H1724 H 0.25780 0.72454 0.45803
 H1725 H 0.20644 0.77646 0.52431
 H1726 H 0.22394 0.79441 0.47546
 H1727 H 0.27626 0.70811 0.50930
 H1728 H 0.29122 0.72401 0.49131
 H1729 H 0.22413 0.75797 0.45858
 H1730 H 0.20759 0.74069 0.47380
 H1731 H 0.29214 0.75775 0.52502
 H1732 H 0.27522 0.74062 0.54296
 O1733 O 0.22972 0.24870 1.04190
 O1734 O 0.23196 0.27597 1.03690
 O1735 O 0.20854 0.22940 1.00088
 O1736 O 0.21299 0.22965 0.97463
 O1737 O 0.24961 0.20792 1.02036
 O1738 O 0.27724 0.21378 1.01890
 O1739 O 0.25133 0.27095 0.95906
 O1740 O 0.22422 0.26737 0.96328
 O1741 O 0.27077 0.29114 0.99871
 O1742 O 0.26926 0.28582 1.02740
 O1743 O 0.29140 0.25164 0.97950
 O1744 O 0.28625 0.22300 0.98067
 O1745 O 0.27050 0.25209 0.95902
 O1746 O 0.26864 0.22259 0.96442
 O1747 O 0.29142 0.27056 0.99858
 O1748 O 0.28569 0.26833 1.02783
 O1749 O 0.25213 0.29093 0.97937
 O1750 O 0.22342 0.28601 0.98482
 O1751 O 0.24908 0.22997 1.04202
 O1752 O 0.27724 0.23184 1.03632
 O1753 O 0.23065 0.20773 1.00131
 O1754 O 0.23337 0.21402 0.97271
 O1755 O 0.20847 0.24814 1.02021
 O1756 O 0.21431 0.27677 1.01636
 Zr1757 Zr 0.23109 0.25841 1.01912
 O1758 O 0.24513 0.27365 1.00545
 Zr1759 Zr 0.23143 0.23051 0.99139
 O1760 O 0.24506 0.24480 0.97635
 Zr1761 Zr 0.25910 0.23086 1.01925
 O1762 O 0.27418 0.24476 1.00526
 Zr1763 Zr 0.24122 0.26874 0.98151
 O1764 O 0.22589 0.25450 0.99510
 Zr1765 Zr 0.26909 0.26871 1.00919
 O1766 O 0.25511 0.25481 1.02442
 Zr1767 Zr 0.26904 0.24107 0.98126
 O1768 O 0.25543 0.22549 0.99526
 O1769 O 0.23532 0.23460 1.01516
 O1770 O 0.26513 0.26491 0.98531
 C1771 C 0.23768 0.23761 1.04849
 C1772 C 0.20198 0.23699 1.01225
 C1773 C 0.23847 0.20127 1.01254
 C1774 C 0.26293 0.26360 0.95270
 C1775 C 0.26352 0.29737 0.98698
 C1776 C 0.29776 0.26315 0.98701
 H1777 H 0.24251 0.28476 1.00792
 H1778 H 0.28527 0.24223 1.00774
 H1779 H 0.22864 0.22780 1.02185
 H1780 H 0.24245 0.24249 0.96522
 H1781 H 0.21424 0.26402 0.96831
 H1782 H 0.21571 0.23720 0.96620
 H1783 H 0.29323 0.25968 1.02572
 H1784 H 0.27609 0.24208 1.04183
 H1785 H 0.22394 0.29345 0.97582
 H1786 H 0.20626 0.27575 1.02476
 H1787 H 0.29269 0.22395 0.99035
 H1788 H 0.27690 0.20881 1.00833
 H1789 H 0.24267 0.27555 1.04151
 H1790 H 0.25973 0.29243 1.02617
 H1791 H 0.24306 0.20782 0.97466
 H1792 H 0.26005 0.22481 0.95685
 C1793 C 0.28175 0.41154 0.78018
 C1794 C 0.29524 0.40467 0.77366
 C1795 C 0.30222 0.39158 0.78086
 C1796 C 0.29583 0.38518 0.79478
 C1797 C 0.28217 0.39215 0.80117
 C1798 C 0.27522 0.40523 0.79393
 C1799 C 0.27511 0.42557 0.77331
 C1800 C 0.26987 0.43769 0.76803
 H1801 H 0.30048 0.40955 0.76309
 H1802 H 0.31268 0.38663 0.77554
 H1803 H 0.27686 0.38767 0.81184
 H1804 H 0.26486 0.41054 0.79918
 C1805 C 0.28052 -0.08902 0.28019
 C1806 C 0.27411 -0.09540 0.29397
 C1807 C 0.28111 -0.10853 0.30107
 C1808 C 0.29469 -0.11548 0.29452
 C1809 C 0.30091 -0.10907 0.28052
 C1810 C 0.29388 -0.09593 0.27345
 C1811 C 0.27394 -0.07486 0.27353
 C1812 C 0.26881 -0.06264 0.26839
 H1813 H 0.26383 -0.09008 0.29935
 H1814 H 0.27588 -0.11309 0.31175
 H1815 H 0.31132 -0.11400 0.27507
 H1816 H 0.29901 -0.09103 0.26284
 C1817 C 0.77947 0.90998 0.77971
 C1818 C 0.77301 0.90335 0.79333
 C1819 C 0.78022 0.89036 0.80049
 C1820 C 0.79413 0.88373 0.79416
 C1821 C 0.80038 0.89048 0.78028
 C1822 C 0.79312 0.90348 0.77318
 C1823 C 0.77274 0.92410 0.77306
 C1824 C 0.76764 0.93636 0.76794
 H1825 H 0.76251 0.90838 0.79859
 H1826 H 0.77487 0.88572 0.81106
 H1827 H 0.81098 0.88596 0.77488
 H1828 H 0.79832 0.90861 0.76271
 C1829 C 0.47103 0.84065 0.27891
 C1830 C 0.47772 0.84746 0.29237
 C1831 C 0.47044 0.86035 0.29964
 C1832 C 0.45631 0.86660 0.29355
 C1833 C 0.44979 0.85972 0.27989
 C1834 C 0.45710 0.84683 0.27266
 C1835 C 0.47775 0.82659 0.27224
 C1836 C 0.48278 0.81431 0.26716
 H1837 H 0.48842 0.84264 0.29741
 H1838 H 0.47585 0.86522 0.31011
 H1839 H 0.43898 0.86412 0.27480
 H1840 H 0.45173 0.84153 0.26234
 C1841 C -0.03036 0.83888 0.78075
 C1842 C -0.04412 0.84531 0.77434
 C1843 C -0.05128 0.85835 0.78146
 C1844 C -0.04481 0.86517 0.79518
 C1845 C -0.03088 0.85866 0.80145
 C1846 C -0.02374 0.84561 0.79430
 C1847 C -0.02358 0.82485 0.77398
 C1848 C -0.01835 0.81271 0.76871
 H1849 H -0.04943 0.84011 0.76393
 H1850 H -0.06196 0.86292 0.77623
 H1851 H -0.02550 0.86350 0.81196
 H1852 H -0.01316 0.84065 0.79945
 C1853 C -0.03080 -0.08913 -0.03024
 C1854 C -0.04456 -0.09555 -0.02384
 C1855 C -0.05177 -0.10853 -0.03102
 C1856 C -0.04534 -0.11528 -0.04478
 C1857 C -0.03142 -0.10877 -0.05104
 C1858 C -0.02423 -0.09578 -0.04383
 C1859 C -0.02400 -0.07515 -0.02344
 C1860 C -0.01873 -0.06304 -0.01816
 H1861 H -0.04983 -0.09039 -0.01340
 H1862 H -0.06243 -0.11314 -0.02579
 H1863 H -0.02608 -0.11353 -0.06159
 H1864 H -0.01366 -0.09080 -0.04897
 C1865 C -0.03104 0.41082 0.46973
 C1866 C -0.04448 0.40399 0.47635
 C1867 C -0.05153 0.39088 0.46920
 C1868 C -0.04527 0.38434 0.45521
 C1869 C -0.03159 0.39132 0.44879
 C1870 C -0.02460 0.40443 0.45597
 C1871 C -0.02437 0.42492 0.47650
 C1872 C -0.01914 0.43709 0.48171
 H1873 H -0.04964 0.40892 0.48694
 H1874 H -0.06195 0.38605 0.47470
 H1875 H -0.02624 0.38689 0.43811
 H1876 H -0.01426 0.40972 0.45066
 C1877 C 0.47056 -0.09014 0.47088
 C1878 C 0.45673 -0.09651 0.47715
 C1879 C 0.44957 -0.10954 0.46998
 C1880 C 0.45608 -0.11645 0.45628
 C1881 C 0.47017 -0.10998 0.45023
 C1882 C 0.47729 -0.09694 0.45745
 C1883 C 0.47716 -0.07595 0.47754
 C1884 C 0.48218 -0.06363 0.48260
 H1885 H 0.45132 -0.09124 0.48745
 H1886 H 0.43883 -0.11395 0.47519
 H1887 H 0.47574 -0.11477 0.43982
 H1888 H 0.48793 -0.09201 0.45240
 C1889 C 0.46838 0.41137 -0.03059
 C1890 C 0.45487 0.40459 -0.02408
 C1891 C 0.44780 0.39152 -0.03129
 C1892 C 0.45413 0.38497 -0.04524
 C1893 C 0.46787 0.39190 -0.05157
 C1894 C 0.47488 0.40497 -0.04432
 C1895 C 0.47508 0.42542 -0.02374
 C1896 C 0.48033 0.43756 -0.01848
 H1897 H 0.44967 0.40951 -0.01349
 H1898 H 0.43732 0.38674 -0.02588
 H1899 H 0.47327 0.38747 -0.06223
 H1900 H 0.48529 0.41020 -0.04954
 C1901 C 0.77988 0.34024 0.47134
 C1902 C 0.79359 0.34686 0.47768
 C1903 C 0.80076 0.35975 0.47030
 C1904 C 0.79433 0.36617 0.45640
 C1905 C 0.78040 0.35951 0.45026
 C1906 C 0.77326 0.34664 0.45767
 C1907 C 0.77330 0.32614 0.47812
 C1908 C 0.76825 0.31386 0.48318
 H1909 H 0.79891 0.34190 0.48818
 H1910 H 0.81142 0.36447 0.47544
 H1911 H 0.77505 0.36403 0.43962
 H1912 H 0.76273 0.34150 0.45256
 C1913 C 0.77963 0.84036 -0.02877
 C1914 C 0.77306 0.84677 -0.04245
 C1915 C 0.78019 0.85966 -0.04981
 C1916 C 0.79409 0.86634 -0.04360
 C1917 C 0.80050 0.85988 -0.02971
 C1918 C 0.79333 0.84697 -0.02238
 C1919 C 0.77302 0.82628 -0.02203
 C1920 C 0.76792 0.81401 -0.01701
 H1921 H 0.76255 0.84163 -0.04760
 H1922 H 0.77485 0.86421 -0.06044
 H1923 H 0.81114 0.86460 -0.02453
 H1924 H 0.79862 0.84199 -0.01188
 C1925 C 0.77957 0.27987 0.41020
 C1926 C 0.77304 0.29351 0.40364
 C1927 C 0.78017 0.30068 0.39064
 C1928 C 0.79403 0.29433 0.38403
 C1929 C 0.80040 0.28050 0.39067
 C1930 C 0.79323 0.27336 0.40367
 C1931 C 0.77291 0.27320 0.42429
 C1932 C 0.76786 0.26809 0.43654
 H1933 H 0.76256 0.29876 0.40872
 H1934 H 0.77486 0.31127 0.38596
 H1935 H 0.81101 0.27521 0.38600
 H1936 H 0.79849 0.26289 0.40878
 C1937 C 0.77880 0.78032 -0.09011
 C1938 C 0.77234 0.79395 -0.09680
 C1939 C 0.77960 0.80108 -0.10976
 C1940 C 0.79352 0.79471 -0.11622
 C1941 C 0.79981 0.78090 -0.10946
 C1942 C 0.79252 0.77380 -0.09650
 C1943 C 0.77204 0.77367 -0.07604
 C1944 C 0.76695 0.76853 -0.06380
 H1945 H 0.76180 0.79920 -0.09185
 H1946 H 0.77435 0.81166 -0.11455
 H1947 H 0.81047 0.77559 -0.11398
 H1948 H 0.79774 0.76335 -0.09132
 C1949 C 0.28110 0.46931 0.83833
 C1950 C 0.27469 0.45552 0.84471
 C1951 C 0.28180 0.44834 0.85773
 C1952 C 0.29549 0.45484 0.86457
 C1953 C 0.30177 0.46877 0.85808
 C1954 C 0.29464 0.47592 0.84505
 C1955 C 0.27430 0.47613 0.82437
 C1956 C 0.26900 0.48139 0.81228
 H1957 H 0.26428 0.45023 0.83953
 H1958 H 0.27654 0.43767 0.86230
 H1959 H 0.31224 0.47418 0.86294
 H1960 H 0.29977 0.48654 0.84014
 C1961 C 0.28127 -0.03051 0.33842
 C1962 C 0.27484 -0.04423 0.34490
 C1963 C 0.28187 -0.05129 0.35802
 C1964 C 0.29553 -0.04474 0.36488
 C1965 C 0.30182 -0.03084 0.35832
 C1966 C 0.29475 -0.02381 0.34518
 C1967 C 0.27454 -0.02382 0.32434
 C1968 C 0.26925 -0.01864 0.31221
 H1969 H 0.26448 -0.04961 0.33968
 H1970 H 0.27663 -0.06195 0.36263
 H1971 H 0.31226 -0.02539 0.36319
 H1972 H 0.29992 -0.01325 0.34019
 C1973 C -0.03071 -0.03155 -0.08836
 C1974 C -0.04401 -0.02462 -0.09516
 C1975 C -0.05117 -0.03153 -0.10833
 C1976 C -0.04518 -0.04562 -0.11494
 C1977 C -0.03171 -0.05245 -0.10792
 C1978 C -0.02458 -0.04546 -0.09477
 C1979 C -0.02384 -0.02484 -0.07433
 C1980 C -0.01852 -0.01956 -0.06223
 H1981 H -0.04897 -0.01393 -0.09020
 H1982 H -0.06148 -0.02579 -0.11311
 H1983 H -0.02656 -0.06320 -0.11244
 H1984 H -0.01434 -0.05101 -0.08951
 C1985 C -0.03174 0.46836 0.41207
 C1986 C -0.02513 0.45480 0.40540
 C1987 C -0.03213 0.44771 0.39225
 C1988 C -0.04597 0.45406 0.38549
 C1989 C -0.05248 0.46777 0.39239
 C1990 C -0.04542 0.47482 0.40554
 C1991 C -0.02490 0.47521 0.42603
 C1992 C -0.01951 0.48056 0.43806
 H1993 H -0.01461 0.44960 0.41046
 H1994 H -0.02664 0.43719 0.38758
 H1995 H -0.06306 0.47316 0.38779
 H1996 H -0.05071 0.48526 0.41068
 C1997 C 0.47107 -0.02974 0.41000
 C1998 C 0.45733 -0.02321 0.40368
 C1999 C 0.45000 -0.03030 0.39073
 C2000 C 0.45631 -0.04409 0.38391
 C2001 C 0.47020 -0.05052 0.39036
 C2002 C 0.47749 -0.04340 0.40332
 C2003 C 0.47788 -0.02310 0.42403
 C2004 C 0.48299 -0.01800 0.43627
 H2005 H 0.45215 -0.01275 0.40890
 H2006 H 0.43934 -0.02499 0.38622
 H2007 H 0.47545 -0.06108 0.38552
 H2008 H 0.48803 -0.04866 0.40826
 C2009 C 0.46976 0.46950 -0.08939
 C2010 C 0.45631 0.47620 -0.09617
 C2011 C 0.44921 0.46909 -0.10926
 C2012 C 0.45543 0.45510 -0.11576
 C2013 C 0.46912 0.44860 -0.10895
 C2014 C 0.47619 0.45574 -0.09586
 C2015 C 0.47637 0.47616 -0.07522
 C2016 C 0.48147 0.48133 -0.06299
 H2017 H 0.45116 0.48678 -0.09118
 H2018 H 0.43873 0.47449 -0.11408
 H2019 H 0.47434 0.43791 -0.11355
 H2020 H 0.48654 0.45038 -0.09063
 C2021 C 0.47120 0.78021 0.33992
 C2022 C 0.45761 0.77357 0.34645
 C2023 C 0.45040 0.78061 0.35950
 C2024 C 0.45666 0.79448 0.36623
 C2025 C 0.47043 0.80098 0.35963
 C2026 C 0.47761 0.79391 0.34657
 C2027 C 0.47788 0.77360 0.32578
 C2028 C 0.48294 0.76851 0.31350
 H2029 H 0.45243 0.76306 0.34130
 H2030 H 0.43982 0.77523 0.36412
 H2031 H 0.47567 0.81159 0.36443
 H2032 H 0.48804 0.79925 0.34152
 C2033 C -0.03089 0.78145 0.83823
 C2034 C -0.02458 0.79520 0.84485
 C2035 C -0.03179 0.80218 0.85792
 C2036 C -0.04547 0.79553 0.86456
 C2037 C -0.05169 0.78167 0.85777
 C2038 C -0.04445 0.77472 0.84471
 C2039 C -0.02396 0.77473 0.82431
 C2040 C -0.01860 0.76942 0.81228
 H2041 H -0.01416 0.80059 0.83982
 H2042 H -0.02660 0.81280 0.86273
 H2043 H -0.06220 0.77619 0.86242
 H2044 H -0.04953 0.76416 0.83956
 C2045 C 0.41035 0.77989 0.27936
 C2046 C 0.40377 0.79360 0.27296
 C2047 C 0.39081 0.80075 0.28020
 C2048 C 0.38425 0.79432 0.29402
 C2049 C 0.39089 0.78042 0.30025
 C2050 C 0.40385 0.77330 0.29298
 C2051 C 0.42443 0.77325 0.27263
 C2052 C 0.43668 0.76818 0.26754
 H2053 H 0.40881 0.79890 0.26250
 H2054 H 0.38609 0.81138 0.27499
 H2055 H 0.38627 0.77506 0.31083
 H2056 H 0.40895 0.76278 0.29813
 C2057 C -0.08828 0.78087 0.78120
 C2058 C -0.09483 0.79448 0.77458
 C2059 C -0.10794 0.80163 0.78155
 C2060 C -0.11471 0.79528 0.79532
 C2061 C -0.10805 0.78152 0.80181
 C2062 C -0.09493 0.77440 0.79482
 C2063 C -0.07425 0.77404 0.77451
 C2064 C -0.06215 0.76872 0.76928
 H2065 H -0.08969 0.79968 0.76412
 H2066 H -0.11264 0.81217 0.77614
 H2067 H -0.11282 0.77622 0.81236
 H2068 H -0.08987 0.76394 0.80013
 C2069 C 0.84042 0.27920 0.47088
 C2070 C 0.84709 0.29279 0.47749
 C2071 C 0.86001 0.30004 0.47027
 C2072 C 0.86643 0.29383 0.45626
 C2073 C 0.85972 0.28002 0.44984
 C2074 C 0.84681 0.27280 0.45709
 C2075 C 0.82632 0.27253 0.47753
 C2076 C 0.81404 0.26744 0.48253
 H2077 H 0.84214 0.29795 0.48808
 H2078 H 0.86478 0.31060 0.47562
 H2079 H 0.86422 0.27483 0.43911
 H2080 H 0.84163 0.26239 0.45177
 C2081 C 0.83946 0.77897 -0.03004
 C2082 C 0.84616 0.77234 -0.04358
 C2083 C 0.85903 0.77963 -0.05082
 C2084 C 0.86537 0.79371 -0.04464
 C2085 C 0.85859 0.80019 -0.03093
 C2086 C 0.84572 0.79287 -0.02372
 C2087 C 0.82545 0.77220 -0.02336
 C2088 C 0.81323 0.76711 -0.01826
 H2089 H 0.84127 0.76168 -0.04868
 H2090 H 0.86381 0.77427 -0.06135
 H2091 H 0.86309 0.81094 -0.02574
 H2092 H 0.84050 0.79820 -0.01334
 C2093 C -0.08827 -0.03119 -0.03081
 C2094 C -0.09509 -0.04466 -0.02419
 C2095 C -0.10826 -0.05162 -0.03126
 C2096 C -0.11480 -0.04521 -0.04512
 C2097 C -0.10786 -0.03159 -0.05161
 C2098 C -0.09469 -0.02466 -0.04451
 C2099 C -0.07419 -0.02458 -0.02404
 C2100 C -0.06205 -0.01940 -0.01878
 H2101 H -0.09013 -0.04989 -0.01364
 H2102 H -0.11318 -0.06206 -0.02586
 H2103 H -0.11245 -0.02626 -0.06223
 H2104 H -0.08941 -0.01430 -0.04981
 C2105 C -0.08882 0.46960 0.46940
 C2106 C -0.09529 0.47603 0.45568
 C2107 C -0.10832 0.46889 0.44852
 C2108 C -0.11507 0.45515 0.45497
 C2109 C -0.10852 0.44888 0.46888
 C2110 C -0.09549 0.45604 0.47601
 C2111 C -0.07478 0.47635 0.47613
 C2112 C -0.06264 0.48159 0.48134
 H2113 H -0.09014 0.48645 0.45037
 H2114 H -0.11292 0.47412 0.43785
 H2115 H -0.11331 0.43836 0.47425
 H2116 H -0.09048 0.45089 0.48657
 C2117 C 0.40987 -0.02878 0.47001
 C2118 C 0.40339 -0.04243 0.47657
 C2119 C 0.39042 -0.04973 0.46947
 C2120 C 0.38369 -0.04354 0.45555
 C2121 C 0.39026 -0.02962 0.44920
 C2122 C 0.40323 -0.02235 0.45637
 C2123 C 0.42401 -0.02208 0.47662
 C2124 C 0.43629 -0.01706 0.48172
 H2125 H 0.40854 -0.04761 0.48705
 H2126 H 0.38594 -0.06035 0.47490
 H2127 H 0.38560 -0.02428 0.43861
 H2128 H 0.40825 -0.01185 0.45110
 C2129 C 0.41139 0.46910 -0.03176
 C2130 C 0.40506 0.45531 -0.02536
 C2131 C 0.39200 0.44811 -0.03239
 C2132 C 0.38499 0.45458 -0.04605
 C2133 C 0.39153 0.46856 -0.05232
 C2134 C 0.40459 0.47571 -0.04523
 C2135 C 0.42536 0.47597 -0.02498
 C2136 C 0.43742 0.48126 -0.01965
 H2137 H 0.41030 0.45004 -0.01497
 H2138 H 0.38757 0.43743 -0.02704
 H2139 H 0.38671 0.47407 -0.06274
 H2140 H 0.40947 0.48636 -0.05035
 C2141 C 0.33854 0.46953 0.78110
 C2142 C 0.34509 0.47591 0.79484
 C2143 C 0.35810 0.46869 0.80194
 C2144 C 0.36473 0.45491 0.79541
 C2145 C 0.35806 0.44866 0.78151
 C2146 C 0.34507 0.45592 0.77445
 C2147 C 0.32458 0.47639 0.77434
 C2148 C 0.31251 0.48167 0.76901
 H2149 H 0.34004 0.48638 0.80018
 H2150 H 0.36283 0.47390 0.81258
 H2151 H 0.36271 0.43808 0.77611
 H2152 H 0.33999 0.45078 0.76389
 C2153 C 0.33856 -0.03013 0.28094
 C2154 C 0.34488 -0.04398 0.27456
 C2155 C 0.35793 -0.05112 0.28161
 C2156 C 0.36485 -0.04453 0.29522
 C2157 C 0.35840 -0.03055 0.30149
 C2158 C 0.34535 -0.02343 0.29440
 C2159 C 0.32459 -0.02333 0.27421
 C2160 C 0.31249 -0.01808 0.26895
 H2161 H 0.33961 -0.04935 0.26422
 H2162 H 0.36249 -0.06182 0.27637
 H2163 H 0.36328 -0.02511 0.31195
 H2164 H 0.34044 -0.01279 0.29953
 C2165 C 0.15980 0.52885 0.72106
 C2166 C 0.15311 0.52225 0.70749
 C2167 C 0.14014 0.52944 0.70031
 C2168 C 0.13368 0.54342 0.70658
 C2169 C 0.14043 0.54985 0.72035
 C2170 C 0.15339 0.54263 0.72749
 C2171 C 0.17393 0.52221 0.72767
 C2172 C 0.18623 0.51720 0.73269
 H2173 H 0.15809 0.51167 0.70230
 H2174 H 0.13536 0.52408 0.68977
 H2175 H 0.13588 0.56056 0.72558
 H2176 H 0.15858 0.54795 0.73790
 C2177 C 0.16037 0.02967 0.22043
 C2178 C 0.15404 0.02333 0.20657
 C2179 C 0.14111 0.03054 0.19933
 C2180 C 0.13433 0.04425 0.20585
 C2181 C 0.14079 0.05048 0.21984
 C2182 C 0.15372 0.04324 0.22705
 C2183 C 0.17435 0.02292 0.22723
 C2184 C 0.18653 0.01779 0.23242
 H2185 H 0.15922 0.01292 0.20124
 H2186 H 0.13653 0.02533 0.18863
 H2187 H 0.13604 0.06103 0.22520
 H2188 H 0.15866 0.04837 0.23767
 C2189 C 0.58868 0.71956 0.21912
 C2190 C 0.59520 0.70586 0.22556
 C2191 C 0.60823 0.69873 0.21844
 C2192 C 0.61495 0.70519 0.20470
 C2193 C 0.60832 0.71905 0.19838
 C2194 C 0.59528 0.72615 0.20553
 C2195 C 0.57469 0.72632 0.22592
 C2196 C 0.56259 0.73156 0.23120
 H2197 H 0.59009 0.70057 0.23600
 H2198 H 0.61290 0.68811 0.22371
 H2199 H 0.61307 0.72442 0.18786
 H2200 H 0.59023 0.73669 0.20036
 C2201 C 0.09006 0.72020 0.72103
 C2202 C 0.09693 0.70672 0.72759
 C2203 C 0.10993 0.69965 0.72032
 C2204 C 0.11623 0.70594 0.70631
 C2205 C 0.10931 0.71963 0.69994
 C2206 C 0.09632 0.72667 0.70723
 C2207 C 0.07594 0.72675 0.72777
 C2208 C 0.06366 0.73179 0.73285
 H2209 H 0.09209 0.70152 0.73819
 H2210 H 0.11484 0.68916 0.72564
 H2211 H 0.11373 0.72488 0.68921
 H2212 H 0.09100 0.73702 0.70196
 C2213 C 0.66175 0.21889 0.52993
 C2214 C 0.65531 0.22555 0.54357
 C2215 C 0.64224 0.21860 0.55077
 C2216 C 0.63540 0.20481 0.54444
 C2217 C 0.64193 0.19828 0.53063
 C2218 C 0.65502 0.20527 0.52346
 C2219 C 0.67578 0.22553 0.52312
 C2220 C 0.68791 0.23075 0.51789
 H2221 H 0.66052 0.23602 0.54877
 H2222 H 0.63763 0.22402 0.56135
 H2223 H 0.63709 0.18772 0.52536
 H2224 H 0.66000 0.19993 0.51297
 C2225 C 0.66102 0.71974 0.03021
 C2226 C 0.65440 0.72635 0.04379
 C2227 C 0.64139 0.71922 0.05096
 C2228 C 0.63482 0.70530 0.04465
 C2229 C 0.64153 0.69884 0.03088
 C2230 C 0.65453 0.70600 0.02375
 C2231 C 0.67503 0.72646 0.02344
 C2232 C 0.68715 0.73164 0.01816
 H2233 H 0.65943 0.73691 0.04898
 H2234 H 0.63663 0.72460 0.06148
 H2235 H 0.63692 0.68817 0.02563
 H2236 H 0.65965 0.70069 0.01332
 C2237 C 0.09042 0.02897 0.02895
 C2238 C 0.09684 0.04274 0.02256
 C2239 C 0.10983 0.04994 0.02972
 C2240 C 0.11658 0.04349 0.04345
 C2241 C 0.11010 0.02952 0.04968
 C2242 C 0.09711 0.02235 0.04248
 C2243 C 0.07628 0.02234 0.02234
 C2244 C 0.06397 0.01731 0.01735
 H2245 H 0.09166 0.04806 0.01217
 H2246 H 0.11439 0.06064 0.02452
 H2247 H 0.11488 0.02415 0.06020
 H2248 H 0.09212 0.01177 0.04763
 C2249 C 0.08986 0.52929 0.52944
 C2250 C 0.09629 0.52294 0.54323
 C2251 C 0.10919 0.53023 0.55049
 C2252 C 0.11583 0.54404 0.54408
 C2253 C 0.10932 0.55022 0.53011
 C2254 C 0.09642 0.54291 0.52288
 C2255 C 0.07582 0.52253 0.52268
 C2256 C 0.06359 0.51743 0.51753
 H2257 H 0.09119 0.51249 0.54852
 H2258 H 0.11378 0.52509 0.56121
 H2259 H 0.11400 0.56079 0.52475
 H2260 H 0.09143 0.54803 0.51230
 C2261 C 0.58799 0.03181 0.53120
 C2262 C 0.59471 0.02506 0.54463
 C2263 C 0.60773 0.03215 0.55185
 C2264 C 0.61423 0.04617 0.54572
 C2265 C 0.60736 0.05283 0.53215
 C2266 C 0.59433 0.04570 0.52497
 C2267 C 0.57408 0.02495 0.52432
 C2268 C 0.56206 0.01955 0.51899
 H2269 H 0.58980 0.01438 0.54964
 H2270 H 0.61255 0.02665 0.56227
 H2271 H 0.61196 0.06355 0.52703
 H2272 H 0.58912 0.05111 0.51463
 C2273 C 0.58974 0.52970 0.02885
 C2274 C 0.59610 0.54360 0.02266
 C2275 C 0.60905 0.55077 0.02994
 C2276 C 0.61582 0.54416 0.04359
 C2277 C 0.60942 0.53005 0.04958
 C2278 C 0.59647 0.52291 0.04228
 C2279 C 0.57562 0.52305 0.02214
 C2280 C 0.56335 0.51796 0.01708
 H2281 H 0.59087 0.54906 0.01236
 H2282 H 0.61357 0.56158 0.02492
 H2283 H 0.61421 0.52454 0.06002
 H2284 H 0.59154 0.51224 0.04727
 C2285 C 0.02912 0.02817 0.09073
 C2286 C 0.04240 0.02137 0.09774
 C2287 C 0.04948 0.02857 0.11079
 C2288 C 0.04341 0.04275 0.11701
 C2289 C 0.02986 0.04933 0.11001
 C2290 C 0.02282 0.04210 0.09695
 C2291 C 0.02273 0.02155 0.07645
 C2292 C 0.01785 0.01657 0.06405
 H2293 H 0.04749 0.01067 0.09293
 H2294 H 0.05987 0.02312 0.11576
 H2295 H 0.02474 0.06014 0.11445
 H2296 H 0.01261 0.04754 0.09153
 C2297 C 0.02963 0.52817 0.59048
 C2298 C 0.02312 0.54191 0.59687
 C2299 C 0.03020 0.54921 0.60985
 C2300 C 0.04397 0.54288 0.61663
 C2301 C 0.05031 0.52892 0.61020
 C2302 C 0.04320 0.52165 0.59720
 C2303 C 0.02307 0.52148 0.57633
 C2304 C 0.01803 0.51650 0.56401
 H2305 H 0.01270 0.54715 0.59165
 H2306 H 0.02490 0.55989 0.61438
 H2307 H 0.06086 0.52365 0.61501
 H2308 H 0.04843 0.51109 0.59224
 C2309 C 0.53106 0.03123 0.58832
 C2310 C 0.52445 0.04477 0.59503
 C2311 C 0.53154 0.05192 0.60811
 C2312 C 0.54549 0.04567 0.61472
 C2313 C 0.55195 0.03193 0.60782
 C2314 C 0.54481 0.02483 0.59476
 C2315 C 0.52425 0.02438 0.57433
 C2316 C 0.51897 0.01901 0.56225
 H2317 H 0.51388 0.04992 0.59004
 H2318 H 0.52605 0.06242 0.61284
 H2319 H 0.56260 0.02659 0.61232
 H2320 H 0.55012 0.01443 0.58956
 C2321 C 0.52920 0.52938 0.08979
 C2322 C 0.52270 0.54303 0.09642
 C2323 C 0.52993 0.55025 0.10938
 C2324 C 0.54386 0.54396 0.11588
 C2325 C 0.55017 0.53010 0.10920
 C2326 C 0.54291 0.52291 0.09625
 C2327 C 0.52250 0.52272 0.07566
 C2328 C 0.51742 0.51765 0.06338
 H2329 H 0.51217 0.54825 0.09142
 H2330 H 0.52464 0.56084 0.11413
 H2331 H 0.56084 0.52484 0.11378
 H2332 H 0.54815 0.51244 0.09111
 C2333 C 0.22000 0.52908 0.66002
 C2334 C 0.20620 0.52278 0.65353
 C2335 C 0.19902 0.53010 0.64062
 C2336 C 0.20552 0.54388 0.63401
 C2337 C 0.21950 0.55001 0.64058
 C2338 C 0.22665 0.54267 0.65349
 C2339 C 0.22670 0.52229 0.67406
 C2340 C 0.23186 0.51720 0.68628
 H2341 H 0.20085 0.51235 0.65861
 H2342 H 0.18829 0.52499 0.63599
 H2343 H 0.22493 0.56056 0.63592
 H2344 H 0.23724 0.54775 0.65852
 C2345 C 0.22050 0.02825 0.15959
 C2346 C 0.20692 0.02176 0.15284
 C2347 C 0.19983 0.02903 0.13986
 C2348 C 0.20621 0.04296 0.13344
 C2349 C 0.21999 0.04927 0.14026
 C2350 C 0.22704 0.04198 0.15323
 C2351 C 0.22704 0.02156 0.17373
 C2352 C 0.23207 0.01658 0.18604
 H2353 H 0.20166 0.01121 0.15778
 H2354 H 0.18927 0.02376 0.13503
 H2355 H 0.22531 0.05994 0.13576
 H2356 H 0.23747 0.04720 0.15847
 C2357 C 0.71938 0.21928 0.58852
 C2358 C 0.70578 0.22587 0.59511
 C2359 C 0.69867 0.21882 0.60820
 C2360 C 0.70504 0.20501 0.61489
 C2361 C 0.71881 0.19856 0.60821
 C2362 C 0.72589 0.20563 0.59512
 C2363 C 0.72613 0.22601 0.57449
 C2364 C 0.73138 0.23126 0.56238
 H2365 H 0.70055 0.23635 0.59002
 H2366 H 0.68811 0.22417 0.61289
 H2367 H 0.72413 0.18800 0.61297
 H2368 H 0.73635 0.20035 0.59003
 C2369 C 0.71897 0.71983 0.08838
 C2370 C 0.70539 0.72640 0.09504
 C2371 C 0.69833 0.71928 0.10812
 C2372 C 0.70472 0.70543 0.11470
 C2373 C 0.71846 0.69902 0.10793
 C2374 C 0.72550 0.70616 0.09487
 C2375 C 0.72567 0.72657 0.07434
 C2376 C 0.73092 0.73176 0.06221
 H2377 H 0.70016 0.73692 0.09002
 H2378 H 0.68780 0.72462 0.11292
 H2379 H 0.72380 0.68842 0.11256
 H2380 H 0.73593 0.70089 0.08971
 C2381 C 0.53112 0.72001 0.16114
 C2382 C 0.54467 0.72657 0.15445
 C2383 C 0.55172 0.71942 0.14136
 C2384 C 0.54532 0.70555 0.13479
 C2385 C 0.53159 0.69914 0.14157
 C2386 C 0.52458 0.70632 0.15465
 C2387 C 0.52446 0.72675 0.17521
 C2388 C 0.51922 0.73194 0.18736
 H2389 H 0.54992 0.73711 0.15947
 H2390 H 0.56222 0.72476 0.13653
 H2391 H 0.52627 0.68851 0.13696
 H2392 H 0.51416 0.70105 0.15982
 C2393 C 0.02960 0.72058 0.66010
 C2394 C 0.04336 0.72701 0.65373
 C2395 C 0.05062 0.71983 0.64079
 C2396 C 0.04422 0.70604 0.63401
 C2397 C 0.03031 0.69973 0.64050
 C2398 C 0.02308 0.70695 0.65345
 C2399 C 0.02287 0.72731 0.67416
 C2400 C 0.01780 0.73245 0.68640
 H2401 H 0.04861 0.73748 0.65888
 H2402 H 0.06131 0.72506 0.63626
 H2403 H 0.02501 0.68916 0.63572
 H2404 H 0.01250 0.70177 0.65838
 C2405 C 0.53001 0.66166 0.21862
 C2406 C 0.54371 0.65526 0.22518
 C2407 C 0.55088 0.64213 0.21824
 C2408 C 0.54447 0.63519 0.20455
 C2409 C 0.53059 0.64167 0.19813
 C2410 C 0.52345 0.65481 0.20511
 C2411 C 0.52326 0.67578 0.22522
 C2412 C 0.51807 0.68797 0.23042
 H2413 H 0.54898 0.66055 0.23557
 H2414 H 0.56152 0.63759 0.22357
 H2415 H 0.52524 0.63673 0.18766
 H2416 H 0.51291 0.65975 0.19985
 C2417 C 0.02881 0.65983 0.72072
 C2418 C 0.02240 0.65322 0.70703
 C2419 C 0.02970 0.64030 0.69984
 C2420 C 0.04360 0.63382 0.70621
 C2421 C 0.04983 0.64048 0.72011
 C2422 C 0.04250 0.65340 0.72727
 C2423 C 0.02208 0.67393 0.72733
 C2424 C 0.01703 0.68622 0.73237
 H2425 H 0.01190 0.65823 0.70176
 H2426 H 0.02448 0.63559 0.68920
 H2427 H 0.06046 0.63590 0.72543
 H2428 H 0.04767 0.65854 0.73778
 C2429 C 0.02909 0.08973 0.02975
 C2430 C 0.02253 0.09654 0.04328
 C2431 C 0.02972 0.10962 0.05034
 C2432 C 0.04364 0.11607 0.04400
 C2433 C 0.05001 0.10920 0.03027
 C2434 C 0.04280 0.09613 0.02324
 C2435 C 0.02243 0.07554 0.02323
 C2436 C 0.01739 0.06320 0.01823
 H2437 H 0.01200 0.09157 0.04851
 H2438 H 0.02440 0.11450 0.06084
 H2439 H 0.06068 0.11372 0.02499
 H2440 H 0.04808 0.09085 0.01287
 C2441 C 0.02921 0.58999 0.52954
 C2442 C 0.04311 0.59617 0.52320
 C2443 C 0.05037 0.60923 0.53023
 C2444 C 0.04384 0.61632 0.54377
 C2445 C 0.02975 0.61007 0.54994
 C2446 C 0.02251 0.59701 0.54288
 C2447 C 0.02250 0.57576 0.52306
 C2448 C 0.01745 0.56340 0.51810
 H2449 H 0.04847 0.59077 0.51294
 H2450 H 0.06115 0.61363 0.52507
 H2451 H 0.02434 0.61508 0.56033
 H2452 H 0.01182 0.59226 0.54797
 C2453 C 0.53060 0.08898 0.53034
 C2454 C 0.52416 0.09556 0.54401
 C2455 C 0.53133 0.10859 0.55115
 C2456 C 0.54512 0.11524 0.54473
 C2457 C 0.55144 0.10855 0.53089
 C2458 C 0.54423 0.09551 0.52378
 C2459 C 0.52377 0.07497 0.52361
 C2460 C 0.51847 0.06284 0.51841
 H2461 H 0.51368 0.09050 0.54927
 H2462 H 0.52605 0.11331 0.56175
 H2463 H 0.56200 0.11325 0.52556
 H2464 H 0.54941 0.09041 0.51327
 C2465 C 0.52897 0.59007 0.02929
 C2466 C 0.54268 0.59649 0.02280
 C2467 C 0.55007 0.60934 0.03006
 C2468 C 0.54386 0.61594 0.04399
 C2469 C 0.52994 0.60946 0.05031
 C2470 C 0.52259 0.59661 0.04302
 C2471 C 0.52217 0.57604 0.02259
 C2472 C 0.51703 0.56380 0.01751
 H2473 H 0.54783 0.59140 0.01227
 H2474 H 0.56071 0.61392 0.02479
 H2475 H 0.52475 0.61413 0.06097
 H2476 H 0.51207 0.59161 0.04825
 C2477 C 0.71915 0.16163 0.53087
 C2478 C 0.70538 0.15517 0.52448
 C2479 C 0.69816 0.14224 0.53171
 C2480 C 0.70459 0.13559 0.54550
 C2481 C 0.71854 0.14214 0.55173
 C2482 C 0.72573 0.15506 0.54447
 C2483 C 0.72600 0.17557 0.52403
 C2484 C 0.73134 0.18763 0.51875
 H2485 H 0.70011 0.16026 0.51401
 H2486 H 0.68747 0.13762 0.52651
 H2487 H 0.72391 0.13743 0.56228
 H2488 H 0.73632 0.16005 0.54959
 C2489 C 0.71843 0.66175 0.03046
 C2490 C 0.70468 0.65520 0.02412
 C2491 C 0.69770 0.64206 0.03122
 C2492 C 0.70437 0.63528 0.04484
 C2493 C 0.71828 0.64192 0.05103
 C2494 C 0.72523 0.65506 0.04390
 C2495 C 0.72508 0.67582 0.02370
 C2496 C 0.73032 0.68795 0.01845
 H2497 H 0.69923 0.66037 0.01378
 H2498 H 0.68703 0.63737 0.02605
 H2499 H 0.72382 0.63713 0.06145
 H2500 H 0.73580 0.66011 0.04900
 C2501 C 0.22058 0.59003 0.72044
 C2502 C 0.20712 0.59684 0.72709
 C2503 C 0.19999 0.60986 0.71990
 C2504 C 0.20619 0.61623 0.70588
 C2505 C 0.21985 0.60935 0.69941
 C2506 C 0.22695 0.59634 0.70663
 C2507 C 0.22718 0.57589 0.72712
 C2508 C 0.23226 0.56359 0.73214
 H2509 H 0.20199 0.59196 0.73771
 H2510 H 0.18953 0.61474 0.72529
 H2511 H 0.22503 0.61382 0.68867
 H2512 H 0.23728 0.59106 0.70129
 C2513 C 0.22109 0.09005 0.22014
 C2514 C 0.20734 0.09643 0.22661
 C2515 C 0.20009 0.10944 0.21954
 C2516 C 0.20646 0.11625 0.20581
 C2517 C 0.22042 0.10984 0.19952
 C2518 C 0.22764 0.09682 0.20662
 C2519 C 0.22777 0.07589 0.22669
 C2520 C 0.23279 0.06359 0.23174
 H2521 H 0.20206 0.09119 0.23698
 H2522 H 0.18940 0.11394 0.22479
 H2523 H 0.22574 0.11469 0.18902
 H2524 H 0.23821 0.09188 0.20141
 C2525 C 0.72002 1.08895 0.71906
 C2526 C 0.72669 1.09588 0.70567
 C2527 C 0.71958 1.10904 0.69872
 C2528 C 0.70563 1.11548 0.70503
 C2529 C 0.69915 1.10850 0.71863
 C2530 C 0.70628 1.09534 0.72555
 C2531 C 0.72674 1.07478 0.72560
 C2532 C 0.73191 1.06256 0.73074
 H2533 H 0.73726 1.09096 0.70046
 H2534 H 0.72498 1.11399 0.68831
 H2535 H 0.68848 1.11304 0.72390
 H2536 H 0.70094 1.09001 0.73584
 C2537 C 0.72098 0.59018 0.22022
 C2538 C 0.72737 0.59666 0.20650
 C2539 C 0.72003 0.60948 0.19919
 C2540 C 0.70610 0.61597 0.20548
 C2541 C 0.69988 0.60943 0.21941
 C2542 C 0.70726 0.59662 0.22668
 C2543 C 0.72777 0.57618 0.22696
 C2544 C 0.73287 0.56395 0.23210
 H2545 H 0.73790 0.59165 0.20129
 H2546 H 0.72523 0.61411 0.18854
 H2547 H 0.68923 0.61402 0.22467
 H2548 H 0.70210 0.59156 0.23721
 C2549 C 0.52915 0.15992 0.71919
 C2550 C 0.54287 0.15354 0.72570
 C2551 C 0.55025 0.14064 0.71854
 C2552 C 0.54406 0.13386 0.70462
 C2553 C 0.53009 0.14036 0.69830
 C2554 C 0.52276 0.15328 0.70551
 C2555 C 0.52230 0.17395 0.72594
 C2556 C 0.51717 0.18615 0.73118
 H2557 H 0.54803 0.15870 0.73620
 H2558 H 0.56089 0.13621 0.72396
 H2559 H 0.52478 0.13569 0.68769
 H2560 H 0.51222 0.15823 0.70027
 C2561 C 1.02863 0.15940 0.22011
 C2562 C 1.04171 0.15236 0.22724
 C2563 C 1.04902 0.13939 0.22016
 C2564 C 1.04337 0.13327 0.20577
 C2565 C 1.03009 0.14036 0.19878
 C2566 C 1.02280 0.15335 0.20590
 C2567 C 1.02194 0.17352 0.22676
 C2568 C 1.01690 0.18581 0.23186
 H2569 H 1.04645 0.15708 0.23814
 H2570 H 1.05925 0.13438 0.22587
 H2571 H 1.02530 0.13597 0.18780
 H2572 H 1.01275 0.15880 0.20020
 C2573 C 0.21958 0.66159 0.53048
 C2574 C 0.20591 0.65503 0.52396
 C2575 C 0.19877 0.64199 0.53107
 C2576 C 0.20517 0.63531 0.54486
 C2577 C 0.21901 0.64195 0.55123
 C2578 C 0.22612 0.65500 0.54409
 C2579 C 0.22632 0.67562 0.52373
 C2580 C 0.23155 0.68775 0.51848
 H2581 H 0.20066 0.66013 0.51349
 H2582 H 0.18818 0.63730 0.52575
 H2583 H 0.22435 0.63723 0.56178
 H2584 H 0.23663 0.66007 0.54932
 C2585 C 0.22161 0.15964 1.02934
 C2586 C 0.20790 0.15321 1.02281
 C2587 C 0.20056 0.14033 1.03000
 C2588 C 0.20680 0.13372 1.04390
 C2589 C 0.22072 0.14021 1.05025
 C2590 C 0.22804 0.15308 1.04303
 C2591 C 0.22835 0.17372 1.02272
 C2592 C 0.23340 0.18600 1.01769
 H2593 H 0.20273 0.15832 1.01231
 H2594 H 0.18991 0.13576 1.02470
 H2595 H 0.22594 0.13553 1.06088
 H2596 H 0.23856 0.15809 1.04828
 C2597 C 0.21905 0.71983 0.58826
 C2598 C 0.20542 0.72632 0.59488
 C2599 C 0.19835 0.71917 0.60793
 C2600 C 0.20480 0.70536 0.61455
 C2601 C 0.21859 0.69901 0.60782
 C2602 C 0.22562 0.70618 0.59477
 C2603 C 0.22575 0.72664 0.57426
 C2604 C 0.23098 0.73193 0.56217
 H2605 H 0.20015 0.73681 0.58985
 H2606 H 0.18780 0.72448 0.61269
 H2607 H 0.22396 0.68843 0.61249
 H2608 H 0.23610 0.70097 0.58965
 C2609 C 0.22088 0.22078 1.09017
 C2610 C 0.20713 0.22724 1.09657
 C2611 C 0.19992 0.22013 1.10955
 C2612 C 0.20632 0.20637 1.11633
 C2613 C 0.22029 0.20010 1.10989
 C2614 C 0.22747 0.20724 1.09690
 C2615 C 0.22753 0.22737 1.07602
 C2616 C 0.23255 0.23241 1.06373
 H2617 H 0.20183 0.23763 1.09135
 H2618 H 0.18922 0.22536 1.11407
 H2619 H 0.22564 0.18959 1.11471
 H2620 H 0.23804 0.20205 1.09194
 C2621 C 0.72059 0.52937 0.15992
 C2622 C 0.70697 0.52280 0.15333
 C2623 C 0.69969 0.53003 0.14042
 C2624 C 0.70590 0.54401 0.13393
 C2625 C 0.71972 0.55040 0.14059
 C2626 C 0.72697 0.54315 0.15350
 C2627 C 0.72731 0.52267 0.17398
 C2628 C 0.73241 0.51760 0.18623
 H2629 H 0.70183 0.51223 0.15832
 H2630 H 0.68911 0.52469 0.13572
 H2631 H 0.72491 0.56111 0.13602
 H2632 H 0.73742 0.54843 0.15862
 C2633 C 0.71852 1.03097 0.66196
 C2634 C 0.70500 1.02438 0.65521
 C2635 C 0.69786 1.03161 0.64224
 C2636 C 0.70413 1.04560 0.63585
 C2637 C 0.71778 1.05209 0.64275
 C2638 C 0.72489 1.04483 0.65571
 C2639 C 0.72535 1.02403 0.67584
 C2640 C 0.73070 1.01866 0.68785
 H2641 H 0.69987 1.01373 0.66007
 H2642 H 0.68736 1.02624 0.63739
 H2643 H 0.72302 1.06279 0.63823
 H2644 H 0.73528 1.05013 0.66096
 C2645 C 0.52963 0.22134 0.65966
 C2646 C 0.54334 0.22780 0.65322
 C2647 C 0.55067 0.22050 0.64039
 C2648 C 0.54441 0.20655 0.63383
 C2649 C 0.53047 0.20029 0.64032
 C2650 C 0.52317 0.20762 0.65314
 C2651 C 0.52293 0.22801 0.67373
 C2652 C 0.51783 0.23300 0.68601
 H2653 H 0.54854 0.23833 0.65830
 H2654 H 0.56133 0.22574 0.63580
 H2655 H 0.52522 0.18962 0.63568
 H2656 H 0.51265 0.20242 0.65816
 C2657 C 1.02919 0.22059 0.15983
 C2658 C 1.02264 0.20703 0.15305
 C2659 C 1.02985 0.19992 0.14003
 C2660 C 1.04379 0.20625 0.13361
 C2661 C 1.05017 0.22000 0.14046
 C2662 C 1.04294 0.22708 0.15348
 C2663 C 1.02246 0.22716 0.17396
 C2664 C 1.01734 0.23216 0.18625
 H2665 H 1.01209 0.20180 0.15798
 H2666 H 1.02452 0.18940 0.13516
 H2667 H 1.06086 0.22526 0.13595
 H2668 H 1.04822 0.23748 0.15874
 C2669 C 0.59002 0.21989 0.72102
 C2670 C 0.59675 0.22670 0.70761
 C2671 C 0.60967 0.21956 0.70029
 C2672 C 0.61607 0.20542 0.70625
 C2673 C 0.60933 0.19881 0.71990
 C2674 C 0.59639 0.20598 0.72719
 C2675 C 0.57590 0.22651 0.72770
 C2676 C 0.56361 0.23157 0.73272
 H2677 H 0.59181 0.23738 0.70262
 H2678 H 0.61441 0.22504 0.68983
 H2679 H 0.61389 0.18801 0.72493
 H2680 H 0.59119 0.20052 0.73749
 C2681 C 1.08968 0.22030 0.22067
 C2682 C 1.09615 0.22686 0.20701
 C2683 C 1.10911 0.21973 0.19975
 C2684 C 1.11578 0.20586 0.20603
 C2685 C 1.10924 0.19948 0.21989
 C2686 C 1.09628 0.20664 0.22711
 C2687 C 1.07558 0.22690 0.22738
 C2688 C 1.06330 0.23191 0.23247
 H2689 H 1.09102 0.23735 0.20182
 H2690 H 1.11373 0.22505 0.18915
 H2691 H 1.11395 0.18887 0.22514
 H2692 H 1.09125 0.20136 0.23760
 C2693 C 0.16155 0.71913 0.53034
 C2694 C 0.15520 0.70524 0.52404
 C2695 C 0.14213 0.69814 0.53114
 C2696 C 0.13523 0.70481 0.54470
 C2697 C 0.14166 0.71889 0.55082
 C2698 C 0.15472 0.72595 0.54370
 C2699 C 0.17560 0.72588 0.52365
 C2700 C 0.18772 0.73118 0.51848
 H2701 H 0.16047 0.69979 0.51375
 H2702 H 0.13755 0.68739 0.52599
 H2703 H 0.13681 0.72442 0.56122
 H2704 H 0.15962 0.73663 0.54876
 C2705 C 0.16048 0.21996 1.02921
 C2706 C 0.15390 0.20625 1.02280
 C2707 C 0.14097 0.19909 1.03007
 C2708 C 0.13445 0.20551 1.04394
 C2709 C 0.14110 0.21942 1.05018
 C2710 C 0.15402 0.22656 1.04288
 C2711 C 0.17454 0.22660 1.02245
 C2712 C 0.18678 0.23169 1.01737
 H2713 H 0.15891 0.20094 1.01231
 H2714 H 0.13626 0.18844 1.02484
 H2715 H 0.13649 0.22478 1.06079
 H2716 H 0.15914 0.23708 1.04805
 C2717 C 0.66024 0.52996 0.22059
 C2718 C 0.65376 0.54374 0.22698
 C2719 C 0.64083 0.55094 0.21973
 C2720 C 0.63420 0.54450 0.20591
 C2721 C 0.64074 0.53052 0.19970
 C2722 C 0.65367 0.52335 0.20698
 C2723 C 0.67430 0.52330 0.22731
 C2724 C 0.68655 0.51822 0.23242
 H2725 H 0.65886 0.54905 0.23743
 H2726 H 0.63622 0.56164 0.22493
 H2727 H 0.63605 0.52514 0.18913
 H2728 H 0.65869 0.51278 0.20183
 C2729 C 0.66142 1.03098 0.71913
 C2730 C 0.65475 1.04456 0.72571
 C2731 C 0.64172 1.05170 0.71856
 C2732 C 0.63518 1.04538 0.70464
 C2733 C 0.64196 1.03162 0.69819
 C2734 C 0.65498 1.02451 0.70538
 C2735 C 0.67539 1.02419 0.72597
 C2736 C 0.68747 1.01891 0.73128
 H2737 H 0.65972 1.04975 0.73629
 H2738 H 0.63693 1.06223 0.72394
 H2739 H 0.63735 1.02633 0.68755
 H2740 H 0.66013 1.01407 0.70010
 C2741 C 0.83815 0.46958 0.28186
 C2742 C 0.84458 0.45588 0.27529
 C2743 C 0.85762 0.44866 0.28231
 C2744 C 0.86445 0.45504 0.29607
 C2745 C 0.85787 0.46886 0.30256
 C2746 C 0.84481 0.47605 0.29551
 C2747 C 0.82426 0.47652 0.27504
 C2748 C 0.81225 0.48188 0.26966
 H2749 H 0.83942 0.45068 0.26481
 H2750 H 0.86220 0.43803 0.27696
 H2751 H 0.86268 0.47416 0.31312
 H2752 H 0.83984 0.48659 0.30078
 C2753 C 0.83945 0.97053 0.78038
 C2754 C 0.84571 0.95661 0.77411
 C2755 C 0.85862 0.94934 0.78133
 C2756 C 0.86546 0.95587 0.79501
 C2757 C 0.85909 0.96996 0.80115
 C2758 C 0.84618 0.97720 0.79390
 C2759 C 0.82546 0.97733 0.77360
 C2760 C 0.81328 0.98248 0.76840
 H2761 H 0.84048 0.95124 0.76374
 H2762 H 0.86312 0.93857 0.77617
 H2763 H 0.86391 0.97537 0.81165
 H2764 H 0.84130 0.98787 0.79897
 C2765 C 0.41160 0.28046 0.78100
 C2766 C 0.40485 0.29395 0.77433
 C2767 C 0.39179 0.30109 0.78142
 C2768 C 0.38529 0.29486 0.79537
 C2769 C 0.39213 0.28120 0.80190
 C2770 C 0.40519 0.27409 0.79478
 C2771 C 0.42561 0.27369 0.77423
 C2772 C 0.43770 0.26840 0.76897
 H2773 H 0.40979 0.29907 0.76374
 H2774 H 0.38693 0.31154 0.77598
 H2775 H 0.38758 0.27602 0.81260
 H2776 H 0.41041 0.26374 0.80014
 C2777 C 0.91139 0.28039 0.28136
 C2778 C 0.90464 0.27386 0.29490
 C2779 C 0.89151 0.28098 0.30187
 C2780 C 0.88494 0.29481 0.29541
 C2781 C 0.89181 0.30122 0.28173
 C2782 C 0.90494 0.29407 0.27479
 C2783 C 0.92539 0.27354 0.27468
 C2784 C 0.93746 0.26823 0.26939
 H2785 H 0.90964 0.26334 0.30017
 H2786 H 0.88665 0.27565 0.31236
 H2787 H 0.88720 0.31182 0.27637
 H2788 H 0.91015 0.29932 0.26439
 C2789 C 0.33988 0.77962 0.47012
 C2790 C 0.34671 0.77290 0.45670
 C2791 C 0.35972 0.78009 0.44958
 C2792 C 0.36607 0.79416 0.45576
 C2793 C 0.35913 0.80075 0.46935
 C2794 C 0.34613 0.79354 0.47643
 C2795 C 0.32583 0.77286 0.47676
 C2796 C 0.31360 0.76773 0.48185
 H2797 H 0.34186 0.76222 0.45159
 H2798 H 0.36462 0.77463 0.43915
 H2799 H 0.36361 0.81151 0.47453
 H2800 H 0.34082 0.79894 0.48673
 C2801 C 0.33881 0.28082 0.96947
 C2802 C 0.34551 0.29439 0.97609
 C2803 C 0.35850 0.30157 0.96892
 C2804 C 0.36497 0.29529 0.95496
 C2805 C 0.35818 0.28154 0.94850
 C2806 C 0.34520 0.27440 0.95570
 C2807 C 0.32482 0.27404 0.97626
 C2808 C 0.31271 0.26876 0.98149
 H2809 H 0.34059 0.29954 0.98670
 H2810 H 0.36333 0.31208 0.97430
 H2811 H 0.36272 0.27630 0.93781
 H2812 H 0.34004 0.26395 0.95041
 C2813 C 0.78069 0.46903 0.33831
 C2814 C 0.77409 0.45545 0.34494
 C2815 C 0.78123 0.44828 0.35794
 C2816 C 0.79515 0.45457 0.36449
 C2817 C 0.80161 0.46831 0.35776
 C2818 C 0.79443 0.47545 0.34476
 C2819 C 0.77389 0.47584 0.32436
 C2820 C 0.76863 0.48116 0.31229
 H2821 H 0.76352 0.45029 0.33994
 H2822 H 0.77585 0.43776 0.36271
 H2823 H 0.81226 0.47357 0.36238
 H2824 H 0.79972 0.48589 0.33963
 C2825 C 0.77873 0.97086 0.84020
 C2826 C 0.79256 0.97724 0.84650
 C2827 C 0.79996 0.96996 0.85929
 C2828 C 0.79365 0.95611 0.86594
 C2829 C 0.77960 0.94991 0.85959
 C2830 C 0.77223 0.95722 0.84680
 C2831 C 0.77194 0.97754 0.82619
 C2832 C 0.76684 0.98259 0.81394
 H2833 H 0.79780 0.98769 0.84135
 H2834 H 0.81071 0.97514 0.86377
 H2835 H 0.77431 0.93932 0.86430
 H2836 H 0.76161 0.95208 0.84188
 C2837 C 0.27871 0.77989 0.40976
 C2838 C 0.27260 0.79385 0.40346
 C2839 C 0.27994 0.80104 0.39059
 C2840 C 0.29358 0.79438 0.38385
 C2841 C 0.29947 0.78018 0.39017
 C2842 C 0.29210 0.77303 0.40303
 C2843 C 0.27202 0.77328 0.42387
 C2844 C 0.26701 0.76825 0.43615
 H2845 H 0.26232 0.79935 0.40868
 H2846 H 0.27497 0.81188 0.38609
 H2847 H 0.30992 0.77466 0.38542
 H2848 H 0.29703 0.76230 0.40793
 C2849 C 0.28064 0.28130 0.91177
 C2850 C 0.27424 0.29501 0.90520
 C2851 C 0.28148 0.30215 0.89224
 C2852 C 0.29530 0.29570 0.88566
 C2853 C 0.30156 0.28183 0.89233
 C2854 C 0.29429 0.27472 0.90529
 C2855 C 0.27377 0.27453 0.92571
 C2856 C 0.26848 0.26924 0.93778
 H2857 H 0.26376 0.30030 0.91022
 H2858 H 0.27626 0.31278 0.88754
 H2859 H 0.31214 0.27646 0.88770
 H2860 H 0.29944 0.26419 0.91037
 C2861 C 0.46880 0.28113 0.83800
 C2862 C 0.47528 0.29486 0.84448
 C2863 C 0.46817 0.30210 0.85749
 C2864 C 0.45438 0.29572 0.86419
 C2865 C 0.44802 0.28184 0.85757
 C2866 C 0.45517 0.27464 0.84458
 C2867 C 0.47563 0.27421 0.82409
 C2868 C 0.48096 0.26880 0.81207
 H2869 H 0.48576 0.30009 0.83938
 H2870 H 0.47347 0.31273 0.86214
 H2871 H 0.43746 0.27651 0.86230
 H2872 H 0.44995 0.26409 0.83955
 C2873 C 0.96943 0.28055 0.33857
 C2874 C 0.95586 0.27399 0.34521
 C2875 C 0.94870 0.28118 0.35820
 C2876 C 0.95499 0.29511 0.36475
 C2877 C 0.96872 0.30156 0.35801
 C2878 C 0.97586 0.29433 0.34501
 C2879 C 0.97620 0.27368 0.32461
 C2880 C 0.98142 0.26834 0.31252
 H2881 H 0.95069 0.26340 0.34022
 H2882 H 0.93818 0.27581 0.36296
 H2883 H 0.97397 0.31223 0.36263
 H2884 H 0.98629 0.29961 0.33987
 C2885 C 0.46971 0.33858 0.78068
 C2886 C 0.47591 0.34493 0.79460
 C2887 C 0.46866 0.35790 0.80178
 C2888 C 0.45503 0.36470 0.79516
 C2889 C 0.44902 0.35830 0.78104
 C2890 C 0.45629 0.34533 0.77389
 C2891 C 0.47649 0.32455 0.77394
 C2892 C 0.48170 0.31239 0.76869
 H2893 H 0.48623 0.33972 0.80003
 H2894 H 0.47373 0.36247 0.81255
 H2895 H 0.43856 0.36309 0.77555
 H2896 H 0.45130 0.34042 0.76319
 C2897 C 0.96805 0.33765 0.28113
 C2898 C 0.97463 0.34413 0.29481
 C2899 C 0.96762 0.35720 0.30203
 C2900 C 0.95385 0.36399 0.29569
 C2901 C 0.94735 0.35735 0.28190
 C2902 C 0.95439 0.34428 0.27471
 C2903 C 0.97485 0.32374 0.27415
 C2904 C 0.98019 0.31173 0.26872
 H2905 H 0.98512 0.33899 0.29997
 H2906 H 0.97302 0.36188 0.31259
 H2907 H 0.93680 0.36214 0.27661
 H2908 H 0.94910 0.33925 0.26420
 C2909 C 0.27996 0.84018 0.47070
 C2910 C 0.29362 0.84674 0.47721
 C2911 C 0.30093 0.85960 0.46993
 C2912 C 0.29469 0.86607 0.45596
 C2913 C 0.28085 0.85942 0.44961
 C2914 C 0.27358 0.84657 0.45691
 C2915 C 0.27318 0.82618 0.47747
 C2916 C 0.26800 0.81397 0.48257
 H2917 H 0.29878 0.84177 0.48778
 H2918 H 0.31152 0.86430 0.47523
 H2919 H 0.27563 0.86398 0.43892
 H2920 H 0.26310 0.84146 0.45167
 C2921 C 0.28131 0.33822 0.96911
 C2922 C 0.27479 0.34469 0.95543
 C2923 C 0.28194 0.35764 0.94817
 C2924 C 0.29579 0.36430 0.95449
 C2925 C 0.30218 0.35773 0.96834
 C2926 C 0.29500 0.34478 0.97556
 C2927 C 0.27450 0.32430 0.97600
 C2928 C 0.26919 0.31226 0.98134
 H2929 H 0.26427 0.33960 0.95024
 H2930 H 0.27662 0.36227 0.93757
 H2931 H 0.31279 0.36243 0.97360
 H2932 H 0.30024 0.33976 0.98607
 C2933 C 0.78075 0.41160 0.28046
 C2934 C 0.79447 0.40510 0.27405
 C2935 C 0.80166 0.39213 0.28125
 C2936 C 0.79524 0.38548 0.29504
 C2937 C 0.78133 0.39206 0.30128
 C2938 C 0.77417 0.40502 0.29405
 C2939 C 0.77399 0.42560 0.27367
 C2940 C 0.76874 0.43773 0.26844
 H2941 H 0.79973 0.41018 0.26359
 H2942 H 0.81229 0.38747 0.27602
 H2943 H 0.77596 0.38734 0.31182
 H2944 H 0.76361 0.41005 0.29919
   
