data_POSCAR
  _audit_creation_date              2014-09-24
  _audit_creation_method            'ToBaCCo'
  _symmetry_space_group_name_H-M    'P1'
  _symmetry_Int_Tables_number       1
  _symmetry_cell_setting            triclinic
  loop_
  _symmetry_equiv_pos_as_xyz
 x,y,z
_cell_length_a 40.2071
_cell_length_b 40.6895
_cell_length_c 36.9142
_cell_angle_alpha 88.830300
_cell_angle_beta 89.610100
_cell_angle_gamma 89.509900
loop_
  _atom_site_label
  _atom_site_type_symbol
  _atom_site_fract_x
  _atom_site_fract_y
  _atom_site_fract_z
C1 C 0.39496 0.03312 0.29561
 H2 H 0.39683 0.04931 0.27209
 C3 C 0.40942 0.04197 0.32821
 H4 H 0.42322 0.06464 0.32944
 C5 C 0.37343 -0.01555 0.32293
 H6 H 0.35821 -0.03718 0.32122
 C7 C 0.38779 -0.00786 0.35591
 H8 H 0.38405 -0.02420 0.37905
 N9 N 0.37740 0.00481 0.29360
 C10 C 0.36231 -0.01653 0.18066
 H11 H 0.33557 -0.01873 0.18248
 C12 C 0.37863 -0.02432 0.14869
 H13 H 0.36430 -0.03221 0.12573
 C14 C 0.41342 -0.00382 0.20875
 H15 H 0.42673 0.00352 0.23258
 C16 C 0.43077 -0.01048 0.17670
 H17 H 0.45755 -0.00795 0.17575
 Zn18 Zn 0.35312 -0.00154 0.25110
 N19 N 0.37978 -0.00689 0.20991
 C20 C 0.33332 0.05911 0.21908
 N21 N 0.32658 0.03607 0.24530
 C22 C 0.30279 0.04099 0.27092
 C23 C 0.28371 0.06960 0.27013
 C24 C 0.31550 0.08872 0.21804
 C25 C 0.34281 -0.06900 0.25917
 C26 C 0.32559 -0.09838 0.25572
 C27 C 0.27602 -0.06667 0.24165
 C28 C 0.29412 -0.03802 0.24581
 N29 N 0.32693 -0.03966 0.25422
 H30 H 0.35314 0.05495 0.19973
 H31 H 0.29886 0.02266 0.29212
 H32 H 0.26471 0.07318 0.29066
 H33 H 0.32118 0.10723 0.19747
 H34 H 0.36923 -0.06955 0.26456
 H35 H 0.33925 -0.12120 0.25931
 H36 H 0.25009 -0.06441 0.23411
 H37 H 0.28227 -0.01457 0.24032
 C38 C 0.41318 -0.02126 0.14647
 C39 C 0.40585 0.02133 0.35883
 C40 C 0.29175 -0.09756 0.24599
 C41 C 0.29031 0.09391 0.24372
 C42 C 0.10470 0.03934 0.70911
 H43 H 0.10458 0.05414 0.73312
 C44 C 0.08516 0.04863 0.67939
 H45 H 0.06964 0.07044 0.68096
 C46 C 0.12542 -0.00683 0.67774
 H47 H 0.14152 -0.02816 0.67687
 C48 C 0.10637 0.00155 0.64748
 H49 H 0.10792 -0.01380 0.62395
 N50 N 0.12390 0.01172 0.70798
 C51 C 0.14219 -0.02982 0.81574
 H52 H 0.16845 -0.03510 0.81250
 C53 C 0.12543 -0.04106 0.84673
 H54 H 0.13900 -0.05456 0.86755
 C55 C 0.09270 -0.00563 0.79250
 H56 H 0.07995 0.00771 0.77108
 C57 C 0.07510 -0.01586 0.82343
 H58 H 0.04887 -0.00996 0.82567
 Zn59 Zn 0.15104 -0.00002 0.74794
 N60 N 0.12579 -0.01227 0.78951
 C61 C 0.18238 0.04510 0.79312
 N62 N 0.17882 0.03569 0.75826
 C63 C 0.19330 0.05273 0.73035
 C64 C 0.21145 0.08111 0.73697
 C65 C 0.20063 0.07298 0.80099
 C66 C 0.15927 -0.06593 0.73683
 C67 C 0.17606 -0.09551 0.73209
 C68 C 0.22734 -0.06524 0.72486
 C69 C 0.20958 -0.03615 0.73046
 N70 N 0.17622 -0.03718 0.73643
 H71 H 0.17049 0.03142 0.81489
 H72 H 0.18991 0.04477 0.70284
 H73 H 0.22208 0.09480 0.71433
 H74 H 0.20250 0.08042 0.82889
 H75 H 0.13271 -0.06582 0.74170
 H76 H 0.16224 -0.11823 0.73294
 H77 H 0.25399 -0.06436 0.72056
 H78 H 0.22242 -0.01292 0.73059
 C79 C 0.09159 -0.03369 0.85104
 C80 C 0.08561 0.02941 0.64818
 C81 C 0.21052 -0.09530 0.72639
 C82 C 0.21485 0.09177 0.77270
 C83 C 0.60397 0.53922 0.20817
 H84 H 0.60302 0.55416 0.23207
 C85 C 0.58629 0.54890 0.17723
 H86 H 0.57122 0.57107 0.17772
 C87 C 0.62540 0.49254 0.17825
 H88 H 0.64119 0.47095 0.17839
 C89 C 0.60826 0.50130 0.14682
 H90 H 0.61094 0.48595 0.12340
 N91 N 0.62265 0.51120 0.20827
 C92 C 0.58862 0.49620 0.29190
 H93 H 0.57691 0.51003 0.27014
 C94 C 0.57004 0.48694 0.32244
 H95 H 0.54405 0.49397 0.32409
 C96 C 0.63663 0.47011 0.31651
 H97 H 0.66274 0.46389 0.31403
 C98 C 0.61882 0.45972 0.34708
 H99 H 0.63137 0.44580 0.36833
 Zn100 Zn 0.64813 0.49962 0.24943
 N101 N 0.62143 0.48811 0.28980
 C102 C 0.67759 0.54550 0.29535
 N103 N 0.67499 0.53560 0.26053
 C104 C 0.68919 0.55283 0.23264
 C105 C 0.70592 0.58201 0.23914
 C106 C 0.69455 0.57422 0.30313
 C107 C 0.65729 0.43346 0.23879
 C108 C 0.67465 0.40393 0.23587
 C109 C 0.72599 0.43454 0.23358
 C110 C 0.70762 0.46355 0.23710
 N111 N 0.67395 0.46235 0.23980
 H112 H 0.66587 0.53160 0.31707
 H113 H 0.68654 0.54443 0.20520
 H114 H 0.71646 0.59579 0.21652
 H115 H 0.69579 0.58215 0.33091
 H116 H 0.63047 0.43342 0.24126
 H117 H 0.66098 0.38113 0.23553
 H118 H 0.75286 0.43566 0.23193
 H119 H 0.72021 0.48686 0.23840
 C120 C 0.58527 0.46858 0.35046
 C121 C 0.58813 0.52966 0.14612
 C122 C 0.70943 0.40430 0.23363
 C123 C 0.70826 0.59321 0.27474
 C124 C 0.90193 0.53398 0.79730
 H125 H 0.90111 0.55200 0.77536
 C126 C 0.91661 0.54187 0.83013
 H127 H 0.92792 0.56576 0.83273
 C128 C 0.88624 0.48176 0.82095
 H129 H 0.87305 0.45900 0.81791
 C130 C 0.90104 0.48835 0.85398
 H131 H 0.89949 0.46987 0.87536
 N132 N 0.88676 0.50455 0.79356
 C133 C 0.86183 0.48708 0.68175
 H134 H 0.83532 0.48484 0.68620
 C135 C 0.87540 0.47991 0.64812
 H136 H 0.85916 0.47258 0.62648
 C137 C 0.91519 0.49887 0.70509
 H138 H 0.93044 0.50556 0.72776
 C139 C 0.92981 0.49267 0.67139
 H140 H 0.95647 0.49493 0.66803
 Zn141 Zn 0.85899 0.49985 0.75340
 N142 N 0.88175 0.49598 0.70940
 C143 C 0.83454 0.56036 0.72501
 N144 N 0.83193 0.53750 0.75228
 C145 C 0.81248 0.54266 0.78188
 C146 C 0.79361 0.57130 0.78435
 C147 C 0.81681 0.58993 0.72693
 C148 C 0.85012 0.43223 0.75621
 C149 C 0.83262 0.40279 0.75613
 C150 C 0.78140 0.43415 0.76001
 C151 C 0.79983 0.46292 0.75972
 N152 N 0.83357 0.46144 0.75818
 H153 H 0.85103 0.55607 0.70232
 H154 H 0.81192 0.52453 0.80372
 H155 H 0.77805 0.57505 0.80801
 H156 H 0.81914 0.60818 0.70531
 H157 H 0.87697 0.43192 0.75406
 H158 H 0.84620 0.37979 0.75453
 H159 H 0.75452 0.43584 0.76104
 H160 H 0.78704 0.48632 0.75972
 C161 C 0.90971 0.48268 0.64267
 C162 C 0.91601 0.51903 0.85924
 C163 C 0.79779 0.40367 0.75794
 C164 C 0.79598 0.59537 0.75683
 C165 C 0.19797 0.42938 1.01808
 H166 H 0.20880 0.43023 1.04480
 C167 C 0.16608 0.44209 1.01212
 H168 H 0.15275 0.45311 1.03439
 C169 C 0.20158 0.41193 0.95727
 H170 H 0.21496 0.39928 0.93623
 C171 C 0.16993 0.42437 0.95010
 H172 H 0.15956 0.42145 0.92337
 N173 N 0.21469 0.41416 0.99096
 C174 C 0.31991 0.40426 1.00933
 H175 H 0.32213 0.37828 1.00408
 C176 C 0.34835 0.42300 1.01290
 H177 H 0.37255 0.41127 1.01075
 C178 C 0.28546 0.45112 1.01822
 H179 H 0.26084 0.46190 1.01960
 C180 C 0.31341 0.47070 1.02303
 H181 H 0.31031 0.49663 1.02833
 Zn182 Zn 0.25375 0.39056 1.00204
 N183 N 0.28932 0.41856 1.01151
 C184 C 0.28122 0.38381 0.93429
 N185 N 0.26645 0.36602 0.96140
 C186 C 0.26072 0.33333 0.95824
 C187 C 0.26897 0.31758 0.92601
 C188 C 0.29030 0.36904 0.90204
 C189 C 0.21649 0.34595 1.04494
 C190 C 0.20695 0.33011 1.07732
 C191 C 0.25572 0.35201 1.10577
 C192 C 0.26420 0.36748 1.07307
 N193 N 0.24465 0.36424 1.04349
 H194 H 0.28530 0.40983 0.93750
 H195 H 0.24906 0.31971 0.98026
 H196 H 0.26362 0.29171 0.92347
 H197 H 0.30137 0.38389 0.88055
 H198 H 0.20092 0.34451 1.02125
 H199 H 0.18438 0.31578 1.07818
 H200 H 0.27148 0.35548 1.12899
 H201 H 0.28596 0.38281 1.07170
 C202 C 0.34520 0.45660 1.01969
 C203 C 0.15144 0.43888 0.97793
 C204 C 0.22669 0.33316 1.10827
 C205 C 0.28357 0.33571 0.89730
 C206 C 0.79409 0.07010 0.96046
 H207 H 0.77156 0.06532 0.94568
 C208 C 0.82362 0.05366 0.95161
 H209 H 0.82334 0.03597 0.93008
 C210 C 0.82172 0.09937 1.00596
 H211 H 0.82141 0.11808 1.02624
 C212 C 0.85159 0.08334 0.99835
 H213 H 0.87336 0.08974 1.01365
 N214 N 0.79346 0.09179 0.98796
 C215 C 0.68994 0.09902 1.02363
 H216 H 0.68887 0.12544 1.02626
 C217 C 0.66147 0.08043 1.02975
 H218 H 0.63858 0.09273 1.03739
 C219 C 0.72126 0.05123 1.00965
 H220 H 0.74457 0.04005 1.00170
 C221 C 0.69338 0.03160 1.01587
 H222 H 0.69542 0.00531 1.01225
 Zn223 Zn 0.75332 0.11364 1.00044
 N224 N 0.71869 0.08440 1.01252
 C225 C 0.71163 0.13194 0.94251
 N226 N 0.74007 0.13981 0.96004
 C227 C 0.76081 0.16330 0.94649
 C228 C 0.75348 0.17950 0.91368
 C229 C 0.70329 0.14759 0.90988
 C230 C 0.77025 0.11821 1.07117
 C231 C 0.77931 0.13219 1.10359
 C232 C 0.76612 0.18577 1.07761
 C233 C 0.75831 0.17074 1.04501
 N234 N 0.76096 0.13753 1.04245
 H235 H 0.69596 0.11246 0.95281
 H236 H 0.78360 0.16863 0.96055
 H237 H 0.77064 0.19767 0.90307
 H238 H 0.68094 0.14033 0.89603
 H239 H 0.77164 0.09182 1.06832
 H240 H 0.78729 0.11647 1.12599
 H241 H 0.76409 0.21222 1.07968
 H242 H 0.75037 0.18546 1.02188
 C243 C 0.66281 0.04637 1.02499
 C244 C 0.85281 0.05968 0.97122
 C245 C 0.77735 0.16628 1.10699
 C246 C 0.72462 0.17122 0.89467
 C247 C 0.28317 0.57555 0.45331
 H248 H 0.26088 0.57479 0.43710
 C249 C 0.31154 0.55785 0.44293
 H250 H 0.31095 0.54305 0.41890
 C251 C 0.31102 0.59512 0.50488
 H252 H 0.31075 0.60903 0.52944
 C253 C 0.34003 0.57865 0.49501
 H254 H 0.36151 0.57999 0.51240
 N255 N 0.28329 0.59333 0.48415
 C256 C 0.18044 0.60270 0.52143
 H257 H 0.17920 0.62887 0.52598
 C258 C 0.15217 0.58358 0.52666
 H259 H 0.12923 0.59523 0.53526
 C260 C 0.21200 0.55597 0.50439
 H261 H 0.23533 0.54534 0.49563
 C262 C 0.18442 0.53583 0.50970
 H263 H 0.18669 0.50981 0.50452
 Zn264 Zn 0.24499 0.61737 0.49831
 N265 N 0.20924 0.58891 0.50923
 C266 C 0.20129 0.64735 0.44628
 N267 N 0.23302 0.64586 0.45902
 C268 C 0.25807 0.66193 0.44146
 C269 C 0.25180 0.67992 0.40963
 C270 C 0.19382 0.66549 0.41482
 C271 C 0.24429 0.62868 0.57302
 C272 C 0.25472 0.64237 0.60527
 C273 C 0.28879 0.68023 0.57041
 C274 C 0.27720 0.66622 0.53871
 N275 N 0.25553 0.64073 0.54056
 H276 H 0.18171 0.63376 0.45961
 H277 H 0.28326 0.65964 0.45134
 H278 H 0.27225 0.69208 0.39586
 H279 H 0.16858 0.66589 0.40474
 H280 H 0.22808 0.60767 0.57413
 H281 H 0.24570 0.63228 0.63083
 H282 H 0.30622 0.70034 0.56854
 H283 H 0.28640 0.67495 0.51274
 C284 C 0.15383 0.54984 0.51991
 C285 C 0.34041 0.55945 0.46393
 C286 C 0.27750 0.66822 0.60415
 C287 C 0.21937 0.68145 0.39573
 C288 C 0.69578 0.90969 0.45401
 H289 H 0.70891 0.89600 0.43356
 C290 C 0.66446 0.92283 0.44638
 H291 H 0.65392 0.91940 0.41982
 C292 C 0.69270 0.92917 0.51409
 H293 H 0.70366 0.93065 0.54069
 C294 C 0.66130 0.94270 0.50764
 H295 H 0.64843 0.95487 0.52948
 N296 N 0.70895 0.91271 0.48757
 C297 C 0.81209 0.90379 0.51844
 H298 H 0.81463 0.87733 0.51746
 C299 C 0.83966 0.92296 0.52553
 H300 H 0.86338 0.91091 0.53012
 C301 C 0.77773 0.95129 0.51288
 H302 H 0.75363 0.96213 0.50730
 C303 C 0.80471 0.97147 0.51988
 H304 H 0.80115 0.99788 0.51960
 Zn305 Zn 0.74767 0.88960 0.50022
 N306 N 0.78201 0.91816 0.51216
 C307 C 0.77775 0.88342 0.43349
 N308 N 0.76294 0.86542 0.46042
 C309 C 0.75890 0.83242 0.45777
 C310 C 0.76832 0.81661 0.42604
 C311 C 0.78815 0.86852 0.40169
 C312 C 0.75203 0.86947 0.57256
 C313 C 0.74370 0.85202 0.60395
 C314 C 0.70338 0.82179 0.56997
 C315 C 0.71231 0.84023 0.53907
 N316 N 0.73687 0.86294 0.54078
 H317 H 0.78074 0.90963 0.43645
 H318 H 0.74766 0.81847 0.47973
 H319 H 0.76408 0.79049 0.42377
 H320 H 0.79902 0.88342 0.38011
 H321 H 0.77024 0.88871 0.57392
 H322 H 0.75622 0.85802 0.62874
 H323 H 0.68431 0.80328 0.56812
 H324 H 0.69955 0.83657 0.51379
 C325 C 0.83624 0.95729 0.52574
 C326 C 0.64654 0.93892 0.47362
 C327 C 0.71952 0.82739 0.60283
 C328 C 0.78263 0.83491 0.39739
 C329 C 0.01349 0.30457 0.43508
 H330 H 0.03481 0.28899 0.44082
 C331 C 0.00846 0.33327 0.45480
 H332 H 0.02557 0.33923 0.47619
 C333 C -0.03428 0.31640 0.39989
 H334 H -0.05077 0.31001 0.37819
 C335 C -0.03954 0.34596 0.41813
 H336 H -0.06037 0.36174 0.41083
 N337 N -0.00834 0.29605 0.40890
 C338 C 0.00394 0.18829 0.39653
 H339 H 0.00136 0.18761 0.36741
 C340 C 0.00691 0.15879 0.41661
 H341 H 0.00661 0.13582 0.40237
 C342 C 0.00708 0.21929 0.44986
 H343 H 0.00637 0.24268 0.46306
 C344 C 0.01100 0.19047 0.47087
 H345 H 0.01350 0.19253 0.49993
 Zn346 Zn -0.00067 0.25633 0.38233
 N347 N 0.00410 0.21785 0.41323
 C348 C 0.06558 0.24172 0.35939
 N349 N 0.03916 0.26239 0.35426
 C350 C 0.04129 0.28854 0.33077
 C351 C 0.07074 0.29459 0.31126
 C352 C 0.09544 0.24686 0.34048
 C353 C -0.06801 0.24398 0.36844
 C354 C -0.09624 0.23706 0.34804
 C355 C -0.06193 0.23801 0.29414
 C356 C -0.03439 0.24522 0.31553
 N357 N -0.03791 0.24829 0.35199
 H358 H 0.06377 0.22140 0.37857
 H359 H 0.02015 0.30492 0.32743
 H360 H 0.07189 0.31558 0.29280
 H361 H 0.11595 0.23002 0.34533
 H362 H -0.07008 0.24597 0.39755
 H363 H -0.11989 0.23392 0.36179
 H364 H -0.05861 0.23583 0.26515
 H365 H -0.01019 0.24802 0.30299
 C366 C 0.01071 0.15950 0.45445
 C367 C -0.01829 0.35433 0.44633
 C368 C -0.09345 0.23405 0.31031
 C369 C 0.09844 0.27367 0.31604
 C370 C 0.01682 0.69718 0.06772
 H371 H 0.03634 0.71506 0.06377
 C372 C 0.01611 0.66938 0.04618
 H373 H 0.03512 0.66620 0.02559
 C374 C -0.03129 0.67954 0.09966
 H375 H -0.04958 0.68347 0.12075
 C376 C -0.03231 0.65071 0.07935
 H377 H -0.05168 0.63288 0.08462
 N378 N -0.00714 0.70231 0.09322
 C379 C 0.00338 0.80951 0.10400
 H380 H 0.00511 0.81100 0.13315
 C381 C 0.00581 0.83814 0.08243
 H382 H 0.00949 0.86141 0.09542
 C383 C -0.00365 0.77727 0.05204
 H384 H -0.00811 0.75372 0.04013
 C385 C -0.00120 0.80525 0.02946
 H386 H -0.00341 0.80264 0.00045
 Zn387 Zn -0.00335 0.74175 0.12043
 N388 N -0.00079 0.77969 0.08863
 C389 C 0.06323 0.75698 0.14102
 N390 N 0.03670 0.73725 0.14817
 C391 C 0.03878 0.71259 0.17358
 C392 C 0.06812 0.70737 0.19329
 C393 C 0.09305 0.75250 0.15993
 C394 C -0.07213 0.74803 0.13663
 C395 C -0.10047 0.75353 0.15809
 C396 C -0.06465 0.76032 0.20955
 C397 C -0.03711 0.75425 0.18717
 N398 N -0.04123 0.74797 0.15144
 H399 H 0.06159 0.77590 0.12015
 H400 H 0.01762 0.69682 0.17843
 H401 H 0.06916 0.68762 0.21337
 H402 H 0.11363 0.76861 0.15359
 H403 H -0.07480 0.74373 0.10797
 H404 H -0.12453 0.75309 0.14521
 H405 H -0.06030 0.76518 0.23787
 H406 H -0.01236 0.75505 0.19834
 C407 C 0.00369 0.83625 0.04453
 C408 C -0.00863 0.64569 0.05183
 C409 C -0.09716 0.75975 0.19538
 C410 C 0.09588 0.72737 0.18650
 C411 C 0.50012 0.20817 0.55209
 H412 H 0.50701 0.23111 0.53905
 C413 C 0.49763 0.18004 0.53126
 H414 H 0.50212 0.18204 0.50235
 C415 C 0.48774 0.17741 0.60551
 H416 H 0.48416 0.17657 0.63459
 C417 C 0.48507 0.14854 0.58565
 H418 H 0.47938 0.12569 0.59975
 N419 N 0.49465 0.20661 0.58849
 C420 C 0.52499 0.30687 0.59035
 H421 H 0.54292 0.30404 0.61189
 C422 C 0.52561 0.33505 0.56784
 H423 H 0.54428 0.35362 0.57192
 C424 C 0.47789 0.28712 0.55960
 H425 H 0.45885 0.26870 0.55707
 C426 C 0.47837 0.31420 0.53575
 H427 H 0.45968 0.31643 0.51484
 Zn428 Zn 0.49850 0.24541 0.61663
 N429 N 0.50149 0.28343 0.58565
 C430 C 0.56795 0.23960 0.62845
 N431 N 0.53776 0.24042 0.64542
 C432 C 0.53537 0.23652 0.68202
 C433 C 0.56399 0.23248 0.70302
 C434 C 0.59731 0.23577 0.64850
 C435 C 0.43169 0.23381 0.64147
 C436 C 0.40299 0.24003 0.66208
 C437 C 0.43223 0.28318 0.69204
 C438 C 0.46015 0.27652 0.67046
 N439 N 0.45970 0.25178 0.64620
 H440 H 0.56925 0.24216 0.59925
 H441 H 0.51124 0.23622 0.69506
 H442 H 0.56134 0.22965 0.73213
 H443 H 0.62100 0.23557 0.63443
 H444 H 0.43132 0.21494 0.62131
 H445 H 0.38114 0.22525 0.65802
 H446 H 0.43332 0.30271 0.71148
 H447 H 0.48236 0.29108 0.67314
 C448 C 0.50233 0.33863 0.53985
 C449 C 0.48998 0.14967 0.54791
 C450 C 0.40309 0.26490 0.68796
 C451 C 0.59557 0.23231 0.68641
 C452 C 0.51787 0.80363 0.93320
 H453 H 0.53866 0.78703 0.93763
 C454 C 0.51404 0.83120 0.95495
 H455 H 0.53161 0.83533 0.97646
 C456 C 0.47012 0.81894 0.89950
 H457 H 0.45317 0.81429 0.87763
 C458 C 0.46610 0.84754 0.91980
 H459 H 0.44578 0.86440 0.91385
 N460 N 0.49540 0.79729 0.90686
 C461 C 0.50831 0.69030 0.89053
 H462 H 0.50642 0.69045 0.86131
 C463 C 0.51249 0.66040 0.90954
 H464 H 0.51387 0.63772 0.89473
 C465 C 0.50875 0.71965 0.94522
 H466 H 0.50646 0.74250 0.95934
 C467 C 0.51381 0.69040 0.96517
 H468 H 0.51574 0.69129 0.99439
 Zn469 Zn 0.50162 0.75835 0.87871
 N470 N 0.50680 0.71926 0.90841
 C471 C 0.56829 0.74567 0.85667
 N472 N 0.54087 0.76454 0.84978
 C473 C 0.54157 0.78877 0.82379
 C474 C 0.57042 0.79427 0.80304
 C475 C 0.59771 0.75061 0.83693
 C476 C 0.43339 0.74954 0.86556
 C477 C 0.40488 0.74267 0.84562
 C478 C 0.43937 0.73766 0.79222
 C479 C 0.46716 0.74519 0.81306
 N480 N 0.46372 0.75115 0.84905
 H481 H 0.56760 0.72696 0.87784
 H482 H 0.51964 0.80382 0.81911
 H483 H 0.57042 0.81352 0.78234
 H484 H 0.61900 0.73506 0.84293
 H485 H 0.43136 0.75355 0.89438
 H486 H 0.38103 0.74164 0.85935
 H487 H 0.44263 0.73297 0.76364
 H488 H 0.49155 0.74559 0.80057
 C489 C 0.51574 0.66027 0.94735
 C490 C 0.48789 0.85350 0.94836
 C491 C 0.40767 0.73652 0.80842
 C492 C 0.59910 0.77516 0.80962
 C493 C -0.23616 0.67481 0.96978
 H494 H -0.24305 0.68534 0.99545
 C495 C -0.22454 0.69506 0.94153
 H496 H -0.22343 0.72138 0.94507
 C497 C -0.22832 0.62763 0.93384
 H498 H -0.22832 0.60116 0.93171
 C499 C -0.21751 0.64696 0.90468
 H500 H -0.21046 0.63546 0.87952
 N501 N -0.23804 0.64178 0.96530
 C502 C -0.28937 0.65170 1.04948
 H503 H -0.30677 0.65092 1.02730
 C504 C -0.29853 0.66662 1.08183
 H505 H -0.32298 0.67781 1.08406
 C506 C -0.23657 0.63729 1.07347
 H507 H -0.21260 0.62547 1.07025
 C508 C -0.24448 0.65214 1.10602
 H509 H -0.22607 0.65134 1.12721
 Zn510 Zn -0.24858 0.61343 1.00449
 N511 N -0.25892 0.63726 1.04610
 C512 C -0.21188 0.55972 1.03432
 N513 N -0.21038 0.58777 1.01377
 C514 C -0.18086 0.59973 1.00128
 C515 C -0.15136 0.58288 1.00840
 C516 C -0.18279 0.54221 1.04247
 C517 C -0.29762 0.58435 0.96009
 C518 C -0.32641 0.56656 0.95385
 C519 C -0.33126 0.55581 1.01828
 C520 C -0.30175 0.57291 1.02318
 N521 N -0.28568 0.58697 0.99431
 H522 H -0.23555 0.55111 1.04460
 H523 H -0.17994 0.62280 0.98637
 H524 H -0.12818 0.59296 0.99831
 H525 H -0.18425 0.51981 1.05873
 H526 H -0.28543 0.59646 0.93753
 H527 H -0.33568 0.56477 0.92649
 H528 H -0.34410 0.54519 1.04154
 H529 H -0.29216 0.57585 1.05021
 C530 C -0.27590 0.66707 1.11071
 C531 C -0.21545 0.68101 0.90851
 C532 C -0.34374 0.55256 0.98323
 C533 C -0.15216 0.55375 1.02916
 C534 C -0.22540 0.34294 0.52966
 H535 H -0.22393 0.33409 0.50226
 C536 C -0.21447 0.32407 0.55723
 H537 H -0.20474 0.29974 0.55181
 C538 C -0.23761 0.38764 0.56854
 H539 H -0.24523 0.41287 0.57252
 C540 C -0.22895 0.36662 0.60018
 H541 H -0.23157 0.37653 0.62707
 N542 N -0.23804 0.37542 0.53617
 C543 C -0.28450 0.35330 0.45882
 H544 H -0.29742 0.34985 0.48441
 C545 C -0.29290 0.33439 0.42919
 H546 H -0.31212 0.31605 0.43229
 C547 C -0.24393 0.38175 0.42374
 H548 H -0.22544 0.40079 0.42147
 C549 C -0.25134 0.36319 0.39349
 H550 H -0.23807 0.36793 0.36836
 Zn551 Zn -0.25213 0.40212 0.49643
 N552 N -0.26024 0.37624 0.45568
 C553 C -0.18716 0.41486 0.48071
 N554 N -0.21665 0.43061 0.48621
 C555 C -0.21888 0.46395 0.48600
 C556 C -0.19029 0.48278 0.48033
 C557 C -0.15813 0.43261 0.47506
 C558 C -0.30983 0.41415 0.53777
 C559 C -0.34173 0.42589 0.54454
 C560 C -0.33977 0.45618 0.48764
 C561 C -0.30725 0.44440 0.48239
 N562 N -0.29301 0.42364 0.50730
 H563 H -0.18620 0.38829 0.48113
 H564 H -0.24257 0.47588 0.49090
 H565 H -0.19220 0.50933 0.48088
 H566 H -0.13500 0.41938 0.47101
 H567 H -0.29955 0.39596 0.55614
 H568 H -0.35440 0.41727 0.56888
 H569 H -0.35083 0.47197 0.46701
 H570 H -0.29385 0.45074 0.45775
 C571 C -0.27604 0.33908 0.39609
 C572 C -0.21786 0.33581 0.59497
 C573 C -0.35763 0.44652 0.51899
 C574 C -0.15937 0.46701 0.47531
 C575 C 0.27918 -0.16648 0.02233
 H576 H 0.27797 -0.17494 -0.00521
 C577 C 0.28866 -0.18716 0.04902
 H578 H 0.29457 -0.21246 0.04280
 C579 C 0.27513 -0.12131 0.06239
 H580 H 0.27044 -0.09553 0.06718
 C581 C 0.28305 -0.14366 0.09306
 H582 H 0.28336 -0.13378 0.12007
 N583 N 0.27129 -0.13283 0.03005
 C584 C 0.26273 -0.12048 -0.08122
 H585 H 0.28261 -0.10280 -0.08280
 C586 C 0.25318 -0.13681 -0.11232
 H587 H 0.26622 -0.13178 -0.13754
 C588 C 0.22095 -0.14773 -0.04668
 H589 H 0.20840 -0.15154 -0.02094
 C590 C 0.21042 -0.16437 -0.07713
 H591 H 0.19001 -0.18147 -0.07451
 Zn592 Zn 0.25708 -0.10352 -0.00712
 N593 N 0.24682 -0.12652 -0.04919
 C594 C 0.32230 -0.08979 -0.02269
 N595 N 0.29263 -0.07484 -0.01585
 C596 C 0.29006 -0.04171 -0.01263
 C597 C 0.31844 -0.02227 -0.01587
 C598 C 0.35124 -0.07140 -0.02587
 C599 C 0.20117 -0.09176 0.03733
 C600 C 0.16924 -0.08039 0.04490
 C601 C 0.17046 -0.04852 -0.01103
 C602 C 0.20274 -0.06031 -0.01732
 N603 N 0.21725 -0.08181 0.00657
 H604 H 0.32353 -0.11626 -0.02478
 H605 H 0.26627 -0.03048 -0.00656
 H606 H 0.31621 0.00402 -0.01247
 H607 H 0.37463 -0.08392 -0.03082
 H608 H 0.21207 -0.11005 0.05521
 H609 H 0.15690 -0.08953 0.06922
 H610 H 0.15916 -0.03224 -0.03103
 H611 H 0.21567 -0.05351 -0.04213
 C612 C 0.22681 -0.15922 -0.11039
 C613 C 0.28898 -0.17569 0.08699
 C614 C 0.15294 -0.05923 0.02013
 C615 C 0.34958 -0.03724 -0.02187
 C616 C 0.28498 1.14974 0.46864
 H617 H 0.29967 1.15032 0.49305
 C618 C 0.29600 1.16613 0.43720
 H619 H 0.31876 1.18012 0.43788
 C620 C 0.23807 1.12976 0.43771
 H621 H 0.21602 1.11483 0.43759
 C622 C 0.24819 1.14556 0.40578
 H623 H 0.23325 1.14284 0.38182
 N624 N 0.25627 1.13229 0.46839
 C625 C 0.21415 1.11569 0.57582
 H626 H 0.20670 1.09052 0.57203
 C627 C 0.20520 1.13158 0.60754
 H628 H 0.19099 1.11855 0.62823
 C629 C 0.24277 1.16289 0.55391
 H630 H 0.25731 1.17494 0.53292
 C631 C 0.23506 1.17944 0.58567
 H632 H 0.24385 1.20427 0.58899
 Zn633 Zn 0.24418 1.10641 0.50924
 N634 N 0.23273 1.13139 0.54992
 C635 C 0.29385 1.07969 0.55426
 N636 N 0.28085 1.07943 0.52040
 C637 C 0.29634 1.06351 0.49293
 C638 C 0.32702 1.04808 0.49867
 C639 C 0.32435 1.06449 0.56123
 C640 C 0.17744 1.09895 0.49703
 C641 C 0.14761 1.08260 0.49241
 C642 C 0.17853 1.03139 0.48968
 C643 C 0.20780 1.04871 0.49498
 N644 N 0.20660 1.08185 0.49857
 H645 H 0.28131 1.09286 0.57556
 H646 H 0.28557 1.06418 0.46614
 H647 H 0.33945 1.03651 0.47614
 H648 H 0.33482 1.06587 0.58811
 H649 H 0.17742 1.12533 0.50017
 H650 H 0.12457 1.09655 0.49158
 H651 H 0.17963 1.00493 0.48720
 H652 H 0.23130 1.03571 0.49675
 C653 C 0.21628 1.16356 0.61295
 C654 C 0.27742 1.16420 0.40526
 C655 C 0.14802 1.04840 0.48895
 C656 C 0.34175 1.04925 0.53301
 C657 C 0.18182 0.45433 0.29036
 H658 H 0.17269 0.46867 0.31266
 C659 C 0.20152 0.42660 0.29725
 H660 H 0.20734 0.41959 0.32497
 C661 C 0.18495 0.44541 0.22707
 H662 H 0.17841 0.45309 0.19980
 C663 C 0.20405 0.41713 0.23278
 H664 H 0.21222 0.40301 0.20977
 N665 N 0.17382 0.46296 0.25571
 C666 C 0.15638 0.56511 0.22861
 H667 H 0.12950 0.56633 0.22826
 C668 C 0.17482 0.59393 0.22690
 H669 H 0.16193 0.61737 0.22502
 C670 C 0.20567 0.53302 0.23492
 H671 H 0.21745 0.50931 0.23921
 C672 C 0.22500 0.56124 0.23395
 H673 H 0.25169 0.55904 0.23713
 Zn674 Zn 0.14595 0.49896 0.24540
 N675 N 0.17199 0.53556 0.23325
 C676 C 0.13853 0.52736 0.31208
 N677 N 0.12145 0.51031 0.28706
 C678 C 0.08881 0.50288 0.29200
 C679 C 0.07241 0.51186 0.32389
 C680 C 0.12307 0.53714 0.34397
 C681 C 0.12012 0.50562 0.17538
 C682 C 0.10341 0.49567 0.14472
 C683 C 0.08493 0.44735 0.17805
 C684 C 0.10182 0.45855 0.20833
 N685 N 0.11883 0.48728 0.20644
 H686 H 0.16442 0.53315 0.30734
 H687 H 0.07561 0.48974 0.27149
 H688 H 0.04655 0.50542 0.32768
 H689 H 0.13732 0.55026 0.36374
 H690 H 0.13484 0.52766 0.17392
 H691 H 0.10557 0.51104 0.12062
 H692 H 0.07161 0.42435 0.18030
 H693 H 0.10215 0.44388 0.23310
 C694 C 0.20944 0.59211 0.23088
 C695 C 0.21223 0.40740 0.26825
 C696 C 0.08524 0.46613 0.14557
 C697 C 0.08976 0.52900 0.35042
 C698 C -0.19025 1.03549 0.28190
 H699 H -0.19252 1.01408 0.29950
 C700 C -0.20856 1.06392 0.28945
 H701 H -0.22508 1.06426 0.31274
 C702 C -0.16635 1.06134 0.22996
 H703 H -0.15070 1.06021 0.20621
 C704 C -0.18337 1.09045 0.23708
 H705 H -0.18046 1.11137 0.21877
 N706 N -0.16922 1.03487 0.25285
 C707 C -0.15079 0.93063 0.23883
 H708 H -0.12437 0.92985 0.24418
 C709 C -0.16804 0.90153 0.23405
 H710 H -0.15462 0.87842 0.23584
 C711 C -0.20015 0.96217 0.23058
 H712 H -0.21241 0.98592 0.22937
 C713 C -0.21840 0.93363 0.22555
 H714 H -0.24488 0.93565 0.22074
 Zn715 Zn -0.14152 0.99753 0.24607
 N716 N -0.16705 0.96006 0.23734
 C717 C -0.13613 0.97191 0.31530
 N718 N -0.11842 0.98895 0.28976
 C719 C -0.08719 0.99970 0.29661
 C720 C -0.07304 0.99407 0.33076
 C721 C -0.12288 0.96542 0.34940
 C722 C -0.11700 0.98534 0.17643
 C723 C -0.10086 0.99241 0.14378
 C724 C -0.07682 1.04009 0.17104
 C725 C -0.09284 1.03156 0.20357
 N726 N -0.11314 1.00499 0.20544
 H727 H -0.16092 0.96360 0.30933
 H728 H -0.07343 1.01306 0.27595
 H729 H -0.04836 1.00317 0.33599
 H730 H -0.13773 0.95218 0.36937
 H731 H -0.13368 0.96474 0.17788
 H732 H -0.10521 0.97654 0.12119
 H733 H -0.06156 1.06189 0.16991
 H734 H -0.09070 1.04733 0.22665
 C735 C -0.20238 0.90282 0.22772
 C736 C -0.20444 1.09200 0.26735
 C737 C -0.08092 1.02050 0.14043
 C738 C -0.09120 0.97698 0.35772
 C739 C 0.30794 0.53611 -0.21421
 H740 H 0.30132 0.51413 -0.19893
 C741 C 0.29121 0.56575 -0.20784
 H742 H 0.27142 0.56634 -0.18782
 C743 C 0.34221 0.56236 -0.25828
 H744 H 0.36278 0.56142 -0.27715
 C745 C 0.32637 0.59231 -0.25274
 H746 H 0.33471 0.61359 -0.26816
 N747 N 0.33222 0.53477 -0.23998
 C748 C 0.34322 0.42969 -0.26902
 H749 H 0.37002 0.42915 -0.27200
 C750 C 0.32576 0.40237 -0.27360
 H751 H 0.33880 0.37998 -0.28053
 C752 C 0.29453 0.46202 -0.25803
 H753 H 0.28253 0.48516 -0.25223
 C754 C 0.27412 0.43258 -0.26337
 H755 H 0.24739 0.43483 -0.26022
 Zn756 Zn 0.35529 0.49535 -0.25064
 N757 N 0.32680 0.45980 -0.25930
 C758 C 0.38001 0.45569 -0.19281
 N759 N 0.38335 0.48498 -0.21094
 C760 C 0.40369 0.50870 -0.19848
 C761 C 0.42116 0.50362 -0.16618
 C762 C 0.39759 0.44931 -0.16099
 C763 C 0.35665 0.51009 -0.32221
 C764 C 0.36878 0.51868 -0.35635
 C765 C 0.42467 0.51002 -0.33401
 C766 C 0.41138 0.50232 -0.29972
 N767 N 0.37787 0.50275 -0.29464
 H768 H 0.36286 0.43754 -0.20212
 H769 H 0.40543 0.53200 -0.21299
 H770 H 0.43687 0.52293 -0.15632
 H771 H 0.39429 0.42603 -0.14673
 H772 H 0.33010 0.51010 -0.31722
 H773 H 0.35141 0.52474 -0.37782
 H774 H 0.45137 0.50968 -0.33801
 H775 H 0.42765 0.49630 -0.27729
 C776 C 0.28901 0.40336 -0.26946
 C777 C 0.30015 0.59422 -0.22768
 C778 C 0.40311 0.51867 -0.36259
 C779 C 0.41794 0.47365 -0.14697
 C780 C 0.70840 -0.03230 -0.25108
 H781 H 0.71988 -0.00888 -0.25648
 C782 C 0.72728 -0.05944 -0.25039
 H783 H 0.75365 -0.05753 -0.25618
 C784 C 0.66011 -0.06171 -0.23210
 H785 H 0.63401 -0.06253 -0.22523
 C786 C 0.68000 -0.09219 -0.23033
 H787 H 0.66744 -0.11475 -0.22288
 N788 N 0.67325 -0.03443 -0.24405
 C789 C 0.65552 0.06790 -0.24907
 H790 H 0.63419 0.06743 -0.23115
 C791 C 0.67242 0.09723 -0.25455
 H792 H 0.66398 0.11853 -0.23993
 C793 C 0.69119 0.04078 -0.29031
 H794 H 0.69761 0.01892 -0.30508
 C795 C 0.70945 0.06944 -0.29596
 H796 H 0.73037 0.06909 -0.31460
 Zn797 Zn 0.64338 0.00079 -0.25328
 N798 N 0.66591 0.04009 -0.26567
 C799 C 0.64102 0.01606 -0.18210
 N800 N 0.62058 0.00833 -0.20978
 C801 C 0.58696 0.00845 -0.20579
 C802 C 0.57269 0.01709 -0.17261
 C803 C 0.62790 0.02558 -0.14900
 C804 C 0.59612 -0.03794 -0.29044
 C805 C 0.57962 -0.04856 -0.32124
 C806 C 0.60195 -0.00205 -0.35464
 C807 C 0.61793 0.00764 -0.32335
 N808 N 0.61539 -0.01060 -0.29218
 H809 H 0.66768 0.01578 -0.18629
 H810 H 0.57131 0.00241 -0.22838
 H811 H 0.54590 0.01727 -0.16955
 H812 H 0.64458 0.03200 -0.12740
 H813 H 0.59377 -0.05185 -0.26539
 H814 H 0.56461 -0.07051 -0.31945
 H815 H 0.60513 0.01262 -0.37915
 H816 H 0.63302 0.02942 -0.32441
 C817 C 0.70058 0.09800 -0.27726
 C818 C 0.71205 -0.09164 -0.24108
 C819 C 0.58276 -0.03069 -0.35397
 C820 C 0.59339 0.02617 -0.14400
 C821 C 0.05034 0.26349 0.82562
 H822 H 0.03752 0.28670 0.82138
 C823 C 0.08082 0.25773 0.80798
 H824 H 0.09131 0.27670 0.79051
 C825 C 0.05229 0.21039 0.85294
 H826 H 0.04152 0.19184 0.87059
 C827 C 0.08221 0.20340 0.83531
 H828 H 0.09394 0.17962 0.83987
 N829 N 0.03694 0.24013 0.84822
 C830 C -0.07169 0.25581 0.85755
 H831 H -0.07507 0.25330 0.88653
 C832 C -0.09942 0.26108 0.83536
 H833 H -0.12380 0.26277 0.84779
 C834 C -0.03587 0.25629 0.80643
 H835 H -0.01115 0.25416 0.79509
 C836 C -0.06290 0.26186 0.78326
 H837 H -0.05853 0.26387 0.75433
 Zn838 Zn -0.00368 0.24709 0.87496
 N839 N -0.04060 0.25358 0.84294
 C840 C -0.02317 0.28642 0.93341
 N841 N -0.00043 0.28432 0.90602
 C842 C 0.02378 0.30739 0.90192
 C843 C 0.02526 0.33403 0.92533
 C844 C -0.02194 0.31202 0.95805
 C845 C -0.02603 0.18172 0.89227
 C846 C -0.02670 0.15248 0.91315
 C847 C 0.00338 0.18000 0.95991
 C848 C 0.00392 0.20836 0.93808
 N849 N -0.01063 0.20886 0.90493
 H850 H -0.04194 0.26773 0.93668
 H851 H 0.04208 0.30534 0.88062
 H852 H 0.04450 0.35225 0.92149
 H853 H -0.04015 0.31304 0.97976
 H854 H -0.03681 0.18244 0.86550
 H855 H -0.03850 0.13098 0.90243
 H856 H 0.01562 0.18024 0.98594
 H857 H 0.01696 0.22976 0.94719
 C858 C -0.09525 0.26422 0.79762
 C859 C 0.09714 0.22731 0.81291
 C860 C -0.01153 0.15135 0.94737
 C861 C 0.00231 0.33639 0.95397
 C862 C 0.43538 0.26058 0.14925
 H863 H 0.43487 0.27889 0.12774
 C864 C 0.40631 0.25467 0.16939
 H865 H 0.38413 0.26871 0.16278
 C866 C 0.46479 0.22084 0.18425
 H867 H 0.48775 0.20806 0.19053
 C868 C 0.43629 0.21432 0.20527
 H869 H 0.43768 0.19625 0.22716
 N870 N 0.46392 0.24347 0.15650
 C871 C 0.57174 0.25234 0.14206
 H872 H 0.57380 0.24489 0.11416
 C873 C 0.60055 0.25733 0.16224
 H874 H 0.62452 0.25348 0.14949
 C875 C 0.53779 0.26687 0.19198
 H876 H 0.51327 0.27097 0.20329
 C877 C 0.56599 0.27230 0.21310
 H878 H 0.56277 0.28013 0.24077
 Zn879 Zn 0.50328 0.25094 0.12704
 N880 N 0.54113 0.25692 0.15715
 C881 C 0.51625 0.31718 0.10445
 N882 N 0.49753 0.29029 0.09742
 C883 C 0.47420 0.29159 0.07084
 C884 C 0.46853 0.32074 0.05085
 C885 C 0.51147 0.34679 0.08500
 C886 C 0.51407 0.18288 0.11423
 C887 C 0.51990 0.15456 0.09407
 C888 C 0.52244 0.18860 0.03995
 C889 C 0.51621 0.21626 0.06111
 N890 N 0.51176 0.21302 0.09762
 H891 H 0.53461 0.31597 0.12569
 H892 H 0.45953 0.27007 0.06554
 H893 H 0.44953 0.32119 0.03019
 H894 H 0.52643 0.36780 0.09156
 H895 H 0.51142 0.18064 0.14326
 H896 H 0.52136 0.13096 0.10804
 H897 H 0.52563 0.19181 0.01094
 H898 H 0.51519 0.24033 0.04825
 C899 C 0.59794 0.26741 0.19834
 C900 C 0.40637 0.23114 0.19781
 C901 C 0.52399 0.15712 0.05631
 C902 C 0.48711 0.34901 0.05794
 C903 C -0.03314 0.73206 0.69327
 H904 H -0.00855 0.72838 0.70439
 C905 C -0.06008 0.72595 0.71401
 H906 H -0.05677 0.71768 0.74183
 C907 C -0.06617 0.74656 0.64192
 H908 H -0.06842 0.75431 0.61384
 C909 C -0.09652 0.74053 0.66383
 H910 H -0.12030 0.74443 0.65088
 N911 N -0.03677 0.74300 0.65615
 C912 C 0.03979 0.77718 0.68214
 H913 H 0.01674 0.78888 0.69016
 C914 C 0.06863 0.78239 0.70224
 H915 H 0.06738 0.79838 0.72531
 C916 C 0.06914 0.74154 0.64322
 H917 H 0.06944 0.72552 0.62029
 C918 C 0.09859 0.74618 0.66248
 H919 H 0.12095 0.73347 0.65396
 Zn920 Zn 0.00065 0.75162 0.62504
 N921 N 0.04045 0.75720 0.65299
 C922 C -0.00876 0.82086 0.61493
 N923 N -0.00869 0.79157 0.59763
 C924 C -0.01601 0.79045 0.56172
 C925 C -0.02283 0.81938 0.54177
 C926 C -0.01521 0.85042 0.59595
 C927 C -0.00900 0.68605 0.60265
 C928 C -0.00421 0.65793 0.58192
 C929 C 0.03234 0.68898 0.54240
 C930 C 0.02721 0.71645 0.56419
 N931 N 0.00664 0.71466 0.59366
 H932 H -0.00374 0.82147 0.64357
 H933 H -0.01693 0.76707 0.54843
 H934 H -0.02833 0.81777 0.51320
 H935 H -0.01479 0.87328 0.61039
 H936 H -0.02493 0.68478 0.62633
 H937 H -0.01707 0.63563 0.58977
 H938 H 0.04871 0.69100 0.51906
 H939 H 0.03983 0.73922 0.55769
 C940 C 0.09866 0.76695 0.69243
 C941 C -0.09407 0.73081 0.69889
 C942 C 0.01670 0.65910 0.55127
 C943 C -0.02217 0.85001 0.55874
 C944 C 0.56086 0.76340 0.35175
 H945 H 0.55860 0.78324 0.37059
 C946 C 0.59110 0.75866 0.33343
 H947 H 0.61161 0.77480 0.33892
 C948 C 0.53697 0.71887 0.32140
 H949 H 0.51567 0.70390 0.31588
 C950 C 0.56674 0.71318 0.30262
 H951 H 0.56799 0.69343 0.28343
 N952 N 0.53460 0.74323 0.34607
 C953 C 0.42630 0.75417 0.35430
 H954 H 0.42267 0.74820 0.38274
 C955 C 0.39878 0.76006 0.33207
 H956 H 0.37417 0.75837 0.34392
 C957 C 0.46304 0.76385 0.30492
 H958 H 0.48818 0.76566 0.29454
 C959 C 0.43616 0.76991 0.28167
 H960 H 0.44096 0.77590 0.25341
 Zn961 Zn 0.49377 0.74856 0.37303
 N962 N 0.45768 0.75602 0.34051
 C963 C 0.47622 0.81185 0.39956
 N964 N 0.49713 0.78560 0.40418
 C965 C 0.52056 0.78536 0.43064
 C966 C 0.52349 0.81199 0.45373
 C967 C 0.47834 0.83905 0.42203
 C968 C 0.48190 0.68001 0.38486
 C969 C 0.47799 0.65077 0.40507
 C970 C 0.47849 0.68225 0.45964
 C971 C 0.48262 0.71085 0.43841
 N972 N 0.48519 0.70930 0.40165
 H973 H 0.45792 0.81190 0.37827
 H974 H 0.53706 0.76436 0.43381
 H975 H 0.54240 0.81120 0.47449
 H976 H 0.46144 0.85954 0.41767
 H977 H 0.48231 0.67912 0.35570
 H978 H 0.47596 0.62784 0.39095
 H979 H 0.47718 0.68413 0.48884
 H980 H 0.48389 0.73422 0.45158
 C981 C 0.40345 0.76791 0.29510
 C982 C 0.59446 0.73299 0.30875
 C983 C 0.47680 0.65157 0.44308
 C984 C 0.50227 0.83939 0.44958
 B985 B -0.02159 0.00971 1.02369
 B986 B -0.03470 0.00679 0.98110
 B987 B -0.00326 0.03170 0.99065
 B988 B 0.02007 0.01404 1.02383
 B989 B 0.00193 -0.02299 1.03433
 B990 B -0.03251 -0.02734 1.00765
 B991 B 0.02206 -0.02344 0.96347
 B992 B 0.03492 -0.02058 1.00610
 B993 B 0.00358 -0.04543 0.99647
 B994 B -0.01952 -0.02799 0.96320
 B995 B -0.00181 0.00941 0.95276
 B996 B 0.03287 0.01359 0.97938
 B997 B 0.46459 0.50865 0.51932
 B998 B 0.45294 0.50541 0.47601
 B999 B 0.48225 0.53228 0.48712
 B1000 B 0.50579 0.51599 0.52081
 B1001 B 0.49017 0.47751 0.53020
 B1002 B 0.45677 0.47127 0.50251
 B1003 B 0.51200 0.47914 0.46015
 B1004 B 0.52359 0.48257 0.50309
 B1005 B 0.49426 0.45576 0.49224
 B1006 B 0.47093 0.47195 0.45843
 B1007 B 0.48636 0.51044 0.44889
 B1008 B 0.51985 0.51673 0.47673
 B1009 B 0.51688 0.97613 0.53199
 B1010 B 0.52823 0.97992 0.48856
 B1011 B 0.49769 0.95448 0.50041
 B1012 B 0.47540 0.97104 0.53464
 B1013 B 0.49335 1.00838 0.54316
 B1014 B 0.52677 1.01356 0.51435
 B1015 B 0.47071 1.00975 0.47354
 B1016 B 0.45944 1.00606 0.51692
 B1017 B 0.49019 1.03143 0.50485
 B1018 B 0.51227 1.01468 0.47069
 B1019 B 0.49435 0.97755 0.46226
 B1020 B 0.46090 0.97230 0.49105
 B1021 B 0.01940 0.47287 1.03532
 B1022 B 0.03168 0.47653 0.99224
 B1023 B 0.00077 0.45122 1.00344
 B1024 B -0.02204 0.46798 1.03698
 B1025 B -0.00449 0.50529 1.04600
 B1026 B 0.02957 0.51033 1.01795
 B1027 B -0.02544 0.50654 0.97572
 B1028 B -0.03778 0.50280 1.01881
 B1029 B -0.00683 0.52824 1.00758
 B1030 B 0.01611 0.51132 0.97402
 B1031 B -0.00168 0.47421 0.96509
 B1032 B -0.03564 0.46913 0.99301
 B1033 B 0.02094 0.52177 0.46472
 B1034 B 0.03560 0.51132 0.50556
 B1035 B 0.01002 0.54389 0.50084
 B1036 B -0.01841 0.53577 0.46884
 B1037 B -0.01036 0.49654 0.45416
 B1038 B 0.02395 0.48172 0.47704
 B1039 B -0.02503 0.49316 0.52655
 B1040 B -0.03981 0.50361 0.48570
 B1041 B -0.01425 0.47103 0.49062
 B1042 B 0.01431 0.47926 0.52243
 B1043 B 0.00616 0.51829 0.53709
 B1044 B -0.02818 0.53310 0.51425
 B1045 B 0.52877 0.01920 -0.02783
 B1046 B 0.54388 0.00856 0.01282
 B1047 B 0.51812 0.04102 0.00849
 B1048 B 0.48942 0.03295 -0.02323
 B1049 B 0.49758 -0.00606 -0.03831
 B1050 B 0.53216 -0.02086 -0.01590
 B1051 B 0.48345 -0.01009 0.03409
 B1052 B 0.46836 0.00060 -0.00648
 B1053 B 0.49415 -0.03184 -0.00216
 B1054 B 0.52284 -0.02373 0.02956
 B1055 B 0.51458 0.01519 0.04471
 B1056 B 0.48003 0.03000 0.02223
 B1057 B 0.47963 0.48877 -0.02960
 B1058 B 0.46279 0.49842 0.01032
 B1059 B 0.49067 0.46755 0.00809
 B1060 B 0.51966 0.47751 -0.02357
 B1061 B 0.50923 0.51598 -0.04048
 B1062 B 0.47329 0.52869 -0.01933
 B1063 B 0.52121 0.52072 0.03213
 B1064 B 0.53807 0.51127 -0.00793
 B1065 B 0.51035 0.54187 -0.00543
 B1066 B 0.48129 0.53201 0.02604
 B1067 B 0.49161 0.49357 0.04299
 B1068 B 0.52771 0.48097 0.02178
 B1069 B -0.03070 0.99150 0.47604
 B1070 B -0.04686 1.00056 0.51641
 B1071 B -0.01998 0.96900 0.51279
 B1072 B 0.00894 0.97886 0.48128
 B1073 B -0.00011 1.01796 0.46558
 B1074 B -0.03554 1.03116 0.48737
 B1075 B 0.01236 1.02050 0.53829
 B1076 B 0.02860 1.01141 0.49794
 B1077 B 0.00192 1.04291 0.50144
 B1078 B -0.02732 1.03311 0.53285
 B1079 B -0.01808 0.99399 0.54874
 B1080 B 0.01736 0.98082 0.52679
 B1081 B 0.76800 0.22723 0.22345
 B1082 B 0.75737 0.21039 0.26361
 B1083 B 0.78940 0.23632 0.26077
 B1084 B 0.78078 0.26593 0.22956
 B1085 B 0.74179 0.25824 0.21320
 B1086 B 0.72753 0.22288 0.23431
 B1087 B 0.73646 0.26893 0.28584
 B1088 B 0.74732 0.28570 0.24594
 B1089 B 0.71523 0.25985 0.24856
 B1090 B 0.72377 0.23011 0.27975
 B1091 B 0.76273 0.23803 0.29636
 B1092 B 0.77709 0.27321 0.27512
 B1093 B 0.73592 0.76672 0.72075
 B1094 B 0.74924 0.79099 0.75333
 B1095 B 0.71723 0.76575 0.76122
 B1096 B 0.72394 0.73047 0.73908
 B1097 B 0.76162 0.73422 0.71708
 B1098 B 0.77708 0.77247 0.72597
 B1099 B 0.77193 0.73883 0.79004
 B1100 B 0.75858 0.71439 0.75746
 B1101 B 0.79058 0.73959 0.74948
 B1102 B 0.78383 0.77496 0.77161
 B1103 B 0.74611 0.77122 0.79356
 B1104 B 0.73081 0.73296 0.78485
 B1105 B 0.26836 0.27079 0.78417
 B1106 B 0.25463 0.28617 0.74474
 B1107 B 0.28785 0.26071 0.74559
 B1108 B 0.28207 0.23189 0.77856
 B1109 B 0.24382 0.23976 0.79780
 B1110 B 0.22709 0.27395 0.77686
 B1111 B 0.23465 0.22678 0.72621
 B1112 B 0.24839 0.21120 0.76572
 B1113 B 0.21543 0.23644 0.76478
 B1114 B 0.22095 0.26541 0.73202
 B1115 B 0.25925 0.25778 0.71260
 B1116 B 0.27590 0.22311 0.73371
 B1117 B 0.23423 0.73417 0.27198
 B1118 B 0.24682 0.71006 0.23859
 B1119 B 0.21483 0.73602 0.23202
 B1120 B 0.22209 0.77086 0.25450
 B1121 B 0.26009 0.76603 0.27509
 B1122 B 0.27522 0.72766 0.26510
 B1123 B 0.26936 0.76224 0.20176
 B1124 B 0.25658 0.78650 0.23521
 B1125 B 0.28848 0.76048 0.24172
 B1126 B 0.28122 0.72554 0.21930
 B1127 B 0.24322 0.73042 0.19866
 B1128 B 0.22834 0.76896 0.20837
 B1129 B 0.27052 0.72754 0.72031
 B1130 B 0.25938 0.71214 0.76086
 B1131 B 0.29087 0.73849 0.75755
 B1132 B 0.28238 0.76673 0.72479
 B1133 B 0.24388 0.75747 0.70789
 B1134 B 0.22979 0.72277 0.73051
 B1135 B 0.23702 0.77120 0.77974
 B1136 B 0.24826 0.78646 0.73929
 B1137 B 0.21658 0.76013 0.74259
 B1138 B 0.22510 0.73187 0.77544
 B1139 B 0.26358 0.74123 0.79230
 B1140 B 0.27773 0.77578 0.76965
 B1141 B 0.23640 0.27182 0.22706
 B1142 B 0.24949 0.28899 0.26525
 B1143 B 0.21662 0.26428 0.26628
 B1144 B 0.22277 0.23368 0.23673
 B1145 B 0.26122 0.23986 0.21710
 B1146 B 0.27753 0.27517 0.23491
 B1147 B 0.26959 0.23035 0.28995
 B1148 B 0.25631 0.21321 0.25219
 B1149 B 0.28941 0.23806 0.25078
 B1150 B 0.28318 0.26858 0.28049
 B1151 B 0.24476 0.26216 0.30008
 B1152 B 0.22839 0.22743 0.28235
 B1153 B 0.76753 0.77065 0.28404
 B1154 B 0.75715 0.78578 0.24323
 B1155 B 0.78855 0.75854 0.24732
 B1156 B 0.77902 0.73090 0.28052
 B1157 B 0.74028 0.74151 0.29668
 B1158 B 0.72706 0.77616 0.27363
 B1159 B 0.73472 0.72724 0.22492
 B1160 B 0.74492 0.71193 0.26581
 B1161 B 0.71379 0.73900 0.26172
 B1162 B 0.72309 0.76675 0.22876
 B1163 B 0.76188 0.75629 0.21235
 B1164 B 0.77518 0.72142 0.23564
 B1165 B 0.73551 0.22920 0.77248
 B1166 B 0.74529 0.21143 0.73337
 B1167 B 0.71404 0.23873 0.73456
 B1168 B 0.72367 0.26840 0.76373
 B1169 B 0.76249 0.25932 0.78044
 B1170 B 0.77572 0.22299 0.76162
 B1171 B 0.76792 0.26846 0.70713
 B1172 B 0.75759 0.28646 0.74585
 B1173 B 0.78891 0.25917 0.74488
 B1174 B 0.77934 0.22925 0.71589
 B1175 B 0.74060 0.23866 0.69886
 B1176 B 0.72738 0.27476 0.71757
 N1177 N 0.45006 1.05584 0.43220
 N1178 N 0.43374 1.05950 0.40128
 C1179 C 0.42169 1.02971 0.39329
 C1180 C 0.43087 1.00792 0.42039
 N1181 N 0.44861 1.02501 0.44421
 H1182 H 0.42761 0.98153 0.42108
 N1183 N -0.04146 0.55229 0.93215
 N1184 N -0.05569 0.55581 0.90003
 C1185 C -0.06967 0.52671 0.89253
 C1186 C -0.06419 0.50563 0.92168
 N1187 N -0.04628 0.52231 0.94569
 H1188 H -0.06955 0.47965 0.92380
 N1189 N 0.06489 -0.06324 0.93824
 N1190 N 0.08397 -0.06628 0.90900
 C1191 C 0.07422 -0.04259 0.88513
 C1192 C 0.04868 -0.02513 0.90065
 N1193 N 0.04361 -0.03848 0.93383
 H1194 H 0.03680 -0.00305 0.88993
 N1195 N 0.55426 0.43861 0.43558
 N1196 N 0.57409 0.43527 0.40702
 C1197 C 0.56691 0.46047 0.38399
 C1198 C 0.54233 0.47931 0.39931
 N1199 N 0.53515 0.46509 0.43152
 H1200 H 0.53206 0.50231 0.38896
 N1201 N 0.53203 0.56274 0.07993
 N1202 N 0.54875 0.56548 0.11051
 C1203 C 0.56835 0.53854 0.11371
 C1204 C 0.56320 0.51943 0.08388
 N1205 N 0.54060 0.53540 0.06322
 H1206 H 0.57310 0.49515 0.07879
 N1207 N 0.02388 1.06082 0.58738
 N1208 N 0.04234 1.06364 0.61668
 C1209 C 0.06357 1.03783 0.61736
 C1210 C 0.05762 1.01931 0.58712
 N1211 N 0.03276 1.03451 0.56901
 H1212 H 0.06858 0.99587 0.58019
 N1213 N -0.07299 0.46002 0.55183
 N1214 N -0.09082 0.45698 0.58195
 C1215 C -0.07616 0.47579 0.60678
 C1216 C -0.04884 0.49037 0.59097
 N1217 N -0.04771 0.48005 0.55659
 H1218 H -0.03275 0.50851 0.60258
 N1219 N 0.43748 -0.04614 0.05840
 N1220 N 0.41839 -0.04952 0.08755
 C1221 C 0.43011 -0.02866 0.11222
 C1222 C 0.45692 -0.01243 0.09733
 N1223 N 0.46069 -0.02391 0.06363
 H1224 H 0.47069 0.00755 0.10884
 N1225 N 0.40977 0.51094 0.04395
 N1226 N 0.37849 0.50121 0.04677
 C1227 C 0.37516 0.47649 0.02343
 C1228 C 0.40509 0.47164 0.00601
 N1229 N 0.42626 0.49332 0.01979
 H1230 H 0.41048 0.45431 -0.01502
 N1231 N -0.10462 1.02179 0.52753
 N1232 N -0.13567 1.01145 0.53021
 C1233 C -0.13441 0.97838 0.52924
 C1234 C -0.10153 0.96885 0.52626
 N1235 N -0.08373 0.99661 0.52478
 H1236 H -0.09178 0.94431 0.52290
 N1237 N -0.08486 0.00608 0.94124
 N1238 N -0.11490 0.01931 0.93809
 C1239 C -0.11791 0.04185 0.96421
 C1240 C -0.08834 0.04209 0.98333
 N1241 N -0.06853 0.01928 0.96829
 H1242 H -0.08214 0.05639 1.00666
 N1243 N 0.39789 0.49483 0.44675
 N1244 N 0.36810 0.50843 0.44234
 C1245 C 0.36977 0.53892 0.45569
 C1246 C 0.40175 0.54373 0.46763
 N1247 N 0.41840 0.51542 0.46245
 H1248 H 0.41119 0.56516 0.48081
 N1249 N 0.09241 0.48757 0.51631
 N1250 N 0.12370 0.49655 0.52023
 C1251 C 0.12362 0.52962 0.52110
 C1252 C 0.09118 0.54058 0.51772
 N1253 N 0.07245 0.51361 0.51444
 H1254 H 0.08253 0.56571 0.51541
 N1255 N 0.60055 -0.01532 0.02416
 N1256 N 0.63197 -0.00655 0.02751
 C1257 C 0.63228 0.02654 0.02713
 C1258 C 0.59988 0.03774 0.02364
 N1259 N 0.58083 0.01085 0.02148
 H1260 H 0.59141 0.06287 0.02041
 N1261 N 0.56442 0.95408 0.44126
 N1262 N 0.59526 0.94347 0.43624
 C1263 C 0.61194 0.94948 0.46694
 C1264 C 0.59026 0.96417 0.49091
 N1265 N 0.56088 0.96645 0.47396
 H1266 H 0.59511 0.97203 0.51812
 N1267 N 0.06933 0.45289 0.94491
 N1268 N 0.10054 0.44340 0.93999
 C1269 C 0.11649 0.44835 0.97139
 C1270 C 0.09393 0.46118 0.99574
 N1271 N 0.06475 0.46340 0.97828
 H1272 H 0.09826 0.46818 1.02332
 N1273 N -0.02755 0.41437 0.51479
 N1274 N -0.02773 0.38344 0.50427
 C1275 C -0.02439 0.38406 0.46795
 C1276 C -0.02214 0.41662 0.45657
 N1277 N -0.02434 0.43494 0.48669
 H1278 H -0.01632 0.42579 0.42955
 N1279 N 0.48431 -0.08964 0.02053
 N1280 N 0.48365 -0.12007 0.00851
 C1281 C 0.48328 -0.11789 -0.02793
 C1282 C 0.48374 -0.08489 -0.03782
 N1283 N 0.48427 -0.06790 -0.00670
 H1284 H 0.48664 -0.07450 -0.06488
 N1285 N 0.00732 -0.10320 0.97237
 N1286 N 0.00694 -0.13423 0.98411
 C1287 C 0.00604 -0.13387 1.02067
 C1288 C 0.00602 -0.10131 1.03080
 N1289 N 0.00694 -0.08292 0.99997
 H1290 H 0.00427 -0.09181 1.05791
 N1291 N 0.49198 0.39829 0.46847
 N1292 N 0.49321 0.36732 0.48021
 C1293 C 0.50221 0.36779 0.51530
 C1294 C 0.50643 0.40015 0.52465
 N1295 N 0.49984 0.41854 0.49468
 H1296 H 0.51106 0.40941 0.55141
 N1297 N 0.49265 1.08907 0.47898
 N1298 N 0.49322 1.11999 0.48939
 C1299 C 0.48828 1.11975 0.52556
 C1300 C 0.48437 1.08729 0.53685
 N1301 N 0.48706 1.06890 0.50690
 H1302 H 0.48154 1.07779 0.56428
 N1303 N 0.00241 0.58559 0.98353
 N1304 N 0.00296 0.61636 0.99444
 C1305 C -0.00918 0.61641 1.02855
 C1306 C -0.01742 0.58434 1.03809
 N1307 N -0.00977 0.56579 1.00916
 H1308 H -0.02562 0.57512 1.06434
 N1309 N 0.53480 0.59636 0.01227
 N1310 N 0.53600 0.62747 0.00104
 C1311 C 0.52128 0.62920 -0.03165
 C1312 C 0.51113 0.59784 -0.04005
 N1313 N 0.51989 0.57800 -0.01185
 H1314 H 0.49725 0.59047 -0.06352
 N1315 N 0.01793 1.09898 0.52327
 N1316 N 0.01938 1.12999 0.51179
 C1317 C 0.01355 1.13039 0.47585
 C1318 C 0.00887 1.09801 0.46576
 N1319 N 0.01172 1.07915 0.49619
 H1320 H 0.00180 1.08916 0.43948
 N1321 N 0.80625 0.74474 0.84596
 N1322 N 0.80940 0.73065 0.87845
 C1323 C 0.79334 0.70181 0.87713
 C1324 C 0.78043 0.69865 0.84312
 N1325 N 0.78881 0.72594 0.82429
 H1326 H 0.76302 0.68028 0.83477
 N1327 N 0.31259 0.21796 0.33786
 N1328 N 0.31504 0.20132 0.36900
 C1329 C 0.28762 0.18256 0.37210
 C1330 C 0.26869 0.18793 0.34157
 N1331 N 0.28490 0.21020 0.32089
 H1332 H 0.24398 0.17895 0.33634
 N1333 N 0.69412 0.27976 0.33465
 N1334 N 0.69039 0.29735 0.36418
 C1335 C 0.71628 0.31814 0.36506
 C1336 C 0.73582 0.31285 0.33480
 N1337 N 0.72116 0.28874 0.31644
 H1338 H 0.75970 0.32357 0.32822
 N1339 N 0.19373 0.78435 0.82694
 N1340 N 0.19057 0.80196 0.85656
 C1341 C 0.21744 0.82149 0.85787
 C1342 C 0.23690 0.81549 0.82782
 N1343 N 0.22136 0.79215 0.80915
 H1344 H 0.26153 0.82479 0.82196
 N1345 N 0.29898 0.75474 0.14274
 N1346 N 0.30347 0.77024 0.11125
 C1347 C 0.29303 0.80147 0.11555
 C1348 C 0.28231 0.80461 0.15102
 N1349 N 0.28608 0.77481 0.16702
 H1350 H 0.26927 0.82528 0.16256
 N1351 N 0.80294 0.26926 0.65130
 N1352 N 0.80612 0.28586 0.62037
 C1353 C 0.78882 0.31409 0.62394
 C1354 C 0.77519 0.31437 0.65857
 N1355 N 0.78425 0.28565 0.67460
 H1356 H 0.75719 0.33161 0.66931
 N1357 N 0.19005 0.19041 0.70014
 N1358 N 0.18448 0.17355 0.67043
 C1359 C 0.21048 0.17927 0.64794
 C1360 C 0.23213 0.19970 0.66479
 N1361 N 0.21878 0.20598 0.69737
 H1362 H 0.25604 0.20819 0.65487
 N1363 N 0.68931 0.71222 0.18155
 N1364 N 0.68624 0.69729 0.15017
 C1365 C 0.71582 0.68277 0.14305
 C1366 C 0.73679 0.68893 0.17144
 N1367 N 0.71946 0.70727 0.19493
 H1368 H 0.76297 0.68300 0.17372
 N1369 N 0.26536 0.65373 0.25840
 N1370 N 0.25699 0.62251 0.25597
 C1371 C 0.22890 0.62194 0.23634
 C1372 C 0.22036 0.65380 0.22670
 N1373 N 0.24355 0.67294 0.24132
 H1374 H 0.19954 0.66212 0.21046
 N1375 N 0.76153 0.15729 0.70706
 N1376 N 0.75001 0.12727 0.70287
 C1377 C 0.72016 0.12616 0.71967
 C1378 C 0.71376 0.15665 0.73410
 N1379 N 0.74024 0.17525 0.72594
 H1380 H 0.69167 0.16488 0.74806
 N1381 N 0.73604 0.15509 0.28390
 N1382 N 0.74515 0.12374 0.28574
 C1383 C 0.77711 0.12248 0.27471
 C1384 C 0.78743 0.15401 0.26676
 N1385 N 0.76097 0.17370 0.27221
 H1386 H 0.81176 0.16155 0.25747
 N1387 N 0.24606 0.66048 0.79637
 N1388 N 0.25612 0.62954 0.80025
 C1389 C 0.28209 0.62555 0.77743
 C1390 C 0.28756 0.65515 0.75945
 N1391 N 0.26457 0.67625 0.77194
 H1392 H 0.30620 0.66089 0.73913
 N1393 N 0.22897 0.34201 0.73726
 N1394 N 0.23706 0.37336 0.73396
 C1395 C 0.27041 0.37438 0.73020
 C1396 C 0.28235 0.34235 0.73063
 N1397 N 0.25577 0.32291 0.73572
 H1398 H 0.30791 0.33413 0.72997
 N1399 N 0.73528 0.84137 0.22530
 N1400 N 0.74479 0.87221 0.22092
 C1401 C 0.77798 0.87247 0.22554
 C1402 C 0.78853 0.84052 0.23245
 N1403 N 0.76106 0.82192 0.23259
 H1404 H 0.81340 0.83189 0.23850
 N1405 N 0.77009 0.84736 0.73778
 N1406 N 0.76131 0.87867 0.73965
 C1407 C 0.73066 0.87950 0.75463
 C1408 C 0.72108 0.84750 0.76212
 N1409 N 0.74617 0.82822 0.75078
 H1410 H 0.69848 0.83907 0.77506
 N1411 N 0.25771 0.33862 0.30306
 N1412 N 0.24837 0.36980 0.30509
 C1413 C 0.23035 0.37653 0.27521
 C1414 C 0.22884 0.34860 0.25492
 N1415 N 0.24616 0.32539 0.27320
 H1416 H 0.21462 0.34518 0.23060
 N1417 N 0.17309 0.19265 0.77956
 N1418 N 0.14243 0.18950 0.79236
 C1419 C 0.12974 0.22008 0.79570
 C1420 C 0.15383 0.24212 0.78430
 N1421 N 0.18058 0.22403 0.77449
 H1422 H 0.15275 0.26868 0.78514
 N1423 N 0.66335 0.70248 0.25659
 N1424 N 0.63222 0.70033 0.26842
 C1425 C 0.62642 0.72647 0.28956
 C1426 C 0.65529 0.74472 0.29015
 N1427 N 0.67770 0.72904 0.26919
 H1428 H 0.65973 0.76716 0.30452
 N1429 N 0.65850 0.28199 0.26710
 N1430 N 0.62758 0.28370 0.25487
 C1431 C 0.62807 0.27232 0.22079
 C1432 C 0.66063 0.26387 0.21261
 N1433 N 0.67893 0.27029 0.24211
 H1434 H 0.66993 0.25235 0.18835
 N1435 N 0.16114 0.78743 0.75707
 N1436 N 0.13026 0.78933 0.74479
 C1437 C 0.12936 0.77223 0.71388
 C1438 C 0.16112 0.76000 0.70766
 N1439 N 0.18029 0.77009 0.73512
 H1440 H 0.16941 0.74450 0.68584
 N1441 N 0.84746 0.71878 0.76930
 N1442 N 0.87839 0.71718 0.75658
 C1443 C 0.87750 0.72630 0.72120
 C1444 C 0.84456 0.73296 0.71275
 N1445 N 0.82661 0.72816 0.74339
 H1446 H 0.83468 0.74267 0.68748
 N1447 N 0.34421 0.20842 0.26420
 N1448 N 0.37501 0.20657 0.25110
 C1449 C 0.37587 0.22469 0.22004
 C1450 C 0.34424 0.23734 0.21453
 N1451 N 0.32515 0.22668 0.24252
 H1452 H 0.33602 0.25371 0.19287
 N1453 N 0.34612 0.77852 0.22139
 N1454 N 0.37668 0.78004 0.23466
 C1455 C 0.37456 0.77284 0.27049
 C1456 C 0.34151 0.76728 0.27859
 N1457 N 0.32451 0.77096 0.24741
 H1458 H 0.33095 0.75902 0.30420
 N1459 N 0.84707 0.27479 0.72431
 N1460 N 0.87775 0.27564 0.73728
 C1461 C 0.87570 0.26895 0.77321
 C1462 C 0.84253 0.26424 0.78168
 N1463 N 0.82542 0.26809 0.75056
 H1464 H 0.83202 0.25654 0.80752
 N1465 N 0.53125 0.93310 0.57960
 N1466 N 0.54747 0.93107 0.61072
 C1467 C 0.56517 0.95890 0.61323
 C1468 C 0.55961 0.97765 0.58236
 N1469 N 0.53840 0.96082 0.56187
 H1470 H 0.56740 1.00267 0.57698
 N1471 N 0.03333 0.43033 1.08372
 N1472 N 0.04980 0.42884 1.11475
 C1473 C 0.06792 0.45658 1.11644
 C1474 C 0.06250 0.47450 1.08490
 N1475 N 0.04071 0.45759 1.06529
 H1476 H 0.07074 0.49912 1.07820
 N1477 N -0.03330 0.05350 1.06915
 N1478 N -0.04752 0.05633 1.10140
 C1479 C -0.06515 0.02871 1.10750
 C1480 C -0.06181 0.00931 1.07737
 N1481 N -0.04152 0.02545 1.05414
 H1482 H -0.07018 -0.01566 1.07415
 N1483 N 0.41483 0.53967 0.54420
 N1484 N 0.39808 0.54266 0.57497
 C1485 C 0.41559 0.52623 0.60065
 C1486 C 0.44357 0.51328 0.58464
 N1487 N 0.44218 0.52196 0.54927
 H1488 H 0.46176 0.49688 0.59701
 N1489 N 0.45938 0.44235 -0.06813
 N1490 N 0.44379 0.43768 -0.09908
 C1491 C 0.43507 0.46765 -0.11222
 C1492 C 0.44542 0.49074 -0.08805
 N1493 N 0.46020 0.47401 -0.06064
 H1494 H 0.44308 0.51721 -0.09051
 N1495 N -0.07683 0.95709 0.45089
 N1496 N -0.09312 0.95284 0.42035
 C1497 C -0.07838 0.97202 0.39484
 C1498 C -0.05243 0.98810 0.41088
 N1499 N -0.05223 0.97811 0.44589
 H1500 H -0.03638 1.00658 0.39882
 N1501 N 0.06892 0.55505 0.43949
 N1502 N 0.08761 0.55725 0.40989
 C1503 C 0.07414 0.53720 0.38542
 C1504 C 0.04653 0.52281 0.40103
 N1505 N 0.04403 0.53454 0.43477
 H1506 H 0.03117 0.50381 0.38993
 N1507 N 0.57804 0.05033 -0.05327
 N1508 N 0.59586 0.05232 -0.08351
 C1509 C 0.57962 0.03492 -0.10845
 C1510 C 0.55133 0.02239 -0.09260
 N1511 N 0.55121 0.03236 -0.05808
 H1512 H 0.53412 0.00523 -0.10415
 N1513 N 0.58737 0.50798 -0.04946
 N1514 N 0.61829 0.51846 -0.05304
 C1515 C 0.62499 0.53526 -0.02295
 C1516 C 0.59717 0.53500 -0.00096
 N1517 N 0.57417 0.51761 -0.01841
 H1518 H 0.59372 0.54767 0.02422
 N1519 N 0.08335 0.99131 0.47439
 N1520 N 0.11491 0.99992 0.47178
 C1521 C 0.11686 1.03033 0.48525
 C1522 C 0.08550 1.04010 0.49630
 N1523 N 0.06530 1.01504 0.48904
 H1524 H 0.07833 1.06254 0.50962
 N1525 N 0.07051 -0.05249 1.04982
 N1526 N 0.10148 -0.06272 1.05449
 C1527 C 0.11937 -0.05115 1.02600
 C1528 C 0.09810 -0.03307 1.00377
 N1529 N 0.06781 -0.03492 1.01942
 H1530 H 0.10364 -0.02055 0.97832
 N1531 N 0.56038 0.45557 0.54933
 N1532 N 0.59146 0.44591 0.55439
 C1533 C 0.60887 0.45512 0.52457
 C1534 C 0.58717 0.47127 0.50107
 N1535 N 0.55708 0.47048 0.51736
 H1536 H 0.59231 0.48152 0.47436
 N1537 N -0.09608 0.52783 0.47273
 N1538 N -0.12766 0.51937 0.47000
 C1539 C -0.12849 0.48632 0.47244
 C1540 C -0.09622 0.47483 0.47640
 N1541 N -0.07675 0.50150 0.47688
 H1542 H -0.08798 0.44975 0.48087
 N1543 N 0.41178 0.02445 -0.01844
 N1544 N 0.38045 0.01567 -0.02257
 C1545 C 0.38014 -0.01743 -0.02196
 C1546 C 0.41244 -0.02861 -0.01747
 N1547 N 0.43143 -0.00172 -0.01510
 H1548 H 0.42093 -0.05374 -0.01423
 N1549 N 0.42243 1.02793 0.56584
 N1550 N 0.39176 1.03886 0.57119
 C1551 C 0.37587 1.03690 0.53928
 C1552 C 0.39793 1.02438 0.51415
 N1553 N 0.42672 1.01929 0.53174
 H1554 H 0.39369 1.01984 0.48583
 N1555 N -0.08783 0.49947 1.05931
 N1556 N -0.11822 0.51179 1.06260
 C1557 C -0.12129 0.53536 1.03668
 C1558 C -0.09176 0.53721 1.01751
 N1559 N -0.07156 0.51433 1.03237
 H1560 H -0.08603 0.55258 0.99409
 N1561 N 0.03189 0.60023 0.48163
 N1562 N 0.03355 0.63056 0.49403
 C1563 C 0.02172 0.62970 0.52835
 C1564 C 0.01319 0.59752 0.53650
 N1565 N 0.02004 0.57976 0.50682
 H1566 H 0.00185 0.58804 0.56121
 N1567 N 0.53624 0.09758 -0.01317
 N1568 N 0.53724 0.12822 -0.00166
 C1569 C 0.52920 0.12739 0.03390
 C1570 C 0.52353 0.09485 0.04370
 N1571 N 0.52825 0.07693 0.01365
 H1572 H 0.51448 0.08537 0.06951
 N1573 N 0.00349 0.08858 1.01459
 N1574 N 0.00173 0.11983 1.00417
 C1575 C -0.00957 0.12070 0.96986
 C1576 C -0.01484 0.08852 0.95970
 N1577 N -0.00646 0.06922 0.98849
 H1578 H -0.02230 0.07988 0.93347
 N1579 N 0.47139 0.58870 0.51249
 N1580 N 0.46996 0.62001 0.50183
 C1581 C 0.47444 0.62089 0.46554
 C1582 C 0.47865 0.58884 0.45444
 N1583 N 0.47652 0.56949 0.48445
 H1584 H 0.48395 0.58042 0.42737
 N1585 N 0.52643 0.89994 0.51326
 N1586 N 0.52859 0.86995 0.50006
 C1587 C 0.50592 0.86814 0.47342
 C1588 C 0.48961 0.89820 0.47111
 N1589 N 0.50299 0.91737 0.49651
 H1590 H 0.47111 0.90611 0.45156
 N1591 N -0.00777 0.39307 1.02604
 N1592 N -0.00854 0.36275 1.01363
 C1593 C 0.00306 0.36415 0.97928
 C1594 C 0.01111 0.39642 0.97120
 N1595 N 0.00401 0.41381 1.00107
 H1596 H 0.01855 0.40660 0.94511
 N1597 N 0.45703 0.41527 0.00093
 N1598 N 0.45565 0.38450 0.01331
 C1599 C 0.48039 0.38038 0.03748
 C1600 C 0.49695 0.41008 0.03934
 N1601 N 0.48167 0.43129 0.01602
 H1602 H 0.51806 0.41579 0.05603
 N1603 N -0.03627 0.91292 0.49092
 N1604 N -0.03639 0.88172 0.50189
 C1605 C -0.02816 0.88093 0.53725
 C1606 C -0.02332 0.91316 0.54752
 N1607 N -0.02881 0.93248 0.51788
 H1608 H -0.01448 0.92162 0.57330
 N1609 N 0.19131 0.28649 0.18196
 N1610 N 0.18828 0.30165 0.14996
 C1611 C 0.21761 0.31635 0.14276
 C1612 C 0.23845 0.30990 0.17147
 N1613 N 0.22128 0.29133 0.19547
 H1614 H 0.26450 0.31602 0.17356
 N1615 N 0.69415 0.76771 0.66967
 N1616 N 0.68943 0.78309 0.63804
 C1617 C 0.71252 0.80693 0.63542
 C1618 C 0.73122 0.80570 0.66642
 N1619 N 0.71917 0.78107 0.68712
 H1620 H 0.75323 0.81962 0.67233
 N1621 N 0.31356 0.71664 0.67246
 N1622 N 0.31568 0.70225 0.64067
 C1623 C 0.28846 0.68344 0.63785
 C1624 C 0.26995 0.68641 0.66915
 N1625 N 0.28628 0.70748 0.69016
 H1626 H 0.24506 0.67734 0.67413
 N1627 N 0.80601 0.18478 0.19499
 N1628 N 0.80899 0.16827 0.16460
 C1629 C 0.78600 0.18078 0.14169
 C1630 C 0.76887 0.20530 0.15895
 N1631 N 0.78191 0.20700 0.19236
 H1632 H 0.74734 0.21881 0.14909
 N1633 N 0.69289 0.19491 0.80761
 N1634 N 0.68943 0.17978 0.83951
 C1635 C 0.71731 0.18553 0.85841
 C1636 C 0.73789 0.20459 0.83686
 N1637 N 0.72186 0.20998 0.80533
 H1638 H 0.76261 0.21307 0.84301
 N1639 N 0.18720 0.72291 0.31678
 N1640 N 0.18264 0.70953 0.34952
 C1641 C 0.21259 0.69819 0.36067
 C1642 C 0.23536 0.70464 0.33363
 N1643 N 0.21871 0.71993 0.30662
 H1644 H 0.26168 0.69881 0.33361
 N1645 N 0.80522 0.81514 0.30694
 N1646 N 0.80978 0.83253 0.33641
 C1647 C 0.78939 0.81988 0.36216
 C1648 C 0.77224 0.79432 0.34747
 N1649 N 0.78266 0.79213 0.31291
 H1650 H 0.75227 0.78031 0.35990
 N1651 N 0.30280 0.31834 0.80531
 N1652 N 0.30719 0.33592 0.83463
 C1653 C 0.28982 0.32111 0.86163
 C1654 C 0.27480 0.29382 0.84782
 N1655 N 0.28347 0.29285 0.81256
 H1656 H 0.25708 0.27777 0.86131
 N1657 N 0.73574 0.34198 0.76081
 N1658 N 0.74515 0.37274 0.76429
 C1659 C 0.77805 0.37341 0.75740
 C1660 C 0.78856 0.34189 0.74943
 N1661 N 0.76132 0.32303 0.75191
 H1662 H 0.81325 0.33362 0.74200
 N1663 N 0.23451 0.84342 0.22493
 N1664 N 0.24288 0.87453 0.22830
 C1665 C 0.27467 0.87476 0.23980
 C1666 C 0.28546 0.84239 0.24328
 N1667 N 0.25970 0.82371 0.23359
 H1668 H 0.30920 0.83322 0.25273
 N1669 N 0.26702 0.83903 0.70943
 N1670 N 0.25825 0.87032 0.70565
 C1671 C 0.22887 0.87362 0.72294
 C1672 C 0.22001 0.84353 0.73759
 N1673 N 0.24439 0.82251 0.72848
 H1674 H 0.19871 0.83794 0.75450
 N1675 N 0.76908 0.33999 0.22397
 N1676 N 0.76026 0.37126 0.22043
 C1677 C 0.72851 0.37342 0.23199
 C1678 C 0.71818 0.34247 0.24292
 N1679 N 0.74422 0.32228 0.23740
 H1680 H 0.69456 0.33559 0.25479
 N1681 N 0.74211 0.66580 0.31186
 N1682 N 0.73287 0.63474 0.31538
 C1683 C 0.72329 0.62523 0.28233
 C1684 C 0.72688 0.65151 0.25852
 N1685 N 0.73861 0.67646 0.27794
 H1686 H 0.71995 0.65259 0.23039
 N1687 N 0.24417 0.16532 0.81173
 N1688 N 0.23556 0.13408 0.81470
 C1689 C 0.23057 0.12347 0.78083
 C1690 C 0.23694 0.14928 0.75696
 N1691 N 0.24479 0.17516 0.77732
 H1692 H 0.23422 0.14961 0.72791
 N1693 N 0.23131 0.15760 0.25670
 N1694 N 0.23903 0.12609 0.25489
 C1695 C 0.27099 0.12454 0.24408
 C1696 C 0.28272 0.15614 0.23926
 N1697 N 0.25715 0.17613 0.24777
 H1698 H 0.30772 0.16357 0.23230
 N1699 N 0.73797 0.65886 0.77609
 N1700 N 0.74676 0.62750 0.77647
 C1701 C 0.77665 0.62585 0.75997
 C1702 C 0.78605 0.65719 0.74950
 N1703 N 0.76133 0.67717 0.76051
 H1704 H 0.80889 0.66470 0.73621
 N1705 N 0.84725 0.77108 0.26627
 N1706 N 0.87801 0.77040 0.25317
 C1707 C 0.87603 0.76453 0.21736
 C1708 C 0.84243 0.76229 0.20908
 N1709 N 0.82532 0.76650 0.24031
 H1710 H 0.83142 0.75589 0.18354
 N1711 N 0.34443 0.28549 0.75768
 N1712 N 0.37476 0.28660 0.74340
 C1713 C 0.37356 0.27140 0.71132
 C1714 C 0.34116 0.26133 0.70638
 N1715 N 0.32359 0.27078 0.73576
 H1716 H 0.33149 0.24735 0.68421
 N1717 N 0.34795 0.71633 0.74090
 N1718 N 0.37888 0.71617 0.75317
 C1719 C 0.37790 0.72926 0.78645
 C1720 C 0.34514 0.73718 0.79412
 N1721 N 0.32715 0.72880 0.76505
 H1722 H 0.33559 0.74991 0.81752
 N1723 N 0.84743 0.22131 0.23993
 N1724 N 0.87843 0.22144 0.25188
 C1725 C 0.87697 0.22762 0.28760
 C1726 C 0.84372 0.23085 0.29706
 N1727 N 0.82598 0.22663 0.26660
 H1728 H 0.83354 0.23839 0.32284
 N1729 N 0.16598 0.30197 0.25928
 N1730 N 0.13504 0.30484 0.27171
 C1731 C 0.13011 0.27995 0.29587
 C1732 C 0.15932 0.26186 0.29774
 N1733 N 0.18111 0.27626 0.27459
 H1734 H 0.16430 0.24008 0.31416
 N1735 N 0.66275 0.79411 0.74374
 N1736 N 0.63162 0.79673 0.75569
 C1737 C 0.63001 0.78048 0.78792
 C1738 C 0.66140 0.76821 0.79533
 N1739 N 0.68120 0.77720 0.76729
 H1740 H 0.66902 0.75333 0.81850
 N1741 N 0.65590 0.22736 0.75719
 N1742 N 0.62488 0.22622 0.74559
 C1743 C 0.62591 0.22918 0.70920
 C1744 C 0.65913 0.23184 0.69897
 N1745 N 0.67714 0.23030 0.72980
 H1746 H 0.66909 0.23653 0.67208
 N1747 N 0.16225 0.70355 0.24680
 N1748 N 0.13110 0.70097 0.23551
 C1749 C 0.12739 0.72191 0.20693
 C1750 C 0.15757 0.73720 0.20113
 N1751 N 0.17873 0.72517 0.22644
 H1752 H 0.16361 0.75558 0.18061
   
