data_POSCAR
  _audit_creation_date              2014-09-24
  _audit_creation_method            'ToBaCCo'
  _symmetry_space_group_name_H-M    'P1'
  _symmetry_Int_Tables_number       1
  _symmetry_cell_setting            triclinic
  loop_
  _symmetry_equiv_pos_as_xyz
 x,y,z
_cell_length_a 39.7941
_cell_length_b 39.6557
_cell_length_c 40.3336
_cell_angle_alpha 90.023800
_cell_angle_beta 90.208800
_cell_angle_gamma 90.229900
loop_
  _atom_site_label
  _atom_site_type_symbol
  _atom_site_fract_x
  _atom_site_fract_y
  _atom_site_fract_z
C1 C 0.40890 0.26936 0.01626
 C2 C 0.40950 0.26960 -0.01769
 C3 C 0.38101 0.28678 -0.02802
 N4 N 0.36308 0.29702 -0.00151
 C5 C 0.38014 0.28647 0.02558
 C6 C 0.37112 0.29100 -0.06151
 C7 C 0.34527 0.31329 -0.07156
 C8 C 0.33049 0.31337 -0.10279
 C9 C 0.30722 0.33883 -0.10293
 C10 C 0.30824 0.35359 -0.07174
 N11 N 0.33166 0.33802 -0.05283
 C12 C 0.28869 0.38170 -0.06215
 C13 C 0.28417 0.39151 -0.02869
 C14 C 0.26890 0.42120 -0.01865
 C15 C 0.26857 0.42080 0.01529
 C16 C 0.28379 0.39099 0.02496
 N17 N 0.29311 0.37300 -0.00196
 C18 C 0.28719 0.38024 0.05819
 C19 C 0.30553 0.35151 0.06788
 C20 C 0.30414 0.33674 0.09900
 C21 C 0.32722 0.31098 0.09908
 C22 C 0.34221 0.31097 0.06809
 N23 N 0.32896 0.33585 0.04933
 C24 C 0.36884 0.28966 0.05860
 H25 H 0.42736 0.25763 0.03224
 H26 H 0.42860 0.25820 -0.03304
 H27 H 0.33812 0.34422 0.02670
 H28 H 0.33584 0.29670 -0.12335
 H29 H 0.29127 0.34569 -0.12364
 H30 H 0.25906 0.44113 -0.03419
 H31 H 0.25822 0.44025 0.03104
 H32 H 0.33267 0.29447 0.11976
 H33 H 0.34021 0.34602 -0.02977
 H34 H 0.28836 0.34396 0.11960
 C35 C 0.58667 0.72816 0.02041
 C36 C 0.58651 0.72843 -0.01356
 C37 C 0.61506 0.71131 -0.02355
 N38 N 0.63264 0.70067 0.00315
 C39 C 0.61519 0.71071 0.03005
 C40 C 0.62541 0.70776 -0.05682
 C41 C 0.65327 0.68829 -0.06680
 C42 C 0.66776 0.68971 -0.09795
 C43 C 0.69311 0.66624 -0.09823
 C44 C 0.69324 0.65086 -0.06731
 N45 N 0.66867 0.66431 -0.04841
 C46 C 0.71534 0.62459 -0.05770
 C47 C 0.71870 0.61300 -0.02459
 C48 C 0.73564 0.58393 -0.01534
 C49 C 0.73403 0.58210 0.01852
 C50 C 0.71618 0.61007 0.02895
 N51 N 0.70699 0.62904 0.00258
 C52 C 0.71040 0.61846 0.06250
 C53 C 0.69026 0.64573 0.07276
 C54 C 0.68974 0.65886 0.10461
 C55 C 0.66588 0.68388 0.10476
 C56 C 0.65230 0.68511 0.07307
 N57 N 0.66712 0.66158 0.05383
 C58 C 0.62570 0.70642 0.06326
 H59 H 0.56804 0.73971 0.03621
 H60 H 0.56773 0.74027 -0.02910
 H61 H 0.65938 0.65414 0.03035
 H62 H 0.66084 0.70602 -0.11835
 H63 H 0.70959 0.66110 -0.11891
 H64 H 0.74786 0.56587 -0.03136
 H65 H 0.74496 0.56248 0.03373
 H66 H 0.65904 0.69916 0.12592
 H67 H 0.66060 0.65531 -0.02564
 H68 H 0.70491 0.65115 0.12559
 C69 C 0.58637 0.27174 0.98577
 C70 C 0.58576 0.27131 1.01974
 C71 C 0.61593 0.28526 1.03040
 N72 N 0.63503 0.29391 1.00410
 C73 C 0.61688 0.28596 0.97678
 C74 C 0.62605 0.28786 1.06391
 C75 C 0.65562 0.30452 1.07458
 C76 C 0.66933 0.30173 1.10608
 C77 C 0.69671 0.32297 1.10716
 C78 C 0.69879 0.33848 1.07637
 N79 N 0.67354 0.32712 1.05671
 C80 C 0.72300 0.36329 1.06768
 C81 C 0.72827 0.37411 1.03455
 C82 C 0.74665 0.40247 1.02554
 C83 C 0.74650 0.40362 0.99161
 C84 C 0.72786 0.37609 0.98089
 N85 N 0.71691 0.35795 1.00715
 C86 C 0.72272 0.36741 0.94725
 C87 C 0.70019 0.34202 0.93653
 C88 C 0.69876 0.32908 0.90461
 C89 C 0.67189 0.30712 0.90362
 C90 C 0.65772 0.30726 0.93497
 N91 N 0.67503 0.32872 0.95479
 C92 C 0.62805 0.28980 0.94378
 H93 H 0.56668 0.26242 0.96957
 H94 H 0.56551 0.26154 1.03485
 H95 H 0.66765 0.33709 0.97800
 H96 H 0.66050 0.28607 1.12624
 H97 H 0.71315 0.32667 1.12829
 H98 H 0.75880 0.42058 1.04174
 H99 H 0.75867 0.42263 0.97655
 H100 H 0.66343 0.29309 0.88211
 H101 H 0.66667 0.33698 1.03385
 H102 H 0.71506 0.33522 0.88403
 C103 C 0.25962 0.59344 0.97579
 C104 C 0.25931 0.59332 1.00975
 C105 C 0.27684 0.62183 1.01997
 N106 N 0.28785 0.63933 0.99336
 C107 C 0.27745 0.62192 0.96634
 C108 C 0.28092 0.63205 1.05342
 C109 C 0.30435 0.65717 1.06346
 C110 C 0.30508 0.67208 1.09461
 C111 C 0.33163 0.69429 1.09485
 C112 C 0.34629 0.69269 1.06374
 N113 N 0.32968 0.66983 1.04482
 C114 C 0.37497 0.71151 1.05412
 C115 C 0.38420 0.71671 1.02059
 C116 C 0.41363 0.73241 1.01035
 C117 C 0.41232 0.73396 0.97644
 C118 C 0.38234 0.71885 0.96699
 N119 N 0.36507 0.70851 0.99400
 C120 C 0.37071 0.71657 0.93393
 C121 C 0.34243 0.69738 0.92416
 C122 C 0.32753 0.69868 0.89306
 C123 C 0.30240 0.67476 0.89280
 C124 C 0.30263 0.65965 0.92379
 N125 N 0.32722 0.67340 0.94265
 C126 C 0.28182 0.63246 0.93320
 H127 H 0.24782 0.57483 0.95988
 H128 H 0.24740 0.57445 1.02518
 H129 H 0.33560 0.66422 0.96530
 H130 H 0.28813 0.66754 1.11507
 H131 H 0.33914 0.71007 1.11551
 H132 H 0.43391 0.74192 1.02573
 H133 H 0.43128 0.74497 0.96056
 H134 H 0.28600 0.66896 0.87208
 H135 H 0.33727 0.66106 1.02177
 H136 H 0.33432 0.71488 0.87254
 C137 C 0.02597 0.24023 0.38390
 C138 C -0.00832 0.24173 0.38622
 C139 C -0.01782 0.27293 0.37384
 N140 N 0.00949 0.29011 0.36319
 C141 C 0.03629 0.27012 0.36928
 C142 C -0.05067 0.28655 0.37583
 C143 C -0.06048 0.31516 0.35699
 C144 C -0.08871 0.33459 0.36319
 C145 C -0.08935 0.35962 0.33965
 C146 C -0.06145 0.35499 0.31966
 N147 N -0.04401 0.32776 0.33034
 C148 C -0.05280 0.37580 0.29234
 C149 C -0.02030 0.37553 0.27808
 C150 C -0.01201 0.39000 0.24784
 C151 C 0.02225 0.38854 0.24524
 C152 C 0.03375 0.37254 0.27358
 N153 N 0.00773 0.36462 0.29366
 C154 C 0.06793 0.36846 0.28201
 C155 C 0.07889 0.34746 0.30807
 C156 C 0.11131 0.34667 0.32071
 C157 C 0.11195 0.32155 0.34425
 C158 C 0.07988 0.30775 0.34528
 N159 N 0.06006 0.32338 0.32283
 C160 C 0.07015 0.27998 0.36495
 H161 H 0.04146 0.21962 0.39247
 H162 H -0.02434 0.22249 0.39686
 H163 H 0.03615 0.31568 0.31555
 H164 H -0.10670 0.33147 0.38302
 H165 H -0.10792 0.37940 0.33788
 H166 H -0.02885 0.40132 0.22993
 H167 H 0.03697 0.39855 0.22498
 H168 H 0.13371 0.31402 0.35857
 H169 H -0.02355 0.31684 0.31851
 H170 H 0.13245 0.36222 0.31344
 C171 C -0.02179 0.59136 0.73195
 C172 C 0.01260 0.59246 0.73263
 C173 C 0.02185 0.62363 0.72003
 N174 N -0.00572 0.64165 0.71179
 C175 C -0.03246 0.62188 0.71885
 C176 C 0.05530 0.63535 0.71748
 C177 C 0.06420 0.66543 0.70104
 C178 C 0.09575 0.68039 0.70222
 C179 C 0.09565 0.70580 0.67899
 C180 C 0.06399 0.70569 0.66454
 N181 N 0.04499 0.68116 0.67820
 C182 C 0.05480 0.72465 0.63645
 C183 C 0.02114 0.72923 0.62623
 C184 C 0.01145 0.74525 0.59725
 C185 C -0.02298 0.74520 0.59694
 C186 C -0.03323 0.72901 0.62572
 N187 N -0.00618 0.71954 0.64374
 C188 C -0.06716 0.72400 0.63515
 C189 C -0.07708 0.70101 0.66027
 C190 C -0.10889 0.69961 0.67424
 C191 C -0.10869 0.67352 0.69669
 C192 C -0.07673 0.65972 0.69600
 N193 N -0.05770 0.67647 0.67359
 C194 C -0.06649 0.63129 0.71471
 H195 H -0.03721 0.57036 0.73998
 H196 H 0.02890 0.57253 0.74135
 H197 H -0.03407 0.66934 0.66540
 H198 H 0.11703 0.67283 0.71721
 H199 H 0.11682 0.72171 0.67257
 H200 H 0.02747 0.75584 0.57826
 H201 H -0.03871 0.75557 0.57755
 H202 H -0.12971 0.66554 0.71178
 H203 H 0.02245 0.67217 0.66862
 H204 H -0.13008 0.71574 0.66879
 C205 C 1.01784 0.72869 0.41775
 C206 C 0.98343 0.73061 0.41791
 C207 C 0.97236 0.71592 0.38865
 N208 N 0.99883 0.70554 0.37043
 C209 C 1.02667 0.71319 0.38823
 C210 C 0.93845 0.71436 0.37829
 C211 C 0.92717 0.69577 0.35048
 C212 C 0.89518 0.69786 0.33684
 C213 C 0.89358 0.67444 0.31169
 C214 C 0.92464 0.65882 0.31065
 N215 N 0.94485 0.67174 0.33451
 C216 C 0.93297 0.63198 0.28931
 C217 C 0.96621 0.62098 0.28396
 C218 C 0.97474 0.59236 0.26622
 C219 C 1.00910 0.59183 0.26474
 C220 C 1.02050 0.62033 0.28140
 N221 N 0.99419 0.63813 0.29311
 C222 C 1.05466 0.63031 0.28398
 C223 C 1.06601 0.65539 0.30657
 C224 C 1.09773 0.67012 0.30617
 C225 C 1.09921 0.69216 0.33247
 C226 C 1.06825 0.69065 0.34803
 N227 N 1.04825 0.66803 0.33228
 C228 C 1.06000 0.70853 0.37721
 H229 H 1.03446 0.73810 0.43697
 H230 H 0.96830 0.74175 0.43726
 H231 H 1.02525 0.65912 0.34073
 H232 H 0.87496 0.71427 0.34445
 H233 H 0.87194 0.66933 0.29611
 H234 H 0.95793 0.57391 0.25526
 H235 H 1.02401 0.57274 0.25257
 H236 H 1.12063 0.70758 0.33935
 H237 H 0.96789 0.66204 0.34184
 H238 H 1.11781 0.66544 0.28875
 C239 C 0.97547 0.24072 0.61220
 C240 C 1.00982 0.24019 0.61056
 C241 C 1.02125 0.26916 0.62636
 N242 N 0.99501 0.28692 0.63829
 C243 C 0.96701 0.26954 0.62966
 C244 C 1.05510 0.28050 0.62661
 C245 C 1.06652 0.30618 0.64855
 C246 C 1.09681 0.32340 0.64559
 C247 C 1.09838 0.34611 0.67130
 C248 C 1.06885 0.34254 0.68910
 N249 N 1.04976 0.31784 0.67538
 C250 C 1.06058 0.36171 0.71748
 C251 C 1.02785 0.36365 0.73073
 C252 C 1.01971 0.38028 0.75986
 C253 C 0.98531 0.38076 0.76155
 C254 C 0.97357 0.36459 0.73332
 N255 N 0.99961 0.35410 0.71454
 C256 C 0.93946 0.36299 0.72363
 C257 C 0.92796 0.34409 0.69614
 C258 C 0.89631 0.34703 0.68194
 C259 C 0.89468 0.32386 0.65662
 C260 C 0.92544 0.30758 0.65598
 N261 N 0.94538 0.31965 0.68047
 C262 C 0.93392 0.28132 0.63398
 H263 H 0.95868 0.22226 0.60126
 H264 H 1.02467 0.22116 0.59822
 H265 H 0.96829 0.30961 0.68788
 H266 H 1.11567 0.32034 0.62657
 H267 H 1.11874 0.36367 0.67600
 H268 H 1.03674 0.39180 0.77755
 H269 H 0.97062 0.39255 0.78085
 H270 H 0.87326 0.31954 0.64054
 H271 H 1.02777 0.30783 0.68525
 H272 H 0.87642 0.36406 0.68908
 C273 C 0.28011 -0.02459 0.42286
 C274 C 0.27946 0.00994 0.42321
 C275 C 0.29260 0.02049 0.39319
 N276 N 0.30088 -0.00644 0.37432
 C277 C 0.29327 -0.03409 0.39243
 C278 C 0.29479 0.05451 0.38299
 C279 C 0.31211 0.06507 0.35432
 C280 C 0.31016 0.09703 0.34053
 C281 C 0.33225 0.09770 0.31435
 C282 C 0.34713 0.06617 0.31302
 N283 N 0.33490 0.04655 0.33759
 C284 C 0.37273 0.05688 0.29073
 C285 C 0.38334 0.02331 0.28593
 C286 C 0.41123 0.01409 0.26760
 C287 C 0.41117 -0.02040 0.26635
 C288 C 0.38314 -0.03114 0.28383
 N289 N 0.36615 -0.00436 0.29579
 C290 C 0.37269 -0.06516 0.28686
 C291 C 0.34805 -0.07575 0.30997
 C292 C 0.33222 -0.10698 0.30949
 C293 C 0.31065 -0.10769 0.33600
 C294 C 0.31380 -0.07685 0.35202
 N295 N 0.33676 -0.05757 0.33608
 C296 C 0.29650 -0.06789 0.38140
 H297 H 0.27168 -0.04086 0.44273
 H298 H 0.27028 0.02548 0.44327
 H299 H 0.34652 -0.03476 0.34448
 H300 H 0.29469 0.11781 0.34868
 H301 H 0.33709 0.11907 0.29836
 H302 H 0.42951 0.03053 0.25602
 H303 H 0.42953 -0.03583 0.25377
 H304 H 0.29442 -0.12854 0.34269
 H305 H 0.34436 0.02330 0.34478
 H306 H 0.33571 -0.12713 0.29174
 C307 C 0.72326 0.02142 0.58346
 C308 C 0.72353 -0.01313 0.58469
 C309 C 0.71015 -0.02215 0.61513
 N310 N 0.70182 0.00567 0.63252
 C311 C 0.70954 0.03235 0.61311
 C312 C 0.70787 -0.05550 0.62715
 C313 C 0.69164 -0.06444 0.65697
 C314 C 0.69484 -0.09542 0.67253
 C315 C 0.67350 -0.09508 0.69923
 C316 C 0.65764 -0.06396 0.69914
 N317 N 0.66883 -0.04546 0.67323
 C318 C 0.63254 -0.05406 0.72197
 C319 C 0.62193 -0.02013 0.72556
 C320 C 0.59372 -0.01000 0.74300
 C321 C 0.59259 0.02448 0.74094
 C322 C 0.62006 0.03438 0.72222
 N323 N 0.63811 0.00710 0.71306
 C324 C 0.62851 0.06827 0.71498
 C325 C 0.65421 0.07785 0.69281
 C326 C 0.66698 0.11027 0.68968
 C327 C 0.68893 0.10979 0.66338
 C328 C 0.68883 0.07711 0.65113
 N329 N 0.66749 0.05790 0.66915
 C330 C 0.70621 0.06649 0.62250
 H331 H 0.73233 0.03672 0.56313
 H332 H 0.73285 -0.02968 0.56550
 H333 H 0.65908 0.03388 0.66308
 H334 H 0.71073 -0.11622 0.66524
 H335 H 0.66992 -0.11553 0.71665
 H336 H 0.57567 -0.02583 0.75570
 H337 H 0.57359 0.04042 0.75186
 H338 H 0.70280 0.13123 0.65392
 H339 H 0.65862 -0.02296 0.66485
 H340 H 0.66062 0.13214 0.70441
 C341 C 0.41507 0.98760 0.73117
 C342 C 0.41443 1.02210 0.73057
 C343 C 0.38334 1.03123 0.71778
 N344 N 0.36509 1.00339 0.71034
 C345 C 0.38457 0.97670 0.71830
 C346 C 0.37198 1.06486 0.71418
 C347 C 0.34196 1.07308 0.69700
 C348 C 0.32524 1.10357 0.69978
 C349 C 0.29868 1.10239 0.67794
 C350 C 0.29987 1.07123 0.66232
 N351 N 0.32633 1.05350 0.67411
 C352 C 0.27756 1.06065 0.63684
 C353 C 0.27487 1.02667 0.62621
 C354 C 0.25889 1.01616 0.59733
 C355 C 0.26101 0.98171 0.59658
 C356 C 0.27831 0.97224 0.62494
 N357 N 0.28659 0.99973 0.64314
 C358 C 0.28498 0.93852 0.63408
 C359 C 0.30603 0.92958 0.66088
 C360 C 0.30869 0.89743 0.67409
 C361 C 0.33416 0.89861 0.69729
 C362 C 0.34637 0.93142 0.69746
 N363 N 0.32911 0.95005 0.67518
 C364 C 0.37487 0.94252 0.71540
 H365 H 0.43576 0.97231 0.73988
 H366 H 0.43463 1.03856 0.73859
 H367 H 0.33570 0.97395 0.66697
 H368 H 0.33166 1.12458 0.71577
 H369 H 0.28058 1.12229 0.67391
 H370 H 0.24709 1.03172 0.57861
 H371 H 0.25103 0.96552 0.57728
 H372 H 0.34329 0.87750 0.71169
 H373 H 0.33544 1.03106 0.66440
 H374 H 0.29432 0.87528 0.66717
 C375 C 0.73271 0.98454 0.40909
 C376 C 0.73469 1.01904 0.40818
 C377 C 0.71893 1.02918 0.37910
 N378 N 0.70752 1.00199 0.36219
 C379 C 0.71584 0.97469 0.38056
 C380 C 0.71652 1.06305 0.36812
 C381 C 0.69397 1.07342 0.34281
 C382 C 0.69482 1.10463 0.32721
 C383 C 0.66837 1.10526 0.30520
 C384 C 0.65225 1.07434 0.30767
 N385 N 0.66779 1.05519 0.33085
 C386 C 0.62328 1.06505 0.28942
 C387 C 0.61165 1.03152 0.28652
 C388 C 0.58220 1.02195 0.27058
 C389 C 0.58189 0.98738 0.27004
 C390 C 0.61118 0.97701 0.28564
 N391 N 0.62936 1.00403 0.29558
 C392 C 0.62220 0.94325 0.28747
 C393 C 0.65013 0.93281 0.30650
 C394 C 0.66452 0.90103 0.30506
 C395 C 0.68948 0.90033 0.32875
 C396 C 0.68980 0.93179 0.34370
 N397 N 0.66563 0.95132 0.33021
 C398 C 0.71007 0.94086 0.37105
 H399 H 0.74266 0.96856 0.42850
 H400 H 0.74633 1.03488 0.42685
 H401 H 0.65761 0.97436 0.33947
 H402 H 0.71269 1.12487 0.33124
 H403 H 0.66188 1.12606 0.28906
 H404 H 0.56329 1.03817 0.25977
 H405 H 0.56268 0.97168 0.25878
 H406 H 0.70534 0.87901 0.33458
 H407 H 0.65911 1.03240 0.34027
 H408 H 0.65742 0.88030 0.28899
 O409 O 0.85622 0.81860 0.47034
 O410 O 0.80599 0.86389 0.53197
 O411 O 0.85493 0.82068 0.53480
 O412 O 0.80698 0.86188 0.46838
 O413 O 0.77073 0.81978 0.46836
 O414 O 0.81801 0.77917 0.53633
 O415 O 0.76928 0.82221 0.53284
 O416 O 0.82011 0.77625 0.47146
 Cu417 Cu 0.83486 0.84529 0.50125
 Cu418 Cu 0.79096 0.79502 0.50216
 C419 C 0.84675 0.78977 0.46026
 C420 C 0.77865 0.85125 0.54248
 C421 C 0.84438 0.79337 0.54754
 C422 C 0.78006 0.84841 0.45762
 O423 O 0.17990 0.13612 0.53604
 O424 O 0.14331 0.17981 0.46429
 O425 O 0.18843 0.13337 0.47266
 O426 O 0.13359 0.18214 0.52783
 O427 O 0.17301 0.22123 0.53326
 O428 O 0.22724 0.17312 0.47633
 O429 O 0.18133 0.22025 0.46945
 O430 O 0.21898 0.17542 0.54033
 Cu431 Cu 0.15738 0.15392 0.49982
 Cu432 Cu 0.20412 0.20147 0.50513
 C433 C 0.20573 0.14812 0.55045
 C434 C 0.15580 0.20771 0.45495
 C435 C 0.21739 0.14463 0.46546
 C436 C 0.14385 0.20998 0.53977
 O437 O 0.19349 0.85243 0.47084
 O438 O 0.14200 0.81120 0.53444
 O439 O 0.19032 0.85585 0.53456
 O440 O 0.14530 0.80677 0.47070
 O441 O 0.18298 0.76660 0.47443
 O442 O 0.22838 0.81567 0.53822
 O443 O 0.17982 0.77095 0.53887
 O444 O 0.23078 0.81197 0.47414
 Cu445 Cu 0.16400 0.83558 0.50211
 Cu446 Cu 0.20920 0.78720 0.50683
 C447 C 0.22146 0.83993 0.46210
 C448 C 0.15179 0.78363 0.54708
 C449 C 0.21754 0.84450 0.54662
 C450 C 0.15585 0.77781 0.46218
 O451 O 0.81769 0.14108 0.46444
 O452 O 0.85628 0.18784 0.53338
 O453 O 0.81029 0.14146 0.52815
 O454 O 0.86581 0.18627 0.47036
 O455 O 0.82779 0.22627 0.46418
 O456 O 0.77208 0.18128 0.52267
 O457 O 0.81852 0.22812 0.52751
 O458 O 0.77990 0.18109 0.45844
 Cu459 Cu 0.84123 0.16006 0.49954
 Cu460 Cu 0.79561 0.20810 0.49259
 C461 C 0.79212 0.15296 0.44967
 C462 C 0.84459 0.21640 0.54148
 C463 C 0.78165 0.15343 0.53507
 C464 C 0.85677 0.21437 0.45828
 O465 O 0.47420 0.86488 0.81506
 O466 O 0.53367 0.81416 0.86426
 O467 O 0.53888 0.86362 0.82117
 O468 O 0.46904 0.81840 0.86005
 O469 O 0.47024 0.77984 0.82059
 O470 O 0.54082 0.82575 0.78126
 O471 O 0.53528 0.77637 0.82413
 O472 O 0.47567 0.82663 0.77532
 Cu473 Cu 0.50397 0.84409 0.84410
 Cu474 Cu 0.50574 0.79835 0.79630
 C475 C 0.46516 0.85452 0.78655
 C476 C 0.54375 0.78604 0.85295
 C477 C 0.55173 0.85282 0.79452
 C478 C 0.45761 0.79153 0.84714
 O479 O 0.52667 0.18728 0.13956
 O480 O 0.46347 0.13766 0.18480
 O481 O 0.46212 0.18351 0.13809
 O482 O 0.52865 0.14104 0.18532
 O483 O 0.52620 0.18028 0.22405
 O484 O 0.45920 0.22296 0.17646
 O485 O 0.46085 0.17718 0.22319
 O486 O 0.52433 0.22679 0.17803
 Cu487 Cu 0.49544 0.15832 0.15820
 Cu488 Cu 0.49240 0.20574 0.20433
 C489 C 0.53567 0.21590 0.15067
 C490 C 0.45133 0.14889 0.21169
 C491 C 0.44938 0.21062 0.14894
 C492 C 0.53891 0.15334 0.21261
 O493 O 0.53250 0.14794 0.81227
 O494 O 0.46600 0.19002 0.85921
 O495 O 0.46784 0.14655 0.81071
 O496 O 0.53086 0.19291 0.85996
 O497 O 0.52994 0.23407 0.82319
 O498 O 0.46608 0.18791 0.77458
 O499 O 0.46454 0.23122 0.82260
 O500 O 0.53134 0.18881 0.77518
 Cu501 Cu 0.49951 0.16530 0.83925
 Cu502 Cu 0.49816 0.21472 0.79524
 C503 C 0.54235 0.16049 0.78506
 C504 C 0.45361 0.21756 0.84897
 C505 C 0.45640 0.15895 0.78388
 C506 C 0.54042 0.22189 0.85042
 O507 O 0.46843 0.81194 0.13447
 O508 O 0.52907 0.86314 0.18094
 O509 O 0.53297 0.81373 0.13837
 O510 O 0.46435 0.85868 0.18043
 O511 O 0.46496 0.82089 0.22038
 O512 O 0.53234 0.77494 0.17761
 O513 O 0.53077 0.82470 0.22028
 O514 O 0.46745 0.77427 0.17455
 Cu515 Cu 0.49857 0.84071 0.15466
 Cu516 Cu 0.49885 0.79502 0.20235
 C517 C 0.45820 0.78394 0.14592
 C518 C 0.54084 0.85263 0.20822
 C519 C 0.54397 0.78632 0.15056
 C520 C 0.45293 0.84756 0.20772
 O521 O 0.86306 0.53184 0.81529
 O522 O 0.82145 0.46735 0.86624
 O523 O 0.86495 0.46717 0.81854
 O524 O 0.82000 0.53284 0.86424
 O525 O 0.77853 0.53107 0.82797
 O526 O 0.82342 0.46451 0.78201
 O527 O 0.77969 0.46501 0.83017
 O528 O 0.82132 0.52987 0.77929
 Cu529 Cu 0.84640 0.50019 0.84484
 Cu530 Cu 0.79642 0.49735 0.80133
 C531 C 0.84984 0.54121 0.78810
 C532 C 0.79366 0.45483 0.85669
 C533 C 0.85201 0.45493 0.79239
 C534 C 0.79185 0.54356 0.85393
 O535 O 0.13182 0.53522 0.17970
 O536 O 0.18391 0.47393 0.13508
 O537 O 0.13839 0.46980 0.18083
 O538 O 0.17790 0.53830 0.13347
 O539 O 0.21738 0.54327 0.17163
 O540 O 0.17658 0.47588 0.22030
 O541 O 0.22280 0.47823 0.17403
 O542 O 0.17150 0.54150 0.21741
 Cu543 Cu 0.15390 0.50387 0.15358
 Cu544 Cu 0.20092 0.51011 0.19984
 C545 C 0.14286 0.54937 0.20582
 C546 C 0.21260 0.46621 0.14655
 C547 C 0.15072 0.46117 0.20860
 C548 C 0.20463 0.55224 0.14408
 O549 O 0.86588 0.47009 0.19419
 O550 O 0.81306 0.52568 0.14340
 O551 O 0.85735 0.53435 0.18979
 O552 O 0.82074 0.46114 0.14721
 O553 O 0.78074 0.45802 0.18475
 O554 O 0.81810 0.53113 0.22823
 O555 O 0.77317 0.52311 0.18124
 O556 O 0.82572 0.46622 0.23174
 Cu557 Cu 0.84325 0.49791 0.16486
 Cu558 Cu 0.79536 0.49428 0.21026
 C559 C 0.85514 0.45929 0.22183
 C560 C 0.78400 0.53365 0.15349
 C561 C 0.84420 0.54514 0.21635
 C562 C 0.79432 0.44721 0.15834
 O563 O 0.18129 0.53571 0.85348
 O564 O 0.13865 0.46599 0.81043
 O565 O 0.18612 0.47141 0.85601
 O566 O 0.13653 0.53160 0.80717
 O567 O 0.17706 0.53466 0.77031
 O568 O 0.22379 0.46965 0.81621
 O569 O 0.17613 0.46874 0.77023
 O570 O 0.22207 0.53489 0.81648
 Cu571 Cu 0.15656 0.50077 0.83550
 Cu572 Cu 0.20365 0.50165 0.78931
 C573 C 0.20905 0.54696 0.84264
 C574 C 0.14940 0.45637 0.78245
 C575 C 0.21414 0.46117 0.84498
 C576 C 0.14851 0.54395 0.78061
 C577 C 0.21890 0.41503 0.11245
 C578 C 0.23681 0.39402 0.09132
 C579 C 0.27056 0.40062 0.08428
 C580 C 0.28690 0.42845 0.09937
 C581 C 0.26862 0.45024 0.12056
 C582 C 0.23417 0.44332 0.12711
 C583 C 0.28525 0.47904 0.13302
 N584 N 0.31803 0.48464 0.12566
 N585 N 0.33529 0.46370 0.10643
 C586 C 0.32084 0.43588 0.09295
 H587 H 0.19261 0.40952 0.11685
 H588 H 0.22402 0.37296 0.07962
 H589 H 0.27270 0.49750 0.14811
 H590 H 0.33595 0.41992 0.07721
 C591 C 0.77814 0.58400 0.11819
 C592 C 0.76045 0.60473 0.09651
 C593 C 0.72699 0.59759 0.08835
 C594 C 0.71082 0.56930 0.10265
 C595 C 0.72888 0.54791 0.12453
 C596 C 0.76290 0.55554 0.13239
 C597 C 0.71250 0.51884 0.13651
 N598 N 0.68010 0.51249 0.12792
 N599 N 0.66303 0.53299 0.10795
 C600 C 0.67729 0.56110 0.09495
 H601 H 0.80414 0.59007 0.12369
 H602 H 0.77313 0.62615 0.08544
 H603 H 0.72506 0.50077 0.15218
 H604 H 0.66235 0.57666 0.07858
 C605 C 0.74182 0.43224 0.88178
 C606 C 0.72467 0.41132 0.90370
 C607 C 0.74175 0.38657 0.92173
 C608 C 0.77653 0.38172 0.91645
 C609 C 0.79409 0.40293 0.89403
 C610 C 0.77662 0.42917 0.87736
 C611 C 0.82845 0.39657 0.88872
 N612 N 0.84398 0.37128 0.90533
 N613 N 0.82754 0.35178 0.92674
 C614 C 0.79436 0.35609 0.93284
 H615 H 0.72797 0.45192 0.86915
 H616 H 0.69800 0.41512 0.90743
 H617 H 0.84308 0.41089 0.87114
 H618 H 0.78217 0.33926 0.95017
 C619 C 0.26178 0.56855 0.86706
 C620 C 0.27934 0.58891 0.88933
 C621 C 0.26283 0.61427 0.90694
 C622 C 0.22844 0.62062 0.90066
 C623 C 0.21059 0.60016 0.87772
 C624 C 0.22723 0.57301 0.86186
 C625 C 0.17672 0.60798 0.87121
 N626 N 0.16180 0.63385 0.88741
 N627 N 0.17844 0.65254 0.90951
 C628 C 0.21124 0.64684 0.91667
 H629 H 0.27496 0.54804 0.85509
 H630 H 0.30572 0.58401 0.89386
 H631 H 0.16212 0.59430 0.85296
 H632 H 0.22364 0.66303 0.93455
 C633 C 0.12844 0.25963 0.43571
 C634 C 0.10706 0.27685 0.41430
 C635 C 0.09624 0.26205 0.38458
 C636 C 0.10849 0.22988 0.37553
 C637 C 0.12967 0.21201 0.39768
 C638 C 0.13886 0.22677 0.42841
 C639 C 0.14114 0.17997 0.38810
 N640 N 0.13171 0.16686 0.35840
 N641 N 0.11167 0.18361 0.33770
 C642 C 0.09974 0.21467 0.34523
 H643 H 0.13527 0.27129 0.45910
 H644 H 0.09796 0.30151 0.42144
 H645 H 0.15786 0.16547 0.40370
 H646 H 0.08365 0.22725 0.32748
 C647 C 0.11293 0.78637 0.59453
 C648 C 0.08950 0.77243 0.61614
 C649 C 0.08203 0.73799 0.61501
 C650 C 0.09890 0.71697 0.59215
 C651 C 0.12273 0.73109 0.56999
 C652 C 0.12969 0.76631 0.57121
 C653 C 0.13751 0.70951 0.54649
 N654 N 0.12954 0.67624 0.54594
 N655 N 0.10752 0.66301 0.56704
 C656 C 0.09184 0.68220 0.59001
 H657 H 0.11770 0.81327 0.59572
 H658 H 0.07656 0.78870 0.63344
 H659 H 0.15501 0.71849 0.52828
 H660 H 0.07386 0.67010 0.60619
 C661 C 0.87336 0.73679 0.44211
 C662 C 0.89588 0.71866 0.42275
 C663 C 0.91345 0.73441 0.39705
 C664 C 0.90729 0.76874 0.38980
 C665 C 0.88401 0.78715 0.40916
 C666 C 0.86776 0.77118 0.43629
 C667 C 0.87733 0.82076 0.40011
 N668 N 0.89382 0.83500 0.37425
 N669 N 0.91631 0.81791 0.35666
 C670 C 0.92358 0.78528 0.36351
 H671 H 0.86110 0.72409 0.46258
 H672 H 0.90025 0.69231 0.42831
 H673 H 0.85872 0.83572 0.41276
 H674 H 0.94179 0.77249 0.34819
 C675 C 0.87062 0.22139 0.59677
 C676 C 0.89227 0.23704 0.61924
 C677 C 0.90756 0.26784 0.61141
 C678 C 0.89959 0.28411 0.58116
 C679 C 0.87681 0.26869 0.55866
 C680 C 0.86295 0.23659 0.56633
 C681 C 0.87010 0.28535 0.52851
 N682 N 0.88523 0.31523 0.52168
 N683 N 0.90670 0.32959 0.54281
 C684 C 0.91448 0.31503 0.57223
 H685 H 0.86045 0.19676 0.60278
 H686 H 0.89837 0.22436 0.64226
 H687 H 0.85343 0.27488 0.51002
 H688 H 0.93226 0.32776 0.58831
 C689 C 0.43129 0.12694 0.26542
 C690 C 0.41238 0.10483 0.28469
 C691 C 0.38863 0.08342 0.26999
 C692 C 0.38246 0.08555 0.23549
 C693 C 0.40180 0.10790 0.21578
 C694 C 0.42723 0.12806 0.23085
 C695 C 0.39454 0.10953 0.18168
 N696 N 0.37006 0.08979 0.16839
 N697 N 0.35217 0.06858 0.18691
 C698 C 0.35748 0.06582 0.22000
 H699 H 0.45040 0.14218 0.27750
 H700 H 0.41721 0.10344 0.31110
 H701 H 0.40762 0.12658 0.16554
 H702 H 0.34192 0.04849 0.23391
 C703 C 0.59340 0.12570 0.78060
 C704 C 0.61421 0.10332 0.76386
 C705 C 0.60819 0.09531 0.73059
 C706 C 0.58129 0.11090 0.71349
 C707 C 0.55996 0.13367 0.73048
 C708 C 0.56604 0.14089 0.76454
 C709 C 0.53231 0.14698 0.71303
 N710 N 0.52712 0.13868 0.68080
 N711 N 0.54744 0.11769 0.66482
 C712 C 0.57424 0.10342 0.68007
 H713 H 0.59820 0.13059 0.80663
 H714 H 0.63459 0.09132 0.77721
 H715 H 0.51452 0.16362 0.72452
 H716 H 0.58962 0.08623 0.66595
 C717 C 0.41431 0.88967 0.78236
 C718 C 0.39200 0.91023 0.76514
 C719 C 0.39673 0.91696 0.73144
 C720 C 0.42424 0.90244 0.71461
 C721 C 0.44735 0.88191 0.73219
 C722 C 0.44206 0.87531 0.76643
 C723 C 0.47575 0.87005 0.71503
 N724 N 0.47973 0.87729 0.68242
 N725 N 0.45753 0.89585 0.66581
 C726 C 0.43001 0.90876 0.68079
 H727 H 0.40997 0.88508 0.80849
 H728 H 0.37126 0.92162 0.77833
 H729 H 0.49519 0.85566 0.72712
 H730 H 0.41299 0.92398 0.66619
 C731 C 0.56331 0.87330 0.26174
 C732 C 0.58263 0.89517 0.28103
 C733 C 0.60477 0.91800 0.26620
 C734 C 0.60875 0.91785 0.23137
 C735 C 0.58887 0.89590 0.21152
 C736 C 0.56522 0.87385 0.22697
 C737 C 0.59395 0.89671 0.17695
 N738 N 0.61695 0.91800 0.16360
 N739 N 0.63545 0.93856 0.18234
 C740 C 0.63219 0.93919 0.21574
 H741 H 0.54563 0.85677 0.27413
 H742 H 0.57959 0.89499 0.30771
 H743 H 0.58038 0.88060 0.16018
 H744 H 0.64815 0.95616 0.22975
 C745 C 0.42732 0.27027 0.86864
 C746 C 0.40730 0.28832 0.89053
 C747 C 0.38748 0.27159 0.91405
 C748 C 0.38538 0.23582 0.91323
 C749 C 0.40490 0.21743 0.89008
 C750 C 0.42760 0.23488 0.86894
 C751 C 0.40018 0.18222 0.88838
 N752 N 0.37847 0.16667 0.90926
 N753 N 0.36074 0.18386 0.93144
 C754 C 0.36327 0.21784 0.93400
 H755 H 0.44392 0.28422 0.85237
 H756 H 0.40883 0.31562 0.89041
 H757 H 0.41253 0.16687 0.87003
 H758 H 0.34748 0.23052 0.95181
 C759 C 0.59142 0.77937 0.89180
 C760 C 0.61151 0.76051 0.91315
 C761 C 0.60583 0.72593 0.91735
 C762 C 0.57972 0.70987 0.89939
 C763 C 0.55899 0.72901 0.87781
 C764 C 0.56511 0.76419 0.87394
 C765 C 0.53196 0.71233 0.86208
 N766 N 0.52695 0.67885 0.86694
 N767 N 0.54685 0.66088 0.88670
 C768 C 0.57297 0.67524 0.90317
 H769 H 0.59631 0.80615 0.88937
 H770 H 0.63122 0.77309 0.92710
 H771 H 0.51436 0.72536 0.84636
 H772 H 0.58808 0.65948 0.91918
 C773 C 0.41395 0.78006 0.10325
 C774 C 0.39407 0.76281 0.08049
 C775 C 0.39428 0.72754 0.07905
 C776 C 0.41513 0.70928 0.10131
 C777 C 0.43641 0.72694 0.12393
 C778 C 0.43551 0.76290 0.12501
 C779 C 0.45892 0.70778 0.14330
 N780 N 0.45904 0.67368 0.14100
 N781 N 0.43867 0.65725 0.12031
 C782 C 0.41695 0.67382 0.10027
 H783 H 0.41284 0.80736 0.10341
 H784 H 0.37829 0.77717 0.06373
 H785 H 0.47703 0.71909 0.15979
 H786 H 0.40169 0.65908 0.08338
 C787 C 0.58691 0.22017 0.11670
 C788 C 0.60900 0.23745 0.09605
 C789 C 0.60430 0.27168 0.08924
 C790 C 0.57719 0.28906 0.10393
 C791 C 0.55431 0.27145 0.12463
 C792 C 0.55940 0.23657 0.13109
 C793 C 0.52634 0.28922 0.13677
 N794 N 0.52251 0.32240 0.12958
 N795 N 0.54447 0.33900 0.11081
 C796 C 0.57161 0.32347 0.09766
 H797 H 0.59108 0.19356 0.12113
 H798 H 0.62951 0.22387 0.08464
 H799 H 0.50714 0.27725 0.15147
 H800 H 0.58847 0.33810 0.08231
 C801 C 0.25694 0.13173 0.58124
 C802 C 0.27461 0.11047 0.60240
 C803 C 0.25795 0.08523 0.62038
 C804 C 0.22226 0.08398 0.61961
 C805 C 0.20413 0.10643 0.59882
 C806 C 0.22191 0.12909 0.57786
 C807 C 0.16877 0.10588 0.60048
 N808 N 0.15293 0.08365 0.62068
 N809 N 0.16994 0.06220 0.63968
 C810 C 0.20398 0.06173 0.64001
 H811 H 0.27112 0.14919 0.56603
 H812 H 0.30180 0.11221 0.60292
 H813 H 0.15343 0.12355 0.58691
 H814 H 0.21644 0.04444 0.65669
 C815 C 0.73985 0.13566 0.42107
 C816 C 0.72124 0.11372 0.40127
 C817 C 0.73696 0.08766 0.38375
 C818 C 0.77265 0.08598 0.38375
 C819 C 0.79171 0.10900 0.40326
 C820 C 0.77490 0.13282 0.42359
 C821 C 0.82701 0.10787 0.40094
 N822 N 0.84194 0.08467 0.38124
 N823 N 0.82407 0.06279 0.36335
 C824 C 0.79002 0.06278 0.36374
 H825 H 0.72640 0.15393 0.43591
 H826 H 0.69408 0.11577 0.40134
 H827 H 0.84300 0.12580 0.41359
 H828 H 0.77688 0.04507 0.34790
 C829 C 0.77583 0.89256 0.58795
 C830 C 0.75911 0.91519 0.60830
 C831 C 0.72412 0.91741 0.60749
 C832 C 0.70540 0.89547 0.58677
 C833 C 0.72231 0.87202 0.56608
 C834 C 0.75818 0.87119 0.56617
 C835 C 0.70240 0.85133 0.54536
 N836 N 0.66845 0.85402 0.54560
 N837 N 0.65281 0.87608 0.56494
 C838 C 0.67010 0.89695 0.58545
 H839 H 0.80305 0.89228 0.58879
 H840 H 0.77364 0.93184 0.62417
 H841 H 0.71295 0.83296 0.52896
 H842 H 0.65606 0.91453 0.60044
 C843 C 0.22683 0.88509 0.42054
 C844 C 0.24472 0.90817 0.40173
 C845 C 0.27972 0.90652 0.39945
 C846 C 0.29697 0.88000 0.41590
 C847 C 0.27871 0.85603 0.43525
 C848 C 0.24299 0.85935 0.43840
 C849 C 0.29746 0.83057 0.45132
 N850 N 0.33139 0.82982 0.44875
 N851 N 0.34827 0.85275 0.43143
 C852 C 0.33231 0.87785 0.41514
 H853 H 0.19982 0.88813 0.42174
 H854 H 0.23100 0.92789 0.38897
 H855 H 0.28630 0.81097 0.46591
 H856 H 0.34754 0.89607 0.40204
 C857 C 0.12692 0.39861 0.77420
 C858 C 0.10572 0.37556 0.75825
 C859 C 0.08607 0.38553 0.73110
 C860 C 0.08847 0.41903 0.71919
 C861 C 0.11004 0.44234 0.73530
 C862 C 0.12924 0.43201 0.76312
 C863 C 0.11070 0.47573 0.72370
 N864 N 0.09150 0.48486 0.69738
 N865 N 0.07148 0.46283 0.68200
 C866 C 0.06923 0.43028 0.69203
 H867 H 0.14114 0.39052 0.79571
 H868 H 0.10374 0.35010 0.76777
 H869 H 0.12609 0.49465 0.73551
 H870 H 0.05240 0.41356 0.67873
 C871 C 0.12520 0.57555 0.25859
 C872 C 0.10410 0.59545 0.27778
 C873 C 0.07834 0.61435 0.26311
 C874 C 0.07585 0.61531 0.22793
 C875 C 0.09775 0.59542 0.20826
 C876 C 0.12175 0.57413 0.22396
 C877 C 0.09541 0.59851 0.17352
 N878 N 0.07244 0.61944 0.15970
 N879 N 0.05186 0.63789 0.17814
 C880 C 0.05292 0.63676 0.21169
 H881 H 0.14358 0.56003 0.27120
 H882 H 0.10673 0.59457 0.30453
 H883 H 0.11204 0.58542 0.15702
 H884 H 0.03625 0.65311 0.22531
 C885 C 0.87000 0.40578 0.24969
 C886 C 0.89226 0.38549 0.26744
 C887 C 0.92298 0.39847 0.27932
 C888 C 0.92964 0.43360 0.27563
 C889 C 0.90737 0.45394 0.25690
 C890 C 0.87782 0.43955 0.24317
 C891 C 0.91508 0.48841 0.25317
 N892 N 0.94274 0.50164 0.26805
 N893 N 0.96312 0.48281 0.28651
 C894 C 0.95742 0.44940 0.29102
 H895 H 0.84716 0.39469 0.23977
 H896 H 0.88629 0.35896 0.27029
 H897 H 0.89918 0.50508 0.23902
 H898 H 0.97440 0.43560 0.30693
 C899 C 0.88813 0.58989 0.78324
 C900 C 0.90838 0.61208 0.76562
 C901 C 0.90895 0.61158 0.73091
 C902 C 0.88834 0.58811 0.71359
 C903 C 0.86847 0.56452 0.73161
 C904 C 0.86829 0.56568 0.76696
 C905 C 0.85109 0.53953 0.71338
 N906 N 0.85245 0.53928 0.67980
 N907 N 0.87042 0.56186 0.66304
 C908 C 0.88857 0.58605 0.67873
 H909 H 0.88857 0.59123 0.81008
 H910 H 0.92424 0.62957 0.77926
 H911 H 0.83703 0.51961 0.72506
 H912 H 0.90328 0.60318 0.66376
 C913 C 0.73828 0.56889 0.87247
 C914 C 0.71946 0.58868 0.89399
 C915 C 0.73529 0.60914 0.91773
 C916 C 0.77085 0.61220 0.91747
 C917 C 0.79001 0.59310 0.89458
 C918 C 0.77356 0.56954 0.87333
 C919 C 0.82494 0.59902 0.89333
 N920 N 0.83954 0.62125 0.91453
 N921 N 0.82165 0.63839 0.93662
 C922 C 0.78785 0.63478 0.93871
 H923 H 0.72503 0.55168 0.85610
 H924 H 0.69231 0.58636 0.89351
 H925 H 0.84079 0.58722 0.87508
 H926 H 0.77453 0.65008 0.95651
 C927 C 0.21905 0.41817 0.88883
 C928 C 0.23688 0.39920 0.91183
 C929 C 0.27204 0.40032 0.91294
 C930 C 0.28959 0.42146 0.89039
 C931 C 0.27135 0.44185 0.86759
 C932 C 0.23555 0.43969 0.86654
 C933 C 0.28979 0.46486 0.84803
 N934 N 0.32377 0.46615 0.85026
 N935 N 0.34075 0.44653 0.87108
 C936 C 0.32488 0.42447 0.89135
 H937 H 0.19188 0.41632 0.88882
 H938 H 0.22306 0.38332 0.92894
 H939 H 0.27800 0.48254 0.83151
 H940 H 0.34004 0.40993 0.90837
 C941 C 0.25762 0.57852 0.12505
 C942 C 0.27638 0.59776 0.10294
 C943 C 0.26063 0.61645 0.07784
 C944 C 0.22493 0.61802 0.07710
 C945 C 0.20576 0.59886 0.10009
 C946 C 0.22239 0.57756 0.12325
 C947 C 0.17058 0.60260 0.09961
 N948 N 0.15581 0.62339 0.07728
 N949 N 0.17376 0.64109 0.05559
 C950 C 0.20773 0.63933 0.05488
 H951 H 0.27098 0.56297 0.14276
 H952 H 0.30356 0.59653 0.10429
 H953 H 0.15459 0.59017 0.11730
 H954 H 0.22098 0.65511 0.03737
 C955 C 0.74258 0.41804 0.13958
 C956 C 0.72502 0.39768 0.11731
 C957 C 0.74204 0.37881 0.09325
 C958 C 0.77774 0.37777 0.09425
 C959 C 0.79566 0.39788 0.11756
 C960 C 0.77780 0.41982 0.13903
 C961 C 0.83087 0.39463 0.11901
 N962 N 0.84686 0.37350 0.09792
 N963 N 0.83010 0.35506 0.07575
 C964 C 0.79615 0.35630 0.07331
 H965 H 0.72831 0.43406 0.15607
 H966 H 0.69779 0.39854 0.11737
 H967 H 0.84586 0.40774 0.13732
 H968 H 0.78384 0.34003 0.05546
 C969 C 0.86348 0.74182 0.57655
 C970 C 0.88481 0.72474 0.59817
 C971 C 0.90782 0.74243 0.61810
 C972 C 0.90672 0.77824 0.61865
 C973 C 0.88408 0.79566 0.59750
 C974 C 0.86378 0.77716 0.57471
 C975 C 0.88200 0.83099 0.60069
 N976 N 0.90214 0.84753 0.62252
 N977 N 0.92391 0.83123 0.64175
 C978 C 0.92676 0.79722 0.64072
 H979 H 0.84775 0.72710 0.55996
 H980 H 0.88493 0.69741 0.59766
 H981 H 0.86388 0.84569 0.58703
 H982 H 0.94415 0.78529 0.65766
 C983 C 0.87218 0.24290 0.40588
 C984 C 0.89446 0.26098 0.38595
 C985 C 0.92595 0.27163 0.39815
 C986 C 0.93381 0.26550 0.43214
 C987 C 0.91184 0.24569 0.45184
 C988 C 0.88088 0.23415 0.43838
 C989 C 0.92117 0.23909 0.48493
 N990 N 0.94963 0.25281 0.49772
 N991 N 0.96940 0.27274 0.47974
 C992 C 0.96235 0.27980 0.44760
 H993 H 0.84836 0.23472 0.39549
 H994 H 0.88753 0.26556 0.36034
 H995 H 0.90583 0.22380 0.50105
 H996 H 0.97893 0.29686 0.43458
 C997 C 0.12903 0.23375 0.59440
 C998 C 0.10767 0.25138 0.61551
 C999 C 0.07796 0.26623 0.60353
 C1000 C 0.07111 0.26482 0.56881
 C1001 C 0.09226 0.24582 0.54767
 C1002 C 0.12118 0.22996 0.56078
 C1003 C 0.08421 0.24411 0.51370
 N1004 N 0.05756 0.26143 0.50160
 N1005 N 0.03851 0.28042 0.52115
 C1006 C 0.04448 0.28293 0.55417
 H1007 H 0.15136 0.22207 0.60460
 H1008 H 0.11375 0.25223 0.64172
 H1009 H 0.09906 0.22953 0.49658
 H1010 H 0.02862 0.29940 0.56856
 C1011 C 0.11451 0.77553 0.41640
 C1012 C 0.09125 0.75926 0.39611
 C1013 C 0.08772 0.72423 0.39690
 C1014 C 0.10924 0.70499 0.41745
 C1015 C 0.13361 0.72138 0.43790
 C1016 C 0.13549 0.75746 0.43813
 C1017 C 0.15420 0.70069 0.45786
 N1018 N 0.15026 0.66672 0.45752
 N1019 N 0.12713 0.65169 0.43872
 C1020 C 0.10646 0.66963 0.41878
 H1021 H 0.11555 0.80283 0.41557
 H1022 H 0.07504 0.77424 0.38032
 H1023 H 0.17361 0.71043 0.47370
 H1024 H 0.08802 0.65602 0.40420
 C1025 C 0.57872 0.87256 0.74280
 C1026 C 0.59808 0.89556 0.72502
 C1027 C 0.61677 0.92069 0.74134
 C1028 C 0.61851 0.92027 0.77653
 C1029 C 0.59966 0.89604 0.79468
 C1030 C 0.57794 0.87329 0.77757
 C1031 C 0.60401 0.89492 0.82935
 N1032 N 0.62480 0.91725 0.84463
 N1033 N 0.64192 0.94035 0.82767
 C1034 C 0.63968 0.94250 0.79421
 H1035 H 0.56285 0.85518 0.72909
 H1036 H 0.59681 0.89501 0.69817
 H1037 H 0.59214 0.87589 0.84447
 H1038 H 0.65497 0.96113 0.78172
 C1039 C 0.42670 0.86396 0.26089
 C1040 C 0.40708 0.88508 0.28035
 C1041 C 0.38761 0.91054 0.26588
 C1042 C 0.38521 0.91218 0.23072
 C1043 C 0.40434 0.88980 0.21080
 C1044 C 0.42697 0.86687 0.22617
 C1045 C 0.39930 0.89069 0.17620
 N1046 N 0.37767 0.91320 0.16269
 N1047 N 0.36032 0.93460 0.18133
 C1048 C 0.36315 0.93473 0.21480
 H1049 H 0.44314 0.84628 0.27335
 H1050 H 0.40892 0.88301 0.30710
 H1051 H 0.41124 0.87306 0.15969
 H1052 H 0.34761 0.95198 0.22868
 C1053 C 0.55951 0.13098 0.26611
 C1054 C 0.57969 0.10938 0.28472
 C1055 C 0.60561 0.09127 0.26969
 C1056 C 0.61265 0.09648 0.23570
 C1057 C 0.59242 0.11875 0.21681
 C1058 C 0.56469 0.13501 0.23195
 C1059 C 0.60097 0.12421 0.18339
 N1060 N 0.62727 0.10756 0.16984
 N1061 N 0.64570 0.08600 0.18741
 C1062 C 0.63931 0.07988 0.21985
 H1063 H 0.53857 0.14326 0.27818
 H1064 H 0.57416 0.10563 0.31074
 H1065 H 0.58752 0.14198 0.16805
 H1066 H 0.65530 0.06239 0.23303
 C1067 C 0.41478 0.11290 0.78079
 C1068 C 0.39474 0.08964 0.76423
 C1069 C 0.39066 0.09096 0.72978
 C1070 C 0.40658 0.11736 0.71177
 C1071 C 0.42702 0.14158 0.72871
 C1072 C 0.43194 0.13861 0.76381
 C1073 C 0.44250 0.16689 0.70932
 N1074 N 0.43841 0.16731 0.67596
 N1075 N 0.42014 0.14414 0.66026
 C1076 C 0.40435 0.11912 0.67691
 H1077 H 0.41736 0.11017 0.80740
 H1078 H 0.38252 0.06999 0.77853
 H1079 H 0.45789 0.18655 0.71955
 H1080 H 0.39054 0.10067 0.66257
 C1081 C 0.56314 0.73160 0.12849
 C1082 C 0.58266 0.71219 0.10722
 C1083 C 0.60863 0.72697 0.08893
 C1084 C 0.61635 0.76151 0.09350
 C1085 C 0.59665 0.78123 0.11528
 C1086 C 0.56898 0.76636 0.13195
 C1087 C 0.60573 0.81516 0.11996
 N1088 N 0.63212 0.82851 0.10323
 N1089 N 0.65017 0.81012 0.08224
 C1090 C 0.64322 0.77708 0.07681
 H1091 H 0.54223 0.71968 0.14108
 H1092 H 0.57663 0.68572 0.10395
 H1093 H 0.59258 0.83092 0.13726
 H1094 H 0.65895 0.76322 0.05979
 C1095 C 0.42616 0.26464 0.12886
 C1096 C 0.40705 0.28389 0.10699
 C1097 C 0.38528 0.26841 0.08431
 C1098 C 0.38128 0.23295 0.08484
 C1099 C 0.40101 0.21317 0.10678
 C1100 C 0.42450 0.22925 0.12842
 C1101 C 0.39601 0.17802 0.10642
 N1102 N 0.37321 0.16393 0.08547
 N1103 N 0.35488 0.18256 0.06485
 C1104 C 0.35807 0.21656 0.06386
 H1105 H 0.44362 0.27758 0.14518
 H1106 H 0.41015 0.31104 0.10694
 H1107 H 0.40948 0.16150 0.12273
 H1108 H 0.34223 0.23047 0.04689
 C1109 C 0.59082 0.22467 0.88625
 C1110 C 0.61222 0.24100 0.90851
 C1111 C 0.60706 0.27478 0.91696
 C1112 C 0.58016 0.29269 0.90231
 C1113 C 0.55796 0.27603 0.88000
 C1114 C 0.56356 0.24160 0.87182
 C1115 C 0.53008 0.29417 0.86798
 N1116 N 0.52574 0.32687 0.87678
 N1117 N 0.54710 0.34264 0.89704
 C1118 C 0.57408 0.32667 0.91018
 H1119 H 0.59530 0.19836 0.88059
 H1120 H 0.63254 0.22698 0.91986
 H1121 H 0.51131 0.28281 0.85215
 H1122 H 0.59042 0.34061 0.92678
 C1123 C 0.43381 0.73780 0.86766
 C1124 C 0.41329 0.71971 0.88927
 C1125 C 0.38896 0.73619 0.90821
 C1126 C 0.38362 0.77112 0.90370
 C1127 C 0.40425 0.78952 0.88149
 C1128 C 0.43066 0.77287 0.86455
 C1129 C 0.39740 0.82399 0.87677
 N1130 N 0.37230 0.83893 0.89398
 N1131 N 0.35348 0.82176 0.91542
 C1132 C 0.35826 0.78839 0.92086
 H1133 H 0.45350 0.72451 0.85469
 H1134 H 0.41733 0.69289 0.89230
 H1135 H 0.41119 0.83908 0.85911
 H1136 H 0.34200 0.77559 0.93827
 C1137 C 0.77738 0.88701 0.40977
 C1138 C 0.76082 0.90961 0.38909
 C1139 C 0.72599 0.91358 0.39094
 C1140 C 0.70723 0.89314 0.41298
 C1141 C 0.72395 0.86951 0.43376
 C1142 C 0.75971 0.86723 0.43280
 C1143 C 0.70407 0.85019 0.45557
 N1144 N 0.67030 0.85447 0.45649
 N1145 N 0.65485 0.87687 0.43729
 C1146 C 0.67213 0.89641 0.41569
 H1147 H 0.80453 0.88566 0.40839
 H1148 H 0.77542 0.92506 0.37226
 H1149 H 0.71451 0.83158 0.47185
 H1150 H 0.65822 0.91440 0.40099
 C1151 C 0.21958 0.88121 0.59609
 C1152 C 0.23583 0.90357 0.61750
 C1153 C 0.26993 0.91120 0.61347
 C1154 C 0.28825 0.89546 0.58775
 C1155 C 0.27173 0.87280 0.56578
 C1156 C 0.23697 0.86569 0.57008
 C1157 C 0.29039 0.85940 0.53928
 N1158 N 0.32333 0.86748 0.53581
 N1159 N 0.33888 0.88829 0.55678
 C1160 C 0.32247 0.90265 0.58253
 H1161 H 0.19300 0.87636 0.59953
 H1162 H 0.22150 0.91580 0.63684
 H1163 H 0.27923 0.84300 0.52097
 H1164 H 0.33630 0.91969 0.59852
 C1165 C 0.22484 0.10826 0.41641
 C1166 C 0.24339 0.08674 0.39634
 C1167 C 0.27721 0.08030 0.40328
 C1168 C 0.29282 0.09622 0.43074
 C1169 C 0.27386 0.11782 0.45158
 C1170 C 0.23947 0.12398 0.44413
 C1171 C 0.28982 0.13119 0.47995
 N1172 N 0.32262 0.12431 0.48606
 N1173 N 0.34052 0.10473 0.46601
 C1174 C 0.32673 0.09038 0.43864
 H1175 H 0.19860 0.11238 0.41045
 H1176 H 0.23113 0.07446 0.37554
 H1177 H 0.27665 0.14658 0.49768
 H1178 H 0.34234 0.07440 0.42340
 C1179 C 0.77466 0.12077 0.58654
 C1180 C 0.75653 0.10007 0.60789
 C1181 C 0.72285 0.09232 0.60140
 C1182 C 0.70681 0.10639 0.57327
 C1183 C 0.72534 0.12720 0.55118
 C1184 C 0.75971 0.13434 0.55798
 C1185 C 0.70901 0.13871 0.52231
 N1186 N 0.67627 0.13082 0.51681
 N1187 N 0.65879 0.11193 0.53796
 C1188 C 0.67295 0.09937 0.56593
 H1189 H 0.80089 0.12575 0.59206
 H1190 H 0.76912 0.08920 0.62919
 H1191 H 0.72184 0.15350 0.50378
 H1192 H 0.65769 0.08391 0.58210
 C1193 C 0.86538 0.56862 0.26911
 C1194 C 0.88736 0.58937 0.28681
 C1195 C 0.90562 0.61468 0.27068
 C1196 C 0.89984 0.62088 0.23660
 C1197 C 0.87730 0.59997 0.21860
 C1198 C 0.86121 0.57258 0.23478
 C1199 C 0.87159 0.60735 0.18493
 N1200 N 0.88811 0.63337 0.17035
 N1201 N 0.90980 0.65256 0.18716
 C1202 C 0.91624 0.64722 0.21977
 H1203 H 0.85333 0.54788 0.28195
 H1204 H 0.89154 0.58448 0.31292
 H1205 H 0.85372 0.59318 0.17020
 H1206 H 0.93382 0.66378 0.23231
 C1207 C 0.89616 0.44219 0.75207
 C1208 C 0.91762 0.42003 0.73592
 C1209 C 0.91512 0.38516 0.74107
 C1210 C 0.88987 0.37235 0.76237
 C1211 C 0.86771 0.39494 0.77847
 C1212 C 0.87133 0.43006 0.77348
 C1213 C 0.84291 0.38156 0.79946
 N1214 N 0.84081 0.34775 0.80414
 N1215 N 0.86183 0.32654 0.78929
 C1216 C 0.88631 0.33766 0.76863
 H1217 H 0.89926 0.46907 0.74825
 H1218 H 0.93671 0.43015 0.71958
 H1219 H 0.82515 0.39766 0.81203
 H1220 H 0.90278 0.31933 0.75737
 C1221 C 0.10739 0.59012 0.78120
 C1222 C 0.08497 0.61223 0.76635
 C1223 C 0.08247 0.61425 0.73189
 C1224 C 0.10409 0.59467 0.71185
 C1225 C 0.12760 0.57241 0.72688
 C1226 C 0.12845 0.56942 0.76218
 C1227 C 0.14827 0.55329 0.70565
 N1228 N 0.14528 0.55625 0.67229
 N1229 N 0.12301 0.57685 0.65843
 C1230 C 0.10224 0.59600 0.67702
 H1231 H 0.10783 0.58876 0.80804
 H1232 H 0.06860 0.62718 0.78188
 H1233 H 0.16656 0.53563 0.71463
 H1234 H 0.08443 0.61198 0.66430
 C1235 C 0.12299 0.44249 0.25997
 C1236 C 0.10266 0.42021 0.27760
 C1237 C 0.09309 0.38916 0.26388
 C1238 C 0.10543 0.37974 0.23237
 C1239 C 0.12580 0.40256 0.21422
 C1240 C 0.13383 0.43454 0.22792
 C1241 C 0.13765 0.39240 0.18299
 N1242 N 0.12921 0.36160 0.17081
 N1243 N 0.10981 0.34032 0.18776
 C1244 C 0.09763 0.34833 0.21811
 H1245 H 0.12893 0.46683 0.27077
 H1246 H 0.09337 0.42766 0.30173
 H1247 H 0.15385 0.40841 0.16833
 H1248 H 0.08212 0.33006 0.23088
   
