data_POSCAR
  _audit_creation_date              2014-09-24
  _audit_creation_method            'ToBaCCo'
  _symmetry_space_group_name_H-M    'P1'
  _symmetry_Int_Tables_number       1
  _symmetry_cell_setting            triclinic
  loop_
  _symmetry_equiv_pos_as_xyz
 x,y,z
_cell_length_a 65.9100
_cell_length_b 65.3685
_cell_length_c 65.7437
_cell_angle_alpha 90.007000
_cell_angle_beta 90.022200
_cell_angle_gamma 89.993600
loop_
  _atom_site_label
  _atom_site_type_symbol
  _atom_site_fract_x
  _atom_site_fract_y
  _atom_site_fract_z
C1 C 0.29224 0.31814 0.00970
 C2 C 0.29236 0.31803 -0.01175
 C3 C 0.30542 0.30474 -0.02218
 C4 C 0.31845 0.29169 -0.01143
 C5 C 0.31834 0.29185 0.01002
 C6 C 0.30518 0.30501 0.02043
 H7 H 0.30518 0.30521 0.03693
 H8 H 0.30561 0.30474 -0.03870
 C9 C 0.70741 0.68224 0.01053
 C10 C 0.70738 0.68229 -0.01089
 C11 C 0.69429 0.69542 -0.02145
 C12 C 0.68108 0.70841 -0.01084
 C13 C 0.68110 0.70834 0.01063
 C14 C 0.69433 0.69532 0.02115
 H15 H 0.69426 0.69518 0.03766
 H16 H 0.69423 0.69531 -0.03796
 C17 C 0.70807 0.31786 0.98898
 C18 C 0.70828 0.31773 1.01044
 C19 C 0.69521 0.30460 1.02105
 C20 C 0.68187 0.29173 1.01049
 C21 C 0.68169 0.29185 0.98907
 C22 C 0.69484 0.30485 0.97845
 H23 H 0.69458 0.30505 0.96195
 H24 H 0.69521 0.30456 1.03756
 C25 C 0.29189 0.68298 0.99043
 C26 C 0.29169 0.68282 1.01189
 C27 C 0.30471 0.69583 1.02270
 C28 C 0.31801 0.70892 1.01233
 C29 C 0.31819 0.70908 0.99088
 C30 C 0.30509 0.69616 0.98009
 H31 H 0.30533 0.69618 0.96359
 H32 H 0.30465 0.69561 1.03922
 C33 C 0.01118 0.29185 0.31814
 C34 C -0.01018 0.29167 0.31784
 C35 C -0.02067 0.30461 0.30451
 C36 C -0.01006 0.31781 0.29154
 C37 C 0.01131 0.31799 0.29183
 C38 C 0.02181 0.30496 0.30509
 H39 H 0.03826 0.30519 0.30540
 H40 H -0.03713 0.30457 0.30438
 C41 C 0.01038 0.70814 0.68174
 C42 C -0.01103 0.70809 0.68179
 C43 C -0.02150 0.69503 0.69505
 C44 C -0.01086 0.68194 0.70816
 C45 C 0.01054 0.68202 0.70809
 C46 C 0.02100 0.69516 0.69494
 H47 H 0.03746 0.69512 0.69481
 H48 H -0.03798 0.69489 0.69501
 C49 C 0.98961 0.70721 0.31791
 C50 C 1.01098 0.70758 0.31789
 C51 C 1.02175 0.69474 0.30469
 C52 C 1.01141 0.68144 0.29155
 C53 C 0.99000 0.68111 0.29155
 C54 C 0.97926 0.69404 0.30469
 H55 H 0.96280 0.69368 0.30479
 H56 H 1.03822 0.69496 0.30482
 C57 C 0.98993 0.29194 0.68153
 C58 C 1.01133 0.29188 0.68153
 C59 C 1.02191 0.30494 0.69472
 C60 C 1.01136 0.31813 0.70777
 C61 C 0.98999 0.31818 0.70775
 C62 C 0.97942 0.30504 0.69468
 H63 H 0.96296 0.30519 0.69458
 H64 H 1.03838 0.30503 0.69469
 C65 C 0.31906 0.01029 0.29334
 C66 C 0.31906 -0.01129 0.29332
 C67 C 0.30602 -0.02194 0.30642
 C68 C 0.29307 -0.01128 0.31961
 C69 C 0.29308 0.01030 0.31959
 C70 C 0.30602 0.02092 0.30642
 H71 H 0.30611 0.03752 0.30651
 H72 H 0.30610 -0.03855 0.30651
 C73 C 0.68101 0.01070 0.70718
 C74 C 0.68121 -0.01085 0.70717
 C75 C 0.69440 -0.02138 0.69416
 C76 C 0.70732 -0.01062 0.68107
 C77 C 0.70716 0.01093 0.68110
 C78 C 0.69404 0.02146 0.69419
 H79 H 0.69381 0.03805 0.69411
 H80 H 0.69444 -0.03798 0.69405
 C81 C 0.31908 0.98991 0.70739
 C82 C 0.31883 1.01149 0.70736
 C83 C 0.30566 1.02195 0.69423
 C84 C 0.29284 1.01112 0.68105
 C85 C 0.29311 0.98955 0.68110
 C86 C 0.30619 0.97910 0.69430
 H87 H 0.30648 0.96250 0.69424
 H88 H 0.30554 1.03857 0.69412
 C89 C 0.68147 0.98976 0.29291
 C90 C 0.68164 1.01130 0.29298
 C91 C 0.69482 1.02181 0.30603
 C92 C 0.70775 1.01102 0.31914
 C93 C 0.70758 0.98944 0.31906
 C94 C 0.69448 0.97896 0.30589
 H95 H 0.69425 0.96237 0.30592
 H96 H 0.69481 1.03841 0.30613
 O97 O 0.88095 0.85201 0.48036
 O98 O 0.85289 0.88044 0.51975
 O99 O 0.88096 0.85229 0.51998
 O100 O 0.85292 0.88014 0.48015
 O101 O 0.82927 0.85615 0.48032
 O102 O 0.85727 0.82833 0.52011
 O103 O 0.82923 0.85644 0.51987
 O104 O 0.85727 0.82805 0.48053
 Cu105 Cu 0.86932 0.86864 0.50005
 Cu106 Cu 0.84088 0.83982 0.50023
 C107 C 0.87384 0.83522 0.47381
 C108 C 0.83629 0.87325 0.52642
 C109 C 0.87385 0.83559 0.52673
 C110 C 0.83635 0.87285 0.47354
 O111 O 0.14686 0.11801 0.52037
 O112 O 0.11855 0.14617 0.48097
 O113 O 0.14674 0.11820 0.48076
 O114 O 0.11865 0.14603 0.52056
 O115 O 0.14221 0.17012 0.52058
 O116 O 0.17027 0.14232 0.48084
 O117 O 0.14210 0.17026 0.48103
 O118 O 0.17039 0.14212 0.52040
 Cu119 Cu 0.13032 0.12966 0.50067
 Cu120 Cu 0.15862 0.15863 0.50073
 C121 C 0.16344 0.12528 0.52699
 C122 C 0.12554 0.16298 0.47437
 C123 C 0.16326 0.12556 0.47410
 C124 C 0.12567 0.16282 0.52723
 O125 O 0.11913 0.85329 0.51957
 O126 O 0.14739 0.88149 0.48016
 O127 O 0.11910 0.85357 0.47997
 O128 O 0.14734 0.88124 0.51977
 O129 O 0.17083 0.85707 0.51959
 O130 O 0.14261 0.82943 0.47983
 O131 O 0.17087 0.85732 0.48003
 O132 O 0.14265 0.82916 0.51939
 Cu133 Cu 0.13087 0.86984 0.49987
 Cu134 Cu 0.15911 0.84081 0.49969
 C135 C 0.12612 0.83645 0.52611
 C136 C 0.16393 0.87418 0.47349
 C137 C 0.12607 0.83680 0.47323
 C138 C 0.16387 0.87382 0.52637
 O139 O 0.88121 0.14654 0.51949
 O140 O 0.85295 0.11834 0.48008
 O141 O 0.88128 0.14618 0.47987
 O142 O 0.85295 0.11866 0.51968
 O143 O 0.82951 0.14287 0.51943
 O144 O 0.85781 0.17036 0.47966
 O145 O 0.82950 0.14255 0.47987
 O146 O 0.85774 0.17072 0.51924
 Cu147 Cu 0.86947 0.12999 0.49980
 Cu148 Cu 0.84128 0.15907 0.49952
 C149 C 0.87424 0.16340 0.52601
 C150 C 0.83643 0.12567 0.47336
 C151 C 0.87433 0.16294 0.47308
 C152 C 0.83644 0.12612 0.52625
 O153 O 0.48044 0.88162 0.85346
 O154 O 0.52001 0.85337 0.88141
 O155 O 0.51996 0.88138 0.85321
 O156 O 0.48050 0.85358 0.88171
 O157 O 0.48021 0.82952 0.85806
 O158 O 0.51963 0.85729 0.82959
 O159 O 0.51968 0.82931 0.85776
 O160 O 0.48015 0.85752 0.82984
 Cu161 Cu 0.50025 0.86992 0.86983
 Cu162 Cu 0.49988 0.84099 0.84143
 C163 C 0.47365 0.87435 0.83691
 C164 C 0.52651 0.83656 0.87430
 C165 C 0.52644 0.87402 0.83658
 C166 C 0.47374 0.83683 0.87471
 O167 O 0.51952 0.14735 0.11947
 O168 O 0.48029 0.11898 0.14773
 O169 O 0.48000 0.14704 0.11956
 O170 O 0.51980 0.11928 0.14763
 O171 O 0.51968 0.14334 0.17128
 O172 O 0.47992 0.17108 0.14324
 O173 O 0.48021 0.14305 0.17138
 O174 O 0.51939 0.17138 0.14315
 Cu175 Cu 0.49991 0.13073 0.13120
 Cu176 Cu 0.49979 0.15963 0.15965
 C177 C 0.52606 0.16416 0.12653
 C178 C 0.47366 0.12622 0.16435
 C179 C 0.47327 0.16377 0.12665
 C180 C 0.52644 0.12663 0.16421
 O181 O 0.47972 0.14711 0.88070
 O182 O 0.51906 0.11897 0.85238
 O183 O 0.51922 0.14728 0.88038
 O184 O 0.47953 0.11896 0.85265
 O185 O 0.47934 0.14290 0.82888
 O186 O 0.51897 0.17117 0.85657
 O187 O 0.51883 0.14288 0.82859
 O188 O 0.47951 0.17102 0.85690
 Cu189 Cu 0.49943 0.13066 0.86893
 Cu190 Cu 0.49915 0.15940 0.84033
 C191 C 0.47299 0.16383 0.87358
 C192 C 0.52554 0.12615 0.83568
 C193 C 0.52574 0.16404 0.87318
 C194 C 0.47274 0.12618 0.83608
 O195 O 0.47966 0.85288 0.12027
 O196 O 0.51925 0.88118 0.14810
 O197 O 0.51916 0.85292 0.12009
 O198 O 0.47975 0.88103 0.14835
 O199 O 0.47995 0.85709 0.17212
 O200 O 0.51933 0.82901 0.14389
 O201 O 0.51943 0.85724 0.17187
 O202 O 0.47986 0.82896 0.14406
 Cu203 Cu 0.49944 0.86942 0.13180
 Cu204 Cu 0.49967 0.84066 0.16038
 C205 C 0.47311 0.83612 0.12746
 C206 C 0.52599 0.87400 0.16471
 C207 C 0.52586 0.83620 0.12721
 C208 C 0.47322 0.87382 0.16503
 O209 O 0.85309 0.48052 0.88078
 O210 O 0.88130 0.52025 0.85281
 O211 O 0.85328 0.52036 0.88081
 O212 O 0.88110 0.48041 0.85278
 O213 O 0.85739 0.48056 0.82897
 O214 O 0.82960 0.52046 0.85697
 O215 O 0.85759 0.52034 0.82900
 O216 O 0.82942 0.48067 0.85693
 Cu217 Cu 0.86959 0.50037 0.86921
 Cu218 Cu 0.84111 0.50052 0.84057
 C219 C 0.83647 0.47392 0.87358
 C220 C 0.87421 0.52696 0.83616
 C221 C 0.83672 0.52712 0.87363
 C222 C 0.87395 0.47378 0.83612
 O223 O 0.11882 0.52016 0.14618
 O224 O 0.14699 0.48056 0.11801
 O225 O 0.11900 0.48032 0.14603
 O226 O 0.14673 0.52038 0.11809
 O227 O 0.17048 0.52042 0.14186
 O228 O 0.14277 0.48039 0.16978
 O229 O 0.17073 0.48064 0.14179
 O230 O 0.14260 0.52019 0.16993
 Cu231 Cu 0.13048 0.50035 0.12968
 Cu232 Cu 0.15903 0.50042 0.15824
 C233 C 0.12596 0.52684 0.16283
 C234 C 0.16364 0.47395 0.12513
 C235 C 0.12620 0.47362 0.16264
 C236 C 0.16331 0.52712 0.12524
 O237 O 0.88124 0.47941 0.14547
 O238 O 0.85314 0.51933 0.11765
 O239 O 0.88133 0.51924 0.14552
 O240 O 0.85309 0.47950 0.11762
 O241 O 0.82953 0.47954 0.14156
 O242 O 0.85775 0.51925 0.16944
 O243 O 0.82959 0.51934 0.14160
 O244 O 0.85765 0.47946 0.16939
 Cu245 Cu 0.86958 0.49938 0.12914
 Cu246 Cu 0.84125 0.49941 0.15791
 C247 C 0.87419 0.47272 0.16215
 C248 C 0.83659 0.52603 0.12490
 C249 C 0.87433 0.52591 0.16223
 C250 C 0.83653 0.47284 0.12487
 O251 O 0.11961 0.48022 0.85360
 O252 O 0.14751 0.52007 0.88170
 O253 O 0.11943 0.52004 0.85375
 O254 O 0.14771 0.48022 0.88152
 O255 O 0.17132 0.48045 0.85763
 O256 O 0.14307 0.52023 0.82990
 O257 O 0.17112 0.52027 0.85781
 O258 O 0.14325 0.48044 0.82974
 Cu259 Cu 0.13118 0.50012 0.87006
 Cu260 Cu 0.15958 0.50037 0.84137
 C261 C 0.12671 0.47364 0.83690
 C262 C 0.16404 0.52688 0.87450
 C263 C 0.12647 0.52682 0.83711
 C264 C 0.16430 0.47363 0.87426
 C265 C 0.27930 0.33194 0.02093
 C266 C 0.26854 0.34373 0.02999
 C267 C 0.25579 0.35808 0.04056
 C268 C 0.24778 0.37494 0.03019
 C269 C 0.23573 0.38916 0.04050
 C270 C 0.23154 0.38668 0.06134
 C271 C 0.23954 0.36958 0.07158
 C272 C 0.25160 0.35539 0.06125
 C273 C 0.21911 0.40201 0.07241
 C274 C 0.20469 0.39577 0.08693
 C275 C 0.19318 0.41026 0.09750
 C276 C 0.19594 0.43114 0.09371
 C277 C 0.21019 0.43750 0.07927
 C278 C 0.22170 0.42304 0.06867
 C279 C 0.18433 0.44609 0.10479
 C280 C 0.17478 0.45874 0.11407
 H281 H 0.25091 0.37714 0.01416
 H282 H 0.22958 0.40201 0.03213
 H283 H 0.23679 0.36739 0.08768
 H284 H 0.25778 0.34242 0.06942
 H285 H 0.20219 0.37969 0.08997
 H286 H 0.18217 0.40518 0.10863
 H287 H 0.21250 0.45363 0.07629
 H288 H 0.23287 0.42834 0.05781
 C289 C 0.72038 0.66850 0.02178
 C290 C 0.73118 0.65674 0.03085
 C291 C 0.74401 0.64242 0.04138
 C292 C 0.75473 0.62760 0.03040
 C293 C 0.76688 0.61339 0.04060
 C294 C 0.76847 0.61381 0.06194
 C295 C 0.75772 0.62886 0.07283
 C296 C 0.74557 0.64306 0.06259
 C297 C 0.78104 0.59845 0.07283
 C298 C 0.79297 0.60420 0.08965
 C299 C 0.80454 0.58964 0.10007
 C300 C 0.80434 0.56917 0.09383
 C301 C 0.79260 0.56332 0.07708
 C302 C 0.78104 0.57784 0.06663
 C303 C 0.81593 0.55409 0.10478
 C304 C 0.82546 0.54135 0.11396
 H305 H 0.75363 0.62699 0.01397
 H306 H 0.77516 0.60216 0.03178
 H307 H 0.75841 0.62942 0.08927
 H308 H 0.73726 0.65442 0.07124
 H309 H 0.79349 0.61997 0.09464
 H310 H 0.81360 0.59433 0.11301
 H311 H 0.79227 0.54749 0.07217
 H312 H 0.77181 0.57288 0.05393
 C313 C 0.72089 0.33161 0.97754
 C314 C 0.73152 0.34334 0.96825
 C315 C 0.74409 0.35759 0.95734
 C316 C 0.76271 0.36382 0.96550
 C317 C 0.77474 0.37798 0.95509
 C318 C 0.76829 0.38609 0.93633
 C319 C 0.74957 0.37967 0.92824
 C320 C 0.73757 0.36553 0.93869
 C321 C 0.78092 0.40131 0.92533
 C322 C 0.78282 0.40045 0.90402
 C323 C 0.79441 0.41499 0.89364
 C324 C 0.80426 0.43058 0.90438
 C325 C 0.80256 0.43152 0.92558
 C326 C 0.79098 0.41698 0.93600
 C327 C 0.81583 0.44578 0.89361
 C328 C 0.82536 0.45859 0.88451
 H329 H 0.76791 0.35775 0.97993
 H330 H 0.78917 0.38243 0.96160
 H331 H 0.74405 0.38585 0.91399
 H332 H 0.72313 0.36090 0.93229
 H333 H 0.77549 0.38843 0.89540
 H334 H 0.79565 0.41411 0.87723
 H335 H 0.81005 0.44357 0.93404
 H336 H 0.78960 0.41822 0.95237
 C337 C 0.27905 0.66940 0.97881
 C338 C 0.26836 0.65778 0.96944
 C339 C 0.25568 0.64365 0.95849
 C340 C 0.26097 0.63753 0.93881
 C341 C 0.24892 0.62342 0.92835
 C342 C 0.23140 0.61522 0.93747
 C343 C 0.22616 0.62155 0.95725
 C344 C 0.23823 0.63569 0.96767
 C345 C 0.21881 0.59995 0.92648
 C346 C 0.21076 0.58292 0.93679
 C347 C 0.19931 0.56829 0.92633
 C348 C 0.19573 0.57050 0.90547
 C349 C 0.20354 0.58746 0.89511
 C350 C 0.21500 0.60209 0.90553
 C351 C 0.18436 0.55520 0.89461
 C352 C 0.17500 0.54230 0.88546
 H353 H 0.27451 0.64352 0.93161
 H354 H 0.25352 0.61864 0.91327
 H355 H 0.21265 0.61571 0.96459
 H356 H 0.23398 0.64035 0.98290
 H357 H 0.21364 0.58069 0.95286
 H358 H 0.19340 0.55519 0.93449
 H359 H 0.20082 0.58934 0.87896
 H360 H 0.22075 0.61516 0.89722
 C361 C 0.02236 0.27902 0.33205
 C362 C 0.03136 0.26830 0.34393
 C363 C 0.04184 0.25554 0.35833
 C364 C 0.06299 0.25393 0.35771
 C365 C 0.07318 0.24178 0.37193
 C366 C 0.06230 0.23108 0.38698
 C367 C 0.04102 0.23275 0.38740
 C368 C 0.03087 0.24491 0.37317
 C369 C 0.07315 0.21846 0.40229
 C370 C 0.06703 0.21861 0.42280
 C371 C 0.07749 0.20703 0.43728
 C372 C 0.09416 0.19513 0.43149
 C373 C 0.10029 0.19476 0.41111
 C374 C 0.08986 0.20634 0.39660
 C375 C 0.10518 0.18358 0.44651
 C376 C 0.11445 0.17408 0.45918
 H377 H 0.07163 0.26217 0.34634
 H378 H 0.08958 0.24104 0.37138
 H379 H 0.03220 0.22452 0.39863
 H380 H 0.01448 0.24605 0.37376
 H381 H 0.05440 0.22798 0.42771
 H382 H 0.07266 0.20748 0.45303
 H383 H 0.11315 0.18556 0.40645
 H384 H 0.09477 0.20569 0.38089
 C385 C 0.02171 0.72099 0.66793
 C386 C 0.03100 0.73162 0.65620
 C387 C 0.04195 0.74417 0.64198
 C388 C 0.03350 0.76252 0.63500
 C389 C 0.04396 0.77451 0.62086
 C390 C 0.06305 0.76831 0.61353
 C391 C 0.07145 0.74988 0.62072
 C392 C 0.06096 0.73790 0.63483
 C393 C 0.07409 0.78089 0.59833
 C394 C 0.09523 0.78356 0.59979
 C395 C 0.10565 0.79514 0.58529
 C396 C 0.09512 0.80421 0.56916
 C397 C 0.07408 0.80173 0.56761
 C398 C 0.06362 0.79016 0.58210
 C399 C 0.10595 0.81580 0.55405
 C400 C 0.11511 0.82533 0.54133
 H401 H 0.01882 0.76753 0.64047
 H402 H 0.03720 0.78873 0.61581
 H403 H 0.08598 0.74455 0.61516
 H404 H 0.06760 0.72368 0.64006
 H405 H 0.10368 0.77683 0.61223
 H406 H 0.12193 0.79699 0.58665
 H407 H 0.06579 0.80861 0.55514
 H408 H 0.04740 0.78816 0.58041
 C409 C 0.97813 0.71989 0.33172
 C410 C 0.96879 0.73044 0.34349
 C411 C 0.95782 0.74293 0.35775
 C412 C 0.96564 0.76189 0.36377
 C413 C 0.95516 0.77388 0.37791
 C414 C 0.93669 0.76704 0.38622
 C415 C 0.92893 0.74798 0.38000
 C416 C 0.93944 0.73602 0.36587
 C417 C 0.92564 0.77961 0.40143
 C418 C 0.90435 0.78113 0.40081
 C419 C 0.89394 0.79270 0.41533
 C420 C 0.90465 0.80291 0.43065
 C421 C 0.92583 0.80159 0.43136
 C422 C 0.93627 0.79003 0.41684
 C423 C 0.89387 0.81450 0.44581
 C424 C 0.88477 0.82405 0.45856
 H425 H 0.97985 0.76740 0.35755
 H426 H 0.96141 0.78858 0.38220
 H427 H 0.91490 0.74215 0.38632
 H428 H 0.93330 0.72132 0.36139
 H429 H 0.89575 0.77351 0.38899
 H430 H 0.87754 0.79365 0.41463
 H431 H 0.93426 0.80937 0.44321
 H432 H 0.95263 0.78895 0.41790
 C433 C 0.97851 0.27907 0.66781
 C434 C 0.96922 0.26839 0.65611
 C435 C 0.95828 0.25579 0.64193
 C436 C 0.96585 0.23656 0.63645
 C437 C 0.95539 0.22448 0.62237
 C438 C 0.93719 0.23150 0.61358
 C439 C 0.92970 0.25084 0.61925
 C440 C 0.94019 0.26289 0.63332
 C441 C 0.92615 0.21883 0.59845
 C442 C 0.90482 0.21782 0.59869
 C443 C 0.89441 0.20624 0.58418
 C444 C 0.90515 0.19550 0.56925
 C445 C 0.92636 0.19628 0.56895
 C446 C 0.93681 0.20785 0.58345
 C447 C 0.89436 0.18396 0.55406
 C448 C 0.88522 0.17448 0.54128
 H449 H 0.97984 0.23091 0.64304
 H450 H 0.96142 0.20957 0.61850
 H451 H 0.91592 0.25682 0.61254
 H452 H 0.93426 0.27780 0.63738
 H453 H 0.89619 0.22586 0.61020
 H454 H 0.87798 0.20571 0.58458
 H455 H 0.93482 0.18808 0.55741
 H456 H 0.95321 0.20853 0.58269
 C457 C 0.33264 0.02178 0.28041
 C458 C 0.34423 0.03111 0.26970
 C459 C 0.35832 0.04209 0.25707
 C460 C 0.36440 0.06187 0.26245
 C461 C 0.37850 0.07236 0.25050
 C462 C 0.38675 0.06318 0.23299
 C463 C 0.38041 0.04334 0.22761
 C464 C 0.36630 0.03287 0.23960
 C465 C 0.40206 0.07419 0.22055
 C466 C 0.40146 0.07329 0.19917
 C467 C 0.41590 0.08372 0.18753
 C468 C 0.43111 0.09515 0.19710
 C469 C 0.43186 0.09608 0.21835
 C470 C 0.41745 0.08569 0.23000
 C471 C 0.44598 0.10597 0.18522
 C472 C 0.45855 0.11515 0.17554
 H473 H 0.35829 0.06916 0.27593
 H474 H 0.38286 0.08771 0.25487
 H475 H 0.38666 0.03578 0.21437
 H476 H 0.36173 0.01754 0.23533
 H477 H 0.38967 0.06475 0.19145
 H478 H 0.41515 0.08293 0.17108
 H479 H 0.44361 0.10483 0.22591
 H480 H 0.41850 0.08643 0.24642
 C481 C 0.66718 0.02193 0.72004
 C482 C 0.65537 0.03099 0.73074
 C483 C 0.64102 0.04156 0.74344
 C484 C 0.62523 0.03074 0.75275
 C485 C 0.61104 0.04102 0.76479
 C486 C 0.61246 0.06231 0.76768
 C487 C 0.62846 0.07303 0.75834
 C488 C 0.64263 0.06271 0.74629
 C489 C 0.59719 0.07333 0.78018
 C490 C 0.60315 0.08914 0.79343
 C491 C 0.58872 0.09971 0.80494
 C492 C 0.56815 0.09464 0.80337
 C493 C 0.56207 0.07888 0.79031
 C494 C 0.57648 0.06828 0.77880
 C495 C 0.55324 0.10575 0.81494
 C496 C 0.54065 0.11507 0.82449
 H497 H 0.62387 0.01435 0.75065
 H498 H 0.59905 0.03230 0.77197
 H499 H 0.62981 0.08945 0.76005
 H500 H 0.65475 0.07125 0.73909
 H501 H 0.61900 0.09321 0.79502
 H502 H 0.59360 0.11185 0.81504
 H503 H 0.54618 0.07487 0.78893
 H504 H 0.57137 0.05638 0.76855
 C505 C 0.33273 0.97862 0.72043
 C506 C 0.34434 0.96947 0.73129
 C507 C 0.35843 0.95874 0.74417
 C508 C 0.36059 0.93752 0.74245
 C509 C 0.37458 0.92714 0.75465
 C510 C 0.38663 0.93787 0.76875
 C511 C 0.38426 0.95921 0.77044
 C512 C 0.37025 0.96956 0.75821
 C513 C 0.40178 0.92688 0.78143
 C514 C 0.42104 0.93544 0.78502
 C515 C 0.43543 0.92491 0.79662
 C516 C 0.43078 0.90571 0.80480
 C517 C 0.41162 0.89712 0.80143
 C518 C 0.39721 0.90762 0.78983
 C519 C 0.44578 0.89470 0.81635
 C520 C 0.45845 0.88543 0.82585
 H521 H 0.35157 0.92902 0.73156
 H522 H 0.37625 0.91076 0.75279
 H523 H 0.39312 0.96787 0.78131
 H524 H 0.36869 0.98599 0.75967
 H525 H 0.42513 0.95010 0.77854
 H526 H 0.45025 0.93166 0.79906
 H527 H 0.40785 0.88228 0.80772
 H528 H 0.38243 0.90074 0.78756
 C529 C 0.66772 0.97854 0.27994
 C530 C 0.65599 0.96946 0.26916
 C531 C 0.64175 0.95884 0.25637
 C532 C 0.62684 0.96980 0.24584
 C533 C 0.61270 0.95948 0.23374
 C534 C 0.61330 0.93803 0.23204
 C535 C 0.62844 0.92716 0.24259
 C536 C 0.64256 0.93752 0.25468
 C537 C 0.59801 0.92698 0.21957
 C538 C 0.60371 0.91013 0.20753
 C539 C 0.58922 0.89952 0.19612
 C540 C 0.56887 0.90560 0.19658
 C541 C 0.56306 0.92239 0.20844
 C542 C 0.57752 0.93303 0.21984
 C543 C 0.55388 0.89446 0.18514
 C544 C 0.54121 0.88512 0.17572
 H545 H 0.62609 0.98632 0.24704
 H546 H 0.60140 0.96830 0.22561
 H547 H 0.62914 0.91063 0.24181
 H548 H 0.65399 0.92888 0.26284
 H549 H 0.61940 0.90526 0.20680
 H550 H 0.59388 0.88656 0.18697
 H551 H 0.54733 0.92717 0.20898
 H552 H 0.57260 0.94574 0.22917
 C553 C 0.33141 0.27931 0.97802
 C554 C 0.34308 0.26843 0.96895
 C555 C 0.35727 0.25556 0.95836
 C556 C 0.37279 0.24574 0.96912
 C557 C 0.38691 0.23361 0.95881
 C558 C 0.38568 0.23116 0.93758
 C559 C 0.36991 0.24096 0.92693
 C560 C 0.35581 0.25309 0.93727
 C561 C 0.40098 0.21872 0.92653
 C562 C 0.39513 0.20584 0.91040
 C563 C 0.40963 0.19444 0.89979
 C564 C 0.43014 0.19576 0.90513
 C565 C 0.43610 0.20845 0.92120
 C566 C 0.42164 0.21984 0.93185
 C567 C 0.44513 0.18432 0.89399
 C568 C 0.45779 0.17489 0.88467
 H569 H 0.37404 0.24754 0.98545
 H570 H 0.39872 0.22606 0.96747
 H571 H 0.36871 0.23959 0.91056
 H572 H 0.34389 0.26069 0.92880
 H573 H 0.37932 0.20445 0.90612
 H574 H 0.40484 0.18464 0.88739
 H575 H 0.45195 0.20964 0.92541
 H576 H 0.42666 0.22982 0.94399
 C577 C 0.66805 0.72060 0.97847
 C578 C 0.65635 0.73128 0.96919
 C579 C 0.64217 0.74387 0.95823
 C580 C 0.63253 0.73623 0.94086
 C581 C 0.61851 0.74830 0.93034
 C582 C 0.61392 0.76820 0.93710
 C583 C 0.62372 0.77576 0.95458
 C584 C 0.63775 0.76365 0.96506
 C585 C 0.59885 0.78092 0.92602
 C586 C 0.58478 0.79300 0.93675
 C587 C 0.57032 0.80462 0.92630
 C588 C 0.56975 0.80435 0.90502
 C589 C 0.58378 0.79251 0.89422
 C590 C 0.59823 0.78088 0.90463
 C591 C 0.55459 0.81593 0.89427
 C592 C 0.54180 0.82544 0.88519
 H593 H 0.63576 0.72090 0.93550
 H594 H 0.61100 0.74193 0.91713
 H595 H 0.62069 0.79109 0.96002
 H596 H 0.64515 0.76972 0.97849
 H597 H 0.58469 0.79316 0.95322
 H598 H 0.55949 0.81367 0.93482
 H599 H 0.58350 0.79222 0.87774
 H600 H 0.60903 0.77197 0.89593
 C601 C 0.33095 0.72102 0.02324
 C602 C 0.34262 0.73169 0.03257
 C603 C 0.35679 0.74436 0.04344
 C604 C 0.36717 0.75998 0.03327
 C605 C 0.38133 0.77199 0.04367
 C606 C 0.38528 0.76853 0.06443
 C607 C 0.37465 0.75288 0.07455
 C608 C 0.36052 0.74087 0.06411
 C609 C 0.40059 0.78101 0.07542
 C610 C 0.39696 0.78763 0.09547
 C611 C 0.41154 0.79908 0.10591
 C612 C 0.42992 0.80406 0.09649
 C613 C 0.43364 0.79764 0.07653
 C614 C 0.41907 0.78620 0.06604
 C615 C 0.44507 0.81552 0.10739
 C616 C 0.45783 0.82499 0.11654
 H617 H 0.36435 0.76284 0.01728
 H618 H 0.38907 0.78408 0.03552
 H619 H 0.37754 0.74967 0.09045
 H620 H 0.35263 0.72876 0.07210
 H621 H 0.38278 0.78409 0.10300
 H622 H 0.40849 0.80400 0.12135
 H623 H 0.44785 0.80134 0.06912
 H624 H 0.42243 0.78111 0.05074
 C625 C 0.66808 0.27893 0.02183
 C626 C 0.65629 0.26830 0.03103
 C627 C 0.64197 0.25573 0.04182
 C628 C 0.64105 0.25646 0.06307
 C629 C 0.62685 0.24456 0.07353
 C630 C 0.61335 0.23179 0.06285
 C631 C 0.61447 0.23111 0.04148
 C632 C 0.62870 0.24300 0.03105
 C633 C 0.59804 0.21941 0.07395
 C634 C 0.57816 0.21747 0.06638
 C635 C 0.56368 0.20605 0.07697
 C636 C 0.56887 0.19638 0.09524
 C637 C 0.58861 0.19814 0.10287
 C638 C 0.60312 0.20957 0.09230
 C639 C 0.55386 0.18485 0.10625
 C640 C 0.54120 0.17532 0.11549
 H641 H 0.65120 0.26633 0.07154
 H642 H 0.62619 0.24564 0.08995
 H643 H 0.60446 0.22124 0.03284
 H644 H 0.62931 0.24231 0.01459
 H645 H 0.57370 0.22508 0.05245
 H646 H 0.54841 0.20486 0.07098
 H647 H 0.59280 0.19070 0.11698
 H648 H 0.61835 0.21056 0.09839
 C649 C 0.28053 0.02171 0.66805
 C650 C 0.26967 0.03075 0.65634
 C651 C 0.25678 0.04128 0.64212
 C652 C 0.25539 0.06263 0.64255
 C653 C 0.24312 0.07286 0.62849
 C654 C 0.23210 0.06185 0.61378
 C655 C 0.23354 0.04036 0.61354
 C656 C 0.24581 0.03017 0.62763
 C657 C 0.21938 0.07275 0.59859
 C658 C 0.21903 0.06633 0.57816
 C659 C 0.20737 0.07683 0.56378
 C660 C 0.19590 0.09387 0.56962
 C661 C 0.19603 0.10029 0.58992
 C662 C 0.20769 0.08982 0.60432
 C663 C 0.18424 0.10491 0.55470
 C664 C 0.17464 0.11420 0.54211
 H665 H 0.26389 0.07138 0.65366
 H666 H 0.24257 0.08942 0.62888
 H667 H 0.22505 0.03144 0.60258
 H668 H 0.24678 0.01363 0.62717
 H669 H 0.22807 0.05342 0.57321
 H670 H 0.20744 0.07178 0.54809
 H671 H 0.18717 0.11344 0.59461
 H672 H 0.20743 0.09497 0.61997
 C673 C 0.72003 0.02166 0.33212
 C674 C 0.73084 0.03080 0.34378
 C675 C 0.74367 0.04148 0.35794
 C676 C 0.74285 0.06283 0.35928
 C677 C 0.75503 0.07318 0.37332
 C678 C 0.76820 0.06228 0.38623
 C679 C 0.76899 0.04082 0.38469
 C680 C 0.75679 0.03050 0.37063
 C681 C 0.78083 0.07325 0.40144
 C682 C 0.78334 0.06528 0.42117
 C683 C 0.79491 0.07579 0.43561
 C684 C 0.80415 0.09438 0.43054
 C685 C 0.80185 0.10238 0.41093
 C686 C 0.79027 0.09190 0.39647
 C687 C 0.81572 0.10537 0.44554
 C688 C 0.82527 0.11462 0.45820
 H689 H 0.73267 0.07146 0.34958
 H690 H 0.75387 0.08967 0.37434
 H691 H 0.77915 0.03202 0.39423
 H692 H 0.75754 0.01397 0.36970
 H693 H 0.77605 0.05111 0.42556
 H694 H 0.79652 0.06950 0.45077
 H695 H 0.80896 0.11674 0.40683
 H696 H 0.78884 0.09829 0.38134
 C697 C 0.72028 0.97811 0.66736
 C698 C 0.73103 0.96892 0.65568
 C699 C 0.74375 0.95809 0.64153
 C700 C 0.74077 0.93717 0.63818
 C701 C 0.75286 0.92671 0.62415
 C702 C 0.76812 0.93705 0.61327
 C703 C 0.77105 0.95808 0.61682
 C704 C 0.75893 0.96852 0.63085
 C705 C 0.78077 0.92598 0.59814
 C706 C 0.78586 0.93522 0.57949
 C707 C 0.79745 0.92464 0.56511
 C708 C 0.80412 0.90473 0.56917
 C709 C 0.79923 0.89545 0.58771
 C710 C 0.78765 0.90599 0.60211
 C711 C 0.81568 0.89370 0.55419
 C712 C 0.82519 0.88439 0.54156
 H713 H 0.72900 0.92898 0.64630
 H714 H 0.75003 0.91060 0.62156
 H715 H 0.78282 0.96642 0.60888
 H716 H 0.76136 0.98472 0.63333
 H717 H 0.78056 0.95046 0.57586
 H718 H 0.80107 0.93194 0.55077
 H719 H 0.80434 0.88005 0.59102
 H720 H 0.78421 0.89856 0.61642
 C721 C 0.28090 0.97799 0.33262
 C722 C 0.27016 0.96886 0.34435
 C723 C 0.25736 0.95827 0.35860
 C724 C 0.25523 0.93701 0.35751
 C725 C 0.24302 0.92672 0.37157
 C726 C 0.23279 0.93761 0.38694
 C727 C 0.23497 0.95901 0.38784
 C728 C 0.24718 0.96925 0.37376
 C729 C 0.22008 0.92666 0.40209
 C730 C 0.22050 0.93239 0.42272
 C731 C 0.20879 0.92190 0.43704
 C732 C 0.19648 0.90556 0.43095
 C733 C 0.19586 0.89981 0.41046
 C734 C 0.20758 0.91028 0.39611
 C735 C 0.18476 0.89453 0.44580
 C736 C 0.17513 0.88525 0.45837
 H737 H 0.26312 0.92836 0.34589
 H738 H 0.24187 0.91023 0.37065
 H739 H 0.22709 0.96784 0.39931
 H740 H 0.24872 0.98573 0.37472
 H741 H 0.23017 0.94475 0.42785
 H742 H 0.20944 0.92643 0.45288
 H743 H 0.18635 0.88721 0.40557
 H744 H 0.20673 0.90567 0.38031
 C745 C 0.02268 0.33185 0.72071
 C746 C 0.03194 0.34351 0.73145
 C747 C 0.04284 0.35765 0.74418
 C748 C 0.03400 0.36496 0.76211
 C749 C 0.04443 0.37900 0.77429
 C750 C 0.06386 0.38591 0.76866
 C751 C 0.07263 0.37839 0.75064
 C752 C 0.06217 0.36437 0.73848
 C753 C 0.07484 0.40106 0.78139
 C754 C 0.09588 0.39923 0.78461
 C755 C 0.10628 0.41375 0.79622
 C756 C 0.09583 0.43028 0.80478
 C757 C 0.07489 0.43217 0.80179
 C758 C 0.06445 0.41766 0.79019
 C759 C 0.10666 0.44548 0.81632
 C760 C 0.11579 0.45829 0.82581
 H761 H 0.01906 0.35983 0.76667
 H762 H 0.03737 0.38430 0.78820
 H763 H 0.08742 0.38364 0.74574
 H764 H 0.06910 0.35889 0.72457
 H765 H 0.10425 0.38649 0.77827
 H766 H 0.12249 0.41213 0.79847
 H767 H 0.06667 0.44496 0.80827
 H768 H 0.04832 0.41964 0.78778
 C769 C 0.02229 0.66864 0.27927
 C770 C 0.03161 0.65709 0.26846
 C771 C 0.04248 0.64302 0.25564
 C772 C 0.06235 0.63733 0.26053
 C773 C 0.07274 0.62327 0.24836
 C774 C 0.06334 0.61468 0.23113
 C775 C 0.04338 0.62059 0.22629
 C776 C 0.03303 0.63467 0.23847
 C777 C 0.07425 0.59944 0.21843
 C778 C 0.06406 0.58211 0.21084
 C779 C 0.07443 0.56757 0.19923
 C780 C 0.09508 0.57014 0.19502
 C781 C 0.10532 0.58737 0.20237
 C782 C 0.09499 0.60194 0.21400
 C783 C 0.10586 0.55494 0.18345
 C784 C 0.11499 0.54214 0.17393
 H785 H 0.06976 0.64362 0.27385
 H786 H 0.08797 0.61882 0.25265
 H787 H 0.03583 0.61445 0.21299
 H788 H 0.01766 0.63901 0.23454
 H789 H 0.04818 0.57961 0.21422
 H790 H 0.06638 0.55423 0.19368
 H791 H 0.12130 0.58953 0.19917
 H792 H 0.10318 0.61522 0.21940
 C793 C 0.97868 0.33140 0.27841
 C794 C 0.96943 0.34295 0.26755
 C795 C 0.95848 0.35696 0.25473
 C796 C 0.93896 0.36331 0.26018
 C797 C 0.92845 0.37725 0.24798
 C798 C 0.93737 0.38506 0.23014
 C799 C 0.95698 0.37849 0.22475
 C800 C 0.96745 0.36453 0.23697
 C801 C 0.92634 0.40016 0.21740
 C802 C 0.93660 0.41701 0.20894
 C803 C 0.92611 0.43149 0.19735
 C804 C 0.90524 0.42932 0.19403
 C805 C 0.89492 0.41253 0.20224
 C806 C 0.90538 0.39804 0.21384
 C807 C 0.89435 0.44451 0.18255
 C808 C 0.88517 0.45734 0.17312
 H809 H 0.93192 0.35762 0.27395
 H810 H 0.91351 0.38223 0.25270
 H811 H 0.96415 0.38403 0.21099
 H812 H 0.98254 0.35968 0.23260
 H813 H 0.95266 0.41921 0.21162
 H814 H 0.93423 0.44447 0.19114
 H815 H 0.87878 0.41069 0.19974
 H816 H 0.89711 0.38511 0.21993
 C817 C 0.97855 0.66892 0.72047
 C818 C 0.96947 0.65718 0.73129
 C819 C 0.95885 0.64291 0.74409
 C820 C 0.93890 0.64693 0.75015
 C821 C 0.92844 0.63284 0.76223
 C822 C 0.93783 0.61452 0.76840
 C823 C 0.95796 0.61071 0.76236
 C824 C 0.96838 0.62481 0.75027
 C825 C 0.92656 0.59932 0.78083
 C826 C 0.93624 0.58883 0.79682
 C827 C 0.92565 0.57435 0.80832
 C828 C 0.90528 0.57014 0.80399
 C829 C 0.89551 0.58052 0.78816
 C830 C 0.90606 0.59502 0.77665
 C831 C 0.89443 0.55501 0.81558
 C832 C 0.88525 0.54225 0.82509
 H833 H 0.93140 0.66092 0.74550
 H834 H 0.91306 0.63633 0.76685
 H835 H 0.96551 0.59664 0.76664
 H836 H 0.98380 0.62152 0.74558
 H837 H 0.95193 0.59197 0.80056
 H838 H 0.93335 0.56641 0.82056
 H839 H 0.87977 0.57731 0.78461
 H840 H 0.89827 0.60260 0.76427
 C841 C 0.72032 0.66861 0.97775
 C842 C 0.73106 0.65695 0.96849
 C843 C 0.74377 0.64282 0.95758
 C844 C 0.76273 0.63728 0.96543
 C845 C 0.77493 0.62327 0.95500
 C846 C 0.76831 0.61463 0.93654
 C847 C 0.74923 0.62035 0.92877
 C848 C 0.73706 0.63434 0.93924
 C849 C 0.78111 0.59958 0.92551
 C850 C 0.78250 0.60010 0.90416
 C851 C 0.79420 0.58566 0.89375
 C852 C 0.80466 0.57051 0.90452
 C853 C 0.80352 0.56994 0.92577
 C854 C 0.79184 0.58438 0.93621
 C855 C 0.81623 0.55532 0.89372
 C856 C 0.82571 0.54250 0.88459
 H857 H 0.76808 0.64377 0.97962
 H858 H 0.78963 0.61936 0.96125
 H859 H 0.74357 0.61374 0.91478
 H860 H 0.72236 0.63844 0.93308
 H861 H 0.77465 0.61177 0.89551
 H862 H 0.79500 0.58626 0.87730
 H863 H 0.81150 0.55822 0.93425
 H864 H 0.79087 0.58341 0.95262
 C865 C 0.28024 0.33100 0.97740
 C866 C 0.26955 0.34269 0.96810
 C867 C 0.25687 0.35688 0.95726
 C868 C 0.26245 0.36357 0.93784
 C869 C 0.25036 0.37771 0.92746
 C870 C 0.23250 0.38536 0.93642
 C871 C 0.22699 0.37846 0.95593
 C872 C 0.23911 0.36432 0.96626
 C873 C 0.21985 0.40065 0.92554
 C874 C 0.21123 0.41725 0.93609
 C875 C 0.19965 0.43186 0.92577
 C876 C 0.19650 0.43007 0.90479
 C877 C 0.20489 0.41355 0.89418
 C878 C 0.21648 0.39893 0.90446
 C879 C 0.18494 0.44535 0.89410
 C880 C 0.17542 0.45822 0.88508
 H881 H 0.27623 0.35799 0.93078
 H882 H 0.25517 0.38293 0.91260
 H883 H 0.21322 0.38387 0.96312
 H884 H 0.23465 0.35921 0.98129
 H885 H 0.21376 0.41915 0.95225
 H886 H 0.19329 0.44463 0.93412
 H887 H 0.20251 0.41201 0.87794
 H888 H 0.22269 0.38620 0.89596
 C889 C 0.27930 0.66979 0.02236
 C890 C 0.26839 0.65802 0.03128
 C891 C 0.25547 0.64367 0.04163
 C892 C 0.24780 0.62669 0.03117
 C893 C 0.23561 0.61246 0.04127
 C894 C 0.23093 0.61501 0.06200
 C895 C 0.23857 0.63223 0.07233
 C896 C 0.25078 0.64645 0.06220
 C897 C 0.21842 0.59961 0.07289
 C898 C 0.20368 0.60575 0.08712
 C899 C 0.19218 0.59118 0.09759
 C900 C 0.19527 0.57031 0.09399
 C901 C 0.20983 0.56406 0.07981
 C902 C 0.22132 0.57859 0.06931
 C903 C 0.18374 0.55526 0.10501
 C904 C 0.17429 0.54250 0.11425
 H905 H 0.25133 0.62441 0.01524
 H906 H 0.22973 0.59952 0.03284
 H907 H 0.23546 0.63448 0.08835
 H908 H 0.25669 0.65950 0.07045
 H909 H 0.20092 0.62182 0.09002
 H910 H 0.18092 0.59619 0.10851
 H911 H 0.21239 0.54794 0.07696
 H912 H 0.23274 0.57336 0.05867
 C913 C 0.72065 0.33062 0.02111
 C914 C 0.73153 0.34227 0.03023
 C915 C 0.74440 0.35649 0.04082
 C916 C 0.74691 0.35500 0.06191
 C917 C 0.75903 0.36917 0.07223
 C918 C 0.76879 0.38504 0.06157
 C919 C 0.76630 0.38628 0.04034
 C920 C 0.75417 0.37211 0.03006
 C921 C 0.78123 0.40041 0.07257
 C922 C 0.78021 0.42123 0.06723
 C923 C 0.79168 0.43577 0.07776
 C924 C 0.80434 0.42971 0.09375
 C925 C 0.80553 0.40904 0.09915
 C926 C 0.79405 0.39447 0.08865
 C927 C 0.81589 0.44477 0.10474
 C928 C 0.82540 0.45752 0.11394
 H929 H 0.73935 0.34302 0.07039
 H930 H 0.76044 0.36795 0.08859
 H931 H 0.77382 0.39815 0.03167
 H932 H 0.75234 0.37339 0.01373
 H933 H 0.77026 0.42633 0.05513
 H934 H 0.79058 0.45174 0.07351
 H935 H 0.81531 0.40418 0.11149
 H936 H 0.79535 0.37854 0.09297
 C937 C 0.97820 0.72024 0.66878
 C938 C 0.96887 0.73090 0.65709
 C939 C 0.95788 0.74350 0.64292
 C940 C 0.96604 0.76217 0.63647
 C941 C 0.95559 0.77420 0.62235
 C942 C 0.93678 0.76771 0.61451
 C943 C 0.92866 0.74896 0.62119
 C944 C 0.93916 0.73695 0.63528
 C945 C 0.92575 0.78032 0.59931
 C946 C 0.90453 0.78246 0.60037
 C947 C 0.89413 0.79403 0.58584
 C948 C 0.90476 0.80361 0.57008
 C949 C 0.92587 0.80167 0.56895
 C950 C 0.93632 0.79012 0.58347
 C951 C 0.89395 0.81512 0.55489
 C952 C 0.88481 0.82458 0.54208
 H953 H 0.98049 0.76741 0.64233
 H954 H 0.96211 0.78866 0.61770
 H955 H 0.91437 0.74341 0.61524
 H956 H 0.93276 0.72247 0.64010
 H957 H 0.89600 0.77532 0.61252
 H958 H 0.87778 0.79546 0.58687
 H959 H 0.93425 0.80895 0.55676
 H960 H 0.95262 0.78854 0.58209
 C961 C 0.97846 0.27866 0.33143
 C962 C 0.96921 0.26785 0.34303
 C963 C 0.95832 0.25509 0.35710
 C964 C 0.93981 0.26173 0.36514
 C965 C 0.92937 0.24956 0.37913
 C966 C 0.93733 0.23056 0.38528
 C967 C 0.95594 0.22400 0.37705
 C968 C 0.96635 0.23620 0.36305
 C969 C 0.92634 0.21780 0.40037
 C970 C 0.93698 0.20749 0.41585
 C971 C 0.92654 0.19594 0.43037
 C972 C 0.90537 0.19452 0.42959
 C973 C 0.89467 0.20455 0.41415
 C974 C 0.90507 0.21611 0.39963
 C975 C 0.89456 0.18312 0.44485
 C976 C 0.88538 0.17379 0.45770
 H977 H 0.93352 0.27638 0.36072
 H978 H 0.91525 0.25519 0.38541
 H979 H 0.96234 0.20935 0.38131
 H980 H 0.98067 0.23091 0.35689
 H981 H 0.95332 0.20870 0.41698
 H982 H 0.93497 0.18829 0.44230
 H983 H 0.87828 0.20351 0.41339
 H984 H 0.89647 0.22362 0.38774
 C985 C 0.02197 0.27960 0.66854
 C986 C 0.03105 0.26877 0.65681
 C987 C 0.04160 0.25591 0.64256
 C988 C 0.03070 0.24501 0.62785
 C989 C 0.04092 0.23278 0.61374
 C990 C 0.06222 0.23130 0.61416
 C991 C 0.07303 0.24225 0.62908
 C992 C 0.06277 0.25447 0.64317
 C993 C 0.07315 0.21859 0.59896
 C994 C 0.08997 0.20668 0.60476
 C995 C 0.10044 0.19500 0.59036
 C996 C 0.09426 0.19508 0.56999
 C997 C 0.07749 0.20679 0.56409
 C998 C 0.06698 0.21847 0.57846
 C999 C 0.10531 0.18344 0.55507
 C1000 C 0.11459 0.17389 0.54244
 H1001 H 0.01430 0.24601 0.62726
 H1002 H 0.03216 0.22436 0.60261
 H1003 H 0.08944 0.24165 0.62962
 H1004 H 0.07136 0.26292 0.65445
 H1005 H 0.09492 0.20625 0.62046
 H1006 H 0.11339 0.18597 0.59510
 H1007 H 0.07262 0.20704 0.54835
 H1008 H 0.05427 0.22769 0.57347
 C1009 C 0.02205 0.72067 0.33165
 C1010 C 0.03105 0.73156 0.34338
 C1011 C 0.04161 0.74445 0.35760
 C1012 C 0.06276 0.74614 0.35675
 C1013 C 0.07305 0.75834 0.37085
 C1014 C 0.06230 0.76900 0.38601
 C1015 C 0.04102 0.76729 0.38665
 C1016 C 0.03076 0.75509 0.37253
 C1017 C 0.07327 0.78161 0.40126
 C1018 C 0.06731 0.78141 0.42181
 C1019 C 0.07788 0.79297 0.43624
 C1020 C 0.09451 0.80487 0.43034
 C1021 C 0.10048 0.80527 0.40992
 C1022 C 0.08994 0.79372 0.39546
 C1023 C 0.10562 0.81638 0.44531
 C1024 C 0.11495 0.82582 0.45798
 H1025 H 0.07130 0.73790 0.34531
 H1026 H 0.08944 0.75911 0.37014
 H1027 H 0.03230 0.77551 0.39796
 H1028 H 0.01439 0.75389 0.37331
 H1029 H 0.05473 0.77203 0.42681
 H1030 H 0.07318 0.79248 0.45202
 H1031 H 0.11332 0.81446 0.40518
 H1032 H 0.09474 0.79439 0.37972
 C1033 C 0.66764 0.97766 0.72007
 C1034 C 0.65607 0.96835 0.73082
 C1035 C 0.64201 0.95745 0.74355
 C1036 C 0.63434 0.93851 0.73729
 C1037 C 0.62035 0.92809 0.74944
 C1038 C 0.61383 0.93649 0.76804
 C1039 C 0.62169 0.95552 0.77422
 C1040 C 0.63568 0.96592 0.76204
 C1041 C 0.59873 0.92553 0.78078
 C1042 C 0.58307 0.93632 0.79060
 C1043 C 0.56862 0.92593 0.80224
 C1044 C 0.56963 0.90464 0.80424
 C1045 C 0.58522 0.89378 0.79466
 C1046 C 0.59969 0.90413 0.78301
 C1047 C 0.55449 0.89390 0.81584
 C1048 C 0.54172 0.88486 0.82540
 H1049 H 0.63906 0.93188 0.72295
 H1050 H 0.61437 0.91362 0.74411
 H1051 H 0.61715 0.96228 0.78855
 H1052 H 0.64154 0.98058 0.76703
 H1053 H 0.58176 0.95275 0.78897
 H1054 H 0.55656 0.93448 0.80953
 H1055 H 0.58617 0.87730 0.79614
 H1056 H 0.61171 0.89542 0.77587
 C1057 C 0.33194 0.97798 0.28104
 C1058 C 0.34360 0.96886 0.27020
 C1059 C 0.35782 0.95831 0.25736
 C1060 C 0.37470 0.96872 0.24965
 C1061 C 0.38881 0.95846 0.23751
 C1062 C 0.38623 0.93759 0.23293
 C1063 C 0.36912 0.92729 0.24061
 C1064 C 0.35502 0.93760 0.25277
 C1065 C 0.40150 0.92653 0.22047
 C1066 C 0.39539 0.91216 0.20574
 C1067 C 0.40983 0.90158 0.19425
 C1068 C 0.43053 0.90520 0.19732
 C1069 C 0.43675 0.91950 0.21188
 C1070 C 0.42235 0.93010 0.22338
 C1071 C 0.44544 0.89411 0.18573
 C1072 C 0.45806 0.88484 0.17618
 H1073 H 0.37699 0.98477 0.25310
 H1074 H 0.40168 0.96687 0.23160
 H1075 H 0.36684 0.91117 0.23757
 H1076 H 0.34204 0.92938 0.25871
 H1077 H 0.37945 0.90926 0.20299
 H1078 H 0.40485 0.89057 0.18299
 H1079 H 0.45274 0.92235 0.21444
 H1080 H 0.42755 0.94084 0.23479
 C1081 C 0.66808 0.02282 0.28010
 C1082 C 0.65651 0.03219 0.26938
 C1083 C 0.64246 0.04317 0.25669
 C1084 C 0.63651 0.03501 0.23793
 C1085 C 0.62249 0.04543 0.22579
 C1086 C 0.61424 0.06419 0.23228
 C1087 C 0.62040 0.07230 0.25113
 C1088 C 0.63441 0.06184 0.26324
 C1089 C 0.59909 0.07515 0.21959
 C1090 C 0.59975 0.09659 0.21775
 C1091 C 0.58523 0.10694 0.20615
 C1092 C 0.56988 0.09601 0.19624
 C1093 C 0.56917 0.07468 0.19784
 C1094 C 0.58369 0.06430 0.20942
 C1095 C 0.55465 0.10674 0.18472
 C1096 C 0.54181 0.11579 0.17526
 H1097 H 0.64269 0.02057 0.23270
 H1098 H 0.61824 0.03892 0.21126
 H1099 H 0.61411 0.08655 0.25668
 H1100 H 0.63883 0.06824 0.27779
 H1101 H 0.61157 0.10535 0.22517
 H1102 H 0.58594 0.12345 0.20497
 H1103 H 0.55731 0.06608 0.19028
 H1104 H 0.58262 0.04782 0.21075
 C1105 C 0.33152 0.02242 0.71967
 C1106 C 0.34296 0.03184 0.73050
 C1107 C 0.35686 0.04287 0.74331
 C1108 C 0.36690 0.06014 0.73581
 C1109 C 0.38078 0.07061 0.74806
 C1110 C 0.38482 0.06392 0.76800
 C1111 C 0.37458 0.04657 0.77543
 C1112 C 0.36069 0.03612 0.76314
 C1113 C 0.39986 0.07486 0.78085
 C1114 C 0.41350 0.06389 0.79321
 C1115 C 0.42803 0.07419 0.80484
 C1116 C 0.42910 0.09557 0.80431
 C1117 C 0.41547 0.10662 0.79224
 C1118 C 0.40094 0.09635 0.78060
 C1119 C 0.44442 0.10618 0.81580
 C1120 C 0.45733 0.11523 0.82518
 H1121 H 0.36414 0.06542 0.72044
 H1122 H 0.38864 0.08372 0.74179
 H1123 H 0.37717 0.04118 0.79078
 H1124 H 0.35298 0.02276 0.76910
 H1125 H 0.41322 0.04733 0.79354
 H1126 H 0.43855 0.06548 0.81408
 H1127 H 0.41614 0.12317 0.79175
 H1128 H 0.39048 0.10524 0.77148
 C1129 C 0.66735 0.72113 0.02208
 C1130 C 0.65562 0.73175 0.03137
 C1131 C 0.64139 0.74435 0.04224
 C1132 C 0.62989 0.75897 0.03180
 C1133 C 0.61579 0.77098 0.04227
 C1134 C 0.61299 0.76851 0.06335
 C1135 C 0.62469 0.75380 0.07371
 C1136 C 0.63878 0.74181 0.06321
 C1137 C 0.59779 0.78102 0.07446
 C1138 C 0.60212 0.78872 0.09398
 C1139 C 0.58766 0.80021 0.10455
 C1140 C 0.56872 0.80416 0.09578
 C1141 C 0.56431 0.79667 0.07633
 C1142 C 0.57874 0.78519 0.06573
 C1143 C 0.55370 0.81564 0.10684
 C1144 C 0.54104 0.82511 0.11613
 H1145 H 0.63180 0.76105 0.01557
 H1146 H 0.60720 0.78233 0.03391
 H1147 H 0.62268 0.75132 0.08987
 H1148 H 0.64753 0.73046 0.07142
 H1149 H 0.61673 0.78601 0.10100
 H1150 H 0.59125 0.80597 0.11959
 H1151 H 0.54966 0.79958 0.06943
 H1152 H 0.57485 0.77926 0.05085
 C1153 C 0.33192 0.27899 0.02160
 C1154 C 0.34351 0.26832 0.03101
 C1155 C 0.35756 0.25569 0.04207
 C1156 C 0.36405 0.23705 0.03386
 C1157 C 0.37804 0.22497 0.04441
 C1158 C 0.38573 0.23139 0.06334
 C1159 C 0.37904 0.25013 0.07149
 C1160 C 0.36506 0.26218 0.06091
 C1161 C 0.40082 0.21876 0.07445
 C1162 C 0.39968 0.21661 0.09572
 C1163 C 0.41416 0.20508 0.10621
 C1164 C 0.42994 0.19554 0.09561
 C1165 C 0.43114 0.19745 0.07445
 C1166 C 0.41667 0.20896 0.06392
 C1167 C 0.44512 0.18410 0.10650
 C1168 C 0.45793 0.17472 0.11568
 H1169 H 0.35832 0.23187 0.01930
 H1170 H 0.38272 0.21052 0.03785
 H1171 H 0.38489 0.25564 0.08587
 H1172 H 0.36022 0.27664 0.06734
 H1173 H 0.38752 0.22374 0.10423
 H1174 H 0.41308 0.20367 0.12260
 H1175 H 0.44334 0.19019 0.06611
 H1176 H 0.41811 0.21054 0.04759
 C1177 C 0.66771 0.27916 0.97781
 C1178 C 0.65575 0.26864 0.96869
 C1179 C 0.64120 0.25622 0.95803
 C1180 C 0.62142 0.25438 0.96552
 C1181 C 0.60713 0.24258 0.95506
 C1182 C 0.61247 0.23240 0.93697
 C1183 C 0.63245 0.23423 0.92965
 C1184 C 0.64671 0.24609 0.94011
 C1185 C 0.59723 0.22007 0.92573
 C1186 C 0.60258 0.20115 0.91703
 C1187 C 0.58819 0.18960 0.90641
 C1188 C 0.56831 0.19681 0.90431
 C1189 C 0.56285 0.21562 0.91288
 C1190 C 0.57719 0.22717 0.92353
 C1191 C 0.55348 0.18500 0.89332
 C1192 C 0.54090 0.17531 0.88412
 H1193 H 0.61702 0.26210 0.97942
 H1194 H 0.59195 0.24126 0.96123
 H1195 H 0.63695 0.22679 0.91565
 H1196 H 0.66197 0.24745 0.93416
 H1197 H 0.61781 0.19516 0.91867
 H1198 H 0.59257 0.17504 0.89987
 H1199 H 0.54752 0.22138 0.91127
 H1200 H 0.57268 0.24180 0.92979
 C1201 C 0.33203 0.72201 0.97970
 C1202 C 0.34385 0.73275 0.97068
 C1203 C 0.35823 0.74548 0.96015
 C1204 C 0.35416 0.75224 0.94037
 C1205 C 0.36834 0.76427 0.93003
 C1206 C 0.38680 0.76969 0.93936
 C1207 C 0.39066 0.76295 0.95932
 C1208 C 0.37646 0.75091 0.96962
 C1209 C 0.40211 0.78201 0.92820
 C1210 C 0.42288 0.77723 0.92969
 C1211 C 0.43728 0.78860 0.91894
 C1212 C 0.43115 0.80489 0.90659
 C1213 C 0.41055 0.80983 0.90505
 C1214 C 0.39611 0.79847 0.91578
 C1215 C 0.44603 0.81638 0.89535
 C1216 C 0.45861 0.82581 0.88592
 H1217 H 0.34012 0.74806 0.93288
 H1218 H 0.36504 0.76900 0.91460
 H1219 H 0.40459 0.76709 0.96702
 H1220 H 0.37975 0.74578 0.98494
 H1221 H 0.42796 0.76448 0.93888
 H1222 H 0.45319 0.78460 0.92018
 H1223 H 0.40564 0.82244 0.89555
 H1224 H 0.38027 0.80268 0.91451
 C1225 C 0.72038 0.97781 0.33265
 C1226 C 0.73103 0.96837 0.34422
 C1227 C 0.74363 0.95726 0.35826
 C1228 C 0.73602 0.93995 0.36818
 C1229 C 0.74810 0.92934 0.38210
 C1230 C 0.76800 0.93592 0.38631
 C1231 C 0.77553 0.95333 0.37622
 C1232 C 0.76341 0.96392 0.36229
 C1233 C 0.78073 0.92477 0.40130
 C1234 C 0.79309 0.93555 0.41510
 C1235 C 0.80473 0.92504 0.42949
 C1236 C 0.80420 0.90365 0.43027
 C1237 C 0.79209 0.89279 0.41653
 C1238 C 0.78043 0.90326 0.40213
 C1239 C 0.81578 0.89285 0.44541
 C1240 C 0.82528 0.88375 0.45820
 H1241 H 0.72069 0.93474 0.36525
 H1242 H 0.74176 0.91620 0.38984
 H1243 H 0.79086 0.95863 0.37894
 H1244 H 0.76945 0.97730 0.35469
 H1245 H 0.79344 0.95211 0.41503
 H1246 H 0.81400 0.93360 0.44011
 H1247 H 0.79159 0.87623 0.41698
 H1248 H 0.77130 0.89452 0.39155
 C1249 C 0.28036 0.97790 0.66748
 C1250 C 0.26970 0.96849 0.65588
 C1251 C 0.25701 0.95750 0.64183
 C1252 C 0.23786 0.96515 0.63667
 C1253 C 0.22568 0.95468 0.62270
 C1254 C 0.23252 0.93639 0.61373
 C1255 C 0.25178 0.92880 0.61909
 C1256 C 0.26393 0.93930 0.63304
 C1257 C 0.21974 0.92536 0.59869
 C1258 C 0.21867 0.90386 0.59884
 C1259 C 0.20696 0.89348 0.58442
 C1260 C 0.19617 0.90443 0.56967
 C1261 C 0.19702 0.92582 0.56946
 C1262 C 0.20871 0.93623 0.58387
 C1263 C 0.18455 0.89369 0.55452
 C1264 C 0.17500 0.88464 0.54172
 H1265 H 0.23235 0.97922 0.64341
 H1266 H 0.21084 0.96078 0.61908
 H1267 H 0.25759 0.91493 0.61222
 H1268 H 0.27877 0.93330 0.63685
 H1269 H 0.22676 0.89508 0.61020
 H1270 H 0.20638 0.87692 0.58473
 H1271 H 0.18878 0.93444 0.55806
 H1272 H 0.20943 0.95277 0.58319
 C1273 C 0.28023 0.02179 0.33324
 C1274 C 0.26950 0.03111 0.34484
 C1275 C 0.25674 0.04202 0.35888
 C1276 C 0.26318 0.06069 0.36704
 C1277 C 0.25094 0.07115 0.38095
 C1278 C 0.23207 0.06303 0.38689
 C1279 C 0.22572 0.04426 0.37855
 C1280 C 0.23798 0.03384 0.36463
 C1281 C 0.21921 0.07401 0.40189
 C1282 C 0.20881 0.06316 0.41716
 C1283 C 0.19705 0.07355 0.43153
 C1284 C 0.19552 0.09489 0.43084
 C1285 C 0.20566 0.10581 0.41562
 C1286 C 0.21742 0.09545 0.40123
 C1287 C 0.18388 0.10563 0.44597
 C1288 C 0.17435 0.11469 0.45876
 H1289 H 0.27772 0.06711 0.36276
 H1290 H 0.25640 0.08540 0.38731
 H1291 H 0.21118 0.03774 0.38263
 H1292 H 0.23285 0.01941 0.35838
 H1293 H 0.21008 0.04668 0.41823
 H1294 H 0.18932 0.06496 0.44330
 H1295 H 0.20455 0.12233 0.41492
 H1296 H 0.22502 0.10421 0.38951
 C1297 C 0.72001 0.02242 0.66749
 C1298 C 0.73070 0.03177 0.65590
 C1299 C 0.74336 0.04276 0.64184
 C1300 C 0.73593 0.06025 0.63209
 C1301 C 0.74806 0.07073 0.61812
 C1302 C 0.76779 0.06383 0.61370
 C1303 C 0.77514 0.04625 0.62362
 C1304 C 0.76299 0.03580 0.63761
 C1305 C 0.78056 0.07484 0.59865
 C1306 C 0.79252 0.06392 0.58463
 C1307 C 0.80419 0.07430 0.57019
 C1308 C 0.80408 0.09569 0.56957
 C1309 C 0.79235 0.10670 0.58353
 C1310 C 0.78066 0.09636 0.59798
 C1311 C 0.81572 0.10636 0.55440
 C1312 C 0.82528 0.11536 0.54160
 H1313 H 0.72072 0.06569 0.63518
 H1314 H 0.74186 0.08403 0.61052
 H1315 H 0.79035 0.04071 0.62072
 H1316 H 0.76889 0.02228 0.64509
 H1317 H 0.79256 0.04735 0.58459
 H1318 H 0.81317 0.06563 0.55940
 H1319 H 0.79218 0.12327 0.58320
 H1320 H 0.77182 0.10519 0.60873
 C1321 C 0.97885 0.66729 0.27852
 C1322 C 0.96984 0.65553 0.26767
 C1323 C 0.95930 0.64124 0.25481
 C1324 C 0.93884 0.64433 0.25005
 C1325 C 0.92851 0.63021 0.23787
 C1326 C 0.93854 0.61280 0.23030
 C1327 C 0.95917 0.60991 0.23507
 C1328 C 0.96946 0.62404 0.24725
 C1329 C 0.92746 0.59755 0.21776
 C1330 C 0.93069 0.57647 0.22067
 C1331 C 0.92002 0.56211 0.20910
 C1332 C 0.90600 0.56859 0.19447
 C1333 C 0.90274 0.58952 0.19138
 C1334 C 0.91338 0.60392 0.20294
 C1335 C 0.89482 0.55372 0.18285
 C1336 C 0.88546 0.54111 0.17331
 H1337 H 0.93082 0.65756 0.25588
 H1338 H 0.91259 0.63273 0.23470
 H1339 H 0.96737 0.59681 0.22926
 H1340 H 0.98531 0.62152 0.25082
 H1341 H 0.94120 0.57108 0.23214
 H1342 H 0.92260 0.54595 0.21168
 H1343 H 0.89194 0.59470 0.18007
 H1344 H 0.91075 0.62003 0.20017
 C1345 C 0.97869 0.33193 0.72067
 C1346 C 0.96938 0.34361 0.73134
 C1347 C 0.95833 0.35776 0.74392
 C1348 C 0.96609 0.36364 0.76285
 C1349 C 0.95554 0.37771 0.77488
 C1350 C 0.93705 0.38606 0.76811
 C1351 C 0.92933 0.37996 0.74909
 C1352 C 0.93992 0.36591 0.73709
 C1353 C 0.92593 0.40122 0.78072
 C1354 C 0.90465 0.40048 0.78223
 C1355 C 0.89418 0.41499 0.79380
 C1356 C 0.90482 0.43041 0.80401
 C1357 C 0.92599 0.43122 0.80270
 C1358 C 0.93650 0.41672 0.79115
 C1359 C 0.89398 0.44559 0.81555
 C1360 C 0.88486 0.45840 0.82505
 H1361 H 0.98030 0.35737 0.76830
 H1362 H 0.96174 0.38191 0.78955
 H1363 H 0.91529 0.38632 0.74334
 H1364 H 0.93382 0.36153 0.72241
 H1365 H 0.89611 0.38860 0.77459
 H1366 H 0.87778 0.41421 0.79474
 H1367 H 0.93437 0.44315 0.81047
 H1368 H 0.95285 0.41786 0.79006
 C1369 C 0.02200 0.66840 0.72105
 C1370 C 0.03127 0.65679 0.73184
 C1371 C 0.04212 0.64268 0.74464
 C1372 C 0.06253 0.63830 0.74073
 C1373 C 0.07296 0.62427 0.75290
 C1374 C 0.06309 0.61439 0.76914
 C1375 C 0.04258 0.61897 0.77299
 C1376 C 0.03218 0.63303 0.76081
 C1377 C 0.07409 0.59921 0.78183
 C1378 C 0.06451 0.58100 0.78800
 C1379 C 0.07501 0.56652 0.79958
 C1380 C 0.09519 0.57005 0.80519
 C1381 C 0.10482 0.58817 0.79926
 C1382 C 0.09435 0.60267 0.78766
 C1383 C 0.10614 0.55491 0.81669
 C1384 C 0.11539 0.54214 0.82612
 H1385 H 0.07033 0.64561 0.72819
 H1386 H 0.08865 0.62086 0.74937
 H1387 H 0.03463 0.61181 0.78552
 H1388 H 0.01639 0.63634 0.76399
 H1389 H 0.04902 0.57777 0.78353
 H1390 H 0.06744 0.55250 0.80402
 H1391 H 0.12043 0.59107 0.80353
 H1392 H 0.10206 0.61664 0.78337
 C1393 C 0.02267 0.33170 0.27894
 C1394 C 0.03195 0.34335 0.26821
 C1395 C 0.04287 0.35745 0.25548
 C1396 C 0.06117 0.36592 0.26222
 C1397 C 0.07161 0.37991 0.25003
 C1398 C 0.06385 0.38565 0.23092
 C1399 C 0.04546 0.37700 0.22426
 C1400 C 0.03506 0.36298 0.23646
 C1401 C 0.07478 0.40077 0.21814
 C1402 C 0.06405 0.41606 0.20757
 C1403 C 0.07441 0.43059 0.19592
 C1404 C 0.09560 0.43001 0.19465
 C1405 C 0.10639 0.41477 0.20496
 C1406 C 0.09607 0.40024 0.21662
 C1407 C 0.10631 0.44529 0.18312
 C1408 C 0.11536 0.45817 0.17366
 H1409 H 0.06730 0.36181 0.27696
 H1410 H 0.08558 0.38651 0.25571
 H1411 H 0.03922 0.38093 0.20953
 H1412 H 0.02094 0.35646 0.23108
 H1413 H 0.04769 0.41703 0.20864
 H1414 H 0.06591 0.44238 0.18807
 H1415 H 0.12280 0.41416 0.20404
 H1416 H 0.10473 0.38850 0.22436
   
