data_POSCAR
  _audit_creation_date              2014-09-24
  _audit_creation_method            'ToBaCCo'
  _symmetry_space_group_name_H-M    'P1'
  _symmetry_Int_Tables_number       1
  _symmetry_cell_setting            triclinic
  loop_
  _symmetry_equiv_pos_as_xyz
 x,y,z
_cell_length_a 37.9263
_cell_length_b 38.1127
_cell_length_c 38.5684
_cell_angle_alpha 88.638900
_cell_angle_beta 89.976700
_cell_angle_gamma 87.847500
loop_
  _atom_site_label
  _atom_site_type_symbol
  _atom_site_fract_x
  _atom_site_fract_y
  _atom_site_fract_z
C1 C 0.80477 0.65371 1.01239
 C2 C 0.81045 0.62731 0.98337
 C3 C 0.78174 0.60827 0.97649
 C4 C 0.74975 0.61705 0.99963
 C5 C 0.77202 0.67598 1.00119
 C6 C 0.74312 0.65697 0.99445
 C7 C 0.79256 0.63121 1.04318
 C8 C 0.76351 0.61233 1.03718
 H9 H 0.83438 0.62478 0.96836
 H10 H 0.72684 0.60124 0.99340
 H11 H 0.77198 0.70433 0.99875
 H12 H 0.80670 0.62992 1.06755
 C13 C 0.78935 0.36036 0.48772
 C14 C 0.79373 0.38967 0.51361
 C15 C 0.76402 0.40989 0.51886
 C16 C 0.73212 0.39888 0.49760
 C17 C 0.75855 0.33990 0.50246
 C18 C 0.72806 0.35952 0.50714
 C19 C 0.77470 0.37865 0.45488
 C20 C 0.74534 0.39948 0.45982
 H21 H 0.81800 0.39315 0.52770
 H22 H 0.70859 0.41630 0.50164
 H23 H 0.76174 0.31301 0.51149
 H24 H 0.78681 0.37501 0.42974
 C25 C 0.30743 -0.14181 -0.02572
 C26 C 0.31436 -0.11392 -0.00174
 C27 C 0.28405 -0.09179 0.00613
 C28 C 0.25243 -0.10168 -0.01287
 C29 C 0.27840 -0.16038 -0.00969
 C30 C 0.24738 -0.13868 -0.00290
 C31 C 0.29259 -0.12414 -0.05632
 C32 C 0.26206 -0.10203 -0.04984
 H33 H 0.33791 -0.11428 0.01411
 H34 H 0.22949 -0.08394 -0.00837
 H35 H 0.28156 -0.18725 -0.00023
 H36 H 0.30500 -0.12620 -0.08152
 C37 C 0.29091 0.14772 0.49998
 C38 C 0.29406 0.12114 0.47077
 C39 C 0.26460 0.10272 0.46602
 C40 C 0.23445 0.11238 0.49086
 C41 C 0.25800 0.17066 0.48989
 C42 C 0.22834 0.15212 0.48481
 C43 C 0.27986 0.12650 0.53204
 C44 C 0.25017 0.10832 0.52754
 H45 H 0.31584 0.12018 0.45259
 H46 H 0.21102 0.09645 0.48741
 H47 H 0.25935 0.19819 0.48267
 H48 H 0.29292 0.12807 0.55690
 C49 C 0.15493 0.50473 0.30500
 C50 C 0.12350 0.48068 0.30862
 C51 C 0.10375 0.47901 0.27930
 C52 C 0.11754 0.50101 0.24873
 C53 C 0.17555 0.48981 0.27409
 C54 C 0.15602 0.48775 0.24466
 C55 C 0.13899 0.54005 0.29192
 C56 C 0.11948 0.53854 0.26238
 H57 H 0.12089 0.46206 0.32992
 H58 H 0.10166 0.49839 0.22498
 H59 H 0.20249 0.47953 0.27613
 H60 H 0.14204 0.56398 0.30598
 C61 C -0.13807 -0.01131 0.28727
 C62 C -0.11686 0.02193 0.29042
 C63 C -0.09489 0.02755 0.26316
 C64 C -0.09598 -0.00047 0.23521
 C65 C -0.15709 -0.00598 0.25227
 C66 C -0.13516 -0.00103 0.22471
 C67 C -0.11199 -0.03951 0.28209
 C68 C -0.08871 -0.03413 0.25334
 H69 H -0.11969 0.04006 0.31151
 H70 H -0.07858 0.00533 0.21305
 H71 H -0.18552 -0.00476 0.25000
 H72 H -0.10939 -0.06185 0.29985
 C73 C 0.34217 0.46580 0.81346
 C74 C 0.36903 0.49353 0.82094
 C75 C 0.39062 0.50145 0.79404
 C76 C 0.38362 0.48048 0.76138
 C77 C 0.32252 0.48036 0.78099
 C78 C 0.34406 0.48767 0.75350
 C79 C 0.36384 0.43423 0.80037
 C80 C 0.38566 0.44165 0.77341
 H81 H 0.36910 0.50766 0.84500
 H82 H 0.40175 0.48675 0.73973
 H83 H 0.29419 0.48305 0.77890
 H84 H 0.36047 0.40772 0.81021
 C85 C 0.65378 0.98695 0.78486
 C86 C 0.62621 0.95851 0.78712
 C87 C 0.60687 0.95586 0.75768
 C88 C 0.61704 0.98174 0.72844
 C89 C 0.67610 0.97677 0.75308
 C90 C 0.65691 0.97358 0.72335
 C91 C 0.63425 1.01873 0.77450
 C92 C 0.61434 1.01685 0.74327
 H93 H 0.62553 0.93884 0.80773
 H94 H 0.60128 0.97805 0.70486
 H95 H 0.70408 0.97057 0.75491
 H96 H 0.63287 1.04122 0.79106
 C97 C -0.03533 0.30652 -0.15657
 C98 C -0.00674 0.31296 -0.12947
 C99 C 0.00232 0.28447 -0.10920
 C100 C -0.01835 0.25185 -0.11712
 C101 C -0.02080 0.27482 -0.17663
 C102 C -0.01163 0.24615 -0.15607
 C103 C -0.06602 0.29231 -0.13533
 C104 C -0.05745 0.26365 -0.11504
 H105 H 0.00704 0.33711 -0.12757
 H106 H -0.01101 0.22893 -0.10004
 H107 H -0.01772 0.27553 -0.20452
 H108 H -0.09263 0.30360 -0.13684
 C109 C 0.50424 0.28901 0.14234
 C110 C 0.47507 0.29186 0.11490
 C111 C 0.47065 0.26173 0.09742
 C112 C 0.49600 0.23123 0.10902
 C113 C 0.49405 0.25768 0.16571
 C114 C 0.48947 0.22759 0.14819
 C115 C 0.53706 0.27581 0.12291
 C116 C 0.53343 0.24543 0.10569
 H117 H 0.45622 0.31390 0.11338
 H118 H 0.49151 0.20675 0.09502
 H119 H 0.48821 0.25945 0.19298
 H120 H 0.56114 0.29012 0.12277
 C121 C 1.00829 0.80398 0.63871
 C122 C 0.98803 0.80753 0.60675
 C123 C 0.98384 0.77535 0.58929
 C124 C 1.00166 0.74523 0.60699
 C125 C 0.99023 0.77736 0.65934
 C126 C 0.98700 0.74442 0.64229
 C127 C 1.04171 0.78714 0.62900
 C128 C 1.03876 0.75477 0.61108
 H129 H 0.97308 0.83139 0.59945
 H130 H 0.99789 0.72137 0.59206
 H131 H 0.98020 0.78164 0.68506
 H132 H 1.06662 0.79674 0.63768
 C133 C 0.46385 0.78926 0.35216
 C134 C 0.49630 0.80163 0.37128
 C135 C 0.51414 0.77591 0.39001
 C136 C 0.49771 0.73977 0.38777
 C137 C 0.47759 0.75851 0.33040
 C138 C 0.49606 0.73277 0.34861
 C139 C 0.44144 0.77172 0.38025
 C140 C 0.45908 0.74600 0.39878
 H141 H 0.50519 0.82816 0.36852
 H142 H 0.51170 0.71904 0.40362
 H143 H 0.47232 0.75743 0.30292
 H144 H 0.41326 0.77622 0.38290
 C145 C 0.40442 -0.03527 0.24475
 H146 H 0.42094 -0.01516 0.23426
 C147 C 0.42001 -0.06628 0.25884
 H148 H 0.44847 -0.06959 0.25884
 C149 C 0.34763 -0.05416 0.26026
 H150 H 0.31964 -0.04857 0.26262
 C151 C 0.36199 -0.08542 0.27436
 H152 H 0.34450 -0.10420 0.28595
 N153 N 0.36877 -0.02980 0.24580
 C154 C 0.38071 0.07724 0.24455
 H155 H 0.36367 0.07933 0.26689
 C156 C 0.40196 0.10513 0.23559
 H157 H 0.40152 0.12769 0.25206
 C158 C 0.40189 0.04515 0.19655
 H159 H 0.40120 0.02187 0.18107
 C160 C 0.42281 0.07285 0.18607
 H161 H 0.43783 0.07044 0.16234
 Zn162 Zn 0.34620 0.01392 0.23356
 N163 N 0.38024 0.04839 0.22451
 C164 C 0.33792 0.02213 0.30332
 N165 N 0.31975 0.02662 0.27307
 C166 C 0.28549 0.03851 0.27257
 C167 C 0.26840 0.04694 0.30370
 C168 C 0.32182 0.02959 0.33480
 C169 C 0.29580 -0.01852 0.19120
 C170 C 0.28284 -0.02858 0.15913
 C171 C 0.31168 0.02026 0.13200
 C172 C 0.32366 0.02966 0.16461
 N173 N 0.31766 0.00890 0.19310
 H174 H 0.36520 0.01278 0.30289
 H175 H 0.27162 0.04174 0.24813
 H176 H 0.24128 0.05691 0.30318
 H177 H 0.33708 0.02640 0.35846
 H178 H 0.29027 -0.03420 0.21403
 H179 H 0.26799 -0.05223 0.15767
 H180 H 0.31898 0.03553 0.10928
 H181 H 0.33960 0.05237 0.16660
 C182 C 0.42217 0.10400 0.20500
 C183 C 0.39868 -0.09166 0.27432
 C184 C 0.29250 -0.01019 0.12889
 C185 C 0.28667 0.04224 0.33530
 C186 C 0.08438 1.06074 0.80157
 H187 H 0.09719 1.04175 0.81909
 C188 C 0.06674 1.09029 0.81495
 H189 H 0.06659 1.09390 0.84271
 C190 C 0.06987 1.07963 0.74424
 H191 H 0.07135 1.07560 0.71668
 C192 C 0.05215 1.10965 0.75647
 H193 H 0.03986 1.12818 0.73807
 N194 N 0.08648 1.05643 0.76670
 C195 C 0.10611 0.96173 0.70879
 H196 H 0.13358 0.96551 0.70277
 C197 C 0.08856 0.93468 0.69353
 H198 H 0.10261 0.91766 0.67568
 C199 C 0.05454 0.97922 0.73971
 H200 H 0.04157 0.99683 0.75768
 C201 C 0.03609 0.95179 0.72553
 H202 H 0.00874 0.94836 0.73244
 Zn203 Zn 0.11599 1.01969 0.74884
 N204 N 0.08889 0.98361 0.73101
 C205 C 0.14358 0.96485 0.79189
 N206 N 0.14557 0.99985 0.78477
 C207 C 0.16653 1.02022 0.80399
 C208 C 0.18625 1.00540 0.83177
 C209 C 0.16308 0.94901 0.81895
 C210 C 0.12489 1.04059 0.68016
 C211 C 0.14224 1.05025 0.64979
 C212 C 0.19584 1.05458 0.68284
 C213 C 0.17746 1.04421 0.71269
 N214 N 0.14255 1.03745 0.71081
 H215 H 0.12652 0.94901 0.77690
 H216 H 0.16741 1.04807 0.79816
 H217 H 0.20286 1.02182 0.84674
 H218 H 0.16101 0.92112 0.82424
 H219 H 0.09737 1.03428 0.67900
 H220 H 0.12756 1.05122 0.62572
 H221 H 0.22345 1.06029 0.68514
 H222 H 0.19119 1.04128 0.73719
 C223 C 0.05314 0.92957 0.70176
 C224 C 0.05126 1.11578 0.79222
 C225 C 0.17831 1.05731 0.65061
 C226 C 0.18456 0.96932 0.83939
 C227 C 0.55899 0.54709 0.27290
 H228 H 0.54868 0.52142 0.27811
 C229 C 0.54257 0.57684 0.28718
 H230 H 0.51891 0.57408 0.30247
 C231 C 0.60323 0.58183 0.24753
 H232 H 0.62759 0.58342 0.23312
 C233 C 0.58754 0.61217 0.26103
 H234 H 0.59970 0.63714 0.25656
 N235 N 0.58914 0.55010 0.25412
 C236 C 0.59145 0.44098 0.24568
 H237 H 0.61050 0.43690 0.26623
 C238 C 0.57311 0.41245 0.23425
 H239 H 0.57888 0.38672 0.24586
 C240 C 0.56134 0.47895 0.20522
 H241 H 0.55617 0.50510 0.19461
 C242 C 0.54264 0.45100 0.19267
 H243 H 0.52369 0.45581 0.17196
 Zn244 Zn 0.61632 0.50982 0.24246
 N245 N 0.58643 0.47319 0.23014
 C246 C 0.66922 0.46961 0.27971
 N247 N 0.64334 0.49515 0.28226
 C248 C 0.63480 0.50918 0.31344
 C249 C 0.65185 0.49702 0.34367
 C250 C 0.68741 0.45711 0.30927
 C251 C 0.63136 0.52912 0.17276
 C252 C 0.65208 0.53931 0.14458
 C253 C 0.70320 0.53489 0.18185
 C254 C 0.68154 0.52450 0.20927
 N255 N 0.64624 0.52165 0.20434
 H256 H 0.67526 0.45849 0.25476
 H257 H 0.61427 0.52941 0.31520
 H258 H 0.64446 0.50825 0.36829
 H259 H 0.70761 0.43647 0.30687
 H260 H 0.60326 0.52797 0.16940
 H261 H 0.63949 0.54577 0.11994
 H262 H 0.73117 0.53723 0.18641
 H263 H 0.69291 0.51965 0.23466
 C264 C 0.54931 0.41701 0.20652
 C265 C 0.55741 0.60970 0.28187
 C266 C 0.68849 0.54252 0.14896
 C267 C 0.67847 0.47064 0.34180
 C268 C 0.89411 0.49400 0.77255
 H269 H 0.89471 0.51803 0.78677
 C270 C 0.91280 0.46418 0.78510
 H271 H 0.92731 0.46569 0.80916
 C272 C 0.87342 0.46274 0.72480
 H273 H 0.85832 0.46228 0.70111
 C274 C 0.89157 0.43212 0.73658
 H275 H 0.89005 0.40843 0.72180
 N276 N 0.87390 0.49254 0.74356
 C277 C 0.85540 0.60296 0.71482
 H278 H 0.82743 0.60621 0.71995
 C279 C 0.87457 0.63181 0.70401
 H280 H 0.86073 0.65681 0.70029
 C281 C 0.90660 0.56557 0.71226
 H282 H 0.91893 0.53966 0.71541
 C283 C 0.92680 0.59374 0.70158
 H284 H 0.95475 0.58922 0.69698
 Zn285 Zn 0.84388 0.53247 0.73283
 N286 N 0.87152 0.57061 0.71846
 C287 C 0.83892 0.56562 0.79557
 N288 N 0.82034 0.54491 0.77455
 C289 C 0.78985 0.53048 0.78560
 C290 C 0.77783 0.53568 0.81958
 C291 C 0.82822 0.57100 0.82958
 C292 C 0.81354 0.54062 0.66621
 C293 C 0.79765 0.52866 0.63636
 C294 C 0.77792 0.47857 0.66931
 C295 C 0.79362 0.49188 0.69882
 N296 N 0.81246 0.52153 0.69641
 H297 H 0.86327 0.57651 0.78656
 H298 H 0.77558 0.51385 0.76869
 H299 H 0.75424 0.52318 0.82860
 H300 H 0.84410 0.58658 0.84624
 H301 H 0.82865 0.56401 0.66445
 H302 H 0.80024 0.54354 0.61227
 H303 H 0.76620 0.45334 0.67153
 H304 H 0.79362 0.47668 0.72285
 C305 C 0.91081 0.62745 0.69713
 C306 C 0.91073 0.43232 0.76773
 C307 C 0.78107 0.49632 0.63716
 C308 C 0.79792 0.55517 0.84222
 C309 C 0.26988 0.38969 -0.00498
 H310 H 0.28263 0.38791 0.02012
 C311 C 0.28396 0.41031 -0.03149
 H312 H 0.30708 0.42500 -0.02605
 C313 C 0.22386 0.37292 -0.04185
 H314 H 0.20044 0.35828 -0.04584
 C315 C 0.23769 0.39237 -0.06945
 H316 H 0.22487 0.39158 -0.09443
 N317 N 0.24041 0.37146 -0.01056
 C318 C 0.20169 0.35205 0.09445
 H319 H 0.19964 0.32381 0.09524
 C320 C 0.19328 0.37137 0.12383
 H321 H 0.18487 0.35778 0.14720
 C322 C 0.21383 0.40417 0.06270
 H323 H 0.22140 0.41704 0.03877
 C324 C 0.20538 0.42450 0.09136
 H325 H 0.20739 0.45272 0.08933
 Zn326 Zn 0.22557 0.34126 0.02578
 N327 N 0.21260 0.36852 0.06487
 C328 C 0.27661 0.30428 0.06910
 N329 N 0.26511 0.31051 0.03602
 C330 C 0.28476 0.29957 0.00848
 C331 C 0.31786 0.28292 0.01359
 C332 C 0.30923 0.28709 0.07539
 C333 C 0.15356 0.32614 0.02272
 C334 C 0.12323 0.31472 0.00668
 C335 C 0.16019 0.28236 -0.03336
 C336 C 0.18988 0.29402 -0.01624
 N337 N 0.18607 0.31669 0.01035
 H338 H 0.26145 0.31392 0.09074
 H339 H 0.27567 0.30564 -0.01762
 H340 H 0.33378 0.27572 -0.00863
 H341 H 0.31850 0.28364 0.10185
 H342 H 0.15094 0.34456 0.04349
 H343 H 0.09765 0.32440 0.01555
 H344 H 0.16370 0.26594 -0.05572
 H345 H 0.21591 0.28699 -0.02580
 C346 C 0.19540 0.40808 0.12256
 C347 C 0.26842 0.41125 -0.06464
 C348 C 0.12635 0.29389 -0.02276
 C349 C 0.33066 0.27702 0.04740
 C350 C 0.80104 0.05576 1.03234
 H351 H 0.81157 0.05428 1.00641
 C352 C 0.81791 0.03661 1.05928
 H353 H 0.84108 0.02015 1.05391
 C354 C 0.75953 0.08036 1.07169
 H355 H 0.73767 0.09836 1.07691
 C356 C 0.77493 0.06095 1.09914
 H357 H 0.76453 0.06390 1.12511
 N358 N 0.77266 0.07754 1.03898
 C359 C 0.70220 0.07853 0.95774
 H360 H 0.68305 0.09392 0.97196
 C361 C 0.69062 0.05910 0.93018
 H362 H 0.66271 0.05964 0.92413
 C363 C 0.76158 0.06128 0.94621
 H364 H 0.78931 0.06305 0.95194
 C365 C 0.75114 0.04192 0.91785
 H366 H 0.77091 0.02832 0.90237
 Zn367 Zn 0.75239 0.10665 1.00291
 N368 N 0.73712 0.07892 0.96573
 C369 C 0.77751 0.15875 0.95776
 N370 N 0.78687 0.13702 0.98490
 C371 C 0.82027 0.13610 0.99781
 C372 C 0.84593 0.15705 0.98291
 C373 C 0.80199 0.18102 0.94285
 C374 C 0.68487 0.11608 1.03375
 C375 C 0.65482 0.13473 1.04514
 C376 C 0.68418 0.18869 1.03251
 C377 C 0.71344 0.16902 1.02080
 N378 N 0.71310 0.13334 1.02099
 H379 H 0.75081 0.15896 0.94788
 H380 H 0.82732 0.11888 1.01952
 H381 H 0.87242 0.15452 0.99317
 H382 H 0.79323 0.19877 0.92208
 H383 H 0.68549 0.08767 1.03449
 H384 H 0.63252 0.12055 1.05484
 H385 H 0.68477 0.21708 1.03180
 H386 H 0.73633 0.18238 1.01150
 C387 C 0.71517 0.04064 0.90970
 C388 C 0.80470 0.03916 1.09305
 C389 C 0.65418 0.17153 1.04434
 C390 C 0.83707 0.18023 0.95503
 C391 C 0.30949 0.58252 0.57185
 H392 H 0.32892 0.59662 0.55726
 C393 C 0.32001 0.56308 0.60139
 H394 H 0.34748 0.56242 0.60910
 C395 C 0.24999 0.56761 0.58066
 H396 H 0.22269 0.56988 0.57253
 C397 C 0.25931 0.54825 0.61072
 H398 H 0.23907 0.53530 0.62550
 N399 N 0.27502 0.58425 0.56190
 C400 C 0.24290 0.60234 0.45487
 H401 H 0.24844 0.62995 0.45283
 C402 C 0.23241 0.58473 0.42563
 H403 H 0.22958 0.59905 0.40115
 C404 C 0.23920 0.55045 0.48966
 H405 H 0.24206 0.53728 0.51467
 C406 C 0.22804 0.53188 0.46106
 H407 H 0.22230 0.50436 0.46418
 Zn408 Zn 0.26071 0.61263 0.52306
 N409 N 0.24607 0.58513 0.48605
 C410 C 0.32488 0.61779 0.49025
 N411 N 0.29960 0.63774 0.50629
 C412 C 0.30218 0.67312 0.50849
 C413 C 0.33148 0.68965 0.49441
 C414 C 0.35433 0.63316 0.47575
 C415 C 0.19035 0.63926 0.52107
 C416 C 0.16037 0.65731 0.53337
 C417 C 0.19638 0.68220 0.57745
 C418 C 0.22571 0.66349 0.56438
 N419 N 0.22217 0.64235 0.53680
 H420 H 0.32199 0.58974 0.48863
 H421 H 0.28147 0.68855 0.52084
 H422 H 0.33294 0.71789 0.49586
 H423 H 0.37414 0.61668 0.46317
 H424 H 0.18781 0.62193 0.49954
 H425 H 0.13533 0.65427 0.52053
 H426 H 0.19955 0.69825 0.59995
 H427 H 0.25112 0.66495 0.57691
 C428 C 0.22476 0.54907 0.42854
 C429 C 0.29476 0.54577 0.62133
 C430 C 0.16300 0.67872 0.56228
 C431 C 0.35796 0.66955 0.47762
 C432 C 0.77016 0.92324 0.46487
 H433 H 0.76392 0.93479 0.48954
 C434 C 0.78207 0.94439 0.43745
 H435 H 0.78436 0.97232 0.44098
 C436 C 0.77579 0.87278 0.43021
 H437 H 0.77353 0.84473 0.42780
 C438 C 0.78749 0.89283 0.40224
 H439 H 0.79457 0.87991 0.37839
 N440 N 0.76675 0.88821 0.46049
 C441 C 0.74599 0.86686 0.56655
 H442 H 0.76310 0.84357 0.56835
 C443 C 0.73431 0.88288 0.59679
 H444 H 0.74248 0.87085 0.62128
 C445 C 0.71216 0.90781 0.53219
 H446 H 0.70312 0.91694 0.50683
 C447 C 0.70023 0.92505 0.56181
 H448 H 0.68240 0.94752 0.55832
 Zn449 Zn 0.75102 0.85637 0.49483
 N450 N 0.73524 0.87976 0.53502
 C451 C 0.81723 0.84840 0.51834
 N452 N 0.79178 0.82808 0.50575
 C453 C 0.79836 0.79338 0.49963
 C454 C 0.83221 0.77815 0.50602
 C455 C 0.85086 0.83446 0.52506
 C456 C 0.69325 0.85234 0.45220
 C457 C 0.66164 0.84056 0.43950
 C458 C 0.66895 0.78866 0.47629
 C459 C 0.70067 0.80165 0.48862
 N460 N 0.71217 0.83300 0.47630
 H461 H 0.81136 0.87595 0.52266
 H462 H 0.77794 0.77784 0.48890
 H463 H 0.83757 0.75072 0.50060
 H464 H 0.87032 0.85144 0.53545
 H465 H 0.70204 0.87772 0.44357
 H466 H 0.64715 0.85648 0.42031
 H467 H 0.65962 0.76401 0.48659
 H468 H 0.71549 0.78725 0.50862
 C469 C 0.71150 0.91294 0.59496
 C470 C 0.79033 0.92919 0.40548
 C471 C 0.64877 0.80872 0.45193
 C472 C 0.85914 0.79913 0.51821
 C473 C -0.02698 0.29396 0.40583
 H474 H -0.00195 0.30664 0.40463
 C475 C -0.05318 0.30631 0.42824
 H476 H -0.04732 0.32765 0.44502
 C477 C -0.06447 0.25084 0.38504
 H478 H -0.06889 0.22957 0.36771
 C479 C -0.09190 0.26318 0.40617
 H480 H -0.11721 0.25126 0.40424
 N481 N -0.03279 0.26632 0.38526
 C482 C 0.06963 0.21905 0.36069
 H483 H 0.06511 0.21357 0.33370
 C484 C 0.10059 0.20646 0.37681
 H485 H 0.12006 0.19172 0.36195
 C486 C 0.04919 0.24361 0.41321
 H487 H 0.02880 0.25703 0.42777
 C488 C 0.08007 0.23195 0.43025
 H489 H 0.08312 0.23678 0.45762
 Zn490 Zn 0.00322 0.25203 0.35425
 N491 N 0.04478 0.23756 0.37884
 C492 C 0.04481 0.29382 0.30978
 N493 N 0.01241 0.29075 0.32439
 C494 C -0.01266 0.31715 0.32138
 C495 C -0.00478 0.34899 0.30511
 C496 C 0.05378 0.32518 0.29321
 C497 C -0.01122 0.18206 0.34693
 C498 C -0.02014 0.15161 0.33030
 C499 C -0.02959 0.18600 0.27739
 C500 C -0.01987 0.21584 0.29498
 N501 N -0.01108 0.21326 0.32915
 H502 H 0.06440 0.27269 0.31243
 H503 H -0.03838 0.31406 0.33289
 H504 H -0.02459 0.37021 0.30417
 H505 H 0.08042 0.32773 0.28365
 H506 H -0.00415 0.18090 0.37412
 H507 H -0.02041 0.12706 0.34499
 H508 H -0.03681 0.18826 0.25024
 H509 H -0.01947 0.24101 0.28146
 C510 C 0.10613 0.21307 0.41197
 C511 C -0.08651 0.29133 0.42834
 C512 C -0.02944 0.15335 0.29508
 C513 C 0.02917 0.35366 0.29173
 C514 C 1.06048 0.80507 0.07267
 H515 H 1.03477 0.81826 0.07073
 C516 C 1.08928 0.81894 0.05511
 H517 H 1.08524 0.84243 0.03908
 C518 C 1.09696 0.75892 0.09676
 H519 H 1.10016 0.73617 0.11384
 C520 C 1.12637 0.77182 0.07970
 H521 H 1.15182 0.75857 0.08386
 N522 N 1.06489 0.77583 0.09333
 C523 C 0.96221 0.73289 0.11513
 H524 H 0.96511 0.73070 0.14302
 C525 C 0.93186 0.72139 0.09947
 H526 H 0.91182 0.70976 0.11559
 C527 C 0.98579 0.74963 0.06056
 H528 H 1.00703 0.76056 0.04562
 C529 C 0.95571 0.73823 0.04368
 H530 H 0.95411 0.74079 0.01577
 Zn531 Zn 1.02707 0.76155 0.12172
 N532 N 0.98823 0.74701 0.09572
 C533 C 0.97858 0.81347 0.14573
 N534 N 1.01235 0.80036 0.14884
 C535 C 1.03579 0.81528 0.17023
 C536 C 1.02495 0.84333 0.19096
 C537 C 0.96677 0.84147 0.16577
 C538 C 1.04761 0.69131 0.13419
 C539 C 1.05755 0.66103 0.15341
 C540 C 1.05565 0.69532 0.20530
 C541 C 1.04522 0.72484 0.18517
 N542 N 1.04182 0.72244 0.15020
 H543 H 0.96066 0.80238 0.12763
 H544 H 1.06277 0.80506 0.17150
 H545 H 1.04351 0.85463 0.20845
 H546 H 0.93983 0.85162 0.16305
 H547 H 1.04438 0.69006 0.10639
 H548 H 1.06236 0.63657 0.14019
 H549 H 1.05832 0.69769 0.23310
 H550 H 1.03974 0.74950 0.19761
 C551 C 0.92807 0.72416 0.06328
 C552 C 1.12299 0.80267 0.05909
 C553 C 1.06182 0.66288 0.18944
 C554 C 0.98990 0.85615 0.18913
 C555 C 0.54014 0.29106 0.57364
 H556 H 0.51373 0.30098 0.56801
 C557 C 0.56871 0.30699 0.55752
 H558 H 0.56381 0.32842 0.53902
 C559 C 0.57895 0.25235 0.60548
 H560 H 0.58323 0.23206 0.62517
 C561 C 0.60809 0.26717 0.58978
 H562 H 0.63428 0.25761 0.59736
 N563 N 0.54567 0.26439 0.59740
 C564 C 0.46022 0.19786 0.59756
 H565 H 0.47295 0.17944 0.61553
 C566 C 0.43282 0.18642 0.57731
 H567 H 0.42550 0.15928 0.57971
 C568 C 0.45184 0.25584 0.57493
 H569 H 0.45850 0.28311 0.57500
 C570 C 0.42386 0.24551 0.55431
 H571 H 0.40982 0.26478 0.53790
 Zn572 Zn 0.50802 0.24542 0.62389
 N573 N 0.47009 0.23182 0.59536
 C574 C 0.46270 0.27191 0.67557
 N575 N 0.48993 0.28008 0.65437
 C576 C 0.50269 0.31298 0.65336
 C577 C 0.48752 0.33937 0.67370
 C578 C 0.44739 0.29723 0.69706
 C579 C 0.53924 0.17760 0.62944
 C580 C 0.55062 0.14591 0.64536
 C581 C 0.53672 0.17086 0.70093
 C582 C 0.52509 0.20196 0.68389
 N583 N 0.52602 0.20460 0.64868
 H584 H 0.45282 0.24564 0.67573
 H585 H 0.52427 0.31912 0.63629
 H586 H 0.49752 0.36548 0.67116
 H587 H 0.42632 0.28961 0.71423
 H588 H 0.54016 0.18051 0.60149
 H589 H 0.56080 0.12472 0.62956
 H590 H 0.53550 0.16905 0.72896
 H591 H 0.51515 0.22382 0.69882
 C592 C 0.41458 0.21020 0.55494
 C593 C 0.60325 0.29521 0.56582
 C594 C 0.54920 0.14217 0.68156
 C595 C 0.45936 0.33182 0.69609
 C596 C 0.48814 0.76500 0.91011
 H597 H 0.51457 0.76447 0.92043
 C598 C 0.46051 0.77994 0.92945
 H599 H 0.46613 0.79076 0.95447
 C600 C 0.44837 0.75098 0.86565
 H601 H 0.44375 0.73934 0.84083
 C602 C 0.42002 0.76555 0.88412
 H603 H 0.39389 0.76566 0.87283
 N604 N 0.48174 0.75131 0.87856
 C605 C 0.57016 0.68621 0.88406
 H606 H 0.55648 0.66532 0.87213
 C607 C 0.59897 0.67783 0.90559
 H608 H 0.60704 0.65051 0.90987
 C609 C 0.57715 0.74695 0.89218
 H610 H 0.56848 0.77389 0.88676
 C611 C 0.60634 0.73973 0.91368
 H612 H 0.61980 0.76125 0.92499
 Zn613 Zn 0.51823 0.73088 0.85082
 N614 N 0.55924 0.72029 0.87839
 C615 C 0.56388 0.76900 0.80729
 N616 N 0.52941 0.76365 0.81484
 C617 C 0.50331 0.78554 0.80168
 C618 C 0.51155 0.81559 0.78240
 C619 C 0.57330 0.79864 0.78785
 C620 C 0.48661 0.66784 0.85898
 C621 C 0.47176 0.63636 0.85066
 C622 C 0.48561 0.64785 0.79042
 C623 C 0.50035 0.67950 0.80001
 N624 N 0.50060 0.68867 0.83390
 H625 H 0.58427 0.75138 0.81803
 H626 H 0.47610 0.78099 0.80782
 H627 H 0.49049 0.83366 0.77368
 H628 H 0.60097 0.80353 0.78401
 H629 H 0.48683 0.67597 0.88566
 H630 H 0.46027 0.62085 0.87133
 H631 H 0.48584 0.64079 0.76341
 H632 H 0.51147 0.69667 0.78049
 C633 C 0.61715 0.70473 0.92114
 C634 C 0.42588 0.78041 0.91647
 C635 C 0.47097 0.62576 0.81600
 C636 C 0.54698 0.82309 0.77631
 C637 C 0.41240 -0.16711 0.33926
 C638 C 0.44556 -0.18172 0.33046
 C639 C 0.46166 -0.16847 0.30002
 C640 C 0.44602 -0.14016 0.28076
 C641 C 0.41411 -0.12383 0.29178
 C642 C 0.39720 -0.13900 0.32041
 C643 C 0.38319 -0.12176 0.35217
 C644 C 0.39994 -0.15232 0.37289
 H645 H 0.48698 -0.17934 0.29171
 H646 H 0.45950 -0.13049 0.25793
 H647 H 0.35388 -0.12103 0.35306
 H648 H 0.39548 -0.09629 0.35698
 H649 H 0.38009 -0.16883 0.38592
 H650 H 0.42205 -0.14469 0.38973
 C651 C 0.96902 0.37073 0.82338
 C652 C 0.95331 0.33814 0.82064
 C653 C 0.92312 0.33686 0.79933
 C654 C 0.90957 0.36708 0.78147
 C655 C 0.92624 0.39942 0.78379
 C656 C 0.95574 0.40048 0.80544
 C657 C 0.99153 0.41248 0.79618
 C658 C 1.00623 0.38003 0.81534
 H659 H 0.90951 0.31254 0.79711
 H660 H 0.88570 0.36512 0.76638
 H661 H 0.99763 0.43733 0.80905
 H662 H 0.99664 0.41229 0.76779
 H663 H 1.02132 0.38654 0.83887
 H664 H 1.01982 0.36081 0.79813
 C665 C 0.00538 1.18218 0.85048
 C666 C 0.00570 1.21352 0.83082
 C667 C 0.02531 1.21316 0.79969
 C668 C 0.04044 1.18155 0.78727
 C669 C 0.03646 1.14946 0.80567
 C670 C 0.02039 1.15105 0.83830
 C671 C -0.00849 1.12980 0.85313
 C672 C -0.02495 1.16387 0.86647
 H673 H 0.02871 1.23706 0.78458
 H674 H 0.05486 1.18228 0.76306
 H675 H 0.00114 1.11151 0.87423
 H676 H -0.02454 1.11767 0.83282
 H677 H -0.02487 1.16506 0.89524
 H678 H -0.05056 1.17156 0.85393
 C679 C 0.52777 0.67321 0.35100
 C680 C 0.51440 0.70245 0.33177
 C681 C 0.52090 0.70247 0.29556
 C682 C 0.53505 0.67235 0.27939
 C683 C 0.54296 0.64137 0.29885
 C684 C 0.54126 0.64348 0.33496
 C685 C 0.52787 0.61940 0.36258
 C686 C 0.51327 0.65203 0.38043
 H687 H 0.51450 0.72525 0.27926
 H688 H 0.53852 0.67288 0.25151
 H689 H 0.54963 0.60552 0.37727
 H690 H 0.50671 0.60248 0.35349
 H691 H 0.52680 0.65674 0.40537
 H692 H 0.48409 0.65348 0.38156
 C693 C 0.51563 0.32546 0.19583
 C694 C 0.51094 0.32341 0.15983
 C695 C 0.51989 0.35287 0.13918
 C696 C 0.53140 0.38362 0.15424
 C697 C 0.53431 0.38592 0.19050
 C698 C 0.52705 0.35603 0.21064
 C699 C 0.50230 0.35343 0.24045
 C700 C 0.48937 0.32040 0.22440
 H701 H 0.51864 0.35179 0.11117
 H702 H 0.53867 0.40529 0.13739
 H703 H 0.48206 0.37532 0.24061
 H704 H 0.51643 0.34838 0.26541
 H705 H 0.46162 0.32301 0.21511
 H706 H 0.49567 0.29651 0.24066
 C707 C 0.00760 0.84427 0.68994
 C708 C 0.01327 0.83769 0.65446
 C709 C 0.02640 0.86581 0.63403
 C710 C 0.03663 0.89700 0.64909
 C711 C 0.03440 0.90121 0.68512
 C712 C 0.01768 0.87539 0.70471
 C713 C 0.02972 0.85737 0.73751
 C714 C 0.01912 0.82332 0.72159
 H715 H 0.03095 0.86279 0.60651
 H716 H 0.04865 0.91681 0.63284
 H717 H 0.01305 0.86513 0.75997
 H718 H 0.05864 0.85875 0.74170
 H719 H -0.00336 0.81140 0.73544
 H720 H 0.04188 0.80492 0.71644
 C721 C 0.95071 0.71764 0.68817
 C722 C 0.97176 0.71474 0.65826
 C723 C 0.97651 0.68053 0.64498
 C724 C 0.95719 0.65233 0.65807
 C725 C 0.93216 0.65718 0.68471
 C726 C 0.93089 0.69001 0.70043
 C727 C 0.90084 0.71413 0.71050
 C728 C 0.92273 0.74434 0.69772
 H729 H 0.99456 0.67498 0.62407
 H730 H 0.96068 0.62704 0.64606
 H731 H 0.89639 0.71398 0.73899
 H732 H 0.87686 0.71172 0.69437
 H733 H 0.93118 0.76122 0.71908
 H734 H 0.91117 0.75880 0.67480
 C735 C 0.48189 0.16291 0.15196
 C736 C 0.47306 0.19646 0.16372
 C737 C 0.44455 0.19993 0.18693
 C738 C 0.42791 0.17013 0.20022
 C739 C 0.43976 0.13586 0.19123
 C740 C 0.46598 0.13340 0.16560
 C741 C 0.49991 0.11220 0.16536
 C742 C 0.51721 0.14450 0.15028
 H743 H 0.43482 0.22567 0.19458
 H744 H 0.40573 0.17434 0.21741
 H745 H 0.49936 0.09029 0.14687
 H746 H 0.50932 0.10464 0.19190
 H747 H 0.52634 0.14127 0.12311
 H748 H 0.53675 0.15572 0.16799
 C749 C 0.33822 0.44983 -0.12271
 C750 C 0.32080 0.45676 -0.15433
 C751 C 0.28360 0.45484 -0.15379
 C752 C 0.26601 0.44213 -0.12399
 C753 C 0.28508 0.43064 -0.09401
 C754 C 0.32105 0.43757 -0.09359
 C755 C 0.35274 0.41611 -0.08165
 C756 C 0.37174 0.42993 -0.11362
 H757 H 0.26782 0.46107 -0.17651
 H758 H 0.23770 0.44002 -0.12525
 H759 H 0.34850 0.38740 -0.08206
 H760 H 0.36383 0.42567 -0.05708
 H761 H 0.37897 0.40888 -0.13200
 H762 H 0.39334 0.44767 -0.10736
 C763 C 0.84335 0.99186 0.35102
 C764 C 0.83727 0.98058 0.31721
 C765 C 0.80973 0.95709 0.31282
 C766 C 0.79205 0.94281 0.34153
 C767 C 0.80208 0.95075 0.37554
 C768 C 0.82600 0.97745 0.37944
 C769 C 0.85801 0.97814 0.40185
 C770 C 0.87706 0.99379 0.37083
 H771 H 0.80367 0.94740 0.28745
 H772 H 0.77247 0.92344 0.33711
 H773 H 0.86831 0.95140 0.40963
 H774 H 0.85443 0.99672 0.42346
 H775 H 0.89843 0.97614 0.36059
 H776 H 0.88457 1.02133 0.37476
 C777 C 0.87236 0.01808 1.16223
 C778 C 0.85203 0.00255 1.18837
 C779 C 0.81858 -0.00923 1.17868
 C780 C 0.80393 0.00027 1.14617
 C781 C 0.82280 0.02081 1.12234
 C782 C 0.85807 0.02689 1.12988
 C783 C 0.87755 0.06010 1.12709
 C784 C 0.89316 0.05062 1.16249
 H785 H 0.80266 -0.02387 1.19676
 H786 H 0.77700 -0.00630 1.14063
 H787 H 0.85972 0.08394 1.12708
 H788 H 0.89742 0.05940 1.10589
 H789 H 0.88431 0.06892 1.18299
 H790 H 0.92207 0.04477 1.16161
 C791 C 0.29632 0.51456 0.71506
 C792 C 0.33002 0.49856 0.71880
 C793 C 0.34935 0.49222 0.68815
 C794 C 0.33719 0.50604 0.65591
 C795 C 0.30521 0.52612 0.65354
 C796 C 0.28420 0.52787 0.68329
 C797 C 0.26610 0.55890 0.69936
 C798 C 0.27942 0.54437 0.73419
 H799 H 0.37436 0.47763 0.68896
 H800 H 0.35347 0.50219 0.63315
 H801 H 0.23695 0.55845 0.69668
 H802 H 0.27795 0.58411 0.69144
 H803 H 0.25787 0.53567 0.75154
 H804 H 0.29905 0.56109 0.74652
 C805 C 0.16611 0.49834 0.37053
 C806 C 0.17733 0.50856 0.33719
 C807 C 0.20942 0.52611 0.33480
 C808 C 0.22678 0.53681 0.36476
 C809 C 0.21234 0.53045 0.39789
 C810 C 0.18338 0.50884 0.40011
 C811 C 0.14978 0.51408 0.41971
 C812 C 0.13076 0.50280 0.38744
 H813 H 0.21965 0.53401 0.30971
 H814 H 0.25001 0.55229 0.36184
 H815 H 0.14411 0.54203 0.42612
 H816 H 0.14781 0.49508 0.44187
 H817 H 0.11406 0.52420 0.37506
 H818 H 0.11761 0.47743 0.39131
 C819 C 0.65660 -0.00850 0.84993
 C820 C 0.67430 -0.00729 0.81796
 C821 C 0.70574 0.01160 0.81653
 C822 C 0.72004 0.02588 0.84652
 C823 C 0.70283 0.02256 0.87869
 C824 C 0.67056 0.00603 0.87937
 C825 C 0.65955 -0.02331 0.90257
 C826 C 0.64473 -0.03970 0.87055
 H827 H 0.71865 0.01661 0.79199
 H828 H 0.74385 0.04057 0.84424
 H829 H 0.63887 -0.01466 0.92127
 H830 H 0.68233 -0.03862 0.91415
 H831 H 0.61550 -0.04105 0.87110
 H832 H 0.65906 -0.06450 0.86345
 C833 C 0.65229 0.96145 0.65990
 C834 C 0.67154 0.95860 0.69085
 C835 C 0.70373 0.93887 0.69021
 C836 C 0.71703 0.92512 0.65913
 C837 C 0.69834 0.92979 0.62749
 C838 C 0.66529 0.94772 0.62903
 C839 C 0.65133 0.97931 0.60880
 C840 C 0.63681 0.99369 0.64238
 H841 H 0.71918 0.93409 0.71348
 H842 H 0.74260 0.91164 0.66014
 H843 H 0.63028 0.97268 0.59027
 H844 H 0.67263 0.99535 0.59758
 H845 H 0.60751 0.99472 0.64318
 H846 H 0.64947 1.01802 0.65052
 C847 C 0.15919 0.47956 0.18034
 C848 C 0.16871 0.46881 0.21389
 C849 C 0.18927 0.43705 0.21695
 C850 C 0.19834 0.41731 0.18729
 C851 C 0.18753 0.42899 0.15365
 C852 C 0.16865 0.46108 0.15183
 C853 C 0.14863 0.48547 0.12763
 C854 C 0.13807 0.50652 0.15986
 H855 H 0.19726 0.42672 0.24225
 H856 H 0.21361 0.39291 0.19078
 H857 H 0.12609 0.47272 0.11531
 H858 H 0.16615 0.49983 0.10958
 H859 H 0.10936 0.50605 0.16547
 H860 H 0.14968 0.53284 0.16052
 C861 C -0.14488 0.35685 0.47628
 C862 C -0.17660 0.33954 0.48059
 C863 C -0.17569 0.30322 0.47373
 C864 C -0.14541 0.28662 0.45938
 C865 C -0.11558 0.30606 0.45031
 C866 C -0.11534 0.34067 0.46178
 C867 C -0.10488 0.37395 0.44392
 C868 C -0.13718 0.39174 0.46012
 H869 H -0.19893 0.28790 0.47672
 H870 H -0.14649 0.25907 0.45357
 H871 H -0.10645 0.37263 0.41519
 H872 H -0.07973 0.38366 0.45413
 H873 H -0.15709 0.40117 0.44061
 H874 H -0.13050 0.41125 0.47982
 C875 C 0.37271 0.84535 0.97013
 C876 C 0.33761 0.83543 0.96572
 C877 C 0.33299 0.80318 0.94892
 C878 C 0.36183 0.78398 0.93488
 C879 C 0.39623 0.79668 0.93637
 C880 C 0.40106 0.82638 0.95617
 C881 C 0.42046 0.85871 0.94730
 C882 C 0.38948 0.87959 0.96240
 H883 H 0.30679 0.79376 0.94472
 H884 H 0.35678 0.76018 0.92125
 H885 H 0.42359 0.86300 0.91886
 H886 H 0.44508 0.86036 0.96270
 H887 H 0.37457 0.89599 0.94274
 H888 H 0.39650 0.89340 0.98635
 C889 C 1.21431 0.81162 0.02018
 C890 C 1.21685 0.84789 0.01335
 C891 C 1.18801 0.86957 0.02463
 C892 C 1.15784 0.85513 0.03981
 C893 C 1.15493 0.81850 0.04380
 C894 C 1.18443 0.79751 0.03500
 C895 C 1.18628 0.76612 0.01270
 C896 C 1.21880 0.78138 -0.00378
 H897 H 1.18759 0.89771 0.02167
 H898 H 1.13664 0.87283 0.04801
 H899 H 1.16352 0.76524 -0.00540
 H900 H 1.19210 0.74149 0.02796
 H901 H 1.21500 0.78940 -0.03148
 H902 H 1.24313 0.76506 0.00179
 C903 C 0.69511 0.30799 0.53074
 C904 C 0.69574 0.34406 0.52246
 C905 C 0.66525 0.36466 0.53090
 C906 C 0.63512 0.34912 0.54509
 C907 C 0.63446 0.31250 0.55103
 C908 C 0.66549 0.29282 0.54477
 C909 C 0.67033 0.26050 0.52407
 C910 C 0.70262 0.27696 0.50839
 H911 H 0.66388 0.39265 0.52614
 H912 H 0.61229 0.36578 0.55108
 H913 H 0.64868 0.25742 0.50507
 H914 H 0.67679 0.23691 0.54069
 H915 H 0.69979 0.28354 0.48026
 H916 H 0.72751 0.26234 0.51575
 C917 C 0.32386 0.20234 0.51620
 C918 C 0.32441 0.16719 0.50606
 C919 C 0.35756 0.14903 0.50562
 C920 C 0.38781 0.16437 0.51856
 C921 C 0.38560 0.19793 0.53317
 C922 C 0.35377 0.21740 0.52922
 C923 C 0.33300 0.23771 0.55535
 C924 C 0.30027 0.22122 0.54121
 H925 H 0.35977 0.12196 0.49780
 H926 H 0.41230 0.14883 0.51961
 H927 H 0.33348 0.26650 0.55012
 H928 H 0.33939 0.22921 0.58248
 H929 H 0.28190 0.24060 0.52798
 H930 H 0.28767 0.20313 0.56012
 C931 C 0.86937 0.67102 0.00635
 C932 C 0.83611 0.67523 0.02210
 C933 C 0.83346 0.69723 0.05094
 C934 C 0.86290 0.71438 0.06325
 C935 C 0.89603 0.71055 0.04688
 C936 C 0.89860 0.68847 0.01836
 C937 C 0.91042 0.69723 -0.01765
 C938 C 0.87899 0.67816 -0.03067
 H939 H 0.80856 0.70062 0.06445
 H940 H 0.85969 0.73065 0.08575
 H941 H 0.93610 0.68388 -0.02398
 H942 H 0.90867 0.72588 -0.02387
 H943 H 0.88682 0.65382 -0.04449
 H944 H 0.85917 0.69565 -0.04445
 C945 C 0.70708 0.70536 0.96388
 C946 C 0.70900 0.67304 0.98207
 C947 C 0.67717 0.65539 0.98642
 C948 C 0.64655 0.66673 0.96809
 C949 C 0.64693 0.69621 0.94525
 C950 C 0.67684 0.71661 0.94595
 C951 C 0.69747 0.73236 0.91697
 C952 C 0.73065 0.72032 0.93669
 H953 H 0.67617 0.63179 1.00247
 H954 H 0.62319 0.65139 0.97049
 H955 H 0.69365 0.76141 0.91526
 H956 H 0.69409 0.71861 0.89214
 H957 H 0.74572 0.74251 0.94646
 H958 H 0.74680 0.69995 0.92317
 C959 C 0.17912 0.14963 0.44173
 C960 C 0.19647 0.16786 0.46744
 C961 C 0.18594 0.20340 0.47198
 C962 C 0.15695 0.21869 0.45353
 C963 C 0.13842 0.19901 0.42952
 C964 C 0.15137 0.16508 0.42285
 C965 C 0.13191 0.13197 0.42144
 C966 C 0.16172 0.11494 0.44278
 H967 H 0.19936 0.21909 0.49053
 H968 H 0.14868 0.24560 0.45849
 H969 H 0.13061 0.12194 0.39466
 H970 H 0.10630 0.13353 0.43548
 H971 H 0.17691 0.09440 0.42852
 H972 H 0.15306 0.10691 0.46922
 C973 C 0.59764 0.07986 0.74414
 C974 C 0.59479 0.04653 0.72942
 C975 C 0.57140 0.04486 0.70085
 C976 C 0.55532 0.07568 0.68588
 C977 C 0.56167 0.10900 0.69924
 C978 C 0.58135 0.10994 0.72965
 C979 C 0.61145 0.13238 0.73760
 C980 C 0.62969 0.09970 0.75326
 H981 H 0.56578 0.02029 0.68909
 H982 H 0.53879 0.07348 0.66321
 H983 H 0.60430 0.15246 0.75709
 H984 H 0.62469 0.14256 0.71388
 H985 H 0.63350 0.10162 0.78171
 H986 H 0.65356 0.09081 0.73864
 C987 C 1.11086 0.60407 0.25491
 C988 C 1.10141 0.57016 0.24613
 C989 C 1.07379 0.56770 0.22180
 C990 C 1.05987 0.59791 0.20403
 C991 C 1.07283 0.63134 0.21052
 C992 C 1.09681 0.63377 0.23777
 C993 C 1.13094 0.65193 0.23862
 C994 C 1.14646 0.61940 0.25731
 H995 H 1.06347 0.54260 0.21550
 H996 H 1.03978 0.59493 0.18448
 H997 H 1.12945 0.67544 0.25515
 H998 H 1.14223 0.65636 0.21233
 H999 H 1.15410 0.62437 0.28453
 H1000 H 1.16676 0.60485 0.24189
 C1001 C 0.93575 0.90509 0.25520
 C1002 C 0.93675 0.94010 0.24280
 C1003 C 0.96358 0.94738 0.21821
 C1004 C 0.98341 0.91994 0.20263
 C1005 C 0.97714 0.88474 0.21138
 C1006 C 0.95516 0.87821 0.23965
 C1007 C 0.92699 0.85238 0.24479
 C1008 C 0.90538 0.88169 0.26158
 H1009 H 0.96869 0.97385 0.20957
 H1010 H 1.00154 0.92616 0.18186
 H1011 H 0.93513 0.83081 0.26332
 H1012 H 0.91525 0.84377 0.22018
 H1013 H 0.90076 0.87648 0.28967
 H1014 H 0.88147 0.89020 0.24645
 C1015 C 0.39109 0.38123 0.75044
 C1016 C 0.40602 0.41362 0.75565
 C1017 C 0.44111 0.41762 0.74490
 C1018 C 0.45926 0.39067 0.72677
 C1019 C 0.44233 0.35944 0.71817
 C1020 C 0.40853 0.35508 0.73201
 C1021 C 0.37522 0.34515 0.71464
 C1022 C 0.35621 0.37374 0.73501
 H1023 H 0.45431 0.44166 0.75005
 H1024 H 0.48617 0.39493 0.71901
 H1025 H 0.36725 0.31834 0.72248
 H1026 H 0.37549 0.35063 0.68619
 H1027 H 0.33763 0.36335 0.75468
 H1028 H 0.34537 0.39588 0.71844
 C1029 C 0.43139 0.53658 0.82789
 C1030 C 0.41492 0.53075 0.79632
 C1031 C 0.41640 0.55734 0.77034
 C1032 C 0.43540 0.58801 0.77589
 C1033 C 0.45349 0.59258 0.80749
 C1034 C 0.45026 0.56632 0.83319
 C1035 C 0.47834 0.54619 0.85317
 C1036 C 0.45756 0.51354 0.84738
 H1037 H 0.40208 0.55493 0.74628
 H1038 H 0.43517 0.60829 0.75578
 H1039 H 0.47905 0.55375 0.88081
 H1040 H 0.50429 0.54581 0.83971
 H1041 H 0.44621 0.50239 0.87164
 H1042 H 0.47140 0.49411 0.83057
 C1043 C -0.08687 0.09092 0.24909
 C1044 C -0.07292 0.05831 0.26088
 C1045 C -0.03928 0.05711 0.27623
 C1046 C -0.02302 0.08846 0.28454
 C1047 C -0.04028 0.12136 0.27756
 C1048 C -0.07070 0.12181 0.25696
 C1049 C -0.10529 0.14118 0.26155
 C1050 C -0.12299 0.10733 0.25297
 H1051 H -0.02729 0.03221 0.28496
 H1052 H 0.00140 0.08687 0.29913
 H1053 H -0.10969 0.16230 0.24147
 H1054 H -0.10981 0.14942 0.28871
 H1055 H -0.13766 0.10909 0.22802
 H1056 H -0.13783 0.09604 0.27517
 C1057 C 0.04785 0.44949 0.29582
 C1058 C 0.07781 0.45175 0.27483
 C1059 C 0.08455 0.42455 0.25133
 C1060 C 0.06602 0.39322 0.25408
 C1061 C 0.04015 0.38895 0.28005
 C1062 C 0.02917 0.41901 0.29798
 C1063 C 0.02064 0.42420 0.33538
 C1064 C 0.04094 0.45785 0.33290
 H1065 H 0.10654 0.42585 0.23350
 H1066 H 0.07415 0.37142 0.23807
 H1067 H 0.03339 0.40367 0.35265
 H1068 H -0.00809 0.42899 0.33970
 H1069 H 0.06488 0.45673 0.34945
 H1070 H 0.02378 0.48193 0.33554
 C1071 C 0.55299 0.92134 0.76808
 C1072 C 0.58569 0.92499 0.75198
 C1073 C 0.60084 0.89544 0.73555
 C1074 C 0.58643 0.86208 0.74054
 C1075 C 0.55643 0.85793 0.76177
 C1076 C 0.53850 0.88865 0.77253
 C1077 C 0.52370 0.89785 0.80721
 C1078 C 0.53955 0.93368 0.80224
 H1079 H 0.62581 0.89737 0.72212
 H1080 H 0.60045 0.83931 0.73035
 H1081 H 0.53606 0.88184 0.82875
 H1082 H 0.49437 0.89901 0.80718
 H1083 H 0.56091 0.93842 0.82108
 H1084 H 0.51933 0.95540 0.79922
 C1085 C 0.75566 0.59510 0.10000
 C1086 C 0.74723 0.59043 0.06500
 C1087 C 0.72288 0.56435 0.05791
 C1088 C 0.70476 0.54726 0.08513
 C1089 C 0.71081 0.55557 0.12009
 C1090 C 0.73815 0.57806 0.12666
 C1091 C 0.73842 0.60922 0.14932
 C1092 C 0.75750 0.62804 0.12015
 H1093 H 0.71670 0.55786 0.03153
 H1094 H 0.68509 0.52859 0.07871
 H1095 H 0.75505 0.60427 0.17277
 H1096 H 0.71150 0.62055 0.15434
 H1097 H 0.78503 0.63410 0.12709
 H1098 H 0.74169 0.65031 0.10816
 C1099 C 0.19554 1.09211 0.55911
 C1100 C 0.23226 1.09015 0.55648
 C1101 C 0.25123 1.07216 0.58333
 C1102 C 0.23382 1.06018 0.61347
 C1103 C 0.19709 1.06651 0.61775
 C1104 C 0.17847 1.08081 0.58895
 C1105 C 0.15197 1.11081 0.58685
 C1106 C 0.17067 1.12312 0.55419
 H1107 H 0.27963 1.06860 0.58167
 H1108 H 0.24945 1.04707 0.63370
 H1109 H 0.15419 1.12904 0.60877
 H1110 H 0.12489 1.10201 0.58177
 H1111 H 0.18376 1.14852 0.55707
 H1112 H 0.15433 1.12132 0.53046
 C1113 C 0.21704 0.94215 0.92958
 C1114 C 0.24211 0.91496 0.92317
 C1115 C 0.24540 0.90428 0.88830
 C1116 C 0.22694 0.92225 0.86132
 C1117 C 0.20510 0.95194 0.86795
 C1118 C 0.19927 0.96036 0.90267
 C1119 C 0.20146 0.99465 0.92026
 C1120 C 0.22065 0.97486 0.94971
 H1121 H 0.26187 0.88179 0.88135
 H1122 H 0.23037 0.91335 0.83502
 H1123 H 0.17505 1.00552 0.92784
 H1124 H 0.21847 1.01340 0.90625
 H1125 H 0.20515 0.97439 0.97417
 H1126 H 0.24860 0.98213 0.95266
 C1127 C 0.69408 0.43373 0.43275
 C1128 C 0.72953 0.42224 0.43177
 C1129 C 0.74972 0.43347 0.40301
 C1130 C 0.73343 0.45059 0.37420
 C1131 C 0.69669 0.45740 0.37368
 C1132 C 0.67806 0.45091 0.40440
 C1133 C 0.64436 0.43259 0.40993
 C1134 C 0.66187 0.41378 0.44098
 H1135 H 0.77786 0.42784 0.40194
 H1136 H 0.74934 0.45716 0.35182
 H1137 H 0.63834 0.41477 0.38847
 H1138 H 0.62237 0.45104 0.41725
 H1139 H 0.66603 0.38502 0.43765
 H1140 H 0.64986 0.42147 0.46610
 C1141 C 0.73605 0.44350 0.56777
 C1142 C 0.76328 0.43891 0.54362
 C1143 C 0.79272 0.46006 0.54682
 C1144 C 0.79707 0.48035 0.57636
 C1145 C 0.77242 0.47961 0.60386
 C1146 C 0.74092 0.46244 0.59769
 C1147 C 0.71949 0.43770 0.61891
 C1148 C 0.71374 0.41754 0.58598
 H1149 H 0.81376 0.45877 0.52784
 H1150 H 0.82139 0.49405 0.57894
 H1151 H 0.69489 0.45056 0.62897
 H1152 H 0.73497 0.42147 0.63814
 H1153 H 0.68591 0.41955 0.57700
 H1154 H 0.72598 0.39055 0.58667
 C1155 C 0.31676 -0.05922 0.04847
 C1156 C 0.28443 -0.06893 0.03459
 C1157 C 0.25363 -0.05810 0.05294
 C1158 C 0.25580 -0.03795 0.08312
 C1159 C 0.28854 -0.02662 0.09486
 C1160 C 0.31877 -0.03864 0.07748
 C1161 C 0.34855 -0.01861 0.06263
 C1162 C 0.34653 -0.04134 0.03098
 H1163 H 0.22785 -0.06591 0.04522
 H1164 H 0.23191 -0.03115 0.09723
 H1165 H 0.37332 -0.02330 0.07771
 H1166 H 0.34125 0.00944 0.05689
 H1167 H 0.37013 -0.05918 0.02797
 H1168 H 0.33811 -0.02649 0.00704
 C1169 C 0.24727 0.10000 0.40385
 C1170 C 0.25955 0.08296 0.43431
 C1171 C 0.27230 0.04799 0.43215
 C1172 C 0.27757 0.03277 0.39952
 C1173 C 0.27038 0.05248 0.36864
 C1174 C 0.25228 0.08494 0.37171
 C1175 C 0.25925 0.11949 0.35450
 C1176 C 0.25385 0.13599 0.38965
 H1177 H 0.28135 0.03372 0.45528
 H1178 H 0.29036 0.00694 0.39842
 H1179 H 0.23837 0.12759 0.33541
 H1180 H 0.28674 0.12102 0.34468
 H1181 H 0.23000 0.15376 0.39050
 H1182 H 0.27821 0.14712 0.40015
 C1183 C 0.75244 0.58374 0.92432
 C1184 C 0.78115 0.58394 0.94721
 C1185 C 0.81185 0.56426 0.93816
 C1186 C 0.81586 0.55125 0.90455
 C1187 C 0.78920 0.55758 0.87947
 C1188 C 0.75641 0.57081 0.89100
 C1189 C 0.73248 0.59898 0.87561
 C1190 C 0.72813 0.61312 0.91195
 H1191 H 0.83413 0.56205 0.95574
 H1192 H 0.84111 0.53946 0.89719
 H1193 H 0.70786 0.58832 0.86518
 H1194 H 0.74640 0.61698 0.85759
 H1195 H 0.70099 0.61072 0.92240
 H1196 H 0.73956 0.63926 0.91494
 C1197 C 0.10305 0.74777 0.60353
 C1198 C 0.06902 0.73440 0.60090
 C1199 C 0.06736 0.69961 0.58891
 C1200 C 0.09788 0.68102 0.57738
 C1201 C 0.13109 0.69652 0.57721
 C1202 C 0.13302 0.72934 0.59222
 C1203 C 0.14960 0.76153 0.57824
 C1204 C 0.11692 0.78189 0.59030
 H1205 H 0.04285 0.68632 0.58766
 H1206 H 0.09521 0.65476 0.56788
 H1207 H 0.15257 0.76154 0.54955
 H1208 H 0.17378 0.76767 0.59284
 H1209 H 0.10083 0.79376 0.56864
 H1210 H 0.12271 0.80007 0.61151
 C1211 C 0.59805 0.23924 1.09107
 C1212 C 0.56341 0.22825 1.08665
 C1213 C 0.55870 0.20078 1.06329
 C1214 C 0.58806 0.18276 1.04852
 C1215 C 0.62278 0.19213 1.05632
 C1216 C 0.62677 0.22189 1.07610
 C1217 C 0.64972 0.22641 1.10691
 C1218 C 0.61834 0.24528 1.12355
 H1219 H 0.53268 0.19223 1.05705
 H1220 H 0.58362 0.16091 1.03183
 H1221 H 0.67185 0.24392 1.10103
 H1222 H 0.65743 0.20104 1.12016
 H1223 H 0.62279 0.27356 1.12753
 H1224 H 0.60773 0.23087 1.14646
 C1225 C 0.88230 0.24031 0.88998
 C1226 C 0.91551 0.24462 0.90454
 C1227 C 0.92150 0.23112 0.93834
 C1228 C 0.89572 0.21140 0.95555
 C1229 C 0.86367 0.20368 0.93886
 C1230 C 0.85731 0.22015 0.90640
 C1231 C 0.84603 0.20512 0.87286
 C1232 C 0.87325 0.22749 0.85499
 H1233 H 0.94623 0.23532 0.95124
 H1234 H 0.90161 0.20177 0.98154
 H1235 H 0.81852 0.21337 0.86571
 H1236 H 0.85226 0.17643 0.87150
 H1237 H 0.86136 0.24877 0.83805
 H1238 H 0.89524 0.21187 0.84308
 C1239 C 0.42753 0.69125 0.41100
 C1240 C 0.44043 0.72267 0.42270
 C1241 C 0.43007 0.73386 0.45582
 C1242 C 0.40452 0.71562 0.47492
 C1243 C 0.38870 0.68610 0.46097
 C1244 C 0.40252 0.67322 0.42984
 C1245 C 0.38338 0.66359 0.39779
 C1246 C 0.41052 0.68364 0.37718
 H1247 H 0.43985 0.75797 0.46580
 H1248 H 0.39584 0.72573 0.49962
 H1249 H 0.35632 0.67581 0.39613
 H1250 H 0.38508 0.63484 0.39351
 H1251 H 0.39922 0.70766 0.36379
 H1252 H 0.42734 0.66647 0.36060
 C1253 C 0.55372 0.81409 0.42371
 C1254 C 0.54739 0.78204 0.40868
 C1255 C 0.57548 0.75636 0.41107
 C1256 C 0.60834 0.76413 0.42653
 C1257 C 0.61389 0.79777 0.43994
 C1258 C 0.58499 0.82140 0.43854
 C1259 C 0.57339 0.85798 0.44693
 C1260 C 0.53792 0.84977 0.43019
 H1261 H 0.57274 0.73086 0.39981
 H1262 H 0.62969 0.74445 0.42663
 H1263 H 0.58804 0.87807 0.43209
 H1264 H 0.57165 0.86194 0.47535
 H1265 H 0.53262 0.86541 0.40596
 H1266 H 0.51565 0.84901 0.44890
 C1267 C 0.03154 0.28279 -0.05101
 C1268 C 0.03398 0.28410 -0.08715
 C1269 C 0.06698 0.29093 -0.10205
 C1270 C 0.09716 0.29307 -0.08119
 C1271 C 0.09501 0.28882 -0.04482
 C1272 C 0.06138 0.28527 -0.03033
 C1273 C 0.04905 0.25824 -0.00498
 C1274 C 0.01653 0.25544 -0.02759
 H1275 H 0.06946 0.29426 -0.12991
 H1276 H 0.12207 0.29844 -0.09357
 H1277 H 0.04310 0.26950 0.02078
 H1278 H 0.06632 0.23399 -0.00435
 H1279 H -0.00810 0.26507 -0.01473
 H1280 H 0.01494 0.22954 -0.04005
 C1281 C 0.42987 0.27442 0.04696
 C1282 C 0.43792 0.25626 0.07807
 C1283 C 0.41112 0.23652 0.09346
 C1284 C 0.37605 0.24049 0.08148
 C1285 C 0.36742 0.26377 0.05350
 C1286 C 0.39550 0.27767 0.03469
 C1287 C 0.40068 0.31395 0.02061
 C1288 C 0.43843 0.31031 0.03393
 H1289 H 0.41637 0.22119 0.11698
 H1290 H 0.35539 0.22786 0.09596
 H1291 H 0.38432 0.33417 0.03422
 H1292 H 0.39893 0.31536 -0.00816
 H1293 H 0.44388 0.32883 0.05489
 H1294 H 0.45834 0.30946 0.01278
 C1295 C 0.93519 0.74702 0.55960
 C1296 C 0.95990 0.77356 0.56156
 C1297 C 0.95563 0.80222 0.53789
 C1298 C 0.92430 0.80758 0.51888
 C1299 C 0.89587 0.78528 0.52428
 C1300 C 0.90347 0.75307 0.54156
 C1301 C 0.88259 0.73397 0.56816
 C1302 C 0.91681 0.72748 0.58803
 H1303 H 0.97511 0.82229 0.53645
 H1304 H 0.92077 0.83161 0.50352
 H1305 H 0.87172 0.70959 0.55794
 H1306 H 0.86322 0.75144 0.58175
 H1307 H 0.92542 0.69929 0.58956
 H1308 H 0.91696 0.74129 0.61305
   
