data_POSCAR
  _audit_creation_date              2014-09-24
  _audit_creation_method            'ToBaCCo'
  _symmetry_space_group_name_H-M    'P1'
  _symmetry_Int_Tables_number       1
  _symmetry_cell_setting            triclinic
  loop_
  _symmetry_equiv_pos_as_xyz
 x,y,z
_cell_length_a 53.4808
_cell_length_b 58.5523
_cell_length_c 54.8153
_cell_angle_alpha 89.920100
_cell_angle_beta 89.903200
_cell_angle_gamma 89.532800
loop_
  _atom_site_label
  _atom_site_type_symbol
  _atom_site_fract_x
  _atom_site_fract_y
  _atom_site_fract_z
C1 C 0.27170 0.37863 0.00916
 C2 C 0.27145 0.37698 0.03404
 C3 C 0.28202 0.35600 0.03981
 N4 N 0.28824 0.34454 0.01919
 C5 C 0.28186 0.35832 0.00033
 C6 C 0.28412 0.34712 0.06371
 C7 C 0.29832 0.32743 0.06939
 C8 C 0.29793 0.31609 0.09162
 C9 C 0.31626 0.29943 0.09056
 C10 C 0.32731 0.30115 0.06774
 N11 N 0.31630 0.31824 0.05500
 C12 C 0.34825 0.28842 0.05973
 C13 C 0.35597 0.28824 0.03510
 C14 C 0.37953 0.28180 0.02697
 C15 C 0.37870 0.28239 0.00200
 C16 C 0.35453 0.28880 -0.00431
 N17 N 0.34076 0.29272 0.01598
 C18 C 0.34484 0.28996 -0.02830
 C19 C 0.32413 0.30433 -0.03380
 C20 C 0.30935 0.30262 -0.05449
 C21 C 0.29213 0.32012 -0.05342
 C22 C 0.29695 0.33231 -0.03227
 N23 N 0.31625 0.32234 -0.02019
 C24 C 0.28378 0.35223 -0.02466
 H25 H 0.26508 0.39329 -0.00105
 H26 H 0.26424 0.38986 0.04635
 H27 H 0.32502 0.32875 -0.00470
 H28 H 0.28608 0.31975 0.10717
 H29 H 0.32116 0.28770 0.10509
 H30 H 0.39568 0.27734 0.03791
 H31 H 0.39421 0.27868 -0.01010
 H32 H 0.27740 0.32316 -0.06655
 H33 H 0.32276 0.32498 0.03862
 H34 H 0.31042 0.28984 -0.06869
 C35 C 0.71381 0.61799 -0.02626
 C36 C 0.71660 0.62170 -0.00177
 C37 C 0.70970 0.64422 0.00239
 N38 N 0.70320 0.65448 -0.01885
 C39 C 0.70593 0.63852 -0.03645
 C40 C 0.71189 0.65576 0.02488
 C41 C 0.70225 0.67796 0.02842
 C42 C 0.70893 0.69260 0.04711
 C43 C 0.69359 0.71153 0.04519
 C44 C 0.67768 0.70768 0.02567
 N45 N 0.68321 0.68725 0.01550
 C46 C 0.65728 0.72184 0.01888
 C47 C 0.64481 0.71963 -0.00366
 C48 C 0.62209 0.72987 -0.00934
 C49 C 0.61709 0.72439 -0.03313
 C50 C 0.63704 0.71118 -0.04129
 N51 N 0.65395 0.70823 -0.02323
 C52 C 0.64038 0.70360 -0.06556
 C53 C 0.65889 0.68751 -0.07232
 C54 C 0.66744 0.68426 -0.09592
 C55 C 0.68528 0.66728 -0.09491
 C56 C 0.68688 0.66026 -0.07070
 N57 N 0.67057 0.67269 -0.05709
 C58 C 0.70291 0.64270 -0.06178
 H59 H 0.71744 0.60200 -0.03555
 H60 H 0.72332 0.60921 0.01126
 H61 H 0.66612 0.67004 -0.03882
 H62 H 0.72315 0.68985 0.06084
 H63 H 0.69382 0.72621 0.05715
 H64 H 0.61026 0.74012 0.00245
 H65 H 0.60068 0.72967 -0.04327
 H66 H 0.69599 0.66116 -0.11035
 H67 H 0.67254 0.67878 0.00255
 H68 H 0.66181 0.69352 -0.11214
 C69 C 0.61046 0.27882 0.97063
 C70 C 0.61021 0.27629 0.99552
 C71 C 0.62537 0.29324 1.00486
 N72 N 0.63478 0.30603 0.98650
 C73 C 0.62590 0.29715 0.96551
 C74 C 0.62800 0.29833 1.02991
 C75 C 0.64292 0.31635 1.03862
 C76 C 0.64045 0.32625 1.06145
 C77 C 0.65884 0.34238 1.06330
 C78 C 0.67250 0.34161 1.04170
 N79 N 0.66257 0.32567 1.02675
 C80 C 0.69409 0.35472 1.03658
 C81 C 0.70454 0.35539 1.01282
 C82 C 0.72948 0.35933 1.00739
 C83 C 0.73131 0.36016 0.98246
 C84 C 0.70748 0.35650 0.97349
 N85 N 0.69117 0.35334 0.99206
 C86 C 0.70059 0.35765 0.94866
 C87 C 0.67858 0.34729 0.93996
 C88 C 0.66806 0.35103 0.91720
 C89 C 0.64793 0.33661 0.91542
 C90 C 0.64671 0.32447 0.93716
 N91 N 0.66556 0.33102 0.95193
 C92 C 0.62969 0.30668 0.94204
 H93 H 0.59985 0.26866 0.95793
 H94 H 0.59931 0.26394 1.00554
 H95 H 0.67101 0.32311 0.96808
 H96 H 0.62671 0.32244 1.07535
 H97 H 0.66160 0.35337 1.07889
 H98 H 0.74479 0.36127 1.02009
 H99 H 0.74826 0.36300 0.97212
 H100 H 0.63581 0.33503 0.89973
 H101 H 0.67031 0.31988 1.01045
 H102 H 0.67434 0.36275 0.90323
 C103 C 0.30374 0.60611 0.99630
 C104 C 0.30972 0.60237 1.02030
 C105 C 0.31825 0.62295 1.02950
 N106 N 0.31826 0.63895 1.01173
 C107 C 0.30939 0.62871 0.99140
 C108 C 0.32440 0.62720 1.05424
 C109 C 0.33950 0.64592 1.06130
 C110 C 0.34158 0.65401 1.08503
 C111 C 0.35796 0.67185 1.08446
 C112 C 0.36550 0.67445 1.06040
 N113 N 0.35414 0.65857 1.04633
 C114 C 0.38241 0.69135 1.05215
 C115 C 0.38347 0.69799 1.02728
 C116 C 0.40268 0.71011 1.01635
 C117 C 0.39512 0.71496 0.99302
 C118 C 0.37195 0.70494 0.99013
 N119 N 0.36484 0.69457 1.01106
 C120 C 0.35688 0.70696 0.96914
 C121 C 0.33642 0.69257 0.96449
 C122 C 0.31920 0.69562 0.94586
 C123 C 0.30430 0.67652 0.94575
 C124 C 0.31279 0.66246 0.96441
 N125 N 0.33241 0.67234 0.97563
 C126 C 0.30413 0.64022 0.96930
 H127 H 0.29590 0.59362 0.98405
 H128 H 0.30780 0.58632 1.02990
 H129 H 0.34436 0.66443 0.98805
 H130 H 0.33184 0.64820 1.10117
 H131 H 0.36303 0.68217 1.10002
 H132 H 0.42033 0.71505 1.02428
 H133 H 0.40562 0.72462 0.97971
 H134 H 0.28933 0.67318 0.93302
 H135 H 0.35770 0.65543 1.02795
 H136 H 0.31800 0.70976 0.93317
 C137 C -0.02534 0.28683 0.37541
 C138 C 0.00019 0.28706 0.37746
 C139 C 0.00779 0.30816 0.36901
 N140 N -0.01219 0.32102 0.36225
 C141 C -0.03257 0.30812 0.36654
 C142 C 0.03276 0.31556 0.36835
 C143 C 0.04039 0.33419 0.35394
 C144 C 0.06334 0.34491 0.35547
 C145 C 0.06462 0.35977 0.33606
 C146 C 0.04222 0.35792 0.32347
 N147 N 0.02760 0.34235 0.33457
 C148 C 0.03680 0.36795 0.30067
 C149 C 0.01258 0.36797 0.29060
 C150 C 0.00694 0.37257 0.26645
 C151 C -0.01864 0.37257 0.26474
 C152 C -0.02781 0.36874 0.28810
 N153 N -0.00864 0.36561 0.30381
 C154 C -0.05333 0.36949 0.29517
 C155 C -0.06178 0.35766 0.31629
 C156 C -0.08476 0.36108 0.32761
 C157 C -0.08596 0.34598 0.34678
 C158 C -0.06366 0.33369 0.34688
 N159 N -0.04901 0.34094 0.32824
 C160 C -0.05758 0.31594 0.36358
 H161 H -0.03717 0.27251 0.37985
 H162 H 0.01186 0.27314 0.38392
 H163 H -0.03215 0.33353 0.32277
 H164 H 0.07803 0.34175 0.36863
 H165 H 0.08066 0.37002 0.33138
 H166 H 0.01986 0.37553 0.25158
 H167 H -0.02925 0.37519 0.24817
 H168 H -0.10140 0.34460 0.35947
 H169 H 0.01145 0.33529 0.32733
 H170 H -0.09914 0.37343 0.32296
 C171 C 0.00569 0.61940 0.72806
 C172 C 0.03117 0.62088 0.72736
 C173 C 0.03716 0.63287 0.70646
 N174 N 0.01598 0.63942 0.69477
 C175 C -0.00356 0.63155 0.70811
 C176 C 0.06183 0.63584 0.69751
 C177 C 0.06782 0.65010 0.67758
 C178 C 0.09070 0.65003 0.66559
 C179 C 0.08957 0.66697 0.64825
 C180 C 0.06602 0.67688 0.65005
 N181 N 0.05293 0.66661 0.66811
 C182 C 0.05782 0.69589 0.63628
 C183 C 0.03249 0.70275 0.63496
 C184 C 0.02372 0.72220 0.62322
 C185 C -0.00184 0.72134 0.62409
 C186 C -0.00790 0.70119 0.63597
 N187 N 0.01310 0.68988 0.64260
 C188 C -0.03235 0.69260 0.63843
 C189 C -0.03793 0.67265 0.65191
 C190 C -0.05963 0.66020 0.64940
 C191 C -0.05868 0.64307 0.66651
 C192 C -0.03622 0.64532 0.67913
 N193 N -0.02371 0.66349 0.66993
 C194 C -0.02906 0.63271 0.70033
 H195 H -0.00411 0.60928 0.74137
 H196 H 0.04377 0.61317 0.74047
 H197 H -0.00796 0.67100 0.67748
 H198 H 0.10665 0.63900 0.66903
 H199 H 0.10452 0.67157 0.63589
 H200 H 0.03443 0.73547 0.61443
 H201 H -0.01446 0.73390 0.61631
 H202 H -0.07329 0.63068 0.66916
 H203 H 0.03595 0.67210 0.67535
 H204 H -0.07473 0.66319 0.63665
 C205 C 0.96354 0.60780 0.29233
 C206 C 0.98909 0.60681 0.29126
 C207 C 0.99774 0.62787 0.29912
 N208 N 0.97822 0.64154 0.30528
 C209 C 0.95734 0.62929 0.30102
 C210 C 1.02305 0.63486 0.29893
 C211 C 1.03048 0.65503 0.31127
 C212 C 1.05085 0.66839 0.30511
 C213 C 1.05179 0.68584 0.32178
 C214 C 1.03174 0.68300 0.33759
 N215 N 1.01866 0.66429 0.33088
 C216 C 1.02634 0.69728 0.35787
 C217 C 1.00235 0.69761 0.36903
 C218 C 0.99693 0.70563 0.39229
 C219 C 0.97144 0.70533 0.39478
 C220 C 0.96207 0.69627 0.37337
 N221 N 0.98101 0.69160 0.35766
 C222 C 0.93646 0.69438 0.36743
 C223 C 0.92827 0.68233 0.34673
 C224 C 0.90447 0.68375 0.33676
 C225 C 0.90345 0.66767 0.31854
 C226 C 0.92657 0.65677 0.31807
 N227 N 0.94156 0.66581 0.33527
 C228 C 0.93268 0.63777 0.30345
 H229 H 0.95095 0.59418 0.28742
 H230 H 0.99992 0.59211 0.28543
 H231 H 0.95872 0.65918 0.34089
 H232 H 1.06340 0.66626 0.28977
 H233 H 1.06538 0.69943 0.32178
 H234 H 1.00991 0.71133 0.40607
 H235 H 0.96122 0.71135 0.41056
 H236 H 0.88733 0.66408 0.30731
 H237 H 1.00377 0.65711 0.34040
 H238 H 0.88922 0.69485 0.34230
 C239 C 0.99601 0.29936 0.59910
 C240 C 1.02155 0.29910 0.59668
 C241 C 1.03120 0.30676 0.61864
 N242 N 1.01244 0.31179 0.63431
 C243 C 0.99092 0.30726 0.62240
 C244 C 1.05687 0.30767 0.62457
 C245 C 1.06605 0.32013 0.64470
 C246 C 1.08987 0.31766 0.65433
 C247 C 1.09203 0.33356 0.67261
 C248 C 1.06950 0.34553 0.67359
 N249 N 1.05375 0.33714 0.65651
 C250 C 1.06422 0.36416 0.68939
 C251 C 1.03939 0.37229 0.69285
 C252 C 1.03271 0.39407 0.70058
 C253 C 1.00719 0.39438 0.70288
 C254 C 0.99907 0.37293 0.69610
 N255 N 1.01871 0.35947 0.68981
 C256 C 0.97399 0.36566 0.69684
 C257 C 0.96549 0.34681 0.68334
 C258 C 0.94243 0.33650 0.68633
 C259 C 0.94036 0.32055 0.66806
 C260 C 0.96223 0.32159 0.65447
 N261 N 0.97746 0.33758 0.66396
 C262 C 0.96684 0.30924 0.63284
 H263 H 0.98275 0.29445 0.58521
 H264 H 1.03180 0.29392 0.58055
 H265 H 0.99362 0.34389 0.65589
 H266 H 1.10423 0.30558 0.64883
 H267 H 1.10836 0.33584 0.68393
 H268 H 1.04488 0.40841 0.70389
 H269 H 0.99589 0.40887 0.70851
 H270 H 0.92442 0.30968 0.66495
 H271 H 1.03656 0.34414 0.65150
 H272 H 0.92836 0.34035 0.69997
 C273 C 0.26176 0.00042 0.35743
 C274 C 0.25977 -0.02275 0.35494
 C275 C 0.28025 -0.02994 0.34136
 N276 N 0.29491 -0.01191 0.33583
 C277 C 0.28366 0.00669 0.34571
 C278 C 0.28664 -0.05301 0.33670
 C279 C 0.30639 -0.05976 0.32107
 C280 C 0.31634 -0.08168 0.31996
 C281 C 0.33443 -0.08152 0.30216
 C282 C 0.33495 -0.05953 0.29265
 N283 N 0.31758 -0.04643 0.30415
 C284 C 0.35131 -0.05200 0.27399
 C285 C 0.35461 -0.02850 0.26882
 C286 C 0.36428 -0.01982 0.24724
 C287 C 0.36693 0.00318 0.25059
 C288 C 0.35825 0.00788 0.27388
 N289 N 0.35057 -0.01145 0.28501
 C290 C 0.35984 0.02935 0.28527
 C291 C 0.34533 0.03518 0.30591
 C292 C 0.34929 0.05381 0.32093
 C293 C 0.33043 0.05376 0.33807
 C294 C 0.31559 0.03501 0.33309
 N295 N 0.32475 0.02385 0.31341
 C296 C 0.29393 0.02886 0.34628
 H297 H 0.24880 0.01127 0.36733
 H298 H 0.24510 -0.03301 0.36280
 H299 H 0.31613 0.01049 0.30425
 H300 H 0.31125 -0.09631 0.33093
 H301 H 0.34611 -0.09596 0.29720
 H302 H 0.36916 -0.02912 0.23084
 H303 H 0.37441 0.01510 0.23741
 H304 H 0.32813 0.06597 0.35272
 H305 H 0.31230 -0.02989 0.29936
 H306 H 0.36425 0.06610 0.31982
 C307 C 0.73714 0.01618 0.64138
 C308 C 0.73572 -0.00710 0.63963
 C309 C 0.71189 -0.01309 0.64734
 N310 N 0.69886 0.00583 0.65398
 C311 C 0.71426 0.02372 0.65022
 C312 C 0.70197 -0.03548 0.64699
 C313 C 0.67918 -0.04044 0.65910
 C314 C 0.66279 -0.05776 0.65295
 C315 C 0.64395 -0.05746 0.67004
 C316 C 0.64890 -0.03954 0.68577
 N317 N 0.67031 -0.02915 0.67889
 C318 C 0.63485 -0.03432 0.70691
 C319 C 0.63560 -0.01277 0.71844
 C320 C 0.62292 -0.00694 0.73967
 C321 C 0.62618 0.01605 0.74295
 C322 C 0.64047 0.02360 0.72348
 N323 N 0.64611 0.00598 0.70851
 C324 C 0.64555 0.04674 0.71836
 C325 C 0.66047 0.05394 0.69853
 C326 C 0.66165 0.07615 0.68980
 C327 C 0.67889 0.07613 0.67113
 C328 C 0.68803 0.05396 0.66919
 N329 N 0.67680 0.04060 0.68603
 C330 C 0.70745 0.04691 0.65333
 H331 H 0.75330 0.02637 0.63687
 H332 H 0.75072 -0.01823 0.63358
 H333 H 0.68191 0.02394 0.69042
 H334 H 0.66404 -0.06932 0.63761
 H335 H 0.62833 -0.06907 0.67066
 H336 H 0.61170 -0.01777 0.75124
 H337 H 0.61807 0.02619 0.75749
 H338 H 0.68429 0.09086 0.66048
 H339 H 0.67983 -0.01669 0.68866
 H340 H 0.65128 0.09091 0.69622
 C341 C 0.24322 1.02169 0.62620
 C342 C 0.24106 0.99836 0.62656
 C343 C 0.26219 0.98995 0.63821
 N344 N 0.27720 1.00730 0.64492
 C345 C 0.26565 1.02672 0.63756
 C346 C 0.26811 0.96660 0.64123
 C347 C 0.28778 0.95882 0.65628
 C348 C 0.29803 0.93701 0.65566
 C349 C 0.31573 0.93601 0.67384
 C350 C 0.31557 0.95719 0.68520
 N351 N 0.29849 0.97097 0.67435
 C352 C 0.32936 0.96278 0.70627
 C353 C 0.33076 0.98537 0.71512
 C354 C 0.33576 0.99129 0.73904
 C355 C 0.33676 1.01467 0.73967
 C356 C 0.33294 1.02228 0.71595
 N357 N 0.32883 1.00430 0.70104
 C358 C 0.33396 1.04532 0.70795
 C359 C 0.32176 1.05241 0.68622
 C360 C 0.32627 1.07270 0.67385
 C361 C 0.30991 1.07359 0.65459
 C362 C 0.29590 1.05380 0.65554
 N363 N 0.30322 1.04096 0.67485
 C364 C 0.27604 1.04873 0.63954
 H365 H 0.22982 1.03356 0.61842
 H366 H 0.22571 0.98871 0.61906
 H367 H 0.29437 1.02640 0.68136
 H368 H 0.29322 0.92324 0.64343
 H369 H 0.32710 0.92124 0.67836
 H370 H 0.33800 0.97993 0.75449
 H371 H 0.33962 1.02487 0.75586
 H372 H 0.30854 1.08728 0.64135
 H373 H 0.29253 0.98684 0.68070
 H374 H 0.34005 1.08554 0.67805
 C375 C 0.63244 1.00388 0.29098
 C376 C 0.63349 0.98048 0.29064
 C377 C 0.65673 0.97425 0.29971
 N378 N 0.67016 0.99315 0.30484
 C379 C 0.65551 1.01134 0.29917
 C380 C 0.66621 0.95166 0.30131
 C381 C 0.68814 0.94614 0.31441
 C382 C 0.70118 0.92561 0.31277
 C383 C 0.71934 0.92600 0.33051
 C384 C 0.71670 0.94664 0.34264
 N385 N 0.69777 0.95886 0.33261
 C386 C 0.73022 0.95308 0.36361
 C387 C 0.73088 0.97583 0.37199
 C388 C 0.73994 0.98244 0.39452
 C389 C 0.73861 1.00578 0.39507
 C390 C 0.72900 1.01275 0.37270
 N391 N 0.72416 0.99434 0.35865
 C392 C 0.72628 1.03570 0.36489
 C393 C 0.71254 1.04131 0.34353
 C394 C 0.71631 1.06050 0.32916
 C395 C 0.69858 1.06013 0.31112
 C396 C 0.68460 1.04053 0.31461
 N397 N 0.69350 1.02891 0.33420
 C398 C 0.66354 1.03438 0.30042
 H399 H 0.61632 1.01406 0.28587
 H400 H 0.61864 0.96955 0.28440
 H401 H 0.68545 1.01456 0.34219
 H402 H 0.69767 0.91155 0.30049
 H403 H 0.73262 0.91242 0.33434
 H404 H 0.74664 0.97158 0.40915
 H405 H 0.74398 1.01629 0.41037
 H406 H 0.69657 1.07271 0.29675
 H407 H 0.68981 0.97369 0.33977
 H408 H 0.73064 1.07330 0.33110
 O409 O 0.79971 0.83409 0.54485
 O410 O 0.83895 0.80158 0.50215
 O411 O 0.80428 0.83289 0.49747
 O412 O 0.83320 0.80165 0.54869
 O413 O 0.80404 0.77528 0.54616
 O414 O 0.77482 0.80677 0.49529
 O415 O 0.80966 0.77534 0.49904
 O416 O 0.77037 0.80787 0.54273
 Cu417 Cu 0.82185 0.82028 0.52355
 Cu418 Cu 0.78672 0.78873 0.52055
 C419 C 0.77844 0.82662 0.55116
 C420 C 0.83122 0.78283 0.49357
 C421 C 0.78457 0.82513 0.48768
 C422 C 0.82386 0.78288 0.55578
 O423 O 0.14106 0.17812 0.44692
 O424 O 0.16773 0.13943 0.49282
 O425 O 0.13515 0.17278 0.49380
 O426 O 0.17494 0.14605 0.44671
 O427 O 0.20425 0.17157 0.45365
 O428 O 0.16523 0.19726 0.50181
 O429 O 0.19792 0.16401 0.50013
 O430 O 0.16990 0.20375 0.45529
 Cu431 Cu 0.15171 0.15662 0.46930
 Cu432 Cu 0.18735 0.18665 0.47845
 C433 C 0.15062 0.19760 0.44354
 C434 C 0.18748 0.14491 0.50405
 C435 C 0.14347 0.18961 0.50583
 C436 C 0.19642 0.15420 0.44225
 O437 O 0.14932 0.86857 0.46421
 O438 O 0.12445 0.83679 0.51675
 O439 O 0.15813 0.86806 0.51094
 O440 O 0.11580 0.83703 0.47008
 O441 O 0.14458 0.81022 0.46481
 O442 O 0.18737 0.84178 0.50500
 O443 O 0.15355 0.81024 0.51165
 O444 O 0.17799 0.84173 0.45854
 Cu445 Cu 0.13403 0.85528 0.49103
 Cu446 Cu 0.16877 0.82327 0.48452
 C447 C 0.16786 0.86059 0.45242
 C448 C 0.13474 0.81813 0.52317
 C449 C 0.18001 0.86029 0.51480
 C450 C 0.12294 0.81835 0.46051
 O451 O 0.85641 0.17785 0.52861
 O452 O 0.81808 0.15454 0.47935
 O453 O 0.85484 0.18324 0.48185
 O454 O 0.81865 0.15005 0.52644
 O455 O 0.79252 0.17912 0.53105
 O456 O 0.82776 0.21178 0.48505
 O457 O 0.79082 0.18277 0.48355
 O458 O 0.83048 0.20723 0.53201
 Cu459 Cu 0.83959 0.16350 0.50368
 Cu460 Cu 0.80764 0.19809 0.50835
 C461 C 0.85037 0.19675 0.53830
 C462 C 0.79789 0.16446 0.47312
 C463 C 0.84758 0.20320 0.47599
 C464 C 0.79939 0.15892 0.53633
 O465 O 0.50831 0.83430 0.86260
 O466 O 0.45822 0.86808 0.83441
 O467 O 0.46009 0.83030 0.86016
 O468 O 0.50670 0.87032 0.83537
 O469 O 0.50973 0.84918 0.80213
 O470 O 0.46300 0.80964 0.82659
 O471 O 0.46118 0.84747 0.80079
 O472 O 0.51145 0.81296 0.82951
 Cu473 Cu 0.48284 0.85284 0.85147
 Cu474 Cu 0.48650 0.82768 0.81139
 C475 C 0.51852 0.81803 0.85096
 C476 C 0.45147 0.86392 0.81273
 C477 C 0.45393 0.81295 0.84768
 C478 C 0.51628 0.86640 0.81455
 O479 O 0.48118 0.13624 0.17749
 O480 O 0.52679 0.16164 0.13546
 O481 O 0.52828 0.12908 0.16809
 O482 O 0.47955 0.16799 0.14456
 O483 O 0.48891 0.19372 0.17244
 O484 O 0.53785 0.15527 0.19710
 O485 O 0.53618 0.18738 0.16329
 O486 O 0.49028 0.16190 0.20549
 Cu487 Cu 0.50311 0.14627 0.15370
 Cu488 Cu 0.51438 0.17704 0.18729
 C489 C 0.47777 0.14478 0.19853
 C490 C 0.53894 0.17909 0.14203
 C491 C 0.54220 0.13450 0.18745
 C492 C 0.47584 0.18735 0.15442
 O493 O 0.45951 0.18036 0.85369
 O494 O 0.50710 0.15083 0.81608
 O495 O 0.50808 0.18004 0.85158
 O496 O 0.45873 0.14947 0.81912
 O497 O 0.45656 0.17705 0.79169
 O498 O 0.50614 0.20807 0.82462
 O499 O 0.50497 0.17875 0.78899
 O500 O 0.45731 0.20798 0.82629
 Cu501 Cu 0.48344 0.16241 0.83786
 Cu502 Cu 0.48093 0.19579 0.80522
 C503 C 0.45048 0.19935 0.84643
 C504 C 0.51411 0.15983 0.79610
 C505 C 0.51564 0.19913 0.84367
 C506 C 0.44955 0.15773 0.79965
 O507 O 0.50003 0.82552 0.14192
 O508 O 0.54311 0.85861 0.17898
 O509 O 0.54944 0.82349 0.14760
 O510 O 0.49623 0.85298 0.17732
 O511 O 0.49781 0.82745 0.20705
 O512 O 0.54977 0.79778 0.17709
 O513 O 0.54485 0.83131 0.20684
 O514 O 0.50021 0.79802 0.16955
 Cu515 Cu 0.52305 0.84229 0.15838
 Cu516 Cu 0.52267 0.81065 0.19227
 C517 C 0.49246 0.80633 0.14939
 C518 C 0.55088 0.85112 0.19932
 C519 C 0.55846 0.80543 0.15725
 C520 C 0.48832 0.84528 0.19764
 O521 O 0.85265 0.47610 0.87983
 O522 O 0.88924 0.51920 0.84660
 O523 O 0.85308 0.52029 0.87794
 O524 O 0.88988 0.47473 0.84884
 O525 O 0.86285 0.47368 0.81846
 O526 O 0.82586 0.51944 0.84768
 O527 O 0.86219 0.51811 0.81622
 O528 O 0.82547 0.47497 0.84958
 Cu529 Cu 0.87396 0.49756 0.86631
 Cu530 Cu 0.84137 0.49632 0.82992
 C531 C 0.83265 0.46845 0.87056
 C532 C 0.88185 0.52613 0.82585
 C533 C 0.83333 0.52770 0.86779
 C534 C 0.88283 0.46661 0.82859
 O535 O 0.15759 0.52790 0.20257
 O536 O 0.19258 0.48133 0.17173
 O537 O 0.16010 0.48385 0.20675
 O538 O 0.18784 0.52518 0.16514
 O539 O 0.21987 0.52950 0.19006
 O540 O 0.19086 0.48857 0.23303
 O541 O 0.22362 0.48583 0.19778
 O542 O 0.18945 0.53277 0.22756
 Cu543 Cu 0.17141 0.50418 0.18398
 Cu544 Cu 0.20909 0.50970 0.21468
 C545 C 0.16761 0.53812 0.22051
 C546 C 0.21410 0.47564 0.17969
 C547 C 0.17046 0.47914 0.22693
 C548 C 0.20869 0.53409 0.17014
 O549 O 0.83988 0.48530 0.17566
 O550 O 0.80253 0.52794 0.14158
 O551 O 0.83301 0.52907 0.17808
 O552 O 0.81082 0.48421 0.13741
 O553 O 0.77836 0.47835 0.16152
 O554 O 0.80158 0.52289 0.20336
 O555 O 0.77076 0.52210 0.16656
 O556 O 0.80757 0.47880 0.19976
 Cu557 Cu 0.82475 0.50714 0.15568
 Cu558 Cu 0.78634 0.49987 0.18526
 C559 C 0.83008 0.47491 0.19365
 C560 C 0.78031 0.53240 0.14847
 C561 C 0.82128 0.53366 0.19762
 C562 C 0.79074 0.47382 0.14227
 O563 O 0.20194 0.51986 0.85518
 O564 O 0.16248 0.47606 0.82709
 O565 O 0.20115 0.47524 0.85529
 O566 O 0.16342 0.52001 0.82570
 O567 O 0.18869 0.51911 0.79380
 O568 O 0.22651 0.47410 0.82347
 O569 O 0.18754 0.47476 0.79502
 O570 O 0.22736 0.51872 0.82343
 Cu571 Cu 0.17986 0.49803 0.84410
 Cu572 Cu 0.21014 0.49669 0.80576
 C573 C 0.22145 0.52667 0.84423
 C574 C 0.16814 0.46802 0.80630
 C575 C 0.22001 0.46680 0.84432
 C576 C 0.16928 0.52678 0.80448
 C577 C 0.27027 0.35880 0.08357
 C578 C 0.27835 0.37977 0.09249
 C579 C 0.26310 0.39486 0.10840
 C580 C 0.27494 0.41282 0.12060
 C581 C 0.26104 0.42864 0.13417
 C582 C 0.23486 0.42689 0.13577
 C583 C 0.22299 0.40898 0.12351
 C584 C 0.23692 0.39305 0.11003
 C585 C 0.21944 0.44411 0.14888
 C586 C 0.22876 0.45739 0.16787
 H587 H 0.29642 0.38590 0.08648
 H588 H 0.29501 0.41486 0.11927
 H589 H 0.27085 0.44261 0.14266
 H590 H 0.20283 0.40743 0.12416
 H591 H 0.22700 0.37990 0.10029
 H592 H 0.19999 0.44609 0.14371
 H593 H 0.25348 0.35093 0.09054
 H594 H 0.24750 0.45431 0.17460
 C595 C 0.72617 0.64476 0.04489
 C596 C 0.71720 0.62517 0.05635
 C597 C 0.73212 0.61065 0.07314
 C598 C 0.71985 0.59364 0.08653
 C599 C 0.73334 0.57828 0.10106
 C600 C 0.75956 0.57960 0.10250
 C601 C 0.77185 0.59663 0.08915
 C602 C 0.75833 0.61204 0.07465
 C603 C 0.77472 0.56288 0.11661
 C604 C 0.76507 0.54954 0.13548
 H605 H 0.69851 0.61959 0.05175
 H606 H 0.69972 0.59194 0.08539
 H607 H 0.72315 0.56501 0.11042
 H608 H 0.79204 0.59786 0.08970
 H609 H 0.76864 0.62443 0.06412
 H610 H 0.79444 0.56136 0.11225
 H611 H 0.74358 0.65238 0.05048
 H612 H 0.74593 0.55188 0.14142
 C613 C 0.71677 0.37007 0.93101
 C614 C 0.72718 0.39123 0.93669
 C615 C 0.74473 0.40381 0.92072
 C616 C 0.76053 0.41994 0.93145
 C617 C 0.77726 0.43247 0.91726
 C618 C 0.77846 0.42925 0.89187
 C619 C 0.76232 0.41344 0.88102
 C620 C 0.74569 0.40071 0.89528
 C621 C 0.79534 0.44300 0.87629
 C622 C 0.81755 0.45238 0.88494
 H623 H 0.72322 0.39850 0.95446
 H624 H 0.75994 0.42287 0.95096
 H625 H 0.78874 0.44505 0.92622
 H626 H 0.76258 0.41094 0.86144
 H627 H 0.73334 0.38891 0.88624
 H628 H 0.79018 0.44568 0.85739
 H629 H 0.71983 0.36257 0.91322
 H630 H 0.82394 0.44831 0.90317
 C631 C 0.28735 0.62928 0.95135
 C632 C 0.29521 0.61048 0.93763
 C633 C 0.27851 0.59741 0.92130
 C634 C 0.28914 0.58314 0.90345
 C635 C 0.27406 0.56941 0.88875
 C636 C 0.24792 0.56957 0.89176
 C637 C 0.23731 0.58384 0.90961
 C638 C 0.25237 0.59766 0.92418
 C639 C 0.23132 0.55405 0.87797
 C640 C 0.23779 0.54363 0.85589
 H641 H 0.31454 0.60495 0.93922
 H642 H 0.30925 0.58237 0.90109
 H643 H 0.28305 0.55820 0.87570
 H644 H 0.21727 0.58405 0.91255
 H645 H 0.24346 0.60786 0.93819
 H646 H 0.21298 0.55078 0.88559
 H647 H 0.26906 0.63682 0.94848
 H648 H 0.25518 0.54780 0.84689
 C649 C 0.05151 0.30303 0.38316
 C650 C 0.07301 0.29372 0.37260
 C651 C 0.09111 0.27992 0.38670
 C652 C 0.10329 0.26147 0.37539
 C653 C 0.11962 0.24748 0.38867
 C654 C 0.12441 0.25208 0.41337
 C655 C 0.11325 0.27124 0.42433
 C656 C 0.09650 0.28494 0.41119
 C657 C 0.14029 0.23675 0.42819
 C658 C 0.13868 0.21312 0.42600
 H659 H 0.07558 0.29513 0.35304
 H660 H 0.09965 0.25753 0.35643
 H661 H 0.12845 0.23308 0.37967
 H662 H 0.11690 0.27519 0.44329
 H663 H 0.08786 0.29947 0.42016
 H664 H 0.15072 0.24394 0.44323
 H665 H 0.04698 0.29907 0.40195
 H666 H 0.12589 0.20585 0.41287
 C667 C 0.07624 0.70759 0.62049
 C668 C 0.08306 0.73019 0.62462
 C669 C 0.09768 0.74383 0.60692
 C670 C 0.09522 0.76770 0.60738
 C671 C 0.10714 0.78118 0.58988
 C672 C 0.12184 0.77100 0.57149
 C673 C 0.12536 0.74723 0.57181
 C674 C 0.11340 0.73373 0.58930
 C675 C 0.13357 0.78453 0.55174
 C676 C 0.12427 0.80571 0.54411
 H677 H 0.07499 0.73889 0.64023
 H678 H 0.08357 0.77594 0.62101
 H679 H 0.10475 0.79951 0.59089
 H680 H 0.13700 0.73901 0.55816
 H681 H 0.11654 0.71548 0.58885
 H682 H 0.14890 0.77681 0.54168
 H683 H 0.08348 0.69822 0.60501
 H684 H 0.10801 0.81312 0.55290
 C685 C 0.91736 0.70661 0.38219
 C686 C 0.91277 0.70109 0.40649
 C687 C 0.89375 0.71333 0.42106
 C688 C 0.89910 0.71901 0.44531
 C689 C 0.88179 0.73141 0.45920
 C690 C 0.85857 0.73782 0.44923
 C691 C 0.85275 0.73125 0.42534
 C692 C 0.87034 0.71934 0.41121
 C693 C 0.84039 0.75133 0.46360
 C694 C 0.84819 0.76959 0.47785
 H695 H 0.92460 0.68857 0.41551
 H696 H 0.91692 0.71431 0.45330
 H697 H 0.88648 0.73586 0.47780
 H698 H 0.83484 0.73580 0.41744
 H699 H 0.86556 0.71466 0.39270
 H700 H 0.82063 0.74779 0.46181
 H701 H 0.90582 0.71936 0.37323
 H702 H 0.86766 0.77455 0.47738
 C703 C 0.94518 0.29849 0.62063
 C704 C 0.94530 0.27544 0.61429
 C705 C 0.92387 0.26401 0.60254
 C706 C 0.92208 0.24017 0.60412
 C707 C 0.90272 0.22865 0.59243
 C708 C 0.88492 0.24077 0.57851
 C709 C 0.88641 0.26466 0.57737
 C710 C 0.90574 0.27619 0.58912
 C711 C 0.86515 0.22915 0.56436
 C712 C 0.86741 0.20661 0.55638
 H713 H 0.96155 0.26515 0.61896
 H714 H 0.93574 0.23042 0.61444
 H715 H 0.90183 0.21030 0.59443
 H716 H 0.87297 0.27440 0.56677
 H717 H 0.90676 0.29452 0.58700
 H718 H 0.84958 0.23939 0.55779
 H719 H 0.92814 0.30845 0.61897
 H720 H 0.88361 0.19648 0.56135
 C721 C 0.37937 0.04489 0.27587
 C722 C 0.37490 0.06755 0.26930
 C723 C 0.39305 0.08004 0.25399
 C724 C 0.39689 0.10348 0.25750
 C725 C 0.41429 0.11523 0.24311
 C726 C 0.42775 0.10370 0.22471
 C727 C 0.42322 0.08046 0.22076
 C728 C 0.40616 0.06873 0.23526
 C729 C 0.44598 0.11522 0.20865
 C730 C 0.45911 0.13480 0.21511
 H731 H 0.35771 0.07601 0.27478
 H732 H 0.38665 0.11260 0.27154
 H733 H 0.41678 0.13332 0.24616
 H734 H 0.43302 0.07129 0.20645
 H735 H 0.40297 0.05085 0.23148
 H736 H 0.45034 0.10707 0.19140
 H737 H 0.39711 0.03713 0.27086
 H738 H 0.45627 0.14261 0.23278
 C739 C 0.63324 0.06414 0.73391
 C740 C 0.61159 0.07532 0.72607
 C741 C 0.59551 0.08948 0.74217
 C742 C 0.57864 0.10499 0.73151
 C743 C 0.56221 0.11783 0.74596
 C744 C 0.56225 0.11533 0.77150
 C745 C 0.57892 0.09963 0.78215
 C746 C 0.59543 0.08686 0.76770
 C747 C 0.54442 0.12789 0.78740
 C748 C 0.53278 0.14832 0.78057
 H749 H 0.60602 0.07332 0.70719
 H750 H 0.57801 0.10703 0.71187
 H751 H 0.54909 0.12916 0.73695
 H752 H 0.57905 0.09711 0.80173
 H753 H 0.60749 0.07452 0.77661
 H754 H 0.54076 0.12101 0.80541
 H755 H 0.63980 0.06592 0.75245
 H756 H 0.53747 0.15638 0.76342
 C757 C 0.34235 0.94402 0.71962
 C758 C 0.36656 0.94656 0.72864
 C759 C 0.38047 0.92821 0.74137
 C760 C 0.39864 0.93434 0.75849
 C761 C 0.41262 0.91762 0.77060
 C762 C 0.40890 0.89434 0.76561
 C763 C 0.39116 0.88818 0.74803
 C764 C 0.37688 0.90495 0.73613
 C765 C 0.42418 0.87649 0.77774
 C766 C 0.43287 0.87920 0.80150
 H767 H 0.37550 0.96303 0.72699
 H768 H 0.40201 0.95216 0.76253
 H769 H 0.42676 0.92300 0.78343
 H770 H 0.38831 0.87037 0.74359
 H771 H 0.36355 0.89968 0.72246
 H772 H 0.42858 0.86097 0.76783
 H773 H 0.33315 0.92770 0.72121
 H774 H 0.42661 0.89376 0.81211
 C775 C 0.65374 0.93304 0.28780
 C776 C 0.62963 0.92597 0.29351
 C777 C 0.61688 0.90821 0.27925
 C778 C 0.59179 0.91153 0.27276
 C779 C 0.57959 0.89551 0.25826
 C780 C 0.59212 0.87559 0.25059
 C781 C 0.61687 0.87173 0.25801
 C782 C 0.62933 0.88810 0.27196
 C783 C 0.57947 0.85896 0.23475
 C784 C 0.56594 0.86635 0.21452
 H785 H 0.61908 0.93507 0.30736
 H786 H 0.58183 0.92683 0.27839
 H787 H 0.56032 0.89863 0.25311
 H788 H 0.62674 0.85636 0.25246
 H789 H 0.64858 0.88498 0.27719
 H790 H 0.58177 0.84086 0.23831
 H791 H 0.66426 0.92417 0.27378
 H792 H 0.56617 0.88431 0.20970
 C793 C 0.35572 0.27692 0.95258
 C794 C 0.36799 0.25594 0.95618
 C795 C 0.38127 0.24320 0.93666
 C796 C 0.39024 0.25398 0.91547
 C797 C 0.40422 0.24168 0.89825
 C798 C 0.40953 0.21830 0.90183
 C799 C 0.40048 0.20763 0.92298
 C800 C 0.38657 0.21993 0.94020
 C801 C 0.42552 0.20480 0.88488
 C802 C 0.43228 0.21201 0.86151
 H803 H 0.36696 0.24786 0.97394
 H804 H 0.38729 0.27206 0.91248
 H805 H 0.41141 0.25086 0.88268
 H806 H 0.40445 0.18973 0.92636
 H807 H 0.38014 0.21126 0.95648
 H808 H 0.43260 0.18847 0.89130
 H809 H 0.35269 0.28238 0.93395
 H810 H 0.42473 0.22769 0.85403
 C811 C 0.62458 0.71360 0.91485
 C812 C 0.62265 0.73722 0.91183
 C813 C 0.60524 0.74895 0.89482
 C814 C 0.60456 0.77291 0.89507
 C815 C 0.58709 0.78495 0.88113
 C816 C 0.56977 0.77326 0.86662
 C817 C 0.57118 0.74938 0.86531
 C818 C 0.58862 0.73726 0.87941
 C819 C 0.54980 0.78567 0.85332
 C820 C 0.53887 0.80539 0.86294
 H821 H 0.63382 0.74784 0.92370
 H822 H 0.61729 0.78239 0.90652
 H823 H 0.58709 0.80342 0.88188
 H824 H 0.55818 0.74004 0.85402
 H825 H 0.58849 0.71884 0.87844
 H826 H 0.54226 0.77826 0.83682
 H827 H 0.61573 0.70204 0.90227
 H828 H 0.54486 0.81157 0.88059
 C829 C 0.39769 0.70198 0.06985
 C830 C 0.40426 0.72505 0.06900
 C831 C 0.41948 0.73637 0.08793
 C832 C 0.41753 0.76014 0.09042
 C833 C 0.43227 0.77171 0.10727
 C834 C 0.44971 0.75977 0.12176
 C835 C 0.45126 0.73591 0.11973
 C836 C 0.43643 0.72429 0.10286
 C837 C 0.46671 0.77184 0.13864
 C838 C 0.47452 0.79410 0.13406
 H839 H 0.39612 0.73586 0.05501
 H840 H 0.40451 0.76983 0.07927
 H841 H 0.42986 0.79001 0.10891
 H842 H 0.46450 0.72632 0.13073
 H843 H 0.43882 0.70600 0.10112
 H844 H 0.47470 0.76250 0.15386
 H845 H 0.40191 0.69274 0.08647
 H846 H 0.46827 0.80280 0.11772
 C847 C 0.61270 0.28575 0.04795
 C848 C 0.61766 0.26288 0.05339
 C849 C 0.60444 0.25001 0.07274
 C850 C 0.60438 0.22606 0.07175
 C851 C 0.59211 0.21330 0.08967
 C852 C 0.57969 0.22430 0.10908
 C853 C 0.58047 0.24821 0.11050
 C854 C 0.59265 0.26096 0.09255
 C855 C 0.56582 0.21155 0.12811
 C856 C 0.55580 0.18991 0.12429
 H857 H 0.63157 0.25390 0.04255
 H858 H 0.61374 0.21718 0.05696
 H859 H 0.59269 0.19488 0.08835
 H860 H 0.57140 0.25709 0.12546
 H861 H 0.59307 0.27932 0.09453
 H862 H 0.56142 0.22036 0.14497
 H863 H 0.59848 0.29516 0.05785
 H864 H 0.55839 0.18142 0.10694
 C865 C 0.26610 0.06753 0.62405
 C866 C 0.26308 0.06489 0.59894
 C867 C 0.25242 0.08276 0.58289
 C868 C 0.24076 0.07603 0.56120
 C869 C 0.22999 0.09224 0.54567
 C870 C 0.23082 0.11561 0.55147
 C871 C 0.24329 0.12245 0.57270
 C872 C 0.25390 0.10618 0.58838
 C873 C 0.21934 0.13305 0.53539
 C874 C 0.19830 0.12841 0.52132
 H875 H 0.26740 0.04842 0.59090
 H876 H 0.23976 0.05813 0.55637
 H877 H 0.22134 0.08641 0.52900
 H878 H 0.24457 0.14039 0.57728
 H879 H 0.26349 0.11205 0.60452
 H880 H 0.22701 0.15012 0.53532
 H881 H 0.26223 0.08382 0.63260
 H882 H 0.18926 0.11200 0.52291
 C883 C 0.73947 0.05262 0.37794
 C884 C 0.73245 0.07566 0.37956
 C885 C 0.74740 0.09208 0.39382
 C886 C 0.73544 0.11001 0.40628
 C887 C 0.74914 0.12463 0.42133
 C888 C 0.77518 0.12168 0.42383
 C889 C 0.78716 0.10435 0.41043
 C890 C 0.77350 0.08979 0.39552
 C891 C 0.79046 0.13504 0.44115
 C892 C 0.78225 0.15432 0.45394
 H893 H 0.71453 0.08126 0.37248
 H894 H 0.71535 0.11222 0.40505
 H895 H 0.73909 0.13762 0.43143
 H896 H 0.80720 0.10180 0.41182
 H897 H 0.78342 0.07663 0.38547
 H898 H 0.80932 0.12888 0.44448
 H899 H 0.75507 0.04726 0.38916
 H900 H 0.76416 0.16194 0.45034
 C901 C 0.71478 0.94780 0.63297
 C902 C 0.71422 0.92419 0.63720
 C903 C 0.72897 0.90782 0.62230
 C904 C 0.72010 0.88556 0.61888
 C905 C 0.73349 0.86989 0.60452
 C906 C 0.75621 0.87622 0.59348
 C907 C 0.76540 0.89826 0.59764
 C908 C 0.75202 0.91387 0.61188
 C909 C 0.77117 0.86067 0.57776
 C910 C 0.76280 0.83998 0.56820
 H911 H 0.70312 0.91728 0.65193
 H912 H 0.70259 0.88038 0.62709
 H913 H 0.72599 0.85294 0.60234
 H914 H 0.78303 0.90350 0.58973
 H915 H 0.76006 0.93050 0.61497
 H916 H 0.78964 0.86641 0.57253
 H917 H 0.72697 0.95366 0.61857
 H918 H 0.74435 0.83369 0.57242
 C919 C 0.27431 0.92900 0.35130
 C920 C 0.24915 0.92364 0.34838
 C921 C 0.23602 0.90781 0.36501
 C922 C 0.21042 0.91116 0.36946
 C923 C 0.19786 0.89761 0.38648
 C924 C 0.21074 0.88031 0.39929
 C925 C 0.23601 0.87619 0.39383
 C926 C 0.24858 0.88980 0.37691
 C927 C 0.19866 0.86638 0.41849
 C928 C 0.17773 0.87369 0.43168
 H929 H 0.23826 0.93315 0.33509
 H930 H 0.20025 0.92468 0.36019
 H931 H 0.17815 0.90076 0.38948
 H932 H 0.24623 0.86269 0.40308
 H933 H 0.26808 0.88615 0.37325
 H934 H 0.20779 0.85054 0.42376
 H935 H 0.28553 0.92029 0.36488
 H936 H 0.16899 0.88999 0.42768
 C937 C 0.08444 0.37480 0.70149
 C938 C 0.08224 0.38486 0.72456
 C939 C 0.10249 0.39770 0.73662
 C940 C 0.10172 0.40028 0.76203
 C941 C 0.11926 0.41376 0.77402
 C942 C 0.13773 0.42545 0.76072
 C943 C 0.13893 0.42234 0.73533
 C944 C 0.12145 0.40868 0.72335
 C945 C 0.15564 0.44121 0.77255
 C946 C 0.15146 0.45096 0.79547
 H947 H 0.06516 0.38243 0.73487
 H948 H 0.08736 0.39191 0.77268
 H949 H 0.11811 0.41489 0.79365
 H950 H 0.15301 0.43103 0.72464
 H951 H 0.12233 0.40742 0.70367
 H952 H 0.17190 0.44647 0.76221
 H953 H 0.10300 0.37341 0.69374
 H954 H 0.13477 0.44692 0.80567
 C955 C 0.04009 0.62212 0.28434
 C956 C 0.06596 0.62073 0.28804
 C957 C 0.08254 0.60650 0.27239
 C958 C 0.10470 0.59745 0.28221
 C959 C 0.12021 0.58318 0.26825
 C960 C 0.11401 0.57793 0.24393
 C961 C 0.09211 0.58740 0.23397
 C962 C 0.07664 0.60167 0.24792
 C963 C 0.12911 0.56187 0.22886
 C964 C 0.15391 0.55604 0.23397
 H965 H 0.07398 0.62826 0.30424
 H966 H 0.10973 0.60095 0.30097
 H967 H 0.13656 0.57586 0.27690
 H968 H 0.08692 0.58373 0.21530
 H969 H 0.06016 0.60895 0.23941
 H970 H 0.12026 0.55428 0.21309
 H971 H 0.03255 0.61110 0.27042
 H972 H 0.16366 0.56432 0.24874
 C973 C 0.92898 0.38227 0.28136
 C974 C 0.93511 0.40188 0.26793
 C975 C 0.91761 0.41517 0.25226
 C976 C 0.89262 0.40885 0.24812
 C977 C 0.87716 0.42212 0.23302
 C978 C 0.88640 0.44188 0.22163
 C979 C 0.91142 0.44787 0.22533
 C980 C 0.92677 0.43477 0.24056
 C981 C 0.87073 0.45648 0.20559
 C982 C 0.84483 0.45840 0.20802
 H983 H 0.95383 0.40860 0.26962
 H984 H 0.88479 0.39367 0.25621
 H985 H 0.85816 0.41660 0.22998
 H986 H 0.91906 0.46291 0.21662
 H987 H 0.94597 0.43999 0.24315
 H988 H 0.88016 0.46755 0.19272
 H989 H 0.90950 0.37781 0.28285
 H990 H 0.83522 0.44885 0.22206
 C991 C 0.95229 0.61974 0.71238
 C992 C 0.95015 0.61784 0.73775
 C993 C 0.93363 0.60127 0.75039
 C994 C 0.93160 0.60236 0.77592
 C995 C 0.91768 0.58620 0.78881
 C996 C 0.90545 0.56852 0.77640
 C997 C 0.90695 0.56769 0.75088
 C998 C 0.92111 0.58368 0.73799
 C999 C 0.89083 0.55091 0.78945
 C1000 C 0.89637 0.54382 0.81317
 H1001 H 0.96106 0.62921 0.74903
 H1002 H 0.94105 0.61565 0.78598
 H1003 H 0.91638 0.58774 0.80844
 H1004 H 0.89763 0.55426 0.74091
 H1005 H 0.92251 0.58173 0.71844
 H1006 H 0.87616 0.54231 0.77952
 H1007 H 0.93721 0.61280 0.70184
 H1008 H 0.91222 0.55097 0.82265
 C1009 C 0.71635 0.62919 0.92122
 C1010 C 0.74058 0.62119 0.92592
 C1011 C 0.75479 0.60582 0.90961
 C1012 C 0.78082 0.60467 0.91224
 C1013 C 0.79490 0.58887 0.89894
 C1014 C 0.78311 0.57356 0.88303
 C1015 C 0.75716 0.57528 0.87964
 C1016 C 0.74303 0.59120 0.89293
 C1017 C 0.79734 0.55544 0.87022
 C1018 C 0.81929 0.54610 0.87983
 H1019 H 0.75012 0.62718 0.94210
 H1020 H 0.79031 0.61587 0.92486
 H1021 H 0.81497 0.58869 0.90131
 H1022 H 0.74770 0.56376 0.86734
 H1023 H 0.72293 0.59137 0.89076
 H1024 H 0.78953 0.54825 0.85373
 H1025 H 0.70905 0.62691 0.90301
 H1026 H 0.82633 0.55199 0.89719
 C1027 C 0.27054 0.36579 0.95823
 C1028 C 0.27778 0.36907 0.93393
 C1029 C 0.26415 0.38521 0.91787
 C1030 C 0.27734 0.39774 0.90030
 C1031 C 0.26517 0.41452 0.88639
 C1032 C 0.23943 0.41879 0.88965
 C1033 C 0.22614 0.40560 0.90656
 C1034 C 0.23828 0.38887 0.92040
 C1035 C 0.22593 0.43742 0.87685
 C1036 C 0.23452 0.44826 0.85580
 H1037 H 0.29543 0.36209 0.92754
 H1038 H 0.29728 0.39512 0.89796
 H1039 H 0.27618 0.42451 0.87381
 H1040 H 0.20627 0.40839 0.90927
 H1041 H 0.22737 0.37896 0.93318
 H1042 H 0.20789 0.44251 0.88415
 H1043 H 0.25516 0.37624 0.96468
 H1044 H 0.25157 0.44264 0.84695
 C1045 C 0.31478 0.61310 0.07296
 C1046 C 0.29067 0.60407 0.07242
 C1047 C 0.27934 0.59234 0.09355
 C1048 C 0.25337 0.59370 0.09671
 C1049 C 0.24187 0.58284 0.11637
 C1050 C 0.25612 0.56989 0.13304
 C1051 C 0.28217 0.56878 0.13007
 C1052 C 0.29371 0.57981 0.11045
 C1053 C 0.24434 0.55701 0.15324
 C1054 C 0.21971 0.54947 0.15202
 H1055 H 0.27845 0.60832 0.05730
 H1056 H 0.24195 0.60343 0.08405
 H1057 H 0.22187 0.58484 0.11845
 H1058 H 0.29356 0.55893 0.14265
 H1059 H 0.31375 0.57808 0.10828
 H1060 H 0.25594 0.55153 0.16838
 H1061 H 0.32479 0.61198 0.09005
 H1062 H 0.20849 0.55322 0.13610
 C1063 C 0.70511 0.36718 0.05584
 C1064 C 0.71768 0.38783 0.05230
 C1065 C 0.72839 0.40180 0.07215
 C1066 C 0.74560 0.41875 0.06580
 C1067 C 0.75582 0.43291 0.08355
 C1068 C 0.74906 0.43040 0.10822
 C1069 C 0.73152 0.41374 0.11459
 C1070 C 0.72129 0.39951 0.09678
 C1071 C 0.75914 0.44556 0.12737
 C1072 C 0.78190 0.45675 0.12480
 H1073 H 0.71925 0.39471 0.03403
 H1074 H 0.75108 0.42116 0.04693
 H1075 H 0.76849 0.44613 0.07770
 H1076 H 0.72567 0.41176 0.13340
 H1077 H 0.70748 0.38723 0.10247
 H1078 H 0.74843 0.44782 0.14400
 H1079 H 0.70206 0.36147 0.07431
 H1080 H 0.79364 0.45339 0.10910
 C1081 C 0.94772 0.70421 0.62415
 C1082 C 0.92539 0.71189 0.63458
 C1083 C 0.90868 0.72801 0.62156
 C1084 C 0.88272 0.72706 0.62509
 C1085 C 0.86676 0.74210 0.61255
 C1086 C 0.87666 0.75859 0.59659
 C1087 C 0.90266 0.76010 0.59393
 C1088 C 0.91851 0.74494 0.60617
 C1089 C 0.86074 0.77441 0.58224
 C1090 C 0.83657 0.76918 0.57464
 H1091 H 0.92028 0.70631 0.65276
 H1092 H 0.87479 0.71445 0.63726
 H1093 H 0.84682 0.74090 0.61557
 H1094 H 0.91076 0.77284 0.58202
 H1095 H 0.93850 0.74673 0.60378
 H1096 H 0.86951 0.78958 0.57492
 H1097 H 0.95207 0.70911 0.60557
 H1098 H 0.82788 0.75346 0.58046
 C1099 C 0.92277 0.30597 0.37724
 C1100 C 0.92616 0.29661 0.40055
 C1101 C 0.90761 0.28226 0.41327
 C1102 C 0.91648 0.26634 0.43039
 C1103 C 0.90003 0.25194 0.44262
 C1104 C 0.87420 0.25329 0.43815
 C1105 C 0.86515 0.26969 0.42160
 C1106 C 0.88172 0.28396 0.40906
 C1107 C 0.85650 0.23852 0.45148
 C1108 C 0.86313 0.21659 0.45923
 H1109 H 0.94401 0.29868 0.40955
 H1110 H 0.93632 0.26487 0.43416
 H1111 H 0.90757 0.24007 0.45591
 H1112 H 0.84526 0.27132 0.41824
 H1113 H 0.87412 0.29646 0.39650
 H1114 H 0.83788 0.24505 0.45524
 H1115 H 0.90407 0.30646 0.36980
 H1116 H 0.88085 0.20922 0.45361
 C1117 C 0.07531 0.29517 0.60917
 C1118 C 0.07183 0.27238 0.60247
 C1119 C 0.08881 0.25915 0.58625
 C1120 C 0.08304 0.23626 0.58131
 C1121 C 0.09789 0.22323 0.56549
 C1122 C 0.11889 0.23290 0.55413
 C1123 C 0.12497 0.25562 0.55941
 C1124 C 0.11009 0.26868 0.57515
 C1125 C 0.13499 0.22002 0.53687
 C1126 C 0.12741 0.20050 0.52436
 H1127 H 0.05535 0.26381 0.60934
 H1128 H 0.06686 0.22841 0.58966
 H1129 H 0.09292 0.20560 0.56246
 H1130 H 0.14113 0.26345 0.55101
 H1131 H 0.11537 0.28619 0.57818
 H1132 H 0.15317 0.22709 0.53268
 H1133 H 0.09239 0.30389 0.60461
 H1134 H 0.10893 0.19361 0.52711
 C1135 C 0.04568 0.71140 0.36679
 C1136 C 0.04135 0.73289 0.37720
 C1137 C 0.06077 0.74651 0.38954
 C1138 C 0.05628 0.76987 0.39335
 C1139 C 0.07304 0.78301 0.40675
 C1140 C 0.09455 0.77292 0.41705
 C1141 C 0.09940 0.74968 0.41266
 C1142 C 0.08264 0.73654 0.39917
 C1143 C 0.11213 0.78595 0.43251
 C1144 C 0.10559 0.80623 0.44439
 H1145 H 0.02284 0.74044 0.37582
 H1146 H 0.03959 0.77797 0.38608
 H1147 H 0.06898 0.80100 0.40890
 H1148 H 0.11588 0.74151 0.42027
 H1149 H 0.08649 0.71848 0.39706
 H1150 H 0.13052 0.77863 0.43573
 H1151 H 0.06492 0.70637 0.36354
 H1152 H 0.08698 0.81336 0.44250
 C1153 C 0.61696 0.94843 0.71592
 C1154 C 0.61951 0.93864 0.73899
 C1155 C 0.60087 0.92296 0.74961
 C1156 C 0.59857 0.92167 0.77507
 C1157 C 0.58068 0.90755 0.78581
 C1158 C 0.56483 0.89429 0.77119
 C1159 C 0.56771 0.89502 0.74575
 C1160 C 0.58548 0.90924 0.73502
 C1161 C 0.54569 0.87905 0.78173
 C1162 C 0.53527 0.88205 0.80489
 H1163 H 0.63480 0.94419 0.75045
 H1164 H 0.61047 0.93183 0.78670
 H1165 H 0.57964 0.90686 0.80549
 H1166 H 0.55604 0.88465 0.73411
 H1167 H 0.58728 0.90919 0.71536
 H1168 H 0.53874 0.86542 0.77030
 H1169 H 0.60170 0.94369 0.70410
 H1170 H 0.54066 0.89636 0.81612
 C1171 C 0.36534 0.93149 0.26092
 C1172 C 0.39025 0.93506 0.25432
 C1173 C 0.40529 0.91797 0.24109
 C1174 C 0.43036 0.91471 0.24767
 C1175 C 0.44549 0.89948 0.23468
 C1176 C 0.43593 0.88779 0.21443
 C1177 C 0.41096 0.89132 0.20755
 C1178 C 0.39556 0.90607 0.22105
 C1179 C 0.45233 0.87276 0.19989
 C1180 C 0.46882 0.85761 0.21115
 H1181 H 0.39983 0.95003 0.26101
 H1182 H 0.43823 0.92397 0.26289
 H1183 H 0.46486 0.89734 0.24001
 H1184 H 0.40339 0.88261 0.19182
 H1185 H 0.37636 0.90873 0.21541
 H1186 H 0.45128 0.87350 0.18017
 H1187 H 0.35799 0.91444 0.25861
 H1188 H 0.46766 0.85498 0.23069
 C1189 C 0.65083 0.05223 0.28787
 C1190 C 0.63759 0.04964 0.26603
 C1191 C 0.62261 0.06822 0.25455
 C1192 C 0.61511 0.06581 0.23016
 C1193 C 0.59998 0.08238 0.21899
 C1194 C 0.59194 0.10176 0.23207
 C1195 C 0.59958 0.10428 0.25638
 C1196 C 0.61457 0.08766 0.26759
 C1197 C 0.57503 0.11913 0.22119
 C1198 C 0.56349 0.11580 0.19881
 H1199 H 0.63923 0.03369 0.25616
 H1200 H 0.62083 0.05096 0.21972
 H1201 H 0.59445 0.07988 0.20020
 H1202 H 0.59347 0.11895 0.26692
 H1203 H 0.61919 0.08992 0.28662
 H1204 H 0.57034 0.13427 0.23167
 H1205 H 0.65320 0.06946 0.29449
 H1206 H 0.55320 0.12538 0.19371
 C1207 C 0.34704 0.06206 0.72143
 C1208 C 0.36824 0.05744 0.73565
 C1209 C 0.38182 0.07489 0.74994
 C1210 C 0.38030 0.09845 0.74483
 C1211 C 0.39401 0.11411 0.75858
 C1212 C 0.40965 0.10652 0.77761
 C1213 C 0.41095 0.08306 0.78275
 C1214 C 0.39735 0.06744 0.76898
 C1215 C 0.42505 0.12219 0.79245
 C1216 C 0.43115 0.14450 0.78569
 H1217 H 0.37572 0.04022 0.73625
 H1218 H 0.36904 0.10497 0.72999
 H1219 H 0.39215 0.13205 0.75424
 H1220 H 0.42280 0.07671 0.79731
 H1221 H 0.39894 0.04942 0.77330
 H1222 H 0.43352 0.11517 0.80880
 H1223 H 0.34129 0.07966 0.71934
 H1224 H 0.42394 0.15191 0.76903
 C1225 C 0.64843 0.74003 0.03571
 C1226 C 0.64270 0.73539 0.06005
 C1227 C 0.62986 0.75188 0.07635
 C1228 C 0.61731 0.74346 0.09691
 C1229 C 0.60367 0.75813 0.11204
 C1230 C 0.60256 0.78172 0.10710
 C1231 C 0.61560 0.79024 0.08687
 C1232 C 0.62930 0.77554 0.07173
 C1233 C 0.58662 0.79747 0.12158
 C1234 C 0.57855 0.79246 0.14517
 H1235 H 0.64570 0.71816 0.06674
 H1236 H 0.61743 0.72533 0.10089
 H1237 H 0.59333 0.75071 0.12700
 H1238 H 0.61504 0.80832 0.08267
 H1239 H 0.63933 0.78284 0.05650
 H1240 H 0.58035 0.81320 0.11303
 H1241 H 0.64318 0.75630 0.02781
 H1242 H 0.58587 0.77765 0.15464
 C1243 C 0.36273 0.27492 0.07787
 C1244 C 0.36943 0.25225 0.07322
 C1245 C 0.38651 0.23849 0.08865
 C1246 C 0.40300 0.24844 0.10546
 C1247 C 0.42043 0.23495 0.11805
 C1248 C 0.42169 0.21120 0.11411
 C1249 C 0.40497 0.20134 0.09755
 C1250 C 0.38764 0.21482 0.08494
 C1251 C 0.44078 0.19623 0.12569
 C1252 C 0.45632 0.20278 0.14485
 H1253 H 0.36209 0.24428 0.05691
 H1254 H 0.40322 0.26671 0.10830
 H1255 H 0.43328 0.24340 0.13017
 H1256 H 0.40557 0.18314 0.09403
 H1257 H 0.37531 0.20674 0.07194
 H1258 H 0.44272 0.17902 0.11863
 H1259 H 0.36704 0.28267 0.09525
 H1260 H 0.45428 0.21936 0.15328
 C1261 C 0.61389 0.29856 0.92174
 C1262 C 0.61733 0.27678 0.91200
 C1263 C 0.59970 0.26598 0.89478
 C1264 C 0.59990 0.24210 0.89288
 C1265 C 0.58247 0.23095 0.87829
 C1266 C 0.56438 0.24351 0.86523
 C1267 C 0.56499 0.26744 0.86607
 C1268 C 0.58242 0.27863 0.88075
 C1269 C 0.54470 0.23209 0.85084
 C1270 C 0.53569 0.21057 0.85710
 H1271 H 0.63238 0.26633 0.91935
 H1272 H 0.61328 0.23196 0.90314
 H1273 H 0.58327 0.21251 0.87730
 H1274 H 0.55157 0.27750 0.85578
 H1275 H 0.58217 0.29708 0.88103
 H1276 H 0.53592 0.24144 0.83604
 H1277 H 0.59909 0.30973 0.91539
 H1278 H 0.54300 0.20186 0.87301
 C1279 C 0.36236 0.72554 0.95173
 C1280 C 0.38168 0.72333 0.93482
 C1281 C 0.39133 0.74259 0.92014
 C1282 C 0.40615 0.73779 0.89962
 C1283 C 0.41736 0.75541 0.88644
 C1284 C 0.41405 0.77831 0.89363
 C1285 C 0.39916 0.78312 0.91411
 C1286 C 0.38784 0.76549 0.92722
 C1287 C 0.42738 0.79727 0.88146
 C1288 C 0.43681 0.79582 0.85777
 H1289 H 0.39076 0.70680 0.93295
 H1290 H 0.40947 0.72028 0.89404
 H1291 H 0.42935 0.75088 0.87128
 H1292 H 0.39664 0.80057 0.92025
 H1293 H 0.37723 0.76990 0.94336
 H1294 H 0.43034 0.81279 0.89178
 H1295 H 0.35142 0.74110 0.95299
 H1296 H 0.43259 0.78119 0.84652
 C1297 C 0.74508 0.93577 0.37726
 C1298 C 0.73458 0.91545 0.38565
 C1299 C 0.74744 0.89978 0.40293
 C1300 C 0.73300 0.88473 0.41693
 C1301 C 0.74420 0.87053 0.43438
 C1302 C 0.77023 0.87092 0.43800
 C1303 C 0.78473 0.88563 0.42365
 C1304 C 0.77354 0.89977 0.40615
 C1305 C 0.78273 0.85716 0.45723
 C1306 C 0.77242 0.83753 0.46749
 H1307 H 0.71525 0.91201 0.38112
 H1308 H 0.71287 0.88438 0.41482
 H1309 H 0.73226 0.85986 0.44542
 H1310 H 0.80483 0.88620 0.42601
 H1311 H 0.78549 0.91055 0.39524
 H1312 H 0.80104 0.86254 0.46329
 H1313 H 0.76336 0.94077 0.38361
 H1314 H 0.75504 0.83083 0.46057
 C1315 C 0.25320 0.94939 0.62804
 C1316 C 0.25242 0.94895 0.60264
 C1317 C 0.23664 0.93284 0.58898
 C1318 C 0.24449 0.92517 0.56596
 C1319 C 0.22939 0.91064 0.55225
 C1320 C 0.20590 0.90395 0.56116
 C1321 C 0.19789 0.91191 0.58401
 C1322 C 0.21321 0.92604 0.59795
 C1323 C 0.18883 0.88991 0.54638
 C1324 C 0.19731 0.87299 0.53045
 H1325 H 0.26429 0.96049 0.59247
 H1326 H 0.26233 0.93048 0.55858
 H1327 H 0.23578 0.90525 0.53440
 H1328 H 0.17970 0.90722 0.59106
 H1329 H 0.20638 0.93218 0.61536
 H1330 H 0.16888 0.89243 0.54880
 H1331 H 0.24409 0.93613 0.63851
 H1332 H 0.21701 0.86861 0.52977
 C1333 C 0.28224 0.04555 0.36322
 C1334 C 0.27456 0.06727 0.35577
 C1335 C 0.25749 0.08137 0.37084
 C1336 C 0.25905 0.10526 0.37008
 C1337 C 0.24285 0.11877 0.38418
 C1338 C 0.22455 0.10850 0.39897
 C1339 C 0.22250 0.08465 0.39902
 C1340 C 0.23884 0.07121 0.38522
 C1341 C 0.20708 0.12189 0.41433
 C1342 C 0.21283 0.14317 0.42413
 H1343 H 0.28064 0.07384 0.33827
 H1344 H 0.27296 0.11345 0.35873
 H1345 H 0.24445 0.13715 0.38318
 H1346 H 0.20833 0.07636 0.40997
 H1347 H 0.23648 0.05287 0.38549
 H1348 H 0.18995 0.11367 0.42005
 H1349 H 0.27697 0.03955 0.38119
 H1350 H 0.23059 0.15107 0.42009
 C1351 C 0.72150 0.06472 0.63976
 C1352 C 0.72706 0.06221 0.61499
 C1353 C 0.74264 0.07827 0.60088
 C1354 C 0.74457 0.10153 0.60690
 C1355 C 0.75936 0.11608 0.59273
 C1356 C 0.77248 0.10759 0.57236
 C1357 C 0.77065 0.08435 0.56657
 C1358 C 0.75567 0.06991 0.58050
 C1359 C 0.78848 0.12220 0.55692
 C1360 C 0.78451 0.14561 0.55382
 H1361 H 0.72102 0.04682 0.60583
 H1362 H 0.73443 0.10864 0.62224
 H1363 H 0.76072 0.13383 0.59797
 H1364 H 0.78062 0.07737 0.55101
 H1365 H 0.75446 0.05206 0.57548
 H1366 H 0.80278 0.11382 0.54603
 H1367 H 0.72699 0.07999 0.64938
 H1368 H 0.76915 0.15410 0.56304
 C1369 C 0.91222 0.62616 0.29028
 C1370 C 0.91408 0.62199 0.26532
 C1371 C 0.89565 0.60884 0.25117
 C1372 C 0.87849 0.59395 0.26226
 C1373 C 0.86305 0.58019 0.24800
 C1374 C 0.86452 0.58108 0.22239
 C1375 C 0.88127 0.59631 0.21143
 C1376 C 0.89667 0.61000 0.22565
 C1377 C 0.85076 0.56521 0.20643
 C1378 C 0.83100 0.55139 0.21393
 H1379 H 0.93021 0.62857 0.25567
 H1380 H 0.87761 0.59211 0.28187
 H1381 H 0.85086 0.56831 0.25717
 H1382 H 0.88289 0.59723 0.19175
 H1383 H 0.90982 0.62121 0.21666
 H1384 H 0.85708 0.56390 0.18768
 H1385 H 0.89519 0.62234 0.30007
 H1386 H 0.82275 0.55325 0.23185
 C1387 C 0.95538 0.37862 0.71149
 C1388 C 0.96002 0.38475 0.73564
 C1389 C 0.94238 0.39833 0.75067
 C1390 C 0.95178 0.41034 0.77072
 C1391 C 0.93602 0.42399 0.78499
 C1392 C 0.91033 0.42565 0.77967
 C1393 C 0.90086 0.41335 0.75983
 C1394 C 0.91664 0.39970 0.74554
 C1395 C 0.89320 0.44084 0.79351
 C1396 C 0.89856 0.44923 0.81670
 H1397 H 0.97803 0.38036 0.74347
 H1398 H 0.97153 0.40957 0.77504
 H1399 H 0.94428 0.43364 0.79966
 H1400 H 0.88116 0.41432 0.75535
 H1401 H 0.90848 0.39020 0.73070
 H1402 H 0.87572 0.44577 0.78495
 H1403 H 0.93757 0.38252 0.70312
 H1404 H 0.91512 0.44354 0.82632
 C1405 C 0.08289 0.62340 0.70935
 C1406 C 0.08249 0.59985 0.71308
 C1407 C 0.10210 0.58766 0.72693
 C1408 C 0.09519 0.56934 0.74188
 C1409 C 0.11309 0.55779 0.75581
 C1410 C 0.13836 0.56412 0.75468
 C1411 C 0.14545 0.58192 0.73905
 C1412 C 0.12743 0.59381 0.72545
 C1413 C 0.15755 0.55164 0.76886
 C1414 C 0.15246 0.54289 0.79199
 H1415 H 0.06604 0.59041 0.70772
 H1416 H 0.07582 0.56418 0.74306
 H1417 H 0.10719 0.54364 0.76711
 H1418 H 0.16490 0.58679 0.73759
 H1419 H 0.13336 0.60751 0.71356
 H1420 H 0.17598 0.54933 0.76097
 H1421 H 0.09925 0.63305 0.71446
 H1422 H 0.13484 0.54702 0.80077
 C1423 C 0.05719 0.37820 0.28625
 C1424 C 0.06882 0.39819 0.29381
 C1425 C 0.08759 0.41030 0.27890
 C1426 C 0.10420 0.42528 0.29038
 C1427 C 0.12131 0.43791 0.27665
 C1428 C 0.12193 0.43583 0.25110
 C1429 C 0.10537 0.42079 0.23970
 C1430 C 0.08837 0.40816 0.25338
 C1431 C 0.13782 0.45028 0.23545
 C1432 C 0.15828 0.46287 0.24349
 H1433 H 0.06405 0.40517 0.31154
 H1434 H 0.10373 0.42741 0.31000
 H1435 H 0.13333 0.44974 0.28606
 H1436 H 0.10522 0.41914 0.22001
 H1437 H 0.07537 0.39742 0.24373
 H1438 H 0.13277 0.45131 0.21633
 H1439 H 0.06176 0.37050 0.26888
 H1440 H 0.16528 0.46106 0.26190
   
