data_POSCAR
  _audit_creation_date              2014-09-24
  _audit_creation_method            'ToBaCCo'
  _symmetry_space_group_name_H-M    'P1'
  _symmetry_Int_Tables_number       1
  _symmetry_cell_setting            triclinic
  loop_
  _symmetry_equiv_pos_as_xyz
 x,y,z
_cell_length_a 38.1441
_cell_length_b 39.5263
_cell_length_c 48.4091
_cell_angle_alpha 89.858800
_cell_angle_beta 90.131300
_cell_angle_gamma 90.033600
loop_
  _atom_site_label
  _atom_site_type_symbol
  _atom_site_fract_x
  _atom_site_fract_y
  _atom_site_fract_z
Zr1 Zr 0.24058 0.24778 0.29845
 O2 O 0.26642 0.27093 0.33230
 O3 O 0.20406 0.21700 0.31890
 O4 O 0.20850 0.28174 0.32084
 O5 O 0.30679 0.18875 0.28906
 O6 O 0.18487 0.31598 0.28772
 O7 O 0.27254 0.21441 0.32146
 O8 O 0.17118 0.19505 0.28384
 O9 O 0.19592 0.25241 0.27351
 O10 O 0.23956 0.20444 0.27368
 O11 O 0.24740 0.29312 0.27633
 O12 O 0.28876 0.24698 0.27705
 Zr13 Zr 0.24866 0.25380 0.20236
 Zr14 Zr 0.20379 0.29634 0.25003
 Zr15 Zr 0.28581 0.20490 0.25069
 Zr16 Zr 0.19645 0.21011 0.24764
 O17 O 0.34126 0.20460 0.24907
 O18 O 0.14223 0.22111 0.24367
 O19 O 0.24237 0.20778 0.22403
 O20 O 0.20104 0.25402 0.22412
 O21 O 0.25017 0.29734 0.22691
 O22 O 0.29308 0.24884 0.22747
 C23 C 0.17863 0.19904 0.30943
 C24 C 0.29797 0.19486 0.31430
 C25 C 0.18988 0.30737 0.31316
 O26 O 0.14836 0.29558 0.24889
 O27 O 0.18635 0.31654 0.21196
 O28 O 0.21835 0.28876 0.17937
 C29 C 0.19448 0.31002 0.18667
 O30 O 0.31554 0.30554 0.29164
 Zr31 Zr 0.29331 0.29094 0.25316
 O32 O 0.28449 0.28522 0.18185
 O33 O 0.21246 0.34919 0.25070
 O34 O 0.28938 0.34439 0.25544
 O35 O 0.34783 0.28040 0.25331
 O36 O 0.31418 0.31103 0.21684
 C37 C 0.30767 0.30589 0.19121
 O38 O 0.22163 0.23165 0.16863
 O39 O 0.27783 0.15198 0.25279
 O40 O 0.27918 0.21898 0.17981
 O41 O 0.30069 0.18288 0.21257
 O42 O 0.19924 0.15654 0.24922
 O43 O 0.17925 0.19015 0.20919
 C44 C 0.29621 0.19226 0.18720
 H45 H 0.23798 0.18336 0.28470
 H46 H 0.18065 0.25494 0.21147
 H47 H 0.31504 0.24731 0.21669
 H48 H 0.24916 0.31284 0.28881
 H49 H 0.12911 0.19981 0.24686
 H50 H 0.14053 0.31948 0.24926
 H51 H 0.18906 0.36004 0.25001
 H52 H 0.31308 0.35386 0.25219
 H53 H 0.17513 0.14794 0.25221
 H54 H 0.30139 0.14148 0.25353
 H55 H 0.34859 0.18056 0.24873
 H56 H 0.36034 0.30209 0.25034
 H57 H 0.15906 0.17485 0.21224
 H58 H 0.23233 0.24043 0.15135
 H59 H 0.25582 0.26188 0.34953
 H60 H 0.33318 0.32354 0.28857
 Zr61 Zr 0.74946 0.75488 0.29800
 O62 O 0.72310 0.73135 0.33144
 O63 O 0.78652 0.78429 0.31919
 O64 O 0.78130 0.72112 0.32081
 O65 O 0.68416 0.81445 0.28729
 O66 O 0.80516 0.68644 0.28828
 O67 O 0.71620 0.78753 0.32054
 O68 O 0.81958 0.80695 0.28471
 O69 O 0.79455 0.75006 0.27373
 O70 O 0.75153 0.79846 0.27344
 O71 O 0.74294 0.70968 0.27577
 O72 O 0.70189 0.75617 0.27573
 Zr73 Zr 0.74368 0.74946 0.20170
 Zr74 Zr 0.78709 0.70628 0.25018
 Zr75 Zr 0.70595 0.79833 0.24949
 Zr76 Zr 0.79504 0.79261 0.24802
 O77 O 0.65056 0.79932 0.24682
 O78 O 0.84930 0.78146 0.24495
 O79 O 0.74983 0.79529 0.22353
 O80 O 0.79075 0.74882 0.22437
 O81 O 0.74122 0.70583 0.22628
 O82 O 0.69878 0.75464 0.22606
 C83 C 0.81260 0.80178 0.31026
 C84 C 0.69125 0.80746 0.31275
 C85 C 0.80002 0.69550 0.31355
 O86 O 0.84254 0.70658 0.24998
 O87 O 0.80526 0.68613 0.21235
 O88 O 0.77442 0.71456 0.17922
 C89 C 0.79782 0.69292 0.18690
 O90 O 0.67452 0.69774 0.28995
 Zr91 Zr 0.69756 0.71244 0.25181
 O92 O 0.70853 0.71779 0.18062
 O93 O 0.77782 0.65353 0.25074
 O94 O 0.70082 0.65892 0.25398
 O95 O 0.64317 0.72357 0.25119
 O96 O 0.67702 0.69303 0.21522
 C97 C 0.68481 0.69755 0.18977
 O98 O 0.77154 0.77153 0.16836
 O99 O 0.71453 0.85115 0.25171
 O100 O 0.71414 0.78495 0.17869
 O101 O 0.69220 0.82069 0.21128
 O102 O 0.79252 0.84617 0.24972
 O103 O 0.81320 0.81284 0.20991
 C104 C 0.69728 0.81177 0.18597
 H105 H 0.75303 0.81934 0.28465
 H106 H 0.81144 0.74783 0.21211
 H107 H 0.67709 0.75642 0.21488
 H108 H 0.74081 0.68990 0.28824
 H109 H 0.86241 0.80271 0.24836
 H110 H 0.85014 0.68261 0.25045
 H111 H 0.80112 0.64246 0.25052
 H112 H 0.67705 0.64976 0.25042
 H113 H 0.81659 0.85458 0.25329
 H114 H 0.69109 0.86192 0.25211
 H115 H 0.64353 0.82345 0.24635
 H116 H 0.63045 0.70203 0.24808
 H117 H 0.83326 0.82817 0.21337
 H118 H 0.76106 0.76296 0.15093
 H119 H 0.73338 0.74026 0.34884
 H120 H 0.65675 0.67995 0.28660
 Zr121 Zr 0.75645 0.24238 -0.30027
 O122 O 0.73364 0.26597 -0.33535
 O123 O 0.79202 0.20920 -0.31918
 O124 O 0.79118 0.27392 -0.32267
 O125 O 0.68529 0.18883 -0.29109
 O126 O 0.81626 0.30737 -0.28975
 O127 O 0.72262 0.21075 -0.32328
 O128 O 0.81933 0.18322 -0.28300
 O129 O 0.80060 0.24438 -0.27452
 O130 O 0.75320 0.19978 -0.27466
 O131 O 0.75250 0.28860 -0.27910
 O132 O 0.70768 0.24578 -0.27989
 Zr133 Zr 0.74601 0.25134 -0.20453
 Zr134 Zr 0.79549 0.28939 -0.25205
 Zr135 Zr 0.70644 0.20431 -0.25273
 Zr136 Zr 0.79578 0.20291 -0.24780
 O137 O 0.65112 0.20837 -0.25183
 O138 O 0.85068 0.21035 -0.24413
 O139 O 0.74913 0.20459 -0.22526
 O140 O 0.79417 0.24767 -0.22525
 O141 O 0.74869 0.29423 -0.22990
 O142 O 0.70198 0.24910 -0.23032
 C143 C 0.81437 0.18830 -0.30884
 C144 C 0.69535 0.19346 -0.31626
 C145 C 0.81090 0.29878 -0.31510
 O146 O 0.85065 0.28459 -0.25003
 O147 O 0.81300 0.30962 -0.21405
 O148 O 0.77768 0.28520 -0.18170
 C149 C 0.80317 0.30477 -0.18885
 O150 O 0.68553 0.30493 -0.29601
 Zr151 Zr 0.70593 0.29047 -0.25682
 O152 O 0.71134 0.28494 -0.18548
 O153 O 0.79108 0.34270 -0.25373
 O154 O 0.71386 0.34336 -0.26115
 O155 O 0.65072 0.28404 -0.25671
 O156 O 0.68730 0.31436 -0.22139
 C157 C 0.69156 0.30820 -0.19561
 O158 O 0.77050 0.22900 -0.16962
 O159 O 0.70976 0.15088 -0.25406
 O160 O 0.71334 0.21823 -0.18194
 O161 O 0.68958 0.18365 -0.21466
 O162 O 0.78860 0.14970 -0.24713
 O163 O 0.81062 0.18343 -0.20851
 C164 C 0.69482 0.19248 -0.18932
 H165 H 0.75335 0.17835 -0.28521
 H166 H 0.81419 0.24760 -0.21221
 H167 H 0.67973 0.24936 -0.21982
 H168 H 0.75243 0.30810 -0.29196
 H169 H 0.86214 0.18806 -0.24653
 H170 H 0.86032 0.30786 -0.25056
 H171 H 0.81523 0.35189 -0.25279
 H172 H 0.69084 0.35459 -0.25876
 H173 H 0.81203 0.13909 -0.24886
 H174 H 0.68539 0.14226 -0.25493
 H175 H 0.64178 0.18500 -0.25115
 H176 H 0.64007 0.30670 -0.25426
 H177 H 0.83067 0.16778 -0.21068
 H178 H 0.75969 0.23887 -0.15282
 H179 H 0.74417 0.25565 -0.35208
 H180 H 0.66838 0.32349 -0.29364
 Zr181 Zr 0.24617 0.75253 -0.29615
 O182 O 0.26965 0.72809 -0.33037
 O183 O 0.21350 0.78755 -0.31633
 O184 O 0.21144 0.72151 -0.31915
 O185 O 0.31622 0.80681 -0.28539
 O186 O 0.18568 0.68779 -0.28670
 O187 O 0.28166 0.78321 -0.31851
 O188 O 0.18136 0.81032 -0.28159
 O189 O 0.20090 0.75048 -0.27177
 O190 O 0.24813 0.79525 -0.27080
 O191 O 0.24928 0.70648 -0.27442
 O192 O 0.29405 0.74936 -0.27431
 Zr193 Zr 0.25285 0.74416 -0.19986
 Zr194 Zr 0.20527 0.70579 -0.24857
 Zr195 Zr 0.29391 0.79103 -0.24751
 Zr196 Zr 0.20436 0.79207 -0.24532
 O197 O 0.34917 0.78704 -0.24509
 O198 O 0.14946 0.78421 -0.24254
 O199 O 0.25009 0.79067 -0.22132
 O200 O 0.20552 0.74766 -0.22210
 O201 O 0.25118 0.70108 -0.22495
 O202 O 0.29776 0.74647 -0.22454
 C203 C 0.18963 0.80769 -0.30719
 C204 C 0.30804 0.80153 -0.31096
 C205 C 0.19139 0.69668 -0.31198
 O206 O 0.15003 0.71032 -0.24809
 O207 O 0.18586 0.68638 -0.21084
 O208 O 0.22023 0.71027 -0.17773
 C209 C 0.19444 0.69118 -0.18529
 O210 O 0.31660 0.68954 -0.28915
 Zr211 Zr 0.29492 0.70485 -0.25074
 O212 O 0.28750 0.71114 -0.17943
 O213 O 0.20988 0.65249 -0.24961
 O214 O 0.28693 0.65190 -0.25426
 O215 O 0.35009 0.71150 -0.24973
 O216 O 0.31308 0.68191 -0.21455
 C217 C 0.30821 0.68824 -0.18889
 O218 O 0.22691 0.76642 -0.16575
 O219 O 0.29059 0.84446 -0.24928
 O220 O 0.28417 0.77814 -0.17673
 O221 O 0.30884 0.81243 -0.20930
 O222 O 0.21102 0.84536 -0.24558
 O223 O 0.18802 0.81238 -0.20681
 C224 C 0.30260 0.80405 -0.18400
 H225 H 0.24856 0.81670 -0.28140
 H226 H 0.18501 0.74789 -0.20963
 H227 H 0.31963 0.74651 -0.21348
 H228 H 0.24969 0.68692 -0.28714
 H229 H 0.13785 0.80632 -0.24570
 H230 H 0.14046 0.68702 -0.24878
 H231 H 0.18571 0.64329 -0.24914
 H232 H 0.30980 0.64066 -0.25102
 H233 H 0.18762 0.85566 -0.24855
 H234 H 0.31496 0.85314 -0.24971
 H235 H 0.35842 0.81044 -0.24426
 H236 H 0.36081 0.68895 -0.24675
 H237 H 0.16821 0.82815 -0.20983
 H238 H 0.23723 0.75670 -0.14863
 H239 H 0.25999 0.73852 -0.34746
 H240 H 0.33337 0.67079 -0.28606
 Zr241 Zr 1.25376 1.25961 0.79839
 O242 O 1.22961 1.23483 0.83226
 O243 O 1.28845 1.29244 0.81900
 O244 O 1.28791 1.22796 0.82126
 O245 O 1.18378 1.31404 0.78776
 O246 O 1.31385 1.19473 0.78871
 O247 O 1.21853 1.29023 0.82089
 O248 O 1.31649 1.31997 0.78392
 O249 O 1.29896 1.25799 0.77391
 O250 O 1.25185 1.30278 0.77333
 O251 O 1.25043 1.21389 0.77635
 O252 O 1.20596 1.25684 0.77637
 Zr253 Zr 1.24733 1.25291 0.70210
 Zr254 Zr 1.29454 1.21349 0.75062
 Zr255 Zr 1.20615 1.29897 0.74990
 Zr256 Zr 1.29552 1.30007 0.74770
 O257 O 1.15086 1.29521 0.74760
 O258 O 1.35050 1.29222 0.74652
 O259 O 1.24992 1.29912 0.72369
 O260 O 1.29458 1.25581 0.72441
 O261 O 1.24872 1.20938 0.72686
 O262 O 1.20231 1.25482 0.72665
 C263 C 1.31061 1.31408 0.80950
 C264 C 1.19204 1.30825 0.81319
 C265 C 1.30790 1.20323 0.81400
 O266 O 1.34977 1.21810 0.75003
 O267 O 1.31325 1.19382 0.71282
 O268 O 1.27931 1.21902 0.67982
 C269 C 1.30428 1.19906 0.68744
 O270 O 1.18294 1.19639 0.79058
 Zr271 Zr 1.20488 1.21275 0.75248
 O272 O 1.21300 1.22050 0.68108
 O273 O 1.28991 1.16016 0.75166
 O274 O 1.21299 1.15974 0.75512
 O275 O 1.14972 1.21943 0.75178
 O276 O 1.18645 1.19121 0.71580
 C277 C 1.19182 1.19777 0.69019
 O278 O 1.27402 1.27596 0.66861
 O279 O 1.20981 1.35236 0.75187
 O280 O 1.21604 1.28694 0.67907
 O281 O 1.19084 1.32045 0.71177
 O282 O 1.28836 1.35328 0.74671
 O283 O 1.31319 1.31997 0.70933
 C284 C 1.19720 1.31244 0.68644
 H285 H 1.25146 1.32400 0.78415
 H286 H 1.31516 1.25598 0.71199
 H287 H 1.18045 1.25509 0.71558
 H288 H 1.24982 1.19412 0.78892
 H289 H 1.36198 1.31436 0.74977
 H290 H 1.35930 1.19479 0.75061
 H291 H 1.31406 1.15094 0.75117
 H292 H 1.19022 1.14855 0.75139
 H293 H 1.31160 1.36396 0.74961
 H294 H 1.18548 1.36112 0.75231
 H295 H 1.14170 1.31865 0.74684
 H296 H 1.13896 1.19699 0.74838
 H297 H 1.33336 1.33525 0.71255
 H298 H 1.26392 1.26675 0.65125
 H299 H 1.23932 1.24473 0.84950
 H300 H 1.16675 1.17724 0.78721
 Zr301 Zr 0.74791 0.75427 0.79703
 O302 O 0.77268 0.77825 0.83099
 O303 O 0.71209 0.72245 0.81714
 O304 O 0.71419 0.78668 0.81941
 O305 O 0.81688 0.69823 0.78817
 O306 O 0.68886 0.81956 0.78617
 O307 O 0.78033 0.72161 0.82017
 O308 O 0.68315 0.69635 0.78195
 O309 O 0.70333 0.75666 0.77183
 O310 O 0.74957 0.71107 0.77216
 O311 O 0.75258 0.79999 0.77513
 O312 O 0.79640 0.75601 0.77608
 Zr313 Zr 0.75708 0.76121 0.70097
 Zr314 Zr 0.70922 0.80104 0.74854
 Zr315 Zr 0.79603 0.71394 0.74960
 Zr316 Zr 0.70658 0.71457 0.74585
 O317 O 0.85141 0.71662 0.74823
 O318 O 0.65187 0.72344 0.74263
 O319 O 0.75284 0.71491 0.72261
 O320 O 0.70923 0.75877 0.72245
 O321 O 0.75574 0.80462 0.72568
 O322 O 0.80133 0.75829 0.72649
 C323 C 0.68891 0.70184 0.80767
 C324 C 0.80672 0.70317 0.81328
 C325 C 0.69422 0.81130 0.81165
 O326 O 0.65391 0.79763 0.74698
 O327 O 0.69103 0.82044 0.71052
 O328 O 0.72515 0.79494 0.67802
 C329 C 0.69980 0.81459 0.68528
 O330 O 0.82009 0.81531 0.79098
 Zr331 Zr 0.79879 0.80029 0.75228
 O332 O 0.79307 0.79323 0.68090
 O333 O 0.71509 0.85424 0.74938
 O334 O 0.79210 0.85342 0.75555
 O335 O 0.85383 0.79263 0.75201
 O336 O 0.81786 0.82284 0.71630
 C337 C 0.81379 0.81600 0.69065
 O338 O 0.73161 0.73883 0.66659
 O339 O 0.79119 0.66065 0.75169
 O340 O 0.78846 0.72683 0.67865
 O341 O 0.81151 0.69196 0.71164
 O342 O 0.71251 0.66121 0.74608
 O343 O 0.69006 0.69440 0.70728
 C344 C 0.80622 0.70062 0.68621
 H345 H 0.74894 0.68983 0.78302
 H346 H 0.68895 0.75871 0.70967
 H347 H 0.82346 0.75775 0.71584
 H348 H 0.75314 0.81970 0.78768
 H349 H 0.63977 0.70161 0.74591
 H350 H 0.64483 0.82111 0.74754
 H351 H 0.69115 0.86393 0.74862
 H352 H 0.81530 0.86415 0.75268
 H353 H 0.68896 0.65116 0.74882
 H354 H 0.81531 0.65141 0.75256
 H355 H 0.86004 0.69300 0.74784
 H356 H 0.86505 0.81497 0.74908
 H357 H 0.66983 0.67911 0.71019
 H358 H 0.74243 0.74821 0.64956
 H359 H 0.76235 0.76878 0.84817
 H360 H 0.83746 0.83360 0.78810
 Zr361 Zr 1.25501 0.74379 0.19923
 O362 O 1.22913 0.76777 0.16569
 O363 O 1.29091 0.71284 0.17843
 O364 O 1.28766 0.77708 0.17675
 O365 O 1.18826 0.68546 0.20875
 O366 O 1.31112 0.81174 0.20957
 O367 O 1.22263 0.71097 0.17624
 O368 O 1.32351 0.69001 0.21331
 O369 O 1.29992 0.74803 0.22391
 O370 O 1.25588 0.70029 0.22391
 O371 O 1.24868 0.78904 0.22139
 O372 O 1.20695 0.74323 0.22077
 Zr373 Zr 1.24782 0.74905 0.29525
 Zr374 Zr 1.29256 0.79188 0.24744
 Zr375 Zr 1.20978 0.70097 0.24702
 Zr376 Zr 1.29927 0.70554 0.24971
 O377 O 1.15435 0.70092 0.24895
 O378 O 1.35358 0.71647 0.25296
 O379 O 1.25348 0.70324 0.27345
 O380 O 1.29528 0.74932 0.27330
 O381 O 1.24639 0.79279 0.27077
 O382 O 1.20307 0.74467 0.27045
 C383 C 1.31603 0.69433 0.18773
 C384 C 1.19695 0.69173 0.18349
 C385 C 1.30618 0.80278 0.18423
 O386 O 1.34799 0.79092 0.24839
 O387 O 1.31007 0.81198 0.28551
 O388 O 1.27812 0.78393 0.31812
 C389 C 1.30178 0.80545 0.31081
 O390 O 1.18041 0.80215 0.20653
 Zr391 Zr 1.20291 0.78696 0.24481
 O392 O 1.21285 0.78077 0.31609
 O393 O 1.28419 0.84476 0.24676
 O394 O 1.20707 0.84041 0.24255
 O395 O 1.14836 0.77650 0.24501
 O396 O 1.18269 0.80692 0.28136
 C397 C 1.18996 0.80184 0.30690
 O398 O 1.27523 0.72653 0.32871
 O399 O 1.21730 0.64801 0.24480
 O400 O 1.21754 0.71393 0.31791
 O401 O 1.19491 0.67885 0.28504
 O402 O 1.29635 0.65196 0.24848
 O403 O 1.31678 0.68535 0.28807
 C404 C 1.20001 0.68757 0.31043
 H405 H 1.25713 0.67926 0.21289
 H406 H 1.31576 0.75014 0.28587
 H407 H 1.18124 0.74320 0.28142
 H408 H 1.24698 0.80882 0.20889
 H409 H 1.36656 0.69516 0.24960
 H410 H 1.35590 0.81480 0.24799
 H411 H 1.30766 0.85552 0.24731
 H412 H 1.18346 0.84994 0.24598
 H413 H 1.32044 0.64331 0.24553
 H414 H 1.19365 0.63768 0.24403
 H415 H 1.14684 0.67692 0.24916
 H416 H 1.13598 0.79815 0.24832
 H417 H 1.33740 0.67066 0.28497
 H418 H 1.26478 0.73517 0.34609
 H419 H 1.23936 0.75881 0.14834
 H420 H 1.16258 0.81988 0.20983
 Zr421 Zr 0.75198 1.24638 0.20500
 O422 O 0.77764 1.22282 0.17135
 O423 O 0.71655 1.27810 0.18421
 O424 O 0.71911 1.21382 0.18186
 O425 O 0.81855 1.30463 0.21604
 O426 O 0.69406 1.17962 0.21429
 O427 O 0.78567 1.27893 0.18274
 O428 O 0.68382 1.30087 0.21885
 O429 O 0.70672 1.24241 0.22920
 O430 O 0.75138 1.28941 0.23010
 O431 O 0.75721 1.20064 0.22686
 O432 O 0.79972 1.24592 0.22717
 Zr433 Zr 0.75810 1.23888 0.30135
 Zr434 Zr 0.71304 1.19807 0.25246
 Zr435 Zr 0.79705 1.28762 0.25386
 Zr436 Zr 0.70765 1.28435 0.25539
 O437 O 0.85243 1.28647 0.25642
 O438 O 0.65317 1.27404 0.25806
 O439 O 0.75309 1.28518 0.27979
 O440 O 0.71090 1.24012 0.27872
 O441 O 0.75894 1.19577 0.27627
 O442 O 0.80309 1.24329 0.27697
 C443 C 0.69142 1.29667 0.19330
 C444 C 0.81077 1.29863 0.19054
 C445 C 0.69948 1.18869 0.18902
 O446 O 0.65761 1.19984 0.25291
 O447 O 0.69426 1.17778 0.29005
 O448 O 0.72587 1.20475 0.32346
 C449 C 0.70172 1.18406 0.31555
 O450 O 0.82557 1.18778 0.21240
 Zr451 Zr 0.80275 1.20160 0.25077
 O452 O 0.79202 1.20521 0.32203
 O453 O 0.72063 1.14510 0.25135
 O454 O 0.79780 1.14831 0.24733
 O455 O 0.85751 1.21083 0.25212
 O456 O 0.82190 1.17976 0.28706
 C457 C 0.81447 1.18382 0.31264
 O458 O 0.73142 1.26095 0.33518
 O459 O 0.79063 1.34078 0.25212
 O460 O 0.78859 1.27346 0.32457
 O461 O 0.81070 1.30959 0.29216
 O462 O 0.71185 1.33786 0.25470
 O463 O 0.68984 1.30421 0.29364
 C464 C 0.80541 1.30044 0.31743
 H465 H 0.75055 1.31066 0.21924
 H466 H 0.69019 1.23954 0.29099
 H467 H 0.82477 1.24415 0.28824
 H468 H 0.75863 1.18107 0.21419
 H469 H 0.64049 1.29556 0.25473
 H470 H 0.64926 1.17612 0.25208
 H471 H 0.69699 1.13469 0.25153
 H472 H 0.82126 1.13832 0.25066
 H473 H 0.68806 1.34708 0.25131
 H474 H 0.81446 1.35076 0.25185
 H475 H 0.86037 1.31032 0.25721
 H476 H 0.86933 1.18873 0.25478
 H477 H 0.66968 1.31948 0.29032
 H478 H 0.74172 1.25155 0.35243
 H479 H 0.76767 1.23239 0.15404
 H480 H 0.84285 1.16944 0.21542
 O481 O 0.54566 1.06053 0.05118
 O482 O 0.58542 1.03086 0.02499
 C483 C 0.57733 1.05189 0.04472
 O484 O 0.44918 0.93927 0.04689
 O485 O 0.40894 0.97224 0.02372
 C486 C 0.41738 0.94832 0.04110
 O487 O 0.54579 0.94347 0.04971
 O488 O 0.58545 0.97423 0.02414
 C489 C 0.57743 0.95248 0.04340
 O490 O 0.44915 1.06377 0.04924
 O491 O 0.40894 1.03245 0.02468
 C492 C 0.41733 1.05511 0.04309
 Zr493 Zr 0.49722 1.04428 0.03508
 O494 O 0.49713 1.03723 0.07839
 O495 O 0.49626 1.09768 0.03868
 Zr496 Zr 0.49731 0.95960 0.03357
 O497 O 0.49615 0.96237 0.07719
 O498 O 0.50068 0.90614 0.03343
 O499 O 0.52883 1.00186 0.03946
 O500 O 0.46628 1.00179 0.03949
 O501 O 0.44854 1.06653 -0.04745
 O502 O 0.40863 1.03376 -0.02387
 C503 C 0.41683 1.05754 -0.04146
 O504 O 0.54402 0.94752 -0.05378
 O505 O 0.58459 0.97431 -0.02629
 C506 C 0.57593 0.95475 -0.04687
 O507 O 0.44808 0.94277 -0.04977
 O508 O 0.40835 0.97382 -0.02473
 C509 C 0.41640 0.95116 -0.04318
 O510 O 0.54475 1.06271 -0.05068
 O511 O 0.58496 1.03168 -0.02584
 C512 C 0.57650 1.05353 -0.04490
 Zr513 Zr 0.49665 1.04655 -0.03398
 O514 O 0.49274 1.04861 -0.07760
 O515 O 0.50018 1.09993 -0.03146
 Zr516 Zr 0.49643 0.96118 -0.03523
 O517 O 0.49446 0.95662 -0.07872
 O518 O 0.49828 0.90802 -0.03074
 Zr519 Zr 0.55017 1.00302 -0.00067
 Zr520 Zr 0.44351 1.00300 -0.00010
 O521 O 0.46590 1.00406 -0.03976
 O522 O 0.52760 1.00402 -0.04047
 O523 O 0.46524 1.05208 0.00077
 O524 O 0.52815 0.95422 -0.00117
 O525 O 0.52809 1.05168 0.00045
 O526 O 0.46500 0.95381 -0.00083
 H527 H 0.45086 1.00129 0.05594
 H528 H 0.54420 0.93451 -0.00155
 H529 H 0.45034 1.00460 -0.05617
 H530 H 0.54443 1.07116 0.00046
 H531 H 0.48347 0.89777 0.01973
 H532 H 0.49886 0.89871 -0.04972
 H533 H 0.48963 0.97940 -0.08622
 H534 H 0.51053 1.03299 -0.08521
 H535 H 0.48173 1.10764 -0.01858
 H536 H 0.51266 1.10723 0.02494
 H537 H 0.49613 1.06014 0.08661
 H538 H 0.49590 0.93871 0.08402
 O539 O 1.04509 0.56300 0.54988
 O540 O 1.08500 0.53218 0.52477
 C541 C 1.07679 0.55417 0.54378
 O542 O 0.94989 0.44038 0.54912
 O543 O 0.90922 0.47204 0.52520
 C544 C 0.91798 0.44876 0.54306
 O545 O 1.04642 0.44541 0.55149
 O546 O 1.08571 0.47533 0.52491
 C547 C 1.07796 0.45421 0.54469
 O548 O 0.94889 0.56539 0.54792
 O549 O 0.90875 0.53250 0.52470
 C550 C 0.91711 0.55619 0.54226
 Zr551 Zr 0.99692 0.54541 0.53440
 O552 O 0.99697 0.53989 0.57786
 O553 O 0.99577 0.59890 0.53680
 Zr554 Zr 0.99772 0.46066 0.53523
 O555 O 0.99671 0.46525 0.57874
 O556 O 1.00155 0.40725 0.53665
 O557 O 1.02890 0.50340 0.53994
 O558 O 0.96634 0.50284 0.54008
 O559 O 0.94749 0.56362 0.45147
 O560 O 0.90806 0.53158 0.47618
 C561 C 0.91590 0.55465 0.45792
 O562 O 1.04445 0.44526 0.44844
 O563 O 1.08483 0.47474 0.47428
 C564 C 1.07629 0.45368 0.45467
 O565 O 0.94836 0.44008 0.45243
 O566 O 0.90845 0.47176 0.47676
 C567 C 0.91663 0.44853 0.45882
 O568 O 1.04398 0.56003 0.44779
 O569 O 1.08454 0.53105 0.47391
 C570 C 1.07586 0.55159 0.45397
 Zr571 Zr 0.99600 0.54484 0.46537
 O572 O 0.99187 0.54557 0.42174
 O573 O 0.99923 0.59830 0.46662
 Zr574 Zr 0.99659 0.45942 0.46642
 O575 O 0.99504 0.45318 0.42304
 O576 O 0.99870 0.40647 0.47229
 Zr577 Zr 1.04999 0.50306 0.49974
 Zr578 Zr 0.94342 0.50222 0.50055
 O579 O 0.96565 0.50186 0.46082
 O580 O 1.02725 0.50229 0.46000
 O581 O 0.96470 0.55151 0.50001
 O582 O 1.02847 0.45409 0.50056
 O583 O 1.02758 0.55161 0.49952
 O584 O 0.96536 0.45320 0.50108
 H585 H 0.95092 0.50289 0.55653
 H586 H 1.04474 0.43454 0.50058
 H587 H 0.95000 0.50164 0.44447
 H588 H 1.04377 0.57119 0.49894
 H589 H 0.98460 0.39816 0.52305
 H590 H 0.99957 0.39644 0.45358
 H591 H 0.98783 0.47506 0.41496
 H592 H 1.00871 0.52876 0.41449
 H593 H 0.97997 0.60647 0.47856
 H594 H 1.01059 0.60802 0.52182
 H595 H 0.99565 0.56307 0.58554
 H596 H 0.99668 0.44188 0.58622
 O597 O 0.93132 0.45456 -0.04891
 O598 O 0.96451 0.41607 -0.02452
 C599 C 0.94121 0.42400 -0.04318
 O600 O 1.05640 0.54716 -0.05143
 O601 O 1.02548 0.58598 -0.02588
 C602 C 1.04794 0.57786 -0.04504
 O603 O 1.05280 0.45412 -0.05312
 O604 O 1.02312 0.41570 -0.02607
 C605 C 1.04417 0.42355 -0.04628
 O606 O 0.92808 0.54801 -0.04597
 O607 O 0.96343 0.58626 -0.02340
 C608 C 0.93822 0.57857 -0.04044
 Zr609 Zr 0.94912 0.50117 -0.03322
 O610 O 0.95103 0.50194 -0.07687
 O611 O 0.89357 0.50253 -0.03259
 Zr612 Zr 1.03691 0.50085 -0.03665
 O613 O 1.02837 0.50117 -0.07984
 O614 O 1.09214 0.50187 -0.04127
 O615 O 0.99261 0.47064 -0.04015
 O616 O 0.99282 0.53088 -0.04005
 O617 O 0.93539 0.54763 0.05100
 O618 O 0.96631 0.58617 0.02501
 C619 C 0.94388 0.57824 0.04427
 O620 O 1.05918 0.45441 0.04833
 O621 O 1.02580 0.41591 0.02430
 C622 C 1.04930 0.42385 0.04274
 O623 O 1.06292 0.54760 0.04516
 O624 O 1.02799 0.58610 0.02240
 C625 C 1.05319 0.57820 0.03941
 O626 O 0.94106 0.45483 0.05477
 O627 O 0.96774 0.41592 0.02655
 C628 C 0.94855 0.42407 0.04776
 Zr629 Zr 0.95328 0.50109 0.03555
 O630 O 0.94980 0.50345 0.07906
 O631 O 0.89792 0.49732 0.03338
 Zr632 Zr 1.04178 0.50103 0.03231
 O633 O 1.04559 0.50449 0.07587
 O634 O 1.09698 0.49766 0.02862
 Zr635 Zr 0.99523 0.44975 -0.00008
 Zr636 Zr 0.99560 0.55247 -0.00046
 O637 O 0.99799 0.53049 0.03916
 O638 O 0.99788 0.47117 0.03973
 O639 O 0.94458 0.53189 0.00140
 O640 O 1.04570 0.47090 -0.00225
 O641 O 0.94473 0.47083 0.00160
 O642 O 1.04635 0.53150 -0.00254
 H643 H 0.99180 0.54583 -0.05650
 H644 H 1.06585 0.45514 -0.00275
 H645 H 0.99926 0.54524 0.05564
 H646 H 0.92488 0.45473 0.00273
 H647 H 1.10241 0.48522 -0.02832
 H648 H 1.10452 0.51535 0.01540
 H649 H 1.03023 0.48682 0.08386
 H650 H 0.97407 0.50441 0.08615
 H651 H 0.88901 0.51818 0.02444
 H652 H 0.88508 0.48356 -0.02106
 H653 H 0.92638 0.50316 -0.08333
 H654 H 1.05187 0.50206 -0.08850
 O655 O 0.56174 1.04589 0.54616
 O656 O 0.52723 1.08447 0.52309
 C657 C 0.55217 1.07653 0.54035
 O658 O 0.54998 0.95300 0.44603
 O659 O 0.52214 0.91421 0.47387
 C660 C 0.54215 0.92230 0.45307
 O661 O 0.55563 1.04571 0.44921
 O662 O 0.52478 1.08445 0.47488
 C663 C 0.54745 1.07636 0.45591
 O664 O 0.55767 0.95254 0.54908
 O665 O 0.52486 0.91414 0.52439
 C666 C 0.54813 0.92199 0.54304
 Zr667 Zr 0.54062 0.99924 0.53314
 O668 O 0.59597 0.99587 0.53117
 O669 O 0.54050 1.00070 0.57681
 Zr670 Zr 0.53690 0.99935 0.46444
 O671 O 0.59209 0.99738 0.46794
 O672 O 0.54052 1.00067 0.42086
 O673 O 0.54571 1.03005 0.49848
 O674 O 0.54502 0.96905 0.49851
 O675 O 0.43844 0.95316 0.55424
 O676 O 0.46642 0.91438 0.52665
 C677 C 0.44645 0.92246 0.54747
 O678 O 0.42802 1.04640 0.45373
 O679 O 0.46281 1.08468 0.47678
 C680 C 0.43787 1.07696 0.45947
 O681 O 0.43112 0.95324 0.45102
 O682 O 0.46384 0.91455 0.47554
 C683 C 0.44078 0.92263 0.45676
 O684 O 0.43388 1.04611 0.55097
 O685 O 0.46526 1.08457 0.52518
 C686 C 0.44266 1.07671 0.54431
 Zr687 Zr 0.45239 0.99956 0.53593
 O688 O 0.39709 0.99781 0.53362
 O689 O 0.45195 1.00200 0.57957
 Zr690 Zr 0.44841 0.99970 0.46724
 O691 O 0.39320 0.99643 0.47102
 O692 O 0.44473 1.00301 0.42366
 Zr693 Zr 0.49485 1.05090 0.50006
 Zr694 Zr 0.49437 0.94813 0.50012
 O695 O 0.44390 0.96938 0.50187
 O696 O 0.44378 1.03049 0.50182
 O697 O 0.49673 0.96926 0.54000
 O698 O 0.49251 1.02900 0.46053
 O699 O 0.49696 1.02898 0.53967
 O700 O 0.49220 0.96958 0.46022
 H701 H 0.56527 0.95338 0.49774
 H702 H 0.49161 1.04386 0.44404
 H703 H 0.42360 0.95375 0.50266
 H704 H 0.49798 1.04370 0.55620
 H705 H 0.51686 1.00584 0.41370
 H706 H 0.46118 0.98623 0.41585
 H707 H 0.38539 1.01559 0.48260
 H708 H 0.38867 0.99725 0.55296
 H709 H 0.47470 0.99285 0.58597
 H710 H 0.56541 1.00059 0.58271
 H711 H 0.60416 1.01358 0.51822
 H712 H 0.60115 0.99623 0.44881
 O713 O 0.95714 0.91949 0.47035
 O714 O 0.97842 0.95315 0.43553
 C715 C 0.96080 0.92729 0.44455
 O716 O 0.93620 1.04628 0.53757
 O717 O 0.97648 1.02591 0.56874
 C718 C 0.94942 1.04409 0.56211
 O719 O 0.92609 1.03129 0.46265
 O720 O 0.96441 1.00813 0.43150
 C721 C 0.93568 1.02394 0.43773
 O722 O 0.96967 0.92486 0.54591
 O723 O 0.99168 0.96759 0.57291
 C724 C 0.97672 0.93838 0.56960
 Zr725 Zr 0.97611 0.94361 0.50578
 O726 O 0.92341 0.92895 0.51237
 O727 O 0.99362 0.89289 0.50697
 Zr728 Zr 0.95254 1.02494 0.50035
 O729 O 0.90089 1.00700 0.50623
 O730 O 0.93391 1.07482 0.49433
 O731 O 0.95569 0.97985 0.47893
 O732 O 0.95989 0.98551 0.52774
 O733 O 1.08481 0.95502 0.53747
 O734 O 1.04850 0.98073 0.56871
 C735 C 1.07586 0.96279 0.56240
 O736 O 1.05325 1.06054 0.45515
 O737 O 1.02448 1.02207 0.42779
 C738 C 1.04527 1.04758 0.43145
 O739 O 1.05243 1.07327 0.53105
 O740 O 1.03286 1.03812 0.56543
 C741 C 1.04849 1.06525 0.55681
 O742 O 1.08097 0.95130 0.46138
 O743 O 1.03801 0.96808 0.43113
 C744 C 1.06787 0.95407 0.43680
 Zr745 Zr 1.06059 0.96559 0.49976
 O746 O 1.11419 0.97962 0.49900
 O747 O 1.07470 0.91380 0.50021
 Zr748 Zr 1.03710 1.04751 0.49499
 O749 O 1.08856 1.06723 0.49359
 O750 O 1.01833 1.09733 0.48835
 Zr751 Zr 1.00338 0.99097 0.45907
 Zr752 Zr 1.01001 0.99998 0.54139
 O753 O 1.05727 1.01070 0.52085
 O754 O 1.05375 1.00557 0.47267
 O755 O 1.02218 0.95089 0.52771
 O756 O 0.99136 1.03985 0.47316
 O757 O 1.01801 0.94584 0.47902
 O758 O 0.99501 1.04543 0.52171
 H759 H 0.94123 0.98210 0.54168
 H760 H 0.98547 1.05748 0.45932
 H761 H 1.07834 1.01687 0.53176
 H762 H 1.02225 0.92531 0.46780
 H763 H 0.95219 1.09022 0.50148
 H764 H 1.01028 1.10629 0.50633
 H765 H 1.10454 1.04761 0.49299
 H766 H 1.11808 0.99345 0.48221
 H767 H 1.06042 0.90263 0.51464
 H768 H 0.97240 0.87871 0.50934
 H769 H 0.90871 0.94303 0.50002
 H770 H 0.88553 1.02720 0.50556
 O771 O 0.56793 0.43615 0.03792
 O772 O 0.53315 0.46315 0.06955
 C773 C 0.55824 0.44257 0.06293
 O774 O 0.57025 0.56138 -0.03148
 O775 O 0.54004 0.53308 -0.06526
 C776 C 0.56233 0.55578 -0.05705
 O777 O 0.57177 0.54869 0.04423
 O778 O 0.53455 0.51918 0.07267
 C779 C 0.56104 0.53900 0.06830
 O780 O 0.56506 0.43651 -0.03822
 O781 O 0.53780 0.47256 -0.06864
 C782 C 0.55744 0.44673 -0.06289
 Zr783 Zr 0.54892 0.45430 0.00019
 O784 O 0.60431 0.45179 -0.00125
 O785 O 0.54451 0.40098 -0.00049
 Zr786 Zr 0.55196 0.53862 0.00481
 O787 O 0.60718 0.53411 0.00414
 O788 O 0.55509 0.59145 0.01155
 O789 O 0.55594 0.49419 0.02728
 O790 O 0.55826 0.49825 -0.02165
 O791 O 0.44898 0.43913 -0.04197
 O792 O 0.48040 0.47425 -0.07054
 C793 C 0.45915 0.44923 -0.06607
 O794 O 0.44087 0.55317 0.03979
 O795 O 0.47259 0.52116 0.07057
 C796 C 0.44817 0.54274 0.06447
 O797 O 0.45094 0.56519 -0.03559
 O798 O 0.48180 0.53435 -0.06743
 C799 C 0.46048 0.55846 -0.06061
 O800 O 0.43877 0.43873 0.03382
 O801 O 0.47102 0.46511 0.06751
 C802 C 0.44621 0.44500 0.05936
 Zr803 Zr 0.46111 0.45724 -0.00263
 O804 O 0.40617 0.46091 -0.00849
 O805 O 0.45727 0.40385 -0.00246
 Zr806 Zr 0.46411 0.54182 0.00188
 O807 O 0.40924 0.54577 -0.00376
 O808 O 0.46678 0.59462 0.00903
 Zr809 Zr 0.50424 0.49449 0.04241
 Zr810 Zr 0.50863 0.50150 -0.04033
 O811 O 0.45720 0.50167 -0.02483
 O812 O 0.45422 0.49767 0.02393
 O813 O 0.50613 0.45120 -0.02597
 O814 O 0.50695 0.54460 0.02791
 O815 O 0.50362 0.44730 0.02262
 O816 O 0.50955 0.54911 -0.02083
 H817 H 0.57931 0.49846 -0.03362
 H818 H 0.50698 0.56318 0.04162
 H819 H 0.43752 0.50314 -0.03818
 H820 H 0.50253 0.42650 0.03407
 H821 H 0.53991 0.60254 -0.00236
 H822 H 0.48068 0.60484 -0.00606
 H823 H 0.39824 0.52778 0.00749
 H824 H 0.39591 0.47039 0.00857
 H825 H 0.47892 0.39514 -0.01112
 H826 H 0.56878 0.39203 -0.00017
 H827 H 0.61333 0.46973 0.01110
 H828 H 0.61663 0.55735 0.00609
 C829 C 0.33928 1.13027 0.12245
 C830 C 0.33467 1.11649 0.14898
 C831 C 0.32091 1.13691 0.17013
 C832 C 0.31143 1.17084 0.16488
 C833 C 0.31595 1.18404 0.13796
 C834 C 0.33016 1.16397 0.11678
 C835 C 0.35496 1.10927 0.10040
 C836 C 0.36131 1.12359 0.07426
 C837 C 0.37898 1.10441 0.05413
 C838 C 0.38997 1.07117 0.06004
 C839 C 0.38218 1.05682 0.08596
 C840 C 0.36491 1.07582 0.10631
 C841 C 0.33593 1.17707 0.09012
 C842 C 0.35139 1.15732 0.06931
 C843 C 0.34426 1.08265 0.15386
 C844 C 0.35907 1.06268 0.13292
 H845 H 0.32898 1.20303 0.08543
 H846 H 0.35606 1.16871 0.04927
 H847 H 0.34069 1.07161 0.17417
 H848 H 0.36663 1.03692 0.13776
 H849 H 0.31735 1.12629 0.19060
 H850 H 0.30892 1.21007 0.13357
 H851 H 0.38600 1.11589 0.03454
 H852 H 0.39184 1.03175 0.09091
 C853 C 0.84487 0.63595 0.62152
 C854 C 0.84009 0.62277 0.64822
 C855 C 0.82823 0.64419 0.66942
 C856 C 0.82067 0.67855 0.66403
 C857 C 0.82545 0.69121 0.63698
 C858 C 0.83788 0.67012 0.61576
 C859 C 0.85840 0.61376 0.59936
 C860 C 0.86508 0.62741 0.57305
 C861 C 0.88103 0.60701 0.55284
 C862 C 0.88994 0.57320 0.55879
 C863 C 0.88153 0.55949 0.58483
 C864 C 0.86611 0.57976 0.60532
 C865 C 0.84384 0.68257 0.58892
 C866 C 0.85740 0.66167 0.56803
 C867 C 0.84743 0.58842 0.65319
 C868 C 0.86015 0.56731 0.63213
 H869 H 0.83855 0.70887 0.58415
 H870 H 0.86237 0.67257 0.54786
 H871 H 0.84369 0.57783 0.67364
 H872 H 0.86604 0.54116 0.63704
 H873 H 0.82433 0.63398 0.68999
 H874 H 0.81983 0.71755 0.63251
 H875 H 0.88863 0.61797 0.53319
 H876 H 0.88965 0.53391 0.58983
 C877 C 0.65594 0.87684 0.12228
 C878 C 0.66950 0.84507 0.11505
 C879 C 0.68321 0.82389 0.13585
 C880 C 0.68299 0.83413 0.16381
 C881 C 0.66937 0.86628 0.17051
 C882 C 0.65587 0.88766 0.14989
 C883 C 0.64037 0.89873 0.10068
 C884 C 0.62559 0.92988 0.10820
 C885 C 0.60806 0.94918 0.08816
 C886 C 0.60501 0.93753 0.06084
 C887 C 0.62106 0.90689 0.05327
 C888 C 0.63878 0.88725 0.07323
 C889 C 0.64176 0.91949 0.15641
 C890 C 0.62686 0.94022 0.13593
 C891 C 0.66847 0.83492 0.08722
 C892 C 0.65328 0.85557 0.06671
 H893 H 0.64169 0.92822 0.17761
 H894 H 0.61558 0.96424 0.14197
 H895 H 0.67892 0.81052 0.08131
 H896 H 0.65232 0.84637 0.04566
 H897 H 0.69358 0.79931 0.13031
 H898 H 0.66919 0.87471 0.19179
 H899 H 0.59451 0.97206 0.09421
 H900 H 0.61767 0.89734 0.03245
 C901 C 1.15585 0.37780 0.62310
 C902 C 1.16920 0.34599 0.61572
 C903 C 1.18272 0.32457 0.63643
 C904 C 1.18244 0.33463 0.66442
 C905 C 1.16889 0.36673 0.67129
 C906 C 1.15566 0.38838 0.65077
 C907 C 1.14065 0.40003 0.60159
 C908 C 1.12610 0.43124 0.60926
 C909 C 1.10881 0.45083 0.58929
 C910 C 1.10575 0.43939 0.56193
 C911 C 1.12168 0.40875 0.55419
 C912 C 1.13914 0.38882 0.57407
 C913 C 1.14183 0.42026 0.65745
 C914 C 1.12728 0.44131 0.63705
 C915 C 1.16826 0.33611 0.58783
 C916 C 1.15339 0.35707 0.56740
 H917 H 1.14171 0.42879 0.67870
 H918 H 1.11618 0.46538 0.64318
 H919 H 1.17854 0.31167 0.58181
 H920 H 1.15246 0.34807 0.54629
 H921 H 1.19305 0.30001 0.63080
 H922 H 1.16878 0.37503 0.69261
 H923 H 1.09536 0.47373 0.59545
 H924 H 1.11825 0.39937 0.53332
 C925 C 0.65246 1.12913 -0.12507
 C926 C 0.66514 1.16144 -0.11837
 C927 C 0.67873 1.18221 -0.13944
 C928 C 0.67929 1.17103 -0.16714
 C929 C 0.66622 1.13851 -0.17337
 C930 C 0.65291 1.11747 -0.15244
 C931 C 0.63752 1.10742 -0.10311
 C932 C 0.62388 1.07553 -0.11004
 C933 C 0.60715 1.05618 -0.08962
 C934 C 0.60364 1.06862 -0.06258
 C935 C 0.61849 1.10008 -0.05563
 C936 C 0.63551 1.11967 -0.07592
 C937 C 0.63978 1.08504 -0.15839
 C938 C 0.62552 1.06445 -0.13757
 C939 C 0.66361 1.17243 -0.09078
 C940 C 0.64893 1.15199 -0.06997
 H941 H 0.64011 1.07567 -0.17940
 H942 H 0.61508 1.03990 -0.14316
 H943 H 0.67335 1.19728 -0.08530
 H944 H 0.64760 1.16179 -0.04912
 H945 H 0.68865 1.20712 -0.13427
 H946 H 0.66672 1.12937 -0.19445
 H947 H 0.59458 1.03256 -0.09517
 H948 H 0.61473 1.11017 -0.03504
 C949 C 1.15586 0.62412 0.37394
 C950 C 1.17240 0.65450 0.38136
 C951 C 1.18697 0.67511 0.36060
 C952 C 1.18480 0.66567 0.33249
 C953 C 1.16825 0.63486 0.32559
 C954 C 1.15374 0.61407 0.34618
 C955 C 1.13938 0.60294 0.39555
 C956 C 1.12160 0.57330 0.38787
 C957 C 1.10345 0.55482 0.40804
 C958 C 1.10292 0.56574 0.43567
 C959 C 1.12194 0.59475 0.44336
 C960 C 1.14015 0.61363 0.42324
 C961 C 1.13664 0.58366 0.33948
 C962 C 1.12080 0.56366 0.35996
 C963 C 1.17350 0.66389 0.40937
 C964 C 1.15761 0.64387 0.42991
 H965 H 1.13497 0.57553 0.31816
 H966 H 1.10724 0.54078 0.35382
 H967 H 1.18628 0.68722 0.41542
 H968 H 1.15847 0.65247 0.45113
 H969 H 1.19962 0.69863 0.36633
 H970 H 1.16649 0.62704 0.30419
 H971 H 1.08787 0.53311 0.40201
 H972 H 1.12062 0.60373 0.46448
 C973 C 0.34166 0.87032 -0.12045
 C974 C 0.33814 0.88225 -0.14765
 C975 C 0.32590 0.86026 -0.16827
 C976 C 0.31675 0.82651 -0.16193
 C977 C 0.32009 0.81507 -0.13437
 C978 C 0.33290 0.83680 -0.11362
 C979 C 0.35585 0.89308 -0.09890
 C980 C 0.36130 0.88064 -0.07201
 C981 C 0.37793 0.90142 -0.05233
 C982 C 0.38884 0.93434 -0.05948
 C983 C 0.38169 0.94689 -0.08612
 C984 C 0.36549 0.92629 -0.10601
 C985 C 0.33764 0.82563 -0.08625
 C986 C 0.35176 0.84707 -0.06588
 C987 C 0.34725 0.91592 -0.15376
 C988 C 0.36064 0.93755 -0.13331
 H989 H 0.33097 0.79987 -0.08063
 H990 H 0.35575 0.83711 -0.04524
 H991 H 0.34447 0.92550 -0.17463
 H992 H 0.36798 0.96310 -0.13906
 H993 H 0.32310 0.86959 -0.18924
 H994 H 0.31319 0.78922 -0.12918
 H995 H 0.38454 0.89131 -0.03214
 H996 H 0.39128 0.97172 -0.09196
 C997 C 0.84290 0.36692 0.38148
 C998 C 0.83564 0.33296 0.38791
 C999 C 0.82325 0.31123 0.36701
 C1000 C 0.81887 0.32309 0.33967
 C1001 C 0.82647 0.35731 0.33371
 C1002 C 0.83827 0.37931 0.35451
 C1003 C 0.85673 0.38969 0.40317
 C1004 C 0.86488 0.42339 0.39646
 C1005 C 0.88078 0.44411 0.41643
 C1006 C 0.88918 0.43119 0.44273
 C1007 C 0.87977 0.39772 0.44950
 C1008 C 0.86339 0.37683 0.42976
 C1009 C 0.84591 0.41342 0.34881
 C1010 C 0.85892 0.43507 0.36941
 C1011 C 0.84149 0.32135 0.41503
 C1012 C 0.85531 0.34281 0.43551
 H1013 H 0.84227 0.42337 0.32813
 H1014 H 0.86511 0.46100 0.36395
 H1015 H 0.83598 0.29525 0.42034
 H1016 H 0.86024 0.33252 0.45592
 H1017 H 0.81754 0.28503 0.37192
 H1018 H 0.82287 0.36696 0.31292
 H1019 H 0.88929 0.46937 0.41083
 H1020 H 0.88734 0.38736 0.46939
 C1021 C 1.12945 0.35191 0.12256
 C1022 C 1.16322 0.34043 0.11589
 C1023 C 1.18490 0.32734 0.13695
 C1024 C 1.17316 0.32632 0.16458
 C1025 C 1.13933 0.33852 0.17081
 C1026 C 1.11732 0.35105 0.14991
 C1027 C 1.10656 0.36579 0.10060
 C1028 C 1.07305 0.37779 0.10747
 C1029 C 1.05248 0.39335 0.08703
 C1030 C 1.06542 0.39754 0.06008
 C1031 C 1.09853 0.38438 0.05317
 C1032 C 1.11926 0.36831 0.07343
 C1033 C 1.08334 0.36265 0.15583
 C1034 C 1.06157 0.37574 0.13498
 C1035 C 1.17461 0.34242 0.08831
 C1036 C 1.15312 0.35631 0.06751
 H1037 H 1.07360 0.36192 0.17683
 H1038 H 1.03578 0.38495 0.14053
 H1039 H 1.20057 0.33363 0.08283
 H1040 H 1.16327 0.35804 0.04667
 H1041 H 1.21078 0.31796 0.13185
 H1042 H 1.12970 0.33745 0.19184
 H1043 H 1.02756 0.40459 0.09256
 H1044 H 1.10898 0.38864 0.03264
 C1045 C 0.63165 0.85257 0.62161
 C1046 C 0.66578 0.84244 0.61459
 C1047 C 0.68847 0.83061 0.63547
 C1048 C 0.67738 0.82956 0.66326
 C1049 C 0.64312 0.84034 0.66981
 C1050 C 0.62014 0.85158 0.64911
 C1051 C 0.60775 0.86528 0.59988
 C1052 C 0.57392 0.87609 0.60712
 C1053 C 0.55242 0.89088 0.58692
 C1054 C 0.56478 0.89557 0.55986
 C1055 C 0.59815 0.88339 0.55254
 C1056 C 0.61982 0.86811 0.57256
 C1057 C 0.58581 0.86186 0.65542
 C1058 C 0.56308 0.87386 0.63477
 C1059 C 0.67650 0.84454 0.58686
 C1060 C 0.65402 0.85736 0.56626
 H1061 H 0.57656 0.86099 0.67655
 H1062 H 0.53706 0.88214 0.64061
 H1063 H 0.70270 0.83676 0.58110
 H1064 H 0.66369 0.85934 0.54529
 H1065 H 0.71464 0.82225 0.63012
 H1066 H 0.63395 0.83921 0.69097
 H1067 H 0.52725 0.90137 0.59274
 H1068 H 0.60812 0.88809 0.53193
 C1069 C 1.12903 0.64997 -0.12437
 C1070 C 1.15991 0.66658 -0.11639
 C1071 C 1.18223 0.68005 -0.13685
 C1072 C 1.17424 0.67645 -0.16539
 C1073 C 1.14328 0.65863 -0.17266
 C1074 C 1.12054 0.64592 -0.15238
 C1075 C 1.10542 0.63584 -0.10301
 C1076 C 1.07478 0.61890 -0.11119
 C1077 C 1.05378 0.60338 -0.09110
 C1078 C 1.06352 0.60391 -0.06305
 C1079 C 1.09365 0.62198 -0.05491
 C1080 C 1.11474 0.63815 -0.07494
 C1081 C 1.08929 0.62928 -0.15965
 C1082 C 1.06675 0.61613 -0.13942
 C1083 C 1.16787 0.66929 -0.08806
 C1084 C 1.14585 0.65512 -0.06775
 H1085 H 1.08229 0.62618 -0.18120
 H1086 H 1.04319 0.60306 -0.14597
 H1087 H 1.19161 0.68204 -0.08152
 H1088 H 1.15347 0.65718 -0.04624
 H1089 H 1.20574 0.69330 -0.13037
 H1090 H 1.13607 0.65531 -0.19417
 H1091 H 1.03116 0.58864 -0.09746
 H1092 H 1.10183 0.62150 -0.03345
 C1093 C 0.63274 1.14499 0.37804
 C1094 C 0.66649 1.15578 0.38565
 C1095 C 0.68952 1.16776 0.36512
 C1096 C 0.67912 1.16842 0.33710
 C1097 C 0.64531 1.15682 0.32994
 C1098 C 0.62198 1.14538 0.35029
 C1099 C 0.60839 1.13236 0.39945
 C1100 C 0.57494 1.12094 0.39163
 C1101 C 0.55301 1.10636 0.41159
 C1102 C 0.56448 1.10258 0.43905
 C1103 C 0.59750 1.11532 0.44689
 C1104 C 0.61965 1.13032 0.42707
 C1105 C 0.58802 1.13443 0.34341
 C1106 C 0.56489 1.12245 0.36372
 C1107 C 0.67645 1.15430 0.41362
 C1108 C 0.65355 1.14160 0.43393
 H1109 H 0.57933 1.13481 0.32208
 H1110 H 0.53917 1.11369 0.35744
 H1111 H 0.70238 1.16255 0.41983
 H1112 H 0.66263 1.14021 0.45512
 H1113 H 0.71537 1.17668 0.37094
 H1114 H 0.63670 1.15761 0.30860
 H1115 H 0.52818 1.09536 0.40534
 H1116 H 0.60688 1.11128 0.46780
 C1117 C 0.86331 0.65030 0.12356
 C1118 C 0.87470 0.65022 0.15116
 C1119 C 0.85255 0.66301 0.17179
 C1120 C 0.81930 0.67638 0.16506
 C1121 C 0.80828 0.67619 0.13716
 C1122 C 0.83010 0.66291 0.11637
 C1123 C 0.88639 0.63629 0.10186
 C1124 C 0.87445 0.63488 0.07439
 C1125 C 0.89536 0.61889 0.05427
 C1126 C 0.92788 0.60457 0.06166
 C1127 C 0.94000 0.60755 0.08902
 C1128 C 0.91930 0.62314 0.10925
 C1129 C 0.81944 0.66188 0.08854
 C1130 C 0.84111 0.64795 0.06797
 C1131 C 0.90812 0.63743 0.15761
 C1132 C 0.93002 0.62416 0.13703
 H1133 H 0.79391 0.67152 0.08263
 H1134 H 0.83148 0.64706 0.04691
 H1135 H 0.91731 0.63738 0.17880
 H1136 H 0.95535 0.61406 0.14300
 H1137 H 0.86165 0.66334 0.19301
 H1138 H 0.78284 0.68642 0.13163
 H1139 H 0.88540 0.61553 0.03347
 H1140 H 0.96438 0.59542 0.09496
 C1141 C 0.36674 1.15350 0.62366
 C1142 C 0.37959 1.15487 0.65084
 C1143 C 0.35867 1.16905 0.67164
 C1144 C 0.32515 1.18218 0.66547
 C1145 C 0.31275 1.18067 0.63797
 C1146 C 0.33335 1.16611 0.61704
 C1147 C 0.38837 1.13781 0.60184
 C1148 C 0.37495 1.13499 0.57486
 C1149 C 0.39454 1.11758 0.55475
 C1150 C 0.42718 1.10325 0.56167
 C1151 C 0.44071 1.10740 0.58849
 C1152 C 0.42139 1.12451 0.60872
 C1153 C 0.32120 1.16366 0.58965
 C1154 C 0.34154 1.14824 0.56899
 C1155 C 0.41310 1.14194 0.65672
 C1156 C 0.43364 1.12703 0.63603
 H1157 H 0.29551 1.17331 0.58421
 H1158 H 0.33082 1.14629 0.54831
 H1159 H 0.42341 1.14301 0.67758
 H1160 H 0.45909 1.11686 0.64157
 H1161 H 0.36878 1.17036 0.69256
 H1162 H 0.28708 1.19067 0.63288
 H1163 H 0.38357 1.11338 0.53436
 H1164 H 0.46519 1.09522 0.59408
 C1165 C 0.86536 0.34919 -0.12407
 C1166 C 0.87812 0.34875 -0.15126
 C1167 C 0.85722 0.33507 -0.17237
 C1168 C 0.82380 0.32149 -0.16654
 C1169 C 0.81146 0.32215 -0.13904
 C1170 C 0.83205 0.33621 -0.11778
 C1171 C 0.88703 0.36425 -0.10189
 C1172 C 0.87368 0.36619 -0.07489
 C1173 C 0.89326 0.38309 -0.05440
 C1174 C 0.92588 0.39769 -0.06094
 C1175 C 0.93938 0.39431 -0.08779
 C1176 C 0.92001 0.37784 -0.10842
 C1177 C 0.81999 0.33773 -0.09036
 C1178 C 0.84034 0.35261 -0.06935
 C1179 C 0.91157 0.36202 -0.15681
 C1180 C 0.93216 0.37629 -0.13576
 H1181 H 0.79437 0.32776 -0.08516
 H1182 H 0.82968 0.35385 -0.04865
 H1183 H 0.92179 0.36168 -0.17767
 H1184 H 0.95756 0.38672 -0.14104
 H1185 H 0.86731 0.33447 -0.19328
 H1186 H 0.78589 0.31178 -0.13418
 H1187 H 0.88230 0.38670 -0.03397
 H1188 H 0.96381 0.40670 -0.09306
 C1189 C 0.36402 0.84938 0.37561
 C1190 C 0.33030 0.83728 0.38173
 C1191 C 0.30963 0.82349 0.36042
 C1192 C 0.32228 0.82233 0.33304
 C1193 C 0.35601 0.83520 0.32732
 C1194 C 0.37706 0.84847 0.34852
 C1195 C 0.38589 0.86392 0.39790
 C1196 C 0.41936 0.87653 0.39158
 C1197 C 0.43900 0.89251 0.41232
 C1198 C 0.42523 0.89644 0.43904
 C1199 C 0.39211 0.88278 0.44536
 C1200 C 0.37229 0.86634 0.42479
 C1201 C 0.41095 0.86079 0.34316
 C1202 C 0.43175 0.87453 0.36432
 C1203 C 0.31795 0.83931 0.40904
 C1204 C 0.33848 0.85375 0.43014
 H1205 H 0.42139 0.86008 0.32238
 H1206 H 0.45752 0.88422 0.35920
 H1207 H 0.29199 0.83007 0.41408
 H1208 H 0.32762 0.85542 0.45075
 H1209 H 0.28378 0.81367 0.36513
 H1210 H 0.36630 0.83409 0.30648
 H1211 H 0.46390 0.90415 0.40722
 H1212 H 0.38100 0.88684 0.46568
 C1213 C 1.12081 1.13148 0.35908
 C1214 C 1.15645 1.13724 0.36500
 C1215 C 1.17464 1.16173 0.35003
 C1216 C 1.15767 1.17943 0.32876
 C1217 C 1.12190 1.17390 0.32327
 C1218 C 1.10316 1.15004 0.33860
 C1219 C 1.10162 1.10568 0.37472
 C1220 C 1.06552 1.10096 0.36984
 C1221 C 1.04671 1.07867 0.38684
 C1222 C 1.06422 1.06178 0.40827
 C1223 C 1.10065 1.06474 0.41145
 C1224 C 1.11945 1.08722 0.39513
 C1225 C 1.06740 1.14397 0.33359
 C1226 C 1.04878 1.11998 0.34915
 C1227 C 1.17343 1.11783 0.38527
 C1228 C 1.15521 1.09305 0.40006
 H1229 H 1.05363 1.15814 0.31776
 H1230 H 1.02104 1.11655 0.34515
 H1231 H 1.20095 1.12190 0.38978
 H1232 H 1.16900 1.07886 0.41588
 H1233 H 1.20242 1.16557 0.35373
 H1234 H 1.10905 1.18755 0.30663
 H1235 H 1.01848 1.07649 0.38483
 H1236 H 1.11378 1.05156 0.42823
 C1237 C 0.63173 0.64162 -0.13505
 C1238 C 0.65306 0.66800 -0.12519
 C1239 C 0.67115 0.68823 -0.14405
 C1240 C 0.66807 0.68212 -0.17253
 C1241 C 0.64603 0.65596 -0.18208
 C1242 C 0.62792 0.63552 -0.16340
 C1243 C 0.61350 0.61965 -0.11529
 C1244 C 0.59255 0.59292 -0.12505
 C1245 C 0.57563 0.57180 -0.10602
 C1246 C 0.57983 0.57739 -0.07754
 C1247 C 0.60082 0.60445 -0.06823
 C1248 C 0.61771 0.62559 -0.08696
 C1249 C 0.60657 0.60877 -0.17250
 C1250 C 0.58914 0.58779 -0.15361
 C1251 C 0.65631 0.67332 -0.09667
 C1252 C 0.63885 0.65242 -0.07782
 H1253 H 0.60351 0.60388 -0.19439
 H1254 H 0.57306 0.56730 -0.16140
 H1255 H 0.67263 0.69362 -0.08887
 H1256 H 0.64211 0.65717 -0.05592
 H1257 H 0.68795 0.70834 -0.13652
 H1258 H 0.64350 0.65095 -0.20400
 H1259 H 0.55947 0.55109 -0.11333
 H1260 H 0.60409 0.60925 -0.04634
 C1261 C 0.87664 1.12872 0.63754
 C1262 C 0.87158 1.11803 0.66485
 C1263 C 0.85117 1.13785 0.68228
 C1264 C 0.83571 1.16797 0.67247
 C1265 C 0.84103 1.17841 0.64510
 C1266 C 0.86164 1.15888 0.62751
 C1267 C 0.89742 1.10760 0.61893
 C1268 C 0.90182 1.11806 0.59150
 C1269 C 0.92004 1.09725 0.57353
 C1270 C 0.93345 1.06602 0.58264
 C1271 C 0.93021 1.05622 0.61036
 C1272 C 0.91174 1.07695 0.62867
 C1273 C 0.86731 1.16879 0.60006
 C1274 C 0.88717 1.14866 0.58230
 C1275 C 0.88667 1.08761 0.67411
 C1276 C 0.90646 1.06734 0.65627
 H1277 H 0.85604 1.19207 0.59220
 H1278 H 0.89067 1.15685 0.56110
 H1279 H 0.88286 1.07925 0.69522
 H1280 H 0.91732 1.04383 0.66402
 H1281 H 0.84693 1.12956 0.70338
 H1282 H 0.82939 1.20172 0.63760
 H1283 H 0.92331 1.10513 0.55221
 H1284 H 0.94076 1.03217 0.61726
 C1285 C 0.37198 0.62707 0.13653
 C1286 C 0.38869 0.64071 0.15981
 C1287 C 0.37090 0.66458 0.17562
 C1288 C 0.33675 0.67465 0.16824
 C1289 C 0.32084 0.66179 0.14432
 C1290 C 0.33824 0.63763 0.12849
 C1291 C 0.39019 0.60136 0.12020
 C1292 C 0.37358 0.58808 0.09675
 C1293 C 0.39196 0.56570 0.08008
 C1294 C 0.42694 0.55744 0.08629
 C1295 C 0.44261 0.56899 0.11073
 C1296 C 0.42434 0.59143 0.12774
 C1297 C 0.32225 0.62323 0.10520
 C1298 C 0.33967 0.59878 0.08955
 C1299 C 0.42248 0.62973 0.16713
 C1300 C 0.44010 0.60552 0.15127
 H1301 H 0.29616 0.63102 0.09898
 H1302 H 0.32676 0.58858 0.07143
 H1303 H 0.43547 0.64008 0.18516
 H1304 H 0.46636 0.59806 0.15728
 H1305 H 0.38315 0.67459 0.19411
 H1306 H 0.29431 0.66918 0.13892
 H1307 H 0.37993 0.55644 0.06123
 H1308 H 0.46965 0.56266 0.11529
 C1309 C 1.14473 0.87775 0.63976
 C1310 C 1.17189 0.85691 0.63017
 C1311 C 1.18549 0.83187 0.64751
 C1312 C 1.17339 0.82863 0.67493
 C1313 C 1.14566 0.84975 0.68398
 C1314 C 1.13108 0.87401 0.66641
 C1315 C 1.12988 0.90361 0.62136
 C1316 C 1.10118 0.92306 0.63025
 C1317 C 1.08492 0.94521 0.61156
 C1318 C 1.09746 0.94772 0.58435
 C1319 C 1.12817 0.93029 0.57672
 C1320 C 1.14380 0.90744 0.59480
 C1321 C 1.10324 0.89471 0.67505
 C1322 C 1.08829 0.91865 0.65714
 C1323 C 1.18537 0.86182 0.60352
 C1324 C 1.17173 0.88693 0.58617
 H1325 H 1.09258 0.89203 0.69567
 H1326 H 1.06629 0.93355 0.66430
 H1327 H 1.20656 0.84611 0.59601
 H1328 H 1.18251 0.88972 0.56560
 H1329 H 1.20670 0.81617 0.63994
 H1330 H 1.13534 0.84760 0.70478
 H1331 H 1.06138 0.95862 0.61760
 H1332 H 1.13845 0.93245 0.55592
 C1333 C 0.63392 0.35952 0.13852
 C1334 C 0.66802 0.34929 0.13137
 C1335 C 0.68610 0.32714 0.14875
 C1336 C 0.67059 0.31595 0.17337
 C1337 C 0.63624 0.32598 0.18012
 C1338 C 0.61767 0.34774 0.16265
 C1339 C 0.61497 0.38309 0.12043
 C1340 C 0.58058 0.39293 0.12719
 C1341 C 0.56215 0.41424 0.10908
 C1342 C 0.57809 0.42507 0.08449
 C1343 C 0.61301 0.41618 0.07875
 C1344 C 0.63145 0.39491 0.09643
 C1345 C 0.58345 0.35832 0.16899
 C1346 C 0.56513 0.38047 0.15147
 C1347 C 0.68366 0.36192 0.10727
 C1348 C 0.66565 0.38448 0.09008
 H1349 H 0.57070 0.34932 0.18760
 H1350 H 0.53865 0.38778 0.15690
 H1351 H 0.71000 0.35433 0.10169
 H1352 H 0.67845 0.39357 0.07153
 H1353 H 0.71273 0.31979 0.14375
 H1354 H 0.62423 0.31724 0.19913
 H1355 H 0.53518 0.42104 0.11340
 H1356 H 0.62551 0.42496 0.05994
 C1357 C 0.88056 0.84969 0.36789
 C1358 C 0.88737 0.85273 0.33956
 C1359 C 0.86531 0.83641 0.32090
 C1360 C 0.83639 0.81745 0.33036
 C1361 C 0.83035 0.81402 0.35885
 C1362 C 0.85235 0.83022 0.37774
 C1363 C 0.90275 0.86805 0.38754
 C1364 C 0.89540 0.86563 0.41582
 C1365 C 0.91547 0.88431 0.43433
 C1366 C 0.94237 0.90572 0.42474
 C1367 C 0.95000 0.90742 0.39641
 C1368 C 0.93019 0.88852 0.37764
 C1369 C 0.84628 0.82790 0.40625
 C1370 C 0.86752 0.84534 0.42503
 C1371 C 0.91562 0.87258 0.33039
 C1372 C 0.93671 0.89027 0.34917
 H1373 H 0.82468 0.81287 0.41406
 H1374 H 0.86175 0.84337 0.44688
 H1375 H 0.92113 0.87486 0.30852
 H1376 H 0.95793 0.90576 0.34133
 H1377 H 0.87044 0.83902 0.29898
 H1378 H 0.80833 0.79928 0.36631
 H1379 H 0.90925 0.88300 0.45615
 H1380 H 0.97083 0.92373 0.38898
 C1381 C 0.37861 0.37142 -0.14013
 C1382 C 0.36033 0.38749 -0.16162
 C1383 C 0.33673 0.36862 -0.17729
 C1384 C 0.33115 0.33421 -0.17129
 C1385 C 0.34870 0.31859 -0.14928
 C1386 C 0.37294 0.33707 -0.13376
 C1387 C 0.40376 0.39103 -0.12377
 C1388 C 0.42170 0.37497 -0.10212
 C1389 C 0.44324 0.39423 -0.08514
 C1390 C 0.44578 0.42938 -0.08902
 C1391 C 0.42968 0.44502 -0.11174
 C1392 C 0.40825 0.42579 -0.12923
 C1393 C 0.39201 0.32179 -0.11231
 C1394 C 0.41614 0.34046 -0.09676
 C1395 C 0.36622 0.42194 -0.16715
 C1396 C 0.38967 0.44088 -0.15107
 H1397 H 0.38807 0.29530 -0.10740
 H1398 H 0.42996 0.32799 -0.08001
 H1399 H 0.35224 0.43446 -0.18378
 H1400 H 0.39292 0.46758 -0.15551
 H1401 H 0.32306 0.38044 -0.19445
 H1402 H 0.34469 0.29189 -0.14514
 H1403 H 0.45604 0.38236 -0.06758
 H1404 H 0.43159 0.47220 -0.11443
 C1405 C 1.12362 0.34879 -0.12446
 C1406 C 1.11413 0.35098 -0.15244
 C1407 C 1.13678 0.33800 -0.17259
 C1408 C 1.16889 0.32277 -0.16507
 C1409 C 1.17787 0.32060 -0.13677
 C1410 C 1.15539 0.33376 -0.11640
 C1411 C 1.10033 0.36353 -0.10327
 C1412 C 1.11048 0.36281 -0.07533
 C1413 C 1.08966 0.37955 -0.05559
 C1414 C 1.05927 0.39706 -0.06392
 C1415 C 1.04888 0.39635 -0.09180
 C1416 C 1.06928 0.37971 -0.11158
 C1417 C 1.16417 0.33262 -0.08817
 C1418 C 1.14219 0.34697 -0.06802
 C1419 C 1.08229 0.36648 -0.15980
 C1420 C 1.06028 0.38064 -0.13973
 H1421 H 1.18855 0.32102 -0.08161
 H1422 H 1.15041 0.34618 -0.04659
 H1423 H 1.07459 0.36818 -0.18131
 H1424 H 1.03634 0.39301 -0.14636
 H1425 H 1.12925 0.33970 -0.19415
 H1426 H 1.20237 0.30892 -0.13060
 H1427 H 1.09835 0.38110 -0.03429
 H1428 H 1.02627 0.41091 -0.09836
 C1429 C 0.62224 0.84859 0.37451
 C1430 C 0.65263 0.83138 0.38295
 C1431 C 0.67548 0.81825 0.36280
 C1432 C 0.66822 0.82257 0.33435
 C1433 C 0.63755 0.84012 0.32646
 C1434 C 0.61453 0.85307 0.34637
 C1435 C 0.59849 0.86309 0.39551
 C1436 C 0.56885 0.88132 0.38688
 C1437 C 0.54814 0.89764 0.40665
 C1438 C 0.55688 0.89609 0.43488
 C1439 C 0.58573 0.87644 0.44346
 C1440 C 0.60685 0.85998 0.42372
 C1441 C 0.58403 0.87064 0.33863
 C1442 C 0.56161 0.88456 0.35853
 C1443 C 0.65961 0.82793 0.41138
 C1444 C 0.63722 0.84206 0.43137
 H1445 H 0.57769 0.87411 0.31698
 H1446 H 0.53876 0.89853 0.35164
 H1447 H 0.68289 0.81463 0.41825
 H1448 H 0.64408 0.83941 0.45300
 H1449 H 0.69882 0.80475 0.36927
 H1450 H 0.63130 0.84349 0.30477
 H1451 H 0.52667 0.91366 0.39995
 H1452 H 0.59320 0.87613 0.46508
 C1453 C 0.86485 0.65756 -0.12036
 C1454 C 0.82854 0.66233 -0.11763
 C1455 C 0.80972 0.67743 -0.13937
 C1456 C 0.82677 0.68683 -0.16405
 C1457 C 0.86316 0.68149 -0.16655
 C1458 C 0.88240 0.66720 -0.14463
 C1459 C 0.88469 0.64127 -0.09769
 C1460 C 0.92096 0.63618 -0.10053
 C1461 C 0.93928 0.61869 -0.07973
 C1462 C 0.92130 0.60538 -0.05679
 C1463 C 0.88515 0.61135 -0.05389
 C1464 C 0.86673 0.62962 -0.07419
 C1465 C 0.91880 0.66215 -0.14650
 C1466 C 0.93777 0.64705 -0.12480
 C1467 C 0.81172 0.65144 -0.09337
 C1468 C 0.83042 0.63511 -0.07214
 H1469 H 0.93273 0.66965 -0.16502
 H1470 H 0.96570 0.64319 -0.12730
 H1471 H 0.78373 0.65497 -0.09100
 H1472 H 0.81626 0.62637 -0.05411
 H1473 H 0.78171 0.68132 -0.13732
 H1474 H 0.87654 0.68898 -0.18533
 H1475 H 0.96690 0.61309 -0.08238
 H1476 H 0.87120 0.60033 -0.03657
 C1477 C 0.35997 1.15212 0.37988
 C1478 C 0.32406 1.15793 0.38413
 C1479 C 0.30382 1.17188 0.36261
 C1480 C 0.31906 1.17910 0.33673
 C1481 C 0.35506 1.17264 0.33276
 C1482 C 0.37570 1.15949 0.35436
 C1483 C 0.38134 1.13719 0.40235
 C1484 C 0.41716 1.13099 0.39795
 C1485 C 0.43679 1.11462 0.41863
 C1486 C 0.42057 1.10362 0.44313
 C1487 C 0.38490 1.11080 0.44758
 C1488 C 0.36516 1.12787 0.42729
 C1489 C 0.41175 1.15344 0.35093
 C1490 C 0.43213 1.13955 0.37236
 C1491 C 0.30909 1.14931 0.40971
 C1492 C 0.32920 1.13430 0.43082
 H1493 H 0.42427 1.15918 0.33140
 H1494 H 0.45970 1.13481 0.36866
 H1495 H 0.28142 1.15362 0.41328
 H1496 H 0.31638 1.12730 0.44995
 H1497 H 0.27615 1.17668 0.36585
 H1498 H 0.36713 1.17850 0.31307
 H1499 H 0.46391 1.10799 0.41479
 H1500 H 0.37216 1.10139 0.46607
 C1501 C 1.13331 0.65143 0.11816
 C1502 C 1.16933 0.65638 0.11372
 C1503 C 1.19015 0.66949 0.13518
 C1504 C 1.17533 0.67670 0.16117
 C1505 C 1.13921 0.67113 0.16533
 C1506 C 1.11801 0.65884 0.14380
 C1507 C 1.11136 0.63729 0.09578
 C1508 C 1.07543 0.63187 0.10039
 C1509 C 1.05524 0.61604 0.07985
 C1510 C 1.07101 0.60473 0.05533
 C1511 C 1.10676 0.61127 0.05061
 C1512 C 1.12707 0.62782 0.07074
 C1513 C 1.08184 0.65367 0.14743
 C1514 C 1.06090 0.64054 0.12607
 C1515 C 1.18384 0.64774 0.08802
 C1516 C 1.16315 0.63345 0.06699
 H1517 H 1.06967 0.65949 0.16705
 H1518 H 1.03325 0.63641 0.12992
 H1519 H 1.21159 0.65142 0.08431
 H1520 H 1.17559 0.62634 0.04777
 H1521 H 1.21791 0.67366 0.13182
 H1522 H 1.12749 0.67705 0.18512
 H1523 H 1.02801 0.60991 0.08387
 H1524 H 1.11910 0.60164 0.03206
 C1525 C 0.63159 1.15189 0.61870
 C1526 C 0.66724 1.15836 0.61376
 C1527 C 0.68803 1.17209 0.63502
 C1528 C 0.67358 1.17853 0.66131
 C1529 C 0.63775 1.17162 0.66586
 C1530 C 0.61661 1.15857 0.64459
 C1531 C 0.60974 1.13689 0.59660
 C1532 C 0.57423 1.12990 0.60176
 C1533 C 0.55424 1.11340 0.58144
 C1534 C 0.56975 1.10308 0.55652
 C1535 C 0.60509 1.11105 0.55131
 C1536 C 0.62520 1.12824 0.57126
 C1537 C 0.58081 1.15181 0.64875
 C1538 C 0.55998 1.13782 0.62769
 C1539 C 0.68145 1.15048 0.58778
 C1540 C 0.66089 1.13545 0.56699
 H1541 H 0.56887 1.15701 0.66857
 H1542 H 0.53265 1.13248 0.63196
 H1543 H 0.70889 1.15536 0.58364
 H1544 H 0.67315 1.12903 0.54753
 H1545 H 0.71553 1.17723 0.63126
 H1546 H 0.62620 1.17683 0.68584
 H1547 H 0.52742 1.10617 0.58585
 H1548 H 0.61732 1.10220 0.53246
 C1549 C 0.87510 0.34508 0.12790
 C1550 C 0.84578 0.32597 0.11992
 C1551 C 0.82465 0.31095 0.14040
 C1552 C 0.83259 0.31511 0.16875
 C1553 C 0.86225 0.33444 0.17620
 C1554 C 0.88350 0.34944 0.15593
 C1555 C 0.89690 0.36167 0.10654
 C1556 C 0.92536 0.38184 0.11472
 C1557 C 0.94418 0.39981 0.09465
 C1558 C 0.93486 0.39779 0.06655
 C1559 C 0.90725 0.37634 0.05841
 C1560 C 0.88789 0.35837 0.07848
 C1561 C 0.91285 0.36905 0.16318
 C1562 C 0.93336 0.38502 0.14294
 C1563 C 0.83805 0.32257 0.09162
 C1564 C 0.85867 0.33850 0.07130
 H1565 H 0.91971 0.37250 0.18472
 H1566 H 0.95534 0.40046 0.14948
 H1567 H 0.81555 0.30784 0.08512
 H1568 H 0.85132 0.33569 0.04979
 H1569 H 0.80202 0.29617 0.13424
 H1570 H 0.86892 0.33783 0.19779
 H1571 H 0.96482 0.41702 0.10099
 H1572 H 0.89937 0.37552 0.03689
 C1573 C 0.37179 0.84478 0.62783
 C1574 C 0.34206 0.82622 0.61999
 C1575 C 0.32068 0.81164 0.64054
 C1576 C 0.32852 0.81578 0.66906
 C1577 C 0.35875 0.83479 0.67621
 C1578 C 0.38034 0.84911 0.65581
 C1579 C 0.39388 0.86086 0.60635
 C1580 C 0.42291 0.88035 0.61440
 C1581 C 0.44209 0.89783 0.59423
 C1582 C 0.43247 0.89618 0.56617
 C1583 C 0.40416 0.87546 0.55818
 C1584 C 0.38458 0.85783 0.57833
 C1585 C 0.41022 0.86806 0.66292
 C1586 C 0.43110 0.88340 0.64259
 C1587 C 0.33410 0.82299 0.59170
 C1588 C 0.35487 0.83857 0.57128
 H1589 H 0.41726 0.87146 0.68443
 H1590 H 0.45351 0.89832 0.64904
 H1591 H 0.31126 0.80869 0.58528
 H1592 H 0.34728 0.83594 0.54982
 H1593 H 0.29781 0.79734 0.63413
 H1594 H 0.36583 0.83852 0.69770
 H1595 H 0.46325 0.91450 0.60049
 H1596 H 0.39601 0.87496 0.53671
 C1597 C 0.34647 1.13865 -0.12102
 C1598 C 0.33965 1.17284 -0.11528
 C1599 C 0.32759 1.19418 -0.13664
 C1600 C 0.32319 1.18169 -0.16374
 C1601 C 0.33083 1.14739 -0.16909
 C1602 C 0.34212 1.12573 -0.14779
 C1603 C 0.35923 1.11609 -0.09870
 C1604 C 0.36656 1.08204 -0.10461
 C1605 C 0.38129 1.06139 -0.08397
 C1606 C 0.38957 1.07477 -0.05784
 C1607 C 0.38098 1.10864 -0.05190
 C1608 C 0.36558 1.12942 -0.07227
 C1609 C 0.34911 1.09136 -0.15274
 C1610 C 0.36102 1.06989 -0.13153
 C1611 C 0.34521 1.18496 -0.08833
 C1612 C 0.35820 1.16373 -0.06728
 H1613 H 0.34566 1.08101 -0.17327
 H1614 H 0.36665 1.04371 -0.13640
 H1615 H 0.34006 1.21126 -0.08356
 H1616 H 0.36292 1.17438 -0.04701
 H1617 H 0.32175 1.22045 -0.13223
 H1618 H 0.32705 1.13728 -0.18968
 H1619 H 0.38921 1.03579 -0.08894
 H1620 H 0.38851 1.11934 -0.03216
 C1621 C 0.84093 0.63239 0.37859
 C1622 C 0.83623 0.61895 0.35201
 C1623 C 0.82369 0.63996 0.33072
 C1624 C 0.81535 0.67414 0.33588
 C1625 C 0.82004 0.68711 0.36279
 C1626 C 0.83318 0.66643 0.38414
 C1627 C 0.85520 0.61064 0.40084
 C1628 C 0.86182 0.62456 0.42703
 C1629 C 0.87851 0.60462 0.44730
 C1630 C 0.88822 0.57104 0.44146
 C1631 C 0.87987 0.55703 0.41558
 C1632 C 0.86370 0.57681 0.39506
 C1633 C 0.83907 0.67914 0.41086
 C1634 C 0.85335 0.65865 0.43186
 C1635 C 0.84433 0.58477 0.34723
 C1636 C 0.85777 0.56406 0.36838
 H1637 H 0.83319 0.70534 0.41546
 H1638 H 0.85826 0.66975 0.45194
 H1639 H 0.84065 0.57401 0.32686
 H1640 H 0.86426 0.53803 0.36364
 H1641 H 0.81981 0.62951 0.31025
 H1642 H 0.81377 0.71333 0.36705
 H1643 H 0.88606 0.61580 0.46686
 H1644 H 0.88864 0.53167 0.41070
 C1645 C 0.65504 1.12639 0.12486
 C1646 C 0.66942 1.15796 0.11787
 C1647 C 0.68366 1.17851 0.13886
 C1648 C 0.68316 1.16782 0.16675
 C1649 C 0.66833 1.13604 0.17321
 C1650 C 0.65438 1.11526 0.15242
 C1651 C 0.63950 1.10489 0.10301
 C1652 C 0.62421 1.07382 0.11026
 C1653 C 0.60699 1.05477 0.08992
 C1654 C 0.60477 1.06654 0.06253
 C1655 C 0.62125 1.09720 0.05527
 C1656 C 0.63868 1.11657 0.07555
 C1657 C 0.63959 1.08359 0.15869
 C1658 C 0.62475 1.06325 0.13799
 C1659 C 0.66895 1.16840 0.09005
 C1660 C 0.65375 1.14817 0.06932
 H1661 H 0.63907 1.07462 0.17985
 H1662 H 0.61304 1.03930 0.14383
 H1663 H 0.67999 1.19267 0.08430
 H1664 H 0.65334 1.15758 0.04828
 H1665 H 0.69497 1.20281 0.13348
 H1666 H 0.66796 1.12721 0.19443
 H1667 H 0.59306 1.03198 0.09578
 H1668 H 0.61847 1.10694 0.03443
 C1669 C 1.14996 0.63260 0.62378
 C1670 C 1.16208 0.66510 0.61690
 C1671 C 1.17508 0.68636 0.63794
 C1672 C 1.17544 0.67548 0.66578
 C1673 C 1.16266 0.64284 0.67215
 C1674 C 1.15014 0.62131 0.65129
 C1675 C 1.13604 0.61021 0.60185
 C1676 C 1.12322 0.57805 0.60895
 C1677 C 1.10747 0.55795 0.58852
 C1678 C 1.10402 0.56984 0.56124
 C1679 C 1.11806 0.60168 0.55415
 C1680 C 1.13421 0.62202 0.57446
 C1681 C 1.13777 0.58864 0.65744
 C1682 C 1.12456 0.56740 0.63665
 C1683 C 1.16076 0.67565 0.58913
 C1684 C 1.14690 0.65461 0.56835
 H1685 H 1.13793 0.57953 0.67857
 H1686 H 1.11472 0.54264 0.64240
 H1687 H 1.17004 0.70063 0.58346
 H1688 H 1.14570 0.66412 0.54736
 H1689 H 1.18488 0.71129 0.63264
 H1690 H 1.16311 0.63382 0.69331
 H1691 H 1.09533 0.53418 0.59429
 H1692 H 1.11424 0.61149 0.53343
 C1693 C 0.65086 0.87659 -0.12592
 C1694 C 0.64787 0.88540 -0.15394
 C1695 C 0.66122 0.86349 -0.17412
 C1696 C 0.67779 0.83286 -0.16663
 C1697 C 0.68048 0.82442 -0.13829
 C1698 C 0.66690 0.84615 -0.11788
 C1699 C 0.63616 0.89937 -0.10465
 C1700 C 0.63783 0.89004 -0.07662
 C1701 C 0.62121 0.91051 -0.05671
 C1702 C 0.60287 0.93981 -0.06492
 C1703 C 0.60273 0.94935 -0.09295
 C1704 C 0.61921 0.92925 -0.11290
 C1705 C 0.66887 0.83808 -0.08958
 C1706 C 0.65451 0.85953 -0.06936
 C1707 C 0.63150 0.91599 -0.16126
 C1708 C 0.61739 0.93750 -0.14112
 H1709 H 0.68123 0.81472 -0.08301
 H1710 H 0.65602 0.85192 -0.04787
 H1711 H 0.62918 0.92319 -0.18280
 H1712 H 0.60440 0.96053 -0.14773
 H1713 H 0.65914 0.87064 -0.19569
 H1714 H 0.69321 0.80109 -0.13209
 H1715 H 0.62032 0.90244 -0.03531
 H1716 H 0.58758 0.97118 -0.09943
 C1717 C 1.14942 0.37407 0.37582
 C1718 C 1.14754 0.38351 0.34789
 C1719 C 1.16003 0.36124 0.32761
 C1720 C 1.17460 0.32962 0.33494
 C1721 C 1.17628 0.32061 0.36320
 C1722 C 1.16353 0.34268 0.38369
 C1723 C 1.13548 0.39716 0.39718
 C1724 C 1.13587 0.38717 0.42507
 C1725 C 1.11975 0.40799 0.44498
 C1726 C 1.10328 0.43835 0.43694
 C1727 C 1.10448 0.44855 0.40909
 C1728 C 1.12038 0.42804 0.38910
 C1729 C 1.16438 0.33398 0.41189
 C1730 C 1.15067 0.35574 0.43218
 C1731 C 1.13305 0.41504 0.34074
 C1732 C 1.11968 0.43689 0.36098
 H1733 H 1.17526 0.30990 0.41833
 H1734 H 1.15120 0.34763 0.45357
 H1735 H 1.13160 0.42272 0.31927
 H1736 H 1.10812 0.46066 0.35449
 H1737 H 1.15878 0.36883 0.30610
 H1738 H 1.18748 0.29651 0.36927
 H1739 H 1.11774 0.39946 0.46622
 H1740 H 1.09066 0.47123 0.40272
 C1741 C 0.34533 0.86754 0.11977
 C1742 C 0.33837 0.83341 0.11391
 C1743 C 0.32595 0.81211 0.13509
 C1744 C 0.32124 0.82459 0.16213
 C1745 C 0.32883 0.85887 0.16760
 C1746 C 0.34059 0.88049 0.14649
 C1747 C 0.35872 0.88999 0.09768
 C1748 C 0.36630 0.92395 0.10375
 C1749 C 0.38167 0.94445 0.08337
 C1750 C 0.39022 0.93101 0.05737
 C1751 C 0.38141 0.89726 0.05125
 C1752 C 0.36544 0.87661 0.07135
 C1753 C 0.34778 0.91480 0.15157
 C1754 C 0.36034 0.93616 0.13057
 C1755 C 0.34428 0.82125 0.08704
 C1756 C 0.35781 0.84239 0.06621
 H1757 H 0.34403 0.92516 0.17205
 H1758 H 0.36614 0.96230 0.13553
 H1759 H 0.33898 0.79499 0.08219
 H1760 H 0.36279 0.83172 0.04600
 H1761 H 0.32016 0.78584 0.13058
 H1762 H 0.32486 0.86895 0.18817
 H1763 H 0.38975 0.96998 0.08846
 H1764 H 0.38911 0.88655 0.03157
 C1765 C 0.84888 0.36522 0.62122
 C1766 C 0.84140 0.33137 0.61464
 C1767 C 0.82968 0.30929 0.63557
 C1768 C 0.82621 0.32075 0.66303
 C1769 C 0.83447 0.35473 0.66918
 C1770 C 0.84548 0.37708 0.64838
 C1771 C 0.86129 0.38855 0.59938
 C1772 C 0.86933 0.42222 0.60618
 C1773 C 0.88385 0.44352 0.58597
 C1774 C 0.89110 0.43115 0.55938
 C1775 C 0.88171 0.39774 0.55252
 C1776 C 0.86662 0.37629 0.57250
 C1777 C 0.85306 0.41113 0.65421
 C1778 C 0.86472 0.43332 0.63348
 C1779 C 0.84594 0.32035 0.58727
 C1780 C 0.85857 0.34232 0.56664
 H1781 H 0.85030 0.42065 0.67506
 H1782 H 0.87087 0.45921 0.63899
 H1783 H 0.84024 0.29434 0.58184
 H1784 H 0.86249 0.33251 0.54600
 H1785 H 0.82327 0.28330 0.63052
 H1786 H 0.83136 0.36411 0.69006
 H1787 H 0.89233 0.46879 0.59155
 H1788 H 0.88844 0.38785 0.53235
 C1789 C 1.12792 1.14321 0.63371
 C1790 C 1.14578 1.17218 0.62443
 C1791 C 1.16755 1.18962 0.64278
 C1792 C 1.17118 1.17829 0.67019
 C1793 C 1.15339 1.14898 0.67902
 C1794 C 1.13170 1.13137 0.66088
 C1795 C 1.10510 1.12472 0.61456
 C1796 C 1.08779 1.09540 0.62372
 C1797 C 1.06749 1.07697 0.60505
 C1798 C 1.06493 1.08745 0.57735
 C1799 C 1.08133 1.11762 0.56876
 C1800 C 1.10171 1.13623 0.58725
 C1801 C 1.11366 1.10222 0.66945
 C1802 C 1.09203 1.08447 0.65112
 C1803 C 1.14134 1.18321 0.59707
 C1804 C 1.11962 1.16549 0.57874
 H1805 H 1.11645 1.09297 0.69043
 H1806 H 1.07882 1.06186 0.65837
 H1807 H 1.15489 1.20558 0.58973
 H1808 H 1.11714 1.17454 0.55768
 H1809 H 1.18101 1.21229 0.63592
 H1810 H 1.15622 1.13995 0.70007
 H1811 H 1.05499 1.05375 0.61183
 H1812 H 1.07937 1.12602 0.54748
 C1813 C 0.63251 0.62584 0.14049
 C1814 C 0.66766 0.63388 0.13461
 C1815 C 0.68407 0.65969 0.14941
 C1816 C 0.66572 0.67655 0.17028
 C1817 C 0.63038 0.66886 0.17556
 C1818 C 0.61353 0.64352 0.16061
 C1819 C 0.61518 0.59868 0.12512
 C1820 C 0.57958 0.59159 0.13013
 C1821 C 0.56226 0.56818 0.11333
 C1822 C 0.58037 0.55290 0.09153
 C1823 C 0.61657 0.55802 0.08828
 C1824 C 0.63405 0.58143 0.10471
 C1825 C 0.57835 0.63512 0.16572
 C1826 C 0.56155 0.60964 0.15058
 C1827 C 0.68590 0.61544 0.11454
 C1828 C 0.66933 0.58953 0.09981
 H1829 H 0.56359 0.64861 0.18129
 H1830 H 0.53415 0.60441 0.15459
 H1831 H 0.71307 0.62124 0.11005
 H1832 H 0.68399 0.57627 0.08404
 H1833 H 0.71155 0.66528 0.14588
 H1834 H 0.61646 0.68193 0.19187
 H1835 H 0.53427 0.56433 0.11549
 H1836 H 0.63034 0.54597 0.07137
 C1837 C 1.13879 0.86976 0.36062
 C1838 C 1.12073 0.85753 0.33741
 C1839 C 1.13722 0.83406 0.32039
 C1840 C 1.17124 0.82274 0.32669
 C1841 C 1.18866 0.83439 0.35037
 C1842 C 1.17266 0.85830 0.36730
 C1843 C 1.12182 0.89482 0.37835
 C1844 C 1.13984 0.90686 0.40162
 C1845 C 1.12281 0.92895 0.41943
 C1846 C 1.08768 0.93808 0.41458
 C1847 C 1.07052 0.92738 0.39043
 C1848 C 1.08749 0.90545 0.37225
 C1849 C 1.19007 0.87135 0.39050
 C1850 C 1.17391 0.89537 0.40739
 C1851 C 1.08676 0.86924 0.33155
 C1852 C 1.07030 0.89274 0.34881
 H1853 H 1.21628 0.86282 0.39568
 H1854 H 1.18793 0.90457 0.42536
 H1855 H 1.07270 0.85993 0.31364
 H1856 H 1.04382 0.90074 0.34393
 H1857 H 1.12387 0.82494 0.30206
 H1858 H 1.21512 0.82598 0.35489
 H1859 H 1.13627 0.93750 0.43789
 H1860 H 1.04341 0.93430 0.38671
 C1861 C 0.62953 0.36675 -0.14155
 C1862 C 0.64130 0.38136 -0.16627
 C1863 C 0.66209 0.36208 -0.18390
 C1864 C 0.67139 0.32881 -0.17656
 C1865 C 0.65979 0.31465 -0.15166
 C1866 C 0.63852 0.33342 -0.13414
 C1867 C 0.60797 0.38687 -0.12280
 C1868 C 0.59659 0.37218 -0.09802
 C1869 C 0.57798 0.39183 -0.07951
 C1870 C 0.57168 0.42620 -0.08510
 C1871 C 0.58158 0.44042 -0.11048
 C1872 C 0.60009 0.42070 -0.12951
 C1873 C 0.62604 0.31946 -0.10942
 C1874 C 0.60521 0.33856 -0.09163
 C1875 C 0.63220 0.41490 -0.17277
 C1876 C 0.61200 0.43435 -0.15459
 H1877 H 0.63265 0.29372 -0.10368
 H1878 H 0.59638 0.32717 -0.07248
 H1879 H 0.64114 0.42632 -0.19187
 H1880 H 0.60603 0.46032 -0.16003
 H1881 H 0.67122 0.37294 -0.20319
 H1882 H 0.66662 0.28882 -0.14629
 H1883 H 0.56955 0.38067 -0.06013
 H1884 H 0.57648 0.46691 -0.11473
 C1885 C 0.86349 1.11034 0.36381
 C1886 C 0.88110 1.12247 0.34039
 C1887 C 0.86551 1.14786 0.32453
 C1888 C 0.83261 1.16114 0.33193
 C1889 C 0.81563 1.14943 0.35584
 C1890 C 0.83090 1.12374 0.37180
 C1891 C 0.87976 1.08351 0.38051
 C1892 C 0.86259 1.07198 0.40433
 C1893 C 0.87962 1.04881 0.42153
 C1894 C 0.91396 1.03807 0.41547
 C1895 C 0.92979 1.04788 0.39051
 C1896 C 0.91295 1.07104 0.37309
 C1897 C 0.81410 1.11088 0.39536
 C1898 C 0.82972 1.08540 0.41139
 C1899 C 0.91380 1.10881 0.33315
 C1900 C 0.92954 1.08356 0.34931
 H1901 H 0.78888 1.12083 0.40161
 H1902 H 0.81629 1.07663 0.42976
 H1903 H 0.92750 1.11799 0.31504
 H1904 H 0.95516 1.07421 0.34343
 H1905 H 0.87868 1.15689 0.30610
 H1906 H 0.79003 1.15925 0.36131
 H1907 H 0.86727 1.04117 0.44072
 H1908 H 0.95634 1.03995 0.38588
 C1909 C 0.37648 0.63394 -0.13557
 C1910 C 0.36352 0.66559 -0.12717
 C1911 C 0.33965 0.68268 -0.14411
 C1912 C 0.32935 0.66849 -0.16941
 C1913 C 0.34217 0.63657 -0.17736
 C1914 C 0.36573 0.61912 -0.16047
 C1915 C 0.40150 0.61586 -0.11784
 C1916 C 0.41374 0.58377 -0.12582
 C1917 C 0.43570 0.56569 -0.10788
 C1918 C 0.44461 0.57950 -0.08211
 C1919 C 0.43373 0.61239 -0.07515
 C1920 C 0.41183 0.63056 -0.09278
 C1921 C 0.37898 0.58733 -0.16811
 C1922 C 0.40255 0.56986 -0.15099
 C1923 C 0.37503 0.67972 -0.10219
 C1924 C 0.39886 0.66246 -0.08524
 H1925 H 0.37086 0.57575 -0.18735
 H1926 H 0.41175 0.54515 -0.15735
 H1927 H 0.36539 0.70419 -0.09561
 H1928 H 0.40679 0.67393 -0.06590
 H1929 H 0.33017 0.70746 -0.13815
 H1930 H 0.33416 0.62554 -0.19687
 H1931 H 0.44394 0.54026 -0.11312
 H1932 H 0.44094 0.62316 -0.05534
 C1933 C 0.88941 0.86763 0.64282
 C1934 C 0.88225 0.83341 0.63720
 C1935 C 0.85528 0.81712 0.65153
 C1936 C 0.83642 0.83468 0.67176
 C1937 C 0.84356 0.86899 0.67699
 C1938 C 0.86991 0.88574 0.66237
 C1939 C 0.91742 0.88497 0.62760
 C1940 C 0.92330 0.91969 0.63205
 C1941 C 0.94705 0.93695 0.61506
 C1942 C 0.96395 0.91961 0.59360
 C1943 C 0.96039 0.88431 0.59125
 C1944 C 0.93647 0.86695 0.60774
 C1945 C 0.87738 0.92006 0.66709
 C1946 C 0.90350 0.93685 0.65201
 C1947 C 0.90258 0.81602 0.61774
 C1948 C 0.92937 0.83253 0.60328
 H1949 H 0.86251 0.93417 0.68222
 H1950 H 0.90779 0.96358 0.65563
 H1951 H 0.89751 0.78957 0.61346
 H1952 H 0.94399 0.81849 0.58794
 H1953 H 0.85023 0.79046 0.64807
 H1954 H 0.82908 0.88231 0.69285
 H1955 H 0.94959 0.96420 0.61668
 H1956 H 0.97366 0.87097 0.57474
 C1957 C 0.36643 0.36622 0.13542
 C1958 C 0.33488 0.35143 0.12640
 C1959 C 0.31606 0.33083 0.14452
 C1960 C 0.32847 0.32543 0.17148
 C1961 C 0.36029 0.34013 0.18012
 C1962 C 0.37942 0.36056 0.16215
 C1963 C 0.38625 0.38797 0.11653
 C1964 C 0.41802 0.40246 0.12540
 C1965 C 0.43728 0.42238 0.10695
 C1966 C 0.42491 0.42735 0.07992
 C1967 C 0.39256 0.41343 0.07167
 C1968 C 0.37324 0.39354 0.08981
 C1969 C 0.41112 0.37556 0.17043
 C1970 C 0.43019 0.39617 0.15229
 C1971 C 0.32263 0.35780 0.09956
 C1972 C 0.34153 0.37859 0.08152
 H1973 H 0.42130 0.37128 0.19106
 H1974 H 0.45467 0.40714 0.15933
 H1975 H 0.29830 0.34660 0.09244
 H1976 H 0.33139 0.38281 0.06086
 H1977 H 0.29143 0.31974 0.13790
 H1978 H 0.37011 0.33581 0.20087
 H1979 H 0.46225 0.43299 0.11329
 H1980 H 0.38267 0.41754 0.05092
   
