data_POSCAR
  _audit_creation_date              2014-09-24
  _audit_creation_method            'ToBaCCo'
  _symmetry_space_group_name_H-M    'P1'
  _symmetry_Int_Tables_number       1
  _symmetry_cell_setting            triclinic
  loop_
  _symmetry_equiv_pos_as_xyz
 x,y,z
_cell_length_a 100.7924
_cell_length_b 100.2899
_cell_length_c 101.4609
_cell_angle_alpha 89.982500
_cell_angle_beta 89.982600
_cell_angle_gamma 89.976400
loop_
  _atom_site_label
  _atom_site_type_symbol
  _atom_site_fract_x
  _atom_site_fract_y
  _atom_site_fract_z
N1 N 0.35274 0.31622 0.32526
 N2 N 0.35257 0.32570 0.31632
 C3 C 0.36282 0.32389 0.30798
 C4 C 0.36967 0.31258 0.31183
 C5 C 0.36297 0.30796 0.32283
 H6 H 0.36501 0.33016 0.29959
 H7 H 0.36546 0.29932 0.32871
 Cu8 Cu 0.33868 0.33918 0.31624
 Cu9 Cu 0.33981 0.31536 0.33951
 Cu10 Cu 0.31539 0.33973 0.33995
 N11 N 0.32495 0.35282 0.31661
 N12 N 0.31605 0.35315 0.32608
 C13 C 0.30789 0.36359 0.32413
 C14 C 0.31180 0.37009 0.31274
 C15 C 0.32265 0.36297 0.30822
 H16 H 0.29956 0.36610 0.33036
 H17 H 0.32849 0.36512 0.29954
 N18 N 0.31641 0.32530 0.35311
 N19 N 0.32586 0.31619 0.35309
 C20 C 0.32396 0.30789 0.36336
 C21 C 0.31270 0.31189 0.37007
 C22 C 0.30816 0.32294 0.36329
 H23 H 0.33014 0.29939 0.36566
 H24 H 0.29955 0.32889 0.36569
 H25 H 0.32455 0.32467 0.32946
 H26 H 0.33545 0.33551 0.33977
 N27 N 0.35147 0.81556 -0.17492
 N28 N 0.35212 0.82559 -0.18322
 C29 C 0.36221 0.82351 -0.19166
 C30 C 0.36822 0.81143 -0.18859
 C31 C 0.36100 0.80664 -0.17792
 H32 H 0.36487 0.83027 -0.19951
 H33 H 0.36289 0.79768 -0.17230
 Cu34 Cu 0.33979 0.84053 -0.18235
 Cu35 Cu 0.33940 0.81583 -0.15995
 Cu36 Cu 0.31632 0.84130 -0.15854
 N37 N 0.32606 0.85418 -0.18185
 N38 N 0.31736 0.85481 -0.17223
 C39 C 0.30926 0.86528 -0.17426
 C40 C 0.31288 0.87147 -0.18596
 C41 C 0.32361 0.86407 -0.19049
 H42 H 0.30100 0.86779 -0.16795
 H43 H 0.32932 0.86578 -0.19934
 N44 N 0.31687 0.82658 -0.14569
 N45 N 0.32528 0.81652 -0.14653
 C46 C 0.32273 0.80784 -0.13671
 C47 C 0.31232 0.81277 -0.12926
 C48 C 0.30887 0.82466 -0.13524
 H49 H 0.32821 0.79875 -0.13491
 H50 H 0.30096 0.83130 -0.13229
 H51 H 0.32479 0.82636 -0.16981
 H52 H 0.33599 0.83628 -0.15890
 N53 N 0.85235 0.31593 -0.17494
 N54 N 0.85194 0.32517 -0.18413
 C55 C 0.86212 0.32328 -0.19254
 C56 C 0.86917 0.31217 -0.18848
 C57 C 0.86266 0.30775 -0.17730
 H58 H 0.86416 0.32939 -0.20108
 H59 H 0.86537 0.29933 -0.17120
 Cu60 Cu 0.83801 0.33861 -0.18439
 Cu61 Cu 0.83970 0.31537 -0.16047
 Cu62 Cu 0.81567 0.34008 -0.15977
 N63 N 0.82446 0.35243 -0.18374
 N64 N 0.81616 0.35332 -0.17380
 C65 C 0.80826 0.36399 -0.17555
 C66 C 0.81160 0.37007 -0.18740
 C67 C 0.82195 0.36238 -0.19231
 H68 H 0.80039 0.36680 -0.16887
 H69 H 0.82747 0.36403 -0.20129
 N70 N 0.81675 0.32579 -0.14649
 N71 N 0.82603 0.31650 -0.14663
 C72 C 0.82411 0.30823 -0.13634
 C73 C 0.81300 0.31242 -0.12949
 C74 C 0.80858 0.32356 -0.13622
 H75 H 0.83014 0.29959 -0.13416
 H76 H 0.80006 0.32961 -0.13375
 H77 H 0.82423 0.32462 -0.17025
 H78 H 0.83569 0.33559 -0.16066
 N79 N 0.85156 0.81521 0.32494
 N80 N 0.85182 0.82500 0.31632
 C81 C 0.86208 0.82311 0.30802
 C82 C 0.86854 0.81147 0.31157
 C83 C 0.86155 0.80670 0.32233
 H84 H 0.86466 0.82967 0.29997
 H85 H 0.86381 0.79791 0.32808
 Cu86 Cu 0.83876 0.83926 0.31686
 Cu87 Cu 0.83882 0.81472 0.33941
 Cu88 Cu 0.81638 0.84093 0.34133
 N89 N 0.82536 0.85321 0.31737
 N90 N 0.81712 0.85422 0.32734
 C91 C 0.80917 0.86484 0.32547
 C92 C 0.81244 0.87075 0.31352
 C93 C 0.82278 0.86302 0.30867
 H94 H 0.80126 0.86766 0.33209
 H95 H 0.82818 0.86448 0.29959
 N96 N 0.81709 0.82639 0.35438
 N97 N 0.82526 0.81615 0.35337
 C98 C 0.82279 0.80757 0.36330
 C99 C 0.81263 0.81269 0.37096
 C100 C 0.80929 0.82465 0.36502
 H101 H 0.82807 0.79834 0.36492
 H102 H 0.80150 0.83139 0.36805
 H103 H 0.82399 0.82549 0.33014
 H104 H 0.83605 0.83507 0.34039
 N105 N 0.64775 0.68447 0.32609
 N106 N 0.64828 0.67558 0.31659
 C107 C 0.63828 0.67786 0.30807
 C108 C 0.63104 0.68869 0.31254
 C109 C 0.63734 0.69262 0.32402
 H110 H 0.63621 0.67192 0.29942
 H111 H 0.63463 0.70086 0.33033
 Cu112 Cu 0.66166 0.66157 0.31678
 Cu113 Cu 0.66063 0.68494 0.34041
 Cu114 Cu 0.68420 0.65970 0.34105
 N115 N 0.67511 0.64764 0.31697
 N116 N 0.68361 0.64673 0.32676
 C117 C 0.69158 0.63616 0.32476
 C118 C 0.68796 0.63012 0.31304
 C119 C 0.67747 0.63769 0.30835
 H120 H 0.69960 0.63325 0.33122
 H121 H 0.67189 0.63596 0.29941
 N122 N 0.68322 0.67383 0.35452
 N123 N 0.67450 0.68365 0.35406
 C124 C 0.67687 0.69208 0.36412
 C125 C 0.68752 0.68730 0.37130
 C126 C 0.69127 0.67569 0.36495
 H127 H 0.67124 0.70103 0.36613
 H128 H 0.69950 0.66931 0.36754
 H129 H 0.67589 0.67530 0.33062
 H130 H 0.66434 0.66470 0.34046
 N131 N 0.64582 0.18278 -0.17263
 N132 N 0.64608 0.17363 -0.18189
 C133 C 0.63605 0.17588 -0.19038
 C134 C 0.62906 0.18695 -0.18612
 C135 C 0.63552 0.19105 -0.17480
 H136 H 0.63397 0.16991 -0.19901
 H137 H 0.63317 0.19967 -0.16885
 Cu138 Cu 0.65953 0.15972 -0.18219
 Cu139 Cu 0.65943 0.18395 -0.15914
 Cu140 Cu 0.68545 0.16151 -0.16119
 N141 N 0.67424 0.14719 -0.18297
 N142 N 0.68462 0.14832 -0.17524
 C143 C 0.69340 0.13866 -0.17820
 C144 C 0.68819 0.13086 -0.18826
 C145 C 0.67597 0.13665 -0.19100
 H146 H 0.70266 0.13719 -0.17304
 H147 H 0.66891 0.13359 -0.19842
 N148 N 0.68437 0.17546 -0.14755
 N149 N 0.67419 0.18366 -0.14649
 C150 C 0.67602 0.19158 -0.13594
 C151 C 0.68798 0.18829 -0.13010
 C152 C 0.69301 0.17803 -0.13774
 H153 H 0.66926 0.19934 -0.13284
 H154 H 0.70217 0.17267 -0.13611
 H155 H 0.67400 0.17549 -0.17093
 H156 H 0.66526 0.16407 -0.15921
 N157 N 0.14788 0.68459 -0.17391
 N158 N 0.14838 0.67569 -0.18341
 C159 C 0.13838 0.67798 -0.19192
 C160 C 0.13116 0.68882 -0.18745
 C161 C 0.13748 0.69275 -0.17598
 H162 H 0.13629 0.67203 -0.20055
 H163 H 0.13478 0.70100 -0.16967
 Cu164 Cu 0.16172 0.66164 -0.18333
 Cu165 Cu 0.16078 0.68501 -0.15963
 Cu166 Cu 0.18423 0.65969 -0.15898
 N167 N 0.17515 0.64769 -0.18305
 N168 N 0.18361 0.64672 -0.17324
 C169 C 0.19154 0.63612 -0.17525
 C170 C 0.18793 0.63014 -0.18700
 C171 C 0.17750 0.63777 -0.19170
 H172 H 0.19955 0.63316 -0.16879
 H173 H 0.17194 0.63610 -0.20066
 N174 N 0.18331 0.67382 -0.14552
 N175 N 0.17465 0.68368 -0.14599
 C176 C 0.17708 0.69213 -0.13596
 C177 C 0.18772 0.68732 -0.12879
 C178 C 0.19139 0.67567 -0.13511
 H179 H 0.17151 0.70112 -0.13398
 H180 H 0.19961 0.66926 -0.13252
 H181 H 0.17599 0.67533 -0.16946
 H182 H 0.16438 0.66476 -0.15965
 N183 N 0.14640 0.18365 0.32710
 N184 N 0.14745 0.17519 0.31726
 C185 C 0.13754 0.17745 0.30864
 C186 C 0.12983 0.18783 0.31338
 C187 C 0.13575 0.19149 0.32513
 H188 H 0.13595 0.17190 0.29964
 H189 H 0.13273 0.19949 0.33162
 Cu190 Cu 0.16159 0.16196 0.31697
 Cu191 Cu 0.15933 0.18446 0.34134
 Cu192 Cu 0.18505 0.16145 0.34042
 N193 N 0.17582 0.14884 0.31667
 N194 N 0.18479 0.14853 0.32608
 C195 C 0.19310 0.13825 0.32394
 C196 C 0.18920 0.13179 0.31253
 C197 C 0.17821 0.13881 0.30816
 H198 H 0.20141 0.13570 0.33019
 H199 H 0.17224 0.13655 0.29960
 N200 N 0.18352 0.17530 0.35413
 N201 N 0.17347 0.18374 0.35474
 C202 C 0.17513 0.19176 0.36526
 C203 C 0.18684 0.18831 0.37148
 C204 C 0.19191 0.17786 0.36415
 H205 H 0.16852 0.19978 0.36800
 H206 H 0.20099 0.17247 0.36606
 H207 H 0.17499 0.17654 0.33075
 H208 H 0.16483 0.16461 0.34064
 N209 N 0.64812 0.31501 0.67371
 N210 N 0.64849 0.32399 0.68314
 C211 C 0.63849 0.32166 0.69165
 C212 C 0.63141 0.31070 0.68723
 C213 C 0.63781 0.30676 0.67581
 H214 H 0.63628 0.32766 0.70022
 H215 H 0.63519 0.29847 0.66952
 Cu216 Cu 0.66163 0.33821 0.68285
 Cu217 Cu 0.66099 0.31468 0.65936
 Cu218 Cu 0.68398 0.34044 0.65845
 N219 N 0.67481 0.35238 0.68256
 N220 N 0.68320 0.35344 0.67269
 C221 C 0.69100 0.36414 0.67463
 C222 C 0.68738 0.37009 0.68640
 C223 C 0.67707 0.36234 0.69118
 H224 H 0.69894 0.36718 0.66813
 H225 H 0.67157 0.36394 0.70019
 N226 N 0.68323 0.32622 0.64506
 N227 N 0.67481 0.31616 0.64567
 C228 C 0.67734 0.30771 0.63565
 C229 C 0.68777 0.31276 0.62834
 C230 C 0.69123 0.32452 0.63455
 H231 H 0.67196 0.29860 0.63374
 H232 H 0.69923 0.33113 0.63182
 H233 H 0.67607 0.32471 0.66900
 H234 H 0.66423 0.33499 0.65917
 N235 N 0.64690 0.81654 1.17308
 N236 N 0.64786 0.82508 1.18286
 C237 C 0.63795 0.82281 1.19149
 C238 C 0.63035 0.81233 1.18682
 C239 C 0.63632 0.80862 1.17510
 H240 H 0.63627 0.82844 1.20042
 H241 H 0.63335 0.80058 1.16865
 Cu242 Cu 0.66179 0.83851 1.18301
 Cu243 Cu 0.65980 0.81583 1.15878
 Cu244 Cu 0.68502 0.83939 1.15934
 N245 N 0.67579 0.85187 1.18316
 N246 N 0.68463 0.85235 1.17364
 C247 C 0.69280 0.86275 1.17571
 C248 C 0.68894 0.86910 1.18719
 C249 C 0.67812 0.86190 1.19168
 H250 H 0.70101 0.86543 1.16938
 H251 H 0.67223 0.86402 1.20034
 N252 N 0.68366 0.82543 1.14572
 N253 N 0.67388 0.81670 1.14531
 C254 C 0.67573 0.80855 1.13491
 C255 C 0.68729 0.81225 1.12855
 C256 C 0.69205 0.82299 1.13568
 H257 H 0.66936 0.80028 1.13237
 H258 H 0.70097 0.82861 1.13366
 H259 H 0.67538 0.82413 1.16918
 H260 H 0.66487 0.83577 1.15933
 N261 N 0.14657 0.31658 1.17303
 N262 N 0.14747 0.32516 1.18278
 C263 C 0.13758 0.32285 1.19142
 C264 C 0.13004 0.31231 1.18678
 C265 C 0.13604 0.30860 1.17507
 H266 H 0.13586 0.32850 1.20033
 H267 H 0.13314 0.30051 1.16865
 Cu268 Cu 0.16134 0.33865 1.18292
 Cu269 Cu 0.15947 0.31590 1.15874
 Cu270 Cu 0.18459 0.33957 1.15927
 N271 N 0.17530 0.35205 1.18306
 N272 N 0.18414 0.35254 1.17355
 C273 C 0.19229 0.36296 1.17562
 C274 C 0.18841 0.36931 1.18710
 C275 C 0.17761 0.36209 1.19158
 H276 H 0.20051 0.36565 1.16931
 H277 H 0.17171 0.36420 1.20024
 N278 N 0.18328 0.32559 1.14566
 N279 N 0.17353 0.31682 1.14526
 C280 C 0.17541 0.30867 1.13488
 C281 C 0.18696 0.31241 1.12851
 C282 C 0.19169 0.32317 1.13562
 H283 H 0.16908 0.30036 1.13234
 H284 H 0.20059 0.32881 1.13360
 H285 H 0.17500 0.32429 1.16912
 H286 H 0.16445 0.33587 1.15925
 N287 N 0.14667 0.81656 0.67310
 N288 N 0.14764 0.82511 0.68288
 C289 C 0.13776 0.82281 0.69154
 C290 C 0.13016 0.81232 0.68688
 C291 C 0.13611 0.80863 0.67514
 H292 H 0.13610 0.82844 0.70047
 H293 H 0.13315 0.80057 0.66871
 Cu294 Cu 0.16156 0.83854 0.68301
 Cu295 Cu 0.15954 0.81585 0.65878
 Cu296 Cu 0.18476 0.83940 0.65932
 N297 N 0.17557 0.85190 0.68315
 N298 N 0.18441 0.85236 0.67363
 C299 C 0.19261 0.86273 0.67569
 C300 C 0.18878 0.86909 0.68718
 C301 C 0.17794 0.86192 0.69167
 H302 H 0.20084 0.86537 0.66937
 H303 H 0.17206 0.86405 0.70033
 N304 N 0.18338 0.82548 0.64569
 N305 N 0.17359 0.81674 0.64528
 C306 C 0.17545 0.80859 0.63488
 C307 C 0.18702 0.81229 0.62853
 C308 C 0.19178 0.82303 0.63565
 H309 H 0.16909 0.80031 0.63234
 H310 H 0.20070 0.82864 0.63364
 H311 H 0.17511 0.82413 0.66916
 H312 H 0.16459 0.83577 0.65933
 N313 N 0.35310 0.68406 0.67471
 N314 N 0.35335 0.67404 0.68307
 C315 C 0.36362 0.67568 0.69139
 C316 C 0.37007 0.68740 0.68816
 C317 C 0.36310 0.69248 0.67754
 H318 H 0.36611 0.66898 0.69937
 H319 H 0.36527 0.70152 0.67215
 Cu320 Cu 0.34002 0.66004 0.68262
 Cu321 Cu 0.34007 0.68521 0.66060
 Cu322 Cu 0.31587 0.66071 0.65969
 N323 N 0.32588 0.64685 0.68234
 N324 N 0.31667 0.64695 0.67318
 C325 C 0.30832 0.63668 0.67522
 C326 C 0.31243 0.62987 0.68636
 C327 C 0.32359 0.63662 0.69064
 H328 H 0.29971 0.63450 0.66924
 H329 H 0.32964 0.63418 0.69910
 N330 N 0.31669 0.67545 0.64689
 N331 N 0.32605 0.68465 0.64708
 C332 C 0.32409 0.69310 0.63694
 C333 C 0.31288 0.68912 0.63014
 C334 C 0.30844 0.67791 0.63674
 H335 H 0.33024 0.70165 0.63476
 H336 H 0.29993 0.67189 0.63419
 H337 H 0.32535 0.67520 0.67077
 H338 H 0.33594 0.66509 0.65943
 N339 N 0.35306 0.18412 1.17423
 N340 N 0.35289 0.17460 1.18314
 C341 C 0.36312 0.17639 1.19151
 C342 C 0.36996 0.18772 1.18771
 C343 C 0.36328 0.19237 1.17671
 H344 H 0.36529 0.17011 1.19989
 H345 H 0.36577 0.20103 1.17087
 Cu346 Cu 0.33900 0.16113 1.18317
 Cu347 Cu 0.34012 0.18506 1.16000
 Cu348 Cu 0.31565 0.16074 1.15956
 N349 N 0.32523 0.14755 1.18283
 N350 N 0.31630 0.14729 1.17340
 C351 C 0.30808 0.13690 1.17538
 C352 C 0.31199 0.13036 1.18674
 C353 C 0.32290 0.13740 1.19122
 H354 H 0.29971 0.13446 1.16917
 H355 H 0.32875 0.13520 1.19988
 N356 N 0.31668 0.17519 1.14642
 N357 N 0.32614 0.18429 1.14643
 C358 C 0.32424 0.19259 1.13616
 C359 C 0.31296 0.18862 1.12946
 C360 C 0.30843 0.17757 1.13625
 H361 H 0.33044 0.20107 1.13385
 H362 H 0.29981 0.17163 1.13386
 H363 H 0.32489 0.17577 1.17005
 H364 H 0.33575 0.16495 1.15966
 N365 N 0.85316 0.68390 1.17450
 N366 N 0.85322 0.67416 1.18318
 C367 C 0.86340 0.67600 1.19158
 C368 C 0.86999 0.68757 1.18805
 C369 C 0.86319 0.69233 1.17717
 H370 H 0.86573 0.66957 1.19981
 H371 H 0.86548 0.70117 1.17152
 Cu372 Cu 0.83974 0.66028 1.18293
 Cu373 Cu 0.84022 0.68485 1.16030
 Cu374 Cu 0.81580 0.66057 1.15979
 N375 N 0.82557 0.64710 1.18280
 N376 N 0.81643 0.64708 1.17356
 C377 C 0.80804 0.63686 1.17566
 C378 C 0.81205 0.63018 1.18691
 C379 C 0.82319 0.63698 1.19119
 H380 H 0.79950 0.63462 1.16961
 H381 H 0.82917 0.63461 1.19972
 N382 N 0.81680 0.67504 1.14671
 N383 N 0.82626 0.68413 1.14673
 C384 C 0.82437 0.69246 1.13648
 C385 C 0.81310 0.68850 1.12977
 C386 C 0.80856 0.67744 1.13654
 H387 H 0.83058 0.70093 1.13418
 H388 H 0.79996 0.67149 1.13412
 H389 H 0.82530 0.67524 1.17059
 H390 H 0.83589 0.66474 1.15959
 N391 N 0.85236 0.18402 0.67475
 N392 N 0.85301 0.17398 0.68306
 C393 C 0.86346 0.17578 0.69113
 C394 C 0.86964 0.18762 0.68776
 C395 C 0.86230 0.19259 0.67732
 H396 H 0.86624 0.16912 0.69905
 H397 H 0.86416 0.20167 0.67188
 Cu398 Cu 0.83969 0.15998 0.68275
 Cu399 Cu 0.83889 0.18506 0.66094
 Cu400 Cu 0.81532 0.15979 0.66036
 N401 N 0.82625 0.14609 0.68280
 N402 N 0.81653 0.14630 0.67417
 C403 C 0.80814 0.13620 0.67672
 C404 C 0.81289 0.12920 0.68749
 C405 C 0.82444 0.13574 0.69107
 H406 H 0.79924 0.13409 0.67115
 H407 H 0.83078 0.13335 0.69933
 N408 N 0.81581 0.17435 0.64731
 N409 N 0.82453 0.18416 0.64774
 C410 C 0.82213 0.19260 0.63768
 C411 C 0.81148 0.18780 0.63051
 C412 C 0.80774 0.17621 0.63689
 H413 H 0.82788 0.20143 0.63553
 H414 H 0.79964 0.16970 0.63420
 H415 H 0.82445 0.17470 0.67109
 H416 H 0.83520 0.16488 0.65971
 N417 N 0.31601 0.35209 0.67427
 N418 N 0.32599 0.35277 0.68259
 C419 C 0.32420 0.36329 0.69063
 C420 C 0.31241 0.36949 0.68725
 C421 C 0.30747 0.36209 0.67683
 H422 H 0.33081 0.36608 0.69855
 H423 H 0.29844 0.36394 0.67138
 Cu424 Cu 0.33997 0.33940 0.68253
 Cu425 Cu 0.31499 0.33854 0.66056
 Cu426 Cu 0.34015 0.31488 0.65996
 N427 N 0.35383 0.32591 0.68227
 N428 N 0.35362 0.31613 0.67364
 C429 C 0.36377 0.30778 0.67611
 C430 C 0.37078 0.31262 0.68681
 C431 C 0.36422 0.32417 0.69044
 H432 H 0.36589 0.29886 0.67051
 H433 H 0.36662 0.33059 0.69866
 N434 N 0.32562 0.31531 0.64696
 N435 N 0.31585 0.32408 0.64740
 C436 C 0.30742 0.32164 0.63739
 C437 C 0.31216 0.31091 0.63023
 C438 C 0.32372 0.30717 0.63658
 H439 H 0.29864 0.32744 0.63524
 H440 H 0.33020 0.29902 0.63388
 H441 H 0.32534 0.32406 0.67077
 H442 H 0.33515 0.33493 0.65939
 N443 N 0.31655 0.85318 0.17362
 N444 N 0.32546 0.85289 0.18308
 C445 C 0.32312 0.86302 0.19148
 C446 C 0.31222 0.87009 0.18698
 C447 C 0.30834 0.86358 0.17560
 H448 H 0.32895 0.86519 0.20016
 H449 H 0.29999 0.86605 0.16937
 Cu450 Cu 0.33924 0.83929 0.18341
 Cu451 Cu 0.31595 0.83978 0.15974
 Cu452 Cu 0.34043 0.81546 0.16016
 N453 N 0.35314 0.82582 0.18337
 N454 N 0.35334 0.81634 0.17443
 C455 C 0.36357 0.80808 0.17690
 C456 C 0.37023 0.81270 0.18792
 C457 C 0.36336 0.82400 0.19174
 H458 H 0.36609 0.79945 0.17102
 H459 H 0.36552 0.83026 0.20014
 N460 N 0.32649 0.81630 0.14655
 N461 N 0.31701 0.82539 0.14657
 C462 C 0.30878 0.82305 0.13638
 C463 C 0.31335 0.81204 0.12954
 C464 C 0.32462 0.80804 0.13624
 H465 H 0.30016 0.82899 0.13399
 H466 H 0.33083 0.79958 0.13391
 H467 H 0.32517 0.82470 0.17021
 H468 H 0.33604 0.83557 0.15989
 N469 N 0.81610 0.35220 0.17369
 N470 N 0.82463 0.35143 0.18345
 C471 C 0.82231 0.36148 0.19195
 C472 C 0.81181 0.36899 0.18722
 C473 C 0.80814 0.36281 0.17559
 H474 H 0.82798 0.36335 0.20080
 H475 H 0.80015 0.36570 0.16908
 Cu476 Cu 0.83821 0.33761 0.18405
 Cu477 Cu 0.81578 0.33929 0.15943
 Cu478 Cu 0.84088 0.31578 0.15885
 N479 N 0.85253 0.32459 0.18312
 N480 N 0.85374 0.31639 0.17310
 C481 C 0.86451 0.30867 0.17491
 C482 C 0.87036 0.31215 0.18676
 C483 C 0.86248 0.32231 0.19170
 H484 H 0.86767 0.30087 0.16826
 H485 H 0.86396 0.32770 0.20080
 N486 N 0.82688 0.31667 0.14536
 N487 N 0.81710 0.32540 0.14580
 C488 C 0.80870 0.32299 0.13575
 C489 C 0.81347 0.31227 0.12860
 C490 C 0.82503 0.30855 0.13495
 H491 H 0.79978 0.32862 0.13376
 H492 H 0.83140 0.30027 0.13239
 H493 H 0.82508 0.32374 0.16920
 H494 H 0.83600 0.33578 0.16021
 N495 N 0.81660 0.85294 0.67373
 N496 N 0.82574 0.85285 0.68296
 C497 C 0.82339 0.86295 0.69140
 C498 C 0.81227 0.86980 0.68712
 C499 C 0.80825 0.86319 0.67585
 H500 H 0.82938 0.86526 0.69993
 H501 H 0.79972 0.86550 0.66981
 Cu502 Cu 0.83989 0.83965 0.68303
 Cu503 Cu 0.81591 0.83947 0.65995
 Cu504 Cu 0.84033 0.81514 0.66034
 N505 N 0.85339 0.82576 0.68320
 N506 N 0.85332 0.81606 0.67450
 C507 C 0.86340 0.80765 0.67711
 C508 C 0.87022 0.81239 0.68797
 C509 C 0.86361 0.82392 0.69156
 H510 H 0.86570 0.79883 0.67141
 H511 H 0.86595 0.83034 0.69980
 N512 N 0.82631 0.81591 0.64682
 N513 N 0.81686 0.82502 0.64685
 C514 C 0.80856 0.82265 0.63671
 C515 C 0.81308 0.81160 0.62991
 C516 C 0.82438 0.80761 0.63656
 H517 H 0.79995 0.82860 0.63434
 H518 H 0.83057 0.79914 0.63422
 H519 H 0.82543 0.82473 0.67067
 H520 H 0.83600 0.83526 0.65969
 N521 N 0.68380 0.64867 0.67517
 N522 N 0.67386 0.64813 0.68354
 C523 C 0.67572 0.63775 0.69176
 C524 C 0.68750 0.63151 0.68843
 C525 C 0.69238 0.63874 0.67786
 H526 H 0.66907 0.63499 0.69966
 H527 H 0.70132 0.63672 0.67233
 Cu528 Cu 0.65952 0.66110 0.68297
 Cu529 Cu 0.68451 0.66171 0.66096
 Cu530 Cu 0.65872 0.68452 0.65921
 N531 N 0.64579 0.67474 0.68250
 N532 N 0.64529 0.68359 0.67296
 C533 C 0.63486 0.69174 0.67497
 C534 C 0.62856 0.68787 0.68647
 C535 C 0.63578 0.67706 0.69100
 H536 H 0.63230 0.70011 0.66876
 H537 H 0.63385 0.67130 0.69980
 N538 N 0.67331 0.68395 0.64630
 N539 N 0.68338 0.67559 0.64724
 C540 C 0.69196 0.67804 0.63735
 C541 C 0.68703 0.68840 0.62978
 C542 C 0.67518 0.69187 0.63574
 H543 H 0.70105 0.67257 0.63565
 H544 H 0.66855 0.69978 0.63274
 H545 H 0.67368 0.67629 0.67057
 H546 H 0.66430 0.66464 0.65964
 N547 N 0.68453 0.14851 0.17473
 N548 N 0.67482 0.14821 0.18337
 C549 C 0.67667 0.13780 0.19156
 C550 C 0.68822 0.13130 0.18792
 C551 C 0.69296 0.13840 0.17721
 H552 H 0.67019 0.13520 0.19966
 H553 H 0.70172 0.13619 0.17146
 Cu554 Cu 0.66085 0.16158 0.18319
 Cu555 Cu 0.68515 0.16153 0.16048
 Cu556 Cu 0.65929 0.18433 0.15892
 N557 N 0.64673 0.17478 0.18252
 N558 N 0.64596 0.18338 0.17277
 C559 C 0.63535 0.19132 0.17466
 C560 C 0.62922 0.18758 0.18629
 C561 C 0.63671 0.17705 0.19101
 H562 H 0.63257 0.19949 0.16828
 H563 H 0.63497 0.17146 0.19996
 N564 N 0.67380 0.18377 0.14592
 N565 N 0.68388 0.17541 0.14677
 C566 C 0.69241 0.17791 0.13685
 C567 C 0.68743 0.18829 0.12934
 C568 C 0.67560 0.19173 0.13537
 H569 H 0.70150 0.17247 0.13510
 H570 H 0.66896 0.19965 0.13244
 H571 H 0.67462 0.17642 0.16995
 H572 H 0.66489 0.16447 0.15968
 N573 N 0.18441 0.64894 0.17471
 N574 N 0.17468 0.64866 0.18334
 C575 C 0.17650 0.63825 0.19153
 C576 C 0.18804 0.63173 0.18791
 C577 C 0.19281 0.63882 0.17720
 H578 H 0.17000 0.63566 0.19962
 H579 H 0.20157 0.63658 0.17146
 Cu580 Cu 0.16074 0.66207 0.18310
 Cu581 Cu 0.18507 0.66196 0.16046
 Cu582 Cu 0.15927 0.68482 0.15882
 N583 N 0.14665 0.67531 0.18242
 N584 N 0.14591 0.68392 0.17268
 C585 C 0.13532 0.69188 0.17456
 C586 C 0.12917 0.68816 0.18619
 C587 C 0.13663 0.67760 0.19091
 H588 H 0.13256 0.70006 0.16818
 H589 H 0.13486 0.67202 0.19985
 N590 N 0.17381 0.68421 0.14584
 N591 N 0.18387 0.67583 0.14673
 C592 C 0.19244 0.67830 0.13684
 C593 C 0.18750 0.68867 0.12930
 C594 C 0.17566 0.69215 0.13528
 H595 H 0.20153 0.67285 0.13512
 H596 H 0.16904 0.70008 0.13232
 H597 H 0.17456 0.67689 0.16989
 H598 H 0.16483 0.66496 0.15960
 N599 N 0.18379 0.14775 0.67344
 N600 N 0.17518 0.14842 0.68315
 C601 C 0.17754 0.13837 0.69165
 C602 C 0.18813 0.13097 0.68695
 C603 C 0.19183 0.13722 0.67536
 H604 H 0.17184 0.13644 0.70047
 H605 H 0.19989 0.13441 0.66890
 Cu606 Cu 0.16151 0.16214 0.68368
 Cu607 Cu 0.18413 0.16076 0.65924
 Cu608 Cu 0.15897 0.18422 0.65872
 N609 N 0.14724 0.17520 0.68290
 N610 N 0.14606 0.18350 0.67294
 C611 C 0.13531 0.19124 0.67483
 C612 C 0.12946 0.18767 0.68665
 C613 C 0.13731 0.17745 0.69151
 H614 H 0.13218 0.19911 0.66825
 H615 H 0.13583 0.17200 0.70058
 N616 N 0.17301 0.18343 0.64525
 N617 N 0.18281 0.17471 0.64567
 C618 C 0.19124 0.17720 0.63567
 C619 C 0.18648 0.18796 0.62857
 C620 C 0.17489 0.19162 0.63489
 H621 H 0.20019 0.17162 0.63369
 H622 H 0.16853 0.19992 0.63237
 H623 H 0.17471 0.17620 0.66908
 H624 H 0.16390 0.16425 0.65987
 N625 N 0.31617 0.64783 0.32513
 N626 N 0.32616 0.64715 0.31682
 C627 C 0.32433 0.63667 0.30872
 C628 C 0.31252 0.63051 0.31209
 C629 C 0.30761 0.63788 0.32254
 H630 H 0.33093 0.63388 0.30079
 H631 H 0.29856 0.63604 0.32798
 Cu632 Cu 0.34013 0.66050 0.31717
 Cu633 Cu 0.31515 0.66137 0.33892
 Cu634 Cu 0.34032 0.68504 0.33950
 N635 N 0.35399 0.67398 0.31711
 N636 N 0.35378 0.68376 0.32573
 C637 C 0.36389 0.69214 0.32321
 C638 C 0.37087 0.68732 0.31248
 C639 C 0.36433 0.67574 0.30888
 H640 H 0.36602 0.70106 0.32880
 H641 H 0.36672 0.66933 0.30065
 N642 N 0.32581 0.68458 0.35253
 N643 N 0.31605 0.67582 0.35211
 C644 C 0.30764 0.67824 0.36215
 C645 C 0.31239 0.68896 0.36931
 C646 C 0.32393 0.69271 0.36293
 H647 H 0.29886 0.67244 0.36431
 H648 H 0.33041 0.70085 0.36562
 H649 H 0.32552 0.67583 0.32882
 H650 H 0.33526 0.66504 0.34024
 N651 N 0.31653 0.14723 0.82612
 N652 N 0.32545 0.14748 0.81667
 C653 C 0.32312 0.13732 0.80830
 C654 C 0.31221 0.13028 0.81282
 C655 C 0.30832 0.13684 0.82417
 H656 H 0.32896 0.13512 0.79963
 H657 H 0.29994 0.13441 0.83039
 Cu658 Cu 0.33920 0.16109 0.81628
 Cu659 Cu 0.31588 0.16068 0.83994
 Cu660 Cu 0.34033 0.18500 0.83946
 N661 N 0.35309 0.17455 0.81631
 N662 N 0.35326 0.18407 0.82522
 C663 C 0.36349 0.19232 0.82274
 C664 C 0.37018 0.18767 0.81175
 C665 C 0.36333 0.17634 0.80795
 H666 H 0.36598 0.20097 0.82859
 H667 H 0.36552 0.17006 0.79958
 N668 N 0.32636 0.18422 0.85304
 N669 N 0.31690 0.17512 0.85306
 C670 C 0.30864 0.17750 0.86323
 C671 C 0.31318 0.18856 0.87001
 C672 C 0.32445 0.19253 0.86331
 H673 H 0.30003 0.17157 0.86563
 H674 H 0.33064 0.20102 0.86560
 H675 H 0.32509 0.17570 0.82942
 H676 H 0.33595 0.16488 0.83980
 N677 N 0.81625 0.64772 0.82512
 N678 N 0.82655 0.64663 0.81725
 C679 C 0.82468 0.63619 0.80911
 C680 C 0.81253 0.63045 0.81201
 C681 C 0.80745 0.63806 0.82222
 H682 H 0.83157 0.63309 0.80154
 H683 H 0.79818 0.63651 0.82735
 Cu684 Cu 0.84144 0.65893 0.81812
 Cu685 Cu 0.81532 0.66115 0.83890
 Cu686 Cu 0.84031 0.68470 0.83951
 N687 N 0.85427 0.67340 0.81755
 N688 N 0.85366 0.68353 0.82574
 C689 C 0.86348 0.69216 0.82291
 C690 C 0.87069 0.68715 0.81241
 C691 C 0.86457 0.67521 0.80928
 H692 H 0.86532 0.70134 0.82819
 H693 H 0.86725 0.66847 0.80140
 N694 N 0.82592 0.68422 0.85260
 N695 N 0.81617 0.67546 0.85216
 C696 C 0.80777 0.67784 0.86221
 C697 C 0.81251 0.68856 0.86938
 C698 C 0.82405 0.69234 0.86301
 H699 H 0.79899 0.67204 0.86434
 H700 H 0.83052 0.70049 0.86569
 H701 H 0.82630 0.67481 0.82823
 H702 H 0.83546 0.66462 0.84075
 N703 N 0.81579 0.14831 0.32483
 N704 N 0.82553 0.14804 0.31621
 C705 C 0.82371 0.13767 0.30798
 C706 C 0.81214 0.13116 0.31155
 C707 C 0.80737 0.13822 0.32228
 H708 H 0.83021 0.13510 0.29989
 H709 H 0.79859 0.13599 0.32799
 Cu710 Cu 0.83947 0.16144 0.31651
 Cu711 Cu 0.81509 0.16128 0.33911
 Cu712 Cu 0.84088 0.18413 0.34082
 N713 N 0.85354 0.17468 0.31722
 N714 N 0.85425 0.18328 0.32697
 C715 C 0.86479 0.19129 0.32510
 C716 C 0.87097 0.18761 0.31347
 C717 C 0.86355 0.17703 0.30874
 H718 H 0.86751 0.19947 0.33149
 H719 H 0.86534 0.17147 0.29978
 N720 N 0.82635 0.18347 0.35380
 N721 N 0.81629 0.17510 0.35288
 C722 C 0.80773 0.17753 0.36280
 C723 C 0.81269 0.18786 0.37037
 C724 C 0.82451 0.19136 0.36438
 H725 H 0.79866 0.17207 0.36452
 H726 H 0.83114 0.19927 0.36737
 H727 H 0.82560 0.17622 0.32972
 H728 H 0.83533 0.16426 0.34001
 N729 N 0.68422 0.35213 0.32619
 N730 N 0.67536 0.35168 0.31670
 C731 C 0.67769 0.36172 0.30818
 C732 C 0.68853 0.36889 0.31264
 C733 C 0.69240 0.36252 0.32411
 H734 H 0.67180 0.36385 0.29953
 H735 H 0.70064 0.36517 0.33041
 Cu736 Cu 0.66136 0.33831 0.31685
 Cu737 Cu 0.68460 0.33916 0.34050
 Cu738 Cu 0.65937 0.31563 0.34110
 N739 N 0.64744 0.32487 0.31701
 N740 N 0.64648 0.31633 0.32680
 C741 C 0.63591 0.30841 0.32478
 C742 C 0.62995 0.31210 0.31305
 C743 C 0.63755 0.32258 0.30837
 H744 H 0.63294 0.30036 0.33124
 H745 H 0.63588 0.32820 0.29943
 N746 N 0.67343 0.31651 0.35458
 N747 N 0.68324 0.32522 0.35413
 C748 C 0.69163 0.32278 0.36417
 C749 C 0.68685 0.31208 0.37134
 C750 C 0.67526 0.30839 0.36501
 H751 H 0.70057 0.32838 0.36616
 H752 H 0.66888 0.30014 0.36759
 H753 H 0.67495 0.32391 0.33068
 H754 H 0.66446 0.33557 0.34053
 N755 N 0.68358 0.85174 0.82617
 N756 N 0.67516 0.85087 0.81633
 C757 C 0.67744 0.86095 0.80785
 C758 C 0.68779 0.86858 0.81269
 C759 C 0.69143 0.86244 0.82435
 H760 H 0.67183 0.86275 0.79894
 H761 H 0.69932 0.86542 0.83093
 Cu762 Cu 0.66177 0.83690 0.81555
 Cu763 Cu 0.68397 0.83880 0.84041
 Cu764 Cu 0.65892 0.81529 0.84096
 N765 N 0.64734 0.82404 0.81663
 N766 N 0.64604 0.81593 0.82672
 C767 C 0.63519 0.80833 0.82497
 C768 C 0.62939 0.81178 0.81309
 C769 C 0.63738 0.82180 0.80807
 H770 H 0.63194 0.80062 0.83169
 H771 H 0.63595 0.82715 0.79892
 N772 N 0.67294 0.81614 0.85444
 N773 N 0.68270 0.82488 0.85400
 C774 C 0.69112 0.82245 0.86402
 C775 C 0.68640 0.81171 0.87116
 C776 C 0.67482 0.80799 0.86483
 H777 H 0.70004 0.82809 0.86600
 H778 H 0.66848 0.79969 0.86738
 H779 H 0.67480 0.82318 0.83063
 H780 H 0.66377 0.83530 0.83942
 N781 N 0.18438 0.35158 0.82482
 N782 N 0.17466 0.35188 0.81619
 C783 C 0.17651 0.36227 0.80798
 C784 C 0.18806 0.36876 0.81159
 C785 C 0.19281 0.36168 0.82231
 H786 H 0.17002 0.36486 0.79989
 H787 H 0.20158 0.36389 0.82804
 Cu788 Cu 0.16069 0.33851 0.81641
 Cu789 Cu 0.18500 0.33859 0.83909
 Cu790 Cu 0.15915 0.31581 0.84072
 N791 N 0.14657 0.32533 0.81712
 N792 N 0.14581 0.31674 0.82687
 C793 C 0.13522 0.30879 0.82500
 C794 C 0.12907 0.31252 0.81338
 C795 C 0.13655 0.32305 0.80863
 H796 H 0.13244 0.30063 0.83139
 H797 H 0.13479 0.32863 0.79969
 N798 N 0.17366 0.31638 0.85371
 N799 N 0.18374 0.32474 0.85283
 C800 C 0.19228 0.32225 0.86275
 C801 C 0.18730 0.31188 0.87027
 C802 C 0.17548 0.30844 0.86426
 H803 H 0.20137 0.32768 0.86448
 H804 H 0.16884 0.30051 0.86720
 H805 H 0.17449 0.32369 0.82966
 H806 H 0.16475 0.33566 0.83992
 N807 N 0.18416 0.85232 0.32613
 N808 N 0.17566 0.85155 0.31634
 C809 C 0.17797 0.86164 0.30788
 C810 C 0.18843 0.86916 0.31266
 C811 C 0.19209 0.86295 0.32428
 H812 H 0.17232 0.86352 0.29902
 H813 H 0.20005 0.86584 0.33082
 Cu814 Cu 0.16215 0.83768 0.31564
 Cu815 Cu 0.18449 0.83935 0.34036
 Cu816 Cu 0.15937 0.81592 0.34091
 N817 N 0.14776 0.82477 0.31662
 N818 N 0.14649 0.81660 0.32667
 C819 C 0.13567 0.80895 0.32488
 C820 C 0.12986 0.81244 0.31301
 C821 C 0.13781 0.82252 0.30804
 H822 H 0.13246 0.80119 0.33155
 H823 H 0.13637 0.82789 0.29891
 N824 N 0.17338 0.81672 0.35439
 N825 N 0.18318 0.82543 0.35396
 C826 C 0.19158 0.82298 0.36399
 C827 C 0.18681 0.81225 0.37113
 C828 C 0.17523 0.80857 0.36479
 H829 H 0.20051 0.82859 0.36598
 H830 H 0.16885 0.80030 0.36734
 H831 H 0.17520 0.82381 0.33057
 H832 H 0.16426 0.83590 0.33950
 C833 C 0.25471 1.01245 0.24517
 C834 C 0.24490 1.01249 0.25518
 C835 C 0.24010 1.00028 0.25999
 C836 C 0.24485 0.98803 0.25521
 C837 C 0.25468 0.98800 0.24522
 C838 C 0.25945 1.00021 0.24039
 H839 H 0.26676 1.00018 0.23255
 H840 H 0.23280 1.00031 0.26783
 C841 C 0.25493 0.51208 0.74478
 C842 C 0.24504 0.51213 0.75470
 C843 C 0.24019 0.49993 0.75948
 C844 C 0.24492 0.48768 0.75471
 C845 C 0.25490 0.48764 0.74488
 C846 C 0.25972 0.49983 0.74006
 H847 H 0.26732 0.49979 0.73250
 H848 H 0.23258 0.49997 0.76704
 C849 C 0.75481 -0.01209 0.25491
 C850 C 0.74505 -0.01207 0.24485
 C851 C 0.74027 0.00017 0.24009
 C852 C 0.74498 0.01239 0.24494
 C853 C 0.75486 0.01237 0.25487
 C854 C 0.75955 0.00014 0.25973
 H855 H 0.76705 0.00014 0.26738
 H856 H 0.73274 0.00018 0.23245
 C857 C 0.75452 0.48795 0.75470
 C858 C 0.74470 0.48796 0.74471
 C859 C 0.73988 0.50019 0.73995
 C860 C 0.74459 0.51241 0.74477
 C861 C 0.75452 0.51242 0.75466
 C862 C 0.75927 0.50020 0.75948
 H863 H 0.76680 0.50022 0.76711
 H864 H 0.73231 0.50018 0.73235
 C865 C 0.25464 0.48813 0.25448
 C866 C 0.24477 0.48812 0.24454
 C867 C 0.23995 0.50034 0.23978
 C868 C 0.24470 0.51257 0.24458
 C869 C 0.25466 0.51257 0.25443
 C870 C 0.25944 0.50035 0.25923
 H871 H 0.26702 0.50035 0.26681
 H872 H 0.23236 0.50034 0.23220
 C873 C 0.75450 1.01182 0.74571
 C874 C 0.74436 1.01186 0.75539
 C875 C 0.73948 0.99963 0.76009
 C876 C 0.74437 0.98740 0.75543
 C877 C 0.75439 0.98737 0.74565
 C878 C 0.75930 0.99959 0.74097
 H879 H 0.76700 0.99957 0.73351
 H880 H 0.73176 0.99964 0.76753
 C881 C 0.75500 0.51199 0.24497
 C882 C 0.74515 0.51198 0.25494
 C883 C 0.74039 0.49976 0.25973
 C884 C 0.74519 0.48753 0.25497
 C885 C 0.75505 0.48753 0.24501
 C886 C 0.75981 0.49976 0.24021
 H887 H 0.76715 0.49977 0.23240
 H888 H 0.73305 0.49976 0.26755
 C889 C 0.25459 -0.01203 0.75485
 C890 C 0.24488 -0.01203 0.74475
 C891 C 0.24010 0.00020 0.73995
 C892 C 0.24477 0.01243 0.74481
 C893 C 0.25449 0.01244 0.75489
 C894 C 0.25921 0.00022 0.75974
 H895 H 0.26642 0.00025 0.76768
 H896 H 0.23286 0.00020 0.73205
 C897 C 0.24516 0.25480 1.01173
 C898 C 0.25534 0.24505 1.01173
 C899 C 0.26021 0.24032 0.99964
 C900 C 0.25533 0.24507 0.98756
 C901 C 0.24516 0.25483 0.98757
 C902 C 0.24028 0.25954 0.99966
 H903 H 0.23231 0.26681 0.99967
 H904 H 0.26819 0.23305 0.99963
 C905 C 0.24562 0.75476 0.51188
 C906 C 0.25583 0.74504 0.51190
 C907 C 0.26069 0.74027 0.49981
 C908 C 0.25578 0.74497 0.48772
 C909 C 0.24558 0.75470 0.48772
 C910 C 0.24070 0.75945 0.49980
 H911 H 0.23271 0.76669 0.49979
 H912 H 0.26868 0.73303 0.49982
 C913 C 0.25570 0.75537 -0.01219
 C914 C 0.24583 0.74531 -0.01218
 C915 C 0.24100 0.74053 -0.00009
 C916 C 0.24576 0.74539 0.01199
 C917 C 0.25577 0.75531 0.01198
 C918 C 0.26052 0.76016 -0.00011
 H919 H 0.26812 0.76782 -0.00010
 H920 H 0.23338 0.73290 -0.00008
 C921 C 0.25546 0.25498 0.48773
 C922 C 0.24526 0.24526 0.48773
 C923 C 0.24037 0.24055 0.49982
 C924 C 0.24526 0.24527 0.51190
 C925 C 0.25544 0.25501 0.51190
 C926 C 0.26034 0.25972 0.49981
 H927 H 0.26831 0.26698 0.49981
 H928 H 0.23237 0.23332 0.49984
 C929 C 0.74549 0.75440 1.01184
 C930 C 0.75567 0.74465 1.01184
 C931 C 0.76050 0.73986 0.99975
 C932 C 0.75558 0.74456 0.98767
 C933 C 0.74541 0.75432 0.98768
 C934 C 0.74057 0.75909 0.99976
 H935 H 0.73260 0.76636 0.99977
 H936 H 0.76847 0.73259 0.99975
 C937 C 0.74527 0.25445 0.51223
 C938 C 0.75512 0.24436 0.51222
 C939 C 0.75993 0.23955 0.50013
 C940 C 0.75517 0.24444 0.48805
 C941 C 0.74519 0.25439 0.48806
 C942 C 0.74046 0.25926 0.50014
 H943 H 0.73288 0.26694 0.50013
 H944 H 0.76752 0.23189 0.50012
 C945 C 0.75517 0.25487 -0.01237
 C946 C 0.74509 0.24503 -0.01237
 C947 C 0.74024 0.24025 -0.00029
 C948 C 0.74506 0.24504 0.01180
 C949 C 0.75516 0.25487 0.01180
 C950 C 0.76001 0.25964 -0.00029
 H951 H 0.76792 0.26697 -0.00028
 H952 H 0.73234 0.23292 -0.00029
 C953 C 0.75514 0.75514 0.48824
 C954 C 0.74521 0.74514 0.48824
 C955 C 0.74035 0.74036 0.50032
 C956 C 0.74515 0.74517 0.51241
 C957 C 0.75521 0.75504 0.51241
 C958 C 0.76000 0.75988 0.50033
 H959 H 0.76765 0.76748 0.50033
 H960 H 0.73271 0.73275 0.50031
 C961 C 1.01242 0.24530 0.25498
 C962 C 1.01245 0.25525 0.24507
 C963 C 1.00029 0.26011 0.24030
 C964 C 0.98812 0.25529 0.24504
 C965 C 0.98810 0.24536 0.25497
 C966 C 1.00025 0.24051 0.25974
 H967 H 1.00023 0.23310 0.26753
 H968 H 1.00031 0.26751 0.23251
 C969 C 0.51260 0.24506 0.75454
 C970 C 0.51259 0.25498 0.74459
 C971 C 0.50041 0.25983 0.73989
 C972 C 0.48826 0.25502 0.74470
 C973 C 0.48828 0.24496 0.75452
 C974 C 0.50046 0.24020 0.75931
 H975 H 0.50048 0.23256 0.76687
 H976 H 0.50039 0.26747 0.73233
 C977 C -0.01239 0.25514 0.75470
 C978 C -0.01240 0.24502 0.74495
 C979 C -0.00024 0.24013 0.74023
 C980 C 0.01193 0.24497 0.74495
 C981 C 0.01194 0.25498 0.75480
 C982 C -0.00021 0.25992 0.75947
 H983 H -0.00019 0.26763 0.76696
 H984 H -0.00025 0.23243 0.73272
 C985 C 0.48785 0.25524 0.25487
 C986 C 0.48785 0.24509 0.24515
 C987 C 0.50002 0.24026 0.24041
 C988 C 0.51218 0.24516 0.24508
 C989 C 0.51218 0.25518 0.25492
 C990 C 0.50002 0.26008 0.25962
 H991 H 0.50002 0.26779 0.26710
 H992 H 0.50003 0.23254 0.23292
 C993 C 1.01263 0.74510 0.75510
 C994 C 1.01265 0.75510 0.74523
 C995 C 1.00049 0.75999 0.74050
 C996 C 0.98832 0.75517 0.74525
 C997 C 0.98830 0.74505 0.75500
 C998 C 1.00046 0.74022 0.75978
 H999 H 1.00044 0.73252 0.76729
 H1000 H 1.00051 0.76769 0.73299
 C1001 C 0.51269 0.74525 0.25494
 C1002 C 0.51272 0.75527 0.24509
 C1003 C 0.50057 0.76018 0.24037
 C1004 C 0.48838 0.75537 0.24511
 C1005 C 0.48836 0.74524 0.25484
 C1006 C 0.50051 0.74038 0.25961
 H1007 H 0.50049 0.73268 0.26711
 H1008 H 0.50059 0.76789 0.23287
 C1009 C -0.01231 0.75548 0.25510
 C1010 C -0.01229 0.74537 0.24534
 C1011 C -0.00012 0.74060 0.24054
 C1012 C 0.01203 0.74553 0.24520
 C1013 C 0.01202 0.75552 0.25508
 C1014 C -0.00015 0.76035 0.25982
 H1015 H -0.00016 0.76804 0.26734
 H1016 H -0.00010 0.73292 0.23302
 C1017 C 0.48694 0.75539 0.75502
 C1018 C 0.48703 0.74512 0.74541
 C1019 C 0.49923 0.74033 0.74069
 C1020 C 0.51136 0.74534 0.74533
 C1021 C 0.51129 0.75543 0.75509
 C1022 C 0.49910 0.76035 0.75970
 H1023 H 0.49907 0.76815 0.76710
 H1024 H 0.49929 0.73254 0.73328
 C1025 C 0.40423 0.29522 0.29368
 C1026 C 0.39514 0.28725 0.30066
 C1027 C 0.38398 0.29290 0.30661
 C1028 C 0.38150 0.30663 0.30552
 C1029 C 0.39042 0.31460 0.29839
 C1030 C 0.40171 0.30899 0.29263
 C1031 C 0.41634 0.28922 0.28767
 C1032 C 0.42153 0.29415 0.27575
 C1033 C 0.43304 0.28867 0.27029
 C1034 C 0.43958 0.27799 0.27650
 C1035 C 0.43426 0.27293 0.28831
 C1036 C 0.42289 0.27855 0.29387
 C1037 C 0.45197 0.27224 0.27084
 C1038 C 0.46209 0.26752 0.27917
 C1039 C 0.47364 0.26195 0.27394
 C1040 C 0.47544 0.26110 0.26026
 C1041 C 0.46552 0.26608 0.25188
 C1042 C 0.45384 0.27144 0.25711
 H1043 H 0.39656 0.27658 0.30144
 H1044 H 0.37717 0.28648 0.31188
 H1045 H 0.38883 0.32524 0.29752
 H1046 H 0.40860 0.31550 0.28757
 H1047 H 0.41666 0.30222 0.27057
 H1048 H 0.43690 0.29295 0.26128
 H1049 H 0.43885 0.26457 0.29328
 H1050 H 0.41934 0.27460 0.30315
 H1051 H 0.46119 0.26824 0.28978
 H1052 H 0.48118 0.25825 0.28061
 H1053 H 0.46678 0.26576 0.24129
 H1054 H 0.44623 0.27483 0.25037
 C1055 C 0.40241 0.79418 0.79365
 C1056 C 0.39441 0.78674 0.80232
 C1057 C 0.38322 0.79242 0.80823
 C1058 C 0.37945 0.80563 0.80538
 C1059 C 0.38731 0.81297 0.79647
 C1060 C 0.39869 0.80740 0.79085
 C1061 C 0.41464 0.78828 0.78770
 C1062 C 0.41907 0.79228 0.77515
 C1063 C 0.43075 0.78707 0.76978
 C1064 C 0.43820 0.77745 0.77665
 C1065 C 0.43360 0.77323 0.78907
 C1066 C 0.42211 0.77868 0.79458
 C1067 C 0.45075 0.77194 0.77099
 C1068 C 0.46122 0.76798 0.77930
 C1069 C 0.47286 0.76257 0.77408
 C1070 C 0.47447 0.76120 0.76040
 C1071 C 0.46424 0.76554 0.75204
 C1072 C 0.45244 0.77062 0.75727
 H1073 H 0.39669 0.77643 0.80450
 H1074 H 0.37742 0.78626 0.81481
 H1075 H 0.38502 0.82322 0.79408
 H1076 H 0.40471 0.81362 0.78452
 H1077 H 0.41352 0.79943 0.76938
 H1078 H 0.43399 0.79077 0.76030
 H1079 H 0.43884 0.76565 0.79460
 H1080 H 0.41923 0.77547 0.80435
 H1081 H 0.46055 0.76915 0.78988
 H1082 H 0.48061 0.75938 0.78076
 H1083 H 0.46533 0.76487 0.74144
 H1084 H 0.44460 0.77336 0.75050
 C1085 C -0.09611 0.29498 0.79351
 C1086 C -0.10508 0.28700 0.80065
 C1087 C -0.11628 0.29261 0.80656
 C1088 C -0.11895 0.30628 0.80526
 C1089 C -0.11016 0.31425 0.79799
 C1090 C -0.09881 0.30870 0.79227
 C1091 C -0.08396 0.28904 0.78752
 C1092 C -0.07884 0.29391 0.77555
 C1093 C -0.06729 0.28848 0.77010
 C1094 C -0.06065 0.27790 0.77638
 C1095 C -0.06590 0.27290 0.78824
 C1096 C -0.07730 0.27847 0.79380
 C1097 C -0.04825 0.27218 0.77070
 C1098 C -0.03810 0.26748 0.77902
 C1099 C -0.02657 0.26191 0.77378
 C1100 C -0.02478 0.26103 0.76009
 C1101 C -0.03472 0.26600 0.75173
 C1102 C -0.04640 0.27136 0.75697
 H1103 H -0.10353 0.27636 0.80158
 H1104 H -0.12299 0.28619 0.81196
 H1105 H -0.11189 0.32486 0.79695
 H1106 H -0.09203 0.31522 0.78710
 H1107 H -0.08378 0.30189 0.77031
 H1108 H -0.06349 0.29273 0.76105
 H1109 H -0.06124 0.26461 0.79326
 H1110 H -0.08078 0.27457 0.80312
 H1111 H -0.03898 0.26823 0.78963
 H1112 H -0.01902 0.25822 0.78044
 H1113 H -0.03348 0.26568 0.74113
 H1114 H -0.05402 0.27473 0.75023
 C1115 C -0.09643 0.79450 0.29389
 C1116 C -0.09899 0.80826 0.29299
 C1117 C -0.11042 0.81374 0.29861
 C1118 C -0.11947 0.80563 0.30544
 C1119 C -0.11691 0.79191 0.30642
 C1120 C -0.10559 0.78639 0.30063
 C1121 C -0.08421 0.78866 0.28795
 C1122 C -0.07763 0.77796 0.29408
 C1123 C -0.06614 0.77252 0.28856
 C1124 C -0.06077 0.77775 0.27685
 C1125 C -0.06734 0.78845 0.27071
 C1126 C -0.07894 0.79378 0.27614
 C1127 C -0.04832 0.77213 0.27118
 C1128 C -0.04642 0.77147 0.25744
 C1129 C -0.03470 0.76623 0.25219
 C1130 C -0.02474 0.76126 0.26054
 C1131 C -0.02657 0.76199 0.27423
 C1132 C -0.03818 0.76742 0.27949
 H1133 H -0.09205 0.81488 0.28815
 H1134 H -0.11202 0.82439 0.29785
 H1135 H -0.12378 0.78538 0.31149
 H1136 H -0.10411 0.77572 0.30131
 H1137 H -0.08124 0.77387 0.30328
 H1138 H -0.06152 0.76414 0.29348
 H1139 H -0.06343 0.79287 0.26179
 H1140 H -0.08382 0.80187 0.27101
 H1141 H -0.05404 0.77486 0.25072
 H1142 H -0.03342 0.76600 0.24159
 H1143 H -0.01901 0.75828 0.28087
 H1144 H -0.03912 0.76803 0.29010
 C1145 C 0.59618 0.70612 0.29497
 C1146 C 0.60551 0.69924 0.28719
 C1147 C 0.61676 0.69350 0.29290
 C1148 C 0.61907 0.69467 0.30650
 C1149 C 0.60985 0.70160 0.31428
 C1150 C 0.59849 0.70717 0.30861
 C1151 C 0.58408 0.71210 0.28891
 C1152 C 0.57873 0.72409 0.29378
 C1153 C 0.56724 0.72955 0.28826
 C1154 C 0.56088 0.72328 0.27759
 C1155 C 0.56635 0.71139 0.27261
 C1156 C 0.57772 0.70583 0.27825
 C1157 C 0.54854 0.72900 0.27178
 C1158 C 0.53850 0.72058 0.26692
 C1159 C 0.52696 0.72590 0.26140
 C1160 C 0.52510 0.73975 0.26072
 C1161 C 0.53496 0.74820 0.26579
 C1162 C 0.54662 0.74289 0.27111
 H1163 H 0.60423 0.69844 0.27663
 H1164 H 0.62377 0.68834 0.28663
 H1165 H 0.61126 0.70251 0.32482
 H1166 H 0.59142 0.71212 0.31498
 H1167 H 0.58346 0.72933 0.30182
 H1168 H 0.56326 0.73860 0.29250
 H1169 H 0.56189 0.70637 0.26427
 H1170 H 0.58140 0.69650 0.27434
 H1171 H 0.53945 0.70985 0.26752
 H1172 H 0.51947 0.71917 0.25762
 H1173 H 0.53365 0.75891 0.26559
 H1174 H 0.55416 0.74971 0.27459
 C1175 C 0.59537 0.20551 0.79533
 C1176 C 0.59734 0.20656 0.80902
 C1177 C 0.60834 0.20062 0.81502
 C1178 C 0.61749 0.19331 0.80751
 C1179 C 0.61554 0.19218 0.79386
 C1180 C 0.60467 0.19831 0.78782
 C1181 C 0.58358 0.21174 0.78896
 C1182 C 0.57732 0.20552 0.77821
 C1183 C 0.56612 0.21121 0.77237
 C1184 C 0.56073 0.22317 0.77725
 C1185 C 0.56704 0.22944 0.78794
 C1186 C 0.57837 0.22385 0.79366
 C1187 C 0.54844 0.22890 0.77137
 C1188 C 0.54656 0.24279 0.77062
 C1189 C 0.53490 0.24808 0.76528
 C1190 C 0.52502 0.23961 0.76030
 C1191 C 0.52686 0.22576 0.76105
 C1192 C 0.53839 0.22047 0.76659
 H1193 H 0.59027 0.21177 0.81518
 H1194 H 0.60952 0.20153 0.82559
 H1195 H 0.62255 0.18677 0.78779
 H1196 H 0.60367 0.19752 0.77723
 H1197 H 0.58091 0.19611 0.77441
 H1198 H 0.56171 0.20621 0.76400
 H1199 H 0.56311 0.23857 0.79209
 H1200 H 0.58304 0.22907 0.80175
 H1201 H 0.55413 0.24961 0.77405
 H1202 H 0.53361 0.25880 0.76501
 H1203 H 0.51935 0.21902 0.75733
 H1204 H 0.53931 0.20974 0.76726
 C1205 C 1.09625 0.70616 0.79501
 C1206 C 1.09856 0.70721 0.80865
 C1207 C 1.10994 0.70167 0.81431
 C1208 C 1.11918 0.69478 0.80651
 C1209 C 1.11686 0.69361 0.79292
 C1210 C 1.10559 0.69933 0.78721
 C1211 C 1.08412 0.71211 0.78897
 C1212 C 1.07777 0.70583 0.77831
 C1213 C 1.06638 0.71136 0.77268
 C1214 C 1.06088 0.72323 0.77768
 C1215 C 1.06723 0.72951 0.78835
 C1216 C 1.07874 0.72407 0.79385
 C1217 C 1.04852 0.72892 0.77189
 C1218 C 1.04657 0.74281 0.77123
 C1219 C 1.03489 0.74809 0.76593
 C1220 C 1.02504 0.73962 0.76088
 C1221 C 1.02693 0.72577 0.76156
 C1222 C 1.03849 0.72048 0.76705
 H1223 H 1.09148 0.71213 0.81502
 H1224 H 1.11136 0.70258 0.82484
 H1225 H 1.12389 0.68848 0.78663
 H1226 H 1.10431 0.69854 0.77665
 H1227 H 1.08148 0.69651 0.77438
 H1228 H 1.06192 0.70634 0.76434
 H1229 H 1.06323 0.73855 0.79260
 H1230 H 1.08346 0.72933 0.80190
 H1231 H 1.05411 0.74964 0.77469
 H1232 H 1.03356 0.75880 0.76574
 H1233 H 1.01945 0.71903 0.75779
 H1234 H 1.03947 0.70975 0.76764
 C1235 C 1.09543 0.20567 0.29532
 C1236 C 1.09743 0.20648 0.30903
 C1237 C 1.10861 0.20073 0.31486
 C1238 C 1.11798 0.19389 0.30717
 C1239 C 1.11598 0.19297 0.29351
 C1240 C 1.10488 0.19887 0.28764
 C1241 C 1.08351 0.21181 0.28911
 C1242 C 1.07726 0.20567 0.27832
 C1243 C 1.06598 0.21134 0.27259
 C1244 C 1.06053 0.22321 0.27761
 C1245 C 1.06681 0.22939 0.28837
 C1246 C 1.07819 0.22381 0.29399
 C1247 C 1.04823 0.22898 0.27178
 C1248 C 1.04638 0.24288 0.27107
 C1249 C 1.03473 0.24822 0.26576
 C1250 C 1.02481 0.23979 0.26076
 C1251 C 1.02662 0.22594 0.26149
 C1252 C 1.03815 0.22059 0.26698
 H1253 H 1.09024 0.21138 0.31531
 H1254 H 1.10979 0.20147 0.32544
 H1255 H 1.12311 0.18791 0.28729
 H1256 H 1.10383 0.19825 0.27704
 H1257 H 1.08094 0.19634 0.27439
 H1258 H 1.06157 0.20640 0.26418
 H1259 H 1.06283 0.23844 0.29261
 H1260 H 1.08285 0.22896 0.30214
 H1261 H 1.05397 0.24966 0.27452
 H1262 H 1.03348 0.25894 0.26552
 H1263 H 1.01908 0.21923 0.25777
 H1264 H 1.03905 0.20986 0.26762
 C1265 C 0.59644 0.29338 0.70468
 C1266 C 0.60572 0.30029 0.71248
 C1267 C 0.61702 0.30598 0.70680
 C1268 C 0.61943 0.30471 0.69324
 C1269 C 0.61028 0.29772 0.68544
 C1270 C 0.59887 0.29221 0.69106
 C1271 C 0.58427 0.28751 0.71068
 C1272 C 0.57890 0.27552 0.70586
 C1273 C 0.56734 0.27017 0.71133
 C1274 C 0.56091 0.27656 0.72189
 C1275 C 0.56639 0.28845 0.72683
 C1276 C 0.57784 0.29390 0.72124
 C1277 C 0.54851 0.27094 0.72766
 C1278 C 0.53847 0.27944 0.73239
 C1279 C 0.52689 0.27423 0.73792
 C1280 C 0.52499 0.26039 0.73874
 C1281 C 0.53484 0.25186 0.73376
 C1282 C 0.54653 0.25706 0.72843
 H1283 H 0.60435 0.30117 0.72302
 H1284 H 0.62398 0.31117 0.71309
 H1285 H 0.61178 0.29673 0.67492
 H1286 H 0.59184 0.28723 0.68468
 H1287 H 0.58367 0.27018 0.69789
 H1288 H 0.56335 0.26110 0.70712
 H1289 H 0.56189 0.29356 0.73509
 H1290 H 0.58153 0.30324 0.72511
 H1291 H 0.53946 0.29016 0.73170
 H1292 H 0.51941 0.28102 0.74162
 H1293 H 0.53350 0.24115 0.73404
 H1294 H 0.55407 0.25019 0.72504
 C1295 C 0.59590 0.79460 0.20486
 C1296 C 0.59787 0.79386 0.19115
 C1297 C 0.60907 0.79956 0.18532
 C1298 C 0.61849 0.80630 0.19303
 C1299 C 0.61652 0.80716 0.20670
 C1300 C 0.60541 0.80130 0.21256
 C1301 C 0.58396 0.78851 0.21107
 C1302 C 0.57776 0.79463 0.22192
 C1303 C 0.56647 0.78900 0.22764
 C1304 C 0.56093 0.77721 0.22256
 C1305 C 0.56715 0.77106 0.21174
 C1306 C 0.57855 0.77659 0.20613
 C1307 C 0.54861 0.77148 0.22839
 C1308 C 0.54666 0.75759 0.22897
 C1309 C 0.53499 0.75229 0.23426
 C1310 C 0.52514 0.76075 0.23936
 C1311 C 0.52704 0.77460 0.23878
 C1312 C 0.53860 0.77991 0.23330
 H1313 H 0.59064 0.78905 0.18486
 H1314 H 0.61023 0.79888 0.17474
 H1315 H 0.62369 0.81215 0.21292
 H1316 H 0.60438 0.80187 0.22317
 H1317 H 0.58151 0.80390 0.22590
 H1318 H 0.56211 0.79392 0.23610
 H1319 H 0.56310 0.76206 0.20744
 H1320 H 0.58316 0.77146 0.19793
 H1321 H 0.55419 0.75078 0.22543
 H1322 H 0.53365 0.74158 0.23440
 H1323 H 0.51957 0.78133 0.24260
 H1324 H 0.53959 0.79064 0.23278
 C1325 C 1.09570 0.29442 0.20486
 C1326 C 1.09774 0.29354 0.19117
 C1327 C 1.10891 0.29929 0.18533
 C1328 C 1.11823 0.30621 0.19300
 C1329 C 1.11619 0.30720 0.20665
 C1330 C 1.10511 0.30129 0.21253
 C1331 C 1.08377 0.28831 0.21106
 C1332 C 1.07746 0.29453 0.22179
 C1333 C 1.06615 0.28892 0.22749
 C1334 C 1.06070 0.27704 0.22250
 C1335 C 1.06705 0.27078 0.21182
 C1336 C 1.07847 0.27630 0.20623
 C1337 C 1.04835 0.27135 0.22829
 C1338 C 1.04644 0.25746 0.22903
 C1339 C 1.03475 0.25220 0.23432
 C1340 C 1.02486 0.26069 0.23928
 C1341 C 1.02671 0.27453 0.23850
 C1342 C 1.03828 0.27980 0.23302
 H1343 H 1.09059 0.28859 0.18489
 H1344 H 1.11012 0.29850 0.17475
 H1345 H 1.12328 0.31233 0.21285
 H1346 H 1.10402 0.30197 0.22312
 H1347 H 1.08113 0.30387 0.22569
 H1348 H 1.06170 0.29391 0.23586
 H1349 H 1.06307 0.26171 0.20760
 H1350 H 1.08317 0.27109 0.19814
 H1351 H 1.05402 0.25063 0.22563
 H1352 H 1.03346 0.24148 0.23459
 H1353 H 1.01919 0.28129 0.24219
 H1354 H 1.03922 0.29053 0.23234
 C1355 C 1.09580 0.79450 0.70500
 C1356 C 1.10529 0.80125 0.71267
 C1357 C 1.11637 0.80714 0.70679
 C1358 C 1.11833 0.80626 0.69311
 C1359 C 1.10893 0.79947 0.68543
 C1360 C 1.09775 0.79374 0.69129
 C1361 C 1.08388 0.78838 0.71122
 C1362 C 1.07851 0.77643 0.70630
 C1363 C 1.06711 0.77088 0.71192
 C1364 C 1.06087 0.77704 0.72272
 C1365 C 1.06639 0.78885 0.72779
 C1366 C 1.07767 0.79449 0.72206
 C1367 C 1.04855 0.77131 0.72853
 C1368 C 1.03852 0.77974 0.73342
 C1369 C 1.02696 0.77443 0.73889
 C1370 C 1.02507 0.76058 0.73950
 C1371 C 1.03492 0.75213 0.73441
 C1372 C 1.04660 0.75742 0.72913
 H1373 H 1.10427 0.80183 0.72328
 H1374 H 1.12353 0.81217 0.71299
 H1375 H 1.11007 0.79877 0.67485
 H1376 H 1.09054 0.78889 0.68501
 H1377 H 1.08313 0.77130 0.69812
 H1378 H 1.06308 0.76187 0.70763
 H1379 H 1.06201 0.79377 0.73624
 H1380 H 1.08140 0.80378 0.72603
 H1381 H 1.03950 0.79047 0.73288
 H1382 H 1.01947 0.78116 0.74269
 H1383 H 1.03359 0.74141 0.73457
 H1384 H 1.05414 0.75061 0.72561
 C1385 C 0.40447 0.70418 0.70684
 C1386 C 0.40248 0.69033 0.70676
 C1387 C 0.39121 0.68489 0.70083
 C1388 C 0.38187 0.69319 0.69463
 C1389 C 0.38392 0.70704 0.69464
 C1390 C 0.39506 0.71250 0.70082
 C1391 C 0.41648 0.70991 0.71297
 C1392 C 0.41544 0.72031 0.72218
 C1393 C 0.42684 0.72579 0.72786
 C1394 C 0.43945 0.72113 0.72421
 C1395 C 0.44048 0.71075 0.71498
 C1396 C 0.42909 0.70509 0.70951
 C1397 C 0.45154 0.72727 0.72974
 C1398 C 0.46153 0.73194 0.72130
 C1399 C 0.47295 0.73784 0.72643
 C1400 C 0.47469 0.73901 0.74012
 C1401 C 0.46479 0.73409 0.74859
 C1402 C 0.45321 0.72845 0.74343
 H1403 H 0.40961 0.68374 0.71138
 H1404 H 0.38992 0.67417 0.70089
 H1405 H 0.37683 0.71367 0.69001
 H1406 H 0.39645 0.72321 0.70070
 H1407 H 0.40580 0.72413 0.72502
 H1408 H 0.42585 0.73384 0.73491
 H1409 H 0.45012 0.70699 0.71207
 H1410 H 0.43011 0.69712 0.70238
 H1411 H 0.46039 0.73119 0.71071
 H1412 H 0.48042 0.74156 0.71970
 H1413 H 0.46603 0.73460 0.75917
 H1414 H 0.44566 0.72480 0.75011
 C1415 C 0.40440 0.20509 0.20606
 C1416 C 0.40188 0.19132 0.20710
 C1417 C 0.39063 0.18570 0.20127
 C1418 C 0.38175 0.19367 0.19409
 C1419 C 0.38423 0.20739 0.19301
 C1420 C 0.39535 0.21306 0.19902
 C1421 C 0.41647 0.21108 0.21213
 C1422 C 0.42305 0.22176 0.20595
 C1423 C 0.43439 0.22737 0.21155
 C1424 C 0.43966 0.22233 0.22339
 C1425 C 0.43309 0.21165 0.22958
 C1426 C 0.42161 0.20616 0.22407
 C1427 C 0.45202 0.22808 0.22909
 C1428 C 0.45385 0.22887 0.24283
 C1429 C 0.46551 0.23425 0.24809
 C1430 C 0.47545 0.23923 0.23974
 C1431 C 0.47369 0.23839 0.22605
 C1432 C 0.46217 0.23281 0.22079
 H1433 H 0.40873 0.18481 0.21221
 H1434 H 0.38904 0.17506 0.20215
 H1435 H 0.37745 0.21382 0.18770
 H1436 H 0.39676 0.22372 0.19824
 H1437 H 0.41955 0.22570 0.19664
 H1438 H 0.43900 0.23573 0.20660
 H1439 H 0.43691 0.20737 0.23861
 H1440 H 0.41672 0.19810 0.22924
 H1441 H 0.44622 0.22547 0.24955
 H1442 H 0.46674 0.23456 0.25869
 H1443 H 0.48124 0.24210 0.21940
 H1444 H 0.46130 0.23209 0.21018
 C1445 C -0.09573 0.70513 0.20651
 C1446 C -0.09808 0.69133 0.20739
 C1447 C -0.10929 0.68564 0.20154
 C1448 C -0.11830 0.69360 0.19450
 C1449 C -0.11600 0.70737 0.19359
 C1450 C -0.10491 0.71308 0.19962
 C1451 C -0.08368 0.71119 0.21255
 C1452 C -0.07723 0.72196 0.20642
 C1453 C -0.06588 0.72760 0.21199
 C1454 C -0.06049 0.72248 0.22374
 C1455 C -0.06694 0.71172 0.22989
 C1456 C -0.07843 0.70620 0.22442
 C1457 C -0.04812 0.72826 0.22940
 C1458 C -0.04622 0.72899 0.24313
 C1459 C -0.03456 0.73439 0.24835
 C1460 C -0.02469 0.73947 0.23997
 C1461 C -0.02652 0.73867 0.22628
 C1462 C -0.03805 0.73307 0.22106
 H1463 H -0.09112 0.68484 0.21238
 H1464 H -0.11073 0.67497 0.20228
 H1465 H -0.12287 0.71378 0.18839
 H1466 H -0.10363 0.72378 0.19896
 H1467 H -0.08083 0.72597 0.19718
 H1468 H -0.06136 0.73603 0.20707
 H1469 H -0.06302 0.70739 0.23886
 H1470 H -0.08321 0.69805 0.22955
 H1471 H -0.05379 0.72552 0.24987
 H1472 H -0.03327 0.73467 0.25894
 H1473 H -0.01902 0.74245 0.21961
 H1474 H -0.03897 0.73240 0.21045
 C1475 C -0.09586 0.20519 0.70585
 C1476 C -0.10517 0.21317 0.69915
 C1477 C -0.11632 0.20746 0.69322
 C1478 C -0.11853 0.19366 0.69400
 C1479 C -0.10934 0.18568 0.70079
 C1480 C -0.09810 0.19136 0.70657
 C1481 C -0.08382 0.21124 0.71190
 C1482 C -0.07854 0.20616 0.72372
 C1483 C -0.06706 0.21165 0.72922
 C1484 C -0.06065 0.22248 0.72314
 C1485 C -0.06605 0.22769 0.71144
 C1486 C -0.07741 0.22208 0.70585
 C1487 C -0.04829 0.22822 0.72885
 C1488 C -0.03818 0.23304 0.72055
 C1489 C -0.02662 0.23853 0.72583
 C1490 C -0.02481 0.23923 0.73952
 C1491 C -0.03474 0.23419 0.74786
 C1492 C -0.04641 0.22888 0.74259
 H1493 H -0.10395 0.22388 0.69861
 H1494 H -0.12331 0.21389 0.68821
 H1495 H -0.11069 0.17499 0.70143
 H1496 H -0.09103 0.18486 0.71140
 H1497 H -0.08330 0.19795 0.72878
 H1498 H -0.06312 0.20725 0.73814
 H1499 H -0.06154 0.23616 0.70658
 H1500 H -0.08105 0.22615 0.69665
 H1501 H -0.03909 0.23243 0.70994
 H1502 H -0.01908 0.24229 0.71919
 H1503 H -0.03347 0.23441 0.75845
 H1504 H -0.05402 0.22542 0.74929
 C1505 C 0.29382 0.40463 0.29491
 C1506 C 0.29292 0.40247 0.30859
 C1507 C 0.29866 0.39120 0.31436
 C1508 C 0.30561 0.38194 0.30662
 C1509 C 0.30660 0.38408 0.29299
 C1510 C 0.30068 0.39523 0.28718
 C1511 C 0.28776 0.41667 0.28875
 C1512 C 0.29390 0.42296 0.27798
 C1513 C 0.28829 0.43430 0.27225
 C1514 C 0.27649 0.43980 0.27726
 C1515 C 0.27032 0.43350 0.28802
 C1516 C 0.27583 0.42203 0.29363
 C1517 C 0.27078 0.45216 0.27141
 C1518 C 0.25695 0.45407 0.27073
 C1519 C 0.25167 0.46577 0.26535
 C1520 C 0.26008 0.47567 0.26027
 C1521 C 0.27386 0.47381 0.26098
 C1522 C 0.27915 0.46225 0.26653
 H1523 H 0.28797 0.40961 0.31491
 H1524 H 0.29787 0.38988 0.32492
 H1525 H 0.31175 0.37701 0.28675
 H1526 H 0.30136 0.39638 0.27659
 H1527 H 0.30318 0.41926 0.27404
 H1528 H 0.29322 0.43872 0.26383
 H1529 H 0.26132 0.43752 0.29227
 H1530 H 0.27069 0.41735 0.30177
 H1531 H 0.25018 0.44649 0.27424
 H1532 H 0.24101 0.46707 0.26513
 H1533 H 0.28056 0.48134 0.25719
 H1534 H 0.28983 0.46130 0.26715
 C1535 C 0.29458 -0.09513 0.79571
 C1536 C 0.29167 -0.09848 0.80886
 C1537 C 0.29754 -0.10957 0.81483
 C1538 C 0.30682 -0.11745 0.80796
 C1539 C 0.30983 -0.11399 0.79484
 C1540 C 0.30366 -0.10314 0.78876
 C1541 C 0.28833 -0.08326 0.78934
 C1542 C 0.29520 -0.07594 0.77967
 C1543 C 0.28944 -0.06476 0.77380
 C1544 C 0.27679 -0.06029 0.77766
 C1545 C 0.26990 -0.06761 0.78732
 C1546 C 0.27552 -0.07902 0.79295
 C1547 C 0.27096 -0.04795 0.77182
 C1548 C 0.25714 -0.04648 0.77034
 C1549 C 0.25176 -0.03479 0.76505
 C1550 C 0.26009 -0.02448 0.76067
 C1551 C 0.27386 -0.02590 0.76213
 C1552 C 0.27922 -0.03740 0.76776
 H1553 H 0.28501 -0.09242 0.81470
 H1554 H 0.29504 -0.11163 0.82500
 H1555 H 0.31669 -0.11984 0.78903
 H1556 H 0.30594 -0.10117 0.77853
 H1557 H 0.30514 -0.07868 0.77673
 H1558 H 0.29498 -0.05965 0.76618
 H1559 H 0.26023 -0.06446 0.79073
 H1560 H 0.26976 -0.08450 0.80013
 H1561 H 0.25041 -0.05439 0.77317
 H1562 H 0.24109 -0.03383 0.76433
 H1563 H 0.28052 -0.01807 0.75892
 H1564 H 0.28986 -0.03789 0.76905
 C1565 C 0.79396 0.40430 0.79510
 C1566 C 0.79133 0.40094 0.80831
 C1567 C 0.79698 0.38959 0.81402
 C1568 C 0.80574 0.38142 0.80680
 C1569 C 0.80847 0.38489 0.79362
 C1570 C 0.80253 0.39602 0.78782
 C1571 C 0.78791 0.41641 0.78898
 C1572 C 0.79471 0.42357 0.77915
 C1573 C 0.78907 0.43487 0.77338
 C1574 C 0.77660 0.43961 0.77751
 C1575 C 0.76981 0.43249 0.78738
 C1576 C 0.77532 0.42098 0.79292
 C1577 C 0.77082 0.45198 0.77165
 C1578 C 0.75699 0.45359 0.77040
 C1579 C 0.75166 0.46529 0.76509
 C1580 C 0.76002 0.47548 0.76048
 C1581 C 0.77380 0.47390 0.76171
 C1582 C 0.77913 0.46238 0.76733
 H1583 H 0.78507 0.40719 0.81438
 H1584 H 0.79471 0.38752 0.82423
 H1585 H 0.81491 0.37884 0.78755
 H1586 H 0.80456 0.39800 0.77754
 H1587 H 0.80452 0.42057 0.77596
 H1588 H 0.79453 0.43984 0.76563
 H1589 H 0.76029 0.43587 0.79100
 H1590 H 0.76961 0.41565 0.80026
 H1591 H 0.75024 0.44579 0.77342
 H1592 H 0.74098 0.46636 0.76454
 H1593 H 0.78048 0.48163 0.75830
 H1594 H 0.78979 0.46176 0.76841
 C1595 C 0.79433 -0.09557 0.29547
 C1596 C 0.79175 -0.09875 0.30873
 C1597 C 0.79756 -0.10992 0.31462
 C1598 C 0.80642 -0.11808 0.30753
 C1599 C 0.80908 -0.11481 0.29429
 C1600 C 0.80299 -0.10385 0.28832
 C1601 C 0.78817 -0.08361 0.28920
 C1602 C 0.79495 -0.07647 0.27935
 C1603 C 0.78927 -0.06521 0.27353
 C1604 C 0.77678 -0.06050 0.27763
 C1605 C 0.76999 -0.06764 0.28749
 C1606 C 0.77553 -0.07910 0.29308
 C1607 C 0.77102 -0.04811 0.27181
 C1608 C 0.75719 -0.04649 0.27053
 C1609 C 0.75188 -0.03476 0.26524
 C1610 C 0.76027 -0.02457 0.26069
 C1611 C 0.77404 -0.02616 0.26195
 C1612 C 0.77935 -0.03770 0.26755
 H1613 H 0.78541 -0.09248 0.31471
 H1614 H 0.79533 -0.11184 0.32487
 H1615 H 0.81561 -0.12086 0.28831
 H1616 H 0.80499 -0.10200 0.27800
 H1617 H 0.80478 -0.07942 0.27620
 H1618 H 0.79473 -0.06023 0.26578
 H1619 H 0.76044 -0.06429 0.29108
 H1620 H 0.76984 -0.08443 0.30042
 H1621 H 0.75042 -0.05430 0.27351
 H1622 H 0.74121 -0.03368 0.26465
 H1623 H 0.78074 -0.01842 0.25859
 H1624 H 0.79000 -0.03833 0.26866
 C1625 C 0.29430 0.59544 0.70420
 C1626 C 0.30143 0.60466 0.71188
 C1627 C 0.30740 0.61577 0.70607
 C1628 C 0.30616 0.61807 0.69248
 C1629 C 0.29891 0.60901 0.68480
 C1630 C 0.29314 0.59776 0.69057
 C1631 C 0.28822 0.58341 0.71036
 C1632 C 0.27618 0.57818 0.70562
 C1633 C 0.27066 0.56672 0.71124
 C1634 C 0.27692 0.56029 0.72187
 C1635 C 0.28884 0.56565 0.72675
 C1636 C 0.29447 0.57697 0.72100
 C1637 C 0.27117 0.54796 0.72775
 C1638 C 0.27952 0.53781 0.73256
 C1639 C 0.27420 0.52628 0.73816
 C1640 C 0.26041 0.52451 0.73897
 C1641 C 0.25203 0.53447 0.73394
 C1642 C 0.25734 0.54614 0.72854
 H1643 H 0.30230 0.60340 0.72244
 H1644 H 0.31278 0.62269 0.71226
 H1645 H 0.29792 0.61046 0.67427
 H1646 H 0.28797 0.59077 0.68427
 H1647 H 0.27095 0.58297 0.69760
 H1648 H 0.26157 0.56282 0.70709
 H1649 H 0.29384 0.56115 0.73507
 H1650 H 0.30384 0.58055 0.72482
 H1651 H 0.29020 0.53867 0.73186
 H1652 H 0.28088 0.51871 0.74190
 H1653 H 0.24136 0.53324 0.73421
 H1654 H 0.25059 0.55377 0.72509
 C1655 C 0.29387 1.09590 0.20460
 C1656 C 0.30089 1.10520 0.21230
 C1657 C 0.30684 1.11632 0.20648
 C1658 C 0.30574 1.11854 0.19287
 C1659 C 0.29861 1.10940 0.18517
 C1660 C 0.29283 1.09815 0.19094
 C1661 C 0.28780 1.08387 0.21076
 C1662 C 0.27579 1.07861 0.20599
 C1663 C 0.27028 1.06714 0.21161
 C1664 C 0.27654 1.06073 0.22225
 C1665 C 0.28844 1.06612 0.22714
 C1666 C 0.29405 1.07745 0.22141
 C1667 C 0.27083 1.04837 0.22811
 C1668 C 0.27920 1.03820 0.23282
 C1669 C 0.27392 1.02665 0.23841
 C1670 C 0.26014 1.02489 0.23931
 C1671 C 0.25172 1.03487 0.23438
 C1672 C 0.25700 1.04655 0.22897
 H1673 H 0.30167 1.10399 0.22287
 H1674 H 0.31211 1.12331 0.21270
 H1675 H 0.29771 1.11078 0.17462
 H1676 H 0.28775 1.09110 0.18464
 H1677 H 0.27057 1.08337 0.19795
 H1678 H 0.26120 1.06321 0.20745
 H1679 H 0.29345 1.06161 0.23547
 H1680 H 0.30340 1.08107 0.22524
 H1681 H 0.28988 1.03907 0.23206
 H1682 H 0.28062 1.01906 0.24208
 H1683 H 0.24106 1.03364 0.23474
 H1684 H 0.25023 1.05420 0.22559
 C1685 C 0.79385 0.59578 0.20476
 C1686 C 0.80101 0.60498 0.21245
 C1687 C 0.80699 0.61609 0.20664
 C1688 C 0.80575 0.61841 0.19305
 C1689 C 0.79846 0.60937 0.18537
 C1690 C 0.79268 0.59813 0.19114
 C1691 C 0.78780 0.58372 0.21089
 C1692 C 0.77575 0.57850 0.20617
 C1693 C 0.77029 0.56698 0.21172
 C1694 C 0.77662 0.56047 0.22227
 C1695 C 0.78854 0.56584 0.22714
 C1696 C 0.79411 0.57723 0.22146
 C1697 C 0.77097 0.54805 0.22805
 C1698 C 0.77939 0.53788 0.23270
 C1699 C 0.77416 0.52628 0.23823
 C1700 C 0.76038 0.52446 0.23913
 C1701 C 0.75192 0.53442 0.23423
 C1702 C 0.75715 0.54616 0.22890
 H1703 H 0.80189 0.60369 0.22301
 H1704 H 0.81239 0.62300 0.21284
 H1705 H 0.79747 0.61083 0.17485
 H1706 H 0.78748 0.59116 0.18484
 H1707 H 0.77048 0.58333 0.19820
 H1708 H 0.76119 0.56307 0.20758
 H1709 H 0.79360 0.56129 0.23540
 H1710 H 0.80348 0.58081 0.22527
 H1711 H 0.79006 0.53880 0.23193
 H1712 H 0.78089 0.51870 0.24187
 H1713 H 0.74126 0.53314 0.23459
 H1714 H 0.75034 0.55379 0.22557
 C1715 C 0.79500 1.09514 0.70627
 C1716 C 0.78719 1.10441 0.69931
 C1717 C 0.79302 1.11541 0.69316
 C1718 C 0.80676 1.11754 0.69400
 C1719 C 0.81456 1.10843 0.70109
 C1720 C 0.80877 1.09731 0.70707
 C1721 C 0.78883 1.08318 0.71245
 C1722 C 0.79376 1.07795 0.72435
 C1723 C 0.78816 1.06652 0.72994
 C1724 C 0.77737 1.06010 0.72386
 C1725 C 0.77230 1.06547 0.71209
 C1726 C 0.77802 1.07677 0.70641
 C1727 C 0.77156 1.04773 0.72960
 C1728 C 0.76673 1.03759 0.72131
 C1729 C 0.76115 1.02604 0.72660
 C1730 C 0.76039 1.02425 0.74029
 C1731 C 0.76546 1.03419 0.74862
 C1732 C 0.77085 1.04588 0.74334
 H1733 H 0.77653 1.10327 0.69871
 H1734 H 0.78672 1.12237 0.68793
 H1735 H 0.82520 1.10975 0.70179
 H1736 H 0.81514 1.09027 0.71211
 H1737 H 0.80193 1.08272 0.72941
 H1738 H 0.79245 1.06260 0.73892
 H1739 H 0.76386 1.06097 0.70723
 H1740 H 0.77406 1.08035 0.69714
 H1741 H 0.76738 1.03848 0.71070
 H1742 H 0.75736 1.01848 0.71996
 H1743 H 0.76518 1.03294 0.75922
 H1744 H 0.77433 1.05351 0.75004
 C1745 C 0.70591 0.59561 0.29507
 C1746 C 0.69905 0.60503 0.28737
 C1747 C 0.69313 0.61617 0.29321
 C1748 C 0.69408 0.61826 0.30686
 C1749 C 0.70101 0.60893 0.31456
 C1750 C 0.70677 0.59770 0.30876
 C1751 C 0.71202 0.58360 0.28890
 C1752 C 0.72399 0.57831 0.29375
 C1753 C 0.72951 0.56682 0.28819
 C1754 C 0.72330 0.56042 0.27751
 C1755 C 0.71146 0.56587 0.27251
 C1756 C 0.70585 0.57724 0.27819
 C1757 C 0.72901 0.54802 0.27173
 C1758 C 0.72063 0.53786 0.26703
 C1759 C 0.72592 0.52626 0.26154
 C1760 C 0.73970 0.52445 0.26073
 C1761 C 0.74812 0.53442 0.26566
 C1762 C 0.74284 0.54615 0.27097
 H1763 H 0.69839 0.60391 0.27678
 H1764 H 0.68801 0.62327 0.28698
 H1765 H 0.70177 0.61017 0.32513
 H1766 H 0.71172 0.59054 0.31505
 H1767 H 0.72915 0.58305 0.30184
 H1768 H 0.73854 0.56286 0.29241
 H1769 H 0.70650 0.56137 0.26416
 H1770 H 0.69654 0.58090 0.27428
 H1771 H 0.70996 0.53878 0.26772
 H1772 H 0.71922 0.51867 0.25787
 H1773 H 0.75878 0.53316 0.26537
 H1774 H 0.74961 0.55379 0.27435
 C1775 C 0.70527 1.09642 0.79412
 C1776 C 0.71284 1.10475 0.80235
 C1777 C 0.70721 1.11601 0.80823
 C1778 C 0.69389 1.11950 0.80580
 C1779 C 0.68639 1.11127 0.79736
 C1780 C 0.69195 1.09984 0.79175
 C1781 C 0.71118 1.08417 0.78817
 C1782 C 0.70698 1.07954 0.77576
 C1783 C 0.71225 1.06786 0.77037
 C1784 C 0.72211 1.06061 0.77709
 C1785 C 0.72649 1.06539 0.78938
 C1786 C 0.72100 1.07689 0.79490
 C1787 C 0.72770 1.04807 0.77142
 C1788 C 0.73189 1.03764 0.77972
 C1789 C 0.73736 1.02601 0.77448
 C1790 C 0.73856 1.02436 0.76079
 C1791 C 0.73402 1.03455 0.75244
 C1792 C 0.72885 1.04635 0.75768
 H1793 H 0.72321 1.10268 0.80419
 H1794 H 0.71348 1.12208 0.81444
 H1795 H 0.67607 1.11335 0.79531
 H1796 H 0.68567 1.09355 0.78574
 H1797 H 0.69962 1.08495 0.77012
 H1798 H 0.70843 1.06445 0.76100
 H1799 H 0.73424 1.06030 0.79478
 H1800 H 0.72437 1.07995 0.80456
 H1801 H 0.73085 1.03836 0.79031
 H1802 H 0.74070 1.01827 0.78115
 H1803 H 0.73455 1.03342 0.74184
 H1804 H 0.72591 1.05416 0.75093
 C1805 C 0.20583 0.59567 0.79492
 C1806 C 0.20650 0.59760 0.80864
 C1807 C 0.20075 0.60882 0.81448
 C1808 C 0.19403 0.61828 0.80678
 C1809 C 0.19325 0.61635 0.79310
 C1810 C 0.19916 0.60523 0.78722
 C1811 C 0.21194 0.58369 0.78871
 C1812 C 0.20588 0.57748 0.77785
 C1813 C 0.21150 0.56615 0.77213
 C1814 C 0.22324 0.56058 0.77722
 C1815 C 0.22934 0.56682 0.78805
 C1816 C 0.22381 0.57827 0.79367
 C1817 C 0.22894 0.54821 0.77140
 C1818 C 0.24276 0.54625 0.77078
 C1819 C 0.24803 0.53452 0.76547
 C1820 C 0.23960 0.52462 0.76041
 C1821 C 0.22583 0.52653 0.76105
 C1822 C 0.22055 0.53814 0.76653
 H1823 H 0.21130 0.59033 0.81493
 H1824 H 0.20137 0.60994 0.82507
 H1825 H 0.18827 0.62356 0.78688
 H1826 H 0.19865 0.60423 0.77661
 H1827 H 0.19665 0.58125 0.77386
 H1828 H 0.20663 0.56177 0.76366
 H1829 H 0.23829 0.56275 0.79235
 H1830 H 0.22889 0.58289 0.80188
 H1831 H 0.24954 0.55383 0.77429
 H1832 H 0.25869 0.53318 0.76530
 H1833 H 0.21913 0.51901 0.75726
 H1834 H 0.20987 0.53913 0.76709
 C1835 C 0.20672 1.09682 0.29502
 C1836 C 0.19967 1.10605 0.28725
 C1837 C 0.19393 1.11735 0.29295
 C1838 C 0.19527 1.11982 0.30650
 C1839 C 0.20242 1.11072 0.31426
 C1840 C 0.20799 1.09931 0.30861
 C1841 C 0.21260 1.08461 0.28900
 C1842 C 0.22463 1.07931 0.29372
 C1843 C 0.22997 1.06769 0.28826
 C1844 C 0.22354 1.06115 0.27780
 C1845 C 0.21162 1.06657 0.27295
 C1846 C 0.20618 1.07806 0.27854
 C1847 C 0.22911 1.04866 0.27207
 C1848 C 0.22064 1.03851 0.26752
 C1849 C 0.22581 1.02686 0.26200
 C1850 C 0.23957 1.02499 0.26102
 C1851 C 0.24808 1.03494 0.26583
 C1852 C 0.24292 1.04672 0.27114
 H1853 H 0.19871 1.10465 0.27672
 H1854 H 0.18861 1.12428 0.28669
 H1855 H 0.20348 1.11226 0.32476
 H1856 H 0.21309 1.09232 0.31497
 H1857 H 0.22999 1.08418 0.30161
 H1858 H 0.23906 1.06375 0.29239
 H1859 H 0.20648 1.06197 0.26477
 H1860 H 0.19682 1.08170 0.27475
 H1861 H 0.20997 1.03946 0.26835
 H1862 H 0.21903 1.01929 0.25845
 H1863 H 0.25874 1.03363 0.26541
 H1864 H 0.24977 1.05434 0.27439
 C1865 C 0.70526 0.40458 0.70442
 C1866 C 0.70587 0.40268 0.69070
 C1867 C 0.70011 0.39146 0.68487
 C1868 C 0.69343 0.38198 0.69260
 C1869 C 0.69269 0.38390 0.70628
 C1870 C 0.69862 0.39502 0.71214
 C1871 C 0.71142 0.41654 0.71062
 C1872 C 0.70542 0.42274 0.72153
 C1873 C 0.71109 0.43406 0.72724
 C1874 C 0.72281 0.43961 0.72209
 C1875 C 0.72885 0.43336 0.71123
 C1876 C 0.72328 0.42194 0.70562
 C1877 C 0.72854 0.45198 0.72789
 C1878 C 0.74237 0.45391 0.72847
 C1879 C 0.74766 0.46562 0.73379
 C1880 C 0.73925 0.47551 0.73891
 C1881 C 0.72547 0.47364 0.73829
 C1882 C 0.72017 0.46205 0.73280
 H1883 H 0.71064 0.40995 0.68440
 H1884 H 0.70070 0.39035 0.67428
 H1885 H 0.68776 0.37668 0.71252
 H1886 H 0.69815 0.39601 0.72275
 H1887 H 0.69621 0.41899 0.72556
 H1888 H 0.70626 0.43843 0.73573
 H1889 H 0.73779 0.43742 0.70689
 H1890 H 0.72831 0.41731 0.69738
 H1891 H 0.74913 0.44633 0.72492
 H1892 H 0.75832 0.46693 0.73397
 H1893 H 0.71878 0.48116 0.74211
 H1894 H 0.70949 0.46108 0.73225
 C1895 C 0.70641 -0.09596 0.20474
 C1896 C 0.69960 -0.10534 0.21254
 C1897 C 0.69385 -0.11662 0.20683
 C1898 C 0.69495 -0.11891 0.19323
 C1899 C 0.70183 -0.10965 0.18542
 C1900 C 0.70740 -0.09825 0.19109
 C1901 C 0.71235 -0.08381 0.21078
 C1902 C 0.72427 -0.07843 0.20590
 C1903 C 0.72969 -0.06688 0.21141
 C1904 C 0.72344 -0.06049 0.22208
 C1905 C 0.71163 -0.06599 0.22708
 C1906 C 0.70611 -0.07742 0.22145
 C1907 C 0.72909 -0.04807 0.22787
 C1908 C 0.72066 -0.03798 0.23266
 C1909 C 0.72589 -0.02639 0.23820
 C1910 C 0.73966 -0.02451 0.23898
 C1911 C 0.74813 -0.03440 0.23395
 C1912 C 0.74291 -0.04612 0.22860
 H1913 H 0.69885 -0.10407 0.22310
 H1914 H 0.68874 -0.12367 0.21311
 H1915 H 0.70269 -0.11106 0.17488
 H1916 H 0.71230 -0.09114 0.18471
 H1917 H 0.72948 -0.08317 0.19784
 H1918 H 0.73870 -0.06287 0.20717
 H1919 H 0.70663 -0.06151 0.23542
 H1920 H 0.69683 -0.08112 0.22537
 H1921 H 0.70999 -0.03895 0.23200
 H1922 H 0.71916 -0.01887 0.24195
 H1923 H 0.75879 -0.03308 0.23424
 H1924 H 0.74972 -0.05371 0.22516
 C1925 C 0.20590 0.40422 0.20468
 C1926 C 0.19907 0.39485 0.21247
 C1927 C 0.19331 0.38357 0.20675
 C1928 C 0.19441 0.38129 0.19314
 C1929 C 0.20130 0.39056 0.18535
 C1930 C 0.20689 0.40194 0.19103
 C1931 C 0.21188 0.41634 0.21074
 C1932 C 0.22381 0.42169 0.20586
 C1933 C 0.22926 0.43322 0.21137
 C1934 C 0.22303 0.43963 0.22204
 C1935 C 0.21120 0.43416 0.22704
 C1936 C 0.20565 0.42274 0.22141
 C1937 C 0.22870 0.45204 0.22781
 C1938 C 0.22031 0.46216 0.23258
 C1939 C 0.22557 0.47377 0.23806
 C1940 C 0.23934 0.47564 0.23879
 C1941 C 0.24778 0.46570 0.23380
 C1942 C 0.24253 0.45396 0.22851
 H1943 H 0.19832 0.39610 0.22303
 H1944 H 0.18819 0.37652 0.21302
 H1945 H 0.20216 0.38916 0.17480
 H1946 H 0.21179 0.40906 0.18466
 H1947 H 0.22901 0.41693 0.19780
 H1948 H 0.23828 0.43721 0.20712
 H1949 H 0.20622 0.43865 0.23538
 H1950 H 0.19636 0.41906 0.22533
 H1951 H 0.20963 0.46121 0.23195
 H1952 H 0.21885 0.48132 0.24179
 H1953 H 0.25844 0.46701 0.23403
 H1954 H 0.24932 0.44636 0.22508
 C1955 C 0.20640 -0.09605 0.70474
 C1956 C 0.20748 -0.09840 0.69111
 C1957 C 0.20186 -0.10977 0.68544
 C1958 C 0.19485 -0.11895 0.69322
 C1959 C 0.19367 -0.11661 0.70681
 C1960 C 0.19947 -0.10535 0.71252
 C1961 C 0.21236 -0.08390 0.71077
 C1962 C 0.22435 -0.07860 0.70596
 C1963 C 0.22977 -0.06703 0.71145
 C1964 C 0.22344 -0.06054 0.72200
 C1965 C 0.21157 -0.06597 0.72695
 C1966 C 0.20606 -0.07742 0.72134
 C1967 C 0.22906 -0.04808 0.72774
 C1968 C 0.22060 -0.03795 0.73237
 C1969 C 0.22579 -0.02633 0.73791
 C1970 C 0.23955 -0.02447 0.73882
 C1971 C 0.24805 -0.03440 0.73392
 C1972 C 0.24287 -0.04615 0.72858
 H1973 H 0.21249 -0.09135 0.68474
 H1974 H 0.20278 -0.11122 0.67491
 H1975 H 0.18847 -0.12360 0.71308
 H1976 H 0.19865 -0.10403 0.72307
 H1977 H 0.22962 -0.08342 0.69798
 H1978 H 0.23883 -0.06308 0.70725
 H1979 H 0.20652 -0.06142 0.73522
 H1980 H 0.19673 -0.08106 0.72521
 H1981 H 0.20993 -0.03890 0.73161
 H1982 H 0.21903 -0.01878 0.74154
 H1983 H 0.25871 -0.03309 0.73431
 H1984 H 0.24970 -0.05377 0.72526
 C1985 C 0.29529 0.29376 0.40447
 C1986 C 0.28740 0.30086 0.39542
 C1987 C 0.29307 0.30681 0.38432
 C1988 C 0.30672 0.30562 0.38186
 C1989 C 0.31460 0.29839 0.39075
 C1990 C 0.30898 0.29262 0.40198
 C1991 C 0.28929 0.28774 0.41651
 C1992 C 0.29410 0.27564 0.42165
 C1993 C 0.28865 0.27018 0.43312
 C1994 C 0.27812 0.27658 0.43966
 C1995 C 0.27317 0.28856 0.43439
 C1996 C 0.27875 0.29412 0.42305
 C1997 C 0.27242 0.27092 0.45201
 C1998 C 0.26791 0.27941 0.46211
 C1999 C 0.26239 0.27419 0.47362
 C2000 C 0.26137 0.26035 0.47540
 C2001 C 0.26614 0.25182 0.46551
 C2002 C 0.27146 0.25704 0.45387
 H2003 H 0.27679 0.30172 0.39683
 H2004 H 0.28671 0.31217 0.37754
 H2005 H 0.32519 0.29743 0.38918
 H2006 H 0.31543 0.28747 0.40883
 H2007 H 0.30206 0.27032 0.41679
 H2008 H 0.29284 0.26103 0.43695
 H2009 H 0.26492 0.29367 0.43899
 H2010 H 0.27488 0.30354 0.41952
 H2011 H 0.26876 0.29013 0.46120
 H2012 H 0.25885 0.28097 0.48114
 H2013 H 0.26567 0.24110 0.46676
 H2014 H 0.27469 0.25018 0.44628
 C2015 C 0.29463 0.79547 -0.09469
 C2016 C 0.29459 0.80934 -0.09654
 C2017 C 0.30024 0.81494 -0.10783
 C2018 C 0.30625 0.80678 -0.11738
 C2019 C 0.30638 0.79291 -0.11548
 C2020 C 0.30050 0.78729 -0.10429
 C2021 C 0.28868 0.78960 -0.08269
 C2022 C 0.27945 0.77915 -0.08364
 C2023 C 0.27378 0.77371 -0.07227
 C2024 C 0.27748 0.77843 -0.05977
 C2025 C 0.28677 0.78881 -0.05883
 C2026 C 0.29223 0.79443 -0.07020
 C2027 C 0.27181 0.77245 -0.04771
 C2028 C 0.28023 0.76786 -0.03767
 C2029 C 0.27495 0.76221 -0.02624
 C2030 C 0.26116 0.76121 -0.02453
 C2031 C 0.25273 0.76606 -0.03449
 C2032 C 0.25802 0.77144 -0.04607
 H2033 H 0.29007 0.81584 -0.08928
 H2034 H 0.30008 0.82567 -0.10898
 H2035 H 0.31087 0.78638 -0.12271
 H2036 H 0.30070 0.77657 -0.10302
 H2037 H 0.27654 0.77533 -0.09319
 H2038 H 0.26667 0.76566 -0.07319
 H2039 H 0.28971 0.79263 -0.04928
 H2040 H 0.29937 0.80244 -0.06924
 H2041 H 0.29090 0.76850 -0.03877
 H2042 H 0.28166 0.75853 -0.01874
 H2043 H 0.24206 0.76570 -0.03329
 H2044 H 0.25136 0.77506 -0.05365
 C2045 C 0.79534 0.29418 -0.09527
 C2046 C 0.80903 0.29293 -0.09774
 C2047 C 0.81474 0.29875 -0.10891
 C2048 C 0.80695 0.30614 -0.11775
 C2049 C 0.79331 0.30746 -0.11530
 C2050 C 0.78755 0.30146 -0.10426
 C2051 C 0.78925 0.28807 -0.08331
 C2052 C 0.77867 0.29442 -0.07679
 C2053 C 0.77301 0.28878 -0.06553
 C2054 C 0.77791 0.27675 -0.06031
 C2055 C 0.78846 0.27038 -0.06684
 C2056 C 0.79399 0.27591 -0.07824
 C2057 C 0.77214 0.27102 -0.04802
 C2058 C 0.77125 0.25712 -0.04620
 C2059 C 0.76590 0.25184 -0.03460
 C2060 C 0.76104 0.26031 -0.02470
 C2061 C 0.76198 0.27416 -0.02645
 C2062 C 0.76753 0.27945 -0.03792
 H2063 H 0.81542 0.28766 -0.09093
 H2064 H 0.82532 0.29769 -0.11048
 H2065 H 0.78702 0.31294 -0.12204
 H2066 H 0.77694 0.30241 -0.10288
 H2067 H 0.77485 0.30387 -0.08025
 H2068 H 0.76474 0.29386 -0.06095
 H2069 H 0.79262 0.26119 -0.06306
 H2070 H 0.80196 0.27060 -0.08310
 H2071 H 0.77454 0.25030 -0.05379
 H2072 H 0.76552 0.24112 -0.03338
 H2073 H 0.75837 0.28091 -0.01892
 H2074 H 0.76833 0.29017 -0.03878
 C2075 C 0.79456 0.79502 0.40529
 C2076 C 0.79407 0.80889 0.40324
 C2077 C 0.79989 0.81460 0.39208
 C2078 C 0.80647 0.80662 0.38278
 C2079 C 0.80704 0.79278 0.38482
 C2080 C 0.80108 0.78704 0.39590
 C2081 C 0.78842 0.78893 0.41723
 C2082 C 0.79439 0.77793 0.42346
 C2083 C 0.78874 0.77231 0.43474
 C2084 C 0.77707 0.77764 0.44023
 C2085 C 0.77107 0.78860 0.43397
 C2086 C 0.77662 0.79412 0.42258
 C2087 C 0.77134 0.77191 0.45253
 C2088 C 0.75752 0.77141 0.45449
 C2089 C 0.75222 0.76612 0.46611
 C2090 C 0.76061 0.76094 0.47591
 C2091 C 0.77439 0.76149 0.47402
 C2092 C 0.77970 0.76695 0.46251
 H2093 H 0.78938 0.81538 0.41038
 H2094 H 0.79941 0.82532 0.39087
 H2095 H 0.81189 0.78634 0.37775
 H2096 H 0.80144 0.77631 0.39699
 H2097 H 0.80356 0.77376 0.41975
 H2098 H 0.79354 0.76374 0.43914
 H2099 H 0.76216 0.79308 0.43797
 H2100 H 0.77162 0.80244 0.41794
 H2101 H 0.75076 0.77499 0.44700
 H2102 H 0.74156 0.76601 0.46744
 H2103 H 0.78107 0.75762 0.48145
 H2104 H 0.79038 0.76742 0.46152
 C2105 C 0.70613 0.29545 0.59415
 C2106 C 0.70015 0.28728 0.60368
 C2107 C 0.69405 0.29291 0.61473
 C2108 C 0.69407 0.30679 0.61657
 C2109 C 0.70021 0.31494 0.60711
 C2110 C 0.70607 0.30933 0.59593
 C2111 C 0.71225 0.28954 0.58226
 C2112 C 0.70878 0.29423 0.56969
 C2113 C 0.71430 0.28847 0.55842
 C2114 C 0.72358 0.27809 0.55954
 C2115 C 0.72723 0.27353 0.57211
 C2116 C 0.72150 0.27912 0.58339
 C2117 C 0.72923 0.27190 0.54758
 C2118 C 0.74302 0.27077 0.54597
 C2119 C 0.74829 0.26522 0.53446
 C2120 C 0.73984 0.26034 0.52455
 C2121 C 0.72605 0.26141 0.52625
 C2122 C 0.72079 0.26722 0.53760
 H2123 H 0.70002 0.27655 0.60245
 H2124 H 0.68948 0.28639 0.62192
 H2125 H 0.70030 0.32568 0.60824
 H2126 H 0.71067 0.31581 0.58871
 H2127 H 0.70162 0.30221 0.56860
 H2128 H 0.71139 0.29217 0.54881
 H2129 H 0.73433 0.26549 0.57317
 H2130 H 0.72436 0.27539 0.59300
 H2131 H 0.74969 0.27444 0.55351
 H2132 H 0.75895 0.26479 0.53327
 H2133 H 0.71932 0.25770 0.51877
 H2134 H 0.71013 0.26793 0.53869
 C2135 C 0.70518 0.79374 1.09459
 C2136 C 0.69142 0.79282 1.09679
 C2137 C 0.68564 0.79874 1.10787
 C2138 C 0.69343 0.80588 1.11690
 C2139 C 0.70715 0.80684 1.11473
 C2140 C 0.71297 0.80077 1.10376
 C2141 C 0.71134 0.78759 1.08270
 C2142 C 0.72204 0.79383 1.07630
 C2143 C 0.72773 0.78818 1.06506
 C2144 C 0.72275 0.77623 1.05977
 C2145 C 0.71208 0.76994 1.06619
 C2146 C 0.70650 0.77551 1.07755
 C2147 C 0.72853 0.77051 1.04748
 C2148 C 0.72942 0.75662 1.04566
 C2149 C 0.73477 0.75134 1.03407
 C2150 C 0.73963 0.75983 1.02417
 C2151 C 0.73868 0.77367 1.02592
 C2152 C 0.73314 0.77895 1.03740
 H2153 H 0.68505 0.78773 1.08984
 H2154 H 0.67501 0.79794 1.10921
 H2155 H 0.71345 0.81211 1.12162
 H2156 H 0.72362 0.80146 1.10257
 H2157 H 0.72593 0.80323 1.07985
 H2158 H 0.73608 0.79320 1.06055
 H2159 H 0.70787 0.76082 1.06234
 H2160 H 0.69842 0.77029 1.08232
 H2161 H 0.72611 0.74980 1.05325
 H2162 H 0.73519 0.74062 1.03284
 H2163 H 0.74228 0.78042 1.01839
 H2164 H 0.73234 0.78968 1.03827
 C2165 C 0.20489 0.29391 1.09458
 C2166 C 0.21267 0.30091 1.10377
 C2167 C 0.20684 0.30699 1.11472
 C2168 C 0.19312 0.30603 1.11687
 C2169 C 0.18533 0.29891 1.10782
 C2170 C 0.19113 0.29300 1.09675
 C2171 C 0.21105 0.28776 1.08270
 C2172 C 0.20621 0.27569 1.07753
 C2173 C 0.21178 0.27015 1.06615
 C2174 C 0.22245 0.27645 1.05974
 C2175 C 0.22745 0.28837 1.06506
 C2176 C 0.22176 0.29400 1.07631
 C2177 C 0.22820 0.27077 1.04743
 C2178 C 0.23280 0.27925 1.03736
 C2179 C 0.23832 0.27401 1.02586
 C2180 C 0.23927 0.26018 1.02406
 C2181 C 0.23442 0.25165 1.03393
 C2182 C 0.22908 0.25688 1.04556
 H2183 H 0.22333 0.30159 1.10259
 H2184 H 0.21313 0.31224 1.12163
 H2185 H 0.17470 0.29813 1.10914
 H2186 H 0.18476 0.28792 1.08978
 H2187 H 0.19813 0.27047 1.08228
 H2188 H 0.20756 0.26103 1.06228
 H2189 H 0.23580 0.29339 1.06056
 H2190 H 0.22566 0.30339 1.07987
 H2191 H 0.23201 0.28997 1.03828
 H2192 H 0.24192 0.28079 1.01836
 H2193 H 0.23483 0.24094 1.03267
 H2194 H 0.22578 0.25004 1.05312
 C2195 C 0.20499 0.79382 0.59459
 C2196 C 0.21276 0.80084 0.60378
 C2197 C 0.20691 0.80689 0.61475
 C2198 C 0.19319 0.80591 0.61689
 C2199 C 0.18542 0.79876 0.60784
 C2200 C 0.19123 0.79287 0.59677
 C2201 C 0.21118 0.78771 0.58270
 C2202 C 0.20639 0.77563 0.57751
 C2203 C 0.21201 0.77010 0.56616
 C2204 C 0.22267 0.77644 0.55976
 C2205 C 0.22760 0.78840 0.56509
 C2206 C 0.22187 0.79401 0.57633
 C2207 C 0.22850 0.77076 0.54749
 C2208 C 0.23310 0.77923 0.53742
 C2209 C 0.23868 0.77398 0.52595
 C2210 C 0.23970 0.76015 0.52419
 C2211 C 0.23486 0.75163 0.53407
 C2212 C 0.22945 0.75687 0.54566
 H2213 H 0.22341 0.80155 0.60261
 H2214 H 0.21319 0.81215 0.62165
 H2215 H 0.17479 0.79795 0.60917
 H2216 H 0.18488 0.78778 0.58979
 H2217 H 0.19831 0.77038 0.58226
 H2218 H 0.20784 0.76097 0.56228
 H2219 H 0.23594 0.79345 0.56060
 H2220 H 0.22572 0.80341 0.57989
 H2221 H 0.23225 0.78995 0.53831
 H2222 H 0.24228 0.78076 0.51844
 H2223 H 0.23532 0.74091 0.53284
 H2224 H 0.22616 0.75003 0.55323
 C2225 C 0.29561 0.70708 0.59559
 C2226 C 0.28771 0.69991 0.60458
 C2227 C 0.29333 0.69405 0.61575
 C2228 C 0.30694 0.69541 0.61835
 C2229 C 0.31483 0.70273 0.60953
 C2230 C 0.30925 0.70841 0.59823
 C2231 C 0.28967 0.71296 0.58344
 C2232 C 0.29441 0.72506 0.57825
 C2233 C 0.28900 0.73039 0.56670
 C2234 C 0.27858 0.72385 0.56012
 C2235 C 0.27371 0.71187 0.56544
 C2236 C 0.27924 0.70644 0.57686
 C2237 C 0.27290 0.72940 0.54771
 C2238 C 0.26846 0.72082 0.53766
 C2239 C 0.26291 0.72595 0.52611
 C2240 C 0.26180 0.73977 0.52424
 C2241 C 0.26653 0.74838 0.53408
 C2242 C 0.27187 0.74326 0.54575
 H2243 H 0.27713 0.69892 0.60307
 H2244 H 0.28697 0.68862 0.62247
 H2245 H 0.32538 0.70381 0.61121
 H2246 H 0.31571 0.71361 0.59144
 H2247 H 0.30227 0.73049 0.58313
 H2248 H 0.29314 0.73955 0.56284
 H2249 H 0.26554 0.70665 0.56083
 H2250 H 0.27544 0.69701 0.58041
 H2251 H 0.26937 0.71012 0.53863
 H2252 H 0.25941 0.71910 0.51863
 H2253 H 0.26602 0.75909 0.53277
 H2254 H 0.27504 0.75019 0.55330
 C2255 C 0.29552 0.20660 1.09499
 C2256 C 0.28765 0.19950 1.10406
 C2257 C 0.29333 0.19362 1.11520
 C2258 C 0.30698 0.19487 1.11767
 C2259 C 0.31484 0.20211 1.10876
 C2260 C 0.30920 0.20782 1.09750
 C2261 C 0.28951 0.21254 1.08292
 C2262 C 0.29427 0.22463 1.07772
 C2263 C 0.28877 0.23004 1.06625
 C2264 C 0.27824 0.22359 1.05976
 C2265 C 0.27336 0.21160 1.06508
 C2266 C 0.27898 0.20610 1.07643
 C2267 C 0.27247 0.22920 1.04742
 C2268 C 0.26792 0.22068 1.03737
 C2269 C 0.26234 0.22588 1.02587
 C2270 C 0.26129 0.23970 1.02405
 C2271 C 0.26611 0.24827 1.03389
 C2272 C 0.27149 0.24308 1.04552
 H2273 H 0.27705 0.19859 1.10265
 H2274 H 0.28699 0.18826 1.12198
 H2275 H 0.32542 0.20312 1.11034
 H2276 H 0.31564 0.21297 1.09064
 H2277 H 0.30221 0.23000 1.08254
 H2278 H 0.29292 0.23919 1.06237
 H2279 H 0.26512 0.20645 1.06053
 H2280 H 0.27516 0.19668 1.07999
 H2281 H 0.26878 0.20997 1.03830
 H2282 H 0.25877 0.21907 1.01839
 H2283 H 0.26564 0.25898 1.03262
 H2284 H 0.27474 0.24996 1.05307
 C2285 C 0.79574 0.70644 1.09526
 C2286 C 0.80942 0.70765 1.09778
 C2287 C 0.81504 0.70196 1.10906
 C2288 C 0.80715 0.69475 1.11796
 C2289 C 0.79351 0.69350 1.11548
 C2290 C 0.78785 0.69938 1.10433
 C2291 C 0.78976 0.71236 1.08316
 C2292 C 0.77924 0.70591 1.07666
 C2293 C 0.77364 0.71138 1.06529
 C2294 C 0.77855 0.72334 1.05994
 C2295 C 0.78907 0.72980 1.06643
 C2296 C 0.79454 0.72443 1.07793
 C2297 C 0.77281 0.72892 1.04757
 C2298 C 0.77184 0.74279 1.04562
 C2299 C 0.76646 0.74794 1.03398
 C2300 C 0.76163 0.73934 1.02417
 C2301 C 0.76267 0.72552 1.02604
 C2302 C 0.76826 0.72037 1.03755
 H2303 H 0.81587 0.71278 1.09093
 H2304 H 0.82561 0.70296 1.11066
 H2305 H 0.78715 0.68816 1.12227
 H2306 H 0.77725 0.69848 1.10291
 H2307 H 0.77541 0.69650 1.08024
 H2308 H 0.76541 0.70622 1.06073
 H2309 H 0.79323 0.73894 1.06254
 H2310 H 0.80247 0.72981 1.08276
 H2311 H 0.77509 0.74970 1.05315
 H2312 H 0.76600 0.75864 1.03267
 H2313 H 0.75910 0.71869 1.01858
 H2314 H 0.76911 0.70966 1.03851
 C2315 C 0.79399 0.20493 0.59564
 C2316 C 0.79314 0.19114 0.59808
 C2317 C 0.79874 0.18561 0.60944
 C2318 C 0.80548 0.19369 0.61854
 C2319 C 0.80644 0.20743 0.61609
 C2320 C 0.80067 0.21300 0.60484
 C2321 C 0.78803 0.21084 0.58353
 C2322 C 0.79419 0.22161 0.57709
 C2323 C 0.78866 0.22712 0.56570
 C2324 C 0.77691 0.22189 0.56030
 C2325 C 0.77073 0.21113 0.56674
 C2326 C 0.77617 0.20574 0.57824
 C2327 C 0.77122 0.22756 0.54795
 C2328 C 0.75740 0.22821 0.54602
 C2329 C 0.75214 0.23348 0.53438
 C2330 C 0.76056 0.23851 0.52454
 C2331 C 0.77434 0.23780 0.52639
 C2332 C 0.77961 0.23234 0.53791
 H2333 H 0.78834 0.18456 0.59111
 H2334 H 0.79800 0.17495 0.61095
 H2335 H 0.81144 0.21393 0.62300
 H2336 H 0.80131 0.22368 0.60346
 H2337 H 0.80342 0.22570 0.58074
 H2338 H 0.79359 0.23554 0.56117
 H2339 H 0.76177 0.20672 0.56280
 H2340 H 0.77101 0.19761 0.58302
 H2341 H 0.75062 0.22479 0.55357
 H2342 H 0.74148 0.23371 0.53309
 H2343 H 0.78104 0.24155 0.51891
 H2344 H 0.79029 0.23174 0.53887
 C2345 C 0.70581 0.70517 0.40537
 C2346 C 0.69898 0.71305 0.39611
 C2347 C 0.69295 0.70724 0.38512
 C2348 C 0.69379 0.69344 0.38300
 C2349 C 0.70073 0.68555 0.39213
 C2350 C 0.70658 0.69132 0.40323
 C2351 C 0.71197 0.71132 0.41726
 C2352 C 0.72387 0.70627 0.42252
 C2353 C 0.72942 0.71181 0.43389
 C2354 C 0.72331 0.72268 0.44023
 C2355 C 0.71155 0.72789 0.43482
 C2356 C 0.70590 0.72222 0.42356
 C2357 C 0.72903 0.72842 0.45252
 C2358 C 0.72066 0.73331 0.46252
 C2359 C 0.72596 0.73877 0.47403
 C2360 C 0.73974 0.73936 0.47590
 C2361 C 0.74814 0.73425 0.46608
 C2362 C 0.74285 0.72898 0.45445
 H2363 H 0.69840 0.72377 0.39726
 H2364 H 0.68783 0.71360 0.37816
 H2365 H 0.70141 0.67485 0.39083
 H2366 H 0.71151 0.68488 0.41025
 H2367 H 0.72896 0.69803 0.41782
 H2368 H 0.73839 0.70741 0.43783
 H2369 H 0.70668 0.73639 0.43925
 H2370 H 0.69665 0.72629 0.41994
 H2371 H 0.70998 0.73278 0.46156
 H2372 H 0.71927 0.74259 0.48149
 H2373 H 0.75880 0.73438 0.46739
 H2374 H 0.74962 0.72546 0.44694
 C2375 C 0.70546 0.20608 -0.09557
 C2376 C 0.71342 0.19952 -0.10494
 C2377 C 0.70774 0.19367 -0.11610
 C2378 C 0.69400 0.19439 -0.11824
 C2379 C 0.68604 0.20101 -0.10895
 C2380 C 0.69169 0.20672 -0.09771
 C2381 C 0.71146 0.21211 -0.08355
 C2382 C 0.70638 0.22401 -0.07821
 C2383 C 0.71182 0.22948 -0.06675
 C2384 C 0.72258 0.22329 -0.06041
 C2385 C 0.72779 0.21150 -0.06587
 C2386 C 0.72225 0.20595 -0.07723
 C2387 C 0.72826 0.22897 -0.04807
 C2388 C 0.73298 0.22050 -0.03805
 C2389 C 0.73845 0.22577 -0.02653
 C2390 C 0.73924 0.23961 -0.02469
 C2391 C 0.73427 0.24811 -0.03452
 C2392 C 0.72898 0.24285 -0.04615
 H2393 H 0.72408 0.19903 -0.10376
 H2394 H 0.71416 0.18877 -0.12315
 H2395 H 0.67539 0.20159 -0.11022
 H2396 H 0.68521 0.21144 -0.09060
 H2397 H 0.69822 0.22916 -0.08292
 H2398 H 0.70744 0.23847 -0.06277
 H2399 H 0.73621 0.20656 -0.06140
 H2400 H 0.72633 0.19669 -0.08093
 H2401 H 0.73232 0.20978 -0.03901
 H2402 H 0.74214 0.21901 -0.01905
 H2403 H 0.73456 0.25882 -0.03323
 H2404 H 0.72558 0.24969 -0.05369
 C2405 C 0.20625 0.70524 -0.09488
 C2406 C 0.19941 0.71312 -0.10414
 C2407 C 0.19331 0.70729 -0.11508
 C2408 C 0.19407 0.69347 -0.11714
 C2409 C 0.20101 0.68559 -0.10802
 C2410 C 0.20694 0.69138 -0.09697
 C2411 C 0.21246 0.71141 -0.08304
 C2412 C 0.22436 0.70634 -0.07780
 C2413 C 0.22995 0.71189 -0.06645
 C2414 C 0.22389 0.72278 -0.06012
 C2415 C 0.21214 0.72802 -0.06552
 C2416 C 0.20645 0.72235 -0.07675
 C2417 C 0.22963 0.72852 -0.04784
 C2418 C 0.22127 0.73339 -0.03782
 C2419 C 0.22658 0.73886 -0.02633
 C2420 C 0.24036 0.73949 -0.02449
 C2421 C 0.24875 0.73438 -0.03432
 C2422 C 0.24345 0.72909 -0.04593
 H2423 H 0.19890 0.72384 -0.10304
 H2424 H 0.18820 0.71365 -0.12204
 H2425 H 0.20164 0.67489 -0.10927
 H2426 H 0.21187 0.68495 -0.08994
 H2427 H 0.22941 0.69807 -0.08248
 H2428 H 0.23892 0.70748 -0.06252
 H2429 H 0.20730 0.73655 -0.06109
 H2430 H 0.19720 0.72644 -0.08036
 H2431 H 0.21059 0.73284 -0.03877
 H2432 H 0.21990 0.74267 -0.01886
 H2433 H 0.25942 0.73455 -0.03303
 H2434 H 0.25021 0.72559 -0.05347
 C2435 C 0.20402 0.20665 0.40573
 C2436 C 0.21216 0.20065 0.39619
 C2437 C 0.20657 0.19457 0.38511
 C2438 C 0.19276 0.19462 0.38325
 C2439 C 0.18464 0.20079 0.39271
 C2440 C 0.19022 0.20663 0.40392
 C2441 C 0.20990 0.21273 0.41764
 C2442 C 0.20518 0.20923 0.43019
 C2443 C 0.21094 0.21468 0.44149
 C2444 C 0.22135 0.22392 0.44042
 C2445 C 0.22593 0.22760 0.42787
 C2446 C 0.22034 0.22194 0.41656
 C2447 C 0.22756 0.22948 0.45241
 C2448 C 0.22894 0.24331 0.45400
 C2449 C 0.23456 0.24851 0.46551
 C2450 C 0.23926 0.23993 0.47543
 C2451 C 0.23791 0.22609 0.47375
 C2452 C 0.23204 0.22092 0.46240
 H2453 H 0.22283 0.20048 0.39744
 H2454 H 0.21307 0.18998 0.37792
 H2455 H 0.17396 0.20091 0.39156
 H2456 H 0.18376 0.21124 0.41113
 H2457 H 0.19719 0.20209 0.43125
 H2458 H 0.20723 0.21175 0.45108
 H2459 H 0.23400 0.23466 0.42684
 H2460 H 0.22409 0.22482 0.40697
 H2461 H 0.22543 0.25009 0.44645
 H2462 H 0.23520 0.25922 0.46668
 H2463 H 0.24146 0.21927 0.48124
 H2464 H 0.23114 0.21021 0.46133
 C2465 C 0.29473 0.40399 0.70546
 C2466 C 0.28684 0.39461 0.69876
 C2467 C 0.29259 0.38347 0.69278
 C2468 C 0.30634 0.38133 0.69352
 C2469 C 0.31423 0.39059 0.70031
 C2470 C 0.30851 0.40184 0.70613
 C2471 C 0.28863 0.41601 0.71159
 C2472 C 0.29366 0.42128 0.72343
 C2473 C 0.28812 0.43275 0.72900
 C2474 C 0.27730 0.43917 0.72297
 C2475 C 0.27212 0.43375 0.71127
 C2476 C 0.27777 0.42240 0.70561
 C2477 C 0.27157 0.45157 0.72870
 C2478 C 0.26672 0.46172 0.72043
 C2479 C 0.26125 0.47333 0.72573
 C2480 C 0.26063 0.47515 0.73942
 C2481 C 0.26571 0.46519 0.74774
 C2482 C 0.27098 0.45346 0.74244
 H2483 H 0.27618 0.39578 0.69825
 H2484 H 0.28623 0.37641 0.68777
 H2485 H 0.32487 0.38930 0.70092
 H2486 H 0.31493 0.40896 0.71097
 H2487 H 0.30186 0.41651 0.72845
 H2488 H 0.29249 0.43668 0.73794
 H2489 H 0.26364 0.43825 0.70647
 H2490 H 0.27372 0.41877 0.69641
 H2491 H 0.26728 0.46080 0.70981
 H2492 H 0.25747 0.48090 0.71911
 H2493 H 0.26555 0.46647 0.75833
 H2494 H 0.27448 0.44582 0.74913
 C2495 C 0.29404 0.90453 0.20483
 C2496 C 0.29302 0.90230 0.19117
 C2497 C 0.29883 0.89106 0.18540
 C2498 C 0.30596 0.88191 0.19311
 C2499 C 0.30705 0.88413 0.20672
 C2500 C 0.30107 0.89524 0.21253
 C2501 C 0.28792 0.91655 0.21098
 C2502 C 0.29413 0.92296 0.22166
 C2503 C 0.28848 0.93427 0.22739
 C2504 C 0.27657 0.93965 0.22248
 C2505 C 0.27035 0.93324 0.21182
 C2506 C 0.27590 0.92179 0.20621
 C2507 C 0.27084 0.95201 0.22832
 C2508 C 0.25701 0.95384 0.22916
 C2509 C 0.25171 0.96553 0.23453
 C2510 C 0.26012 0.97552 0.23945
 C2511 C 0.27390 0.97375 0.23858
 C2512 C 0.27920 0.96218 0.23302
 H2513 H 0.28793 0.90934 0.18486
 H2514 H 0.29795 0.88969 0.17485
 H2515 H 0.31233 0.87715 0.21294
 H2516 H 0.30184 0.89644 0.22310
 H2517 H 0.30348 0.91936 0.22550
 H2518 H 0.29346 0.93878 0.23572
 H2519 H 0.26127 0.93716 0.20765
 H2520 H 0.27071 0.91703 0.19815
 H2521 H 0.25025 0.94619 0.22578
 H2522 H 0.24105 0.96677 0.23487
 H2523 H 0.28060 0.98134 0.24223
 H2524 H 0.28988 0.96131 0.23228
 C2525 C 0.79424 0.40390 0.20480
 C2526 C 0.79333 0.40166 0.19114
 C2527 C 0.79897 0.39030 0.18546
 C2528 C 0.80581 0.38099 0.19326
 C2529 C 0.80681 0.38323 0.20688
 C2530 C 0.80102 0.39449 0.21260
 C2531 C 0.78822 0.41600 0.21087
 C2532 C 0.79442 0.42239 0.22157
 C2533 C 0.78882 0.43376 0.22724
 C2534 C 0.77697 0.43921 0.22226
 C2535 C 0.77077 0.43283 0.21158
 C2536 C 0.77627 0.42133 0.20601
 C2537 C 0.77125 0.45157 0.22810
 C2538 C 0.75742 0.45342 0.22888
 C2539 C 0.75212 0.46511 0.23425
 C2540 C 0.76051 0.47508 0.23922
 C2541 C 0.77430 0.47329 0.23840
 C2542 C 0.77960 0.46172 0.23286
 H2543 H 0.78844 0.40879 0.18478
 H2544 H 0.79817 0.38894 0.17490
 H2545 H 0.81188 0.37616 0.21317
 H2546 H 0.80170 0.39572 0.22318
 H2547 H 0.80371 0.41871 0.22548
 H2548 H 0.79378 0.43824 0.23560
 H2549 H 0.76173 0.43680 0.20736
 H2550 H 0.77110 0.41659 0.19793
 H2551 H 0.75066 0.44578 0.22547
 H2552 H 0.74145 0.46635 0.23455
 H2553 H 0.78098 0.48087 0.24210
 H2554 H 0.79028 0.46083 0.23216
 C2555 C 0.79401 0.90409 0.70515
 C2556 C 0.80110 0.89479 0.71280
 C2557 C 0.80711 0.88373 0.70693
 C2558 C 0.80598 0.88156 0.69331
 C2559 C 0.79879 0.89071 0.68566
 C2560 C 0.79297 0.90190 0.69148
 C2561 C 0.78787 0.91606 0.71136
 C2562 C 0.77586 0.92132 0.70657
 C2563 C 0.77029 0.93274 0.71221
 C2564 C 0.77646 0.93909 0.72294
 C2565 C 0.78834 0.93368 0.72788
 C2566 C 0.79402 0.92240 0.72210
 C2567 C 0.77069 0.95142 0.72882
 C2568 C 0.77902 0.96151 0.73374
 C2569 C 0.77368 0.97306 0.73929
 C2570 C 0.75989 0.97490 0.73993
 C2571 C 0.75153 0.96497 0.73483
 C2572 C 0.75686 0.95329 0.72948
 H2573 H 0.80188 0.89594 0.72337
 H2574 H 0.81244 0.87673 0.71310
 H2575 H 0.79789 0.88936 0.67511
 H2576 H 0.78786 0.90896 0.68521
 H2577 H 0.77070 0.91660 0.69847
 H2578 H 0.76123 0.93668 0.70801
 H2579 H 0.79328 0.93812 0.73627
 H2580 H 0.80336 0.91879 0.72597
 H2581 H 0.78970 0.96061 0.73315
 H2582 H 0.78035 0.98060 0.74310
 H2583 H 0.74086 0.96625 0.73499
 H2584 H 0.75011 0.94569 0.72595
 C2585 C 0.70480 0.59655 0.70618
 C2586 C 0.69105 0.59887 0.70693
 C2587 C 0.68546 0.61029 0.70130
 C2588 C 0.69345 0.61955 0.69461
 C2589 C 0.70716 0.61725 0.69380
 C2590 C 0.71278 0.60594 0.69960
 C2591 C 0.71076 0.58433 0.71209
 C2592 C 0.72155 0.57794 0.70599
 C2593 C 0.72713 0.56647 0.71148
 C2594 C 0.72194 0.56092 0.72313
 C2595 C 0.71114 0.56730 0.72923
 C2596 C 0.70567 0.57889 0.72383
 C2597 C 0.72770 0.54848 0.72877
 C2598 C 0.72830 0.54651 0.74250
 C2599 C 0.73364 0.53477 0.74773
 C2600 C 0.73878 0.52488 0.73936
 C2601 C 0.73814 0.52679 0.72567
 C2602 C 0.73261 0.53840 0.72044
 H2603 H 0.68454 0.59175 0.71167
 H2604 H 0.67483 0.61170 0.70194
 H2605 H 0.71360 0.62429 0.68885
 H2606 H 0.72343 0.60465 0.69904
 H2607 H 0.72562 0.58169 0.69684
 H2608 H 0.73558 0.56199 0.70660
 H2609 H 0.70675 0.56324 0.73811
 H2610 H 0.69750 0.58363 0.72893
 H2611 H 0.72477 0.55408 0.74924
 H2612 H 0.73381 0.53343 0.75832
 H2613 H 0.74197 0.51928 0.71901
 H2614 H 0.73206 0.53940 0.70983
 C2615 C 0.70546 0.09635 0.20572
 C2616 C 0.69173 0.09878 0.20660
 C2617 C 0.68616 0.11018 0.20092
 C2618 C 0.69413 0.11931 0.19406
 C2619 C 0.70781 0.11690 0.19309
 C2620 C 0.71343 0.10561 0.19894
 C2621 C 0.71141 0.08419 0.21174
 C2622 C 0.72214 0.07768 0.20565
 C2623 C 0.72772 0.06626 0.21125
 C2624 C 0.72258 0.06087 0.22299
 C2625 C 0.71184 0.06737 0.22909
 C2626 C 0.70639 0.07893 0.22359
 C2627 C 0.72829 0.04845 0.22872
 C2628 C 0.72889 0.04656 0.24247
 C2629 C 0.73416 0.03483 0.24776
 C2630 C 0.73925 0.02487 0.23946
 C2631 C 0.73862 0.02670 0.22576
 C2632 C 0.73315 0.03830 0.22045
 H2633 H 0.68523 0.09176 0.21149
 H2634 H 0.67555 0.11168 0.20169
 H2635 H 0.71423 0.12385 0.18799
 H2636 H 0.72406 0.10425 0.19827
 H2637 H 0.72616 0.08130 0.19642
 H2638 H 0.73612 0.06170 0.20637
 H2639 H 0.70748 0.06345 0.23804
 H2640 H 0.69827 0.08376 0.22869
 H2641 H 0.72540 0.05420 0.24916
 H2642 H 0.73431 0.03355 0.25836
 H2643 H 0.74242 0.01913 0.21915
 H2644 H 0.73259 0.03921 0.20984
 C2645 C 0.20516 0.59666 0.20561
 C2646 C 0.19145 0.59914 0.20652
 C2647 C 0.18591 0.61058 0.20088
 C2648 C 0.19392 0.61971 0.19404
 C2649 C 0.20759 0.61724 0.19305
 C2650 C 0.21316 0.60592 0.19886
 C2651 C 0.21108 0.58445 0.21157
 C2652 C 0.22178 0.57793 0.20544
 C2653 C 0.22733 0.56647 0.21099
 C2654 C 0.22220 0.56106 0.22273
 C2655 C 0.21148 0.56756 0.22886
 C2656 C 0.20605 0.57914 0.22340
 C2657 C 0.22792 0.54863 0.22843
 C2658 C 0.22856 0.54674 0.24217
 C2659 C 0.23386 0.53501 0.24745
 C2660 C 0.23892 0.52504 0.23912
 C2661 C 0.23824 0.52687 0.22543
 C2662 C 0.23274 0.53847 0.22014
 H2663 H 0.18492 0.59213 0.21138
 H2664 H 0.17531 0.61213 0.20166
 H2665 H 0.21403 0.62419 0.18798
 H2666 H 0.22379 0.60451 0.19817
 H2667 H 0.22580 0.58156 0.19622
 H2668 H 0.23571 0.56190 0.20608
 H2669 H 0.20713 0.56362 0.23780
 H2670 H 0.19796 0.58398 0.22853
 H2671 H 0.22510 0.55437 0.24888
 H2672 H 0.23406 0.53373 0.25805
 H2673 H 0.24202 0.51930 0.21880
 H2674 H 0.23215 0.53939 0.20953
 C2675 C 0.20581 0.09613 0.70457
 C2676 C 0.19894 0.10548 0.71234
 C2677 C 0.19311 0.11672 0.70661
 C2678 C 0.19419 0.11899 0.69300
 C2679 C 0.20113 0.10975 0.68522
 C2680 C 0.20680 0.09840 0.69092
 C2681 C 0.21182 0.08403 0.71065
 C2682 C 0.22383 0.07876 0.70586
 C2683 C 0.22932 0.06726 0.71143
 C2684 C 0.22303 0.06081 0.72203
 C2685 C 0.21114 0.06620 0.72695
 C2686 C 0.20556 0.07759 0.72127
 C2687 C 0.22872 0.04842 0.72785
 C2688 C 0.22033 0.03823 0.73247
 C2689 C 0.22559 0.02665 0.73802
 C2690 C 0.23937 0.02489 0.73898
 C2691 C 0.24780 0.03489 0.73412
 C2692 C 0.24255 0.04660 0.72876
 H2693 H 0.19820 0.10422 0.72291
 H2694 H 0.18797 0.12374 0.71289
 H2695 H 0.20199 0.11114 0.67467
 H2696 H 0.21178 0.09132 0.68457
 H2697 H 0.22906 0.08356 0.69784
 H2698 H 0.23841 0.06333 0.70727
 H2699 H 0.20612 0.06167 0.73525
 H2700 H 0.19622 0.08122 0.72513
 H2701 H 0.20966 0.03912 0.73167
 H2702 H 0.21888 0.01904 0.74162
 H2703 H 0.25847 0.03365 0.73452
 H2704 H 0.24933 0.05426 0.72545
 C2705 C 0.29477 0.59605 0.29389
 C2706 C 0.30855 0.59817 0.29319
 C2707 C 0.31429 0.60941 0.29900
 C2708 C 0.30642 0.61868 0.30582
 C2709 C 0.29268 0.61656 0.30660
 C2710 C 0.28691 0.60543 0.30062
 C2711 C 0.28865 0.58404 0.28776
 C2712 C 0.27778 0.57768 0.29377
 C2713 C 0.27210 0.56635 0.28811
 C2714 C 0.27725 0.56092 0.27639
 C2715 C 0.28810 0.56729 0.27036
 C2716 C 0.29367 0.57874 0.27593
 C2717 C 0.27146 0.54855 0.27065
 C2718 C 0.27086 0.54669 0.25690
 C2719 C 0.26553 0.53499 0.25159
 C2720 C 0.26042 0.52504 0.25990
 C2721 C 0.26105 0.52685 0.27360
 C2722 C 0.26656 0.53842 0.27891
 H2723 H 0.31496 0.59104 0.28834
 H2724 H 0.32494 0.61068 0.29838
 H2725 H 0.28633 0.62362 0.31164
 H2726 H 0.27624 0.60429 0.30116
 H2727 H 0.27375 0.58132 0.30297
 H2728 H 0.26362 0.56187 0.29293
 H2729 H 0.29245 0.56333 0.26143
 H2730 H 0.30188 0.58348 0.27090
 H2731 H 0.27440 0.55431 0.25022
 H2732 H 0.26537 0.53373 0.24100
 H2733 H 0.25723 0.51928 0.28021
 H2734 H 0.26713 0.53932 0.28952
 C2735 C 0.29396 0.09587 0.79507
 C2736 C 0.30101 0.10512 0.78733
 C2737 C 0.30703 0.11622 0.79311
 C2738 C 0.30595 0.11847 0.80672
 C2739 C 0.29880 0.10935 0.81446
 C2740 C 0.29296 0.09813 0.80872
 C2741 C 0.28781 0.08387 0.78894
 C2742 C 0.27578 0.07869 0.79375
 C2743 C 0.27020 0.06723 0.78818
 C2744 C 0.27642 0.06075 0.77756
 C2745 C 0.28833 0.06608 0.77261
 C2746 C 0.29400 0.07740 0.77829
 C2747 C 0.27067 0.04839 0.77178
 C2748 C 0.27902 0.03817 0.76715
 C2749 C 0.27371 0.02661 0.76162
 C2750 C 0.25993 0.02489 0.76070
 C2751 C 0.25153 0.03492 0.76556
 C2752 C 0.25684 0.04661 0.77091
 H2753 H 0.30177 0.10389 0.77676
 H2754 H 0.31232 0.12318 0.78687
 H2755 H 0.29793 0.11075 0.82501
 H2756 H 0.28786 0.09111 0.81504
 H2757 H 0.27060 0.08350 0.80179
 H2758 H 0.26111 0.06336 0.79237
 H2759 H 0.29330 0.06152 0.76430
 H2760 H 0.30337 0.08095 0.77443
 H2761 H 0.28970 0.03900 0.76793
 H2762 H 0.28040 0.01898 0.75801
 H2763 H 0.24086 0.03372 0.76518
 H2764 H 0.25009 0.05430 0.77424
 C2765 C 0.79468 0.59600 0.79383
 C2766 C 0.78682 0.60554 0.80035
 C2767 C 0.79261 0.61668 0.80628
 C2768 C 0.80639 0.61865 0.80570
 C2769 C 0.81427 0.60922 0.79911
 C2770 C 0.80849 0.59799 0.79331
 C2771 C 0.78854 0.58398 0.78775
 C2772 C 0.79363 0.57857 0.77600
 C2773 C 0.78804 0.56710 0.77048
 C2774 C 0.77712 0.56082 0.77648
 C2775 C 0.77191 0.56637 0.78812
 C2776 C 0.77760 0.57772 0.79372
 C2777 C 0.77132 0.54844 0.77078
 C2778 C 0.76637 0.53836 0.77907
 C2779 C 0.76087 0.52676 0.77379
 C2780 C 0.76027 0.52489 0.76010
 C2781 C 0.76541 0.53481 0.75177
 C2782 C 0.77075 0.54652 0.75704
 H2783 H 0.77614 0.60449 0.80075
 H2784 H 0.78626 0.62385 0.81115
 H2785 H 0.82493 0.61035 0.79864
 H2786 H 0.81490 0.59073 0.78863
 H2787 H 0.80191 0.58322 0.77101
 H2788 H 0.79244 0.56305 0.76161
 H2789 H 0.76338 0.56196 0.79291
 H2790 H 0.77352 0.58147 0.80287
 H2791 H 0.76690 0.53932 0.78968
 H2792 H 0.75702 0.51923 0.78043
 H2793 H 0.76528 0.53350 0.74118
 H2794 H 0.77432 0.55411 0.75033
 C2795 C 0.79491 0.09623 0.29376
 C2796 C 0.80863 0.09865 0.29285
 C2797 C 0.81421 0.11006 0.29850
 C2798 C 0.80623 0.11920 0.30537
 C2799 C 0.79255 0.11680 0.30633
 C2800 C 0.78694 0.10551 0.30051
 C2801 C 0.78895 0.08403 0.28781
 C2802 C 0.77821 0.07758 0.29395
 C2803 C 0.77259 0.06616 0.28841
 C2804 C 0.77768 0.06071 0.27667
 C2805 C 0.78844 0.06714 0.27054
 C2806 C 0.79394 0.07869 0.27599
 C2807 C 0.77187 0.04833 0.27098
 C2808 C 0.77122 0.04642 0.25724
 C2809 C 0.76583 0.03474 0.25198
 C2810 C 0.76067 0.02483 0.26031
 C2811 C 0.76135 0.02667 0.27400
 C2812 C 0.76694 0.03823 0.27928
 H2813 H 0.81514 0.09162 0.28798
 H2814 H 0.82481 0.11157 0.29774
 H2815 H 0.78612 0.12376 0.31141
 H2816 H 0.77631 0.10415 0.30119
 H2817 H 0.77421 0.08124 0.30317
 H2818 H 0.76418 0.06166 0.29332
 H2819 H 0.79277 0.06316 0.26160
 H2820 H 0.80207 0.08347 0.27086
 H2821 H 0.77477 0.05401 0.25053
 H2822 H 0.76565 0.03345 0.24138
 H2823 H 0.75750 0.01915 0.28064
 H2824 H 0.76753 0.03915 0.28989
 C2825 C 0.70617 0.40374 0.29501
 C2826 C 0.69918 0.39446 0.28726
 C2827 C 0.69337 0.38321 0.29299
 C2828 C 0.69458 0.38086 0.30658
 C2829 C 0.70163 0.39003 0.31433
 C2830 C 0.70727 0.40138 0.30864
 C2831 C 0.71218 0.41584 0.28894
 C2832 C 0.72419 0.42109 0.29372
 C2833 C 0.72967 0.43261 0.28820
 C2834 C 0.72338 0.43911 0.27762
 C2835 C 0.71148 0.43374 0.27270
 C2836 C 0.70590 0.42234 0.27835
 C2837 C 0.72908 0.45151 0.27184
 C2838 C 0.72070 0.46169 0.26717
 C2839 C 0.72598 0.47328 0.26164
 C2840 C 0.73976 0.47507 0.26077
 C2841 C 0.74818 0.46508 0.26569
 C2842 C 0.74291 0.45336 0.27102
 H2843 H 0.69833 0.39577 0.27670
 H2844 H 0.68813 0.37624 0.28674
 H2845 H 0.70258 0.38858 0.32486
 H2846 H 0.71230 0.40842 0.31499
 H2847 H 0.72944 0.41626 0.30171
 H2848 H 0.73875 0.43652 0.29238
 H2849 H 0.70645 0.43830 0.26443
 H2850 H 0.69656 0.41873 0.27450
 H2851 H 0.71003 0.46081 0.26792
 H2852 H 0.71927 0.48088 0.25800
 H2853 H 0.75885 0.46633 0.26536
 H2854 H 0.74969 0.44571 0.27437
 C2855 C 0.70523 0.90359 0.79524
 C2856 C 0.70590 0.90144 0.80892
 C2857 C 0.70030 0.89005 0.81457
 C2858 C 0.69373 0.88063 0.80669
 C2859 C 0.69294 0.88278 0.79305
 C2860 C 0.69871 0.89408 0.78737
 C2861 C 0.71123 0.91573 0.78921
 C2862 C 0.70517 0.92200 0.77838
 C2863 C 0.71075 0.93342 0.77277
 C2864 C 0.72243 0.93900 0.77795
 C2865 C 0.72850 0.93272 0.78878
 C2866 C 0.72302 0.92119 0.79428
 C2867 C 0.72815 0.95139 0.77218
 C2868 C 0.74197 0.95335 0.77166
 C2869 C 0.74727 0.96506 0.76635
 C2870 C 0.73888 0.97494 0.76118
 C2871 C 0.72510 0.97304 0.76173
 C2872 C 0.71979 0.96145 0.76722
 H2873 H 0.71058 0.90866 0.81534
 H2874 H 0.70092 0.88874 0.82514
 H2875 H 0.68809 0.87562 0.78670
 H2876 H 0.69821 0.89525 0.77678
 H2877 H 0.69599 0.91821 0.77431
 H2878 H 0.70590 0.93782 0.76430
 H2879 H 0.73741 0.93680 0.79316
 H2880 H 0.72810 0.91652 0.80247
 H2881 H 0.74873 0.94578 0.77523
 H2882 H 0.75793 0.96640 0.76625
 H2883 H 0.71842 0.98055 0.75787
 H2884 H 0.70911 0.96046 0.76771
 C2885 C 0.20526 0.40373 0.79379
 C2886 C 0.21324 0.39448 0.80058
 C2887 C 0.20764 0.38319 0.80642
 C2888 C 0.19397 0.38075 0.80544
 C2889 C 0.18598 0.38987 0.79857
 C2890 C 0.19154 0.40128 0.79290
 C2891 C 0.21119 0.41592 0.78780
 C2892 C 0.20618 0.42120 0.77595
 C2893 C 0.21162 0.43276 0.77048
 C2894 C 0.22233 0.43926 0.77660
 C2895 C 0.22745 0.43387 0.78834
 C2896 C 0.22189 0.42243 0.79392
 C2897 C 0.22806 0.45169 0.77088
 C2898 C 0.23288 0.46184 0.77916
 C2899 C 0.23840 0.47342 0.77387
 C2900 C 0.23911 0.47524 0.76017
 C2901 C 0.23403 0.46528 0.75185
 C2902 C 0.22871 0.45357 0.75714
 H2903 H 0.22387 0.39586 0.80126
 H2904 H 0.21407 0.37624 0.81152
 H2905 H 0.17538 0.38835 0.79780
 H2906 H 0.18502 0.40830 0.78801
 H2907 H 0.19808 0.41636 0.77084
 H2908 H 0.20728 0.43670 0.76153
 H2909 H 0.23584 0.43843 0.79324
 H2910 H 0.22590 0.41881 0.80314
 H2911 H 0.23228 0.46093 0.78977
 H2912 H 0.24219 0.48098 0.78049
 H2913 H 0.23424 0.46655 0.74126
 H2914 H 0.22524 0.44594 0.75044
 C2915 C 0.20594 0.90417 0.29521
 C2916 C 0.19920 0.89478 0.28737
 C2917 C 0.19343 0.88349 0.29305
 C2918 C 0.19442 0.88120 0.30667
 C2919 C 0.20121 0.89049 0.31451
 C2920 C 0.20683 0.90189 0.30887
 C2921 C 0.21192 0.91632 0.28919
 C2922 C 0.22384 0.92166 0.29409
 C2923 C 0.22931 0.93320 0.28859
 C2924 C 0.22308 0.93963 0.27793
 C2925 C 0.21126 0.93417 0.27291
 C2926 C 0.20571 0.92274 0.27852
 C2927 C 0.22877 0.95204 0.27216
 C2928 C 0.22038 0.96220 0.26746
 C2929 C 0.22565 0.97379 0.26192
 C2930 C 0.23943 0.97558 0.26106
 C2931 C 0.24786 0.96562 0.26600
 C2932 C 0.24259 0.95391 0.27136
 H2933 H 0.19852 0.89605 0.27680
 H2934 H 0.18840 0.87642 0.28672
 H2935 H 0.20200 0.88909 0.32506
 H2936 H 0.21168 0.90901 0.31526
 H2937 H 0.22903 0.91689 0.30215
 H2938 H 0.23832 0.93718 0.29283
 H2939 H 0.20629 0.93869 0.26458
 H2940 H 0.19643 0.91906 0.27459
 H2941 H 0.20971 0.96129 0.26819
 H2942 H 0.21894 0.98137 0.25826
 H2943 H 0.25852 0.96687 0.26567
 H2944 H 0.24938 0.94627 0.27474
 C2945 C 0.40492 0.29489 0.70538
 C2946 C 0.39572 0.28697 0.69850
 C2947 C 0.38469 0.29274 0.69241
 C2948 C 0.38248 0.30654 0.69323
 C2949 C 0.39153 0.31446 0.70025
 C2950 C 0.40267 0.30872 0.70617
 C2951 C 0.41688 0.28878 0.71154
 C2952 C 0.42207 0.29380 0.72341
 C2953 C 0.43350 0.28827 0.72897
 C2954 C 0.43997 0.27747 0.72289
 C2955 C 0.43462 0.27229 0.71116
 C2956 C 0.42331 0.27794 0.70550
 C2957 C 0.45234 0.27175 0.72860
 C2958 C 0.46246 0.26694 0.72030
 C2959 C 0.47402 0.26147 0.72558
 C2960 C 0.47584 0.26080 0.73927
 C2961 C 0.46592 0.26585 0.74760
 C2962 C 0.45423 0.27112 0.74233
 H2963 H 0.39693 0.27627 0.69793
 H2964 H 0.37778 0.28635 0.68725
 H2965 H 0.39014 0.32514 0.70094
 H2966 H 0.40965 0.31518 0.71115
 H2967 H 0.41727 0.30198 0.72847
 H2968 H 0.43738 0.29263 0.73793
 H2969 H 0.43915 0.26381 0.70632
 H2970 H 0.41975 0.27389 0.69627
 H2971 H 0.46154 0.26754 0.70969
 H2972 H 0.48156 0.25770 0.71894
 H2973 H 0.46720 0.26566 0.75820
 H2974 H 0.44662 0.27458 0.74904
 C2975 C 0.40477 0.79537 0.20617
 C2976 C 0.40221 0.80913 0.20724
 C2977 C 0.39092 0.81473 0.20144
 C2978 C 0.38205 0.80676 0.19426
 C2979 C 0.38457 0.79304 0.19316
 C2980 C 0.39573 0.78739 0.19913
 C2981 C 0.41689 0.78939 0.21219
 C2982 C 0.42347 0.77873 0.20599
 C2983 C 0.43485 0.77313 0.21156
 C2984 C 0.44014 0.77817 0.22338
 C2985 C 0.43357 0.78884 0.22959
 C2986 C 0.42206 0.79431 0.22412
 C2987 C 0.45253 0.77242 0.22907
 C2988 C 0.45438 0.77164 0.24280
 C2989 C 0.46605 0.76626 0.24805
 C2990 C 0.47598 0.76126 0.23970
 C2991 C 0.47420 0.76210 0.22601
 C2992 C 0.46266 0.76767 0.22075
 H2993 H 0.40905 0.81565 0.21234
 H2994 H 0.38930 0.82536 0.20234
 H2995 H 0.37781 0.78661 0.18785
 H2996 H 0.39717 0.77673 0.19834
 H2997 H 0.41995 0.77478 0.19670
 H2998 H 0.43946 0.76478 0.20659
 H2999 H 0.43741 0.79312 0.23860
 H3000 H 0.41717 0.80237 0.22930
 H3001 H 0.44677 0.77504 0.24953
 H3002 H 0.46729 0.76595 0.25865
 H3003 H 0.48174 0.75838 0.21935
 H3004 H 0.46178 0.76838 0.21015
 C3005 C 0.90492 0.29444 0.20463
 C3006 C 0.89542 0.30109 0.21238
 C3007 C 0.88427 0.30694 0.20657
 C3008 C 0.88226 0.30613 0.19290
 C3009 C 0.89169 0.29943 0.18515
 C3010 C 0.90292 0.29372 0.19093
 C3011 C 0.91691 0.28838 0.21078
 C3012 C 0.92231 0.27643 0.20587
 C3013 C 0.93373 0.27092 0.21148
 C3014 C 0.93998 0.27712 0.22224
 C3015 C 0.93445 0.28895 0.22728
 C3016 C 0.92314 0.29455 0.22158
 C3017 C 0.95230 0.27142 0.22807
 C3018 C 0.96235 0.27986 0.23287
 C3019 C 0.97388 0.27458 0.23841
 C3020 C 0.97572 0.26074 0.23920
 C3021 C 0.96586 0.25225 0.23420
 C3022 C 0.95421 0.25753 0.22882
 H3023 H 0.89648 0.30163 0.22298
 H3024 H 0.87711 0.31188 0.21284
 H3025 H 0.89051 0.29877 0.17456
 H3026 H 0.91014 0.28892 0.18460
 H3027 H 0.91767 0.27127 0.19771
 H3028 H 0.93777 0.26189 0.20722
 H3029 H 0.93884 0.29389 0.23570
 H3030 H 0.91939 0.30383 0.22554
 H3031 H 0.96139 0.29059 0.23220
 H3032 H 0.98138 0.28133 0.24214
 H3033 H 0.96715 0.24154 0.23448
 H3034 H 0.94665 0.25071 0.22538
 C3035 C 0.90466 0.79496 0.70631
 C3036 C 0.90225 0.80876 0.70719
 C3037 C 0.89100 0.81439 0.70136
 C3038 C 0.88200 0.80640 0.69435
 C3039 C 0.88437 0.79264 0.69344
 C3040 C 0.89550 0.78697 0.69944
 C3041 C 0.91675 0.78896 0.71236
 C3042 C 0.92324 0.77819 0.70625
 C3043 C 0.93463 0.77262 0.71183
 C3044 C 0.94000 0.77778 0.72356
 C3045 C 0.93350 0.78854 0.72969
 C3046 C 0.92198 0.79399 0.72421
 C3047 C 0.95241 0.77208 0.72923
 C3048 C 0.95431 0.77139 0.74296
 C3049 C 0.96600 0.76606 0.74820
 C3050 C 0.97591 0.76103 0.73984
 C3051 C 0.97408 0.76179 0.72615
 C3052 C 0.96252 0.76730 0.72090
 H3053 H 0.90919 0.81528 0.71215
 H3054 H 0.88950 0.82505 0.70210
 H3055 H 0.87751 0.78621 0.68826
 H3056 H 0.89684 0.77628 0.69879
 H3057 H 0.91965 0.77416 0.69703
 H3058 H 0.93919 0.76420 0.70693
 H3059 H 0.93741 0.79290 0.73863
 H3060 H 0.91716 0.80213 0.72932
 H3061 H 0.94671 0.77483 0.74969
 H3062 H 0.96728 0.76581 0.75879
 H3063 H 0.98162 0.75804 0.71949
 H3064 H 0.96158 0.76794 0.71030
 C3065 C 0.59547 0.29440 0.29505
 C3066 C 0.60495 0.30114 0.28734
 C3067 C 0.61608 0.30698 0.29319
 C3068 C 0.61809 0.30606 0.30686
 C3069 C 0.60869 0.29928 0.31456
 C3070 C 0.59748 0.29360 0.30875
 C3071 C 0.58350 0.28833 0.28886
 C3072 C 0.57811 0.27638 0.29378
 C3073 C 0.56669 0.27087 0.28819
 C3074 C 0.56044 0.27706 0.27741
 C3075 C 0.56597 0.28887 0.27234
 C3076 C 0.57729 0.29448 0.27805
 C3077 C 0.54811 0.27136 0.27160
 C3078 C 0.53808 0.27979 0.26672
 C3079 C 0.52652 0.27450 0.26127
 C3080 C 0.52461 0.26066 0.26065
 C3081 C 0.53446 0.25219 0.26572
 C3082 C 0.54615 0.25747 0.27100
 H3083 H 0.60389 0.30175 0.27675
 H3084 H 0.62323 0.31200 0.28697
 H3085 H 0.60988 0.29855 0.32514
 H3086 H 0.59027 0.28875 0.31505
 H3087 H 0.58274 0.27123 0.30195
 H3088 H 0.56265 0.26187 0.29248
 H3089 H 0.56160 0.29381 0.26391
 H3090 H 0.58103 0.30376 0.27408
 H3091 H 0.53907 0.29052 0.26727
 H3092 H 0.51903 0.28124 0.25747
 H3093 H 0.53313 0.24148 0.26557
 H3094 H 0.55368 0.25064 0.27450
 C3095 C 0.59463 0.79437 0.79534
 C3096 C 0.59658 0.79380 0.80906
 C3097 C 0.60787 0.79941 0.81480
 C3098 C 0.61741 0.80586 0.80699
 C3099 C 0.61546 0.80653 0.79330
 C3100 C 0.60425 0.80078 0.78753
 C3101 C 0.58259 0.78838 0.78922
 C3102 C 0.57648 0.79447 0.77831
 C3103 C 0.56513 0.78893 0.77263
 C3104 C 0.55946 0.77723 0.77781
 C3105 C 0.56559 0.77111 0.78870
 C3106 C 0.57705 0.77657 0.79428
 C3107 C 0.54713 0.77156 0.77198
 C3108 C 0.54511 0.75768 0.77144
 C3109 C 0.53345 0.75242 0.76610
 C3110 C 0.52368 0.76090 0.76090
 C3111 C 0.52564 0.77474 0.76146
 C3112 C 0.53718 0.78001 0.76698
 H3113 H 0.58927 0.78920 0.81542
 H3114 H 0.60901 0.79887 0.82539
 H3115 H 0.62272 0.81128 0.78699
 H3116 H 0.60323 0.80120 0.77692
 H3117 H 0.58035 0.80366 0.77424
 H3118 H 0.56084 0.79381 0.76413
 H3119 H 0.56144 0.76219 0.79306
 H3120 H 0.58159 0.77147 0.80252
 H3121 H 0.55259 0.75084 0.77505
 H3122 H 0.53208 0.74171 0.76598
 H3123 H 0.51821 0.78149 0.75757
 H3124 H 0.53823 0.79074 0.76747
 C3125 C 0.09491 0.29434 0.79529
 C3126 C 0.10442 0.30104 0.78760
 C3127 C 0.11544 0.30704 0.79348
 C3128 C 0.11733 0.30630 0.80717
 C3129 C 0.10794 0.29950 0.81487
 C3130 C 0.09681 0.29367 0.80902
 C3131 C 0.08301 0.28820 0.78906
 C3132 C 0.07758 0.27630 0.79403
 C3133 C 0.06621 0.27075 0.78837
 C3134 C 0.06007 0.27685 0.77748
 C3135 C 0.06566 0.28861 0.77236
 C3136 C 0.07691 0.29426 0.77813
 C3137 C 0.04778 0.27113 0.77161
 C3138 C 0.03781 0.27957 0.76664
 C3139 C 0.02628 0.27428 0.76113
 C3140 C 0.02435 0.26044 0.76055
 C3141 C 0.03415 0.25196 0.76571
 C3142 C 0.04581 0.25724 0.77105
 H3143 H 0.10346 0.30153 0.77698
 H3144 H 0.12261 0.31204 0.78726
 H3145 H 0.10906 0.29889 0.82546
 H3146 H 0.08959 0.28884 0.81530
 H3147 H 0.08212 0.27122 0.80229
 H3148 H 0.06212 0.26177 0.79269
 H3149 H 0.06137 0.29348 0.76385
 H3150 H 0.08068 0.30352 0.77412
 H3151 H 0.03881 0.29030 0.76716
 H3152 H 0.01883 0.28102 0.75727
 H3153 H 0.03280 0.24125 0.76559
 H3154 H 0.05331 0.25043 0.77464
 C3155 C 0.09525 0.79484 0.29516
 C3156 C 0.10483 0.80134 0.28739
 C3157 C 0.11600 0.80716 0.29319
 C3158 C 0.11793 0.80647 0.30688
 C3159 C 0.10842 0.79994 0.31466
 C3160 C 0.09717 0.79426 0.30888
 C3161 C 0.08327 0.78877 0.28901
 C3162 C 0.07780 0.77691 0.29404
 C3163 C 0.06639 0.77138 0.28845
 C3164 C 0.06021 0.77748 0.27758
 C3165 C 0.06581 0.78922 0.27242
 C3166 C 0.07712 0.79483 0.27811
 C3167 C 0.04789 0.77175 0.27177
 C3168 C 0.03788 0.78017 0.26686
 C3169 C 0.02632 0.77486 0.26139
 C3170 C 0.02443 0.76102 0.26080
 C3171 C 0.03428 0.75256 0.26590
 C3172 C 0.04595 0.75786 0.27120
 H3173 H 0.10383 0.80177 0.27677
 H3174 H 0.12323 0.81197 0.28690
 H3175 H 0.10954 0.79938 0.32525
 H3176 H 0.08989 0.78960 0.31522
 H3177 H 0.08238 0.77183 0.30229
 H3178 H 0.06230 0.76242 0.29280
 H3179 H 0.06148 0.79409 0.26392
 H3180 H 0.08093 0.80405 0.27405
 H3181 H 0.03887 0.79091 0.26738
 H3182 H 0.01884 0.78159 0.25758
 H3183 H 0.03296 0.74185 0.26576
 H3184 H 0.05348 0.75106 0.27474
 C3185 C 0.59450 0.70615 0.70472
 C3186 C 0.59653 0.70711 0.69103
 C3187 C 0.60764 0.70127 0.68513
 C3188 C 0.61688 0.69417 0.69274
 C3189 C 0.61487 0.69315 0.70640
 C3190 C 0.60388 0.69916 0.71233
 C3191 C 0.58259 0.71227 0.71100
 C3192 C 0.57636 0.70605 0.72178
 C3193 C 0.56510 0.71166 0.72757
 C3194 C 0.55960 0.72355 0.72262
 C3195 C 0.56586 0.72980 0.71188
 C3196 C 0.57725 0.72429 0.70621
 C3197 C 0.54728 0.72924 0.72850
 C3198 C 0.54530 0.74312 0.72915
 C3199 C 0.53363 0.74838 0.73449
 C3200 C 0.52381 0.73989 0.73959
 C3201 C 0.52575 0.72605 0.73895
 C3202 C 0.53729 0.72078 0.73341
 H3203 H 0.58942 0.71217 0.68479
 H3204 H 0.60886 0.70210 0.67456
 H3205 H 0.62193 0.68791 0.71255
 H3206 H 0.60283 0.69845 0.72293
 H3207 H 0.58005 0.69670 0.72565
 H3208 H 0.56073 0.70667 0.73597
 H3209 H 0.56185 0.73886 0.70767
 H3210 H 0.58189 0.72950 0.69808
 H3211 H 0.55281 0.74996 0.72562
 H3212 H 0.53226 0.75909 0.73465
 H3213 H 0.51829 0.71929 0.74276
 H3214 H 0.53828 0.71006 0.73283
 C3215 C 0.59509 0.20575 0.20446
 C3216 C 0.59696 0.20641 0.19073
 C3217 C 0.60808 0.20059 0.18485
 C3218 C 0.61748 0.19379 0.19252
 C3219 C 0.61563 0.19305 0.20622
 C3220 C 0.60462 0.19905 0.21213
 C3221 C 0.58321 0.21190 0.21072
 C3222 C 0.57712 0.20583 0.22166
 C3223 C 0.56588 0.21149 0.22745
 C3224 C 0.56028 0.22326 0.22234
 C3225 C 0.56640 0.22936 0.21144
 C3226 C 0.57776 0.22380 0.20576
 C3227 C 0.54800 0.22898 0.22823
 C3228 C 0.54603 0.24286 0.22879
 C3229 C 0.53438 0.24815 0.23414
 C3230 C 0.52458 0.23969 0.23932
 C3231 C 0.52650 0.22584 0.23875
 C3232 C 0.53803 0.22055 0.23322
 H3233 H 0.58972 0.21124 0.18446
 H3234 H 0.60918 0.20119 0.17425
 H3235 H 0.62282 0.18805 0.21242
 H3236 H 0.60368 0.19857 0.22275
 H3237 H 0.58090 0.19658 0.22566
 H3238 H 0.56160 0.20662 0.23597
 H3239 H 0.56230 0.23833 0.20713
 H3240 H 0.58230 0.22888 0.19750
 H3241 H 0.55352 0.24968 0.22519
 H3242 H 0.53302 0.25886 0.23427
 H3243 H 0.51906 0.21911 0.24262
 H3244 H 0.53904 0.20981 0.23270
 C3245 C 0.09500 0.70632 0.20436
 C3246 C 0.09694 0.70709 0.19064
 C3247 C 0.10807 0.70128 0.18476
 C3248 C 0.11743 0.69439 0.19242
 C3249 C 0.11551 0.69356 0.20611
 C3250 C 0.10449 0.69954 0.21202
 C3251 C 0.08309 0.71243 0.21063
 C3252 C 0.07696 0.70628 0.22150
 C3253 C 0.06571 0.71191 0.22731
 C3254 C 0.06014 0.72373 0.22230
 C3255 C 0.06629 0.72990 0.21145
 C3256 C 0.07766 0.72437 0.20575
 C3257 C 0.04786 0.72943 0.22822
 C3258 C 0.04589 0.74331 0.22887
 C3259 C 0.03425 0.74858 0.23427
 C3260 C 0.02445 0.74009 0.23941
 C3261 C 0.02637 0.72625 0.23876
 C3262 C 0.03789 0.72098 0.23318
 H3263 H 0.08974 0.71199 0.18438
 H3264 H 0.10922 0.70197 0.17417
 H3265 H 0.12266 0.68849 0.21230
 H3266 H 0.10351 0.69897 0.22262
 H3267 H 0.08072 0.69699 0.22544
 H3268 H 0.06141 0.70698 0.23579
 H3269 H 0.06222 0.73891 0.20720
 H3270 H 0.08222 0.72951 0.19753
 H3271 H 0.05339 0.75014 0.22530
 H3272 H 0.03290 0.75929 0.23445
 H3273 H 0.01893 0.71950 0.24260
 H3274 H 0.03888 0.71025 0.23260
 C3275 C 0.09498 0.20538 0.70467
 C3276 C 0.09692 0.20609 0.69095
 C3277 C 0.10812 0.20037 0.68512
 C3278 C 0.11757 0.19367 0.69284
 C3279 C 0.11562 0.19286 0.70652
 C3280 C 0.10451 0.19872 0.71238
 C3281 C 0.08305 0.21150 0.71088
 C3282 C 0.07686 0.20540 0.72174
 C3283 C 0.06559 0.21106 0.72748
 C3284 C 0.06007 0.22288 0.72240
 C3285 C 0.06629 0.22901 0.71157
 C3286 C 0.07767 0.22344 0.70594
 C3287 C 0.04778 0.22864 0.72825
 C3288 C 0.04587 0.24253 0.72885
 C3289 C 0.03422 0.24786 0.73415
 C3290 C 0.02434 0.23944 0.73923
 C3291 C 0.02619 0.22559 0.73863
 C3292 C 0.03774 0.22024 0.73315
 H3293 H 0.08968 0.21089 0.68466
 H3294 H 0.10925 0.20103 0.67454
 H3295 H 0.12281 0.18790 0.71275
 H3296 H 0.10350 0.19820 0.72299
 H3297 H 0.08060 0.19612 0.72573
 H3298 H 0.06124 0.20617 0.73595
 H3299 H 0.06226 0.23803 0.70729
 H3300 H 0.08228 0.22856 0.69774
 H3301 H 0.05344 0.24932 0.72534
 H3302 H 0.03292 0.25858 0.73430
 H3303 H 0.01869 0.21888 0.74243
 H3304 H 0.03869 0.20951 0.73262
 C3305 C 0.40502 0.70509 0.29393
 C3306 C 0.40277 0.69126 0.29309
 C3307 C 0.39162 0.68551 0.29900
 C3308 C 0.38257 0.69341 0.30605
 C3309 C 0.38478 0.70720 0.30692
 C3310 C 0.39581 0.71298 0.30085
 C3311 C 0.41699 0.71121 0.28781
 C3312 C 0.42341 0.72203 0.29390
 C3313 C 0.43472 0.72770 0.28828
 C3314 C 0.44009 0.72259 0.27652
 C3315 C 0.43365 0.71181 0.27039
 C3316 C 0.42220 0.70625 0.27592
 C3317 C 0.45245 0.72836 0.27084
 C3318 C 0.45434 0.72907 0.25711
 C3319 C 0.46603 0.73441 0.25187
 C3320 C 0.47594 0.73942 0.26024
 C3321 C 0.47411 0.73866 0.27392
 C3322 C 0.46255 0.73313 0.27917
 H3323 H 0.40975 0.68481 0.28808
 H3324 H 0.39024 0.67483 0.29827
 H3325 H 0.37788 0.71357 0.31213
 H3326 H 0.39702 0.72369 0.30148
 H3327 H 0.41983 0.72602 0.30315
 H3328 H 0.43923 0.73615 0.29317
 H3329 H 0.43755 0.70749 0.26142
 H3330 H 0.41743 0.69808 0.27082
 H3331 H 0.44675 0.72564 0.25038
 H3332 H 0.46731 0.73468 0.24128
 H3333 H 0.48164 0.74239 0.28058
 H3334 H 0.46163 0.73246 0.28977
 C3335 C 0.40473 0.20497 0.79352
 C3336 C 0.39565 0.21296 0.80051
 C3337 C 0.38449 0.20732 0.80648
 C3338 C 0.38200 0.19360 0.80541
 C3339 C 0.39090 0.18561 0.79827
 C3340 C 0.40219 0.19121 0.79248
 C3341 C 0.41684 0.21095 0.78750
 C3342 C 0.42203 0.20600 0.77559
 C3343 C 0.43353 0.21147 0.77010
 C3344 C 0.44007 0.22216 0.77629
 C3345 C 0.43476 0.22724 0.78809
 C3346 C 0.42339 0.22164 0.79367
 C3347 C 0.45245 0.22792 0.77059
 C3348 C 0.46255 0.23272 0.77890
 C3349 C 0.47408 0.23830 0.77363
 C3350 C 0.47588 0.23909 0.75994
 C3351 C 0.46598 0.23403 0.75160
 C3352 C 0.45432 0.22866 0.75685
 H3353 H 0.39707 0.22363 0.80128
 H3354 H 0.37770 0.21375 0.81176
 H3355 H 0.38930 0.17497 0.79740
 H3356 H 0.40906 0.18468 0.78742
 H3357 H 0.41716 0.19792 0.77042
 H3358 H 0.43739 0.20717 0.76110
 H3359 H 0.43934 0.23561 0.79303
 H3360 H 0.41985 0.22561 0.80295
 H3361 H 0.46166 0.23205 0.78950
 H3362 H 0.48160 0.24206 0.78028
 H3363 H 0.46724 0.23429 0.74100
 H3364 H 0.44672 0.22521 0.75013
 C3365 C 0.90484 0.70492 0.79386
 C3366 C 0.89551 0.71285 0.80056
 C3367 C 0.88446 0.70707 0.80661
 C3368 C 0.88236 0.69325 0.80593
 C3369 C 0.89155 0.68532 0.79909
 C3370 C 0.90271 0.69107 0.79320
 C3371 C 0.91684 0.71103 0.78778
 C3372 C 0.92216 0.70598 0.77597
 C3373 C 0.93362 0.71153 0.77048
 C3374 C 0.93999 0.72238 0.77657
 C3375 C 0.93453 0.72757 0.78825
 C3376 C 0.92318 0.72191 0.79383
 C3377 C 0.95237 0.72814 0.77092
 C3378 C 0.96243 0.73296 0.77927
 C3379 C 0.97400 0.73849 0.77405
 C3380 C 0.97588 0.73921 0.76037
 C3381 C 0.96601 0.73416 0.75198
 C3382 C 0.95431 0.72882 0.75719
 H3383 H 0.89665 0.72357 0.80105
 H3384 H 0.87746 0.71348 0.81165
 H3385 H 0.89029 0.67462 0.79854
 H3386 H 0.90979 0.68460 0.78836
 H3387 H 0.91744 0.69775 0.77091
 H3388 H 0.93761 0.70716 0.76156
 H3389 H 0.93899 0.73606 0.79311
 H3390 H 0.91951 0.72596 0.80302
 H3391 H 0.96145 0.73234 0.78987
 H3392 H 0.98150 0.74226 0.78073
 H3393 H 0.96733 0.73440 0.74139
 H3394 H 0.94675 0.72534 0.75045
 C3395 C 0.90504 0.20598 0.29537
 C3396 C 0.89565 0.19909 0.28770
 C3397 C 0.88466 0.19304 0.29359
 C3398 C 0.88267 0.19391 0.30726
 C3399 C 0.89194 0.20090 0.31493
 C3400 C 0.90304 0.20678 0.30908
 C3401 C 0.91694 0.21214 0.28914
 C3402 C 0.92223 0.22415 0.29399
 C3403 C 0.93362 0.22972 0.28836
 C3404 C 0.93991 0.22351 0.27762
 C3405 C 0.93446 0.21164 0.27261
 C3406 C 0.92320 0.20598 0.27835
 C3407 C 0.95223 0.22923 0.27180
 C3408 C 0.96231 0.22078 0.26705
 C3409 C 0.97385 0.22607 0.26154
 C3410 C 0.97568 0.23991 0.26075
 C3411 C 0.96578 0.24840 0.26572
 C3412 C 0.95412 0.24312 0.27105
 H3413 H 0.89670 0.19848 0.27710
 H3414 H 0.87759 0.18789 0.28738
 H3415 H 0.89074 0.20162 0.32551
 H3416 H 0.91017 0.21177 0.31535
 H3417 H 0.91757 0.22931 0.30214
 H3418 H 0.93759 0.23878 0.29259
 H3419 H 0.93888 0.20669 0.26421
 H3420 H 0.91953 0.19665 0.27443
 H3421 H 0.96137 0.21006 0.26773
 H3422 H 0.98138 0.21932 0.25784
 H3423 H 0.96707 0.25911 0.26544
 H3424 H 0.94654 0.24993 0.27447
 C3425 C 0.29502 0.29345 0.59538
 C3426 C 0.30872 0.29242 0.59785
 C3427 C 0.31426 0.29799 0.60921
 C3428 C 0.30627 0.30488 0.61828
 C3429 C 0.29261 0.30598 0.61582
 C3430 C 0.28703 0.30025 0.60456
 C3431 C 0.28911 0.28756 0.58325
 C3432 C 0.27852 0.29392 0.57678
 C3433 C 0.27300 0.28845 0.56538
 C3434 C 0.27804 0.27656 0.56000
 C3435 C 0.28864 0.27018 0.56646
 C3436 C 0.29405 0.27557 0.57797
 C3437 C 0.27236 0.27093 0.54764
 C3438 C 0.27147 0.25705 0.54574
 C3439 C 0.26615 0.25184 0.53410
 C3440 C 0.26133 0.26038 0.52423
 C3441 C 0.26229 0.27422 0.52605
 C3442 C 0.26779 0.27943 0.53758
 H3443 H 0.31523 0.28751 0.59089
 H3444 H 0.32485 0.29713 0.61074
 H3445 H 0.28617 0.31109 0.62270
 H3446 H 0.27642 0.30103 0.60314
 H3447 H 0.27457 0.30326 0.58042
 H3448 H 0.26471 0.29354 0.56083
 H3449 H 0.29291 0.26111 0.56254
 H3450 H 0.30205 0.27027 0.58278
 H3451 H 0.27474 0.25019 0.55330
 H3452 H 0.26573 0.24113 0.53283
 H3453 H 0.25871 0.28101 0.51855
 H3454 H 0.26858 0.29015 0.53852
 C3455 C 0.29592 0.79412 0.09507
 C3456 C 0.30963 0.79302 0.09749
 C3457 C 0.31527 0.79872 0.10875
 C3458 C 0.30738 0.80583 0.11773
 C3459 C 0.29371 0.80698 0.11533
 C3460 C 0.28803 0.80110 0.10420
 C3461 C 0.28989 0.78815 0.08302
 C3462 C 0.27924 0.79447 0.07662
 C3463 C 0.27359 0.78893 0.06531
 C3464 C 0.27857 0.77701 0.05993
 C3465 C 0.28924 0.77068 0.06632
 C3466 C 0.29476 0.77612 0.07776
 C3467 C 0.27277 0.77135 0.04763
 C3468 C 0.27200 0.75746 0.04571
 C3469 C 0.26663 0.75222 0.03411
 C3470 C 0.26162 0.76073 0.02431
 C3471 C 0.26243 0.77457 0.02617
 C3472 C 0.26800 0.77982 0.03764
 H3473 H 0.31608 0.78797 0.09058
 H3474 H 0.32586 0.79780 0.11028
 H3475 H 0.28735 0.81224 0.12218
 H3476 H 0.27741 0.80191 0.10286
 H3477 H 0.27533 0.80384 0.08022
 H3478 H 0.26524 0.79399 0.06083
 H3479 H 0.29348 0.76159 0.06240
 H3480 H 0.30281 0.77084 0.08251
 H3481 H 0.27542 0.75061 0.05322
 H3482 H 0.26634 0.74151 0.03281
 H3483 H 0.25869 0.78134 0.01872
 H3484 H 0.26869 0.79054 0.03858
 C3485 C 0.79557 0.29391 0.09459
 C3486 C 0.78778 0.30087 0.10381
 C3487 C 0.79360 0.30689 0.11480
 C3488 C 0.80733 0.30593 0.11694
 C3489 C 0.81512 0.29884 0.10786
 C3490 C 0.80933 0.29298 0.09676
 C3491 C 0.78941 0.28782 0.08268
 C3492 C 0.79425 0.27577 0.07745
 C3493 C 0.78866 0.27026 0.06609
 C3494 C 0.77795 0.27656 0.05973
 C3495 C 0.77296 0.28847 0.06510
 C3496 C 0.77867 0.29408 0.07635
 C3497 C 0.77215 0.27088 0.04745
 C3498 C 0.76746 0.27935 0.03742
 C3499 C 0.76192 0.27411 0.02593
 C3500 C 0.76103 0.26027 0.02412
 C3501 C 0.76594 0.25176 0.03396
 C3502 C 0.77131 0.25700 0.04557
 H3503 H 0.77713 0.30157 0.10265
 H3504 H 0.78730 0.31212 0.12173
 H3505 H 0.82575 0.29804 0.10918
 H3506 H 0.81570 0.28793 0.08977
 H3507 H 0.80236 0.27054 0.08217
 H3508 H 0.79288 0.26116 0.06217
 H3509 H 0.76458 0.29350 0.06065
 H3510 H 0.77477 0.30345 0.07995
 H3511 H 0.76822 0.29008 0.03834
 H3512 H 0.75826 0.28088 0.01845
 H3513 H 0.76558 0.24104 0.03269
 H3514 H 0.77467 0.25015 0.05311
 C3515 C 0.79549 0.79365 0.59553
 C3516 C 0.80921 0.79255 0.59789
 C3517 C 0.81489 0.79825 0.60913
 C3518 C 0.80704 0.80536 0.61814
 C3519 C 0.79337 0.80650 0.61581
 C3520 C 0.78764 0.80062 0.60470
 C3521 C 0.78941 0.78769 0.58349
 C3522 C 0.77874 0.79403 0.57713
 C3523 C 0.77306 0.78851 0.56582
 C3524 C 0.77804 0.77661 0.56040
 C3525 C 0.78872 0.77027 0.56675
 C3526 C 0.79427 0.77568 0.57819
 C3527 C 0.77222 0.77098 0.54810
 C3528 C 0.77142 0.75710 0.54615
 C3529 C 0.76605 0.75189 0.53454
 C3530 C 0.76106 0.76043 0.52475
 C3531 C 0.76189 0.77426 0.52663
 C3532 C 0.76746 0.77948 0.53812
 H3533 H 0.81563 0.78751 0.59095
 H3534 H 0.82549 0.79734 0.61061
 H3535 H 0.78703 0.81176 0.62269
 H3536 H 0.77701 0.80143 0.60340
 H3537 H 0.77483 0.80338 0.58077
 H3538 H 0.76471 0.79359 0.56137
 H3539 H 0.79295 0.76119 0.56279
 H3540 H 0.80234 0.77039 0.58290
 H3541 H 0.77483 0.75023 0.55365
 H3542 H 0.76574 0.74118 0.53322
 H3543 H 0.75818 0.78105 0.51919
 H3544 H 0.76817 0.79020 0.53909
 C3545 C 0.29530 0.70643 0.40421
 C3546 C 0.28730 0.69960 0.39506
 C3547 C 0.29286 0.69387 0.38378
 C3548 C 0.30651 0.69499 0.38127
 C3549 C 0.31451 0.70190 0.39031
 C3550 C 0.30899 0.70747 0.40169
 C3551 C 0.28941 0.71233 0.41636
 C3552 C 0.29433 0.72433 0.42160
 C3553 C 0.28894 0.72973 0.43313
 C3554 C 0.27837 0.72336 0.43963
 C3555 C 0.27334 0.71146 0.43428
 C3556 C 0.27884 0.70597 0.42287
 C3557 C 0.27270 0.72901 0.45199
 C3558 C 0.26815 0.72052 0.46207
 C3559 C 0.26265 0.72575 0.47359
 C3560 C 0.26167 0.73958 0.47540
 C3561 C 0.26648 0.74811 0.46552
 C3562 C 0.27180 0.74289 0.45388
 H3563 H 0.27669 0.69881 0.39651
 H3564 H 0.28642 0.68874 0.37692
 H3565 H 0.32509 0.70279 0.38874
 H3566 H 0.31551 0.71240 0.40862
 H3567 H 0.30232 0.72963 0.41677
 H3568 H 0.29321 0.73881 0.43703
 H3569 H 0.26506 0.70638 0.43886
 H3570 H 0.27490 0.69662 0.41926
 H3571 H 0.26895 0.70980 0.46114
 H3572 H 0.25908 0.71896 0.48111
 H3573 H 0.26606 0.75883 0.46678
 H3574 H 0.27505 0.74975 0.44630
 C3575 C 0.29566 0.20656 0.90441
 C3576 C 0.30935 0.20776 0.90194
 C3577 C 0.31501 0.20205 0.89070
 C3578 C 0.30717 0.19482 0.88178
 C3579 C 0.29352 0.19358 0.88422
 C3580 C 0.28781 0.19947 0.89533
 C3581 C 0.28961 0.21252 0.91646
 C3582 C 0.27906 0.20609 0.92293
 C3583 C 0.27340 0.21161 0.93425
 C3584 C 0.27828 0.22359 0.93957
 C3585 C 0.28883 0.23002 0.93311
 C3586 C 0.29437 0.22461 0.92166
 C3587 C 0.27247 0.22921 0.95188
 C3588 C 0.27149 0.24309 0.95376
 C3589 C 0.26608 0.24828 0.96537
 C3590 C 0.26125 0.23972 0.97522
 C3591 C 0.26229 0.22589 0.97342
 C3592 C 0.26789 0.22070 0.96193
 H3593 H 0.31577 0.21291 0.90881
 H3594 H 0.32560 0.20304 0.88914
 H3595 H 0.28718 0.18823 0.87742
 H3596 H 0.27720 0.19858 0.89672
 H3597 H 0.27524 0.19668 0.91936
 H3598 H 0.26513 0.20647 0.93878
 H3599 H 0.29298 0.23917 0.93699
 H3600 H 0.30234 0.22996 0.91685
 H3601 H 0.27476 0.24996 0.94621
 H3602 H 0.26562 0.25899 0.96664
 H3603 H 0.25871 0.21909 0.98090
 H3604 H 0.26876 0.20998 0.96102
 C3605 C 0.79530 0.70605 0.90422
 C3606 C 0.78734 0.69917 0.89508
 C3607 C 0.79294 0.69343 0.88382
 C3608 C 0.80659 0.69460 0.88133
 C3609 C 0.81455 0.70156 0.89037
 C3610 C 0.80899 0.70713 0.90172
 C3611 C 0.78937 0.71195 0.91635
 C3612 C 0.79424 0.72398 0.92159
 C3613 C 0.78882 0.72937 0.93310
 C3614 C 0.77826 0.72298 0.93960
 C3615 C 0.77327 0.71105 0.93425
 C3616 C 0.77881 0.70556 0.92285
 C3617 C 0.77254 0.72861 0.95195
 C3618 C 0.76798 0.72012 0.96202
 C3619 C 0.76246 0.72534 0.97353
 C3620 C 0.76146 0.73918 0.97534
 C3621 C 0.76628 0.74771 0.96546
 C3622 C 0.77162 0.74250 0.95383
 H3623 H 0.77673 0.69835 0.89651
 H3624 H 0.78652 0.68827 0.87696
 H3625 H 0.82513 0.70248 0.88881
 H3626 H 0.81548 0.71210 0.90865
 H3627 H 0.80222 0.72930 0.91676
 H3628 H 0.79305 0.73847 0.93699
 H3629 H 0.76500 0.70594 0.93882
 H3630 H 0.77490 0.69620 0.91925
 H3631 H 0.76880 0.70940 0.96110
 H3632 H 0.75889 0.71856 0.98105
 H3633 H 0.76584 0.75843 0.96672
 H3634 H 0.77488 0.74936 0.94626
 C3635 C 0.79506 0.20558 0.40489
 C3636 C 0.80885 0.20624 0.40278
 C3637 C 0.81454 0.20056 0.39154
 C3638 C 0.80663 0.19394 0.38223
 C3639 C 0.79288 0.19320 0.38433
 C3640 C 0.78715 0.19903 0.39548
 C3641 C 0.78900 0.21159 0.41689
 C3642 C 0.77813 0.20546 0.42312
 C3643 C 0.77252 0.21101 0.43445
 C3644 C 0.77773 0.22274 0.43999
 C3645 C 0.78857 0.22891 0.43374
 C3646 C 0.79408 0.22345 0.42230
 C3647 C 0.77198 0.22840 0.45231
 C3648 C 0.77138 0.24228 0.45431
 C3649 C 0.76607 0.24752 0.46594
 C3650 C 0.76099 0.23901 0.47571
 C3651 C 0.76163 0.22518 0.47378
 C3652 C 0.76712 0.21993 0.46225
 H3653 H 0.81530 0.21095 0.40992
 H3654 H 0.82519 0.20116 0.39028
 H3655 H 0.78650 0.18831 0.37725
 H3656 H 0.77649 0.19853 0.39662
 H3657 H 0.77405 0.19623 0.41936
 H3658 H 0.76403 0.20609 0.43883
 H3659 H 0.79296 0.23786 0.43779
 H3660 H 0.80230 0.22858 0.41767
 H3661 H 0.77488 0.24913 0.44683
 H3662 H 0.76589 0.25823 0.46730
 H3663 H 0.75783 0.21841 0.48119
 H3664 H 0.76767 0.20920 0.46123
 C3665 C 0.70474 0.29367 0.40534
 C3666 C 0.69097 0.29285 0.40323
 C3667 C 0.68517 0.29872 0.39214
 C3668 C 0.69298 0.30572 0.38300
 C3669 C 0.70672 0.30659 0.38509
 C3670 C 0.71255 0.30055 0.39607
 C3671 C 0.71092 0.28754 0.41724
 C3672 C 0.72175 0.29371 0.42349
 C3673 C 0.72748 0.28807 0.43472
 C3674 C 0.72240 0.27622 0.44016
 C3675 C 0.71160 0.27002 0.43389
 C3676 C 0.70599 0.27556 0.42253
 C3677 C 0.72823 0.27052 0.45243
 C3678 C 0.72891 0.25663 0.45436
 C3679 C 0.73428 0.25136 0.46595
 C3680 C 0.73936 0.25984 0.47573
 C3681 C 0.73865 0.27368 0.47386
 C3682 C 0.73309 0.27896 0.46239
 H3683 H 0.68459 0.28787 0.41027
 H3684 H 0.67454 0.29801 0.39086
 H3685 H 0.71303 0.31175 0.37812
 H3686 H 0.72321 0.30115 0.39719
 H3687 H 0.72572 0.30303 0.41984
 H3688 H 0.73593 0.29302 0.43911
 H3689 H 0.70731 0.26098 0.43785
 H3690 H 0.69781 0.27040 0.41788
 H3691 H 0.72541 0.24980 0.44688
 H3692 H 0.73450 0.24064 0.46727
 H3693 H 0.74244 0.28043 0.48129
 H3694 H 0.73247 0.28969 0.46143
 C3695 C 0.70448 0.79328 0.90506
 C3696 C 0.69071 0.79232 0.90293
 C3697 C 0.68486 0.79820 0.89187
 C3698 C 0.69260 0.80533 0.88278
 C3699 C 0.70633 0.80632 0.88487
 C3700 C 0.71222 0.80029 0.89582
 C3701 C 0.71072 0.78719 0.91694
 C3702 C 0.72146 0.79347 0.92323
 C3703 C 0.72723 0.78787 0.93445
 C3704 C 0.72231 0.77594 0.93984
 C3705 C 0.71160 0.76961 0.93352
 C3706 C 0.70593 0.77512 0.92218
 C3707 C 0.72819 0.77027 0.95209
 C3708 C 0.72911 0.75639 0.95397
 C3709 C 0.73456 0.75116 0.96554
 C3710 C 0.73947 0.75969 0.97537
 C3711 C 0.73849 0.77353 0.97356
 C3712 C 0.73287 0.77876 0.96211
 H3713 H 0.68439 0.78724 0.90994
 H3714 H 0.67423 0.79738 0.89059
 H3715 H 0.71259 0.81158 0.87793
 H3716 H 0.72287 0.80100 0.89694
 H3717 H 0.72531 0.80286 0.91962
 H3718 H 0.73561 0.79292 0.93887
 H3719 H 0.70742 0.76050 0.93745
 H3720 H 0.69782 0.76988 0.91750
 H3721 H 0.72575 0.74954 0.94644
 H3722 H 0.73499 0.74045 0.96681
 H3723 H 0.74214 0.78031 0.98103
 H3724 H 0.73205 0.78948 0.96119
 C3725 C 0.20498 0.29391 0.90464
 C3726 C 0.19121 0.29311 0.90247
 C3727 C 0.18550 0.29887 0.89128
 C3728 C 0.19337 0.30571 0.88208
 C3729 C 0.20711 0.30657 0.88424
 C3730 C 0.21285 0.30067 0.89534
 C3731 C 0.21106 0.28785 0.91661
 C3732 C 0.22180 0.29407 0.92295
 C3733 C 0.22744 0.28848 0.93424
 C3734 C 0.22239 0.27660 0.93964
 C3735 C 0.21167 0.27034 0.93327
 C3736 C 0.20613 0.27585 0.92187
 C3737 C 0.22816 0.27090 0.95193
 C3738 C 0.22901 0.25701 0.95379
 C3739 C 0.23438 0.25175 0.96539
 C3740 C 0.23927 0.26024 0.97525
 C3741 C 0.23835 0.27409 0.97346
 C3742 C 0.23281 0.27936 0.96198
 H3743 H 0.18479 0.28823 0.90953
 H3744 H 0.17486 0.29817 0.88998
 H3745 H 0.21347 0.31162 0.87725
 H3746 H 0.22351 0.30128 0.89653
 H3747 H 0.22576 0.30341 0.91931
 H3748 H 0.23583 0.29347 0.93872
 H3749 H 0.20740 0.26127 0.93720
 H3750 H 0.19801 0.27065 0.91715
 H3751 H 0.22567 0.25018 0.94623
 H3752 H 0.23477 0.24103 0.96664
 H3753 H 0.24198 0.28084 0.98096
 H3754 H 0.23205 0.29008 0.96106
 C3755 C 0.20479 0.79379 0.40508
 C3756 C 0.19104 0.79283 0.40291
 C3757 C 0.18521 0.79872 0.39183
 C3758 C 0.19297 0.80587 0.38277
 C3759 C 0.20670 0.80686 0.38491
 C3760 C 0.21255 0.80081 0.39587
 C3761 C 0.21100 0.78767 0.41696
 C3762 C 0.22173 0.79394 0.42329
 C3763 C 0.22749 0.78832 0.43450
 C3764 C 0.22256 0.77636 0.43985
 C3765 C 0.21187 0.77005 0.43350
 C3766 C 0.20622 0.77559 0.42216
 C3767 C 0.22842 0.77068 0.45211
 C3768 C 0.22935 0.75679 0.45397
 C3769 C 0.23478 0.75156 0.46555
 C3770 C 0.23967 0.76008 0.47540
 C3771 C 0.23868 0.77391 0.47361
 C3772 C 0.23306 0.77915 0.46215
 H3773 H 0.18469 0.78773 0.40989
 H3774 H 0.17459 0.79790 0.39052
 H3775 H 0.21298 0.81213 0.37800
 H3776 H 0.22320 0.80154 0.39703
 H3777 H 0.22558 0.80334 0.41971
 H3778 H 0.23586 0.79335 0.43895
 H3779 H 0.20769 0.76092 0.43740
 H3780 H 0.19812 0.77035 0.41745
 H3781 H 0.22601 0.74995 0.44642
 H3782 H 0.23522 0.74084 0.46681
 H3783 H 0.24230 0.78069 0.48109
 H3784 H 0.23224 0.78988 0.46125
 C3785 C 0.70481 0.70617 0.59535
 C3786 C 0.71267 0.69953 0.60475
 C3787 C 0.70689 0.69369 0.61587
 C3788 C 0.69314 0.69450 0.61795
 C3789 C 0.68528 0.70121 0.60865
 C3790 C 0.69103 0.70690 0.59744
 C3791 C 0.71094 0.71219 0.58337
 C3792 C 0.70595 0.72411 0.57798
 C3793 C 0.71153 0.72959 0.56659
 C3794 C 0.72237 0.72339 0.56035
 C3795 C 0.72748 0.71158 0.56586
 C3796 C 0.72179 0.70601 0.57715
 C3797 C 0.72820 0.72907 0.54808
 C3798 C 0.73304 0.72061 0.53811
 C3799 C 0.73857 0.72588 0.52662
 C3800 C 0.73931 0.73972 0.52474
 C3801 C 0.73427 0.74822 0.53453
 C3802 C 0.72890 0.74296 0.54614
 H3803 H 0.72333 0.69898 0.60363
 H3804 H 0.71324 0.68875 0.62295
 H3805 H 0.67463 0.70186 0.60989
 H3806 H 0.68462 0.71168 0.59030
 H3807 H 0.69774 0.72927 0.58260
 H3808 H 0.70721 0.73859 0.56257
 H3809 H 0.73594 0.70663 0.56149
 H3810 H 0.72580 0.69674 0.58088
 H3811 H 0.73241 0.70989 0.53909
 H3812 H 0.74234 0.71912 0.51918
 H3813 H 0.73452 0.75893 0.53322
 H3814 H 0.72542 0.74979 0.55363
 C3815 C 0.70504 0.20622 0.09492
 C3816 C 0.71293 0.19951 0.10424
 C3817 C 0.70721 0.19362 0.11536
 C3818 C 0.69348 0.19445 0.11752
 C3819 C 0.68557 0.20125 0.10831
 C3820 C 0.69127 0.20699 0.09710
 C3821 C 0.71110 0.21225 0.08293
 C3822 C 0.70613 0.22421 0.07762
 C3823 C 0.71165 0.22968 0.06618
 C3824 C 0.72238 0.22342 0.05984
 C3825 C 0.72748 0.21158 0.06528
 C3826 C 0.72186 0.20602 0.07660
 C3827 C 0.72812 0.22907 0.04751
 C3828 C 0.73281 0.22059 0.03750
 C3829 C 0.73832 0.22582 0.02598
 C3830 C 0.73918 0.23965 0.02413
 C3831 C 0.73424 0.24818 0.03395
 C3832 C 0.72891 0.24296 0.04558
 H3833 H 0.72359 0.19893 0.10305
 H3834 H 0.71359 0.18861 0.12236
 H3835 H 0.67494 0.20193 0.10962
 H3836 H 0.68483 0.21184 0.09003
 H3837 H 0.69799 0.22940 0.08232
 H3838 H 0.70734 0.23872 0.06222
 H3839 H 0.73588 0.20659 0.06082
 H3840 H 0.72586 0.19672 0.08028
 H3841 H 0.73210 0.20986 0.03847
 H3842 H 0.74199 0.21904 0.01852
 H3843 H 0.73458 0.25889 0.03265
 H3844 H 0.72554 0.24981 0.05311
 C3845 C 0.20530 0.70650 0.09491
 C3846 C 0.21315 0.69987 0.10432
 C3847 C 0.20736 0.69402 0.11543
 C3848 C 0.19361 0.69481 0.11749
 C3849 C 0.18575 0.70152 0.10818
 C3850 C 0.19151 0.70722 0.09698
 C3851 C 0.21144 0.71250 0.08294
 C3852 C 0.20646 0.72441 0.07753
 C3853 C 0.21207 0.72988 0.06614
 C3854 C 0.22292 0.72367 0.05993
 C3855 C 0.22802 0.71187 0.06546
 C3856 C 0.22230 0.70631 0.07674
 C3857 C 0.22877 0.72934 0.04766
 C3858 C 0.23365 0.72087 0.03772
 C3859 C 0.23921 0.72612 0.02623
 C3860 C 0.23992 0.73996 0.02433
 C3861 C 0.23484 0.74847 0.03410
 C3862 C 0.22946 0.74322 0.04570
 H3863 H 0.22382 0.69933 0.10322
 H3864 H 0.21371 0.68907 0.12251
 H3865 H 0.17510 0.70217 0.10941
 H3866 H 0.18511 0.71200 0.08984
 H3867 H 0.19824 0.72957 0.08212
 H3868 H 0.20775 0.73887 0.06210
 H3869 H 0.23649 0.70691 0.06111
 H3870 H 0.22631 0.69704 0.08049
 H3871 H 0.23304 0.71014 0.03872
 H3872 H 0.24300 0.71936 0.01882
 H3873 H 0.23508 0.75918 0.03276
 H3874 H 0.22595 0.75007 0.05318
 C3875 C 0.20448 0.20639 0.59463
 C3876 C 0.21225 0.19941 0.60387
 C3877 C 0.20639 0.19339 0.61483
 C3878 C 0.19266 0.19436 0.61695
 C3879 C 0.18490 0.20148 0.60787
 C3880 C 0.19072 0.20735 0.59679
 C3881 C 0.21069 0.21245 0.58272
 C3882 C 0.20589 0.22451 0.57747
 C3883 C 0.21153 0.22999 0.56610
 C3884 C 0.22222 0.22365 0.55977
 C3885 C 0.22716 0.21172 0.56516
 C3886 C 0.22141 0.20614 0.57640
 C3887 C 0.22809 0.22931 0.54750
 C3888 C 0.23275 0.22083 0.53747
 C3889 C 0.23836 0.22606 0.52601
 C3890 C 0.23934 0.23990 0.52422
 C3891 C 0.23445 0.24843 0.53405
 C3892 C 0.22902 0.24320 0.54564
 H3893 H 0.22290 0.19871 0.60272
 H3894 H 0.21267 0.18814 0.62177
 H3895 H 0.17427 0.20228 0.60918
 H3896 H 0.18438 0.21241 0.58979
 H3897 H 0.19779 0.22977 0.58216
 H3898 H 0.20734 0.23910 0.56217
 H3899 H 0.23553 0.20667 0.56071
 H3900 H 0.22527 0.19676 0.58002
 H3901 H 0.23193 0.21011 0.53838
 H3902 H 0.24199 0.21928 0.51852
 H3903 H 0.23488 0.25914 0.53279
 H3904 H 0.22567 0.25005 0.55318
   
