data_POSCAR
  _audit_creation_date              2014-09-24
  _audit_creation_method            'ToBaCCo'
  _symmetry_space_group_name_H-M    'P1'
  _symmetry_Int_Tables_number       1
  _symmetry_cell_setting            triclinic
  loop_
  _symmetry_equiv_pos_as_xyz
 x,y,z
_cell_length_a 41.5881
_cell_length_b 41.7868
_cell_length_c 48.6323
_cell_angle_alpha 89.952100
_cell_angle_beta 89.945000
_cell_angle_gamma 90.020200
loop_
  _atom_site_label
  _atom_site_type_symbol
  _atom_site_fract_x
  _atom_site_fract_y
  _atom_site_fract_z
Zr1 Zr 0.24697 0.24885 0.29805
 O2 O 0.27027 0.27326 0.33062
 O3 O 0.21585 0.21830 0.31987
 O4 O 0.21603 0.27920 0.32058
 O5 O 0.30983 0.19543 0.28778
 O6 O 0.19061 0.30907 0.28777
 O7 O 0.27911 0.21988 0.32061
 O8 O 0.18775 0.19311 0.28586
 O9 O 0.20510 0.25004 0.27415
 O10 O 0.24803 0.20748 0.27385
 O11 O 0.24960 0.29164 0.27533
 O12 O 0.29048 0.25074 0.27565
 Zr13 Zr 0.25124 0.25324 0.20203
 Zr14 Zr 0.20877 0.29156 0.25008
 Zr15 Zr 0.28964 0.21034 0.24999
 Zr16 Zr 0.20750 0.20966 0.24889
 O17 O 0.34036 0.21392 0.24814
 O18 O 0.15712 0.21731 0.24721
 O19 O 0.24899 0.20993 0.22438
 O20 O 0.20826 0.25097 0.22479
 O21 O 0.25048 0.29488 0.22598
 O22 O 0.29284 0.25176 0.22617
 C23 C 0.19431 0.19874 0.31112
 C24 C 0.30240 0.20166 0.31294
 C25 C 0.19668 0.30153 0.31291
 O26 O 0.15809 0.28740 0.24935
 O27 O 0.19126 0.30986 0.21244
 O28 O 0.22099 0.28434 0.17957
 C29 C 0.19874 0.30380 0.18727
 O30 O 0.31158 0.30819 0.28874
 Zr31 Zr 0.29107 0.29207 0.25119
 O32 O 0.28217 0.28399 0.18021
 O33 O 0.21341 0.34196 0.25087
 O34 O 0.28388 0.34228 0.25297
 O35 O 0.34164 0.28556 0.25022
 O36 O 0.30780 0.31165 0.21422
 C37 C 0.30202 0.30524 0.18896
 O38 O 0.22647 0.23032 0.16945
 O39 O 0.28560 0.15989 0.25178
 O40 O 0.28001 0.22103 0.17940
 O41 O 0.30435 0.19017 0.21217
 O42 O 0.21355 0.15927 0.24977
 O43 O 0.19107 0.18945 0.21133
 C44 C 0.29810 0.19767 0.18703
 H45 H 0.24826 0.18763 0.28496
 H46 H 0.18920 0.25057 0.21263
 H47 H 0.31277 0.25137 0.21503
 H48 H 0.25019 0.31060 0.28751
 H49 H 0.14646 0.19659 0.25116
 H50 H 0.14938 0.30947 0.24992
 H51 H 0.19132 0.35082 0.25035
 H52 H 0.30480 0.35269 0.24901
 H53 H 0.19220 0.14960 0.25340
 H54 H 0.30780 0.15132 0.25234
 H55 H 0.34877 0.19174 0.24753
 H56 H 0.35156 0.30672 0.24658
 H57 H 0.17284 0.17483 0.21506
 H58 H 0.23527 0.23873 0.15189
 H59 H 0.26178 0.26455 0.34819
 H60 H 0.32651 0.32614 0.28500
 Zr61 Zr 0.75005 0.75321 0.29819
 O62 O 0.72674 0.72806 0.33041
 O63 O 0.78052 0.78391 0.32045
 O64 O 0.78127 0.72328 0.32078
 O65 O 0.68644 0.80566 0.28771
 O66 O 0.80763 0.69413 0.28804
 O67 O 0.71711 0.78143 0.32067
 O68 O 0.80879 0.80969 0.28679
 O69 O 0.79223 0.75281 0.27458
 O70 O 0.74875 0.79480 0.27424
 O71 O 0.74836 0.71060 0.27521
 O72 O 0.70687 0.75090 0.27546
 Zr73 Zr 0.74706 0.74971 0.20213
 Zr74 Zr 0.78949 0.71148 0.25026
 Zr75 Zr 0.70748 0.79156 0.25005
 Zr76 Zr 0.78962 0.79340 0.24956
 O77 O 0.65686 0.78732 0.24760
 O78 O 0.84012 0.78650 0.24812
 O79 O 0.74844 0.79280 0.22476
 O80 O 0.78974 0.75231 0.22520
 O81 O 0.74812 0.70786 0.22586
 O82 O 0.70513 0.75036 0.22594
 C83 C 0.80205 0.80368 0.31197
 C84 C 0.69359 0.79929 0.31289
 C85 C 0.80118 0.70144 0.31318
 O86 O 0.84011 0.71633 0.24967
 O87 O 0.80742 0.69352 0.21259
 O88 O 0.77777 0.71906 0.17969
 C89 C 0.80004 0.69965 0.18740
 O90 O 0.68637 0.69311 0.28805
 Zr91 Zr 0.70718 0.70982 0.25075
 O92 O 0.71688 0.71874 0.17987
 O93 O 0.78557 0.66101 0.25101
 O94 O 0.71502 0.65970 0.25243
 O95 O 0.65654 0.71563 0.24929
 O96 O 0.69140 0.69023 0.21353
 C97 C 0.69742 0.69695 0.18835
 O98 O 0.77204 0.77322 0.16990
 O99 O 0.71073 0.84204 0.25235
 O100 O 0.71826 0.78192 0.17950
 O101 O 0.69320 0.81211 0.21231
 O102 O 0.78285 0.84369 0.25079
 O103 O 0.80616 0.81425 0.21225
 C104 C 0.69989 0.80505 0.18717
 H105 H 0.74810 0.81452 0.28550
 H106 H 0.80893 0.75302 0.21316
 H107 H 0.68537 0.75058 0.21461
 H108 H 0.74793 0.69154 0.28731
 H109 H 0.85043 0.80733 0.25226
 H110 H 0.84911 0.69438 0.25024
 H111 H 0.80779 0.65247 0.25054
 H112 H 0.69431 0.64904 0.24824
 H113 H 0.80403 0.85360 0.25467
 H114 H 0.68840 0.85028 0.25275
 H115 H 0.64814 0.80937 0.24709
 H116 H 0.64700 0.69436 0.24543
 H117 H 0.82407 0.82917 0.21620
 H118 H 0.76354 0.76492 0.15221
 H119 H 0.73485 0.73674 0.34810
 H120 H 0.67164 0.67508 0.28408
 Zr121 Zr 0.75388 0.24649 -0.30019
 O122 O 0.73085 0.27065 -0.33306
 O123 O 0.78538 0.21597 -0.32166
 O124 O 0.78495 0.27664 -0.32277
 O125 O 0.69067 0.19347 -0.28984
 O126 O 0.81030 0.30669 -0.29008
 O127 O 0.72176 0.21744 -0.32272
 O128 O 0.81332 0.19116 -0.28733
 O129 O 0.79559 0.24784 -0.27608
 O130 O 0.75264 0.20527 -0.27577
 O131 O 0.75119 0.28945 -0.27775
 O132 O 0.71026 0.24863 -0.27800
 Zr133 Zr 0.74905 0.25155 -0.20422
 Zr134 Zr 0.79187 0.28952 -0.25232
 Zr135 Zr 0.71088 0.20840 -0.25211
 Zr136 Zr 0.79300 0.20762 -0.25059
 O137 O 0.66016 0.21201 -0.25030
 O138 O 0.84338 0.21510 -0.24842
 O139 O 0.75135 0.20810 -0.22631
 O140 O 0.79217 0.24911 -0.22677
 O141 O 0.75003 0.29301 -0.22845
 O142 O 0.70757 0.24996 -0.22851
 C143 C 0.80708 0.19673 -0.31266
 C144 C 0.69824 0.19950 -0.31502
 C145 C 0.80432 0.29896 -0.31519
 O146 O 0.84254 0.28533 -0.25128
 O147 O 0.80907 0.30818 -0.21469
 O148 O 0.77917 0.28279 -0.18181
 C149 C 0.80140 0.30229 -0.18952
 O150 O 0.68918 0.30582 -0.29152
 Zr151 Zr 0.70956 0.29010 -0.25378
 O152 O 0.71825 0.28267 -0.18273
 O153 O 0.78732 0.33992 -0.25354
 O154 O 0.71678 0.34029 -0.25611
 O155 O 0.65899 0.28362 -0.25273
 O156 O 0.69297 0.31026 -0.21701
 C157 C 0.69873 0.30412 -0.19168
 O158 O 0.77357 0.22884 -0.17137
 O159 O 0.71480 0.15794 -0.25376
 O160 O 0.72012 0.21942 -0.18156
 O161 O 0.69611 0.18832 -0.21429
 O162 O 0.78687 0.15724 -0.25147
 O163 O 0.80887 0.18753 -0.21279
 C164 C 0.70219 0.19593 -0.18917
 H165 H 0.75248 0.18538 -0.28682
 H166 H 0.81115 0.24880 -0.21451
 H167 H 0.68761 0.24970 -0.21740
 H168 H 0.75070 0.30831 -0.29006
 H169 H 0.85401 0.19431 -0.25210
 H170 H 0.85128 0.30738 -0.25197
 H171 H 0.80942 0.34877 -0.25298
 H172 H 0.69585 0.35075 -0.25233
 H173 H 0.80826 0.14756 -0.25491
 H174 H 0.69258 0.14940 -0.25434
 H175 H 0.65172 0.18984 -0.24964
 H176 H 0.64912 0.30483 -0.24926
 H177 H 0.82695 0.17267 -0.21630
 H178 H 0.76465 0.23737 -0.15391
 H179 H 0.73944 0.26180 -0.35053
 H180 H 0.67409 0.32367 -0.28797
 Zr181 Zr 0.24801 0.75202 -0.29599
 O182 O 0.27141 0.72764 -0.32855
 O183 O 0.21690 0.78250 -0.31784
 O184 O 0.21707 0.72181 -0.31863
 O185 O 0.31108 0.80516 -0.28543
 O186 O 0.19117 0.69208 -0.28593
 O187 O 0.28046 0.78101 -0.31841
 O188 O 0.18864 0.80764 -0.28391
 O189 O 0.20600 0.75090 -0.27217
 O190 O 0.24907 0.79334 -0.27175
 O191 O 0.25026 0.70917 -0.27330
 O192 O 0.29136 0.74988 -0.27347
 Zr193 Zr 0.25165 0.74738 -0.19992
 Zr194 Zr 0.20927 0.70933 -0.24814
 Zr195 Zr 0.29052 0.79023 -0.24775
 Zr196 Zr 0.20838 0.79123 -0.24689
 O197 O 0.34120 0.78643 -0.24569
 O198 O 0.15796 0.78381 -0.24514
 O199 O 0.24972 0.79073 -0.22226
 O200 O 0.20881 0.74988 -0.22280
 O201 O 0.25083 0.70582 -0.22397
 O202 O 0.29341 0.74875 -0.22394
 C203 C 0.19516 0.80192 -0.30919
 C204 C 0.30383 0.79912 -0.31066
 C205 C 0.19745 0.69964 -0.31106
 O206 O 0.15861 0.71368 -0.24743
 O207 O 0.19156 0.69090 -0.21051
 O208 O 0.22112 0.71634 -0.17756
 C209 C 0.19890 0.69685 -0.18528
 O210 O 0.31237 0.69261 -0.28659
 Zr211 Zr 0.29160 0.70851 -0.24905
 O212 O 0.28209 0.71619 -0.17807
 O213 O 0.21370 0.65892 -0.24910
 O214 O 0.28429 0.65833 -0.25122
 O215 O 0.34218 0.71480 -0.24763
 O216 O 0.30766 0.68843 -0.21208
 C217 C 0.30164 0.69464 -0.18682
 O218 O 0.22683 0.77036 -0.16737
 O219 O 0.28673 0.84069 -0.24953
 O220 O 0.28046 0.77949 -0.17719
 O221 O 0.30499 0.81035 -0.20989
 O222 O 0.21466 0.84160 -0.24790
 O223 O 0.19197 0.81157 -0.20936
 C224 C 0.29860 0.80287 -0.18477
 H225 H 0.24941 0.81319 -0.28287
 H226 H 0.18969 0.75030 -0.21068
 H227 H 0.31324 0.74898 -0.21269
 H228 H 0.25082 0.69024 -0.28551
 H229 H 0.14741 0.80458 -0.24908
 H230 H 0.14981 0.69165 -0.24806
 H231 H 0.19157 0.65014 -0.24862
 H232 H 0.30514 0.64783 -0.24726
 H233 H 0.19337 0.85132 -0.25162
 H234 H 0.30897 0.84918 -0.25000
 H235 H 0.34972 0.80857 -0.24503
 H236 H 0.35193 0.69357 -0.24403
 H237 H 0.17391 0.82637 -0.21312
 H238 H 0.23549 0.76186 -0.14980
 H239 H 0.26304 0.73644 -0.34611
 H240 H 0.32738 0.67474 -0.28286
 Zr241 Zr 1.25032 1.25325 0.79799
 O242 O 1.22689 1.22827 0.83024
 O243 O 1.28101 1.28373 0.82019
 O244 O 1.28138 1.22315 0.82056
 O245 O 1.18716 1.30619 0.78757
 O246 O 1.30741 1.19375 0.78779
 O247 O 1.21769 1.28171 0.82049
 O248 O 1.30947 1.30923 0.78649
 O249 O 1.29243 1.25250 0.77432
 O250 O 1.24930 1.29484 0.77403
 O251 O 1.24819 1.21063 0.77507
 O252 O 1.20706 1.25132 0.77534
 Zr253 Zr 1.24703 1.24978 0.70198
 Zr254 Zr 1.28926 1.21118 0.75005
 Zr255 Zr 1.20796 1.29195 0.74991
 Zr256 Zr 1.29010 1.29310 0.74928
 O257 O 1.15729 1.28816 0.74755
 O258 O 1.34054 1.28576 0.74776
 O259 O 1.24886 1.29288 0.72456
 O260 O 1.28980 1.25200 0.72496
 O261 O 1.24780 1.20793 0.72573
 O262 O 1.20517 1.25076 0.72585
 C263 C 1.30268 1.30332 0.81167
 C264 C 1.19431 1.29975 0.81273
 C265 C 1.30112 1.20116 0.81293
 O266 O 1.33992 1.21557 0.74929
 O267 O 1.30683 1.19304 0.71236
 O268 O 1.27734 1.21886 0.67952
 C269 C 1.29941 1.19924 0.68721
 O270 O 1.18605 1.19378 0.78803
 Zr271 Zr 1.20694 1.21022 0.75068
 O272 O 1.21660 1.21904 0.67978
 O273 O 1.28491 1.16076 0.75087
 O274 O 1.21433 1.16003 0.75240
 O275 O 1.15635 1.21643 0.74926
 O276 O 1.19100 1.19072 0.71349
 C277 C 1.19704 1.19738 0.68830
 O278 O 1.27216 1.27308 0.66973
 O279 O 1.21165 1.34240 0.75220
 O280 O 1.21842 1.28216 0.67936
 O281 O 1.19372 1.31259 0.71219
 O282 O 1.28382 1.34345 0.75053
 O283 O 1.30674 1.31378 0.71193
 C284 C 1.20027 1.30544 0.68706
 H285 H 1.24885 1.31457 0.78527
 H286 H 1.30896 1.25253 0.71288
 H287 H 1.18538 1.25114 0.71455
 H288 H 1.24764 1.19159 0.78718
 H289 H 1.35104 1.30650 0.75189
 H290 H 1.34872 1.19354 0.74985
 H291 H 1.30705 1.15202 0.75035
 H292 H 1.19350 1.14956 0.74826
 H293 H 1.30510 1.35316 0.75434
 H294 H 1.18939 1.35083 0.75264
 H295 H 1.14877 1.31030 0.74707
 H296 H 1.14664 1.19523 0.74542
 H297 H 1.32480 1.32853 0.71584
 H298 H 1.26357 1.26486 0.65205
 H299 H 1.23509 1.23689 0.84792
 H300 H 1.17116 1.17586 0.78411
 Zr301 Zr 0.74697 0.74908 0.79789
 O302 O 0.77039 0.77365 0.83031
 O303 O 0.71593 0.71867 0.81991
 O304 O 0.71609 0.77949 0.82039
 O305 O 0.80978 0.69563 0.78765
 O306 O 0.69057 0.80921 0.78755
 O307 O 0.77916 0.72025 0.82046
 O308 O 0.68767 0.69338 0.78606
 O309 O 0.70503 0.75014 0.77409
 O310 O 0.74795 0.70757 0.77385
 O311 O 0.74956 0.79176 0.77504
 O312 O 0.79041 0.75081 0.77539
 Zr313 Zr 0.75098 0.75294 0.70189
 Zr314 Zr 0.70867 0.79153 0.74990
 Zr315 Zr 0.78948 0.71029 0.74988
 Zr316 Zr 0.70735 0.70963 0.74897
 O317 O 0.84019 0.71380 0.74789
 O318 O 0.65696 0.71726 0.74732
 O319 O 0.74876 0.70973 0.72437
 O320 O 0.70806 0.75082 0.72475
 O321 O 0.75030 0.79471 0.72569
 O322 O 0.79265 0.75159 0.72594
 C323 C 0.69432 0.69914 0.81128
 C324 C 0.80243 0.70202 0.81279
 C325 C 0.69670 0.80177 0.81270
 O326 O 0.65798 0.78741 0.74925
 O327 O 0.69112 0.80965 0.71224
 O328 O 0.72073 0.78394 0.67940
 C329 C 0.69852 0.80343 0.68710
 O330 O 0.81160 0.80827 0.78827
 Zr331 Zr 0.79096 0.79203 0.75081
 O332 O 0.78184 0.78354 0.67987
 O333 O 0.71331 0.84194 0.75051
 O334 O 0.78379 0.84225 0.75242
 O335 O 0.84153 0.78556 0.74974
 O336 O 0.80754 0.81140 0.71373
 C337 C 0.80170 0.80483 0.68851
 O338 O 0.72606 0.72985 0.66948
 O339 O 0.78541 0.65985 0.75189
 O340 O 0.77968 0.72066 0.67929
 O341 O 0.80409 0.68994 0.71210
 O342 O 0.71336 0.65924 0.75010
 O343 O 0.69082 0.68922 0.71153
 C344 C 0.79780 0.69734 0.68695
 H345 H 0.74820 0.68778 0.78504
 H346 H 0.68896 0.75038 0.71263
 H347 H 0.81254 0.75114 0.71475
 H348 H 0.75018 0.81077 0.78716
 H349 H 0.64632 0.69656 0.75138
 H350 H 0.64928 0.80948 0.74975
 H351 H 0.69122 0.85081 0.75000
 H352 H 0.80470 0.85263 0.74837
 H353 H 0.69200 0.64962 0.75382
 H354 H 0.80761 0.65128 0.75243
 H355 H 0.84858 0.69162 0.74736
 H356 H 0.85141 0.80672 0.74602
 H357 H 0.67265 0.67457 0.71535
 H358 H 0.73479 0.73816 0.65185
 H359 H 0.76195 0.76504 0.84793
 H360 H 0.82645 0.82626 0.78446
 Zr361 Zr 1.25405 0.74692 0.19984
 O362 O 1.23090 0.77124 0.16712
 O363 O 1.28573 0.71680 0.17822
 O364 O 1.28501 0.77734 0.17745
 O365 O 1.19116 0.69349 0.20980
 O366 O 1.31015 0.80729 0.21032
 O367 O 1.22219 0.71789 0.17712
 O368 O 1.31380 0.69190 0.21242
 O369 O 1.29571 0.74829 0.22399
 O370 O 1.25300 0.70549 0.22401
 O371 O 1.25107 0.78969 0.22248
 O372 O 1.21037 0.74860 0.22198
 Zr373 Zr 1.24901 0.75115 0.29576
 Zr374 Zr 1.29170 0.78977 0.24795
 Zr375 Zr 1.21119 0.70817 0.24764
 Zr376 Zr 1.29330 0.70786 0.24924
 O377 O 1.16044 0.71143 0.24938
 O378 O 1.34364 0.71558 0.25157
 O379 O 1.25162 0.70787 0.27348
 O380 O 1.29219 0.74916 0.27328
 O381 O 1.24980 0.79281 0.27179
 O382 O 1.20758 0.74955 0.27143
 C383 C 1.30756 0.69766 0.18712
 C384 C 1.19876 0.69978 0.18469
 C385 C 1.30426 0.79969 0.18516
 O386 O 1.34239 0.78587 0.24908
 O387 O 1.30865 0.80822 0.28571
 O388 O 1.27883 0.78237 0.31838
 C389 C 1.30094 0.80206 0.31081
 O390 O 1.18896 0.80570 0.20870
 Zr391 Zr 1.20939 0.78989 0.24639
 O392 O 1.21808 0.78195 0.31741
 O393 O 1.28688 0.84015 0.24699
 O394 O 1.21630 0.84014 0.24434
 O395 O 1.15885 0.78318 0.24738
 O396 O 1.19270 0.80968 0.28327
 C397 C 1.19849 0.80338 0.30856
 O398 O 1.27363 0.72826 0.32846
 O399 O 1.21542 0.65776 0.24571
 O400 O 1.22015 0.71882 0.31824
 O401 O 1.19639 0.68778 0.28534
 O402 O 1.28750 0.65745 0.24800
 O403 O 1.30922 0.68755 0.28694
 C404 C 1.20233 0.69530 0.31050
 H405 H 1.25298 0.68569 0.21284
 H406 H 1.31115 0.74886 0.28556
 H407 H 1.18761 0.74910 0.28252
 H408 H 1.25050 0.80864 0.21027
 H409 H 1.35439 0.69488 0.24775
 H410 H 1.35100 0.80798 0.24854
 H411 H 1.30893 0.84912 0.24764
 H412 H 1.19530 0.85044 0.24815
 H413 H 1.30896 0.64794 0.24452
 H414 H 1.19326 0.64909 0.24505
 H415 H 1.15213 0.68921 0.24988
 H416 H 1.14888 0.80431 0.25095
 H417 H 1.32735 0.67278 0.28336
 H418 H 1.26467 0.73659 0.34598
 H419 H 1.23956 0.76260 0.14960
 H420 H 1.17380 0.82348 0.21232
 Zr421 Zr 0.74922 1.25060 0.20422
 O422 O 0.77289 1.22612 0.17186
 O423 O 0.71805 1.28076 0.18216
 O424 O 0.71843 1.22023 0.18161
 O425 O 0.81191 1.30417 0.21474
 O426 O 0.69257 1.19055 0.21435
 O427 O 0.78150 1.27966 0.18177
 O428 O 0.68949 1.30591 0.21594
 O429 O 0.70715 1.24941 0.22795
 O430 O 0.74998 1.29206 0.22831
 O431 O 0.75165 1.20787 0.22704
 O432 O 0.79252 1.24886 0.22683
 Zr433 Zr 0.75265 1.24654 0.30027
 Zr434 Zr 0.71060 1.20798 0.25211
 Zr435 Zr 0.79138 1.28932 0.25241
 Zr436 Zr 0.70924 1.28989 0.25309
 O437 O 0.84208 1.28583 0.25456
 O438 O 0.65885 1.28224 0.25481
 O439 O 0.75052 1.28977 0.27780
 O440 O 0.70985 1.24865 0.27730
 O441 O 0.75211 1.20485 0.27637
 O442 O 0.79447 1.24797 0.27635
 C443 C 0.69617 1.30005 0.19073
 C444 C 0.80471 1.29793 0.18956
 C445 C 0.69883 1.19806 0.18922
 O446 O 0.65991 1.21203 0.25280
 O447 O 0.69301 1.18961 0.28976
 O448 O 0.72234 1.21545 0.32268
 C449 C 0.70031 1.19578 0.31494
 O450 O 0.81393 1.19169 0.21394
 Zr451 Zr 0.79293 1.20760 0.25138
 O452 O 0.78312 1.21561 0.32231
 O453 O 0.71531 1.15759 0.25126
 O454 O 0.78593 1.15737 0.24934
 O455 O 0.84348 1.21414 0.25292
 O456 O 0.80890 1.18776 0.28846
 C457 C 0.80275 1.19407 0.31369
 O458 O 0.72756 1.26960 0.33263
 O459 O 0.78732 1.33976 0.25044
 O460 O 0.78125 1.27884 0.32297
 O461 O 0.80567 1.30970 0.29022
 O462 O 0.71524 1.34028 0.25183
 O463 O 0.69263 1.31033 0.29051
 C464 C 0.79929 1.30228 0.31535
 H465 H 0.75023 1.31185 0.21711
 H466 H 0.69069 1.24902 0.28939
 H467 H 0.81426 1.24836 0.28764
 H468 H 0.75232 1.18890 0.21488
 H469 H 0.64821 1.30293 0.25077
 H470 H 0.65124 1.18995 0.25222
 H471 H 0.69323 1.14869 0.25174
 H472 H 0.80684 1.14702 0.25338
 H473 H 0.69390 1.34985 0.24803
 H474 H 0.80952 1.34837 0.25001
 H475 H 0.85047 1.30802 0.25515
 H476 H 0.85331 1.19297 0.25664
 H477 H 0.67457 1.32510 0.28665
 H478 H 0.73619 1.26126 0.35027
 H479 H 0.76455 1.23475 0.15423
 H480 H 0.82902 1.17391 0.21775
 O481 O 0.45536 0.94373 -0.04803
 O482 O 0.41890 0.97359 -0.02344
 C483 C 0.42632 0.95157 -0.04126
 O484 O 0.54417 0.94615 0.04995
 O485 O 0.58078 0.97445 0.02412
 C486 C 0.57324 0.95386 0.04315
 O487 O 0.45557 0.94290 0.04678
 O488 O 0.41900 0.97330 0.02279
 C489 C 0.42651 0.95091 0.04028
 O490 O 0.54418 0.94617 -0.05051
 O491 O 0.58077 0.97419 -0.02451
 C492 C 0.57324 0.95367 -0.04359
 Zr493 Zr 0.49993 0.96218 -0.03478
 O494 O 0.50255 0.91158 -0.03574
 O495 O 0.49869 0.96567 -0.07814
 Zr496 Zr 0.49987 0.96257 0.03456
 O497 O 0.50085 0.91221 0.03877
 O498 O 0.49852 0.96828 0.07773
 O499 O 0.47126 0.95588 -0.00012
 O500 O 0.52798 0.95628 -0.00009
 O501 O 0.54450 1.05744 -0.05112
 O502 O 0.58091 1.02972 -0.02469
 C503 C 0.57352 1.04989 -0.04408
 O504 O 0.45523 1.06069 0.04762
 O505 O 0.41885 1.03098 0.02280
 C506 C 0.42621 1.05283 0.04080
 O507 O 0.54405 1.05811 0.05021
 O508 O 0.58070 1.03008 0.02422
 C509 C 0.57313 1.05051 0.04338
 O510 O 0.45573 1.06060 -0.04855
 O511 O 0.41912 1.03112 -0.02367
 C512 C 0.42666 1.05294 -0.04170
 Zr513 Zr 0.50008 1.04219 -0.03498
 O514 O 0.50375 1.09274 -0.03491
 O515 O 0.49714 1.04150 -0.07844
 Zr516 Zr 0.49980 1.04246 0.03419
 O517 O 0.50330 1.09303 0.03365
 O518 O 0.49657 1.04215 0.07764
 Zr519 Zr 0.45129 1.00229 -0.00032
 Zr520 Zr 0.54875 1.00220 -0.00023
 O521 O 0.52815 1.04823 -0.00039
 O522 O 0.47109 1.04877 -0.00046
 O523 O 0.52910 1.00208 -0.04018
 O524 O 0.47133 1.00242 0.03938
 O525 O 0.47162 1.00217 -0.03994
 O526 O 0.52896 1.00248 0.03974
 H527 H 0.54217 0.93725 -0.00011
 H528 H 0.45670 1.00229 0.05547
 H529 H 0.54250 1.06717 -0.00047
 H530 H 0.45721 1.00214 -0.05615
 H531 H 0.49771 0.94640 0.08556
 H532 H 0.51307 1.02713 0.08459
 H533 H 0.48496 1.10137 0.02289
 H534 H 0.48572 1.10121 -0.02382
 H535 H 0.51269 1.02534 -0.08511
 H536 H 0.49836 0.94342 -0.08517
 H537 H 0.48562 0.90325 -0.02333
 H538 H 0.50474 0.90328 0.02028
 O539 O 1.04389 0.55835 0.55012
 O540 O 1.08058 0.53038 0.52413
 C541 C 1.07298 0.55083 0.54327
 O542 O 0.95568 0.44289 0.54692
 O543 O 0.91905 0.47316 0.52287
 C544 C 0.92661 0.45080 0.54038
 O545 O 1.04429 0.44642 0.55010
 O546 O 1.08081 0.47468 0.52413
 C547 C 1.07334 0.45416 0.54324
 O548 O 0.95506 0.56068 0.54753
 O549 O 0.91875 0.53082 0.52277
 C550 C 0.92606 0.55273 0.54072
 Zr551 Zr 0.99969 0.54254 0.53414
 O552 O 0.99647 0.54228 0.57760
 O553 O 1.00306 0.59311 0.53355
 Zr554 Zr 0.99993 0.46267 0.53469
 O555 O 0.99856 0.46855 0.57783
 O556 O 1.00103 0.41232 0.53910
 O557 O 1.02896 0.50264 0.53974
 O558 O 0.97130 0.50246 0.53941
 O559 O 0.95560 0.56060 0.45158
 O560 O 0.91904 0.53090 0.47631
 C561 C 0.92654 0.55282 0.45836
 O562 O 1.04429 0.44586 0.44984
 O563 O 1.08082 0.47430 0.47555
 C564 C 1.07333 0.45357 0.45663
 O565 O 0.95544 0.44355 0.45205
 O566 O 0.91894 0.47340 0.47662
 C567 C 0.92639 0.45138 0.45882
 O568 O 1.04448 0.55776 0.44915
 O569 O 1.08091 0.52975 0.47532
 C570 C 1.07350 0.55006 0.45606
 Zr571 Zr 0.99998 0.54212 0.46495
 O572 O 0.99636 0.54111 0.42152
 O573 O 1.00357 0.59267 0.46459
 Zr574 Zr 0.99995 0.46198 0.46536
 O575 O 0.99652 0.46254 0.42191
 O576 O 1.00294 0.41138 0.46558
 Zr577 Zr 1.04871 0.50229 0.49975
 Zr578 Zr 0.95128 0.50218 0.49971
 O579 O 0.97168 0.50200 0.46010
 O580 O 1.02904 0.50202 0.45974
 O581 O 0.97099 0.54871 0.49948
 O582 O 1.02803 0.45631 0.50005
 O583 O 1.02800 0.54829 0.49955
 O584 O 0.97129 0.45578 0.50004
 H585 H 0.95666 0.50233 0.55550
 H586 H 1.04230 0.43733 0.50013
 H587 H 0.95725 0.50194 0.44390
 H588 H 1.04227 0.56728 0.49947
 H589 H 1.00508 0.40330 0.52067
 H590 H 0.98512 0.40321 0.47712
 H591 H 1.01522 0.47453 0.41468
 H592 H 1.01494 0.52891 0.41435
 H593 H 0.98605 0.60117 0.47623
 H594 H 0.98464 0.60141 0.52286
 H595 H 1.01309 0.52740 0.58457
 H596 H 0.99779 0.44670 0.58574
 O597 O 1.05824 0.54492 0.04677
 O598 O 1.02759 0.58132 0.02293
 C599 C 1.05011 0.57385 0.04033
 O600 O 1.05357 0.45594 -0.05078
 O601 O 1.02525 0.41990 -0.02443
 C602 C 1.04571 0.42712 -0.04372
 O603 O 1.05768 0.54411 -0.04837
 O604 O 1.02810 0.58099 -0.02402
 C605 C 1.05015 0.57318 -0.04186
 O606 O 1.05520 0.45670 0.04962
 O607 O 1.02634 0.42029 0.02420
 C608 C 1.04729 0.42778 0.04302
 Zr609 Zr 1.03923 0.50071 0.03374
 O610 O 1.09007 0.49774 0.03389
 O611 O 1.03659 0.50223 0.07714
 Zr612 Zr 1.03772 0.50032 -0.03547
 O613 O 1.08826 0.49903 -0.04018
 O614 O 1.03138 0.50128 -0.07858
 O615 O 1.04522 0.52907 -0.00107
 O616 O 1.04434 0.47247 -0.00080
 O617 O 0.94337 0.45728 0.05159
 O618 O 0.97048 0.42061 0.02502
 C619 C 0.95058 0.42826 0.04462
 O620 O 0.93934 0.54531 -0.04780
 O621 O 0.97044 0.58147 -0.02412
 C622 C 0.94791 0.57417 -0.04156
 O623 O 0.94120 0.45705 -0.04991
 O624 O 0.96937 0.42050 -0.02402
 C625 C 0.94872 0.42808 -0.04308
 O626 O 0.94086 0.54557 0.04858
 O627 O 0.97014 0.58168 0.02305
 C628 C 0.94852 0.57442 0.04145
 Zr629 Zr 0.95880 0.50123 0.03495
 O630 O 0.90797 0.49797 0.03534
 O631 O 0.96010 0.50442 0.07838
 Zr632 Zr 0.95740 0.50100 -0.03408
 O633 O 0.90658 0.49791 -0.03249
 O634 O 0.95661 0.50384 -0.07754
 Zr635 Zr 0.99876 0.54936 -0.00041
 Zr636 Zr 0.99804 0.45218 0.00003
 O637 O 0.95195 0.47302 0.00064
 O638 O 0.95189 0.52999 0.00041
 O639 O 0.99897 0.47208 0.03983
 O640 O 0.99782 0.52895 -0.03994
 O641 O 0.99932 0.52922 0.03926
 O642 O 0.99728 0.47167 -0.04001
 H643 H 1.06334 0.45818 -0.00090
 H644 H 0.99792 0.54326 -0.05621
 H645 H 0.93284 0.45887 0.00100
 H646 H 0.99961 0.54355 0.05549
 H647 H 1.05325 0.50174 -0.08666
 H648 H 0.97206 0.48783 -0.08464
 H649 H 0.89855 0.51681 -0.02237
 H650 H 0.89946 0.51603 0.02439
 H651 H 0.97658 0.48913 0.08493
 H652 H 1.05907 0.50237 0.08387
 H653 H 1.09829 0.51464 0.02146
 H654 H 1.09747 0.49448 -0.02189
 O655 O 0.44031 0.95555 0.45076
 O656 O 0.46812 0.91903 0.47696
 C657 C 0.44769 0.92660 0.45775
 O658 O 0.55682 1.04255 0.45317
 O659 O 0.52679 1.07940 0.47713
 C660 C 0.54911 1.07160 0.45956
 O661 O 0.55264 0.95439 0.45052
 O662 O 0.52406 0.91842 0.47672
 C663 C 0.54468 0.92558 0.45751
 O664 O 0.43850 1.04401 0.45284
 O665 O 0.46882 1.08011 0.47736
 C666 C 0.44672 1.07287 0.45947
 Zr667 Zr 0.45642 0.99958 0.46650
 O668 O 0.45647 1.00244 0.42302
 O669 O 0.40558 0.99658 0.46729
 Zr670 Zr 0.53669 0.99874 0.46578
 O671 O 0.53067 0.99979 0.42265
 O672 O 0.58725 0.99724 0.46135
 O673 O 0.49628 0.97011 0.46099
 O674 O 0.49690 1.02748 0.46098
 O675 O 0.43892 1.04429 0.54882
 O676 O 0.46901 1.08023 0.52382
 C677 C 0.44699 1.07308 0.54186
 O678 O 0.55342 0.95502 0.55075
 O679 O 0.52445 0.91870 0.52532
 C680 C 0.54542 0.92613 0.54411
 O681 O 0.55641 1.04345 0.54821
 O682 O 0.52673 1.07984 0.52343
 C683 C 0.54877 1.07238 0.54131
 O684 O 0.44088 0.95588 0.55189
 O685 O 0.46865 0.91916 0.52592
 C686 C 0.44833 0.92685 0.54521
 Zr687 Zr 0.45702 0.99982 0.53567
 O688 O 0.45812 1.00377 0.57908
 O689 O 0.40620 0.99667 0.53604
 Zr690 Zr 0.53754 0.99921 0.53510
 O691 O 0.53710 1.00291 0.57855
 O692 O 0.58835 0.99585 0.53484
 Zr693 Zr 0.49657 0.95073 0.50108
 Zr694 Zr 0.49746 1.04771 0.50056
 O695 O 0.49757 1.02770 0.54029
 O696 O 0.49710 0.97062 0.54097
 O697 O 0.45055 1.02847 0.50100
 O698 O 0.54293 0.97096 0.50055
 O699 O 0.45052 0.97169 0.50125
 O700 O 0.54392 1.02744 0.50026
 H701 H 0.49709 1.04192 0.44480
 H702 H 0.56188 0.95662 0.50050
 H703 H 0.49780 1.04217 0.55641
 H704 H 0.43134 0.95761 0.50145
 H705 H 0.59631 0.99328 0.47979
 H706 H 0.59668 1.01347 0.52322
 H707 H 0.52508 0.98435 0.58590
 H708 H 0.47046 0.98538 0.58632
 H709 H 0.39779 1.01423 0.52446
 H710 H 0.39742 1.01514 0.47779
 H711 H 0.47144 0.98589 0.41610
 H712 H 0.55261 1.00036 0.41469
 O713 O 0.94323 0.94225 0.46291
 O714 O 0.97304 0.97097 0.43166
 C715 C 0.95092 0.95046 0.43815
 O716 O 0.94754 1.05548 0.53918
 O717 O 0.97689 1.02532 0.56969
 C718 C 0.95610 1.04736 0.56374
 O719 O 0.94246 1.05196 0.46335
 O720 O 0.97366 1.02517 0.43188
 C721 C 0.95081 1.04479 0.43851
 O722 O 0.94758 0.93893 0.53893
 O723 O 0.97679 0.96905 0.56956
 C724 C 0.95597 0.94708 0.56352
 Zr725 Zr 0.96235 0.95722 0.50077
 O726 O 0.91157 0.95596 0.50397
 O727 O 0.96543 0.90675 0.49935
 Zr728 Zr 0.96279 1.03790 0.50093
 O729 O 0.91224 1.04282 0.50282
 O730 O 0.96821 1.08818 0.49973
 O731 O 0.95558 0.99765 0.47648
 O732 O 0.95681 0.99746 0.52487
 O733 O 1.05852 0.93814 0.53741
 O734 O 1.03125 0.96913 0.56873
 C735 C 1.05123 0.94656 0.56221
 O736 O 1.06084 1.05292 0.46155
 O737 O 1.02997 1.02437 0.43099
 C738 C 1.05221 1.04496 0.43697
 O739 O 1.05886 1.05584 0.53773
 O740 O 1.03075 1.02535 0.56896
 C741 C 1.05118 1.04756 0.56250
 O742 O 1.06058 0.94192 0.46134
 O743 O 1.02977 0.97073 0.43091
 C744 C 1.05204 0.95016 0.43679
 Zr745 Zr 1.04308 0.95717 0.49969
 O746 O 1.09392 0.95771 0.50226
 O747 O 1.04314 0.90662 0.49694
 Zr748 Zr 1.04327 1.03749 0.49984
 O749 O 1.09411 1.03695 0.50234
 O750 O 1.04344 1.08807 0.49722
 Zr751 Zr 1.00200 0.99753 0.45896
 Zr752 Zr 1.00338 0.99721 0.54161
 O753 O 1.04951 0.99722 0.52377
 O754 O 1.04912 0.99740 0.47502
 O755 O 1.00306 0.95077 0.52484
 O756 O 1.00254 1.04369 0.47619
 O757 O 1.00224 0.95132 0.47611
 O758 O 1.00340 1.04385 0.52508
 H759 H 0.93801 0.99739 0.53739
 H760 H 1.00229 1.06257 0.46384
 H761 H 1.06866 0.99715 0.53589
 H762 H 1.00198 0.93249 0.46373
 H763 H 0.94616 1.09715 0.49949
 H764 H 1.02785 1.09614 0.51094
 H765 H 1.10229 1.02445 0.48655
 H766 H 1.10216 0.96999 0.48635
 H767 H 1.02600 0.89867 0.50930
 H768 H 0.94301 0.89871 0.49960
 H769 H 0.90281 0.97015 0.48950
 H770 H 0.90329 1.02109 0.50507
 O771 O 0.56098 0.55281 -0.03891
 O772 O 0.52896 0.52554 -0.06946
 C773 C 0.55177 0.54548 -0.06348
 O774 O 0.55767 0.43877 0.03701
 O775 O 0.52992 0.46933 0.06830
 C776 C 0.55005 0.44692 0.06179
 O777 O 0.56019 0.44266 -0.03907
 O778 O 0.52933 0.47135 -0.06955
 C779 C 0.55164 0.45083 -0.06364
 O780 O 0.55885 0.55612 0.03716
 O781 O 0.53045 0.52592 0.06839
 C782 C 0.55108 0.54795 0.06193
 Zr783 Zr 0.54278 0.53803 -0.00067
 O784 O 0.59362 0.53881 0.00095
 O785 O 0.54001 0.58853 -0.00193
 Zr786 Zr 0.54240 0.45776 -0.00083
 O787 O 0.59312 0.46092 0.00007
 O788 O 0.54382 0.40725 -0.00385
 O789 O 0.54847 0.49792 -0.02548
 O790 O 0.54895 0.49774 0.02332
 O791 O 0.44820 0.55740 0.03849
 O792 O 0.47663 0.52641 0.06904
 C793 C 0.45645 0.54899 0.06307
 O794 O 0.44255 0.44314 -0.03766
 O795 O 0.47269 0.47155 -0.06892
 C796 C 0.45049 0.45114 -0.06243
 O797 O 0.44666 0.44003 0.03849
 O798 O 0.47611 0.46997 0.06907
 C799 C 0.45516 0.44811 0.06308
 O800 O 0.44322 0.55408 -0.03744
 O801 O 0.47262 0.52512 -0.06878
 C802 C 0.45072 0.54585 -0.06224
 Zr803 Zr 0.46209 0.53856 0.00032
 O804 O 0.41137 0.53852 0.00429
 O805 O 0.46238 0.58912 -0.00231
 Zr806 Zr 0.46144 0.45819 0.00023
 O807 O 0.41071 0.45879 0.00403
 O808 O 0.46096 0.40765 -0.00297
 Zr809 Zr 0.50145 0.49817 -0.04154
 Zr810 Zr 0.50284 0.49792 0.04106
 O811 O 0.45617 0.49838 0.02441
 O812 O 0.45492 0.49847 -0.02426
 O813 O 0.50293 0.54448 0.02444
 O814 O 0.50151 0.45201 -0.02428
 O815 O 0.50210 0.54430 -0.02427
 O816 O 0.50226 0.45144 0.02423
 H817 H 0.56809 0.49757 0.03545
 H818 H 0.50130 0.43312 -0.03659
 H819 H 0.43745 0.49859 0.03703
 H820 H 0.50196 0.56324 -0.03655
 H821 H 0.52831 0.39865 0.00969
 H822 H 0.47401 0.39900 0.01231
 H823 H 0.40205 0.47155 -0.01142
 H824 H 0.40248 0.52597 -0.01117
 H825 H 0.47989 0.59687 0.00973
 H826 H 0.56249 0.59640 -0.00232
 H827 H 0.60137 0.52088 -0.01057
 H828 H 0.60120 0.43862 0.00000
 C829 C 0.33927 1.14117 0.12711
 C830 C 0.33199 1.10532 0.13056
 C831 C 0.34654 1.08642 0.11135
 C832 C 0.36696 1.10517 0.09052
 C833 C 0.39054 1.12468 0.10813
 C834 C 0.37604 1.14351 0.12727
 C835 C 0.32943 1.14900 0.09739
 C836 C 0.34399 1.13008 0.07815
 C837 C 0.32413 1.16159 0.14815
 C838 C 0.31226 1.17822 0.16579
 C839 C 0.38401 1.08503 0.07038
 C840 C 0.40133 1.06946 0.05556
 H841 H 0.31668 1.09565 0.14664
 H842 H 0.34366 1.06061 0.11098
 H843 H 0.41649 1.12379 0.10572
 H844 H 0.38956 1.15869 0.14121
 H845 H 0.31248 1.16771 0.09195
 H846 H 0.33950 1.13257 0.05627
 C847 C 0.83896 0.64084 0.62705
 C848 C 0.83125 0.60505 0.63016
 C849 C 0.84582 0.58619 0.61094
 C850 C 0.86669 0.60493 0.59044
 C851 C 0.89027 0.62400 0.60839
 C852 C 0.87575 0.64279 0.62755
 C853 C 0.82956 0.64909 0.59730
 C854 C 0.84416 0.63021 0.57805
 C855 C 0.82380 0.66123 0.64810
 C856 C 0.81194 0.67785 0.66573
 C857 C 0.88378 0.58484 0.57028
 C858 C 0.90113 0.56931 0.55547
 H859 H 0.81564 0.59538 0.64603
 H860 H 0.84266 0.56041 0.61034
 H861 H 0.91623 0.62285 0.60621
 H862 H 0.88926 0.65767 0.64173
 H863 H 0.81289 0.66803 0.59185
 H864 H 0.83995 0.63297 0.55615
 C865 C 0.65944 0.86334 0.12826
 C866 C 0.62267 0.86374 0.13032
 C867 C 0.60834 0.88336 0.11168
 C868 C 0.63207 0.90083 0.09264
 C869 C 0.65224 0.87412 0.07950
 C870 C 0.66664 0.85442 0.09822
 C871 C 0.66959 0.89860 0.13082
 C872 C 0.65519 0.91830 0.11210
 C873 C 0.67438 0.84208 0.14876
 C874 C 0.68604 0.82489 0.16608
 C875 C 0.61519 0.92169 0.07296
 C876 C 0.59799 0.93750 0.05825
 H877 H 0.60904 0.84980 0.14514
 H878 H 0.58241 0.88617 0.11059
 H879 H 0.65506 0.87103 0.05746
 H880 H 0.68175 0.83444 0.09220
 H881 H 0.68664 0.90730 0.14595
 H882 H 0.65994 0.94382 0.11120
 C883 C 1.15982 0.36380 0.62821
 C884 C 1.12301 0.36227 0.62889
 C885 C 1.10863 0.38189 0.61027
 C886 C 1.13235 0.40128 0.59265
 C887 C 1.15451 0.37616 0.57954
 C888 C 1.16897 0.35646 0.59824
 C889 C 1.16798 0.39939 0.63214
 C890 C 1.15354 0.41908 0.61345
 C891 C 1.17480 0.34254 0.64868
 C892 C 1.18646 0.32533 0.66598
 C893 C 1.11540 0.42211 0.57301
 C894 C 1.09814 0.43787 0.55832
 H895 H 1.10939 0.34707 0.64278
 H896 H 1.08267 0.38343 0.60828
 H897 H 1.15858 0.37410 0.55756
 H898 H 1.18539 0.33751 0.59225
 H899 H 1.18379 0.40832 0.64814
 H900 H 1.15700 0.44483 0.61345
 C901 C 0.66092 1.13854 -0.12995
 C902 C 0.65917 1.15312 -0.10100
 C903 C 0.64449 1.13379 -0.08215
 C904 C 0.63299 1.10174 -0.09406
 C905 C 0.66300 1.08671 -0.10713
 C906 C 0.67770 1.10606 -0.12599
 C907 C 0.62607 1.13019 -0.13725
 C908 C 0.61145 1.11093 -0.11846
 C909 C 0.67617 1.15943 -0.15058
 C910 C 0.68807 1.17635 -0.16800
 C911 C 0.61580 1.08130 -0.07423
 C912 C 0.59841 1.06586 -0.05937
 H913 H 0.66870 1.17652 -0.09576
 H914 H 0.64149 1.14064 -0.06077
 H915 H 0.67196 1.06306 -0.10197
 H916 H 0.69926 1.09894 -0.13700
 H917 H 0.61391 1.13866 -0.15561
 H918 H 0.58675 1.10293 -0.12081
 C919 C 1.16095 0.63806 0.36976
 C920 C 1.12419 0.64045 0.36943
 C921 C 1.10954 0.62136 0.38832
 C922 C 1.13298 0.60158 0.40585
 C923 C 1.15590 0.62629 0.41857
 C924 C 1.17062 0.64546 0.39959
 C925 C 1.16820 0.60226 0.36601
 C926 C 1.15349 0.58309 0.38497
 C927 C 1.17623 0.65878 0.34902
 C928 C 1.18816 0.67566 0.33159
 C929 C 1.11578 0.58131 0.42580
 C930 C 1.09837 0.56597 0.44072
 H931 H 1.11079 0.65583 0.35556
 H932 H 1.08357 0.62045 0.39059
 H933 H 1.16026 0.62846 0.44049
 H934 H 1.18757 0.66407 0.40528
 H935 H 1.18361 0.59281 0.34992
 H936 H 1.15633 0.55727 0.38513
 C937 C 0.33953 0.86050 -0.12556
 C938 C 0.37633 0.85999 -0.12709
 C939 C 0.39080 0.87945 -0.10841
 C940 C 0.36718 0.89768 -0.08985
 C941 C 0.34609 0.87159 -0.07676
 C942 C 0.33155 0.85205 -0.09553
 C943 C 0.33033 0.89596 -0.12854
 C944 C 0.34486 0.91548 -0.10979
 C945 C 0.32441 0.83945 -0.14614
 C946 C 0.31261 0.82247 -0.16356
 C947 C 0.38420 0.91849 -0.07020
 C948 C 0.40148 0.93453 -0.05574
 H949 H 0.38989 0.84557 -0.14160
 H950 H 0.41677 0.88162 -0.10698
 H951 H 0.34279 0.86878 -0.05475
 H952 H 0.31582 0.83250 -0.08956
 H953 H 0.31378 0.90493 -0.14398
 H954 H 0.34073 0.94112 -0.10918
 C955 C 0.83988 0.36014 0.37452
 C956 C 0.87669 0.35864 0.37385
 C957 C 0.89109 0.37813 0.39254
 C958 C 0.86738 0.39740 0.41024
 C959 C 0.84520 0.37219 0.42326
 C960 C 0.83074 0.35260 0.40448
 C961 C 0.83174 0.39574 0.37073
 C962 C 0.84618 0.41531 0.38949
 C963 C 0.82487 0.33904 0.35393
 C964 C 0.81317 0.32200 0.33652
 C965 C 0.88433 0.41825 0.42989
 C966 C 0.90158 0.43432 0.44435
 H967 H 0.89031 0.34353 0.35992
 H968 H 0.91705 0.37966 0.39455
 H969 H 0.84114 0.36997 0.44523
 H970 H 0.81432 0.33360 0.41040
 H971 H 0.81593 0.40478 0.35477
 H972 H 0.84271 0.44106 0.38958
 C973 C 1.14052 0.34467 0.12831
 C974 C 1.10510 0.33503 0.13209
 C975 C 1.08481 0.34863 0.11337
 C976 C 1.10187 0.37056 0.09265
 C977 C 1.12813 0.34965 0.07960
 C978 C 1.14843 0.33604 0.09833
 C979 C 1.14046 0.38133 0.12905
 C980 C 1.12024 0.39488 0.11039
 C981 C 1.16231 0.33036 0.14883
 C982 C 1.17952 0.31863 0.16617
 C983 C 1.08031 0.38660 0.07293
 C984 C 1.06399 0.40328 0.05815
 H985 H 1.09670 0.31886 0.14804
 H986 H 1.05911 0.34408 0.11330
 H987 H 1.13050 0.34579 0.05762
 H988 H 1.16820 0.32056 0.09235
 H989 H 1.15506 0.39545 0.14300
 H990 H 1.11759 0.42064 0.10844
 C991 C 0.63972 0.84359 0.62845
 C992 C 0.60418 0.83556 0.63380
 C993 C 0.58356 0.84895 0.61526
 C994 C 0.60047 0.86906 0.59315
 C995 C 0.62524 0.84647 0.58005
 C996 C 0.64588 0.83306 0.59862
 C997 C 0.64113 0.88021 0.62773
 C998 C 0.62059 0.89356 0.60925
 C999 C 0.66180 0.82955 0.64878
 C1000 C 0.67920 0.81804 0.66604
 C1001 C 0.57862 0.88492 0.57365
 C1002 C 0.56214 0.90159 0.55905
 H1003 H 0.59593 0.82059 0.65065
 H1004 H 0.55772 0.84543 0.61622
 H1005 H 0.62641 0.84138 0.55819
 H1006 H 0.66474 0.81651 0.59263
 H1007 H 0.65693 0.89446 0.64060
 H1008 H 0.61885 0.91927 0.60635
 C1009 C 1.14340 0.65649 -0.12771
 C1010 C 1.14776 0.62020 -0.12508
 C1011 C 1.12797 0.60645 -0.10612
 C1012 C 1.10556 0.63022 -0.09145
 C1013 C 1.08760 0.64738 -0.11476
 C1014 C 1.10743 0.66116 -0.13376
 C1015 C 1.14800 0.66945 -0.09837
 C1016 C 1.12814 0.65564 -0.07933
 C1017 C 1.16471 0.67109 -0.14858
 C1018 C 1.18156 0.68313 -0.16611
 C1019 C 1.08428 0.61404 -0.07144
 C1020 C 1.06776 0.59746 -0.05665
 H1021 H 1.16494 0.60646 -0.13704
 H1022 H 1.12829 0.58093 -0.10191
 H1023 H 1.06158 0.64870 -0.11616
 H1024 H 1.09833 0.67422 -0.15141
 H1025 H 1.16532 0.68787 -0.09304
 H1026 H 1.12845 0.66226 -0.05775
 C1027 C 0.64285 1.15454 0.37435
 C1028 C 0.61972 1.12977 0.36213
 C1029 C 0.59978 1.11616 0.38103
 C1030 C 0.60477 1.12855 0.41045
 C1031 C 0.60102 1.16500 0.40829
 C1032 C 0.62105 1.17867 0.38931
 C1033 C 0.66063 1.13673 0.39738
 C1034 C 0.64065 1.12310 0.41632
 C1035 C 0.66429 1.16893 0.35357
 C1036 C 0.68124 1.18077 0.33608
 C1037 C 0.58338 1.11249 0.43034
 C1038 C 0.56678 1.09589 0.44498
 H1039 H 0.61902 1.12347 0.34048
 H1040 H 0.58201 1.09824 0.37550
 H1041 H 0.58422 1.17883 0.42056
 H1042 H 0.62135 1.20424 0.38536
 H1043 H 0.68663 1.13505 0.39874
 H1044 H 0.64960 1.10978 0.43390
 C1045 C 0.85709 0.65842 0.12764
 C1046 C 0.85239 0.62219 0.12485
 C1047 C 0.87195 0.60846 0.10576
 C1048 C 0.89449 0.63218 0.09115
 C1049 C 0.91273 0.64897 0.11447
 C1050 C 0.89312 0.66274 0.13361
 C1051 C 0.85246 0.67168 0.09839
 C1052 C 0.87210 0.65788 0.07922
 C1053 C 0.83598 0.67292 0.14862
 C1054 C 0.81916 0.68476 0.16621
 C1055 C 0.91546 0.61593 0.07102
 C1056 C 0.93158 0.59911 0.05619
 H1057 H 0.83513 0.60849 0.13680
 H1058 H 0.87137 0.58298 0.10143
 H1059 H 0.93877 0.65007 0.11578
 H1060 H 0.90241 0.67558 0.15129
 H1061 H 0.83528 0.69029 0.09322
 H1062 H 0.87176 0.66470 0.05767
 C1063 C 0.35598 1.15770 0.62752
 C1064 C 0.34776 1.16691 0.59772
 C1065 C 0.36734 1.15299 0.57859
 C1066 C 0.39323 1.13125 0.59113
 C1067 C 0.37453 1.10720 0.60896
 C1068 C 0.35504 1.12105 0.62800
 C1069 C 0.39169 1.16636 0.63085
 C1070 C 0.41125 1.15246 0.61174
 C1071 C 0.33499 1.17230 0.64844
 C1072 C 0.31830 1.18422 0.66603
 C1073 C 0.41409 1.11486 0.57111
 C1074 C 0.43013 1.09788 0.55641
 H1075 H 0.32831 1.18298 0.59216
 H1076 H 0.36468 1.15716 0.55667
 H1077 H 0.37644 1.08141 0.60677
 H1078 H 0.34030 1.10716 0.64207
 H1079 H 0.40080 1.18211 0.64679
 H1080 H 0.43706 1.15633 0.61131
 C1081 C 0.85804 0.34415 -0.12992
 C1082 C 0.85002 0.33471 -0.10012
 C1083 C 0.86963 0.34860 -0.08101
 C1084 C 0.89539 0.37058 -0.09354
 C1085 C 0.87650 0.39464 -0.11117
 C1086 C 0.85696 0.38081 -0.13020
 C1087 C 0.89379 0.33571 -0.13345
 C1088 C 0.91339 0.34959 -0.11437
 C1089 C 0.83697 0.32951 -0.15082
 C1090 C 0.82025 0.31748 -0.16835
 C1091 C 0.91626 0.38687 -0.07342
 C1092 C 0.93218 0.40362 -0.05839
 H1093 H 0.83067 0.31851 -0.09453
 H1094 H 0.86708 0.34426 -0.05911
 H1095 H 0.87831 0.42043 -0.10887
 H1096 H 0.84211 0.39473 -0.14412
 H1097 H 0.90290 0.32013 -0.14952
 H1098 H 0.93922 0.34585 -0.11410
 C1099 C 0.35730 0.84331 0.37071
 C1100 C 0.39329 0.83756 0.36550
 C1101 C 0.41286 0.85123 0.38469
 C1102 C 0.39457 0.86932 0.40726
 C1103 C 0.37097 0.84477 0.41933
 C1104 C 0.35137 0.83108 0.40011
 C1105 C 0.35378 0.87973 0.37259
 C1106 C 0.37330 0.89336 0.39173
 C1107 C 0.33629 0.82892 0.34971
 C1108 C 0.31965 0.81708 0.33208
 C1109 C 0.41538 0.88542 0.42745
 C1110 C 0.43125 0.90214 0.44249
 H1111 H 0.40259 0.82388 0.34827
 H1112 H 0.43887 0.84922 0.38390
 H1113 H 0.36981 0.83862 0.44100
 H1114 H 0.33341 0.81323 0.40536
 H1115 H 0.33737 0.89364 0.36001
 H1116 H 0.37353 0.91897 0.39549
 C1117 C 1.13992 1.14074 0.35931
 C1118 C 1.14445 1.10599 0.34971
 C1119 C 1.12538 1.08466 0.36323
 C1120 C 1.10379 1.10030 0.38491
 C1121 C 1.08478 1.12612 0.36951
 C1122 C 1.10384 1.14745 0.35599
 C1123 C 1.14585 1.14009 0.39035
 C1124 C 1.12682 1.11879 0.40385
 C1125 C 1.16021 1.16326 0.34447
 C1126 C 1.17636 1.18055 0.33047
 C1127 C 1.08374 1.07801 0.40023
 C1128 C 1.06838 1.06147 0.41549
 H1129 H 1.16116 1.09880 0.33370
 H1130 H 1.12565 1.05919 0.35885
 H1131 H 1.05871 1.12749 0.36918
 H1132 H 1.09414 1.16720 0.34409
 H1133 H 1.16339 1.15500 0.40079
 H1134 H 1.12805 1.11540 0.42597
 C1135 C 0.63977 0.64139 -0.14059
 C1136 C 0.64388 0.60676 -0.15062
 C1137 C 0.62472 0.58540 -0.13725
 C1138 C 0.60345 0.60092 -0.11527
 C1139 C 0.58457 0.62715 -0.13027
 C1140 C 0.60374 0.64851 -0.14364
 C1141 C 0.64594 0.64021 -0.10961
 C1142 C 0.62680 0.61888 -0.09625
 C1143 C 0.66015 0.66389 -0.15530
 C1144 C 0.67637 0.68111 -0.16930
 C1145 C 0.58332 0.57860 -0.10011
 C1146 C 0.56792 0.56203 -0.08492
 H1147 H 0.66040 0.59966 -0.16681
 H1148 H 0.62470 0.56000 -0.14192
 H1149 H 0.55852 0.62878 -0.13042
 H1150 H 0.59414 0.66854 -0.15525
 H1151 H 0.66370 0.65478 -0.09909
 H1152 H 0.62816 0.61513 -0.07418
 C1153 C 0.86489 1.14104 0.64010
 C1154 C 0.86277 1.10639 0.65057
 C1155 C 0.88313 1.08596 0.63745
 C1156 C 0.90349 1.10230 0.61525
 C1157 C 0.92085 1.12980 0.62988
 C1158 C 0.90048 1.15025 0.64301
 C1159 C 0.85881 1.13902 0.60913
 C1160 C 0.87914 1.11861 0.59603
 C1161 C 0.84318 1.16258 0.65452
 C1162 C 0.82596 1.17915 0.66822
 C1163 C 0.92471 1.08076 0.60030
 C1164 C 0.94041 1.06434 0.58520
 H1165 H 0.84670 1.09861 0.66686
 H1166 H 0.88460 1.06069 0.64247
 H1167 H 0.94677 1.13291 0.62999
 H1168 H 0.90893 1.17097 0.65436
 H1169 H 0.84026 1.15239 0.59844
 H1170 H 0.87799 1.11448 0.57401
 C1171 C 0.36568 0.64270 0.13964
 C1172 C 0.35968 0.60728 0.14639
 C1173 C 0.38008 0.58697 0.13321
 C1174 C 0.40435 0.60418 0.11466
 C1175 C 0.42167 0.62813 0.13335
 C1176 C 0.40126 0.64846 0.14654
 C1177 C 0.36353 0.64505 0.10831
 C1178 C 0.38391 0.62476 0.09513
 C1179 C 0.34390 0.66406 0.15413
 C1180 C 0.32658 0.68040 0.16792
 C1181 C 0.42554 0.58271 0.09965
 C1182 C 0.44108 0.56622 0.08452
 H1183 H 0.34106 0.59890 0.16032
 H1184 H 0.37904 0.56118 0.13582
 H1185 H 0.44757 0.62901 0.13601
 H1186 H 0.40965 0.66688 0.16054
 H1187 H 0.34751 0.66119 0.09743
 H1188 H 0.38535 0.62350 0.07286
 C1189 C 1.14088 0.85471 0.64238
 C1190 C 1.10498 0.84913 0.64813
 C1191 C 1.08527 0.86896 0.63367
 C1192 C 1.10350 0.89231 0.61497
 C1193 C 1.12494 0.87111 0.59676
 C1194 C 1.14463 0.85130 0.61121
 C1195 C 1.14650 0.89036 0.64839
 C1196 C 1.12680 0.91017 0.63393
 C1197 C 1.16186 0.83382 0.65826
 C1198 C 1.17843 0.81775 0.67299
 C1199 C 1.08287 0.91326 0.59882
 C1200 C 1.06733 0.92941 0.58339
 H1201 H 1.09587 0.83119 0.66230
 H1202 H 1.05926 0.86810 0.63541
 H1203 H 1.12464 0.87162 0.57444
 H1204 H 1.16121 0.83483 0.60137
 H1205 H 1.16438 0.89924 0.66274
 H1206 H 1.12771 0.93604 0.63587
 C1207 C 0.63972 0.35444 0.14113
 C1208 C 0.60386 0.34821 0.14651
 C1209 C 0.58402 0.36817 0.13231
 C1210 C 0.60211 0.39226 0.11423
 C1211 C 0.62401 0.37186 0.09575
 C1212 C 0.64383 0.35194 0.10994
 C1213 C 0.64480 0.38998 0.14790
 C1214 C 0.62497 0.40992 0.13371
 C1215 C 0.66087 0.33344 0.15670
 C1216 C 0.67766 0.31729 0.17113
 C1217 C 0.58141 0.41333 0.09832
 C1218 C 0.56592 0.42961 0.08296
 H1219 H 0.59486 0.32976 0.16025
 H1220 H 0.55800 0.36691 0.13385
 H1221 H 0.62393 0.37298 0.07344
 H1222 H 0.66073 0.33597 0.09988
 H1223 H 0.66241 0.39871 0.16256
 H1224 H 0.62549 0.43573 0.13618
 C1225 C 0.85794 0.85937 0.36078
 C1226 C 0.89353 0.85489 0.35325
 C1227 C 0.91361 0.87512 0.36687
 C1228 C 0.89601 0.89772 0.38659
 C1229 C 0.87642 0.87573 0.40566
 C1230 C 0.85636 0.85551 0.39204
 C1231 C 0.85092 0.89490 0.35533
 C1232 C 0.87100 0.91514 0.36895
 C1233 C 0.83669 0.83795 0.34577
 C1234 C 0.82008 0.82135 0.33158
 C1235 C 0.91720 0.91886 0.40194
 C1236 C 0.93356 0.93460 0.41703
 H1237 H 0.90218 0.83737 0.33852
 H1238 H 0.93947 0.87504 0.36383
 H1239 H 0.87817 0.87603 0.42793
 H1240 H 0.84091 0.83849 0.40255
 H1241 H 0.83185 0.90341 0.34195
 H1242 H 0.86925 0.94099 0.36727
 C1243 C 0.35838 0.35922 -0.13965
 C1244 C 0.39415 0.35354 -0.14578
 C1245 C 0.41407 0.37396 -0.13221
 C1246 C 0.39614 0.39792 -0.11395
 C1247 C 0.37514 0.37735 -0.09481
 C1248 C 0.35524 0.35695 -0.10837
 C1249 C 0.35250 0.39461 -0.14662
 C1250 C 0.37243 0.41503 -0.13304
 C1251 C 0.33728 0.33764 -0.15460
 C1252 C 0.32073 0.32098 -0.16876
 C1253 C 0.41714 0.41925 -0.09865
 C1254 C 0.43332 0.43513 -0.08355
 H1255 H 0.40304 0.33511 -0.15956
 H1256 H 0.44005 0.37314 -0.13434
 H1257 H 0.37586 0.37872 -0.07252
 H1258 H 0.33890 0.34081 -0.09781
 H1259 H 0.33429 0.40287 -0.16095
 H1260 H 0.37141 0.44081 -0.13570
 C1261 C 1.13579 0.34028 -0.12854
 C1262 C 1.13752 0.37689 -0.12927
 C1263 C 1.11790 0.39135 -0.11068
 C1264 C 1.09831 0.36789 -0.09302
 C1265 C 1.12342 0.34572 -0.07988
 C1266 C 1.14313 0.33119 -0.09856
 C1267 C 1.09999 0.33233 -0.13245
 C1268 C 1.08029 0.34685 -0.11378
 C1269 C 1.15706 0.32524 -0.14898
 C1270 C 1.17432 0.31355 -0.16625
 C1271 C 1.07749 0.38491 -0.07341
 C1272 C 1.06182 0.40226 -0.05876
 H1273 H 1.15287 0.39034 -0.14319
 H1274 H 1.11649 0.41720 -0.10872
 H1275 H 1.12547 0.34171 -0.05789
 H1276 H 1.16208 0.31476 -0.09256
 H1277 H 1.09093 0.31661 -0.14842
 H1278 H 1.05440 0.34354 -0.11376
 C1279 C 0.63484 0.83944 0.37191
 C1280 C 0.60146 0.84796 0.36059
 C1281 C 0.58181 0.86225 0.37938
 C1282 C 0.59737 0.86668 0.40775
 C1283 C 0.62859 0.88522 0.40203
 C1284 C 0.64820 0.87095 0.38327
 C1285 C 0.62812 0.81872 0.39746
 C1286 C 0.60842 0.83306 0.41631
 C1287 C 0.65614 0.82457 0.35129
 C1288 C 0.67345 0.81300 0.33394
 C1289 C 0.57654 0.88352 0.42756
 C1290 C 0.56083 0.90073 0.44237
 H1291 H 0.59387 0.84310 0.33965
 H1292 H 0.55743 0.86957 0.37451
 H1293 H 0.63481 0.90765 0.41196
 H1294 H 0.67113 0.88117 0.37716
 H1295 H 0.63796 0.79492 0.40045
 H1296 H 0.60139 0.82154 0.43540
 C1297 C 0.85929 0.66096 -0.12758
 C1298 C 0.85261 0.67186 -0.09792
 C1299 C 0.87169 0.65729 -0.07879
 C1300 C 0.89556 0.63328 -0.09120
 C1301 C 0.91446 0.65236 -0.11283
 C1302 C 0.89540 0.66691 -0.13194
 C1303 C 0.85571 0.62447 -0.12691
 C1304 C 0.87470 0.60997 -0.10787
 C1305 C 0.83871 0.67607 -0.14848
 C1306 C 0.82197 0.68791 -0.16604
 C1307 C 0.91582 0.61624 -0.07118
 C1308 C 0.93139 0.59894 -0.05640
 H1309 H 0.83454 0.68949 -0.09246
 H1310 H 0.86998 0.66245 -0.05696
 H1311 H 0.94048 0.65439 -0.11306
 H1312 H 0.90514 0.68136 -0.14853
 H1313 H 0.83962 0.61114 -0.14023
 H1314 H 0.87481 0.58420 -0.10492
 C1315 C 0.35877 1.16003 0.37286
 C1316 C 0.35600 1.12346 0.37277
 C1317 C 0.37476 1.10886 0.39194
 C1318 C 0.39464 1.13214 0.40950
 C1319 C 0.36988 1.15532 0.42183
 C1320 C 0.35103 1.16998 0.40257
 C1321 C 0.39487 1.16684 0.36939
 C1322 C 0.41370 1.15219 0.38863
 C1323 C 0.33841 1.17531 0.35180
 C1324 C 0.32182 1.18732 0.33416
 C1325 C 0.41471 1.11501 0.42969
 C1326 C 0.43020 1.09770 0.44458
 H1327 H 0.34058 1.11014 0.35886
 H1328 H 0.37535 1.08303 0.39439
 H1329 H 0.36743 1.15988 0.44370
 H1330 H 0.33243 1.18708 0.40799
 H1331 H 0.40476 1.18192 0.35328
 H1332 H 0.43967 1.15477 0.38898
 C1333 C 1.14122 0.65939 0.12522
 C1334 C 1.10554 0.66824 0.12837
 C1335 C 1.08602 0.65400 0.10944
 C1336 C 1.10407 0.63230 0.08919
 C1337 C 1.12257 0.60856 0.10741
 C1338 C 1.14202 0.62276 0.12627
 C1339 C 1.14964 0.66796 0.09531
 C1340 C 1.13010 0.65370 0.07636
 C1341 C 1.16224 0.67420 0.14596
 C1342 C 1.17919 0.68583 0.16347
 C1343 C 1.08327 0.61557 0.06939
 C1344 C 1.06721 0.59847 0.05484
 H1345 H 1.09643 0.68436 0.14404
 H1346 H 1.06023 0.65794 0.10890
 H1347 H 1.12057 0.58274 0.10563
 H1348 H 1.15662 0.60911 0.14058
 H1349 H 1.16916 0.68386 0.08954
 H1350 H 1.13287 0.65740 0.05439
 C1351 C 0.64040 1.15852 0.62579
 C1352 C 0.60474 1.15832 0.63406
 C1353 C 0.58518 1.14392 0.61527
 C1354 C 0.60310 1.13108 0.58997
 C1355 C 0.62923 1.10897 0.60173
 C1356 C 0.64874 1.12334 0.62048
 C1357 C 0.64112 1.17442 0.59725
 C1358 C 0.62151 1.15998 0.57842
 C1359 C 0.66152 1.17355 0.64644
 C1360 C 0.67855 1.18536 0.66385
 C1361 C 0.58220 1.11418 0.57026
 C1362 C 0.56604 1.09704 0.55576
 H1363 H 0.59563 1.16868 0.65299
 H1364 H 0.55936 1.14200 0.61813
 H1365 H 0.63219 1.08410 0.59577
 H1366 H 0.66834 1.11078 0.63053
 H1367 H 0.65571 1.19519 0.59230
 H1368 H 0.61931 1.16840 0.55738
 C1369 C 0.86209 0.34029 0.13065
 C1370 C 0.85946 0.37686 0.13132
 C1371 C 0.87862 0.39183 0.11261
 C1372 C 0.89871 0.36887 0.09490
 C1373 C 0.87408 0.34606 0.08192
 C1374 C 0.85483 0.33102 0.10071
 C1375 C 0.89810 0.33328 0.13441
 C1376 C 0.91733 0.34830 0.11564
 C1377 C 0.84128 0.32462 0.15120
 C1378 C 0.82437 0.31238 0.16852
 C1379 C 0.91908 0.38632 0.07510
 C1380 C 0.93451 0.40367 0.06018
 H1381 H 0.84386 0.38992 0.14527
 H1382 H 0.87937 0.41770 0.11060
 H1383 H 0.87199 0.34199 0.05995
 H1384 H 0.83627 0.31411 0.09479
 H1385 H 0.90765 0.31781 0.15038
 H1386 H 0.94330 0.34566 0.11553
 C1387 C 0.35945 0.83984 0.63203
 C1388 C 0.39534 0.83177 0.63506
 C1389 C 0.41457 0.84654 0.61612
 C1390 C 0.39609 0.86798 0.59592
 C1391 C 0.37707 0.89119 0.61426
 C1392 C 0.35791 0.87647 0.63313
 C1393 C 0.35126 0.83129 0.60210
 C1394 C 0.37049 0.84607 0.58314
 C1395 C 0.33862 0.82437 0.65278
 C1396 C 0.32172 0.81222 0.67021
 C1397 C 0.41653 0.88518 0.57591
 C1398 C 0.43207 0.90233 0.56083
 H1399 H 0.40482 0.81578 0.65068
 H1400 H 0.44044 0.84316 0.61554
 H1401 H 0.37853 0.91706 0.61254
 H1402 H 0.34303 0.88974 0.64750
 H1403 H 0.33208 0.81501 0.59631
 H1404 H 0.36777 0.84240 0.56117
 C1405 C 0.34256 1.14457 -0.12737
 C1406 C 0.36181 1.11690 -0.13995
 C1407 C 0.37559 1.09732 -0.12093
 C1408 C 0.36887 1.10718 -0.09106
 C1409 C 0.33209 1.10872 -0.08884
 C1410 C 0.31824 1.12839 -0.10794
 C1411 C 0.36629 1.16177 -0.10830
 C1412 C 0.38009 1.14217 -0.08926
 C1413 C 0.32802 1.16563 -0.14827
 C1414 C 0.31612 1.18233 -0.16584
 C1415 C 0.38516 1.08622 -0.07106
 C1416 C 0.40202 1.07004 -0.05635
 H1417 H 0.36435 1.11298 -0.16191
 H1418 H 0.38989 1.07662 -0.12666
 H1419 H 0.31818 1.09560 -0.07366
 H1420 H 0.29244 1.13208 -0.10908
 H1421 H 0.37172 1.18714 -0.10958
 H1422 H 0.39731 1.15082 -0.07424
 C1423 C 0.84256 0.64476 0.37285
 C1424 C 0.84232 0.60926 0.36465
 C1425 C 0.85608 0.58957 0.38366
 C1426 C 0.86879 0.60722 0.40910
 C1427 C 0.83985 0.62600 0.42023
 C1428 C 0.82604 0.64574 0.40116
 C1429 C 0.87792 0.65251 0.37863
 C1430 C 0.89166 0.63286 0.39761
 C1431 C 0.82806 0.66588 0.35198
 C1432 C 0.81618 0.68261 0.33441
 C1433 C 0.88503 0.58617 0.42906
 C1434 C 0.90187 0.56993 0.44375
 H1435 H 0.83213 0.60035 0.34559
 H1436 H 0.85763 0.56384 0.38088
 H1437 H 0.83096 0.62395 0.44115
 H1438 H 0.80534 0.66060 0.40581
 H1439 H 0.89105 0.67181 0.36872
 H1440 H 0.91658 0.63542 0.40392
 C1441 C 0.65741 1.14115 0.12976
 C1442 C 0.66428 1.10544 0.13458
 C1443 C 0.65039 1.08575 0.11563
 C1444 C 0.63097 1.10363 0.09363
 C1445 C 0.65460 1.12785 0.08110
 C1446 C 0.66851 1.14757 0.10009
 C1447 C 0.62068 1.14370 0.12881
 C1448 C 0.60683 1.12407 0.10990
 C1449 C 0.67202 1.16232 0.15053
 C1450 C 0.68392 1.17913 0.16802
 C1451 C 0.61462 1.08270 0.07365
 C1452 C 0.59776 1.06683 0.05869
 H1453 H 0.67885 1.09642 0.15140
 H1454 H 0.65310 1.05992 0.11620
 H1455 H 0.66000 1.12933 0.05929
 H1456 H 0.68579 1.16594 0.09450
 H1457 H 0.60672 1.15958 0.14183
 H1458 H 0.58099 1.12320 0.10680
 C1459 C 1.15647 0.64241 0.62947
 C1460 C 1.16783 0.64858 0.59983
 C1461 C 1.15414 0.62867 0.58088
 C1462 C 1.13043 0.60452 0.59340
 C1463 C 1.10611 0.62505 0.60937
 C1464 C 1.11974 0.64488 0.62825
 C1465 C 1.16335 0.60674 0.63457
 C1466 C 1.14967 0.58686 0.61564
 C1467 C 1.17085 0.66377 0.65022
 C1468 C 1.18262 0.68068 0.66771
 C1469 C 1.11430 0.58337 0.57345
 C1470 C 1.09756 0.56733 0.55852
 H1471 H 1.18513 0.66693 0.59425
 H1472 H 1.15974 0.62997 0.55910
 H1473 H 1.08030 0.62412 0.60610
 H1474 H 1.10563 0.66085 0.64107
 H1475 H 1.17778 0.59789 0.65154
 H1476 H 1.15243 0.56104 0.61640
 C1477 C 0.65625 0.86016 -0.12844
 C1478 C 0.66729 0.89511 -0.13158
 C1479 C 0.65378 0.91547 -0.11293
 C1480 C 0.63054 0.89894 -0.09292
 C1481 C 0.65021 0.87189 -0.07972
 C1482 C 0.66374 0.85151 -0.09839
 C1483 C 0.61949 0.86152 -0.12999
 C1484 C 0.60603 0.88181 -0.11140
 C1485 C 0.67044 0.83831 -0.14890
 C1486 C 0.68204 0.82105 -0.16621
 C1487 C 0.61456 0.92057 -0.07328
 C1488 C 0.59785 0.93694 -0.05859
 H1489 H 0.68431 0.90313 -0.14707
 H1490 H 0.65923 0.94087 -0.11244
 H1491 H 0.65334 0.86906 -0.05770
 H1492 H 0.67840 0.83122 -0.09233
 H1493 H 0.60523 0.84771 -0.14444
 H1494 H 0.58020 0.88533 -0.10999
 C1495 C 1.15628 0.35993 0.37181
 C1496 C 1.16673 0.39500 0.36821
 C1497 C 1.15325 0.41539 0.38686
 C1498 C 1.13063 0.39878 0.40733
 C1499 C 1.15094 0.37219 0.42050
 C1500 C 1.16443 0.35178 0.40184
 C1501 C 1.11948 0.36073 0.37074
 C1502 C 1.10604 0.38105 0.38933
 C1503 C 1.17044 0.33805 0.35136
 C1504 C 1.18202 0.32079 0.33403
 C1505 C 1.11468 0.42045 0.42696
 C1506 C 1.09797 0.43683 0.44164
 H1507 H 1.18334 0.40308 0.35243
 H1508 H 1.15834 0.44087 0.38705
 H1509 H 1.15450 0.36967 0.44251
 H1510 H 1.17951 0.33178 0.40789
 H1511 H 1.10517 0.34653 0.35662
 H1512 H 1.08020 0.38420 0.39105
 C1513 C 0.34440 0.85730 0.12556
 C1514 C 0.38075 0.85296 0.12205
 C1515 C 0.39394 0.87295 0.10304
 C1516 C 0.36959 0.89549 0.08926
 C1517 C 0.35313 0.91301 0.11316
 C1518 C 0.33990 0.89296 0.13221
 C1519 C 0.33041 0.85319 0.09650
 C1520 C 0.34367 0.87327 0.07740
 C1521 C 0.33049 0.83582 0.14644
 C1522 C 0.31900 0.81882 0.16400
 C1523 C 0.38531 0.91691 0.06930
 C1524 C 0.40192 0.93347 0.05468
 H1525 H 0.39491 0.83565 0.13347
 H1526 H 0.41945 0.87269 0.09823
 H1527 H 0.35186 0.93888 0.11491
 H1528 H 0.32734 0.90171 0.15028
 H1529 H 0.31173 0.83605 0.09140
 H1530 H 0.33634 0.87335 0.05599
 C1531 C 0.84449 0.35657 0.62521
 C1532 C 0.88117 0.35406 0.62329
 C1533 C 0.89438 0.37417 0.60439
 C1534 C 0.86971 0.39499 0.58910
 C1535 C 0.85102 0.41230 0.61188
 C1536 C 0.83777 0.39213 0.63083
 C1537 C 0.83242 0.35089 0.59572
 C1538 C 0.84570 0.37109 0.57673
 C1539 C 0.83056 0.33499 0.64601
 C1540 C 0.81905 0.31798 0.66356
 C1541 C 0.88544 0.41656 0.56925
 C1542 C 0.90204 0.43323 0.55471
 H1543 H 0.89554 0.33785 0.63567
 H1544 H 0.92011 0.37513 0.60063
 H1545 H 0.84830 0.43811 0.61296
 H1546 H 0.82374 0.40072 0.64815
 H1547 H 0.81498 0.33264 0.59027
 H1548 H 0.83961 0.37017 0.55505
 C1549 C 1.14215 1.14064 0.63967
 C1550 C 1.10638 1.14679 0.64553
 C1551 C 1.08633 1.12647 0.63198
 C1552 C 1.10414 1.10213 0.61402
 C1553 C 1.12750 1.08495 0.63340
 C1554 C 1.14755 1.10527 0.64694
 C1555 C 1.14558 1.14256 0.60840
 C1556 C 1.12554 1.12226 0.59486
 C1557 C 1.16332 1.16217 0.65459
 C1558 C 1.17967 1.17904 0.66874
 C1559 C 1.08314 1.08079 0.59874
 C1560 C 1.06734 1.06453 0.58365
 H1561 H 1.09759 1.16546 0.65911
 H1562 H 1.06034 1.12761 0.63393
 H1563 H 1.12820 1.05919 0.63626
 H1564 H 1.16555 1.09694 0.66144
 H1565 H 1.16220 1.15840 0.59782
 H1566 H 1.12499 1.12069 0.57257
 C1567 C 0.64253 0.64037 0.13948
 C1568 C 0.60694 0.64477 0.14709
 C1569 C 0.58684 0.62460 0.13342
 C1570 C 0.60442 0.60213 0.11359
 C1571 C 0.62950 0.58466 0.13112
 C1572 C 0.64961 0.60483 0.14479
 C1573 C 0.64402 0.64440 0.10823
 C1574 C 0.62394 0.62425 0.09457
 C1575 C 0.66375 0.66177 0.15452
 C1576 C 0.68010 0.67859 0.16874
 C1577 C 0.58332 0.58094 0.09820
 C1578 C 0.56741 0.56480 0.08307
 H1579 H 0.59831 0.66220 0.16190
 H1580 H 0.56098 0.62464 0.13650
 H1581 H 0.63128 0.55880 0.13270
 H1582 H 0.66872 0.59628 0.15809
 H1583 H 0.65943 0.66149 0.09776
 H1584 H 0.62211 0.62407 0.07230
 C1585 C 1.14352 0.86007 0.35737
 C1586 C 1.14888 0.89560 0.35061
 C1587 C 1.12892 0.91563 0.36461
 C1588 C 1.10570 0.89803 0.38388
 C1589 C 1.12723 0.87752 0.40258
 C1590 C 1.14716 0.85752 0.38860
 C1591 C 1.10771 0.85403 0.35167
 C1592 C 1.08777 0.87405 0.36567
 C1593 C 1.16458 0.83876 0.34208
 C1594 C 1.18092 0.82190 0.32789
 C1595 C 1.08472 0.91891 0.39968
 C1596 C 1.06871 0.93444 0.41520
 H1597 H 1.16677 0.90423 0.33611
 H1598 H 1.12960 0.94145 0.36214
 H1599 H 1.12686 0.87864 0.42489
 H1600 H 1.16386 0.84149 0.39882
 H1601 H 1.09882 0.83565 0.33785
 H1602 H 1.06177 0.87293 0.36386
 C1603 C 0.64363 0.36099 -0.14301
 C1604 C 0.61809 0.37702 -0.16126
 C1605 C 0.59804 0.39698 -0.14727
 C1606 C 0.60563 0.39882 -0.11651
 C1607 C 0.64116 0.40862 -0.11483
 C1608 C 0.66120 0.38866 -0.12881
 C1609 C 0.62466 0.34413 -0.12021
 C1610 C 0.60464 0.36406 -0.10624
 C1611 C 0.66478 0.33971 -0.15829
 C1612 C 0.68116 0.32279 -0.17243
 C1613 C 0.58453 0.41964 -0.10072
 C1614 C 0.56843 0.43512 -0.08521
 H1615 H 0.61597 0.37303 -0.18325
 H1616 H 0.57874 0.41014 -0.15716
 H1617 H 0.64980 0.42943 -0.10370
 H1618 H 0.68703 0.39228 -0.12966
 H1619 H 0.62674 0.31883 -0.11545
 H1620 H 0.58948 0.35582 -0.08948
 C1621 C 0.85738 1.13653 0.36201
 C1622 C 0.85473 1.13886 0.39333
 C1623 C 0.87483 1.11848 0.40674
 C1624 C 0.89552 1.09786 0.38744
 C1625 C 0.91319 1.12178 0.36890
 C1626 C 0.89309 1.14217 0.35549
 C1627 C 0.85137 1.10113 0.35522
 C1628 C 0.87150 1.08072 0.36865
 C1629 C 0.83622 1.15825 0.34721
 C1630 C 0.81998 1.17539 0.33316
 C1631 C 0.91681 1.07658 0.40257
 C1632 C 0.93330 1.06077 0.41752
 H1633 H 0.83855 1.15501 0.40402
 H1634 H 0.87587 1.11716 0.42902
 H1635 H 0.93913 1.12259 0.36648
 H1636 H 0.90180 1.16055 0.34156
 H1637 H 0.83293 1.09284 0.34113
 H1638 H 0.87041 1.05494 0.36608
 C1639 C 0.35674 0.63714 -0.13873
 C1640 C 0.36485 0.60675 -0.15516
 C1641 C 0.38514 0.58646 -0.14178
 C1642 C 0.39521 0.59868 -0.11338
 C1643 C 0.36356 0.60486 -0.09792
 C1644 C 0.34329 0.62513 -0.11129
 C1645 C 0.38936 0.65223 -0.13180
 C1646 C 0.40963 0.63197 -0.11844
 C1647 C 0.33538 0.65876 -0.15348
 C1648 C 0.31900 0.67589 -0.16745
 C1649 C 0.41667 0.57751 -0.09826
 C1650 C 0.43324 0.56178 -0.08330
 H1651 H 0.35544 0.60164 -0.17551
 H1652 H 0.39319 0.56398 -0.15058
 H1653 H 0.35758 0.59419 -0.07820
 H1654 H 0.31998 0.63190 -0.10309
 H1655 H 0.39596 0.67666 -0.13692
 H1656 H 0.43366 0.63898 -0.11214
 C1657 C 0.86009 0.85883 0.64046
 C1658 C 0.89530 0.85154 0.64770
 C1659 C 0.91678 0.87064 0.63437
 C1660 C 0.90080 0.89502 0.61523
 C1661 C 0.87720 0.91368 0.63336
 C1662 C 0.85572 0.89459 0.64668
 C1663 C 0.85812 0.85601 0.60915
 C1664 C 0.87957 0.87508 0.59584
 C1665 C 0.83742 0.83857 0.65512
 C1666 C 0.81999 0.82252 0.66909
 C1667 C 0.92319 0.91513 0.60012
 C1668 C 0.93968 0.93065 0.58494
 H1669 H 0.90268 0.83301 0.66202
 H1670 H 0.94258 0.86859 0.63725
 H1671 H 0.87738 0.93953 0.63559
 H1672 H 0.83738 0.90406 0.66034
 H1673 H 0.84141 0.84047 0.59840
 H1674 H 0.88127 0.87589 0.57357
 C1675 C 0.36008 0.35960 0.14075
 C1676 C 0.39540 0.35231 0.14755
 C1677 C 0.41666 0.37148 0.13402
 C1678 C 0.40037 0.39593 0.11514
 C1679 C 0.37705 0.41450 0.13360
 C1680 C 0.35579 0.39534 0.14712
 C1681 C 0.35761 0.35691 0.10946
 C1682 C 0.37883 0.37605 0.09595
 C1683 C 0.33761 0.33924 0.15560
 C1684 C 0.32030 0.32310 0.16961
 C1685 C 0.42254 0.41612 0.09981
 C1686 C 0.43891 0.43166 0.08454
 H1687 H 0.40303 0.33373 0.16173
 H1688 H 0.44251 0.36943 0.13659
 H1689 H 0.37724 0.44034 0.13590
 H1690 H 0.33767 0.40474 0.16102
 H1691 H 0.34074 0.34141 0.09885
 H1692 H 0.38017 0.37695 0.07366
   
