data_POSCAR
  _audit_creation_date              2014-09-24
  _audit_creation_method            'ToBaCCo'
  _symmetry_space_group_name_H-M    'P1'
  _symmetry_Int_Tables_number       1
  _symmetry_cell_setting            triclinic
  loop_
  _symmetry_equiv_pos_as_xyz
 x,y,z
_cell_length_a 35.7029
_cell_length_b 35.9926
_cell_length_c 42.7261
_cell_angle_alpha 90.400100
_cell_angle_beta 90.061600
_cell_angle_gamma 90.010000
loop_
  _atom_site_label
  _atom_site_type_symbol
  _atom_site_fract_x
  _atom_site_fract_y
  _atom_site_fract_z
Zr1 Zr 0.24598 0.24684 0.30302
 O2 O 0.26856 0.27179 0.34402
 O3 O 0.20832 0.20847 0.32295
 O4 O 0.20826 0.28032 0.32860
 O5 O 0.32316 0.18918 0.29219
 O6 O 0.18202 0.31865 0.29224
 O7 O 0.28304 0.21307 0.32875
 O8 O 0.17943 0.18162 0.28082
 O9 O 0.19939 0.24980 0.27331
 O10 O 0.25047 0.20101 0.27294
 O11 O 0.25033 0.29845 0.28043
 O12 O 0.29847 0.25185 0.28071
 Zr13 Zr 0.25960 0.26119 0.19497
 Zr14 Zr 0.20496 0.30020 0.24920
 Zr15 Zr 0.30087 0.20726 0.24883
 Zr16 Zr 0.20557 0.20524 0.24200
 O17 O 0.35996 0.21190 0.24821
 O18 O 0.14698 0.21325 0.23718
 O19 O 0.25584 0.20896 0.21716
 O20 O 0.20774 0.25527 0.21779
 O21 O 0.25564 0.30725 0.22494
 O22 O 0.30588 0.25744 0.22489
 C23 C 0.18464 0.18596 0.31023
 C24 C 0.31221 0.19436 0.32067
 C25 C 0.18735 0.30773 0.32056
 O26 O 0.14607 0.29447 0.24682
 O27 O 0.18514 0.32239 0.20643
 O28 O 0.22445 0.29761 0.16971
 C29 C 0.19605 0.31742 0.17796
 O30 O 0.32021 0.31748 0.30133
 Zr31 Zr 0.30068 0.30187 0.25608
 O32 O 0.29815 0.29893 0.17506
 O33 O 0.20949 0.35872 0.25198
 O34 O 0.29122 0.35982 0.26086
 O35 O 0.35955 0.29451 0.25862
 O36 O 0.32443 0.32789 0.21739
 C37 C 0.32067 0.32249 0.18796
 O38 O 0.23539 0.23887 0.15354
 O39 O 0.29738 0.14855 0.24896
 O40 O 0.29378 0.22468 0.16904
 O41 O 0.31889 0.18541 0.20525
 O42 O 0.21420 0.14699 0.23951
 O43 O 0.19087 0.18514 0.19671
 C44 C 0.31293 0.19600 0.17692
 H45 H 0.25036 0.17714 0.28431
 H46 H 0.18659 0.25505 0.20281
 H47 H 0.32997 0.25797 0.21344
 H48 H 0.24997 0.31942 0.29552
 H49 H 0.13481 0.18859 0.23884
 H50 H 0.13546 0.31988 0.24813
 H51 H 0.18364 0.36866 0.25105
 H52 H 0.31577 0.37248 0.25906
 H53 H 0.18935 0.13484 0.24099
 H54 H 0.32340 0.13911 0.25024
 H55 H 0.36995 0.18627 0.24667
 H56 H 0.37132 0.31939 0.25729
 H57 H 0.16963 0.16760 0.19843
 H58 H 0.24777 0.25070 0.13531
 H59 H 0.25708 0.25955 0.36245
 H60 H 0.33751 0.33886 0.29954
 Zr61 Zr 0.74968 0.75311 0.30587
 O62 O 0.72223 0.72210 0.34109
 O63 O 0.78165 0.79031 0.33330
 O64 O 0.78543 0.71845 0.33221
 O65 O 0.67294 0.81006 0.29212
 O66 O 0.81905 0.68637 0.29543
 O67 O 0.70782 0.78270 0.33046
 O68 O 0.81552 0.82202 0.29688
 O69 O 0.80032 0.75538 0.28113
 O70 O 0.74754 0.80198 0.27969
 O71 O 0.75118 0.70443 0.27831
 O72 O 0.70111 0.74914 0.27773
 Zr73 Zr 0.75272 0.75223 0.19638
 Zr74 Zr 0.80068 0.70808 0.25214
 Zr75 Zr 0.70133 0.79710 0.25007
 Zr76 Zr 0.79673 0.80305 0.25355
 O77 O 0.64299 0.78994 0.24358
 O78 O 0.85590 0.79781 0.25433
 O79 O 0.75055 0.80137 0.22348
 O80 O 0.80066 0.75627 0.22484
 O81 O 0.75441 0.70296 0.22220
 O82 O 0.70225 0.75013 0.22117
 C83 C 0.80594 0.81471 0.32495
 C84 C 0.67972 0.80195 0.32090
 C85 C 0.80931 0.69348 0.32389
 O86 O 0.85928 0.71594 0.25511
 O87 O 0.82545 0.69009 0.20964
 O88 O 0.79170 0.71930 0.17157
 C89 C 0.81829 0.69790 0.18084
 O90 O 0.67872 0.68155 0.28931
 Zr91 Zr 0.70503 0.70246 0.24843
 O92 O 0.72097 0.71532 0.16884
 O93 O 0.79838 0.64938 0.25031
 O94 O 0.71606 0.64458 0.24992
 O95 O 0.64606 0.70692 0.24368
 O96 O 0.69106 0.67951 0.20497
 C97 C 0.69950 0.68841 0.17692
 O98 O 0.78260 0.78134 0.16138
 O99 O 0.70192 0.85562 0.25537
 O100 O 0.71992 0.78985 0.17022
 O101 O 0.68751 0.82269 0.20727
 O102 O 0.78626 0.86102 0.25592
 O103 O 0.81713 0.82895 0.21237
 C104 C 0.69765 0.81613 0.17885
 H105 H 0.74487 0.82446 0.29299
 H106 H 0.82378 0.75855 0.21225
 H107 H 0.68016 0.74988 0.20713
 H108 H 0.75052 0.68185 0.29139
 H109 H 0.86646 0.82249 0.25978
 H110 H 0.87069 0.69084 0.25525
 H111 H 0.82462 0.64043 0.25086
 H112 H 0.69269 0.63143 0.24397
 H113 H 0.81020 0.87349 0.26129
 H114 H 0.67549 0.86395 0.25474
 H115 H 0.63181 0.81512 0.24341
 H116 H 0.63634 0.68189 0.23827
 H117 H 0.83692 0.84708 0.21802
 H118 H 0.77414 0.77185 0.14066
 H119 H 0.73009 0.73229 0.36175
 H120 H 0.66241 0.66030 0.28360
 Zr121 Zr 0.76023 0.24422 -0.30526
 O122 O 0.73791 0.26967 -0.34585
 O123 O 0.80154 0.20991 -0.32605
 O124 O 0.79620 0.28203 -0.32801
 O125 O 0.68581 0.18209 -0.29912
 O126 O 0.81913 0.31904 -0.28877
 O127 O 0.72556 0.21009 -0.33356
 O128 O 0.83034 0.18269 -0.28439
 O129 O 0.80539 0.24816 -0.27405
 O130 O 0.75752 0.19651 -0.27770
 O131 O 0.75184 0.29399 -0.27998
 O132 O 0.70684 0.24484 -0.28396
 Zr133 Zr 0.74196 0.25121 -0.19666
 Zr134 Zr 0.79589 0.29656 -0.24748
 Zr135 Zr 0.70604 0.19844 -0.25449
 Zr136 Zr 0.80087 0.20156 -0.24526
 O137 O 0.64676 0.19952 -0.25502
 O138 O 0.85863 0.21263 -0.23798
 O139 O 0.74969 0.20078 -0.22155
 O140 O 0.79480 0.24980 -0.21849
 O141 O 0.74414 0.29907 -0.22419
 O142 O 0.69704 0.24665 -0.22798
 C143 C 0.82644 0.18865 -0.31366
 C144 C 0.69706 0.18961 -0.32704
 C145 C 0.81523 0.30999 -0.31783
 O146 O 0.85491 0.29402 -0.24382
 O147 O 0.81276 0.31745 -0.20317
 O148 O 0.77435 0.28789 -0.16863
 C149 C 0.80149 0.31008 -0.17524
 O150 O 0.68137 0.30986 -0.30157
 Zr151 Zr 0.70061 0.29298 -0.25675
 O152 O 0.70109 0.28616 -0.17586
 O153 O 0.78784 0.35477 -0.24729
 O154 O 0.70643 0.35159 -0.25873
 O155 O 0.64242 0.28199 -0.26078
 O156 O 0.67466 0.31587 -0.21740
 C157 C 0.67805 0.30948 -0.18816
 O158 O 0.76590 0.22772 -0.15586
 O159 O 0.71314 0.14016 -0.25786
 O160 O 0.70896 0.21113 -0.17364
 O161 O 0.68789 0.17287 -0.21277
 O162 O 0.79566 0.14286 -0.24653
 O163 O 0.81515 0.17936 -0.20082
 C164 C 0.69193 0.18188 -0.18372
 H165 H 0.75957 0.17346 -0.29037
 H166 H 0.81544 0.24992 -0.20302
 H167 H 0.67263 0.24519 -0.21709
 H168 H 0.75134 0.31587 -0.29386
 H169 H 0.87241 0.18892 -0.24063
 H170 H 0.86405 0.32002 -0.24344
 H171 H 0.81299 0.36617 -0.24510
 H172 H 0.68107 0.36260 -0.25700
 H173 H 0.82123 0.13231 -0.24817
 H174 H 0.68780 0.12929 -0.26026
 H175 H 0.63829 0.17330 -0.25509
 H176 H 0.62899 0.30591 -0.25819
 H177 H 0.83718 0.16285 -0.20301
 H178 H 0.75227 0.23779 -0.13739
 H179 H 0.75095 0.25902 -0.36439
 H180 H 0.66214 0.32947 -0.29908
 Zr181 Zr 0.25245 0.75455 -0.30354
 O182 O 0.28262 0.72592 -0.33897
 O183 O 0.21814 0.78946 -0.33049
 O184 O 0.21898 0.71926 -0.33166
 O185 O 0.32641 0.81408 -0.28687
 O186 O 0.18486 0.68547 -0.29671
 O187 O 0.29288 0.78713 -0.32656
 O188 O 0.18267 0.81944 -0.29381
 O189 O 0.20130 0.75451 -0.27958
 O190 O 0.25230 0.80284 -0.27595
 O191 O 0.25184 0.70497 -0.27783
 O192 O 0.30050 0.75154 -0.27481
 Zr193 Zr 0.24686 0.75016 -0.19449
 Zr194 Zr 0.20164 0.70632 -0.25239
 Zr195 Zr 0.29797 0.79862 -0.24554
 Zr196 Zr 0.20262 0.80159 -0.25059
 O197 O 0.35649 0.79350 -0.23892
 O198 O 0.14353 0.79530 -0.25125
 O199 O 0.24806 0.80041 -0.21963
 O200 O 0.19950 0.75371 -0.22359
 O201 O 0.24741 0.70175 -0.22200
 O202 O 0.29791 0.75051 -0.21850
 C203 C 0.19192 0.81182 -0.32203
 C204 C 0.32019 0.80695 -0.31604
 C205 C 0.19530 0.69366 -0.32470
 O206 O 0.14293 0.71268 -0.25616
 O207 O 0.17653 0.68639 -0.21090
 O208 O 0.20818 0.71568 -0.17135
 C209 C 0.18258 0.69369 -0.18175
 O210 O 0.32549 0.68565 -0.28860
 Zr211 Zr 0.29739 0.70373 -0.24739
 O212 O 0.27818 0.71252 -0.16772
 O213 O 0.20560 0.64769 -0.25240
 O214 O 0.28865 0.64559 -0.25145
 O215 O 0.35602 0.70965 -0.24100
 O216 O 0.31047 0.67941 -0.20462
 C217 C 0.30052 0.68649 -0.17648
 O218 O 0.21550 0.77809 -0.15940
 O219 O 0.29490 0.85721 -0.24830
 O220 O 0.27907 0.78635 -0.16627
 O221 O 0.31107 0.82212 -0.20124
 O222 O 0.21150 0.85982 -0.25224
 O223 O 0.18123 0.82611 -0.20888
 C224 C 0.30114 0.81331 -0.17322
 H225 H 0.25413 0.82562 -0.28872
 H226 H 0.17605 0.75492 -0.21130
 H227 H 0.31968 0.75023 -0.20413
 H228 H 0.25356 0.68285 -0.29163
 H229 H 0.13249 0.81988 -0.25603
 H230 H 0.13222 0.68730 -0.25717
 H231 H 0.17964 0.63804 -0.25372
 H232 H 0.31237 0.63309 -0.24563
 H233 H 0.18733 0.87152 -0.25794
 H234 H 0.32097 0.86654 -0.24710
 H235 H 0.36668 0.81909 -0.23782
 H236 H 0.36628 0.68467 -0.23650
 H237 H 0.16220 0.84505 -0.21423
 H238 H 0.22338 0.76820 -0.13877
 H239 H 0.27467 0.73599 -0.35952
 H240 H 0.34242 0.66475 -0.28351
 Zr241 Zr 1.24147 1.24707 0.80465
 O242 O 1.21387 1.21613 0.83982
 O243 O 1.27262 1.28476 0.83196
 O244 O 1.27757 1.21353 0.83172
 O245 O 1.16410 1.30266 0.78967
 O246 O 1.31255 1.18200 0.79550
 O247 O 1.19934 1.27689 0.82860
 O248 O 1.30567 1.31748 0.79566
 O249 O 1.29233 1.25009 0.78031
 O250 O 1.23860 1.29546 0.77786
 O251 O 1.24439 1.19803 0.77779
 O252 O 1.19318 1.24185 0.77636
 Zr253 Zr 1.24549 1.24419 0.69516
 Zr254 Zr 1.29402 1.20240 0.75185
 Zr255 Zr 1.19283 1.28917 0.74790
 Zr256 Zr 1.28804 1.29722 0.75218
 O257 O 1.13476 1.28065 0.74095
 O258 O 1.34726 1.29284 0.75372
 O259 O 1.24228 1.29378 0.72168
 O260 O 1.29307 1.25008 0.72393
 O261 O 1.24804 1.19568 0.72188
 O262 O 1.19482 1.24160 0.71963
 C263 C 1.29631 1.30970 0.82374
 C264 C 1.17109 1.29560 0.81862
 C265 C 1.30232 1.18920 0.82381
 O266 O 1.35241 1.21157 0.75513
 O267 O 1.31983 1.18436 0.70981
 O268 O 1.28592 1.21222 0.67114
 C269 C 1.31294 1.19169 0.68088
 O270 O 1.17205 1.17469 0.78901
 Zr271 Zr 1.19842 1.19474 0.74786
 O272 O 1.21565 1.20482 0.66816
 O273 O 1.29294 1.14366 0.75062
 O274 O 1.20991 1.13703 0.75094
 O275 O 1.13951 1.19809 0.74203
 O276 O 1.18633 1.16968 0.70506
 C277 C 1.19534 1.17726 0.67692
 O278 O 1.27447 1.27311 0.65951
 O279 O 1.19199 1.34777 0.75250
 O280 O 1.21224 1.28082 0.66833
 O281 O 1.17947 1.31423 0.70478
 O282 O 1.27613 1.35495 0.75345
 O283 O 1.30883 1.32301 0.71109
 C284 C 1.19001 1.30733 0.67651
 H285 H 1.23540 1.31811 0.79086
 H286 H 1.31626 1.25273 0.71148
 H287 H 1.17300 1.24049 0.70533
 H288 H 1.24412 1.17568 0.79114
 H289 H 1.35735 1.31766 0.75934
 H290 H 1.36437 1.18674 0.75572
 H291 H 1.31934 1.13526 0.75160
 H292 H 1.18666 1.12342 0.74540
 H293 H 1.29958 1.36808 0.75921
 H294 H 1.16538 1.35551 0.75156
 H295 H 1.12307 1.30560 0.74040
 H296 H 1.13035 1.17276 0.73695
 H297 H 1.32837 1.34135 0.71688
 H298 H 1.26635 1.26274 0.63899
 H299 H 1.22129 1.22668 0.86046
 H300 H 1.15526 1.15373 0.78354
 Zr301 Zr 0.73998 0.74323 0.80455
 O302 O 0.76293 0.76787 0.84555
 O303 O 0.70139 0.70559 0.82465
 O304 O 0.70293 0.77732 0.83024
 O305 O 0.81747 0.68607 0.79362
 O306 O 0.67631 0.81534 0.79385
 O307 O 0.77690 0.70924 0.83018
 O308 O 0.67280 0.67888 0.78234
 O309 O 0.69339 0.74601 0.77486
 O310 O 0.74466 0.69740 0.77451
 O311 O 0.74431 0.79480 0.78179
 O312 O 0.79243 0.74852 0.78209
 Zr313 Zr 0.75322 0.75726 0.69643
 Zr314 Zr 0.69873 0.79639 0.75077
 Zr315 Zr 0.79506 0.70392 0.75027
 Zr316 Zr 0.69974 0.70141 0.74358
 O317 O 0.85409 0.70932 0.74980
 O318 O 0.64114 0.70874 0.73800
 O319 O 0.74996 0.70509 0.71867
 O320 O 0.70149 0.75140 0.71939
 O321 O 0.74922 0.80335 0.72636
 O322 O 0.79977 0.75404 0.72608
 C323 C 0.67731 0.68355 0.81177
 C324 C 0.80637 0.69101 0.82208
 C325 C 0.68212 0.80481 0.82221
 O326 O 0.63987 0.79026 0.74878
 O327 O 0.67890 0.81846 0.70797
 O328 O 0.71775 0.79316 0.67111
 C329 C 0.68962 0.81323 0.67947
 O330 O 0.81507 0.81342 0.80230
 Zr331 Zr 0.79453 0.79842 0.75722
 O332 O 0.78969 0.79649 0.67614
 O333 O 0.70300 0.85494 0.75324
 O334 O 0.78522 0.85626 0.76317
 O335 O 0.85351 0.79139 0.75830
 O336 O 0.81619 0.82580 0.71820
 C337 C 0.81124 0.82107 0.68878
 O338 O 0.72892 0.73363 0.65556
 O339 O 0.79227 0.64519 0.75046
 O340 O 0.78854 0.72180 0.67049
 O341 O 0.81355 0.68244 0.70671
 O342 O 0.70852 0.64314 0.74200
 O343 O 0.68563 0.68089 0.69830
 C344 C 0.80798 0.69330 0.67838
 H345 H 0.74446 0.67359 0.78599
 H346 H 0.68027 0.75105 0.70449
 H347 H 0.82368 0.75503 0.71438
 H348 H 0.74415 0.81581 0.79683
 H349 H 0.62919 0.68397 0.73955
 H350 H 0.62916 0.81564 0.74987
 H351 H 0.67710 0.86477 0.75235
 H352 H 0.80974 0.86895 0.76121
 H353 H 0.68367 0.63101 0.74350
 H354 H 0.81842 0.63607 0.75151
 H355 H 0.86444 0.68384 0.74832
 H356 H 0.86501 0.81634 0.75647
 H357 H 0.66503 0.66260 0.70001
 H358 H 0.74068 0.74548 0.63707
 H359 H 0.75135 0.75574 0.86400
 H360 H 0.83313 0.83415 0.80036
 Zr361 Zr 1.26052 0.74455 0.19384
 O362 O 1.23816 0.77030 0.15340
 O363 O 1.30269 0.71105 0.17319
 O364 O 1.29634 0.78279 0.17159
 O365 O 1.18660 0.68185 0.19880
 O366 O 1.31820 0.81988 0.21119
 O367 O 1.22678 0.71031 0.16498
 O368 O 1.33137 0.68388 0.21494
 O369 O 1.30521 0.74872 0.22546
 O370 O 1.25801 0.69651 0.22099
 O371 O 1.25111 0.79399 0.21935
 O372 O 1.20687 0.74439 0.21472
 Zr373 Zr 1.24076 0.75021 0.30226
 Zr374 Zr 1.29474 0.79677 0.25219
 Zr375 Zr 1.20622 0.69762 0.24376
 Zr376 Zr 1.30087 0.70175 0.25386
 O377 O 1.14694 0.69790 0.24274
 O378 O 1.35843 0.71300 0.26199
 O379 O 1.24942 0.70010 0.27712
 O380 O 1.29387 0.74969 0.28085
 O381 O 1.24270 0.79843 0.27515
 O382 O 1.19630 0.74544 0.27053
 C383 C 1.32783 0.69011 0.18567
 C384 C 1.19822 0.68975 0.17106
 C385 C 1.31485 0.81092 0.18206
 O386 O 1.35374 0.79482 0.25639
 O387 O 1.31075 0.81747 0.29674
 O388 O 1.27234 0.78705 0.33075
 C389 C 1.29926 0.80965 0.32450
 O390 O 1.18071 0.80973 0.19749
 Zr391 Zr 1.19962 0.79219 0.24222
 O392 O 1.19905 0.78414 0.32300
 O393 O 1.28614 0.85491 0.25262
 O394 O 1.20512 0.85087 0.24111
 O395 O 1.14166 0.78053 0.23723
 O396 O 1.17250 0.81397 0.28157
 C397 C 1.17564 0.80715 0.31079
 O398 O 1.26442 0.72682 0.34320
 O399 O 1.21404 0.63948 0.23986
 O400 O 1.20808 0.70940 0.32469
 O401 O 1.18774 0.67139 0.28512
 O402 O 1.29604 0.64304 0.25193
 O403 O 1.31479 0.67938 0.29831
 C404 C 1.19138 0.68013 0.31427
 H405 H 1.26054 0.67366 0.20813
 H406 H 1.31432 0.74993 0.29648
 H407 H 1.17176 0.74351 0.28116
 H408 H 1.25054 0.81597 0.20559
 H409 H 1.37235 0.68934 0.25947
 H410 H 1.36259 0.82092 0.25689
 H411 H 1.31115 0.86653 0.25505
 H412 H 1.17969 0.86171 0.24289
 H413 H 1.32169 0.63269 0.25026
 H414 H 1.18886 0.62838 0.23705
 H415 H 1.13881 0.67158 0.24222
 H416 H 1.12785 0.80421 0.24000
 H417 H 1.33637 0.66229 0.29610
 H418 H 1.25032 0.73657 0.36156
 H419 H 1.25147 0.76013 0.13481
 H420 H 1.16156 0.82940 0.20009
 Zr421 Zr 0.75485 1.25358 0.19819
 O422 O 0.78397 1.22584 0.16165
 O423 O 0.72069 1.28994 0.17254
 O424 O 0.72072 1.21863 0.17026
 O425 O 0.82798 1.31439 0.21439
 O426 O 0.68907 1.18285 0.20540
 O427 O 0.79466 1.28663 0.17495
 O428 O 0.68540 1.31877 0.21006
 O429 O 0.70429 1.25183 0.22294
 O430 O 0.75426 1.30133 0.22646
 O431 O 0.75624 1.20354 0.22323
 O432 O 0.80366 1.25126 0.22603
 Zr433 Zr 0.75258 1.24705 0.30725
 Zr434 Zr 0.70681 1.20318 0.24964
 Zr435 Zr 0.80073 1.29783 0.25588
 Zr436 Zr 0.70520 1.29835 0.25259
 O437 O 0.85951 1.29423 0.26167
 O438 O 0.64648 1.28943 0.25127
 O439 O 0.75150 1.29772 0.28268
 O440 O 0.70432 1.24997 0.27909
 O441 O 0.75354 1.19901 0.27928
 O442 O 0.80278 1.24935 0.28215
 C443 C 0.69520 1.31275 0.18169
 C444 C 0.82156 1.30705 0.18532
 C445 C 0.69801 1.19218 0.17731
 O446 O 0.64784 1.20799 0.24720
 O447 O 0.68317 1.18214 0.29128
 O448 O 0.71608 1.21059 0.33060
 C449 C 0.69022 1.18882 0.32037
 O450 O 0.82911 1.18494 0.21084
 Zr451 Zr 0.80262 1.20287 0.25285
 O452 O 0.78809 1.21201 0.33311
 O453 O 0.71215 1.14467 0.24866
 O454 O 0.79436 1.14459 0.24991
 O455 O 0.86142 1.21030 0.25632
 O456 O 0.82010 1.18022 0.29523
 C457 C 0.81230 1.18795 0.32374
 O458 O 0.72090 1.27255 0.34345
 O459 O 0.79621 1.35638 0.25357
 O460 O 0.78327 1.28468 0.33520
 O461 O 0.81380 1.32147 0.30010
 O462 O 0.71234 1.35686 0.25324
 O463 O 0.68308 1.32089 0.29482
 C464 C 0.80429 1.31238 0.32813
 H465 H 0.75556 1.32451 0.21418
 H466 H 0.68121 1.25034 0.29185
 H467 H 0.82513 1.24996 0.29587
 H468 H 0.75798 1.18172 0.20909
 H469 H 0.63440 1.31360 0.24677
 H470 H 0.63777 1.18237 0.24590
 H471 H 0.68639 1.13444 0.24786
 H472 H 0.81848 1.13252 0.25517
 H473 H 0.68774 1.36825 0.24841
 H474 H 0.82206 1.36633 0.25448
 H475 H 0.86899 1.32006 0.26308
 H476 H 0.87275 1.18561 0.26017
 H477 H 0.66205 1.33781 0.28992
 H478 H 0.73001 1.26277 0.36377
 H479 H 0.77541 1.23642 0.14145
 H480 H 0.84553 1.16345 0.21529
 O481 O 0.45018 1.08076 0.04486
 O482 O 0.40687 1.03994 0.02450
 C483 C 0.41613 1.06963 0.04032
 O484 O 0.55140 1.05168 -0.06573
 O485 O 0.59459 1.02770 -0.03140
 C486 C 0.58545 1.04548 -0.05677
 O487 O 0.44879 1.05787 -0.06198
 O488 O 0.40617 1.03119 -0.02860
 C489 C 0.41492 1.05170 -0.05257
 O490 O 0.55283 1.07727 0.04828
 O491 O 0.59521 1.03741 0.02538
 C492 C 0.58665 1.06592 0.04304
 Zr493 Zr 0.50134 1.05553 0.03324
 O494 O 0.50475 1.11356 0.02604
 O495 O 0.50006 1.06173 0.08247
 Zr496 Zr 0.50024 1.03972 -0.04388
 O497 O 0.50266 1.09814 -0.04823
 O498 O 0.49650 1.03173 -0.09289
 O499 O 0.46701 1.05501 -0.00609
 O500 O 0.53405 1.05424 -0.00655
 O501 O 0.55243 0.95061 0.06691
 O502 O 0.59503 0.97453 0.03210
 C503 C 0.58634 0.95634 0.05737
 O504 O 0.44805 0.92376 -0.04279
 O505 O 0.40581 0.96465 -0.02118
 C506 C 0.41423 0.93515 -0.03761
 O507 O 0.55074 0.92600 -0.04679
 O508 O 0.59420 0.96512 -0.02425
 C509 C 0.58477 0.93687 -0.04183
 O510 O 0.44963 0.94690 0.06527
 O511 O 0.40655 0.97348 0.03219
 C512 C 0.41567 0.95316 0.05618
 Zr513 Zr 0.50089 0.96396 0.04618
 O514 O 0.50501 0.90584 0.05299
 O515 O 0.49809 0.97358 0.09505
 Zr516 Zr 0.49979 0.94805 -0.03110
 O517 O 0.50322 0.88997 -0.02405
 O518 O 0.49753 0.94182 -0.08031
 Zr519 Zr 0.44357 1.00206 0.00149
 Zr520 Zr 0.55757 1.00144 0.00070
 O521 O 0.53335 0.94897 0.00822
 O522 O 0.46652 0.94882 0.00882
 O523 O 0.53491 1.01083 0.04557
 O524 O 0.46692 0.99293 -0.04304
 O525 O 0.46811 1.01114 0.04569
 O526 O 0.53359 0.99238 -0.04382
 H527 H 0.55102 1.07569 -0.00964
 H528 H 0.45011 0.98951 -0.06130
 H529 H 0.55001 0.92722 0.01103
 H530 H 0.45170 1.01496 0.06413
 H531 H 0.50980 1.00831 -0.09784
 H532 H 0.49721 0.91473 -0.08463
 H533 H 0.48423 0.88334 -0.00821
 H534 H 0.48223 0.89415 0.04414
 H535 H 0.51438 0.99514 0.09980
 H536 H 0.49980 1.08882 0.08678
 H537 H 0.48874 1.11935 0.00780
 H538 H 0.50290 1.10328 -0.07098
 O539 O 1.05481 0.57568 0.54817
 O540 O 1.09619 0.53578 0.52401
 C541 C 1.08834 0.56412 0.54207
 O542 O 0.95042 0.44544 0.56493
 O543 O 0.90699 0.47404 0.53339
 C544 C 0.91635 0.45268 0.55666
 O545 O 1.05316 0.44814 0.56544
 O546 O 1.09536 0.47258 0.53053
 C547 C 1.08692 0.45373 0.55553
 O548 O 0.95213 0.58010 0.54717
 O549 O 0.90793 0.54078 0.52609
 C550 C 0.91782 0.56980 0.54252
 Zr551 Zr 1.00271 0.55502 0.53362
 O552 O 1.00106 0.56415 0.58261
 O553 O 1.00764 0.61275 0.52517
 Zr554 Zr 1.00147 0.46347 0.54608
 O555 O 1.00159 0.47746 0.59422
 O556 O 1.00376 0.40576 0.55501
 O557 O 1.03612 0.50975 0.54512
 O558 O 0.96918 0.51086 0.54631
 O559 O 0.94814 0.55839 0.43896
 O560 O 0.90596 0.53222 0.47297
 C561 C 0.91445 0.55271 0.44895
 O562 O 1.04895 0.42535 0.45231
 O563 O 1.09331 0.46389 0.47420
 C564 C 1.08322 0.43581 0.45671
 O565 O 0.94630 0.42448 0.45782
 O566 O 0.90502 0.46583 0.48017
 C567 C 0.91276 0.43627 0.46361
 O568 O 1.05068 0.55160 0.43394
 O569 O 1.09428 0.52639 0.46725
 C570 C 1.08483 0.54466 0.44221
 Zr571 Zr 0.99986 0.53988 0.45637
 O572 O 0.99374 0.53223 0.40747
 O573 O 1.00549 0.59803 0.45052
 Zr574 Zr 0.99848 0.44790 0.46888
 O575 O 0.99286 0.43697 0.42032
 O576 O 0.99938 0.39075 0.48000
 Zr577 Zr 1.05761 0.50042 0.49983
 Zr578 Zr 0.94370 0.50260 0.50239
 O579 O 0.96615 0.49338 0.45751
 O580 O 1.03249 0.49199 0.45560
 O581 O 0.96756 0.55542 0.49478
 O582 O 1.03296 0.44823 0.50756
 O583 O 1.03453 0.55360 0.49334
 O584 O 0.96612 0.44910 0.50915
 H585 H 0.95311 0.51449 0.56499
 H586 H 1.04928 0.42617 0.51003
 H587 H 0.94898 0.49015 0.43945
 H588 H 1.05181 0.57478 0.49011
 H589 H 0.98784 0.39335 0.53912
 H590 H 0.99857 0.37704 0.45981
 H591 H 1.01303 0.45055 0.40943
 H592 H 1.01081 0.51194 0.40109
 H593 H 0.98297 0.61009 0.45944
 H594 H 0.98608 0.62034 0.51214
 H595 H 1.01928 0.54695 0.59225
 H596 H 1.00125 0.45366 0.60575
 O597 O 0.91955 0.55247 -0.04364
 O598 O 0.96327 0.59472 -0.02619
 C599 C 0.93234 0.58599 -0.04082
 O600 O 0.95046 0.45433 0.06827
 O601 O 0.97185 0.40985 0.03381
 C602 C 0.95535 0.42012 0.05963
 O603 O 0.94701 0.55624 0.06316
 O604 O 0.97332 0.59668 0.02795
 C605 C 0.95373 0.58932 0.05290
 O606 O 0.91978 0.45060 -0.04502
 O607 O 0.95967 0.40804 -0.02286
 C608 C 0.93064 0.41690 -0.03992
 Zr609 Zr 0.94348 0.50135 -0.03112
 O610 O 0.88549 0.49987 -0.02089
 O611 O 0.93436 0.50109 -0.08004
 Zr612 Zr 0.96278 0.50418 0.04517
 O613 O 0.90403 0.50367 0.05123
 O614 O 0.97257 0.50895 0.09388
 O615 O 0.94672 0.53667 0.00744
 O616 O 0.94565 0.46990 0.00903
 O617 O 1.04544 0.44625 -0.06778
 O618 O 1.02236 0.40588 -0.03105
 C619 C 1.03912 0.41312 -0.05737
 O620 O 1.08094 0.55259 0.03915
 O621 O 1.03925 0.59510 0.01943
 C622 C 1.06976 0.58630 0.03455
 O623 O 1.07626 0.45126 0.04554
 O624 O 1.03462 0.40854 0.02544
 C625 C 1.06407 0.41766 0.04200
 O626 O 1.05261 0.54835 -0.06808
 O627 O 1.02902 0.59283 -0.03460
 C628 C 1.04769 0.58253 -0.05939
 Zr629 Zr 1.03540 0.49851 -0.04727
 O630 O 1.09363 0.49242 -0.05538
 O631 O 1.02472 0.49971 -0.09597
 Zr632 Zr 1.05472 0.50161 0.02918
 O633 O 1.11269 0.49617 0.01982
 O634 O 1.06335 0.50531 0.07809
 Zr635 Zr 1.00043 0.55791 -0.00243
 Zr636 Zr 0.99790 0.44489 0.00042
 O637 O 1.05114 0.46695 -0.00935
 O638 O 1.05316 0.53349 -0.01119
 O639 O 0.98712 0.46644 -0.04442
 O640 O 1.01085 0.53572 0.04214
 O641 O 0.98877 0.53227 -0.04577
 O642 O 1.00960 0.46986 0.04409
 H643 H 0.92375 0.45371 0.01306
 H644 H 1.01547 0.55266 0.06012
 H645 H 1.07231 0.44954 -0.01256
 H646 H 0.98471 0.54774 -0.06457
 H647 H 0.99648 0.49606 0.09819
 H648 H 1.09083 0.50538 0.08142
 H649 H 1.11920 0.51466 0.00370
 H650 H 1.10612 0.51567 -0.04862
 H651 H 1.00089 0.48628 -0.09954
 H652 H 0.90686 0.50213 -0.08317
 H653 H 0.88074 0.51870 -0.00439
 H654 H 0.89964 0.50422 0.07413
 O655 O 0.41844 0.94941 0.45442
 O656 O 0.45748 0.90632 0.47698
 C657 C 0.42878 0.91557 0.45967
 O658 O 0.55428 1.04620 0.43496
 O659 O 0.52916 1.09062 0.46777
 C660 C 0.54904 1.08033 0.44364
 O661 O 0.54661 0.94435 0.43418
 O662 O 0.52095 0.90379 0.46959
 C663 C 0.53943 0.91119 0.44407
 O664 O 0.41952 1.05128 0.45575
 O665 O 0.46284 1.09302 0.47476
 C666 C 0.43242 1.08469 0.45919
 Zr667 Zr 0.44260 0.99985 0.46857
 O668 O 0.43688 0.99959 0.41930
 O669 O 0.38405 0.99865 0.47626
 Zr670 Zr 0.53447 0.99641 0.45414
 O671 O 0.51854 0.99663 0.40645
 O672 O 0.59216 0.99129 0.44363
 O673 O 0.48616 0.96446 0.45598
 O674 O 0.48846 1.03086 0.45516
 O675 O 0.44536 1.05393 0.56406
 O676 O 0.47189 1.09449 0.52914
 C677 C 0.45216 1.08704 0.55396
 O678 O 0.57292 0.94764 0.54690
 O679 O 0.53117 0.90558 0.52603
 C680 C 0.56035 0.91425 0.54300
 O681 O 0.57841 1.04917 0.54228
 O682 O 0.53769 1.09225 0.52200
 C683 C 0.56769 1.08305 0.53767
 O684 O 0.44818 0.95198 0.56876
 O685 O 0.46859 0.90757 0.53386
 C686 C 0.45237 0.91778 0.55984
 Zr687 Zr 0.45959 1.00173 0.54529
 O688 O 0.46429 1.00588 0.59449
 O689 O 0.40056 0.99899 0.55002
 Zr690 Zr 0.55232 0.99863 0.53081
 O691 O 0.56545 1.00300 0.57905
 O692 O 0.60930 0.99517 0.51767
 Zr693 Zr 0.49560 0.94263 0.50093
 Zr694 Zr 0.49911 1.05569 0.49898
 O695 O 0.50823 1.03264 0.54347
 O696 O 0.50643 0.96733 0.54497
 O697 O 0.44483 1.03480 0.50753
 O698 O 0.54920 0.96437 0.49210
 O699 O 0.44330 0.96799 0.50860
 O700 O 0.55171 1.03088 0.49082
 H701 H 0.48531 1.04678 0.43652
 H702 H 0.57048 0.94704 0.48908
 H703 H 0.51279 1.04913 0.56174
 H704 H 0.42133 0.95175 0.51224
 H705 H 0.60587 1.00717 0.45876
 H706 H 0.62395 0.99520 0.53739
 H707 H 0.55005 0.98450 0.59025
 H708 H 0.49122 1.00372 0.59947
 H709 H 0.39018 1.02382 0.54531
 H710 H 0.37826 1.01792 0.49214
 H711 H 0.40964 1.00100 0.41492
 H712 H 0.54209 0.99620 0.39419
 O713 O 1.05253 0.91399 0.53678
 O714 O 1.03197 0.95436 0.57497
 C715 C 1.04954 0.92470 0.56563
 O716 O 1.07961 1.05010 0.45610
 O717 O 1.03612 1.02732 0.42128
 C718 C 1.06538 1.04729 0.42835
 O719 O 1.09026 1.03569 0.54085
 O720 O 1.04859 1.01386 0.57733
 C721 C 1.08004 1.02927 0.56934
 O722 O 1.04042 0.91544 0.45134
 O723 O 1.01902 0.96142 0.41894
 C724 C 1.03427 0.92917 0.42394
 Zr725 Zr 1.03455 0.93979 0.49569
 O726 O 1.09251 0.92931 0.49073
 O727 O 1.02203 0.88239 0.49668
 Zr728 Zr 1.06145 1.02830 0.49864
 O729 O 1.11594 1.00652 0.49247
 O730 O 1.08222 1.08306 0.50355
 O731 O 1.05675 0.98046 0.52486
 O732 O 1.05272 0.98382 0.46888
 O733 O 0.91746 0.95432 0.45944
 O734 O 0.95814 0.97781 0.42293
 C735 C 0.92786 0.96034 0.43098
 O736 O 0.96017 1.07718 0.54846
 O737 O 0.98559 1.03322 0.58087
 C738 C 0.96759 1.06401 0.57582
 O739 O 0.95812 1.08269 0.46217
 O740 O 0.97586 1.04082 0.42408
 C741 C 0.96058 1.07177 0.43328
 O742 O 0.92181 0.95358 0.54566
 O743 O 0.96801 0.97243 0.57969
 C744 C 0.93573 0.95735 0.57349
 Zr745 Zr 0.94439 0.96633 0.50170
 O746 O 0.88739 0.98263 0.50179
 O747 O 0.92830 0.90972 0.50355
 Zr748 Zr 0.97173 1.05552 0.50397
 O749 O 0.91520 1.07340 0.50430
 O750 O 0.99188 1.11071 0.50651
 Zr751 Zr 1.00594 0.99494 0.54692
 Zr752 Zr 0.99959 1.00003 0.45302
 O753 O 0.94943 1.01428 0.47599
 O754 O 0.95269 1.01166 0.53124
 O755 O 0.98520 0.94735 0.47066
 O756 O 1.02051 1.04710 0.52884
 O757 O 0.98939 0.94470 0.52572
 O758 O 1.01661 1.05049 0.47383
 H759 H 1.07248 0.97911 0.45304
 H760 H 1.02813 1.06737 0.54330
 H761 H 0.92714 1.02125 0.46349
 H762 H 0.98417 0.92294 0.53910
 H763 H 1.06164 1.09987 0.49731
 H764 H 0.96952 1.12699 0.50755
 H765 H 0.90241 1.06057 0.52167
 H766 H 0.88386 1.00033 0.51933
 H767 H 0.93643 0.89761 0.48384
 H768 H 0.99693 0.87934 0.48725
 H769 H 1.09513 0.90198 0.48885
 H770 H 1.13308 1.02817 0.49225
 O771 O 0.42066 0.43597 -0.03087
 O772 O 0.44788 0.46573 -0.07243
 C773 C 0.42327 0.44342 -0.06037
 O774 O 0.45165 0.57299 0.04828
 O775 O 0.48979 0.53697 0.07909
 C776 C 0.46656 0.56437 0.07484
 O777 O 0.42371 0.56253 -0.03433
 O778 O 0.44922 0.52751 -0.07411
 C779 C 0.42547 0.55169 -0.06321
 O780 O 0.44752 0.43287 0.05219
 O781 O 0.48654 0.47063 0.08105
 C782 C 0.46226 0.44389 0.07828
 Zr783 Zr 0.45240 0.45481 0.00725
 O784 O 0.39567 0.46459 0.01877
 O785 O 0.44332 0.39679 0.00793
 Zr786 Zr 0.45570 0.54711 0.00440
 O787 O 0.39844 0.54500 0.01684
 O788 O 0.45438 0.60556 -0.00040
 O789 O 0.44026 0.49997 -0.02058
 O790 O 0.45403 0.50240 0.03431
 O791 O 0.57156 0.43030 0.03104
 O792 O 0.54867 0.46744 0.07043
 C793 C 0.56947 0.44040 0.06005
 O794 O 0.55944 0.55820 -0.05764
 O795 O 0.51477 0.52601 -0.08553
 C796 C 0.54306 0.54863 -0.08341
 O797 O 0.57608 0.56586 0.02708
 O798 O 0.55110 0.53383 0.06837
 C799 C 0.57371 0.55833 0.05656
 O800 O 0.55327 0.42870 -0.05357
 O801 O 0.51306 0.46305 -0.08385
 C802 C 0.53828 0.43742 -0.08004
 Zr803 Zr 0.54464 0.45059 -0.00867
 O804 O 0.60342 0.45014 -0.01549
 O805 O 0.54322 0.39177 -0.00989
 Zr806 Zr 0.54744 0.54368 -0.01141
 O807 O 0.60615 0.54392 -0.01820
 O808 O 0.54461 0.60224 -0.01409
 Zr809 Zr 0.48897 0.49683 -0.04832
 Zr810 Zr 0.51165 0.50080 0.04408
 O811 O 0.55962 0.49797 0.01565
 O812 O 0.54682 0.49559 -0.03878
 O813 O 0.50508 0.44621 0.02671
 O814 O 0.49508 0.55116 -0.03075
 O815 O 0.49161 0.44436 -0.02718
 O816 O 0.50872 0.55384 0.02367
 H817 H 0.43635 0.50395 0.05215
 H818 H 0.49209 0.57236 -0.04523
 H819 H 0.58465 0.49768 0.02569
 H820 H 0.48730 0.42178 -0.04008
 H821 H 0.47900 0.61501 0.00674
 H822 H 0.57040 0.61090 -0.01854
 H823 H 0.61201 0.52380 -0.03328
 H824 H 0.60863 0.46062 -0.03639
 H825 H 0.53048 0.38335 0.00936
 H826 H 0.46767 0.38497 0.00333
 H827 H 0.38443 0.43981 0.02232
 H828 H 0.38981 0.57113 0.01812
 C829 C 0.35170 1.13394 0.10342
 C830 C 0.34502 1.09561 0.10100
 C831 C 0.36274 1.07456 0.07755
 C832 C 0.32733 1.17352 0.15177
 C833 C 0.39173 1.13058 0.05783
 C834 C 0.37391 1.15152 0.08103
 C835 C 0.33820 1.15509 0.12988
 C836 C 0.38746 1.09177 0.05663
 H837 H 0.32776 1.08172 0.11817
 H838 H 0.35974 1.04460 0.07753
 H839 H 0.41103 1.14435 0.04216
 H840 H 0.37912 1.18114 0.08252
 C841 C 0.85127 0.63321 0.60542
 C842 C 0.87633 0.65098 0.58535
 C843 C 0.89536 0.63060 0.56248
 C844 C 0.82362 0.67149 0.65329
 C845 C 0.86229 0.57484 0.57786
 C846 C 0.84333 0.59534 0.60100
 C847 C 0.83588 0.65363 0.63157
 C848 C 0.88951 0.59212 0.55924
 H849 H 0.88257 0.68025 0.58838
 H850 H 0.91643 0.64445 0.54855
 H851 H 0.85787 0.54511 0.57623
 H852 H 0.82388 0.58131 0.61636
 C853 C 0.65570 0.89089 0.11620
 C854 C 0.63217 0.91803 0.12906
 C855 C 0.61224 0.94195 0.10960
 C856 C 0.68376 0.84101 0.15524
 C857 C 0.64128 0.91382 0.06403
 C858 C 0.66112 0.88954 0.08365
 C859 C 0.67175 0.86328 0.13667
 C860 C 0.61568 0.93934 0.07690
 H861 H 0.62776 0.91953 0.15413
 H862 H 0.59234 0.96111 0.12002
 H863 H 0.64374 0.91076 0.03888
 H864 H 0.67928 0.86867 0.07338
 C865 C 1.15260 0.38397 0.61334
 C866 C 1.15588 0.38088 0.58067
 C867 C 1.13783 0.40661 0.56114
 C868 C 1.17715 0.33248 0.65264
 C869 C 1.11510 0.43958 0.60692
 C870 C 1.13325 0.41417 0.62630
 C871 C 1.16653 0.35532 0.63394
 C872 C 1.11624 0.43542 0.57421
 H873 H 1.17077 0.35766 0.57031
 H874 H 1.13821 0.40224 0.53603
 H875 H 1.09801 0.46113 0.61750
 H876 H 1.13050 0.41702 0.65146
 C877 C 0.65176 1.10778 -0.11972
 C878 C 0.65762 1.11194 -0.08737
 C879 C 0.63905 1.08859 -0.06622
 C880 C 0.67765 1.15654 -0.16069
 C881 C 0.61062 1.05568 -0.10982
 C882 C 0.62926 1.07873 -0.13082
 C883 C 0.66629 1.13455 -0.14165
 C884 C 0.61436 1.06115 -0.07736
 H885 H 0.67500 1.13432 -0.07848
 H886 H 0.64161 1.09388 -0.04131
 H887 H 0.59127 1.03504 -0.11889
 H888 H 0.62455 1.07509 -0.15571
 C889 C 1.15080 0.60604 0.37821
 C890 C 1.12732 0.57758 0.36744
 C891 C 1.10873 0.55482 0.38872
 C892 C 1.17694 0.65455 0.33709
 C893 C 1.13904 0.58683 0.43189
 C894 C 1.15757 0.60988 0.41047
 C895 C 1.16545 0.63259 0.35611
 C896 C 1.11347 0.55998 0.42112
 H897 H 1.12186 0.57420 0.34264
 H898 H 1.08869 0.53466 0.37993
 H899 H 1.14240 0.59191 0.45676
 H900 H 1.17569 0.63181 0.41912
 C901 C 0.34420 0.87314 -0.09947
 C902 C 0.36897 0.85484 -0.07942
 C903 C 0.38911 0.87485 -0.05687
 C904 C 0.31574 0.83518 -0.14752
 C905 C 0.35782 0.93148 -0.07245
 C906 C 0.33776 0.91136 -0.09528
 C907 C 0.32804 0.85294 -0.12563
 C908 C 0.38472 0.91355 -0.05385
 H909 H 0.37418 0.82535 -0.08225
 H910 H 0.40993 0.86043 -0.04304
 H911 H 0.35452 0.96137 -0.07108
 H912 H 0.31868 0.92591 -0.11063
 C913 C 0.84370 0.37386 0.40210
 C914 C 0.86647 0.35568 0.42380
 C915 C 0.88592 0.37606 0.44650
 C916 C 0.81780 0.33491 0.35375
 C917 C 0.85760 0.43289 0.42777
 C918 C 0.83824 0.41239 0.40480
 C919 C 0.82897 0.35316 0.37572
 C920 C 0.88278 0.41498 0.44795
 H921 H 0.87091 0.32595 0.42206
 H922 H 0.90556 0.36172 0.46152
 H923 H 0.85543 0.46292 0.42794
 H924 H 0.82069 0.42681 0.38814
 C925 C 1.13052 0.35646 0.10618
 C926 C 1.14731 0.37492 0.08114
 C927 C 1.12521 0.39140 0.05802
 C928 C 1.17319 0.33257 0.15315
 C929 C 1.06909 0.36890 0.08334
 C930 C 1.09135 0.35246 0.10667
 C931 C 1.15358 0.34349 0.13190
 C932 C 1.08586 0.38958 0.05936
 H933 H 1.17746 0.37815 0.08026
 H934 H 1.13880 0.40778 0.04013
 H935 H 1.03887 0.36799 0.08544
 H936 H 1.07790 0.33816 0.12585
 C937 C 0.62487 0.85238 0.60757
 C938 C 0.58561 0.84979 0.60837
 C939 C 0.56384 0.86637 0.58486
 C940 C 0.66689 0.82845 0.65473
 C941 C 0.62056 0.88613 0.55879
 C942 C 0.64219 0.86947 0.58209
 C943 C 0.64753 0.83941 0.63342
 C944 C 0.58122 0.88576 0.56044
 H945 H 0.57180 0.83657 0.62792
 H946 H 0.53362 0.86668 0.58714
 H947 H 0.63456 0.90160 0.54054
 H948 H 0.67243 0.87156 0.58101
 C949 C 1.11186 0.64943 -0.12124
 C950 C 1.11322 0.65680 -0.08892
 C951 C 1.08972 0.63735 -0.06834
 C952 C 1.16001 0.67898 -0.16123
 C953 C 1.06243 0.60467 -0.11260
 C954 C 1.08558 0.62415 -0.13300
 C955 C 1.13836 0.66593 -0.14255
 C956 C 1.06499 0.61028 -0.08006
 H957 H 1.13341 0.67641 -0.07954
 H958 H 1.09264 0.64160 -0.04334
 H959 H 1.04372 0.58375 -0.12213
 H960 H 1.08403 0.61833 -0.15789
 C961 C 0.61658 1.14491 0.38310
 C962 C 0.58810 1.12239 0.37097
 C963 C 0.56378 1.10398 0.39111
 C964 C 0.66570 1.17270 0.34319
 C965 C 0.59447 1.13242 0.43588
 C966 C 0.61912 1.15079 0.41557
 C967 C 0.64381 1.16027 0.36192
 C968 C 0.56738 1.10801 0.42370
 H969 H 0.58569 1.11776 0.34596
 H970 H 0.54337 1.08489 0.38129
 H971 H 0.59824 1.13521 0.46095
 H972 H 0.64103 1.16828 0.42521
 C973 C 0.89076 0.65697 0.11482
 C974 C 0.88255 0.65750 0.08267
 C975 C 0.90583 0.63875 0.06129
 C976 C 0.84303 0.68313 0.15720
 C977 C 0.94664 0.62091 0.10393
 C978 C 0.92359 0.63973 0.12517
 C979 C 0.86451 0.67152 0.13757
 C980 C 0.93740 0.61935 0.07198
 H981 H 0.85722 0.67074 0.07433
 H982 H 0.89759 0.63693 0.03692
 H983 H 0.97037 0.60537 0.11274
 H984 H 0.93035 0.63910 0.14989
 C985 C 0.38768 1.15315 0.61567
 C986 C 0.37994 1.15399 0.58346
 C987 C 0.40385 1.13595 0.56216
 C988 C 0.33858 1.17761 0.65764
 C989 C 0.44440 1.11831 0.60504
 C990 C 0.42070 1.13643 0.62620
 C991 C 0.36073 1.16674 0.63824
 C992 C 0.43559 1.11693 0.57300
 H993 H 0.35446 1.16682 0.57499
 H994 H 0.39594 1.13424 0.53770
 H995 H 0.46824 1.10302 0.61394
 H996 H 0.42709 1.13558 0.65099
 C997 C 0.86375 0.35176 -0.10195
 C998 C 0.84689 0.37396 -0.07895
 C999 C 0.86882 0.39208 -0.05639
 C1000 C 0.82264 0.32559 -0.14934
 C1001 C 0.92473 0.36392 -0.07801
 C1002 C 0.90267 0.34585 -0.10080
 C1003 C 0.84132 0.33734 -0.12769
 C1004 C 0.90806 0.38822 -0.05624
 H1005 H 0.81694 0.37879 -0.07938
 H1006 H 0.85534 0.41114 -0.04021
 H1007 H 0.95494 0.36127 -0.07898
 H1008 H 0.91619 0.32875 -0.11843
 C1009 C 0.36107 0.85089 0.39806
 C1010 C 0.34449 0.87344 0.42094
 C1011 C 0.36667 0.89147 0.44337
 C1012 C 0.32000 0.82504 0.35061
 C1013 C 0.42222 0.86246 0.42184
 C1014 C 0.39991 0.84450 0.39918
 C1015 C 0.33856 0.83667 0.37235
 C1016 C 0.40585 0.88714 0.44346
 H1017 H 0.31460 0.87860 0.42052
 H1018 H 0.35346 0.91081 0.45947
 H1019 H 0.45238 0.85943 0.42087
 H1020 H 0.41318 0.82711 0.38163
 C1021 C 1.12146 1.11877 0.36471
 C1022 C 1.10809 1.08435 0.35368
 C1023 C 1.08830 1.06081 0.37384
 C1024 C 1.16257 1.16282 0.32988
 C1025 C 1.09496 1.10679 0.41532
 C1026 C 1.11426 1.13010 0.39532
 C1027 C 1.14366 1.14249 0.34543
 C1028 C 1.08249 1.07168 0.40503
 H1029 H 1.11353 1.07552 0.32983
 H1030 H 1.07883 1.03391 0.36552
 H1031 H 1.09013 1.11611 0.43915
 H1032 H 1.12418 1.15675 0.40394
 C1033 C 0.60603 0.61474 -0.14303
 C1034 C 0.61792 0.57850 -0.13684
 C1035 C 0.59442 0.55418 -0.12086
 C1036 C 0.65329 0.66137 -0.16927
 C1037 C 0.54587 0.60124 -0.11954
 C1038 C 0.56945 0.62564 -0.13553
 C1039 C 0.63177 0.64072 -0.15651
 C1040 C 0.55878 0.56587 -0.11117
 H1041 H 0.64605 0.56972 -0.14284
 H1042 H 0.60529 0.52751 -0.11354
 H1043 H 0.51897 0.61114 -0.11123
 H1044 H 0.55989 0.65354 -0.14052
 C1045 C 0.90349 1.12934 0.63761
 C1046 C 0.90450 1.09073 0.64173
 C1047 C 0.92913 1.06894 0.62395
 C1048 C 0.85228 1.16918 0.66680
 C1049 C 0.95338 1.12479 0.59978
 C1050 C 0.92896 1.14644 0.61757
 C1051 C 0.87544 1.15129 0.65296
 C1052 C 0.95257 1.08584 0.60193
 H1053 H 0.88503 1.07735 0.65748
 H1054 H 0.92753 1.03894 0.62543
 H1055 H 0.97104 1.13826 0.58264
 H1056 H 0.92868 1.17631 0.61453
 C1057 C 0.40634 0.63199 0.13721
 C1058 C 0.40950 0.59390 0.14342
 C1059 C 0.43353 0.57168 0.12544
 C1060 C 0.35442 0.67130 0.16626
 C1061 C 0.45318 0.62623 0.09680
 C1062 C 0.42936 0.64835 0.11479
 C1063 C 0.37805 0.65382 0.15252
 C1064 C 0.45423 0.58756 0.10111
 H1065 H 0.39189 0.58106 0.16092
 H1066 H 0.43329 0.54185 0.12858
 H1067 H 0.46854 0.63883 0.07775
 H1068 H 0.42734 0.67780 0.10999
 C1069 C 1.12341 0.86354 0.62253
 C1070 C 1.11590 0.90071 0.63000
 C1071 C 1.08913 0.92024 0.61301
 C1072 C 1.17201 0.82789 0.65688
 C1073 C 1.07642 0.86468 0.58213
 C1074 C 1.10300 0.84520 0.59925
 C1075 C 1.15078 0.84382 0.63999
 C1076 C 1.07002 0.90254 0.58840
 H1077 H 1.13134 0.91477 0.64845
 H1078 H 1.08508 0.94958 0.61779
 H1079 H 1.06191 0.85061 0.56318
 H1080 H 1.10818 0.81618 0.59392
 C1081 C 0.63729 0.37639 0.12149
 C1082 C 0.63281 0.36548 0.09043
 C1083 C 0.61062 0.38651 0.07070
 C1084 C 0.67626 0.33429 0.15907
 C1085 C 0.59724 0.42973 0.11319
 C1086 C 0.61965 0.40845 0.13302
 C1087 C 0.65893 0.35361 0.14164
 C1088 C 0.59257 0.41885 0.08182
 H1089 H 0.64622 0.34054 0.08151
 H1090 H 0.60749 0.37710 0.04670
 H1091 H 0.58376 0.45450 0.12229
 H1092 H 0.62306 0.41680 0.15727
 C1093 C 0.86135 0.88944 0.37684
 C1094 C 0.89924 0.89354 0.36918
 C1095 C 0.92074 0.92054 0.38431
 C1096 C 0.82337 0.83775 0.34760
 C1097 C 0.86550 0.94099 0.41275
 C1098 C 0.84408 0.91411 0.39757
 C1099 C 0.84010 0.86058 0.36246
 C1100 C 0.90423 0.94323 0.40719
 H1101 H 0.91244 0.87492 0.35248
 H1102 H 0.95067 0.92147 0.38018
 H1103 H 0.85243 0.95828 0.43051
 H1104 H 0.81452 0.91164 0.40289
 C1105 C 0.35157 0.37792 -0.11757
 C1106 C 0.34274 0.38356 -0.08617
 C1107 C 0.36529 0.40650 -0.06790
 C1108 C 0.31370 0.33181 -0.15294
 C1109 C 0.40462 0.41935 -0.11293
 C1110 C 0.38195 0.39630 -0.13119
 C1111 C 0.33023 0.35248 -0.13586
 C1112 C 0.39695 0.42384 -0.08096
 H1113 H 0.31903 0.36959 -0.07566
 H1114 H 0.35849 0.40984 -0.04334
 H1115 H 0.42886 0.43232 -0.12347
 H1116 H 0.38864 0.39204 -0.15569
 C1117 C 1.09688 0.33928 -0.11837
 C1118 C 1.10004 0.33453 -0.08588
 C1119 C 1.07816 0.35611 -0.06537
 C1120 C 1.14519 0.30969 -0.15843
 C1121 C 1.04867 0.38552 -0.10990
 C1122 C 1.07018 0.36386 -0.13024
 C1123 C 1.12317 0.32222 -0.13969
 C1124 C 1.05337 0.38278 -0.07734
 H1125 H 1.12070 0.31563 -0.07641
 H1126 H 1.08274 0.35407 -0.04037
 H1127 H 1.02993 0.40614 -0.11960
 H1128 H 1.06743 0.36781 -0.15526
 C1129 C 0.60291 0.84136 0.38400
 C1130 C 0.60661 0.83760 0.41656
 C1131 C 0.58273 0.85732 0.43685
 C1132 C 0.65339 0.81498 0.34405
 C1133 C 0.55023 0.88277 0.39206
 C1134 C 0.57378 0.86294 0.37192
 C1135 C 0.63060 0.82622 0.36278
 C1136 C 0.55526 0.88111 0.42464
 H1137 H 0.62911 0.82107 0.42623
 H1138 H 0.58773 0.85640 0.46185
 H1139 H 0.52964 0.90144 0.38216
 H1140 H 0.57056 0.86614 0.34686
 C1141 C 0.86881 0.65027 -0.10508
 C1142 C 0.90767 0.65585 -0.10279
 C1143 C 0.92850 0.63805 -0.07930
 C1144 C 0.82902 0.67611 -0.15293
 C1145 C 0.87138 0.61088 -0.05929
 C1146 C 0.85068 0.62873 -0.08255
 C1147 C 0.84756 0.66458 -0.13130
 C1148 C 0.91063 0.61431 -0.05803
 H1149 H 0.92210 0.67248 -0.12002
 H1150 H 0.95874 0.64042 -0.07937
 H1151 H 0.85696 0.59237 -0.04344
 H1152 H 0.82071 0.62423 -0.08386
 C1153 C 0.37235 1.15119 0.39394
 C1154 C 0.35311 1.12869 0.41510
 C1155 C 0.37254 1.10994 0.43862
 C1156 C 0.33446 1.17890 0.34570
 C1157 C 0.43062 1.13800 0.42164
 C1158 C 0.41105 1.15670 0.39786
 C1159 C 0.35233 1.16662 0.36747
 C1160 C 0.41166 1.11341 0.44156
 H1161 H 0.32324 1.12425 0.41255
 H1162 H 0.35728 1.09085 0.45339
 H1163 H 0.46083 1.14051 0.42287
 H1164 H 0.42636 1.17410 0.38172
 C1165 C 1.13670 0.65125 0.09631
 C1166 C 1.09809 0.65839 0.09415
 C1167 C 1.07625 0.64046 0.07118
 C1168 C 1.17683 0.67584 0.14475
 C1169 C 1.13194 0.61011 0.05128
 C1170 C 1.15366 0.62810 0.07404
 C1171 C 1.15849 0.66498 0.12261
 C1172 C 1.09283 0.61500 0.05031
 H1173 H 1.08454 0.67619 0.11126
 H1174 H 1.04611 0.64395 0.07152
 H1175 H 1.14533 0.59018 0.03581
 H1176 H 1.18339 0.62227 0.07532
 C1177 C 0.63482 1.14873 0.59932
 C1178 C 0.59619 1.15582 0.59704
 C1179 C 0.57430 1.13741 0.57433
 C1180 C 0.67538 1.17508 0.64697
 C1181 C 0.62990 1.10640 0.55503
 C1182 C 0.65167 1.12490 0.57749
 C1183 C 0.65682 1.16346 0.62519
 C1184 C 0.59082 1.11149 0.55382
 H1185 H 0.58269 1.17417 0.61376
 H1186 H 0.54419 1.14114 0.57447
 H1187 H 0.64329 1.08621 0.53980
 H1188 H 0.68141 1.11913 0.57881
 C1189 C 0.89493 0.35171 0.12273
 C1190 C 0.91955 0.37881 0.13409
 C1191 C 0.94168 0.39896 0.11339
 C1192 C 0.84692 0.32223 0.16268
 C1193 C 0.91678 0.36330 0.06976
 C1194 C 0.89429 0.34321 0.09061
 C1195 C 0.86871 0.33499 0.14405
 C1196 C 0.93966 0.39221 0.08098
 H1197 H 0.92040 0.38558 0.15883
 H1198 H 0.95902 0.42124 0.12255
 H1199 H 0.91430 0.35808 0.04484
 H1200 H 0.87528 0.32227 0.08157
 C1201 C 0.39180 0.84955 0.62329
 C1202 C 0.39071 0.84128 0.59112
 C1203 C 0.41318 0.86126 0.57013
 C1204 C 0.34359 0.82049 0.66351
 C1205 C 0.43903 0.89634 0.61367
 C1206 C 0.41693 0.87629 0.63451
 C1207 C 0.36552 0.83304 0.64480
 C1208 C 0.43653 0.88987 0.58124
 H1209 H 0.37136 0.82060 0.58215
 H1210 H 0.41036 0.85618 0.54522
 H1211 H 0.45678 0.91832 0.62279
 H1212 H 0.41820 0.88289 0.65927
 C1213 C 0.34687 1.11849 -0.11139
 C1214 C 0.34406 1.12265 -0.07875
 C1215 C 0.36337 1.09828 -0.05881
 C1216 C 0.31802 1.16639 -0.15184
 C1217 C 0.38664 1.06466 -0.10407
 C1218 C 0.36728 1.08869 -0.12384
 C1219 C 0.33074 1.14531 -0.13260
 C1220 C 0.38566 1.06974 -0.07146
 H1221 H 0.32832 1.14555 -0.06878
 H1222 H 0.36304 1.10330 -0.03378
 H1223 H 0.40421 1.04325 -0.11432
 H1224 H 0.36963 1.08499 -0.14896
 C1225 C 0.84980 0.62134 0.38955
 C1226 C 0.85071 0.62890 0.42183
 C1227 C 0.86832 0.60405 0.44237
 C1228 C 0.82426 0.66986 0.34803
 C1229 C 0.88228 0.56319 0.39866
 C1230 C 0.86459 0.58782 0.37826
 C1231 C 0.83575 0.64840 0.36751
 C1232 C 0.88513 0.57149 0.43074
 H1233 H 0.83940 0.65473 0.43091
 H1234 H 0.87130 0.61158 0.46684
 H1235 H 0.89595 0.53875 0.38910
 H1236 H 0.86409 0.58153 0.35342
 C1237 C 0.65503 1.13015 0.10466
 C1238 C 0.66024 1.09147 0.10286
 C1239 C 0.64088 1.07023 0.08029
 C1240 C 0.68278 1.17039 0.15177
 C1241 C 0.61275 1.12649 0.06030
 C1242 C 0.63218 1.14759 0.08259
 C1243 C 0.67057 1.15184 0.13028
 C1244 C 0.61596 1.08753 0.05951
 H1245 H 0.67784 1.07756 0.11979
 H1246 H 0.64312 1.04022 0.08067
 H1247 H 0.59332 1.14043 0.04481
 H1248 H 0.62788 1.17738 0.08357
 C1249 C 1.15561 0.62942 0.60291
 C1250 C 1.15935 0.59056 0.60316
 C1251 C 1.14075 0.56861 0.58068
 C1252 C 1.18099 0.67124 0.64986
 C1253 C 1.11665 0.62445 0.55659
 C1254 C 1.13531 0.64625 0.57885
 C1255 C 1.16979 0.65203 0.62844
 C1256 C 1.11816 0.58545 0.55790
 H1257 H 1.17497 0.57715 0.62167
 H1258 H 1.14147 0.53863 0.58267
 H1259 H 1.09880 0.63798 0.53961
 H1260 H 1.13217 0.67618 0.57829
 C1261 C 0.64521 0.87000 -0.10549
 C1262 C 0.62743 0.85376 -0.07986
 C1263 C 0.61143 0.87613 -0.05665
 C1264 C 0.66727 0.82737 -0.15284
 C1265 C 0.63352 0.93126 -0.08310
 C1266 C 0.64945 0.90876 -0.10651
 C1267 C 0.65705 0.84688 -0.13137
 C1268 C 0.61319 0.91505 -0.05864
 H1269 H 0.62415 0.82387 -0.07867
 H1270 H 0.59518 0.86313 -0.03832
 H1271 H 0.63426 0.96119 -0.08558
 H1272 H 0.66332 0.92165 -0.12618
 C1273 C 1.14583 0.37028 0.39281
 C1274 C 1.12464 0.35327 0.41616
 C1275 C 1.10733 0.37482 0.43925
 C1276 C 1.17126 0.32948 0.34549
 C1277 C 1.13453 0.43054 0.41729
 C1278 C 1.15177 0.40885 0.39397
 C1279 C 1.15961 0.34821 0.36695
 C1280 C 1.11113 0.41371 0.43944
 H1281 H 1.11998 0.32352 0.41567
 H1282 H 1.08894 0.36136 0.45584
 H1283 H 1.13704 0.46051 0.41652
 H1284 H 1.16822 0.42232 0.37604
 C1285 C 0.35392 0.88527 0.11775
 C1286 C 0.36976 0.91851 0.12861
 C1287 C 0.38626 0.94317 0.10759
 C1288 C 0.33015 0.83595 0.15921
 C1289 C 0.36883 0.90296 0.06429
 C1290 C 0.35238 0.87811 0.08543
 C1291 C 0.34109 0.85803 0.14005
 C1292 C 0.38688 0.93513 0.07538
 H1293 H 0.37105 0.92450 0.15347
 H1294 H 0.40093 0.96730 0.11668
 H1295 H 0.37008 0.89563 0.03967
 H1296 H 0.34013 0.85253 0.07669
 C1297 C 0.85461 0.38433 0.61798
 C1298 C 0.85289 0.37755 0.58560
 C1299 C 0.86941 0.40253 0.56462
 C1300 C 0.83054 0.33482 0.65917
 C1301 C 0.88736 0.44212 0.60818
 C1302 C 0.87076 0.41734 0.62905
 C1303 C 0.84159 0.35695 0.64009
 C1304 C 0.88770 0.43447 0.57589
 H1305 H 0.84041 0.35216 0.57671
 H1306 H 0.87047 0.39549 0.53994
 H1307 H 0.90224 0.46606 0.61740
 H1308 H 0.87219 0.42306 0.65395
 C1309 C 1.14715 1.09690 0.62583
 C1310 C 1.11041 1.08936 0.63529
 C1311 C 1.08924 1.06295 0.61916
 C1312 C 1.18117 1.15162 0.65464
 C1313 C 1.14299 1.04934 0.58622
 C1314 C 1.16407 1.07573 0.60236
 C1315 C 1.16674 1.12704 0.64005
 C1316 C 1.10486 1.04437 0.59340
 H1317 H 1.09750 1.10535 0.65396
 H1318 H 1.05984 1.05982 0.62484
 H1319 H 1.15554 1.03506 0.56643
 H1320 H 1.19279 1.08095 0.59547
 C1321 C 0.64484 0.62262 0.11579
 C1322 C 0.62187 0.59537 0.12897
 C1323 C 0.59881 0.57377 0.10977
 C1324 C 0.68256 0.66637 0.15334
 C1325 C 0.62253 0.60665 0.06442
 C1326 C 0.64541 0.62809 0.08360
 C1327 C 0.66617 0.64647 0.13554
 C1328 C 0.59870 0.57953 0.07732
 H1329 H 0.62136 0.59127 0.15407
 H1330 H 0.58085 0.55307 0.12029
 H1331 H 0.62321 0.61183 0.03948
 H1332 H 0.66301 0.64934 0.07339
 C1333 C 1.09800 0.86481 0.36070
 C1334 C 1.09470 0.90316 0.35585
 C1335 C 1.07011 0.92426 0.37425
 C1336 C 1.14970 0.82650 0.33044
 C1337 C 1.05027 0.86813 0.40058
 C1338 C 1.07467 0.84715 0.38217
 C1339 C 1.12633 0.84379 0.34465
 C1340 C 1.04899 0.90703 0.39772
 H1341 H 1.11245 0.91698 0.33900
 H1342 H 1.07005 0.95423 0.37199
 H1343 H 1.03430 0.85428 0.41863
 H1344 H 1.07669 0.81745 0.38579
 C1345 C 0.60161 0.37106 -0.14069
 C1346 C 0.57512 0.35451 -0.12117
 C1347 C 0.55040 0.37671 -0.10412
 C1348 C 0.65283 0.32997 -0.16872
 C1349 C 0.57642 0.43197 -0.12807
 C1350 C 0.60129 0.40965 -0.14515
 C1351 C 0.62980 0.34850 -0.15530
 C1352 C 0.55193 0.41560 -0.10655
 H1353 H 0.57493 0.32467 -0.11785
 H1354 H 0.53220 0.36379 -0.08703
 H1355 H 0.57863 0.46195 -0.12953
 H1356 H 0.62153 0.42259 -0.16054
 C1357 C 0.88636 1.13394 0.37760
 C1358 C 0.90615 1.15168 0.40158
 C1359 C 0.93338 1.13222 0.41799
 C1360 C 0.83496 1.16947 0.34597
 C1361 C 0.92287 1.07809 0.38487
 C1362 C 0.89553 1.09765 0.36849
 C1363 C 0.85750 1.15335 0.36152
 C1364 C 0.94095 1.09485 0.41049
 H1365 H 0.89976 1.18011 0.40818
 H1366 H 0.94710 1.14573 0.43763
 H1367 H 0.92793 1.04922 0.37890
 H1368 H 0.88074 1.08412 0.34940
 C1369 C 0.35271 0.61433 -0.12027
 C1370 C 0.34218 0.60595 -0.08978
 C1371 C 0.36502 0.58330 -0.07182
 C1372 C 0.31629 0.66276 -0.15382
 C1373 C 0.40780 0.57566 -0.11561
 C1374 C 0.38485 0.59846 -0.13358
 C1375 C 0.33193 0.64083 -0.13756
 C1376 C 0.39861 0.56908 -0.08429
 H1377 H 0.31714 0.61795 -0.07956
 H1378 H 0.35718 0.57810 -0.04776
 H1379 H 0.43361 0.56506 -0.12555
 H1380 H 0.39287 0.60489 -0.15739
 C1381 C 0.87103 0.89429 0.63706
 C1382 C 0.85325 0.91546 0.61419
 C1383 C 0.87429 0.93873 0.59515
 C1384 C 0.83176 0.84567 0.66913
 C1385 C 0.93078 0.92179 0.62326
 C1386 C 0.90960 0.89831 0.64231
 C1387 C 0.84970 0.86763 0.65430
 C1388 C 0.91339 0.94105 0.59877
 H1389 H 0.82336 0.91288 0.61026
 H1390 H 0.86024 0.95347 0.57649
 H1391 H 0.96089 0.92288 0.62624
 H1392 H 0.92350 0.88222 0.66024
 C1393 C 0.39770 0.38291 0.14087
 C1394 C 0.39816 0.42174 0.14357
 C1395 C 0.42364 0.44246 0.12601
 C1396 C 0.34555 0.34359 0.16897
 C1397 C 0.45001 0.38533 0.10521
 C1398 C 0.42470 0.36470 0.12277
 C1399 C 0.36883 0.36167 0.15564
 C1400 C 0.44857 0.42430 0.10572
 H1401 H 0.37754 0.43600 0.15783
 H1402 H 0.42143 0.47246 0.12595
 H1403 H 0.46853 0.37095 0.08910
 H1404 H 0.42481 0.33466 0.12084
   
