data_POSCAR
  _audit_creation_date              2014-09-24
  _audit_creation_method            'ToBaCCo'
  _symmetry_space_group_name_H-M    'P1'
  _symmetry_Int_Tables_number       1
  _symmetry_cell_setting            triclinic
  loop_
  _symmetry_equiv_pos_as_xyz
 x,y,z
_cell_length_a 48.3176
_cell_length_b 48.3112
_cell_length_c 37.0575
_cell_angle_alpha 90.049500
_cell_angle_beta 90.034100
_cell_angle_gamma 89.990800
loop_
  _atom_site_label
  _atom_site_type_symbol
  _atom_site_fract_x
  _atom_site_fract_y
  _atom_site_fract_z
Zr1 Zr -0.04870 0.00266 -0.00349
 O2 O -0.07960 -0.01905 -0.03257
 O3 O -0.07253 0.02750 0.03106
 O4 O -0.07163 -0.02388 0.03033
 O5 O -0.03809 0.05235 -0.06943
 O6 O -0.03866 -0.04881 0.06025
 O7 O -0.07133 0.02896 -0.03791
 O8 O -0.04013 0.04987 0.06522
 O9 O -0.02592 0.00120 0.04454
 O10 O -0.02523 0.03900 -0.00197
 O11 O -0.02500 -0.03376 -0.00682
 O12 O -0.02510 0.00262 -0.05146
 Zr13 Zr 0.04779 0.00158 -0.00414
 Zr14 Zr -0.00073 -0.03392 0.04003
 Zr15 Zr -0.00025 0.03817 -0.04779
 Zr16 Zr -0.00150 0.03681 0.04467
 O17 O 0.00119 0.03605 -0.10479
 O18 O -0.00144 0.02839 0.10082
 O19 O 0.02434 0.03838 -0.00099
 O20 O 0.02387 0.00171 0.04329
 O21 O 0.02463 -0.03501 -0.00575
 O22 O 0.02465 0.00303 -0.05180
 C23 C -0.06522 0.04429 0.05621
 C24 C -0.06342 0.04658 -0.06178
 C25 C -0.06391 -0.04252 0.05296
 O26 O 0.00082 -0.03183 0.09702
 O27 O 0.03699 -0.05100 0.05789
 O28 O 0.07033 -0.02656 0.02802
 C29 C 0.06232 -0.04538 0.05024
 O30 O -0.03614 -0.04689 -0.07792
 Zr31 Zr 0.00056 -0.03256 -0.05236
 O32 O 0.07160 -0.02372 -0.03810
 O33 O -0.00249 -0.07739 0.03340
 O34 O -0.00060 -0.07614 -0.04565
 O35 O 0.00329 -0.02598 -0.10882
 O36 O 0.03915 -0.04848 -0.06923
 C37 C 0.06425 -0.04238 -0.06086
 O38 O 0.07867 0.02207 0.02642
 O39 O -0.00145 0.08169 -0.04147
 O40 O 0.07074 0.02974 -0.03574
 O41 O 0.03769 0.05561 -0.06421
 O42 O -0.00310 0.08053 0.03999
 O43 O 0.03520 0.05471 0.06607
 C44 C 0.06297 0.04937 -0.05692
 H45 H -0.03664 0.05601 -0.00179
 H46 H 0.03578 0.00146 0.06504
 H47 H 0.03630 0.00390 -0.07374
 H48 H -0.03701 -0.05033 -0.00821
 H49 H -0.00657 0.04574 0.11343
 H50 H -0.00005 -0.05114 0.10595
 H51 H -0.00183 -0.08557 0.05790
 H52 H 0.00450 -0.08462 -0.06908
 H53 H -0.00779 0.08808 0.06410
 H54 H -0.00198 0.08972 -0.06606
 H55 H 0.00183 0.05538 -0.11366
 H56 H 0.00795 -0.04399 -0.12013
 H57 H 0.03049 0.06633 0.08721
 H58 H 0.09688 0.01555 0.01745
 H59 H -0.09783 -0.01246 -0.02372
 H60 H -0.03149 -0.06200 -0.09493
 Zr61 Zr 0.54779 0.50160 0.49594
 O62 O 0.57861 0.52223 0.52645
 O63 O 0.57165 0.47617 0.46222
 O64 O 0.57027 0.47360 0.52838
 O65 O 0.53781 0.55536 0.43543
 O66 O 0.53687 0.44930 0.55835
 O67 O 0.57080 0.52961 0.46420
 O68 O 0.53926 0.45129 0.43115
 O69 O 0.52463 0.46499 0.49453
 O70 O 0.52473 0.50285 0.44820
 O71 O 0.52378 0.50193 0.54330
 O72 O 0.52433 0.53842 0.49874
 Zr73 Zr 0.45130 0.50268 0.49629
 Zr74 Zr 0.49919 0.46629 0.54023
 Zr75 Zr 0.49983 0.53800 0.45187
 Zr76 Zr 0.50064 0.46725 0.44784
 O77 O 0.49861 0.58155 0.45788
 O78 O 0.49950 0.42370 0.45488
 O79 O 0.47498 0.50243 0.44839
 O80 O 0.47500 0.46624 0.49331
 O81 O 0.47400 0.50144 0.54439
 O82 O 0.47476 0.53903 0.49761
 C83 C 0.56434 0.45744 0.43954
 C84 C 0.56307 0.54915 0.44284
 C85 C 0.56222 0.45489 0.55073
 O86 O 0.49745 0.42279 0.53392
 O87 O 0.46122 0.45149 0.56044
 O88 O 0.42830 0.47629 0.53023
 C89 C 0.43598 0.45775 0.55303
 O90 O 0.53508 0.55505 0.56568
 Zr91 Zr 0.49842 0.53704 0.54433
 O92 O 0.42741 0.52765 0.53059
 O93 O 0.50063 0.46863 0.59721
 O94 O 0.49840 0.52888 0.60055
 O95 O 0.49679 0.58074 0.53932
 O96 O 0.45975 0.55015 0.56470
 C97 C 0.43467 0.54453 0.55567
 O98 O 0.42045 0.48084 0.46728
 O99 O 0.50137 0.53565 0.39489
 O100 O 0.42873 0.52881 0.46158
 O101 O 0.46202 0.55207 0.42999
 O102 O 0.50344 0.47358 0.39133
 O103 O 0.46399 0.45279 0.42230
 C104 C 0.43667 0.54631 0.43759
 H105 H 0.53641 0.50362 0.42629
 H106 H 0.46299 0.44967 0.49200
 H107 H 0.46334 0.55604 0.49763
 H108 H 0.53565 0.50179 0.56508
 H109 H 0.50464 0.41512 0.43153
 H110 H 0.49806 0.41472 0.55849
 H111 H 0.49974 0.44936 0.60628
 H112 H 0.49326 0.54629 0.61301
 H113 H 0.50812 0.45553 0.38017
 H114 H 0.50203 0.55494 0.38589
 H115 H 0.49812 0.58947 0.43323
 H116 H 0.49205 0.58840 0.56336
 H117 H 0.46867 0.43759 0.40543
 H118 H 0.40220 0.48747 0.47603
 H119 H 0.59684 0.51566 0.51758
 H120 H 0.53033 0.56679 0.58671
 Zr121 Zr 0.54857 -0.00301 0.49767
 O122 O 0.57967 0.01846 0.46875
 O123 O 0.57219 -0.02806 0.53224
 O124 O 0.57160 0.02352 0.53154
 O125 O 0.53768 -0.05264 0.43154
 O126 O 0.53871 0.04867 0.56132
 O127 O 0.57105 -0.02945 0.46319
 O128 O 0.53960 -0.05027 0.56617
 O129 O 0.52573 -0.00138 0.54562
 O130 O 0.52485 -0.03919 0.49902
 O131 O 0.52505 0.03354 0.49429
 O132 O 0.52498 -0.00283 0.44962
 Zr133 Zr 0.45200 -0.00131 0.49666
 Zr134 Zr 0.50072 0.03388 0.54105
 Zr135 Zr 0.49990 -0.03822 0.45313
 Zr136 Zr 0.50108 -0.03684 0.54559
 O137 O 0.49852 -0.03609 0.39613
 O138 O 0.50111 -0.02836 0.60174
 O139 O 0.47527 -0.03825 0.49985
 O140 O 0.47590 -0.00159 0.54417
 O141 O 0.47541 0.03512 0.49520
 O142 O 0.47520 -0.00294 0.44908
 C143 C 0.56475 -0.04488 0.55726
 C144 C 0.56305 -0.04702 0.43924
 C145 C 0.56394 0.04228 0.55410
 O146 O 0.49917 0.03180 0.59804
 O147 O 0.46310 0.05121 0.55888
 O148 O 0.42961 0.02699 0.52885
 C149 C 0.43773 0.04577 0.55115
 O150 O 0.53632 0.04659 0.42324
 Zr151 Zr 0.49951 0.03250 0.44867
 O152 O 0.42840 0.02417 0.46267
 O153 O 0.50270 0.07734 0.53448
 O154 O 0.50098 0.07607 0.45544
 O155 O 0.49678 0.02587 0.39219
 O156 O 0.46106 0.04872 0.43171
 C157 C 0.43590 0.04281 0.43999
 O158 O 0.42094 -0.02158 0.52707
 O159 O 0.50085 -0.08175 0.45937
 O160 O 0.42893 -0.02941 0.46495
 O161 O 0.46188 -0.05549 0.43659
 O162 O 0.50230 -0.08057 0.54078
 O163 O 0.46427 -0.05446 0.56695
 C164 C 0.43662 -0.04913 0.44380
 H165 H 0.53614 -0.05628 0.49919
 H166 H 0.46398 -0.00126 0.56588
 H167 H 0.46355 -0.00374 0.42711
 H168 H 0.53715 0.05004 0.49294
 H169 H 0.50612 -0.04573 0.61435
 H170 H 0.50014 0.05111 0.60701
 H171 H 0.50206 0.08555 0.55899
 H172 H 0.49597 0.08458 0.43200
 H173 H 0.50693 -0.08818 0.56487
 H174 H 0.50137 -0.08979 0.43477
 H175 H 0.49775 -0.05542 0.38721
 H176 H 0.49222 0.04388 0.38088
 H177 H 0.46891 -0.06608 0.58811
 H178 H 0.40279 -0.01494 0.51802
 H179 H 0.59784 0.01174 0.47768
 H180 H 0.53177 0.06167 0.40616
 Zr181 Zr -0.04806 0.49875 -0.00673
 O182 O -0.07915 0.47849 0.02364
 O183 O -0.07165 0.52439 -0.04055
 O184 O -0.07035 0.52700 0.02565
 O185 O -0.03837 0.44462 -0.06690
 O186 O -0.03678 0.55111 0.05567
 O187 O -0.07121 0.47072 -0.03844
 O188 O -0.03900 0.54894 -0.07144
 O189 O -0.02458 0.53515 -0.00813
 O190 O -0.02494 0.49715 -0.05438
 O191 O -0.02410 0.49835 0.04072
 O192 O -0.02486 0.46177 -0.00370
 Zr193 Zr 0.04850 0.49686 -0.00594
 Zr194 Zr 0.00079 0.53378 0.03766
 Zr195 Zr -0.00028 0.46182 -0.05046
 Zr196 Zr -0.00055 0.53254 -0.05473
 O197 O 0.00059 0.41828 -0.04439
 O198 O 0.00108 0.57610 -0.04789
 O199 O 0.02486 0.49717 -0.05393
 O200 O 0.02505 0.53346 -0.00917
 O201 O 0.02573 0.49846 0.04207
 O202 O 0.02471 0.46073 -0.00462
 C203 C -0.06418 0.54312 -0.06313
 C204 C -0.06362 0.45097 -0.05962
 C205 C -0.06217 0.54571 0.04801
 O206 O 0.00282 0.57724 0.03118
 O207 O 0.03883 0.54846 0.05788
 O208 O 0.07164 0.52329 0.02796
 C209 C 0.06404 0.54202 0.05060
 O210 O -0.03582 0.44546 0.06335
 Zr211 Zr 0.00100 0.46305 0.04200
 O212 O 0.07211 0.47174 0.02856
 O213 O -0.00068 0.53162 0.09464
 O214 O 0.00109 0.47143 0.09818
 O215 O 0.00216 0.41932 0.03707
 O216 O 0.03952 0.44954 0.06249
 C217 C 0.06467 0.45491 0.05356
 O218 O 0.07960 0.51829 -0.03489
 O219 O -0.00174 0.46407 -0.10745
 O220 O 0.07088 0.47038 -0.04048
 O221 O 0.03745 0.44734 -0.07213
 O222 O -0.00346 0.52602 -0.11121
 O223 O 0.03625 0.54656 -0.08026
 C224 C 0.06286 0.45283 -0.06445
 H225 H -0.03664 0.49641 -0.07630
 H226 H 0.03718 0.54994 -0.01050
 H227 H 0.03597 0.44361 -0.00451
 H228 H -0.03599 0.49866 0.06247
 H229 H -0.00395 0.58465 -0.07129
 H230 H 0.00224 0.58542 0.05570
 H231 H 0.00034 0.55091 0.10366
 H232 H 0.00607 0.45402 0.11073
 H233 H -0.00801 0.54406 -0.12244
 H234 H -0.00256 0.44476 -0.11642
 H235 H 0.00105 0.41029 -0.06903
 H236 H 0.00680 0.41167 0.06113
 H237 H 0.03169 0.56164 -0.09733
 H238 H 0.09777 0.51152 -0.02602
 H239 H -0.09729 0.48520 0.01464
 H240 H -0.03119 0.43378 0.08446
 Zr241 Zr 0.04897 0.50269 0.50341
 O242 O 0.07995 0.48089 0.53221
 O243 O 0.07272 0.52771 0.46906
 O244 O 0.07191 0.47633 0.46931
 O245 O 0.03835 0.55201 0.56989
 O246 O 0.03894 0.45149 0.43920
 O247 O 0.07159 0.52882 0.53807
 O248 O 0.04025 0.55018 0.43517
 O249 O 0.02614 0.50141 0.45541
 O250 O 0.02545 0.53900 0.50229
 O251 O 0.02534 0.46621 0.50642
 O252 O 0.02543 0.50238 0.55142
 Zr253 Zr -0.04750 0.50145 0.50422
 Zr254 Zr 0.00101 0.46624 0.45962
 Zr255 Zr 0.00051 0.53791 0.54815
 Zr256 Zr 0.00166 0.53699 0.45568
 O257 O -0.00089 0.53555 0.60513
 O258 O 0.00155 0.52883 0.39944
 O259 O -0.02412 0.53830 0.50140
 O260 O -0.02364 0.50184 0.45675
 O261 O -0.02428 0.46488 0.50543
 O262 O -0.02432 0.50273 0.55186
 C263 C 0.06537 0.54459 0.44407
 C264 C 0.06367 0.54630 0.56214
 C265 C 0.06418 0.45778 0.44652
 O266 O -0.00059 0.46858 0.40265
 O267 O -0.03668 0.44918 0.44166
 O268 O -0.07003 0.47343 0.47186
 C269 C -0.06201 0.45473 0.44943
 O270 O 0.03658 0.45274 0.57735
 Zr271 Zr -0.00017 0.46716 0.55202
 O272 O -0.07124 0.47598 0.53799
 O273 O 0.00286 0.42274 0.46578
 O274 O 0.00103 0.42362 0.54486
 O275 O -0.00282 0.47350 0.60855
 O276 O -0.03871 0.45113 0.56884
 C277 C -0.06383 0.45724 0.56059
 O278 O -0.07845 0.52203 0.47391
 O279 O 0.00165 0.58147 0.54226
 O280 O -0.07047 0.52942 0.53611
 O281 O -0.03744 0.55524 0.56476
 O282 O 0.00320 0.58069 0.46080
 O283 O -0.03509 0.55494 0.43454
 C284 C -0.06271 0.54898 0.55744
 H285 H 0.03684 0.55602 0.50227
 H286 H -0.03558 0.50168 0.43502
 H287 H -0.03595 0.50348 0.57382
 H288 H 0.03738 0.44966 0.50763
 H289 H 0.00662 0.54625 0.38700
 H290 H 0.00030 0.44932 0.39353
 H291 H 0.00219 0.41467 0.44120
 H292 H -0.00403 0.41502 0.56821
 H293 H 0.00786 0.58836 0.43676
 H294 H 0.00220 0.58938 0.56693
 H295 H -0.00156 0.55485 0.61418
 H296 H -0.00745 0.45544 0.61970
 H297 H -0.03043 0.56667 0.41352
 H298 H -0.09665 0.51544 0.48285
 H299 H 0.09816 0.48754 0.52338
 H300 H 0.03196 0.43755 0.59422
 Zr301 Zr 0.45254 0.00133 0.00414
 O302 O 0.42166 0.02190 -0.02630
 O303 O 0.42875 -0.02420 0.03775
 O304 O 0.43014 -0.02669 -0.02836
 O305 O 0.46237 0.05509 0.06479
 O306 O 0.46360 -0.05087 -0.05846
 O307 O 0.42945 0.02926 0.03594
 O308 O 0.46122 -0.04905 0.06869
 O309 O 0.47581 -0.03520 0.00539
 O310 O 0.47559 0.00260 0.05189
 O311 O 0.47653 0.00179 -0.04323
 O312 O 0.47589 0.03822 0.00147
 Zr313 Zr 0.54901 0.00269 0.00376
 Zr314 Zr 0.50123 -0.03378 -0.04030
 Zr315 Zr 0.50039 0.03782 0.04834
 Zr316 Zr 0.49978 -0.03294 0.05210
 O317 O 0.50149 0.08138 0.04254
 O318 O 0.50108 -0.07647 0.04489
 O319 O 0.52534 0.00232 0.05167
 O320 O 0.52542 -0.03381 0.00662
 O321 O 0.52633 0.00143 -0.04435
 O322 O 0.52544 0.03897 0.00260
 C323 C 0.43611 -0.04296 0.06033
 C324 C 0.43713 0.04882 0.05733
 C325 C 0.43824 -0.04536 -0.05078
 O326 O 0.50309 -0.07729 -0.03419
 O327 O 0.53923 -0.04851 -0.06051
 O328 O 0.57208 -0.02362 -0.03024
 C329 C 0.56445 -0.04220 -0.05304
 O330 O 0.46508 0.05486 -0.06547
 Zr331 Zr 0.50180 0.03697 -0.04413
 O332 O 0.57283 0.02781 -0.03040
 O333 O 0.49980 -0.03139 -0.09727
 O334 O 0.50191 0.02885 -0.10037
 O335 O 0.50320 0.08067 -0.03894
 O336 O 0.54042 0.05031 -0.06436
 C337 C 0.56552 0.04476 -0.05534
 O338 O 0.57994 -0.01909 0.03267
 O339 O 0.49883 0.03540 0.10531
 O340 O 0.57150 0.02881 0.03857
 O341 O 0.53815 0.05195 0.07028
 O342 O 0.49695 -0.02665 0.10863
 O343 O 0.53648 -0.04732 0.07759
 C344 C 0.56350 0.04626 0.06263
 H345 H 0.46389 0.00331 0.07379
 H346 H 0.53747 -0.05036 0.00787
 H347 H 0.53680 0.05601 0.00267
 H348 H 0.46466 0.00163 -0.06501
 H349 H 0.49597 -0.08509 0.06821
 H350 H 0.50249 -0.08534 -0.05879
 H351 H 0.50074 -0.05064 -0.10641
 H352 H 0.50700 0.04628 -0.11277
 H353 H 0.49231 -0.04472 0.11972
 H354 H 0.49811 0.05468 0.11439
 H355 H 0.50196 0.08927 0.06723
 H356 H 0.50791 0.08838 -0.06294
 H357 H 0.53184 -0.06252 0.09443
 H358 H 0.59817 -0.01240 0.02394
 H359 H 0.40344 0.01528 -0.01745
 H360 H 0.46979 0.06659 -0.08648
 Zr361 Zr 0.45124 0.49721 0.00387
 O362 O 0.42049 0.51889 0.03322
 O363 O 0.42724 0.47249 -0.03064
 O364 O 0.42819 0.52383 -0.02972
 O365 O 0.46206 0.44733 0.06952
 O366 O 0.46106 0.54878 -0.05976
 O367 O 0.42872 0.47084 0.03828
 O368 O 0.45946 0.45014 -0.06507
 O369 O 0.47382 0.49875 -0.04428
 O370 O 0.47467 0.46085 0.00207
 O371 O 0.47497 0.53360 0.00718
 O372 O 0.47502 0.49713 0.05171
 Zr373 Zr 0.54771 0.49820 0.00398
 Zr374 Zr 0.49906 0.53383 -0.03980
 Zr375 Zr 0.49983 0.46155 0.04776
 Zr376 Zr 0.49820 0.46312 -0.04469
 O377 O 0.50147 0.46355 0.10476
 O378 O 0.49802 0.47168 -0.10080
 O379 O 0.52422 0.46142 0.00083
 O380 O 0.52361 0.49819 -0.04333
 O381 O 0.52459 0.53481 0.00585
 O382 O 0.52477 0.49666 0.05176
 C383 C 0.43441 0.45574 -0.05589
 C384 C 0.43670 0.45314 0.06201
 C385 C 0.43584 0.54249 -0.05235
 O386 O 0.50040 0.53188 -0.09680
 O387 O 0.53672 0.55095 -0.05777
 O388 O 0.57016 0.52638 -0.02817
 C389 C 0.56208 0.54528 -0.05026
 O390 O 0.46412 0.54658 0.07839
 Zr391 Zr 0.50071 0.53228 0.05258
 O392 O 0.57168 0.52342 0.03786
 O393 O 0.49733 0.57729 -0.03301
 O394 O 0.49951 0.57587 0.04606
 O395 O 0.50371 0.52558 0.10900
 O396 O 0.53938 0.54816 0.06924
 C397 C 0.56444 0.54207 0.06069
 O398 O 0.57843 0.47771 -0.02683
 O399 O 0.49861 0.41805 0.04129
 O400 O 0.57077 0.46999 0.03537
 O401 O 0.53783 0.44407 0.06393
 O402 O 0.49659 0.41938 -0.04019
 O403 O 0.53480 0.44522 -0.06636
 C404 C 0.56308 0.45033 0.05652
 H405 H 0.46324 0.44385 0.00189
 H406 H 0.53544 0.49847 -0.06514
 H407 H 0.53651 0.49576 0.07363
 H408 H 0.46298 0.55018 0.00870
 H409 H 0.49283 0.45436 -0.11346
 H410 H 0.49950 0.55121 -0.10565
 H411 H 0.49790 0.58553 -0.05748
 H412 H 0.50472 0.58430 0.06950
 H413 H 0.49179 0.41190 -0.06431
 H414 H 0.49818 0.40997 0.06586
 H415 H 0.50215 0.44420 0.11356
 H416 H 0.50843 0.54356 0.12034
 H417 H 0.52999 0.43368 -0.08755
 H418 H 0.59670 0.48421 -0.01795
 H419 H 0.40221 0.51235 0.02444
 H420 H 0.46886 0.56162 0.09549
 Zr421 Zr 0.04771 -0.00155 0.50406
 O422 O 0.07849 -0.02197 0.47329
 O423 O 0.07161 0.02382 0.53784
 O424 O 0.07002 0.02665 0.47176
 O425 O 0.03805 -0.05561 0.56416
 O426 O 0.03647 0.05101 0.44210
 O427 O 0.07089 -0.02964 0.53549
 O428 O 0.03923 0.04850 0.56919
 O429 O 0.02445 0.03498 0.50583
 O430 O 0.02480 -0.00307 0.55188
 O431 O 0.02357 -0.00175 0.45678
 O432 O 0.02434 -0.03841 0.50107
 Zr433 Zr -0.04878 -0.00290 0.50406
 Zr434 Zr -0.00111 0.03381 0.46022
 Zr435 Zr -0.00002 -0.03828 0.54803
 Zr436 Zr 0.00062 0.03246 0.55260
 O437 O -0.00112 -0.08180 0.54173
 O438 O -0.00073 0.07603 0.54592
 O439 O -0.02495 -0.00279 0.55188
 O440 O -0.02516 0.03359 0.50723
 O441 O -0.02623 -0.00137 0.45588
 O442 O -0.02521 -0.03917 0.50238
 C443 C 0.06431 0.04248 0.56064
 C444 C 0.06327 -0.04930 0.55670
 C445 C 0.06186 0.04545 0.44959
 O446 O -0.00296 0.07728 0.46687
 O447 O -0.03917 0.04861 0.44029
 O448 O -0.07194 0.02359 0.47043
 C449 C -0.06437 0.04226 0.44776
 O450 O 0.03494 -0.05472 0.43393
 Zr451 Zr -0.00171 -0.03692 0.45558
 O452 O -0.07270 -0.02780 0.46967
 O453 O 0.00015 0.03173 0.40322
 O454 O -0.00197 -0.02848 0.39944
 O455 O -0.00315 -0.08064 0.46026
 O456 O -0.04040 -0.05009 0.43530
 C457 C -0.06547 -0.04458 0.44448
 O458 O -0.07960 0.01872 0.53336
 O459 O 0.00169 -0.03615 0.60502
 O460 O -0.07117 -0.02926 0.53863
 O461 O -0.03772 -0.05257 0.56993
 O462 O 0.00366 0.02587 0.60904
 O463 O -0.03600 0.04669 0.57840
 C464 C -0.06311 -0.04686 0.56244
 H465 H 0.03657 -0.00390 0.57373
 H466 H -0.03721 0.05012 0.50871
 H467 H -0.03658 -0.05621 0.50227
 H468 H 0.03537 -0.00147 0.43496
 H469 H 0.00446 0.08452 0.56932
 H470 H -0.00245 0.08547 0.44236
 H471 H -0.00082 0.05104 0.39431
 H472 H -0.00710 -0.04585 0.38685
 H473 H 0.00833 0.04389 0.62032
 H474 H 0.00244 -0.05548 0.61388
 H475 H -0.00150 -0.08983 0.56632
 H476 H -0.00793 -0.08820 0.43618
 H477 H -0.03131 0.06178 0.59544
 H478 H -0.09785 0.01209 0.52462
 H479 H 0.09674 -0.01539 0.48214
 H480 H 0.03016 -0.06633 0.41279
 Zr481 Zr 0.75284 0.20128 0.25413
 O482 O 0.73111 0.17049 0.28327
 O483 O 0.77782 0.17732 0.21992
 O484 O 0.72647 0.17812 0.22031
 O485 O 0.80227 0.21232 0.32036
 O486 O 0.70156 0.21089 0.18999
 O487 O 0.77904 0.17888 0.28890
 O488 O 0.80021 0.20958 0.18566
 O489 O 0.75148 0.22381 0.20593
 O490 O 0.78914 0.22481 0.25268
 O491 O 0.71637 0.22492 0.25704
 O492 O 0.75261 0.22513 0.30193
 Zr493 Zr 0.75155 0.29777 0.25408
 Zr494 Zr 0.71630 0.24896 0.21002
 Zr495 Zr 0.78812 0.25003 0.29831
 Zr496 Zr 0.78703 0.24830 0.20586
 O497 O 0.78586 0.25180 0.35529
 O498 O 0.77878 0.24806 0.14965
 O499 O 0.78841 0.27437 0.25135
 O500 O 0.75188 0.27361 0.20681
 O501 O 0.71501 0.27454 0.25561
 O502 O 0.75293 0.27488 0.30191
 C503 C 0.79465 0.18451 0.19481
 C504 C 0.79655 0.18694 0.31285
 C505 C 0.70788 0.18569 0.19751
 O506 O 0.71855 0.25021 0.15304
 O507 O 0.69918 0.28653 0.19179
 O508 O 0.72345 0.32009 0.22161
 C509 C 0.70472 0.31192 0.19932
 O510 O 0.70302 0.21413 0.32809
 Zr511 Zr 0.71738 0.25073 0.30241
 O512 O 0.72615 0.32171 0.28773
 O513 O 0.67282 0.24712 0.21634
 O514 O 0.67384 0.24948 0.29541
 O515 O 0.72382 0.25373 0.35889
 O516 O 0.70138 0.28937 0.31895
 C517 C 0.70746 0.31444 0.31045
 O518 O 0.77206 0.32853 0.22341
 O519 O 0.83166 0.24885 0.29230
 O520 O 0.77957 0.32094 0.28566
 O521 O 0.80544 0.28809 0.31453
 O522 O 0.83074 0.24679 0.21084
 O523 O 0.80493 0.28493 0.18436
 C524 C 0.79917 0.31331 0.30700
 H525 H 0.80617 0.21342 0.25270
 H526 H 0.75167 0.28540 0.18498
 H527 H 0.75371 0.28665 0.32377
 H528 H 0.69982 0.21289 0.25841
 H529 H 0.79618 0.24290 0.13720
 H530 H 0.69927 0.24924 0.14398
 H531 H 0.66471 0.24764 0.19178
 H532 H 0.66528 0.25469 0.31874
 H533 H 0.83836 0.24199 0.18681
 H534 H 0.83961 0.24847 0.31695
 H535 H 0.80516 0.25252 0.36427
 H536 H 0.70578 0.25843 0.37006
 H537 H 0.81661 0.28013 0.16331
 H538 H 0.76547 0.34678 0.23221
 H539 H 0.73775 0.15222 0.27459
 H540 H 0.68787 0.21885 0.34500
 Zr541 Zr 0.74775 0.79839 0.75450
 O542 O 0.76946 0.82947 0.78326
 O543 O 0.72253 0.82203 0.72018
 O544 O 0.77403 0.82139 0.72040
 O545 O 0.69856 0.78764 0.82103
 O546 O 0.79897 0.78847 0.69036
 O547 O 0.72158 0.82093 0.78915
 O548 O 0.70006 0.78946 0.68642
 O549 O 0.74904 0.77554 0.70651
 O550 O 0.71154 0.77472 0.75345
 O551 O 0.78430 0.77485 0.75755
 O552 O 0.74822 0.77486 0.80254
 Zr553 Zr 0.74934 0.70187 0.75543
 Zr554 Zr 0.78430 0.75051 0.71076
 Zr555 Zr 0.71278 0.74982 0.79933
 Zr556 Zr 0.71357 0.75093 0.70684
 O557 O 0.71527 0.74844 0.85630
 O558 O 0.72169 0.75090 0.65061
 O559 O 0.71242 0.72516 0.75259
 O560 O 0.74879 0.72572 0.70794
 O561 O 0.78581 0.72523 0.75658
 O562 O 0.74805 0.72507 0.80306
 C563 C 0.70555 0.81461 0.69530
 C564 C 0.70415 0.81298 0.81323
 C565 C 0.79262 0.81371 0.69767
 O566 O 0.78189 0.74889 0.65379
 O567 O 0.80146 0.71285 0.69280
 O568 O 0.77738 0.67943 0.72302
 C569 C 0.79602 0.68750 0.70058
 O570 O 0.79778 0.78616 0.82852
 Zr571 Zr 0.78352 0.74935 0.80317
 O572 O 0.77502 0.67823 0.78915
 O573 O 0.82780 0.75246 0.71693
 O574 O 0.82704 0.75080 0.79604
 O575 O 0.77724 0.74662 0.85969
 O576 O 0.79984 0.71087 0.81988
 C577 C 0.79384 0.68571 0.81162
 O578 O 0.72885 0.67081 0.72516
 O579 O 0.66922 0.75084 0.79352
 O580 O 0.72142 0.67884 0.78728
 O581 O 0.69554 0.71182 0.81589
 O582 O 0.66987 0.75221 0.71202
 O583 O 0.69577 0.71411 0.68563
 C584 C 0.70182 0.68656 0.80855
 H585 H 0.69447 0.78604 0.75344
 H586 H 0.74897 0.71378 0.68621
 H587 H 0.74737 0.71342 0.82501
 H588 H 0.80082 0.78694 0.75875
 H589 H 0.70424 0.75592 0.63817
 H590 H 0.80114 0.74984 0.64466
 H591 H 0.83585 0.75179 0.69235
 H592 H 0.83569 0.74580 0.81940
 H593 H 0.66213 0.75682 0.68799
 H594 H 0.66135 0.75138 0.81820
 H595 H 0.69600 0.74771 0.86538
 H596 H 0.79532 0.74203 0.87083
 H597 H 0.68403 0.71874 0.66457
 H598 H 0.73553 0.65265 0.73412
 H599 H 0.76271 0.84765 0.77442
 H600 H 0.81295 0.78160 0.84549
 Zr601 Zr 0.25160 0.29960 0.74625
 O602 O 0.22994 0.33038 0.71694
 O603 O 0.27629 0.32359 0.78083
 O604 O 0.22481 0.32257 0.77982
 O605 O 0.30157 0.28887 0.68064
 O606 O 0.19986 0.28960 0.80967
 O607 O 0.27797 0.32217 0.71187
 O608 O 0.29867 0.29133 0.81516
 O609 O 0.25004 0.27696 0.79435
 O610 O 0.28798 0.27619 0.74804
 O611 O 0.21527 0.27578 0.74279
 O612 O 0.25179 0.27582 0.69837
 Zr613 Zr 0.25080 0.20305 0.74592
 Zr614 Zr 0.21501 0.25165 0.78972
 Zr615 Zr 0.28739 0.25105 0.70230
 Zr616 Zr 0.28571 0.25261 0.79475
 O617 O 0.28546 0.24946 0.64530
 O618 O 0.27707 0.25277 0.85084
 O619 O 0.28752 0.22662 0.74919
 O620 O 0.25069 0.22714 0.79326
 O621 O 0.21415 0.22613 0.74404
 O622 O 0.25235 0.22605 0.69818
 C623 C 0.29307 0.31639 0.80602
 C624 C 0.29571 0.31421 0.68816
 C625 C 0.20607 0.31486 0.80233
 O626 O 0.21691 0.25034 0.84673
 O627 O 0.19801 0.21394 0.80768
 O628 O 0.22264 0.18055 0.77805
 C629 C 0.20373 0.18859 0.80017
 O630 O 0.20237 0.28665 0.67158
 Zr631 Zr 0.21670 0.25006 0.69736
 O632 O 0.22565 0.17908 0.71194
 O633 O 0.17157 0.25322 0.78283
 O634 O 0.17310 0.25115 0.70381
 O635 O 0.22349 0.24716 0.64094
 O636 O 0.20092 0.21138 0.68056
 C637 C 0.20704 0.18632 0.68907
 O638 O 0.27129 0.17232 0.77668
 O639 O 0.33089 0.25235 0.70887
 O640 O 0.27912 0.18006 0.71451
 O641 O 0.30499 0.21309 0.68606
 O642 O 0.32944 0.25424 0.79030
 O643 O 0.30360 0.21602 0.81645
 C644 C 0.29880 0.18781 0.69339
 H645 H 0.30497 0.28764 0.74826
 H646 H 0.25041 0.21531 0.81506
 H647 H 0.25331 0.21433 0.67630
 H648 H 0.19867 0.28774 0.74125
 H649 H 0.29435 0.25799 0.86354
 H650 H 0.19757 0.25117 0.85555
 H651 H 0.16329 0.25262 0.80728
 H652 H 0.16472 0.24597 0.68035
 H653 H 0.33690 0.25902 0.81444
 H654 H 0.33900 0.25283 0.68433
 H655 H 0.30482 0.24883 0.63653
 H656 H 0.20554 0.24240 0.62956
 H657 H 0.31511 0.22084 0.83766
 H658 H 0.26484 0.15406 0.76774
 H659 H 0.23646 0.34864 0.72578
 H660 H 0.18734 0.28190 0.65448
 Zr661 Zr 0.24719 0.70093 0.24542
 O662 O 0.26875 0.66997 0.21627
 O663 O 0.22220 0.67716 0.27979
 O664 O 0.27359 0.67776 0.27921
 O665 O 0.19762 0.71199 0.17934
 O666 O 0.29866 0.71054 0.30938
 O667 O 0.22079 0.67853 0.21077
 O668 O 0.19998 0.70960 0.31403
 O669 O 0.24873 0.72359 0.29357
 O670 O 0.21099 0.72461 0.24694
 O671 O 0.28374 0.72445 0.24237
 O672 O 0.24743 0.72466 0.19758
 Zr673 Zr 0.24883 0.79745 0.24529
 Zr674 Zr 0.28399 0.74861 0.28933
 Zr675 Zr 0.21201 0.74971 0.20125
 Zr676 Zr 0.21327 0.74821 0.29370
 O677 O 0.21420 0.75130 0.14426
 O678 O 0.22162 0.74807 0.34988
 O679 O 0.21190 0.77418 0.24816
 O680 O 0.24850 0.77340 0.29259
 O681 O 0.28529 0.77408 0.24369
 O682 O 0.24728 0.77443 0.19751
 C683 C 0.20544 0.68449 0.30493
 C684 C 0.20324 0.68659 0.18687
 C685 C 0.29225 0.68534 0.30194
 O686 O 0.28184 0.74997 0.34633
 O687 O 0.30126 0.78618 0.30753
 O688 O 0.27705 0.81975 0.27772
 C689 C 0.29579 0.81159 0.30001
 O690 O 0.29692 0.71343 0.17128
 Zr691 Zr 0.28274 0.75014 0.19695
 O692 O 0.27429 0.82120 0.21153
 O693 O 0.32745 0.74663 0.28285
 O694 O 0.32629 0.74871 0.20381
 O695 O 0.27621 0.75306 0.14048
 O696 O 0.29889 0.78868 0.18031
 C697 C 0.29292 0.81380 0.18878
 O698 O 0.22847 0.82838 0.27591
 O699 O 0.16848 0.74875 0.20741
 O700 O 0.22082 0.82064 0.21372
 O701 O 0.19479 0.78780 0.18499
 O702 O 0.16955 0.74687 0.28885
 O703 O 0.19553 0.78497 0.31519
 C704 C 0.20116 0.81303 0.19244
 H705 H 0.19392 0.71329 0.24700
 H706 H 0.24878 0.78524 0.31441
 H707 H 0.24651 0.78615 0.17563
 H708 H 0.30024 0.71235 0.24097
 H709 H 0.20422 0.74303 0.36240
 H710 H 0.30113 0.74897 0.35533
 H711 H 0.33562 0.74716 0.30739
 H712 H 0.33483 0.75383 0.18044
 H713 H 0.16195 0.74216 0.31291
 H714 H 0.16047 0.74834 0.18278
 H715 H 0.19488 0.75209 0.13533
 H716 H 0.29425 0.75765 0.12925
 H717 H 0.18388 0.78027 0.33628
 H718 H 0.23512 0.84658 0.26705
 H719 H 0.26205 0.65176 0.22502
 H720 H 0.31204 0.71805 0.15430
 Zr721 Zr 0.25157 0.79784 0.75399
 O722 O 0.27207 0.82862 0.72336
 O723 O 0.22615 0.82177 0.78765
 O724 O 0.22348 0.82019 0.72154
 O725 O 0.30547 0.78811 0.81440
 O726 O 0.19918 0.78666 0.69169
 O727 O 0.27960 0.82098 0.78558
 O728 O 0.20136 0.78942 0.81882
 O729 O 0.21501 0.77463 0.75550
 O730 O 0.25294 0.77493 0.80180
 O731 O 0.25188 0.77371 0.70670
 O732 O 0.28842 0.77443 0.75123
 Zr733 Zr 0.25283 0.70135 0.75393
 Zr734 Zr 0.21629 0.74907 0.70989
 Zr735 Zr 0.28812 0.75006 0.79817
 Zr736 Zr 0.21738 0.75078 0.80227
 O737 O 0.33166 0.74887 0.79215
 O738 O 0.17383 0.74952 0.79528
 O739 O 0.25260 0.72517 0.80176
 O740 O 0.21636 0.72500 0.75688
 O741 O 0.25146 0.72391 0.70576
 O742 O 0.28912 0.72487 0.75250
 C743 C 0.20745 0.81450 0.81034
 C744 C 0.29921 0.81334 0.80689
 C745 C 0.20474 0.81204 0.69924
 O746 O 0.17281 0.74724 0.71622
 O747 O 0.20155 0.71101 0.68979
 O748 O 0.22645 0.67822 0.72009
 C749 C 0.20787 0.68581 0.69728
 O750 O 0.30493 0.78504 0.68426
 Zr751 Zr 0.28702 0.74839 0.70571
 O752 O 0.27778 0.67740 0.71968
 O753 O 0.21853 0.75036 0.65290
 O754 O 0.27877 0.74821 0.64951
 O755 O 0.33073 0.74686 0.71068
 O756 O 0.30016 0.70969 0.68545
 C757 C 0.29460 0.68462 0.69457
 O758 O 0.23109 0.67055 0.78305
 O759 O 0.28586 0.75181 0.85514
 O760 O 0.27904 0.67893 0.78867
 O761 O 0.30227 0.71234 0.82017
 O762 O 0.22382 0.75377 0.85876
 O763 O 0.20303 0.71417 0.82794
 C764 C 0.29655 0.68697 0.81262
 H765 H 0.25372 0.78669 0.82367
 H766 H 0.19981 0.71297 0.75823
 H767 H 0.30615 0.71348 0.75251
 H768 H 0.25167 0.78552 0.68488
 H769 H 0.16528 0.75472 0.81863
 H770 H 0.16470 0.74777 0.69166
 H771 H 0.19925 0.74941 0.64385
 H772 H 0.29616 0.74306 0.63704
 H773 H 0.20578 0.75847 0.86993
 H774 H 0.30516 0.75252 0.86413
 H775 H 0.33961 0.74848 0.81680
 H776 H 0.33834 0.74207 0.68664
 H777 H 0.18788 0.71889 0.84486
 H778 H 0.23773 0.65229 0.77435
 H779 H 0.26549 0.84687 0.73218
 H780 H 0.31662 0.78026 0.66322
 Zr781 Zr 0.24835 0.20190 0.25382
 O782 O 0.22796 0.17077 0.22357
 O783 O 0.27391 0.17836 0.28779
 O784 O 0.27650 0.17939 0.22166
 O785 O 0.19438 0.21196 0.31401
 O786 O 0.30064 0.21275 0.19140
 O787 O 0.22037 0.17893 0.28567
 O788 O 0.29860 0.21108 0.31855
 O789 O 0.28481 0.22527 0.25506
 O790 O 0.24691 0.22522 0.30134
 O791 O 0.24793 0.22564 0.20623
 O792 O 0.21142 0.22516 0.25070
 Zr793 Zr 0.24672 0.29841 0.25250
 Zr794 Zr 0.28342 0.25044 0.20913
 Zr795 Zr 0.21163 0.24993 0.29734
 Zr796 Zr 0.28236 0.24951 0.30153
 O797 O 0.16809 0.25093 0.29128
 O798 O 0.32591 0.25091 0.29459
 O799 O 0.24706 0.27499 0.30063
 O800 O 0.28327 0.27490 0.25582
 O801 O 0.24816 0.27545 0.20461
 O802 O 0.21052 0.27473 0.25137
 C803 C 0.29263 0.18590 0.31038
 C804 C 0.20072 0.18669 0.30683
 C805 C 0.29520 0.18742 0.19927
 O806 O 0.32690 0.25242 0.21549
 O807 O 0.29814 0.28837 0.18868
 O808 O 0.27310 0.32134 0.21847
 C809 C 0.29177 0.31362 0.19587
 O810 O 0.19496 0.21395 0.18374
 Zr811 Zr 0.21269 0.25083 0.20486
 O812 O 0.22160 0.32197 0.21794
 O813 O 0.28116 0.24870 0.15216
 O814 O 0.22096 0.25064 0.14868
 O815 O 0.16898 0.25214 0.20982
 O816 O 0.19927 0.28930 0.18418
 C817 C 0.20472 0.31448 0.19298
 O818 O 0.26833 0.32959 0.28123
 O819 O 0.21393 0.24867 0.35433
 O820 O 0.22047 0.32102 0.28699
 O821 O 0.19739 0.28778 0.31889
 O822 O 0.27593 0.24696 0.35804
 O823 O 0.29656 0.28639 0.32678
 C824 C 0.20302 0.31311 0.31106
 H825 H 0.24617 0.21363 0.32334
 H826 H 0.29978 0.28700 0.25706
 H827 H 0.19345 0.28606 0.25123
 H828 H 0.24817 0.21364 0.18456
 H829 H 0.33449 0.24597 0.31801
 H830 H 0.33502 0.25170 0.19095
 H831 H 0.30043 0.24963 0.14311
 H832 H 0.20355 0.25562 0.13612
 H833 H 0.29398 0.24241 0.36929
 H834 H 0.19463 0.24796 0.36331
 H835 H 0.16014 0.25153 0.31591
 H836 H 0.16131 0.25669 0.18574
 H837 H 0.31171 0.28188 0.34380
 H838 H 0.26160 0.34774 0.27228
 H839 H 0.23461 0.15262 0.23264
 H840 H 0.18325 0.21852 0.16263
 Zr841 Zr 0.75170 0.70199 0.24556
 O842 O 0.77228 0.67115 0.27603
 O843 O 0.72640 0.67815 0.21163
 O844 O 0.72362 0.67942 0.27774
 O845 O 0.80565 0.71216 0.18536
 O846 O 0.69914 0.71276 0.30768
 O847 O 0.77987 0.67907 0.21382
 O848 O 0.70156 0.71057 0.18060
 O849 O 0.71508 0.72512 0.24405
 O850 O 0.75308 0.72514 0.19793
 O851 O 0.75182 0.72594 0.29302
 O852 O 0.78846 0.72551 0.24869
 Zr853 Zr 0.75261 0.79853 0.24637
 Zr854 Zr 0.71616 0.75049 0.28986
 Zr855 Zr 0.78817 0.75009 0.20193
 Zr856 Zr 0.71745 0.74918 0.19747
 O857 O 0.83169 0.75132 0.20821
 O858 O 0.67388 0.75030 0.20424
 O859 O 0.75258 0.77490 0.19837
 O860 O 0.71624 0.77477 0.24305
 O861 O 0.75123 0.77575 0.29436
 O862 O 0.78898 0.77509 0.24779
 C863 C 0.70770 0.68547 0.18893
 C864 C 0.79946 0.68687 0.19259
 C865 C 0.70478 0.68742 0.29999
 O866 O 0.67268 0.75219 0.28329
 O867 O 0.70117 0.78841 0.31015
 O868 O 0.72601 0.82143 0.28026
 C869 C 0.70739 0.81368 0.30291
 O870 O 0.80483 0.71470 0.31574
 Zr871 Zr 0.78687 0.75136 0.29440
 O872 O 0.77744 0.82239 0.28092
 O873 O 0.71829 0.74897 0.34684
 O874 O 0.77847 0.75132 0.35055
 O875 O 0.83058 0.75301 0.28965
 O876 O 0.79990 0.79002 0.31496
 C877 C 0.79428 0.81511 0.30601
 O878 O 0.73085 0.82941 0.21737
 O879 O 0.78601 0.74868 0.14493
 O880 O 0.77886 0.82118 0.21193
 O881 O 0.80229 0.78795 0.18035
 O882 O 0.72400 0.74644 0.14100
 O883 O 0.70305 0.78586 0.17198
 C884 C 0.79649 0.81328 0.18804
 H885 H 0.75394 0.71348 0.17598
 H886 H 0.69965 0.78675 0.24170
 H887 H 0.80597 0.78652 0.24796
 H888 H 0.75161 0.71403 0.31476
 H889 H 0.66540 0.74519 0.18082
 H890 H 0.66451 0.75151 0.30779
 H891 H 0.69898 0.74980 0.35580
 H892 H 0.79582 0.75649 0.36315
 H893 H 0.70600 0.74173 0.12972
 H894 H 0.80533 0.74805 0.13603
 H895 H 0.83971 0.75187 0.18362
 H896 H 0.83814 0.75771 0.31376
 H897 H 0.68795 0.78118 0.15497
 H898 H 0.73742 0.84765 0.22626
 H899 H 0.76577 0.65292 0.26704
 H900 H 0.81646 0.71944 0.33688
 Zr901 Zr 0.74887 0.29855 0.74688
 O902 O 0.72862 0.32956 0.77749
 O903 O 0.77426 0.32220 0.71291
 O904 O 0.77722 0.32092 0.77902
 O905 O 0.69468 0.28880 0.68685
 O906 O 0.80151 0.28741 0.80886
 O907 O 0.72080 0.32168 0.71533
 O908 O 0.79876 0.28959 0.68174
 O909 O 0.78531 0.27515 0.74522
 O910 O 0.74718 0.27542 0.69920
 O911 O 0.74866 0.27462 0.79430
 O912 O 0.71193 0.27531 0.75003
 Zr913 Zr 0.74717 0.20204 0.74743
 Zr914 Zr 0.78412 0.24980 0.79098
 Zr915 Zr 0.71190 0.25073 0.70321
 Zr916 Zr 0.78262 0.25110 0.69859
 O917 O 0.66839 0.24983 0.70957
 O918 O 0.82619 0.24964 0.70526
 O919 O 0.74729 0.22565 0.69948
 O920 O 0.78373 0.22553 0.74412
 O921 O 0.74886 0.22481 0.79548
 O922 O 0.71099 0.22575 0.74901
 C923 C 0.79284 0.31473 0.69013
 C924 C 0.70108 0.31403 0.69416
 C925 C 0.79605 0.31280 0.80122
 O926 O 0.82756 0.24774 0.78433
 O927 O 0.79880 0.21176 0.81114
 O928 O 0.77362 0.17894 0.78121
 C929 C 0.79235 0.18655 0.80383
 O930 O 0.69578 0.28627 0.81713
 Zr931 Zr 0.71341 0.24946 0.79567
 O932 O 0.72224 0.17837 0.78197
 O933 O 0.78213 0.25135 0.84797
 O934 O 0.72193 0.24941 0.85181
 O935 O 0.66967 0.24818 0.79104
 O936 O 0.70011 0.21090 0.81618
 C937 C 0.70552 0.18576 0.80713
 O938 O 0.76865 0.17101 0.71832
 O939 O 0.71394 0.25217 0.64621
 O940 O 0.72068 0.17957 0.71300
 O941 O 0.69743 0.21297 0.68154
 O942 O 0.77596 0.25390 0.64214
 O943 O 0.79669 0.21431 0.67301
 C944 C 0.70307 0.18758 0.68914
 H945 H 0.74636 0.28708 0.67728
 H946 H 0.80022 0.21341 0.74269
 H947 H 0.69391 0.21444 0.74919
 H948 H 0.74901 0.28653 0.81605
 H949 H 0.83467 0.25469 0.68182
 H950 H 0.83579 0.24834 0.80882
 H951 H 0.80144 0.25034 0.85689
 H952 H 0.70457 0.24440 0.86443
 H953 H 0.79397 0.25845 0.63082
 H954 H 0.69460 0.25295 0.63736
 H955 H 0.66032 0.24935 0.68498
 H956 H 0.66213 0.24353 0.81515
 H957 H 0.81177 0.21887 0.65594
 H958 H 0.76196 0.15282 0.72716
 H959 H 0.73525 0.34774 0.76852
 H960 H 0.68420 0.28163 0.83831
 C961 C 0.08192 0.43888 0.91853
 C962 C 0.09940 0.42538 0.90330
 C963 C 0.11994 0.40851 0.88564
 C964 C 0.11961 0.40547 0.84804
 C965 C 0.13849 0.38772 0.83114
 C966 C 0.15781 0.37293 0.85176
 C967 C 0.15842 0.37631 0.88931
 C968 C 0.13954 0.39406 0.90621
 C969 C 0.17584 0.35315 0.83458
 C970 C 0.19016 0.33599 0.82001
 H971 H 0.10447 0.41643 0.83187
 H972 H 0.13770 0.38515 0.80211
 H973 H 0.17313 0.36486 0.90556
 H974 H 0.13991 0.39614 0.93532
 C975 C 0.41560 0.56138 0.41870
 C976 C 0.39806 0.57473 0.40344
 C977 C 0.37748 0.59146 0.38574
 C978 C 0.37739 0.59384 0.34807
 C979 C 0.35856 0.61157 0.33109
 C980 C 0.33974 0.62698 0.35171
 C981 C 0.33951 0.62422 0.38934
 C982 C 0.35834 0.60649 0.40632
 C983 C 0.32193 0.64684 0.33442
 C984 C 0.30785 0.66410 0.31975
 H985 H 0.39218 0.58242 0.33191
 H986 H 0.35904 0.61367 0.30199
 H987 H 0.32518 0.63617 0.40557
 H988 H 0.35832 0.60491 0.43548
 C989 C 0.91591 0.93790 0.58124
 C990 C 0.89844 0.92442 0.59641
 C991 C 0.87791 0.90756 0.61398
 C992 C 0.87762 0.90531 0.65167
 C993 C 0.85880 0.88753 0.66854
 C994 C 0.84019 0.87194 0.64782
 C995 C 0.84017 0.87455 0.61017
 C996 C 0.85898 0.89233 0.59329
 C997 C 0.82234 0.85209 0.66505
 C998 C 0.80824 0.83487 0.67974
 H999 H 0.89224 0.91688 0.66792
 H1000 H 0.85912 0.88554 0.69766
 H1001 H 0.82600 0.86246 0.59386
 H1002 H 0.85910 0.89382 0.56412
 C1003 C 0.58454 0.06137 0.08151
 C1004 C 0.60207 0.07476 0.09672
 C1005 C 0.62266 0.09154 0.11428
 C1006 C 0.62281 0.09407 0.15193
 C1007 C 0.64164 0.11188 0.16877
 C1008 C 0.66040 0.12721 0.14802
 C1009 C 0.66059 0.12430 0.11041
 C1010 C 0.64176 0.10649 0.09357
 C1011 C 0.67820 0.14715 0.16516
 C1012 C 0.69227 0.16445 0.17974
 H1013 H 0.60804 0.08271 0.16818
 H1014 H 0.64120 0.11411 0.19786
 H1015 H 0.67488 0.13620 0.09409
 H1016 H 0.64173 0.10479 0.06441
 C1017 C 0.91440 0.05795 0.43010
 C1018 C 0.89714 0.07210 0.41558
 C1019 C 0.87727 0.09000 0.39849
 C1020 C 0.86265 0.10943 0.41914
 C1021 C 0.84491 0.12831 0.40228
 C1022 C 0.84174 0.12784 0.36471
 C1023 C 0.85599 0.10810 0.34413
 C1024 C 0.87373 0.08922 0.36098
 C1025 C 0.82502 0.14843 0.34707
 C1026 C 0.81166 0.16595 0.33180
 H1027 H 0.86537 0.11033 0.44814
 H1028 H 0.83411 0.14357 0.41844
 H1029 H 0.85379 0.10765 0.31504
 H1030 H 0.88507 0.07442 0.34474
 C1031 C 0.41481 0.44215 0.57097
 C1032 C 0.39753 0.42815 0.58569
 C1033 C 0.37755 0.41049 0.60300
 C1034 C 0.36131 0.39245 0.58226
 C1035 C 0.34335 0.37381 0.59915
 C1036 C 0.34155 0.37314 0.63687
 C1037 C 0.35743 0.39150 0.65760
 C1038 C 0.37540 0.41013 0.64070
 C1039 C 0.32454 0.35271 0.65441
 C1040 C 0.31098 0.33527 0.66951
 H1041 H 0.36293 0.39242 0.55310
 H1042 H 0.33128 0.35962 0.58287
 H1043 H 0.35631 0.39107 0.68679
 H1044 H 0.38797 0.42386 0.65702
 C1045 C 0.58565 0.94214 0.92917
 C1046 C 0.60293 0.92801 0.91463
 C1047 C 0.62286 0.91014 0.89761
 C1048 C 0.62536 0.90977 0.85996
 C1049 C 0.64320 0.89088 0.84331
 C1050 C 0.65861 0.87227 0.86425
 C1051 C 0.65647 0.87297 0.90194
 C1052 C 0.63863 0.89186 0.91858
 C1053 C 0.67548 0.85163 0.84693
 C1054 C 0.68895 0.83406 0.83192
 H1055 H 0.61313 0.92368 0.84347
 H1056 H 0.64460 0.89043 0.81414
 H1057 H 0.66818 0.85859 0.91837
 H1058 H 0.63672 0.89185 0.94771
 C1059 C 0.08526 0.55771 0.06847
 C1060 C 0.10245 0.57189 0.08321
 C1061 C 0.12222 0.58981 0.10059
 C1062 C 0.12518 0.58939 0.13821
 C1063 C 0.14288 0.60824 0.15528
 C1064 C 0.15769 0.62762 0.13483
 C1065 C 0.15508 0.62774 0.09717
 C1066 C 0.13738 0.60890 0.08010
 C1067 C 0.17451 0.64814 0.15264
 C1068 C 0.18798 0.66560 0.16795
 H1069 H 0.11344 0.57487 0.15436
 H1070 H 0.14464 0.60802 0.18443
 H1071 H 0.16632 0.64271 0.08109
 H1072 H 0.13513 0.60954 0.05102
 C1073 C 0.41469 0.94137 0.07739
 C1074 C 0.39708 0.92752 0.09153
 C1075 C 0.37665 0.91018 0.10823
 C1076 C 0.37492 0.90878 0.14591
 C1077 C 0.35649 0.89034 0.16217
 C1078 C 0.33975 0.87324 0.14079
 C1079 C 0.34110 0.87501 0.10311
 C1080 C 0.35954 0.89347 0.08685
 C1081 C 0.32242 0.85281 0.15749
 C1082 C 0.30858 0.83520 0.17166
 H1083 H 0.38819 0.92152 0.16266
 H1084 H 0.35569 0.88899 0.19134
 H1085 H 0.32835 0.86176 0.08636
 H1086 H 0.36085 0.89430 0.05768
 C1087 C 0.58581 0.44189 0.42236
 C1088 C 0.60347 0.42815 0.40811
 C1089 C 0.62393 0.41091 0.39129
 C1090 C 0.62549 0.40943 0.35360
 C1091 C 0.64393 0.39102 0.33723
 C1092 C 0.66084 0.37406 0.35852
 C1093 C 0.65968 0.37593 0.39620
 C1094 C 0.64124 0.39434 0.41257
 C1095 C 0.67812 0.35360 0.34174
 C1096 C 0.69190 0.33594 0.32755
 H1097 H 0.61206 0.42205 0.33694
 H1098 H 0.64458 0.38958 0.30806
 H1099 H 0.67257 0.36278 0.41288
 H1100 H 0.64006 0.39524 0.44175
 C1101 C 0.91645 0.55760 0.92145
 C1102 C 0.89885 0.57162 0.90746
 C1103 C 0.87841 0.58918 0.89104
 C1104 C 0.87632 0.59063 0.85339
 C1105 C 0.85779 0.60918 0.83741
 C1106 C 0.84131 0.62633 0.85905
 C1107 C 0.84305 0.62453 0.89670
 C1108 C 0.86157 0.60598 0.91267
 C1109 C 0.82376 0.64677 0.84260
 C1110 C 0.80973 0.66435 0.82861
 H1111 H 0.88936 0.57784 0.83642
 H1112 H 0.85670 0.61053 0.80826
 H1113 H 0.83050 0.63781 0.91366
 H1114 H 0.86314 0.60511 0.94182
 C1115 C 0.08578 0.05811 0.57770
 C1116 C 0.10343 0.07197 0.59181
 C1117 C 0.12387 0.08937 0.60844
 C1118 C 0.12594 0.09054 0.64611
 C1119 C 0.14433 0.10909 0.66234
 C1120 C 0.16068 0.12649 0.64094
 C1121 C 0.15900 0.12493 0.60327
 C1122 C 0.14061 0.10638 0.58703
 C1123 C 0.17788 0.14706 0.65766
 C1124 C 0.19158 0.16478 0.67186
 H1125 H 0.11295 0.07757 0.66288
 H1126 H 0.14538 0.11027 0.69151
 H1127 H 0.17145 0.13843 0.58651
 H1128 H 0.13903 0.10573 0.55788
 C1129 C 0.08530 0.44216 0.42853
 C1130 C 0.10249 0.42807 0.41376
 C1131 C 0.12230 0.41024 0.39642
 C1132 C 0.12433 0.40977 0.35871
 C1133 C 0.14204 0.39091 0.34178
 C1134 C 0.15777 0.37242 0.36248
 C1135 C 0.15610 0.37321 0.40021
 C1136 C 0.13839 0.39208 0.41714
 C1137 C 0.17451 0.35179 0.34493
 C1138 C 0.18789 0.33422 0.32979
 H1139 H 0.11184 0.42359 0.34242
 H1140 H 0.14308 0.39038 0.31258
 H1141 H 0.16807 0.35893 0.41646
 H1142 H 0.13684 0.39215 0.44631
 C1143 C 0.41466 0.55822 0.92994
 C1144 C 0.39741 0.57237 0.91537
 C1145 C 0.37753 0.59022 0.89823
 C1146 C 0.36253 0.60934 0.91890
 C1147 C 0.34475 0.62816 0.90203
 C1148 C 0.34189 0.62794 0.86441
 C1149 C 0.35651 0.60850 0.84379
 C1150 C 0.37430 0.58969 0.86066
 C1151 C 0.32509 0.64848 0.84678
 C1152 C 0.31169 0.66597 0.83153
 H1153 H 0.36501 0.61006 0.94795
 H1154 H 0.33365 0.64319 0.91821
 H1155 H 0.35455 0.60824 0.81467
 H1156 H 0.38593 0.57511 0.84440
 C1157 C 0.58511 0.05806 0.57191
 C1158 C 0.60226 0.07233 0.58656
 C1159 C 0.62201 0.09038 0.60379
 C1160 C 0.62485 0.09027 0.64142
 C1161 C 0.64253 0.10923 0.65831
 C1162 C 0.65744 0.12840 0.63765
 C1163 C 0.65494 0.12821 0.59998
 C1164 C 0.63727 0.10925 0.58310
 C1165 C 0.67427 0.14902 0.65525
 C1166 C 0.68776 0.16654 0.67040
 H1167 H 0.61303 0.07591 0.65772
 H1168 H 0.64420 0.10926 0.68747
 H1169 H 0.66626 0.14301 0.58374
 H1170 H 0.63510 0.10965 0.55400
 C1171 C 0.91496 0.94180 0.07086
 C1172 C 0.89773 0.92772 0.08556
 C1173 C 0.87784 0.90995 0.10285
 C1174 C 0.86181 0.89172 0.08211
 C1175 C 0.84396 0.87298 0.09901
 C1176 C 0.84205 0.87240 0.13672
 C1177 C 0.85772 0.89095 0.15743
 C1178 C 0.87558 0.90968 0.14054
 C1179 C 0.82515 0.85189 0.15427
 C1180 C 0.81167 0.83439 0.16937
 H1181 H 0.86352 0.89162 0.05296
 H1182 H 0.83205 0.85864 0.08273
 H1183 H 0.85651 0.89059 0.18663
 H1184 H 0.88799 0.92356 0.15686
 C1185 C 0.91548 0.06179 0.91957
 C1186 C 0.89796 0.07528 0.90450
 C1187 C 0.87741 0.09219 0.88704
 C1188 C 0.87691 0.09435 0.84935
 C1189 C 0.85814 0.11224 0.83256
 C1190 C 0.83978 0.12804 0.85339
 C1191 C 0.83996 0.12552 0.89105
 C1192 C 0.85873 0.10763 0.90783
 C1193 C 0.82202 0.14801 0.83624
 C1194 C 0.80796 0.16532 0.82163
 H1195 H 0.89135 0.08262 0.83302
 H1196 H 0.85830 0.11416 0.80343
 H1197 H 0.82599 0.13777 0.90743
 H1198 H 0.85902 0.10622 0.93701
 C1199 C 0.08477 0.56140 0.58094
 C1200 C 0.10231 0.57480 0.59612
 C1201 C 0.12287 0.59160 0.61370
 C1202 C 0.12321 0.59385 0.65139
 C1203 C 0.14199 0.61168 0.66828
 C1204 C 0.16051 0.62733 0.64756
 C1205 C 0.16051 0.62470 0.60991
 C1206 C 0.14173 0.60687 0.59302
 C1207 C 0.17825 0.64728 0.66479
 C1208 C 0.19229 0.66458 0.67944
 H1209 H 0.10862 0.58225 0.66763
 H1210 H 0.14169 0.61369 0.69740
 H1211 H 0.17462 0.63683 0.59361
 H1212 H 0.14156 0.60538 0.56384
 C1213 C 0.58407 0.93769 0.42046
 C1214 C 0.60151 0.92418 0.40520
 C1215 C 0.62197 0.90730 0.38742
 C1216 C 0.62206 0.90501 0.34972
 C1217 C 0.64082 0.88726 0.33263
 C1218 C 0.65959 0.87170 0.35313
 C1219 C 0.65980 0.87432 0.39080
 C1220 C 0.64104 0.89208 0.40789
 C1221 C 0.67746 0.85192 0.33568
 C1222 C 0.69163 0.83477 0.32087
 H1223 H 0.60734 0.91657 0.33362
 H1224 H 0.64035 0.88528 0.30351
 H1225 H 0.67409 0.86228 0.40695
 H1226 H 0.64108 0.89358 0.43707
 C1227 C 0.41564 0.43789 0.08065
 C1228 C 0.39810 0.42439 0.09565
 C1229 C 0.37748 0.40751 0.11299
 C1230 C 0.37692 0.40527 0.15067
 C1231 C 0.35802 0.38747 0.16733
 C1232 C 0.33958 0.37183 0.14640
 C1233 C 0.33983 0.37441 0.10875
 C1234 C 0.35873 0.39222 0.09208
 C1235 C 0.32165 0.35196 0.16344
 C1236 C 0.30747 0.33475 0.17802
 H1237 H 0.39141 0.41689 0.16709
 H1238 H 0.35813 0.38550 0.19646
 H1239 H 0.32580 0.36229 0.09228
 H1240 H 0.35906 0.39369 0.06291
 C1241 C 0.58595 0.55763 0.07778
 C1242 C 0.60365 0.57143 0.09188
 C1243 C 0.62415 0.58877 0.10848
 C1244 C 0.62619 0.59001 0.14615
 C1245 C 0.64465 0.60851 0.16234
 C1246 C 0.66109 0.62580 0.14090
 C1247 C 0.65943 0.62417 0.10323
 C1248 C 0.64098 0.60567 0.08703
 C1249 C 0.67837 0.64632 0.15756
 C1250 C 0.69215 0.66400 0.17174
 H1251 H 0.61313 0.57714 0.16295
 H1252 H 0.64567 0.60975 0.19150
 H1253 H 0.67196 0.63758 0.08644
 H1254 H 0.63942 0.60495 0.05788
 C1255 C 0.08568 0.94207 0.92189
 C1256 C 0.10333 0.92831 0.90764
 C1257 C 0.12379 0.91104 0.89086
 C1258 C 0.12526 0.90938 0.85318
 C1259 C 0.14372 0.89095 0.83688
 C1260 C 0.16073 0.87413 0.85823
 C1261 C 0.15964 0.87617 0.89590
 C1262 C 0.14119 0.89461 0.91220
 C1263 C 0.17804 0.85366 0.84153
 C1264 C 0.19185 0.83599 0.82740
 H1265 H 0.11177 0.92190 0.83647
 H1266 H 0.14431 0.88939 0.80772
 H1267 H 0.17261 0.86313 0.91263
 H1268 H 0.14007 0.89564 0.94137
 C1269 C 0.41457 0.05855 0.42273
 C1270 C 0.39704 0.07247 0.40846
 C1271 C 0.37668 0.08989 0.39164
 C1272 C 0.37475 0.09100 0.35395
 C1273 C 0.35631 0.10942 0.33757
 C1274 C 0.33975 0.12677 0.35882
 C1275 C 0.34132 0.12530 0.39652
 C1276 C 0.35976 0.10689 0.41290
 C1277 C 0.32233 0.14710 0.34196
 C1278 C 0.30840 0.16461 0.32766
 H1279 H 0.38786 0.07805 0.33728
 H1280 H 0.35535 0.11051 0.30839
 H1281 H 0.32871 0.13875 0.41318
 H1282 H 0.36121 0.10628 0.44207
 C1283 C 0.91476 0.44166 0.57782
 C1284 C 0.89715 0.42790 0.59210
 C1285 C 0.87671 0.41067 0.60898
 C1286 C 0.87537 0.40906 0.64667
 C1287 C 0.85689 0.39073 0.66307
 C1288 C 0.83973 0.37396 0.64181
 C1289 C 0.84071 0.37595 0.60413
 C1290 C 0.85918 0.39429 0.58773
 C1291 C 0.82236 0.35362 0.65862
 C1292 C 0.80850 0.33607 0.67288
 H1293 H 0.88896 0.42154 0.66331
 H1294 H 0.85639 0.38921 0.69223
 H1295 H 0.82763 0.36295 0.58748
 H1296 H 0.86019 0.39530 0.55855
 C1297 C 0.91712 0.56187 0.06621
 C1298 C 0.90043 0.57591 0.08212
 C1299 C 0.88124 0.59319 0.10165
 C1300 C 0.88200 0.59397 0.13946
 C1301 C 0.86451 0.61190 0.15845
 C1302 C 0.84614 0.62916 0.13974
 C1303 C 0.84511 0.62811 0.10195
 C1304 C 0.86261 0.61018 0.08296
 C1305 C 0.82924 0.64879 0.15911
 C1306 C 0.81546 0.66582 0.17480
 H1307 H 0.89641 0.58103 0.15422
 H1308 H 0.86560 0.61260 0.18764
 H1309 H 0.83109 0.64144 0.08717
 H1310 H 0.86191 0.60987 0.05374
 C1311 C 0.58304 0.43891 0.56891
 C1312 C 0.59987 0.42502 0.58475
 C1313 C 0.61922 0.40788 0.60412
 C1314 C 0.63786 0.39100 0.58527
 C1315 C 0.65546 0.37311 0.60410
 C1316 C 0.65452 0.37199 0.64188
 C1317 C 0.63617 0.38916 0.66076
 C1318 C 0.61857 0.40706 0.64192
 C1319 C 0.67142 0.35230 0.66105
 C1320 C 0.68516 0.33519 0.67658
 H1321 H 0.63846 0.39135 0.55604
 H1322 H 0.66947 0.35983 0.58921
 H1323 H 0.63515 0.38839 0.68995
 H1324 H 0.60415 0.41991 0.65679
 C1325 C 0.08258 0.06158 0.43150
 C1326 C 0.09936 0.07559 0.41578
 C1327 C 0.11869 0.09285 0.39656
 C1328 C 0.11820 0.09365 0.35875
 C1329 C 0.13581 0.11160 0.34005
 C1330 C 0.15402 0.12885 0.35907
 C1331 C 0.15478 0.12777 0.39686
 C1332 C 0.13716 0.10982 0.41556
 C1333 C 0.17097 0.14854 0.34001
 C1334 C 0.18476 0.16561 0.32450
 H1335 H 0.10391 0.08072 0.34377
 H1336 H 0.13493 0.11234 0.31086
 H1337 H 0.16868 0.14111 0.41187
 H1338 H 0.13764 0.10949 0.44479
 C1339 C 0.41746 0.93860 0.93109
 C1340 C 0.40063 0.92466 0.91534
 C1341 C 0.38125 0.90745 0.89613
 C1342 C 0.36254 0.89080 0.91515
 C1343 C 0.34490 0.87283 0.89649
 C1344 C 0.34589 0.87142 0.85873
 C1345 C 0.36431 0.88836 0.83969
 C1346 C 0.38195 0.90634 0.85835
 C1347 C 0.32895 0.85166 0.83976
 C1348 C 0.31517 0.83450 0.82437
 H1349 H 0.36191 0.89139 0.94437
 H1350 H 0.33083 0.85973 0.91150
 H1351 H 0.36536 0.88735 0.81051
 H1352 H 0.39644 0.91902 0.84337
 C1353 C 0.08446 0.93475 0.57414
 C1354 C 0.10163 0.92099 0.58952
 C1355 C 0.12141 0.90410 0.60850
 C1356 C 0.13803 0.88530 0.58954
 C1357 C 0.15603 0.86773 0.60825
 C1358 C 0.15749 0.86886 0.64600
 C1359 C 0.14116 0.88794 0.66492
 C1360 C 0.12317 0.90552 0.64622
 C1361 C 0.17472 0.84956 0.66529
 C1362 C 0.18868 0.83278 0.68108
 H1363 H 0.13675 0.88392 0.56041
 H1364 H 0.16845 0.85296 0.59334
 H1365 H 0.14201 0.88891 0.69412
 H1366 H 0.11032 0.91988 0.66118
 C1367 C 0.58418 0.56506 0.42517
 C1368 C 0.60131 0.57874 0.40961
 C1369 C 0.62109 0.59553 0.39045
 C1370 C 0.62165 0.59521 0.35263
 C1371 C 0.63973 0.61266 0.33387
 C1372 C 0.65735 0.63053 0.35285
 C1373 C 0.65707 0.63057 0.39068
 C1374 C 0.63900 0.61312 0.40943
 C1375 C 0.67469 0.64980 0.33363
 C1376 C 0.68871 0.66658 0.31795
 H1377 H 0.60782 0.58179 0.33765
 H1378 H 0.63964 0.61255 0.30464
 H1379 H 0.67050 0.64440 0.40565
 H1380 H 0.63867 0.61365 0.43866
 C1381 C 0.41598 0.06471 0.07496
 C1382 C 0.39883 0.07840 0.09045
 C1383 C 0.37903 0.09523 0.10952
 C1384 C 0.37901 0.09566 0.14734
 C1385 C 0.36092 0.11320 0.16595
 C1386 C 0.34276 0.13040 0.14683
 C1387 C 0.34249 0.12968 0.10901
 C1388 C 0.36059 0.11213 0.09040
 C1389 C 0.32540 0.14976 0.16584
 C1390 C 0.31135 0.16659 0.18140
 H1391 H 0.39327 0.08277 0.16240
 H1392 H 0.36142 0.11369 0.19518
 H1393 H 0.32864 0.14299 0.09394
 H1394 H 0.36050 0.11207 0.06116
 C1395 C 0.91713 0.43642 0.92456
 C1396 C 0.89990 0.42256 0.90932
 C1397 C 0.88007 0.40547 0.89057
 C1398 C 0.86317 0.38713 0.90984
 C1399 C 0.84512 0.36938 0.89143
 C1400 C 0.84386 0.36985 0.85364
 C1401 C 0.86049 0.38846 0.83438
 C1402 C 0.87854 0.40621 0.85280
 C1403 C 0.82646 0.35042 0.83467
 C1404 C 0.81234 0.33358 0.81913
 H1405 H 0.86426 0.38625 0.93902
 H1406 H 0.83247 0.35500 0.90662
 H1407 H 0.85981 0.38894 0.80517
 H1408 H 0.89159 0.42020 0.83758
 C1409 C 0.58697 0.05948 0.92623
 C1410 C 0.60456 0.07277 0.91112
 C1411 C 0.62489 0.08967 0.89342
 C1412 C 0.62630 0.09019 0.85568
 C1413 C 0.64438 0.10847 0.83842
 C1414 C 0.66109 0.12627 0.85885
 C1415 C 0.66011 0.12532 0.89660
 C1416 C 0.64203 0.10704 0.91386
 C1417 C 0.67778 0.14672 0.84106
 C1418 C 0.69092 0.16436 0.82581
 H1419 H 0.61299 0.07698 0.83963
 H1420 H 0.64486 0.10918 0.80920
 H1421 H 0.67281 0.13913 0.91263
 H1422 H 0.64095 0.10691 0.94306
 C1423 C 0.41317 0.55902 0.57433
 C1424 C 0.39552 0.57209 0.58966
 C1425 C 0.37512 0.58874 0.60765
 C1426 C 0.37417 0.58945 0.64541
 C1427 C 0.35604 0.60757 0.66291
 C1428 C 0.33884 0.62502 0.64270
 C1429 C 0.33934 0.62384 0.60494
 C1430 C 0.35746 0.60572 0.58744
 C1431 C 0.32218 0.64542 0.66066
 C1432 C 0.30910 0.66309 0.67596
 H1433 H 0.38788 0.57653 0.66127
 H1434 H 0.35593 0.60847 0.69213
 H1435 H 0.32625 0.63739 0.58908
 H1436 H 0.35819 0.60544 0.55822
 C1437 C 0.08602 0.44014 0.07224
 C1438 C 0.10352 0.42685 0.08758
 C1439 C 0.12377 0.40997 0.10558
 C1440 C 0.14104 0.39254 0.08541
 C1441 C 0.15912 0.37438 0.10294
 C1442 C 0.15999 0.37360 0.14071
 C1443 C 0.14315 0.39145 0.16087
 C1444 C 0.12507 0.40960 0.14334
 C1445 C 0.17678 0.35331 0.15878
 C1446 C 0.19001 0.33580 0.17419
 H1447 H 0.14006 0.39254 0.05619
 H1448 H 0.17192 0.36054 0.08710
 H1449 H 0.14355 0.39088 0.19010
 H1450 H 0.11168 0.42287 0.15919
 C1451 C 0.91301 0.94088 0.42589
 C1452 C 0.89534 0.92775 0.41066
 C1453 C 0.87491 0.91103 0.39281
 C1454 C 0.85762 0.89375 0.41312
 C1455 C 0.83947 0.87559 0.39572
 C1456 C 0.83855 0.87468 0.35797
 C1457 C 0.85538 0.89241 0.33767
 C1458 C 0.87353 0.91057 0.35507
 C1459 C 0.82186 0.85426 0.34004
 C1460 C 0.80877 0.83660 0.32472
 H1461 H 0.85868 0.89384 0.44233
 H1462 H 0.82668 0.86182 0.41165
 H1463 H 0.85494 0.89171 0.30845
 H1464 H 0.88695 0.92372 0.33913
 C1465 C 0.91622 0.56489 0.57517
 C1466 C 0.89912 0.57860 0.59076
 C1467 C 0.87940 0.59543 0.60995
 C1468 C 0.87907 0.59532 0.64777
 C1469 C 0.86108 0.61286 0.66655
 C1470 C 0.84332 0.63058 0.64758
 C1471 C 0.84336 0.63039 0.60976
 C1472 C 0.86136 0.61285 0.59098
 C1473 C 0.82606 0.64991 0.66680
 C1474 C 0.81209 0.66671 0.68252
 H1475 H 0.89302 0.58203 0.66272
 H1476 H 0.86133 0.61294 0.69578
 H1477 H 0.82982 0.64411 0.59481
 H1478 H 0.86153 0.61320 0.56175
 C1479 C 0.58421 0.43432 0.07400
 C1480 C 0.60137 0.42056 0.08941
 C1481 C 0.62116 0.40370 0.10843
 C1482 C 0.63778 0.38488 0.08951
 C1483 C 0.65583 0.36737 0.10825
 C1484 C 0.65733 0.36859 0.14599
 C1485 C 0.64100 0.38769 0.16488
 C1486 C 0.62296 0.40520 0.14614
 C1487 C 0.67463 0.34936 0.16532
 C1488 C 0.68863 0.33263 0.18114
 H1489 H 0.63648 0.38344 0.06038
 H1490 H 0.66826 0.35259 0.09337
 H1491 H 0.64188 0.38872 0.19406
 H1492 H 0.61011 0.41958 0.16106
 C1493 C 0.41551 0.93486 0.42614
 C1494 C 0.39847 0.92099 0.41057
 C1495 C 0.37887 0.90394 0.39137
 C1496 C 0.36198 0.88531 0.41019
 C1497 C 0.34415 0.86762 0.39133
 C1498 C 0.34308 0.86845 0.35354
 C1499 C 0.35969 0.88734 0.33474
 C1500 C 0.37753 0.90503 0.35360
 C1501 C 0.32589 0.84910 0.33411
 C1502 C 0.31191 0.83232 0.31824
 H1503 H 0.36292 0.88416 0.43937
 H1504 H 0.33151 0.85303 0.40617
 H1505 H 0.35916 0.88810 0.30552
 H1506 H 0.39057 0.91924 0.33872
 C1507 C 0.08402 0.06540 0.92547
 C1508 C 0.10107 0.07921 0.90994
 C1509 C 0.12070 0.09618 0.89080
 C1510 C 0.12145 0.09565 0.85299
 C1511 C 0.13935 0.11329 0.83422
 C1512 C 0.15659 0.13154 0.85318
 C1513 C 0.15612 0.13178 0.89101
 C1514 C 0.13822 0.11415 0.90977
 C1515 C 0.17377 0.15091 0.83393
 C1516 C 0.18770 0.16775 0.81820
 H1517 H 0.10791 0.08194 0.83802
 H1518 H 0.13942 0.11301 0.80499
 H1519 H 0.16925 0.14590 0.90596
 H1520 H 0.13773 0.11484 0.93898
 C1521 C 0.08316 0.93855 0.06821
 C1522 C 0.10001 0.92456 0.08388
 C1523 C 0.11937 0.90730 0.10305
 C1524 C 0.13766 0.89017 0.08401
 C1525 C 0.15525 0.87215 0.10267
 C1526 C 0.15464 0.87118 0.14047
 C1527 C 0.13664 0.88860 0.15953
 C1528 C 0.11905 0.90662 0.14086
 C1529 C 0.17152 0.85139 0.15950
 C1530 C 0.18525 0.83422 0.17493
 H1531 H 0.13799 0.89041 0.05477
 H1532 H 0.16898 0.85868 0.08764
 H1533 H 0.13589 0.88793 0.18874
 H1534 H 0.10490 0.91966 0.15587
 C1535 C 0.91716 0.43871 0.43137
 C1536 C 0.90032 0.42477 0.41565
 C1537 C 0.88095 0.40755 0.39642
 C1538 C 0.86236 0.39076 0.41541
 C1539 C 0.84477 0.37276 0.39671
 C1540 C 0.84569 0.37146 0.35894
 C1541 C 0.86400 0.38856 0.33993
 C1542 C 0.88159 0.40656 0.35862
 C1543 C 0.82882 0.35167 0.33993
 C1544 C 0.81509 0.33450 0.32450
 H1545 H 0.86179 0.39125 0.44463
 H1546 H 0.83079 0.35954 0.41171
 H1547 H 0.86499 0.38763 0.31074
 H1548 H 0.89598 0.41935 0.34367
 C1549 C 0.41697 0.06202 0.56913
 C1550 C 0.40023 0.07615 0.58480
 C1551 C 0.38098 0.09358 0.60401
 C1552 C 0.38166 0.09469 0.64181
 C1553 C 0.36410 0.11277 0.66047
 C1554 C 0.34576 0.12985 0.64144
 C1555 C 0.34482 0.12847 0.60366
 C1556 C 0.36238 0.11040 0.58500
 C1557 C 0.32878 0.14961 0.66045
 C1558 C 0.31491 0.16671 0.67588
 H1559 H 0.39604 0.08190 0.65681
 H1560 H 0.36512 0.11372 0.68965
 H1561 H 0.33082 0.14165 0.58862
 H1562 H 0.36175 0.10984 0.55578
 C1563 C 0.58290 0.56141 0.93181
 C1564 C 0.59978 0.57540 0.91626
 C1565 C 0.61924 0.59266 0.89728
 C1566 C 0.61895 0.59354 0.85947
 C1567 C 0.63671 0.61149 0.84101
 C1568 C 0.65486 0.62865 0.86026
 C1569 C 0.65543 0.62749 0.89805
 C1570 C 0.63766 0.60954 0.91652
 C1571 C 0.67194 0.64836 0.84143
 C1572 C 0.68581 0.66546 0.82608
 H1573 H 0.60471 0.58069 0.84432
 H1574 H 0.63599 0.61231 0.81181
 H1575 H 0.66927 0.64075 0.91323
 H1576 H 0.63799 0.60914 0.94575
 C1577 C 0.41282 0.44135 0.92545
 C1578 C 0.39504 0.42839 0.91021
 C1579 C 0.37442 0.41188 0.89239
 C1580 C 0.35680 0.39498 0.91277
 C1581 C 0.33844 0.37700 0.89543
 C1582 C 0.33763 0.37589 0.85768
 C1583 C 0.35479 0.39325 0.83731
 C1584 C 0.37317 0.41123 0.85465
 C1585 C 0.32077 0.35556 0.83986
 C1586 C 0.30759 0.33793 0.82463
 H1587 H 0.35776 0.39521 0.94198
 H1588 H 0.32539 0.36351 0.91141
 H1589 H 0.35446 0.39239 0.80810
 H1590 H 0.38684 0.42408 0.83867
 C1591 C 0.91331 0.05877 0.07495
 C1592 C 0.89567 0.07184 0.09030
 C1593 C 0.87528 0.08851 0.10827
 C1594 C 0.87448 0.08947 0.14602
 C1595 C 0.85635 0.10761 0.16346
 C1596 C 0.83898 0.12485 0.14319
 C1597 C 0.83933 0.12344 0.10544
 C1598 C 0.85746 0.10529 0.08800
 C1599 C 0.82229 0.14529 0.16105
 C1600 C 0.80918 0.16297 0.17628
 H1601 H 0.88832 0.07671 0.16192
 H1602 H 0.85635 0.10870 0.19267
 H1603 H 0.82611 0.13683 0.08953
 H1604 H 0.85806 0.10483 0.05878
 C1605 C 0.58612 0.94037 0.57593
 C1606 C 0.60367 0.92708 0.59119
 C1607 C 0.62400 0.91021 0.60903
 C1608 C 0.64156 0.89321 0.58866
 C1609 C 0.65976 0.87505 0.60599
 C1610 C 0.66046 0.87383 0.64374
 C1611 C 0.64332 0.89125 0.66411
 C1612 C 0.62511 0.90940 0.64679
 C1613 C 0.67738 0.85352 0.66155
 C1614 C 0.69073 0.83598 0.67675
 H1615 H 0.64073 0.89355 0.55945
 H1616 H 0.67280 0.86154 0.58998
 H1617 H 0.64357 0.89033 0.69333
 H1618 H 0.61150 0.92233 0.66279
 C1619 C 0.08679 0.55914 0.42537
 C1620 C 0.10438 0.57225 0.41000
 C1621 C 0.12473 0.58892 0.39198
 C1622 C 0.12563 0.58962 0.35422
 C1623 C 0.14375 0.60771 0.33670
 C1624 C 0.16101 0.62513 0.35689
 C1625 C 0.16055 0.62398 0.39465
 C1626 C 0.14243 0.60589 0.41217
 C1627 C 0.17772 0.64547 0.33891
 C1628 C 0.19086 0.66306 0.32358
 H1629 H 0.11188 0.57671 0.33838
 H1630 H 0.14383 0.60859 0.30748
 H1631 H 0.17369 0.63751 0.41050
 H1632 H 0.14175 0.60562 0.44139
   
