data_POSCAR
  _audit_creation_date              2014-09-24
  _audit_creation_method            'ToBaCCo'
  _symmetry_space_group_name_H-M    'P1'
  _symmetry_Int_Tables_number       1
  _symmetry_cell_setting            triclinic
  loop_
  _symmetry_equiv_pos_as_xyz
 x,y,z
_cell_length_a 43.0680
_cell_length_b 45.8409
_cell_length_c 52.5732
_cell_angle_alpha 89.954800
_cell_angle_beta 90.184700
_cell_angle_gamma 90.094700
loop_
  _atom_site_label
  _atom_site_type_symbol
  _atom_site_fract_x
  _atom_site_fract_y
  _atom_site_fract_z
Zr1 Zr 0.24581 0.24879 0.29783
 O2 O 0.26854 0.26907 0.32896
 O3 O 0.21155 0.22454 0.31643
 O4 O 0.21655 0.27807 0.31694
 O5 O 0.29678 0.19113 0.29105
 O6 O 0.20020 0.30987 0.28626
 O7 O 0.27149 0.21915 0.32029
 O8 O 0.18255 0.20580 0.28399
 O9 O 0.20753 0.25525 0.27385
 O10 O 0.24232 0.21131 0.27538
 O11 O 0.25553 0.28720 0.27756
 O12 O 0.28901 0.24469 0.27954
 Zr13 Zr 0.25694 0.25203 0.20964
 Zr14 Zr 0.21832 0.29222 0.25213
 Zr15 Zr 0.28385 0.20848 0.25550
 Zr16 Zr 0.20554 0.21853 0.25050
 O17 O 0.33279 0.20504 0.25732
 O18 O 0.15881 0.23256 0.24714
 O19 O 0.24681 0.21332 0.22982
 O20 O 0.21400 0.25559 0.22847
 O21 O 0.26029 0.28975 0.23203
 O22 O 0.29461 0.24534 0.23412
 C23 C 0.18872 0.20940 0.30774
 C24 C 0.28990 0.19825 0.31403
 C25 C 0.20147 0.30074 0.30947
 O26 O 0.16947 0.29544 0.24881
 O27 O 0.20606 0.31028 0.21651
 O28 O 0.23476 0.28461 0.18772
 C29 C 0.21478 0.30436 0.19366
 O30 O 0.31551 0.29438 0.29330
 Zr31 Zr 0.29686 0.28199 0.25741
 O32 O 0.29237 0.27576 0.19153
 O33 O 0.22989 0.33704 0.25335
 O34 O 0.29668 0.32824 0.25797
 O35 O 0.34425 0.26978 0.25999
 O36 O 0.31935 0.29615 0.22445
 C37 C 0.31444 0.29156 0.20072
 O38 O 0.23225 0.23486 0.17809
 O39 O 0.27277 0.16347 0.25557
 O40 O 0.28166 0.21917 0.18984
 O41 O 0.29819 0.18882 0.22144
 O42 O 0.20402 0.17228 0.25088
 O43 O 0.18868 0.20261 0.21508
 C44 C 0.29537 0.19583 0.19782
 H45 H 0.23911 0.19327 0.28540
 H46 H 0.19663 0.25765 0.21623
 H47 H 0.31440 0.24221 0.22500
 H48 H 0.25753 0.30416 0.28909
 H49 H 0.14534 0.21546 0.25054
 H50 H 0.16433 0.31651 0.24913
 H51 H 0.21008 0.34790 0.25191
 H52 H 0.31837 0.33490 0.25552
 H53 H 0.18211 0.16640 0.25352
 H54 H 0.29261 0.15273 0.25736
 H55 H 0.33773 0.18395 0.25676
 H56 H 0.35693 0.28766 0.25773
 H57 H 0.16878 0.19223 0.21776
 H58 H 0.24313 0.24132 0.16244
 H59 H 0.25824 0.26220 0.34474
 H60 H 0.33166 0.30950 0.29082
 Zr61 Zr 0.75068 0.74837 0.29106
 O62 O 0.72843 0.72668 0.32161
 O63 O 0.78149 0.77593 0.31040
 O64 O 0.78177 0.72209 0.31166
 O65 O 0.69210 0.79903 0.28262
 O66 O 0.80250 0.69154 0.28196
 O67 O 0.72232 0.77641 0.31235
 O68 O 0.80924 0.79716 0.27854
 O69 O 0.79038 0.74534 0.26844
 O70 O 0.75061 0.78572 0.26830
 O71 O 0.74582 0.70895 0.27109
 O72 O 0.70785 0.74780 0.27153
 Zr73 Zr 0.74337 0.74289 0.20306
 Zr74 Zr 0.78444 0.70718 0.24701
 Zr75 Zr 0.70957 0.78422 0.24732
 Zr76 Zr 0.78899 0.78180 0.24468
 O77 O 0.66046 0.78291 0.24651
 O78 O 0.83719 0.77269 0.24276
 O79 O 0.74808 0.78268 0.22291
 O80 O 0.78574 0.74374 0.22303
 O81 O 0.74326 0.70524 0.22561
 O82 O 0.70405 0.74620 0.22607
 C83 C 0.80274 0.79321 0.30214
 C84 C 0.70024 0.79379 0.30584
 C85 C 0.79906 0.70057 0.30502
 O86 O 0.83348 0.70876 0.24527
 O87 O 0.79956 0.68964 0.21203
 O88 O 0.76909 0.71199 0.18223
 C89 C 0.79073 0.69417 0.18890
 O90 O 0.68595 0.69601 0.28489
 Zr91 Zr 0.70497 0.70967 0.24955
 O92 O 0.71105 0.71667 0.18378
 O93 O 0.77803 0.66146 0.24858
 O94 O 0.71020 0.66372 0.25127
 O95 O 0.65637 0.71710 0.24990
 O96 O 0.68644 0.69246 0.21575
 C97 C 0.69098 0.69822 0.19213
 O98 O 0.76773 0.76198 0.17228
 O99 O 0.71522 0.83008 0.24831
 O100 O 0.71624 0.77272 0.18217
 O101 O 0.69551 0.80266 0.21230
 O102 O 0.78548 0.82794 0.24451
 O103 O 0.80489 0.79874 0.20938
 C104 C 0.70023 0.79509 0.18900
 H105 H 0.75142 0.80405 0.27822
 H106 H 0.80365 0.74311 0.21129
 H107 H 0.68447 0.74724 0.21620
 H108 H 0.74512 0.69207 0.28282
 H109 H 0.84844 0.79116 0.24616
 H110 H 0.84087 0.68832 0.24604
 H111 H 0.79899 0.65263 0.24784
 H112 H 0.68954 0.65492 0.24796
 H113 H 0.80658 0.83593 0.24748
 H114 H 0.69411 0.83859 0.24913
 H115 H 0.65329 0.80343 0.24592
 H116 H 0.64597 0.69808 0.24703
 H117 H 0.82345 0.81107 0.21232
 H118 H 0.75832 0.75446 0.15631
 H119 H 0.73735 0.73449 0.33766
 H120 H 0.67118 0.67977 0.28197
 Zr121 Zr 0.75571 0.24824 -0.29318
 O122 O 0.73302 0.27028 -0.32338
 O123 O 0.78754 0.22212 -0.31266
 O124 O 0.78630 0.27569 -0.31304
 O125 O 0.69684 0.19754 -0.28652
 O126 O 0.80765 0.30465 -0.28232
 O127 O 0.72850 0.21984 -0.31535
 O128 O 0.81467 0.19959 -0.28103
 O129 O 0.79528 0.25054 -0.27013
 O130 O 0.75549 0.21029 -0.27124
 O131 O 0.75066 0.28694 -0.27227
 O132 O 0.71275 0.24845 -0.27403
 Zr133 Zr 0.74840 0.25060 -0.20457
 Zr134 Zr 0.78916 0.28795 -0.24798
 Zr135 Zr 0.71428 0.21143 -0.25074
 Zr136 Zr 0.79372 0.21341 -0.24712
 O137 O 0.66517 0.21320 -0.25082
 O138 O 0.84194 0.22227 -0.24413
 O139 O 0.75264 0.21171 -0.22581
 O140 O 0.79067 0.25080 -0.22462
 O141 O 0.74827 0.28881 -0.22658
 O142 O 0.70903 0.24847 -0.22806
 C143 C 0.80891 0.20486 -0.30458
 C144 C 0.70605 0.20259 -0.30945
 C145 C 0.80383 0.29683 -0.30569
 O146 O 0.83809 0.28628 -0.24484
 O147 O 0.80174 0.30629 -0.21285
 O148 O 0.77579 0.28003 -0.18268
 C149 C 0.79477 0.30039 -0.18960
 O150 O 0.68993 0.29983 -0.28563
 Zr151 Zr 0.70996 0.28557 -0.25078
 O152 O 0.71781 0.27795 -0.18486
 O153 O 0.78314 0.33372 -0.24965
 O154 O 0.71523 0.33154 -0.25252
 O155 O 0.66136 0.27802 -0.25020
 O156 O 0.69350 0.30313 -0.21654
 C157 C 0.69902 0.29769 -0.19297
 O158 O 0.77208 0.22971 -0.17425
 O159 O 0.71955 0.16558 -0.25232
 O160 O 0.72030 0.21986 -0.18477
 O161 O 0.69872 0.19280 -0.21670
 O162 O 0.79024 0.16728 -0.24853
 O163 O 0.80880 0.19525 -0.21199
 C164 C 0.70299 0.19880 -0.19303
 H165 H 0.75648 0.19226 -0.28155
 H166 H 0.80867 0.25135 -0.21287
 H167 H 0.68950 0.24750 -0.21822
 H168 H 0.74996 0.30418 -0.28361
 H169 H 0.85313 0.20384 -0.24766
 H170 H 0.84552 0.30674 -0.24517
 H171 H 0.80407 0.34261 -0.24826
 H172 H 0.69469 0.34035 -0.24895
 H173 H 0.81143 0.15950 -0.25122
 H174 H 0.69839 0.15720 -0.25370
 H175 H 0.65764 0.19276 -0.25097
 H176 H 0.65117 0.29689 -0.24646
 H177 H 0.82729 0.18290 -0.21490
 H178 H 0.76283 0.23684 -0.15815
 H179 H 0.74208 0.26310 -0.33954
 H180 H 0.67450 0.31531 -0.28221
 Zr181 Zr 0.25000 0.75472 -0.29636
 O182 O 0.27280 0.73467 -0.32742
 O183 O 0.21742 0.78098 -0.31523
 O184 O 0.22011 0.72766 -0.31754
 O185 O 0.30869 0.80475 -0.28654
 O186 O 0.19943 0.69665 -0.28813
 O187 O 0.27841 0.78372 -0.31693
 O188 O 0.18981 0.80152 -0.28316
 O189 O 0.21038 0.75034 -0.27384
 O190 O 0.24909 0.79158 -0.27310
 O191 O 0.25583 0.71507 -0.27689
 O192 O 0.29254 0.75435 -0.27643
 Zr193 Zr 0.25634 0.74741 -0.20751
 Zr194 Zr 0.21725 0.71193 -0.25306
 Zr195 Zr 0.28981 0.79000 -0.25172
 Zr196 Zr 0.21077 0.78632 -0.24951
 O197 O 0.33897 0.79007 -0.25045
 O198 O 0.16268 0.77653 -0.24763
 O199 O 0.25132 0.78739 -0.22730
 O200 O 0.21450 0.74780 -0.22841
 O201 O 0.25784 0.71043 -0.23104
 O202 O 0.29575 0.75190 -0.23056
 C203 C 0.19529 0.79726 -0.30693
 C204 C 0.30129 0.80015 -0.31004
 C205 C 0.20306 0.70581 -0.31111
 O206 O 0.16824 0.71234 -0.25060
 O207 O 0.20438 0.69154 -0.21899
 O208 O 0.22794 0.71709 -0.18728
 C209 C 0.20930 0.69682 -0.19524
 O210 O 0.31608 0.70276 -0.28985
 Zr211 Zr 0.29619 0.71612 -0.25480
 O212 O 0.28778 0.71943 -0.18879
 O213 O 0.22446 0.66644 -0.25649
 O214 O 0.29171 0.67010 -0.25678
 O215 O 0.34442 0.72561 -0.25515
 O216 O 0.31528 0.69908 -0.22134
 C217 C 0.30903 0.70260 -0.19771
 O218 O 0.23254 0.76593 -0.17625
 O219 O 0.28300 0.83570 -0.25218
 O220 O 0.28352 0.77772 -0.18622
 O221 O 0.30430 0.80725 -0.21677
 O222 O 0.21386 0.83249 -0.24897
 O223 O 0.19444 0.80227 -0.21405
 C224 C 0.30026 0.79966 -0.19344
 H225 H 0.24799 0.80998 -0.28293
 H226 H 0.19624 0.74634 -0.21709
 H227 H 0.31525 0.75303 -0.22057
 H228 H 0.25704 0.69842 -0.28883
 H229 H 0.15117 0.79494 -0.25055
 H230 H 0.16131 0.69176 -0.25179
 H231 H 0.20375 0.65701 -0.25566
 H232 H 0.31243 0.66157 -0.25332
 H233 H 0.19271 0.84026 -0.25203
 H234 H 0.30389 0.84470 -0.25322
 H235 H 0.34570 0.81075 -0.24997
 H236 H 0.35570 0.70711 -0.25204
 H237 H 0.17621 0.81500 -0.21694
 H238 H 0.24204 0.75793 -0.16049
 H239 H 0.26366 0.74273 -0.34329
 H240 H 0.33146 0.68714 -0.28665
 Zr241 Zr 1.25246 1.25288 0.79133
 O242 O 1.23177 1.23328 0.82363
 O243 O 1.28465 1.28169 0.80835
 O244 O 1.28342 1.22608 0.81240
 O245 O 1.19034 1.30008 0.78255
 O246 O 1.30723 1.19933 0.78163
 O247 O 1.22439 1.28186 0.81193
 O248 O 1.30680 1.30468 0.77439
 O249 O 1.29107 1.25071 0.76738
 O250 O 1.24929 1.28895 0.76699
 O251 O 1.24801 1.21265 0.77247
 O252 O 1.20879 1.24959 0.77283
 Zr253 Zr 1.24163 1.24329 0.70315
 Zr254 Zr 1.28557 1.21156 0.74743
 Zr255 Zr 1.20743 1.28477 0.74726
 Zr256 Zr 1.28662 1.28579 0.74218
 O257 O 1.15848 1.28089 0.74738
 O258 O 1.33518 1.27877 0.73975
 O259 O 1.24490 1.28393 0.72174
 O260 O 1.28458 1.24668 0.72198
 O261 O 1.24397 1.20699 0.72722
 O262 O 1.20287 1.24579 0.72699
 C263 C 1.30323 1.30048 0.79832
 C264 C 1.20073 1.29736 0.80549
 C265 C 1.30289 1.20649 0.80500
 O266 O 1.33415 1.21487 0.74224
 O267 O 1.29731 1.19062 0.71342
 O268 O 1.26924 1.21347 0.68242
 C269 C 1.28924 1.19448 0.69009
 O270 O 1.18831 1.19856 0.78797
 Zr271 Zr 1.20635 1.21063 0.75187
 O272 O 1.21178 1.21315 0.68580
 O273 O 1.28197 1.16589 0.75265
 O274 O 1.21346 1.16515 0.75645
 O275 O 1.15752 1.21653 0.75179
 O276 O 1.18950 1.18925 0.71910
 C277 C 1.19433 1.19309 0.69518
 O278 O 1.26315 1.26239 0.67099
 O279 O 1.21028 1.33088 0.74724
 O280 O 1.21206 1.27113 0.68225
 O281 O 1.19199 1.30186 0.71209
 O282 O 1.28017 1.33158 0.73980
 O283 O 1.30056 1.30125 0.70583
 C284 C 1.19604 1.29360 0.68888
 H285 H 1.24969 1.30779 0.77616
 H286 H 1.30212 1.24593 0.70988
 H287 H 1.18310 1.24530 0.71733
 H288 H 1.24857 1.19617 0.78464
 H289 H 1.34556 1.29793 0.74189
 H290 H 1.34261 1.19486 0.74376
 H291 H 1.30320 1.15780 0.75101
 H292 H 1.19313 1.15535 0.75406
 H293 H 1.30083 1.34093 0.74155
 H294 H 1.18872 1.33831 0.74813
 H295 H 1.15012 1.30097 0.74628
 H296 H 1.14791 1.19708 0.74929
 H297 H 1.31861 1.31447 0.70779
 H298 H 1.25358 1.25361 0.65558
 H299 H 1.24122 1.24231 0.83898
 H300 H 1.17298 1.18262 0.78581
 Zr301 Zr 0.74534 0.74681 0.79886
 O302 O 0.76700 0.76430 0.83173
 O303 O 0.71037 0.72109 0.81531
 O304 O 0.71647 0.77595 0.81964
 O305 O 0.80021 0.69278 0.78877
 O306 O 0.69627 0.80544 0.78879
 O307 O 0.77240 0.71615 0.81956
 O308 O 0.68395 0.70269 0.78124
 O309 O 0.70739 0.75316 0.77440
 O310 O 0.74432 0.71090 0.77412
 O311 O 0.75362 0.78684 0.78047
 O312 O 0.78892 0.74574 0.78048
 Zr313 Zr 0.75814 0.75722 0.71096
 Zr314 Zr 0.71675 0.79188 0.75465
 Zr315 Zr 0.78619 0.71125 0.75412
 Zr316 Zr 0.70776 0.71813 0.74904
 O317 O 0.83525 0.70939 0.75573
 O318 O 0.66045 0.73010 0.74501
 O319 O 0.74945 0.71649 0.72839
 O320 O 0.71467 0.75705 0.72906
 O321 O 0.75919 0.79310 0.73545
 O322 O 0.79570 0.75028 0.73538
 C323 C 0.68826 0.70601 0.80529
 C324 C 0.79272 0.69732 0.81212
 C325 C 0.69903 0.79723 0.81210
 O326 O 0.66792 0.79309 0.75009
 O327 O 0.70472 0.81251 0.72006
 O328 O 0.73519 0.79024 0.69044
 C329 C 0.71444 0.80883 0.69714
 O330 O 0.81316 0.79447 0.79777
 Zr331 Zr 0.79564 0.78499 0.76084
 O332 O 0.79168 0.78488 0.69481
 O333 O 0.72567 0.83696 0.75914
 O334 O 0.79360 0.83095 0.76514
 O335 O 0.84355 0.77450 0.76261
 O336 O 0.81702 0.80398 0.72912
 C337 C 0.81223 0.80159 0.70510
 O338 O 0.73513 0.74067 0.67832
 O339 O 0.77709 0.66592 0.75220
 O340 O 0.78635 0.72879 0.68984
 O341 O 0.80156 0.69441 0.71870
 O342 O 0.70918 0.67191 0.74753
 O343 O 0.69256 0.70358 0.71268
 C344 C 0.80020 0.70491 0.69592
 H345 H 0.74166 0.69218 0.78326
 H346 H 0.69755 0.75933 0.71662
 H347 H 0.81579 0.74906 0.72634
 H348 H 0.75458 0.80316 0.79277
 H349 H 0.64777 0.71221 0.74720
 H350 H 0.66155 0.81379 0.75153
 H351 H 0.70535 0.84696 0.75780
 H352 H 0.81507 0.83857 0.76368
 H353 H 0.68764 0.66467 0.74967
 H354 H 0.79743 0.65592 0.75327
 H355 H 0.84102 0.68856 0.75410
 H356 H 0.85534 0.79303 0.76146
 H357 H 0.67376 0.69133 0.71463
 H358 H 0.74567 0.74888 0.66315
 H359 H 0.75644 0.75581 0.84678
 H360 H 0.82944 0.80967 0.79654
 Zr361 Zr 1.26317 0.74421 0.20841
 O362 O 1.24136 0.76362 0.17644
 O363 O 1.29568 0.71666 0.19098
 O364 O 1.29364 0.77152 0.18803
 O365 O 1.20478 0.69308 0.21635
 O366 O 1.31195 0.80366 0.21766
 O367 O 1.23702 0.71411 0.18714
 O368 O 1.32265 0.69765 0.22446
 O369 O 1.30178 0.74915 0.23225
 O370 O 1.26290 0.70775 0.23228
 O371 O 1.25620 0.78410 0.22724
 O372 O 1.21948 0.74444 0.22656
 Zr373 Zr 1.25180 0.75250 0.29596
 Zr374 Zr 1.29378 0.78785 0.25245
 Zr375 Zr 1.22088 0.70894 0.25182
 Zr376 Zr 1.30015 0.71350 0.25701
 O377 O 1.17175 0.70894 0.25110
 O378 O 1.34796 0.72390 0.26064
 O379 O 1.25832 0.71220 0.27740
 O380 O 1.29499 0.75217 0.27744
 O381 O 1.25171 0.78938 0.27247
 O382 O 1.21351 0.74749 0.27186
 C383 C 1.31704 0.70038 0.20057
 C384 C 1.21457 0.69707 0.19345
 C385 C 1.30939 0.79421 0.19463
 O386 O 1.34278 0.78744 0.25521
 O387 O 1.30734 0.80661 0.28750
 O388 O 1.27596 0.78459 0.31676
 C389 C 1.29760 0.80256 0.31041
 O390 O 1.19648 0.79510 0.21123
 Zr391 Zr 1.21452 0.78318 0.24746
 O392 O 1.21827 0.77873 0.31347
 O393 O 1.28633 0.83337 0.25010
 O394 O 1.21875 0.82916 0.24452
 O395 O 1.16621 0.77430 0.24582
 O396 O 1.19433 0.80135 0.28020
 C397 C 1.19821 0.79653 0.30409
 O398 O 1.27517 0.73500 0.32804
 O399 O 1.22772 0.66323 0.25202
 O400 O 1.22433 0.72288 0.31674
 O401 O 1.20552 0.69139 0.28684
 O402 O 1.29789 0.66729 0.25809
 O403 O 1.31456 0.69816 0.29334
 C404 C 1.20893 0.69999 0.31006
 H405 H 1.26467 0.68909 0.22293
 H406 H 1.31238 0.75360 0.28973
 H407 H 1.19357 0.74635 0.28113
 H408 H 1.25534 0.80058 0.21509
 H409 H 1.35983 0.70561 0.25826
 H410 H 1.34969 0.80804 0.25437
 H411 H 1.30703 0.84275 0.25123
 H412 H 1.19779 0.83759 0.24695
 H413 H 1.31936 0.65982 0.25633
 H414 H 1.20688 0.65418 0.25072
 H415 H 1.16507 0.68827 0.25195
 H416 H 1.15517 0.79309 0.24800
 H417 H 1.33353 0.68618 0.29149
 H418 H 1.26494 0.74287 0.34347
 H419 H 1.25130 0.75552 0.16097
 H420 H 1.18109 0.81095 0.21329
 Zr421 Zr 0.74322 1.25997 0.20679
 O422 O 0.76501 1.23932 0.17555
 O423 O 0.71312 1.28889 0.18807
 O424 O 0.71216 1.23387 0.18553
 O425 O 0.80331 1.30919 0.21673
 O426 O 0.69104 1.20291 0.21482
 O427 O 0.77259 1.28816 0.18638
 O428 O 0.68610 1.31005 0.22031
 O429 O 0.70337 1.25680 0.22926
 O430 O 0.74414 1.29657 0.23047
 O431 O 0.74739 1.21994 0.22600
 O432 O 0.78597 1.25821 0.22652
 Zr433 Zr 0.75038 1.25151 0.29470
 Zr434 Zr 0.70866 1.21794 0.25000
 Zr435 Zr 0.78504 1.29386 0.25164
 Zr436 Zr 0.70554 1.29253 0.25385
 O437 O 0.83412 1.29196 0.25266
 O438 O 0.65718 1.28388 0.25498
 O439 O 0.74639 1.29205 0.27587
 O440 O 0.70805 1.25375 0.27473
 O441 O 0.74977 1.21465 0.27130
 O442 O 0.78981 1.25499 0.27187
 C443 C 0.69259 1.30669 0.19662
 C444 C 0.79520 1.30477 0.19337
 C445 C 0.69498 1.21200 0.19184
 O446 O 0.65967 1.22040 0.25149
 O447 O 0.69317 1.19938 0.28457
 O448 O 0.72414 1.22034 0.31478
 C449 C 0.70231 1.20287 0.30775
 O450 O 0.80713 1.20685 0.21186
 Zr451 Zr 0.78822 1.21931 0.24753
 O452 O 0.78174 1.22368 0.31340
 O453 O 0.71400 1.17215 0.24768
 O454 O 0.78209 1.17353 0.24446
 O455 O 0.83695 1.22607 0.24757
 O456 O 0.80614 1.20034 0.28090
 C457 C 0.80140 1.20512 0.30466
 O458 O 0.72646 1.27048 0.32569
 O459 O 0.78021 1.33980 0.25157
 O460 O 0.77910 1.27910 0.31637
 O461 O 0.79934 1.31091 0.28732
 O462 O 0.71026 1.33855 0.25559
 O463 O 0.68927 1.30833 0.28939
 C464 C 0.79539 1.30159 0.31027
 H465 H 0.74384 1.31523 0.22099
 H466 H 0.69012 1.25295 0.28645
 H467 H 0.80941 1.25524 0.28176
 H468 H 0.74795 1.20338 0.21395
 H469 H 0.64626 1.30258 0.25191
 H470 H 0.65181 1.20011 0.25035
 H471 H 0.69285 1.16362 0.24827
 H472 H 0.80257 1.16431 0.24749
 H473 H 0.68942 1.34712 0.25273
 H474 H 0.80148 1.34804 0.25102
 H475 H 0.84163 1.31236 0.25380
 H476 H 0.84695 1.20680 0.24995
 H477 H 0.67093 1.32093 0.28657
 H478 H 0.73541 1.26219 0.34154
 H479 H 0.75619 1.24790 0.15976
 H480 H 0.82159 1.19032 0.21434
 O481 O 0.53977 1.05668 0.04653
 O482 O 0.57553 1.02841 0.02544
 C483 C 0.56800 1.04884 0.04150
 O484 O 0.45442 0.95011 0.04625
 O485 O 0.41945 0.97776 0.02352
 C486 C 0.42640 0.95751 0.04000
 O487 O 0.54006 0.95434 0.05081
 O488 O 0.57569 0.97956 0.02673
 C489 C 0.56822 0.96162 0.04490
 O490 O 0.45401 1.05824 0.04347
 O491 O 0.41931 1.02945 0.02154
 C492 C 0.42606 1.05035 0.03734
 Zr493 Zr 0.49716 1.04044 0.03277
 O494 O 0.49611 1.03626 0.07280
 O495 O 0.49686 1.08651 0.03516
 Zr496 Zr 0.49736 0.96763 0.03490
 O497 O 0.49495 0.97297 0.07479
 O498 O 0.50023 0.92167 0.03779
 O499 O 0.52521 1.00436 0.03919
 O500 O 0.46957 1.00415 0.03799
 O501 O 0.45643 1.05387 -0.04532
 O502 O 0.42031 1.02782 -0.02258
 C503 C 0.42809 1.04692 -0.03983
 O504 O 0.54127 0.95133 -0.04336
 O505 O 0.57644 0.97668 -0.01897
 C506 C 0.56939 0.95820 -0.03694
 O507 O 0.45576 0.94828 -0.04175
 O508 O 0.41988 0.97582 -0.02017
 C509 C 0.42747 0.95572 -0.03650
 O510 O 0.54198 1.05117 -0.04574
 O511 O 0.57677 1.02725 -0.01996
 C512 C 0.56999 1.04461 -0.03875
 Zr513 Zr 0.49872 1.03816 -0.03102
 O514 O 0.49625 1.03742 -0.07127
 O515 O 0.50171 1.08428 -0.03130
 Zr516 Zr 0.49845 0.96478 -0.02854
 O517 O 0.49634 0.95970 -0.06850
 O518 O 0.49982 0.91911 -0.02316
 Zr519 Zr 0.54504 1.00289 0.00255
 Zr520 Zr 0.45075 1.00285 0.00102
 O521 O 0.47161 1.00127 -0.03510
 O522 O 0.52645 1.00128 -0.03458
 O523 O 0.47003 1.04518 0.00015
 O524 O 0.52544 0.96085 0.00371
 O525 O 0.52524 1.04480 0.00110
 O526 O 0.46982 0.96052 0.00284
 H527 H 0.45527 1.00464 0.05272
 H528 H 0.53947 0.94375 0.00444
 H529 H 0.45841 1.00058 -0.05056
 H530 H 0.53923 1.06196 0.00056
 H531 H 0.48763 0.91345 0.02374
 H532 H 0.50031 0.91042 -0.04040
 H533 H 0.50775 0.97629 -0.07601
 H534 H 0.51313 1.02472 -0.07750
 H535 H 0.48384 1.09187 -0.02154
 H536 H 0.50557 1.09409 0.01910
 H537 H 0.49490 1.05638 0.07959
 H538 H 0.49445 0.95304 0.08210
 O539 O 1.04271 0.55727 0.54325
 O540 O 1.07698 0.52812 0.52151
 C541 C 1.07054 0.54889 0.53752
 O542 O 0.95618 0.45147 0.54785
 O543 O 0.92051 0.47899 0.52578
 C544 C 0.92799 0.45899 0.54229
 O545 O 1.04189 0.45491 0.54969
 O546 O 1.07661 0.47923 0.52406
 C547 C 1.06982 0.46168 0.54274
 O548 O 0.95706 0.56035 0.54228
 O549 O 0.92090 0.53062 0.52313
 C550 C 0.92868 0.55232 0.53786
 Zr551 Zr 0.99930 0.54132 0.53109
 O552 O 0.99984 0.53854 0.57122
 O553 O 0.99956 0.58748 0.53237
 Zr554 Zr 0.99874 0.46845 0.53498
 O555 O 0.99829 0.47512 0.57476
 O556 O 1.00110 0.42258 0.53892
 O557 O 1.02714 0.50507 0.53753
 O558 O 0.97161 0.50540 0.53815
 O559 O 0.95463 0.55399 0.45535
 O560 O 0.91969 0.52738 0.47888
 C561 C 0.92664 0.54694 0.46185
 O562 O 1.03928 0.44821 0.45701
 O563 O 1.07532 0.47639 0.47800
 C564 C 1.06758 0.45612 0.46186
 O565 O 0.95360 0.44597 0.46119
 O566 O 0.91915 0.47617 0.48154
 C567 C 0.92569 0.45431 0.46667
 O568 O 1.04027 0.54936 0.45092
 O569 O 1.07580 0.52477 0.47563
 C570 C 1.06841 0.54206 0.45694
 Zr571 Zr 0.99759 0.53714 0.46744
 O572 O 0.99262 0.53459 0.42742
 O573 O 1.00140 0.58315 0.46556
 Zr574 Zr 0.99686 0.46377 0.47149
 O575 O 0.99245 0.46000 0.43150
 O576 O 0.99815 0.41802 0.47651
 Zr577 Zr 1.04504 0.50235 0.50033
 Zr578 Zr 0.95100 0.50306 0.50189
 O579 O 0.96994 0.50033 0.46511
 O580 O 1.02476 0.49985 0.46384
 O581 O 0.97059 0.54520 0.49939
 O582 O 1.02518 0.46056 0.50305
 O583 O 1.02585 0.54443 0.49847
 O584 O 0.96977 0.46067 0.50395
 H585 H 0.95797 0.50647 0.55327
 H586 H 1.03900 0.44331 0.50379
 H587 H 0.95575 0.49936 0.45026
 H588 H 1.04017 0.56128 0.49704
 H589 H 0.98942 0.41412 0.52446
 H590 H 0.99761 0.40937 0.45924
 H591 H 1.00896 0.47207 0.42376
 H592 H 1.00894 0.52136 0.42103
 H593 H 0.98569 0.59139 0.47721
 H594 H 1.00983 0.59453 0.51675
 H595 H 0.99917 0.55890 0.57749
 H596 H 0.99779 0.45544 0.58256
 O597 O 0.94883 0.46151 -0.04306
 O598 O 0.97674 0.42773 -0.02024
 C599 C 0.95639 0.43487 -0.03759
 O600 O 1.06126 0.53998 -0.04514
 O601 O 1.03494 0.57382 -0.02121
 C602 C 1.05483 0.56662 -0.03877
 O603 O 1.05674 0.45934 -0.04658
 O604 O 1.02861 0.42705 -0.02223
 C605 C 1.04819 0.43319 -0.04026
 O606 O 0.94788 0.54194 -0.04112
 O607 O 0.97901 0.57484 -0.02007
 C608 C 0.95684 0.56828 -0.03598
 Zr609 Zr 0.96556 0.50153 -0.02924
 O610 O 0.96839 0.50173 -0.06939
 O611 O 0.91641 0.50338 -0.03015
 Zr612 Zr 1.04298 0.50010 -0.03199
 O613 O 1.03648 0.50078 -0.07186
 O614 O 1.09185 0.49719 -0.03500
 O615 O 1.00337 0.47449 -0.03534
 O616 O 1.00460 0.52667 -0.03536
 O617 O 0.95132 0.54251 0.04629
 O618 O 0.98077 0.57502 0.02328
 C619 C 0.95943 0.56874 0.03990
 O620 O 1.06270 0.46005 0.04554
 O621 O 1.03238 0.42737 0.02346
 C622 C 1.05396 0.43377 0.03996
 O623 O 1.06662 0.54063 0.04273
 O624 O 1.03572 0.57403 0.02218
 C625 C 1.05845 0.56714 0.03737
 O626 O 0.95434 0.46190 0.05055
 O627 O 0.97999 0.42825 0.02598
 C628 C 0.96160 0.43539 0.04451
 Zr629 Zr 0.96880 0.50184 0.03454
 O630 O 0.97108 0.50590 0.07462
 O631 O 0.91974 0.49947 0.03578
 Zr632 Zr 1.04693 0.50053 0.03162
 O633 O 1.05013 0.50357 0.07174
 O634 O 1.09567 0.49842 0.02729
 Zr635 Zr 1.00489 0.45682 0.00168
 Zr636 Zr 1.00697 0.54519 0.00115
 O637 O 1.00864 0.52674 0.03778
 O638 O 1.00765 0.47512 0.03841
 O639 O 0.96161 0.52793 0.00268
 O640 O 1.04997 0.47447 -0.00022
 O641 O 0.96072 0.47603 0.00304
 O642 O 1.05158 0.52648 -0.00052
 H643 H 1.00421 0.53969 -0.05042
 H644 H 1.06807 0.46118 -0.00096
 H645 H 1.00960 0.53990 0.05272
 H646 H 0.94256 0.46280 0.00393
 H647 H 1.10071 0.50864 -0.02077
 H648 H 1.10461 0.49863 0.04469
 H649 H 1.03732 0.48772 0.07900
 H650 H 0.98477 0.49022 0.08104
 H651 H 0.91168 0.51289 0.02256
 H652 H 0.90828 0.48900 -0.01782
 H653 H 0.94674 0.50299 -0.07575
 H654 H 1.05754 0.50080 -0.07940
 O655 O 0.56386 1.04375 0.53914
 O656 O 0.52865 1.07433 0.51984
 C657 C 0.55271 1.06942 0.53427
 O658 O 0.55090 0.96076 0.44895
 O659 O 0.53086 0.92680 0.47666
 C660 C 0.54599 0.93414 0.45626
 O661 O 0.55211 1.04160 0.45202
 O662 O 0.52275 1.07330 0.47580
 C663 C 0.54314 1.06759 0.45828
 O664 O 0.56702 0.96312 0.54253
 O665 O 0.53721 0.92807 0.52291
 C666 C 0.55923 0.93623 0.53833
 Zr667 Zr 0.54724 1.00214 0.52882
 O668 O 0.59584 1.00235 0.52284
 O669 O 0.55354 1.00587 0.56865
 Zr670 Zr 0.53803 1.00062 0.46591
 O671 O 0.58706 1.00111 0.46438
 O672 O 0.53404 1.00290 0.42584
 O673 O 0.54662 1.02817 0.49650
 O674 O 0.54995 0.97574 0.49709
 O675 O 0.46204 0.95693 0.55416
 O676 O 0.48619 0.92472 0.52720
 C677 C 0.46982 0.93083 0.54726
 O678 O 0.43830 1.03465 0.46248
 O679 O 0.46822 1.07019 0.48101
 C680 C 0.44491 1.06173 0.46696
 O681 O 0.44607 0.95458 0.46061
 O682 O 0.47989 0.92386 0.48132
 C683 C 0.45690 0.92892 0.46582
 O684 O 0.45186 1.03686 0.55019
 O685 O 0.47470 1.07125 0.52455
 C686 C 0.45664 1.06360 0.54319
 Zr687 Zr 0.46950 0.99738 0.53622
 O688 O 0.42068 0.99273 0.53648
 O689 O 0.47009 0.99955 0.57638
 Zr690 Zr 0.46062 0.99591 0.47319
 O691 O 0.41204 0.99046 0.47709
 O692 O 0.45769 0.99642 0.43304
 Zr693 Zr 0.50061 1.04317 0.50059
 Zr694 Zr 0.50673 0.95502 0.50168
 O695 O 0.46111 0.97046 0.50564
 O696 O 0.45713 1.02260 0.50502
 O697 O 0.51091 0.97410 0.53803
 O698 O 0.49687 1.02374 0.46448
 O699 O 0.50729 1.02520 0.53707
 O700 O 0.50028 0.97222 0.46488
 H701 H 0.56865 0.96333 0.49536
 H702 H 0.49396 1.03637 0.44936
 H703 H 0.44411 0.95605 0.50764
 H704 H 0.50861 1.03832 0.55199
 H705 H 0.51509 0.99190 0.42114
 H706 H 0.43529 0.99528 0.42876
 H707 H 0.40512 1.00390 0.49065
 H708 H 0.41459 0.99200 0.55462
 H709 H 0.49194 1.00246 0.58152
 H710 H 0.54228 0.98950 0.57675
 H711 H 0.60048 1.01800 0.51043
 H712 H 0.59254 1.00078 0.44609
 O713 O 1.03846 0.93344 0.53159
 O714 O 1.01636 0.96442 0.56056
 C715 C 1.03263 0.94156 0.55470
 O716 O 1.06212 1.03895 0.46437
 O717 O 1.02949 1.01859 0.43473
 C718 C 1.05292 1.03484 0.44113
 O719 O 1.06329 1.03224 0.53491
 O720 O 1.02748 1.01243 0.56218
 C721 C 1.05298 1.02661 0.55756
 O722 O 1.03555 0.93339 0.46110
 O723 O 1.01752 0.96776 0.43302
 C724 C 1.03110 0.94321 0.43824
 Zr725 Zr 1.02638 0.95247 0.49663
 O726 O 1.07516 0.94752 0.49638
 O727 O 1.02036 0.90668 0.49625
 Zr728 Zr 1.04402 1.02329 0.49887
 O729 O 1.09065 1.00904 0.49812
 O730 O 1.05763 1.06747 0.50226
 O731 O 1.04048 0.98580 0.52077
 O732 O 1.04126 0.98746 0.47519
 O733 O 0.93270 0.95697 0.45991
 O734 O 0.96717 0.97841 0.43250
 C735 C 0.94288 0.96261 0.43728
 O736 O 0.95275 1.05563 0.53287
 O737 O 0.97434 1.02350 0.56128
 C738 C 0.95750 1.04610 0.55573
 O739 O 0.95879 1.06071 0.46267
 O740 O 0.97894 1.02857 0.43373
 C741 C 0.96439 1.05243 0.43958
 O742 O 0.92856 0.95848 0.53043
 O743 O 0.96324 0.97591 0.55999
 C744 C 0.93771 0.96269 0.55363
 Zr745 Zr 0.95011 0.96892 0.49575
 O746 O 0.90242 0.97941 0.49208
 O747 O 0.93892 0.92394 0.49721
 Zr748 Zr 0.96818 1.04023 0.49762
 O749 O 0.92103 1.05268 0.49426
 O750 O 0.98250 1.08424 0.50037
 Zr751 Zr 0.99603 0.99492 0.53536
 Zr752 Zr 0.99786 0.99742 0.45903
 O753 O 0.95393 1.00650 0.47441
 O754 O 0.95248 1.00519 0.51928
 O755 O 0.98729 0.95565 0.47346
 O756 O 1.00674 1.03638 0.52067
 O757 O 0.98636 0.95452 0.51818
 O758 O 1.00798 1.03811 0.47574
 H759 H 1.05905 0.98413 0.46364
 H760 H 1.01046 1.05280 0.53256
 H761 H 0.93634 1.01077 0.46279
 H762 H 0.98184 0.93745 0.52915
 H763 H 1.04129 1.07920 0.49385
 H764 H 0.96325 1.09606 0.50042
 H765 H 0.90895 1.04012 0.50590
 H766 H 0.89682 0.99219 0.50650
 H767 H 0.95015 0.91423 0.48318
 H768 H 0.99809 0.90291 0.49925
 H769 H 1.07903 0.92628 0.49509
 H770 H 1.10355 1.02695 0.49849
 O771 O 0.56036 0.46631 0.03598
 O772 O 0.52268 0.48420 0.06244
 C773 C 0.54901 0.47124 0.05839
 O774 O 0.52853 0.56352 -0.03883
 O775 O 0.51332 0.52814 -0.06709
 C776 C 0.52520 0.55348 -0.06173
 O777 O 0.52914 0.56383 0.03178
 O778 O 0.50817 0.53153 0.06034
 C779 C 0.52315 0.55526 0.05477
 O780 O 0.56221 0.46020 -0.03444
 O781 O 0.52922 0.47847 -0.06483
 C782 C 0.55365 0.46394 -0.05789
 Zr783 Zr 0.54194 0.47479 -0.00039
 O784 O 0.58668 0.49378 0.00028
 O785 O 0.56121 0.43242 0.00167
 Zr786 Zr 0.51889 0.54426 -0.00340
 O787 O 0.56680 0.55432 -0.00300
 O788 O 0.50643 0.58888 -0.00304
 O789 O 0.53488 0.51201 0.02119
 O790 O 0.53714 0.51026 -0.02426
 O791 O 0.46219 0.43067 -0.03776
 O792 O 0.47996 0.46432 -0.06663
 C793 C 0.46805 0.43919 -0.06072
 O794 O 0.42094 0.53191 0.02839
 O795 O 0.45599 0.51687 0.05862
 C796 C 0.43003 0.52891 0.05178
 O797 O 0.42616 0.53183 -0.04199
 O798 O 0.46375 0.51377 -0.06856
 C799 C 0.43765 0.52695 -0.06429
 O800 O 0.45011 0.43722 0.03168
 O801 O 0.46961 0.47032 0.06039
 C802 C 0.45329 0.44755 0.05442
 Zr803 Zr 0.46747 0.45264 -0.00300
 O804 O 0.42112 0.43823 -0.00788
 O805 O 0.48224 0.40902 0.00230
 Zr806 Zr 0.44433 0.52260 -0.00579
 O807 O 0.39655 0.51147 -0.00625
 O808 O 0.43392 0.56760 -0.00712
 Zr809 Zr 0.49084 0.49981 0.03498
 Zr810 Zr 0.49519 0.49714 -0.04130
 O811 O 0.45161 0.48510 -0.02685
 O812 O 0.44871 0.48676 0.01792
 O813 O 0.50783 0.45737 -0.02400
 O814 O 0.47865 0.53942 0.01743
 O815 O 0.50493 0.45913 0.02077
 O816 O 0.48101 0.53814 -0.02751
 H817 H 0.55502 0.51482 -0.03541
 H818 H 0.47274 0.55634 0.02808
 H819 H 0.43522 0.47918 -0.03906
 H820 H 0.50883 0.44316 0.03307
 H821 H 0.48742 0.59077 -0.01352
 H822 H 0.41096 0.56903 -0.00741
 H823 H 0.39345 0.49550 -0.01863
 H824 H 0.40775 0.45184 0.00172
 H825 H 0.49930 0.40542 -0.00987
 H826 H 0.54542 0.41955 0.00939
 H827 H 0.60151 0.47729 0.00044
 H828 H 0.56824 0.57588 -0.00385
 C829 C 0.33459 1.12882 0.17076
 C830 C 0.33433 1.13383 0.14422
 C831 C 0.32145 1.16048 0.13541
 C832 C 0.30859 1.18071 0.15270
 C833 C 0.30885 1.17513 0.17900
 C834 C 0.32213 1.14899 0.18764
 C835 C 0.32178 1.16687 0.10944
 C836 C 0.33549 1.14792 0.09208
 C837 C 0.34900 1.12130 0.09995
 C838 C 0.34721 1.11365 0.12633
 C839 C 0.35841 1.08606 0.13401
 C840 C 0.37300 1.06751 0.11705
 C841 C 0.37709 1.07554 0.09175
 C842 C 0.36469 1.10223 0.08254
 C843 C 0.36983 1.10910 0.05653
 C844 C 0.38800 1.09104 0.04105
 C845 C 0.40098 1.06544 0.05081
 C846 C 0.39475 1.05742 0.07589
 H847 H 0.34487 1.10978 0.17931
 H848 H 0.29862 1.20087 0.14565
 H849 H 0.32303 1.14389 0.20775
 H850 H 0.31179 1.18705 0.10246
 H851 H 0.33498 1.15471 0.07247
 H852 H 0.35621 1.07796 0.15314
 H853 H 0.38187 1.04686 0.12403
 H854 H 0.36137 1.12887 0.04789
 H855 H 0.39316 1.09779 0.02176
 H856 H 0.40533 1.03779 0.08353
 C857 C 0.84611 0.69076 0.63604
 C858 C 0.84472 0.66003 0.63340
 C859 C 0.82752 0.64418 0.65181
 C860 C 0.81401 0.65862 0.67276
 C861 C 0.81597 0.68906 0.67507
 C862 C 0.83176 0.70488 0.65636
 C863 C 0.82364 0.61410 0.64902
 C864 C 0.83635 0.59932 0.62838
 C865 C 0.85458 0.61391 0.61004
 C866 C 0.85960 0.64463 0.61308
 C867 C 0.88024 0.65877 0.59626
 C868 C 0.89583 0.64351 0.57744
 C869 C 0.89086 0.61373 0.57398
 C870 C 0.86924 0.59863 0.58945
 C871 C 0.86379 0.56875 0.58385
 C872 C 0.88119 0.55413 0.56528
 C873 C 0.90460 0.56870 0.55192
 C874 C 0.90847 0.59873 0.55575
 H875 H 0.85736 0.70467 0.62236
 H876 H 0.80111 0.64629 0.68683
 H877 H 0.83316 0.72845 0.65752
 H878 H 0.81041 0.60181 0.66290
 H879 H 0.83247 0.57610 0.62782
 H880 H 0.88606 0.68155 0.59787
 H881 H 0.91227 0.65517 0.56559
 H882 H 0.84654 0.55603 0.59372
 H883 H 0.87758 0.53100 0.56244
 H884 H 0.92631 0.61025 0.54520
 C885 C 0.67148 0.82035 0.12435
 C886 C 0.66231 0.84955 0.12902
 C887 C 0.66599 0.86033 0.15414
 C888 C 0.67777 0.84238 0.17360
 C889 C 0.68667 0.81355 0.16861
 C890 C 0.68353 0.80284 0.14378
 C891 C 0.65797 0.88902 0.15981
 C892 C 0.64581 0.90732 0.14126
 C893 C 0.64080 0.89757 0.11610
 C894 C 0.64938 0.86825 0.10981
 C895 C 0.64417 0.85845 0.08468
 C896 C 0.62990 0.87607 0.06662
 C897 C 0.62049 0.90429 0.07265
 C898 C 0.62653 0.91583 0.09723
 C899 C 0.61686 0.94486 0.10210
 C900 C 0.59986 0.96060 0.08408
 C901 C 0.59270 0.94837 0.06049
 C902 C 0.60375 0.92057 0.05454
 H903 H 0.66982 0.81028 0.10592
 H904 H 0.68048 0.85110 0.19265
 H905 H 0.69027 0.78068 0.13931
 H906 H 0.66097 0.89745 0.17893
 H907 H 0.64010 0.92900 0.14751
 H908 H 0.65024 0.83689 0.07836
 H909 H 0.62562 0.86725 0.04780
 H910 H 0.62101 0.95577 0.11991
 H911 H 0.59088 0.98188 0.08910
 H912 H 0.59765 0.91095 0.03634
 C913 C 1.16619 0.31770 0.62415
 C914 C 1.15872 0.34746 0.62816
 C915 C 1.16358 0.35889 0.65293
 C916 C 1.17477 0.34103 0.67270
 C917 C 1.18213 0.31167 0.66833
 C918 C 1.17783 0.30030 0.64385
 C919 C 1.15747 0.38817 0.65791
 C920 C 1.14629 0.40652 0.63897
 C921 C 1.14027 0.39623 0.61412
 C922 C 1.14653 0.36618 0.60862
 C923 C 1.13977 0.35573 0.58393
 C924 C 1.12630 0.37353 0.56558
 C925 C 1.11937 0.40260 0.57081
 C926 C 1.12710 0.41471 0.59486
 C927 C 1.12013 0.44460 0.59884
 C928 C 1.10381 0.46074 0.58064
 C929 C 1.09471 0.44802 0.55767
 C930 C 1.10332 0.41924 0.55251
 H931 H 1.16370 0.30716 0.60596
 H932 H 1.17849 0.35028 0.69144
 H933 H 1.18351 0.27775 0.63984
 H934 H 1.16133 0.39707 0.67676
 H935 H 1.14202 0.42869 0.64469
 H936 H 1.14385 0.33352 0.57827
 H937 H 1.12069 0.36423 0.54717
 H938 H 1.12589 0.45597 0.61613
 H939 H 1.09662 0.48276 0.58518
 H940 H 1.09566 0.40921 0.53489
 C941 C 0.64572 1.14325 -0.16855
 C942 C 0.65544 1.13818 -0.14326
 C943 C 0.67977 1.15580 -0.13342
 C944 C 0.69508 1.17628 -0.14923
 C945 C 0.68610 1.17969 -0.17481
 C946 C 0.66081 1.16341 -0.18388
 C947 C 0.68858 1.15272 -0.10794
 C948 C 0.67345 1.13295 -0.09195
 C949 C 0.64940 1.11467 -0.10105
 C950 C 0.64121 1.11663 -0.12742
 C951 C 0.61928 1.09668 -0.13730
 C952 C 0.60381 1.07724 -0.12172
 C953 C 0.60959 1.07662 -0.09569
 C954 C 0.63291 1.09467 -0.08484
 C955 C 0.63776 1.09244 -0.05814
 C956 C 0.61886 1.07444 -0.04298
 C957 C 0.59484 1.05816 -0.05401
 C958 C 0.59118 1.05861 -0.08041
 H959 H 0.62610 1.13239 -0.17709
 H960 H 0.71428 1.18904 -0.14179
 H961 H 0.65250 1.16610 -0.20321
 H962 H 0.70712 1.16605 -0.10015
 H963 H 0.68140 1.13222 -0.07251
 H964 H 0.61366 1.09527 -0.15723
 H965 H 0.58660 1.06286 -0.13015
 H966 H 0.65507 1.10519 -0.04830
 H967 H 0.62186 1.07455 -0.02251
 H968 H 0.57267 1.04585 -0.08901
 C969 C 1.17802 0.67747 0.37476
 C970 C 1.16751 0.64854 0.37060
 C971 C 1.17102 0.63690 0.34577
 C972 C 1.18408 0.65379 0.32611
 C973 C 1.19432 0.68240 0.33061
 C974 C 1.19121 0.69391 0.35516
 C975 C 1.16152 0.60843 0.34061
 C976 C 1.14809 0.59123 0.35936
 C977 C 1.14330 0.60187 0.38425
 C978 C 1.15341 0.63094 0.39004
 C979 C 1.14864 0.64158 0.41494
 C980 C 1.13350 0.62502 0.43326
 C981 C 1.12264 0.59708 0.42773
 C982 C 1.12794 0.58475 0.40336
 C983 C 1.11659 0.55611 0.39895
 C984 C 1.09905 0.54146 0.41729
 C985 C 1.09291 0.55436 0.44077
 C986 C 1.10532 0.58187 0.44617
 H987 H 1.17650 0.68817 0.39292
 H988 H 1.18660 0.64443 0.30729
 H989 H 1.19887 0.71593 0.35932
 H990 H 1.16436 0.59932 0.32174
 H991 H 1.14136 0.56963 0.35352
 H992 H 1.15586 0.66300 0.42091
 H993 H 1.12976 0.63446 0.45190
 H994 H 1.11986 0.54472 0.38127
 H995 H 1.08899 0.52044 0.41264
 H996 H 1.09998 0.59210 0.46423
 C997 C 0.35842 0.85286 -0.16660
 C998 C 0.34723 0.85876 -0.14192
 C999 C 0.32183 0.84196 -0.13295
 C1000 C 0.30672 0.82174 -0.14924
 C1001 C 0.31701 0.81784 -0.17439
 C1002 C 0.34351 0.83302 -0.18240
 C1003 C 0.31170 0.84571 -0.10791
 C1004 C 0.32644 0.86547 -0.09157
 C1005 C 0.35132 0.88316 -0.09994
 C1006 C 0.36093 0.88045 -0.12588
 C1007 C 0.38355 0.89995 -0.13527
 C1008 C 0.39821 0.91980 -0.11952
 C1009 C 0.39099 0.92120 -0.09379
 C1010 C 0.36713 0.90345 -0.08347
 C1011 C 0.36104 0.90633 -0.05700
 C1012 C 0.37914 0.92487 -0.04152
 C1013 C 0.40350 0.94107 -0.05205
 C1014 C 0.40847 0.93978 -0.07826
 H1015 H 0.37900 0.86287 -0.17426
 H1016 H 0.28660 0.80975 -0.14261
 H1017 H 0.35284 0.82974 -0.20129
 H1018 H 0.29239 0.83298 -0.10074
 H1019 H 0.31745 0.86681 -0.07250
 H1020 H 0.39022 0.90080 -0.15498
 H1021 H 0.41589 0.93390 -0.12755
 H1022 H 0.34335 0.89372 -0.04757
 H1023 H 0.37516 0.92536 -0.02119
 H1024 H 0.42728 0.95244 -0.08646
 C1025 C 0.83998 0.31539 0.37097
 C1026 C 0.83912 0.34616 0.37334
 C1027 C 0.82257 0.36208 0.35454
 C1028 C 0.80935 0.34767 0.33341
 C1029 C 0.81090 0.31723 0.33134
 C1030 C 0.82585 0.30129 0.35046
 C1031 C 0.81907 0.39221 0.35706
 C1032 C 0.83163 0.40700 0.37782
 C1033 C 0.84938 0.39235 0.39649
 C1034 C 0.85398 0.36157 0.39374
 C1035 C 0.87432 0.34738 0.41084
 C1036 C 0.89021 0.36273 0.42954
 C1037 C 0.88574 0.39261 0.43262
 C1038 C 0.86418 0.40768 0.41702
 C1039 C 0.85902 0.43763 0.42238
 C1040 C 0.87697 0.45241 0.44060
 C1041 C 0.90063 0.43792 0.45374
 C1042 C 0.90390 0.40776 0.45047
 H1043 H 0.85064 0.30146 0.38500
 H1044 H 0.79700 0.36002 0.31899
 H1045 H 0.82677 0.27769 0.34944
 H1046 H 0.80629 0.40452 0.34288
 H1047 H 0.82815 0.43027 0.37815
 H1048 H 0.87979 0.32452 0.40946
 H1049 H 0.90655 0.35108 0.44153
 H1050 H 0.84164 0.45028 0.41255
 H1051 H 0.87363 0.47555 0.44326
 H1052 H 0.92185 0.39630 0.46098
 C1053 C 1.20123 0.34608 0.13241
 C1054 C 1.16834 0.34797 0.13138
 C1055 C 1.15132 0.33437 0.15116
 C1056 C 1.16680 0.32135 0.17184
 C1057 C 1.19927 0.32008 0.17267
 C1058 C 1.21632 0.33200 0.15259
 C1059 C 1.11895 0.33358 0.15014
 C1060 C 1.10290 0.34601 0.12988
 C1061 C 1.11859 0.36086 0.11021
 C1062 C 1.15181 0.36267 0.11143
 C1063 C 1.16728 0.38014 0.09332
 C1064 C 1.15093 0.39586 0.07508
 C1065 C 1.11867 0.39397 0.07345
 C1066 C 1.10208 0.37537 0.09013
 C1067 C 1.06955 0.37266 0.08624
 C1068 C 1.05401 0.38988 0.06821
 C1069 C 1.07034 0.41034 0.05375
 C1070 C 1.10275 0.41155 0.05585
 H1071 H 1.21591 0.35454 0.11757
 H1072 H 1.15351 0.31128 0.18700
 H1073 H 1.24143 0.33060 0.15262
 H1074 H 1.10583 0.32306 0.16514
 H1075 H 1.07793 0.34473 0.13074
 H1076 H 1.19206 0.38332 0.09354
 H1077 H 1.16374 0.40992 0.06224
 H1078 H 1.05546 0.35765 0.09701
 H1079 H 1.02899 0.38837 0.06659
 H1080 H 1.11551 0.42714 0.04436
 C1081 C 0.70327 0.85468 0.63812
 C1082 C 0.67050 0.85503 0.63540
 C1083 C 0.65271 0.83959 0.65366
 C1084 C 0.66723 0.82596 0.67447
 C1085 C 0.69959 0.82596 0.67680
 C1086 C 0.71748 0.84002 0.65835
 C1087 C 0.62058 0.83740 0.65087
 C1088 C 0.60556 0.84995 0.63017
 C1089 C 0.62202 0.86626 0.61185
 C1090 C 0.65485 0.86982 0.61508
 C1091 C 0.67075 0.88886 0.59848
 C1092 C 0.65513 0.90420 0.57961
 C1093 C 0.62333 0.90040 0.57585
 C1094 C 0.60651 0.88041 0.59111
 C1095 C 0.57472 0.87585 0.58516
 C1096 C 0.55982 0.89247 0.56643
 C1097 C 0.57608 0.91409 0.55323
 C1098 C 0.60800 0.91733 0.55746
 H1099 H 0.71863 0.86464 0.62449
 H1100 H 0.65341 0.81424 0.68836
 H1101 H 0.74258 0.83966 0.65961
 H1102 H 0.60688 0.82556 0.66474
 H1103 H 0.58068 0.84748 0.62961
 H1104 H 0.69518 0.89351 0.60038
 H1105 H 0.66811 0.91940 0.56792
 H1106 H 0.56070 0.85979 0.59477
 H1107 H 0.53513 0.88956 0.56330
 H1108 H 0.62073 0.93384 0.54697
 C1109 C 1.15459 0.64168 -0.17133
 C1110 C 1.15206 0.64851 -0.14526
 C1111 C 1.17186 0.67061 -0.13550
 C1112 C 1.19217 0.68621 -0.15187
 C1113 C 1.19279 0.68042 -0.17830
 C1114 C 1.17410 0.65731 -0.18732
 C1115 C 1.17091 0.67714 -0.10951
 C1116 C 1.15085 0.66229 -0.09309
 C1117 C 1.13035 0.64044 -0.10205
 C1118 C 1.13070 0.63385 -0.12869
 C1119 C 1.10935 0.61304 -0.13810
 C1120 C 1.08966 0.59791 -0.12208
 C1121 C 1.08992 0.60301 -0.09602
 C1122 C 1.10963 0.62468 -0.08543
 C1123 C 1.10792 0.62903 -0.05867
 C1124 C 1.08864 0.61153 -0.04328
 C1125 C 1.07060 0.58931 -0.05410
 C1126 C 1.07087 0.58580 -0.08050
 H1127 H 1.14188 0.62423 -0.18025
 H1128 H 1.20654 0.70349 -0.14406
 H1129 H 1.17415 0.65095 -0.20718
 H1130 H 1.18594 0.69390 -0.10173
 H1131 H 1.15178 0.66856 -0.07335
 H1132 H 1.10696 0.60785 -0.15796
 H1133 H 1.07415 0.58176 -0.13025
 H1134 H 1.12177 0.64521 -0.04901
 H1135 H 1.08896 0.61446 -0.02283
 H1136 H 1.05679 0.56868 -0.08897
 C1137 C 0.68740 1.16193 0.36897
 C1138 C 0.65482 1.15751 0.36839
 C1139 C 0.63815 1.16878 0.34725
 C1140 C 0.65390 1.18242 0.32704
 C1141 C 0.68616 1.18639 0.32795
 C1142 C 0.70263 1.17636 0.34919
 C1143 C 0.60584 1.16671 0.34653
 C1144 C 0.58951 1.15376 0.36634
 C1145 C 0.60501 1.14137 0.38744
 C1146 C 0.63826 1.14253 0.38809
 C1147 C 0.65394 1.12779 0.40791
 C1148 C 0.63786 1.11207 0.42619
 C1149 C 0.60553 1.11104 0.42601
 C1150 C 0.58847 1.12660 0.40731
 C1151 C 0.55557 1.12605 0.40908
 C1152 C 0.54053 1.10865 0.42722
 C1153 C 0.55780 1.09151 0.44406
 C1154 C 0.59019 1.09347 0.44387
 H1155 H 0.70175 1.15526 0.38474
 H1156 H 0.64091 1.19088 0.31095
 H1157 H 0.72751 1.17965 0.35048
 H1158 H 0.59293 1.17540 0.33049
 H1159 H 0.56466 1.15285 0.36411
 H1160 H 0.67887 1.12685 0.40923
 H1161 H 0.65097 1.10027 0.44052
 H1162 H 0.54083 1.13844 0.39651
 H1163 H 0.51541 1.10733 0.42714
 H1164 H 0.60354 1.08018 0.45703
 C1165 C 0.80831 0.65597 0.12676
 C1166 C 0.84104 0.65275 0.12778
 C1167 C 0.85671 0.66388 0.14949
 C1168 C 0.83996 0.67611 0.16975
 C1169 C 0.80761 0.67892 0.16843
 C1170 C 0.79203 0.66914 0.14666
 C1171 C 0.88903 0.66306 0.15078
 C1172 C 0.90639 0.65144 0.13101
 C1173 C 0.89199 0.63917 0.10935
 C1174 C 0.85874 0.63908 0.10805
 C1175 C 0.84428 0.62438 0.08759
 C1176 C 0.86155 0.60968 0.06940
 C1177 C 0.89391 0.60978 0.07030
 C1178 C 0.90969 0.62559 0.08958
 C1179 C 0.94261 0.62639 0.08856
 C1180 C 0.95895 0.60982 0.07071
 C1181 C 0.94307 0.59226 0.05330
 C1182 C 0.91059 0.59303 0.05265
 H1183 H 0.79466 0.64930 0.11057
 H1184 H 0.85224 0.68446 0.18626
 H1185 H 0.76708 0.67163 0.14505
 H1186 H 0.90114 0.67167 0.16727
 H1187 H 0.93118 0.65140 0.13375
 H1188 H 0.81944 0.62265 0.08571
 H1189 H 0.84938 0.59776 0.05460
 H1190 H 0.95643 0.63913 0.10158
 H1191 H 0.98403 0.60927 0.07162
 H1192 H 0.89828 0.57937 0.03910
 C1193 C 0.33424 1.13140 0.66409
 C1194 C 0.34612 1.14254 0.64101
 C1195 C 0.33444 1.16962 0.63214
 C1196 C 0.31406 1.18611 0.64739
 C1197 C 0.30509 1.17575 0.67141
 C1198 C 0.31442 1.14789 0.67905
 C1199 C 0.34387 1.18027 0.60847
 C1200 C 0.36474 1.16468 0.59347
 C1201 C 0.37796 1.13824 0.60204
 C1202 C 0.36918 1.12761 0.62662
 C1203 C 0.38451 1.10294 0.63656
 C1204 C 0.40619 1.08790 0.62245
 C1205 C 0.41339 1.09663 0.59784
 C1206 C 0.39983 1.12201 0.58713
 C1207 C 0.40837 1.12943 0.56183
 C1208 C 0.42829 1.11147 0.54764
 C1209 C 0.44029 1.08588 0.55833
 C1210 C 0.43360 1.07936 0.58370
 H1211 H 0.33981 1.10999 0.67122
 H1212 H 0.30651 1.20752 0.64118
 H1213 H 0.30693 1.13901 0.69714
 H1214 H 0.33497 1.20086 0.60143
 H1215 H 0.37074 1.17434 0.57545
 H1216 H 0.38084 1.09495 0.65559
 H1217 H 0.41708 1.06884 0.63082
 H1218 H 0.39914 1.14828 0.55219
 H1219 H 0.43311 1.11688 0.52798
 H1220 H 0.44328 1.05983 0.59228
 C1221 C 0.83610 0.36475 -0.16089
 C1222 C 0.84926 0.35334 -0.13831
 C1223 C 0.84025 0.32485 -0.13077
 C1224 C 0.82092 0.30770 -0.14673
 C1225 C 0.81037 0.31878 -0.17016
 C1226 C 0.81739 0.34769 -0.17650
 C1227 C 0.85115 0.31360 -0.10767
 C1228 C 0.87085 0.32993 -0.09197
 C1229 C 0.88136 0.35796 -0.09917
 C1230 C 0.87097 0.36939 -0.12311
 C1231 C 0.88337 0.39615 -0.13163
 C1232 C 0.90379 0.41210 -0.11683
 C1233 C 0.91273 0.40224 -0.09287
 C1234 C 0.90208 0.37502 -0.08352
 C1235 C 0.91238 0.36658 -0.05883
 C1236 C 0.93132 0.38509 -0.04396
 C1237 C 0.94056 0.41237 -0.05331
 C1238 C 0.93191 0.42012 -0.07810
 H1239 H 0.83970 0.38688 -0.16712
 H1240 H 0.81529 0.28545 -0.14146
 H1241 H 0.80873 0.35711 -0.19406
 H1242 H 0.84432 0.29193 -0.10160
 H1243 H 0.87808 0.31972 -0.07446
 H1244 H 0.87832 0.40526 -0.15006
 H1245 H 0.91242 0.43268 -0.12417
 H1246 H 0.90541 0.34626 -0.05022
 H1247 H 0.93765 0.37858 -0.02483
 H1248 H 0.93943 0.44094 -0.08579
 C1249 C 0.31163 0.84142 0.37274
 C1250 C 0.34441 0.84433 0.37331
 C1251 C 0.36133 0.83315 0.35238
 C1252 C 0.34575 0.82104 0.33133
 C1253 C 0.31335 0.81842 0.33118
 C1254 C 0.29651 0.82838 0.35212
 C1255 C 0.39371 0.83370 0.35269
 C1256 C 0.40988 0.84510 0.37334
 C1257 C 0.39421 0.85740 0.39428
 C1258 C 0.36093 0.85771 0.39393
 C1259 C 0.34526 0.87234 0.41372
 C1260 C 0.36141 0.88687 0.43274
 C1261 C 0.39375 0.88670 0.43336
 C1262 C 0.41070 0.87085 0.41491
 C1263 C 0.44351 0.86998 0.41758
 C1264 C 0.45873 0.88675 0.43608
 C1265 C 0.44173 0.90468 0.45235
 C1266 C 0.40928 0.90361 0.45162
 H1267 H 0.29701 0.84813 0.38824
 H1268 H 0.35895 0.81249 0.31547
 H1269 H 0.27148 0.82597 0.35259
 H1270 H 0.40677 0.82503 0.33681
 H1271 H 0.43482 0.84497 0.37187
 H1272 H 0.32036 0.87420 0.41442
 H1273 H 0.34839 0.89880 0.44695
 H1274 H 0.45806 0.85707 0.40534
 H1275 H 0.48386 0.88721 0.43652
 H1276 H 0.39611 0.91737 0.46444
 C1277 C 1.16172 1.17705 0.36956
 C1278 C 1.14181 1.15442 0.36113
 C1279 C 1.13366 1.15367 0.33503
 C1280 C 1.14755 1.17298 0.31785
 C1281 C 1.16963 1.19332 0.32623
 C1282 C 1.17556 1.19599 0.35231
 C1283 C 1.11251 1.13306 0.32604
 C1284 C 1.09944 1.11275 0.34239
 C1285 C 1.10783 1.11176 0.36836
 C1286 C 1.13001 1.13248 0.37768
 C1287 C 1.14068 1.12994 0.40297
 C1288 C 1.12912 1.10873 0.41904
 C1289 C 1.10623 1.08952 0.41071
 C1290 C 1.09513 1.09057 0.38533
 C1291 C 1.07133 1.07072 0.37828
 C1292 C 1.05853 1.05155 0.39604
 C1293 C 1.06926 1.05133 0.42120
 C1294 C 1.09381 1.06974 0.42808
 H1295 H 1.16726 1.18063 0.38930
 H1296 H 1.14216 1.17116 0.29775
 H1297 H 1.19176 1.21216 0.35942
 H1298 H 1.10609 1.13251 0.30609
 H1299 H 1.08351 1.09749 0.33384
 H1300 H 1.15866 1.14359 0.41085
 H1301 H 1.13791 1.10768 0.43837
 H1302 H 1.06123 1.07015 0.35953
 H1303 H 1.03945 1.03760 0.39024
 H1304 H 1.10247 1.06974 0.44748
 C1305 C 0.64137 0.68759 -0.13629
 C1306 C 0.62316 0.66365 -0.14462
 C1307 C 0.62754 0.65351 -0.16980
 C1308 C 0.64844 0.66765 -0.18609
 C1309 C 0.66616 0.69139 -0.17752
 C1310 C 0.66254 0.70109 -0.15249
 C1311 C 0.61140 0.62907 -0.17852
 C1312 C 0.59189 0.61357 -0.16244
 C1313 C 0.58711 0.62247 -0.13706
 C1314 C 0.60164 0.64885 -0.12852
 C1315 C 0.59419 0.65960 -0.10418
 C1316 C 0.57535 0.64392 -0.08785
 C1317 C 0.56349 0.61685 -0.09498
 C1318 C 0.56864 0.60579 -0.11976
 C1319 C 0.55616 0.57792 -0.12567
 C1320 C 0.54076 0.56134 -0.10724
 C1321 C 0.53706 0.57209 -0.08253
 C1322 C 0.54743 0.60036 -0.07694
 H1323 H 0.64051 0.69597 -0.11717
 H1324 H 0.65141 0.65971 -0.20535
 H1325 H 0.67600 0.71935 -0.14540
 H1326 H 0.61445 0.62140 -0.19786
 H1327 H 0.58059 0.59479 -0.17058
 H1328 H 0.60239 0.68030 -0.09718
 H1329 H 0.57080 0.65274 -0.06909
 H1330 H 0.55906 0.56775 -0.14396
 H1331 H 0.53281 0.53961 -0.11212
 H1332 H 0.54431 0.60921 -0.05800
 C1333 C 0.83660 1.17571 0.63253
 C1334 C 0.85874 1.15456 0.64004
 C1335 C 0.86630 1.15248 0.66621
 C1336 C 0.85065 1.16957 0.68408
 C1337 C 0.82744 1.18911 0.67639
 C1338 C 0.82114 1.19250 0.65046
 C1339 C 0.88908 1.13307 0.67450
 C1340 C 0.90453 1.11534 0.65735
 C1341 C 0.89722 1.11589 0.63117
 C1342 C 0.87350 1.13546 0.62250
 C1343 C 0.86462 1.13477 0.59667
 C1344 C 0.87904 1.11643 0.57965
 C1345 C 0.90289 1.09813 0.58756
 C1346 C 0.91249 1.09733 0.61333
 C1347 C 0.93706 1.07807 0.61993
 C1348 C 0.95152 1.06084 0.60148
 C1349 C 0.94194 1.06239 0.57609
 C1350 C 0.91729 1.08071 0.56948
 H1351 H 0.83064 1.18001 0.61299
 H1352 H 0.85620 1.16714 0.70411
 H1353 H 0.80379 1.20788 0.64390
 H1354 H 0.89504 1.13155 0.69451
 H1355 H 0.92173 1.10097 0.66535
 H1356 H 0.84605 1.14774 0.58893
 H1357 H 0.87147 1.11671 0.55995
 H1358 H 0.94604 1.07614 0.63899
 H1359 H 0.97060 1.04679 0.60699
 H1360 H 0.90925 1.08172 0.54992
 C1361 C 0.37973 0.65062 0.17638
 C1362 C 0.36587 0.63859 0.15427
 C1363 C 0.33647 0.64959 0.14670
 C1364 C 0.32170 0.67134 0.16092
 C1365 C 0.33517 0.68186 0.18333
 C1366 C 0.36442 0.67166 0.19072
 C1367 C 0.32147 0.63835 0.12537
 C1368 C 0.33477 0.61611 0.11133
 C1369 C 0.36393 0.60425 0.11801
 C1370 C 0.37995 0.61593 0.13965
 C1371 C 0.40957 0.60472 0.14581
 C1372 C 0.42356 0.58356 0.13096
 C1373 C 0.40851 0.57236 0.10963
 C1374 C 0.37812 0.58180 0.10324
 C1375 C 0.36359 0.56885 0.08184
 C1376 C 0.37984 0.54988 0.06608
 C1377 C 0.41071 0.54262 0.07144
 C1378 C 0.42438 0.55273 0.09393
 H1379 H 0.40196 0.64380 0.18362
 H1380 H 0.29888 0.67895 0.15525
 H1381 H 0.37527 0.67956 0.20802
 H1382 H 0.29901 0.64671 0.11952
 H1383 H 0.32163 0.60902 0.09502
 H1384 H 0.42310 0.61227 0.16174
 H1385 H 0.44670 0.57623 0.13602
 H1386 H 0.34003 0.57343 0.07627
 H1387 H 0.36855 0.54178 0.04904
 H1388 H 0.44827 0.54708 0.09830
 C1389 C 1.16084 0.81903 0.63201
 C1390 C 1.13690 0.83807 0.63978
 C1391 C 1.13396 0.84401 0.66606
 C1392 C 1.15320 0.83000 0.68380
 C1393 C 1.17672 0.81067 0.67591
 C1394 C 1.18036 0.80574 0.64968
 C1395 C 1.11207 0.86417 0.67454
 C1396 C 1.09372 0.87946 0.65737
 C1397 C 1.09582 0.87435 0.63097
 C1398 C 1.11647 0.85208 0.62225
 C1399 C 1.11579 0.84424 0.59634
 C1400 C 1.09733 0.85909 0.57913
 C1401 C 1.07929 0.88259 0.58694
 C1402 C 1.07800 0.89063 0.61292
 C1403 C 1.05977 0.91525 0.61947
 C1404 C 1.04425 0.93144 0.60078
 C1405 C 1.04619 0.92345 0.57514
 C1406 C 1.06312 0.89850 0.56859
 H1407 H 1.16579 0.81459 0.61231
 H1408 H 1.14999 0.83476 0.70384
 H1409 H 1.19830 0.79139 0.64253
 H1410 H 1.10956 0.86866 0.69468
 H1411 H 1.07756 0.89478 0.66543
 H1412 H 1.12888 0.82623 0.58878
 H1413 H 1.09781 0.85252 0.55932
 H1414 H 1.05801 0.92325 0.63867
 H1415 H 1.03137 0.95066 0.60638
 H1416 H 1.06475 0.89184 0.54885
 C1417 C 0.67568 0.34932 0.13672
 C1418 C 0.65088 0.36759 0.14421
 C1419 C 0.63798 0.36322 0.16868
 C1420 C 0.65110 0.34282 0.18548
 C1421 C 0.67665 0.32588 0.17813
 C1422 C 0.68828 0.32891 0.15343
 C1423 C 0.61222 0.37937 0.17631
 C1424 C 0.59840 0.39935 0.15994
 C1425 C 0.61055 0.40468 0.13546
 C1426 C 0.63813 0.38957 0.12804
 C1427 C 0.65242 0.39724 0.10488
 C1428 C 0.63900 0.41728 0.08853
 C1429 C 0.61065 0.43015 0.09440
 C1430 C 0.59605 0.42446 0.11801
 C1431 C 0.56696 0.43792 0.12259
 C1432 C 0.55240 0.45479 0.10385
 C1433 C 0.56650 0.45905 0.08017
 C1434 C 0.59627 0.44774 0.07613
 H1435 H 0.68565 0.34996 0.11796
 H1436 H 0.64153 0.34034 0.20441
 H1437 H 0.70778 0.31593 0.14708
 H1438 H 0.60232 0.37622 0.19505
 H1439 H 0.57852 0.41077 0.16727
 H1440 H 0.67440 0.38840 0.09894
 H1441 H 0.65055 0.42210 0.07071
 H1442 H 0.55410 0.43466 0.13990
 H1443 H 0.52936 0.46323 0.10747
 H1444 H 0.60766 0.45117 0.05800
 C1445 C 0.82176 0.83341 0.36259
 C1446 C 0.84539 0.85278 0.35454
 C1447 C 0.85759 0.84919 0.32977
 C1448 C 0.84451 0.82876 0.31311
 C1449 C 0.81953 0.81126 0.32081
 C1450 C 0.80901 0.81309 0.34591
 C1451 C 0.88236 0.86635 0.32157
 C1452 C 0.89570 0.88689 0.33761
 C1453 C 0.88397 0.89170 0.36229
 C1454 C 0.85746 0.87531 0.37035
 C1455 C 0.84329 0.88245 0.39366
 C1456 C 0.85592 0.90337 0.40952
 C1457 C 0.88335 0.91757 0.40300
 C1458 C 0.89777 0.91229 0.37926
 C1459 C 0.92603 0.92705 0.37407
 C1460 C 0.93999 0.94492 0.39235
 C1461 C 0.92603 0.94884 0.41608
 C1462 C 0.89705 0.93616 0.42075
 H1463 H 0.81273 0.83325 0.38168
 H1464 H 0.85336 0.82703 0.29388
 H1465 H 0.79015 0.79942 0.35255
 H1466 H 0.89171 0.86373 0.30258
 H1467 H 0.91473 0.89924 0.32983
 H1468 H 0.82196 0.87260 0.40001
 H1469 H 0.84453 0.90786 0.42747
 H1470 H 0.93876 0.92411 0.35666
 H1471 H 0.96248 0.95447 0.38834
 H1472 H 0.88580 0.93943 0.43896
 C1473 C 0.34406 0.36743 -0.17855
 C1474 C 0.36404 0.35638 -0.15945
 C1475 C 0.36121 0.32641 -0.15288
 C1476 C 0.33987 0.30832 -0.16561
 C1477 C 0.32162 0.31958 -0.18524
 C1478 C 0.32353 0.34918 -0.19133
 C1479 C 0.38004 0.31451 -0.13401
 C1480 C 0.40143 0.33170 -0.12113
 C1481 C 0.40498 0.36168 -0.12674
 C1482 C 0.38643 0.37408 -0.14659
 C1483 C 0.39077 0.40381 -0.15283
 C1484 C 0.41064 0.42145 -0.13889
 C1485 C 0.42727 0.41019 -0.11842
 C1486 C 0.42563 0.37996 -0.11257
 C1487 C 0.44371 0.36964 -0.09195
 C1488 C 0.45967 0.38897 -0.07626
 C1489 C 0.45883 0.41898 -0.08096
 C1490 C 0.44420 0.42936 -0.10286
 H1491 H 0.34374 0.38995 -0.18432
 H1492 H 0.33848 0.28526 -0.16108
 H1493 H 0.30929 0.35820 -0.20645
 H1494 H 0.37813 0.29162 -0.12902
 H1495 H 0.41472 0.32067 -0.10669
 H1496 H 0.37882 0.41443 -0.16826
 H1497 H 0.41235 0.44438 -0.14380
 H1498 H 0.44499 0.34700 -0.08662
 H1499 H 0.47150 0.38053 -0.05959
 H1500 H 0.44365 0.45265 -0.10654
 C1501 C 1.18808 0.33892 -0.13351
 C1502 C 1.15546 0.34267 -0.13290
 C1503 C 1.13776 0.33037 -0.15303
 C1504 C 1.15256 0.31645 -0.17357
 C1505 C 1.18492 0.31331 -0.17387
 C1506 C 1.20238 0.32435 -0.15356
 C1507 C 1.10541 0.33183 -0.15245
 C1508 C 1.09011 0.34520 -0.13233
 C1509 C 1.10667 0.35862 -0.11226
 C1510 C 1.13991 0.35805 -0.11297
 C1511 C 1.15657 0.37373 -0.09425
 C1512 C 1.14143 0.38978 -0.07574
 C1513 C 1.10914 0.39027 -0.07459
 C1514 C 1.09117 0.37383 -0.09213
 C1515 C 1.05843 0.37393 -0.08898
 C1516 C 1.04432 0.39158 -0.07060
 C1517 C 1.06238 0.40948 -0.05493
 C1518 C 1.09471 0.40812 -0.05652
 H1519 H 1.20324 0.34631 -0.11852
 H1520 H 1.13885 0.30731 -0.18897
 H1521 H 1.22740 0.32186 -0.15323
 H1522 H 1.09171 0.32236 -0.16769
 H1523 H 1.06514 0.34559 -0.13352
 H1524 H 1.18151 0.37518 -0.09401
 H1525 H 1.15522 0.40225 -0.06230
 H1526 H 1.04311 0.36094 -0.10062
 H1527 H 1.01921 0.39244 -0.06957
 H1528 H 1.10866 0.42197 -0.04423
 C1529 C 0.67903 0.82205 0.37132
 C1530 C 0.64960 0.83504 0.36726
 C1531 C 0.63742 0.83446 0.34214
 C1532 C 0.65412 0.82145 0.32219
 C1533 C 0.68309 0.80852 0.32665
 C1534 C 0.69529 0.80900 0.35140
 C1535 C 0.60855 0.84680 0.33698
 C1536 C 0.59159 0.86031 0.35601
 C1537 C 0.60286 0.86214 0.38123
 C1538 C 0.63210 0.84883 0.38707
 C1539 C 0.64295 0.85003 0.41246
 C1540 C 0.62665 0.86476 0.43124
 C1541 C 0.59885 0.87892 0.42565
 C1542 C 0.58619 0.87741 0.40068
 C1543 C 0.55789 0.89225 0.39606
 C1544 C 0.54408 0.90920 0.41488
 C1545 C 0.55735 0.91138 0.43906
 C1546 C 0.58424 0.89560 0.44466
 H1547 H 0.69032 0.82161 0.38960
 H1548 H 0.64428 0.82108 0.30318
 H1549 H 0.71770 0.79934 0.35548
 H1550 H 0.59898 0.84620 0.31788
 H1551 H 0.56962 0.86925 0.35014
 H1552 H 0.66429 0.83998 0.41852
 H1553 H 0.63630 0.86557 0.45030
 H1554 H 0.54629 0.89220 0.37790
 H1555 H 0.52339 0.92158 0.41025
 H1556 H 0.59477 0.89773 0.46334
 C1557 C 0.84062 0.63616 -0.16104
 C1558 C 0.85083 0.64729 -0.13739
 C1559 C 0.83746 0.67367 -0.12864
 C1560 C 0.81697 0.68960 -0.14446
 C1561 C 0.80942 0.67928 -0.16888
 C1562 C 0.82057 0.65200 -0.17646
 C1563 C 0.84517 0.68408 -0.10443
 C1564 C 0.86577 0.66885 -0.08873
 C1565 C 0.88053 0.64308 -0.09708
 C1566 C 0.87370 0.63287 -0.12223
 C1567 C 0.89066 0.60906 -0.13188
 C1568 C 0.91191 0.59428 -0.11700
 C1569 C 0.91709 0.60243 -0.09188
 C1570 C 0.90197 0.62708 -0.08139
 C1571 C 0.90852 0.63392 -0.05551
 C1572 C 0.92798 0.61601 -0.04064
 C1573 C 0.94149 0.59111 -0.05126
 C1574 C 0.93678 0.58523 -0.07704
 H1575 H 0.84754 0.61515 -0.16820
 H1576 H 0.80803 0.71050 -0.13822
 H1577 H 0.81424 0.64299 -0.19481
 H1578 H 0.83500 0.70414 -0.09746
 H1579 H 0.87033 0.67822 -0.07030
 H1580 H 0.88858 0.60158 -0.15123
 H1581 H 0.92404 0.57583 -0.12518
 H1582 H 0.89799 0.65220 -0.04600
 H1583 H 0.93120 0.62079 -0.02063
 H1584 H 0.94752 0.56608 -0.08537
 C1585 C 0.31641 1.13241 0.35058
 C1586 C 0.33293 1.14464 0.37131
 C1587 C 0.33532 1.17544 0.37270
 C1588 C 0.31985 1.19312 0.35475
 C1589 C 0.30368 1.18041 0.33438
 C1590 C 0.30237 1.15007 0.33236
 C1591 C 0.35386 1.18823 0.39153
 C1592 C 0.37115 1.17108 0.40830
 C1593 C 0.36929 1.14034 0.40769
 C1594 C 0.34822 1.12716 0.38997
 C1595 C 0.34276 1.09690 0.39159
 C1596 C 0.35908 1.07966 0.40852
 C1597 C 0.38192 1.09170 0.42414
 C1598 C 0.38753 1.12214 0.42417
 C1599 C 0.41186 1.13268 0.44003
 C1600 C 0.43021 1.11348 0.45458
 C1601 C 0.42451 1.08337 0.45406
 C1602 C 0.39964 1.07301 0.43927
 H1603 H 0.31516 1.10925 0.34720
 H1604 H 0.32158 1.21668 0.35591
 H1605 H 0.29048 1.13994 0.31645
 H1606 H 0.35577 1.21176 0.39281
 H1607 H 0.38530 1.18251 0.42201
 H1608 H 0.32535 1.08593 0.38033
 H1609 H 0.35432 1.05642 0.40889
 H1610 H 0.41805 1.15546 0.44078
 H1611 H 0.44928 1.12216 0.46574
 H1612 H 0.39454 1.04985 0.43864
 C1613 C 1.20284 0.65072 0.13507
 C1614 C 1.17026 0.65183 0.13137
 C1615 C 1.15263 0.66906 0.14844
 C1616 C 1.16702 0.68280 0.16930
 C1617 C 1.19918 0.68101 0.17274
 C1618 C 1.21697 0.66535 0.15530
 C1619 C 1.12083 0.67270 0.14448
 C1620 C 1.10598 0.65963 0.12390
 C1621 C 1.12222 0.64133 0.10696
 C1622 C 1.15467 0.63659 0.11129
 C1623 C 1.17019 0.61584 0.09614
 C1624 C 1.15450 0.59978 0.07780
 C1625 C 1.12304 0.60446 0.07313
 C1626 C 1.10673 0.62627 0.08670
 C1627 C 1.07540 0.63154 0.07968
 C1628 C 1.06026 0.61381 0.06183
 C1629 C 1.07577 0.59031 0.05072
 C1630 C 1.10746 0.58652 0.05566
 H1631 H 1.21820 0.63945 0.12228
 H1632 H 1.15336 0.69570 0.18243
 H1633 H 1.24197 0.66429 0.15743
 H1634 H 1.10725 0.68597 0.15736
 H1635 H 1.08133 0.66325 0.12242
 H1636 H 1.19427 0.61033 0.09889
 H1637 H 1.16710 0.58324 0.06734
 H1638 H 1.06194 0.64897 0.08782
 H1639 H 1.03593 0.61748 0.05781
 H1640 H 1.11974 0.56870 0.04660
 C1641 C 0.69377 1.16262 0.62854
 C1642 C 0.66110 1.15924 0.62733
 C1643 C 0.64328 1.17141 0.64734
 C1644 C 0.65798 1.18462 0.66840
 C1645 C 0.69037 1.18735 0.66932
 C1646 C 0.70799 1.17665 0.64907
 C1647 C 0.61092 1.17052 0.64611
 C1648 C 0.59573 1.15781 0.62549
 C1649 C 0.61237 1.14437 0.60559
 C1650 C 0.64560 1.14434 0.60695
 C1651 C 0.66222 1.12841 0.58850
 C1652 C 0.64703 1.11252 0.56974
 C1653 C 0.61474 1.11260 0.56799
 C1654 C 0.59692 1.12957 0.58509
 C1655 C 0.56430 1.13031 0.58123
 C1656 C 0.55001 1.11267 0.56283
 C1657 C 0.56772 1.09383 0.54783
 C1658 C 0.60011 1.09468 0.54989
 H1659 H 0.70901 1.15536 0.61364
 H1660 H 0.64417 1.19358 0.68373
 H1661 H 0.73304 1.17896 0.64920
 H1662 H 0.59711 1.17993 0.66123
 H1663 H 0.57073 1.15778 0.62622
 H1664 H 0.68714 1.12654 0.58875
 H1665 H 0.66077 1.09971 0.55661
 H1666 H 0.54918 1.14390 0.59240
 H1667 H 0.52489 1.11233 0.56150
 H1668 H 0.61390 1.08025 0.53812
 C1669 C 0.81713 0.33546 0.12890
 C1670 C 0.84815 0.34493 0.13263
 C1671 C 0.86122 0.34119 0.15724
 C1672 C 0.84369 0.32887 0.17711
 C1673 C 0.81312 0.31942 0.17294
 C1674 C 0.80013 0.32286 0.14865
 C1675 C 0.89182 0.34958 0.16192
 C1676 C 0.90987 0.36185 0.14285
 C1677 C 0.89792 0.36661 0.11813
 C1678 C 0.86652 0.35803 0.11293
 C1679 C 0.85439 0.36327 0.08834
 C1680 C 0.87179 0.37723 0.06975
 C1681 C 0.90212 0.38627 0.07464
 C1682 C 0.91600 0.38046 0.09865
 C1683 C 0.94715 0.38969 0.10232
 C1684 C 0.96271 0.40577 0.08371
 C1685 C 0.94821 0.41254 0.06068
 C1686 C 0.91822 0.40219 0.05594
 H1687 H 0.80525 0.33716 0.11092
 H1688 H 0.85415 0.32602 0.19573
 H1689 H 0.77656 0.31579 0.14483
 H1690 H 0.90200 0.34665 0.18064
 H1691 H 0.93312 0.36781 0.14833
 H1692 H 0.83111 0.35740 0.08287
 H1693 H 0.86114 0.38141 0.05139
 H1694 H 0.95992 0.38570 0.11960
 H1695 H 0.98570 0.41421 0.08784
 H1696 H 0.90681 0.40795 0.03821
 C1697 C 0.33045 0.82040 0.62639
 C1698 C 0.35790 0.83608 0.63225
 C1699 C 0.36537 0.83983 0.65832
 C1700 C 0.34591 0.82869 0.67749
 C1701 C 0.31889 0.81267 0.67147
 C1702 C 0.31156 0.80890 0.64552
 C1703 C 0.39244 0.85453 0.66528
 C1704 C 0.41232 0.86583 0.64701
 C1705 C 0.40578 0.86325 0.62076
 C1706 C 0.37803 0.84823 0.61322
 C1707 C 0.37106 0.84642 0.58698
 C1708 C 0.38971 0.85974 0.56881
 C1709 C 0.41637 0.87503 0.57586
 C1710 C 0.42541 0.87621 0.60184
 C1711 C 0.45322 0.89134 0.60782
 C1712 C 0.46930 0.90697 0.58926
 C1713 C 0.45892 0.90737 0.56407
 C1714 C 0.43319 0.89044 0.55721
 H1715 H 0.32296 0.81622 0.60718
 H1716 H 0.35251 0.83200 0.69721
 H1717 H 0.29109 0.79682 0.63969
 H1718 H 0.39839 0.85740 0.68518
 H1719 H 0.43244 0.87707 0.65426
 H1720 H 0.35075 0.83547 0.57975
 H1721 H 0.38281 0.85851 0.54899
 H1722 H 0.46267 0.89246 0.62678
 H1723 H 0.48912 0.92012 0.59486
 H1724 H 0.42487 0.89111 0.53772
 C1725 C 0.36404 1.15667 -0.16777
 C1726 C 0.35180 1.14880 -0.14379
 C1727 C 0.32512 1.16388 -0.13517
 C1728 C 0.30985 1.18413 -0.15123
 C1729 C 0.32107 1.18975 -0.17587
 C1730 C 0.34881 1.17651 -0.18345
 C1731 C 0.31362 1.15816 -0.11082
 C1732 C 0.32804 1.13788 -0.09484
 C1733 C 0.35404 1.12163 -0.10294
 C1734 C 0.36536 1.12658 -0.12819
 C1735 C 0.38935 1.10859 -0.13742
 C1736 C 0.40331 1.08782 -0.12213
 C1737 C 0.39418 1.08413 -0.09697
 C1738 C 0.36925 1.10055 -0.08685
 C1739 C 0.36145 1.09558 -0.06091
 C1740 C 0.37898 1.07641 -0.04560
 C1741 C 0.40439 1.06150 -0.05580
 C1742 C 0.41091 1.06469 -0.08169
 H1743 H 0.38546 1.14798 -0.17504
 H1744 H 0.28860 1.19449 -0.14499
 H1745 H 0.35857 1.18106 -0.20201
 H1746 H 0.29331 1.16962 -0.10396
 H1747 H 0.31781 1.13488 -0.07634
 H1748 H 0.39761 1.10959 -0.15671
 H1749 H 0.42197 1.07485 -0.13003
 H1750 H 0.34288 1.10713 -0.05165
 H1751 H 0.37374 1.07452 -0.02552
 H1752 H 0.43049 1.05305 -0.08972
 C1753 C 0.84096 0.68601 0.36688
 C1754 C 0.84234 0.65514 0.36771
 C1755 C 0.82913 0.63952 0.34704
 C1756 C 0.81648 0.65443 0.32601
 C1757 C 0.81534 0.68495 0.32566
 C1758 C 0.82742 0.70052 0.34632
 C1759 C 0.82815 0.60911 0.34761
 C1760 C 0.83991 0.59371 0.36828
 C1761 C 0.85411 0.60813 0.38902
 C1762 C 0.85610 0.63932 0.38838
 C1763 C 0.87266 0.65363 0.40798
 C1764 C 0.88734 0.63809 0.42720
 C1765 C 0.88547 0.60778 0.42817
 C1766 C 0.86779 0.59234 0.40976
 C1767 C 0.86542 0.56163 0.41261
 C1768 C 0.88243 0.54689 0.43133
 C1769 C 0.90192 0.56221 0.44788
 C1770 C 0.90251 0.59269 0.44678
 H1771 H 0.84926 0.69965 0.38213
 H1772 H 0.80636 0.64227 0.31034
 H1773 H 0.82628 0.72413 0.34660
 H1774 H 0.81796 0.59704 0.33194
 H1775 H 0.83847 0.57030 0.36701
 H1776 H 0.87594 0.67691 0.40845
 H1777 H 0.90073 0.64998 0.44130
 H1778 H 0.85123 0.54832 0.40031
 H1779 H 0.88202 0.52333 0.43171
 H1780 H 0.91771 0.60459 0.45962
 C1781 C 0.65463 1.19394 0.12970
 C1782 C 0.65314 1.16303 0.13030
 C1783 C 0.66649 1.14868 0.15159
 C1784 C 0.67892 1.16485 0.17196
 C1785 C 0.67981 1.19540 0.17112
 C1786 C 0.66805 1.20972 0.14967
 C1787 C 0.66761 1.11827 0.15235
 C1788 C 0.65573 1.10161 0.13248
 C1789 C 0.64114 1.11472 0.11129
 C1790 C 0.63904 1.14593 0.11056
 C1791 C 0.62185 1.15896 0.09068
 C1792 C 0.60660 1.14221 0.07253
 C1793 C 0.60866 1.11187 0.07287
 C1794 C 0.62708 1.09765 0.09149
 C1795 C 0.62992 1.06684 0.08973
 C1796 C 0.61275 1.05087 0.07180
 C1797 C 0.59233 1.06509 0.05525
 C1798 C 0.59124 1.09560 0.05528
 H1799 H 0.64639 1.20658 0.11378
 H1800 H 0.68887 1.15359 0.18821
 H1801 H 0.66908 1.23330 0.14841
 H1802 H 0.67795 1.10717 0.16850
 H1803 H 0.65722 1.07829 0.13476
 H1804 H 0.61844 1.18217 0.08928
 H1805 H 0.59269 1.15317 0.05821
 H1806 H 0.64485 1.05445 0.10217
 H1807 H 0.61407 1.02729 0.07187
 H1808 H 0.57560 1.10664 0.04224
 C1809 C 1.16047 0.69013 0.62750
 C1810 C 1.15934 0.65923 0.62703
 C1811 C 1.17370 0.64399 0.64739
 C1812 C 1.18678 0.65929 0.66801
 C1813 C 1.18727 0.68984 0.66820
 C1814 C 1.17447 0.70505 0.64765
 C1815 C 1.17518 0.61359 0.64697
 C1816 C 1.16266 0.59782 0.62681
 C1817 C 1.14703 0.61184 0.60657
 C1818 C 1.14460 0.64301 0.60708
 C1819 C 1.12645 0.65687 0.58823
 C1820 C 1.11053 0.64091 0.56995
 C1821 C 1.11282 0.61062 0.56913
 C1822 C 1.13224 0.59565 0.58659
 C1823 C 1.13524 0.56500 0.58361
 C1824 C 1.11719 0.54978 0.56577
 C1825 C 1.09573 0.56463 0.55059
 C1826 C 1.09457 0.59509 0.55164
 H1827 H 1.15150 0.70347 0.61230
 H1828 H 1.19752 0.64742 0.68357
 H1829 H 1.17517 0.72869 0.64723
 H1830 H 1.18630 0.60181 0.66239
 H1831 H 1.16446 0.57443 0.62816
 H1832 H 1.12274 0.68009 0.58779
 H1833 H 1.09586 0.65244 0.55651
 H1834 H 1.15092 0.55215 0.59503
 H1835 H 1.11864 0.52623 0.56495
 H1836 H 1.07817 0.60663 0.53958
 C1837 C 0.63795 0.84799 -0.16246
 C1838 C 0.64947 0.85595 -0.13823
 C1839 C 0.67572 0.84070 -0.12878
 C1840 C 0.69135 0.82017 -0.14431
 C1841 C 0.68082 0.81445 -0.16919
 C1842 C 0.65346 0.82789 -0.17756
 C1843 C 0.68637 0.84651 -0.10413
 C1844 C 0.67147 0.86695 -0.08866
 C1845 C 0.64586 0.88331 -0.09759
 C1846 C 0.63551 0.87835 -0.12316
 C1847 C 0.61205 0.89648 -0.13322
 C1848 C 0.59756 0.91732 -0.11844
 C1849 C 0.60562 0.92098 -0.09299
 C1850 C 0.63009 0.90449 -0.08205
 C1851 C 0.63684 0.90948 -0.05588
 C1852 C 0.61874 0.92871 -0.04118
 C1853 C 0.59377 0.94368 -0.05220
 C1854 C 0.58830 0.94047 -0.07829
 H1855 H 0.61682 0.85676 -0.17035
 H1856 H 0.71227 0.80963 -0.13745
 H1857 H 0.64416 0.82324 -0.19631
 H1858 H 0.70633 0.83497 -0.09661
 H1859 H 0.68100 0.86997 -0.06986
 H1860 H 0.60462 0.89553 -0.15278
 H1861 H 0.57931 0.93038 -0.12697
 H1862 H 0.65500 0.89788 -0.04602
 H1863 H 0.62316 0.93056 -0.02095
 H1864 H 0.56905 0.95211 -0.08696
 C1865 C 1.15458 0.31640 0.36835
 C1866 C 1.15455 0.34727 0.36956
 C1867 C 1.17076 0.36271 0.35031
 C1868 C 1.18494 0.34762 0.33007
 C1869 C 1.18454 0.31705 0.32929
 C1870 C 1.16953 0.30171 0.34869
 C1871 C 1.17307 0.39305 0.35156
 C1872 C 1.15979 0.40852 0.37153
 C1873 C 1.14265 0.39428 0.39076
 C1874 C 1.13924 0.36322 0.38930
 C1875 C 1.11982 0.34918 0.40712
 C1876 C 1.10393 0.36482 0.42548
 C1877 C 1.10730 0.39496 0.42737
 C1878 C 1.12758 0.41012 0.41077
 C1879 C 1.13134 0.44058 0.41474
 C1880 C 1.11365 0.45544 0.43296
 C1881 C 1.09173 0.44045 0.44755
 C1882 C 1.08944 0.41013 0.44523
 H1883 H 1.14405 0.30283 0.38266
 H1884 H 1.19722 0.35959 0.31541
 H1885 H 1.16932 0.27806 0.34864
 H1886 H 1.18553 0.40502 0.33700
 H1887 H 1.16246 0.43188 0.37091
 H1888 H 1.11526 0.32609 0.40677
 H1889 H 1.08852 0.35316 0.43821
 H1890 H 1.14744 0.45355 0.40387
 H1891 H 1.11591 0.47888 0.43466
 H1892 H 1.07267 0.39844 0.45678
 C1893 C 0.34718 0.81273 0.13174
 C1894 C 0.34796 0.84366 0.13200
 C1895 C 0.33602 0.85793 0.15380
 C1896 C 0.32500 0.84170 0.17470
 C1897 C 0.32431 0.81112 0.17397
 C1898 C 0.33531 0.79690 0.15226
 C1899 C 0.33470 0.88834 0.15451
 C1900 C 0.34495 0.90505 0.13409
 C1901 C 0.35783 0.89202 0.11220
 C1902 C 0.35994 0.86081 0.11139
 C1903 C 0.37482 0.84783 0.09035
 C1904 C 0.38796 0.86458 0.07120
 C1905 C 0.38620 0.89492 0.07175
 C1906 C 0.37005 0.90916 0.09164
 C1907 C 0.36778 0.94004 0.09037
 C1908 C 0.38360 0.95598 0.07166
 C1909 C 0.40178 0.94166 0.05361
 C1910 C 0.40200 0.91115 0.05317
 H1911 H 0.35477 0.80001 0.11572
 H1912 H 0.31576 0.85291 0.19117
 H1913 H 0.33459 0.77331 0.15108
 H1914 H 0.32547 0.89940 0.17106
 H1915 H 0.34334 0.92834 0.13639
 H1916 H 0.37790 0.82462 0.08857
 H1917 H 0.40013 0.85361 0.05593
 H1918 H 0.35470 0.95257 0.10395
 H1919 H 0.38338 0.97961 0.07241
 H1920 H 0.41623 0.90004 0.03921
 C1921 C 0.84327 0.31517 0.63225
 C1922 C 0.84563 0.34600 0.63316
 C1923 C 0.83410 0.36027 0.65513
 C1924 C 0.82198 0.34405 0.67559
 C1925 C 0.81976 0.31360 0.67419
 C1926 C 0.83031 0.29942 0.65232
 C1927 C 0.83424 0.39066 0.65641
 C1928 C 0.84546 0.40737 0.63635
 C1929 C 0.85794 0.39429 0.61433
 C1930 C 0.85874 0.36308 0.61301
 C1931 C 0.87346 0.34995 0.59197
 C1932 C 0.88749 0.36658 0.57317
 C1933 C 0.88679 0.39693 0.57411
 C1934 C 0.87099 0.41135 0.59410
 C1935 C 0.86977 0.44228 0.59324
 C1936 C 0.88609 0.45800 0.57473
 C1937 C 0.90372 0.44344 0.55648
 C1938 C 0.90315 0.41296 0.55575
 H1939 H 0.85036 0.30255 0.61603
 H1940 H 0.81309 0.35522 0.69222
 H1941 H 0.82837 0.27591 0.65068
 H1942 H 0.82535 0.40172 0.67308
 H1943 H 0.84495 0.43065 0.63906
 H1944 H 0.87572 0.32669 0.58992
 H1945 H 0.89944 0.35548 0.55785
 H1946 H 0.85703 0.45499 0.60690
 H1947 H 0.88658 0.48158 0.57572
 H1948 H 0.91695 0.40169 0.54161
 C1949 C 1.17854 1.14968 0.63560
 C1950 C 1.15508 1.13003 0.64344
 C1951 C 1.14310 1.13304 0.66838
 C1952 C 1.15571 1.15378 0.68514
 C1953 C 1.17963 1.17247 0.67724
 C1954 C 1.19051 1.17047 0.65224
 C1955 C 1.11858 1.11542 0.67641
 C1956 C 1.10485 1.09551 0.65991
 C1957 C 1.11590 1.09178 0.63487
 C1958 C 1.14257 1.10812 0.62710
 C1959 C 1.15612 1.10185 0.60334
 C1960 C 1.14258 1.08215 0.58675
 C1961 C 1.11482 1.06831 0.59297
 C1962 C 1.10115 1.07248 0.61718
 C1963 C 1.07258 1.05816 0.62212
 C1964 C 1.05763 1.04180 0.60324
 C1965 C 1.07082 1.03895 0.57906
 C1966 C 1.10006 1.05124 0.57453
 H1967 H 1.18771 1.15001 0.61656
 H1968 H 1.14676 1.15542 0.70434
 H1969 H 1.20881 1.18475 0.64551
 H1970 H 1.10948 1.11744 0.69553
 H1971 H 1.08590 1.08291 0.66752
 H1972 H 1.17758 1.11158 0.59711
 H1973 H 1.15348 1.07842 0.56847
 H1974 H 1.06038 1.06037 0.63986
 H1975 H 1.03501 1.03256 0.60725
 H1976 H 1.11076 1.04890 0.55599
 C1977 C 0.64854 0.68016 0.13122
 C1978 C 0.62784 0.65790 0.13911
 C1979 C 0.63005 0.64788 0.16453
 C1980 C 0.65107 0.66075 0.18149
 C1981 C 0.67067 0.68341 0.17358
 C1982 C 0.66953 0.69268 0.14824
 C1983 C 0.61128 0.62509 0.17299
 C1984 C 0.59093 0.61119 0.15649
 C1985 C 0.58807 0.62010 0.13089
 C1986 C 0.60566 0.64480 0.12247
 C1987 C 0.60037 0.65572 0.09776
 C1988 C 0.58062 0.64156 0.08103
 C1989 C 0.56566 0.61590 0.08817
 C1990 C 0.56858 0.60495 0.11327
 C1991 C 0.55293 0.57858 0.11923
 C1992 C 0.53674 0.56307 0.10056
 C1993 C 0.53539 0.57349 0.07557
 C1994 C 0.54876 0.60055 0.06986
 H1995 H 0.64951 0.68813 0.11196
 H1996 H 0.65202 0.65308 0.20100
 H1997 H 0.68457 0.71000 0.14155
 H1998 H 0.61270 0.61756 0.19252
 H1999 H 0.57743 0.59370 0.16452
 H2000 H 0.61102 0.67540 0.09074
 H2001 H 0.57778 0.65035 0.06201
 H2002 H 0.55391 0.56859 0.13775
 H2003 H 0.52643 0.54226 0.10551
 H2004 H 0.54743 0.60912 0.05065
 C2005 C 1.15322 0.81511 0.36334
 C2006 C 1.13427 0.83852 0.35510
 C2007 C 1.13841 0.84906 0.33000
 C2008 C 1.15943 0.83546 0.31355
 C2009 C 1.17734 0.81175 0.32184
 C2010 C 1.17435 0.80204 0.34695
 C2011 C 1.12166 0.87318 0.32145
 C2012 C 1.10153 0.88780 0.33758
 C2013 C 1.09668 0.87823 0.36278
 C2014 C 1.11205 0.85225 0.37115
 C2015 C 1.10451 0.84065 0.39520
 C2016 C 1.08469 0.85519 0.41147
 C2017 C 1.07196 0.88196 0.40457
 C2018 C 1.07725 0.89381 0.38006
 C2019 C 1.06389 0.92134 0.37440
 C2020 C 1.04748 0.93690 0.39284
 C2021 C 1.04366 0.92540 0.41730
 C2022 C 1.05487 0.89740 0.42260
 H2023 H 1.15279 0.80675 0.38249
 H2024 H 1.16194 0.84349 0.29426
 H2025 H 1.18809 0.78392 0.35394
 H2026 H 1.12457 0.88120 0.30220
 H2027 H 1.08968 0.90634 0.32957
 H2028 H 1.11330 0.82006 0.40196
 H2029 H 1.08004 0.84576 0.42999
 H2030 H 1.06688 0.93209 0.35635
 H2031 H 1.03893 0.95848 0.38824
 H2032 H 1.05164 0.88800 0.44135
 C2033 C 0.67781 0.33419 -0.13104
 C2034 C 0.65602 0.35547 -0.13905
 C2035 C 0.64720 0.35570 -0.16503
 C2036 C 0.66071 0.33629 -0.18222
 C2037 C 0.68308 0.31613 -0.17415
 C2038 C 0.69113 0.31496 -0.14837
 C2039 C 0.62512 0.37543 -0.17389
 C2040 C 0.61099 0.39482 -0.15743
 C2041 C 0.61879 0.39552 -0.13135
 C2042 C 0.64246 0.37622 -0.12220
 C2043 C 0.65202 0.37850 -0.09659
 C2044 C 0.63782 0.39775 -0.08007
 C2045 C 0.61341 0.41529 -0.08830
 C2046 C 0.60362 0.41476 -0.11405
 C2047 C 0.57840 0.43291 -0.12113
 C2048 C 0.56298 0.44982 -0.10314
 C2049 C 0.57229 0.44942 -0.07762
 C2050 C 0.59814 0.43276 -0.07055
 H2051 H 0.68496 0.33162 -0.11153
 H2052 H 0.65393 0.33722 -0.20209
 H2053 H 0.70818 0.29944 -0.14156
 H2054 H 0.61850 0.37577 -0.19381
 H2055 H 0.59426 0.40929 -0.16593
 H2056 H 0.67073 0.36584 -0.08865
 H2057 H 0.64566 0.39847 -0.06046
 H2058 H 0.56921 0.43384 -0.14018
 H2059 H 0.54308 0.46253 -0.10914
 H2060 H 0.60575 0.43236 -0.05087
 C2061 C 0.84212 1.18300 0.36547
 C2062 C 0.86144 1.15985 0.35731
 C2063 C 0.85887 1.15069 0.33166
 C2064 C 0.83897 1.16526 0.31478
 C2065 C 0.82077 1.18876 0.32299
 C2066 C 0.82221 1.19715 0.34855
 C2067 C 0.87618 1.12709 0.32292
 C2068 C 0.89561 1.11177 0.33925
 C2069 C 0.89906 1.11997 0.36497
 C2070 C 0.88271 1.14519 0.37381
 C2071 C 0.88841 1.15515 0.39877
 C2072 C 0.90773 1.13997 0.41514
 C2073 C 0.92186 1.11415 0.40746
 C2074 C 0.91817 1.10380 0.38225
 C2075 C 0.93295 1.07717 0.37579
 C2076 C 0.94933 1.06105 0.39402
 C2077 C 0.95171 1.07105 0.41909
 C2078 C 0.93887 1.09817 0.42532
 H2079 H 0.84144 1.19047 0.38487
 H2080 H 0.83772 1.15822 0.29511
 H2081 H 0.80822 1.21506 0.35551
 H2082 H 0.87441 1.12011 0.30327
 H2083 H 0.90802 1.09377 0.33096
 H2084 H 0.87854 1.17493 0.40622
 H2085 H 0.91103 1.14821 0.43429
 H2086 H 0.93127 1.06755 0.35716
 H2087 H 0.95906 1.04017 0.38867
 H2088 H 0.94088 1.10643 0.44459
 C2089 C 0.37817 0.66428 -0.17093
 C2090 C 0.36438 0.64301 -0.15501
 C2091 C 0.33177 0.64453 -0.15118
 C2092 C 0.31393 0.66597 -0.16340
 C2093 C 0.32795 0.68547 -0.18017
 C2094 C 0.36008 0.68486 -0.18352
 C2095 C 0.31691 0.62405 -0.13593
 C2096 C 0.33352 0.60172 -0.12452
 C2097 C 0.36593 0.59902 -0.12784
 C2098 C 0.38170 0.62017 -0.14313
 C2099 C 0.41424 0.61787 -0.14589
 C2100 C 0.43105 0.59654 -0.13325
 C2101 C 0.41617 0.57638 -0.11769
 C2102 C 0.38331 0.57656 -0.11550
 C2103 C 0.36937 0.55484 -0.10015
 C2104 C 0.38746 0.53656 -0.08511
 C2105 C 0.41980 0.53860 -0.08562
 C2106 C 0.43414 0.55715 -0.10305
 H2107 H 0.40266 0.66517 -0.17484
 H2108 H 0.28888 0.66624 -0.16123
 H2109 H 0.37112 0.69982 -0.19667
 H2110 H 0.29204 0.62516 -0.13290
 H2111 H 0.32011 0.58713 -0.11285
 H2112 H 0.42778 0.63267 -0.15725
 H2113 H 0.45611 0.59628 -0.13521
 H2114 H 0.34463 0.55211 -0.09845
 H2115 H 0.37612 0.52185 -0.07191
 H2116 H 0.45929 0.55866 -0.10337
 C2117 C 0.87732 0.84972 0.68217
 C2118 C 0.86539 0.86064 0.65893
 C2119 C 0.83578 0.85051 0.65087
 C2120 C 0.81939 0.82997 0.66530
 C2121 C 0.83129 0.82006 0.68846
 C2122 C 0.86037 0.82995 0.69671
 C2123 C 0.82231 0.86129 0.62870
 C2124 C 0.83734 0.88229 0.61434
 C2125 C 0.86689 0.89303 0.62139
 C2126 C 0.88158 0.88141 0.64362
 C2127 C 0.91217 0.89045 0.64947
 C2128 C 0.92811 0.90974 0.63391
 C2129 C 0.91402 0.92137 0.61230
 C2130 C 0.88283 0.91407 0.60626
 C2131 C 0.86908 0.92774 0.58491
 C2132 C 0.88665 0.94511 0.56874
 C2133 C 0.91817 0.95000 0.57360
 C2134 C 0.93140 0.93932 0.59606
 H2135 H 0.89920 0.85660 0.69012
 H2136 H 0.79670 0.82261 0.65899
 H2137 H 0.86996 0.82261 0.71468
 H2138 H 0.79973 0.85356 0.62245
 H2139 H 0.82542 0.88901 0.59729
 H2140 H 0.92502 0.88220 0.66552
 H2141 H 0.95189 0.91534 0.63869
 H2142 H 0.84497 0.92516 0.57990
 H2143 H 0.87571 0.95399 0.55184
 H2144 H 0.95577 0.94335 0.60003
 C2145 C 0.38602 0.32827 0.17584
 C2146 C 0.37507 0.34129 0.15315
 C2147 C 0.34397 0.33544 0.14559
 C2148 C 0.32490 0.31737 0.16027
 C2149 C 0.33580 0.30598 0.18318
 C2150 C 0.36652 0.31112 0.19066
 C2151 C 0.33164 0.34842 0.12390
 C2152 C 0.34896 0.36825 0.11007
 C2153 C 0.37964 0.37553 0.11725
 C2154 C 0.39351 0.36065 0.13825
 C2155 C 0.42532 0.36550 0.14351
 C2156 C 0.44290 0.38456 0.12892
 C2157 C 0.42933 0.40012 0.10906
 C2158 C 0.39724 0.39651 0.10350
 C2159 C 0.38401 0.41407 0.08425
 C2160 C 0.40255 0.43194 0.06940
 C2161 C 0.43448 0.43347 0.07370
 C2162 C 0.44780 0.41859 0.09409
 H2163 H 0.40900 0.33189 0.18333
 H2164 H 0.30096 0.31364 0.15466
 H2165 H 0.37532 0.30236 0.20843
 H2166 H 0.30807 0.34367 0.11784
 H2167 H 0.33777 0.37703 0.09339
 H2168 H 0.43771 0.35417 0.15833
 H2169 H 0.46739 0.38713 0.13324
 H2170 H 0.35952 0.41441 0.08003
 H2171 H 0.39202 0.44403 0.05388
 H2172 H 0.47263 0.42015 0.09738
   
