data_POSCAR
  _audit_creation_date              2014-09-24
  _audit_creation_method            'ToBaCCo'
  _symmetry_space_group_name_H-M    'P1'
  _symmetry_Int_Tables_number       1
  _symmetry_cell_setting            triclinic
  loop_
  _symmetry_equiv_pos_as_xyz
 x,y,z
_cell_length_a 30.8325
_cell_length_b 31.6066
_cell_length_c 35.6011
_cell_angle_alpha 89.899000
_cell_angle_beta 88.482600
_cell_angle_gamma 90.614600
loop_
  _atom_site_label
  _atom_site_type_symbol
  _atom_site_fract_x
  _atom_site_fract_y
  _atom_site_fract_z
C1 C 0.42026 0.01375 0.24587
 C2 C 0.08368 -0.01136 0.74813
 C3 C 0.58451 0.48911 0.25386
 C4 C 0.90100 0.51405 0.75476
 C5 C 0.25489 0.33546 0.99634
 C6 C 0.74751 0.15949 0.99433
 C7 C 0.24499 0.66599 0.49909
 C8 C 0.75731 0.82397 0.49696
 C9 C -0.00871 0.25301 0.38072
 C10 C 0.01200 0.75304 0.13070
 C11 C 0.51417 0.24409 0.62463
 C12 C 0.49635 0.75503 0.88114
 C13 C -0.24592 0.68021 1.00625
 C14 C -0.25961 0.32765 0.49611
 C15 C 0.24758 -0.16563 -0.00226
 C16 C 0.26094 1.16926 0.50385
 C17 C 0.08955 0.50703 0.25008
 C18 C -0.08210 1.00051 0.25149
 C19 C 0.41613 0.49617 -0.24362
 C20 C 0.59163 0.00292 -0.25112
 C21 C -0.00051 0.24594 0.87797
 C22 C 0.50306 0.24778 0.11381
 C23 C -0.00161 0.75582 0.61754
 C24 C 0.50096 0.75090 0.37818
 Zr25 Zr 0.03911 -0.02548 1.04620
 O26 O 0.08370 0.00771 1.07977
 O27 O 0.04387 -0.08632 1.06765
 O28 O 0.01529 -0.01973 1.10242
 O29 O 0.10942 -0.05508 0.97312
 O30 O -0.05266 0.00749 1.09754
 O31 O 0.10297 -0.04797 1.03686
 O32 O -0.00662 -0.12380 1.03528
 O33 O -0.02692 -0.04250 1.04618
 O34 O 0.03087 -0.06471 0.99954
 O35 O 0.00561 0.03182 1.04288
 O36 O 0.06296 0.00955 0.99952
 Zr37 Zr -0.04814 0.00970 0.94613
 Zr38 Zr -0.06006 0.01476 1.03940
 Zr39 Zr 0.05130 -0.02982 0.95341
 Zr40 Zr -0.03461 -0.07992 0.99850
 O41 O 0.10378 0.00576 0.92979
 O42 O -0.08581 -0.10128 1.03472
 O43 O -0.01443 -0.04772 0.94924
 O44 O -0.07113 -0.02472 0.99327
 O45 O -0.04040 0.05005 0.99215
 O46 O 0.01782 0.02639 0.94735
 C47 C 0.02490 -0.12076 1.05820
 C48 C 0.12337 -0.05968 1.00655
 C49 C -0.02089 -0.00597 1.11672
 O50 O -0.11563 -0.01815 1.06058
 O51 O -0.11498 0.04622 1.01928
 O52 O -0.10994 0.03749 0.95565
 C53 C -0.12929 0.05105 0.98592
 O54 O 0.07555 0.08543 1.02986
 Zr55 Zr 0.02554 0.06434 0.99420
 O56 O -0.04934 0.06893 0.92071
 O57 O -0.06865 0.07303 1.06779
 O58 O 0.00048 0.11691 1.02427
 O59 O 0.07889 0.08897 0.96195
 O60 O 0.00089 0.10583 0.95403
 C61 C -0.02738 0.10225 0.92824
 O62 O -0.09583 -0.02312 0.91559
 O63 O 0.06266 -0.08932 0.92786
 O64 O -0.02576 -0.00160 0.89002
 O65 O 0.04242 -0.02805 0.89588
 O66 O -0.01577 -0.13442 0.96778
 O67 O -0.08139 -0.10523 0.96170
 C68 C 0.01057 -0.01601 0.87645
 H69 H 0.04817 -0.09082 0.99871
 H70 H -0.10240 -0.03139 0.99142
 H71 H 0.02858 0.04158 0.92456
 H72 H 0.01086 0.04964 1.06518
 H73 H -0.08807 -0.13228 1.03095
 H74 H -0.13111 0.00159 1.07771
 H75 H -0.09607 0.07068 1.08288
 H76 H 0.01334 0.14276 1.01254
 H77 H -0.03045 -0.15930 0.97974
 H78 H 0.09013 -0.08682 0.91284
 H79 H 0.11988 -0.01349 0.91261
 H80 H 0.07715 0.12026 0.96277
 H81 H -0.11062 -0.09674 0.97076
 H82 H -0.10606 -0.00321 0.89625
 H83 H 0.09477 -0.01285 1.09820
 H84 H 0.07934 0.11646 1.02726
 Zr85 Zr 0.53225 0.47804 0.55230
 O86 O 0.58193 0.50820 0.58252
 O87 O 0.52399 0.42234 0.58196
 O88 O 0.50943 0.49102 0.60792
 O89 O 0.60265 0.44001 0.48136
 O90 O 0.44305 0.52079 0.59987
 O91 O 0.59096 0.44357 0.54491
 O92 O 0.47158 0.38687 0.55007
 O93 O 0.46511 0.46701 0.55110
 O94 O 0.52130 0.43644 0.50787
 O95 O 0.50415 0.53770 0.54575
 O96 O 0.56030 0.50795 0.50454
 Zr97 Zr 0.45092 0.51494 0.44835
 Zr98 Zr 0.43744 0.52592 0.54133
 Zr99 Zr 0.54599 0.46705 0.46006
 Zr100 Zr 0.45481 0.42733 0.50548
 O101 O 0.60100 0.49671 0.43431
 O102 O 0.39682 0.41408 0.53683
 O103 O 0.47908 0.45485 0.45518
 O104 O 0.42411 0.48501 0.49665
 O105 O 0.46118 0.55676 0.49301
 O106 O 0.51805 0.52583 0.45056
 C107 C 0.49910 0.39053 0.57652
 C108 C 0.61278 0.43131 0.51529
 C109 C 0.47350 0.50711 0.62046
 O110 O 0.37936 0.49887 0.56402
 O111 O 0.38425 0.55779 0.51934
 O112 O 0.38986 0.54572 0.45615
 C113 C 0.37023 0.56090 0.48580
 O114 O 0.58074 0.58216 0.53073
 Zr115 Zr 0.52817 0.56542 0.49609
 O116 O 0.45554 0.57385 0.42213
 O117 O 0.43367 0.58703 0.56535
 O118 O 0.51085 0.62135 0.52545
 O119 O 0.58217 0.58407 0.46153
 O120 O 0.50516 0.60908 0.45726
 C121 C 0.47756 0.60680 0.43094
 O122 O 0.40240 0.48480 0.41671
 O123 O 0.55304 0.40471 0.43920
 O124 O 0.47379 0.50022 0.39257
 O125 O 0.53695 0.46504 0.40220
 O126 O 0.47334 0.36857 0.48163
 O127 O 0.40878 0.40657 0.46592
 C128 C 0.50778 0.47973 0.38092
 H129 H 0.53492 0.40845 0.51064
 H130 H 0.39254 0.48001 0.49432
 H131 H 0.53024 0.53912 0.42734
 H132 H 0.51053 0.55632 0.56729
 H133 H 0.39419 0.38291 0.53918
 H134 H 0.36559 0.52072 0.58017
 H135 H 0.40662 0.58766 0.58101
 H136 H 0.52710 0.64523 0.51345
 H137 H 0.45560 0.34619 0.49437
 H138 H 0.57999 0.40433 0.42338
 H139 H 0.61505 0.47521 0.41796
 H140 H 0.58335 0.61543 0.46146
 H141 H 0.39420 0.38040 0.47531
 H142 H 0.39395 0.50520 0.39708
 H143 H 0.59014 0.48822 0.60255
 H144 H 0.58989 0.61175 0.52548
 Zr145 Zr 0.49539 1.05125 0.54242
 O146 O 0.45367 1.05390 0.59053
 O147 O 0.51933 1.11266 0.55004
 O148 O 0.52343 1.04174 0.59740
 O149 O 0.41946 1.08182 0.47345
 O150 O 0.57881 0.99676 0.58413
 O151 O 0.43396 1.08212 0.53603
 O152 O 0.57223 1.12516 0.50526
 O153 O 0.56178 1.04573 0.52886
 O154 O 0.50510 1.07673 0.48821
 O155 O 0.50829 0.98613 0.54520
 O156 O 0.45402 1.01733 0.50653
 Zr157 Zr 0.54634 0.96891 0.44004
 Zr158 Zr 0.57375 0.98036 0.52846
 Zr159 Zr 0.46754 1.04084 0.45192
 Zr160 Zr 0.57064 1.06899 0.47397
 O161 O 0.40482 1.01820 0.43896
 O162 O 0.63436 1.07676 0.49414
 O163 O 0.53334 1.03453 0.43594
 O164 O 0.58666 1.00486 0.47475
 O165 O 0.53549 0.94324 0.49364
 O166 O 0.48000 0.97603 0.45307
 C167 C 0.54806 1.13627 0.53320
 C168 C 0.41015 1.09190 0.50761
 C169 C 0.55670 1.01935 0.60703
 O170 O 0.63798 1.00115 0.53837
 O171 O 0.61889 0.93604 0.50860
 O172 O 0.60367 0.93131 0.44657
 C173 C 0.62700 0.92235 0.47538
 O174 O 0.42403 0.96117 0.55282
 Zr175 Zr 0.46981 0.95338 0.50772
 O176 O 0.51973 0.90796 0.43111
 O177 O 0.56989 0.92499 0.56204
 O178 O 0.47998 0.90290 0.54577
 O179 O 0.40654 0.94331 0.48726
 O180 O 0.46951 0.89687 0.47847
 C181 C 0.49093 0.88538 0.44922
 O182 O 0.59149 0.96758 0.39414
 O183 O 0.47001 1.09769 0.42032
 O184 O 0.52243 0.98027 0.38554
 O185 O 0.46790 1.02784 0.39394
 O186 O 0.55835 1.12026 0.43735
 O187 O 0.61305 1.06668 0.42596
 C188 C 0.49212 1.00409 0.37319
 H189 H 0.49607 1.10659 0.48620
 H190 H 0.61769 1.00245 0.46733
 H191 H 0.46131 0.96110 0.43506
 H192 H 0.50227 0.97444 0.57063
 H193 H 0.64480 1.10547 0.48689
 H194 H 0.65062 0.98118 0.55650
 H195 H 0.59799 0.92226 0.57470
 H196 H 0.45515 0.88289 0.54402
 H197 H 0.58226 1.14123 0.43970
 H198 H 0.44168 1.10034 0.40803
 H199 H 0.39317 1.03782 0.42004
 H200 H 0.39620 0.91521 0.49635
 H201 H 0.63301 1.09142 0.42611
 H202 H 0.58787 0.93991 0.38130
 H203 H 0.45672 1.08280 0.60113
 H204 H 0.40748 0.93447 0.55684
 Zr205 Zr -0.03086 0.53677 1.04861
 O206 O -0.07802 0.52197 1.09105
 O207 O -0.01436 0.59623 1.06645
 O208 O -0.00374 0.52837 1.10278
 O209 O -0.10217 0.57146 0.97946
 O210 O 0.05617 0.48719 1.09402
 O211 O -0.09080 0.56960 1.04262
 O212 O 0.04635 0.61328 1.03127
 O213 O 0.03669 0.53706 1.03948
 O214 O -0.01860 0.56928 0.99804
 O215 O -0.01169 0.47345 1.04878
 O216 O -0.06700 0.50509 1.00807
 Zr217 Zr 0.03398 0.46952 0.94460
 Zr218 Zr 0.05543 0.47369 1.03595
 Zr219 Zr -0.05049 0.53510 0.95668
 Zr220 Zr 0.04806 0.56719 0.98801
 O221 O -0.11034 0.51080 0.93788
 O222 O 0.11196 0.57644 1.00732
 O223 O 0.01668 0.53447 0.94473
 O224 O 0.06898 0.50435 0.98460
 O225 O 0.02186 0.43858 0.99600
 O226 O -0.03332 0.47126 0.95455
 C227 C 0.01939 0.61861 1.05909
 C228 C -0.11314 0.58036 1.01371
 C229 C 0.02979 0.50848 1.11499
 O230 O 0.11710 0.49780 1.05037
 O231 O 0.10525 0.43477 1.01333
 O232 O 0.09328 0.43500 0.95039
 C233 C 0.11598 0.42486 0.97925
 O234 O -0.09500 0.44543 1.04939
 Zr235 Zr -0.04534 0.44305 1.00690
 O236 O 0.01455 0.40673 0.93132
 O237 O 0.05331 0.41551 1.06543
 O238 O -0.03578 0.39022 1.04252
 O239 O -0.10525 0.42874 0.98155
 O240 O -0.03809 0.38973 0.97522
 C241 C -0.01334 0.38118 0.94735
 O242 O 0.08199 0.48026 0.90185
 O243 O -0.04890 0.59477 0.92959
 O244 O 0.01015 0.48039 0.88947
 O245 O -0.04509 0.52728 0.89785
 O246 O 0.03331 0.62485 0.96086
 O247 O 0.09026 0.57540 0.94030
 C248 C -0.02001 0.50451 0.87684
 H249 H -0.02891 0.59884 0.99901
 H250 H 0.10042 0.50487 0.97829
 H251 H -0.04951 0.45642 0.93476
 H252 H -0.01858 0.45958 1.07320
 H253 H 0.11908 0.60698 1.00475
 H254 H 0.13016 0.47683 1.06732
 H255 H 0.08103 0.41346 1.07876
 H256 H -0.05954 0.36954 1.03829
 H257 H 0.05449 0.64634 0.96942
 H258 H -0.07656 0.59735 0.91624
 H259 H -0.12222 0.53237 0.92084
 H260 H -0.11412 0.39974 0.98941
 H261 H 0.10632 0.60256 0.94238
 H262 H 0.08320 0.45451 0.88591
 H263 H -0.08044 0.54714 1.10759
 H264 H -0.11056 0.41791 1.05079
 Zr265 Zr -0.03711 0.46525 0.44995
 O266 O -0.08151 0.47084 0.40579
 O267 O -0.01283 0.40552 0.43825
 O268 O -0.00803 0.46965 0.39571
 O269 O -0.11258 0.43249 0.51957
 O270 O 0.04514 0.51990 0.40066
 O271 O -0.09524 0.42887 0.45704
 O272 O 0.04148 0.39463 0.47946
 O273 O 0.02942 0.47129 0.45949
 O274 O -0.02670 0.43874 0.50270
 O275 O -0.02330 0.53026 0.44558
 O276 O -0.07808 0.49865 0.48717
 Zr277 Zr 0.01536 0.54618 0.54894
 Zr278 Zr 0.04257 0.53625 0.45795
 Zr279 Zr -0.06422 0.47374 0.54012
 Zr280 Zr 0.03888 0.44800 0.51369
 O281 O -0.12672 0.49490 0.55675
 O282 O 0.10352 0.44142 0.49277
 O283 O 0.00142 0.48070 0.55375
 O284 O 0.05540 0.51208 0.51143
 O285 O 0.00517 0.57239 0.49577
 O286 O -0.05097 0.53863 0.53860
 C287 C 0.01783 0.38373 0.45210
 C288 C -0.12004 0.42009 0.48593
 C289 C 0.02282 0.49317 0.38183
 O290 O 0.10572 0.51506 0.44348
 O291 O 0.08899 0.57922 0.47734
 O292 O 0.06917 0.58905 0.53902
 C293 C 0.09398 0.59640 0.50954
 O294 O -0.10696 0.55642 0.44232
 Zr295 Zr -0.06076 0.56297 0.48526
 O296 O -0.00929 0.60582 0.56083
 O297 O 0.04014 0.59224 0.42544
 O298 O -0.04832 0.61386 0.44744
 O299 O -0.12393 0.57349 0.50816
 O300 O -0.05961 0.61895 0.51651
 C301 C -0.03761 0.62905 0.54518
 O302 O 0.06274 0.54006 0.59047
 O303 O -0.06327 0.41653 0.57112
 O304 O -0.01316 0.54049 0.60428
 O305 O -0.06248 0.48668 0.59736
 O306 O 0.02655 0.39442 0.54847
 O307 O 0.07961 0.45082 0.56090
 C308 C -0.04353 0.51512 0.61685
 H309 H -0.03542 0.40855 0.50446
 H310 H 0.08637 0.51522 0.51764
 H311 H -0.06989 0.55330 0.55718
 H312 H -0.02955 0.54130 0.42028
 H313 H 0.11332 0.41270 0.49953
 H314 H 0.11831 0.53544 0.42489
 H315 H 0.06827 0.59475 0.41142
 H316 H -0.07181 0.63470 0.45127
 H317 H 0.05067 0.37438 0.54414
 H318 H -0.09162 0.41396 0.58476
 H319 H -0.13860 0.47410 0.57529
 H320 H -0.13312 0.60187 0.49977
 H321 H 0.09890 0.42597 0.56074
 H322 H 0.06236 0.56666 0.60523
 H323 H -0.08125 0.44380 0.39159
 H324 H -0.12123 0.58391 0.43830
 Zr325 Zr 0.46113 -0.02469 -0.06337
 O326 O 0.41224 -0.02152 -0.10399
 O327 O 0.48954 -0.08145 -0.08059
 O328 O 0.48290 -0.01077 -0.11908
 O329 O 0.39537 -0.06943 0.00905
 O330 O 0.53169 0.04349 -0.11306
 O331 O 0.40839 -0.06763 -0.05433
 O332 O 0.54695 -0.08886 -0.04216
 O333 O 0.52758 -0.01227 -0.05728
 O334 O 0.47806 -0.05346 -0.01289
 O335 O 0.46744 0.04154 -0.06336
 O336 O 0.41986 0.00123 -0.02155
 Zr337 Zr 0.51157 0.05338 0.03831
 Zr338 Zr 0.53347 0.05394 -0.05433
 Zr339 Zr 0.44017 -0.02539 0.02918
 Zr340 Zr 0.54304 -0.03840 -0.00532
 O341 O 0.37743 -0.01120 0.05089
 O342 O 0.60601 -0.03723 -0.03073
 O343 O 0.50592 -0.01303 0.03909
 O344 O 0.55206 0.02637 -0.00341
 O345 O 0.49510 0.08299 -0.01212
 O346 O 0.44560 0.04045 0.03169
 C347 C 0.52227 -0.10141 -0.06812
 C348 C 0.38725 -0.08068 -0.02458
 C349 C 0.50978 0.01714 -0.13289
 O350 O 0.59658 0.04036 -0.07551
 O351 O 0.58008 0.09699 -0.03342
 O352 O 0.56454 0.09622 0.02967
 C353 C 0.58856 0.10679 0.00072
 O354 O 0.38082 0.06595 -0.06070
 Zr355 Zr 0.42968 0.06691 -0.01981
 O356 O 0.48208 0.10965 0.05461
 O357 O 0.52274 0.11303 -0.08019
 O358 O 0.43194 0.12133 -0.05473
 O359 O 0.36736 0.06691 0.00671
 O360 O 0.42764 0.12069 0.01383
 C361 C 0.45095 0.13129 0.04139
 O362 O 0.55960 0.05422 0.07983
 O363 O 0.44908 -0.08483 0.05538
 O364 O 0.49113 0.03706 0.09426
 O365 O 0.44607 -0.01986 0.08726
 O366 O 0.53939 -0.09323 0.02897
 O367 O 0.59293 -0.03975 0.03452
 C368 C 0.46698 0.00647 0.10737
 H369 H 0.47281 -0.08441 -0.01240
 H370 H 0.58326 0.03022 0.00143
 H371 H 0.42723 0.05160 0.05259
 H372 H 0.45768 0.05412 -0.08712
 H373 H 0.61915 -0.06532 -0.02661
 H374 H 0.60519 0.06363 -0.09299
 H375 H 0.54912 0.11955 -0.09573
 H376 H 0.40559 0.13811 -0.04895
 H377 H 0.56396 -0.11155 0.02129
 H378 H 0.42217 -0.09165 0.07014
 H379 H 0.36926 -0.03407 0.06888
 H380 H 0.35399 0.09442 0.00077
 H381 H 0.58239 -0.02335 0.05652
 H382 H 0.55543 0.08025 0.09510
 H383 H 0.41415 -0.04757 -0.11950
 H384 H 0.36847 0.03693 -0.06109
 Zr385 Zr 0.53486 0.54863 -0.04467
 O386 O 0.58386 0.54951 -0.08753
 O387 O 0.50852 0.60788 -0.05398
 O388 O 0.51253 0.54254 -0.10089
 O389 O 0.60900 0.57182 0.02530
 O390 O 0.45412 0.49798 -0.09522
 O391 O 0.58878 0.58902 -0.03400
 O392 O 0.45569 0.61874 -0.00904
 O393 O 0.46778 0.54350 -0.03456
 O394 O 0.52263 0.57065 0.01003
 O395 O 0.52048 0.48417 -0.05148
 O396 O 0.57369 0.51174 -0.00969
 Zr397 Zr 0.47577 0.46186 0.05049
 Zr398 Zr 0.45370 0.47899 -0.03902
 Zr399 Zr 0.55814 0.53212 0.04517
 Zr400 Zr 0.45637 0.56259 0.02127
 O401 O 0.61888 0.50768 0.06047
 O402 O 0.39261 0.57194 0.00207
 O403 O 0.49141 0.52625 0.05861
 O404 O 0.43825 0.49939 0.01562
 O405 O 0.48838 0.43903 -0.00380
 O406 O 0.54305 0.46798 0.04092
 C407 C 0.47881 0.62992 -0.03762
 C408 C 0.61385 0.59257 -0.00560
 C409 C 0.48067 0.52103 -0.11469
 O410 O 0.39240 0.50380 -0.05223
 O411 O 0.40426 0.43717 -0.02209
 O412 O 0.42287 0.42003 0.03760
 C413 C 0.39868 0.41628 0.00841
 O414 O 0.60181 0.44652 -0.05876
 Zr415 Zr 0.55508 0.44797 -0.01401
 O416 O 0.50009 0.40209 0.06110
 O417 O 0.45610 0.42479 -0.07384
 O418 O 0.54337 0.39847 -0.05263
 O419 O 0.61844 0.43929 0.00602
 O420 O 0.55274 0.39133 0.01604
 C421 C 0.52955 0.37997 0.04461
 O422 O 0.42496 0.46105 0.09169
 O423 O 0.55747 0.58753 0.07851
 O424 O 0.49592 0.47079 0.10671
 O425 O 0.55426 0.51594 0.10247
 O426 O 0.46801 0.61344 0.05861
 O427 O 0.41478 0.55609 0.06956
 C428 C 0.52691 0.49280 0.12128
 H429 H 0.53116 0.60066 0.01338
 H430 H 0.40693 0.49643 0.02202
 H431 H 0.56041 0.45233 0.05926
 H432 H 0.52809 0.47376 -0.07697
 H433 H 0.38280 0.59991 0.01129
 H434 H 0.37970 0.48507 -0.07146
 H435 H 0.42870 0.42382 -0.08780
 H436 H 0.56666 0.37736 -0.04995
 H437 H 0.44343 0.63326 0.05689
 H438 H 0.58559 0.58884 0.09135
 H439 H 0.63067 0.52696 0.07971
 H440 H 0.62765 0.41054 -0.00165
 H441 H 0.39474 0.58032 0.07090
 H442 H 0.42633 0.43347 0.10497
 H443 H 0.58249 0.57730 -0.10052
 H444 H 0.61320 0.47574 -0.06182
 Zr445 Zr 0.03449 1.04508 0.45153
 O446 O 0.08067 1.04845 0.40646
 O447 O 0.00904 1.10502 0.44348
 O448 O 0.00952 1.04200 0.39629
 O449 O 0.10497 1.07281 0.52476
 O450 O -0.04473 0.99237 0.39980
 O451 O 0.09387 1.07856 0.46190
 O452 O -0.04924 1.11070 0.48397
 O453 O -0.03253 1.03699 0.46077
 O454 O 0.02038 1.06719 0.50581
 O455 O 0.02191 0.98027 0.44341
 O456 O 0.07350 1.00937 0.48701
 Zr457 Zr -0.02263 0.95541 0.54450
 Zr458 Zr -0.04482 0.97207 0.45555
 Zr459 Zr 0.05591 1.02956 0.54161
 Zr460 Zr -0.04577 1.05595 0.51615
 O461 O 0.11760 1.00805 0.55753
 O462 O -0.11004 1.06265 0.49727
 O463 O -0.01051 1.02037 0.55401
 O464 O -0.06134 0.99200 0.50998
 O465 O -0.00858 0.93333 0.49038
 O466 O 0.04417 0.96488 0.53556
 C467 C -0.02438 1.12407 0.45720
 C468 C 0.11608 1.08590 0.49175
 C469 C -0.02102 1.01942 0.38177
 O470 O -0.10712 0.99416 0.44209
 O471 O -0.09280 0.92778 0.47272
 O472 O -0.07389 0.91185 0.53254
 C473 C -0.09807 0.90714 0.50359
 O474 O 0.10586 0.95664 0.43791
 Zr475 Zr 0.05789 0.94516 0.48081
 O476 O 0.00399 0.89623 0.55365
 O477 O -0.03984 0.91860 0.42007
 O478 O 0.04848 0.89674 0.44058
 O479 O 0.12039 0.93462 0.50228
 O480 O 0.05782 0.88720 0.50930
 C481 C 0.03481 0.87516 0.53780
 O482 O -0.07332 0.95513 0.58585
 O483 O 0.05053 1.08415 0.57573
 O484 O -0.00024 0.95915 0.59978
 O485 O 0.05101 1.01190 0.59838
 O486 O -0.03609 1.10792 0.55271
 O487 O -0.08760 1.04871 0.56421
 C488 C 0.02791 0.98340 0.61536
 H489 H 0.02844 1.09736 0.50906
 H490 H -0.09255 0.98778 0.51626
 H491 H 0.06210 0.94939 0.55357
 H492 H 0.02989 0.97110 0.41759
 H493 H -0.12089 1.09035 0.50625
 H494 H -0.11883 0.97477 0.42288
 H495 H -0.06730 0.91660 0.40629
 H496 H 0.07249 0.87639 0.44294
 H497 H -0.06076 1.12740 0.54974
 H498 H 0.07758 1.08634 0.59008
 H499 H 0.12736 1.02682 0.57800
 H500 H 0.13119 0.90768 0.49154
 H501 H -0.10726 1.07322 0.56611
 H502 H -0.07230 0.92760 0.59926
 H503 H 0.07926 1.07738 0.39561
 H504 H 0.12043 0.92977 0.43142
 Zr505 Zr 0.71134 0.27427 0.19043
 O506 O 0.71565 0.31928 0.14628
 O507 O 0.65118 0.25032 0.17373
 O508 O 0.72836 0.25204 0.13520
 O509 O 0.66945 0.34019 0.26117
 O510 O 0.78247 0.20474 0.14387
 O511 O 0.67996 0.33362 0.19776
 O512 O 0.64773 0.18484 0.20022
 O513 O 0.71841 0.20900 0.19708
 O514 O 0.67574 0.25811 0.23961
 O515 O 0.77857 0.26459 0.19295
 O516 O 0.73843 0.31007 0.23411
 Zr517 Zr 0.77905 0.21407 0.29518
 Zr518 Zr 0.78480 0.19958 0.20227
 Zr519 Zr 0.70525 0.29031 0.28352
 Zr520 Zr 0.68519 0.19340 0.24747
 O521 O 0.72235 0.34932 0.30743
 O522 O 0.67842 0.12891 0.23197
 O523 O 0.71131 0.22512 0.29349
 O524 O 0.75061 0.17987 0.25112
 O525 O 0.81442 0.23176 0.24619
 O526 O 0.77152 0.27957 0.28823
 C527 C 0.63427 0.21324 0.17806
 C528 C 0.66644 0.35375 0.22733
 C529 C 0.75776 0.22617 0.12291
 O530 O 0.76518 0.14087 0.17938
 O531 O 0.82409 0.15211 0.22241
 O532 O 0.81643 0.15675 0.28623
 C533 C 0.82888 0.13740 0.25545
 O534 O 0.80360 0.34713 0.19884
 Zr535 Zr 0.80401 0.29667 0.23841
 O536 O 0.83934 0.23726 0.31249
 O537 O 0.84841 0.20694 0.17914
 O538 O 0.86235 0.29122 0.20590
 O539 O 0.80774 0.35583 0.26630
 O540 O 0.85483 0.29453 0.27507
 C541 C 0.86297 0.26911 0.30172
 O542 O 0.77018 0.16610 0.33631
 O543 O 0.64164 0.28343 0.30668
 O544 O 0.76248 0.23628 0.35105
 O545 O 0.70820 0.28369 0.34215
 O546 O 0.62159 0.20400 0.26941
 O547 O 0.68096 0.15218 0.29472
 C548 C 0.73330 0.26269 0.36341
 H549 H 0.64490 0.26629 0.23817
 H550 H 0.75121 0.14888 0.25473
 H551 H 0.78296 0.29609 0.30945
 H552 H 0.79421 0.27457 0.16991
 H553 H 0.64782 0.12032 0.23727
 H554 H 0.78962 0.13060 0.16332
 H555 H 0.85440 0.18177 0.16332
 H556 H 0.88224 0.31428 0.21357
 H557 H 0.60308 0.18088 0.25973
 H558 H 0.63522 0.30989 0.32054
 H559 H 0.69756 0.35821 0.32378
 H560 H 0.83767 0.36711 0.26250
 H561 H 0.65025 0.14408 0.29973
 H562 H 0.79614 0.16690 0.35224
 H563 H 0.68842 0.31694 0.13202
 H564 H 0.83192 0.36219 0.19881
 Zr565 Zr 0.79376 0.73756 0.70197
 O566 O 0.80417 0.69538 0.65659
 O567 O 0.85199 0.76578 0.68385
 O568 O 0.77408 0.75566 0.64712
 O569 O 0.84616 0.68223 0.77166
 O570 O 0.72102 0.80439 0.65717
 O571 O 0.82120 0.67661 0.71277
 O572 O 0.86124 0.82565 0.71836
 O573 O 0.78109 0.80218 0.70856
 O574 O 0.82600 0.75730 0.75020
 O575 O 0.72577 0.74185 0.70542
 O576 O 0.76866 0.69950 0.74598
 Zr577 Zr 0.71754 0.78935 0.80794
 Zr578 Zr 0.71351 0.80614 0.71553
 Zr579 Zr 0.79874 0.72203 0.79457
 Zr580 Zr 0.81052 0.82074 0.75840
 O581 O 0.78711 0.66015 0.81566
 O582 O 0.80690 0.88084 0.73208
 O583 O 0.78602 0.78598 0.80477
 O584 O 0.74353 0.82770 0.76420
 O585 O 0.68571 0.77007 0.75938
 O586 O 0.73117 0.72516 0.80065
 C587 C 0.87228 0.79999 0.69217
 C588 C 0.84171 0.66178 0.74124
 C589 C 0.74575 0.78238 0.63565
 O590 O 0.72548 0.86816 0.69488
 O591 O 0.66719 0.84782 0.73767
 O592 O 0.67099 0.83833 0.80108
 C593 C 0.65654 0.85730 0.77162
 O594 O 0.70319 0.65525 0.71281
 Zr595 Zr 0.70196 0.70660 0.75107
 O596 O 0.65879 0.76134 0.82602
 O597 O 0.65281 0.79223 0.69177
 O598 O 0.64537 0.70536 0.71855
 O599 O 0.70349 0.64701 0.77832
 O600 O 0.64813 0.70512 0.78717
 C601 C 0.63664 0.72972 0.81382
 O602 O 0.72202 0.83874 0.84779
 O603 O 0.85882 0.73543 0.81978
 O604 O 0.73381 0.76817 0.86304
 O605 O 0.79298 0.72651 0.85287
 O606 O 0.86956 0.81938 0.78765
 O607 O 0.80909 0.86692 0.80178
 C608 C 0.76520 0.74475 0.87446
 H609 H 0.85774 0.75272 0.74907
 H610 H 0.73821 0.85810 0.76875
 H611 H 0.72033 0.70737 0.82189
 H612 H 0.71156 0.73108 0.68269
 H613 H 0.83557 0.89502 0.73410
 H614 H 0.70075 0.87571 0.67901
 H615 H 0.64461 0.81737 0.67696
 H616 H 0.62883 0.67925 0.72539
 H617 H 0.88736 0.84412 0.77928
 H618 H 0.86783 0.70940 0.83293
 H619 H 0.81204 0.65304 0.83141
 H620 H 0.67450 0.63363 0.77569
 H621 H 0.83251 0.88807 0.79700
 H622 H 0.69648 0.83584 0.86522
 H623 H 0.83386 0.70119 0.64626
 H624 H 0.73006 0.65847 0.69719
 Zr625 Zr 0.22852 0.19561 0.80929
 O626 O 0.24923 0.14222 0.83952
 O627 O 0.17292 0.21205 0.83881
 O628 O 0.23761 0.21440 0.86606
 O629 O 0.18471 0.13857 0.73451
 O630 O 0.28260 0.27216 0.86018
 O631 O 0.18522 0.14322 0.79859
 O632 O 0.15437 0.27367 0.80995
 O633 O 0.23081 0.26200 0.80836
 O634 O 0.19182 0.21561 0.76393
 O635 O 0.29439 0.21383 0.80596
 O636 O 0.25727 0.16729 0.76161
 Zr637 Zr 0.29019 0.27427 0.70924
 Zr638 Zr 0.29564 0.28026 0.80221
 Zr639 Zr 0.22238 0.19060 0.71600
 Zr640 Zr 0.19596 0.28125 0.76247
 O641 O 0.24268 0.13400 0.68937
 O642 O 0.19049 0.34021 0.79049
 O643 O 0.22362 0.25708 0.71246
 O644 O 0.26034 0.30194 0.75668
 O645 O 0.32741 0.25497 0.75465
 O646 O 0.28736 0.20787 0.71043
 C647 C 0.15035 0.24541 0.83597
 C648 C 0.17269 0.12589 0.76745
 C649 C 0.25859 0.24628 0.87978
 O650 O 0.27604 0.33782 0.82754
 O651 O 0.33437 0.33215 0.78330
 O652 O 0.33192 0.32784 0.71936
 C653 C 0.34444 0.34590 0.75010
 O654 O 0.33054 0.13344 0.78943
 Zr655 Zr 0.32184 0.18880 0.75665
 O656 O 0.34872 0.25810 0.68244
 O657 O 0.35680 0.27313 0.82678
 O658 O 0.38110 0.19798 0.78435
 O659 O 0.33099 0.13202 0.72594
 O660 O 0.36887 0.19890 0.71421
 C661 C 0.37315 0.22615 0.68765
 O662 O 0.27297 0.32810 0.67774
 O663 O 0.16005 0.19795 0.69357
 O664 O 0.27516 0.25787 0.65315
 O665 O 0.22917 0.20074 0.65747
 O666 O 0.13324 0.27197 0.74062
 O667 O 0.18505 0.32825 0.72112
 C668 C 0.25195 0.22805 0.63849
 H669 H 0.16102 0.20663 0.76633
 H670 H 0.26082 0.33318 0.75474
 H671 H 0.29918 0.19404 0.68752
 H672 H 0.31000 0.20429 0.82830
 H673 H 0.15930 0.34751 0.79168
 H674 H 0.29911 0.34656 0.84489
 H675 H 0.36026 0.29736 0.84410
 H676 H 0.40075 0.17542 0.77518
 H677 H 0.11355 0.29162 0.75420
 H678 H 0.15493 0.17307 0.67731
 H679 H 0.21931 0.12514 0.67236
 H680 H 0.36212 0.12452 0.72694
 H681 H 0.15849 0.34412 0.72798
 H682 H 0.29636 0.33272 0.65844
 H683 H 0.22607 0.13598 0.85864
 H684 H 0.33743 0.14199 0.81533
 Zr685 Zr 0.29489 0.79663 0.30173
 O686 O 0.28715 0.83896 0.34743
 O687 O 0.36146 0.78799 0.30767
 O688 O 0.29274 0.76996 0.35742
 O689 O 0.30829 0.87309 0.23010
 O690 O 0.25757 0.70653 0.35136
 O691 O 0.31761 0.85994 0.29248
 O692 O 0.38174 0.74197 0.26127
 O693 O 0.30134 0.73146 0.29143
 O694 O 0.31912 0.79112 0.24634
 O695 O 0.23232 0.77072 0.30925
 O696 O 0.25155 0.82870 0.26699
 Zr697 Zr 0.21724 0.72910 0.20715
 Zr698 Zr 0.23790 0.70605 0.29577
 Zr699 Zr 0.27454 0.81916 0.21143
 Zr700 Zr 0.32325 0.72652 0.23543
 O701 O 0.23885 0.87350 0.19743
 O702 O 0.34558 0.66963 0.25951
 O703 O 0.28020 0.75461 0.19859
 O704 O 0.26173 0.69771 0.24083
 O705 O 0.19267 0.73525 0.26209
 O706 O 0.21174 0.79423 0.21708
 C707 C 0.38980 0.76678 0.28873
 C708 C 0.32124 0.88365 0.26282
 C709 C 0.27604 0.73506 0.37101
 O710 O 0.27099 0.64893 0.30547
 O711 O 0.19797 0.65487 0.27855
 O712 O 0.18078 0.67276 0.21874
 C713 C 0.17735 0.64857 0.24801
 O714 O 0.18603 0.84554 0.31699
 Zr715 Zr 0.19046 0.80023 0.27311
 O716 O 0.15129 0.74162 0.20084
 O717 O 0.18388 0.69876 0.33331
 O718 O 0.14374 0.78312 0.31540
 O719 O 0.16685 0.85742 0.25078
 O720 O 0.13193 0.78485 0.24956
 C721 C 0.12347 0.76206 0.22125
 O722 O 0.22616 0.68121 0.16617
 O723 O 0.33056 0.82952 0.17672
 O724 O 0.22333 0.75100 0.15057
 O725 O 0.26130 0.81320 0.15383
 O726 O 0.36956 0.74562 0.19346
 O727 O 0.32668 0.68208 0.19071
 C728 C 0.24271 0.78352 0.13530
 H729 H 0.34724 0.80589 0.24188
 H730 H 0.26339 0.66732 0.23430
 H731 H 0.19227 0.80819 0.19929
 H732 H 0.22051 0.77510 0.33503
 H733 H 0.37646 0.66649 0.25170
 H734 H 0.25379 0.63318 0.32492
 H735 H 0.18663 0.67091 0.34586
 H736 H 0.11975 0.80377 0.31454
 H737 H 0.39557 0.72775 0.19595
 H738 H 0.32701 0.85711 0.16393
 H739 H 0.25594 0.88850 0.17746
 H740 H 0.13788 0.86197 0.26274
 H741 H 0.35474 0.66718 0.19131
 H742 H 0.19862 0.67831 0.15250
 H743 H 0.31613 0.84299 0.35857
 H744 H 0.20794 0.86800 0.31152
 Zr745 Zr 0.20380 0.76574 0.70408
 O746 O 0.20643 0.80972 0.65911
 O747 O 0.14302 0.74469 0.68771
 O748 O 0.22000 0.74331 0.64876
 O749 O 0.16710 0.83554 0.77581
 O750 O 0.26507 0.68757 0.65766
 O751 O 0.17705 0.82762 0.71254
 O752 O 0.12394 0.68958 0.72630
 O753 O 0.20614 0.70001 0.71205
 O754 O 0.16954 0.75279 0.75455
 O755 O 0.27003 0.75102 0.70452
 O756 O 0.23412 0.80158 0.74576
 Zr757 Zr 0.27273 0.70586 0.80781
 Zr758 Zr 0.27226 0.68581 0.71590
 Zr759 Zr 0.20228 0.78468 0.79670
 Zr760 Zr 0.17482 0.68791 0.76398
 O761 O 0.22503 0.84263 0.81906
 O762 O 0.16818 0.62693 0.73981
 O763 O 0.20551 0.71962 0.80785
 O764 O 0.23980 0.67075 0.76674
 O765 O 0.30589 0.71918 0.75692
 O766 O 0.26833 0.77126 0.79933
 C767 C 0.11753 0.71461 0.69877
 C768 C 0.16423 0.84881 0.74198
 C769 C 0.24443 0.71288 0.63662
 O770 O 0.24988 0.62596 0.69754
 O771 O 0.31163 0.63779 0.73702
 O772 O 0.30796 0.64808 0.80043
 C773 C 0.31950 0.62662 0.77082
 O774 O 0.29585 0.83291 0.70624
 Zr775 Zr 0.29866 0.78432 0.74746
 O776 O 0.33575 0.72727 0.82188
 O777 O 0.33427 0.68945 0.68905
 O778 O 0.35478 0.77657 0.71241
 O779 O 0.30869 0.84369 0.77374
 O780 O 0.35206 0.78030 0.78013
 C781 C 0.36086 0.75642 0.80751
 O782 O 0.26415 0.65959 0.85057
 O783 O 0.13906 0.78312 0.82150
 O784 O 0.25858 0.72930 0.86312
 O785 O 0.20452 0.77695 0.85499
 O786 O 0.11720 0.69967 0.79597
 O787 O 0.16881 0.64357 0.80886
 C788 C 0.22967 0.75556 0.87568
 H789 H 0.13908 0.76240 0.75422
 H790 H 0.23974 0.63998 0.77183
 H791 H 0.28185 0.78765 0.81970
 H792 H 0.28565 0.75897 0.68088
 H793 H 0.13758 0.61760 0.74359
 H794 H 0.27284 0.61424 0.68067
 H795 H 0.33811 0.66302 0.67443
 H796 H 0.37499 0.80037 0.71742
 H797 H 0.09533 0.67804 0.78902
 H798 H 0.13551 0.80955 0.83617
 H799 H 0.20218 0.85289 0.83681
 H800 H 0.33839 0.85367 0.76666
 H801 H 0.14203 0.62642 0.80605
 H802 H 0.29063 0.66018 0.86589
 H803 H 0.17805 0.80801 0.64655
 H804 H 0.32412 0.84798 0.70442
 Zr805 Zr 0.28926 0.22973 0.19919
 O806 O 0.27846 0.18363 0.15736
 O807 O 0.35062 0.25209 0.18362
 O808 O 0.28305 0.25831 0.14452
 O809 O 0.31975 0.15695 0.26751
 O810 O 0.23379 0.31019 0.15647
 O811 O 0.33058 0.17651 0.20604
 O812 O 0.36780 0.30290 0.22639
 O813 O 0.28546 0.29478 0.20982
 O814 O 0.31790 0.24028 0.25123
 O815 O 0.22283 0.24371 0.19938
 O816 O 0.25526 0.19103 0.23877
 Zr817 Zr 0.21201 0.28519 0.30346
 Zr818 Zr 0.21896 0.30790 0.21317
 Zr819 Zr 0.28189 0.20543 0.29100
 Zr820 Zr 0.31279 0.30452 0.26231
 O821 O 0.25712 0.14564 0.30858
 O822 O 0.32219 0.36583 0.23893
 O823 O 0.27875 0.27034 0.30435
 O824 O 0.24791 0.32213 0.26427
 O825 O 0.18203 0.27315 0.25249
 O826 O 0.21605 0.21987 0.29344
 C827 C 0.37626 0.27968 0.19772
 C828 C 0.33725 0.15224 0.23471
 C829 C 0.25950 0.29007 0.13452
 O830 O 0.24044 0.36988 0.19878
 O831 O 0.17433 0.35251 0.23275
 O832 O 0.18005 0.34529 0.29595
 C833 C 0.16789 0.36575 0.26623
 O834 O 0.19312 0.16214 0.19764
 Zr835 Zr 0.19002 0.20845 0.24083
 O836 O 0.14911 0.26240 0.31626
 O837 O 0.16107 0.30382 0.18256
 O838 O 0.13672 0.21925 0.20568
 O839 O 0.17960 0.14767 0.26503
 O840 O 0.13401 0.21041 0.27404
 C841 C 0.12447 0.23376 0.30211
 O842 O 0.20769 0.32726 0.34958
 O843 O 0.34201 0.20598 0.31845
 O844 O 0.22830 0.26272 0.35798
 O845 O 0.27258 0.20601 0.34953
 O846 O 0.36754 0.29257 0.29543
 O847 O 0.31387 0.34671 0.30875
 C848 C 0.25113 0.23167 0.37048
 H849 H 0.34864 0.23166 0.25181
 H850 H 0.24793 0.35283 0.26962
 H851 H 0.20120 0.20288 0.31342
 H852 H 0.21015 0.23744 0.17472
 H853 H 0.35234 0.37492 0.24398
 H854 H 0.21931 0.38172 0.18117
 H855 H 0.15834 0.33065 0.16838
 H856 H 0.11511 0.19625 0.21031
 H857 H 0.38925 0.31530 0.29010
 H858 H 0.34513 0.17782 0.33034
 H859 H 0.27899 0.13293 0.32499
 H860 H 0.14992 0.13812 0.25882
 H861 H 0.33943 0.36580 0.30606
 H862 H 0.17870 0.32256 0.36183
 H863 H 0.30499 0.18323 0.14100
 H864 H 0.16496 0.14691 0.19657
 Zr865 Zr 0.73259 0.69706 0.30451
 O866 O 0.76284 0.64450 0.32919
 O867 O 0.67636 0.70084 0.33723
 O868 O 0.74527 0.71191 0.36129
 O869 O 0.68233 0.64308 0.23102
 O870 O 0.78424 0.77364 0.35720
 O871 O 0.69603 0.64156 0.29375
 O872 O 0.65049 0.76422 0.31725
 O873 O 0.72728 0.76283 0.30987
 O874 O 0.68873 0.71690 0.26429
 O875 O 0.79584 0.72149 0.29742
 O876 O 0.75856 0.67590 0.25268
 Zr877 Zr 0.77378 0.79004 0.20792
 Zr878 Zr 0.78950 0.78745 0.29974
 Zr879 Zr 0.71582 0.69912 0.21249
 Zr880 Zr 0.68593 0.78225 0.26831
 O881 O 0.73778 0.64613 0.18142
 O882 O 0.67799 0.83769 0.30099
 O883 O 0.70989 0.76566 0.21453
 O884 O 0.74721 0.81038 0.25940
 O885 O 0.81759 0.77019 0.24810
 O886 O 0.77832 0.72390 0.20346
 C887 C 0.65026 0.73179 0.33918
 C888 C 0.67859 0.62610 0.26404
 C889 C 0.76474 0.74402 0.37595
 O890 O 0.76751 0.84181 0.32891
 O891 O 0.82625 0.84035 0.28193
 O892 O 0.81422 0.84443 0.21904
 C893 C 0.83208 0.85778 0.24961
 O894 O 0.83535 0.64823 0.27390
 Zr895 Zr 0.82017 0.70436 0.24428
 O896 O 0.83077 0.78524 0.17666
 O897 O 0.85270 0.78322 0.32117
 O898 O 0.88036 0.71631 0.26989
 O899 O 0.83266 0.65410 0.20623
 O900 O 0.86302 0.72714 0.20152
 C901 C 0.86156 0.75876 0.17872
 O902 O 0.74653 0.84422 0.18331
 O903 O 0.65153 0.70339 0.19372
 O904 O 0.75739 0.77711 0.15156
 O905 O 0.71848 0.71502 0.15472
 O906 O 0.62233 0.76961 0.24979
 O907 O 0.65779 0.83041 0.23579
 C908 C 0.73747 0.74553 0.13636
 H909 H 0.65924 0.70473 0.26815
 H910 H 0.74538 0.84161 0.26017
 H911 H 0.79039 0.71399 0.17906
 H912 H 0.81485 0.71094 0.31730
 H913 H 0.64634 0.84138 0.30517
 H914 H 0.79124 0.85105 0.34537
 H915 H 0.85591 0.80664 0.33940
 H916 H 0.90302 0.70169 0.25468
 H917 H 0.60193 0.78400 0.26743
 H918 H 0.64737 0.67955 0.17609
 H919 H 0.71356 0.63705 0.16542
 H920 H 0.86456 0.65067 0.20418
 H921 H 0.68124 0.85085 0.22908
 H922 H 0.76761 0.85421 0.16364
 H923 H 0.74281 0.63412 0.34949
 H924 H 0.86584 0.64049 0.26814
 Zr925 Zr 0.79654 0.28499 0.79528
 O926 O 0.79547 0.32733 0.84144
 O927 O 0.86378 0.27881 0.80222
 O928 O 0.78852 0.26267 0.85196
 O929 O 0.80781 0.36206 0.72489
 O930 O 0.76783 0.19403 0.84563
 O931 O 0.81114 0.34934 0.78769
 O932 O 0.88855 0.23496 0.75588
 O933 O 0.80992 0.22118 0.78571
 O934 O 0.82320 0.28129 0.74057
 O935 O 0.73543 0.25563 0.80149
 O936 O 0.75120 0.31301 0.75943
 Zr937 Zr 0.72893 0.21026 0.69925
 Zr938 Zr 0.74869 0.19204 0.78978
 Zr939 Zr 0.77759 0.30592 0.70467
 Zr940 Zr 0.83254 0.21714 0.72952
 O941 O 0.73737 0.35702 0.69064
 O942 O 0.85886 0.16142 0.75263
 O943 O 0.78904 0.24190 0.69181
 O944 O 0.77422 0.18365 0.73514
 O945 O 0.70213 0.21504 0.75371
 O946 O 0.71705 0.27497 0.70796
 C947 C 0.89395 0.25918 0.78390
 C948 C 0.81711 0.37297 0.75870
 C949 C 0.77750 0.22609 0.86567
 O950 O 0.78563 0.13761 0.80112
 O951 O 0.71490 0.13848 0.77332
 O952 O 0.69801 0.15063 0.71220
 C953 C 0.69710 0.12803 0.74268
 O954 O 0.68060 0.32900 0.80169
 Zr955 Zr 0.69224 0.27926 0.76285
 O956 O 0.66357 0.21639 0.68794
 O957 O 0.69435 0.18174 0.82647
 O958 O 0.64628 0.26496 0.80657
 O959 O 0.65991 0.32857 0.73499
 O960 O 0.63826 0.24752 0.74153
 C961 C 0.63292 0.22838 0.71031
 O962 O 0.74501 0.16266 0.65967
 O963 O 0.83303 0.32161 0.67084
 O964 O 0.73527 0.23264 0.64266
 O965 O 0.76698 0.29817 0.64669
 O966 O 0.87907 0.23999 0.68923
 O967 O 0.83857 0.17432 0.68373
 C968 C 0.75155 0.26700 0.62775
 H969 H 0.85032 0.29800 0.73692
 H970 H 0.77898 0.15339 0.72938
 H971 H 0.69720 0.28641 0.68913
 H972 H 0.72137 0.25969 0.82649
 H973 H 0.88965 0.15993 0.74408
 H974 H 0.76933 0.12102 0.82060
 H975 H 0.69903 0.15473 0.83991
 H976 H 0.61913 0.28008 0.80104
 H977 H 0.90533 0.22230 0.69081
 H978 H 0.82706 0.34883 0.65819
 H979 H 0.75367 0.37370 0.67126
 H980 H 0.62931 0.32727 0.74418
 H981 H 0.86730 0.16067 0.68419
 H982 H 0.71847 0.15671 0.64533
 H983 H 0.82552 0.32957 0.85088
 H984 H 0.69726 0.35418 0.79271
 N985 N 0.51144 0.98807 0.30604
 N986 N 0.49384 0.99191 0.27273
 C987 C 0.45436 1.01010 0.27674
 C988 C 0.44822 1.01991 0.31475
 C989 C 0.48441 1.00436 0.33232
 H990 H 0.42090 1.03523 0.32830
 H991 H 0.54149 0.97425 0.31054
 H992 H 0.50924 0.98173 0.24802
 N993 N -0.00789 0.48093 0.80961
 N994 N -0.02719 0.48526 0.77695
 C995 C -0.05948 0.51376 0.78027
 C996 C -0.06019 0.52778 0.81762
 C997 C -0.02751 0.50586 0.83542
 H998 H -0.08477 0.54708 0.83120
 H999 H 0.01629 0.45890 0.81466
 H1000 H -0.02098 0.46587 0.75375
 N1001 N -0.01180 -0.00903 0.81040
 N1002 N 0.00740 -0.00877 0.77688
 C1003 C 0.05015 -0.01774 0.78009
 C1004 C 0.05823 -0.02330 0.81776
 C1005 C 0.01812 -0.01759 0.83582
 H1006 H 0.08940 -0.02770 0.83043
 H1007 H -0.04433 -0.00160 0.81567
 H1008 H -0.00844 -0.00006 0.75252
 N1009 N 0.52604 0.43101 0.32976
 N1010 N 0.55004 0.43251 0.29853
 C1011 C 0.55631 0.47328 0.28804
 C1012 C 0.53378 0.49849 0.31437
 C1013 C 0.51568 0.47042 0.34074
 H1014 H 0.53488 0.53264 0.31644
 H1015 H 0.52040 0.40337 0.34537
 H1016 H 0.56343 0.40550 0.28667
 N1017 N 0.49756 0.48379 0.18661
 N1018 N 0.51166 0.48559 0.22128
 C1019 C 0.55457 0.49557 0.22056
 C1020 C 0.56765 0.50118 0.18300
 C1021 C 0.53066 0.49270 0.16255
 H1022 H 0.60023 0.50696 0.17199
 H1023 H 0.46580 0.47581 0.17966
 H1024 H 0.49210 0.47789 0.24473
 N1025 N 0.02062 0.94246 0.67404
 N1026 N 0.03567 0.94387 0.70822
 C1027 C 0.05945 0.97972 0.71236
 C1028 C 0.06020 1.00186 0.67869
 C1029 C 0.03506 0.97691 0.65529
 H1030 H 0.07776 1.03078 0.67176
 H1031 H 0.00210 0.91747 0.66355
 H1032 H 0.03030 0.92007 0.72826
 N1033 N -0.10944 0.52137 0.65424
 N1034 N -0.12382 0.51667 0.68891
 C1035 C -0.09008 0.51444 0.71220
 C1036 C -0.05150 0.51746 0.69028
 C1037 C -0.06590 0.52153 0.65338
 H1038 H -0.01842 0.51553 0.69944
 H1039 H -0.12960 0.52263 0.63114
 H1040 H -0.15678 0.51498 0.69632
 N1041 N 0.47010 -0.03867 0.16408
 N1042 N 0.45682 -0.03751 0.19963
 C1043 C 0.44017 0.00097 0.20737
 C1044 C 0.44371 0.02536 0.17444
 C1045 C 0.46320 -0.00082 0.14810
 H1046 H 0.43157 0.05676 0.16934
 H1047 H 0.48266 -0.06546 0.15073
 H1048 H 0.45861 -0.06313 0.21809
 N1049 N 0.37041 0.34300 0.01171
 N1050 N 0.33451 0.32215 0.00383
 C1051 C 0.30287 0.34960 -0.00514
 C1052 C 0.32059 0.39039 -0.00319
 C1053 C 0.36334 0.38453 0.00809
 H1054 H 0.30430 0.42007 -0.00759
 H1055 H 0.39950 0.32876 0.01885
 H1056 H 0.33108 0.28936 0.00651
 N1057 N -0.12616 0.83383 0.51197
 N1058 N -0.16276 0.81238 0.50819
 C1059 C -0.19504 0.83907 0.49948
 C1060 C -0.17703 0.87980 0.49635
 C1061 C -0.13329 0.87488 0.50505
 H1062 H -0.19337 0.90881 0.48946
 H1063 H -0.09650 0.82028 0.51835
 H1064 H -0.16575 0.77972 0.51229
 N1065 N -0.19949 0.06580 0.95536
 N1066 N -0.23160 0.09306 0.95850
 C1067 C -0.22375 0.12062 0.98660
 C1068 C -0.18519 0.10843 1.00327
 C1069 C -0.17062 0.07404 0.98208
 H1070 H -0.16885 0.12312 1.02644
 H1071 H -0.19738 0.04214 0.93498
 H1072 H -0.25790 0.09374 0.94060
 N1073 N 0.29892 0.57477 0.45576
 N1074 N 0.26526 0.59998 0.46105
 C1075 C 0.27218 0.62601 0.49054
 C1076 C 0.31236 0.61524 0.50509
 C1077 C 0.32838 0.58323 0.48193
 H1078 H 0.32901 0.62952 0.52825
 H1079 H 0.30143 0.55206 0.43456
 H1080 H 0.23820 0.59974 0.44405
 N1081 N 0.12674 0.66892 0.50972
 N1082 N 0.16536 0.68661 0.50317
 C1083 C 0.19581 0.65627 0.49990
 C1084 C 0.17467 0.61715 0.50474
 C1085 C 0.13100 0.62664 0.51135
 H1086 H 0.18889 0.58601 0.50387
 H1087 H 0.09773 0.68561 0.51186
 H1088 H 0.17091 0.71924 0.50176
 N1089 N 0.65306 0.10958 0.03931
 N1090 N 0.69452 0.11951 0.03603
 C1091 C 0.70206 0.14173 0.00409
 C1092 C 0.66289 0.14407 -0.01497
 C1093 C 0.63245 0.12334 0.00886
 H1094 H 0.65772 0.15730 -0.04251
 H1095 H 0.63978 0.09105 0.06114
 H1096 H 0.71751 0.11113 0.05568
 N1097 N 0.69022 0.89218 0.43832
 N1098 N 0.72544 0.86976 0.44460
 C1099 C 0.72629 0.85809 0.48124
 C1100 C 0.68969 0.87612 0.49897
 C1101 C 0.66722 0.89653 0.47065
 H1102 H 0.67980 0.87396 0.52829
 H1103 H 0.68247 0.90470 0.41220
 H1104 H 0.74806 0.86209 0.42351
 N1105 N 0.18318 0.40345 0.94138
 N1106 N 0.21998 0.38288 0.94644
 C1107 C 0.22075 0.36741 0.98185
 C1108 C 0.18137 0.37926 0.99976
 C1109 C 0.15849 0.40214 0.97324
 H1110 H 0.17005 0.37130 1.02794
 H1111 H 0.17534 0.41856 0.91638
 H1112 H 0.24391 0.37880 0.92550
 N1113 N 0.05086 0.31275 0.44880
 N1114 N 0.04275 0.27763 0.43019
 C1115 C 0.01099 0.28544 0.40577
 C1116 C -0.00166 0.32661 0.40900
 C1117 C 0.02416 0.34260 0.43616
 H1118 H -0.02779 0.34247 0.39519
 H1119 H 0.07299 0.31553 0.47040
 H1120 H 0.05806 0.24880 0.43465
 N1121 N 0.55540 -0.17095 -0.06295
 N1122 N 0.54558 -0.20950 -0.07377
 C1123 C 0.51361 -0.20717 -0.09879
 C1124 C 0.50200 -0.16565 -0.10362
 C1125 C 0.52927 -0.14396 -0.08059
 H1126 H 0.47576 -0.15300 -0.11966
 H1127 H 0.57776 -0.16381 -0.04229
 H1128 H 0.56057 -0.23683 -0.06419
 N1129 N 0.07598 -0.16015 1.09624
 N1130 N 0.07400 -0.19590 1.11513
 C1131 C 0.03838 -0.21789 1.10460
 C1132 C 0.02037 -0.19731 1.07457
 C1133 C 0.04227 -0.15936 1.07323
 H1134 H -0.01064 -0.20414 1.06218
 H1135 H 0.09722 -0.13519 1.10214
 H1136 H 0.09412 -0.20208 1.13750
 N1137 N 0.53071 0.35708 0.63150
 N1138 N 0.53644 0.31834 0.64374
 C1139 C 0.51416 0.29148 0.62172
 C1140 C 0.49341 0.31408 0.59444
 C1141 C 0.50498 0.35529 0.60161
 H1142 H 0.47508 0.30185 0.57125
 H1143 H 0.54604 0.38386 0.64237
 H1144 H 0.55680 0.31100 0.66573
 N1145 N 0.58649 1.20235 0.55247
 N1146 N 0.57681 1.23191 0.57755
 C1147 C 0.53482 1.22677 0.58874
 C1148 C 0.51628 1.19634 0.56668
 C1149 C 0.55023 1.17956 0.54657
 H1150 H 0.48377 1.18321 0.56869
 H1151 H 0.61788 1.19556 0.54271
 H1152 H 0.59950 1.25261 0.58906
 N1153 N 0.02024 0.63985 1.12378
 N1154 N 0.01311 0.67480 1.14252
 C1155 C 0.01674 0.70775 1.11844
 C1156 C 0.02573 0.69288 1.08250
 C1157 C 0.02746 0.64970 1.08740
 H1158 H 0.02686 0.71046 1.05638
 H1159 H 0.01657 0.60955 1.13532
 H1160 H 0.00485 0.67559 1.17115
 N1161 N 0.44293 0.69976 -0.04170
 N1162 N 0.44797 0.73324 -0.06366
 C1163 C 0.48003 0.72514 -0.08917
 C1164 C 0.49637 0.68592 -0.08289
 C1165 C 0.47207 0.67094 -0.05331
 H1166 H 0.52293 0.67015 -0.09732
 H1167 H 0.42031 0.69702 -0.01945
 H1168 H 0.42988 0.76090 -0.06123
 N1169 N -0.06355 1.19197 0.45325
 N1170 N -0.05944 1.22631 0.43229
 C1171 C -0.02764 1.21976 0.40619
 C1172 C -0.01095 1.18024 0.41064
 C1173 C -0.03405 1.16407 0.44056
 H1174 H 0.01638 1.16600 0.39595
 H1175 H -0.08481 1.18861 0.47642
 H1176 H -0.07684 1.25411 0.43671
 N1177 N 0.80951 0.74156 0.93149
 N1178 N 0.80792 0.72229 0.96451
 C1179 C 0.76860 0.70370 0.96986
 C1180 C 0.74433 0.71197 0.93788
 C1181 C 0.77107 0.73676 0.91482
 H1182 H 0.71262 0.69986 0.93095
 H1183 H 0.83715 0.75659 0.92002
 H1184 H 0.83361 0.72186 0.98305
 N1185 N 0.23127 0.25018 0.43621
 N1186 N 0.23518 0.23477 0.47033
 C1187 C 0.26044 0.19979 0.46963
 C1188 C 0.27212 0.19257 0.43182
 C1189 C 0.25273 0.22538 0.41176
 H1190 H 0.28932 0.16577 0.42019
 H1191 H 0.21217 0.27618 0.42977
 H1192 H 0.21791 0.24685 0.49348
 N1193 N 0.68557 0.27119 0.42032
 N1194 N 0.68657 0.28949 0.45370
 C1195 C 0.72752 0.30205 0.46073
 C1196 C 0.75398 0.28943 0.42986
 C1197 C 0.72585 0.27023 0.40461
 H1198 H 0.78809 0.29653 0.42506
 H1199 H 0.65706 0.26132 0.40758
 H1200 H 0.65907 0.29444 0.47082
 N1201 N 0.18651 0.76477 0.93518
 N1202 N 0.19021 0.78743 0.96623
 C1203 C 0.23066 0.80402 0.96719
 C1204 C 0.25433 0.78781 0.93634
 C1205 C 0.22505 0.76413 0.91634
 H1206 H 0.28746 0.79506 0.92760
 H1207 H 0.15735 0.75172 0.92610
 H1208 H 0.16497 0.79219 0.98584
 N1209 N 0.24525 0.75230 0.07076
 N1210 N 0.25018 0.76515 0.03550
 C1211 C 0.25376 0.80798 0.03413
 C1212 C 0.25213 0.82214 0.07157
 C1213 C 0.24586 0.78606 0.09358
 H1214 H 0.25286 0.85405 0.08214
 H1215 H 0.24149 0.72068 0.07893
 H1216 H 0.24957 0.74443 0.01271
 N1217 N 0.74293 0.23956 0.56224
 N1218 N 0.74268 0.25465 0.52753
 C1219 C 0.75292 0.29646 0.52761
 C1220 C 0.76166 0.30748 0.56487
 C1221 C 0.75339 0.27089 0.58597
 H1222 H 0.76674 0.33903 0.57579
 H1223 H 0.73378 0.20868 0.56965
 H1224 H 0.73218 0.23690 0.50474
 N1225 N 0.27932 0.24937 0.57531
 N1226 N 0.28165 0.23384 0.54104
 C1227 C 0.25717 0.19811 0.53884
 C1228 C 0.23915 0.19031 0.57481
 C1229 C 0.25424 0.22379 0.59700
 H1230 H 0.22113 0.16258 0.58430
 H1231 H 0.29703 0.27576 0.58408
 H1232 H 0.30192 0.24656 0.51982
 N1233 N 0.76104 0.76960 0.07208
 N1234 N 0.76699 0.75243 0.03850
 C1235 C 0.75169 0.71205 0.03910
 C1236 C 0.73357 0.70454 0.07488
 C1237 C 0.74091 0.74136 0.09502
 H1238 H 0.71832 0.67583 0.08548
 H1239 H 0.77220 0.79973 0.07939
 H1240 H 0.78197 0.76861 0.01609
 N1241 N 0.10120 0.62249 0.24827
 N1242 N 0.07882 0.58664 0.25043
 C1243 C 0.10614 0.55349 0.25112
 C1244 C 0.14875 0.57011 0.24974
 C1245 C 0.14385 0.61415 0.24791
 H1246 H 0.17887 0.55287 0.24934
 H1247 H 0.08726 0.65246 0.24759
 H1248 H 0.04499 0.58510 0.25118
 N1249 N 0.69687 0.05331 0.76090
 N1250 N 0.66899 0.02194 0.76649
 C1251 C 0.62969 0.03368 0.75446
 C1252 C 0.63349 0.07499 0.74023
 C1253 C 0.67686 0.08581 0.74445
 H1254 H 0.60830 0.09413 0.72847
 H1255 H 0.72921 0.05264 0.76893
 H1256 H 0.67774 -0.00729 0.77748
 N1257 N 0.82463 0.06547 0.22930
 N1258 N 0.84834 0.03112 0.22594
 C1259 C 0.88177 0.03381 0.24934
 C1260 C 0.87874 0.07311 0.26829
 C1261 C 0.84198 0.09216 0.25454
 H1262 H 0.90167 0.08738 0.28705
 H1263 H 0.79798 0.07158 0.21270
 H1264 H 0.84241 0.00726 0.20647
 N1265 N 0.32678 0.55496 0.80033
 N1266 N 0.34832 0.51951 0.79384
 C1267 C 0.37665 0.52508 0.76450
 C1268 C 0.37098 0.56650 0.75127
 C1269 C 0.34002 0.58453 0.77521
 H1270 H 0.38781 0.58243 0.72824
 H1271 H 0.30280 0.55847 0.82133
 H1272 H 0.34436 0.49220 0.81015
 N1273 N 0.41761 0.38058 0.74554
 N1274 N 0.43569 0.41848 0.74929
 C1275 C 0.40476 0.44810 0.75433
 C1276 C 0.36436 0.42678 0.75388
 C1277 C 0.37417 0.38385 0.74788
 H1278 H 0.33245 0.44033 0.75737
 H1279 H 0.43503 0.35262 0.74216
 H1280 H 0.46915 0.42409 0.74803
 N1281 N 0.90723 0.88510 0.25501
 N1282 N 0.92844 0.92136 0.25855
 C1283 C 0.90103 0.95409 0.25482
 C1284 C 0.85943 0.93648 0.24897
 C1285 C 0.86526 0.89256 0.24840
 H1286 H 0.82898 0.95264 0.24637
 H1287 H 0.92137 0.85540 0.25776
 H1288 H 0.96168 0.92350 0.26317
 N1289 N 0.62240 0.91458 0.80958
 N1290 N 0.60701 0.95275 0.80344
 C1291 C 0.60288 0.95925 0.76602
 C1292 C 0.61634 0.92234 0.74784
 C1293 C 0.62912 0.89519 0.77649
 H1294 H 0.62020 0.91708 0.71794
 H1295 H 0.63122 0.90348 0.83593
 H1296 H 0.60252 0.97484 0.82483
 N1297 N 0.16735 0.43856 0.29302
 N1298 N 0.15215 0.47637 0.28482
 C1299 C 0.12546 0.47398 0.25521
 C1300 C 0.12438 0.43123 0.24433
 C1301 C 0.15109 0.40982 0.26934
 H1302 H 0.10488 0.41719 0.22272
 H1303 H 0.18898 0.43273 0.31447
 H1304 H 0.15741 0.50304 0.30143
 N1305 N 0.11257 0.23091 0.89659
 N1306 N 0.07139 0.23000 0.90751
 C1307 C 0.04805 0.24604 0.87944
 C1308 C 0.07563 0.26226 0.85196
 C1309 C 0.11541 0.25006 0.86283
 H1310 H 0.06782 0.27646 0.82533
 H1311 H 0.13743 0.21619 0.91080
 H1312 H 0.05965 0.21659 0.93266
 N1313 N 0.61632 0.75909 0.39586
 N1314 N 0.57568 0.76800 0.40437
 C1315 C 0.54978 0.74653 0.38065
 C1316 C 0.57524 0.72007 0.35897
 C1317 C 0.61691 0.73077 0.36786
 H1318 H 0.56555 0.69860 0.33710
 H1319 H 0.64302 0.77536 0.40645
 H1320 H 0.56696 0.78963 0.42524
 N1321 N 0.59301 0.17865 0.12828
 N1322 N 0.55710 0.18793 0.11084
 C1323 C 0.53645 0.21911 0.13005
 C1324 C 0.56031 0.22965 0.16076
 C1325 C 0.59551 0.20407 0.15827
 H1326 H 0.55635 0.25611 0.17962
 H1327 H 0.61707 0.15855 0.11770
 H1328 H 0.54952 0.17603 0.08444
 N1329 N 0.04018 0.69463 0.69396
 N1330 N 0.00819 0.70717 0.67288
 C1331 C 0.02499 0.73138 0.64465
 C1332 C 0.06921 0.73370 0.64744
 C1333 C 0.07734 0.71091 0.67923
 H1334 H 0.09200 0.75288 0.63097
 H1335 H 0.03608 0.67815 0.71928
 H1336 H -0.02465 0.70105 0.67882
 N1337 N 0.94842 0.82391 0.68730
 N1338 N 0.98267 0.80971 0.66845
 C1339 C 0.96901 0.78391 0.64083
 C1340 C 0.92452 0.78283 0.64146
 C1341 C 0.91282 0.80715 0.67188
 H1342 H 0.90351 0.76207 0.62582
 H1343 H 0.94984 0.84069 0.71250
 H1344 H 1.01474 0.81518 0.67606
 N1345 N 0.45194 0.30762 0.18999
 N1346 N 0.48600 0.29810 0.16844
 C1347 C 0.47479 0.26626 0.14506
 C1348 C 0.43215 0.25543 0.15222
 C1349 C 0.41896 0.28218 0.18022
 H1350 H 0.41275 0.23130 0.13889
 H1351 H 0.45151 0.33102 0.21067
 H1352 H 0.51573 0.31417 0.16906
 N1353 N 0.46878 0.75391 0.28222
 N1354 N 0.50051 0.75110 0.30626
 C1355 C 0.48649 0.76617 0.34000
 C1356 C 0.44494 0.78131 0.33597
 C1357 C 0.43439 0.77105 0.30011
 H1358 H 0.42212 0.78967 0.35834
 H1359 H 0.46953 0.74060 0.25538
 H1360 H 0.52937 0.73583 0.29972
 N1361 N 0.97003 0.23895 0.78242
 N1362 N 0.99878 0.23448 0.80865
 C1363 C 0.98544 0.25651 0.83919
 C1364 C 0.94720 0.27653 0.83176
 C1365 C 0.93767 0.26283 0.79650
 H1366 H 0.92496 0.29083 0.85196
 H1367 H 0.96991 0.22120 0.75768
 H1368 H 1.02390 0.21257 0.80718
 N1369 N 0.61531 1.00153 0.64917
 N1370 N 0.62273 0.99256 0.68438
 C1371 C 0.58749 1.00138 0.70592
 C1372 C 0.55519 1.01692 0.68198
 C1373 C 0.57454 1.01597 0.64571
 H1374 H 0.52284 1.02721 0.68974
 H1375 H 0.63835 0.99705 0.62753
 H1376 H 0.65275 0.98242 0.69369
 N1377 N 0.00450 0.51743 1.18107
 N1378 N 0.01908 0.51463 1.21543
 C1379 C 0.06150 0.50355 1.21456
 C1380 C 0.07417 0.49958 1.17651
 C1381 C 0.03663 0.50857 1.15631
 H1382 H 0.10630 0.49305 1.16517
 H1383 H -0.02719 0.52583 1.17481
 H1384 H 0.00015 0.52234 1.23915
 N1385 N 0.00527 -0.01465 1.18177
 N1386 N -0.01022 -0.01144 1.21655
 C1387 C -0.05218 0.00090 1.21626
 C1388 C -0.06368 0.00503 1.17881
 C1389 C -0.02627 -0.00502 1.15803
 H1390 H -0.09501 0.01265 1.16789
 H1391 H 0.03678 -0.02408 1.17461
 H1392 H 0.00766 -0.01909 1.24008
 N1393 N 0.47701 0.54842 0.67922
 N1394 N 0.46019 0.54678 0.71370
 C1395 C 0.43855 0.50967 0.71888
 C1396 C 0.44156 0.48708 0.68516
 C1397 C 0.46681 0.51253 0.66119
 H1398 H 0.42660 0.45698 0.67853
 H1399 H 0.49405 0.57440 0.66790
 H1400 H 0.46366 0.57095 0.73341
 N1401 N 0.50634 0.52419 -0.18204
 N1402 N 0.49065 0.51434 -0.21524
 C1403 C 0.44801 0.50364 -0.21127
 C1404 C 0.43740 0.50528 -0.17301
 C1405 C 0.47465 0.51945 -0.15571
 H1406 H 0.40694 0.49722 -0.15904
 H1407 H 0.53868 0.53237 -0.17749
 H1408 H 0.50963 0.51432 -0.23993
 N1409 N -0.00944 1.05070 0.31780
 N1410 N -0.02479 1.04489 0.28387
 C1411 C -0.05436 1.01286 0.28487
 C1412 C -0.05840 0.99832 0.32155
 C1413 C -0.02926 1.02304 0.34140
 H1414 H -0.08011 0.97383 0.33244
 H1415 H 0.01366 1.07368 0.32456
 H1416 H -0.01585 1.06342 0.26055
 N1417 N 0.01589 0.45907 0.31956
 N1418 N 0.03244 0.46343 0.28523
 C1419 C 0.05953 0.49738 0.28392
 C1420 C 0.06089 0.51474 0.31979
 C1421 C 0.03267 0.48945 0.34136
 H1422 H 0.08099 0.54071 0.32920
 H1423 H -0.00549 0.43479 0.32799
 H1424 H 0.02635 0.44244 0.26331
 N1425 N 0.49253 -0.00420 -0.19853
 N1426 N 0.51325 -0.00504 -0.23156
 C1427 C 0.55087 0.01710 -0.22963
 C1428 C 0.55221 0.03483 -0.19365
 C1429 C 0.51600 0.01872 -0.17439
 H1430 H 0.58014 0.04934 -0.18085
 H1431 H 0.46504 -0.02256 -0.19180
 H1432 H 0.50482 -0.02554 -0.25322
 N1433 N 0.63875 0.66677 -0.01106
 N1434 N 0.67420 0.68943 -0.00562
 C1435 C 0.70765 0.66344 0.00119
 C1436 C 0.69173 0.62185 0.00147
 C1437 C 0.64795 0.62562 -0.00696
 H1438 H 0.70920 0.59312 0.00708
 H1439 H 0.60834 0.67955 -0.01612
 H1440 H 0.67548 0.72245 -0.00683
 N1441 N 0.18864 1.09257 0.46116
 N1442 N 0.22651 1.11103 0.46662
 C1443 C 0.22358 1.13792 0.49606
 C1444 C 0.18080 1.13521 0.51061
 C1445 C 0.15973 1.10612 0.48717
 H1446 H 0.16665 1.15247 0.53400
 H1447 H 0.18315 1.06985 0.44049
 H1448 H 0.25412 1.10566 0.44976
 N1449 N 0.19636 -0.06915 1.03286
 N1450 N 0.22835 -0.09645 1.02996
 C1451 C 0.21721 -0.12849 1.00674
 C1452 C 0.17667 -0.11918 0.99254
 C1453 C 0.16461 -0.08182 1.01036
 H1454 H 0.15813 -0.13654 0.97223
 H1455 H 0.19691 -0.04181 1.04928
 H1456 H 0.25805 -0.09225 1.04294
 N1457 N 0.64707 0.37253 0.54877
 N1458 N 0.67754 0.34414 0.54293
 C1459 C 0.70100 0.35373 0.51119
 C1460 C 0.68217 0.38970 0.49546
 C1461 C 0.64844 0.40084 0.52063
 H1462 H 0.69079 0.40487 0.46902
 H1463 H 0.62372 0.37068 0.57054
 H1464 H 0.68005 0.31745 0.55994
 N1465 N -0.18480 0.40232 0.44865
 N1466 N -0.22131 0.38023 0.45205
 C1467 C -0.22217 0.35839 0.48477
 C1468 C -0.18390 0.36853 0.50348
 C1469 C -0.16113 0.39640 0.47935
 H1470 H -0.17374 0.35740 0.53055
 H1471 H -0.17687 0.42216 0.42593
 H1472 H -0.24526 0.37997 0.43184
 N1473 N 0.32497 -0.10558 -0.06026
 N1474 N 0.28817 -0.12602 -0.05365
 C1475 C 0.28828 -0.14397 -0.01908
 C1476 C 0.32690 -0.13245 -0.00225
 C1477 C 0.34914 -0.10812 -0.02961
 H1478 H 0.33595 -0.13801 0.02648
 H1479 H 0.33174 -0.08745 -0.08431
 H1480 H 0.26243 -0.12606 -0.07216
 N1481 N 0.34253 1.10174 0.54564
 N1482 N 0.30398 1.11908 0.54312
 C1483 C 0.30193 1.14265 0.51144
 C1484 C 0.34217 1.13850 0.49215
 C1485 C 0.36709 1.11221 0.51529
 H1486 H 0.35191 1.15224 0.46536
 H1487 H 0.35117 1.08143 0.56732
 H1488 H 0.27905 1.11452 0.56317
 N1489 N -0.18052 0.59825 1.05120
 N1490 N -0.21540 0.62205 1.04848
 C1491 C -0.21338 0.64457 1.01609
 C1492 C -0.17502 0.63241 0.99676
 C1493 C -0.15486 0.60352 1.02038
 H1494 H -0.16268 0.64360 0.96979
 H1495 H -0.17478 0.57813 1.07380
 H1496 H -0.24020 0.62247 1.06889
 N1497 N -0.06168 0.70382 0.54487
 N1498 N -0.05160 0.73785 0.56443
 C1499 C -0.02757 0.72594 0.59375
 C1500 C -0.02324 0.68279 0.59327
 C1501 C -0.04406 0.67025 0.56172
 H1502 H -0.00296 0.66340 0.61053
 H1503 H -0.07716 0.70425 0.51913
 H1504 H -0.05825 0.76880 0.55630
 N1505 N 0.44156 0.20751 0.03628
 N1506 N 0.45960 0.23922 0.05436
 C1507 C 0.47432 0.22426 0.08716
 C1508 C 0.46219 0.18261 0.09128
 C1509 C 0.44446 0.17249 0.05757
 H1510 H 0.47211 0.16089 0.11293
 H1511 H 0.43290 0.20884 0.00813
 H1512 H 0.46433 0.26942 0.04297
 N1513 N -0.07231 0.15776 0.90093
 N1514 N -0.06481 0.19685 0.88924
 C1515 C -0.02141 0.20364 0.88702
 C1516 C -0.00072 0.16677 0.89598
 C1517 C -0.03382 0.13937 0.90572
 H1518 H 0.03356 0.16065 0.89781
 H1519 H -0.10293 0.14536 0.90827
 H1520 H -0.08903 0.21907 0.88502
 N1521 N 0.44750 0.64793 0.37867
 N1522 N 0.45315 0.68625 0.36457
 C1523 C 0.48054 0.70815 0.38667
 C1524 C 0.49222 0.68274 0.41605
 C1525 C 0.47132 0.64502 0.40955
 H1526 H 0.51515 0.68996 0.43772
 H1527 H 0.42905 0.62399 0.36644
 H1528 H 0.43946 0.69590 0.33956
 N1529 N 0.45892 0.81345 0.45588
 N1530 N 0.46162 0.77719 0.43770
 C1531 C 0.48635 0.78363 0.40636
 C1532 C 0.49856 0.82572 0.40393
 C1533 C 0.48169 0.84300 0.43613
 H1534 H 0.51945 0.84075 0.38279
 H1535 H 0.44306 0.81731 0.48193
 H1536 H 0.44755 0.74888 0.44731
 N1537 N -0.03968 0.30831 0.95545
 N1538 N -0.03705 0.27213 0.93753
 C1539 C -0.01452 0.27906 0.90517
 C1540 C -0.00195 0.32111 0.90243
 C1541 C -0.01835 0.33817 0.93486
 H1542 H 0.01750 0.33646 0.88051
 H1543 H -0.05480 0.31194 0.98185
 H1544 H -0.04922 0.24350 0.94826
 N1545 N 0.56549 0.31040 0.04709
 N1546 N 0.55895 0.27516 0.06639
 C1547 C 0.52687 0.28181 0.09228
 C1548 C 0.51245 0.32245 0.08912
 C1549 C 0.53722 0.33909 0.06041
 H1550 H 0.48465 0.33681 0.10302
 H1551 H 0.58721 0.31378 0.02424
 H1552 H 0.57446 0.24672 0.06026
 N1553 N 0.05688 0.79978 0.53747
 N1554 N 0.04682 0.76729 0.55958
 C1555 C 0.02699 0.78202 0.59122
 C1556 C 0.02715 0.82534 0.59003
 C1557 C 0.04400 0.83512 0.55526
 H1558 H 0.01064 0.84700 0.60889
 H1559 H 0.06795 0.79723 0.50959
 H1560 H 0.04949 0.73566 0.55149
 N1561 N 0.25645 0.35254 0.09524
 N1562 N 0.24820 0.36364 0.06073
 C1563 C 0.24801 0.32916 0.03851
 C1564 C 0.25684 0.29366 0.06106
 C1565 C 0.26160 0.31037 0.09714
 H1566 H 0.25994 0.26102 0.05243
 H1567 H 0.25788 0.37396 0.11750
 H1568 H 0.24581 0.39514 0.05214
 N1569 N 0.69853 0.78393 0.58058
 N1570 N 0.70086 0.79620 0.54510
 C1571 C 0.74196 0.80857 0.53625
 C1572 C 0.76677 0.80329 0.56836
 C1573 C 0.73813 0.78715 0.59533
 H1574 H 0.80037 0.81163 0.57258
 H1575 H 0.66994 0.77424 0.59463
 H1576 H 0.67433 0.79638 0.52745
 N1577 N 0.29394 0.71536 0.58092
 N1578 N 0.29514 0.70146 0.54593
 C1579 C 0.25610 0.68464 0.53769
 C1580 C 0.22888 0.68839 0.56973
 C1581 C 0.25404 0.70853 0.59609
 H1582 H 0.19604 0.67661 0.57401
 H1583 H 0.32055 0.72836 0.59452
 H1584 H 0.32247 0.70362 0.52803
 N1585 N 0.80470 0.22042 0.06534
 N1586 N 0.80274 0.20126 0.03239
 C1587 C 0.76217 0.18606 0.02802
 C1588 C 0.73674 0.19912 0.05906
 C1589 C 0.76503 0.21987 0.08224
 H1590 H 0.70299 0.19205 0.06560
 H1591 H 0.83332 0.23192 0.07683
 H1592 H 0.82922 0.19754 0.01384
 N1593 N 0.74658 0.24801 0.92800
 N1594 N 0.73462 0.22905 0.95993
 C1595 C 0.74967 0.18906 0.95996
 C1596 C 0.77240 0.18295 0.92593
 C1597 C 0.76976 0.22087 0.90659
 H1598 H 0.78836 0.15479 0.91574
 H1599 H 0.73693 0.27831 0.92026
 H1600 H 0.71652 0.24347 0.98146
 N1601 N 0.28155 0.75570 0.43915
 N1602 N 0.27088 0.73874 0.47229
 C1603 C 0.25635 0.69845 0.46755
 C1604 C 0.25716 0.69059 0.42906
 C1605 C 0.27406 0.72708 0.41214
 H1606 H 0.24642 0.66245 0.41476
 H1607 H 0.29249 0.78682 0.43521
 H1608 H 0.27294 0.75528 0.49752
 N1609 N 0.73360 0.73023 0.44026
 N1610 N 0.73053 0.75174 0.47207
 C1611 C 0.75689 0.78629 0.46973
 C1612 C 0.77839 0.78538 0.43501
 C1613 C 0.76204 0.75019 0.41689
 H1614 H 0.79975 0.80955 0.42305
 H1615 H 0.71399 0.70423 0.43379
 H1616 H 0.70896 0.74335 0.49388
 N1617 N 0.22425 0.23992 0.94509
 N1618 N 0.22272 0.26368 0.97588
 C1619 C 0.25165 0.29584 0.97185
 C1620 C 0.27178 0.29218 0.93663
 C1621 C 0.25363 0.25672 0.92038
 H1622 H 0.29386 0.31477 0.92322
 H1623 H 0.20388 0.21399 0.94045
 H1624 H 0.20064 0.25911 0.99830
 N1625 N 0.83393 0.43282 0.80088
 N1626 N 0.85651 0.46849 0.80028
 C1627 C 0.87393 0.47466 0.76552
 C1628 C 0.86129 0.44070 0.74286
 C1629 C 0.83577 0.41516 0.76648
 H1630 H 0.87008 0.43481 0.71373
 H1631 H 0.81763 0.42076 0.82473
 H1632 H 0.85936 0.48849 0.82340
 N1633 N 0.33494 0.95240 0.29541
 N1634 N 0.35848 0.98719 0.28972
 C1635 C 0.38195 0.98386 0.25718
 C1636 C 0.37024 0.94532 0.24070
 C1637 C 0.34147 0.92611 0.26627
 H1638 H 0.38212 0.93163 0.21468
 H1639 H 0.31460 0.94697 0.31890
 H1640 H 0.35843 1.01265 0.30827
 N1641 N 0.16868 0.92058 0.71335
 N1642 N 0.15126 0.95823 0.71843
 C1643 C 0.12026 0.95622 0.74602
 C1644 C 0.11874 0.91448 0.75931
 C1645 C 0.14959 0.89297 0.73743
 H1646 H 0.09614 0.90084 0.77983
 H1647 H 0.19322 0.91401 0.69349
 H1648 H 0.15826 0.98429 0.70114
 N1649 N 0.68279 0.42935 0.23009
 N1650 N 0.66230 0.46404 0.24037
 C1651 C 0.61902 0.45640 0.24158
 C1652 C 0.61244 0.41458 0.22973
 C1653 C 0.65377 0.39830 0.22383
 H1654 H 0.58205 0.39746 0.22763
 H1655 H 0.71646 0.42606 0.23045
 H1656 H 0.67855 0.49182 0.24771
 N1657 N 0.65066 0.56643 0.30323
 N1658 N 0.62574 0.53246 0.30102
 C1659 C 0.60871 0.52972 0.26647
 C1660 C 0.62552 0.56413 0.24520
 C1661 C 0.65197 0.58671 0.26998
 H1662 H 0.62072 0.57080 0.21580
 H1663 H 0.66757 0.57480 0.32720
 H1664 H 0.62218 0.51035 0.32275
 N1665 N 0.09617 0.10251 0.76297
 N1666 N 0.07394 0.06816 0.75389
 C1667 C 0.10063 0.03460 0.75208
 C1668 C 0.14249 0.04932 0.76052
 C1669 C 0.13803 0.09265 0.76781
 H1670 H 0.17212 0.03132 0.76087
 H1671 H 0.08303 0.13282 0.76428
 H1672 H 0.04066 0.06780 0.74919
 N1673 N 0.41275 0.12699 0.22832
 N1674 N 0.43440 0.09206 0.23517
 C1675 C 0.40615 0.06004 0.24290
 C1676 C 0.36423 0.07621 0.24164
 C1677 C 0.36997 0.11864 0.23170
 H1678 H 0.33381 0.05964 0.24701
 H1679 H 0.42722 0.15647 0.22283
 H1680 H 0.46819 0.08996 0.23365
 N1681 N 0.81484 0.58955 0.75013
 N1682 N 0.82935 0.55222 0.76003
 C1683 C 0.87323 0.55354 0.76075
 C1684 C 0.88661 0.59499 0.75203
 C1685 C 0.84856 0.61616 0.74427
 H1686 H 0.91949 0.60706 0.74897
 H1687 H 0.78202 0.59682 0.74799
 H1688 H 0.80915 0.52569 0.76336
 N1689 N 0.90961 0.80583 0.14221
 N1690 N 0.95010 0.80495 0.12983
 C1691 C 0.96470 0.76481 0.13230
 C1692 C 0.93216 0.73956 0.14794
 C1693 C 0.89846 0.76684 0.15412
 H1694 H 0.93438 0.70737 0.15800
 H1695 H 0.89194 0.83355 0.14626
 H1696 H 0.96817 0.83239 0.12403
 N1697 N 0.42445 0.17978 0.65507
 N1698 N 0.46188 0.18461 0.63707
 C1699 C 0.46901 0.22633 0.63075
 C1700 C 0.43378 0.24884 0.64450
 C1701 C 0.40752 0.21827 0.66063
 H1702 H 0.43129 0.28266 0.64865
 H1703 H 0.41291 0.15108 0.66622
 H1704 H 0.48424 0.16027 0.63332
 N1705 N 0.43202 0.79181 0.80576
 N1706 N 0.46744 0.79214 0.82542
 C1707 C 0.46120 0.76588 0.85490
 C1708 C 0.42033 0.74735 0.85363
 C1709 C 0.40321 0.76478 0.82224
 H1710 H 0.40554 0.72364 0.87197
 H1711 H 0.42825 0.80927 0.78114
 H1712 H 0.49563 0.80924 0.81818
 N1713 N 0.93210 0.30694 0.31008
 N1714 N 0.96600 0.30292 0.33139
 C1715 C 0.95765 0.27147 0.35630
 C1716 C 0.91708 0.25451 0.35044
 C1717 C 0.90246 0.27758 0.32097
 H1718 H 0.90163 0.22717 0.36363
 H1719 H 0.93038 0.32806 0.28758
 H1720 H 0.99498 0.32006 0.32773
 N1721 N 0.05222 0.19941 0.30782
 N1722 N 0.01696 0.20448 0.32897
 C1723 C 0.02486 0.23529 0.35417
 C1724 C 0.06642 0.25062 0.34870
 C1725 C 0.08231 0.22726 0.31939
 H1726 H 0.08245 0.27658 0.36269
 H1727 H 0.05501 0.17809 0.28553
 H1728 H -0.01214 0.18786 0.32561
 N1729 N 0.56524 0.69324 0.81893
 N1730 N 0.52752 0.70115 0.83566
 C1731 C 0.53221 0.73565 0.85754
 C1732 C 0.57431 0.75041 0.85414
 C1733 C 0.59392 0.72276 0.83005
 H1734 H 0.58867 0.77875 0.86569
 H1735 H 0.57057 0.66909 0.79941
 H1736 H 0.49912 0.68353 0.83184
 N1737 N 0.55424 0.23638 0.71813
 N1738 N 0.52268 0.24165 0.69448
 C1739 C 0.53724 0.23113 0.65961
 C1740 C 0.57878 0.21592 0.66173
 C1741 C 0.58894 0.22213 0.69860
 H1742 H 0.60128 0.20760 0.63931
 H1743 H 0.55328 0.24687 0.74595
 H1744 H 0.49346 0.25640 0.70159
 N1745 N 0.05000 0.79111 0.21873
 N1746 N 0.01927 0.78911 0.19374
 C1747 C 0.02854 0.75709 0.16986
 C1748 C 0.06578 0.73757 0.18077
 C1749 C 0.07902 0.76083 0.21043
 H1750 H 0.08508 0.71516 0.16473
 H1751 H 0.05346 0.81572 0.23800
 H1752 H -0.00468 0.81192 0.19112
   
