data_POSCAR
  _audit_creation_date              2014-09-24
  _audit_creation_method            'ToBaCCo'
  _symmetry_space_group_name_H-M    'P1'
  _symmetry_Int_Tables_number       1
  _symmetry_cell_setting            triclinic
  loop_
  _symmetry_equiv_pos_as_xyz
 x,y,z
_cell_length_a 34.9310
_cell_length_b 34.9762
_cell_length_c 37.6955
_cell_angle_alpha 90.029300
_cell_angle_beta 89.982200
_cell_angle_gamma 90.059800
loop_
  _atom_site_label
  _atom_site_type_symbol
  _atom_site_fract_x
  _atom_site_fract_y
  _atom_site_fract_z
C1 C 0.40411 -0.00022 0.24971
 C2 C 0.09588 -0.00007 0.75051
 C3 C 0.59567 0.50022 0.24940
 C4 C 0.90511 0.50026 0.75009
 C5 C 0.25059 0.34533 0.99969
 C6 C 0.74990 0.15323 1.00026
 C7 C 0.25036 0.65450 0.49987
 C8 C 0.74940 0.84730 0.49992
 C9 C -0.00001 0.25008 0.37419
 C10 C 0.00038 0.74915 0.12720
 C11 C 0.50043 0.25220 0.62727
 C12 C 0.49960 0.74935 0.87421
 C13 C -0.24966 0.65367 0.99928
 C14 C -0.25034 0.34554 0.50034
 C15 C 0.24974 -0.15573 0.00034
 C16 C 0.24954 1.15503 0.49912
 C17 C 0.09606 0.49909 0.25038
 C18 C -0.09700 1.00041 0.25009
 C19 C 0.40313 0.50006 -0.25146
 C20 C 0.59672 -0.00057 -0.24986
 C21 C 0.00052 0.24913 0.87754
 C22 C 0.50016 0.24967 0.12321
 C23 C -0.00051 0.75066 0.62156
 C24 C 0.50067 0.75214 0.37737
 Zr25 Zr 0.03454 -0.03061 1.04796
 O26 O 0.07715 -0.01717 1.08585
 O27 O 0.02356 -0.08679 1.06114
 O28 O 0.01234 -0.02585 1.10184
 O29 O 0.09616 -0.05309 0.97710
 O30 O -0.03829 0.01464 1.09505
 O31 O 0.08873 -0.05808 1.03712
 O32 O -0.02545 -0.10649 1.02543
 O33 O -0.02528 -0.03464 1.04242
 O34 O 0.02316 -0.05802 0.99948
 O35 O 0.01417 0.02577 1.04940
 O36 O 0.06173 0.00214 1.00829
 Zr37 Zr -0.03331 0.02871 0.95375
 Zr38 Zr -0.04502 0.02177 1.04104
 Zr39 Zr 0.04676 -0.02419 0.96019
 Zr40 Zr -0.03599 -0.05990 0.99291
 O41 O 0.09577 0.00351 0.93946
 O42 O -0.08796 -0.07389 1.01902
 O43 O -0.01254 -0.02803 0.95144
 O44 O -0.05907 -0.00509 0.99311
 O45 O -0.02139 0.05628 1.00196
 O46 O 0.02663 0.03186 0.95942
 C47 C -0.00114 -0.11128 1.05031
 C48 C 0.10776 -0.06397 1.00781
 C49 C -0.01621 -0.00578 1.11430
 O50 O -0.09474 -0.00539 1.06100
 O51 O -0.09387 0.05188 1.02590
 O52 O -0.08712 0.05786 0.96604
 C53 C -0.10594 0.06348 0.99575
 O54 O 0.08533 0.05888 1.04411
 Zr55 Zr 0.03828 0.05700 1.00839
 O56 O -0.02212 0.08541 0.94151
 O57 O -0.04725 0.07567 1.06661
 O58 O 0.02807 0.10255 1.04440
 O59 O 0.08755 0.07438 0.97963
 O60 O 0.02345 0.10562 0.98085
 C61 C 0.00010 0.11061 0.95535
 O62 O -0.07696 0.01632 0.91662
 O63 O 0.05201 -0.07750 0.93381
 O64 O -0.01217 0.02291 0.89969
 O65 O 0.03677 -0.01980 0.90604
 O66 O -0.02174 -0.10688 0.95984
 O67 O -0.07816 -0.06675 0.95273
 C68 C 0.01538 0.00168 0.88696
 H69 H 0.03461 -0.08382 0.99766
 H70 H -0.08708 -0.00731 0.98972
 H71 H 0.03876 0.04653 0.93996
 H72 H 0.02094 0.03848 1.07202
 H73 H -0.09315 -0.10138 1.01482
 H74 H -0.10659 0.01234 1.07835
 H75 H -0.06966 0.07544 1.08278
 H76 H 0.04618 0.12350 1.03866
 H77 H -0.03865 -0.12855 0.96636
 H78 H 0.07549 -0.07646 0.91903
 H79 H 0.10726 -0.01425 0.92196
 H80 H 0.09231 0.10165 0.98530
 H81 H -0.09121 -0.09166 0.95584
 H82 H -0.08099 0.04001 0.90266
 H83 H 0.08135 -0.04065 1.10010
 H84 H 0.09708 0.08464 1.04359
 Zr85 Zr 0.53479 0.47069 0.54541
 O86 O 0.57702 0.48389 0.58367
 O87 O 0.52469 0.41434 0.55817
 O88 O 0.50965 0.47418 0.59872
 O89 O 0.59564 0.44914 0.47422
 O90 O 0.46787 0.52333 0.59293
 O91 O 0.58877 0.44274 0.53411
 O92 O 0.47351 0.39597 0.52454
 O93 O 0.47494 0.46772 0.54067
 O94 O 0.52241 0.44348 0.49702
 O95 O 0.51621 0.52759 0.54664
 O96 O 0.56179 0.50266 0.50500
 Zr97 Zr 0.46689 0.53098 0.45174
 Zr98 Zr 0.45662 0.52457 0.53924
 Zr99 Zr 0.54572 0.47668 0.45699
 Zr100 Zr 0.46321 0.44231 0.49144
 O101 O 0.59058 0.50721 0.43167
 O102 O 0.41114 0.42759 0.51704
 O103 O 0.48617 0.47375 0.44960
 O104 O 0.44127 0.49768 0.49164
 O105 O 0.48024 0.55834 0.49968
 O106 O 0.52698 0.53335 0.45630
 C107 C 0.49885 0.39054 0.54847
 C108 C 0.60752 0.43739 0.50450
 C109 C 0.48414 0.49787 0.61177
 O110 O 0.41138 0.49206 0.56132
 O111 O 0.40718 0.55391 0.52412
 O112 O 0.41321 0.56010 0.46422
 C113 C 0.39474 0.56557 0.49412
 O114 O 0.58869 0.55892 0.53886
 Zr115 Zr 0.53994 0.55813 0.50512
 O116 O 0.47766 0.58804 0.44041
 O117 O 0.44903 0.57841 0.56425
 O118 O 0.53060 0.60326 0.54183
 O119 O 0.58866 0.57548 0.47557
 O120 O 0.52487 0.60724 0.47849
 C121 C 0.50047 0.61289 0.45398
 O122 O 0.42351 0.51946 0.41412
 O123 O 0.55714 0.42352 0.43202
 O124 O 0.48966 0.52583 0.39813
 O125 O 0.52582 0.47286 0.40479
 O126 O 0.47816 0.39617 0.45761
 O127 O 0.41963 0.43566 0.45253
 C128 C 0.51262 0.49978 0.38536
 H129 H 0.53359 0.41758 0.49502
 H130 H 0.41320 0.49560 0.48868
 H131 H 0.53849 0.54841 0.43678
 H132 H 0.52472 0.54015 0.56883
 H133 H 0.40620 0.40008 0.51264
 H134 H 0.39196 0.51022 0.57030
 H135 H 0.42710 0.57646 0.58093
 H136 H 0.54875 0.62417 0.53610
 H137 H 0.46277 0.37370 0.46491
 H138 H 0.57885 0.42722 0.41542
 H139 H 0.61077 0.48868 0.42512
 H140 H 0.59380 0.60262 0.48147
 H141 H 0.40945 0.40924 0.45343
 H142 H 0.42028 0.54324 0.40012
 H143 H 0.58024 0.46052 0.59824
 H144 H 0.59928 0.58516 0.53990
 Zr145 Zr 0.46621 1.03173 0.54739
 O146 O 0.42391 1.01851 0.58564
 O147 O 0.47726 1.08789 0.56079
 O148 O 0.48877 1.02652 0.60113
 O149 O 0.40395 1.05391 0.47660
 O150 O 0.54012 0.98698 0.59381
 O151 O 0.41160 1.05879 0.53661
 O152 O 0.52593 1.10781 0.52479
 O153 O 0.52603 1.03576 0.54144
 O154 O 0.47716 1.05922 0.49889
 O155 O 0.48683 0.97539 0.54857
 O156 O 0.43878 0.99902 0.50782
 Zr157 Zr 0.53321 0.97286 0.45253
 Zr158 Zr 0.54601 0.97935 0.53973
 Zr159 Zr 0.45335 1.02538 0.45960
 Zr160 Zr 0.53627 1.06127 0.49201
 O161 O 0.40426 0.99763 0.43908
 O162 O 0.58841 1.07514 0.51787
 O163 O 0.51251 1.02955 0.45051
 O164 O 0.55947 1.00646 0.49180
 O165 O 0.52185 0.94519 0.50077
 O166 O 0.47341 0.96933 0.45863
 C167 C 0.50182 1.11250 0.54990
 C168 C 0.39237 1.06458 0.50734
 C169 C 0.51774 1.00684 0.61332
 O170 O 0.59639 1.00596 0.55886
 O171 O 0.59394 0.94786 0.52349
 O172 O 0.58692 0.94388 0.46343
 C173 C 0.60569 0.93722 0.49280
 O174 O 0.41529 0.94288 0.54357
 Zr175 Zr 0.46228 0.94423 0.50774
 O176 O 0.52272 0.91585 0.44095
 O177 O 0.54797 0.92573 0.56576
 O178 O 0.47191 0.89880 0.54397
 O179 O 0.41331 0.92630 0.47887
 O180 O 0.47794 0.89538 0.48096
 C181 C 0.50116 0.89044 0.45534
 O182 O 0.57631 0.98595 0.41501
 O183 O 0.44794 1.07878 0.43347
 O184 O 0.51171 0.97808 0.39873
 O185 O 0.46289 1.02082 0.40534
 O186 O 0.52184 1.10846 0.45932
 O187 O 0.57810 1.06825 0.45153
 C188 C 0.48415 0.99927 0.38616
 H189 H 0.46564 1.08501 0.49728
 H190 H 0.58745 1.00861 0.48818
 H191 H 0.46126 0.95453 0.43926
 H192 H 0.48032 0.96266 0.57123
 H193 H 0.59357 1.10265 0.51377
 H194 H 0.60845 0.98794 0.57578
 H195 H 0.57086 0.92574 0.58133
 H196 H 0.45350 0.87807 0.53836
 H197 H 0.53893 1.13002 0.46575
 H198 H 0.42452 1.07768 0.41862
 H199 H 0.39279 1.01526 0.42148
 H200 H 0.40883 0.89901 0.48460
 H201 H 0.59133 1.09306 0.45475
 H202 H 0.58046 0.96246 0.40076
 H203 H 0.41980 1.04210 0.59977
 H204 H 0.40284 0.91747 0.54259
 Zr205 Zr -0.03390 0.52972 1.04704
 O206 O -0.07657 0.51643 1.08493
 O207 O -0.02284 0.58601 1.05978
 O208 O -0.01178 0.52533 1.10098
 O209 O -0.09592 0.55084 0.97648
 O210 O 0.03908 0.48509 1.09441
 O211 O -0.08812 0.55710 1.03632
 O212 O 0.02640 0.60550 1.02425
 O213 O 0.02594 0.53365 1.04159
 O214 O -0.02240 0.55682 0.99846
 O215 O -0.01365 0.47333 1.04872
 O216 O -0.06096 0.49701 1.00727
 Zr217 Zr 0.03373 0.46970 0.95306
 Zr218 Zr 0.04556 0.47721 1.04038
 Zr219 Zr -0.04596 0.52308 0.95898
 Zr220 Zr 0.03679 0.55866 0.99203
 O221 O -0.09086 0.49206 0.93431
 O222 O 0.08873 0.57296 1.01804
 O223 O 0.01349 0.52659 0.95080
 O224 O 0.05960 0.50372 0.99229
 O225 O 0.02179 0.44255 1.00143
 O226 O -0.02625 0.46665 0.95855
 C227 C 0.00200 0.61040 1.04904
 C228 C -0.10741 0.56226 1.00707
 C229 C 0.01686 0.50551 1.11358
 O230 O 0.09547 0.50430 1.06002
 O231 O 0.09422 0.44671 1.02521
 O232 O 0.08773 0.44086 0.96527
 C233 C 0.10642 0.43516 0.99504
 O234 O -0.08514 0.44098 1.04328
 Zr235 Zr -0.03787 0.44199 1.00776
 O236 O 0.02312 0.41268 0.94171
 O237 O 0.04752 0.42359 1.06640
 O238 O -0.02819 0.39672 1.04416
 O239 O -0.08703 0.42428 0.97905
 O240 O -0.02285 0.39292 0.98083
 C241 C 0.00083 0.38761 0.95563
 O242 O 0.07667 0.48147 0.91508
 O243 O -0.05792 0.57602 0.93388
 O244 O 0.01041 0.47454 0.89957
 O245 O -0.02709 0.52661 0.90647
 O246 O 0.02158 0.60453 0.95804
 O247 O 0.07965 0.56570 0.95251
 C248 C -0.01321 0.50010 0.88692
 H249 H -0.03387 0.58261 0.99653
 H250 H 0.08761 0.50587 0.98888
 H251 H -0.03790 0.45139 0.93924
 H252 H -0.02040 0.46081 1.07142
 H253 H 0.09394 0.60042 1.01370
 H254 H 0.10727 0.48668 1.07747
 H255 H 0.07003 0.42385 1.08245
 H256 H -0.04650 0.37590 1.03857
 H257 H 0.03745 0.62694 0.96465
 H258 H -0.07982 0.57214 0.91753
 H259 H -0.11067 0.51066 0.92701
 H260 H -0.09181 0.39708 0.98499
 H261 H 0.09107 0.59153 0.95463
 H262 H 0.08002 0.45764 0.90114
 H263 H -0.08071 0.53992 1.09921
 H264 H -0.09703 0.41528 1.04307
 Zr265 Zr -0.03438 0.46896 0.45381
 O266 O -0.07759 0.48187 0.41643
 O267 O -0.02266 0.41287 0.44038
 O268 O -0.01252 0.47322 0.39968
 O269 O -0.09659 0.45084 0.52527
 O270 O 0.03891 0.51294 0.40596
 O271 O -0.08845 0.44111 0.46593
 O272 O 0.02489 0.39339 0.47795
 O273 O 0.02551 0.46511 0.45922
 O274 O -0.02277 0.44271 0.50274
 O275 O -0.01377 0.52532 0.45152
 O276 O -0.06093 0.50243 0.49334
 Zr277 Zr 0.03400 0.53027 0.54702
 Zr278 Zr 0.04548 0.52151 0.45979
 Zr279 Zr -0.04580 0.47719 0.54195
 Zr280 Zr 0.03644 0.44080 0.50899
 O281 O -0.08992 0.50876 0.56726
 O282 O 0.08780 0.42574 0.48238
 O283 O 0.01359 0.47351 0.54997
 O284 O 0.05956 0.49564 0.50812
 O285 O 0.02202 0.55677 0.49835
 O286 O -0.02593 0.53353 0.54165
 C287 C 0.00088 0.38822 0.45290
 C288 C -0.10793 0.43747 0.49541
 C289 C 0.01639 0.49267 0.38695
 O290 O 0.09525 0.49406 0.44036
 O291 O 0.09427 0.55223 0.47448
 O292 O 0.08792 0.55891 0.53436
 C293 C 0.10651 0.56423 0.50449
 O294 O -0.08494 0.55835 0.45667
 Zr295 Zr -0.03764 0.55738 0.49212
 O296 O 0.02364 0.58742 0.55775
 O297 O 0.04752 0.57474 0.43307
 O298 O -0.02775 0.60216 0.45522
 O299 O -0.08675 0.57530 0.52078
 O300 O -0.02234 0.60671 0.51849
 C301 C 0.00133 0.61228 0.54365
 O302 O 0.07707 0.51901 0.58496
 O303 O -0.05809 0.42430 0.56709
 O304 O 0.01083 0.52602 0.60066
 O305 O -0.02623 0.47358 0.59421
 O306 O 0.02122 0.39599 0.54424
 O307 O 0.08004 0.43373 0.54778
 C308 C -0.01257 0.50036 0.61357
 H309 H -0.03442 0.41701 0.50498
 H310 H 0.08758 0.49347 0.51144
 H311 H -0.03737 0.54912 0.56083
 H312 H -0.02051 0.53762 0.42873
 H313 H 0.09258 0.39819 0.48658
 H314 H 0.10712 0.51146 0.42274
 H315 H 0.07005 0.57427 0.41705
 H316 H -0.04589 0.62315 0.46065
 H317 H 0.03647 0.37315 0.53775
 H318 H -0.07973 0.42834 0.58368
 H319 H -0.11009 0.49056 0.57466
 H320 H -0.09132 0.60252 0.51486
 H321 H 0.09104 0.40774 0.54573
 H322 H 0.08044 0.54298 0.59869
 H323 H -0.08188 0.45822 0.40243
 H324 H -0.09676 0.58406 0.45684
 Zr325 Zr 0.46525 -0.03075 -0.04759
 O326 O 0.42267 -0.01697 -0.08535
 O327 O 0.47619 -0.08711 -0.06092
 O328 O 0.48746 -0.02644 -0.10146
 O329 O 0.40305 -0.05189 0.02327
 O330 O 0.53889 0.01313 -0.09465
 O331 O 0.41099 -0.05821 -0.03659
 O332 O 0.52326 -0.10714 -0.02308
 O333 O 0.52501 -0.03532 -0.04175
 O334 O 0.47611 -0.05762 0.00121
 O335 O 0.48632 0.02550 -0.04919
 O336 O 0.43842 0.00287 -0.00824
 Zr337 Zr 0.53360 0.02842 0.04644
 Zr338 Zr 0.54542 0.02090 -0.04073
 Zr339 Zr 0.45271 -0.02324 0.04010
 Zr340 Zr 0.53522 -0.06010 0.00803
 O341 O 0.40416 0.00547 0.06046
 O342 O 0.58652 -0.07542 -0.01853
 O343 O 0.51189 -0.02785 0.04914
 O344 O 0.55915 -0.00570 0.00734
 O345 O 0.52224 0.05596 -0.00184
 O346 O 0.47374 0.03251 0.04071
 C347 C 0.49926 -0.11207 -0.04813
 C348 C 0.39169 -0.06347 -0.00731
 C349 C 0.51643 -0.00693 -0.11389
 O350 O 0.59503 -0.00682 -0.06015
 O351 O 0.59413 0.05127 -0.02547
 O352 O 0.58745 0.05727 0.03440
 C353 C 0.60612 0.06300 0.00470
 O354 O 0.41609 0.06037 -0.04459
 Zr355 Zr 0.46267 0.05757 -0.00840
 O356 O 0.52413 0.08533 0.05771
 O357 O 0.54840 0.07427 -0.06716
 O358 O 0.47462 0.10282 -0.04425
 O359 O 0.41311 0.07531 0.01963
 O360 O 0.47757 0.10607 0.01988
 C361 C 0.50130 0.11065 0.04527
 O362 O 0.57702 0.01545 0.08360
 O363 O 0.44613 -0.07619 0.06684
 O364 O 0.51231 0.02339 0.10051
 O365 O 0.46299 -0.01897 0.09420
 O366 O 0.52075 -0.10619 0.04208
 O367 O 0.57769 -0.06674 0.04794
 C368 C 0.48460 0.00235 0.11328
 H369 H 0.46426 -0.08323 0.00331
 H370 H 0.58714 -0.00812 0.01075
 H371 H 0.46182 0.04745 0.06010
 H372 H 0.47984 0.03812 -0.07190
 H373 H 0.59118 -0.10296 -0.01412
 H374 H 0.60723 0.01073 -0.07745
 H375 H 0.57106 0.07364 -0.08303
 H376 H 0.45719 0.12430 -0.03853
 H377 H 0.53754 -0.12808 0.03604
 H378 H 0.42273 -0.07451 0.08169
 H379 H 0.39225 -0.01199 0.07798
 H380 H 0.40846 0.10247 0.01356
 H381 H 0.59077 -0.09160 0.04474
 H382 H 0.58141 0.03908 0.09761
 H383 H 0.41815 -0.04043 -0.09956
 H384 H 0.40552 0.08661 -0.04484
 Zr385 Zr 0.53389 0.52981 -0.04806
 O386 O 0.57560 0.51661 -0.08683
 O387 O 0.52273 0.58624 -0.06090
 O388 O 0.50916 0.52573 -0.10136
 O389 O 0.59668 0.55101 0.02202
 O390 O 0.46399 0.47978 -0.09427
 O391 O 0.58834 0.55718 -0.03782
 O392 O 0.47536 0.60582 -0.02314
 O393 O 0.47423 0.53347 -0.04193
 O394 O 0.52303 0.55676 0.00079
 O395 O 0.51446 0.47309 -0.04895
 O396 O 0.56135 0.49721 -0.00829
 Zr397 Zr 0.46718 0.47019 0.04671
 Zr398 Zr 0.45524 0.47682 -0.04035
 Zr399 Zr 0.54696 0.52329 0.04015
 Zr400 Zr 0.46393 0.55855 0.00779
 O401 O 0.59226 0.49251 0.06429
 O402 O 0.41246 0.57435 -0.01822
 O403 O 0.48762 0.52693 0.04891
 O404 O 0.44103 0.50366 0.00752
 O405 O 0.47910 0.44254 -0.00137
 O406 O 0.52717 0.46696 0.04108
 C407 C 0.49947 0.61101 -0.04804
 C408 C 0.60789 0.56236 -0.00868
 C409 C 0.48218 0.50334 -0.11376
 O410 O 0.40838 0.50793 -0.06106
 O411 O 0.40635 0.44712 -0.02452
 O412 O 0.41322 0.44113 0.03528
 C413 C 0.39445 0.43537 0.00563
 O414 O 0.58576 0.43963 -0.04360
 Zr415 Zr 0.53864 0.44192 -0.00796
 O416 O 0.47648 0.41315 0.05709
 O417 O 0.44862 0.42298 -0.06557
 O418 O 0.52666 0.39654 -0.04370
 O419 O 0.58864 0.42503 0.01982
 O420 O 0.52474 0.39339 0.02062
 C421 C 0.50021 0.38831 0.04526
 O422 O 0.42461 0.48250 0.08490
 O423 O 0.55926 0.57622 0.06523
 O424 O 0.49076 0.47466 0.09999
 O425 O 0.52865 0.52653 0.09289
 O426 O 0.47944 0.60347 0.04283
 O427 O 0.42046 0.56507 0.04684
 C428 C 0.51459 0.50011 0.11248
 H429 H 0.53475 0.58245 0.00283
 H430 H 0.41303 0.50586 0.01092
 H431 H 0.53895 0.45188 0.06042
 H432 H 0.52180 0.46039 -0.07141
 H433 H 0.40779 0.60182 -0.01344
 H434 H 0.39108 0.48932 -0.07267
 H435 H 0.42612 0.42435 -0.08161
 H436 H 0.54422 0.37514 -0.03807
 H437 H 0.46382 0.62616 0.03669
 H438 H 0.58128 0.57228 0.08141
 H439 H 0.61172 0.51132 0.07204
 H440 H 0.59361 0.39787 0.01389
 H441 H 0.40981 0.59126 0.04552
 H442 H 0.42112 0.45881 0.09900
 H443 H 0.57902 0.54005 -0.10129
 H444 H 0.59545 0.41309 -0.04499
 Zr445 Zr 0.03322 1.03079 0.45275
 O446 O 0.07524 1.01732 0.41430
 O447 O 0.02197 1.08700 0.43952
 O448 O 0.01047 1.02618 0.39918
 O449 O 0.09653 1.05184 0.52281
 O450 O -0.04123 0.98702 0.40655
 O451 O 0.08776 1.05804 0.46304
 O452 O -0.02466 1.10704 0.47786
 O453 O -0.02651 1.03504 0.45933
 O454 O 0.02301 1.05767 0.50170
 O455 O 0.01229 0.97455 0.45123
 O456 O 0.06095 0.99758 0.49173
 Zr457 Zr -0.03316 0.97128 0.54765
 Zr458 Zr -0.04676 0.97870 0.46059
 Zr459 Zr 0.04712 1.02343 0.54035
 Zr460 Zr -0.03603 1.05989 0.50920
 O461 O 0.09595 0.99497 0.56039
 O462 O -0.08777 1.07478 0.48322
 O463 O -0.01194 1.02775 0.55006
 O464 O -0.05963 1.00529 0.50893
 O465 O -0.02242 0.94406 0.49904
 O466 O 0.02659 0.96751 0.54106
 C467 C -0.00095 1.11195 0.45252
 C468 C 0.10751 1.06321 0.49206
 C469 C -0.01872 1.00681 0.38706
 O470 O -0.09714 1.00571 0.44212
 O471 O -0.09467 0.94720 0.47688
 O472 O -0.08716 0.94262 0.53686
 C473 C -0.10622 0.93632 0.50755
 O474 O 0.08364 0.94156 0.45528
 Zr475 Zr 0.03706 0.94291 0.49157
 O476 O -0.02276 0.91425 0.55871
 O477 O -0.04934 0.92540 0.43398
 O478 O 0.02671 0.89781 0.45508
 O479 O 0.08625 0.92458 0.51984
 O480 O 0.02143 0.89394 0.51810
 C481 C -0.00145 0.88893 0.54396
 O482 O -0.07598 0.98385 0.58559
 O483 O 0.05384 1.07654 0.56682
 O484 O -0.01146 0.97662 0.60139
 O485 O 0.03759 1.01917 0.59462
 O486 O -0.02136 1.10611 0.54307
 O487 O -0.07802 1.06649 0.54959
 C488 C 0.01617 0.99785 0.61390
 H489 H 0.03481 1.08333 0.50361
 H490 H -0.08757 1.00755 0.51276
 H491 H 0.03877 0.95254 0.56026
 H492 H 0.01850 0.96199 0.42842
 H493 H -0.09247 1.10233 0.48753
 H494 H -0.10942 0.98794 0.42507
 H495 H -0.07232 0.92576 0.41852
 H496 H 0.04503 0.87694 0.46034
 H497 H -0.03827 1.12793 0.53715
 H498 H 0.07744 1.07499 0.58138
 H499 H 0.10795 1.01252 0.57779
 H500 H 0.09050 0.89731 0.51389
 H501 H -0.09128 1.09126 0.54646
 H502 H -0.07999 0.96020 0.59966
 H503 H 0.07951 1.04087 0.40016
 H504 H 0.09594 0.91608 0.45598
 Zr505 Zr 0.71963 0.28450 0.20264
 O506 O 0.73339 0.32683 0.16465
 O507 O 0.66316 0.27342 0.18938
 O508 O 0.72388 0.26214 0.14882
 O509 O 0.69897 0.34707 0.27330
 O510 O 0.76316 0.21065 0.15576
 O511 O 0.69258 0.33888 0.21348
 O512 O 0.64290 0.22654 0.22731
 O513 O 0.71481 0.22487 0.20868
 O514 O 0.69262 0.27392 0.25149
 O515 O 0.77588 0.26343 0.20108
 O516 O 0.75338 0.31136 0.24191
 Zr517 Zr 0.77862 0.21648 0.29684
 Zr518 Zr 0.77102 0.20446 0.20970
 Zr519 Zr 0.72715 0.29735 0.29031
 Zr520 Zr 0.68995 0.21490 0.25852
 O521 O 0.75601 0.34581 0.31070
 O522 O 0.67444 0.16348 0.23230
 O523 O 0.72235 0.23827 0.29953
 O524 O 0.74434 0.19093 0.25783
 O525 O 0.80628 0.22764 0.24852
 O526 O 0.78288 0.27625 0.29094
 C527 C 0.63811 0.25034 0.20213
 C528 C 0.68753 0.35835 0.24267
 C529 C 0.74323 0.23308 0.13647
 O530 O 0.74302 0.15490 0.19049
 O531 O 0.80120 0.15584 0.22493
 O532 O 0.80734 0.16263 0.28476
 C533 C 0.81296 0.14393 0.25506
 O534 O 0.81131 0.33329 0.20528
 Zr535 Zr 0.80807 0.28711 0.24181
 O536 O 0.83555 0.22617 0.30828
 O537 O 0.82441 0.20134 0.18317
 O538 O 0.85347 0.27459 0.20623
 O539 O 0.82567 0.33697 0.26944
 O540 O 0.85643 0.27282 0.27059
 C541 C 0.86090 0.24918 0.29602
 O542 O 0.76566 0.17314 0.33405
 O543 O 0.67407 0.30402 0.31692
 O544 O 0.77340 0.23776 0.35090
 O545 O 0.73144 0.28730 0.34446
 O546 O 0.64381 0.22968 0.29246
 O547 O 0.68323 0.17277 0.29869
 C548 C 0.75251 0.26556 0.36361
 H549 H 0.66702 0.28582 0.25349
 H550 H 0.74183 0.16299 0.26131
 H551 H 0.79780 0.28823 0.31032
 H552 H 0.78854 0.26976 0.17833
 H553 H 0.64689 0.15882 0.23686
 H554 H 0.76049 0.14259 0.17318
 H555 H 0.82370 0.17868 0.16734
 H556 H 0.87509 0.29192 0.21191
 H557 H 0.62185 0.21286 0.28655
 H558 H 0.67579 0.32745 0.33169
 H559 H 0.73856 0.35772 0.32823
 H560 H 0.85291 0.34161 0.26347
 H561 H 0.65823 0.15979 0.29568
 H562 H 0.78933 0.16883 0.34803
 H563 H 0.70987 0.33127 0.15049
 H564 H 0.83771 0.34360 0.20490
 Zr565 Zr 0.77971 0.71552 0.70247
 O566 O 0.76604 0.67364 0.66404
 O567 O 0.83597 0.72611 0.68896
 O568 O 0.77544 0.74056 0.64927
 O569 O 0.80303 0.65417 0.77301
 O570 O 0.72725 0.78331 0.65601
 O571 O 0.80728 0.66127 0.71289
 O572 O 0.85524 0.77625 0.72347
 O573 O 0.78311 0.77520 0.70770
 O574 O 0.80771 0.72729 0.75062
 O575 O 0.72281 0.73439 0.70209
 O576 O 0.74800 0.68841 0.74305
 Zr577 Zr 0.72126 0.78301 0.79723
 Zr578 Zr 0.72634 0.79378 0.70983
 Zr579 Zr 0.77495 0.70373 0.79085
 Zr580 Zr 0.80922 0.78639 0.75677
 O581 O 0.74461 0.65838 0.81547
 O582 O 0.82401 0.83844 0.73131
 O583 O 0.77834 0.76315 0.79877
 O584 O 0.75403 0.80874 0.75714
 O585 O 0.69288 0.77023 0.74969
 O586 O 0.71838 0.72301 0.79233
 C587 C 0.86016 0.75148 0.69902
 C588 C 0.81348 0.64237 0.74223
 C589 C 0.75200 0.76651 0.63669
 O590 O 0.75830 0.83935 0.68774
 O591 O 0.69723 0.84300 0.72568
 O592 O 0.69215 0.83683 0.78563
 C593 C 0.68608 0.85533 0.75589
 O594 O 0.69042 0.66265 0.70931
 Zr595 Zr 0.69254 0.71066 0.74386
 O596 O 0.66418 0.77355 0.80855
 O597 O 0.67210 0.80129 0.68548
 O598 O 0.64670 0.72166 0.70833
 O599 O 0.67563 0.66133 0.77260
 O600 O 0.64419 0.72500 0.77253
 C601 C 0.63920 0.74972 0.79698
 O602 O 0.73414 0.82590 0.83493
 O603 O 0.82832 0.69238 0.81550
 O604 O 0.72620 0.75981 0.85061
 O605 O 0.77840 0.72246 0.84348
 O606 O 0.85583 0.77113 0.78994
 O607 O 0.81616 0.82943 0.79613
 C608 C 0.75181 0.73618 0.86309
 H609 H 0.83364 0.71600 0.75217
 H610 H 0.75628 0.83675 0.76023
 H611 H 0.70356 0.71134 0.81192
 H612 H 0.70984 0.72629 0.67997
 H613 H 0.85152 0.84344 0.73585
 H614 H 0.73981 0.85812 0.67818
 H615 H 0.67374 0.82339 0.66901
 H616 H 0.62545 0.70403 0.71439
 H617 H 0.87813 0.78690 0.78284
 H618 H 0.82473 0.67060 0.83200
 H619 H 0.76353 0.63887 0.82274
 H620 H 0.64852 0.65603 0.76660
 H621 H 0.84250 0.83984 0.79495
 H622 H 0.71061 0.82948 0.84928
 H623 H 0.78930 0.67039 0.64924
 H624 H 0.66376 0.65321 0.70767
 Zr625 Zr 0.22002 0.21592 0.79575
 O626 O 0.23412 0.17320 0.83320
 O627 O 0.16387 0.22651 0.80940
 O628 O 0.22490 0.23818 0.84967
 O629 O 0.20027 0.15352 0.72508
 O630 O 0.26432 0.28978 0.84280
 O631 O 0.19218 0.16171 0.78460
 O632 O 0.14377 0.27548 0.77399
 O633 O 0.21582 0.27572 0.79036
 O634 O 0.19251 0.22719 0.74735
 O635 O 0.27634 0.23685 0.79711
 O636 O 0.25267 0.18921 0.75578
 Zr637 Zr 0.27873 0.28365 0.70131
 Zr638 Zr 0.27221 0.29602 0.78868
 Zr639 Zr 0.22627 0.20403 0.70760
 Zr640 Zr 0.19014 0.28627 0.74111
 O641 O 0.25745 0.15979 0.68213
 O642 O 0.17594 0.33809 0.76726
 O643 O 0.22191 0.26323 0.69949
 O644 O 0.24502 0.30953 0.74080
 O645 O 0.30637 0.27222 0.74955
 O646 O 0.28264 0.22393 0.70685
 C647 C 0.13926 0.25116 0.79890
 C648 C 0.18774 0.14224 0.75526
 C649 C 0.24440 0.26719 0.86213
 O650 O 0.24560 0.34620 0.80803
 O651 O 0.30366 0.34403 0.77224
 O652 O 0.30710 0.33755 0.71205
 C653 C 0.31394 0.35606 0.74150
 O654 O 0.30863 0.16531 0.79130
 Zr655 Zr 0.30754 0.21273 0.75607
 O656 O 0.33614 0.27442 0.69032
 O657 O 0.32581 0.29809 0.81485
 O658 O 0.35290 0.22181 0.79260
 O659 O 0.32596 0.16432 0.72676
 O660 O 0.35655 0.22938 0.72995
 C661 C 0.36161 0.25300 0.70469
 O662 O 0.26569 0.32608 0.66326
 O663 O 0.17292 0.19142 0.68333
 O664 O 0.27425 0.26031 0.64802
 O665 O 0.22208 0.22300 0.65516
 O666 O 0.14367 0.27083 0.70779
 O667 O 0.18231 0.32889 0.70157
 C668 C 0.24856 0.23683 0.63550
 H669 H 0.16673 0.21554 0.74567
 H670 H 0.24273 0.33748 0.73733
 H671 H 0.29804 0.21257 0.68749
 H672 H 0.28907 0.23029 0.81975
 H673 H 0.14833 0.34301 0.76333
 H674 H 0.26371 0.35822 0.82495
 H675 H 0.32573 0.32102 0.83035
 H676 H 0.37362 0.20348 0.78685
 H677 H 0.12132 0.28662 0.71470
 H678 H 0.17686 0.16992 0.66658
 H679 H 0.23898 0.13987 0.67471
 H680 H 0.35333 0.16016 0.73245
 H681 H 0.15653 0.34031 0.70414
 H682 H 0.28917 0.32972 0.64882
 H683 H 0.21078 0.16880 0.84765
 H684 H 0.33403 0.15285 0.79025
 Zr685 Zr 0.28066 0.78446 0.29638
 O686 O 0.26668 0.82769 0.33341
 O687 O 0.33697 0.77438 0.30965
 O688 O 0.27638 0.76284 0.35056
 O689 O 0.30032 0.84553 0.22484
 O690 O 0.23631 0.71169 0.34442
 O691 O 0.30840 0.83840 0.28448
 O692 O 0.35672 0.72486 0.27466
 O693 O 0.28485 0.72461 0.29163
 O694 O 0.30775 0.77243 0.24789
 O695 O 0.22433 0.76367 0.29837
 O696 O 0.24769 0.81057 0.25633
 Zr697 Zr 0.22077 0.71516 0.20317
 Zr698 Zr 0.22846 0.70444 0.29054
 Zr699 Zr 0.27368 0.79496 0.20815
 Zr700 Zr 0.31003 0.71330 0.24227
 O701 O 0.24224 0.83900 0.18269
 O702 O 0.32451 0.66195 0.26902
 O703 O 0.27768 0.73558 0.20069
 O704 O 0.25509 0.69009 0.24260
 O705 O 0.19360 0.72747 0.25148
 O706 O 0.21732 0.77504 0.20811
 C707 C 0.36151 0.74962 0.29922
 C708 C 0.31287 0.85731 0.25487
 C709 C 0.25667 0.73418 0.36338
 O710 O 0.25575 0.65496 0.31060
 O711 O 0.19806 0.65543 0.27581
 O712 O 0.19205 0.66133 0.21583
 C713 C 0.18642 0.64295 0.24574
 O714 O 0.19154 0.83473 0.29235
 Zr715 Zr 0.19277 0.78712 0.25730
 O716 O 0.16359 0.72529 0.19189
 O717 O 0.17481 0.70238 0.31669
 O718 O 0.14756 0.77753 0.29390
 O719 O 0.17477 0.83578 0.22817
 O720 O 0.14375 0.77149 0.23070
 C721 C 0.13850 0.74765 0.20565
 O722 O 0.23281 0.67196 0.16557
 O723 O 0.32677 0.80698 0.18312
 O724 O 0.22512 0.73811 0.14948
 O725 O 0.27750 0.77527 0.15593
 O726 O 0.35588 0.72840 0.20808
 O727 O 0.31790 0.66982 0.20352
 C728 C 0.25070 0.76161 0.13659
 H729 H 0.33350 0.78405 0.24581
 H730 H 0.25736 0.66209 0.23946
 H731 H 0.20188 0.78633 0.18876
 H732 H 0.21176 0.77059 0.32102
 H733 H 0.35215 0.65714 0.26519
 H734 H 0.23815 0.64329 0.32819
 H735 H 0.17520 0.68005 0.33290
 H736 H 0.12661 0.79562 0.28820
 H737 H 0.37857 0.71326 0.21523
 H738 H 0.32285 0.82855 0.16646
 H739 H 0.26046 0.85931 0.17569
 H740 H 0.14752 0.84041 0.23407
 H741 H 0.34390 0.65887 0.20593
 H742 H 0.20900 0.66834 0.15163
 H743 H 0.29007 0.83231 0.34771
 H744 H 0.16574 0.84641 0.29208
 Zr745 Zr 0.21953 0.78434 0.70362
 O746 O 0.23387 0.82731 0.66647
 O747 O 0.16322 0.77406 0.68988
 O748 O 0.22416 0.76234 0.64957
 O749 O 0.20008 0.84616 0.77491
 O750 O 0.26349 0.71072 0.65619
 O751 O 0.19195 0.83854 0.71532
 O752 O 0.14285 0.72508 0.72522
 O753 O 0.21513 0.72451 0.70861
 O754 O 0.19200 0.77275 0.75195
 O755 O 0.27583 0.76331 0.70213
 O756 O 0.25246 0.81052 0.74374
 Zr757 Zr 0.27795 0.71560 0.79748
 Zr758 Zr 0.27146 0.70409 0.71017
 Zr759 Zr 0.22592 0.79545 0.79182
 Zr760 Zr 0.18933 0.71363 0.75777
 O761 O 0.25729 0.83958 0.81734
 O762 O 0.17475 0.66224 0.73105
 O763 O 0.22125 0.73620 0.79955
 O764 O 0.24411 0.69018 0.75787
 O765 O 0.30594 0.72734 0.74946
 O766 O 0.28213 0.77535 0.79234
 C767 C 0.13840 0.74953 0.70039
 C768 C 0.18758 0.85773 0.74485
 C769 C 0.24355 0.73334 0.63700
 O770 O 0.24456 0.65407 0.69068
 O771 O 0.30284 0.65589 0.72591
 O772 O 0.30620 0.66172 0.78613
 C773 C 0.31312 0.64353 0.75648
 O774 O 0.30942 0.83390 0.70763
 Zr775 Zr 0.30733 0.78688 0.74330
 O776 O 0.33530 0.72451 0.80820
 O777 O 0.32489 0.70202 0.68364
 O778 O 0.35293 0.77600 0.70747
 O779 O 0.32492 0.83617 0.77178
 O780 O 0.35591 0.77194 0.77124
 C781 C 0.36060 0.74774 0.79613
 O782 O 0.26493 0.67292 0.83532
 O783 O 0.17260 0.80772 0.81627
 O784 O 0.27391 0.73875 0.85099
 O785 O 0.22199 0.77636 0.84423
 O786 O 0.14311 0.72884 0.79146
 O787 O 0.18134 0.67051 0.79682
 C788 C 0.24851 0.76243 0.86372
 H789 H 0.16629 0.78447 0.75376
 H790 H 0.24175 0.66220 0.76111
 H791 H 0.29747 0.78669 0.81176
 H792 H 0.28859 0.76996 0.67951
 H793 H 0.14712 0.65737 0.73501
 H794 H 0.26247 0.64219 0.67350
 H795 H 0.32462 0.67923 0.66798
 H796 H 0.37411 0.79384 0.71326
 H797 H 0.12063 0.71325 0.78448
 H798 H 0.17652 0.82912 0.83313
 H799 H 0.23891 0.85941 0.82507
 H800 H 0.35204 0.84113 0.76557
 H801 H 0.15548 0.65923 0.79419
 H802 H 0.28847 0.66917 0.84961
 H803 H 0.21054 0.83191 0.65209
 H804 H 0.33559 0.84476 0.70730
 Zr805 Zr 0.28004 0.21459 0.20264
 O806 O 0.26623 0.17136 0.16554
 O807 O 0.33629 0.22593 0.18870
 O808 O 0.27560 0.23632 0.14855
 O809 O 0.29839 0.15265 0.27402
 O810 O 0.23579 0.28756 0.15495
 O811 O 0.30782 0.16061 0.21463
 O812 O 0.35622 0.27361 0.22592
 O813 O 0.28424 0.27440 0.20781
 O814 O 0.30692 0.22627 0.25128
 O815 O 0.22361 0.23530 0.20089
 O816 O 0.24667 0.18845 0.24254
 Zr817 Zr 0.22046 0.28348 0.29615
 Zr818 Zr 0.22786 0.29449 0.20886
 Zr819 Zr 0.27269 0.20353 0.29084
 Zr820 Zr 0.30927 0.28542 0.25731
 O821 O 0.24117 0.15959 0.31649
 O822 O 0.32445 0.33652 0.23040
 O823 O 0.27707 0.26281 0.29872
 O824 O 0.25457 0.30877 0.25678
 O825 O 0.19291 0.27147 0.24795
 O826 O 0.21649 0.22366 0.29107
 C827 C 0.36117 0.24947 0.20100
 C828 C 0.31156 0.14126 0.24412
 C829 C 0.25606 0.26512 0.13588
 O830 O 0.25524 0.34413 0.18912
 O831 O 0.19722 0.34308 0.22413
 O832 O 0.19200 0.33727 0.28416
 C833 C 0.18595 0.35549 0.25434
 O834 O 0.18906 0.16509 0.20602
 Zr835 Zr 0.19168 0.21191 0.24193
 O836 O 0.16319 0.27464 0.30663
 O837 O 0.17447 0.29685 0.18233
 O838 O 0.14616 0.22341 0.20622
 O839 O 0.17461 0.16219 0.27000
 O840 O 0.14318 0.22620 0.27048
 C841 C 0.13825 0.25080 0.29507
 O842 O 0.23298 0.32642 0.33389
 O843 O 0.32589 0.19121 0.31546
 O844 O 0.22452 0.26039 0.34975
 O845 O 0.27666 0.22302 0.34311
 O846 O 0.35468 0.27041 0.29197
 O847 O 0.31671 0.32900 0.29606
 C848 C 0.25004 0.23686 0.36256
 H849 H 0.33260 0.21454 0.25333
 H850 H 0.25694 0.33676 0.25996
 H851 H 0.20108 0.21233 0.31045
 H852 H 0.21099 0.22854 0.17823
 H853 H 0.35206 0.34129 0.23454
 H854 H 0.23754 0.35602 0.17178
 H855 H 0.17494 0.31951 0.16651
 H856 H 0.12474 0.20591 0.21208
 H857 H 0.37735 0.28593 0.28538
 H858 H 0.32192 0.16970 0.33218
 H859 H 0.25944 0.13962 0.32409
 H860 H 0.14737 0.15730 0.26421
 H861 H 0.34263 0.34020 0.29368
 H862 H 0.20931 0.33007 0.34803
 H863 H 0.28969 0.16685 0.15130
 H864 H 0.16273 0.15463 0.20555
 Zr865 Zr 0.71925 0.71668 0.29641
 O866 O 0.73188 0.67512 0.33539
 O867 O 0.66297 0.72770 0.30902
 O868 O 0.72335 0.74165 0.34966
 O869 O 0.69688 0.65454 0.22617
 O870 O 0.77054 0.78562 0.34287
 O871 O 0.69200 0.66224 0.28619
 O872 O 0.64460 0.77813 0.27456
 O873 O 0.71614 0.77630 0.29058
 O874 O 0.69187 0.72802 0.24785
 O875 O 0.77613 0.73551 0.29739
 O876 O 0.75120 0.68898 0.25642
 Zr877 Zr 0.77952 0.78294 0.20169
 Zr878 Zr 0.77295 0.79475 0.28893
 Zr879 Zr 0.72508 0.70398 0.20817
 Zr880 Zr 0.69080 0.78706 0.24110
 O881 O 0.75537 0.65833 0.18403
 O882 O 0.67637 0.83979 0.26553
 O883 O 0.72226 0.76332 0.19970
 O884 O 0.74613 0.80918 0.24109
 O885 O 0.80691 0.77056 0.24981
 O886 O 0.78179 0.72298 0.20725
 C887 C 0.63928 0.75345 0.29901
 C888 C 0.68622 0.64301 0.25697
 C889 C 0.74629 0.76811 0.36222
 O890 O 0.74145 0.84106 0.31018
 O891 O 0.80216 0.84392 0.27339
 O892 O 0.80863 0.83697 0.21361
 C893 C 0.81394 0.85594 0.24332
 O894 O 0.80735 0.66325 0.29106
 Zr895 Zr 0.80667 0.71101 0.25623
 O896 O 0.83654 0.77195 0.19047
 O897 O 0.82719 0.80135 0.31349
 O898 O 0.85203 0.72107 0.29257
 O899 O 0.82391 0.66172 0.22757
 O900 O 0.85574 0.72536 0.22909
 C901 C 0.86134 0.74930 0.20422
 O902 O 0.76806 0.82559 0.16344
 O903 O 0.67184 0.69261 0.18321
 O904 O 0.77457 0.75943 0.14838
 O905 O 0.72230 0.72197 0.15532
 O906 O 0.64426 0.77130 0.20800
 O907 O 0.68437 0.82928 0.20098
 C908 C 0.74898 0.73574 0.13583
 H909 H 0.66590 0.71679 0.24619
 H910 H 0.74402 0.83714 0.23767
 H911 H 0.79678 0.71105 0.18790
 H912 H 0.78875 0.72785 0.31980
 H913 H 0.64893 0.84489 0.26079
 H914 H 0.75999 0.85875 0.32137
 H915 H 0.82588 0.82352 0.32991
 H916 H 0.87287 0.70277 0.28709
 H917 H 0.62199 0.78722 0.21485
 H918 H 0.67545 0.67064 0.16691
 H919 H 0.73634 0.63905 0.17637
 H920 H 0.85104 0.65661 0.23364
 H921 H 0.65805 0.83975 0.20179
 H922 H 0.79198 0.82879 0.14956
 H923 H 0.70831 0.67204 0.34980
 H924 H 0.83352 0.65249 0.29210
 Zr925 Zr 0.78094 0.28419 0.79764
 O926 O 0.76813 0.32657 0.83588
 O927 O 0.83725 0.27310 0.81034
 O928 O 0.77651 0.26184 0.85151
 O929 O 0.80266 0.34614 0.72668
 O930 O 0.73638 0.21086 0.84475
 O931 O 0.80815 0.33858 0.78664
 O932 O 0.85644 0.22383 0.77477
 O933 O 0.78492 0.22447 0.79177
 O934 O 0.80802 0.27305 0.74894
 O935 O 0.72453 0.26363 0.79945
 O936 O 0.74778 0.31138 0.75834
 Zr937 Zr 0.72069 0.21659 0.70362
 Zr938 Zr 0.72849 0.20455 0.79078
 Zr939 Zr 0.77375 0.29666 0.70999
 Zr940 Zr 0.80980 0.21399 0.74206
 O941 O 0.74584 0.34556 0.68951
 O942 O 0.82390 0.16169 0.76736
 O943 O 0.77748 0.23748 0.70095
 O944 O 0.75493 0.19079 0.74259
 O945 O 0.69348 0.22822 0.75208
 O946 O 0.71763 0.27642 0.70958
 C947 C 0.86145 0.24809 0.79966
 C948 C 0.81373 0.35774 0.75734
 C949 C 0.75674 0.23307 0.86398
 O950 O 0.75598 0.15491 0.81028
 O951 O 0.69828 0.15571 0.77571
 O952 O 0.69174 0.16267 0.71592
 C953 C 0.68643 0.14372 0.74559
 O954 O 0.69120 0.33444 0.79494
 Zr955 Zr 0.69287 0.28780 0.75878
 O956 O 0.66383 0.22794 0.69176
 O957 O 0.67482 0.20213 0.81687
 O958 O 0.64750 0.27705 0.79493
 O959 O 0.67543 0.33731 0.73059
 O960 O 0.64403 0.27350 0.73123
 C961 C 0.63883 0.25032 0.70564
 O962 O 0.73253 0.17313 0.66618
 O963 O 0.82696 0.30198 0.68334
 O964 O 0.72623 0.23776 0.64957
 O965 O 0.76883 0.28687 0.65587
 O966 O 0.85683 0.22870 0.70914
 O967 O 0.81628 0.17247 0.70128
 C968 C 0.74734 0.26540 0.63682
 H969 H 0.83386 0.28452 0.74707
 H970 H 0.75716 0.16285 0.73904
 H971 H 0.70282 0.28862 0.69027
 H972 H 0.71200 0.27021 0.82220
 H973 H 0.85136 0.15650 0.76281
 H974 H 0.73842 0.14288 0.82769
 H975 H 0.67522 0.17965 0.83290
 H976 H 0.62646 0.29511 0.78947
 H977 H 0.87848 0.21172 0.71544
 H978 H 0.82582 0.32540 0.66855
 H979 H 0.76343 0.35705 0.67184
 H980 H 0.64822 0.34213 0.73653
 H981 H 0.84130 0.15952 0.70396
 H982 H 0.70863 0.16919 0.65242
 H983 H 0.79186 0.33070 0.84984
 H984 H 0.66534 0.34599 0.79480
 C985 C 0.43106 0.99994 0.28625
 C986 C 0.44545 1.03923 0.30001
 C987 C 0.46494 1.03819 0.33147
 C988 C 0.46970 0.99802 0.34774
 C989 C 0.42931 0.98191 0.34938
 C990 C 0.40948 0.98377 0.31901
 C991 C 0.46930 0.97632 0.28617
 C992 C 0.48883 0.97490 0.31807
 H993 H 0.44248 1.06593 0.28601
 H994 H 0.47748 1.06372 0.34307
 H995 H 0.41650 0.97018 0.37328
 H996 H 0.38007 0.97538 0.32028
 H997 H 0.48081 0.96243 0.26285
 H998 H 0.51583 0.95999 0.32125
 C999 C -0.06756 0.50050 0.78637
 C1000 C -0.05318 0.46049 0.79969
 C1001 C -0.03476 0.46000 0.83174
 C1002 C -0.03000 0.49928 0.84873
 C1003 C -0.01039 0.52343 0.81958
 C1004 C -0.02949 0.52383 0.78736
 C1005 C -0.08924 0.51682 0.81853
 C1006 C -0.07091 0.51537 0.84973
 H1007 H -0.05376 0.43459 0.78431
 H1008 H -0.02193 0.43422 0.84243
 H1009 H 0.01666 0.53808 0.82356
 H1010 H -0.01785 0.53894 0.76476
 H1011 H -0.11746 0.52900 0.81803
 H1012 H -0.08496 0.52629 0.87311
 C1013 C 0.06872 0.00009 0.78697
 C1014 C 0.09033 0.01614 0.81975
 C1015 C 0.07038 0.01842 0.85004
 C1016 C 0.02982 0.00265 0.84842
 C1017 C 0.01102 0.02580 0.81863
 C1018 C 0.03067 0.02404 0.78676
 C1019 C 0.05392 -0.03900 0.80077
 C1020 C 0.03431 -0.03766 0.83221
 H1021 H 0.11987 0.02403 0.82110
 H1022 H 0.08324 0.03017 0.87391
 H1023 H -0.01586 0.04095 0.82168
 H1024 H 0.01933 0.03789 0.76336
 H1025 H 0.05677 -0.06575 0.78675
 H1026 H 0.02151 -0.06302 0.84384
 C1027 C 0.56795 0.49992 0.28539
 C1028 C 0.58934 0.48360 0.31769
 C1029 C 0.57061 0.48476 0.34866
 C1030 C 0.52973 0.50076 0.34735
 C1031 C 0.53454 0.54014 0.33058
 C1032 C 0.55332 0.53983 0.29871
 C1033 C 0.52993 0.47647 0.28593
 C1034 C 0.51048 0.47668 0.31796
 H1035 H 0.61757 0.47146 0.31745
 H1036 H 0.58424 0.47332 0.37199
 H1037 H 0.52156 0.56586 0.34128
 H1038 H 0.55406 0.56582 0.28346
 H1039 H 0.51857 0.46143 0.26315
 H1040 H 0.48343 0.46194 0.32164
 C1041 C 0.56855 0.50031 0.21302
 C1042 C 0.53039 0.52340 0.21203
 C1043 C 0.51144 0.52307 0.17977
 C1044 C 0.53130 0.49920 0.15060
 C1045 C 0.57212 0.51549 0.14976
 C1046 C 0.59034 0.51684 0.18099
 C1047 C 0.55441 0.46027 0.19949
 C1048 C 0.53613 0.45984 0.16738
 H1049 H 0.51854 0.53827 0.23468
 H1050 H 0.48434 0.53755 0.17578
 H1051 H 0.58631 0.52638 0.12640
 H1052 H 0.61861 0.52893 0.18155
 H1053 H 0.55520 0.43426 0.21469
 H1054 H 0.52360 0.43399 0.15640
 C1055 C 0.06890 0.99975 0.71397
 C1056 C 0.09066 0.98367 0.68127
 C1057 C 0.07092 0.98135 0.65092
 C1058 C 0.03042 0.99708 0.65240
 C1059 C 0.01139 0.97396 0.68212
 C1060 C 0.03082 0.97579 0.71407
 C1061 C 0.05421 1.03882 0.70009
 C1062 C 0.03484 1.03742 0.66853
 H1063 H 0.12021 0.97590 0.67995
 H1064 H 0.08395 0.96971 0.62708
 H1065 H -0.01551 0.95881 0.67896
 H1066 H 0.01930 0.96200 0.73744
 H1067 H 0.05692 1.06557 0.71413
 H1068 H 0.02210 1.06274 0.65682
 C1069 C -0.06730 0.50014 0.71396
 C1070 C -0.08876 0.48365 0.68177
 C1071 C -0.07027 0.48506 0.65068
 C1072 C -0.02943 0.50134 0.65174
 C1073 C -0.03436 0.54066 0.66861
 C1074 C -0.05294 0.54018 0.70061
 C1075 C -0.02916 0.47698 0.71317
 C1076 C -0.00990 0.47737 0.68103
 H1077 H -0.11693 0.47130 0.68216
 H1078 H -0.08415 0.47378 0.62738
 H1079 H -0.02154 0.56646 0.65790
 H1080 H -0.05365 0.56612 0.71594
 H1081 H -0.01758 0.46200 0.73586
 H1082 H 0.01721 0.46284 0.67719
 C1083 C 0.43135 0.00024 0.21326
 C1084 C 0.46931 0.02444 0.21356
 C1085 C 0.48898 0.02639 0.18171
 C1086 C 0.47028 0.00320 0.15185
 C1087 C 0.46595 -0.03717 0.16793
 C1088 C 0.44634 -0.03871 0.19937
 C1089 C 0.40972 0.01623 0.18051
 C1090 C 0.42968 0.01877 0.15028
 H1091 H 0.48061 0.03828 0.23700
 H1092 H 0.51581 0.04170 0.17871
 H1093 H 0.47889 -0.06242 0.15625
 H1094 H 0.44364 -0.06550 0.21334
 H1095 H 0.38015 0.02390 0.17908
 H1096 H 0.41680 0.03058 0.12646
 C1097 C 0.29061 0.37233 -0.00012
 C1098 C 0.30599 0.38751 -0.03598
 C1099 C 0.33940 0.40804 -0.03393
 C1100 C 0.35606 0.41303 0.00410
 C1101 C 0.32257 0.43033 0.02470
 C1102 C 0.28897 0.41023 0.02191
 C1103 C 0.32686 0.35145 0.01497
 C1104 C 0.35952 0.37239 0.01763
 H1105 H 0.29196 0.38379 -0.06125
 H1106 H 0.35210 0.42045 -0.05754
 H1107 H 0.32453 0.45720 0.03900
 H1108 H 0.26317 0.42131 0.03398
 H1109 H 0.32882 0.32145 0.02062
 H1110 H 0.38639 0.35995 0.02637
 C1111 C -0.21071 0.87471 0.50243
 C1112 C -0.21019 0.91361 0.48252
 C1113 C -0.17645 0.93381 0.48484
 C1114 C -0.14470 0.91446 0.50711
 C1115 C -0.16386 0.90735 0.54273
 C1116 C -0.19780 0.88803 0.54052
 C1117 C -0.17403 0.85488 0.48772
 C1118 C -0.14075 0.87492 0.49044
 H1119 H -0.23424 0.92492 0.46780
 H1120 H -0.17288 0.96151 0.47228
 H1121 H -0.15373 0.91975 0.56741
 H1122 H -0.21499 0.88725 0.56409
 H1123 H -0.17349 0.82697 0.47560
 H1124 H -0.11369 0.86352 0.48100
 C1125 C -0.21021 0.12609 1.00062
 C1126 C -0.21151 0.08822 0.97857
 C1127 C -0.17782 0.06822 0.97615
 C1128 C -0.14459 0.08554 0.99720
 C1129 C -0.14114 0.12627 0.98404
 C1130 C -0.17385 0.14702 0.98599
 C1131 C -0.19527 0.11090 1.03671
 C1132 C -0.16181 0.09036 1.03502
 H1133 H -0.23718 0.07708 0.96626
 H1134 H -0.17566 0.04133 0.96191
 H1135 H -0.11408 0.13942 0.97755
 H1136 H -0.17165 0.17714 0.98096
 H1137 H -0.20961 0.11473 1.06182
 H1138 H -0.14931 0.07799 1.05873
 C1139 C 0.29031 0.62755 0.50005
 C1140 C 0.28905 0.58977 0.47784
 C1141 C 0.32281 0.57001 0.47507
 C1142 C 0.35604 0.58738 0.49603
 C1143 C 0.35924 0.62821 0.48311
 C1144 C 0.32647 0.64879 0.48542
 C1145 C 0.30550 0.61221 0.53598
 C1146 C 0.33905 0.59183 0.53399
 H1147 H 0.26336 0.57847 0.46571
 H1148 H 0.32500 0.54318 0.46073
 H1149 H 0.38621 0.64157 0.47673
 H1150 H 0.32856 0.67898 0.48080
 H1151 H 0.29124 0.61579 0.56117
 H1152 H 0.35174 0.57931 0.55754
 C1153 C 0.21057 0.62720 0.49937
 C1154 C 0.21200 0.58926 0.52127
 C1155 C 0.17836 0.56916 0.52371
 C1156 C 0.14508 0.58641 0.50279
 C1157 C 0.14159 0.62711 0.51604
 C1158 C 0.17425 0.64798 0.51411
 C1159 C 0.19556 0.61206 0.46324
 C1160 C 0.16213 0.59136 0.46494
 H1161 H 0.23772 0.57811 0.53340
 H1162 H 0.17631 0.54219 0.53781
 H1163 H 0.11451 0.64020 0.52231
 H1164 H 0.17200 0.67811 0.51908
 H1165 H 0.20980 0.61605 0.43811
 H1166 H 0.14953 0.57901 0.44125
 C1167 C 0.70989 0.12621 -0.00006
 C1168 C 0.69479 0.11133 -0.03618
 C1169 C 0.66137 0.09073 -0.03451
 C1170 C 0.64446 0.08539 0.00336
 C1171 C 0.67782 0.06797 0.02403
 C1172 C 0.71141 0.08815 0.02166
 C1173 C 0.67350 0.14690 0.01500
 C1174 C 0.64085 0.12591 0.01723
 H1175 H 0.70900 0.11537 -0.06132
 H1176 H 0.64876 0.07856 -0.05828
 H1177 H 0.67578 0.04098 0.03811
 H1178 H 0.73710 0.07704 0.03387
 H1179 H 0.67147 0.17681 0.02102
 H1180 H 0.61390 0.13822 0.02595
 C1181 C 0.70972 0.87497 0.49768
 C1182 C 0.67285 0.85518 0.51211
 C1183 C 0.63973 0.87544 0.50950
 C1184 C 0.64402 0.91515 0.49325
 C1185 C 0.67585 0.93407 0.51582
 C1186 C 0.70943 0.91365 0.51802
 C1187 C 0.69703 0.88879 0.45971
 C1188 C 0.66325 0.90832 0.45762
 H1189 H 0.67208 0.82717 0.52399
 H1190 H 0.61256 0.86410 0.51878
 H1191 H 0.67243 0.96163 0.52868
 H1192 H 0.73353 0.92463 0.53292
 H1193 H 0.71428 0.88820 0.43618
 H1194 H 0.65331 0.92106 0.43304
 C1195 C 0.21072 0.37252 1.00008
 C1196 C 0.17451 0.35170 0.98508
 C1197 C 0.14180 0.37245 0.98311
 C1198 C 0.14510 0.41309 0.99658
 C1199 C 0.16202 0.40797 1.03447
 C1200 C 0.19548 0.38742 1.03620
 C1201 C 0.21217 0.41060 0.97836
 C1202 C 0.17848 0.43059 0.97588
 H1203 H 0.17233 0.32160 0.97994
 H1204 H 0.11479 0.35925 0.97667
 H1205 H 0.14933 0.42015 1.05819
 H1206 H 0.20961 0.38340 1.06137
 H1207 H 0.23795 0.42189 0.96637
 H1208 H 0.17644 0.45761 0.96188
 C1209 C -0.00019 0.28823 0.39886
 C1210 C 0.02285 0.28636 0.43431
 C1211 C 0.02382 0.31942 0.45297
 C1212 C 0.00091 0.35142 0.43542
 C1213 C 0.01735 0.35619 0.39872
 C1214 C 0.01668 0.32406 0.37971
 C1215 C -0.04001 0.30243 0.41211
 C1216 C -0.03918 0.33532 0.43063
 H1217 H 0.03713 0.26143 0.44472
 H1218 H 0.03837 0.32184 0.47832
 H1219 H 0.02795 0.38305 0.38797
 H1220 H 0.02639 0.32603 0.35281
 H1221 H -0.06704 0.28807 0.40955
 H1222 H -0.06466 0.34796 0.44186
 C1223 C 0.49869 -0.21245 -0.10124
 C1224 C 0.51538 -0.17669 -0.12056
 C1225 C 0.51559 -0.14441 -0.10186
 C1226 C 0.49905 -0.14899 -0.06522
 C1227 C 0.45901 -0.16534 -0.06982
 C1228 C 0.45860 -0.19846 -0.08817
 C1229 C 0.52149 -0.21391 -0.06571
 C1230 C 0.52212 -0.18072 -0.04731
 H1231 H 0.52539 -0.17490 -0.14737
 H1232 H 0.52608 -0.11759 -0.11281
 H1233 H 0.43345 -0.15336 -0.05772
 H1234 H 0.43187 -0.21349 -0.09006
 H1235 H 0.53583 -0.23869 -0.05503
 H1236 H 0.53642 -0.17807 -0.02186
 C1237 C -0.00042 -0.21261 1.10290
 C1238 C -0.04066 -0.19929 1.08973
 C1239 C -0.04103 -0.16546 1.07259
 C1240 C -0.00132 -0.14807 1.06835
 C1241 C 0.01446 -0.14429 1.10559
 C1242 C 0.01550 -0.17714 1.12307
 C1243 C 0.02277 -0.21270 1.06764
 C1244 C 0.02268 -0.17880 1.05001
 H1245 H -0.06685 -0.21538 1.09065
 H1246 H -0.06697 -0.15371 1.06109
 H1247 H 0.02309 -0.11769 1.11821
 H1248 H 0.02556 -0.17585 1.14987
 H1249 H 0.03777 -0.23700 1.05673
 H1250 H 0.03738 -0.17467 1.02491
 C1251 C 0.49960 0.29005 0.60249
 C1252 C 0.45933 0.30315 0.58916
 C1253 C 0.45891 0.33661 0.57143
 C1254 C 0.49856 0.35398 0.56693
 C1255 C 0.51430 0.35840 0.60416
 C1256 C 0.51551 0.32583 0.62213
 C1257 C 0.52281 0.28941 0.56724
 C1258 C 0.52265 0.32298 0.54909
 H1259 H 0.43312 0.28713 0.59033
 H1260 H 0.43294 0.34808 0.55973
 H1261 H 0.52304 0.38522 0.61630
 H1262 H 0.52590 0.32746 0.64881
 H1263 H 0.53792 0.26496 0.55673
 H1264 H 0.53736 0.32670 0.52394
 C1265 C 0.50122 1.21388 0.60286
 C1266 C 0.54149 1.20027 0.58999
 C1267 C 0.54181 1.16644 0.57277
 C1268 C 0.50205 1.14930 0.56811
 C1269 C 0.48581 1.14562 0.60520
 C1270 C 0.48483 1.17847 0.62278
 C1271 C 0.47841 1.21413 0.56737
 C1272 C 0.47848 1.18026 0.54965
 H1273 H 0.56777 1.21620 0.59121
 H1274 H 0.56779 1.15453 0.56145
 H1275 H 0.47677 1.11909 0.61768
 H1276 H 0.47440 1.17723 0.64947
 H1277 H 0.46366 1.23851 0.55635
 H1278 H 0.46403 1.17628 0.52441
 C1279 C 0.00140 0.71126 1.10242
 C1280 C -0.02147 0.71181 1.06698
 C1281 C -0.02140 0.67809 1.04904
 C1282 C 0.00234 0.64709 1.06725
 C1283 C 0.04209 0.66430 1.07188
 C1284 C 0.04171 0.69797 1.08937
 C1285 C -0.01478 0.67563 1.12211
 C1286 C -0.01370 0.64301 1.10435
 H1287 H -0.03620 0.73630 1.05615
 H1288 H -0.03584 0.67428 1.02378
 H1289 H 0.06806 0.65257 1.06040
 H1290 H 0.06793 0.71400 1.09069
 H1291 H -0.02483 0.67395 1.14888
 H1292 H -0.02230 0.61631 1.11680
 C1293 C 0.50029 0.71131 -0.10104
 C1294 C 0.54028 0.69736 -0.08773
 C1295 C 0.53976 0.66430 -0.06937
 C1296 C 0.49968 0.64797 -0.06491
 C1297 C 0.47652 0.67973 -0.04712
 C1298 C 0.47728 0.71290 -0.06558
 C1299 C 0.48368 0.67547 -0.12032
 C1300 C 0.48328 0.64332 -0.10156
 H1301 H 0.56700 0.71246 -0.08937
 H1302 H 0.56522 0.65242 -0.05704
 H1303 H 0.46208 0.67711 -0.02173
 H1304 H 0.46290 0.73774 -0.05503
 H1305 H 0.47363 0.67355 -0.14710
 H1306 H 0.47243 0.61659 -0.11233
 C1307 C 0.00047 1.21197 0.39886
 C1308 C -0.02241 1.21388 0.43439
 C1309 C -0.02341 1.18082 0.45299
 C1310 C -0.00062 1.14879 0.43530
 C1311 C -0.01715 1.14410 0.39865
 C1312 C -0.01651 1.17621 0.37973
 C1313 C 0.04039 1.19766 0.41197
 C1314 C 0.03960 1.16477 0.43060
 H1315 H -0.03659 1.23884 0.44490
 H1316 H -0.03785 1.17843 0.47840
 H1317 H -0.02788 1.11730 0.38785
 H1318 H -0.02639 1.17428 0.35288
 H1319 H 0.06732 1.21226 0.40970
 H1320 H 0.06506 1.15258 0.44267
 C1321 C 0.75091 0.68114 0.96314
 C1322 C 0.71104 0.69550 0.94943
 C1323 C 0.71101 0.71413 0.91751
 C1324 C 0.75061 0.71909 0.90108
 C1325 C 0.77429 0.73852 0.93064
 C1326 C 0.77423 0.71921 0.96270
 C1327 C 0.76767 0.65971 0.93101
 C1328 C 0.76682 0.67832 0.89997
 H1329 H 0.68482 0.69455 0.96439
 H1330 H 0.68528 0.72679 0.90645
 H1331 H 0.78899 0.76558 0.92702
 H1332 H 0.78901 0.73071 0.98556
 H1333 H 0.77976 0.63148 0.93141
 H1334 H 0.77837 0.66459 0.87667
 C1335 C 0.24978 0.18239 0.46293
 C1336 C 0.26651 0.16089 0.43088
 C1337 C 0.26538 0.17931 0.39977
 C1338 C 0.24895 0.22003 0.40069
 C1339 C 0.20946 0.21496 0.41729
 C1340 C 0.20975 0.19650 0.44931
 C1341 C 0.27290 0.22058 0.46222
 C1342 C 0.27268 0.23974 0.43007
 H1343 H 0.27883 0.13276 0.43140
 H1344 H 0.27698 0.16549 0.37658
 H1345 H 0.18363 0.22747 0.40630
 H1346 H 0.18363 0.19556 0.46441
 H1347 H 0.28773 0.23228 0.48498
 H1348 H 0.28720 0.26687 0.42627
 C1349 C 0.75020 0.31844 0.46380
 C1350 C 0.71117 0.30372 0.44967
 C1351 C 0.71276 0.28426 0.41816
 C1352 C 0.75325 0.27977 0.40224
 C1353 C 0.76913 0.32023 0.40087
 C1354 C 0.76661 0.34006 0.43118
 C1355 C 0.77414 0.28040 0.46409
 C1356 C 0.77614 0.26087 0.43217
 H1357 H 0.68429 0.30648 0.46354
 H1358 H 0.68746 0.27150 0.40633
 H1359 H 0.78113 0.33314 0.37713
 H1360 H 0.77456 0.36954 0.42988
 H1361 H 0.78775 0.26897 0.48757
 H1362 H 0.79129 0.23400 0.42916
 C1363 C 0.24931 0.81696 0.96408
 C1364 C 0.28924 0.80276 0.95033
 C1365 C 0.28934 0.78426 0.91830
 C1366 C 0.24976 0.77929 0.90183
 C1367 C 0.22609 0.75967 0.93128
 C1368 C 0.22606 0.77885 0.96344
 C1369 C 0.23255 0.83850 0.93207
 C1370 C 0.23345 0.82004 0.90096
 H1371 H 0.31543 0.80377 0.96531
 H1372 H 0.31511 0.77173 0.90717
 H1373 H 0.21145 0.73260 0.92752
 H1374 H 0.21125 0.76722 0.98622
 H1375 H 0.22037 0.86667 0.93256
 H1376 H 0.22175 0.83384 0.87781
 C1377 C 0.25012 0.81676 0.03645
 C1378 C 0.21016 0.80229 0.05000
 C1379 C 0.20996 0.78355 0.08189
 C1380 C 0.24946 0.77867 0.09851
 C1381 C 0.27333 0.75937 0.06900
 C1382 C 0.27347 0.77875 0.03696
 C1383 C 0.26670 0.83817 0.06863
 C1384 C 0.26565 0.81952 0.09964
 H1385 H 0.18403 0.80325 0.03493
 H1386 H 0.18422 0.77070 0.09275
 H1387 H 0.28805 0.73236 0.07265
 H1388 H 0.28844 0.76737 0.01415
 H1389 H 0.27890 0.86637 0.06828
 H1390 H 0.27718 0.83325 0.12290
 C1391 C 0.74925 0.31850 0.53684
 C1392 C 0.72528 0.28044 0.53652
 C1393 C 0.72338 0.26085 0.56840
 C1394 C 0.74639 0.27974 0.59829
 C1395 C 0.78681 0.28431 0.58227
 C1396 C 0.78832 0.30386 0.55085
 C1397 C 0.73295 0.34008 0.56952
 C1398 C 0.73055 0.32021 0.59982
 H1399 H 0.71152 0.26907 0.51307
 H1400 H 0.70819 0.23398 0.57140
 H1401 H 0.81216 0.27162 0.59402
 H1402 H 0.81521 0.30674 0.53705
 H1403 H 0.72488 0.36953 0.57077
 H1404 H 0.71864 0.33303 0.62363
 C1405 C 0.24899 0.18244 0.53526
 C1406 C 0.28890 0.19696 0.54882
 C1407 C 0.28905 0.21539 0.58083
 C1408 C 0.24954 0.22004 0.59745
 C1409 C 0.22565 0.23956 0.56812
 C1410 C 0.22559 0.22040 0.53594
 C1411 C 0.23240 0.16081 0.56734
 C1412 C 0.23341 0.17923 0.59844
 H1413 H 0.31497 0.19652 0.53362
 H1414 H 0.31475 0.22835 0.59170
 H1415 H 0.21093 0.26654 0.57195
 H1416 H 0.21071 0.23195 0.51318
 H1417 H 0.22023 0.13260 0.56689
 H1418 H 0.22191 0.16536 0.62166
 C1419 C 0.74980 0.68099 0.03555
 C1420 C 0.78970 0.69534 0.04929
 C1421 C 0.78976 0.71389 0.08127
 C1422 C 0.75018 0.71874 0.09777
 C1423 C 0.72650 0.73824 0.06829
 C1424 C 0.72653 0.71904 0.03615
 C1425 C 0.73302 0.65944 0.06761
 C1426 C 0.73393 0.67794 0.09873
 H1427 H 0.81588 0.69451 0.03428
 H1428 H 0.81547 0.72669 0.09226
 H1429 H 0.71184 0.76528 0.07202
 H1430 H 0.71177 0.73061 0.01333
 H1431 H 0.72089 0.63120 0.06710
 H1432 H 0.72241 0.66412 0.12201
 C1433 C 0.12340 0.53889 0.25083
 C1434 C 0.16134 0.53752 0.22882
 C1435 C 0.18147 0.57113 0.22640
 C1436 C 0.16424 0.60436 0.24742
 C1437 C 0.12346 0.60783 0.23426
 C1438 C 0.10257 0.57518 0.23619
 C1439 C 0.13865 0.55387 0.28694
 C1440 C 0.15936 0.58727 0.28524
 H1441 H 0.17243 0.51187 0.21652
 H1442 H 0.20842 0.57322 0.21219
 H1443 H 0.11035 0.63488 0.22795
 H1444 H 0.07240 0.57740 0.23122
 H1445 H 0.13474 0.53959 0.31205
 H1446 H 0.17180 0.59981 0.30892
 C1447 C 0.62391 0.03935 0.75055
 C1448 C 0.66200 0.03802 0.72877
 C1449 C 0.68200 0.07174 0.72630
 C1450 C 0.66444 0.10502 0.74705
 C1451 C 0.62380 0.10824 0.73354
 C1452 C 0.60303 0.07554 0.73562
 C1453 C 0.63885 0.05455 0.78665
 C1454 C 0.65934 0.08806 0.78493
 H1455 H 0.67331 0.01229 0.71677
 H1456 H 0.70905 0.07388 0.71227
 H1457 H 0.61081 0.13514 0.72635
 H1458 H 0.57294 0.07769 0.73037
 H1459 H 0.63490 0.04037 0.81181
 H1460 H 0.67154 0.10074 0.80866
 C1461 C 0.87599 0.04033 0.24985
 C1462 C 0.83765 0.03858 0.27123
 C1463 C 0.81753 0.07212 0.27382
 C1464 C 0.83527 0.10564 0.25360
 C1465 C 0.87569 0.10911 0.26777
 C1466 C 0.89665 0.07653 0.26536
 C1467 C 0.86147 0.05577 0.21377
 C1468 C 0.84092 0.08913 0.21560
 H1469 H 0.82628 0.01274 0.28297
 H1470 H 0.79034 0.07399 0.28765
 H1471 H 0.88804 0.13595 0.27670
 H1472 H 0.92658 0.07862 0.27137
 H1473 H 0.86573 0.04186 0.18852
 H1474 H 0.82902 0.10198 0.19184
 C1475 C 0.37541 0.53967 0.75087
 C1476 C 0.36160 0.55220 0.78891
 C1477 C 0.34204 0.58590 0.79117
 C1478 C 0.33516 0.60523 0.75565
 C1479 C 0.37490 0.60960 0.73932
 C1480 C 0.39518 0.57652 0.73651
 C1481 C 0.33665 0.54003 0.73058
 C1482 C 0.31618 0.57355 0.73297
 H1483 H 0.36208 0.53488 0.81236
 H1484 H 0.32925 0.59565 0.81581
 H1485 H 0.38619 0.63675 0.73004
 H1486 H 0.42315 0.57731 0.72446
 H1487 H 0.32565 0.51600 0.71560
 H1488 H 0.28858 0.57704 0.72016
 C1489 C 0.37567 0.46027 0.74615
 C1490 C 0.39556 0.42367 0.76086
 C1491 C 0.37543 0.39048 0.75836
 C1492 C 0.33579 0.39444 0.74186
 C1493 C 0.31650 0.42620 0.76409
 C1494 C 0.33674 0.45988 0.76619
 C1495 C 0.36224 0.44728 0.70815
 C1496 C 0.34281 0.41342 0.70613
 H1497 H 0.42360 0.42311 0.77277
 H1498 H 0.38687 0.36347 0.76777
 H1499 H 0.28881 0.42269 0.77676
 H1500 H 0.32544 0.48397 0.78084
 H1501 H 0.36309 0.46431 0.68451
 H1502 H 0.33035 0.40320 0.68151
 C1503 C 0.87592 0.96047 0.24981
 C1504 C 0.83822 0.96181 0.22743
 C1505 C 0.81843 0.92804 0.22436
 C1506 C 0.83572 0.89472 0.24517
 C1507 C 0.87664 0.89171 0.23236
 C1508 C 0.89724 0.92445 0.23503
 C1509 C 0.86036 0.94503 0.28555
 C1510 C 0.84001 0.91151 0.28326
 H1511 H 0.82702 0.98758 0.21546
 H1512 H 0.79166 0.92590 0.20989
 H1513 H 0.88997 0.86489 0.22555
 H1514 H 0.92748 0.92237 0.23051
 H1515 H 0.86375 0.95909 0.31084
 H1516 H 0.82735 0.89874 0.30673
 C1517 C 0.62362 0.95939 0.75016
 C1518 C 0.66160 0.96091 0.77212
 C1519 C 0.68154 0.92726 0.77491
 C1520 C 0.66404 0.89385 0.75433
 C1521 C 0.62334 0.89055 0.76787
 C1522 C 0.60255 0.92321 0.76520
 C1523 C 0.63874 0.94401 0.71426
 C1524 C 0.65913 0.91055 0.71630
 H1525 H 0.67284 0.98667 0.78412
 H1526 H 0.70846 0.92524 0.78915
 H1527 H 0.61071 0.86373 0.77651
 H1528 H 0.57248 0.92122 0.77067
 H1529 H 0.63504 0.95808 0.68903
 H1530 H 0.67152 0.89782 0.69268
 C1531 C 0.12303 0.45914 0.24995
 C1532 C 0.16117 0.46058 0.27164
 C1533 C 0.18130 0.42703 0.27384
 C1534 C 0.16371 0.39379 0.25307
 C1535 C 0.12317 0.39017 0.26701
 C1536 C 0.10224 0.42280 0.26495
 C1537 C 0.13786 0.44413 0.21376
 C1538 C 0.15838 0.41074 0.21529
 H1539 H 0.17235 0.48619 0.28397
 H1540 H 0.20834 0.42493 0.28788
 H1541 H 0.11079 0.36326 0.27571
 H1542 H 0.07232 0.42081 0.27110
 H1543 H 0.13393 0.45839 0.18866
 H1544 H 0.17057 0.39822 0.19148
 C1545 C 0.03858 0.25023 0.85289
 C1546 C 0.03802 0.22724 0.81751
 C1547 C 0.07167 0.22744 0.79945
 C1548 C 0.10271 0.25133 0.81748
 C1549 C 0.08542 0.29096 0.82214
 C1550 C 0.05182 0.29050 0.83980
 C1551 C 0.07435 0.23430 0.87257
 C1552 C 0.10699 0.23540 0.85462
 H1553 H 0.01357 0.21223 0.80682
 H1554 H 0.07543 0.21286 0.77425
 H1555 H 0.09717 0.31696 0.81076
 H1556 H 0.03590 0.31671 0.84141
 H1557 H 0.07604 0.22444 0.89940
 H1558 H 0.13382 0.22691 0.86691
 C1559 C 0.53868 0.75336 0.35275
 C1560 C 0.53807 0.73038 0.31737
 C1561 C 0.57173 0.73039 0.29941
 C1562 C 0.60278 0.75421 0.31745
 C1563 C 0.58565 0.79393 0.32196
 C1564 C 0.55204 0.79361 0.33963
 C1565 C 0.57437 0.73743 0.37250
 C1566 C 0.60701 0.73846 0.35464
 H1567 H 0.51359 0.71553 0.30656
 H1568 H 0.57546 0.71585 0.27418
 H1569 H 0.59746 0.81983 0.31043
 H1570 H 0.53616 0.81986 0.34104
 H1571 H 0.57598 0.72740 0.39929
 H1572 H 0.63380 0.72990 0.36696
 C1573 C 0.53816 0.25049 0.14813
 C1574 C 0.53629 0.22768 0.18362
 C1575 C 0.56933 0.22716 0.20236
 C1576 C 0.60130 0.25030 0.18476
 C1577 C 0.60630 0.23374 0.14815
 C1578 C 0.57418 0.23383 0.12917
 C1579 C 0.55207 0.29055 0.16134
 C1580 C 0.58498 0.29022 0.17999
 H1581 H 0.51136 0.21318 0.19396
 H1582 H 0.57173 0.21281 0.22779
 H1583 H 0.63324 0.22316 0.13751
 H1584 H 0.57620 0.22355 0.10245
 H1585 H 0.53708 0.31723 0.15942
 H1586 H 0.59680 0.31577 0.19224
 C1587 C 0.03756 0.75002 0.64634
 C1588 C 0.05105 0.70987 0.65941
 C1589 C 0.08466 0.70964 0.67701
 C1590 C 0.10174 0.74939 0.68181
 C1591 C 0.10592 0.76551 0.64474
 C1592 C 0.07327 0.76636 0.62676
 C1593 C 0.03681 0.77292 0.68178
 C1594 C 0.07048 0.77296 0.69988
 H1595 H 0.03521 0.68356 0.65791
 H1596 H 0.09649 0.68370 0.68839
 H1597 H 0.13267 0.77449 0.63255
 H1598 H 0.07488 0.77651 0.60002
 H1599 H 0.01222 0.78769 0.69245
 H1600 H 0.07412 0.78751 0.72511
 C1601 C 0.96124 0.75137 0.64590
 C1602 C 0.92573 0.73514 0.62592
 C1603 C 0.89290 0.73597 0.64358
 C1604 C 0.89679 0.75190 0.68073
 C1605 C 0.92781 0.72826 0.69900
 C1606 C 0.96165 0.72837 0.68124
 C1607 C 0.94764 0.79151 0.65897
 C1608 C 0.91387 0.79168 0.67627
 H1609 H 0.92440 0.72488 0.59918
 H1610 H 0.86625 0.72699 0.63121
 H1611 H 0.92389 0.71364 0.72415
 H1612 H 0.98611 0.71358 0.69210
 H1613 H 0.96349 0.81781 0.65787
 H1614 H 0.90194 0.81757 0.68769
 C1615 C 0.46175 0.24908 0.14762
 C1616 C 0.42596 0.26584 0.12827
 C1617 C 0.39357 0.26612 0.14698
 C1618 C 0.39808 0.24954 0.18360
 C1619 C 0.41436 0.20964 0.17874
 C1620 C 0.44757 0.20914 0.16060
 C1621 C 0.46321 0.27187 0.18317
 C1622 C 0.42995 0.27251 0.20155
 H1623 H 0.42427 0.27585 0.10146
 H1624 H 0.36674 0.27662 0.13607
 H1625 H 0.40170 0.18406 0.18975
 H1626 H 0.46219 0.18228 0.15826
 H1627 H 0.48801 0.28626 0.19385
 H1628 H 0.42729 0.28688 0.22696
 C1629 C 0.46250 0.75114 0.35280
 C1630 C 0.46282 0.77422 0.31747
 C1631 C 0.42908 0.77385 0.29951
 C1632 C 0.39821 0.74975 0.31760
 C1633 C 0.41572 0.71024 0.32210
 C1634 C 0.44937 0.71085 0.33959
 C1635 C 0.42677 0.76693 0.37262
 C1636 C 0.39403 0.76563 0.35481
 H1637 H 0.48716 0.78940 0.30676
 H1638 H 0.42513 0.78846 0.27436
 H1639 H 0.40415 0.68420 0.31060
 H1640 H 0.46546 0.68473 0.34082
 H1641 H 0.42525 0.77708 0.39938
 H1642 H 0.36724 0.77418 0.36715
 C1643 C 0.96239 0.24816 0.85303
 C1644 C 0.92676 0.26402 0.87299
 C1645 C 0.89405 0.26312 0.85523
 C1646 C 0.89810 0.24749 0.81796
 C1647 C 0.92910 0.27140 0.79992
 C1648 C 0.96285 0.27134 0.81778
 C1649 C 0.94899 0.20799 0.83975
 C1650 C 0.91529 0.20775 0.82224
 H1651 H 0.92519 0.27365 0.89991
 H1652 H 0.86730 0.27150 0.86777
 H1653 H 0.92527 0.28610 0.77480
 H1654 H 0.98730 0.28628 0.80701
 H1655 H 0.96487 0.18174 0.84114
 H1656 H 0.90340 0.18188 0.81071
 C1657 C 0.56991 1.00058 0.71349
 C1658 C 0.53194 1.02475 0.71424
 C1659 C 0.51275 1.02819 0.68232
 C1660 C 0.53174 1.00627 0.65193
 C1661 C 0.57247 1.02164 0.65122
 C1662 C 0.59212 1.01741 0.68141
 C1663 C 0.55499 0.96223 0.69823
 C1664 C 0.53568 0.96516 0.66668
 H1665 H 0.52015 1.03728 0.73810
 H1666 H 0.48591 1.04351 0.67965
 H1667 H 0.58616 1.03306 0.62759
 H1668 H 0.62219 1.02283 0.67990
 H1669 H 0.55770 0.93488 0.71124
 H1670 H 0.52286 0.94043 0.65392
 C1671 C 0.06907 0.50036 1.21382
 C1672 C 0.03108 0.52447 1.21453
 C1673 C 0.01177 0.52762 1.18259
 C1674 C 0.03075 0.50550 1.15225
 C1675 C 0.07140 0.52102 1.15139
 C1676 C 0.09110 0.51721 1.18162
 C1677 C 0.05415 0.46190 1.19877
 C1678 C 0.03481 0.46455 1.16726
 H1679 H 0.01939 0.53715 1.23837
 H1680 H -0.01509 0.54286 1.17987
 H1681 H 0.08488 0.53268 1.12776
 H1682 H 0.12100 0.52340 1.18015
 H1683 H 0.05674 0.43465 1.21198
 H1684 H 0.02192 0.43970 1.15476
 C1685 C -0.06953 -0.00045 1.21387
 C1686 C -0.09116 -0.01717 1.18141
 C1687 C -0.07102 -0.02121 1.15150
 C1688 C -0.03042 -0.00563 1.15280
 C1689 C -0.03471 0.03538 1.16776
 C1690 C -0.05451 0.03804 1.19906
 C1691 C -0.03148 -0.02449 1.21497
 C1692 C -0.01178 -0.02769 1.18327
 H1693 H -0.12115 -0.02274 1.17940
 H1694 H -0.08423 -0.03285 1.12773
 H1695 H -0.02171 0.06022 1.15537
 H1696 H -0.05744 0.06530 1.21222
 H1697 H -0.02003 -0.03710 1.23893
 H1698 H 0.01515 -0.04287 1.18083
 C1699 C 0.43078 0.49955 0.71262
 C1700 C 0.46876 0.52295 0.71109
 C1701 C 0.48767 0.52187 0.67878
 C1702 C 0.46792 0.49702 0.65015
 C1703 C 0.46351 0.45811 0.66771
 C1704 C 0.44537 0.45927 0.69991
 C1705 C 0.40888 0.51520 0.68053
 C1706 C 0.42675 0.51291 0.64933
 H1707 H 0.48055 0.53841 0.73343
 H1708 H 0.51473 0.53638 0.67443
 H1709 H 0.47660 0.43223 0.65744
 H1710 H 0.44560 0.43383 0.71592
 H1711 H 0.38071 0.52747 0.68103
 H1712 H 0.41200 0.52323 0.62602
 C1713 C 0.43045 0.50070 -0.21533
 C1714 C 0.44451 0.54109 -0.20244
 C1715 C 0.46212 0.54241 -0.17003
 C1716 C 0.46664 0.50355 -0.15241
 C1717 C 0.42563 0.48711 -0.15215
 C1718 C 0.40829 0.48471 -0.18352
 C1719 C 0.46866 0.47775 -0.21339
 C1720 C 0.48711 0.47901 -0.18083
 H1721 H 0.44512 0.56645 -0.21855
 H1722 H 0.47527 0.56830 -0.15987
 H1723 H 0.41038 0.47672 -0.12910
 H1724 H 0.38023 0.47218 -0.18424
 H1725 H 0.48090 0.46245 -0.23562
 H1726 H 0.51424 0.46481 -0.17615
 C1727 C -0.07044 1.00127 0.28684
 C1728 C -0.03241 1.02539 0.28637
 C1729 C -0.01338 1.02859 0.31837
 C1730 C -0.03262 1.00651 0.34853
 C1731 C -0.07327 1.02195 0.34922
 C1732 C -0.09278 1.01794 0.31893
 C1733 C -0.05575 0.96279 0.30195
 C1734 C -0.03661 0.96551 0.33358
 H1735 H -0.02054 1.03815 0.26265
 H1736 H 0.01347 1.04391 0.32127
 H1737 H -0.08702 1.03327 0.37287
 H1738 H -0.12281 1.02354 0.32031
 H1739 H -0.05849 0.93547 0.28891
 H1740 H -0.02398 0.94069 0.34628
 C1741 C 0.06897 0.49794 0.28686
 C1742 C 0.03082 0.47396 0.28597
 C1743 C 0.01137 0.47073 0.31783
 C1744 C 0.03035 0.49263 0.34829
 C1745 C 0.07094 0.47696 0.34918
 C1746 C 0.09082 0.48095 0.31905
 C1747 C 0.05425 0.53638 0.30202
 C1748 C 0.03471 0.53364 0.33343
 H1749 H 0.01922 0.46129 0.26209
 H1750 H -0.01555 0.45549 0.32044
 H1751 H 0.08424 0.46507 0.37278
 H1752 H 0.12071 0.47468 0.32050
 H1753 H 0.05718 0.56373 0.28910
 H1754 H 0.02197 0.55849 0.34603
 C1755 C 0.56943 -0.00153 -0.21355
 C1756 C 0.53130 -0.02552 -0.21463
 C1757 C 0.51169 -0.02875 -0.18289
 C1758 C 0.53052 -0.00683 -0.15239
 C1759 C 0.57108 -0.02251 -0.15128
 C1760 C 0.59114 -0.01840 -0.18123
 C1761 C 0.55462 0.03694 -0.19851
 C1762 C 0.53492 0.03419 -0.16719
 H1763 H 0.51981 -0.03817 -0.23857
 H1764 H 0.48475 -0.04397 -0.18040
 H1765 H 0.58431 -0.03431 -0.12760
 H1766 H 0.62109 -0.02423 -0.17945
 H1767 H 0.55762 0.06429 -0.21144
 H1768 H 0.52209 0.05903 -0.15464
 C1769 C 0.71082 0.62605 -0.00357
 C1770 C 0.67363 0.64545 0.01043
 C1771 C 0.64087 0.62457 0.00777
 C1772 C 0.64589 0.58483 -0.00834
 C1773 C 0.66524 0.59193 -0.04392
 C1774 C 0.69862 0.61225 -0.04166
 C1775 C 0.71078 0.58742 0.01688
 C1776 C 0.67764 0.56647 0.01443
 H1777 H 0.67230 0.67372 0.02176
 H1778 H 0.61341 0.63561 0.01660
 H1779 H 0.65525 0.57961 -0.06868
 H1780 H 0.71554 0.61461 -0.06533
 H1781 H 0.73468 0.57683 0.03222
 H1782 H 0.67447 0.53894 0.02739
 C1783 C 0.21017 1.12721 0.49647
 C1784 C 0.21040 1.08863 0.51702
 C1785 C 0.17732 1.06758 0.51482
 C1786 C 0.14540 1.08577 0.49214
 C1787 C 0.14029 1.12553 0.50813
 C1788 C 0.17298 1.14653 0.51056
 C1789 C 0.19787 1.11321 0.45848
 C1790 C 0.16454 1.09278 0.45644
 H1791 H 0.23442 1.07816 0.53226
 H1792 H 0.17431 1.04008 0.52786
 H1793 H 0.11284 1.13651 0.51702
 H1794 H 0.17157 1.17485 0.52176
 H1795 H 0.21472 1.11543 0.43476
 H1796 H 0.15449 1.08027 0.43178
 C1797 C 0.21029 -0.12809 1.00304
 C1798 C 0.21051 -0.08945 0.98255
 C1799 C 0.17748 -0.06841 0.98484
 C1800 C 0.14557 -0.08665 1.00750
 C1801 C 0.14040 -0.12641 0.99141
 C1802 C 0.17307 -0.14742 0.98894
 C1803 C 0.19797 -0.11426 1.04107
 C1804 C 0.16472 -0.09379 1.04316
 H1805 H 0.23448 -0.07894 0.96724
 H1806 H 0.17447 -0.04092 0.97179
 H1807 H 0.11293 -0.13736 0.98249
 H1808 H 0.17169 -0.17573 0.97768
 H1809 H 0.21467 -0.11678 1.06483
 H1810 H 0.15465 -0.08147 1.06790
 C1811 C 0.71000 0.37278 0.50045
 C1812 C 0.67353 0.35266 0.51587
 C1813 C 0.64113 0.37410 0.51773
 C1814 C 0.64538 0.41451 0.50347
 C1815 C 0.67888 0.43169 0.52411
 C1816 C 0.71207 0.41095 0.52208
 C1817 C 0.69502 0.38752 0.46424
 C1818 C 0.66208 0.40860 0.46573
 H1819 H 0.67158 0.32300 0.52305
 H1820 H 0.61411 0.36240 0.52701
 H1821 H 0.67716 0.45869 0.53821
 H1822 H 0.73770 0.42163 0.53473
 H1823 H 0.70906 0.38322 0.43907
 H1824 H 0.64977 0.42081 0.44187
 C1825 C -0.21076 0.37301 0.50023
 C1826 C -0.21276 0.41100 0.47836
 C1827 C -0.17948 0.43166 0.47608
 C1828 C -0.14600 0.41473 0.49687
 C1829 C -0.16273 0.40928 0.53468
 C1830 C -0.19573 0.38812 0.53636
 C1831 C -0.17438 0.35277 0.48505
 C1832 C -0.14195 0.37413 0.48319
 H1833 H -0.23842 0.42162 0.46576
 H1834 H -0.17773 0.45856 0.46183
 H1835 H -0.15030 0.42169 0.55842
 H1836 H -0.20973 0.38392 0.56157
 H1837 H -0.17231 0.32292 0.47861
 H1838 H -0.11487 0.36189 0.47533
 C1839 C 0.28921 -0.12798 -0.00227
 C1840 C 0.32648 -0.14723 0.01166
 C1841 C 0.35915 -0.12611 0.00912
 C1842 C 0.35389 -0.08631 -0.00683
 C1843 C 0.33460 -0.09341 -0.04243
 C1844 C 0.30139 -0.11397 -0.04029
 C1845 C 0.28903 -0.08943 0.01838
 C1846 C 0.32203 -0.06825 0.01602
 H1847 H 0.32789 -0.17555 0.02288
 H1848 H 0.38665 -0.13699 0.01794
 H1849 H 0.34456 -0.08099 -0.06716
 H1850 H 0.28460 -0.11644 -0.06401
 H1851 H 0.26511 -0.07908 0.03384
 H1852 H 0.32505 -0.04079 0.02916
 C1853 C 0.28917 1.12760 0.50194
 C1854 C 0.28942 1.08895 0.48152
 C1855 C 0.32266 1.06821 0.48406
 C1856 C 0.35429 1.08684 0.50689
 C1857 C 0.35915 1.12658 0.49073
 C1858 C 0.32627 1.14721 0.48794
 C1859 C 0.30138 1.11391 0.54006
 C1860 C 0.33485 1.09386 0.54241
 H1861 H 0.26558 1.07821 0.46613
 H1862 H 0.32600 1.04068 0.47112
 H1863 H 0.38654 1.13775 0.48184
 H1864 H 0.32742 1.17538 0.47641
 H1865 H 0.28434 1.11590 0.56368
 H1866 H 0.34477 1.08154 0.56718
 C1867 C -0.21020 0.62603 1.00199
 C1868 C -0.21023 0.58746 0.98137
 C1869 C -0.17713 0.56649 0.98373
 C1870 C -0.14536 0.58475 1.00660
 C1871 C -0.14023 0.62456 0.99066
 C1872 C -0.17295 0.64547 0.98809
 C1873 C -0.19807 0.61208 1.04001
 C1874 C -0.16476 0.59173 1.04220
 H1875 H -0.23414 0.57695 0.96596
 H1876 H -0.17400 0.53903 0.97063
 H1877 H -0.11275 0.63560 0.98186
 H1878 H -0.17156 0.67378 0.97688
 H1879 H -0.21500 0.61433 1.06368
 H1880 H -0.15484 0.57929 1.06691
 C1881 C 0.00011 0.71264 0.59681
 C1882 C 0.04034 0.69877 0.58419
 C1883 C 0.04030 0.66568 0.56611
 C1884 C 0.00062 0.64930 0.56058
 C1885 C -0.01677 0.64463 0.59694
 C1886 C -0.01698 0.67685 0.61576
 C1887 C -0.02227 0.71413 0.56099
 C1888 C -0.02228 0.68098 0.54238
 H1889 H 0.06714 0.71354 0.58655
 H1890 H 0.06611 0.65305 0.55573
 H1891 H -0.02788 0.61787 0.60745
 H1892 H -0.02801 0.67516 0.64225
 H1893 H -0.03686 0.73879 0.55038
 H1894 H -0.03632 0.67819 0.51682
 C1895 C 0.49997 0.21159 0.09869
 C1896 C 0.46012 0.19750 0.08536
 C1897 C 0.46062 0.16390 0.06780
 C1898 C 0.50077 0.14742 0.06345
 C1899 C 0.52412 0.17879 0.04548
 C1900 C 0.52334 0.21247 0.06343
 C1901 C 0.51631 0.17630 0.11869
 C1902 C 0.51646 0.14372 0.10077
 H1903 H 0.43347 0.21274 0.08694
 H1904 H 0.43491 0.15152 0.05640
 H1905 H 0.53902 0.17524 0.02041
 H1906 H 0.53785 0.23717 0.05272
 H1907 H 0.52524 0.17465 0.14578
 H1908 H 0.52527 0.11723 0.11342
 C1909 C 0.00034 0.21101 0.90215
 C1910 C 0.02304 0.21267 0.93774
 C1911 C 0.02346 0.17948 0.95629
 C1912 C 0.00057 0.14757 0.93824
 C1913 C -0.03925 0.16363 0.93309
 C1914 C -0.03968 0.19674 0.91506
 C1915 C 0.01749 0.17537 0.88298
 C1916 C 0.01762 0.14306 0.90172
 H1917 H 0.03762 0.23748 0.94820
 H1918 H 0.03784 0.17681 0.98169
 H1919 H -0.06489 0.15081 0.94376
 H1920 H -0.06662 0.21121 0.91298
 H1921 H 0.02826 0.17383 0.85639
 H1922 H 0.02866 0.11636 0.89103
 C1923 C 0.50051 0.71391 0.40189
 C1924 C 0.46047 0.69953 0.41464
 C1925 C 0.46085 0.66619 0.43232
 C1926 C 0.50070 0.65011 0.43742
 C1927 C 0.51787 0.64600 0.40097
 C1928 C 0.51780 0.67844 0.38254
 C1929 C 0.52305 0.71528 0.43759
 C1930 C 0.52347 0.68188 0.45584
 H1931 H 0.43362 0.71427 0.41290
 H1932 H 0.43523 0.65334 0.44298
 H1933 H 0.52912 0.61946 0.39013
 H1934 H 0.52882 0.67706 0.35605
 H1935 H 0.53735 0.74006 0.44841
 H1936 H 0.53760 0.67899 0.48134
 C1937 C 0.50111 0.79005 0.40227
 C1938 C 0.54124 0.80417 0.41536
 C1939 C 0.54095 0.83721 0.43369
 C1940 C 0.50105 0.85337 0.43853
 C1941 C 0.48413 0.85793 0.40197
 C1942 C 0.48410 0.82570 0.38322
 C1943 C 0.47833 0.78834 0.43782
 C1944 C 0.47797 0.82150 0.45646
 H1945 H 0.56788 0.78902 0.41411
 H1946 H 0.56650 0.84899 0.44602
 H1947 H 0.47302 0.88461 0.39131
 H1948 H 0.47310 0.82726 0.35672
 H1949 H 0.46378 0.76350 0.44820
 H1950 H 0.46365 0.82414 0.48190
 C1951 C 0.00073 0.28717 0.90235
 C1952 C 0.04076 0.30152 0.91510
 C1953 C 0.04031 0.33462 0.93319
 C1954 C 0.00045 0.35055 0.93863
 C1955 C -0.01682 0.35504 0.90223
 C1956 C -0.01661 0.32283 0.88339
 C1957 C -0.02176 0.28539 0.93810
 C1958 C -0.02221 0.31856 0.95673
 H1959 H 0.06774 0.28715 0.91271
 H1960 H 0.06596 0.34764 0.94353
 H1961 H -0.02809 0.38169 0.89169
 H1962 H -0.02745 0.32448 0.85684
 H1963 H -0.03616 0.26050 0.94860
 H1964 H -0.03642 0.32117 0.98223
 C1965 C 0.50080 0.28759 0.09864
 C1966 C 0.48431 0.32295 0.11842
 C1967 C 0.48458 0.35547 0.10052
 C1968 C 0.50063 0.35160 0.06334
 C1969 C 0.54068 0.33508 0.06804
 C1970 C 0.54088 0.30155 0.08568
 C1971 C 0.47785 0.28664 0.06318
 C1972 C 0.47738 0.32027 0.04518
 H1973 H 0.47482 0.32469 0.14535
 H1974 H 0.47573 0.38202 0.11309
 H1975 H 0.56653 0.34733 0.05678
 H1976 H 0.56747 0.28627 0.08742
 H1977 H 0.46341 0.26193 0.05238
 H1978 H 0.46279 0.32380 0.01996
 C1979 C -0.00104 0.78861 0.59679
 C1980 C -0.04119 0.80240 0.58354
 C1981 C -0.04101 0.83544 0.56528
 C1982 C -0.00118 0.85190 0.56065
 C1983 C 0.01554 0.85658 0.59730
 C1984 C 0.01563 0.82436 0.61600
 C1985 C 0.02197 0.78715 0.56134
 C1986 C 0.02220 0.82030 0.54276
 H1987 H -0.06776 0.78706 0.58473
 H1988 H -0.06657 0.84706 0.55288
 H1989 H 0.02645 0.88334 0.60806
 H1990 H 0.02643 0.82598 0.64258
 H1991 H 0.03686 0.76251 0.55098
 H1992 H 0.03670 0.82310 0.51742
 C1993 C 0.25140 0.31800 0.03601
 C1994 C 0.21279 0.30314 0.05085
 C1995 C 0.21531 0.28349 0.08219
 C1996 C 0.25626 0.27913 0.09726
 C1997 C 0.27840 0.26036 0.06683
 C1998 C 0.27540 0.27996 0.03505
 C1999 C 0.26817 0.33966 0.06844
 C2000 C 0.27200 0.31966 0.09844
 H2001 H 0.18550 0.30606 0.03777
 H2002 H 0.19034 0.27066 0.09458
 H2003 H 0.29362 0.23349 0.06938
 H2004 H 0.28823 0.26854 0.01116
 H2005 H 0.27432 0.36953 0.07020
 H2006 H 0.28378 0.33285 0.12217
 C2007 C 0.74986 0.81964 0.53581
 C2008 C 0.72653 0.78165 0.53734
 C2009 C 0.72767 0.76278 0.56967
 C2010 C 0.75248 0.78263 0.59828
 C2011 C 0.79143 0.78714 0.58069
 C2012 C 0.79022 0.80516 0.54848
 C2013 C 0.73412 0.84149 0.56791
 C2014 C 0.73640 0.82368 0.59910
 H2015 H 0.71104 0.76985 0.51501
 H2016 H 0.71319 0.73573 0.57406
 H2017 H 0.81735 0.77407 0.59090
 H2018 H 0.81566 0.80481 0.53241
 H2019 H 0.72176 0.86959 0.56744
 H2020 H 0.72597 0.83844 0.62238
 C2021 C 0.24913 0.68133 0.53658
 C2022 C 0.28758 0.69615 0.55182
 C2023 C 0.28478 0.71544 0.58337
 C2024 C 0.24371 0.71951 0.59826
 C2025 C 0.22172 0.73852 0.56790
 C2026 C 0.22499 0.71929 0.53593
 C2027 C 0.23219 0.65924 0.56869
 C2028 C 0.22815 0.67888 0.59894
 H2029 H 0.31498 0.69343 0.53888
 H2030 H 0.30962 0.72816 0.59605
 H2031 H 0.20643 0.76534 0.57064
 H2032 H 0.21237 0.73102 0.51210
 H2033 H 0.22628 0.62931 0.57012
 H2034 H 0.21650 0.66531 0.62253
 C2035 C 0.74876 0.18028 0.03671
 C2036 C 0.78725 0.19506 0.05186
 C2037 C 0.78445 0.21465 0.08321
 C2038 C 0.74336 0.21896 0.09796
 C2039 C 0.72150 0.23783 0.06749
 C2040 C 0.72475 0.21832 0.03571
 C2041 C 0.73171 0.15848 0.06891
 C2042 C 0.72762 0.17841 0.09896
 H2043 H 0.81467 0.19208 0.03901
 H2044 H 0.80931 0.22741 0.09584
 H2045 H 0.70623 0.26469 0.07004
 H2046 H 0.71206 0.22983 0.01183
 H2047 H 0.72550 0.12860 0.07046
 H2048 H 0.71566 0.16518 0.12258
 C2049 C 0.75119 0.18029 0.96382
 C2050 C 0.71273 0.19515 0.94877
 C2051 C 0.71552 0.21472 0.91740
 C2052 C 0.75660 0.21895 0.90253
 C2053 C 0.77862 0.23778 0.93298
 C2054 C 0.77534 0.21830 0.96477
 C2055 C 0.76812 0.15848 0.93156
 C2056 C 0.77215 0.17838 0.90149
 H2057 H 0.68538 0.19229 0.96183
 H2058 H 0.69068 0.22757 0.90488
 H2059 H 0.79391 0.26465 0.93043
 H2060 H 0.78800 0.22988 0.98867
 H2061 H 0.77413 0.12859 0.92994
 H2062 H 0.78392 0.16508 0.87781
 C2063 C 0.25143 0.68168 0.46343
 C2064 C 0.21292 0.69635 0.44832
 C2065 C 0.21564 0.71591 0.41694
 C2066 C 0.25670 0.72035 0.40206
 C2067 C 0.27859 0.73931 0.43255
 C2068 C 0.27537 0.71983 0.46438
 C2069 C 0.26847 0.65997 0.43116
 C2070 C 0.27249 0.67987 0.40110
 H2071 H 0.18553 0.69338 0.46125
 H2072 H 0.19074 0.72861 0.40439
 H2073 H 0.29373 0.76627 0.43000
 H2074 H 0.28789 0.73147 0.48832
 H2075 H 0.27451 0.63011 0.42943
 H2076 H 0.28437 0.66660 0.37746
 C2077 C 0.74874 0.82004 0.46372
 C2078 C 0.70828 0.80602 0.45080
 C2079 C 0.70699 0.78841 0.41838
 C2080 C 0.74594 0.78381 0.40081
 C2081 C 0.76245 0.82475 0.40051
 C2082 C 0.76477 0.84215 0.43190
 C2083 C 0.77171 0.78189 0.46180
 C2084 C 0.77046 0.76341 0.42926
 H2085 H 0.68281 0.80564 0.46682
 H2086 H 0.68096 0.77567 0.40796
 H2087 H 0.77303 0.83979 0.37744
 H2088 H 0.77732 0.87019 0.43269
 H2089 H 0.78702 0.76969 0.48402
 H2090 H 0.78468 0.73631 0.42460
 C2091 C 0.24959 0.31869 0.96285
 C2092 C 0.28814 0.30398 0.94777
 C2093 C 0.28556 0.28495 0.91604
 C2094 C 0.24457 0.28094 0.90091
 C2095 C 0.22235 0.26172 0.93107
 C2096 C 0.22544 0.28072 0.96316
 C2097 C 0.23290 0.34096 0.93076
 C2098 C 0.22911 0.32155 0.90036
 H2099 H 0.31539 0.30657 0.96108
 H2100 H 0.31046 0.27229 0.90344
 H2101 H 0.20708 0.23489 0.92811
 H2102 H 0.21269 0.26880 0.98688
 H2103 H 0.22707 0.37090 0.92944
 H2104 H 0.21777 0.33530 0.87674
 C2105 C 0.87743 0.46072 0.75255
 C2106 C 0.83880 0.46069 0.73198
 C2107 C 0.81787 0.42752 0.73423
 C2108 C 0.83624 0.39574 0.75694
 C2109 C 0.87610 0.39088 0.74090
 C2110 C 0.89695 0.42368 0.73842
 C2111 C 0.86347 0.44834 0.79053
 C2112 C 0.84321 0.41496 0.79259
 H2113 H 0.82822 0.48462 0.71671
 H2114 H 0.79037 0.42433 0.72115
 H2115 H 0.88717 0.36355 0.73188
 H2116 H 0.92523 0.42253 0.72701
 H2117 H 0.86542 0.46520 0.81424
 H2118 H 0.83068 0.40496 0.81726
 C2119 C 0.37707 0.95999 0.25004
 C2120 C 0.36243 0.94460 0.21392
 C2121 C 0.34147 0.91157 0.21564
 C2122 C 0.33562 0.89521 0.25351
 C2123 C 0.37610 0.89138 0.26781
 C2124 C 0.39740 0.92387 0.26572
 C2125 C 0.33881 0.96199 0.27160
 C2126 C 0.31824 0.92872 0.27389
 H2127 H 0.36674 0.95841 0.18866
 H2128 H 0.32937 0.89892 0.19186
 H2129 H 0.38797 0.86455 0.27726
 H2130 H 0.42711 0.92219 0.27290
 H2131 H 0.32794 0.98762 0.28404
 H2132 H 0.29119 0.92694 0.28797
 C2133 C 0.12320 0.96031 0.75006
 C2134 C 0.16143 0.96256 0.72846
 C2135 C 0.18207 0.92936 0.72595
 C2136 C 0.16484 0.89568 0.74625
 C2137 C 0.15903 0.91197 0.78420
 C2138 C 0.13799 0.94492 0.78609
 C2139 C 0.10297 0.92406 0.73434
 C2140 C 0.12435 0.89170 0.73206
 H2141 H 0.17222 0.98833 0.71619
 H2142 H 0.20911 0.92775 0.71184
 H2143 H 0.17127 0.89939 0.80792
 H2144 H 0.13376 0.95870 0.81139
 H2145 H 0.07322 0.92215 0.72737
 H2146 H 0.11250 0.86484 0.72261
 C2147 C 0.62350 0.46089 0.24705
 C2148 C 0.66201 0.46117 0.26781
 C2149 C 0.68309 0.42813 0.26572
 C2150 C 0.66497 0.39621 0.24295
 C2151 C 0.62506 0.39111 0.25878
 C2152 C 0.60405 0.42376 0.26110
 C2153 C 0.63772 0.44853 0.20915
 C2154 C 0.65814 0.41529 0.20723
 H2155 H 0.67241 0.48521 0.28310
 H2156 H 0.71053 0.42514 0.27893
 H2157 H 0.61402 0.36371 0.26770
 H2158 H 0.57567 0.42240 0.27226
 H2159 H 0.63571 0.46528 0.18540
 H2160 H 0.67080 0.40527 0.18262
 C2161 C 0.62315 0.53981 0.25212
 C2162 C 0.66198 0.53991 0.23187
 C2163 C 0.68273 0.57317 0.23421
 C2164 C 0.66399 0.60493 0.25671
 C2165 C 0.62428 0.60959 0.24037
 C2166 C 0.60362 0.57672 0.23778
 C2167 C 0.63667 0.55235 0.29020
 C2168 C 0.65678 0.58583 0.29237
 H2169 H 0.67285 0.51596 0.21677
 H2170 H 0.71037 0.57642 0.22139
 H2171 H 0.61315 0.63685 0.23128
 H2172 H 0.57542 0.57780 0.22624
 H2173 H 0.63447 0.53555 0.31392
 H2174 H 0.66899 0.59600 0.31711
 C2175 C 0.12322 0.03959 0.75092
 C2176 C 0.13806 0.05477 0.71480
 C2177 C 0.15912 0.08771 0.71646
 C2178 C 0.16493 0.10428 0.75427
 C2179 C 0.12444 0.10832 0.76848
 C2180 C 0.10303 0.07589 0.76648
 C2181 C 0.16139 0.03751 0.77258
 C2182 C 0.18211 0.07075 0.77480
 H2183 H 0.13392 0.04087 0.68956
 H2184 H 0.17138 0.10009 0.69264
 H2185 H 0.11267 0.13522 0.77787
 H2186 H 0.07333 0.07773 0.77368
 H2187 H 0.17204 0.01183 0.78508
 H2188 H 0.20912 0.07250 0.78894
 C2189 C 0.37641 0.03906 0.24931
 C2190 C 0.36115 0.05415 0.28536
 C2191 C 0.33983 0.08691 0.28352
 C2192 C 0.33436 0.10338 0.24565
 C2193 C 0.37499 0.10765 0.23199
 C2194 C 0.39652 0.07544 0.23398
 C2195 C 0.33842 0.03666 0.22738
 C2196 C 0.31757 0.06973 0.22495
 H2197 H 0.36530 0.04034 0.31062
 H2198 H 0.32726 0.09931 0.30720
 H2199 H 0.38711 0.13475 0.22403
 H2200 H 0.42639 0.07767 0.22751
 H2201 H 0.32794 0.01088 0.21487
 H2202 H 0.29065 0.07125 0.21065
 C2203 C 0.87736 0.53966 0.74743
 C2204 C 0.86359 0.55191 0.70935
 C2205 C 0.84326 0.58519 0.70710
 C2206 C 0.83603 0.60445 0.74268
 C2207 C 0.81761 0.57264 0.76538
 C2208 C 0.83862 0.53957 0.76782
 C2209 C 0.89670 0.57680 0.76158
 C2210 C 0.87580 0.60950 0.75889
 H2211 H 0.86571 0.53500 0.68568
 H2212 H 0.83086 0.59508 0.68236
 H2213 H 0.79002 0.57574 0.77832
 H2214 H 0.82801 0.51563 0.78311
 H2215 H 0.92488 0.57808 0.77316
 H2216 H 0.88677 0.63690 0.76791
 C2217 C 0.96218 0.74929 0.15178
 C2218 C 0.92656 0.73229 0.13240
 C2219 C 0.89416 0.73208 0.15098
 C2220 C 0.89849 0.74894 0.18754
 C2221 C 0.93021 0.72599 0.20570
 C2222 C 0.96357 0.72650 0.18734
 C2223 C 0.94799 0.78922 0.16483
 C2224 C 0.91473 0.78874 0.18271
 H2225 H 0.92511 0.72154 0.10581
 H2226 H 0.86752 0.72092 0.14019
 H2227 H 0.92730 0.71159 0.23107
 H2228 H 0.98831 0.71195 0.19792
 H2229 H 0.96284 0.81602 0.16332
 H2230 H 0.90219 0.81421 0.19391
 C2231 C 0.46234 0.25296 0.65203
 C2232 C 0.42667 0.23588 0.63294
 C2233 C 0.39436 0.23601 0.65158
 C2234 C 0.39880 0.25314 0.68807
 C2235 C 0.43057 0.23025 0.70623
 C2236 C 0.46382 0.23047 0.68773
 C2237 C 0.44824 0.29314 0.66486
 C2238 C 0.41505 0.29299 0.68308
 H2239 H 0.42518 0.22473 0.60648
 H2240 H 0.36769 0.22477 0.64090
 H2241 H 0.42783 0.21617 0.73177
 H2242 H 0.48854 0.21597 0.69837
 H2243 H 0.46350 0.31973 0.66346
 H2244 H 0.40321 0.31857 0.69522
 C2245 C 0.46157 0.74952 0.84958
 C2246 C 0.44737 0.78927 0.83635
 C2247 C 0.41375 0.78860 0.81878
 C2248 C 0.39740 0.74838 0.81428
 C2249 C 0.42896 0.72534 0.79627
 C2250 C 0.46266 0.72636 0.81423
 C2251 C 0.42619 0.73299 0.86949
 C2252 C 0.39364 0.73262 0.85152
 H2253 H 0.46254 0.81596 0.83791
 H2254 H 0.40131 0.81424 0.80741
 H2255 H 0.42553 0.71055 0.77113
 H2256 H 0.48754 0.71216 0.80348
 H2257 H 0.42442 0.72404 0.89656
 H2258 H 0.36710 0.72364 0.86410
 C2259 C 0.96176 0.25058 0.34977
 C2260 C 0.94770 0.29046 0.33667
 C2261 C 0.91411 0.28999 0.31896
 C2262 C 0.89760 0.24987 0.31438
 C2263 C 0.92903 0.22670 0.29639
 C2264 C 0.96267 0.22744 0.31439
 C2265 C 0.92632 0.23420 0.36965
 C2266 C 0.89375 0.23405 0.35164
 H2267 H 0.96283 0.31714 0.33878
 H2268 H 0.90163 0.31572 0.30780
 H2269 H 0.92554 0.21192 0.27126
 H2270 H 0.98737 0.21297 0.30362
 H2271 H 0.92451 0.22539 0.39677
 H2272 H 0.86714 0.22532 0.36424
 C2273 C 0.03792 0.24951 0.34949
 C2274 C 0.07356 0.26570 0.36915
 C2275 C 0.10596 0.26573 0.35088
 C2276 C 0.10168 0.25012 0.31357
 C2277 C 0.08508 0.21004 0.31811
 C2278 C 0.05172 0.20962 0.33616
 C2279 C 0.03674 0.27279 0.31422
 C2280 C 0.07020 0.27349 0.29594
 H2281 H 0.07561 0.27457 0.39625
 H2282 H 0.13273 0.27431 0.36327
 H2283 H 0.09733 0.18428 0.30675
 H2284 H 0.03659 0.18295 0.33827
 H2285 H 0.01197 0.28738 0.30375
 H2286 H 0.07351 0.28834 0.27083
 C2287 C 0.53784 0.74895 0.84985
 C2288 C 0.55195 0.70901 0.83691
 C2289 C 0.58570 0.70932 0.81956
 C2290 C 0.60230 0.74937 0.81495
 C2291 C 0.57100 0.77249 0.79662
 C2292 C 0.53715 0.77186 0.81440
 C2293 C 0.57314 0.76553 0.86985
 C2294 C 0.60588 0.76542 0.85211
 H2295 H 0.53660 0.68243 0.83839
 H2296 H 0.59803 0.68352 0.80837
 H2297 H 0.57471 0.78708 0.77143
 H2298 H 0.51243 0.78616 0.80347
 H2299 H 0.57468 0.77499 0.89679
 H2300 H 0.63237 0.77446 0.86471
 C2301 C 0.53849 0.25187 0.65206
 C2302 C 0.55214 0.21176 0.66515
 C2303 C 0.58518 0.21177 0.68334
 C2304 C 0.60187 0.25131 0.68840
 C2305 C 0.60676 0.26821 0.65185
 C2306 C 0.57445 0.26858 0.63303
 C2307 C 0.53704 0.27469 0.68761
 C2308 C 0.57021 0.27468 0.70629
 H2309 H 0.53692 0.18518 0.66359
 H2310 H 0.59710 0.18612 0.69479
 H2311 H 0.63365 0.27906 0.64131
 H2312 H 0.57609 0.27966 0.60656
 H2313 H 0.51239 0.28957 0.69797
 H2314 H 0.57300 0.28905 0.73169
 C2315 C 0.03831 0.74861 0.15209
 C2316 C 0.05233 0.70844 0.16470
 C2317 C 0.08537 0.70856 0.18288
 C2318 C 0.10156 0.74822 0.18853
 C2319 C 0.10637 0.76567 0.15222
 C2320 C 0.07418 0.76584 0.13330
 C2321 C 0.03654 0.77090 0.18791
 C2322 C 0.06963 0.77096 0.20666
 H2323 H 0.03770 0.68160 0.16241
 H2324 H 0.09801 0.68280 0.19333
 H2325 H 0.13316 0.77694 0.14187
 H2326 H 0.07589 0.77703 0.10688
 H2327 H 0.01172 0.78542 0.19840
 H2328 H 0.07223 0.78498 0.23225
   
