data_POSCAR
  _audit_creation_date              2014-09-24
  _audit_creation_method            'ToBaCCo'
  _symmetry_space_group_name_H-M    'P1'
  _symmetry_Int_Tables_number       1
  _symmetry_cell_setting            triclinic
  loop_
  _symmetry_equiv_pos_as_xyz
 x,y,z
_cell_length_a 55.3607
_cell_length_b 55.3310
_cell_length_c 55.3276
_cell_angle_alpha 89.934500
_cell_angle_beta 90.032100
_cell_angle_gamma 90.065200
loop_
  _atom_site_label
  _atom_site_type_symbol
  _atom_site_fract_x
  _atom_site_fract_y
  _atom_site_fract_z
C1 C 0.36389 0.29136 -0.02259
 C2 C 0.37270 0.28271 -0.00055
 C3 C 0.36393 0.29143 0.02140
 C4 C 0.34573 0.30927 0.02163
 C5 C 0.33655 0.31822 -0.00063
 C6 C 0.34565 0.30924 -0.02288
 C7 C 0.33637 0.31847 -0.04469
 C8 C 0.31856 0.33623 -0.04469
 C9 C 0.30936 0.34545 -0.02287
 C10 C 0.31840 0.33632 -0.00063
 C11 C 0.33656 0.31848 0.04344
 C12 C 0.31875 0.33624 0.04344
 C13 C 0.30948 0.34542 0.02164
 C14 C 0.29158 0.36358 0.02142
 C15 C 0.28280 0.37237 -0.00053
 C16 C 0.29143 0.36364 -0.02257
 H17 H 0.34286 0.31202 -0.06198
 H18 H 0.31207 0.34274 -0.06197
 H19 H 0.34314 0.31203 0.06071
 H20 H 0.31231 0.34276 0.06072
 H21 H 0.38683 0.26909 -0.00044
 H22 H 0.26914 0.38646 -0.00040
 C23 C 0.63605 0.70903 -0.02169
 C24 C 0.62726 0.71761 0.00034
 C25 C 0.63604 0.70883 0.02230
 C26 C 0.65425 0.69099 0.02252
 C27 C 0.66340 0.68211 0.00026
 C28 C 0.65428 0.69114 -0.02199
 C29 C 0.66354 0.68196 -0.04381
 C30 C 0.68133 0.66418 -0.04380
 C31 C 0.69052 0.65494 -0.02198
 C32 C 0.68153 0.66400 0.00026
 C33 C 0.66344 0.68171 0.04433
 C34 C 0.68124 0.66394 0.04432
 C35 C 0.69048 0.65482 0.02250
 C36 C 0.70835 0.63664 0.02224
 C37 C 0.71706 0.62792 0.00025
 C38 C 0.70839 0.63675 -0.02173
 H39 H 0.65705 0.68845 -0.06110
 H40 H 0.68782 0.65769 -0.06107
 H41 H 0.65689 0.68812 0.06160
 H42 H 0.68770 0.65736 0.06159
 H43 H 0.61313 0.73124 0.00045
 H44 H 0.73069 0.61381 0.00025
 C45 C 0.63570 0.29141 1.02211
 C46 C 0.62690 0.28281 1.00007
 C47 C 0.63567 0.29161 0.97812
 C48 C 0.65388 0.30949 0.97790
 C49 C 0.66304 0.31838 1.00016
 C50 C 0.65394 0.30933 1.02241
 C51 C 0.66323 0.31852 1.04423
 C52 C 0.68103 0.33633 1.04422
 C53 C 0.69020 0.34560 1.02241
 C54 C 0.68118 0.33652 1.00017
 C55 C 0.66305 0.31878 0.95610
 C56 C 0.68086 0.33659 0.95611
 C57 C 0.69012 0.34572 0.97793
 C58 C 0.70801 0.36393 0.97819
 C59 C 0.71674 0.37267 1.00018
 C60 C 0.70807 0.36382 1.02216
 H61 H 0.65675 0.31201 1.06152
 H62 H 0.68754 0.34283 1.06149
 H63 H 0.65648 0.31237 0.93882
 H64 H 0.68730 0.34319 0.93884
 H65 H 0.61277 0.26915 0.99995
 H66 H 0.73037 0.38680 1.00019
 C67 C 0.29203 0.63545 1.02245
 C68 C 0.28341 0.62669 1.00040
 C69 C 0.29218 0.63551 0.97846
 C70 C 0.31007 0.65371 0.97827
 C71 C 0.31898 0.66285 1.00054
 C72 C 0.30994 0.65370 1.02277
 C73 C 0.31912 0.66296 1.04460
 C74 C 0.33691 0.68078 1.04463
 C75 C 0.34620 0.69003 1.02283
 C76 C 0.33712 0.68101 1.00057
 C77 C 0.31935 0.66291 0.95647
 C78 C 0.33715 0.68072 0.95650
 C79 C 0.34629 0.68997 0.97833
 C80 C 0.36448 0.70787 0.97857
 C81 C 0.37322 0.71664 1.00054
 C82 C 0.36442 0.70798 1.02256
 H83 H 0.31262 0.65644 1.06188
 H84 H 0.34338 0.68726 1.06193
 H85 H 0.31293 0.65636 0.93919
 H86 H 0.34374 0.68718 0.93923
 H87 H 0.26975 0.61257 1.00027
 H88 H 0.38733 0.73032 1.00044
 C89 C 0.02118 0.29134 0.36347
 C90 C -0.00077 0.28261 0.37229
 C91 C -0.02278 0.29134 0.36357
 C92 C -0.02305 0.30931 0.34536
 C93 C -0.00081 0.31829 0.33621
 C94 C 0.02142 0.30927 0.34530
 C95 C 0.04323 0.31848 0.33609
 C96 C 0.04326 0.33633 0.31833
 C97 C 0.02148 0.34560 0.30915
 C98 C -0.00078 0.33649 0.31811
 C99 C -0.04484 0.31862 0.33617
 C100 C -0.04481 0.33648 0.31841
 C101 C -0.02299 0.34571 0.30916
 C102 C -0.02267 0.36401 0.29129
 C103 C -0.00064 0.37275 0.28261
 C104 C 0.02129 0.36386 0.29131
 H105 H 0.06049 0.31197 0.34260
 H106 H 0.06054 0.34286 0.31186
 H107 H -0.06213 0.31218 0.34269
 H108 H -0.06208 0.34306 0.31198
 H109 H -0.00066 0.26892 0.38639
 H110 H -0.00050 0.38692 0.26899
 C111 C 0.02167 0.70810 0.63589
 C112 C -0.00026 0.71687 0.62709
 C113 C -0.02229 0.70823 0.63587
 C114 C -0.02261 0.69031 0.65413
 C115 C -0.00038 0.68129 0.66326
 C116 C 0.02187 0.69022 0.65411
 C117 C 0.04366 0.68098 0.66331
 C118 C 0.04365 0.66318 0.68113
 C119 C 0.02184 0.65400 0.69039
 C120 C -0.00040 0.66315 0.68143
 C121 C -0.04442 0.68109 0.66340
 C122 C -0.04443 0.66329 0.68122
 C123 C -0.02263 0.65403 0.69045
 C124 C -0.02235 0.63579 0.70839
 C125 C -0.00034 0.62702 0.71706
 C126 C 0.02161 0.63581 0.70830
 H127 H 0.06093 0.68742 0.65675
 H128 H 0.06091 0.65663 0.68760
 H129 H -0.06169 0.68757 0.65688
 H130 H -0.06171 0.65679 0.68770
 H131 H -0.00013 0.73052 0.61295
 H132 H -0.00023 0.61290 0.73073
 C133 C 1.02257 0.63651 0.29189
 C134 C 1.00059 0.62769 0.28322
 C135 C 0.97863 0.63646 0.29192
 C136 C 0.97839 0.65467 0.30977
 C137 C 1.00063 0.66384 0.31871
 C138 C 1.02284 0.65473 0.30974
 C139 C 1.04465 0.66396 0.31892
 C140 C 1.04468 0.68177 0.33669
 C141 C 1.02289 0.69101 0.34593
 C142 C 1.00064 0.68199 0.33681
 C143 C 0.95659 0.66384 0.31898
 C144 C 0.95660 0.68166 0.33675
 C145 C 0.97841 0.69093 0.34593
 C146 C 0.97864 0.70882 0.36409
 C147 C 1.00059 0.71758 0.37288
 C148 C 1.02261 0.70893 0.36414
 H149 H 1.06191 0.65743 0.31244
 H150 H 1.06197 0.68825 0.34319
 H151 H 0.93933 0.65727 0.31254
 H152 H 0.93934 0.68810 0.34329
 H153 H 1.00057 0.61356 0.26961
 H154 H 1.00049 0.73124 0.38699
 C155 C 1.02210 0.29229 0.63574
 C156 C 1.00012 0.28364 0.62691
 C157 C 0.97816 0.29234 0.63567
 C158 C 0.97793 0.31018 0.65390
 C159 C 1.00017 0.31911 0.66309
 C160 C 1.02239 0.31012 0.65398
 C161 C 1.04420 0.31928 0.66323
 C162 C 1.04423 0.33703 0.68107
 C163 C 1.02244 0.34628 0.69030
 C164 C 1.00019 0.33719 0.68126
 C165 C 0.95614 0.31939 0.66308
 C166 C 0.95615 0.33715 0.68091
 C167 C 0.97796 0.34631 0.69020
 C168 C 0.97820 0.36445 0.70811
 C169 C 1.00016 0.37321 0.71690
 C170 C 1.02217 0.36446 0.70825
 H171 H 1.06145 0.31280 0.65671
 H172 H 1.06152 0.34351 0.68756
 H173 H 0.93887 0.31296 0.65649
 H174 H 0.93889 0.34369 0.68735
 H175 H 1.00011 0.27003 0.61278
 H176 H 1.00005 0.38729 0.73059
 C177 C 0.36387 -0.02265 0.29142
 C178 C 0.37265 -0.00062 0.28273
 C179 C 0.36389 0.02134 0.29145
 C180 C 0.34571 0.02156 0.30933
 C181 C 0.33656 -0.00069 0.31832
 C182 C 0.34566 -0.02294 0.30935
 C183 C 0.33640 -0.04475 0.31862
 C184 C 0.31863 -0.04474 0.33643
 C185 C 0.30943 -0.02292 0.34564
 C186 C 0.31844 -0.00068 0.33646
 C187 C 0.33655 0.04338 0.31853
 C188 C 0.31877 0.04338 0.33633
 C189 C 0.30952 0.02158 0.34555
 C190 C 0.29165 0.02137 0.36375
 C191 C 0.28291 -0.00058 0.37260
 C192 C 0.29155 -0.02262 0.36389
 H193 H 0.34289 -0.06204 0.31218
 H194 H 0.31216 -0.06202 0.34297
 H195 H 0.34311 0.06065 0.31205
 H196 H 0.31234 0.06066 0.34284
 H197 H 0.38676 -0.00050 0.26908
 H198 H 0.26927 -0.00046 0.38672
 C199 C 0.63574 -0.02186 0.70886
 C200 C 0.62692 0.00017 0.71740
 C201 C 0.63569 0.02213 0.70859
 C202 C 0.65391 0.02235 0.69075
 C203 C 0.66309 0.00010 0.68191
 C204 C 0.65399 -0.02215 0.69098
 C205 C 0.66330 -0.04397 0.68185
 C206 C 0.68112 -0.04395 0.66408
 C207 C 0.69028 -0.02214 0.65480
 C208 C 0.68124 0.00010 0.66382
 C209 C 0.66307 0.04416 0.68144
 C210 C 0.68090 0.04416 0.66367
 C211 C 0.69017 0.02234 0.65459
 C212 C 0.70807 0.02209 0.63643
 C213 C 0.71683 0.00010 0.62776
 C214 C 0.70818 -0.02188 0.63663
 H215 H 0.65682 -0.06126 0.68837
 H216 H 0.68765 -0.06122 0.65763
 H217 H 0.65649 0.06144 0.68780
 H218 H 0.68733 0.06143 0.65706
 H219 H 0.61278 0.00028 0.73102
 H220 H 0.73048 0.00010 0.61366
 C221 C 0.36417 0.97808 0.70868
 C222 C 0.37293 1.00004 0.71744
 C223 C 0.36412 1.02206 0.70878
 C224 C 0.34590 1.02232 0.69085
 C225 C 0.33682 1.00006 0.68184
 C226 C 0.34599 0.97782 0.69079
 C227 C 0.33683 0.95600 0.68154
 C228 C 0.31905 0.95597 0.66372
 C229 C 0.30979 0.97777 0.65453
 C230 C 0.31871 1.00003 0.66369
 C231 C 0.33662 1.04413 0.68160
 C232 C 0.31884 1.04408 0.66378
 C233 C 0.30969 1.02225 0.65456
 C234 C 0.29184 1.02196 0.63632
 C235 C 0.28320 0.99997 0.62751
 C236 C 0.29194 0.97800 0.63630
 H237 H 0.34340 0.93873 0.68800
 H238 H 0.31262 0.93870 0.65716
 H239 H 0.34309 1.06143 0.68807
 H240 H 0.31233 1.06134 0.65723
 H241 H 0.38704 0.99995 0.73110
 H242 H 0.26958 0.99995 0.61337
 C243 C 0.63568 1.02238 0.29193
 C244 C 0.62688 1.00033 0.28333
 C245 C 0.63566 0.97839 0.29211
 C246 C 0.65389 0.97819 0.30997
 C247 C 0.66306 1.00045 0.31887
 C248 C 0.65393 1.02269 0.30983
 C249 C 0.66321 1.04451 0.31901
 C250 C 0.68103 1.04453 0.33679
 C251 C 0.69026 1.02272 0.34607
 C252 C 0.68123 1.00047 0.33698
 C253 C 0.66308 0.95639 0.31923
 C254 C 0.68091 0.95640 0.33700
 C255 C 0.69018 0.97822 0.34614
 C256 C 0.70810 0.97846 0.36430
 C257 C 0.71687 1.00042 0.37306
 C258 C 0.70821 1.02245 0.36428
 H259 H 0.65671 1.06179 0.31252
 H260 H 0.68753 1.06182 0.34326
 H261 H 0.65650 0.93911 0.31282
 H262 H 0.68737 0.93914 0.34357
 H263 H 0.61274 1.00020 0.26969
 H264 H 0.73055 1.00031 0.38715
 O265 O 0.84963 0.81626 0.47721
 O266 O 0.81640 0.84934 0.52401
 O267 O 0.84968 0.81611 0.52393
 O268 O 0.81635 0.84950 0.47730
 O269 O 0.78798 0.82133 0.47709
 O270 O 0.82159 0.78766 0.52404
 O271 O 0.78802 0.82117 0.52412
 O272 O 0.82154 0.78781 0.47700
 Cu273 Cu 0.83584 0.83563 0.50062
 Cu274 Cu 0.80191 0.80161 0.50056
 C275 C 0.84143 0.79636 0.46939
 C276 C 0.79650 0.84107 0.53177
 C277 C 0.84150 0.79615 0.53167
 C278 C 0.79644 0.84128 0.46950
 O279 O 0.15070 0.18388 0.47628
 O280 O 0.18403 0.15081 0.52310
 O281 O 0.15078 0.18405 0.52298
 O282 O 0.18395 0.15063 0.47640
 O283 O 0.21235 0.17878 0.47607
 O284 O 0.17889 0.21248 0.52298
 O285 O 0.21243 0.17895 0.52310
 O286 O 0.17881 0.21232 0.47595
 Cu287 Cu 0.16454 0.16451 0.49970
 Cu288 Cu 0.19850 0.19851 0.49951
 C289 C 0.15890 0.20378 0.46840
 C290 C 0.20395 0.15907 0.53083
 C291 C 0.15900 0.20400 0.53067
 C292 C 0.20385 0.15883 0.46855
 O293 O 0.18437 0.84917 0.47628
 O294 O 0.15101 0.81585 0.52292
 O295 O 0.18435 0.84907 0.52298
 O296 O 0.15106 0.81592 0.47622
 O297 O 0.17910 0.78748 0.47607
 O298 O 0.21269 0.82092 0.52316
 O299 O 0.17905 0.78741 0.52310
 O300 O 0.21271 0.82102 0.47612
 Cu301 Cu 0.16488 0.83533 0.49960
 Cu302 Cu 0.19875 0.80133 0.49962
 C303 C 0.20426 0.84095 0.46850
 C304 C 0.15917 0.79591 0.53071
 C305 C 0.20424 0.84082 0.53079
 C306 C 0.15922 0.79601 0.46843
 O307 O 0.84917 0.18417 0.52268
 O308 O 0.81583 0.15077 0.47609
 O309 O 0.84910 0.18409 0.47597
 O310 O 0.81588 0.15089 0.52281
 O311 O 0.78750 0.17899 0.52289
 O312 O 0.82102 0.21248 0.47573
 O313 O 0.78745 0.17887 0.47586
 O314 O 0.82109 0.21256 0.52277
 Cu315 Cu 0.83532 0.16465 0.49939
 Cu316 Cu 0.80139 0.19860 0.49930
 C317 C 0.84099 0.20410 0.53041
 C318 C 0.79592 0.15895 0.46829
 C319 C 0.84090 0.20399 0.46813
 C320 C 0.79598 0.15910 0.53058
 O321 O 0.47750 0.84919 0.81630
 O322 O 0.52426 0.81609 0.84964
 O323 O 0.52418 0.84940 0.81635
 O324 O 0.47758 0.81592 0.84960
 O325 O 0.47750 0.78753 0.82150
 O326 O 0.52443 0.82130 0.78795
 O327 O 0.52451 0.78769 0.82154
 O328 O 0.47742 0.82109 0.78791
 Cu329 Cu 0.50087 0.83547 0.83580
 Cu330 Cu 0.50098 0.80153 0.80185
 C331 C 0.46975 0.84096 0.79639
 C332 C 0.53209 0.79620 0.84145
 C333 C 0.53198 0.84123 0.79643
 C334 C 0.46985 0.79598 0.84139
 O335 O 0.52401 0.18367 0.15047
 O336 O 0.47727 0.15037 0.18371
 O337 O 0.47733 0.18363 0.15039
 O338 O 0.52396 0.15037 0.18380
 O339 O 0.52410 0.17850 0.21217
 O340 O 0.47715 0.21204 0.17847
 O341 O 0.47710 0.17849 0.21209
 O342 O 0.52416 0.21208 0.17855
 Cu343 Cu 0.50065 0.16418 0.16427
 Cu344 Cu 0.50063 0.19815 0.19819
 C345 C 0.53178 0.20360 0.15866
 C346 C 0.46947 0.15858 0.20360
 C347 C 0.46954 0.20354 0.15856
 C348 C 0.53172 0.15859 0.20373
 O349 O 0.52230 0.15098 0.81585
 O350 O 0.47564 0.18417 0.84912
 O351 O 0.47563 0.15089 0.81588
 O352 O 0.52232 0.18425 0.84907
 O353 O 0.52244 0.21266 0.82092
 O354 O 0.47541 0.17900 0.78743
 O355 O 0.47542 0.21258 0.82097
 O356 O 0.52241 0.17909 0.78740
 Cu357 Cu 0.49897 0.16475 0.83531
 Cu358 Cu 0.49891 0.19871 0.80130
 C359 C 0.53006 0.15921 0.79592
 C360 C 0.46784 0.20408 0.84090
 C361 C 0.46783 0.15908 0.79595
 C362 C 0.53009 0.20417 0.84082
 O363 O 0.52241 0.84936 0.18430
 O364 O 0.47584 0.81594 0.15093
 O365 O 0.47572 0.84921 0.18421
 O366 O 0.52253 0.81609 0.15106
 O367 O 0.52270 0.78767 0.17920
 O368 O 0.47557 0.82108 0.21264
 O369 O 0.47569 0.78753 0.17907
 O370 O 0.52258 0.82123 0.21273
 Cu371 Cu 0.49912 0.83548 0.16480
 Cu372 Cu 0.49913 0.80150 0.19879
 C373 C 0.53018 0.84116 0.20424
 C374 C 0.46810 0.79599 0.15913
 C375 C 0.46794 0.84098 0.20413
 C376 C 0.53034 0.79620 0.15931
 O377 O 0.81597 0.47720 0.84922
 O378 O 0.84929 0.52391 0.81592
 O379 O 0.81605 0.52390 0.84920
 O380 O 0.84923 0.47721 0.81595
 O381 O 0.82113 0.47708 0.78753
 O382 O 0.78765 0.52409 0.82107
 O383 O 0.82119 0.52410 0.78750
 O384 O 0.78757 0.47706 0.82109
 Cu385 Cu 0.83546 0.50055 0.83540
 Cu386 Cu 0.80151 0.50059 0.80142
 C387 C 0.79605 0.46942 0.84100
 C388 C 0.84110 0.53171 0.79599
 C389 C 0.79615 0.53170 0.84098
 C390 C 0.84101 0.46945 0.79603
 O391 O 0.15107 0.52346 0.18376
 O392 O 0.18413 0.47671 0.15045
 O393 O 0.15085 0.47675 0.18369
 O394 O 0.18434 0.52342 0.15051
 O395 O 0.21273 0.52342 0.17865
 O396 O 0.17894 0.47642 0.21213
 O397 O 0.21251 0.47638 0.17860
 O398 O 0.17917 0.52345 0.21220
 Cu399 Cu 0.16478 0.50010 0.16427
 Cu400 Cu 0.19871 0.49990 0.19827
 C401 C 0.15931 0.53117 0.20370
 C402 C 0.20400 0.46884 0.15868
 C403 C 0.15901 0.46889 0.20361
 C404 C 0.20428 0.53111 0.15874
 O405 O 0.84921 0.47664 0.18454
 O406 O 0.81596 0.52338 0.15130
 O407 O 0.84927 0.52334 0.18453
 O408 O 0.81592 0.47668 0.15130
 O409 O 0.78756 0.47648 0.17944
 O410 O 0.82122 0.52348 0.21297
 O411 O 0.78761 0.52351 0.17944
 O412 O 0.82115 0.47644 0.21298
 Cu413 Cu 0.83541 0.50001 0.16509
 Cu414 Cu 0.80152 0.49998 0.19909
 C415 C 0.84102 0.46882 0.20446
 C416 C 0.79608 0.53115 0.15953
 C417 C 0.84110 0.53111 0.20446
 C418 C 0.79602 0.46888 0.15953
 O419 O 0.18393 0.52261 0.84949
 O420 O 0.15054 0.47600 0.81617
 O421 O 0.18385 0.47589 0.84944
 O422 O 0.15062 0.52270 0.81623
 O423 O 0.17869 0.52291 0.78780
 O424 O 0.21221 0.47578 0.82130
 O425 O 0.17860 0.47588 0.78774
 O426 O 0.21229 0.52281 0.82135
 Cu427 Cu 0.16442 0.49929 0.83566
 Cu428 Cu 0.19832 0.49935 0.80167
 C429 C 0.20384 0.53040 0.84128
 C430 C 0.15870 0.46826 0.79623
 C431 C 0.20374 0.46812 0.84121
 C432 C 0.15881 0.53052 0.79630
 C433 C 0.26157 0.39831 0.07966
 C434 C 0.24613 0.41902 0.06963
 C435 C 0.23504 0.43233 0.08700
 C436 C 0.24041 0.42370 0.11280
 C437 C 0.26809 0.42377 0.11478
 C438 C 0.27923 0.41040 0.09733
 C439 C 0.24434 0.38352 0.09563
 C440 C 0.23319 0.39689 0.11308
 C441 C 0.27320 0.38449 0.06029
 C442 C 0.28200 0.37432 0.04318
 C443 C 0.22811 0.43859 0.13092
 C444 C 0.21738 0.45188 0.14440
 H445 H 0.24408 0.42292 0.05050
 H446 H 0.22350 0.44761 0.08273
 H447 H 0.27804 0.43338 0.12869
 H448 H 0.29872 0.40856 0.09629
 H449 H 0.24123 0.36426 0.09348
 H450 H 0.22054 0.38908 0.12589
 C451 C 0.73841 0.60175 0.08046
 C452 C 0.75268 0.58019 0.07055
 C453 C 0.76377 0.56687 0.08794
 C454 C 0.75957 0.57632 0.11364
 C455 C 0.73199 0.57742 0.11644
 C456 C 0.72085 0.59081 0.09897
 C457 C 0.75671 0.61620 0.09551
 C458 C 0.76785 0.60281 0.11298
 C459 C 0.72678 0.61560 0.06108
 C460 C 0.71797 0.62582 0.04397
 C461 C 0.77188 0.56141 0.13178
 C462 C 0.78264 0.54811 0.14527
 H463 H 0.75397 0.57577 0.05147
 H464 H 0.77455 0.55103 0.08375
 H465 H 0.72211 0.56854 0.13089
 H466 H 0.70142 0.59342 0.09844
 H467 H 0.76051 0.63526 0.09275
 H468 H 0.78120 0.61040 0.12520
 C469 C 0.73817 0.39883 0.92002
 C470 C 0.75683 0.38452 0.90534
 C471 C 0.76802 0.39791 0.88790
 C472 C 0.75943 0.42427 0.88688
 C473 C 0.76320 0.43402 0.91255
 C474 C 0.75206 0.42069 0.92991
 C475 C 0.72071 0.40935 0.90117
 C476 C 0.73190 0.42275 0.88372
 C477 C 0.72649 0.38498 0.93937
 C478 C 0.71765 0.37475 0.95647
 C479 C 0.77179 0.43918 0.86876
 C480 C 0.78258 0.45248 0.85527
 H481 H 0.76083 0.36554 0.90833
 H482 H 0.78161 0.39040 0.87593
 H483 H 0.77373 0.45005 0.91673
 H484 H 0.75306 0.42531 0.94896
 H485 H 0.70131 0.40647 0.90146
 H486 H 0.72209 0.43134 0.86906
 C487 C 0.26195 0.60080 0.92024
 C488 C 0.24727 0.57950 0.93023
 C489 C 0.23608 0.56621 0.91289
 C490 C 0.24059 0.57544 0.88713
 C491 C 0.26820 0.57615 0.88450
 C492 C 0.27945 0.58950 0.90193
 C493 C 0.24397 0.61540 0.90494
 C494 C 0.23273 0.60205 0.88751
 C495 C 0.27368 0.61461 0.93958
 C496 C 0.28255 0.62478 0.95669
 C497 C 0.22817 0.56057 0.86903
 C498 C 0.21734 0.54731 0.85555
 H499 H 0.24578 0.57522 0.94934
 H500 H 0.22502 0.55056 0.91715
 H501 H 0.27803 0.56705 0.87019
 H502 H 0.29891 0.59185 0.90255
 H503 H 0.24046 0.63452 0.90751
 H504 H 0.21958 0.60974 0.87514
 C505 C 0.07952 0.26127 0.39807
 C506 C 0.07279 0.25777 0.42473
 C507 C 0.09026 0.24671 0.43798
 C508 C 0.11284 0.24018 0.42333
 C509 C 0.12112 0.26406 0.41179
 C510 C 0.10355 0.27517 0.39847
 C511 C 0.08597 0.23591 0.38893
 C512 C 0.10349 0.22481 0.40222
 C513 C 0.06007 0.27287 0.38432
 C514 C 0.04292 0.28168 0.37419
 C515 C 0.13105 0.22790 0.43817
 C516 C 0.14459 0.21717 0.45144
 H517 H 0.05576 0.26353 0.43256
 H518 H 0.08819 0.24301 0.45715
 H519 H 0.13914 0.27152 0.41384
 H520 H 0.10652 0.29217 0.38911
 H521 H 0.07759 0.22744 0.37334
 H522 H 0.11012 0.20685 0.39800
 C523 C 0.07996 0.73817 0.60114
 C524 C 0.07004 0.75326 0.58010
 C525 C 0.08745 0.76436 0.56681
 C526 C 0.11318 0.75936 0.57579
 C527 C 0.11539 0.73169 0.57614
 C528 C 0.09790 0.72054 0.58949
 C529 C 0.09562 0.75575 0.61584
 C530 C 0.11311 0.76691 0.60249
 C531 C 0.06055 0.72653 0.61495
 C532 C 0.04342 0.71772 0.62513
 C533 C 0.13135 0.77168 0.56091
 C534 C 0.14487 0.78245 0.54763
 H535 H 0.05094 0.75508 0.57599
 H536 H 0.08325 0.77568 0.55133
 H537 H 0.12948 0.72176 0.56682
 H538 H 0.09700 0.70105 0.59161
 H539 H 0.09324 0.75907 0.63503
 H540 H 0.12572 0.77979 0.61024
 C541 C 0.92044 0.73884 0.39883
 C542 C 0.90519 0.75691 0.38429
 C543 C 0.88774 0.76803 0.39765
 C544 C 0.88728 0.75997 0.42422
 C545 C 0.91300 0.76446 0.43353
 C546 C 0.93037 0.75339 0.42022
 C547 C 0.90211 0.72122 0.41001
 C548 C 0.88466 0.73234 0.42337
 C549 C 0.93980 0.72723 0.38501
 C550 C 0.95691 0.71843 0.37484
 C551 C 0.86916 0.77225 0.43912
 C552 C 0.85568 0.78298 0.45242
 H553 H 0.90781 0.76056 0.36518
 H554 H 0.87539 0.78122 0.39000
 H555 H 0.91721 0.77542 0.44925
 H556 H 0.94945 0.75488 0.42456
 H557 H 0.90274 0.70177 0.40756
 H558 H 0.87033 0.72242 0.43239
 C559 C 0.91999 0.26211 0.60085
 C560 C 0.92999 0.24703 0.57989
 C561 C 0.91264 0.23586 0.56658
 C562 C 0.88687 0.24080 0.57546
 C563 C 0.88458 0.26846 0.57572
 C564 C 0.90202 0.27968 0.58908
 C565 C 0.90436 0.24450 0.61556
 C566 C 0.88692 0.23327 0.60220
 C567 C 0.93934 0.27383 0.61467
 C568 C 0.95643 0.28269 0.62488
 C569 C 0.86876 0.22840 0.56058
 C570 C 0.85527 0.21759 0.54731
 H571 H 0.94910 0.24526 0.57583
 H572 H 0.91690 0.22453 0.55115
 H573 H 0.87048 0.27834 0.56632
 H574 H 0.90286 0.29917 0.59113
 H575 H 0.90671 0.24120 0.63476
 H576 H 0.87433 0.22036 0.60995
 C577 C 0.39876 0.07957 0.26134
 C578 C 0.38398 0.09570 0.24424
 C579 C 0.39739 0.11315 0.23307
 C580 C 0.42422 0.11272 0.24013
 C581 C 0.43265 0.08692 0.23461
 C582 C 0.41931 0.06955 0.24572
 C583 C 0.41106 0.09710 0.27899
 C584 C 0.42447 0.11456 0.26783
 C585 C 0.38490 0.06020 0.27299
 C586 C 0.37468 0.04309 0.28182
 C587 C 0.43916 0.13085 0.22780
 C588 C 0.45249 0.14432 0.21704
 H589 H 0.36471 0.09365 0.24125
 H590 H 0.38960 0.12606 0.22051
 H591 H 0.44783 0.08265 0.22294
 H592 H 0.42306 0.05041 0.24357
 H593 H 0.40932 0.09597 0.29850
 H594 H 0.43422 0.12838 0.27777
 C595 C 0.60076 0.08032 0.73841
 C596 C 0.59116 0.09969 0.72098
 C597 C 0.57774 0.11712 0.73208
 C598 C 0.57528 0.11343 0.75949
 C599 C 0.60131 0.11180 0.76895
 C600 C 0.61473 0.09437 0.75785
 C601 C 0.57831 0.07051 0.75137
 C602 C 0.56495 0.08786 0.76242
 C603 C 0.61464 0.06098 0.72684
 C604 C 0.62487 0.04387 0.71810
 C605 C 0.56033 0.13153 0.77176
 C606 C 0.54702 0.14498 0.78250
 H607 H 0.59466 0.09974 0.70168
 H608 H 0.56973 0.13212 0.72229
 H609 H 0.60859 0.12336 0.78303
 H610 H 0.63350 0.09100 0.76242
 H611 H 0.57332 0.05153 0.75183
 H612 H 0.54853 0.08373 0.77233
 C613 C 0.39905 0.91987 0.73870
 C614 C 0.38496 0.90555 0.75786
 C615 C 0.39836 0.88810 0.76900
 C616 C 0.42451 0.88673 0.75985
 C617 C 0.43464 0.91233 0.76308
 C618 C 0.42129 0.92970 0.75200
 C619 C 0.40897 0.90073 0.72125
 C620 C 0.42238 0.88328 0.73239
 C621 C 0.38519 0.93923 0.72708
 C622 C 0.37497 0.95634 0.71829
 C623 C 0.43944 0.86862 0.77216
 C624 C 0.45277 0.85516 0.78292
 H625 H 0.36612 0.90876 0.76222
 H626 H 0.39101 0.87636 0.78290
 H627 H 0.45093 0.91648 0.77322
 H628 H 0.42616 0.94871 0.75265
 H629 H 0.40568 0.90083 0.70190
 H630 H 0.43059 0.86842 0.72259
 C631 C 0.60078 0.92017 0.26206
 C632 C 0.58938 0.90195 0.27965
 C633 C 0.57598 0.88451 0.26847
 C634 C 0.57533 0.88705 0.24083
 C635 C 0.60194 0.88734 0.23298
 C636 C 0.61534 0.90478 0.24416
 C637 C 0.57957 0.93016 0.24729
 C638 C 0.56623 0.91281 0.23617
 C639 C 0.61465 0.93952 0.27372
 C640 C 0.62487 0.95663 0.28253
 C641 C 0.56040 0.86893 0.22848
 C642 C 0.54711 0.85545 0.21770
 H643 H 0.59170 0.90263 0.29912
 H644 H 0.56681 0.87025 0.27837
 H645 H 0.60959 0.87492 0.21990
 H646 H 0.63447 0.90729 0.24066
 H647 H 0.57537 0.94927 0.24571
 H648 H 0.55062 0.91706 0.22506
 C649 C 0.39777 0.26178 0.92020
 C650 C 0.41928 0.24735 0.93002
 C651 C 0.43247 0.23625 0.91258
 C652 C 0.42294 0.24060 0.88691
 C653 C 0.42197 0.26821 0.88416
 C654 C 0.40872 0.27936 0.90169
 C655 C 0.38317 0.24360 0.90515
 C656 C 0.39642 0.23244 0.88762
 C657 C 0.38408 0.27342 0.93965
 C658 C 0.37403 0.28222 0.95684
 C659 C 0.43772 0.22828 0.86871
 C660 C 0.45095 0.21752 0.85518
 H661 H 0.42378 0.24596 0.94908
 H662 H 0.44825 0.22536 0.91671
 H663 H 0.43082 0.27810 0.86970
 H664 H 0.40621 0.29881 0.90226
 H665 H 0.36412 0.23988 0.90795
 H666 H 0.38872 0.21916 0.87540
 C667 C 0.60217 0.73862 0.92100
 C668 C 0.61667 0.75710 0.90619
 C669 C 0.60343 0.76823 0.88860
 C670 C 0.57702 0.75975 0.88759
 C671 C 0.56722 0.76378 0.91320
 C672 C 0.58040 0.75270 0.93070
 C673 C 0.59160 0.72105 0.90229
 C674 C 0.57836 0.73218 0.88470
 C675 C 0.61585 0.72700 0.94051
 C676 C 0.62590 0.71820 0.95773
 C677 C 0.56224 0.77205 0.86934
 C678 C 0.54901 0.78279 0.85577
 H679 H 0.63566 0.76103 0.90919
 H680 H 0.61107 0.78170 0.87653
 H681 H 0.55127 0.77443 0.91724
 H682 H 0.57573 0.75387 0.94973
 H683 H 0.59435 0.70164 0.90277
 H684 H 0.56975 0.72230 0.87010
 C685 C 0.39821 0.73779 0.07979
 C686 C 0.38347 0.75565 0.09504
 C687 C 0.39669 0.76691 0.11256
 C688 C 0.42332 0.75918 0.11308
 C689 C 0.43261 0.76383 0.08738
 C690 C 0.41946 0.75263 0.06994
 C691 C 0.40952 0.72028 0.09813
 C692 C 0.42274 0.73154 0.11565
 C693 C 0.38455 0.72605 0.06035
 C694 C 0.37452 0.71718 0.04315
 C695 C 0.43806 0.77161 0.13127
 C696 C 0.45125 0.78246 0.14481
 H697 H 0.36435 0.75908 0.09237
 H698 H 0.38889 0.77999 0.12491
 H699 H 0.44822 0.77499 0.08322
 H700 H 0.42381 0.75420 0.05086
 H701 H 0.40728 0.70080 0.09747
 H702 H 0.43183 0.72170 0.13000
 C703 C 0.60184 0.26164 0.07934
 C704 C 0.58963 0.27923 0.09695
 C705 C 0.57639 0.26801 0.11449
 C706 C 0.57669 0.24031 0.11264
 C707 C 0.60354 0.23337 0.11290
 C708 C 0.61678 0.24460 0.09536
 C709 C 0.58125 0.24594 0.06944
 C710 C 0.56807 0.23477 0.08689
 C711 C 0.61551 0.27335 0.05988
 C712 C 0.62556 0.28220 0.04269
 C713 C 0.56191 0.22791 0.13085
 C714 C 0.54869 0.21709 0.14437
 H715 H 0.59132 0.29875 0.09582
 H716 H 0.56673 0.27791 0.12838
 H717 H 0.61146 0.22083 0.12576
 H718 H 0.63605 0.24169 0.09319
 H719 H 0.57734 0.24378 0.05032
 H720 H 0.55289 0.22305 0.08270
 C721 C 0.26171 0.08014 0.60148
 C722 C 0.24425 0.09588 0.61619
 C723 C 0.23309 0.11334 0.60280
 C724 C 0.24051 0.11330 0.57606
 C725 C 0.23539 0.08752 0.56725
 C726 C 0.24650 0.07015 0.58058
 C727 C 0.27933 0.09804 0.58964
 C728 C 0.26817 0.11549 0.57625
 C729 C 0.27335 0.06078 0.61533
 C730 C 0.28218 0.04368 0.62553
 C731 C 0.22819 0.13142 0.56114
 C732 C 0.21741 0.14487 0.54781
 H733 H 0.24101 0.09358 0.63540
 H734 H 0.22029 0.12600 0.61054
 H735 H 0.22400 0.08327 0.55185
 H736 H 0.24461 0.05103 0.57658
 H737 H 0.29881 0.09713 0.59166
 H738 H 0.27809 0.12955 0.56679
 C739 C 0.73794 0.07964 0.39820
 C740 C 0.75200 0.06984 0.41999
 C741 C 0.76316 0.08727 0.43319
 C742 C 0.75924 0.11291 0.42340
 C743 C 0.73169 0.11592 0.42204
 C744 C 0.72048 0.09840 0.40877
 C745 C 0.75647 0.09440 0.38371
 C746 C 0.76768 0.11191 0.39698
 C747 C 0.72624 0.06021 0.38449
 C748 C 0.71739 0.04303 0.37442
 C749 C 0.77162 0.13110 0.43819
 C750 C 0.78243 0.14463 0.45142
 H751 H 0.75309 0.05080 0.42466
 H752 H 0.77380 0.08314 0.44917
 H753 H 0.72189 0.13054 0.43066
 H754 H 0.70107 0.09802 0.40601
 H755 H 0.76036 0.09143 0.36472
 H756 H 0.78119 0.12394 0.38935
 C757 C 0.73851 0.91995 0.60209
 C758 C 0.75698 0.90515 0.61658
 C759 C 0.76821 0.88772 0.60327
 C760 C 0.75984 0.88683 0.57682
 C761 C 0.76380 0.91252 0.56715
 C762 C 0.75262 0.92988 0.58040
 C763 C 0.72105 0.90121 0.59137
 C764 C 0.73228 0.88377 0.57806
 C765 C 0.72678 0.93930 0.61584
 C766 C 0.71789 0.95639 0.62596
 C767 C 0.77223 0.86873 0.56198
 C768 C 0.78303 0.85528 0.54872
 H769 H 0.76083 0.90804 0.63560
 H770 H 0.78169 0.87567 0.61089
 H771 H 0.77449 0.91673 0.55124
 H772 H 0.75375 0.94894 0.57582
 H773 H 0.70163 0.90156 0.59406
 H774 H 0.72249 0.86918 0.56934
 C775 C 0.26200 0.92020 0.39807
 C776 C 0.24636 0.93013 0.41864
 C777 C 0.23527 0.91270 0.43193
 C778 C 0.24083 0.88693 0.42342
 C779 C 0.26852 0.88514 0.42369
 C780 C 0.27966 0.90265 0.41034
 C781 C 0.24496 0.90409 0.38321
 C782 C 0.23381 0.88658 0.39656
 C783 C 0.27363 0.93963 0.38427
 C784 C 0.28242 0.95681 0.37413
 C785 C 0.22851 0.86875 0.43830
 C786 C 0.21774 0.85524 0.45158
 H787 H 0.24418 0.94926 0.42246
 H788 H 0.22359 0.91691 0.44711
 H789 H 0.27847 0.87131 0.43341
 H790 H 0.29916 0.90383 0.40862
 H791 H 0.24199 0.90620 0.36393
 H792 H 0.22128 0.87367 0.38872
 C793 C 0.07937 0.39831 0.73808
 C794 C 0.06965 0.42042 0.75163
 C795 C 0.08709 0.43360 0.76284
 C796 C 0.11263 0.42345 0.75946
 C797 C 0.11604 0.42165 0.73197
 C798 C 0.09852 0.40841 0.72071
 C799 C 0.09363 0.38395 0.75707
 C800 C 0.11115 0.39718 0.76832
 C801 C 0.05993 0.38464 0.72633
 C802 C 0.04275 0.37459 0.71746
 C803 C 0.13082 0.43821 0.77189
 C804 C 0.14436 0.45141 0.78273
 H805 H 0.05068 0.42533 0.75237
 H806 H 0.08302 0.44977 0.77315
 H807 H 0.13091 0.42995 0.72223
 H808 H 0.09839 0.40537 0.70133
 H809 H 0.09035 0.36505 0.76123
 H810 H 0.12286 0.38962 0.78213
 C811 C 0.08063 0.60173 0.26166
 C812 C 0.09637 0.61645 0.24415
 C813 C 0.11375 0.60308 0.23293
 C814 C 0.11366 0.57632 0.24036
 C815 C 0.08786 0.56754 0.23530
 C816 C 0.07055 0.58086 0.24647
 C817 C 0.09852 0.58984 0.27925
 C818 C 0.11591 0.57646 0.26803
 C819 C 0.06133 0.61556 0.27337
 C820 C 0.04427 0.62575 0.28223
 C821 C 0.13170 0.56142 0.22797
 C822 C 0.14512 0.54812 0.21717
 H823 H 0.09411 0.63568 0.24093
 H824 H 0.12640 0.61084 0.22009
 H825 H 0.08354 0.55216 0.22391
 H826 H 0.05142 0.57687 0.24463
 H827 H 0.09767 0.59183 0.29874
 H828 H 0.12995 0.56698 0.27792
 C829 C 0.92020 0.39825 0.26191
 C830 C 0.90452 0.38359 0.24431
 C831 C 0.88701 0.39696 0.23322
 C832 C 0.88695 0.42364 0.24086
 C833 C 0.91267 0.43265 0.23583
 C834 C 0.93010 0.41934 0.24686
 C835 C 0.90228 0.40983 0.27961
 C836 C 0.88477 0.42320 0.26853
 C837 C 0.93962 0.38443 0.27347
 C838 C 0.95679 0.37427 0.28220
 C839 C 0.86878 0.43854 0.22861
 C840 C 0.85528 0.45186 0.21788
 H841 H 0.90690 0.36442 0.24092
 H842 H 0.87439 0.38925 0.22034
 H843 H 0.91686 0.44817 0.22456
 H844 H 0.94919 0.42347 0.24502
 H845 H 0.90320 0.40765 0.29909
 H846 H 0.87069 0.43249 0.27852
 C847 C 0.92043 0.60185 0.73808
 C848 C 0.92151 0.57477 0.73227
 C849 C 0.90403 0.56155 0.74343
 C850 C 0.88713 0.57666 0.75934
 C851 C 0.87711 0.59636 0.74250
 C852 C 0.89467 0.60964 0.73129
 C853 C 0.92137 0.60328 0.76576
 C854 C 0.90388 0.59006 0.77692
 C855 C 0.93989 0.61555 0.72640
 C856 C 0.95708 0.62563 0.71757
 C857 C 0.86893 0.56186 0.77172
 C858 C 0.85540 0.54862 0.78252
 H859 H 0.93480 0.56667 0.72036
 H860 H 0.90237 0.54214 0.74107
 H861 H 0.85798 0.59958 0.73966
 H862 H 0.89060 0.62425 0.71883
 H863 H 0.93457 0.61384 0.77572
 H864 H 0.90211 0.58929 0.79645
 C865 C 0.73850 0.60208 0.92005
 C866 C 0.75405 0.58144 0.93005
 C867 C 0.76515 0.56817 0.91266
 C868 C 0.75967 0.57676 0.88687
 C869 C 0.76678 0.60360 0.88655
 C870 C 0.75563 0.61693 0.90402
 C871 C 0.72085 0.58990 0.90243
 C872 C 0.73199 0.57657 0.88496
 C873 C 0.72686 0.61587 0.93943
 C874 C 0.71803 0.62602 0.95654
 C875 C 0.77198 0.56190 0.86873
 C876 C 0.78273 0.54863 0.85524
 H877 H 0.75618 0.57757 0.94919
 H878 H 0.77677 0.55294 0.91692
 H879 H 0.77937 0.61144 0.87370
 H880 H 0.75866 0.63620 0.90614
 H881 H 0.70135 0.59166 0.90352
 H882 H 0.72205 0.56690 0.87109
 C883 C 0.26168 0.39771 0.92030
 C884 C 0.27926 0.40973 0.90249
 C885 C 0.26805 0.42306 0.88501
 C886 C 0.24038 0.42302 0.88710
 C887 C 0.23515 0.43174 0.91288
 C888 C 0.24632 0.41847 0.93028
 C889 C 0.24435 0.38289 0.90447
 C890 C 0.23313 0.39622 0.88699
 C891 C 0.27339 0.38394 0.93970
 C892 C 0.28224 0.37383 0.95687
 C893 C 0.22800 0.43789 0.86896
 C894 C 0.21720 0.45117 0.85547
 H895 H 0.29875 0.40787 0.90346
 H896 H 0.27793 0.43262 0.87101
 H897 H 0.22365 0.44704 0.91712
 H898 H 0.24436 0.42242 0.94940
 H899 H 0.24124 0.36365 0.90673
 H900 H 0.22040 0.38840 0.87428
 C901 C 0.26232 0.60140 0.07960
 C902 C 0.24442 0.61605 0.09488
 C903 C 0.23321 0.60274 0.11238
 C904 C 0.24103 0.57613 0.11284
 C905 C 0.26865 0.57679 0.11541
 C906 C 0.27986 0.59010 0.09791
 C907 C 0.24757 0.58012 0.06971
 C908 C 0.23642 0.56687 0.08713
 C909 C 0.27401 0.61515 0.06018
 C910 C 0.28285 0.62526 0.04301
 C911 C 0.22864 0.56129 0.13100
 C912 C 0.21781 0.54803 0.14449
 H913 H 0.24093 0.63518 0.09226
 H914 H 0.22011 0.61047 0.12475
 H915 H 0.27851 0.56770 0.12973
 H916 H 0.29932 0.59242 0.09724
 H917 H 0.24602 0.57581 0.05062
 H918 H 0.22532 0.55123 0.08294
 C919 C 0.73822 0.39851 0.08041
 C920 C 0.75581 0.38380 0.09604
 C921 C 0.76698 0.39713 0.11353
 C922 C 0.75943 0.42383 0.11362
 C923 C 0.73178 0.42348 0.11588
 C924 C 0.72061 0.41014 0.09839
 C925 C 0.75329 0.41955 0.07046
 C926 C 0.76441 0.43283 0.08786
 C927 C 0.72657 0.38472 0.06101
 C928 C 0.71773 0.37456 0.04389
 C929 C 0.77176 0.43869 0.13177
 C930 C 0.78254 0.45196 0.14527
 H931 H 0.75913 0.36461 0.09365
 H932 H 0.77987 0.38938 0.12613
 H933 H 0.72187 0.43279 0.12999
 H934 H 0.70114 0.40802 0.09752
 H935 H 0.75508 0.42369 0.05135
 H936 H 0.77571 0.44832 0.08365
 C937 C 0.92061 0.73803 0.60187
 C938 C 0.93052 0.75275 0.58056
 C939 C 0.91313 0.76394 0.56733
 C940 C 0.88743 0.75940 0.57663
 C941 C 0.88794 0.76725 0.60324
 C942 C 0.90541 0.75600 0.61653
 C943 C 0.90225 0.72052 0.59061
 C944 C 0.88478 0.73177 0.57732
 C945 C 0.94000 0.72629 0.61561
 C946 C 0.95715 0.71743 0.62570
 C947 C 0.86928 0.77182 0.56181
 C948 C 0.85579 0.78265 0.54857
 H949 H 0.94959 0.75425 0.57622
 H950 H 0.91733 0.77502 0.55167
 H951 H 0.87563 0.78039 0.61098
 H952 H 0.90807 0.75950 0.63565
 H953 H 0.90286 0.70105 0.59294
 H954 H 0.87042 0.72193 0.56826
 C955 C 0.92006 0.26175 0.39766
 C956 C 0.92984 0.24799 0.41965
 C957 C 0.91243 0.23687 0.43293
 C958 C 0.88682 0.24054 0.42299
 C959 C 0.88798 0.23180 0.39668
 C960 C 0.90547 0.24297 0.38334
 C961 C 0.90116 0.27923 0.40796
 C962 C 0.88366 0.26807 0.42130
 C963 C 0.93948 0.27340 0.38389
 C964 C 0.95665 0.28220 0.37377
 C965 C 0.86866 0.22820 0.43786
 C966 C 0.85517 0.21743 0.45115
 H967 H 0.94886 0.24705 0.42441
 H968 H 0.91654 0.22643 0.44904
 H969 H 0.87606 0.21814 0.38916
 H970 H 0.90855 0.23888 0.36441
 H971 H 0.90145 0.29863 0.40497
 H972 H 0.86896 0.27789 0.42974
 C973 C 0.08020 0.26204 0.60103
 C974 C 0.09465 0.24315 0.61535
 C975 C 0.11206 0.23193 0.60201
 C976 C 0.11326 0.24072 0.57569
 C977 C 0.11662 0.26822 0.57738
 C978 C 0.09921 0.27945 0.59072
 C979 C 0.07030 0.24837 0.57905
 C980 C 0.08763 0.23720 0.56577
 C981 C 0.06088 0.27375 0.61483
 C982 C 0.04381 0.28262 0.62500
 C983 C 0.13134 0.22832 0.56083
 C984 C 0.14478 0.21750 0.54757
 H985 H 0.09156 0.23904 0.63428
 H986 H 0.12388 0.21819 0.60951
 H987 H 0.13139 0.27799 0.56892
 H988 H 0.09906 0.29884 0.59371
 H989 H 0.05128 0.24754 0.57431
 H990 H 0.08343 0.22681 0.54966
 C991 C 0.07985 0.73844 0.39814
 C992 C 0.09845 0.72086 0.40886
 C993 C 0.11600 0.73198 0.42216
 C994 C 0.11319 0.75956 0.42338
 C995 C 0.08756 0.76370 0.43306
 C996 C 0.07010 0.75263 0.41983
 C997 C 0.09477 0.75683 0.38363
 C998 C 0.11232 0.76796 0.39693
 C999 C 0.06038 0.72684 0.38441
 C1000 C 0.04318 0.71806 0.37432
 C1001 C 0.13140 0.77185 0.43821
 C1002 C 0.14493 0.78259 0.45148
 H1003 H 0.09792 0.70143 0.40618
 H1004 H 0.13052 0.72208 0.43087
 H1005 H 0.08348 0.77441 0.44897
 H1006 H 0.05107 0.75387 0.42441
 H1007 H 0.09187 0.76070 0.36461
 H1008 H 0.12447 0.78136 0.38930
 C1009 C 0.60189 0.92085 0.73858
 C1010 C 0.59898 0.89781 0.72338
 C1011 C 0.58574 0.88021 0.73457
 C1012 C 0.57678 0.88745 0.75982
 C1013 C 0.56289 0.91111 0.75595
 C1014 C 0.57605 0.92862 0.74481
 C1015 C 0.61282 0.91231 0.76262
 C1016 C 0.59962 0.89474 0.77379
 C1017 C 0.61555 0.94035 0.72691
 C1018 C 0.62560 0.95756 0.71807
 C1019 C 0.56203 0.86919 0.77218
 C1020 C 0.54884 0.85560 0.78297
 H1021 H 0.60666 0.89551 0.70549
 H1022 H 0.58208 0.86282 0.72627
 H1023 H 0.54427 0.91387 0.76145
 H1024 H 0.56870 0.94636 0.74079
 H1025 H 0.62951 0.91936 0.77016
 H1026 H 0.60499 0.88675 0.79090
 C1027 C 0.39776 0.92015 0.26186
 C1028 C 0.41929 0.93000 0.24744
 C1029 C 0.43249 0.91257 0.23633
 C1030 C 0.42296 0.88689 0.24066
 C1031 C 0.39644 0.88759 0.23250
 C1032 C 0.38318 0.90510 0.24366
 C1033 C 0.40870 0.90164 0.27943
 C1034 C 0.42196 0.88413 0.26827
 C1035 C 0.38407 0.93959 0.27350
 C1036 C 0.37401 0.95678 0.28229
 C1037 C 0.43776 0.86872 0.22833
 C1038 C 0.45101 0.85522 0.21756
 H1039 H 0.42379 0.94906 0.24607
 H1040 H 0.44829 0.91672 0.22546
 H1041 H 0.38876 0.87537 0.21921
 H1042 H 0.36413 0.90789 0.23994
 H1043 H 0.40617 0.90219 0.29888
 H1044 H 0.43080 0.86967 0.27816
 C1045 C 0.60178 0.07949 0.26202
 C1046 C 0.61669 0.09541 0.24483
 C1047 C 0.60344 0.11288 0.23354
 C1048 C 0.57660 0.11268 0.24057
 C1049 C 0.57638 0.11468 0.26826
 C1050 C 0.58964 0.09721 0.27955
 C1051 C 0.58114 0.06950 0.24645
 C1052 C 0.56794 0.08689 0.23521
 C1053 C 0.61548 0.06010 0.27380
 C1054 C 0.62554 0.04294 0.28270
 C1055 C 0.56181 0.13082 0.22811
 C1056 C 0.54859 0.14431 0.21725
 H1057 H 0.63595 0.09322 0.24187
 H1058 H 0.61133 0.12566 0.22090
 H1059 H 0.56676 0.12863 0.27811
 H1060 H 0.59138 0.09619 0.29907
 H1061 H 0.57722 0.05038 0.24441
 H1062 H 0.55273 0.08264 0.22356
 C1063 C 0.39791 0.07943 0.73832
 C1064 C 0.41958 0.06975 0.75262
 C1065 C 0.43273 0.08728 0.76370
 C1066 C 0.42299 0.11288 0.75945
 C1067 C 0.39654 0.11192 0.76774
 C1068 C 0.38333 0.09431 0.75662
 C1069 C 0.40862 0.09806 0.72073
 C1070 C 0.42183 0.11567 0.73185
 C1071 C 0.38427 0.05989 0.72672
 C1072 C 0.37424 0.04266 0.71793
 C1073 C 0.43773 0.13116 0.77175
 C1074 C 0.45094 0.14474 0.78250
 H1075 H 0.42421 0.05072 0.75394
 H1076 H 0.44861 0.08325 0.77449
 H1077 H 0.38885 0.12405 0.78108
 H1078 H 0.36432 0.09135 0.76042
 H1079 H 0.40598 0.09752 0.70129
 H1080 H 0.43052 0.13022 0.72195
 C1081 C 0.60115 0.73871 0.08050
 C1082 C 0.58870 0.72100 0.09789
 C1083 C 0.57528 0.73211 0.11531
 C1084 C 0.57565 0.75981 0.11359
 C1085 C 0.56734 0.76552 0.08776
 C1086 C 0.58071 0.75446 0.07041
 C1087 C 0.61594 0.75565 0.09677
 C1088 C 0.60251 0.76676 0.11419
 C1089 C 0.61503 0.72712 0.06115
 C1090 C 0.62525 0.71836 0.04405
 C1091 C 0.56069 0.77209 0.13167
 C1092 C 0.54734 0.78281 0.14511
 H1093 H 0.59036 0.70149 0.09670
 H1094 H 0.56543 0.72212 0.12904
 H1095 H 0.55224 0.77727 0.08344
 H1096 H 0.57703 0.75675 0.05126
 H1097 H 0.63523 0.75857 0.09484
 H1098 H 0.61030 0.77921 0.12719
 C1099 C 0.39886 0.26132 0.07959
 C1100 C 0.38427 0.24354 0.09516
 C1101 C 0.39769 0.23236 0.11259
 C1102 C 0.42435 0.24008 0.11269
 C1103 C 0.42389 0.26774 0.11507
 C1104 C 0.41046 0.27891 0.09765
 C1105 C 0.41993 0.24642 0.06956
 C1106 C 0.43328 0.23529 0.08691
 C1107 C 0.38497 0.27299 0.06025
 C1108 C 0.37474 0.28181 0.04315
 C1109 C 0.43929 0.22774 0.13079
 C1110 C 0.45260 0.21697 0.14427
 H1111 H 0.36510 0.24012 0.09278
 H1112 H 0.39002 0.21936 0.12513
 H1113 H 0.43319 0.27764 0.12922
 H1114 H 0.40827 0.29839 0.09687
 H1115 H 0.42401 0.24475 0.05044
 H1116 H 0.44880 0.22410 0.08262
 C1117 C 0.60079 0.26172 0.91984
 C1118 C 0.61527 0.24367 0.90457
 C1119 C 0.60187 0.23257 0.88709
 C1120 C 0.57533 0.24064 0.88665
 C1121 C 0.57624 0.26827 0.88405
 C1122 C 0.58965 0.27937 0.90153
 C1123 C 0.57940 0.24716 0.92977
 C1124 C 0.56605 0.23611 0.91238
 C1125 C 0.61466 0.27330 0.93923
 C1126 C 0.62487 0.28206 0.95636
 C1127 C 0.56040 0.22837 0.86852
 C1128 C 0.54707 0.21762 0.85505
 H1129 H 0.63436 0.24001 0.90718
 H1130 H 0.60946 0.21939 0.87473
 H1131 H 0.56724 0.27820 0.86972
 H1132 H 0.59214 0.29882 0.90218
 H1133 H 0.57508 0.24565 0.94886
 H1134 H 0.55032 0.22515 0.91658
 C1135 C 0.39931 0.73804 0.92037
 C1136 C 0.38476 0.75602 0.90502
 C1137 C 0.39814 0.76722 0.88757
 C1138 C 0.42472 0.75930 0.88723
 C1139 C 0.42398 0.73168 0.88467
 C1140 C 0.41060 0.72048 0.90212
 C1141 C 0.42060 0.75272 0.93035
 C1142 C 0.43392 0.76386 0.91298
 C1143 C 0.38547 0.72636 0.93973
 C1144 C 0.37527 0.71752 0.95683
 C1145 C 0.43963 0.77167 0.86911
 C1146 C 0.45292 0.78248 0.85564
 H1147 H 0.36565 0.75957 0.90757
 H1148 H 0.39049 0.78036 0.87517
 H1149 H 0.43307 0.72180 0.87039
 H1150 H 0.40822 0.70101 0.90279
 H1151 H 0.42486 0.75424 0.94945
 H1152 H 0.44958 0.77492 0.91722
 C1153 C 0.73837 0.92028 0.39907
 C1154 C 0.75518 0.90404 0.38416
 C1155 C 0.76643 0.88661 0.39752
 C1156 C 0.75973 0.88717 0.42445
 C1157 C 0.73204 0.88542 0.42502
 C1158 C 0.72080 0.90284 0.41166
 C1159 C 0.75429 0.93034 0.41941
 C1160 C 0.76548 0.91299 0.43271
 C1161 C 0.72663 0.93962 0.38525
 C1162 C 0.71776 0.95671 0.37507
 C1163 C 0.77214 0.86906 0.43933
 C1164 C 0.78296 0.85557 0.45259
 H1165 H 0.75794 0.90600 0.36483
 H1166 H 0.77882 0.87363 0.38964
 H1167 H 0.72216 0.87167 0.43495
 H1168 H 0.70129 0.90403 0.41015
 H1169 H 0.75659 0.94949 0.42306
 H1170 H 0.77735 0.91730 0.44773
 C1171 C 0.26194 0.91978 0.60144
 C1172 C 0.24487 0.90363 0.61624
 C1173 C 0.23373 0.88617 0.60284
 C1174 C 0.24077 0.88662 0.57600
 C1175 C 0.26845 0.88482 0.57578
 C1176 C 0.27960 0.90227 0.58918
 C1177 C 0.24632 0.92980 0.58085
 C1178 C 0.23523 0.91242 0.56751
 C1179 C 0.27356 0.93915 0.61529
 C1180 C 0.28235 0.95626 0.62550
 C1181 C 0.22846 0.86850 0.56108
 C1182 C 0.21769 0.85504 0.54776
 H1183 H 0.24189 0.90566 0.63552
 H1184 H 0.22119 0.87324 0.61065
 H1185 H 0.27841 0.87101 0.56606
 H1186 H 0.29910 0.90343 0.59093
 H1187 H 0.24415 0.94894 0.57705
 H1188 H 0.22357 0.91669 0.55231
 C1189 C 0.26156 0.07964 0.39833
 C1190 C 0.24352 0.09484 0.38372
 C1191 C 0.23235 0.11232 0.39702
 C1192 C 0.24036 0.11284 0.42360
 C1193 C 0.26797 0.11550 0.42279
 C1194 C 0.27913 0.09802 0.40948
 C1195 C 0.24699 0.06973 0.41973
 C1196 C 0.23588 0.08713 0.43297
 C1197 C 0.27322 0.06025 0.38458
 C1198 C 0.28203 0.04313 0.37445
 C1199 C 0.22803 0.13100 0.43843
 C1200 C 0.21727 0.14452 0.45167
 H1201 H 0.23990 0.09218 0.36462
 H1202 H 0.21917 0.12464 0.38932
 H1203 H 0.27785 0.12987 0.43178
 H1204 H 0.29858 0.09741 0.40707
 H1205 H 0.24552 0.05065 0.42412
 H1206 H 0.22490 0.08293 0.44869
 C1207 C 0.73819 0.08023 0.60141
 C1208 C 0.72059 0.09802 0.58942
 C1209 C 0.73177 0.11544 0.57598
 C1210 C 0.75943 0.11333 0.57589
 C1211 C 0.76459 0.08752 0.56724
 C1212 C 0.75346 0.07018 0.58061
 C1213 C 0.75561 0.09609 0.61610
 C1214 C 0.76679 0.11352 0.60266
 C1215 C 0.72652 0.06090 0.61532
 C1216 C 0.71770 0.04381 0.62557
 C1217 C 0.77177 0.13142 0.56092
 C1218 C 0.78255 0.14487 0.54758
 H1219 H 0.70110 0.09706 0.59138
 H1220 H 0.72186 0.12941 0.56642
 H1221 H 0.77602 0.08322 0.55189
 H1222 H 0.75537 0.05104 0.57672
 H1223 H 0.75880 0.09390 0.63534
 H1224 H 0.77957 0.12625 0.61038
 C1225 C 0.92035 0.60162 0.26195
 C1226 C 0.90254 0.58979 0.27965
 C1227 C 0.88503 0.57642 0.26855
 C1228 C 0.88710 0.57623 0.24087
 C1229 C 0.91284 0.56741 0.23569
 C1230 C 0.93026 0.58072 0.24673
 C1231 C 0.90456 0.61635 0.24450
 C1232 C 0.88705 0.60297 0.23340
 C1233 C 0.93977 0.61545 0.27353
 C1234 C 0.95689 0.62565 0.28231
 C1235 C 0.86892 0.56134 0.22861
 C1236 C 0.85540 0.54805 0.21788
 H1237 H 0.90353 0.59181 0.29914
 H1238 H 0.87102 0.56698 0.27853
 H1239 H 0.91702 0.55200 0.22429
 H1240 H 0.94936 0.57670 0.24479
 H1241 H 0.90687 0.63556 0.24123
 H1242 H 0.87435 0.61073 0.22061
 C1243 C 0.92001 0.39911 0.73823
 C1244 C 0.90223 0.41109 0.72060
 C1245 C 0.88478 0.42442 0.73178
 C1246 C 0.88686 0.42442 0.75946
 C1247 C 0.91263 0.43317 0.76472
 C1248 C 0.93000 0.41990 0.75360
 C1249 C 0.90417 0.38430 0.75558
 C1250 C 0.88671 0.39763 0.76675
 C1251 C 0.93937 0.38534 0.72657
 C1252 C 0.95647 0.37518 0.71774
 C1253 C 0.86874 0.43927 0.77180
 C1254 C 0.85526 0.45253 0.78258
 H1255 H 0.90321 0.40921 0.70110
 H1256 H 0.87081 0.43395 0.72185
 H1257 H 0.91688 0.44849 0.77622
 H1258 H 0.94912 0.42388 0.75558
 H1259 H 0.90640 0.36507 0.75872
 H1260 H 0.87399 0.38981 0.77948
 C1261 C 0.07981 0.60103 0.73845
 C1262 C 0.08375 0.60788 0.76504
 C1263 C 0.10117 0.59455 0.77621
 C1264 C 0.11296 0.57566 0.75970
 C1265 C 0.12228 0.59002 0.73782
 C1266 C 0.10481 0.60340 0.72662
 C1267 C 0.07451 0.57382 0.73877
 C1268 C 0.09190 0.56051 0.74992
 C1269 C 0.06045 0.61485 0.72678
 C1270 C 0.04334 0.62504 0.71794
 C1271 C 0.13108 0.56077 0.77207
 C1272 C 0.14455 0.54748 0.78286
 H1273 H 0.07381 0.62203 0.77426
 H1274 H 0.10614 0.59728 0.79499
 H1275 H 0.14091 0.58974 0.73170
 H1276 H 0.10845 0.61459 0.71090
 H1277 H 0.05850 0.56568 0.73086
 H1278 H 0.09076 0.54098 0.75154
 C1279 C 0.07964 0.39853 0.26125
 C1280 C 0.09785 0.40984 0.27887
 C1281 C 0.11538 0.42317 0.26773
 C1282 C 0.11292 0.42385 0.24009
 C1283 C 0.08723 0.43308 0.23537
 C1284 C 0.06979 0.41982 0.24646
 C1285 C 0.09499 0.38391 0.24338
 C1286 C 0.11251 0.39723 0.23224
 C1287 C 0.06020 0.38475 0.27287
 C1288 C 0.04306 0.37460 0.28168
 C1289 C 0.13112 0.43870 0.22778
 C1290 C 0.14467 0.45197 0.21703
 H1291 H 0.09711 0.40752 0.29834
 H1292 H 0.12965 0.43227 0.27766
 H1293 H 0.08308 0.44873 0.22426
 H1294 H 0.05072 0.42411 0.24484
 H1295 H 0.09240 0.36478 0.23988
 H1296 H 0.12493 0.38953 0.21919
   
