data_POSCAR
  _audit_creation_date              2014-09-24
  _audit_creation_method            'ToBaCCo'
  _symmetry_space_group_name_H-M    'P1'
  _symmetry_Int_Tables_number       1
  _symmetry_cell_setting            triclinic
  loop_
  _symmetry_equiv_pos_as_xyz
 x,y,z
_cell_length_a 53.2975
_cell_length_b 51.3025
_cell_length_c 52.8096
_cell_angle_alpha 90.900600
_cell_angle_beta 88.954500
_cell_angle_gamma 89.972200
loop_
  _atom_site_label
  _atom_site_type_symbol
  _atom_site_fract_x
  _atom_site_fract_y
  _atom_site_fract_z
C1 C 0.77231 0.64015 0.99390
 C2 C 0.77717 0.62562 0.96883
 C3 C 0.75630 0.61089 0.96030
 C4 C 0.73349 0.61279 0.97835
 C5 C 0.74903 0.65677 0.98927
 C6 C 0.72813 0.64207 0.98064
 C7 C 0.76373 0.61946 1.01254
 C8 C 0.74258 0.60495 1.00450
 H9 H 0.79476 0.62723 0.95848
 H10 H 0.71715 0.60119 0.97180
 H11 H 0.74903 0.67773 0.99167
 H12 H 0.77166 0.61817 1.03118
 C13 C 0.78243 0.34154 0.44828
 C14 C 0.78841 0.35790 0.47169
 C15 C 0.76775 0.37268 0.48143
 C16 C 0.74385 0.36881 0.46608
 C17 C 0.76008 0.32475 0.45625
 C18 C 0.73923 0.33921 0.46585
 C19 C 0.77209 0.36065 0.42926
 C20 C 0.75116 0.37523 0.43868
 H21 H 0.80649 0.35676 0.48053
 H22 H 0.72814 0.38099 0.47350
 H23 H 0.76020 0.30364 0.45503
 H24 H 0.77879 0.36106 0.40981
 C25 C 0.28310 -0.13785 -0.01772
 C26 C 0.28598 -0.12158 0.00482
 C27 C 0.26411 -0.10703 0.01242
 C28 C 0.24185 -0.11247 -0.00507
 C29 C 0.26218 -0.15513 -0.01206
 C30 C 0.23932 -0.14240 -0.00502
 C31 C 0.27467 -0.12080 -0.03752
 C32 C 0.25224 -0.10676 -0.03181
 H33 H 0.30272 -0.12258 0.01602
 H34 H 0.22474 -0.10148 0.00056
 H35 H 0.26382 -0.17622 -0.01250
 H36 H 0.28409 -0.11966 -0.05587
 C37 C 0.26978 0.14049 0.53367
 C38 C 0.27957 0.11911 0.51574
 C39 C 0.26057 0.10310 0.50544
 C40 C 0.23419 0.10976 0.51596
 C41 C 0.24975 0.15504 0.51913
 C42 C 0.23056 0.13854 0.50951
 C43 C 0.25549 0.12601 0.55419
 C44 C 0.23638 0.10929 0.54498
 H45 H 0.29910 0.11754 0.50984
 H46 H 0.21911 0.09679 0.50890
 H47 H 0.25105 0.17570 0.51565
 H48 H 0.25846 0.13006 0.57406
 C49 C 0.16936 0.51526 0.27554
 C50 C 0.15251 0.49164 0.28022
 C51 C 0.13758 0.48463 0.25915
 C52 C 0.14151 0.50251 0.23645
 C53 C 0.18460 0.50835 0.25158
 C54 C 0.16984 0.50093 0.23063
 C55 C 0.15178 0.53691 0.26778
 C56 C 0.13677 0.53035 0.24666
 H57 H 0.15427 0.47960 0.29673
 H58 H 0.12918 0.49757 0.22042
 H59 H 0.20491 0.50723 0.25116
 H60 H 0.15224 0.55596 0.27679
 C61 C -0.12788 -0.02756 0.29412
 C62 C -0.10618 -0.00880 0.29879
 C63 C -0.09146 -0.00352 0.27673
 C64 C -0.10041 -0.01856 0.25325
 C65 C -0.14272 -0.01534 0.27281
 C66 C -0.12800 -0.01067 0.25055
 C67 C -0.11688 -0.05101 0.28320
 C68 C -0.10172 -0.04735 0.26116
 H69 H -0.10420 0.00136 0.31673
 H70 H -0.08888 -0.01468 0.23604
 H71 H -0.16259 -0.01139 0.27464
 H72 H -0.12075 -0.07021 0.29066
 C73 C 0.36747 0.49128 0.78655
 C74 C 0.38374 0.51319 0.79690
 C75 C 0.40143 0.52312 0.77903
 C76 C 0.40010 0.50940 0.75303
 C77 C 0.35523 0.50248 0.76320
 C78 C 0.37271 0.51223 0.74500
 C79 C 0.38574 0.47071 0.77631
 C80 C 0.40338 0.48023 0.75818
 H81 H 0.38035 0.52143 0.81561
 H82 H 0.41389 0.51704 0.73894
 H83 H 0.33514 0.50227 0.76087
 H84 H 0.38396 0.45051 0.78152
 C85 C 0.67081 1.03245 0.77753
 C86 C 0.64955 1.01539 0.78776
 C87 C 0.63221 1.00739 0.76925
 C88 C 0.63786 1.01900 0.74312
 C89 C 0.68234 1.01716 0.75511
 C90 C 0.66461 1.00993 0.73641
 C91 C 0.65850 1.05466 0.76673
 C92 C 0.64016 1.04856 0.74816
 H93 H 0.64822 1.00917 0.80725
 H94 H 0.62388 1.01398 0.72849
 H95 H 0.70212 1.01256 0.75396
 H96 H 0.66373 1.07430 0.77209
 C97 C -0.04845 0.29119 -0.12096
 C98 C -0.02544 0.29896 -0.10598
 C99 C -0.01892 0.28077 -0.08713
 C100 C -0.03690 0.25740 -0.08582
 C101 C -0.04268 0.26394 -0.13153
 C102 C -0.03621 0.24571 -0.11272
 C103 C -0.06920 0.28738 -0.10131
 C104 C -0.06346 0.26907 -0.08255
 H105 H -0.01400 0.31544 -0.11133
 H106 H -0.03170 0.24325 -0.07115
 H107 H -0.04139 0.25987 -0.15166
 H108 H -0.08742 0.29662 -0.10255
 C109 C 0.47997 0.27968 0.12439
 C110 C 0.46477 0.27818 0.10026
 C111 C 0.46469 0.25307 0.08852
 C112 C 0.48104 0.23324 0.10212
 C113 C 0.46952 0.25797 0.14116
 C114 C 0.47011 0.23289 0.12917
 C115 C 0.50613 0.27087 0.11633
 C116 C 0.50709 0.24602 0.10447
 H117 H 0.45205 0.29362 0.09516
 H118 H 0.48117 0.21383 0.09257
 H119 H 0.46171 0.26181 0.15988
 H120 H 0.52272 0.28256 0.11970
 C121 C 1.01783 0.76421 0.65622
 C122 C 0.99404 0.76838 0.64368
 C123 C 0.98736 0.74845 0.62596
 C124 C 1.00701 0.72674 0.62408
 C125 C 1.01556 0.73891 0.66831
 C126 C 1.00930 0.71787 0.65165
 C127 C 1.03689 0.76092 0.63630
 C128 C 1.03191 0.74054 0.61843
 H129 H 0.98253 0.78543 0.64752
 H130 H 1.00255 0.71143 0.60986
 H131 H 1.01664 0.73640 0.68862
 H132 H 1.05433 0.77170 0.63650
 C133 C 0.48720 0.78959 0.35596
 C134 C 0.51135 0.79950 0.36766
 C135 C 0.52310 0.78143 0.38355
 C136 C 0.50911 0.75527 0.38505
 C137 C 0.49476 0.76445 0.34187
 C138 C 0.50671 0.74595 0.35746
 C139 C 0.47076 0.78093 0.37818
 C140 C 0.48227 0.76216 0.39369
 H141 H 0.51913 0.81860 0.36391
 H142 H 0.51795 0.74062 0.39727
 H143 H 0.49161 0.76158 0.32186
 H144 H 0.45124 0.78654 0.37999
 C145 C 0.38803 -0.00453 0.27067
 H146 H 0.39459 0.01385 0.26337
 C147 C 0.40520 -0.02209 0.28061
 H148 H 0.42497 -0.01723 0.28074
 C149 C 0.35434 -0.03308 0.28030
 H150 H 0.33440 -0.03703 0.28036
 C151 C 0.37084 -0.05134 0.28995
 H152 H 0.36342 -0.06921 0.29773
 N153 N 0.36316 -0.01052 0.27031
 C154 C 0.34809 0.06659 0.25548
 H155 H 0.33437 0.06801 0.27074
 C156 C 0.35977 0.08917 0.24669
 H157 H 0.35496 0.10780 0.25541
 C158 C 0.37083 0.04076 0.22540
 H159 H 0.37508 0.02173 0.21730
 C160 C 0.38301 0.06284 0.21605
 H161 H 0.39683 0.06026 0.20101
 Zn162 Zn 0.33864 0.01211 0.25709
 N163 N 0.35396 0.04295 0.24494
 C164 C 0.32961 0.02773 0.30573
 N165 N 0.31690 0.02007 0.28488
 C166 C 0.29153 0.01710 0.28564
 C167 C 0.27805 0.02178 0.30838
 C168 C 0.31711 0.03209 0.32873
 C169 C 0.33327 -0.02794 0.22129
 C170 C 0.32488 -0.04052 0.19958
 C171 C 0.29454 -0.00614 0.19447
 C172 C 0.30354 0.00585 0.21665
 N173 N 0.32271 -0.00514 0.22948
 H174 H 0.34976 0.03015 0.30452
 H175 H 0.28180 0.01081 0.26884
 H176 H 0.25787 0.01921 0.30876
 H177 H 0.32816 0.03877 0.34449
 H178 H 0.34909 -0.03604 0.23085
 H179 H 0.33418 -0.05838 0.19341
 H180 H 0.27977 0.00338 0.18433
 H181 H 0.29579 0.02432 0.22314
 C182 C 0.37746 0.08754 0.22672
 C183 C 0.39666 -0.04603 0.28988
 C184 C 0.30563 -0.02955 0.18545
 C185 C 0.29091 0.02862 0.33059
 C186 C 0.04773 1.03968 0.78327
 H187 H 0.04019 1.02139 0.77646
 C188 C 0.03139 1.05944 0.79161
 H189 H 0.01131 1.05636 0.79092
 C190 C 0.08295 1.06607 0.79276
 H191 H 0.10311 1.06846 0.79299
 C192 C 0.06732 1.08610 0.80176
 H193 H 0.07559 1.10410 0.80858
 N194 N 0.07299 1.04333 0.78402
 C195 C 0.08160 0.96372 0.77039
 H196 H 0.09278 0.96166 0.78705
 C197 C 0.07114 0.94149 0.75923
 H198 H 0.07505 0.92280 0.76743
 C199 C 0.06353 0.99047 0.73952
 H200 H 0.06017 1.00954 0.73204
 C201 C 0.05268 0.96882 0.72781
 H202 H 0.04151 0.97152 0.71112
 Zn203 Zn 0.09579 1.01700 0.77346
 N204 N 0.07830 0.98758 0.76003
 C205 C 0.10769 1.01471 0.82559
 N206 N 0.11456 1.00626 0.80191
 C207 C 0.13368 0.98896 0.79837
 C208 C 0.14704 0.97988 0.81895
 C209 C 0.12035 1.00593 0.84676
 C210 C 0.10638 1.04025 0.72644
 C211 C 0.12102 1.04801 0.70569
 C212 C 0.15804 1.03880 0.72958
 C213 C 0.14264 1.03093 0.74975
 N214 N 0.11725 1.03084 0.74756
 H215 H 0.09199 1.02785 0.82822
 H216 H 0.13827 0.98178 0.77947
 H217 H 0.16170 0.96578 0.81505
 H218 H 0.11436 1.01285 0.86540
 H219 H 0.08625 1.04184 0.72561
 H220 H 0.11146 1.05513 0.68932
 H221 H 0.17822 1.03815 0.73168
 H222 H 0.15116 1.02474 0.76702
 C223 C 0.05678 0.94387 0.73732
 C224 C 0.04119 1.08277 0.80137
 C225 C 0.14737 1.04674 0.70680
 C226 C 0.14048 0.98838 0.84374
 C227 C 0.57641 0.54516 0.23242
 H228 H 0.57030 0.53496 0.21557
 C229 C 0.56390 0.56781 0.24057
 H230 H 0.54850 0.57515 0.22963
 C231 C 0.60320 0.54757 0.26763
 H232 H 0.61840 0.53968 0.27831
 C233 C 0.59122 0.57024 0.27648
 H234 H 0.59802 0.57959 0.29349
 N235 N 0.59592 0.53568 0.24576
 C236 C 0.58908 0.46745 0.20237
 H237 H 0.60368 0.47243 0.18883
 C238 C 0.57209 0.44770 0.19643
 H239 H 0.57398 0.43758 0.17836
 C240 C 0.56983 0.47360 0.24284
 H241 H 0.56925 0.48373 0.26097
 C242 C 0.55275 0.45358 0.23786
 H243 H 0.53898 0.44830 0.25222
 Zn244 Zn 0.61251 0.50492 0.23370
 N245 N 0.58787 0.47973 0.22537
 C246 C 0.62777 0.46878 0.27068
 N247 N 0.63354 0.49174 0.25945
 C248 C 0.65426 0.50548 0.26624
 C249 C 0.67005 0.49623 0.28493
 C250 C 0.64261 0.45917 0.28995
 C251 C 0.62153 0.52491 0.18459
 C252 C 0.63550 0.53067 0.16274
 C253 C 0.67143 0.51025 0.18128
 C254 C 0.65667 0.50459 0.20259
 N255 N 0.63226 0.51233 0.20413
 H256 H 0.61166 0.45770 0.26475
 H257 H 0.65863 0.52362 0.25697
 H258 H 0.68653 0.50745 0.28985
 H259 H 0.63749 0.44065 0.29801
 H260 H 0.60203 0.53050 0.18586
 H261 H 0.62624 0.54115 0.14800
 H262 H 0.69090 0.50410 0.18074
 H263 H 0.66479 0.49378 0.21778
 C264 C 0.55381 0.44037 0.21444
 C265 C 0.57120 0.58063 0.26289
 C266 C 0.66101 0.52347 0.16088
 C267 C 0.66413 0.47301 0.29745
 C268 C 0.86675 0.48942 0.76755
 H269 H 0.86546 0.51016 0.77144
 C270 C 0.87770 0.47306 0.78510
 H271 H 0.88497 0.48130 0.80249
 C272 C 0.85833 0.45341 0.74039
 H273 H 0.85016 0.44570 0.72329
 C274 C 0.86911 0.43636 0.75738
 H275 H 0.86887 0.41570 0.75301
 N276 N 0.85780 0.47947 0.74548
 C277 C 0.86086 0.54114 0.69033
 H278 H 0.84199 0.53983 0.68323
 C279 C 0.87811 0.55803 0.67913
 H280 H 0.87237 0.56992 0.66348
 C281 C 0.89145 0.52674 0.71899
 H282 H 0.89681 0.51402 0.73405
 C283 C 0.90925 0.54360 0.70852
 H284 H 0.92812 0.54360 0.71572
 Zn285 Zn 0.84318 0.50273 0.72259
 N286 N 0.86768 0.52611 0.71003
 C287 C 0.81884 0.54764 0.74218
 N288 N 0.81785 0.52119 0.74086
 C289 C 0.80237 0.50751 0.75648
 C290 C 0.78862 0.52032 0.77578
 C291 C 0.80525 0.56123 0.76092
 C292 C 0.84995 0.47299 0.67986
 C293 C 0.84458 0.46001 0.65735
 C294 C 0.80072 0.47059 0.66405
 C295 C 0.80703 0.48334 0.68678
 N296 N 0.83135 0.48424 0.69410
 H297 H 0.83148 0.55820 0.72989
 H298 H 0.80223 0.48644 0.75524
 H299 H 0.77769 0.50859 0.78870
 H300 H 0.80744 0.58221 0.76236
 H301 H 0.86917 0.47437 0.68600
 H302 H 0.85993 0.45133 0.64642
 H303 H 0.78127 0.47032 0.65866
 H304 H 0.79262 0.49282 0.69832
 C305 C 0.90252 0.55963 0.68842
 C306 C 0.87936 0.44623 0.77991
 C307 C 0.81978 0.45880 0.64888
 C308 C 0.79092 0.54757 0.77894
 C309 C 0.27950 0.37745 -0.01900
 H310 H 0.28731 0.37179 -0.00114
 C311 C 0.29378 0.39230 -0.03586
 H312 H 0.31255 0.39821 -0.03072
 C313 C 0.24598 0.37562 -0.04780
 H314 H 0.22769 0.36834 -0.05280
 C315 C 0.25962 0.39040 -0.06525
 H316 H 0.25134 0.39416 -0.08335
 N317 N 0.25599 0.36957 -0.02512
 C318 C 0.21707 0.35175 0.04566
 H319 H 0.21055 0.33229 0.04114
 C320 C 0.20868 0.36428 0.06786
 H321 H 0.19588 0.35423 0.08054
 C322 C 0.24042 0.38906 0.03381
 H323 H 0.25198 0.39904 0.02006
 C324 C 0.23262 0.40227 0.05594
 H325 H 0.23841 0.42229 0.05882
 Zn326 Zn 0.23884 0.34717 -0.00240
 N327 N 0.23252 0.36427 0.02909
 C328 C 0.26579 0.30879 0.02468
 N329 N 0.25974 0.31767 0.00144
 C330 C 0.27206 0.30901 -0.01982
 C331 C 0.29261 0.29230 -0.01805
 C332 C 0.28581 0.29145 0.02729
 C333 C 0.19121 0.35898 -0.01734
 C334 C 0.16657 0.35514 -0.02475
 C335 C 0.17441 0.30874 -0.02683
 C336 C 0.19921 0.31358 -0.01964
 N337 N 0.20699 0.33842 -0.01505
 H338 H 0.25613 0.31628 0.04141
 H339 H 0.26709 0.31663 -0.03804
 H340 H 0.30309 0.28698 -0.03514
 H341 H 0.29088 0.28601 0.04621
 H342 H 0.19781 0.37848 -0.01311
 H343 H 0.15446 0.37199 -0.02640
 H344 H 0.16883 0.28878 -0.03032
 H345 H 0.21207 0.29752 -0.01728
 C346 C 0.21632 0.38989 0.07316
 C347 C 0.28392 0.39897 -0.05934
 C348 C 0.15761 0.32980 -0.02936
 C349 C 0.30031 0.28389 0.00578
 C350 C 0.77343 0.06803 1.05788
 H351 H 0.78449 0.06832 1.04050
 C352 C 0.78178 0.05373 1.07836
 H353 H 0.79884 0.04245 1.07613
 C354 C 0.73801 0.08284 1.08177
 H355 H 0.72128 0.09468 1.08326
 C356 C 0.74564 0.06875 1.10268
 H357 H 0.73453 0.06972 1.12006
 N358 N 0.75216 0.08266 1.06006
 C359 C 0.73212 0.10086 0.98237
 H360 H 0.72670 0.12098 0.98504
 C361 C 0.72994 0.08919 0.95852
 H362 H 0.72290 0.10070 0.94320
 C363 C 0.74547 0.06103 0.99970
 H364 H 0.75098 0.04991 1.01584
 C365 C 0.74341 0.04848 0.97610
 H366 H 0.74765 0.02788 0.97427
 Zn367 Zn 0.74346 0.10548 1.03360
 N368 N 0.74038 0.08697 1.00228
 C369 C 0.76627 0.15070 1.01292
 N370 N 0.76907 0.13144 1.03004
 C371 C 0.79056 0.12952 1.04343
 C372 C 0.81086 0.14597 1.03844
 C373 C 0.78596 0.16785 1.00755
 C374 C 0.69143 0.10516 1.03975
 C375 C 0.66742 0.11508 1.04476
 C376 C 0.68586 0.15730 1.05301
 C377 C 0.70954 0.14651 1.04781
 N378 N 0.71186 0.12089 1.04129
 H379 H 0.74886 0.15266 1.00304
 H380 H 0.79242 0.11484 1.05764
 H381 H 0.82804 0.14334 1.04877
 H382 H 0.78301 0.18211 0.99310
 H383 H 0.69382 0.08482 1.03454
 H384 H 0.65147 0.10208 1.04333
 H385 H 0.68505 0.17773 1.05811
 H386 H 0.72608 0.15861 1.04911
 C387 C 0.73607 0.06274 0.95505
 C388 C 0.76815 0.05462 1.10139
 C389 C 0.66420 0.14151 1.05150
 C390 C 0.80904 0.16518 1.01992
 C391 C 0.29378 0.59644 0.54392
 H392 H 0.30455 0.59379 0.52651
 C393 C 0.30084 0.58346 0.56577
 H394 H 0.31681 0.57045 0.56480
 C395 C 0.25976 0.61662 0.56611
 H396 H 0.24412 0.63000 0.56640
 C397 C 0.26598 0.60384 0.58827
 H398 H 0.25484 0.60729 0.60536
 N399 N 0.27361 0.61269 0.54450
 C400 C 0.25286 0.62027 0.46556
 H401 H 0.25532 0.64109 0.46373
 C402 C 0.24424 0.60549 0.44513
 H403 H 0.23995 0.61521 0.42770
 C404 C 0.25399 0.58282 0.49126
 H405 H 0.25731 0.57427 0.50947
 C406 C 0.24497 0.56733 0.47137
 H407 H 0.24161 0.54677 0.47429
 Zn408 Zn 0.26645 0.63147 0.51493
 N409 N 0.25767 0.60880 0.48798
 C410 C 0.30952 0.64307 0.48538
 N411 N 0.29568 0.65061 0.50610
 C412 C 0.30320 0.67069 0.52124
 C413 C 0.32455 0.68514 0.51484
 C414 C 0.33141 0.65641 0.47869
 C415 C 0.21618 0.64045 0.52511
 C416 C 0.19407 0.65418 0.53037
 C417 C 0.21726 0.69435 0.52609
 C418 C 0.23892 0.67976 0.52060
 N419 N 0.23812 0.65328 0.52086
 H420 H 0.30372 0.62651 0.47403
 H421 H 0.29245 0.67568 0.53821
 H422 H 0.32980 0.70151 0.52682
 H423 H 0.34140 0.65017 0.46167
 H424 H 0.21601 0.61936 0.52487
 H425 H 0.17740 0.64295 0.53440
 H426 H 0.21846 0.71544 0.52631
 H427 H 0.25626 0.68972 0.51629
 C428 C 0.24010 0.57865 0.44796
 C429 C 0.28695 0.58737 0.58839
 C430 C 0.19438 0.68166 0.53127
 C431 C 0.33912 0.67805 0.49337
 C432 C 0.77656 0.88694 0.49228
 H433 H 0.77168 0.89850 0.50891
 C434 C 0.78854 0.89877 0.47168
 H435 H 0.79324 0.91927 0.47287
 C436 C 0.77659 0.84623 0.47044
 H437 H 0.77168 0.82577 0.47007
 C438 C 0.78902 0.85709 0.44970
 H439 H 0.79383 0.84489 0.43340
 N440 N 0.77143 0.86095 0.49152
 C441 C 0.72486 0.87038 0.55486
 H442 H 0.70988 0.85939 0.54628
 C443 C 0.71942 0.88697 0.57543
 H444 H 0.70022 0.88825 0.58228
 C445 C 0.76817 0.88019 0.55746
 H446 H 0.78718 0.87706 0.55054
 C447 C 0.76356 0.89703 0.57806
 H448 H 0.77914 0.90699 0.58686
 Zn449 Zn 0.75645 0.84362 0.51934
 N450 N 0.74888 0.86748 0.54615
 C451 C 0.77373 0.80888 0.55545
 N452 N 0.77887 0.81852 0.53210
 C453 C 0.80091 0.81299 0.51980
 C454 C 0.81908 0.79776 0.53117
 C455 C 0.79165 0.79409 0.56784
 C456 C 0.71094 0.84496 0.49600
 C457 C 0.68883 0.83598 0.48534
 C458 C 0.69951 0.79244 0.49829
 C459 C 0.72153 0.80240 0.50881
 N460 N 0.72671 0.82828 0.50745
 H461 H 0.75622 0.81386 0.56501
 H462 H 0.80511 0.82129 0.50160
 H463 H 0.83670 0.79492 0.52106
 H464 H 0.78759 0.78761 0.58691
 H465 H 0.71571 0.86543 0.49507
 H466 H 0.67711 0.85033 0.47671
 H467 H 0.69577 0.77173 0.49941
 H468 H 0.73456 0.78946 0.51780
 C469 C 0.73893 0.90074 0.58721
 C470 C 0.79525 0.88359 0.45026
 C471 C 0.68278 0.80920 0.48611
 C472 C 0.81493 0.78870 0.55594
 C473 C 0.00414 0.28234 0.37562
 H474 H 0.02134 0.29337 0.37358
 C475 C -0.01712 0.29413 0.38659
 H476 H -0.01600 0.31414 0.39330
 C477 C -0.01856 0.24341 0.36798
 H478 H -0.01931 0.22391 0.36004
 C479 C -0.04027 0.25445 0.37877
 H480 H -0.05725 0.24299 0.37879
 N481 N 0.00305 0.25745 0.36645
 C482 C 0.07828 0.22464 0.36113
 H483 H 0.07758 0.21598 0.34235
 C484 C 0.09842 0.21914 0.37670
 H485 H 0.11345 0.20675 0.36947
 C486 C 0.05921 0.25082 0.39345
 H487 H 0.04365 0.26261 0.40023
 C488 C 0.07920 0.24614 0.40953
 H489 H 0.07894 0.25459 0.42846
 Zn490 Zn 0.03119 0.24359 0.34815
 N491 N 0.05910 0.24010 0.36971
 C492 C 0.06312 0.27029 0.31329
 N493 N 0.03904 0.26707 0.32165
 C494 C 0.02071 0.28399 0.31510
 C495 C 0.02666 0.30644 0.30173
 C496 C 0.06984 0.29223 0.29927
 C497 C 0.02258 0.19138 0.35439
 C498 C 0.01548 0.16593 0.34865
 C499 C 0.00959 0.17843 0.30522
 C500 C 0.01712 0.20382 0.31184
 N501 N 0.02306 0.20977 0.33619
 H502 H 0.07749 0.25680 0.31884
 H503 H 0.00163 0.28101 0.32173
 H504 H 0.01194 0.32044 0.29820
 H505 H 0.08943 0.29489 0.29432
 H506 H 0.02730 0.19669 0.37363
 H507 H 0.01495 0.15184 0.36373
 H508 H 0.00454 0.17446 0.28582
 H509 H 0.01764 0.21888 0.29772
 C510 C 0.09882 0.22969 0.40138
 C511 C -0.03977 0.28028 0.38809
 C512 C 0.00839 0.15908 0.32394
 C513 C 0.05164 0.31139 0.29443
 C514 C 1.02897 0.77355 0.07245
 H515 H 1.00961 0.77992 0.07259
 C516 C 1.04717 0.78761 0.05911
 H517 H 1.04167 0.80468 0.04874
 C518 C 1.05983 0.74441 0.08703
 H519 H 1.06484 0.72818 0.09871
 C520 C 1.07863 0.75784 0.07389
 H521 H 1.09787 0.75158 0.07579
 N522 N 1.03558 0.75252 0.08620
 C523 C 0.96485 0.71200 0.10100
 H524 H 0.96472 0.71192 0.12149
 C525 C 0.94467 0.70142 0.08786
 H526 H 0.92913 0.69301 0.09838
 C527 C 0.98566 0.72250 0.06245
 H528 H 1.00175 0.73060 0.05264
 C529 C 0.96612 0.71155 0.04854
 H530 H 0.96720 0.71144 0.02804
 Zn531 Zn 1.01058 0.73789 0.10750
 N532 N 0.98449 0.72289 0.08822
 C533 C 0.97339 0.77219 0.12887
 N534 N 0.99818 0.76591 0.12802
 C535 C 1.01539 0.78103 0.13996
 C536 C 1.00792 0.80344 0.15344
 C537 C 0.96500 0.79412 0.14254
 C538 C 1.03276 0.68926 0.11559
 C539 C 1.04314 0.66902 0.12937
 C540 C 1.03569 0.69430 0.16774
 C541 C 1.02542 0.71403 0.15317
 N542 N 1.02442 0.71133 0.12757
 H543 H 0.96004 0.76065 0.11847
 H544 H 1.03508 0.77595 0.13851
 H545 H 1.02205 0.81532 0.16255
 H546 H 0.94522 0.79864 0.14212
 H547 H 1.03147 0.68747 0.09521
 H548 H 1.04985 0.65175 0.11929
 H549 H 1.03606 0.69749 0.18796
 H550 H 1.01826 0.73153 0.16239
 C551 C 0.94510 0.70139 0.06128
 C552 C 1.07238 0.77993 0.05985
 C553 C 1.04497 0.67130 0.15585
 C554 C 0.98239 0.81026 0.15509
 C555 C 0.53123 0.29004 0.57301
 H556 H 0.51270 0.29866 0.57394
 C557 C 0.54946 0.30017 0.55659
 H558 H 0.54482 0.31655 0.54485
 C559 C 0.56006 0.25882 0.58773
 H560 H 0.56431 0.24300 0.60022
 C561 C 0.57879 0.26824 0.57151
 H562 H 0.59729 0.25964 0.57212
 N563 N 0.53683 0.26981 0.58829
 C564 C 0.46680 0.23053 0.60855
 H565 H 0.47025 0.22652 0.62818
 C566 C 0.44480 0.22146 0.59758
 H567 H 0.43167 0.21056 0.60911
 C568 C 0.48082 0.24767 0.56942
 H569 H 0.49497 0.25755 0.55834
 C570 C 0.45904 0.23890 0.55765
 H571 H 0.45659 0.24236 0.53766
 Zn572 Zn 0.51246 0.25722 0.61177
 N573 N 0.48401 0.24396 0.59463
 C574 C 0.48567 0.27840 0.65361
 N575 N 0.50203 0.28454 0.63457
 C576 C 0.51067 0.30935 0.63209
 C577 C 0.50202 0.32929 0.64840
 C578 C 0.47677 0.29757 0.67048
 C579 C 0.52853 0.20565 0.62004
 C580 C 0.53957 0.18547 0.63341
 C581 C 0.54665 0.21578 0.66802
 C582 C 0.53548 0.23530 0.65398
 N583 N 0.52672 0.22997 0.63049
 H584 H 0.47965 0.25851 0.65594
 H585 H 0.52434 0.31389 0.61752
 H586 H 0.50936 0.34867 0.64565
 H587 H 0.46362 0.29204 0.68535
 H588 H 0.52151 0.20198 0.60122
 H589 H 0.54090 0.16627 0.62463
 H590 H 0.55322 0.22121 0.68655
 H591 H 0.53409 0.25486 0.66178
 C592 C 0.44044 0.22620 0.57190
 C593 C 0.57356 0.28922 0.55565
 C594 C 0.54905 0.19029 0.65773
 C595 C 0.48451 0.32357 0.66784
 C596 C 0.49744 0.79106 0.90119
 H597 H 0.51525 0.78571 0.90906
 C598 C 0.47866 0.80184 0.91695
 H599 H 0.48200 0.80451 0.93699
 C600 C 0.47146 0.79493 0.86545
 H601 H 0.46899 0.79241 0.84527
 C602 C 0.45207 0.80524 0.88055
 H603 H 0.43471 0.81090 0.87182
 N604 N 0.49335 0.78747 0.87601
 C605 C 0.56910 0.77434 0.86814
 H606 H 0.57129 0.78948 0.85429
 C607 C 0.58980 0.76647 0.88197
 H608 H 0.60782 0.77571 0.87869
 C609 C 0.54321 0.74358 0.88906
 H610 H 0.52489 0.73487 0.89174
 C611 C 0.56341 0.73505 0.90321
 H612 H 0.56022 0.72002 0.91703
 Zn613 Zn 0.51793 0.77298 0.85362
 N614 N 0.54635 0.76293 0.87201
 C615 C 0.53152 0.82273 0.84319
 N616 N 0.52644 0.79993 0.83097
 C617 C 0.52678 0.79822 0.80523
 C618 C 0.53274 0.82022 0.79082
 C619 C 0.53705 0.84511 0.82970
 C620 C 0.48335 0.73264 0.84867
 C621 C 0.47401 0.70857 0.84097
 C622 C 0.50809 0.70494 0.81040
 C623 C 0.51704 0.72918 0.81902
 N624 N 0.50462 0.74246 0.83792
 H625 H 0.53127 0.82349 0.86367
 H626 H 0.52241 0.77997 0.79584
 H627 H 0.53310 0.81853 0.77034
 H628 H 0.54171 0.86241 0.84053
 H629 H 0.47398 0.74291 0.86410
 H630 H 0.45680 0.70201 0.84991
 H631 H 0.51849 0.69443 0.79567
 H632 H 0.53431 0.73694 0.81117
 C633 C 0.58717 0.74643 0.89958
 C634 C 0.45550 0.80848 0.90670
 C635 C 0.48680 0.69380 0.82208
 C636 C 0.53755 0.84428 0.80300
 C637 C 0.47424 -0.19079 0.33972
 C638 C 0.47091 -0.16500 0.34792
 C639 C 0.45618 -0.14599 0.33394
 N640 N 0.45734 -0.12034 0.34046
 N641 N 0.44344 -0.10288 0.32864
 C642 C 0.42775 -0.11048 0.30996
 N643 N 0.42654 -0.13615 0.30347
 N644 N 0.44058 -0.15359 0.31516
 C645 C 0.41127 -0.09166 0.29776
 C646 C 0.41467 -0.06479 0.30020
 H647 H 0.47936 -0.15845 0.36539
 H648 H 0.39606 -0.09922 0.28648
 H649 H 0.46542 -0.19750 0.32248
 H650 H 0.43137 -0.05729 0.30915
 C651 C 0.94476 0.31028 0.85898
 C652 C 0.93849 0.33601 0.86509
 C653 C 0.92955 0.35413 0.84599
 N654 N 0.92143 0.37825 0.85312
 N655 N 0.91248 0.39454 0.83609
 C656 C 0.91137 0.38728 0.81128
 N657 N 0.91965 0.36323 0.80414
 N658 N 0.92856 0.34694 0.82117
 C659 C 0.90087 0.40459 0.79230
 C660 C 0.89109 0.42912 0.79862
 H661 H 0.93919 0.34266 0.88464
 H662 H 0.90093 0.39762 0.77287
 H663 H 0.94375 0.30348 0.83950
 H664 H 0.89268 0.43641 0.81788
 C665 C -0.02740 1.22044 0.88218
 C666 C -0.02808 1.20852 0.85825
 C667 C -0.01431 1.18435 0.85218
 N668 N -0.01836 1.17159 0.82994
 N669 N -0.00481 1.15068 0.82332
 C670 C 0.01346 1.14190 0.83862
 N671 N 0.01751 1.15464 0.86088
 N672 N 0.00384 1.17546 0.86758
 C673 C 0.02964 1.11991 0.83083
 C674 C 0.02397 1.10358 0.81038
 H675 H -0.03858 1.21713 0.84317
 H676 H 0.04642 1.11646 0.84154
 H677 H -0.01935 1.20979 0.89762
 H678 H 0.00597 1.10539 0.80135
 C679 C 0.51605 0.72161 0.34939
 C680 C 0.51479 0.71179 0.32460
 C681 C 0.52578 0.68636 0.31723
 N682 N 0.52457 0.67767 0.29287
 N683 N 0.53480 0.65490 0.28589
 C684 C 0.54661 0.63995 0.30304
 N685 N 0.54776 0.64862 0.32739
 N686 N 0.53754 0.67137 0.33436
 C687 C 0.55856 0.61503 0.29568
 C688 C 0.55813 0.60498 0.27096
 H689 H 0.50589 0.72281 0.30997
 H690 H 0.56781 0.60442 0.31037
 H691 H 0.52500 0.70979 0.36345
 H692 H 0.54733 0.61509 0.25697
 C693 C 0.48006 0.30659 0.13619
 C694 C 0.49088 0.31169 0.15959
 C695 C 0.49851 0.33820 0.16727
 N696 N 0.50809 0.34266 0.19057
 N697 N 0.51710 0.36606 0.19689
 C698 C 0.51698 0.38582 0.18006
 N699 N 0.50725 0.38141 0.15684
 N700 N 0.49812 0.35807 0.15058
 C701 C 0.52914 0.41091 0.18568
 C702 C 0.53715 0.41783 0.20984
 H703 H 0.49584 0.29562 0.17158
 H704 H 0.53270 0.42391 0.17006
 H705 H 0.47545 0.32284 0.12425
 H706 H 0.53135 0.40620 0.22586
 C707 C 0.02374 0.78496 0.67365
 C708 C 0.02540 0.81081 0.66580
 C709 C 0.03087 0.83258 0.68317
 N710 N 0.03064 0.85728 0.67444
 N711 N 0.03571 0.87734 0.68978
 C712 C 0.04118 0.87346 0.71445
 N713 N 0.04140 0.84874 0.72321
 N714 N 0.03628 0.82864 0.70786
 C715 C 0.04775 0.89543 0.73126
 C716 C 0.04709 0.92112 0.72294
 H717 H 0.02215 0.81529 0.64613
 H718 H 0.05359 0.89098 0.75019
 H719 H 0.02719 0.78069 0.69333
 H720 H 0.03972 0.92478 0.70433
 C721 C 1.00296 0.69330 0.66096
 C722 C 0.99330 0.67315 0.64599
 C723 C 0.98141 0.65010 0.65716
 N724 N 0.96736 0.63415 0.64242
 N725 N 0.95464 0.61444 0.65252
 C726 C 0.95556 0.60990 0.67775
 N727 N 0.97002 0.62552 0.69243
 N728 N 0.98265 0.64533 0.68234
 C729 C 0.94021 0.58937 0.68937
 C730 C 0.92044 0.57778 0.67643
 H731 H 0.99197 0.67496 0.62574
 H732 H 0.94314 0.58509 0.70910
 H733 H 1.00402 0.69050 0.68121
 H734 H 0.91655 0.58401 0.65738
 C735 C 0.46051 0.20982 0.13937
 C736 C 0.44869 0.20794 0.16312
 C737 C 0.43734 0.18330 0.17170
 N738 N 0.42516 0.18235 0.19447
 N739 N 0.41438 0.16032 0.20216
 C740 C 0.41535 0.13843 0.18734
 N741 N 0.42759 0.13938 0.16463
 N742 N 0.43836 0.16138 0.15694
 C743 C 0.40340 0.11392 0.19531
 C744 C 0.38990 0.11184 0.21812
 H745 H 0.44698 0.22477 0.17560
 H746 H 0.40493 0.09744 0.18239
 H747 H 0.46186 0.19240 0.12758
 H748 H 0.38771 0.12910 0.23003
 C749 C 0.34901 0.48080 -0.19421
 C750 C 0.35713 0.47034 -0.17156
 C751 C 0.33982 0.45905 -0.15273
 N752 N 0.34903 0.44869 -0.13132
 N753 N 0.33369 0.43800 -0.11422
 C754 C 0.30854 0.43729 -0.11787
 N755 N 0.29932 0.44772 -0.13925
 N756 N 0.31466 0.45841 -0.15637
 C757 C 0.29140 0.42493 -0.09948
 C758 C 0.30005 0.41349 -0.07745
 H759 H 0.37702 0.47015 -0.16768
 H760 H 0.27165 0.42485 -0.10373
 H761 H 0.32918 0.48089 -0.19837
 H762 H 0.31981 0.41514 -0.07320
 C763 C 0.85657 0.96747 0.31771
 C764 C 0.86663 0.95420 0.33801
 C765 C 0.85141 0.94620 0.35996
 N766 N 0.85957 0.92649 0.37449
 N767 N 0.84569 0.91818 0.39394
 C768 C 0.82322 0.92945 0.39974
 N769 N 0.81522 0.94951 0.38549
 N770 N 0.82900 0.95765 0.36583
 C771 C 0.80766 0.91988 0.42087
 C772 C 0.81006 0.89432 0.42902
 H773 H 0.88590 0.94750 0.33671
 H774 H 0.79330 0.93250 0.42909
 H775 H 0.83714 0.97368 0.31857
 H776 H 0.82247 0.88113 0.41857
 C777 C 0.86284 -0.00137 1.22770
 C778 C 0.83757 0.00407 1.22350
 C779 C 0.82861 0.01239 1.19872
 N780 N 0.80371 0.01621 1.19534
 N781 N 0.79523 0.02373 1.17303
 C782 C 0.81135 0.02768 1.15326
 N783 N 0.83625 0.02383 1.15662
 N784 N 0.84473 0.01628 1.17892
 C785 C 0.80242 0.03680 1.12873
 C786 C 0.77712 0.04194 1.12452
 H787 H 0.82358 0.00172 1.23834
 H788 H 0.81645 0.04094 1.11430
 H789 H 0.87620 0.00098 1.21220
 H790 H 0.76360 0.03879 1.13974
 C791 C 0.36647 0.52283 0.72162
 C792 C 0.34185 0.52620 0.71355
 C793 C 0.33596 0.53679 0.68861
 N794 N 0.31169 0.54114 0.68262
 N795 N 0.30588 0.55069 0.66017
 C796 C 0.32414 0.55619 0.64280
 N797 N 0.34843 0.55172 0.64872
 N798 N 0.35424 0.54221 0.67122
 C799 C 0.31797 0.56707 0.61803
 C800 C 0.29359 0.57465 0.61231
 H801 H 0.32607 0.52127 0.72567
 H802 H 0.33320 0.57028 0.60462
 H803 H 0.38174 0.52874 0.70917
 H804 H 0.27897 0.57294 0.62672
 C805 C 0.18572 0.52322 0.29733
 C806 C 0.17720 0.52335 0.32247
 C807 C 0.19241 0.53409 0.34313
 N808 N 0.18520 0.53052 0.36761
 N809 N 0.19840 0.54089 0.38646
 C810 C 0.21923 0.55531 0.38148
 N811 N 0.22641 0.55890 0.35701
 N812 N 0.21332 0.54840 0.33819
 C813 C 0.23307 0.56837 0.40188
 C814 C 0.22908 0.56274 0.42739
 H815 H 0.15881 0.51564 0.32713
 H816 H 0.24661 0.58313 0.39658
 H817 H 0.20394 0.53151 0.29288
 H818 H 0.21755 0.54617 0.43248
 C819 C 0.68957 0.04027 0.79738
 C820 C 0.69825 0.02297 0.81538
 C821 C 0.71061 0.03248 0.83843
 N822 N 0.71228 0.01684 0.85883
 N823 N 0.72088 0.02615 0.88073
 C824 C 0.72822 0.05143 0.88295
 N825 N 0.72706 0.06687 0.86241
 N826 N 0.71837 0.05761 0.84058
 C827 C 0.73543 0.06292 0.90741
 C828 C 0.73355 0.04948 0.93013
 H829 H 0.69306 0.00259 0.81416
 H830 H 0.74094 0.08323 0.90760
 H831 H 0.69550 0.06045 0.79846
 H832 H 0.72986 0.02871 0.92972
 C833 C 0.66998 0.99594 0.71398
 C834 C 0.69390 0.98712 0.70666
 C835 C 0.69831 0.97210 0.68301
 N836 N 0.72173 0.96336 0.67693
 N837 N 0.72595 0.94947 0.65574
 C838 C 0.70689 0.94386 0.63982
 N839 N 0.68350 0.95267 0.64586
 N840 N 0.67928 0.96653 0.66705
 C841 C 0.71100 0.92808 0.61661
 C842 C 0.73452 0.91802 0.60962
 H843 H 0.70995 0.99095 0.71835
 H844 H 0.69492 0.92444 0.60490
 H845 H 0.65444 0.99170 0.70165
 H846 H 0.75058 0.92328 0.62091
 C847 C 0.18106 0.49080 0.20838
 C848 C 0.16782 0.47794 0.18934
 C849 C 0.18056 0.46485 0.16773
 N850 N 0.16771 0.44750 0.15333
 N851 N 0.17903 0.43486 0.13409
 C852 C 0.20363 0.43918 0.12847
 N853 N 0.21643 0.45677 0.14268
 N854 N 0.20514 0.46930 0.16205
 C855 C 0.21623 0.42535 0.10718
 C856 C 0.20537 0.40359 0.09560
 H857 H 0.14778 0.47521 0.19099
 H858 H 0.23457 0.43205 0.10108
 H859 H 0.20135 0.49142 0.20672
 H860 H 0.18810 0.39588 0.10361
 C861 C -0.19544 0.32596 0.43838
 C862 C -0.17303 0.33806 0.43133
 C863 C -0.15038 0.32326 0.42388
 N864 N -0.12877 0.33609 0.41840
 N865 N -0.10797 0.32297 0.41198
 C866 C -0.10802 0.29650 0.41087
 N867 N -0.12966 0.28366 0.41631
 N868 N -0.15045 0.29679 0.42275
 C869 C -0.08534 0.28170 0.40341
 C870 C -0.06253 0.29398 0.39795
 H871 H -0.17185 0.35915 0.43214
 H872 H -0.08700 0.26074 0.40218
 H873 H -0.19673 0.30489 0.43771
 H874 H -0.06130 0.31491 0.40074
 C875 C 0.30536 0.84815 0.97459
 C876 C 0.32886 0.86012 0.97231
 C877 C 0.35027 0.84701 0.95965
 N878 N 0.37361 0.85744 0.96110
 N879 N 0.39294 0.84635 0.94871
 C880 C 0.38955 0.82453 0.93427
 N881 N 0.36622 0.81415 0.93279
 N882 N 0.34696 0.82512 0.94532
 C883 C 0.41023 0.81288 0.91927
 C884 C 0.43529 0.81915 0.92326
 H885 H 0.33144 0.87991 0.97922
 H886 H 0.40554 0.79865 0.90474
 H887 H 0.30340 0.82848 0.96703
 H888 H 0.44029 0.83111 0.93948
 C889 C 1.21805 0.84303 0.00146
 C890 C 1.19473 0.85346 0.00857
 C891 C 1.17384 0.83630 0.01632
 N892 N 1.15106 0.84650 0.02277
 N893 N 1.13234 0.83107 0.03036
 C894 C 1.13572 0.80487 0.03175
 N895 N 1.15846 0.79470 0.02525
 N896 N 1.17712 0.81010 0.01765
 C897 C 1.11578 0.78751 0.04114
 C898 C 1.09172 0.79642 0.04750
 H899 H 1.19150 0.87425 0.00881
 H900 H 1.12045 0.76715 0.04325
 H901 H 1.22006 0.82201 0.00099
 H902 H 1.08681 0.81639 0.04336
 C903 C 0.71754 0.32665 0.47471
 C904 C 0.69597 0.33969 0.48341
 C905 C 0.67450 0.32585 0.49473
 N906 N 0.65378 0.33942 0.50235
 N907 N 0.63455 0.32740 0.51359
 C908 C 0.63533 0.30134 0.51764
 N909 N 0.65600 0.28774 0.50993
 N910 N 0.67523 0.29976 0.49866
 C911 C 0.61483 0.28804 0.53122
 C912 C 0.59308 0.30111 0.53927
 H913 H 0.69436 0.36060 0.48232
 H914 H 0.61727 0.26759 0.53523
 H915 H 0.71763 0.30553 0.47489
 H916 H 0.59017 0.32100 0.53336
 C917 C 0.29001 0.15776 0.54425
 C918 C 0.30860 0.16893 0.52902
 C919 C 0.33039 0.18212 0.54012
 N920 N 0.35060 0.18816 0.52535
 N921 N 0.37108 0.19853 0.53556
 C922 C 0.37202 0.20327 0.56092
 N923 N 0.35169 0.19755 0.57560
 N924 N 0.33129 0.18712 0.56542
 C925 C 0.39474 0.21349 0.57287
 C926 C 0.41715 0.21756 0.55945
 H927 H 0.30819 0.16605 0.50867
 H928 H 0.39368 0.21750 0.59303
 H929 H 0.29042 0.16100 0.56457
 H930 H 0.41749 0.21506 0.53904
 C931 C 0.79431 0.65564 0.00356
 C932 C 0.81854 0.64529 0.00357
 C933 C 0.83949 0.65847 0.01620
 N934 N 0.86341 0.65053 0.01128
 N935 N 0.88255 0.66166 0.02319
 C936 C 0.87845 0.68099 0.04065
 N937 N 0.85452 0.68883 0.04567
 N938 N 0.83539 0.67785 0.03359
 C939 C 0.89927 0.69272 0.05473
 C940 C 0.92422 0.69025 0.04663
 H941 H 0.82229 0.62672 -0.00578
 H942 H 0.89473 0.70420 0.07158
 H943 H 0.79063 0.67406 0.01322
 H944 H 0.92847 0.68121 0.02837
 C945 C 0.70520 0.65233 0.97297
 C946 C 0.69997 0.67891 0.97111
 C947 C 0.67651 0.68808 0.95991
 N948 N 0.67387 0.71353 0.95382
 N949 N 0.65318 0.72179 0.94261
 C950 C 0.63433 0.70489 0.93716
 N951 N 0.63685 0.67954 0.94353
 N952 N 0.65756 0.67127 0.95463
 C953 C 0.61160 0.71339 0.92424
 C954 C 0.60936 0.73814 0.91390
 H955 H 0.71375 0.69342 0.97622
 H956 H 0.59688 0.69914 0.92168
 H957 H 0.69112 0.63852 0.96682
 H958 H 0.62511 0.75143 0.91497
 C959 C 0.21090 0.14651 0.49419
 C960 C 0.20591 0.17243 0.48827
 C961 C 0.18617 0.17936 0.47044
 N962 N 0.17889 0.20457 0.46830
 N963 N 0.16128 0.21110 0.45195
 C964 C 0.15044 0.19265 0.43702
 N965 N 0.15785 0.16748 0.43903
 N966 N 0.17534 0.16094 0.45547
 C967 C 0.13112 0.19940 0.41872
 C968 C 0.11920 0.22362 0.41895
 H969 H 0.21627 0.18822 0.49694
 H970 H 0.12523 0.18432 0.40555
 H971 H 0.19886 0.13146 0.48650
 H972 H 0.12347 0.23773 0.43374
 C973 C 0.62601 0.06629 0.73626
 C974 C 0.62613 0.09297 0.74240
 C975 C 0.61119 0.11268 0.72953
 N976 N 0.59855 0.10734 0.70793
 N977 N 0.58582 0.12611 0.69650
 C978 C 0.58527 0.15078 0.70633
 N979 N 0.59780 0.15594 0.72793
 N980 N 0.61055 0.13729 0.73925
 C981 C 0.57189 0.17217 0.69417
 C982 C 0.56071 0.16969 0.67048
 H983 H 0.63690 0.10040 0.75803
 H984 H 0.57198 0.19055 0.70434
 H985 H 0.61342 0.05946 0.72172
 H986 H 0.56163 0.15076 0.66109
 C987 C 1.12027 0.54766 0.23502
 C988 C 1.11403 0.57221 0.24523
 C989 C 1.09897 0.59159 0.23194
 N990 N 1.09304 0.58859 0.20714
 N991 N 1.08049 0.60719 0.19531
 C992 C 1.07342 0.62944 0.20787
 N993 N 1.07922 0.63226 0.23265
 N994 N 1.09181 0.61375 0.24442
 C995 C 1.06022 0.65073 0.19521
 C996 C 1.05612 0.65072 0.16909
 H997 H 1.12016 0.57787 0.26391
 H998 H 1.05466 0.66707 0.20713
 H999 H 1.11191 0.54157 0.21735
 H1000 H 1.06254 0.63383 0.15819
 C1001 C 0.90815 0.93197 0.24861
 C1002 C 0.92389 0.93310 0.22724
 C1003 C 0.93109 0.90892 0.21358
 N1004 N 0.95283 0.90747 0.19984
 N1005 N 0.95934 0.88541 0.18772
 C1006 C 0.94418 0.86413 0.18870
 N1007 N 0.92229 0.86575 0.20210
 N1008 N 0.91594 0.88766 0.21442
 C1009 C 0.95064 0.83974 0.17514
 C1010 C 0.97537 0.83315 0.16849
 H1011 H 0.93179 0.95129 0.22083
 H1012 H 0.93550 0.82610 0.17216
 H1013 H 0.90357 0.91276 0.25566
 H1014 H 0.99010 0.84608 0.17495
 C1015 C 0.42081 0.46469 0.74460
 C1016 C 0.42424 0.43813 0.74902
 C1017 C 0.43951 0.42093 0.73241
 N1018 N 0.43981 0.39499 0.73692
 N1019 N 0.45232 0.37865 0.72149
 C1020 C 0.46507 0.38761 0.70092
 N1021 N 0.46507 0.41363 0.69654
 N1022 N 0.45245 0.43001 0.71197
 C1023 C 0.47802 0.36943 0.68317
 C1024 C 0.47433 0.34246 0.68470
 H1025 H 0.41473 0.42883 0.76467
 H1026 H 0.48923 0.37781 0.66814
 H1027 H 0.43168 0.47370 0.72958
 H1028 H 0.46182 0.33561 0.69958
 C1029 C 0.41738 0.54441 0.78369
 C1030 C 0.42002 0.55563 0.80779
 C1031 C 0.43307 0.58034 0.81290
 N1032 N 0.44463 0.59434 0.79439
 N1033 N 0.45493 0.61747 0.79978
 C1034 C 0.45391 0.62733 0.82384
 N1035 N 0.44250 0.61322 0.84219
 N1036 N 0.43235 0.59018 0.83685
 C1037 C 0.46324 0.65344 0.83051
 C1038 C 0.47910 0.66841 0.81511
 H1039 H 0.41149 0.54657 0.82413
 H1040 H 0.45813 0.66028 0.84936
 H1041 H 0.42785 0.55250 0.76791
 H1042 H 0.48706 0.65937 0.79810
 C1043 C -0.07268 0.01561 0.27544
 C1044 C -0.06321 0.02819 0.29688
 C1045 C -0.04754 0.05175 0.29585
 N1046 N -0.03786 0.06139 0.31761
 N1047 N -0.02534 0.08381 0.31781
 C1048 C -0.02208 0.09762 0.29628
 N1049 N -0.03161 0.08789 0.27439
 N1050 N -0.04412 0.06535 0.27416
 C1051 C -0.00976 0.12342 0.29698
 C1052 C -0.00036 0.13353 0.31969
 H1053 H -0.06778 0.02107 0.31556
 H1054 H -0.00940 0.13463 0.27983
 H1055 H -0.06553 0.02106 0.25694
 H1056 H -0.00078 0.12076 0.33587
 C1057 C 0.12344 0.46169 0.25746
 C1058 C 0.11657 0.44705 0.27851
 C1059 C 0.10562 0.42089 0.27606
 N1060 N 0.08897 0.41245 0.29382
 N1061 N 0.08045 0.38806 0.29303
 C1062 C 0.08861 0.37106 0.27470
 N1063 N 0.10543 0.37943 0.25702
 N1064 N 0.11363 0.40400 0.25755
 C1065 C 0.08125 0.34346 0.27558
 C1066 C 0.05775 0.33624 0.28526
 H1067 H 0.11862 0.45507 0.29744
 H1068 H 0.09484 0.32897 0.26931
 H1069 H 0.11730 0.45520 0.23896
 H1070 H 0.04356 0.35138 0.28690
 C1071 C 0.61326 0.98965 0.77537
 C1072 C 0.59965 0.97507 0.75779
 C1073 C 0.58279 0.95432 0.76685
 N1074 N 0.57959 0.93204 0.75302
 N1075 N 0.56660 0.91213 0.76261
 C1076 C 0.55618 0.91396 0.78626
 N1077 N 0.55883 0.93648 0.79970
 N1078 N 0.57192 0.95623 0.79024
 C1079 C 0.54410 0.89171 0.79873
 C1080 C 0.54364 0.86636 0.78852
 H1081 H 0.60369 0.97634 0.73771
 H1082 H 0.53647 0.89570 0.81749
 H1083 H 0.61064 0.98520 0.79525
 H1084 H 0.54819 0.86365 0.76857
 C1085 C 0.72865 0.58803 0.01989
 C1086 C 0.73601 0.58051 0.04398
 C1087 C 0.71860 0.56809 0.06206
 N1088 N 0.72720 0.55982 0.08458
 N1089 N 0.71143 0.55040 0.10202
 C1090 C 0.68642 0.54905 0.09766
 N1091 N 0.67783 0.55723 0.07508
 N1092 N 0.69362 0.56655 0.05759
 C1093 C 0.66857 0.54036 0.11741
 C1094 C 0.67666 0.52946 0.13999
 H1095 H 0.75472 0.58465 0.05049
 H1096 H 0.64885 0.54284 0.11373
 H1097 H 0.71073 0.58126 0.01301
 H1098 H 0.69652 0.52528 0.14146
 C1099 C 0.22016 1.09508 0.56085
 C1100 C 0.22511 1.09150 0.58652
 C1101 C 0.20700 1.08118 0.60511
 N1102 N 0.21469 1.07708 0.62907
 N1103 N 0.19851 1.06960 0.64700
 C1104 C 0.17392 1.06604 0.64172
 N1105 N 0.16619 1.07001 0.61769
 N1106 N 0.18243 1.07747 0.59968
 C1107 C 0.15575 1.05874 0.66177
 C1108 C 0.16344 1.05326 0.68639
 H1109 H 0.24325 1.09668 0.59390
 H1110 H 0.13627 1.05746 0.65659
 H1111 H 0.20348 1.08643 0.55287
 H1112 H 0.18343 1.05336 0.68983
 C1113 C 0.24118 0.90828 0.94957
 C1114 C 0.21794 0.92074 0.95182
 C1115 C 0.20681 0.93310 0.92957
 N1116 N 0.18443 0.94571 0.93158
 N1117 N 0.17405 0.95605 0.91122
 C1118 C 0.18568 0.95407 0.88812
 N1119 N 0.20801 0.94151 0.88618
 N1120 N 0.21837 0.93128 0.90648
 C1121 C 0.17438 0.96429 0.86508
 C1122 C 0.15264 0.97958 0.86552
 H1123 H 0.20727 0.92071 0.96942
 H1124 H 0.18416 0.95975 0.84748
 H1125 H 0.25120 0.90935 0.93157
 H1126 H 0.14488 0.98532 0.88389
 C1127 C 0.73642 0.39164 0.42412
 C1128 C 0.74307 0.39953 0.39971
 C1129 C 0.72511 0.41274 0.38346
 N1130 N 0.73339 0.42564 0.36269
 N1131 N 0.71716 0.43640 0.34703
 C1132 C 0.69205 0.43438 0.35145
 N1133 N 0.68379 0.42137 0.37215
 N1134 N 0.70001 0.41085 0.38794
 C1135 C 0.67388 0.44465 0.33354
 C1136 C 0.68019 0.46413 0.31634
 H1137 H 0.76175 0.39599 0.39208
 H1138 H 0.65492 0.43726 0.33492
 H1139 H 0.71873 0.39836 0.43227
 H1140 H 0.69825 0.47360 0.31836
 C1141 C 0.76805 0.38802 0.50368
 C1142 C 0.78968 0.39231 0.51769
 C1143 C 0.78981 0.40629 0.54219
 N1144 N 0.81187 0.40916 0.55423
 N1145 N 0.81273 0.42109 0.57672
 C1146 C 0.79155 0.43062 0.58816
 N1147 N 0.76939 0.42783 0.57609
 N1148 N 0.76852 0.41583 0.55350
 C1149 C 0.79271 0.44376 0.61320
 C1150 C 0.81566 0.44615 0.62552
 H1151 H 0.80765 0.38509 0.51091
 H1152 H 0.77554 0.45155 0.62145
 H1153 H 0.75058 0.39672 0.51034
 H1154 H 0.83200 0.43778 0.61593
 C1155 C 0.26234 -0.09078 0.03410
 C1156 C 0.28304 -0.08502 0.04909
 C1157 C 0.28186 -0.07098 0.07356
 N1158 N 0.30264 -0.07073 0.08792
 N1159 N 0.30248 -0.05895 0.11049
 C1160 C 0.28154 -0.04679 0.11968
 N1161 N 0.26073 -0.04660 0.10516
 N1162 N 0.26083 -0.05863 0.08250
 C1163 C 0.28182 -0.03415 0.14501
 C1164 C 0.29981 -0.04191 0.16235
 H1165 H 0.30152 -0.09174 0.04342
 H1166 H 0.26820 -0.01911 0.14963
 H1167 H 0.24422 -0.08263 0.03941
 H1168 H 0.31099 -0.05888 0.15701
 C1169 C 0.26650 0.08566 0.48560
 C1170 C 0.24921 0.07508 0.46870
 C1171 C 0.25830 0.06145 0.44546
 N1172 N 0.24396 0.06019 0.42444
 N1173 N 0.25330 0.05037 0.40266
 C1174 C 0.27728 0.04134 0.40124
 N1175 N 0.29131 0.04206 0.42238
 N1176 N 0.28204 0.05192 0.44402
 C1177 C 0.28935 0.03290 0.37722
 C1178 C 0.27757 0.03232 0.35371
 H1179 H 0.22944 0.07964 0.47052
 H1180 H 0.30884 0.02734 0.37851
 H1181 H 0.28627 0.08247 0.48149
 H1182 H 0.25732 0.03408 0.35342
 C1183 C 0.75512 0.59769 0.93687
 C1184 C 0.77321 0.60036 0.91760
 C1185 C 0.77108 0.58776 0.89255
 N1186 N 0.78551 0.59648 0.87305
 N1187 N 0.78455 0.58507 0.85030
 C1188 C 0.76920 0.56439 0.84613
 N1189 N 0.75479 0.55556 0.86567
 N1190 N 0.75558 0.56715 0.88845
 C1191 C 0.76983 0.55045 0.82150
 C1192 C 0.78191 0.56142 0.80045
 H1193 H 0.78885 0.61350 0.91994
 H1194 H 0.76231 0.53091 0.82082
 H1195 H 0.73855 0.58619 0.93300
 H1196 H 0.78665 0.58194 0.80187
 C1197 C 0.04875 0.73124 0.59972
 C1198 C 0.07224 0.74231 0.59466
 C1199 C 0.09144 0.72872 0.57901
 N1200 N 0.11436 0.73972 0.57547
 N1201 N 0.13260 0.72678 0.56308
 C1202 C 0.12857 0.70232 0.55378
 N1203 N 0.10557 0.69145 0.55710
 N1204 N 0.08734 0.70439 0.56946
 C1205 C 0.14899 0.68679 0.54201
 C1206 C 0.17317 0.69679 0.53813
 H1207 H 0.07755 0.76065 0.60335
 H1208 H 0.14458 0.66682 0.53715
 H1209 H 0.04354 0.71372 0.58939
 H1210 H 0.17581 0.71757 0.54104
 C1211 C 0.53031 0.23557 1.09674
 C1212 C 0.53431 0.21067 1.08637
 C1213 C 0.56002 0.20166 1.07985
 N1214 N 0.56430 0.17668 1.07203
 N1215 N 0.58760 0.16846 1.06666
 C1216 C 0.60744 0.18495 1.06888
 N1217 N 0.60310 0.20990 1.07655
 N1218 N 0.57989 0.21808 1.08193
 C1219 C 0.63344 0.17644 1.06346
 C1220 C 0.63962 0.15078 1.05643
 H1221 H 0.51891 0.19729 1.08363
 H1222 H 0.64775 0.19115 1.06552
 H1223 H 0.54660 0.24783 1.09964
 H1224 H 0.62430 0.13700 1.05478
 C1225 C 0.91780 0.26156 0.93474
 C1226 C 0.91950 0.24098 0.95161
 C1227 C 0.89686 0.23160 0.96519
 N1228 N 0.89805 0.21067 0.98054
 N1229 N 0.87726 0.20108 0.99133
 C1230 C 0.85451 0.21207 0.98712
 N1231 N 0.85339 0.23310 0.97198
 N1232 N 0.87413 0.24269 0.96129
 C1233 C 0.83102 0.20061 0.99687
 C1234 C 0.83058 0.17986 1.01371
 H1235 H 0.93683 0.23034 0.95368
 H1236 H 0.81383 0.20872 0.98987
 H1237 H 0.89998 0.27165 0.93372
 H1238 H 0.84819 0.17438 1.02213
 C1239 C 0.46962 0.74838 0.41271
 C1240 C 0.44599 0.75552 0.42236
 C1241 C 0.43012 0.73748 0.43686
 N1242 N 0.40956 0.74662 0.44969
 N1243 N 0.39355 0.73024 0.46079
 C1244 C 0.39739 0.70409 0.45922
 N1245 N 0.41799 0.69496 0.44645
 N1246 N 0.43412 0.71135 0.43556
 C1247 C 0.37855 0.68573 0.46900
 C1248 C 0.36011 0.69330 0.48680
 H1249 H 0.43827 0.77453 0.41853
 H1250 H 0.37951 0.66588 0.46187
 H1251 H 0.47844 0.73100 0.41984
 H1252 H 0.36235 0.71202 0.49632
 C1253 C 0.54503 0.78845 0.39609
 C1254 C 0.55851 0.77250 0.41220
 C1255 C 0.58082 0.78270 0.42519
 N1256 N 0.59523 0.76692 0.43939
 N1257 N 0.61538 0.77634 0.45108
 C1258 C 0.62173 0.80190 0.44902
 N1259 N 0.60726 0.81759 0.43495
 N1260 N 0.58724 0.80820 0.42327
 C1261 C 0.64377 0.81318 0.46139
 C1262 C 0.66104 0.79864 0.47500
 H1263 H 0.55302 0.75255 0.41548
 H1264 H 0.64625 0.83380 0.45870
 H1265 H 0.55192 0.80805 0.39304
 H1266 H 0.65770 0.77789 0.47664
 C1267 C 0.00334 0.28182 -0.07336
 C1268 C 0.01938 0.30336 -0.07350
 C1269 C 0.04483 0.30302 -0.06324
 N1270 N 0.05814 0.32550 -0.06247
 N1271 N 0.08175 0.32566 -0.05471
 C1272 C 0.09307 0.30331 -0.04755
 N1273 N 0.07976 0.28074 -0.04831
 N1274 N 0.05604 0.28058 -0.05602
 C1275 C 0.11948 0.30346 -0.03958
 C1276 C 0.13237 0.32701 -0.03628
 H1277 H 0.01350 0.32145 -0.08178
 H1278 H 0.12832 0.28495 -0.03607
 H1279 H 0.00847 0.26494 -0.06252
 H1280 H 0.12179 0.34481 -0.03884
 C1281 C 0.44699 0.24566 0.07049
 C1282 C 0.43420 0.26384 0.05618
 C1283 C 0.40905 0.25903 0.04622
 N1284 N 0.40043 0.27412 0.02739
 N1285 N 0.37638 0.27330 0.02102
 C1286 C 0.35993 0.25767 0.03352
 N1287 N 0.36858 0.24239 0.05222
 N1288 N 0.39274 0.24294 0.05836
 C1289 C 0.33278 0.26023 0.02957
 C1290 C 0.32356 0.27107 0.00748
 H1291 H 0.44176 0.28330 0.05407
 H1292 H 0.32028 0.25544 0.04517
 H1293 H 0.44233 0.22519 0.06842
 H1294 H 0.33596 0.27104 -0.00904
 C1295 C 0.96495 0.74747 0.61254
 C1296 C 0.94441 0.76357 0.61826
 C1297 C 0.92130 0.76291 0.60355
 N1298 N 0.90012 0.77411 0.61334
 N1299 N 0.87934 0.77511 0.59978
 C1300 C 0.87900 0.76504 0.57586
 N1301 N 0.90017 0.75378 0.56607
 N1302 N 0.92092 0.75259 0.57972
 C1303 C 0.85711 0.76878 0.55977
 C1304 C 0.83389 0.77682 0.56992
 H1305 H 0.94453 0.77647 0.63463
 H1306 H 0.85999 0.76635 0.53956
 H1307 H 0.96309 0.73259 0.59792
 H1308 H 0.83080 0.77481 0.59016
   
