data_POSCAR
  _audit_creation_date              2014-09-24
  _audit_creation_method            'ToBaCCo'
  _symmetry_space_group_name_H-M    'P1'
  _symmetry_Int_Tables_number       1
  _symmetry_cell_setting            triclinic
  loop_
  _symmetry_equiv_pos_as_xyz
 x,y,z
_cell_length_a 49.0107
_cell_length_b 48.1203
_cell_length_c 48.9435
_cell_angle_alpha 90.857700
_cell_angle_beta 90.737300
_cell_angle_gamma 90.541400
loop_
  _atom_site_label
  _atom_site_type_symbol
  _atom_site_fract_x
  _atom_site_fract_y
  _atom_site_fract_z
C1 C 0.72325 0.67049 0.97444
 H2 H 0.74102 0.66880 0.96165
 C3 C 0.70117 0.68650 0.96600
 H4 H 0.70229 0.69679 0.94655
 C5 C 0.69973 0.65712 1.01417
 H6 H 0.69909 0.64538 1.03280
 C7 C 0.67739 0.67325 1.00676
 H8 H 0.65992 0.67394 1.02006
 N9 N 0.72179 0.65545 0.99769
 C10 C 0.80426 0.63285 1.02319
 H11 H 0.80091 0.61115 1.02735
 C12 C 0.82949 0.64486 1.02964
 H13 H 0.84531 0.63191 1.03815
 C14 C 0.78692 0.67631 1.00958
 H15 H 0.77016 0.68857 1.00205
 C16 C 0.81198 0.68931 1.01594
 H17 H 0.81430 0.71142 1.01287
 Zn18 Zn 0.74973 0.62965 1.00586
 N19 N 0.78356 0.64846 1.01315
 C20 C 0.77446 0.58588 0.97571
 N21 N 0.75369 0.60444 0.97563
 C22 C 0.73650 0.60611 0.95364
 C23 C 0.74161 0.59100 0.92970
 C24 C 0.78030 0.57034 0.95223
 C25 C 0.75078 0.61668 1.06185
 C26 C 0.74273 0.60296 1.08532
 C27 C 0.71144 0.57519 1.05767
 C28 C 0.72045 0.58927 1.03465
 N29 N 0.73969 0.60962 1.03714
 H30 H 0.78720 0.58367 0.99360
 H31 H 0.71908 0.61963 0.95427
 H32 H 0.72815 0.59340 0.91221
 H33 H 0.79791 0.55692 0.95236
 H34 H 0.76574 0.63327 1.06351
 H35 H 0.75313 0.60871 1.10417
 H36 H 0.69516 0.56022 1.05440
 H37 H 0.71161 0.58439 1.01476
 C38 C 0.83371 0.67347 1.02613
 C39 C 0.67752 0.68763 0.98197
 C40 C 0.72233 0.58192 1.08397
 C41 C 0.76446 0.57369 0.92841
 C42 C 0.73420 0.33892 0.51292
 H43 H 0.75422 0.33744 0.52234
 C44 C 0.71288 0.32203 0.52177
 H45 H 0.71678 0.30725 0.53778
 C46 C 0.70467 0.36082 0.48132
 H47 H 0.70140 0.37656 0.46614
 C48 C 0.68275 0.34426 0.48951
 H49 H 0.66278 0.34747 0.48046
 N50 N 0.72970 0.35806 0.49329
 C51 C 0.81021 0.38184 0.46393
 H52 H 0.80925 0.40403 0.46763
 C53 C 0.83388 0.37021 0.45340
 H54 H 0.85109 0.38376 0.44956
 C55 C 0.78896 0.33753 0.46559
 H56 H 0.77129 0.32493 0.47024
 C57 C 0.81208 0.32504 0.45449
 H58 H 0.81158 0.30289 0.45047
 Zn59 Zn 0.75828 0.38345 0.48620
 N60 N 0.78866 0.36540 0.47050
 C61 C 0.79474 0.39744 0.52959
 N62 N 0.76868 0.40011 0.52022
 C63 C 0.74947 0.41284 0.53571
 C64 C 0.75634 0.42391 0.56153
 C65 C 0.80247 0.40826 0.55509
 C66 C 0.74379 0.40108 0.43462
 C67 C 0.73571 0.41922 0.41419
 C68 C 0.73228 0.45573 0.44840
 C69 C 0.74098 0.43697 0.46817
 N70 N 0.74629 0.41015 0.46097
 H71 H 0.80962 0.38654 0.51758
 H72 H 0.72868 0.41402 0.52815
 H73 H 0.74059 0.43354 0.57350
 H74 H 0.82351 0.40629 0.56171
 H75 H 0.74820 0.37965 0.42950
 H76 H 0.73367 0.41157 0.39333
 H77 H 0.72792 0.47699 0.45431
 H78 H 0.74339 0.44388 0.48916
 C79 C 0.83526 0.34135 0.44867
 C80 C 0.68661 0.32492 0.51039
 C81 C 0.72979 0.44690 0.42102
 C82 C 0.78317 0.42152 0.57163
 C83 C 0.23011 -0.14370 0.01406
 H84 H 0.24898 -0.14282 0.02578
 C85 C 0.20722 -0.15696 0.02469
 H86 H 0.20878 -0.16668 0.04444
 C87 C 0.20492 -0.13102 -0.02541
 H88 H 0.20381 -0.12017 -0.04453
 C89 C 0.18161 -0.14431 -0.01568
 H90 H 0.16282 -0.14361 -0.02752
 N91 N 0.22846 -0.13067 -0.01035
 C92 C 0.30835 -0.11745 -0.04564
 H93 H 0.30617 -0.09581 -0.05082
 C94 C 0.33183 -0.13167 -0.05304
 H95 H 0.34730 -0.12084 -0.06446
 C96 C 0.29036 -0.15771 -0.02487
 H97 H 0.27418 -0.16770 -0.01378
 C98 C 0.31365 -0.17272 -0.03174
 H99 H 0.31522 -0.19419 -0.02566
 Zn100 Zn 0.25850 -0.10840 -0.02076
 N101 N 0.28838 -0.13045 -0.03151
 C102 C 0.29556 -0.08583 0.01825
 N103 N 0.26899 -0.08630 0.01000
 C104 C 0.24942 -0.07375 0.02515
 C105 C 0.25618 -0.06098 0.05024
 C106 C 0.30321 -0.07310 0.04295
 C107 C 0.24567 -0.09966 -0.07514
 C108 C 0.23826 -0.08521 -0.09847
 C109 C 0.23675 -0.04310 -0.07110
 C110 C 0.24443 -0.05848 -0.04827
 N111 N 0.24842 -0.08627 -0.05068
 H112 H 0.31086 -0.09597 0.00610
 H113 H 0.22836 -0.07473 0.01829
 H114 H 0.24002 -0.05226 0.06228
 H115 H 0.32454 -0.07305 0.04898
 H116 H 0.24893 -0.12184 -0.07640
 H117 H 0.23513 -0.09746 -0.11692
 H118 H 0.23447 -0.02093 -0.06832
 H119 H 0.24718 -0.04818 -0.02863
 C120 C 0.33499 -0.15957 -0.04567
 C121 C 0.18240 -0.15686 0.01001
 C122 C 0.23338 -0.05625 -0.09705
 C123 C 0.28335 -0.06116 0.05982
 C124 C 0.21760 0.18371 0.45657
 H125 H 0.23546 0.17956 0.44446
 C126 C 0.19629 0.19938 0.44567
 H127 H 0.19810 0.20703 0.42510
 C128 C 0.19280 0.17645 0.49706
 H129 H 0.19100 0.16682 0.51671
 C130 C 0.17127 0.19233 0.48719
 H131 H 0.15355 0.19522 0.49985
 N132 N 0.21529 0.17219 0.48163
 C133 C 0.29348 0.14671 0.51569
 H134 H 0.28805 0.12532 0.51966
 C135 C 0.31882 0.15710 0.52420
 H136 H 0.33263 0.14348 0.53491
 C137 C 0.28141 0.19039 0.49764
 H138 H 0.26663 0.20322 0.48734
 C139 C 0.30670 0.20174 0.50593
 H140 H 0.31128 0.22327 0.50164
 Zn141 Zn 0.24176 0.14604 0.49272
 N142 N 0.27545 0.16323 0.50248
 C143 C 0.27200 0.11256 0.45590
 N144 N 0.24658 0.12066 0.46324
 C145 C 0.22402 0.11144 0.44922
 C146 C 0.22657 0.09352 0.42668
 C147 C 0.27544 0.09425 0.43389
 C148 C 0.22804 0.14086 0.54784
 C149 C 0.21930 0.12750 0.57133
 C150 C 0.21466 0.08491 0.54494
 C151 C 0.22338 0.09911 0.52191
 N152 N 0.22952 0.12668 0.52368
 H153 H 0.28972 0.12037 0.46695
 H154 H 0.20404 0.11832 0.45539
 H155 H 0.20849 0.08657 0.41551
 H156 H 0.29584 0.08823 0.42818
 H157 H 0.23341 0.16272 0.54874
 H158 H 0.21755 0.13961 0.58987
 H159 H 0.21007 0.06291 0.54309
 H160 H 0.22527 0.08805 0.50267
 C161 C 0.32584 0.18496 0.51938
 C162 C 0.17243 0.20347 0.46085
 C163 C 0.21227 0.09913 0.57010
 C164 C 0.25256 0.08464 0.41892
 C165 C 0.17968 0.45303 0.21121
 H166 H 0.17638 0.44235 0.23020
 C167 C 0.19807 0.44243 0.19223
 H168 H 0.20917 0.42371 0.19692
 C169 C 0.16829 0.48972 0.18151
 H170 H 0.15597 0.50754 0.17687
 C171 C 0.18650 0.47990 0.16203
 H172 H 0.18790 0.49042 0.14269
 N173 N 0.16507 0.47614 0.20547
 C174 C 0.13242 0.50732 0.28240
 H175 H 0.11107 0.50778 0.27653
 C176 C 0.14068 0.51710 0.30816
 H177 H 0.12524 0.52447 0.32186
 C178 C 0.17801 0.49679 0.27100
 H179 H 0.19251 0.48935 0.25621
 C180 C 0.18722 0.50660 0.29658
 H181 H 0.20891 0.50679 0.30101
 Zn182 Zn 0.13706 0.48677 0.22963
 N183 N 0.15098 0.49737 0.26447
 C184 C 0.10847 0.44457 0.25738
 N185 N 0.11300 0.45596 0.23255
 C186 C 0.10210 0.44438 0.20926
 C187 C 0.08589 0.42036 0.21045
 C188 C 0.09231 0.42073 0.25949
 C189 C 0.13421 0.54182 0.21471
 C190 C 0.12337 0.56570 0.20329
 C191 C 0.08089 0.54080 0.19532
 C192 C 0.09263 0.51725 0.20680
 N193 N 0.11905 0.51806 0.21564
 H194 H 0.11783 0.45351 0.27558
 H195 H 0.10643 0.45356 0.18972
 H196 H 0.07756 0.41103 0.19183
 H197 H 0.08891 0.41178 0.27935
 H198 H 0.15502 0.54195 0.22235
 H199 H 0.13592 0.58430 0.20248
 H200 H 0.06007 0.53967 0.18768
 H201 H 0.08079 0.49830 0.20823
 C202 C 0.16847 0.51715 0.31559
 C203 C 0.20137 0.45570 0.16707
 C204 C 0.09654 0.56525 0.19295
 C205 C 0.08117 0.40828 0.23581
 C206 C -0.15908 -0.00414 0.23703
 H207 H -0.16320 0.00520 0.25677
 C208 C -0.17437 0.00358 0.21410
 H209 H -0.19000 0.01905 0.21685
 C210 C -0.13204 -0.03384 0.20982
 H211 H -0.11523 -0.04807 0.20806
 C212 C -0.14628 -0.02624 0.18631
 H213 H -0.14056 -0.03567 0.16704
 N214 N -0.13851 -0.02270 0.23454
 C215 C -0.12071 -0.05320 0.31651
 H216 H -0.09867 -0.05208 0.31584
 C217 C -0.13347 -0.06297 0.33981
 H218 H -0.12103 -0.06898 0.35713
 C219 C -0.16347 -0.04613 0.29477
 H220 H -0.17510 -0.04000 0.27701
 C221 C -0.17711 -0.05584 0.31772
 H222 H -0.19908 -0.05716 0.31708
 Zn223 Zn -0.11582 -0.03042 0.26505
 N224 N -0.13576 -0.04439 0.29485
 C225 C -0.09819 0.01254 0.30169
 N226 N -0.09772 0.00320 0.27533
 C227 C -0.08614 0.01865 0.25542
 C228 C -0.07473 0.04477 0.26168
 C229 C -0.08659 0.03821 0.30891
 C230 C -0.10155 -0.08397 0.25044
 C231 C -0.08503 -0.10560 0.24151
 C232 C -0.04653 -0.07378 0.24250
 C233 C -0.06381 -0.05273 0.25161
 N234 N -0.09083 -0.05812 0.25493
 H235 H -0.10808 0.00048 0.31716
 H236 H -0.08637 0.01095 0.23454
 H237 H -0.06590 0.05699 0.24557
 H238 H -0.08755 0.04544 0.32993
 H239 H -0.12315 -0.08757 0.25325
 H240 H -0.09418 -0.12578 0.23719
 H241 H -0.02512 -0.06916 0.23948
 H242 H -0.05575 -0.03205 0.25550
 C243 C -0.16208 -0.06410 0.34080
 C244 C -0.16778 -0.00708 0.18799
 C245 C -0.05719 -0.10057 0.23714
 C246 C -0.07502 0.05485 0.28874
 C247 C 0.33218 0.51584 0.71597
 H248 H 0.32637 0.52075 0.73672
 C249 C 0.31506 0.52293 0.69419
 H250 H 0.29589 0.53300 0.69849
 C251 C 0.36417 0.49647 0.68538
 H252 H 0.38350 0.48637 0.68213
 C253 C 0.34777 0.50339 0.66298
 H254 H 0.35492 0.49875 0.64261
 N255 N 0.35617 0.50281 0.71122
 C256 C 0.36235 0.49395 0.79694
 H257 H 0.37824 0.50923 0.80041
 C258 C 0.34755 0.48453 0.81923
 H259 H 0.35290 0.49232 0.83946
 C260 C 0.33635 0.46511 0.76673
 H261 H 0.33159 0.45806 0.74615
 C262 C 0.32099 0.45517 0.78842
 H263 H 0.30474 0.44026 0.78426
 Zn264 Zn 0.37917 0.49399 0.74108
 N265 N 0.35717 0.48356 0.77134
 C266 C 0.42007 0.52318 0.77113
 N267 N 0.40123 0.52544 0.75069
 C268 C 0.39743 0.54998 0.73783
 C269 C 0.41173 0.57385 0.74652
 C270 C 0.43441 0.54656 0.78082
 C271 C 0.38997 0.43819 0.72685
 C272 C 0.40570 0.41548 0.71906
 C273 C 0.44522 0.44578 0.71814
 C274 C 0.42876 0.46790 0.72628
 N275 N 0.40166 0.46374 0.73065
 H276 H 0.42315 0.50331 0.78070
 H277 H 0.38285 0.55124 0.72116
 H278 H 0.40813 0.59303 0.73590
 H279 H 0.44807 0.54427 0.79814
 H280 H 0.36836 0.43533 0.72966
 H281 H 0.39589 0.39541 0.71592
 H282 H 0.46674 0.44943 0.71475
 H283 H 0.43762 0.48844 0.72871
 C284 C 0.32685 0.46447 0.81522
 C285 C 0.32279 0.51684 0.66719
 C286 C 0.43372 0.41910 0.71466
 C287 C 0.42991 0.57264 0.76898
 C288 C 0.67294 0.97007 0.73445
 H289 H 0.67048 0.95972 0.75370
 C290 C 0.68840 0.95752 0.71398
 H291 H 0.69843 0.93806 0.71813
 C292 C 0.66145 1.00688 0.70505
 H293 H 0.65022 1.02555 0.70108
 C294 C 0.67656 0.99501 0.68401
 H295 H 0.67658 1.00492 0.66430
 N296 N 0.65998 0.99446 0.72981
 C297 C 0.64973 1.04643 0.80066
 H298 H 0.63473 1.05950 0.79107
 C299 C 0.66049 1.05427 0.82617
 H300 H 0.65443 1.07416 0.83445
 C301 C 0.67525 1.00503 0.80088
 H302 H 0.68028 0.98537 0.79150
 C303 C 0.68633 1.01190 0.82657
 H304 H 0.69963 0.99701 0.83612
 Zn305 Zn 0.63671 1.00933 0.75717
 N306 N 0.65682 1.02193 0.78868
 C307 C 0.61115 0.97494 0.79502
 N308 N 0.61274 0.98053 0.76797
 C309 C 0.59927 0.96450 0.74895
 C310 C 0.58423 0.94115 0.75692
 C311 C 0.59680 0.95173 0.80380
 C312 C 0.63159 1.06246 0.73563
 C313 C 0.61899 1.08438 0.72234
 C314 C 0.57610 1.05940 0.72451
 C315 C 0.58959 1.03785 0.73778
 N316 N 0.61698 1.03947 0.74243
 H317 H 0.62171 0.98800 0.80992
 H318 H 0.60083 0.96943 0.72753
 H319 H 0.57383 0.92874 0.74134
 H320 H 0.59720 0.94728 0.82539
 H321 H 0.65331 1.06335 0.73986
 H322 H 0.63114 1.10228 0.71677
 H323 H 0.55448 1.05738 0.72004
 H324 H 0.57830 1.01953 0.74364
 C325 C 0.67841 1.03651 0.84027
 C326 C 0.69019 0.96989 0.68822
 C327 C 0.59101 1.08274 0.71600
 C328 C 0.58344 0.93398 0.78470
 C329 C 0.01932 0.22955 -0.14723
 H330 H 0.02806 0.25025 -0.14799
 C331 C 0.02811 0.20893 -0.16532
 H332 H 0.04322 0.21434 -0.18031
 C333 C -0.01131 0.19793 -0.12688
 H334 H -0.02665 0.19370 -0.11181
 C335 C -0.00262 0.17646 -0.14417
 H336 H -0.01122 0.15591 -0.14162
 N337 N -0.00003 0.22377 -0.12847
 C338 C -0.02953 0.30681 -0.10712
 H339 H -0.02611 0.30708 -0.08524
 C340 C -0.04019 0.33020 -0.11977
 H341 H -0.04416 0.34835 -0.10736
 C342 C -0.02782 0.28265 -0.14953
 H343 H -0.02343 0.26394 -0.16106
 C344 C -0.03859 0.30558 -0.16299
 H345 H -0.04241 0.30414 -0.18481
 Zn346 Zn -0.00863 0.25254 -0.10324
 N347 N -0.02326 0.28370 -0.12206
 C348 C 0.03391 0.28979 -0.08691
 N349 N 0.02477 0.26309 -0.08531
 C350 C 0.04045 0.24327 -0.07344
 C351 C 0.06625 0.25009 -0.06247
 C352 C 0.05924 0.29754 -0.07595
 C353 C -0.06007 0.25171 -0.07820
 C354 C -0.08070 0.24236 -0.06127
 C355 C -0.05012 0.20771 -0.04399
 C356 C -0.02978 0.21826 -0.06092
 N357 N -0.03513 0.23967 -0.07791
 H358 H 0.02216 0.30514 -0.09750
 H359 H 0.03341 0.22194 -0.07332
 H360 H 0.07853 0.23402 -0.05334
 H361 H 0.06615 0.31884 -0.07800
 H362 H -0.06442 0.26844 -0.09193
 H363 H -0.09956 0.25373 -0.06171
 H364 H -0.04488 0.18971 -0.03221
 H365 H -0.01004 0.20853 -0.06121
 C366 C -0.04489 0.32985 -0.14810
 C367 C 0.01755 0.18171 -0.16371
 C368 C -0.07662 0.21933 -0.04411
 C369 C 0.07592 0.27758 -0.06373
 C370 C 0.47310 0.22961 0.17863
 H371 H 0.46565 0.25069 0.17818
 C372 C 0.45950 0.20964 0.19392
 H373 H 0.44187 0.21573 0.20559
 C374 C 0.50478 0.19609 0.16342
 H375 H 0.52190 0.19063 0.15083
 C376 C 0.49160 0.17540 0.17812
 H377 H 0.49889 0.15429 0.17649
 N378 N 0.49543 0.22262 0.16394
 C379 C 0.53572 0.30201 0.14773
 H380 H 0.53967 0.29884 0.12622
 C381 C 0.54211 0.32749 0.16026
 H382 H 0.55143 0.34372 0.14836
 C383 C 0.51851 0.28465 0.18922
 H384 H 0.50930 0.26792 0.20042
 C385 C 0.52488 0.30976 0.20268
 H386 H 0.52024 0.31224 0.22414
 Zn387 Zn 0.51151 0.24984 0.14148
 N388 N 0.52316 0.28162 0.16199
 C389 C 0.47650 0.28719 0.11461
 N390 N 0.48458 0.26026 0.11545
 C391 C 0.47234 0.24042 0.09926
 C392 C 0.45111 0.24745 0.08128
 C393 C 0.45575 0.29514 0.09681
 C394 C 0.56340 0.22721 0.14093
 C395 C 0.58654 0.21484 0.13003
 C396 C 0.56712 0.22040 0.08482
 C397 C 0.54419 0.23247 0.09664
 N398 N 0.54256 0.23509 0.12428
 H399 H 0.48556 0.30258 0.12822
 H400 H 0.47880 0.21905 0.10064
 H401 H 0.44151 0.23142 0.06862
 H402 H 0.44945 0.31665 0.09693
 H403 H 0.56171 0.23000 0.16282
 H404 H 0.60273 0.20832 0.14368
 H405 H 0.56784 0.21775 0.06284
 H406 H 0.52761 0.23940 0.08375
 C407 C 0.53605 0.33184 0.18792
 C408 C 0.46852 0.18198 0.19359
 C409 C 0.58841 0.21091 0.10165
 C410 C 0.44256 0.27518 0.07997
 C411 C 0.97513 0.72483 0.68430
 H412 H 0.97249 0.74614 0.69099
 C413 C 0.96589 0.70320 0.70067
 H414 H 0.95661 0.70798 0.72013
 C415 C 0.98808 0.69256 0.64992
 H416 H 0.99552 0.68860 0.62953
 C417 C 0.97900 0.67039 0.66553
 H418 H 0.97931 0.64964 0.65680
 N419 N 0.98638 0.71914 0.65958
 C420 C 1.00731 0.80394 0.63690
 H421 H 0.99906 0.80285 0.61629
 C422 C 1.01759 0.82909 0.64737
 H423 H 1.01677 0.84741 0.63488
 C424 C 1.01836 0.78119 0.67817
 H425 H 1.01938 0.76228 0.68976
 C426 C 1.02876 0.80601 0.68951
 H427 H 1.03751 0.80616 0.70995
 Zn428 Zn 0.99497 0.74775 0.63473
 N429 N 1.00780 0.78067 0.65232
 C430 C 0.94350 0.76904 0.63277
 N431 N 0.96162 0.75566 0.61659
 C432 C 0.95453 0.74704 0.59083
 C433 C 0.92857 0.75279 0.58017
 C434 C 0.91726 0.77457 0.62326
 C435 C 1.04338 0.72120 0.62504
 C436 C 1.06496 0.70967 0.61071
 C437 C 1.04684 0.72964 0.56938
 C438 C 1.02545 0.74083 0.58461
 N439 N 1.02350 0.73539 0.61175
 H440 H 0.94934 0.77498 0.65345
 H441 H 0.96856 0.73505 0.57871
 H442 H 0.92377 0.74627 0.55940
 H443 H 0.90320 0.78454 0.63707
 H444 H 1.04216 0.71837 0.64688
 H445 H 1.08023 0.69803 0.62175
 H446 H 1.04764 0.73329 0.54762
 H447 H 1.01059 0.75384 0.57472
 C448 C 1.02873 0.83021 0.67387
 C449 C 0.96787 0.67559 0.69130
 C450 C 1.06650 0.71314 0.58236
 C451 C 0.90934 0.76663 0.59651
 C452 C 0.50833 0.73742 0.33976
 H453 H 0.51489 0.75881 0.33780
 C454 C 0.51886 0.71693 0.32241
 H455 H 0.53308 0.72292 0.30678
 C456 C 0.48227 0.70369 0.36291
 H457 H 0.46882 0.69835 0.37935
 C458 C 0.49252 0.68254 0.34629
 H459 H 0.48659 0.66130 0.35030
 N460 N 0.49002 0.73058 0.35925
 C461 C 0.45353 0.81036 0.38190
 H462 H 0.45506 0.80872 0.40389
 C463 C 0.44189 0.83385 0.37038
 H464 H 0.43425 0.84971 0.38409
 C465 C 0.46052 0.79047 0.33811
 H466 H 0.46750 0.77338 0.32558
 C467 C 0.44876 0.81351 0.32565
 H468 H 0.44807 0.81373 0.30359
 Zn469 Zn 0.47766 0.75837 0.38401
 N470 N 0.46290 0.78942 0.36577
 C471 C 0.51714 0.79578 0.40752
 N472 N 0.50796 0.76903 0.40616
 C473 C 0.52089 0.74852 0.41991
 C474 C 0.54378 0.75463 0.43625
 C475 C 0.53978 0.80286 0.42385
 C476 C 0.42750 0.73268 0.39213
 C477 C 0.40694 0.71918 0.40636
 C478 C 0.43084 0.73050 0.44863
 C479 C 0.45135 0.74328 0.43351
 N480 N 0.44959 0.74351 0.40572
 H481 H 0.50717 0.81164 0.39578
 H482 H 0.51336 0.72735 0.41813
 H483 H 0.55374 0.73810 0.44721
 H484 H 0.54693 0.82422 0.42454
 H485 H 0.42643 0.73361 0.37008
 H486 H 0.38993 0.70974 0.39519
 H487 H 0.43269 0.72975 0.47068
 H488 H 0.46879 0.75260 0.44393
 C489 C 0.43910 0.83590 0.34173
 C490 C 0.51102 0.68897 0.32556
 C491 C 0.40876 0.71761 0.43489
 C492 C 0.55334 0.78216 0.43853
 C493 C 0.37047 -0.02171 0.29639
 H494 H 0.36016 -0.00635 0.30873
 C495 C 0.38198 -0.04479 0.30889
 H496 H 0.38005 -0.04700 0.33076
 C497 C 0.38451 -0.03788 0.25293
 H498 H 0.38526 -0.03542 0.23109
 C499 C 0.39645 -0.06122 0.26461
 H500 H 0.40664 -0.07604 0.25150
 N501 N 0.37129 -0.01899 0.26878
 C502 C 0.36217 0.06084 0.22933
 H503 H 0.34143 0.05820 0.22183
 C504 C 0.37717 0.08437 0.22243
 H505 H 0.36727 0.09912 0.20950
 C506 C 0.39924 0.04376 0.25531
 H507 H 0.40759 0.02786 0.26829
 C508 C 0.41496 0.06720 0.24911
 H509 H 0.43513 0.06906 0.25815
 Zn510 Zn 0.35084 0.01016 0.25272
 N511 N 0.37334 0.04110 0.24538
 C512 C 0.32362 0.04764 0.28757
 N513 N 0.32339 0.02108 0.27759
 C514 C 0.30598 0.00158 0.28752
 C515 C 0.28847 0.00834 0.30891
 C516 C 0.30643 0.05527 0.30881
 C517 C 0.35348 -0.00433 0.19785
 C518 C 0.34453 -0.01314 0.17202
 C519 C 0.29858 -0.01594 0.18911
 C520 C 0.30848 -0.00717 0.21482
 N521 N 0.33563 -0.00202 0.21877
 H522 H 0.33808 0.06266 0.28004
 H523 H 0.30669 -0.01957 0.27976
 H524 H 0.27554 -0.00758 0.31751
 H525 H 0.30801 0.07602 0.31756
 H526 H 0.37480 0.00084 0.20124
 H527 H 0.35910 -0.01515 0.15567
 H528 H 0.27711 -0.02076 0.18643
 H529 H 0.29452 -0.00468 0.23154
 C530 C 0.40420 0.08796 0.23204
 C531 C 0.39463 -0.06535 0.29290
 C532 C 0.31683 -0.01917 0.16746
 C533 C 0.28882 0.03542 0.31983
 C534 C 0.07908 1.04104 0.77662
 H535 H 0.07761 1.02056 0.78533
 C536 C 0.06365 1.06287 0.78742
 H537 H 0.05025 1.05900 0.80439
 C538 C 0.09951 1.07141 0.74501
 H539 H 0.11398 1.07497 0.72898
 C540 C 0.08483 1.09377 0.75537
 H541 H 0.08782 1.11416 0.74676
 N542 N 0.09646 1.04563 0.75566
 C543 C 0.11587 0.96582 0.71713
 H544 H 0.13737 0.97003 0.71435
 C545 C 0.10474 0.94048 0.70831
 H546 H 0.11797 0.92531 0.69891
 C547 C 0.07305 0.98039 0.73374
 H548 H 0.06079 0.99607 0.74356
 C549 C 0.06098 0.95518 0.72513
 H550 H 0.03939 0.95186 0.72827
 Zn551 Zn 0.11961 1.01700 0.74274
 N552 N 0.10021 0.98492 0.73012
 C553 C 0.14510 0.97993 0.77901
 N554 N 0.14354 1.00702 0.77165
 C555 C 0.15863 1.02708 0.78490
 C556 C 0.17671 1.02000 0.80599
 C557 C 0.16321 0.97193 0.79951
 C558 C 0.12481 1.03572 0.68969
 C559 C 0.13777 1.04474 0.66620
 C560 C 0.18110 1.04122 0.68994
 C561 C 0.16725 1.03232 0.71308
 N562 N 0.13958 1.02992 0.71255
 H563 H 0.13239 0.96435 0.76902
 H564 H 0.15671 1.04853 0.77893
 H565 H 0.18881 1.03606 0.81624
 H566 H 0.16429 0.95022 0.80491
 H567 H 0.10283 1.03345 0.68983
 H568 H 0.12545 1.04983 0.64849
 H569 H 0.20315 1.04281 0.69062
 H570 H 0.17865 1.02714 0.73132
 C571 C 0.07700 0.93465 0.71252
 C572 C 0.06672 1.08972 0.77694
 C573 C 0.16633 1.04751 0.66604
 C574 C 0.17945 0.99202 0.81310
 C575 C 0.57930 0.54783 0.28449
 H576 H 0.57777 0.52901 0.29621
 C577 C 0.56306 0.57061 0.29112
 H578 H 0.54895 0.56911 0.30790
 C579 C 0.60055 0.57318 0.24935
 H580 H 0.61539 0.57428 0.23327
 C581 C 0.58503 0.59655 0.25558
 H582 H 0.58786 0.61536 0.24401
 N583 N 0.59747 0.54940 0.26376
 C584 C 0.61382 0.46496 0.23437
 H585 H 0.63524 0.46744 0.23005
 C586 C 0.60053 0.44020 0.22694
 H587 H 0.61185 0.42358 0.21732
 C588 C 0.57240 0.48422 0.24996
 H589 H 0.56131 0.50153 0.25837
 C590 C 0.55827 0.45976 0.24272
 H591 H 0.53645 0.45832 0.24576
 Zn592 Zn 0.62045 0.51879 0.25565
 N593 N 0.59985 0.48621 0.24619
 C594 C 0.66114 0.48997 0.28452
 N595 N 0.64352 0.51156 0.28628
 C596 C 0.64247 0.52770 0.30932
 C597 C 0.65907 0.52189 0.33192
 C598 C 0.67800 0.48341 0.30658
 C599 C 0.63009 0.52640 0.20009
 C600 C 0.64520 0.53248 0.17692
 C601 C 0.68465 0.54108 0.20610
 C602 C 0.66884 0.53461 0.22870
 N603 N 0.64208 0.52750 0.22529
 H604 H 0.66223 0.47774 0.26597
 H605 H 0.62886 0.54518 0.31026
 H606 H 0.65792 0.53494 0.35007
 H607 H 0.69121 0.46560 0.30481
 H608 H 0.60872 0.52081 0.19803
 H609 H 0.63522 0.53183 0.15705
 H610 H 0.70593 0.54673 0.20912
 H611 H 0.67786 0.53549 0.24897
 C612 C 0.57255 0.43739 0.23145
 C613 C 0.56596 0.59541 0.27666
 C614 C 0.67285 0.53999 0.17979
 C615 C 0.67710 0.49941 0.33076
 C616 C 0.89576 0.47401 0.79707
 H617 H 0.89434 0.49398 0.80737
 C618 C 0.90855 0.45190 0.81014
 H619 H 0.91755 0.45519 0.83022
 C620 C 0.88520 0.44522 0.75860
 H621 H 0.87538 0.44227 0.73891
 C622 C 0.89798 0.42271 0.77080
 H623 H 0.89809 0.40276 0.76024
 N624 N 0.88427 0.47029 0.77180
 C625 C 0.87462 0.54886 0.72991
 H626 H 0.85421 0.54509 0.72192
 C627 C 0.88848 0.57320 0.72330
 H628 H 0.87873 0.58769 0.70968
 C629 C 0.91192 0.53416 0.75717
 H630 H 0.92085 0.51897 0.77053
 C631 C 0.92654 0.55840 0.75116
 H632 H 0.94664 0.56167 0.76013
 Zn633 Zn 0.86378 0.49962 0.75645
 N634 N 0.88624 0.53014 0.74690
 C635 C 0.83780 0.53909 0.78986
 N636 N 0.83854 0.51165 0.78296
 C637 C 0.82355 0.49255 0.79665
 C638 C 0.80759 0.50080 0.81880
 C639 C 0.82196 0.54823 0.81157
 C640 C 0.86219 0.48098 0.70268
 C641 C 0.85102 0.47078 0.67820
 C642 C 0.80613 0.47402 0.69782
 C643 C 0.81824 0.48400 0.72216
 N644 N 0.84585 0.48688 0.72418
 H645 H 0.85020 0.55395 0.77921
 H646 H 0.82479 0.47079 0.79097
 H647 H 0.79627 0.48526 0.82978
 H648 H 0.82256 0.57005 0.81729
 H649 H 0.88405 0.48383 0.70478
 H650 H 0.86435 0.46576 0.66138
 H651 H 0.78424 0.47109 0.69666
 H652 H 0.80565 0.48912 0.73946
 C653 C 0.91461 0.57854 0.73439
 C654 C 0.90944 0.42581 0.79703
 C655 C 0.82271 0.46706 0.67564
 C656 C 0.80694 0.52897 0.82668
 C657 C 0.29160 0.40375 -0.03901
 H658 H 0.30012 0.41025 -0.01943
 C659 C 0.29731 0.41917 -0.06233
 H660 H 0.31050 0.43728 -0.06040
 C661 C 0.26517 0.37157 -0.06545
 H662 H 0.25315 0.35263 -0.06674
 C663 C 0.27022 0.38635 -0.08914
 H664 H 0.26141 0.37887 -0.10831
 N665 N 0.27558 0.38054 -0.04093
 C666 C 0.26228 0.36468 0.04507
 H667 H 0.26779 0.34297 0.04434
 C668 C 0.25653 0.37734 0.07004
 H669 H 0.25811 0.36520 0.08842
 C670 C 0.25390 0.40657 0.02170
 H671 H 0.25246 0.41764 0.00269
 C672 C 0.24753 0.42005 0.04635
 H673 H 0.24107 0.44147 0.04593
 Zn674 Zn 0.26867 0.35807 -0.01011
 N675 N 0.26110 0.37935 0.02160
 C676 C 0.32015 0.35465 0.01027
 N677 N 0.30099 0.33803 -0.00210
 C678 C 0.30567 0.31047 -0.00647
 C679 C 0.32965 0.29840 0.00365
 C680 C 0.34425 0.34364 0.02042
 C681 C 0.21555 0.35436 -0.02429
 C682 C 0.18971 0.34387 -0.03056
 C683 C 0.20584 0.29785 -0.02054
 C684 C 0.23167 0.30936 -0.01443
 N685 N 0.23616 0.33716 -0.01708
 H686 H 0.31618 0.37653 0.01328
 H687 H 0.29102 0.29775 -0.01766
 H688 H 0.33287 0.27636 0.00053
 H689 H 0.35843 0.35738 0.03124
 H690 H 0.21942 0.37647 -0.02560
 H691 H 0.17411 0.35817 -0.03712
 H692 H 0.20258 0.27573 -0.01832
 H693 H 0.24767 0.29608 -0.00713
 C694 C 0.24873 0.40534 0.07101
 C695 C 0.28657 0.41048 -0.08790
 C696 C 0.18447 0.31522 -0.02897
 C697 C 0.34907 0.31501 0.01787
 C698 C 0.78726 0.06117 1.04735
 H699 H 0.79467 0.05837 1.02678
 C700 C 0.79538 0.04293 1.06784
 H701 H 0.80848 0.02576 1.06254
 C702 C 0.76144 0.08715 1.07911
 H703 H 0.74882 0.10486 1.08365
 C704 C 0.76951 0.06986 1.10026
 H705 H 0.76291 0.07482 1.12075
 N706 N 0.77004 0.08237 1.05317
 C707 C 0.73474 0.10749 0.97513
 H708 H 0.73559 0.12965 0.97915
 C709 C 0.72275 0.09736 0.95099
 H710 H 0.71461 0.11188 0.93635
 C711 C 0.74424 0.06174 0.98956
 H712 H 0.75194 0.04789 1.00492
 C713 C 0.73273 0.05069 0.96538
 H714 H 0.73191 0.02837 0.96222
 Zn715 Zn 0.75918 0.10763 1.02583
 N716 N 0.74521 0.08975 0.99382
 C717 C 0.80024 0.12764 0.99135
 N718 N 0.78976 0.12980 1.01690
 C719 C 0.80149 0.14677 1.03630
 C720 C 0.82403 0.16338 1.02989
 C721 C 0.82279 0.14369 0.98418
 C722 C 0.70743 0.11440 1.04562
 C723 C 0.68445 0.12775 1.05556
 C724 C 0.70806 0.17174 1.05138
 C725 C 0.73080 0.15746 1.04161
 N726 N 0.73011 0.12925 1.03921
 H727 H 0.79131 0.11330 0.97652
 H728 H 0.79313 0.14759 1.05664
 H729 H 0.83294 0.17727 1.04524
 H730 H 0.83103 0.14164 0.96384
 H731 H 0.70733 0.09202 1.04310
 H732 H 0.66659 0.11551 1.06057
 H733 H 0.70912 0.19408 1.05368
 H734 H 0.74886 0.16892 1.03592
 C735 C 0.72155 0.06863 0.94592
 C736 C 0.78649 0.04712 1.09482
 C737 C 0.68458 0.15676 1.05863
 C738 C 0.83453 0.16215 1.00342
 C739 C 0.26841 0.57321 0.52496
 H740 H 0.27891 0.57266 0.50565
 C741 C 0.27852 0.55815 0.54708
 H742 H 0.29686 0.54606 0.54455
 C743 C 0.23284 0.59119 0.55213
 H744 H 0.21547 0.60461 0.55437
 C745 C 0.24219 0.57652 0.57467
 H746 H 0.23145 0.57843 0.59379
 N747 N 0.24604 0.58946 0.52790
 C748 C 0.21207 0.60860 0.44773
 H749 H 0.21026 0.63080 0.45093
 C750 C 0.20364 0.59655 0.42300
 H751 H 0.19554 0.60980 0.40723
 C752 C 0.22585 0.56488 0.46440
 H753 H 0.23452 0.55270 0.48067
 C754 C 0.21747 0.55184 0.43988
 H755 H 0.21950 0.52954 0.43770
 Zn756 Zn 0.23522 0.61306 0.49909
 N757 N 0.22336 0.59286 0.46762
 C758 C 0.27557 0.63335 0.46415
 N759 N 0.26589 0.63523 0.49001
 C760 C 0.27942 0.65036 0.50971
 C761 C 0.30403 0.66388 0.50375
 C762 C 0.29987 0.64652 0.45733
 C763 C 0.18145 0.62010 0.51275
 C764 C 0.15809 0.63317 0.52212
 C765 C 0.18360 0.67628 0.52582
 C766 C 0.20662 0.66232 0.51618
 N767 N 0.20521 0.63459 0.51043
 H768 H 0.26504 0.62087 0.44881
 H769 H 0.27160 0.65111 0.53027
 H770 H 0.31499 0.67516 0.51981
 H771 H 0.30707 0.64458 0.43658
 H772 H 0.18085 0.59813 0.50774
 H773 H 0.13947 0.62111 0.52403
 H774 H 0.18544 0.69802 0.53132
 H775 H 0.22567 0.67348 0.51391
 C776 C 0.20640 0.56780 0.41864
 C777 C 0.26558 0.56004 0.57251
 C778 C 0.15903 0.66151 0.52931
 C779 C 0.31483 0.66148 0.47737
 C780 C 0.78248 0.88612 0.48626
 H781 H 0.79261 0.88485 0.50589
 C782 C 0.79646 0.89747 0.46432
 H783 H 0.81702 0.90548 0.46735
 C784 C 0.74436 0.87549 0.45761
 H785 H 0.72452 0.86599 0.45461
 C786 C 0.75753 0.88684 0.43519
 H787 H 0.74764 0.88602 0.41530
 N788 N 0.75679 0.87555 0.48268
 C789 C 0.70724 0.88596 0.55198
 H790 H 0.69047 0.87468 0.54246
 C791 C 0.70246 0.90140 0.57574
 H792 H 0.68192 0.90273 0.58343
 C793 C 0.75434 0.89732 0.55445
 H794 H 0.77472 0.89478 0.54685
 C795 C 0.75045 0.91293 0.57838
 H796 H 0.76778 0.92275 0.58868
 Zn797 Zn 0.73967 0.85808 0.51280
 N798 N 0.73292 0.88392 0.54187
 C799 C 0.76328 0.82673 0.55420
 N800 N 0.76368 0.83117 0.52685
 C801 C 0.78317 0.81974 0.51076
 C802 C 0.80422 0.80428 0.52243
 C803 C 0.78402 0.81171 0.56670
 C804 C 0.68647 0.85823 0.49122
 C805 C 0.66095 0.84745 0.48371
 C806 C 0.67630 0.80191 0.49677
 C807 C 0.70166 0.81361 0.50403
 N808 N 0.70616 0.84136 0.50134
 H809 H 0.74756 0.83603 0.56655
 H810 H 0.78312 0.82374 0.48906
 H811 H 0.82034 0.79647 0.50957
 H812 H 0.78400 0.80934 0.58867
 H813 H 0.69056 0.88025 0.48935
 H814 H 0.64576 0.86132 0.47548
 H815 H 0.67287 0.77987 0.49945
 H816 H 0.71758 0.80061 0.51219
 C817 C 0.72435 0.91443 0.58957
 C818 C 0.78384 0.89802 0.43852
 C819 C 0.65543 0.81900 0.48677
 C820 C 0.80525 0.80095 0.55088
 C821 C -0.02376 0.29233 0.38114
 H822 H -0.00387 0.30219 0.38035
 C823 C -0.04441 0.30455 0.39645
 H824 H -0.04029 0.32385 0.40747
 C825 C -0.05337 0.25526 0.36764
 H826 H -0.05698 0.23631 0.35599
 C827 C -0.07444 0.26648 0.38315
 H828 H -0.09410 0.25604 0.38331
 N829 N -0.02860 0.26825 0.36689
 C830 C 0.05644 0.24493 0.35694
 H831 H 0.05857 0.24455 0.33508
 C832 C 0.07957 0.24141 0.37343
 H833 H 0.09913 0.23821 0.36390
 C834 C 0.02847 0.24826 0.39589
 H835 H 0.00845 0.25049 0.40460
 C836 C 0.05102 0.24451 0.41314
 H837 H 0.04815 0.24428 0.43503
 Zn838 Zn -0.00007 0.25278 0.34561
 N839 N 0.03150 0.24855 0.36829
 C840 C 0.02576 0.26831 0.29644
 N841 N 0.00807 0.27677 0.31602
 C842 C -0.00272 0.30272 0.31555
 C843 C 0.00579 0.32190 0.29625
 C844 C 0.03466 0.28676 0.27660
 C845 C -0.01463 0.19753 0.35220
 C846 C -0.02458 0.17114 0.34511
 C847 C -0.02631 0.18496 0.29789
 C848 C -0.01670 0.21132 0.30599
 N849 N -0.01124 0.21711 0.33280
 H850 H 0.03334 0.24730 0.29640
 H851 H -0.01727 0.30908 0.33067
 H852 H -0.00195 0.34286 0.29748
 H853 H 0.04924 0.27974 0.26164
 H854 H -0.01028 0.20274 0.37339
 H855 H -0.02802 0.15640 0.36120
 H856 H -0.03024 0.18088 0.27641
 H857 H -0.01415 0.22724 0.29088
 C858 C 0.07703 0.24113 0.40194
 C859 C -0.07009 0.29152 0.39765
 C860 C -0.03087 0.16449 0.31763
 C861 C 0.02528 0.31425 0.27682
 C862 C 1.04242 0.77253 0.06067
 H863 H 1.02230 0.77070 0.05150
 C864 C 1.06335 0.78604 0.04669
 H865 H 1.05911 0.79466 0.02679
 C866 C 1.07229 0.76446 0.09813
 H867 H 1.07551 0.75624 0.11835
 C868 C 1.09364 0.77780 0.08501
 H869 H 1.11336 0.77932 0.09516
 N870 N 1.04715 0.76265 0.08617
 C871 C 0.98199 0.70846 0.08555
 H872 H 0.99534 0.69345 0.09470
 C873 C 0.95776 0.69921 0.07328
 H874 H 0.95311 0.67717 0.07328
 C875 C 0.97112 0.75521 0.07610
 H876 H 0.97630 0.77707 0.07781
 C877 C 0.94638 0.74680 0.06367
 H878 H 0.93291 0.76235 0.05541
 Zn879 Zn 1.01951 0.74708 0.10790
 N880 N 0.98818 0.73604 0.08702
 C881 C 0.98582 0.76918 0.14891
 N882 N 1.00910 0.77354 0.13472
 C883 C 1.02466 0.79677 0.13911
 C884 C 1.01714 0.81662 0.15854
 C885 C 0.97737 0.78867 0.16842
 C886 C 1.04819 0.69746 0.10871
 C887 C 1.05864 0.67308 0.11947
 C888 C 1.04088 0.68644 0.16353
 C889 C 1.03083 0.71071 0.15192
 N890 N 1.03429 0.71550 0.12487
 H891 H 0.97367 0.75065 0.14483
 H892 H 1.04301 0.80005 0.12761
 H893 H 1.03008 0.83475 0.16184
 H894 H 0.95841 0.78505 0.17894
 H895 H 1.05069 0.70186 0.08726
 H896 H 1.06916 0.65867 0.10616
 H897 H 1.03807 0.68309 0.18508
 H898 H 1.02003 0.72551 0.16447
 C899 C 0.93924 0.71842 0.06255
 C900 C 1.08918 0.78939 0.05922
 C901 C 1.05477 0.66718 0.14715
 C902 C 0.99315 0.81284 0.17348
 C903 C 0.54014 0.27326 0.56148
 H904 H 0.52025 0.27620 0.55226
 C905 C 0.56362 0.28170 0.54765
 H906 H 0.56133 0.29143 0.52799
 C907 C 0.56710 0.25819 0.59881
 H908 H 0.56839 0.24940 0.61898
 C909 C 0.59093 0.26580 0.58562
 H910 H 0.61029 0.26205 0.59571
 N911 N 0.54233 0.26176 0.58663
 C912 C 0.47247 0.21285 0.58669
 H913 H 0.48366 0.19791 0.59844
 C914 C 0.44823 0.20448 0.57383
 H915 H 0.44148 0.18313 0.57591
 C916 C 0.46660 0.25895 0.57162
 H917 H 0.47356 0.28034 0.57151
 C918 C 0.44192 0.25145 0.55852
 H919 H 0.43040 0.26711 0.54786
 Zn920 Zn 0.51192 0.25055 0.60755
 N921 N 0.48120 0.23971 0.58557
 C922 C 0.47744 0.27830 0.64403
 N923 N 0.50153 0.28021 0.63070
 C924 C 0.51762 0.30331 0.63309
 C925 C 0.50966 0.32571 0.64947
 C926 C 0.46859 0.30031 0.66048
 C927 C 0.53518 0.19868 0.61469
 C928 C 0.54517 0.17578 0.62855
 C929 C 0.53075 0.19687 0.67100
 C930 C 0.52100 0.21950 0.65627
 N931 N 0.52331 0.21991 0.62861
 H932 H 0.46493 0.25977 0.64154
 H933 H 0.53667 0.30442 0.62228
 H934 H 0.52291 0.34378 0.65129
 H935 H 0.44901 0.29855 0.67028
 H936 H 0.53698 0.19968 0.59272
 H937 H 0.55439 0.15903 0.61701
 H938 H 0.52927 0.19726 0.69298
 H939 H 0.51194 0.23683 0.66698
 C940 C 0.43226 0.22389 0.55986
 C941 C 0.58957 0.27796 0.55972
 C942 C 0.54316 0.17469 0.65709
 C943 C 0.48477 0.32450 0.66337
 C944 C 0.48106 0.78341 0.90666
 H945 H 0.50125 0.79198 0.91060
 C946 C 0.45860 0.79464 0.91993
 H947 H 0.46231 0.81116 0.93474
 C948 C 0.45268 0.75078 0.88312
 H949 H 0.45042 0.73392 0.86840
 C950 C 0.42956 0.76165 0.89565
 H951 H 0.41013 0.75246 0.89023
 N952 N 0.47775 0.76196 0.88858
 C953 C 0.56102 0.73209 0.88197
 H954 H 0.56307 0.73246 0.85999
 C955 C 0.58361 0.72630 0.89847
 H956 H 0.60301 0.72186 0.88908
 C957 C 0.53324 0.73786 0.92091
 H958 H 0.51358 0.74244 0.92954
 C959 C 0.55518 0.73151 0.93817
 H960 H 0.55234 0.73142 0.96008
 Zn961 Zn 0.50863 0.75005 0.86913
 N962 N 0.53672 0.73867 0.89339
 C963 C 0.54408 0.79449 0.85937
 N964 N 0.52131 0.78128 0.84936
 C965 C 0.50673 0.79208 0.82819
 C966 C 0.51573 0.81636 0.81548
 C967 C 0.55333 0.81898 0.84779
 C968 C 0.49458 0.69515 0.86099
 C969 C 0.48551 0.67098 0.84759
 C970 C 0.48553 0.69579 0.80504
 C971 C 0.49538 0.71939 0.81920
 N972 N 0.49898 0.71883 0.84683
 H973 H 0.55464 0.78672 0.87710
 H974 H 0.48778 0.78230 0.82158
 H975 H 0.50405 0.82482 0.79867
 H976 H 0.57134 0.82929 0.85627
 H977 H 0.49759 0.69525 0.88292
 H978 H 0.48151 0.65252 0.85933
 H979 H 0.48189 0.69664 0.78320
 H980 H 0.49950 0.73814 0.80814
 C981 C 0.58088 0.72634 0.92695
 C982 C 0.43207 0.78445 0.91396
 C983 C 0.48028 0.67132 0.81939
 C984 C 0.53917 0.83013 0.82557
 C985 C 0.42346 -0.11558 0.34479
 C986 C 0.42646 -0.14059 0.32988
 C987 C 0.41527 -0.14112 0.30298
 C988 C 0.40442 -0.11701 0.29115
 C989 C 0.40456 -0.09139 0.30558
 C990 C 0.41291 -0.09183 0.33300
 C991 C 0.43256 -0.07311 0.34799
 C992 C 0.44426 -0.09898 0.36086
 H993 H 0.41452 -0.16001 0.29079
 H994 H 0.39627 -0.11852 0.27053
 H995 H 0.42222 -0.05929 0.36293
 H996 H 0.44699 -0.06249 0.33415
 H997 H 0.44080 -0.09977 0.38323
 H998 H 0.46550 -0.10342 0.35449
 C999 C 0.92071 0.36855 0.84794
 C1000 C 0.94327 0.35416 0.83772
 C1001 C 0.95259 0.36212 0.81169
 C1002 C 0.94155 0.38537 0.79835
 C1003 C 0.92100 0.40136 0.81072
 C1004 C 0.90981 0.39115 0.83474
 C1005 C 0.90086 0.40464 0.86067
 C1006 C 0.91314 0.37994 0.87540
 H1007 H 0.96914 0.35108 0.80209
 H1008 H 0.94975 0.39145 0.77886
 H1009 H 0.87827 0.40549 0.86209
 H1010 H 0.91183 0.42443 0.86551
 H1011 H 0.89764 0.36682 0.88560
 H1012 H 0.93099 0.38632 0.88829
 C1013 C 0.05395 1.16143 0.80631
 C1014 C 0.02811 1.15913 0.81810
 C1015 C 0.01300 1.13453 0.81194
 C1016 C 0.02504 1.11207 0.79778
 C1017 C 0.05229 1.11383 0.78900
 C1018 C 0.06558 1.13954 0.79208
 C1019 C 0.09346 1.14610 0.80308
 C1020 C 0.08078 1.17008 0.81878
 H1021 H -0.00775 1.13204 0.81878
 H1022 H 0.01334 1.09309 0.79448
 H1023 H 0.10753 1.15300 0.78684
 H1024 H 0.10152 1.12953 0.81649
 H1025 H 0.08774 1.19074 0.81159
 H1026 H 0.08144 1.16746 0.84131
 C1027 C 0.54894 0.66920 0.29710
 C1028 C 0.52277 0.66657 0.30808
 C1029 C 0.50869 0.64121 0.30282
 C1030 C 0.52220 0.61825 0.29118
 C1031 C 0.54992 0.62028 0.28406
 C1032 C 0.56209 0.64670 0.28528
 C1033 C 0.58919 0.65560 0.29674
 C1034 C 0.57482 0.68021 0.30978
 H1035 H 0.48772 0.63850 0.30898
 H1036 H 0.51138 0.59860 0.28907
 H1037 H 0.60360 0.66170 0.28049
 H1038 H 0.59746 0.64073 0.31187
 H1039 H 0.58107 0.70045 0.30107
 H1040 H 0.57468 0.67962 0.33248
 C1041 C 0.55075 0.36210 0.22784
 C1042 C 0.54067 0.35946 0.20102
 C1043 C 0.53557 0.38422 0.18673
 C1044 C 0.54419 0.41015 0.19765
 C1045 C 0.55814 0.41172 0.22293
 C1046 C 0.55955 0.38758 0.23844
 C1047 C 0.58283 0.37487 0.25356
 C1048 C 0.57318 0.34692 0.24190
 H1049 H 0.52633 0.38343 0.16652
 H1050 H 0.54182 0.42859 0.18545
 H1051 H 0.58049 0.37665 0.27607
 H1052 H 0.60308 0.38143 0.24582
 H1053 H 0.56532 0.33267 0.25770
 H1054 H 0.58775 0.33743 0.22732
 C1055 C 0.06466 0.86743 0.67269
 C1056 C 0.04152 0.85602 0.68481
 C1057 C 0.03245 0.86869 0.70917
 C1058 C 0.04407 0.89411 0.71863
 C1059 C 0.06541 0.90706 0.70418
 C1060 C 0.07638 0.89200 0.68228
 C1061 C 0.08411 0.90085 0.65432
 C1062 C 0.07112 0.87389 0.64370
 H1063 H 0.01560 0.85963 0.72017
 H1064 H 0.03597 0.90377 0.73687
 H1065 H 0.10660 0.90157 0.65167
 H1066 H 0.07310 0.91975 0.64771
 H1067 H 0.08612 0.85920 0.63490
 H1068 H 0.05277 0.87755 0.63077
 C1069 C 0.97033 0.62962 0.71557
 C1070 C 0.95556 0.65282 0.70705
 C1071 C 0.92770 0.65360 0.71380
 C1072 C 0.91453 0.62998 0.72436
 C1073 C 0.92902 0.60511 0.72867
 C1074 C 0.95746 0.60665 0.72648
 C1075 C 0.97773 0.58702 0.71477
 C1076 C 0.99200 0.61226 0.70281
 H1077 H 0.91563 0.67166 0.70896
 H1078 H 0.89276 0.63082 0.72769
 H1079 H 0.96858 0.57276 0.69902
 H1080 H 0.99003 0.57677 0.73091
 H1081 H 0.99142 0.61186 0.68016
 H1082 H 1.01244 0.61646 0.71216
 C1083 C 0.42465 0.16152 0.21060
 C1084 C 0.45297 0.15994 0.20792
 C1085 C 0.46555 0.13561 0.21741
 C1086 C 0.44982 0.11260 0.22566
 C1087 C 0.42090 0.11312 0.22489
 C1088 C 0.40900 0.13877 0.21835
 C1089 C 0.38677 0.14638 0.19851
 C1090 C 0.40377 0.17143 0.19079
 H1091 H 0.48753 0.13369 0.21723
 H1092 H 0.46064 0.09393 0.23092
 H1093 H 0.36755 0.15208 0.20893
 H1094 H 0.38442 0.13129 0.18118
 H1095 H 0.39468 0.19147 0.19741
 H1096 H 0.41088 0.17067 0.16930
 C1097 C 0.30328 0.42476 -0.16183
 C1098 C 0.31211 0.45251 -0.16123
 C1099 C 0.30744 0.46795 -0.13696
 C1100 C 0.29786 0.45476 -0.11331
 C1101 C 0.29276 0.42580 -0.11334
 C1102 C 0.29393 0.41180 -0.13860
 C1103 C 0.30734 0.38505 -0.14604
 C1104 C 0.31756 0.39925 -0.17153
 H1105 H 0.31227 0.48994 -0.13581
 H1106 H 0.29553 0.46707 -0.09482
 H1107 H 0.29224 0.36817 -0.15061
 H1108 H 0.32394 0.37953 -0.13145
 H1109 H 0.30830 0.39054 -0.19070
 H1110 H 0.34012 0.40196 -0.17177
 C1111 C 0.80299 0.94157 0.37796
 C1112 C 0.82441 0.92664 0.36614
 C1113 C 0.83499 0.90428 0.38130
 C1114 C 0.82232 0.89552 0.40545
 C1115 C 0.79878 0.90889 0.41500
 C1116 C 0.79070 0.93303 0.40174
 C1117 C 0.76349 0.94379 0.39344
 C1118 C 0.77676 0.95286 0.36701
 H1119 H 0.85232 0.89274 0.37389
 H1120 H 0.83008 0.87746 0.41586
 H1121 H 0.75708 0.96154 0.40658
 H1122 H 0.74787 0.92717 0.39017
 H1123 H 0.77753 0.97580 0.36475
 H1124 H 0.76853 0.94101 0.34903
 C1125 C 0.83103 0.00063 1.13836
 C1126 C 0.81847 0.00176 1.16404
 C1127 C 0.79180 0.01283 1.16458
 C1128 C 0.78038 0.02563 1.14146
 C1129 C 0.79550 0.02851 1.11725
 C1130 C 0.82001 0.01386 1.11579
 C1131 C 0.84733 0.02296 1.10601
 C1132 C 0.85948 0.00854 1.13063
 H1133 H 0.77974 0.01221 1.18292
 H1134 H 0.76021 0.03436 1.14316
 H1135 H 0.85009 0.04592 1.10676
 H1136 H 0.85273 0.01277 1.08631
 H1137 H 0.86938 0.02312 1.14565
 H1138 H 0.87187 -0.00984 1.12494
 C1139 C 0.28819 0.54825 0.64566
 C1140 C 0.30508 0.52501 0.64373
 C1141 C 0.30467 0.51016 0.61856
 C1142 C 0.29080 0.52066 0.59550
 C1143 C 0.27688 0.54618 0.59709
 C1144 C 0.27451 0.55850 0.62305
 C1145 C 0.27918 0.58796 0.63203
 C1146 C 0.29418 0.57674 0.65682
 H1147 H 0.31588 0.49102 0.61627
 H1148 H 0.29191 0.50934 0.57628
 H1149 H 0.25983 0.59853 0.63728
 H1150 H 0.29263 0.59957 0.61797
 H1151 H 0.28344 0.58091 0.67630
 H1152 H 0.31636 0.58184 0.65719
 C1153 C 0.16733 0.55454 0.35225
 C1154 C 0.17822 0.52964 0.34205
 C1155 C 0.20112 0.51896 0.35615
 C1156 C 0.21075 0.53140 0.38078
 C1157 C 0.19793 0.55509 0.39190
 C1158 C 0.17720 0.56701 0.37616
 C1159 C 0.14980 0.57687 0.38451
 C1160 C 0.13868 0.56274 0.35875
 H1161 H 0.21107 0.50040 0.34870
 H1162 H 0.22793 0.52216 0.39121
 H1163 H 0.14827 0.59989 0.38407
 H1164 H 0.14267 0.56711 0.40363
 H1165 H 0.13020 0.57758 0.34373
 H1166 H 0.12522 0.54477 0.36348
 C1167 C 0.70921 0.02837 0.87980
 C1168 C 0.68718 0.04241 0.86759
 C1169 C 0.67347 0.06178 0.88463
 C1170 C 0.68386 0.06928 0.91064
 C1171 C 0.70810 0.05757 0.92074
 C1172 C 0.71930 0.03574 0.90562
 C1173 C 0.74817 0.03116 0.89775
 C1174 C 0.73737 0.02321 0.86946
 H1175 H 0.65478 0.07160 0.87822
 H1176 H 0.67339 0.08503 0.92244
 H1177 H 0.75739 0.01346 0.90878
 H1178 H 0.76052 0.05068 0.89816
 H1179 H 0.74075 0.00095 0.86425
 H1180 H 0.74345 0.03810 0.85343
 C1181 C 0.70512 0.92676 0.66318
 C1182 C 0.70460 0.95580 0.66541
 C1183 C 0.71665 0.97085 0.64397
 C1184 C 0.72458 0.95720 0.61964
 C1185 C 0.72028 0.92838 0.61620
 C1186 C 0.71247 0.91343 0.63918
 C1187 C 0.69225 0.89044 0.64303
 C1188 C 0.68412 0.90517 0.66937
 H1189 H 0.71854 0.99326 0.64528
 H1190 H 0.73216 0.96939 0.60288
 H1191 H 0.70232 0.87018 0.64653
 H1192 H 0.67550 0.88992 0.62757
 H1193 H 0.68944 0.89328 0.68796
 H1194 H 0.66300 0.91343 0.66876
 C1195 C 0.21965 0.41432 0.14195
 C1196 C 0.21856 0.44317 0.14548
 C1197 C 0.23267 0.45954 0.12643
 C1198 C 0.24393 0.44730 0.10279
 C1199 C 0.24118 0.41843 0.09759
 C1200 C 0.23055 0.40232 0.11867
 C1201 C 0.20927 0.37988 0.11765
 C1202 C 0.19736 0.39303 0.14320
 H1203 H 0.23377 0.48191 0.12899
 H1204 H 0.25360 0.46065 0.08810
 H1205 H 0.21800 0.35901 0.12129
 H1206 H 0.19562 0.38121 0.09939
 H1207 H 0.19934 0.37975 0.16149
 H1208 H 0.17677 0.40198 0.13981
 C1209 C -0.11973 0.34468 0.42439
 C1210 C -0.13911 0.32866 0.43820
 C1211 C -0.13260 0.30044 0.44248
 C1212 C -0.10963 0.28838 0.43011
 C1213 C -0.09227 0.30432 0.41361
 C1214 C -0.09691 0.33289 0.41262
 C1215 C -0.09827 0.35144 0.38852
 C1216 C -0.12332 0.36436 0.40131
 H1217 H -0.14552 0.28732 0.45466
 H1218 H -0.10593 0.26642 0.43275
 H1219 H -0.10279 0.33990 0.36911
 H1220 H -0.08050 0.36594 0.38787
 H1221 H -0.14243 0.36031 0.38935
 H1222 H -0.11994 0.38636 0.40783
 C1223 C 0.36029 0.79679 0.94185
 C1224 C 0.36048 0.82531 0.94781
 C1225 C 0.38578 0.83932 0.94635
 C1226 C 0.40884 0.82597 0.93579
 C1227 C 0.40767 0.79790 0.92662
 C1228 C 0.38300 0.78350 0.93115
 C1229 C 0.36512 0.76586 0.91264
 C1230 C 0.34058 0.78005 0.92496
 H1231 H 0.38761 0.86105 0.95220
 H1232 H 0.42702 0.83851 0.93339
 H1233 H 0.36621 0.74342 0.91759
 H1234 H 0.36745 0.77080 0.89066
 H1235 H 0.32797 0.76599 0.93757
 H1236 H 0.32897 0.79283 0.91014
 C1237 C 1.13690 0.81857 0.00613
 C1238 C 1.15708 0.83199 0.02216
 C1239 C 1.15184 0.83558 0.05025
 C1240 C 1.12907 0.82278 0.06212
 C1241 C 1.11100 0.80597 0.04623
 C1242 C 1.11444 0.80586 0.01787
 C1243 C 1.11491 0.78205 -0.00201
 C1244 C 1.13951 0.79597 -0.01485
 H1245 H 1.16577 0.84753 0.06326
 H1246 H 1.12623 0.82527 0.08392
 H1247 H 1.09659 0.78155 -0.01563
 H1248 H 1.11979 0.76201 0.00788
 H1249 H 1.13532 0.80347 -0.03585
 H1250 H 1.15868 0.78403 -0.01243
 C1251 C 0.66218 0.30356 0.54955
 C1252 C 0.66323 0.30910 0.52162
 C1253 C 0.64086 0.29996 0.50524
 C1254 C 0.61719 0.28876 0.51726
 C1255 C 0.61520 0.28674 0.54598
 C1256 C 0.63889 0.29286 0.56136
 C1257 C 0.64272 0.31057 0.58649
 C1258 C 0.66831 0.32221 0.57354
 H1259 H 0.64121 0.30236 0.48329
 H1260 H 0.60027 0.28260 0.50404
 H1261 H 0.64714 0.29807 0.60491
 H1262 H 0.62632 0.32619 0.58896
 H1263 H 0.68737 0.31624 0.58443
 H1264 H 0.66683 0.34461 0.56853
 C1265 C 0.37510 0.17823 0.53121
 C1266 C 0.35278 0.19600 0.52911
 C1267 C 0.35650 0.22356 0.53894
 C1268 C 0.38234 0.23304 0.54856
 C1269 C 0.40511 0.21520 0.54852
 C1270 C 0.40038 0.18751 0.54058
 C1271 C 0.41513 0.16987 0.52036
 C1272 C 0.38736 0.15966 0.51008
 H1273 H 0.33953 0.23778 0.53937
 H1274 H 0.38435 0.25420 0.55616
 H1275 H 0.42724 0.15338 0.53038
 H1276 H 0.42638 0.18237 0.50516
 H1277 H 0.38351 0.13733 0.51422
 H1278 H 0.38245 0.16621 0.48890
 C1279 C 0.88418 0.67053 0.03328
 C1280 C 0.86037 0.68627 0.03437
 C1281 C 0.86250 0.71309 0.04643
 C1282 C 0.88809 0.72402 0.05518
 C1283 C 0.91219 0.70842 0.05201
 C1284 C 0.90921 0.68125 0.04178
 C1285 C 0.92384 0.66707 0.01903
 C1286 C 0.89635 0.65526 0.00970
 H1287 H 0.84447 0.72555 0.04937
 H1288 H 0.88886 0.74449 0.06464
 H1289 H 0.93805 0.65095 0.02660
 H1290 H 0.93281 0.68198 0.00442
 H1291 H 0.89476 0.63235 0.01193
 H1292 H 0.88933 0.66324 -0.01037
 C1293 C 0.62646 0.69338 0.97979
 C1294 C 0.65264 0.70226 0.97223
 C1295 C 0.65405 0.72436 0.95357
 C1296 C 0.63041 0.73347 0.93981
 C1297 C 0.60479 0.72109 0.94481
 C1298 C 0.60314 0.70272 0.96658
 C1299 C 0.58934 0.67503 0.96800
 C1300 C 0.61489 0.66471 0.98238
 H1301 H 0.67347 0.73355 0.94831
 H1302 H 0.63240 0.74905 0.92421
 H1303 H 0.58577 0.66527 0.94750
 H1304 H 0.57122 0.67555 0.98141
 H1305 H 0.62621 0.64899 0.97022
 H1306 H 0.61138 0.65917 1.00402
 C1307 C 0.12174 0.21083 0.45721
 C1308 C 0.14824 0.21771 0.44896
 C1309 C 0.15060 0.23760 0.42813
 C1310 C 0.12730 0.24665 0.41366
 C1311 C 0.10110 0.23625 0.41988
 C1312 C 0.09885 0.21994 0.44316
 C1313 C 0.08390 0.19315 0.44697
 C1314 C 0.10899 0.18309 0.46233
 H1315 H 0.17042 0.24515 0.42198
 H1316 H 0.12999 0.26064 0.39676
 H1317 H 0.07995 0.18175 0.42736
 H1318 H 0.06582 0.19569 0.46023
 H1319 H 0.11964 0.16584 0.45164
 H1320 H 0.10525 0.17974 0.48440
 C1321 C 0.55088 0.11261 0.70371
 C1322 C 0.57787 0.10454 0.69940
 C1323 C 0.59208 0.11775 0.67824
 C1324 C 0.58064 0.14038 0.66451
 C1325 C 0.55478 0.15066 0.67168
 C1326 C 0.53973 0.13532 0.69054
 C1327 C 0.52446 0.14392 0.71550
 C1328 C 0.53642 0.11880 0.72964
 H1329 H 0.61237 0.11114 0.67276
 H1330 H 0.59257 0.15060 0.64905
 H1331 H 0.50200 0.14239 0.71237
 H1332 H 0.53199 0.16377 0.72484
 H1333 H 0.52089 0.10262 0.73427
 H1334 H 0.55065 0.12431 0.74680
 C1335 C 1.05781 0.59711 0.18152
 C1336 C 1.08527 0.58986 0.17908
 C1337 C 1.10183 0.60693 0.16279
 C1338 C 1.09181 0.63198 0.15234
 C1339 C 1.06514 0.64081 0.15824
 C1340 C 1.04806 0.62208 0.17171
 C1341 C 1.02965 0.62572 0.19562
 C1342 C 1.04016 0.59816 0.20605
 H1343 H 1.12276 0.60139 0.15875
 H1344 H 1.10532 0.64502 0.14063
 H1345 H 1.00773 0.62492 0.18951
 H1346 H 1.03566 0.64340 0.20932
 H1347 H 1.02439 0.58141 0.20561
 H1348 H 1.05213 0.60016 0.22546
 C1349 C 0.97978 0.88331 0.20596
 C1350 C 0.96022 0.87726 0.22561
 C1351 C 0.95623 0.84904 0.23213
 C1352 C 0.96833 0.82783 0.21638
 C1353 C 0.98451 0.83440 0.19362
 C1354 C 0.99154 0.86246 0.19035
 C1355 C 0.99131 0.87982 0.16530
 C1356 C 0.97844 0.90265 0.18244
 H1357 H 0.94249 0.84327 0.24828
 H1358 H 0.96374 0.80643 0.22117
 H1359 H 0.97750 0.87125 0.14898
 H1360 H 1.01225 0.88522 0.15856
 H1361 H 0.95713 0.90737 0.17609
 H1362 H 0.99199 0.92111 0.18558
 C1363 C 0.47082 0.39865 0.68605
 C1364 C 0.45064 0.39535 0.70572
 C1365 C 0.44610 0.36828 0.71551
 C1366 C 0.45852 0.34517 0.70298
 C1367 C 0.47560 0.34859 0.68021
 C1368 C 0.48293 0.37589 0.67358
 C1369 C 0.48349 0.38975 0.64648
 C1370 C 0.47024 0.41467 0.66018
 H1371 H 0.43186 0.36479 0.73187
 H1372 H 0.45360 0.32464 0.71029
 H1373 H 0.47009 0.37916 0.63096
 H1374 H 0.50465 0.39413 0.63973
 H1375 H 0.44913 0.41855 0.65264
 H1376 H 0.48380 0.43331 0.66135
 C1377 C 0.46541 0.59660 0.79899
 C1378 C 0.44280 0.59830 0.78123
 C1379 C 0.43130 0.62497 0.77792
 C1380 C 0.44379 0.64882 0.78979
 C1381 C 0.46775 0.64666 0.80574
 C1382 C 0.47735 0.62004 0.81113
 C1383 C 0.50545 0.60889 0.80806
 C1384 C 0.49245 0.58325 0.79468
 H1385 H 0.41266 0.62768 0.76626
 H1386 H 0.43462 0.66893 0.78660
 H1387 H 0.51527 0.60464 0.82815
 H1388 H 0.51806 0.62129 0.79386
 H1389 H 0.49499 0.56425 0.80705
 H1390 H 0.49743 0.58076 0.77268
 C1391 C -0.05062 0.08800 0.32065
 C1392 C -0.06464 0.08303 0.29599
 C1393 C -0.07034 0.10615 0.27958
 C1394 C -0.05992 0.13275 0.28667
 C1395 C -0.04312 0.13684 0.31017
 C1396 C -0.04001 0.11405 0.32742
 C1397 C -0.01473 0.10200 0.33961
 C1398 C -0.02644 0.07348 0.33224
 H1399 H -0.08264 0.10366 0.26116
 H1400 H -0.06486 0.14986 0.27348
 H1401 H -0.01319 0.10584 0.36203
 H1402 H 0.00390 0.10739 0.32801
 H1403 H -0.03176 0.06103 0.35040
 H1404 H -0.01460 0.06223 0.31640
 C1405 C 0.07862 0.35687 0.24110
 C1406 C 0.06545 0.38225 0.23779
 C1407 C 0.03690 0.38261 0.24037
 C1408 C 0.02291 0.35923 0.25048
 C1409 C 0.03738 0.33531 0.25848
 C1410 C 0.06490 0.33393 0.25108
 C1411 C 0.08939 0.32478 0.26696
 C1412 C 0.10443 0.34988 0.25586
 H1413 H 0.02582 0.40166 0.23707
 H1414 H 0.00124 0.36085 0.25410
 H1415 H 0.09744 0.30469 0.25917
 H1416 H 0.08633 0.32592 0.28942
 H1417 H 0.12099 0.34420 0.24158
 H1418 H 0.11030 0.36536 0.27200
 C1419 C 0.56494 0.90385 0.82176
 C1420 C 0.57062 0.90750 0.79403
 C1421 C 0.56686 0.88399 0.77653
 C1422 C 0.55582 0.85891 0.78642
 C1423 C 0.54878 0.85657 0.81408
 C1424 C 0.55464 0.87907 0.83154
 C1425 C 0.53632 0.89351 0.85114
 C1426 C 0.54748 0.92072 0.84039
 H1427 H 0.57255 0.88465 0.75529
 H1428 H 0.55304 0.84133 0.77256
 H1429 H 0.54231 0.88972 0.87274
 H1430 H 0.51433 0.89001 0.84622
 H1431 H 0.55971 0.93263 0.85594
 H1432 H 0.53202 0.93304 0.82914
 C1433 C 0.72002 0.57970 0.13356
 C1434 C 0.71352 0.56909 0.10714
 C1435 C 0.69728 0.54436 0.10640
 C1436 C 0.68528 0.53387 0.13018
 C1437 C 0.68914 0.54743 0.15561
 C1438 C 0.70822 0.56913 0.15694
 C1439 C 0.70595 0.59693 0.17039
 C1440 C 0.71859 0.60881 0.14495
 H1441 H 0.69324 0.53282 0.08769
 H1442 H 0.67208 0.51574 0.12839
 H1443 H 0.71939 0.59900 0.18879
 H1444 H 0.68444 0.60333 0.17338
 H1445 H 0.73909 0.61813 0.14909
 H1446 H 0.70441 0.62212 0.13311
 C1447 C 0.21444 1.08712 0.62043
 C1448 C 0.20218 1.08414 0.59443
 C1449 C 0.18081 1.06433 0.59168
 C1450 C 0.17007 1.05107 0.61470
 C1451 C 0.18052 1.05707 0.64117
 C1452 C 0.20422 1.07350 0.64298
 C1453 C 0.21177 1.09668 0.66217
 C1454 C 0.22251 1.11200 0.63755
 H1455 H 0.17126 1.06021 0.57195
 H1456 H 0.15283 1.03707 0.61179
 H1457 H 0.22813 1.09071 0.67683
 H1458 H 0.19368 1.10663 0.67154
 H1459 H 0.24498 1.11536 0.63831
 H1460 H 0.21024 1.13075 0.63326
 C1461 C 0.21336 0.98480 0.88235
 C1462 C 0.22539 0.95825 0.88038
 C1463 C 0.22809 0.94733 0.85336
 C1464 C 0.21495 0.95964 0.83099
 C1465 C 0.19897 0.98346 0.83460
 C1466 C 0.20048 0.99696 0.86004
 C1467 C 0.17816 1.00875 0.87681
 C1468 C 0.19185 0.99547 0.90127
 H1469 H 0.23973 0.92887 0.84903
 H1470 H 0.21591 0.94948 0.81112
 H1471 H 0.15786 0.99948 0.87157
 H1472 H 0.17890 1.03184 0.87762
 H1473 H 0.17948 0.97850 0.91026
 H1474 H 0.20006 1.01109 0.91626
 C1475 C 0.69781 0.48308 0.40346
 C1476 C 0.72056 0.46618 0.39964
 C1477 C 0.73285 0.46639 0.37376
 C1478 C 0.71999 0.47944 0.35158
 C1479 C 0.69434 0.49218 0.35477
 C1480 C 0.68495 0.49570 0.38152
 C1481 C 0.65727 0.49063 0.39297
 C1482 C 0.67137 0.47684 0.41698
 H1483 H 0.75136 0.45483 0.37022
 H1484 H 0.72920 0.47780 0.33165
 H1485 H 0.64475 0.47597 0.38015
 H1486 H 0.64698 0.51031 0.39873
 H1487 H 0.66702 0.45416 0.41813
 H1488 H 0.66923 0.48861 0.43654
 C1489 C 0.78404 0.45916 0.60832
 C1490 C 0.79169 0.43264 0.59899
 C1491 C 0.81112 0.41836 0.61493
 C1492 C 0.82090 0.42951 0.63992
 C1493 C 0.81127 0.45509 0.64999
 C1494 C 0.79369 0.47012 0.63313
 C1495 C 0.76731 0.48389 0.63922
 C1496 C 0.75656 0.47175 0.61231
 H1497 H 0.81842 0.39819 0.60841
 H1498 H 0.83557 0.41782 0.65171
 H1499 H 0.76918 0.50693 0.63919
 H1500 H 0.75687 0.47513 0.65722
 H1501 H 0.75195 0.48781 0.59688
 H1502 H 0.74016 0.45601 0.61529
 C1503 C 0.28139 -0.02504 0.09818
 C1504 C 0.29144 -0.05010 0.08738
 C1505 C 0.31192 -0.06350 0.10283
 C1506 C 0.32011 -0.05331 0.12875
 C1507 C 0.30784 -0.02964 0.14028
 C1508 C 0.28955 -0.01501 0.12382
 C1509 C 0.26224 -0.00316 0.12970
 C1510 C 0.25306 -0.01441 0.10185
 H1511 H 0.32103 -0.08251 0.09536
 H1512 H 0.33540 -0.06452 0.14023
 H1513 H 0.26281 0.01992 0.13092
 H1514 H 0.25170 -0.01351 0.14679
 H1515 H 0.24796 0.00220 0.08715
 H1516 H 0.23750 -0.03121 0.10358
 C1517 C 0.24312 0.07222 0.36975
 C1518 C 0.25607 0.06642 0.39466
 C1519 C 0.27491 0.04442 0.39490
 C1520 C 0.28359 0.03216 0.37023
 C1521 C 0.27388 0.04199 0.34497
 C1522 C 0.25206 0.06057 0.34541
 C1523 C 0.24655 0.08650 0.32995
 C1524 C 0.23688 0.09931 0.35671
 H1525 H 0.28454 0.03830 0.41389
 H1526 H 0.29985 0.01708 0.37081
 H1527 H 0.22983 0.08356 0.31458
 H1528 H 0.26525 0.09673 0.32220
 H1529 H 0.21467 0.10382 0.35663
 H1530 H 0.25026 0.11653 0.36452
 C1531 C 0.78862 0.53684 0.90125
 C1532 C 0.77331 0.56126 0.90202
 C1533 C 0.76963 0.57538 0.87718
 C1534 C 0.77936 0.56418 0.85249
 C1535 C 0.79300 0.53849 0.85180
 C1536 C 0.79809 0.52563 0.87683
 C1537 C 0.79182 0.49668 0.88568
 C1538 C 0.78185 0.50903 0.91242
 H1539 H 0.75956 0.59529 0.87674
 H1540 H 0.77620 0.57567 0.83388
 H1541 H 0.81056 0.48409 0.88814
 H1542 H 0.77517 0.48657 0.87337
 H1543 H 0.79505 0.50385 0.93023
 H1544 H 0.75959 0.50600 0.91555
 C1545 C 0.10060 0.71106 0.54415
 C1546 C 0.08802 0.69881 0.56657
 C1547 C 0.09689 0.67210 0.57393
 C1548 C 0.11976 0.66011 0.56157
 C1549 C 0.13458 0.67446 0.54156
 C1550 C 0.12351 0.69944 0.53219
 C1551 C 0.13598 0.72746 0.52763
 C1552 C 0.11068 0.74002 0.54038
 H1553 H 0.08679 0.66082 0.58996
 H1554 H 0.12661 0.64010 0.56868
 H1555 H 0.13791 0.73211 0.50556
 H1556 H 0.15460 0.73161 0.54027
 H1557 H 0.09787 0.75153 0.52554
 H1558 H 0.11487 0.75111 0.56011
 C1559 C 0.62300 0.20360 1.06473
 C1560 C 0.61188 0.19596 1.08977
 C1561 C 0.62347 0.17297 1.10301
 C1562 C 0.64712 0.16036 1.09285
 C1563 C 0.66006 0.17064 1.06943
 C1564 C 0.64666 0.19151 1.05495
 C1565 C 0.65677 0.21856 1.04414
 C1566 C 0.63068 0.23160 1.05457
 H1567 H 0.61464 0.16509 1.12156
 H1568 H 0.65585 0.14317 1.10389
 H1569 H 0.65805 0.21825 1.02148
 H1570 H 0.67521 0.22671 1.05512
 H1571 H 0.61681 0.23849 1.03791
 H1572 H 0.63421 0.24705 1.07141
 C1573 C 0.87497 0.21656 0.96653
 C1574 C 0.90241 0.20870 0.97103
 C1575 C 0.90646 0.18883 0.99203
 C1576 C 0.88426 0.17493 1.00408
 C1577 C 0.85738 0.18032 0.99563
 C1578 C 0.85329 0.20263 0.97829
 C1579 C 0.83505 0.20557 0.95399
 C1580 C 0.85865 0.22055 0.94068
 H1581 H 0.92654 0.18317 0.99916
 H1582 H 0.88822 0.15868 1.01865
 H1583 H 0.81747 0.21932 0.95828
 H1584 H 0.82978 0.18554 0.94360
 H1585 H 0.85406 0.24275 0.93686
 H1586 H 0.86714 0.20895 0.92295
 C1587 C 0.37414 0.71228 0.47195
 C1588 C 0.38847 0.70115 0.44986
 C1589 C 0.38195 0.67381 0.44130
 C1590 C 0.35911 0.65996 0.45183
 C1591 C 0.34198 0.67339 0.47079
 C1592 C 0.35132 0.69872 0.48214
 C1593 C 0.33658 0.72538 0.48657
 C1594 C 0.36155 0.74019 0.47544
 H1595 H 0.39352 0.66379 0.42529
 H1596 H 0.35400 0.63945 0.44383
 H1597 H 0.33323 0.72987 0.50861
 H1598 H 0.31816 0.72714 0.47324
 H1599 H 0.37256 0.75317 0.49107
 H1600 H 0.35763 0.75055 0.45563
 C1601 C 0.60021 0.77166 0.45684
 C1602 C 0.57757 0.78918 0.45578
 C1603 C 0.57926 0.81435 0.47086
 C1604 C 0.60419 0.82330 0.48274
 C1605 C 0.62804 0.80736 0.47962
 C1606 C 0.62484 0.78054 0.46843
 C1607 C 0.64103 0.76582 0.44714
 C1608 C 0.61405 0.75607 0.43446
 H1609 H 0.56176 0.82786 0.47218
 H1610 H 0.60504 0.84339 0.49298
 H1611 H 0.65320 0.74861 0.45581
 H1612 H 0.65259 0.78036 0.43404
 H1613 H 0.61072 0.73325 0.43586
 H1614 H 0.60994 0.76491 0.41397
 C1615 C 0.10840 0.31250 -0.04329
 C1616 C 0.10365 0.28573 -0.05384
 C1617 C 0.12659 0.26860 -0.05766
 C1618 C 0.15294 0.27774 -0.04930
 C1619 C 0.15694 0.30418 -0.03683
 C1620 C 0.13414 0.32138 -0.03498
 C1621 C 0.12328 0.33688 -0.01087
 C1622 C 0.09500 0.32713 -0.02004
 H1623 H 0.12426 0.24830 -0.06730
 H1624 H 0.17007 0.26418 -0.05283
 H1625 H 0.12629 0.35971 -0.01257
 H1626 H 0.13002 0.32797 0.00891
 H1627 H 0.08178 0.34433 -0.02706
 H1628 H 0.08527 0.31254 -0.00560
 C1629 C 0.41868 0.31032 0.05164
 C1630 C 0.41922 0.28362 0.06244
 C1631 C 0.39546 0.26701 0.05908
 C1632 C 0.37279 0.27664 0.04391
 C1633 C 0.37342 0.30304 0.03164
 C1634 C 0.39656 0.31969 0.03669
 C1635 C 0.41437 0.33448 0.01700
 C1636 C 0.43866 0.32422 0.03346
 H1637 H 0.39417 0.24683 0.06849
 H1638 H 0.35473 0.26359 0.04225
 H1639 H 0.41192 0.35740 0.01828
 H1640 H 0.41301 0.32537 -0.00400
 H1641 H 0.45013 0.34122 0.04425
 H1642 H 0.45146 0.30915 0.02205
 C1643 C 0.86545 0.79333 0.59880
 C1644 C 0.88112 0.77254 0.58636
 C1645 C 0.86856 0.75738 0.56448
 C1646 C 0.84314 0.76558 0.55348
 C1647 C 0.82940 0.78873 0.56446
 C1648 C 0.84033 0.80104 0.58828
 C1649 C 0.84514 0.83102 0.59521
 C1650 C 0.87277 0.82265 0.60667
 H1651 H 0.87858 0.73983 0.55507
 H1652 H 0.83481 0.75452 0.53579
 H1653 H 0.83102 0.83872 0.61116
 H1654 H 0.84656 0.84420 0.57681
 H1655 H 0.87446 0.82582 0.62918
 H1656 H 0.89023 0.83095 0.59491
   
