data_POSCAR
  _audit_creation_date              2014-09-24
  _audit_creation_method            'ToBaCCo'
  _symmetry_space_group_name_H-M    'P1'
  _symmetry_Int_Tables_number       1
  _symmetry_cell_setting            triclinic
  loop_
  _symmetry_equiv_pos_as_xyz
 x,y,z
_cell_length_a 52.9445
_cell_length_b 52.5407
_cell_length_c 53.1411
_cell_angle_alpha 90.568100
_cell_angle_beta 89.226300
_cell_angle_gamma 87.444800
loop_
  _atom_site_label
  _atom_site_type_symbol
  _atom_site_fract_x
  _atom_site_fract_y
  _atom_site_fract_z
C1 C 0.13181 0.00914 0.23355
 C2 C 0.38192 0.00170 0.74489
 C3 C 0.87993 0.49136 0.25092
 C4 C 0.63192 0.49950 0.76474
 C5 C 0.23574 0.13498 0.99939
 C6 C 0.75527 0.35930 0.99672
 C7 C 0.24878 0.85737 0.51067
 C8 C 0.74463 0.62258 0.50176
 C9 C 0.00213 0.23482 0.12529
 C10 C -0.01414 0.76675 0.37307
 C11 C 0.49903 0.25936 0.86544
 C12 C 0.50121 0.76705 0.62782
 C13 C 0.88849 0.98562 0.73956
 C14 C 0.38745 0.49833 0.26683
 C15 C 0.62206 0.99947 0.23829
 C16 C 0.11925 0.51218 0.74661
 C17 C 0.75181 0.87543 0.00423
 C18 C 0.25702 0.37582 0.50901
 C19 C 0.24157 0.61415 0.00761
 C20 C 0.74234 0.10750 0.49763
 C21 C 1.00202 0.73177 0.87220
 C22 C 0.50096 0.26469 0.37139
 C23 C 1.00116 0.26078 0.62041
 C24 C 0.48995 0.76298 0.12233
 O25 O -0.01234 0.91997 0.96818
 O26 O -0.00387 0.91351 1.01122
 O27 O -0.06744 0.98438 0.97360
 O28 O -0.06845 1.02455 0.98568
 O29 O -0.00563 0.98266 0.91793
 O30 O 0.03774 0.99155 0.92055
 O31 O -0.00027 1.03860 1.04657
 O32 O -0.04096 1.02245 1.04700
 O33 O 0.04979 0.97373 1.04686
 O34 O 0.05642 0.93630 1.02095
 O35 O 0.06093 1.03366 0.99618
 O36 O 0.04275 1.04622 0.95619
 O37 O 0.02117 1.05674 1.01454
 O38 O 0.01043 1.06323 0.96930
 O39 O 0.07441 0.99521 1.01140
 O40 O 0.07383 0.95123 0.99136
 O41 O 0.01576 0.99614 1.06357
 O42 O -0.02922 0.98494 1.06160
 O43 O 0.00986 0.93788 0.93647
 O44 O 0.05052 0.95674 0.93550
 O45 O -0.04133 1.00260 0.93412
 O46 O -0.04332 1.04258 0.96026
 O47 O -0.05464 0.94532 0.98798
 O48 O -0.03504 0.93327 1.02692
 Zr49 Zr -0.01588 0.94897 0.99598
 O50 O 0.00686 0.96580 1.02325
 Zr51 Zr -0.03460 1.00526 0.97321
 O52 O -0.01349 1.02455 1.00025
 Zr53 Zr 0.01663 0.97477 0.94954
 O54 O 0.04022 0.99330 0.97476
 Zr55 Zr -0.00831 1.00234 1.03263
 O56 O -0.03260 0.98455 1.00706
 Zr57 Zr 0.04285 0.97230 1.00808
 O58 O 0.02123 0.95227 0.98183
 Zr59 Zr 0.02328 1.02865 0.98593
 O60 O 0.00134 1.01158 0.95783
 O61 O -0.01987 0.96930 0.96285
 O62 O 0.02807 1.00822 1.01909
 C63 C -0.00121 0.91916 0.94649
 C64 C -0.07167 0.96148 0.98006
 C65 C -0.02767 0.99348 0.91563
 C66 C 0.01125 1.05714 1.03676
 C67 C 0.03740 0.98421 1.06539
 C68 C 0.07784 1.01855 1.00578
 H69 H 0.00804 0.95461 1.03805
 H70 H 0.05696 0.99522 0.96674
 H71 H -0.03057 0.96048 0.95069
 H72 H -0.02216 1.04113 1.00445
 H73 H -0.05563 1.01531 1.03847
 H74 H -0.06464 1.03348 1.00155
 H75 H 0.08170 0.96212 0.97865
 H76 H 0.05497 0.94275 0.94720
 H77 H -0.02066 0.96839 1.06562
 H78 H -0.04610 0.94719 1.03427
 H79 H 0.05548 1.03362 0.94924
 H80 H 0.03223 1.00979 0.92032
 H81 H 0.01396 0.91039 1.00576
 H82 H 0.04297 0.92929 1.03158
 H83 H -0.03069 1.04622 0.94701
 H84 H -0.00521 1.06930 0.97829
 O85 O 0.48380 0.43322 0.50806
 O86 O 0.50061 0.43159 0.54906
 O87 O 0.42420 0.49080 0.51562
 O88 O 0.42019 0.53103 0.52912
 O89 O 0.47446 0.49138 0.45238
 O90 O 0.51450 0.50554 0.44573
 O91 O 0.49696 0.55885 0.57352
 O92 O 0.45905 0.53930 0.58307
 O93 O 0.55305 0.50062 0.56789
 O94 O 0.56061 0.46324 0.54575
 O95 O 0.54646 0.55680 0.51277
 O96 O 0.52007 0.56386 0.47629
 O97 O 0.50869 0.57677 0.53663
 O98 O 0.48864 0.57784 0.49392
 O99 O 0.56748 0.52126 0.52705
 O100 O 0.56633 0.47411 0.50919
 O101 O 0.51966 0.51829 0.59028
 O102 O 0.47680 0.50394 0.59731
 O103 O 0.49705 0.44997 0.47106
 O104 O 0.53689 0.47270 0.46392
 O105 O 0.44104 0.51089 0.47341
 O106 O 0.43753 0.55132 0.49806
 O107 O 0.44378 0.45497 0.53120
 O108 O 0.47030 0.45021 0.56861
 Zr109 Zr 0.48223 0.46416 0.53341
 O110 O 0.50765 0.48550 0.55409
 Zr111 Zr 0.45334 0.51605 0.51069
 O112 O 0.47635 0.53979 0.53179
 Zr113 Zr 0.50267 0.48872 0.47971
 O114 O 0.52773 0.51244 0.49832
 Zr115 Zr 0.49013 0.52091 0.56389
 O116 O 0.46364 0.49863 0.54494
 Zr117 Zr 0.53899 0.49467 0.53174
 O118 O 0.51545 0.46982 0.51219
 Zr119 Zr 0.50882 0.54660 0.51023
 O120 O 0.48476 0.52450 0.48831
 O121 O 0.47031 0.48111 0.50028
 O122 O 0.52218 0.52963 0.54304
 C123 C 0.49003 0.43134 0.48467
 C124 C 0.42413 0.46781 0.52349
 C125 C 0.45176 0.50113 0.45346
 C126 C 0.50372 0.57781 0.56035
 C127 C 0.54278 0.50978 0.58822
 C128 C 0.56658 0.54454 0.51970
 H129 H 0.51302 0.47565 0.56900
 H130 H 0.54231 0.51552 0.48712
 H131 H 0.45895 0.47037 0.49058
 H132 H 0.46668 0.55570 0.53651
 H133 H 0.44382 0.53035 0.57803
 H134 H 0.42558 0.54291 0.54234
 H135 H 0.57349 0.48611 0.49708
 H136 H 0.53296 0.46305 0.44841
 H137 H 0.48636 0.48755 0.59957
 H138 H 0.45728 0.46266 0.57538
 H139 H 0.53285 0.55225 0.46790
 H140 H 0.50792 0.52347 0.44627
 H141 H 0.51727 0.42950 0.54043
 H142 H 0.54903 0.45321 0.55603
 H143 H 0.44715 0.55588 0.48277
 H144 H 0.47508 0.58369 0.50589
 O145 O 0.43042 -0.04079 0.47724
 O146 O 0.45625 -0.04741 0.43922
 O147 O 0.48586 -0.04586 0.53503
 O148 O 0.52095 -0.02613 0.54552
 O149 O 0.42937 0.01747 0.53448
 O150 O 0.42876 0.05694 0.51160
 O151 O 0.55689 0.02041 0.47578
 O152 O 0.55636 -0.02211 0.49330
 O153 O 0.50708 0.01809 0.41435
 O154 O 0.46186 0.00502 0.41074
 O155 O 0.49975 0.07839 0.46752
 O156 O 0.48154 0.08213 0.51092
 O157 O 0.53753 0.05731 0.49018
 O158 O 0.51175 0.06635 0.52798
 O159 O 0.48608 0.05976 0.43169
 O160 O 0.44812 0.04183 0.42363
 O161 O 0.54055 0.00049 0.43539
 O162 O 0.54548 -0.03799 0.45669
 O163 O 0.41181 -0.00286 0.49410
 O164 O 0.41252 0.03903 0.47640
 O165 O 0.46276 -0.00235 0.55396
 O166 O 0.50549 0.01117 0.55804
 O167 O 0.46941 -0.06266 0.49951
 O168 O 0.48638 -0.06635 0.45802
 Zr169 Zr 0.46905 -0.03271 0.47374
 O170 O 0.49470 -0.01305 0.45140
 Zr171 Zr 0.49108 -0.00729 0.52602
 O172 O 0.51703 0.01434 0.50583
 Zr173 Zr 0.44227 0.02108 0.49703
 O174 O 0.46608 0.04299 0.47477
 Zr175 Zr 0.52699 -0.00462 0.47205
 O176 O 0.50295 -0.02768 0.49333
 Zr177 Zr 0.47825 0.02261 0.44225
 O178 O 0.45135 0.00196 0.46275
 Zr179 Zr 0.49940 0.04905 0.49445
 O180 O 0.47460 0.02884 0.51771
 O181 O 0.45805 -0.01426 0.50707
 O182 O 0.51129 0.03061 0.46119
 C183 C 0.40956 -0.02700 0.48595
 C184 C 0.47718 -0.06440 0.52220
 C185 C 0.44031 0.00805 0.55398
 C186 C 0.55712 0.04385 0.48298
 C187 C 0.53010 0.00924 0.41547
 C188 C 0.49394 0.07884 0.44409
 H189 H 0.49908 -0.02334 0.43617
 H190 H 0.45689 0.05909 0.47033
 H191 H 0.44644 -0.02438 0.51726
 H192 H 0.53207 0.01697 0.51621
 H193 H 0.54915 -0.03683 0.50192
 H194 H 0.53697 -0.01922 0.53943
 H195 H 0.43263 0.03844 0.43342
 H196 H 0.39674 0.03931 0.48674
 H197 H 0.53324 -0.04666 0.44611
 H198 H 0.50277 -0.06904 0.46657
 H199 H 0.46710 0.08739 0.50025
 H200 H 0.43984 0.06146 0.52566
 H201 H 0.44352 -0.03481 0.43278
 H202 H 0.47234 -0.01046 0.40629
 H203 H 0.49699 0.02832 0.55909
 H204 H 0.52442 0.05452 0.53566
 O205 O -0.05877 0.44415 0.98651
 O206 O -0.03425 0.43701 0.94894
 O207 O -0.00300 0.42490 1.04301
 O208 O 0.03197 0.43939 1.05789
 O209 O -0.05295 0.49405 1.04985
 O210 O -0.05180 0.53488 1.03100
 O211 O 0.07481 0.48641 0.99056
 O212 O 0.06966 0.44381 1.00220
 O213 O 0.02497 0.50069 0.93135
 O214 O -0.01966 0.49550 0.92455
 O215 O 0.02584 0.55264 0.99176
 O216 O 0.00974 0.55376 1.03439
 O217 O 0.06093 0.52337 1.00979
 O218 O 0.03547 0.52995 1.05005
 O219 O 0.00874 0.54188 0.95435
 O220 O -0.03380 0.52600 0.94351
 O221 O 0.05580 0.47523 0.94864
 O222 O 0.05363 0.43251 0.96610
 O223 O -0.07273 0.48106 1.00585
 O224 O -0.06675 0.52507 0.99631
 O225 O -0.02236 0.46835 1.06729
 O226 O 0.02322 0.47667 1.07161
 O227 O -0.02263 0.41446 1.00674
 O228 O -0.00526 0.41391 0.96459
 Zr229 Zr -0.01926 0.44690 0.98420
 O230 O 0.00822 0.46611 0.96369
 Zr231 Zr 0.00554 0.46330 1.03880
 O232 O 0.03451 0.48260 1.02063
 Zr233 Zr -0.03952 0.50028 1.01318
 O234 O -0.01259 0.52176 0.99443
 Zr235 Zr 0.04158 0.46703 0.98458
 O236 O 0.01498 0.44540 1.00403
 Zr237 Zr -0.00333 0.50458 0.95947
 O238 O -0.03246 0.48451 0.97708
 Zr239 Zr 0.02161 0.52035 1.01415
 O240 O -0.00654 0.50170 1.03474
 O241 O -0.02827 0.46247 1.01946
 O242 O 0.03074 0.50517 0.97864
 C243 C -0.07642 0.45948 0.99529
 C244 C -0.01416 0.40920 1.02870
 C245 C -0.04348 0.48140 1.06824
 C246 C 0.07847 0.50828 1.00045
 C247 C 0.04660 0.48857 0.93060
 C248 C 0.01941 0.55757 0.96908
 H249 H 0.01108 0.45758 0.94718
 H250 H -0.01958 0.53940 0.99265
 H251 H -0.04116 0.45280 1.02846
 H252 H 0.04992 0.48159 1.03093
 H253 H 0.06081 0.43010 1.01087
 H254 H 0.04866 0.44164 1.04986
 H255 H -0.03778 0.54089 0.95463
 H256 H -0.06854 0.51898 0.97876
 H257 H 0.04320 0.43033 0.95101
 H258 H 0.01063 0.40831 0.97291
 H259 H -0.00598 0.56060 1.02662
 H260 H -0.03917 0.53842 1.04401
 H261 H -0.04307 0.45259 0.94254
 H262 H -0.01442 0.47767 0.92025
 H263 H 0.01500 0.49346 1.07598
 H264 H 0.04907 0.51726 1.05429
 O265 O 0.07591 0.48635 0.50243
 O266 O 0.08122 0.52782 0.48455
 O267 O 0.02373 0.50504 0.56374
 O268 O -0.01506 0.52345 0.56808
 O269 O 0.01144 0.44071 0.51452
 O270 O -0.00512 0.43753 0.47270
 O271 O -0.04181 0.57152 0.49498
 O272 O -0.01725 0.57641 0.53231
 O273 O 0.01343 0.55956 0.43676
 O274 O 0.05072 0.52882 0.43139
 O275 O -0.04741 0.51220 0.44218
 O276 O -0.05677 0.47492 0.46939
 O277 O -0.06352 0.53774 0.48145
 O278 O -0.06974 0.49587 0.49878
 O279 O -0.01128 0.52290 0.42207
 O280 O 0.03020 0.50024 0.41868
 O281 O -0.00209 0.58301 0.47015
 O282 O 0.01532 0.58884 0.51051
 O283 O 0.05358 0.45263 0.48964
 O284 O 0.02823 0.44626 0.45364
 O285 O -0.00173 0.46480 0.54843
 O286 O -0.03848 0.49402 0.55256
 O287 O 0.05983 0.51398 0.54250
 O288 O 0.06914 0.54874 0.51640
 Zr289 Zr 0.04887 0.51699 0.50485
 O290 O 0.02874 0.54226 0.48119
 Zr291 Zr -0.00353 0.50245 0.53540
 O292 O -0.02608 0.52678 0.51274
 Zr293 Zr 0.01644 0.46771 0.48589
 O294 O -0.00483 0.49075 0.46094
 Zr295 Zr -0.00457 0.55653 0.49936
 O296 O 0.01737 0.53382 0.52440
 Zr297 Zr 0.01611 0.52196 0.45002
 O298 O 0.03864 0.49707 0.47231
 Zr299 Zr -0.03660 0.50714 0.48003
 O300 O -0.01671 0.48182 0.50438
 O301 O 0.02872 0.48654 0.51772
 O302 O -0.01667 0.53788 0.46722
 C303 C 0.07418 0.46286 0.49590
 C304 C 0.04738 0.50966 0.56277
 C305 C 0.00405 0.44334 0.53761
 C306 C -0.06220 0.56119 0.48812
 C307 C 0.00554 0.58064 0.44716
 C308 C -0.03487 0.51858 0.42249
 H309 H 0.03976 0.55601 0.47602
 H310 H -0.00967 0.48040 0.44630
 H311 H 0.03886 0.47523 0.52889
 H312 H -0.04089 0.53335 0.52273
 H313 H -0.00606 0.57066 0.54613
 H314 H -0.02651 0.53770 0.56273
 H315 H 0.01930 0.48561 0.41645
 H316 H 0.04036 0.45668 0.44443
 H317 H 0.03269 0.58694 0.50351
 H318 H 0.05765 0.55908 0.52771
 H319 H -0.04805 0.46683 0.45460
 H320 H -0.02178 0.43939 0.48136
 H321 H 0.08168 0.51790 0.46860
 H322 H 0.05792 0.54391 0.43938
 H323 H -0.04594 0.48067 0.54210
 H324 H -0.07145 0.50579 0.51467
 O325 O 0.44707 1.06575 0.00229
 O326 O 0.46790 1.06501 0.04134
 O327 O 0.50837 1.06927 -0.05070
 O328 O 0.54435 1.04728 -0.05952
 O329 O 0.45059 1.01618 -0.06295
 O330 O 0.44329 0.97614 -0.04800
 O331 O 0.56851 0.98646 0.00804
 O332 O 0.57351 1.02906 -0.00216
 O333 O 0.50879 0.98671 0.06149
 O334 O 0.46777 1.00076 0.06492
 O335 O 0.50929 0.93604 -0.00123
 O336 O 0.49904 0.94042 -0.04533
 O337 O 0.55096 0.95511 -0.01474
 O338 O 0.53035 0.95660 -0.05720
 O339 O 0.49001 0.95060 0.03491
 O340 O 0.44829 0.97992 0.03970
 O341 O 0.54574 1.00325 0.04864
 O342 O 0.55493 1.04488 0.03195
 O343 O 0.42836 1.03308 -0.02031
 O344 O 0.42662 0.98787 -0.00953
 O345 O 0.48769 1.03173 -0.07690
 O346 O 0.53103 1.01292 -0.07739
 O347 O 0.48922 1.08443 -0.01468
 O348 O 0.50242 1.07918 0.02870
 Zr349 Zr 0.48435 1.05157 0.00697
 O350 O 0.50428 1.02462 0.02887
 Zr351 Zr 0.51186 1.02968 -0.04569
 O352 O 0.53412 1.00247 -0.02589
 Zr353 Zr 0.45818 1.00550 -0.02580
 O354 O 0.47804 0.97658 -0.00607
 Zr355 Zr 0.53922 1.01476 0.01135
 O356 O 0.52024 1.04379 -0.00960
 Zr357 Zr 0.48537 0.99032 0.03015
 O358 O 0.46347 1.01865 0.01119
 Zr359 Zr 0.51401 0.96908 -0.02238
 O360 O 0.49275 0.99555 -0.04423
 O361 O 0.47683 1.03926 -0.02926
 O362 O 0.52087 0.98055 0.01445
 C363 C 0.42642 1.05609 -0.00820
 C364 C 0.49895 1.08746 -0.03666
 C365 C 0.46479 1.02533 -0.08014
 C366 C 0.56940 0.96450 -0.00287
 C367 C 0.53148 0.99324 0.06526
 C368 C 0.49948 0.93265 0.02060
 H369 H 0.50619 1.03189 0.04593
 H370 H 0.46787 0.96125 -0.00569
 H371 H 0.46683 1.05216 -0.03883
 H372 H 0.55059 0.99937 -0.03463
 H373 H 0.56900 1.04476 -0.01156
 H374 H 0.55920 1.03856 -0.05178
 H375 H 0.44545 0.96334 0.03147
 H376 H 0.41131 0.99243 -0.01938
 H377 H 0.54280 1.05040 0.04544
 H378 H 0.51927 1.08123 0.02088
 H379 H 0.48178 0.93742 -0.03900
 H380 H 0.45727 0.96915 -0.05892
 H381 H 0.45507 1.05274 0.04615
 H382 H 0.47144 1.01878 0.06815
 H383 H 0.52135 0.99814 -0.08267
 H384 H 0.54634 0.96538 -0.05964
 O385 O 0.48363 0.51529 0.08191
 O386 O 0.52634 0.49841 0.08567
 O387 O 0.49487 0.57399 0.02567
 O388 O 0.51078 0.57454 -0.01377
 O389 O 0.43257 0.52401 0.01918
 O390 O 0.42941 0.48060 0.00620
 O391 O 0.55838 0.49723 -0.03904
 O392 O 0.56388 0.53712 -0.01698
 O393 O 0.55299 0.44322 0.01909
 O394 O 0.52661 0.44167 0.05847
 O395 O 0.49959 0.44480 -0.03768
 O396 O 0.46178 0.47376 -0.04688
 O397 O 0.52403 0.48046 -0.05705
 O398 O 0.48220 0.50047 -0.06319
 O399 O 0.51344 0.42695 -0.00131
 O400 O 0.49653 0.42810 0.04138
 O401 O 0.57431 0.47550 0.00176
 O402 O 0.58015 0.51679 0.01547
 O403 O 0.44837 0.50308 0.06183
 O404 O 0.44165 0.46426 0.03984
 O405 O 0.45370 0.55689 0.00277
 O406 O 0.48003 0.55779 -0.03482
 O407 O 0.50737 0.55511 0.06209
 O408 O 0.54413 0.52919 0.07081
 Zr409 Zr 0.51151 0.51612 0.05316
 O410 O 0.53569 0.48995 0.03321
 Zr411 Zr 0.49166 0.54305 0.00034
 O412 O 0.51475 0.51763 -0.02199
 Zr413 Zr 0.46074 0.49530 0.02482
 O414 O 0.48252 0.46785 0.00406
 Zr415 Zr 0.54653 0.50517 -0.00157
 O416 O 0.52495 0.53285 0.01994
 Zr417 Zr 0.51560 0.45780 0.02371
 O418 O 0.49212 0.48278 0.04605
 Zr419 Zr 0.49552 0.48415 -0.02932
 O420 O 0.47127 0.51101 -0.00977
 O421 O 0.47915 0.52813 0.03412
 O422 O 0.52813 0.47206 -0.01056
 C423 C 0.46022 0.50967 0.08157
 C424 C 0.50122 0.57474 0.04897
 C425 C 0.43338 0.54654 0.01013
 C426 C 0.54701 0.48715 -0.05765
 C427 C 0.57313 0.45279 0.01034
 C428 C 0.50666 0.42557 -0.02430
 H429 H 0.55050 0.48539 0.04362
 H430 H 0.47212 0.45304 0.00080
 H431 H 0.46822 0.54039 0.04405
 H432 H 0.51982 0.52618 -0.03763
 H433 H 0.55901 0.55196 -0.00603
 H434 H 0.52397 0.56782 -0.02574
 H435 H 0.48040 0.42613 0.03255
 H436 H 0.45289 0.45646 0.05266
 H437 H 0.57831 0.51428 0.03378
 H438 H 0.55232 0.54049 0.05866
 H439 H 0.45480 0.45964 -0.03719
 H440 H 0.42925 0.48799 -0.01087
 H441 H 0.51791 0.48206 0.08734
 H442 H 0.54215 0.44979 0.06393
 H443 H 0.46742 0.54620 -0.04149
 H444 H 0.49197 0.51572 -0.06653
 O445 O -0.01192 0.01895 0.55899
 O446 O 0.03155 0.00630 0.56291
 O447 O -0.00875 0.08458 0.51135
 O448 O 0.00816 0.09352 0.47397
 O449 O -0.06164 0.02771 0.49577
 O450 O -0.05847 -0.01353 0.47705
 O451 O 0.06806 0.02659 0.44133
 O452 O 0.06732 0.06358 0.46729
 O453 O 0.06846 -0.03525 0.49017
 O454 O 0.04330 -0.04784 0.52548
 O455 O 0.01711 -0.03171 0.43079
 O456 O -0.02299 -0.00820 0.42340
 O457 O 0.03647 0.01017 0.41859
 O458 O -0.00845 0.02499 0.41417
 O459 O 0.03134 -0.05367 0.46480
 O460 O 0.01311 -0.06014 0.50799
 O461 O 0.08502 0.00224 0.47895
 O462 O 0.08273 0.04350 0.50014
 O463 O -0.04355 0.00289 0.53591
 O464 O -0.04391 -0.03329 0.50778
 O465 O -0.04520 0.06527 0.48453
 O466 O -0.01839 0.07504 0.44860
 O467 O 0.00799 0.06391 0.54516
 O468 O 0.04692 0.04028 0.55241
 Zr469 Zr 0.01636 0.02641 0.53194
 O470 O 0.04414 0.00637 0.50985
 Zr471 Zr -0.00595 0.05743 0.48220
 O472 O 0.02130 0.03923 0.45810
 Zr473 Zr -0.02981 0.00254 0.49860
 O474 O -0.00406 -0.01815 0.47489
 Zr475 Zr 0.05361 0.02813 0.47840
 O476 O 0.02773 0.04948 0.50197
 Zr477 Zr 0.02939 -0.02673 0.49449
 O478 O 0.00251 -0.00837 0.51925
 Zr479 Zr 0.00727 0.00484 0.44497
 O480 O -0.02114 0.02445 0.46696
 O481 O -0.01674 0.03628 0.51310
 O482 O 0.04053 -0.00567 0.46351
 C483 C -0.03378 0.00940 0.55686
 C484 C -0.00176 0.08376 0.53435
 C485 C -0.06381 0.05130 0.48968
 C486 C 0.05862 0.01894 0.42060
 C487 C 0.08708 -0.02154 0.48416
 C488 C 0.02544 -0.05211 0.44147
 H489 H 0.05899 0.00223 0.52034
 H490 H -0.01217 -0.03364 0.46894
 H491 H -0.02942 0.04551 0.52406
 H492 H 0.02557 0.05072 0.44422
 H493 H 0.05903 0.07675 0.47846
 H494 H 0.02235 0.09076 0.46182
 H495 H -0.00065 -0.06441 0.49648
 H496 H -0.03244 -0.04089 0.52049
 H497 H 0.08544 0.03271 0.51508
 H498 H 0.05440 0.05355 0.54191
 H499 H -0.02950 -0.02331 0.43186
 H500 H -0.05882 -0.00441 0.46084
 H501 H 0.02593 -0.01136 0.56134
 H502 H 0.05370 -0.03650 0.53560
 H503 H -0.02989 0.06327 0.44036
 H504 H 0.00054 0.04099 0.41236
 O505 O 0.75075 0.22052 0.32359
 O506 O 0.76323 0.26395 0.32610
 O507 O 0.68514 0.22694 0.27735
 O508 O 0.67502 0.23710 0.23872
 O509 O 0.74546 0.16792 0.26269
 O510 O 0.78560 0.16870 0.24260
 O511 O 0.73814 0.29575 0.20433
 O512 O 0.70151 0.29707 0.23075
 O513 O 0.80055 0.29639 0.25221
 O514 O 0.81511 0.27282 0.28669
 O515 O 0.79823 0.24182 0.19357
 O516 O 0.77700 0.20187 0.18784
 O517 O 0.75543 0.26211 0.18192
 O518 O 0.74279 0.21691 0.17941
 O519 O 0.81980 0.25773 0.22645
 O520 O 0.82812 0.24014 0.27008
 O521 O 0.76092 0.31436 0.24113
 O522 O 0.72084 0.31367 0.26318
 O523 O 0.76932 0.18736 0.30131
 O524 O 0.80517 0.18468 0.27229
 O525 O 0.70656 0.18496 0.25307
 O526 O 0.69536 0.20995 0.21495
 O527 O 0.70663 0.24210 0.31072
 O528 O 0.72832 0.28091 0.31605
 Zr529 Zr 0.74289 0.24835 0.29610
 O530 O 0.76069 0.27447 0.27273
 Zr531 Zr 0.71211 0.22413 0.24793
 O532 O 0.72809 0.24978 0.22262
 Zr533 Zr 0.76849 0.19932 0.26366
 O534 O 0.78697 0.22322 0.23854
 Zr535 Zr 0.73773 0.28301 0.24171
 O536 O 0.71859 0.25890 0.26648
 Zr537 Zr 0.79402 0.25761 0.25700
 O538 O 0.77797 0.23254 0.28312
 Zr539 Zr 0.76278 0.23384 0.20900
 O540 O 0.74550 0.20699 0.23237
 O541 O 0.73440 0.21438 0.27849
 O542 O 0.77176 0.26801 0.22638
 C543 C 0.76132 0.19802 0.32194
 C544 C 0.68651 0.23448 0.30037
 C545 C 0.72187 0.16608 0.25825
 C546 C 0.74585 0.28497 0.18367
 C547 C 0.78572 0.31707 0.24616
 C548 C 0.81809 0.25063 0.20335
 H549 H 0.76423 0.28987 0.28265
 H550 H 0.80268 0.21426 0.23236
 H551 H 0.72579 0.20278 0.29003
 H552 H 0.71612 0.25378 0.20894
 H553 H 0.68911 0.28968 0.24239
 H554 H 0.67655 0.25227 0.22803
 H555 H 0.83346 0.22639 0.25805
 H556 H 0.81202 0.19636 0.28496
 H557 H 0.73169 0.31688 0.27777
 H558 H 0.71407 0.28808 0.30611
 H559 H 0.79245 0.19511 0.19617
 H560 H 0.77627 0.16783 0.22662
 H561 H 0.78051 0.25594 0.32515
 H562 H 0.80299 0.28194 0.29829
 H563 H 0.70715 0.19650 0.20785
 H564 H 0.72642 0.22652 0.17771
 O565 O 0.75471 0.69655 0.70081
 O566 O 0.78905 0.68403 0.72556
 O567 O 0.69356 0.70319 0.75508
 O568 O 0.68273 0.72604 0.78869
 O569 O 0.70329 0.76143 0.69842
 O570 O 0.72847 0.79589 0.69589
 O571 O 0.76057 0.76119 0.82611
 O572 O 0.73948 0.72344 0.82682
 O573 O 0.82032 0.75328 0.77617
 O574 O 0.82794 0.74002 0.73559
 O575 O 0.77192 0.81699 0.77201
 O576 O 0.73067 0.82660 0.75569
 O577 O 0.74807 0.79927 0.80930
 O578 O 0.70904 0.81069 0.78239
 O579 O 0.80603 0.79557 0.75426
 O580 O 0.81132 0.76745 0.71315
 O581 O 0.79823 0.73675 0.80870
 O582 O 0.77096 0.69940 0.81068
 O583 O 0.74308 0.73380 0.68180
 O584 O 0.76540 0.77468 0.68442
 O585 O 0.68026 0.74725 0.73154
 O586 O 0.67748 0.76423 0.77586
 O587 O 0.72791 0.67983 0.74023
 O588 O 0.77015 0.67242 0.75747
 Zr589 Zr 0.75712 0.70589 0.73903
 O590 O 0.78156 0.72432 0.76332
 Zr591 Zr 0.70672 0.73988 0.76030
 O592 O 0.72870 0.75843 0.78710
 Zr593 Zr 0.74030 0.76070 0.71197
 O594 O 0.76257 0.78187 0.73658
 Zr595 Zr 0.76100 0.73575 0.79578
 O596 O 0.73688 0.71547 0.77234
 Zr597 Zr 0.79350 0.75845 0.74763
 O598 O 0.77227 0.73775 0.72150
 Zr599 Zr 0.74298 0.79102 0.77053
 O600 O 0.71934 0.77339 0.74418
 O601 O 0.72601 0.72811 0.72765
 O602 O 0.77473 0.76918 0.78103
 C603 C 0.74930 0.70979 0.68133
 C604 C 0.70463 0.68224 0.74749
 C605 C 0.68237 0.75576 0.70901
 C606 C 0.75527 0.78514 0.82780
 C607 C 0.81861 0.74442 0.79856
 C608 C 0.79497 0.81559 0.76425
 H609 H 0.79616 0.71267 0.76708
 H610 H 0.76794 0.79724 0.72777
 H611 H 0.71519 0.71875 0.71603
 H612 H 0.71844 0.76255 0.80241
 H613 H 0.72705 0.71173 0.82003
 H614 H 0.69113 0.72881 0.80492
 H615 H 0.80661 0.78544 0.70938
 H616 H 0.75754 0.77326 0.66765
 H617 H 0.78660 0.69271 0.80210
 H618 H 0.75950 0.67089 0.77279
 H619 H 0.73914 0.82830 0.73913
 H620 H 0.71800 0.80524 0.70882
 H621 H 0.79935 0.69574 0.71568
 H622 H 0.82580 0.72151 0.73721
 H623 H 0.67632 0.77964 0.76528
 H624 H 0.70322 0.80286 0.79817
 O625 O 0.29689 0.20095 0.73445
 O626 O 0.29373 0.22452 0.69633
 O627 O 0.30795 0.25970 0.78910
 O628 O 0.28731 0.29537 0.80254
 O629 O 0.25265 0.20223 0.80418
 O630 O 0.21131 0.19719 0.79001
 O631 O 0.22180 0.32519 0.74179
 O632 O 0.26546 0.32878 0.75004
 O633 O 0.21749 0.27010 0.68485
 O634 O 0.23389 0.22488 0.68046
 O635 O 0.17191 0.26880 0.75009
 O636 O 0.17864 0.25192 0.79310
 O637 O 0.19297 0.30707 0.76725
 O638 O 0.19614 0.28225 0.80677
 O639 O 0.18299 0.25093 0.71217
 O640 O 0.20261 0.21180 0.70252
 O641 O 0.23572 0.30572 0.69927
 O642 O 0.27798 0.31290 0.71327
 O643 O 0.26788 0.18217 0.75927
 O644 O 0.22250 0.18002 0.75268
 O645 O 0.27262 0.23729 0.81768
 O646 O 0.25488 0.28077 0.82277
 O647 O 0.31870 0.24181 0.75107
 O648 O 0.31082 0.25699 0.70954
 Zr649 Zr 0.28414 0.23913 0.73260
 O650 O 0.25678 0.26199 0.71428
 Zr651 Zr 0.26813 0.26388 0.78843
 O652 O 0.23994 0.28817 0.77248
 Zr653 Zr 0.24071 0.21186 0.76774
 O654 O 0.21139 0.23388 0.75087
 Zr655 Zr 0.24945 0.29587 0.73494
 O656 O 0.27928 0.27428 0.75185
 Zr657 Zr 0.22224 0.24387 0.71430
 O658 O 0.25050 0.21931 0.73003
 Zr659 Zr 0.20602 0.26891 0.77007
 O660 O 0.23351 0.24571 0.78864
 O661 O 0.27502 0.22957 0.76940
 O662 O 0.21494 0.27846 0.73315
 C663 C 0.28816 0.18164 0.74561
 C664 C 0.32426 0.25069 0.77277
 C665 C 0.26439 0.21488 0.82086
 C666 C 0.20130 0.32595 0.75505
 C667 C 0.22435 0.29308 0.68234
 C668 C 0.16672 0.26106 0.72784
 H669 H 0.26298 0.26515 0.69703
 H670 H 0.19582 0.22415 0.75054
 H671 H 0.28838 0.21885 0.77750
 H672 H 0.23788 0.30408 0.78252
 H673 H 0.28186 0.32316 0.75735
 H674 H 0.27781 0.31099 0.79723
 H675 H 0.21090 0.19689 0.71073
 H676 H 0.22783 0.16456 0.76220
 H677 H 0.28268 0.30136 0.69900
 H678 H 0.31345 0.27387 0.71728
 H679 H 0.17282 0.23674 0.78410
 H680 H 0.20616 0.21050 0.80260
 H681 H 0.28105 0.21189 0.69219
 H682 H 0.24717 0.23483 0.67244
 H683 H 0.24026 0.27110 0.82846
 H684 H 0.20658 0.29694 0.81052
 O685 O 0.18624 0.74045 0.30339
 O686 O 0.20944 0.70201 0.30976
 O687 O 0.24071 0.79689 0.30948
 O688 O 0.27964 0.80418 0.29002
 O689 O 0.18823 0.79972 0.24909
 O690 O 0.18638 0.77936 0.21073
 O691 O 0.31452 0.73099 0.24277
 O692 O 0.31478 0.74344 0.28538
 O693 O 0.26178 0.67510 0.23790
 O694 O 0.22030 0.67027 0.24840
 O695 O 0.26289 0.73204 0.18500
 O696 O 0.24748 0.77522 0.18221
 O697 O 0.29961 0.75128 0.20805
 O698 O 0.27324 0.79278 0.20277
 O699 O 0.24321 0.69712 0.19882
 O700 O 0.20012 0.69239 0.22333
 O701 O 0.29431 0.69103 0.25970
 O702 O 0.29580 0.71534 0.30174
 O703 O 0.16927 0.75858 0.26837
 O704 O 0.17294 0.74121 0.22446
 O705 O 0.22196 0.81790 0.26707
 O706 O 0.26700 0.81904 0.25635
 O707 O 0.22578 0.76064 0.32611
 O708 O 0.24134 0.71616 0.32603
 Zr709 Zr 0.22486 0.73525 0.29503
 O710 O 0.24936 0.71101 0.27324
 Zr711 Zr 0.24910 0.78748 0.27186
 O712 O 0.27607 0.76558 0.25051
 Zr713 Zr 0.20068 0.76168 0.24356
 O714 O 0.22556 0.74004 0.21954
 Zr715 Zr 0.28302 0.72958 0.26680
 O716 O 0.25926 0.75322 0.29039
 Zr717 Zr 0.23468 0.70534 0.23709
 O718 O 0.20823 0.72617 0.26044
 Zr719 Zr 0.26045 0.75747 0.21549
 O720 O 0.23408 0.78109 0.23618
 O721 O 0.21534 0.77005 0.27863
 O722 O 0.26924 0.72198 0.23106
 C723 C 0.16754 0.74956 0.29076
 C724 C 0.23267 0.78376 0.32789
 C725 C 0.19956 0.81894 0.25779
 C726 C 0.31745 0.74047 0.22087
 C727 C 0.28365 0.67297 0.24792
 C728 C 0.25457 0.70976 0.18180
 H729 H 0.25223 0.69471 0.28212
 H730 H 0.21730 0.73754 0.20319
 H731 H 0.20350 0.78086 0.28914
 H732 H 0.29168 0.77509 0.24887
 H733 H 0.31562 0.76170 0.28127
 H734 H 0.28738 0.79083 0.30085
 H735 H 0.19769 0.69946 0.20630
 H736 H 0.15629 0.75044 0.22671
 H737 H 0.28767 0.69903 0.30477
 H738 H 0.25690 0.72503 0.33014
 H739 H 0.23076 0.76856 0.17842
 H740 H 0.20006 0.78961 0.20386
 H741 H 0.19938 0.69465 0.29614
 H742 H 0.22167 0.66960 0.26692
 H743 H 0.25921 0.82232 0.23979
 H744 H 0.28834 0.79681 0.21256
 O745 O 0.25671 0.67394 0.77481
 O746 O 0.29892 0.67855 0.75787
 O747 O 0.25321 0.72880 0.83514
 O748 O 0.25944 0.77086 0.83944
 O749 O 0.19183 0.72600 0.78278
 O750 O 0.18670 0.74303 0.74140
 O751 O 0.30167 0.80768 0.76716
 O752 O 0.31023 0.78668 0.80589
 O753 O 0.31145 0.75222 0.71069
 O754 O 0.29431 0.70813 0.70509
 O755 O 0.24509 0.79895 0.71254
 O756 O 0.20539 0.79931 0.73858
 O757 O 0.26245 0.82091 0.75049
 O758 O 0.21998 0.81734 0.76839
 O759 O 0.26896 0.76702 0.69362
 O760 O 0.26024 0.72440 0.68932
 O761 O 0.32620 0.77238 0.74522
 O762 O 0.33368 0.75588 0.78707
 O763 O 0.21833 0.68797 0.76049
 O764 O 0.20790 0.71020 0.72220
 O765 O 0.20842 0.74454 0.81743
 O766 O 0.22410 0.78665 0.82247
 O767 O 0.27566 0.69644 0.81509
 O768 O 0.31329 0.69522 0.79026
 Zr769 Zr 0.27722 0.70744 0.77730
 O770 O 0.29652 0.73292 0.75448
 Zr771 Zr 0.24468 0.75494 0.80628
 O772 O 0.26205 0.78255 0.78418
 Zr773 Zr 0.22116 0.72730 0.75559
 O774 O 0.23818 0.75307 0.73124
 Zr775 Zr 0.29807 0.76846 0.77279
 O776 O 0.28187 0.74187 0.79714
 Zr777 Zr 0.27543 0.74043 0.72212
 O778 O 0.25720 0.71271 0.74367
 Zr779 Zr 0.24210 0.78771 0.75044
 O780 O 0.22295 0.76264 0.77414
 O781 O 0.24099 0.72003 0.78842
 O782 O 0.27869 0.77579 0.73960
 C783 C 0.23401 0.67029 0.76775
 C784 C 0.26553 0.70712 0.83481
 C785 C 0.19045 0.73413 0.80572
 C786 C 0.28602 0.82633 0.75755
 C787 C 0.32819 0.76474 0.72229
 C788 C 0.25660 0.78857 0.69336
 H789 H 0.31352 0.72550 0.75021
 H790 H 0.22791 0.75499 0.71591
 H791 H 0.23265 0.70769 0.79937
 H792 H 0.26309 0.79865 0.79381
 H793 H 0.30725 0.77495 0.82001
 H794 H 0.26820 0.78636 0.83464
 H795 H 0.24697 0.71308 0.69512
 H796 H 0.19282 0.70039 0.72638
 H797 H 0.33967 0.74047 0.77756
 H798 H 0.31905 0.70902 0.80130
 H799 H 0.20138 0.78890 0.72368
 H800 H 0.18220 0.75863 0.75137
 H801 H 0.29037 0.67566 0.74170
 H802 H 0.31091 0.70550 0.71322
 H803 H 0.21032 0.79132 0.81075
 H804 H 0.22872 0.82224 0.78391
 O805 O 0.31820 0.26879 0.27429
 O806 O 0.32433 0.25167 0.23296
 O807 O 0.26560 0.33244 0.26079
 O808 O 0.22695 0.33882 0.24629
 O809 O 0.25414 0.28120 0.32304
 O810 O 0.23710 0.24002 0.32564
 O811 O 0.20200 0.26535 0.19488
 O812 O 0.22534 0.30224 0.18999
 O813 O 0.25531 0.20485 0.20272
 O814 O 0.29165 0.19645 0.22996
 O815 O 0.19414 0.21290 0.25290
 O816 O 0.18388 0.23944 0.28973
 O817 O 0.17946 0.25224 0.22871
 O818 O 0.17326 0.27156 0.27177
 O819 O 0.22996 0.19040 0.24068
 O820 O 0.27257 0.18602 0.26072
 O821 O 0.24150 0.23979 0.18111
 O822 O 0.26045 0.28161 0.17773
 O823 O 0.29572 0.25513 0.30798
 O824 O 0.26983 0.21902 0.31357
 O825 O 0.24055 0.31651 0.30182
 O826 O 0.20320 0.32193 0.27422
 O827 O 0.30210 0.31051 0.24947
 O828 O 0.31121 0.28370 0.21294
 Zr829 Zr 0.29135 0.27244 0.24546
 O830 O 0.27150 0.24908 0.22081
 Zr831 Zr 0.23870 0.30444 0.26390
 O832 O 0.21670 0.28304 0.23940
 Zr833 Zr 0.25859 0.25291 0.29486
 O834 O 0.23691 0.22924 0.27233
 Zr835 Zr 0.23869 0.26901 0.20865
 O836 O 0.25990 0.29346 0.23132
 Zr837 Zr 0.25805 0.21763 0.24019
 O838 O 0.28085 0.23920 0.26410
 Zr839 Zr 0.20560 0.25028 0.25819
 O840 O 0.22547 0.27308 0.28362
 O841 O 0.27093 0.28525 0.27710
 O842 O 0.22584 0.23680 0.22652
 C843 C 0.31635 0.26150 0.29726
 C844 C 0.28928 0.33122 0.25517
 C845 C 0.24681 0.30482 0.32211
 C846 C 0.18149 0.25853 0.20549
 C847 C 0.24832 0.21605 0.18245
 C848 C 0.20619 0.19222 0.24605
 H849 H 0.28269 0.24358 0.20657
 H850 H 0.23172 0.21457 0.28235
 H851 H 0.28104 0.29601 0.28815
 H852 H 0.20208 0.29372 0.23369
 H853 H 0.23508 0.31648 0.19653
 H854 H 0.21725 0.33419 0.23128
 H855 H 0.26064 0.18301 0.27475
 H856 H 0.28305 0.21030 0.30285
 H857 H 0.27573 0.27020 0.17580
 H858 H 0.29992 0.29620 0.20424
 H859 H 0.19376 0.22599 0.29864
 H860 H 0.22040 0.24922 0.32497
 H861 H 0.32380 0.23467 0.24078
 H862 H 0.30035 0.20592 0.21666
 H863 H 0.19640 0.31207 0.28837
 H864 H 0.17025 0.28619 0.26046
 O865 O 0.78858 0.68260 0.24844
 O866 O 0.79496 0.70140 0.20689
 O867 O 0.79440 0.75069 0.29537
 O868 O 0.77356 0.78881 0.29885
 O869 O 0.73442 0.69826 0.30810
 O870 O 0.69462 0.69217 0.28606
 O871 O 0.72376 0.81142 0.22752
 O872 O 0.76751 0.81159 0.24215
 O873 O 0.72650 0.74873 0.17547
 O874 O 0.74211 0.70227 0.18034
 O875 O 0.66842 0.75546 0.23032
 O876 O 0.66725 0.74601 0.27709
 O877 O 0.68801 0.79636 0.24498
 O878 O 0.68059 0.78007 0.28641
 O879 O 0.68680 0.73305 0.19760
 O880 O 0.70834 0.69265 0.19451
 O881 O 0.74237 0.78565 0.18945
 O882 O 0.78004 0.79290 0.20590
 O883 O 0.75376 0.67053 0.27002
 O884 O 0.71148 0.66897 0.25751
 O885 O 0.75309 0.73461 0.31986
 O886 O 0.73788 0.77797 0.31598
 O887 O 0.81052 0.72499 0.26379
 O888 O 0.81333 0.73229 0.22010
 Zr889 Zr 0.78033 0.72116 0.23915
 O890 O 0.75915 0.74287 0.21308
 Zr891 Zr 0.75562 0.75571 0.28677
 O892 O 0.73209 0.77776 0.26294
 Zr893 Zr 0.72890 0.70254 0.26892
 O894 O 0.70540 0.72194 0.24301
 Zr895 Zr 0.74959 0.77955 0.22750
 O896 O 0.77440 0.75923 0.25188
 Zr897 Zr 0.72432 0.72617 0.20825
 O898 O 0.74633 0.70309 0.23293
 Zr899 Zr 0.69820 0.75933 0.25614
 O900 O 0.72013 0.73928 0.28322
 O901 O 0.76361 0.71849 0.27455
 O902 O 0.71512 0.76321 0.22083
 C903 C 0.77586 0.66613 0.26044
 C904 C 0.81268 0.73790 0.28418
 C905 C 0.74400 0.71296 0.32465
 C906 C 0.70050 0.81394 0.23480
 C907 C 0.73377 0.77150 0.17204
 C908 C 0.66784 0.74468 0.20849
 H909 H 0.76883 0.74375 0.19709
 H910 H 0.68967 0.71271 0.24108
 H911 H 0.77440 0.70860 0.28636
 H912 H 0.72900 0.79491 0.27047
 H913 H 0.78341 0.80522 0.25000
 H914 H 0.76576 0.80347 0.28983
 H915 H 0.69732 0.68630 0.20801
 H916 H 0.71798 0.66488 0.24032
 H917 H 0.79307 0.77888 0.20506
 H918 H 0.81654 0.74978 0.22598
 H919 H 0.66154 0.73048 0.26862
 H920 H 0.68929 0.70619 0.29782
 H921 H 0.78305 0.68796 0.20295
 H922 H 0.75616 0.71154 0.17280
 H923 H 0.72107 0.77097 0.31901
 H924 H 0.69252 0.79277 0.29219
 O925 O 0.68928 0.22705 0.78353
 O926 O 0.71489 0.18907 0.79031
 O927 O 0.74195 0.28520 0.79992
 O928 O 0.77730 0.29932 0.78435
 O929 O 0.69421 0.28904 0.73256
 O930 O 0.69752 0.26783 0.69258
 O931 O 0.82383 0.23003 0.73734
 O932 O 0.81711 0.24370 0.77944
 O933 O 0.77679 0.16876 0.72675
 O934 O 0.73205 0.16229 0.73344
 O935 O 0.77664 0.22780 0.67364
 O936 O 0.75848 0.27120 0.67237
 O937 O 0.81050 0.24891 0.70127
 O938 O 0.78367 0.28780 0.69378
 O939 O 0.76040 0.19043 0.68568
 O940 O 0.71857 0.17960 0.70295
 O941 O 0.80623 0.18801 0.75017
 O942 O 0.80241 0.20756 0.79193
 O943 O 0.67567 0.24574 0.74744
 O944 O 0.68308 0.23317 0.70416
 O945 O 0.72303 0.30775 0.75721
 O946 O 0.76837 0.31245 0.74749
 O947 O 0.72450 0.24823 0.81160
 O948 O 0.74233 0.20571 0.81220
 Zr949 Zr 0.72897 0.22447 0.77964
 O950 O 0.75791 0.20319 0.76038
 Zr951 Zr 0.75203 0.27937 0.76176
 O952 O 0.78221 0.26040 0.74199
 Zr953 Zr 0.70918 0.25165 0.72703
 O954 O 0.73743 0.23177 0.70546
 Zr955 Zr 0.79038 0.22461 0.75783
 O956 O 0.76236 0.24488 0.77970
 Zr957 Zr 0.74760 0.19712 0.72288
 O958 O 0.71714 0.21573 0.74305
 Zr959 Zr 0.77079 0.25206 0.70517
 O960 O 0.74139 0.27358 0.72418
 O961 O 0.71906 0.25952 0.76395
 O962 O 0.78096 0.21677 0.72061
 C963 C 0.67175 0.23586 0.76906
 C964 C 0.73157 0.27085 0.81619
 C965 C 0.70235 0.30816 0.74475
 C966 C 0.82790 0.24000 0.71581
 C967 C 0.79812 0.16887 0.73806
 C968 C 0.77074 0.20472 0.66939
 H969 H 0.76120 0.18691 0.76914
 H970 H 0.73093 0.22916 0.68833
 H971 H 0.70564 0.26900 0.77381
 H972 H 0.79715 0.27102 0.74227
 H973 H 0.80754 0.25303 0.79305
 H974 H 0.79448 0.29191 0.78079
 H975 H 0.71366 0.19083 0.68884
 H976 H 0.68161 0.21582 0.71096
 H977 H 0.79255 0.19229 0.79484
 H978 H 0.75816 0.21382 0.81683
 H979 H 0.74389 0.26223 0.66579
 H980 H 0.70954 0.28116 0.68858
 H981 H 0.70627 0.18229 0.77542
 H982 H 0.73716 0.15868 0.75091
 H983 H 0.76076 0.31584 0.73088
 H984 H 0.79505 0.29392 0.70692
 C985 C 0.11658 1.01051 1.20951
 C986 C 0.09919 0.99241 1.20295
 C987 C 0.08432 0.99419 1.17959
 C988 C 0.07845 0.97177 1.16681
 C989 C 0.06498 0.97291 1.14435
 C990 C 0.05669 0.99655 1.13450
 C991 C 0.06161 1.01891 1.14785
 C992 C 0.07551 1.01780 1.17008
 C993 C 0.04300 0.99827 1.11041
 C994 C 0.04919 0.98188 1.09024
 H995 H 0.09750 0.97573 1.21454
 H996 H 0.08471 0.95336 1.17400
 H997 H 0.06089 0.95529 1.13481
 H998 H 0.05513 1.03731 1.14080
 H999 H 0.07908 1.03538 1.17992
 H1000 H 0.02955 1.01412 1.10768
 H1001 H 0.11929 1.02620 1.19680
 H1002 H 0.06466 0.96785 1.09211
 C1003 C 0.61170 0.50141 0.74464
 C1004 C 0.61829 0.50229 0.71907
 C1005 C 0.60012 0.50628 0.69832
 C1006 C 0.60956 0.51378 0.67487
 C1007 C 0.59354 0.51714 0.65440
 C1008 C 0.56763 0.51266 0.65677
 C1009 C 0.55800 0.50575 0.68036
 C1010 C 0.57407 0.50243 0.70095
 C1011 C 0.55050 0.51468 0.63491
 C1012 C 0.55925 0.51009 0.61030
 H1013 H 0.63825 0.50132 0.71415
 H1014 H 0.62948 0.51713 0.67236
 H1015 H 0.60158 0.52339 0.63682
 H1016 H 0.53809 0.50229 0.68271
 H1017 H 0.56605 0.49630 0.71856
 H1018 H 0.53038 0.51779 0.63838
 H1019 H 0.59204 0.50319 0.75045
 H1020 H 0.57898 0.50465 0.60702
 C1021 C 0.39768 0.00245 0.72088
 C1022 C 0.38651 -0.00126 0.69749
 C1023 C 0.39991 -0.00030 0.67292
 C1024 C 0.38545 0.00190 0.65103
 C1025 C 0.39712 0.00242 0.62732
 C1026 C 0.42363 0.00072 0.62502
 C1027 C 0.43808 -0.00181 0.64688
 C1028 C 0.42641 -0.00230 0.67061
 C1029 C 0.43691 0.00051 0.60031
 C1030 C 0.42594 0.00890 0.57790
 H1031 H 0.36637 -0.00419 0.69722
 H1032 H 0.36499 0.00313 0.65227
 H1033 H 0.38523 0.00362 0.61097
 H1034 H 0.45852 -0.00352 0.64561
 H1035 H 0.43826 -0.00474 0.68688
 H1036 H 0.45664 -0.00596 0.59995
 H1037 H 0.41748 0.00652 0.72198
 H1038 H 0.40677 0.01688 0.57779
 C1039 C -0.10085 0.48631 1.22979
 C1040 C -0.10910 0.48038 1.20560
 C1041 C -0.09288 0.47730 1.18282
 C1042 C -0.10490 0.47512 1.15959
 C1043 C -0.09084 0.47293 1.13728
 C1044 C -0.06432 0.47298 1.13769
 C1045 C -0.05217 0.47417 1.16094
 C1046 C -0.06629 0.47642 1.18338
 C1047 C -0.04912 0.47178 1.11415
 C1048 C -0.05840 0.48177 1.09169
 H1049 H -0.12927 0.47888 1.20308
 H1050 H -0.12534 0.47532 1.15863
 H1051 H -0.10084 0.47102 1.11979
 H1052 H -0.03172 0.47384 1.16170
 H1053 H -0.05626 0.47744 1.20091
 H1054 H -0.02972 0.46438 1.11487
 H1055 H -0.08112 0.48939 1.23319
 H1056 H -0.07693 0.49134 1.09141
 C1057 C -0.10657 0.49319 0.27596
 C1058 C -0.10601 0.51511 0.29104
 C1059 C -0.09771 0.51420 0.31744
 C1060 C -0.08698 0.53561 0.32811
 C1061 C -0.07876 0.53513 0.35296
 C1062 C -0.08147 0.51329 0.36769
 C1063 C -0.09342 0.49238 0.35747
 C1064 C -0.10136 0.49273 0.33250
 C1065 C -0.07104 0.51166 0.39327
 C1066 C -0.04780 0.52172 0.39845
 H1067 H -0.11153 0.53352 0.28344
 H1068 H -0.08456 0.55256 0.31704
 H1069 H -0.07023 0.55183 0.36063
 H1070 H -0.09599 0.47552 0.36862
 H1071 H -0.11052 0.47629 0.32511
 H1072 H -0.08011 0.50005 0.40717
 H1073 H -0.09757 0.47585 0.28309
 H1074 H -0.03757 0.53087 0.38350
 C1075 C 0.39731 1.00755 -0.23205
 C1076 C 0.38576 1.00741 -0.20820
 C1077 C 0.39810 1.01297 -0.18412
 C1078 C 0.42444 1.01415 -0.18175
 C1079 C 0.43505 1.01788 -0.15809
 C1080 C 0.41948 1.02051 -0.13644
 C1081 C 0.39324 1.01966 -0.13898
 C1082 C 0.38267 1.01597 -0.16253
 C1083 C 0.42976 1.02204 -0.11079
 C1084 C 0.45442 1.02843 -0.10549
 H1085 H 0.36592 1.00313 -0.20722
 H1086 H 0.43702 1.01143 -0.19782
 H1087 H 0.45542 1.01769 -0.15684
 H1088 H 0.38085 1.02144 -0.12260
 H1089 H 0.36232 1.01507 -0.16381
 H1090 H 0.41733 1.01732 -0.09531
 H1091 H 0.41679 1.01258 -0.23421
 H1092 H 0.46676 1.03495 -0.12024
 C1093 C 0.61960 0.50183 -0.20916
 C1094 C 0.62353 0.48443 -0.18962
 C1095 C 0.61234 0.48826 -0.16415
 C1096 C 0.60626 0.46685 -0.15011
 C1097 C 0.59593 0.46971 -0.12585
 C1098 C 0.59192 0.49407 -0.11498
 C1099 C 0.59882 0.51545 -0.12866
 C1100 C 0.60872 0.51263 -0.15314
 C1101 C 0.58042 0.49750 -0.08958
 C1102 C 0.56082 0.48257 -0.08155
 H1103 H 0.63453 0.46686 -0.19298
 H1104 H 0.60929 0.44787 -0.15805
 H1105 H 0.59135 0.45283 -0.11551
 H1106 H 0.59614 0.53439 -0.12053
 H1107 H 0.61396 0.52945 -0.16322
 H1108 H 0.58555 0.51360 -0.07813
 H1109 H 0.60720 0.51846 -0.20551
 H1110 H 0.55361 0.46856 -0.09436
 C1111 C 0.11433 0.01237 0.25647
 C1112 C 0.12402 0.01240 0.28086
 C1113 C 0.10852 0.01343 0.30432
 C1114 C 0.12077 0.01686 0.32729
 C1115 C 0.10729 0.01697 0.35008
 C1116 C 0.08105 0.01369 0.35041
 C1117 C 0.06881 0.01014 0.32745
 C1118 C 0.08232 0.00998 0.30464
 C1119 C 0.06590 0.01295 0.37408
 C1120 C 0.07446 0.02042 0.39770
 H1121 H 0.14440 0.01123 0.28276
 H1122 H 0.14099 0.01924 0.32763
 H1123 H 0.11772 0.01912 0.36723
 H1124 H 0.04867 0.00729 0.32713
 H1125 H 0.07211 0.00665 0.28755
 H1126 H 0.04679 0.00654 0.37271
 H1127 H 0.09418 0.01454 0.25359
 H1128 H 0.09299 0.02795 0.39972
 C1129 C 0.21060 1.12203 0.99905
 C1130 C 0.20526 1.10028 1.01284
 C1131 C 0.18028 1.08861 1.01208
 C1132 C 0.17883 1.06225 1.01547
 C1133 C 0.15562 1.05057 1.01384
 C1134 C 0.13325 1.06518 1.00911
 C1135 C 0.13471 1.09164 1.00647
 C1136 C 0.15786 1.10326 1.00803
 C1137 C 0.10822 1.05390 1.00596
 C1138 C 0.10300 1.02848 1.01059
 H1139 H 0.22020 1.09061 1.02326
 H1140 H 0.19581 1.05057 1.01880
 H1141 H 0.15555 1.03014 1.01582
 H1142 H 0.11781 1.10344 1.00306
 H1143 H 0.15803 1.12375 1.00627
 H1144 H 0.09294 1.06650 0.99953
 H1145 H 0.19556 1.13090 0.98814
 H1146 H 0.11735 1.01543 1.01793
 C1147 C 0.72475 0.60381 0.50908
 C1148 C 0.69951 0.61182 0.51333
 C1149 C 0.67862 0.59458 0.51819
 C1150 C 0.65533 0.60542 0.52671
 C1151 C 0.63439 0.59048 0.52967
 C1152 C 0.63618 0.56428 0.52388
 C1153 C 0.65967 0.55314 0.51637
 C1154 C 0.68070 0.56814 0.51333
 C1155 C 0.61366 0.54857 0.52492
 C1156 C 0.58975 0.55890 0.51918
 H1157 H 0.69476 0.63209 0.51272
 H1158 H 0.65323 0.62565 0.53080
 H1159 H 0.61678 0.59954 0.53638
 H1160 H 0.66153 0.53296 0.51195
 H1161 H 0.69814 0.55899 0.50640
 H1162 H 0.61616 0.52836 0.52850
 H1163 H 0.73032 0.58384 0.51073
 H1164 H 0.58777 0.57861 0.51345
 C1165 C 0.73370 0.38160 0.00097
 C1166 C 0.70842 0.37524 0.00217
 C1167 C 0.68635 0.39360 0.00227
 C1168 C 0.66237 0.38392 -0.00123
 C1169 C 0.64077 0.40011 -0.00129
 C1170 C 0.64261 0.42648 0.00246
 C1171 C 0.66661 0.43631 0.00557
 C1172 C 0.68831 0.42005 0.00564
 C1173 C 0.61989 0.44400 0.00288
 C1174 C 0.59610 0.43602 0.01017
 H1175 H 0.70458 0.35516 0.00195
 H1176 H 0.66030 0.36368 -0.00414
 H1177 H 0.62275 0.39187 -0.00468
 H1178 H 0.66852 0.45659 0.00833
 H1179 H 0.70636 0.42833 0.00862
 H1180 H 0.62214 0.46386 -0.00156
 H1181 H 0.73871 0.40129 0.00022
 H1182 H 0.59413 0.41675 0.01667
 C1183 C 0.22623 -0.12372 0.51277
 C1184 C 0.21661 -0.10999 0.49235
 C1185 C 0.19170 -0.09601 0.49318
 C1186 C 0.18677 -0.07629 0.47608
 C1187 C 0.16296 -0.06361 0.47558
 C1188 C 0.14353 -0.07062 0.49210
 C1189 C 0.14837 -0.09063 0.50888
 C1190 C 0.17217 -0.10317 0.50949
 C1191 C 0.11784 -0.05827 0.49183
 C1192 C 0.11271 -0.03362 0.48316
 H1193 H 0.22750 -0.10984 0.47498
 H1194 H 0.20134 -0.07079 0.46296
 H1195 H 0.15974 -0.04883 0.46182
 H1196 H 0.13362 -0.09665 0.52153
 H1197 H 0.17489 -0.11893 0.52226
 H1198 H 0.10254 -0.06855 0.50009
 H1199 H 0.21661 -0.12139 0.53084
 H1200 H 0.12798 -0.02228 0.47657
 C1201 C 0.27380 -0.13024 0.50525
 C1202 C 0.27744 -0.10409 0.50423
 C1203 C 0.30219 -0.09372 0.49742
 C1204 C 0.30731 -0.06891 0.50515
 C1205 C 0.33070 -0.05876 0.49971
 C1206 C 0.34951 -0.07326 0.48627
 C1207 C 0.34415 -0.09779 0.47790
 C1208 C 0.32070 -0.10787 0.48320
 C1209 C 0.37494 -0.06355 0.48142
 C1210 C 0.38051 -0.03887 0.48805
 H1211 H 0.26212 -0.09074 0.50962
 H1212 H 0.29331 -0.05748 0.51583
 H1213 H 0.33412 -0.03972 0.50641
 H1214 H 0.35818 -0.10922 0.46727
 H1215 H 0.31719 -0.12664 0.47589
 H1216 H 0.38969 -0.07622 0.47332
 H1217 H 0.28984 -0.14335 0.50180
 H1218 H 0.39534 -0.03451 0.48632
 C1219 C -0.21873 0.37225 1.00076
 C1220 C -0.21041 0.39135 0.98502
 C1221 C -0.18445 0.40053 0.98617
 C1222 C -0.18005 0.42591 0.98019
 C1223 C -0.15556 0.43488 0.98087
 C1224 C -0.13497 0.41840 0.98715
 C1225 C -0.13932 0.39286 0.99242
 C1226 C -0.16380 0.38401 0.99210
 C1227 C -0.10874 0.42693 0.98762
 C1228 C -0.10277 0.45183 0.99368
 H1229 H -0.22340 0.39992 0.97165
 H1230 H -0.19562 0.43885 0.97513
 H1231 H -0.15274 0.45450 0.97599
 H1232 H -0.12372 0.37972 0.99693
 H1233 H -0.16642 0.36411 0.99594
 H1234 H -0.09353 0.41265 0.98481
 H1235 H -0.20599 0.36460 1.01487
 H1236 H -0.11768 0.46579 0.99873
 C1237 C -0.22989 0.60811 0.49913
 C1238 C -0.20667 0.61906 0.50347
 C1239 C -0.18190 0.60544 0.49876
 C1240 C -0.16035 0.61966 0.49506
 C1241 C -0.13663 0.60748 0.49060
 C1242 C -0.13398 0.58072 0.49004
 C1243 C -0.15555 0.56655 0.49379
 C1244 C -0.17920 0.57870 0.49828
 C1245 C -0.10934 0.56670 0.48573
 C1246 C -0.08577 0.57724 0.48887
 H1247 H -0.20658 0.63887 0.50926
 H1248 H -0.16191 0.64029 0.49536
 H1249 H -0.12063 0.61915 0.48734
 H1250 H -0.15404 0.54591 0.49360
 H1251 H -0.19513 0.56699 0.50181
 H1252 H -0.10985 0.54648 0.48169
 H1253 H -0.22984 0.58928 0.49066
 H1254 H -0.08450 0.59707 0.49412
 C1255 C 0.25788 1.11547 0.00110
 C1256 C 0.28202 1.12251 0.00811
 C1257 C 0.30553 1.10651 0.00391
 C1258 C 0.32874 1.11831 0.00518
 C1259 C 0.35147 1.10443 0.00066
 C1260 C 0.35153 1.07826 -0.00519
 C1261 C 0.32836 1.06634 -0.00628
 C1262 C 0.30556 1.08025 -0.00167
 C1263 C 0.37541 1.06304 -0.00968
 C1264 C 0.39875 1.07331 -0.00569
 H1265 H 0.28413 1.14188 0.01465
 H1266 H 0.32932 1.13848 0.00946
 H1267 H 0.36896 1.11428 0.00170
 H1268 H 0.32791 1.04616 -0.01052
 H1269 H 0.28820 1.07022 -0.00229
 H1270 H 0.37463 1.04309 -0.01495
 H1271 H 0.25563 1.09704 -0.00761
 H1272 H 0.41182 1.06408 -0.00745
 C1273 C 0.00132 1.20960 1.11112
 C1274 C 0.02127 1.19998 1.09576
 C1275 C 0.02118 1.17483 1.08283
 C1276 C 0.00576 1.15535 1.09108
 C1277 C 0.00610 1.13190 1.07844
 C1278 C 0.02220 1.12715 1.05746
 C1279 C 0.03775 1.14652 1.04940
 C1280 C 0.03737 1.17003 1.06204
 C1281 C 0.02265 1.10276 1.04308
 C1282 C 0.01262 1.08042 1.05222
 H1283 H 0.03745 1.21158 1.09283
 H1284 H -0.00645 1.15789 1.10746
 H1285 H -0.00662 1.11784 1.08508
 H1286 H 0.05027 1.14346 1.03325
 H1287 H 0.04959 1.18462 1.05539
 H1288 H 0.03129 1.10240 1.02447
 H1289 H -0.01558 1.19887 1.11262
 H1290 H 0.00508 1.07979 1.07119
 C1291 C 0.50495 0.74500 0.60904
 C1292 C 0.50832 0.71996 0.61770
 C1293 C 0.51036 0.69656 0.60195
 C1294 C 0.51840 0.67380 0.61357
 C1295 C 0.51886 0.65067 0.60045
 C1296 C 0.51097 0.64969 0.57535
 C1297 C 0.50383 0.67255 0.56332
 C1298 C 0.50337 0.69582 0.57651
 C1299 C 0.50988 0.62513 0.56152
 C1300 C 0.50574 0.60223 0.57378
 H1301 H 0.50953 0.71729 0.63786
 H1302 H 0.52413 0.67384 0.63307
 H1303 H 0.52543 0.63364 0.61009
 H1304 H 0.49789 0.67229 0.54389
 H1305 H 0.49686 0.71289 0.56694
 H1306 H 0.51069 0.62535 0.54114
 H1307 H 0.50415 0.74865 0.58907
 H1308 H 0.50272 0.60221 0.59396
 C1309 C -0.01437 0.74299 0.38919
 C1310 C -0.00689 0.71863 0.38024
 C1311 C -0.00671 0.69555 0.39598
 C1312 C -0.00641 0.67160 0.38405
 C1313 C -0.00552 0.64928 0.39815
 C1314 C -0.00456 0.65049 0.42458
 C1315 C -0.00505 0.67444 0.43652
 C1316 C -0.00591 0.69676 0.42242
 C1317 C -0.00352 0.62734 0.44028
 C1318 C 0.00514 0.60342 0.43129
 H1319 H -0.00142 0.71621 0.36063
 H1320 H -0.00703 0.67015 0.36372
 H1321 H -0.00596 0.63125 0.38823
 H1322 H -0.00435 0.67588 0.45685
 H1323 H -0.00540 0.71479 0.43234
 H1324 H -0.00895 0.62946 0.45995
 H1325 H -0.02264 0.74498 0.40789
 H1326 H 0.01206 0.60112 0.41213
 C1327 C 0.49634 1.23722 -0.11657
 C1328 C 0.49243 1.21266 -0.12568
 C1329 C 0.49525 1.18915 -0.11068
 C1330 C 0.49446 1.18911 -0.08420
 C1331 C 0.49776 1.16621 -0.07111
 C1332 C 0.50177 1.14296 -0.08429
 C1333 C 0.50251 1.14316 -0.11066
 C1334 C 0.49912 1.16592 -0.12368
 C1335 C 0.50537 1.11811 -0.07163
 C1336 C 0.49820 1.11349 -0.04676
 H1337 H 0.48987 1.21022 -0.14570
 H1338 H 0.49114 1.20657 -0.07349
 H1339 H 0.49745 1.16693 -0.05077
 H1340 H 0.50558 1.12557 -0.12131
 H1341 H 0.49982 1.16538 -0.14407
 H1342 H 0.51240 1.10212 -0.08316
 H1343 H 0.50069 1.24000 -0.09693
 H1344 H 0.49009 1.12871 -0.03497
 C1345 C 0.50568 0.28341 -0.12052
 C1346 C 0.49126 0.29346 -0.10027
 C1347 C 0.49442 0.31939 -0.09015
 C1348 C 0.48809 0.32466 -0.06489
 C1349 C 0.49020 0.34917 -0.05496
 C1350 C 0.49843 0.36897 -0.07026
 C1351 C 0.50405 0.36388 -0.09570
 C1352 C 0.50221 0.33929 -0.10557
 C1353 C 0.50044 0.39515 -0.06031
 C1354 C 0.50652 0.39986 -0.03533
 H1355 H 0.47695 0.28204 -0.09180
 H1356 H 0.48153 0.30975 -0.05282
 H1357 H 0.48485 0.35266 -0.03547
 H1358 H 0.50998 0.37893 -0.10793
 H1359 H 0.50627 0.33611 -0.12539
 H1360 H 0.49792 0.41097 -0.07310
 H1361 H 0.52070 0.29457 -0.12809
 H1362 H 0.51122 0.38401 -0.02312
 C1363 C -0.00853 -0.21068 0.38985
 C1364 C -0.00589 -0.18635 0.38004
 C1365 C 0.00326 -0.16478 0.39492
 C1366 C 0.01499 -0.14511 0.38226
 C1367 C 0.02355 -0.12417 0.39554
 C1368 C 0.02013 -0.12233 0.42181
 C1369 C 0.00886 -0.14226 0.43452
 C1370 C 0.00034 -0.16322 0.42124
 C1371 C 0.02685 -0.09951 0.43636
 C1372 C 0.02692 -0.07531 0.42581
 H1373 H -0.00864 -0.18367 0.36005
 H1374 H 0.01765 -0.14599 0.36202
 H1375 H 0.03281 -0.10957 0.38515
 H1376 H 0.00593 -0.14125 0.45473
 H1377 H -0.00910 -0.17772 0.43162
 H1378 H 0.02807 -0.10117 0.45663
 H1379 H -0.00409 -0.21407 0.40939
 H1380 H 0.02384 -0.07299 0.40587
 C1381 C 0.50306 -0.20718 0.61517
 C1382 C 0.48897 -0.19956 0.59429
 C1383 C 0.48909 -0.17323 0.58435
 C1384 C 0.46829 -0.16382 0.57064
 C1385 C 0.46753 -0.13893 0.56146
 C1386 C 0.48777 -0.12296 0.56559
 C1387 C 0.50855 -0.13235 0.57929
 C1388 C 0.50939 -0.15727 0.58833
 C1389 C 0.48782 -0.09662 0.55579
 C1390 C 0.47546 -0.08963 0.53375
 H1391 H 0.47600 -0.21271 0.58630
 H1392 H 0.45240 -0.17565 0.56734
 H1393 H 0.45090 -0.13216 0.55150
 H1394 H 0.52444 -0.12050 0.58259
 H1395 H 0.52617 -0.16398 0.59806
 H1396 H 0.49964 -0.08306 0.56489
 H1397 H 0.51369 -0.19300 0.62482
 H1398 H 0.46555 -0.10380 0.52331
 C1399 C 0.00219 0.25648 1.10628
 C1400 C -0.01360 0.27857 1.10784
 C1401 C -0.01017 0.30096 1.09187
 C1402 C -0.03145 0.31623 1.08539
 C1403 C -0.02866 0.33899 1.07249
 C1404 C -0.00444 0.34712 1.06639
 C1405 C 0.01685 0.33183 1.07281
 C1406 C 0.01404 0.30877 1.08521
 C1407 C -0.00087 0.37231 1.05522
 C1408 C -0.01771 0.38345 1.03819
 H1409 H -0.02885 0.28021 1.12155
 H1410 H -0.05025 0.31072 1.09072
 H1411 H -0.04538 0.35072 1.06829
 H1412 H 0.03569 0.33793 1.06854
 H1413 H 0.03081 0.29771 1.09058
 H1414 H 0.01606 0.38208 1.05996
 H1415 H 0.01661 0.25531 1.09159
 H1416 H -0.03297 0.37267 1.03080
 C1417 C 0.75310 0.34052 0.02069
 C1418 C 0.75251 0.34995 0.04542
 C1419 C 0.75162 0.33419 0.06843
 C1420 C 0.74979 0.34674 0.09188
 C1421 C 0.74954 0.33299 0.11425
 C1422 C 0.75101 0.30620 0.11371
 C1423 C 0.75296 0.29360 0.09029
 C1424 C 0.75320 0.30737 0.06787
 C1425 C 0.75165 0.29083 0.13701
 C1426 C 0.74364 0.30024 0.16063
 H1427 H 0.75297 0.37041 0.04798
 H1428 H 0.74879 0.36737 0.09294
 H1429 H 0.74881 0.34356 0.13182
 H1430 H 0.75437 0.27298 0.08932
 H1431 H 0.75493 0.29678 0.05038
 H1432 H 0.75842 0.27110 0.13538
 H1433 H 0.75246 0.32035 0.01681
 H1434 H 0.73540 0.31937 0.16257
 C1435 C 0.25002 0.84291 0.53537
 C1436 C 0.27074 0.84188 0.55151
 C1437 C 0.27004 0.82962 0.57635
 C1438 C 0.24777 0.82964 0.59108
 C1439 C 0.24801 0.81873 0.61497
 C1440 C 0.27050 0.80758 0.62447
 C1441 C 0.29263 0.80746 0.60967
 C1442 C 0.29249 0.81870 0.58598
 C1443 C 0.27134 0.79504 0.64917
 C1444 C 0.25539 0.80225 0.66938
 H1445 H 0.28847 0.84967 0.54581
 H1446 H 0.23029 0.83846 0.58440
 H1447 H 0.23052 0.81869 0.62575
 H1448 H 0.31015 0.79886 0.61657
 H1449 H 0.30990 0.81865 0.57503
 H1450 H 0.28592 0.78021 0.65188
 H1451 H 0.23323 0.83319 0.54096
 H1452 H 0.24232 0.81860 0.66788
 C1453 C 0.74491 0.64349 0.52184
 C1454 C 0.74886 0.63735 0.54707
 C1455 C 0.74622 0.65562 0.56845
 C1456 C 0.74101 0.64591 0.59233
 C1457 C 0.73923 0.66191 0.61342
 C1458 C 0.74329 0.68810 0.61132
 C1459 C 0.74777 0.69806 0.58730
 C1460 C 0.74931 0.68197 0.56600
 C1461 C 0.74315 0.70497 0.63400
 C1462 C 0.75009 0.69535 0.65743
 H1463 H 0.75226 0.61741 0.55155
 H1464 H 0.73819 0.62576 0.59470
 H1465 H 0.73458 0.65359 0.63134
 H1466 H 0.75074 0.71819 0.58511
 H1467 H 0.75360 0.69007 0.54789
 H1468 H 0.73853 0.72514 0.63207
 H1469 H 0.74026 0.66301 0.51671
 H1470 H 0.75669 0.67561 0.65866
 C1471 C 0.23517 0.15367 0.02150
 C1472 C 0.23629 0.14547 0.04649
 C1473 C 0.23676 0.16253 0.06897
 C1474 C 0.23484 0.15158 0.09288
 C1475 C 0.23593 0.16650 0.11474
 C1476 C 0.23919 0.19288 0.11324
 C1477 C 0.24071 0.20396 0.08936
 C1478 C 0.23970 0.18899 0.06745
 C1479 C 0.24049 0.20932 0.13606
 C1480 C 0.24795 0.20003 0.15951
 H1481 H 0.23722 0.12513 0.04974
 H1482 H 0.23244 0.13130 0.09470
 H1483 H 0.23383 0.15729 0.13271
 H1484 H 0.24307 0.22424 0.08766
 H1485 H 0.24161 0.19833 0.04956
 H1486 H 0.23623 0.22957 0.13413
 H1487 H 0.23296 0.17379 0.01759
 H1488 H 0.25390 0.18018 0.16135
 C1489 C 0.23735 0.14992 0.97489
 C1490 C 0.25654 0.14663 0.95651
 C1491 C 0.25498 0.15821 0.93131
 C1492 C 0.27738 0.16360 0.91839
 C1493 C 0.27662 0.17305 0.89388
 C1494 C 0.25338 0.17681 0.88168
 C1495 C 0.23102 0.17103 0.89445
 C1496 C 0.23174 0.16201 0.91911
 C1497 C 0.25190 0.18605 0.85552
 C1498 C 0.26862 0.20325 0.84559
 H1499 H 0.27343 0.13507 0.96027
 H1500 H 0.29553 0.16038 0.92726
 H1501 H 0.29423 0.17675 0.88431
 H1502 H 0.21292 0.17353 0.88531
 H1503 H 0.21420 0.15725 0.92824
 H1504 H 0.23568 0.18112 0.84454
 H1505 H 0.22185 0.16347 0.97115
 H1506 H 0.28319 0.21067 0.85734
 C1507 C 0.73776 0.63344 0.47623
 C1508 C 0.75340 0.64946 0.46293
 C1509 C 0.74902 0.65745 0.43656
 C1510 C 0.76323 0.67706 0.42682
 C1511 C 0.76042 0.68478 0.40190
 C1512 C 0.74310 0.67313 0.38607
 C1513 C 0.72928 0.65312 0.39560
 C1514 C 0.73216 0.64531 0.42054
 C1515 C 0.73962 0.68092 0.35950
 C1516 C 0.74560 0.70497 0.35103
 H1517 H 0.76992 0.65624 0.47225
 H1518 H 0.77675 0.68636 0.43850
 H1519 H 0.77230 0.69952 0.39510
 H1520 H 0.71617 0.64350 0.38370
 H1521 H 0.72147 0.62948 0.42683
 H1522 H 0.73160 0.66761 0.34645
 H1523 H 0.72025 0.62805 0.46785
 H1524 H 0.75211 0.71892 0.36427
 C1525 C 0.24379 0.83827 0.48974
 C1526 C 0.25068 0.84269 0.46469
 C1527 C 0.24588 0.82580 0.44307
 C1528 C 0.25967 0.82960 0.42085
 C1529 C 0.25492 0.81574 0.39915
 C1530 C 0.23591 0.79793 0.39897
 C1531 C 0.22271 0.79324 0.42141
 C1532 C 0.22751 0.80721 0.44334
 C1533 C 0.22994 0.78445 0.37538
 C1534 C 0.23190 0.79678 0.35239
 H1535 H 0.26075 0.85966 0.46049
 H1536 H 0.27412 0.84357 0.42019
 H1537 H 0.26620 0.81907 0.38245
 H1538 H 0.20817 0.77938 0.42174
 H1539 H 0.21631 0.80393 0.46006
 H1540 H 0.22450 0.76483 0.37607
 H1541 H 0.23351 0.82154 0.49430
 H1542 H 0.23548 0.81693 0.35232
 C1543 C 0.75600 0.34604 0.96703
 C1544 C 0.73654 0.33337 0.95579
 C1545 C 0.73763 0.32532 0.92904
 C1546 C 0.71762 0.31194 0.91915
 C1547 C 0.71787 0.30433 0.89386
 C1548 C 0.73827 0.30996 0.87792
 C1549 C 0.75807 0.32375 0.88770
 C1550 C 0.75787 0.33126 0.91303
 C1551 C 0.73947 0.30189 0.85113
 C1552 C 0.72754 0.28054 0.84206
 H1553 H 0.71971 0.32968 0.96677
 H1554 H 0.70166 0.30742 0.93101
 H1555 H 0.70190 0.29441 0.88684
 H1556 H 0.77390 0.32848 0.87578
 H1557 H 0.77351 0.34177 0.91998
 H1558 H 0.75194 0.31176 0.83859
 H1559 H 0.75261 0.35017 0.98239
 H1560 H 0.71673 0.26916 0.85480
 C1561 C 0.86275 0.46892 0.25238
 C1562 C 0.87321 0.44410 0.25456
 C1563 C 0.85891 0.42060 0.25473
 C1564 C 0.83372 0.41976 0.24680
 C1565 C 0.82168 0.39657 0.24617
 C1566 C 0.83467 0.37391 0.25340
 C1567 C 0.85970 0.37488 0.26139
 C1568 C 0.87170 0.39794 0.26198
 C1569 C 0.82284 0.34901 0.25291
 C1570 C 0.79821 0.34610 0.24523
 H1571 H 0.89358 0.44172 0.25602
 H1572 H 0.82340 0.43671 0.24057
 H1573 H 0.80233 0.39640 0.23985
 H1574 H 0.87010 0.35771 0.26707
 H1575 H 0.89116 0.39804 0.26803
 H1576 H 0.83379 0.33238 0.25919
 H1577 H 0.84246 0.47226 0.25175
 H1578 H 0.79189 0.33197 0.24563
 C1579 C 0.37354 0.97463 0.74762
 C1580 C 0.34915 0.96670 0.74337
 C1581 C 0.34166 0.94041 0.74826
 C1582 C 0.31994 0.93175 0.73675
 C1583 C 0.31213 0.90713 0.74105
 C1584 C 0.32594 0.89067 0.75706
 C1585 C 0.34750 0.89938 0.76878
 C1586 C 0.35519 0.92408 0.76466
 C1587 C 0.31833 0.86444 0.76168
 C1588 C 0.29520 0.85639 0.75374
 H1589 H 0.33522 0.97979 0.73528
 H1590 H 0.30906 0.94402 0.72426
 H1591 H 0.29540 0.90099 0.73166
 H1592 H 0.35828 0.88713 0.78138
 H1593 H 0.37145 0.93030 0.77472
 H1594 H 0.33100 0.85132 0.77157
 H1595 H 0.38817 0.96057 0.75253
 H1596 H 0.29161 0.84141 0.75600
 C1597 C 0.14707 0.98380 0.23405
 C1598 C 0.13902 0.96241 0.24696
 C1599 C 0.15422 0.93823 0.24966
 C1600 C 0.14196 0.91676 0.25820
 C1601 C 0.15543 0.89367 0.26182
 C1602 C 0.18161 0.89148 0.25691
 C1603 C 0.19406 0.91310 0.24900
 C1604 C 0.18054 0.93627 0.24533
 C1605 C 0.19625 0.86699 0.25998
 C1606 C 0.18524 0.84354 0.25699
 H1607 H 0.12033 0.96328 0.25554
 H1608 H 0.12181 0.91785 0.26219
 H1609 H 0.14528 0.87773 0.26884
 H1610 H 0.21428 0.91201 0.24545
 H1611 H 0.19087 0.95256 0.23955
 H1612 H 0.21648 0.86742 0.26269
 H1613 H 0.16441 0.98218 0.22301
 H1614 H 0.16556 0.84303 0.25183
 C1615 C 0.64752 0.47456 0.76146
 C1616 C 0.63659 0.45114 0.75743
 C1617 C 0.65137 0.42654 0.75709
 C1618 C 0.64229 0.40594 0.74350
 C1619 C 0.65565 0.38235 0.74291
 C1620 C 0.67833 0.37878 0.75629
 C1621 C 0.68714 0.39938 0.77018
 C1622 C 0.67383 0.42295 0.77068
 C1623 C 0.69348 0.35426 0.75633
 C1624 C 0.68641 0.33185 0.74449
 H1625 H 0.61648 0.45088 0.75396
 H1626 H 0.62491 0.40818 0.73306
 H1627 H 0.64800 0.36727 0.73185
 H1628 H 0.70439 0.39720 0.78085
 H1629 H 0.68097 0.43808 0.78214
 H1630 H 0.71121 0.35386 0.76630
 H1631 H 0.66771 0.47474 0.76435
 H1632 H 0.66882 0.33126 0.73452
 C1633 C 0.64922 0.52166 0.76178
 C1634 C 0.63979 0.54693 0.76111
 C1635 C 0.65568 0.56892 0.75637
 C1636 C 0.64403 0.59154 0.74754
 C1637 C 0.65813 0.61295 0.74318
 C1638 C 0.68422 0.61227 0.74794
 C1639 C 0.69597 0.58954 0.75639
 C1640 C 0.68186 0.56810 0.76077
 C1641 C 0.69952 0.63495 0.74470
 C1642 C 0.68915 0.65972 0.74739
 H1643 H 0.61951 0.55056 0.76259
 H1644 H 0.62394 0.59262 0.74384
 H1645 H 0.64852 0.62987 0.73592
 H1646 H 0.71604 0.58855 0.76021
 H1647 H 0.69149 0.55126 0.76814
 H1648 H 0.71982 0.63207 0.74249
 H1649 H 0.66928 0.51767 0.75890
 H1650 H 0.66922 0.66279 0.75175
 C1651 C 0.14997 0.03079 0.23362
 C1652 C 0.14112 0.05629 0.23416
 C1653 C 0.15746 0.07848 0.23449
 C1654 C 0.14634 0.10261 0.22953
 C1655 C 0.16058 0.12432 0.23039
 C1656 C 0.18634 0.12243 0.23655
 C1657 C 0.19764 0.09827 0.24106
 C1658 C 0.18336 0.07649 0.24024
 C1659 C 0.20178 0.14521 0.23825
 C1660 C 0.19124 0.16937 0.24427
 H1661 H 0.12084 0.06015 0.23388
 H1662 H 0.12648 0.10470 0.22491
 H1663 H 0.15135 0.14247 0.22593
 H1664 H 0.21748 0.09631 0.24574
 H1665 H 0.19264 0.05839 0.24465
 H1666 H 0.22211 0.14266 0.23599
 H1667 H 0.17009 0.02625 0.23262
 H1668 H 0.17122 0.17174 0.24850
 C1669 C 0.36034 0.02181 0.74410
 C1670 C 0.36524 0.04701 0.73841
 C1671 C 0.34715 0.06880 0.74300
 C1672 C 0.35686 0.09305 0.74540
 C1673 C 0.34075 0.11440 0.74938
 C1674 C 0.31442 0.11203 0.75059
 C1675 C 0.30462 0.08773 0.74880
 C1676 C 0.32084 0.06622 0.74485
 C1677 C 0.29714 0.13479 0.75328
 C1678 C 0.30342 0.15785 0.74270
 H1679 H 0.38425 0.05124 0.73245
 H1680 H 0.37706 0.09549 0.74433
 H1681 H 0.34902 0.13274 0.75162
 H1682 H 0.28440 0.08548 0.74979
 H1683 H 0.31265 0.04785 0.74271
 H1684 H 0.27896 0.13313 0.76258
 H1685 H 0.34250 0.01788 0.75304
 H1686 H 0.32057 0.15867 0.73145
 C1687 C 0.86513 0.51591 0.24469
 C1688 C 0.84433 0.52547 0.25881
 C1689 C 0.83409 0.55195 0.25597
 C1690 C 0.82283 0.56459 0.27689
 C1691 C 0.81427 0.59007 0.27529
 C1692 C 0.81656 0.60333 0.25254
 C1693 C 0.82765 0.59065 0.23157
 C1694 C 0.83609 0.56514 0.23314
 C1695 C 0.80749 0.63024 0.25014
 C1696 C 0.78692 0.64033 0.26412
 H1697 H 0.83763 0.51438 0.27443
 H1698 H 0.82119 0.55490 0.29470
 H1699 H 0.80636 0.59942 0.29202
 H1700 H 0.82946 0.60041 0.21382
 H1701 H 0.84398 0.55583 0.21638
 H1702 H 0.81570 0.64166 0.23554
 H1703 H 0.87346 0.52826 0.23097
 H1704 H 0.77708 0.62820 0.27696
 C1705 C 0.97957 0.23739 0.14336
 C1706 C 0.95471 0.23592 0.13503
 C1707 C 0.93215 0.24163 0.15114
 C1708 C 0.90937 0.24905 0.13959
 C1709 C 0.88742 0.25418 0.15396
 C1710 C 0.88775 0.25156 0.18027
 C1711 C 0.91065 0.24460 0.19188
 C1712 C 0.93263 0.23951 0.17749
 C1713 C 0.86458 0.25528 0.19604
 C1714 C 0.84043 0.25174 0.18677
 H1715 H 0.95176 0.23261 0.11514
 H1716 H 0.90857 0.25103 0.11933
 H1717 H 0.87037 0.26029 0.14435
 H1718 H 0.91139 0.24246 0.21212
 H1719 H 0.94970 0.23335 0.18706
 H1720 H 0.86679 0.25821 0.21609
 H1721 H 0.98282 0.24308 0.16265
 H1722 H 0.83801 0.24689 0.16715
 C1723 C 0.47576 0.76411 0.64088
 C1724 C 0.45641 0.78302 0.64320
 C1725 C 0.43108 0.77748 0.65326
 C1726 C 0.41682 0.79665 0.66624
 C1727 C 0.39310 0.79169 0.67646
 C1728 C 0.38307 0.76749 0.67357
 C1729 C 0.39675 0.74873 0.65949
 C1730 C 0.42062 0.75359 0.64953
 C1731 C 0.35869 0.76133 0.68541
 C1732 C 0.35137 0.77139 0.70887
 H1733 H 0.45996 0.80253 0.63845
 H1734 H 0.42425 0.81536 0.66886
 H1735 H 0.38261 0.80683 0.68653
 H1736 H 0.38922 0.73009 0.65669
 H1737 H 0.43073 0.73870 0.63876
 H1738 H 0.34752 0.74694 0.67672
 H1739 H 0.47238 0.74562 0.64878
 H1740 H 0.36383 0.78390 0.71857
 C1741 C 0.47387 0.26493 0.85272
 C1742 C 0.46496 0.25118 0.83230
 C1743 C 0.43827 0.25373 0.82440
 C1744 C 0.43227 0.24953 0.79914
 C1745 C 0.40713 0.25143 0.79132
 C1746 C 0.38737 0.25708 0.80882
 C1747 C 0.39346 0.26118 0.83410
 C1748 C 0.41856 0.25939 0.84187
 C1749 C 0.36032 0.25891 0.80171
 C1750 C 0.35127 0.24968 0.77901
 H1751 H 0.47777 0.23834 0.82174
 H1752 H 0.44712 0.24505 0.78537
 H1753 H 0.40353 0.24871 0.77154
 H1754 H 0.37868 0.26544 0.84801
 H1755 H 0.42235 0.26188 0.86167
 H1756 H 0.34681 0.26697 0.81542
 H1757 H 0.46085 0.27872 0.86182
 H1758 H 0.36411 0.24066 0.76532
 C1759 C 0.95974 0.77097 0.36210
 C1760 C 0.94979 0.75360 0.34526
 C1761 C 0.92289 0.75416 0.33787
 C1762 C 0.91290 0.73156 0.32897
 C1763 C 0.88767 0.73102 0.32178
 C1764 C 0.87188 0.75328 0.32293
 C1765 C 0.88171 0.77584 0.33219
 C1766 C 0.90702 0.77638 0.33943
 C1767 C 0.84540 0.75347 0.31420
 C1768 C 0.83808 0.73720 0.29502
 H1769 H 0.96185 0.73758 0.33884
 H1770 H 0.92462 0.71414 0.32779
 H1771 H 0.88058 0.71305 0.31554
 H1772 H 0.86994 0.79323 0.33326
 H1773 H 0.91410 0.79432 0.34571
 H1774 H 0.83200 0.76802 0.32145
 H1775 H 0.94743 0.78602 0.37012
 H1776 H 0.85209 0.72432 0.28611
 C1777 C 0.00631 0.76459 0.35259
 C1778 C 0.03170 0.76124 0.35916
 C1779 C 0.05350 0.76227 0.34156
 C1780 C 0.07726 0.76621 0.35184
 C1781 C 0.09879 0.76630 0.33652
 C1782 C 0.09720 0.76199 0.31045
 C1783 C 0.07334 0.75892 0.29990
 C1784 C 0.05160 0.75891 0.31534
 C1785 C 0.12036 0.76024 0.29443
 C1786 C 0.14300 0.75010 0.30400
 H1787 H 0.03587 0.75927 0.37899
 H1788 H 0.07921 0.76919 0.37192
 H1789 H 0.11671 0.76977 0.34521
 H1790 H 0.07163 0.75577 0.27984
 H1791 H 0.03363 0.75560 0.30675
 H1792 H 0.11940 0.76606 0.27496
 H1793 H 0.00126 0.76804 0.33322
 H1794 H 0.14301 0.74224 0.32277
 C1795 C 0.52058 0.25297 0.84684
 C1796 C 0.54418 0.24420 0.85575
 C1797 C 0.56743 0.23893 0.84043
 C1798 C 0.56902 0.24334 0.81440
 C1799 C 0.59201 0.23896 0.80134
 C1800 C 0.61383 0.23017 0.81410
 C1801 C 0.61189 0.22513 0.83989
 C1802 C 0.58904 0.22951 0.85287
 C1803 C 0.63908 0.22658 0.80183
 C1804 C 0.64535 0.23588 0.77815
 H1805 H 0.54578 0.24130 0.87584
 H1806 H 0.55282 0.25038 0.80400
 H1807 H 0.59244 0.24258 0.78137
 H1808 H 0.62827 0.21823 0.85022
 H1809 H 0.58838 0.22578 0.87288
 H1810 H 0.65407 0.21781 0.81292
 H1811 H 0.51815 0.25737 0.82718
 H1812 H 0.63109 0.24500 0.76653
 C1813 C 0.52204 0.76501 0.64723
 C1814 C 0.54745 0.76489 0.63962
 C1815 C 0.56934 0.76154 0.65648
 C1816 C 0.59320 0.75613 0.64542
 C1817 C 0.61468 0.75329 0.66020
 C1818 C 0.61284 0.75614 0.68650
 C1819 C 0.58894 0.76108 0.69769
 C1820 C 0.56735 0.76392 0.68285
 C1821 C 0.63544 0.75373 0.70256
 C1822 C 0.65961 0.75877 0.69363
 H1823 H 0.55148 0.76638 0.61964
 H1824 H 0.59525 0.75397 0.62519
 H1825 H 0.63258 0.74853 0.65089
 H1826 H 0.58703 0.76319 0.71793
 H1827 H 0.54939 0.76839 0.69214
 H1828 H 0.63284 0.74885 0.72216
 H1829 H 0.51701 0.76279 0.66685
 H1830 H 0.66212 0.76560 0.67466
 C1831 C 0.02594 0.23408 0.14110
 C1832 C 0.04320 0.25352 0.14195
 C1833 C 0.06677 0.25206 0.15666
 C1834 C 0.08642 0.26778 0.14980
 C1835 C 0.10894 0.26731 0.16320
 C1836 C 0.11228 0.25106 0.18389
 C1837 C 0.09244 0.23573 0.19109
 C1838 C 0.06991 0.23615 0.17763
 C1839 C 0.13564 0.25042 0.19894
 C1840 C 0.15885 0.25825 0.18976
 H1841 H 0.04004 0.27030 0.13061
 H1842 H 0.08433 0.28051 0.13397
 H1843 H 0.12337 0.28010 0.15756
 H1844 H 0.09436 0.22339 0.20723
 H1845 H 0.05493 0.22439 0.18408
 H1846 H 0.13461 0.24287 0.21782
 H1847 H 0.02954 0.21708 0.15207
 H1848 H 0.16076 0.26416 0.17042
 C1849 C -0.09727 0.98895 0.76412
 C1850 C -0.10936 0.99671 0.78676
 C1851 C -0.09638 0.99814 0.81127
 C1852 C -0.07409 0.98363 0.81629
 C1853 C -0.06287 0.98492 0.83993
 C1854 C -0.07363 1.00081 0.85911
 C1855 C -0.09610 1.01495 0.85416
 C1856 C -0.10735 1.01361 0.83053
 C1857 C -0.06268 1.00222 0.88468
 C1858 C -0.03776 0.99444 0.88995
 H1859 H -0.12927 1.00237 0.78646
 H1860 H -0.06561 0.97066 0.80236
 H1861 H -0.04621 0.97283 0.84315
 H1862 H -0.10500 1.02708 0.86863
 H1863 H -0.12471 1.02473 0.82729
 H1864 H -0.07471 1.00976 0.89990
 H1865 H -0.07736 0.98340 0.76429
 H1866 H -0.02505 0.98807 0.87485
 C1867 C 0.40293 0.49622 0.29063
 C1868 C 0.39189 0.49143 0.31407
 C1869 C 0.40606 0.49077 0.33788
 C1870 C 0.39261 0.49424 0.36067
 C1871 C 0.40524 0.49407 0.38358
 C1872 C 0.43172 0.49037 0.38414
 C1873 C 0.44506 0.48609 0.36139
 C1874 C 0.43243 0.48627 0.33848
 C1875 C 0.44605 0.49032 0.40788
 C1876 C 0.43658 0.50092 0.43049
 H1877 H 0.37165 0.48923 0.31511
 H1878 H 0.37223 0.49728 0.36073
 H1879 H 0.39408 0.49651 0.40068
 H1880 H 0.46540 0.48272 0.36131
 H1881 H 0.44340 0.48252 0.32144
 H1882 H 0.46535 0.48253 0.40722
 H1883 H 0.42269 0.50066 0.28971
 H1884 H 0.41783 0.50991 0.43151
 C1885 C 0.60142 0.00033 0.25860
 C1886 C 0.60714 -0.00128 0.28416
 C1887 C 0.58862 0.00386 0.30489
 C1888 C 0.59779 0.01128 0.32834
 C1889 C 0.58138 0.01549 0.34885
 C1890 C 0.55535 0.01183 0.34654
 C1891 C 0.54599 0.00513 0.32289
 C1892 C 0.56247 0.00105 0.30222
 C1893 C 0.53794 0.01423 0.36864
 C1894 C 0.54637 0.00875 0.39284
 H1895 H 0.62664 -0.00503 0.28935
 H1896 H 0.61779 0.01389 0.33081
 H1897 H 0.58922 0.02165 0.36647
 H1898 H 0.52601 0.00231 0.32060
 H1899 H 0.55476 -0.00499 0.28451
 H1900 H 0.51799 0.01839 0.36565
 H1901 H 0.58222 0.00546 0.25336
 H1902 H 0.56585 0.00228 0.39540
 C1903 C 0.10350 0.51298 0.77073
 C1904 C 0.11226 0.50323 0.79354
 C1905 C 0.09699 0.50398 0.81708
 C1906 C 0.10942 0.50072 0.84004
 C1907 C 0.09571 0.50053 0.86267
 C1908 C 0.06916 0.50330 0.86273
 C1909 C 0.05674 0.50687 0.83981
 C1910 C 0.07044 0.50699 0.81717
 C1911 C 0.05392 0.50266 0.88621
 C1912 C 0.06223 0.48985 0.90764
 H1913 H 0.13141 0.49517 0.79440
 H1914 H 0.12985 0.49840 0.84049
 H1915 H 0.10603 0.49850 0.88001
 H1916 H 0.03630 0.50904 0.83939
 H1917 H 0.06005 0.50886 0.79986
 H1918 H 0.03494 0.51127 0.88611
 H1919 H 0.08555 0.52367 0.77048
 H1920 H 0.08043 0.47963 0.90749
 C1921 C 0.10163 0.51087 0.72437
 C1922 C 0.11092 0.51044 0.69965
 C1923 C 0.09487 0.50839 0.67723
 C1924 C 0.10637 0.50037 0.65443
 C1925 C 0.09225 0.49896 0.63253
 C1926 C 0.06629 0.50595 0.63292
 C1927 C 0.05462 0.51345 0.65581
 C1928 C 0.06878 0.51486 0.67778
 C1929 C 0.05112 0.50573 0.60976
 C1930 C 0.06187 0.50965 0.58610
 H1931 H 0.13121 0.51072 0.69670
 H1932 H 0.12639 0.49511 0.65355
 H1933 H 0.10174 0.49220 0.61543
 H1934 H 0.03463 0.51884 0.65657
 H1935 H 0.05928 0.52165 0.69485
 H1936 H 0.03087 0.50393 0.61152
 H1937 H 0.08166 0.50869 0.72786
 H1938 H 0.08174 0.51346 0.58446
 C1939 C 0.61102 0.99449 0.21257
 C1940 C 0.59187 1.00984 0.20203
 C1941 C 0.58485 1.00672 0.17549
 C1942 C 0.55953 1.01043 0.16864
 C1943 C 0.55255 1.00740 0.14358
 C1944 C 0.57094 1.00101 0.12492
 C1945 C 0.59636 0.99814 0.13167
 C1946 C 0.60328 1.00077 0.15678
 C1947 C 0.56416 0.99874 0.09821
 C1948 C 0.54089 0.99009 0.09090
 H1949 H 0.58182 1.02432 0.21340
 H1950 H 0.54514 1.01546 0.18273
 H1951 H 0.53288 1.01064 0.13878
 H1952 H 0.61086 0.99375 0.11751
 H1953 H 0.62310 0.99865 0.16144
 H1954 H 0.57770 1.00432 0.08405
 H1955 H 0.61981 0.97947 0.20084
 H1956 H 0.52822 0.98259 0.10489
 C1957 C 0.40565 0.49950 0.24439
 C1958 C 0.39975 0.49081 0.22028
 C1959 C 0.41503 0.49524 0.19730
 C1960 C 0.40425 0.49024 0.17393
 C1961 C 0.41746 0.49443 0.15159
 C1962 C 0.44186 0.50403 0.15207
 C1963 C 0.45295 0.50846 0.17544
 C1964 C 0.43974 0.50412 0.19787
 C1965 C 0.45660 0.50834 0.12868
 C1966 C 0.44546 0.51046 0.10512
 H1967 H 0.38193 0.48182 0.21773
 H1968 H 0.38544 0.48300 0.17290
 H1969 H 0.40852 0.48960 0.13414
 H1970 H 0.47191 0.51533 0.17636
 H1971 H 0.44917 0.50754 0.21540
 H1972 H 0.47695 0.50921 0.12999
 H1973 H 0.42217 0.51060 0.24678
 H1974 H 0.42513 0.51066 0.10345
 C1975 C -0.09300 -0.01298 0.71743
 C1976 C -0.10124 -0.01255 0.69248
 C1977 C -0.08500 -0.00728 0.67030
 C1978 C -0.09683 0.00002 0.64785
 C1979 C -0.08258 0.00537 0.62638
 C1980 C -0.05601 0.00320 0.62672
 C1981 C -0.04411 -0.00386 0.64921
 C1982 C -0.05840 -0.00921 0.67076
 C1983 C -0.04034 0.00830 0.60407
 C1984 C -0.04934 0.00572 0.57962
 H1985 H -0.12127 -0.01419 0.68927
 H1986 H -0.11727 0.00188 0.64698
 H1987 H -0.09254 0.01155 0.60973
 H1988 H -0.02367 -0.00562 0.65001
 H1989 H -0.04846 -0.01519 0.68748
 H1990 H -0.02073 0.01265 0.60667
 H1991 H -0.07329 -0.01020 0.72122
 H1992 H -0.06822 -0.00073 0.57677
 C1993 C -0.22204 0.88630 1.00670
 C1994 C -0.21183 0.90300 0.98932
 C1995 C -0.18491 0.91014 0.98926
 C1996 C -0.17771 0.93071 0.97455
 C1997 C -0.15247 0.93760 0.97335
 C1998 C -0.13368 0.92404 0.98698
 C1999 C -0.14081 0.90314 1.00127
 C2000 C -0.16602 0.89620 1.00238
 C2001 C -0.10661 0.93076 0.98673
 C2002 C -0.09812 0.95396 0.97811
 H2003 H -0.22392 0.91041 0.97456
 H2004 H -0.19170 0.94148 0.96382
 H2005 H -0.14793 0.95333 0.96143
 H2006 H -0.12678 0.89207 1.01166
 H2007 H -0.17032 0.87958 1.01317
 H2008 H -0.09296 0.91739 0.99494
 H2009 H -0.21065 0.88022 1.02247
 H2010 H -0.11147 0.96816 0.97094
 C2011 C 0.28155 0.38901 0.51378
 C2012 C 0.30468 0.38315 0.50161
 C2013 C 0.32803 0.39513 0.50938
 C2014 C 0.34456 0.40398 0.49097
 C2015 C 0.36655 0.41581 0.49798
 C2016 C 0.37273 0.41821 0.52350
 C2017 C 0.35676 0.40843 0.54191
 C2018 C 0.33432 0.39729 0.53493
 C2019 C 0.39567 0.43121 0.53077
 C2020 C 0.40000 0.45527 0.52139
 H2021 H 0.30586 0.37031 0.48558
 H2022 H 0.34016 0.40222 0.47120
 H2023 H 0.37885 0.42295 0.48347
 H2024 H 0.36134 0.40997 0.56165
 H2025 H 0.32205 0.39008 0.54942
 H2026 H 0.40882 0.42209 0.54365
 H2027 H 0.28125 0.40321 0.52874
 H2028 H 0.38527 0.46488 0.51058
 C2029 C 0.26557 0.59707 0.00751
 C2030 C 0.28947 0.60735 0.00906
 C2031 C 0.31388 0.59248 0.01019
 C2032 C 0.33623 0.60590 0.00988
 C2033 C 0.35983 0.59309 0.01125
 C2034 C 0.36164 0.56638 0.01285
 C2035 C 0.33931 0.55293 0.01342
 C2036 C 0.31566 0.56577 0.01208
 C2037 C 0.38623 0.55194 0.01466
 C2038 C 0.40952 0.56181 0.00824
 H2039 H 0.29041 0.62787 0.00904
 H2040 H 0.33545 0.62650 0.00872
 H2041 H 0.37642 0.60432 0.01153
 H2042 H 0.34016 0.53236 0.01490
 H2043 H 0.29905 0.55458 0.01275
 H2044 H 0.38584 0.53228 0.02059
 H2045 H 0.26388 0.57667 0.00689
 H2046 H 0.41049 0.58086 0.00091
 C2047 C -0.23313 0.09124 0.49619
 C2048 C -0.21014 0.10099 0.48846
 C2049 C -0.18545 0.08676 0.48910
 C2050 C -0.16548 0.09579 0.47462
 C2051 C -0.14140 0.08399 0.47552
 C2052 C -0.13667 0.06304 0.49130
 C2053 C -0.15674 0.05360 0.50537
 C2054 C -0.18091 0.06542 0.50446
 C2055 C -0.11116 0.05067 0.49327
 C2056 C -0.08918 0.06364 0.48855
 H2057 H -0.21010 0.12023 0.48135
 H2058 H -0.16852 0.11210 0.46253
 H2059 H -0.12667 0.09126 0.46366
 H2060 H -0.15357 0.03739 0.51756
 H2061 H -0.19563 0.05817 0.51633
 H2062 H -0.10962 0.03112 0.49959
 H2063 H -0.23337 0.07202 0.50327
 H2064 H -0.09041 0.08367 0.48397
 C2065 C 0.72014 0.09054 0.49381
 C2066 C 0.69529 0.10067 0.49336
 C2067 C 0.67292 0.08551 0.48845
 C2068 C 0.65075 0.09832 0.48035
 C2069 C 0.62878 0.08517 0.47648
 C2070 C 0.62835 0.05887 0.48109
 C2071 C 0.65071 0.04586 0.48849
 C2072 C 0.67279 0.05904 0.49231
 C2073 C 0.60475 0.04487 0.47887
 C2074 C 0.58108 0.05692 0.48333
 H2075 H 0.69227 0.12111 0.49560
 H2076 H 0.65040 0.11864 0.47701
 H2077 H 0.61222 0.09573 0.46984
 H2078 H 0.65088 0.02559 0.49207
 H2079 H 0.68936 0.04853 0.49895
 H2080 H 0.60611 0.02446 0.47567
 H2081 H 0.72380 0.07040 0.49014
 H2082 H 0.57990 0.07687 0.48870
 C2083 C 0.21871 0.59928 1.00062
 C2084 C 0.21115 0.57804 1.01388
 C2085 C 0.18555 0.56834 1.01138
 C2086 C 0.18169 0.54243 1.01521
 C2087 C 0.15739 0.53313 1.01381
 C2088 C 0.13651 0.54978 1.00891
 C2089 C 0.14035 0.57575 1.00566
 C2090 C 0.16460 0.58496 1.00677
 C2091 C 0.11043 0.54100 1.00815
 C2092 C 0.10468 0.51632 1.00113
 H2093 H 0.22390 0.56896 1.02718
 H2094 H 0.19750 0.52940 1.01930
 H2095 H 0.15497 0.51311 1.01719
 H2096 H 0.12449 0.58898 1.00229
 H2097 H 0.16677 0.60523 1.00472
 H2098 H 0.09510 0.55492 1.01200
 H2099 H 0.20613 0.60709 0.98643
 H2100 H 0.11960 0.50274 0.99518
 C2101 C 0.23567 0.39560 0.50491
 C2102 C 0.21091 0.38810 0.50159
 C2103 C 0.18837 0.40573 0.50121
 C2104 C 0.16465 0.39565 0.50562
 C2105 C 0.14271 0.41135 0.50573
 C2106 C 0.14397 0.43756 0.50102
 C2107 C 0.16770 0.44772 0.49675
 C2108 C 0.18973 0.43197 0.49668
 C2109 C 0.12101 0.45470 0.50088
 C2110 C 0.09706 0.44600 0.49586
 H2111 H 0.20779 0.36784 0.50113
 H2112 H 0.16309 0.37554 0.50934
 H2113 H 0.12493 0.40288 0.50997
 H2114 H 0.16917 0.46787 0.49315
 H2115 H 0.20758 0.44042 0.49274
 H2116 H 0.12321 0.47492 0.50378
 H2117 H 0.23949 0.41559 0.50672
 H2118 H 0.09485 0.42619 0.49098
 C2119 C 0.73111 0.89654 0.00641
 C2120 C 0.70570 0.89035 0.00906
 C2121 C 0.68334 0.90840 0.00945
 C2122 C 0.65940 0.89808 0.01153
 C2123 C 0.63742 0.91371 0.01123
 C2124 C 0.63879 0.94020 0.00866
 C2125 C 0.66270 0.95073 0.00736
 C2126 C 0.68483 0.93500 0.00761
 C2127 C 0.61557 0.95701 0.00760
 C2128 C 0.59288 0.94849 -0.00184
 H2129 H 0.70186 0.87031 0.01045
 H2130 H 0.65762 0.87771 0.01332
 H2131 H 0.61942 0.90493 0.01328
 H2132 H 0.66424 0.97114 0.00570
 H2133 H 0.70285 0.94379 0.00621
 H2134 H 0.61667 0.97680 0.01323
 H2135 H 0.73605 0.91616 0.00430
 H2136 H 0.59234 0.92941 -0.00965
 C2137 C 0.00239 0.75388 0.89094
 C2138 C 0.00441 0.77883 0.88240
 C2139 C 0.00090 0.80214 0.89821
 C2140 C -0.00321 0.82550 0.88602
 C2141 C -0.00646 0.84818 0.89979
 C2142 C -0.00529 0.84813 0.92621
 C2143 C -0.00162 0.82474 0.93850
 C2144 C 0.00159 0.80193 0.92468
 C2145 C -0.00768 0.87209 0.94123
 C2146 C -0.00094 0.89547 0.93150
 H2147 H 0.00707 0.78141 0.86233
 H2148 H -0.00409 0.82621 0.86568
 H2149 H -0.01014 0.86564 0.88960
 H2150 H -0.00074 0.82417 0.95884
 H2151 H 0.00501 0.78441 0.93481
 H2152 H -0.01306 0.87100 0.96093
 H2153 H -0.00149 0.75034 0.91060
 H2154 H 0.00668 0.89631 0.91254
 C2155 C 0.50438 0.29003 0.38462
 C2156 C 0.48665 0.30078 0.40180
 C2157 C 0.48870 0.32646 0.41326
 C2158 C 0.47501 0.33249 0.43547
 C2159 C 0.47628 0.35652 0.44682
 C2160 C 0.49136 0.37514 0.43615
 C2161 C 0.50443 0.36937 0.41353
 C2162 C 0.50316 0.34533 0.40217
 C2163 C 0.49340 0.40080 0.44769
 C2164 C 0.48830 0.40591 0.47312
 H2165 H 0.47088 0.28963 0.40750
 H2166 H 0.46330 0.31852 0.44411
 H2167 H 0.46506 0.36043 0.46367
 H2168 H 0.51577 0.38350 0.40464
 H2169 H 0.51318 0.34192 0.38452
 H2170 H 0.50008 0.41594 0.43597
 H2171 H 0.52099 0.30041 0.38003
 H2172 H 0.48308 0.39068 0.48542
 C2173 C 0.00579 0.28263 0.60250
 C2174 C -0.00145 0.30789 0.60875
 C2175 C 0.00123 0.32985 0.59175
 C2176 C -0.01337 0.35224 0.59700
 C2177 C -0.01152 0.37362 0.58180
 C2178 C 0.00539 0.37327 0.56113
 C2179 C 0.01985 0.35080 0.55569
 C2180 C 0.01794 0.32931 0.57090
 C2181 C 0.00805 0.39584 0.54487
 C2182 C 0.00214 0.42064 0.55341
 H2183 H -0.01066 0.31159 0.62684
 H2184 H -0.02652 0.35314 0.61282
 H2185 H -0.02369 0.39019 0.58618
 H2186 H 0.03295 0.34998 0.53983
 H2187 H 0.02992 0.31264 0.56645
 H2188 H 0.01578 0.39293 0.52602
 H2189 H 0.01479 0.27842 0.58446
 H2190 H -0.00381 0.42390 0.57277
 C2191 C 0.49520 0.78790 0.10936
 C2192 C 0.48177 0.79713 0.08867
 C2193 C 0.48429 0.82340 0.07958
 C2194 C 0.48155 0.82858 0.05391
 C2195 C 0.48371 0.85339 0.04503
 C2196 C 0.48828 0.87351 0.06181
 C2197 C 0.49023 0.86842 0.08756
 C2198 C 0.48839 0.84361 0.09638
 C2199 C 0.49007 0.90007 0.05326
 C2200 C 0.49875 0.90619 0.02928
 H2201 H 0.46909 0.78486 0.07897
 H2202 H 0.47790 0.81338 0.04071
 H2203 H 0.48126 0.85681 0.02515
 H2204 H 0.49328 0.88367 0.10090
 H2205 H 0.48964 0.84043 0.11643
 H2206 H 0.48541 0.91529 0.06667
 H2207 H 0.50872 0.80020 0.11782
 H2208 H 0.50539 0.89118 0.01640
 C2209 C 0.49172 0.74063 0.10376
 C2210 C 0.49139 0.71544 0.11205
 C2211 C 0.49148 0.69245 0.09559
 C2212 C 0.48623 0.66917 0.10679
 C2213 C 0.48677 0.64666 0.09262
 C2214 C 0.49294 0.64675 0.06681
 C2215 C 0.49760 0.67009 0.05535
 C2216 C 0.49706 0.69275 0.06960
 C2217 C 0.49441 0.62281 0.05166
 C2218 C 0.50092 0.59935 0.06248
 H2219 H 0.49060 0.71233 0.13214
 H2220 H 0.48162 0.66836 0.12669
 H2221 H 0.48208 0.62926 0.10199
 H2222 H 0.50220 0.67070 0.03545
 H2223 H 0.50147 0.71018 0.06021
 H2224 H 0.49120 0.62379 0.03160
 H2225 H 0.49171 0.74445 0.08382
 H2226 H 0.50620 0.59876 0.08208
 C2227 C 0.00475 0.23565 0.60608
 C2228 C -0.00556 0.21324 0.61481
 C2229 C -0.00088 0.18829 0.60239
 C2230 C -0.02071 0.17157 0.60103
 C2231 C -0.01691 0.14768 0.58954
 C2232 C 0.00704 0.13989 0.57987
 C2233 C 0.02716 0.15621 0.58207
 C2234 C 0.02317 0.18044 0.59297
 C2235 C 0.01099 0.11503 0.56704
 C2236 C -0.00606 0.10720 0.54918
 H2237 H -0.01863 0.21414 0.63068
 H2238 H -0.03929 0.17717 0.60853
 H2239 H -0.03260 0.13521 0.58839
 H2240 H 0.04579 0.15041 0.57485
 H2241 H 0.03893 0.19279 0.59443
 H2242 H 0.02862 0.10414 0.56958
 H2243 H 0.01765 0.23441 0.59006
 H2244 H -0.02181 0.11995 0.54415
 C2245 C 0.49931 0.24301 0.39010
 C2246 C 0.49718 0.21795 0.38154
 C2247 C 0.49903 0.19511 0.39760
 C2248 C 0.50544 0.17158 0.38600
 C2249 C 0.50675 0.14923 0.39996
 C2250 C 0.50114 0.14979 0.42591
 C2251 C 0.49532 0.17342 0.43771
 C2252 C 0.49416 0.19591 0.42370
 C2253 C 0.50092 0.12606 0.44085
 C2254 C 0.49602 0.10255 0.42989
 H2255 H 0.49587 0.21483 0.36140
 H2256 H 0.50956 0.17047 0.36598
 H2257 H 0.51232 0.13163 0.39028
 H2258 H 0.49106 0.17439 0.45770
 H2259 H 0.48885 0.21366 0.43324
 H2260 H 0.50283 0.12741 0.46109
 H2261 H 0.50211 0.24684 0.40989
 H2262 H 0.49191 0.10150 0.41003
 C2263 C -0.00102 0.70660 0.88539
 C2264 C 0.01733 0.69568 0.90112
 C2265 C 0.01657 0.66916 0.91025
 C2266 C 0.03098 0.66190 0.93116
 C2267 C 0.03112 0.63687 0.93995
 C2268 C 0.01680 0.61849 0.92786
 C2269 C 0.00293 0.62566 0.90657
 C2270 C 0.00284 0.65061 0.89779
 C2271 C 0.01565 0.59181 0.93658
 C2272 C 0.02411 0.58332 0.95995
 H2273 H 0.03303 0.70689 0.90668
 H2274 H 0.04216 0.67568 0.94078
 H2275 H 0.04266 0.63217 0.95599
 H2276 H -0.00797 0.61186 0.89665
 H2277 H -0.00764 0.65502 0.88095
 H2278 H 0.00622 0.57852 0.92456
 H2279 H -0.01785 0.69627 0.88174
 H2280 H 0.03286 0.59616 0.97284
 C2281 C 0.24369 0.63523 0.98838
 C2282 C 0.25104 0.62948 0.96354
 C2283 C 0.25149 0.64808 0.94285
 C2284 C 0.25415 0.63854 0.91819
 C2285 C 0.25505 0.65500 0.89785
 C2286 C 0.25363 0.68154 0.90172
 C2287 C 0.25056 0.69121 0.92633
 C2288 C 0.24971 0.67465 0.94680
 C2289 C 0.25461 0.69921 0.88027
 C2290 C 0.26765 0.69245 0.85807
 H2291 H 0.25588 0.60973 0.95881
 H2292 H 0.25536 0.61818 0.91458
 H2293 H 0.25642 0.64680 0.87910
 H2294 H 0.24923 0.71159 0.92973
 H2295 H 0.24802 0.68283 0.96551
 H2296 H 0.24485 0.71773 0.88197
 H2297 H 0.23656 0.65424 0.99336
 H2298 H 0.27897 0.67477 0.85714
 C2299 C 0.74162 0.12785 0.47739
 C2300 C 0.74331 0.12107 0.45188
 C2301 C 0.74519 0.13920 0.43079
 C2302 C 0.75085 0.12920 0.40669
 C2303 C 0.75301 0.14521 0.38605
 C2304 C 0.74968 0.17179 0.38904
 C2305 C 0.74359 0.18183 0.41305
 C2306 C 0.74142 0.16577 0.43377
 C2307 C 0.75110 0.18928 0.36736
 C2308 C 0.76356 0.18254 0.34477
 H2309 H 0.74455 0.10091 0.44723
 H2310 H 0.75355 0.10882 0.40376
 H2311 H 0.75671 0.13651 0.36778
 H2312 H 0.74051 0.20220 0.41579
 H2313 H 0.73655 0.17435 0.45184
 H2314 H 0.74166 0.20795 0.36915
 H2315 H 0.74089 0.14767 0.48310
 H2316 H 0.77426 0.16457 0.34310
 C2317 C 0.25871 0.35799 0.48615
 C2318 C 0.26066 0.36756 0.46171
 C2319 C 0.25935 0.35219 0.43820
 C2320 C 0.25711 0.36512 0.41529
 C2321 C 0.25542 0.35175 0.39255
 C2322 C 0.25585 0.32496 0.39219
 C2323 C 0.25854 0.31198 0.41505
 C2324 C 0.26025 0.32537 0.43782
 C2325 C 0.25452 0.30991 0.36847
 C2326 C 0.24621 0.31999 0.34560
 H2327 H 0.26205 0.38798 0.45978
 H2328 H 0.25664 0.38575 0.41494
 H2329 H 0.25422 0.36259 0.37541
 H2330 H 0.25930 0.29135 0.41530
 H2331 H 0.26247 0.31451 0.45485
 H2332 H 0.26014 0.28985 0.36916
 H2333 H 0.25695 0.33781 0.48897
 H2334 H 0.23931 0.33962 0.34455
 C2335 C 0.74849 0.86205 0.97895
 C2336 C 0.76813 0.85452 0.96229
 C2337 C 0.76359 0.84633 0.93604
 C2338 C 0.78174 0.83032 0.92367
 C2339 C 0.77815 0.82242 0.89885
 C2340 C 0.75636 0.83059 0.88576
 C2341 C 0.73872 0.84750 0.89772
 C2342 C 0.74220 0.85522 0.92268
 C2343 C 0.75171 0.82129 0.85989
 C2344 C 0.75859 0.79631 0.85294
 H2345 H 0.78749 0.85441 0.96860
 H2346 H 0.79865 0.82371 0.93333
 H2347 H 0.79253 0.81002 0.88986
 H2348 H 0.72201 0.85435 0.88789
 H2349 H 0.72830 0.86841 0.93131
 H2350 H 0.74133 0.83347 0.84693
 H2351 H 0.72935 0.85852 0.97335
 H2352 H 0.76668 0.78371 0.86702
 C2353 C 0.74850 0.85646 0.02546
 C2354 C 0.74691 0.86499 0.05051
 C2355 C 0.74382 0.84897 0.07310
 C2356 C 0.74136 0.82237 0.07224
 C2357 C 0.73893 0.80854 0.09461
 C2358 C 0.73889 0.82113 0.11814
 C2359 C 0.74105 0.84763 0.11876
 C2360 C 0.74343 0.86132 0.09662
 C2361 C 0.73793 0.80788 0.14262
 C2362 C 0.73246 0.78234 0.14645
 H2363 H 0.74812 0.88531 0.05376
 H2364 H 0.74147 0.81209 0.05453
 H2365 H 0.73758 0.78810 0.09336
 H2366 H 0.74113 0.85789 0.13655
 H2367 H 0.74520 0.88176 0.09795
 H2368 H 0.74184 0.81938 0.15904
 H2369 H 0.74817 0.83635 0.02101
 H2370 H 0.72721 0.77031 0.13092
 C2371 C 0.25121 0.36111 0.53274
 C2372 C 0.24378 0.37392 0.55508
 C2373 C 0.23905 0.36156 0.57945
 C2374 C 0.23487 0.33541 0.58155
 C2375 C 0.23082 0.32469 0.60518
 C2376 C 0.23070 0.33996 0.62712
 C2377 C 0.23446 0.36608 0.62487
 C2378 C 0.23840 0.37678 0.60131
 C2379 C 0.22886 0.32922 0.65266
 C2380 C 0.21998 0.30518 0.65785
 H2381 H 0.24221 0.39456 0.55485
 H2382 H 0.23466 0.32315 0.56510
 H2383 H 0.22852 0.30438 0.60614
 H2384 H 0.23461 0.37824 0.64145
 H2385 H 0.24139 0.39701 0.60021
 H2386 H 0.23585 0.34049 0.66806
 H2387 H 0.25509 0.34072 0.53291
 H2388 H 0.21132 0.29418 0.64326
 C2389 C 0.74042 0.11944 0.52378
 C2390 C 0.75844 0.13591 0.53272
 C2391 C 0.75975 0.14494 0.55919
 C2392 C 0.77511 0.16529 0.56479
 C2393 C 0.77745 0.17406 0.58956
 C2394 C 0.76440 0.16257 0.60938
 C2395 C 0.74947 0.14187 0.60381
 C2396 C 0.74717 0.13309 0.57908
 C2397 C 0.76535 0.17152 0.63593
 C2398 C 0.77517 0.19456 0.64369
 H2399 H 0.77256 0.14235 0.51960
 H2400 H 0.78538 0.17447 0.54990
 H2401 H 0.78962 0.18967 0.59288
 H2402 H 0.73941 0.13245 0.61870
 H2403 H 0.73585 0.11679 0.57588
 H2404 H 0.75601 0.16022 0.64992
 H2405 H 0.72531 0.11392 0.53620
 H2406 H 0.78406 0.20678 0.63030
 C2407 C 0.23712 0.62497 0.03397
 C2408 C 0.25073 0.64480 0.04385
 C2409 C 0.24864 0.65300 0.07047
 C2410 C 0.25384 0.67817 0.07668
 C2411 C 0.25259 0.68657 0.10165
 C2412 C 0.24665 0.66971 0.12109
 C2413 C 0.24129 0.64455 0.11487
 C2414 C 0.24243 0.63617 0.08981
 C2415 C 0.24533 0.67804 0.14778
 C2416 C 0.25830 0.69878 0.15650
 H2417 H 0.26276 0.65533 0.03148
 H2418 H 0.25859 0.69148 0.06209
 H2419 H 0.25589 0.70638 0.10547
 H2420 H 0.23659 0.63125 0.12947
 H2421 H 0.23900 0.61641 0.08580
 H2422 H 0.23391 0.66760 0.16084
 H2423 H 0.22414 0.61556 0.04633
 H2424 H 0.27087 0.70844 0.14395
 C2425 C 0.13328 0.53665 0.74524
 C2426 C 0.15208 0.54266 0.76226
 C2427 C 0.16448 0.56733 0.76205
 C2428 C 0.18880 0.56891 0.77197
 C2429 C 0.20091 0.59207 0.77208
 C2430 C 0.18870 0.61414 0.76240
 C2431 C 0.16418 0.61254 0.75296
 C2432 C 0.15216 0.58949 0.75284
 C2433 C 0.20011 0.63934 0.76213
 C2434 C 0.22500 0.64416 0.76856
 H2435 H 0.15841 0.52851 0.77573
 H2436 H 0.19851 0.55214 0.77951
 H2437 H 0.21960 0.59248 0.77994
 H2438 H 0.15416 0.62929 0.74573
 H2439 H 0.13303 0.58933 0.74598
 H2440 H 0.18795 0.65524 0.75619
 H2441 H 0.12800 0.55024 0.73084
 H2442 H 0.23806 0.62897 0.77424
 C2443 C 0.63421 0.02504 0.23748
 C2444 C 0.64908 0.03418 0.25677
 C2445 C 0.65820 0.06035 0.25703
 C2446 C 0.68010 0.06539 0.27037
 C2447 C 0.68944 0.08984 0.27064
 C2448 C 0.67695 0.10976 0.25753
 C2449 C 0.65444 0.10495 0.24512
 C2450 C 0.64511 0.08052 0.24485
 C2451 C 0.68666 0.13569 0.25660
 C2452 C 0.71210 0.14044 0.25980
 H2453 H 0.65507 0.02148 0.27165
 H2454 H 0.69015 0.05031 0.28040
 H2455 H 0.70625 0.09301 0.28134
 H2456 H 0.64419 0.12008 0.23536
 H2457 H 0.62751 0.07766 0.23534
 H2458 H 0.67360 0.15133 0.25186
 H2459 H 0.63020 0.03731 0.22164
 H2460 H 0.72565 0.12487 0.26310
 C2461 C 0.86830 0.00700 0.73705
 C2462 C 0.87491 0.03245 0.73547
 C2463 C 0.85696 0.05477 0.73288
 C2464 C 0.86706 0.07885 0.73015
 C2465 C 0.85127 0.10073 0.72827
 C2466 C 0.82485 0.09909 0.72930
 C2467 C 0.81464 0.07499 0.73129
 C2468 C 0.83048 0.05301 0.73321
 C2469 C 0.80770 0.12218 0.72844
 C2470 C 0.81491 0.14579 0.73744
 H2471 H 0.89488 0.03618 0.73604
 H2472 H 0.88734 0.08081 0.72951
 H2473 H 0.85990 0.11883 0.72581
 H2474 H 0.79433 0.07320 0.73189
 H2475 H 0.82176 0.03494 0.73520
 H2476 H 0.78846 0.12018 0.72226
 H2477 H 0.84868 0.00216 0.73670
 H2478 H 0.83334 0.14733 0.74574
 C2479 C 0.37080 0.52275 0.26902
 C2480 C 0.36741 0.54046 0.24967
 C2481 C 0.35386 0.56554 0.25307
 C2482 C 0.34373 0.57773 0.23187
 C2483 C 0.33178 0.60191 0.23400
 C2484 C 0.32991 0.61455 0.25744
 C2485 C 0.34055 0.60265 0.27858
 C2486 C 0.35230 0.57830 0.27649
 C2487 C 0.31740 0.64023 0.26012
 C2488 C 0.29702 0.64794 0.24524
 H2489 H 0.37465 0.53586 0.23098
 H2490 H 0.34515 0.56852 0.21353
 H2491 H 0.32450 0.61085 0.21717
 H2492 H 0.33965 0.61218 0.29676
 H2493 H 0.36065 0.56985 0.29308
 H2494 H 0.32320 0.65263 0.27519
 H2495 H 0.36095 0.52650 0.28675
 H2496 H 0.28948 0.63455 0.23200
 C2497 C 0.37100 0.47536 0.26478
 C2498 C 0.38172 0.45050 0.26352
 C2499 C 0.36719 0.42714 0.26077
 C2500 C 0.34179 0.42772 0.25324
 C2501 C 0.32901 0.40511 0.25066
 C2502 C 0.34132 0.38140 0.25556
 C2503 C 0.36681 0.38082 0.26244
 C2504 C 0.37958 0.40341 0.26506
 C2505 C 0.32833 0.35702 0.25335
 C2506 C 0.30217 0.35549 0.25589
 H2507 H 0.40209 0.44810 0.26497
 H2508 H 0.33176 0.44544 0.24882
 H2509 H 0.30967 0.40633 0.24434
 H2510 H 0.37684 0.36283 0.26607
 H2511 H 0.39922 0.40234 0.27058
 H2512 H 0.33988 0.33956 0.25125
 H2513 H 0.35069 0.47857 0.26449
 H2514 H 0.29057 0.37256 0.25989
 C2515 C 0.87617 0.95987 0.73827
 C2516 C 0.87664 0.94174 0.75749
 C2517 C 0.86451 0.91693 0.75545
 C2518 C 0.85571 0.90551 0.77746
 C2519 C 0.84437 0.88200 0.77640
 C2520 C 0.84194 0.86919 0.75327
 C2521 C 0.85148 0.88019 0.73133
 C2522 C 0.86248 0.90394 0.73234
 C2523 C 0.82966 0.84442 0.75164
 C2524 C 0.80921 0.83885 0.76717
 H2525 H 0.88516 0.94605 0.77532
 H2526 H 0.85744 0.91493 0.79555
 H2527 H 0.83783 0.87372 0.79375
 H2528 H 0.85010 0.87052 0.71333
 H2529 H 0.86979 0.91182 0.71511
 H2530 H 0.83519 0.83137 0.73643
 H2531 H 0.86591 0.95568 0.72135
 H2532 H 0.80175 0.85317 0.78041
 C2533 C 0.64169 0.97804 0.24282
 C2534 C 0.63425 0.95293 0.24427
 C2535 C 0.65150 0.93053 0.23954
 C2536 C 0.64160 0.90906 0.22816
 C2537 C 0.65681 0.88714 0.22367
 C2538 C 0.68220 0.88590 0.23120
 C2539 C 0.69242 0.90770 0.24183
 C2540 C 0.67718 0.92990 0.24601
 C2541 C 0.69768 0.86172 0.22939
 C2542 C 0.68644 0.83837 0.23190
 H2543 H 0.61415 0.94977 0.24492
 H2544 H 0.62198 0.90928 0.22258
 H2545 H 0.64852 0.87113 0.21445
 H2546 H 0.71196 0.90726 0.24766
 H2547 H 0.68530 0.94617 0.25495
 H2548 H 0.71811 0.86233 0.22916
 H2549 H 0.66152 0.98164 0.24001
 H2550 H 0.66619 0.83806 0.23492
 C2551 C 0.13754 0.48906 0.74537
 C2552 C 0.12879 0.46437 0.74551
 C2553 C 0.14534 0.44092 0.74452
 C2554 C 0.13474 0.41777 0.75069
 C2555 C 0.14946 0.39507 0.75011
 C2556 C 0.17526 0.39505 0.74343
 C2557 C 0.18573 0.41808 0.73656
 C2558 C 0.17097 0.44083 0.73710
 C2559 C 0.19150 0.37136 0.74278
 C2560 C 0.18583 0.34981 0.75652
 H2561 H 0.10857 0.46223 0.74724
 H2562 H 0.11495 0.41723 0.75602
 H2563 H 0.14034 0.37763 0.75452
 H2564 H 0.20543 0.41848 0.73087
 H2565 H 0.17974 0.45805 0.73136
 H2566 H 0.20883 0.37116 0.73168
 H2567 H 0.15762 0.49198 0.74477
 H2568 H 0.16942 0.35018 0.76887
 C2569 C 0.02609 0.72967 0.85617
 C2570 C 0.04978 0.73536 0.86545
 C2571 C 0.07345 0.73271 0.85044
 C2572 C 0.09352 0.74777 0.85710
 C2573 C 0.11640 0.74578 0.84379
 C2574 C 0.11989 0.72822 0.82373
 C2575 C 0.09976 0.71324 0.81689
 C2576 C 0.07675 0.71530 0.83022
 C2577 C 0.14405 0.72584 0.80938
 C2578 C 0.16690 0.73185 0.82019
 H2579 H 0.05097 0.74319 0.88431
 H2580 H 0.09138 0.76140 0.87250
 H2581 H 0.13108 0.75839 0.84902
 H2582 H 0.10197 0.69966 0.80146
 H2583 H 0.06191 0.70289 0.82496
 H2584 H 0.14381 0.71938 0.78996
 H2585 H 0.02491 0.72209 0.83724
 H2586 H 0.16742 0.73663 0.84003
 C2587 C 0.52379 0.25882 0.35431
 C2588 C 0.54814 0.25558 0.36399
 C2589 C 0.57098 0.24872 0.34857
 C2590 C 0.59285 0.23967 0.36083
 C2591 C 0.61513 0.23373 0.34723
 C2592 C 0.61604 0.23699 0.32101
 C2593 C 0.59405 0.24552 0.30866
 C2594 C 0.57178 0.25155 0.32227
 C2595 C 0.63959 0.23225 0.30610
 C2596 C 0.66353 0.23492 0.31620
 H2597 H 0.55035 0.25739 0.38417
 H2598 H 0.59272 0.23719 0.38105
 H2599 H 0.63150 0.22649 0.35732
 H2600 H 0.59430 0.24820 0.28847
 H2601 H 0.55559 0.25898 0.31208
 H2602 H 0.63795 0.22921 0.28600
 H2603 H 0.52077 0.25538 0.33450
 H2604 H 0.66542 0.23992 0.33586
 C2605 C 0.50966 0.75952 0.14283
 C2606 C 0.53519 0.75492 0.13646
 C2607 C 0.55642 0.75607 0.15426
 C2608 C 0.58076 0.75860 0.14417
 C2609 C 0.60166 0.75927 0.15979
 C2610 C 0.59882 0.75696 0.18601
 C2611 C 0.57441 0.75509 0.19629
 C2612 C 0.55334 0.75448 0.18056
 C2613 C 0.62116 0.75615 0.20258
 C2614 C 0.64434 0.74548 0.19404
 H2615 H 0.54001 0.75217 0.11670
 H2616 H 0.58366 0.76017 0.12403
 H2617 H 0.62003 0.76172 0.15122
 H2618 H 0.57172 0.75344 0.21644
 H2619 H 0.53492 0.75222 0.18906
 H2620 H 0.61908 0.76281 0.22189
 H2621 H 0.50440 0.76461 0.16203
 H2622 H 0.64550 0.73671 0.17551
 C2623 C 0.02015 0.25922 0.64169
 C2624 C 0.03938 0.27614 0.64567
 C2625 C 0.06141 0.26948 0.66148
 C2626 C 0.07367 0.28878 0.67424
 C2627 C 0.09594 0.28314 0.68737
 C2628 C 0.10659 0.25813 0.68743
 C2629 C 0.09430 0.23886 0.67467
 C2630 C 0.07180 0.24439 0.66201
 C2631 C 0.13154 0.25212 0.69854
 C2632 C 0.14044 0.26488 0.71954
 H2633 H 0.03910 0.29435 0.63638
 H2634 H 0.06622 0.30830 0.67371
 H2635 H 0.10535 0.29853 0.69650
 H2636 H 0.10238 0.21955 0.67416
 H2637 H 0.06321 0.22922 0.65171
 H2638 H 0.14327 0.23691 0.68993
 H2639 H 0.01988 0.24242 0.65337
 H2640 H 0.12796 0.27817 0.72997
 C2641 C 0.97375 0.26347 0.62958
 C2642 C 0.96597 0.26537 0.65483
 C2643 C 0.93917 0.26397 0.66298
 C2644 C 0.93386 0.25616 0.68758
 C2645 C 0.90892 0.25342 0.69573
 C2646 C 0.88866 0.25843 0.67935
 C2647 C 0.89394 0.26718 0.65506
 C2648 C 0.91888 0.26997 0.64692
 C2649 C 0.86189 0.25548 0.68700
 C2650 C 0.85451 0.24144 0.70781
 H2651 H 0.98005 0.26574 0.66937
 H2652 H 0.94910 0.25183 0.70048
 H2653 H 0.90580 0.24762 0.71493
 H2654 H 0.87870 0.27173 0.64223
 H2655 H 0.92204 0.27704 0.62816
 H2656 H 0.84736 0.26443 0.67547
 H2657 H 0.95963 0.26212 0.61516
 H2658 H 0.86851 0.23152 0.71915
 C2659 C 0.46325 0.76526 0.13329
 C2660 C 0.45463 0.74992 0.15265
 C2661 C 0.42803 0.75085 0.16166
 C2662 C 0.42287 0.74409 0.18657
 C2663 C 0.39803 0.74444 0.19577
 C2664 C 0.37763 0.75103 0.17999
 C2665 C 0.38282 0.75784 0.15504
 C2666 C 0.40773 0.75764 0.14588
 C2667 C 0.35094 0.75152 0.18904
 C2668 C 0.34333 0.73862 0.21047
 H2669 H 0.46804 0.73752 0.16237
 H2670 H 0.43819 0.73885 0.19909
 H2671 H 0.39513 0.73994 0.21536
 H2672 H 0.36752 0.76303 0.14250
 H2673 H 0.41092 0.76230 0.12635
 H2674 H 0.33682 0.76213 0.17833
 H2675 H 0.44976 0.77832 0.12448
 H2676 H 0.35691 0.72690 0.22068
 C2677 C 0.47750 0.26726 0.35522
 C2678 C 0.45333 0.26150 0.36379
 C2679 C 0.43047 0.26384 0.34808
 C2680 C 0.40669 0.26585 0.36005
 C2681 C 0.38457 0.26727 0.34598
 C2682 C 0.38578 0.26627 0.31951
 C2683 C 0.40959 0.26453 0.30753
 C2684 C 0.43173 0.26316 0.32162
 C2685 C 0.36277 0.26725 0.30388
 C2686 C 0.33908 0.26063 0.31290
 H2687 H 0.45089 0.25559 0.38310
 H2688 H 0.40521 0.26648 0.38041
 H2689 H 0.36669 0.26943 0.35600
 H2690 H 0.41106 0.26376 0.28718
 H2691 H 0.44966 0.26097 0.31167
 H2692 H 0.36480 0.27229 0.28425
 H2693 H 0.47947 0.27595 0.33695
 H2694 H 0.33695 0.25403 0.33199
 C2695 C 0.97954 0.73624 0.85506
 C2696 C 0.95523 0.74160 0.86486
 C2697 C 0.93233 0.74495 0.84939
 C2698 C 0.90865 0.74438 0.86146
 C2699 C 0.88644 0.74698 0.84773
 C2700 C 0.88745 0.75006 0.82147
 C2701 C 0.91109 0.75158 0.80951
 C2702 C 0.93335 0.74908 0.82327
 C2703 C 0.86437 0.75202 0.80611
 C2704 C 0.84134 0.74276 0.81405
 H2705 H 0.95280 0.74245 0.88514
 H2706 H 0.90732 0.74177 0.88163
 H2707 H 0.86863 0.74682 0.85790
 H2708 H 0.91236 0.75446 0.78938
 H2709 H 0.95113 0.75061 0.81330
 H2710 H 0.86586 0.75999 0.78744
 H2711 H 0.98220 0.73333 0.83502
 H2712 H 0.83971 0.73355 0.83207
   
