data_POSCAR
  _audit_creation_date              2014-09-24
  _audit_creation_method            'ToBaCCo'
  _symmetry_space_group_name_H-M    'P1'
  _symmetry_Int_Tables_number       1
  _symmetry_cell_setting            triclinic
  loop_
  _symmetry_equiv_pos_as_xyz
 x,y,z
_cell_length_a 61.0069
_cell_length_b 60.6778
_cell_length_c 51.3738
_cell_angle_alpha 90.199700
_cell_angle_beta 89.359200
_cell_angle_gamma 87.870400
loop_
  _atom_site_label
  _atom_site_type_symbol
  _atom_site_fract_x
  _atom_site_fract_y
  _atom_site_fract_z
C1 C 0.33247 -0.02982 0.25769
 C2 C 0.34647 -0.01336 0.24929
 C3 C 0.36149 -0.01768 0.22899
 C4 C 0.36245 -0.03822 0.21655
 C5 C 0.34859 -0.05465 0.22506
 C6 C 0.33378 -0.05106 0.24620
 C7 C 0.34710 0.00790 0.26306
 C8 C 0.36485 0.01184 0.27929
 C9 C 0.36717 0.03255 0.29133
 C10 C 0.35108 0.04925 0.28633
 C11 C 0.33313 0.04541 0.27018
 C12 C 0.33124 0.02466 0.25850
 H13 H 0.32179 -0.02635 0.27428
 H14 H 0.37229 -0.00489 0.22272
 H15 H 0.37731 -0.00118 0.28136
 H16 H 0.31766 0.02163 0.24572
 H17 H 0.34928 -0.07021 0.21466
 H18 H 0.35194 0.06526 0.29552
 C19 C 0.16374 -0.02614 0.73680
 C20 C 0.15523 -0.00621 0.74725
 C21 C 0.14204 -0.00628 0.76969
 C22 C 0.13721 -0.02620 0.78197
 C23 C 0.14577 -0.04609 0.77133
 C24 C 0.15894 -0.04624 0.74867
 C25 C 0.15808 0.01460 0.73329
 C26 C 0.14248 0.02133 0.71495
 C27 C 0.14425 0.04138 0.70140
 C28 C 0.16237 0.05439 0.70672
 C29 C 0.17776 0.04809 0.72578
 C30 C 0.17553 0.02806 0.73896
 H31 H 0.17342 -0.02601 0.71899
 H32 H 0.13496 0.00920 0.77704
 H33 H 0.12937 0.01034 0.71079
 H34 H 0.18723 0.02301 0.75370
 H35 H 0.14244 -0.06151 0.78091
 H36 H 0.16374 0.07034 0.69756
 C37 C 0.66369 0.47641 0.22831
 C38 C 0.65260 0.49488 0.23953
 C39 C 0.63792 0.49206 0.26038
 C40 C 0.63458 0.47095 0.27042
 C41 C 0.64569 0.45267 0.25907
 C42 C 0.65996 0.45517 0.23776
 C43 C 0.65421 0.51671 0.22737
 C44 C 0.63909 0.52290 0.20816
 C45 C 0.64044 0.54323 0.19543
 C46 C 0.65710 0.55736 0.20226
 C47 C 0.67240 0.55145 0.22149
 C48 C 0.67079 0.53106 0.23422
 H49 H 0.67437 0.47849 0.21157
 H50 H 0.62905 0.50627 0.26866
 H51 H 0.62661 0.51156 0.20269
 H52 H 0.68254 0.52621 0.24898
 H53 H 0.64286 0.43631 0.26654
 H54 H 0.65799 0.57324 0.19279
 C55 C 0.82163 0.47112 0.75656
 C56 C 0.83601 0.48785 0.75027
 C57 C 0.85083 0.48486 0.72944
 C58 C 0.85134 0.46540 0.71450
 C59 C 0.83674 0.44883 0.72082
 C60 C 0.82194 0.45148 0.74191
 C61 C 0.83715 0.50772 0.76672
 C62 C 0.85465 0.50939 0.78393
 C63 C 0.85731 0.52862 0.79897
 C64 C 0.84173 0.54619 0.79596
 C65 C 0.82418 0.54482 0.77858
 C66 C 0.82195 0.52543 0.76400
 H67 H 0.81047 0.47327 0.77301
 H68 H 0.86239 0.49758 0.72537
 H69 H 0.86669 0.49585 0.78439
 H70 H 0.80861 0.52417 0.75039
 H71 H 0.83708 0.43369 0.70956
 H72 H 0.84281 0.56108 0.80740
 C73 C 0.25984 0.38615 1.03106
 C74 C 0.27032 0.39627 1.01000
 C75 C 0.28981 0.40714 1.01388
 C76 C 0.29891 0.40820 1.03871
 C77 C 0.28845 0.39797 1.05962
 C78 C 0.26868 0.38689 1.05632
 C79 C 0.25970 0.39756 0.98444
 C80 C 0.23987 0.40960 0.98221
 C81 C 0.22941 0.41172 0.95813
 C82 C 0.23921 0.40160 0.93606
 C83 C 0.25919 0.38931 0.93801
 C84 C 0.26946 0.38756 0.96234
 H85 H 0.24427 0.37869 1.02769
 H86 H 0.29767 0.41510 0.99759
 H87 H 0.23279 0.41769 0.99934
 H88 H 0.28496 0.37841 0.96416
 H89 H 0.29629 0.39837 1.07839
 H90 H 0.23084 0.40253 0.91759
 C91 C 0.75529 0.10123 1.03349
 C92 C 0.74472 0.08969 1.01381
 C93 C 0.72529 0.07907 1.01936
 C94 C 0.71637 0.07961 1.04459
 C95 C 0.72712 0.09100 1.06424
 C96 C 0.74664 0.10220 1.05909
 C97 C 0.75425 0.08839 0.98740
 C98 C 0.77392 0.07630 0.98304
 C99 C 0.78392 0.07557 0.95823
 C100 C 0.77384 0.08738 0.93780
 C101 C 0.75387 0.09926 0.94195
 C102 C 0.74399 0.09945 0.96673
 H103 H 0.77057 0.10888 1.02872
 H104 H 0.71705 0.07056 1.00390
 H105 H 0.78120 0.06724 0.99910
 H106 H 0.72883 0.10895 0.97018
 H107 H 0.71946 0.09183 1.08331
 H108 H 0.78160 0.08765 0.91875
 C109 C 0.24507 0.61282 0.52884
 C110 C 0.23446 0.60192 0.50870
 C111 C 0.21483 0.59151 0.51379
 C112 C 0.20574 0.59172 0.53898
 C113 C 0.21623 0.60296 0.55893
 C114 C 0.23605 0.61342 0.55409
 C115 C 0.24511 0.59939 0.48301
 C116 C 0.26491 0.58728 0.48100
 C117 C 0.27587 0.58468 0.45701
 C118 C 0.26654 0.59428 0.43468
 C119 C 0.24654 0.60668 0.43645
 C120 C 0.23576 0.60884 0.46075
 H121 H 0.26063 0.62029 0.52494
 H122 H 0.20690 0.58280 0.49824
 H123 H 0.27169 0.57966 0.49835
 H124 H 0.22030 0.61813 0.46249
 H125 H 0.20909 0.60326 0.57834
 H126 H 0.27533 0.59299 0.41627
 C127 C 0.74750 0.90488 0.52674
 C128 C 0.75700 0.92051 0.51072
 C129 C 0.77346 0.93372 0.52036
 C130 C 0.78080 0.93146 0.54632
 C131 C 0.77030 0.91601 0.56238
 C132 C 0.75406 0.90253 0.55257
 C133 C 0.75039 0.92206 0.48334
 C134 C 0.73161 0.93463 0.47671
 C135 C 0.72390 0.93478 0.45102
 C136 C 0.73553 0.92217 0.43199
 C137 C 0.75430 0.90920 0.43854
 C138 C 0.76168 0.90937 0.46432
 H139 H 0.73519 0.89430 0.51896
 H140 H 0.78129 0.94464 0.50682
 H141 H 0.72252 0.94354 0.49190
 H142 H 0.77595 0.89932 0.46977
 H143 H 0.77474 0.91404 0.58258
 H144 H 0.72958 0.92187 0.41222
 C145 C -0.02523 0.24224 0.36413
 C146 C -0.00849 0.24098 0.38238
 C147 C -0.00757 0.22387 0.40048
 C148 C -0.02356 0.20772 0.40095
 C149 C -0.04071 0.20955 0.38267
 C150 C -0.04193 0.22687 0.36430
 C151 C 0.00656 0.25912 0.38463
 C152 C 0.00138 0.27655 0.40174
 C153 C 0.01563 0.29400 0.40461
 C154 C 0.03544 0.29349 0.39028
 C155 C 0.04079 0.27592 0.37310
 C156 C 0.02612 0.25886 0.37023
 H157 H -0.02603 0.25641 0.35137
 H158 H 0.00505 0.22421 0.41511
 H159 H -0.01372 0.27630 0.41305
 H160 H 0.03016 0.24502 0.35743
 H161 H -0.05249 0.19673 0.38160
 H162 H 0.04656 0.30690 0.39211
 C163 C -0.02801 0.75280 0.13011
 C164 C -0.00888 0.75189 0.11469
 C165 C -0.00522 0.76835 0.09634
 C166 C -0.02042 0.78599 0.09325
 C167 C -0.03957 0.78678 0.10879
 C168 C -0.04395 0.77013 0.12720
 C169 C 0.00706 0.73316 0.11662
 C170 C 0.00552 0.71511 0.09972
 C171 C 0.02191 0.69803 0.09898
 C172 C 0.03972 0.69961 0.11624
 C173 C 0.04149 0.71772 0.13314
 C174 C 0.02497 0.73442 0.13327
 H175 H -0.03073 0.73925 0.14325
 H176 H 0.00941 0.76713 0.08418
 H177 H -0.00791 0.71540 0.08615
 H178 H 0.02642 0.74885 0.14553
 H179 H -0.05052 0.80113 0.10722
 H180 H 0.05208 0.68642 0.11742
 C181 C 0.47262 0.25573 0.62523
 C182 C 0.49106 0.25750 0.60904
 C183 C 0.49185 0.27450 0.59081
 C184 C 0.47429 0.28997 0.58855
 C185 C 0.45579 0.28808 0.60490
 C186 C 0.45481 0.27098 0.62336
 C187 C 0.50906 0.24079 0.60996
 C188 C 0.50806 0.22180 0.59471
 C189 C 0.52519 0.20569 0.59484
 C190 C 0.54369 0.20917 0.61032
 C191 C 0.54497 0.22842 0.62562
 C192 C 0.52740 0.24410 0.62536
 H193 H 0.47199 0.24211 0.63876
 H194 H 0.50603 0.27533 0.57800
 H195 H 0.49394 0.21980 0.58242
 H196 H 0.52785 0.25888 0.63721
 H197 H 0.44235 0.30018 0.60363
 H198 H 0.55707 0.19694 0.61042
 C199 C 0.47746 0.75237 0.85725
 C200 C 0.49693 0.74984 0.87109
 C201 C 0.50120 0.73083 0.88572
 C202 C 0.48584 0.71406 0.88720
 C203 C 0.46595 0.71718 0.87356
 C204 C 0.46182 0.73616 0.85854
 C205 C 0.51228 0.76778 0.87162
 C206 C 0.51024 0.78391 0.89110
 C207 C 0.52455 0.80140 0.89152
 C208 C 0.54100 0.80253 0.87230
 C209 C 0.54360 0.78602 0.85309
 C210 C 0.52898 0.76869 0.85285
 H211 H 0.47415 0.76736 0.84630
 H212 H 0.51611 0.72991 0.89695
 H213 H 0.49725 0.78303 0.90560
 H214 H 0.53078 0.75560 0.83851
 H215 H 0.45387 0.70458 0.87350
 H216 H 0.55190 0.81620 0.87255
 C217 C -0.27769 0.58335 1.00058
 C218 C -0.25750 0.59189 1.00784
 C219 C -0.25569 0.60274 1.03177
 C220 C -0.27380 0.60525 1.04860
 C221 C -0.29374 0.59641 1.04144
 C222 C -0.29629 0.58566 1.01722
 C223 C -0.23828 0.59067 0.99009
 C224 C -0.23803 0.60357 0.96746
 C225 C -0.21877 0.60494 0.95194
 C226 C -0.20023 0.59181 0.95932
 C227 C -0.20030 0.57895 0.98201
 C228 C -0.21932 0.57868 0.99746
 H229 H -0.27887 0.57582 0.98154
 H230 H -0.24018 0.60958 1.03706
 H231 H -0.25251 0.61377 0.96351
 H232 H -0.21942 0.56915 1.01527
 H233 H -0.30726 0.59796 1.05518
 H234 H -0.18542 0.59135 0.94757
 C235 C -0.27925 0.41858 0.50004
 C236 C -0.25940 0.40782 0.49258
 C237 C -0.25794 0.39588 0.46922
 C238 C -0.27630 0.39436 0.45324
 C239 C -0.29600 0.40535 0.46075
 C240 C -0.29800 0.41733 0.48436
 C241 C -0.24092 0.40669 0.51071
 C242 C -0.24223 0.39310 0.53263
 C243 C -0.22445 0.39062 0.54955
 C244 C -0.20558 0.40246 0.54463
 C245 C -0.20382 0.41593 0.52252
 C246 C -0.22167 0.41796 0.50552
 H247 H -0.28018 0.42675 0.51881
 H248 H -0.24275 0.38695 0.46419
 H249 H -0.25689 0.38389 0.53594
 H250 H -0.22055 0.42798 0.48817
 H251 H -0.30960 0.40512 0.44741
 H252 H -0.19224 0.40134 0.55836
 C253 C 0.22643 -0.07431 -0.00580
 C254 C 0.24478 -0.08808 -0.01154
 C255 C 0.24445 -0.10260 -0.03273
 C256 C 0.22583 -0.10386 -0.04861
 C257 C 0.20760 -0.08966 -0.04269
 C258 C 0.20783 -0.07478 -0.02159
 C259 C 0.26381 -0.08929 0.00580
 C260 C 0.26377 -0.10418 0.02651
 C261 C 0.28292 -0.10901 0.04097
 C262 C 0.30217 -0.09817 0.03382
 C263 C 0.30234 -0.08312 0.01302
 C264 C 0.28303 -0.07866 -0.00082
 H265 H 0.22669 -0.06328 0.01083
 H266 H 0.25846 -0.11388 -0.03552
 H267 H 0.24900 -0.11318 0.02972
 H268 H 0.28320 -0.06782 -0.01755
 H269 H 0.19318 -0.08967 -0.05475
 H270 H 0.31710 -0.10074 0.04475
 C271 C 0.21794 1.07278 0.49851
 C272 C 0.23609 1.08343 0.50870
 C273 C 0.23361 1.09578 0.53177
 C274 C 0.21320 1.09777 0.54462
 C275 C 0.19536 1.08674 0.53456
 C276 C 0.19755 1.07437 0.51151
 C277 C 0.25675 1.08474 0.49354
 C278 C 0.25685 1.09763 0.47097
 C279 C 0.27663 1.10246 0.45793
 C280 C 0.29637 1.09330 0.46810
 C281 C 0.29650 1.08004 0.49055
 C282 C 0.27658 1.07589 0.50325
 H283 H 0.21948 1.06399 0.48014
 H284 H 0.24740 1.10459 0.53912
 H285 H 0.24140 1.10531 0.46510
 H286 H 0.27655 1.06642 0.52109
 H287 H 0.17942 1.08859 0.54402
 H288 H 0.31183 1.09572 0.45820
 C289 C 0.14975 0.49651 0.22310
 C290 C 0.16178 0.50548 0.24336
 C291 C 0.17343 0.52456 0.23919
 C292 C 0.17347 0.53483 0.21476
 C293 C 0.16123 0.52583 0.19451
 C294 C 0.14925 0.50666 0.19856
 C295 C 0.16213 0.49521 0.26923
 C296 C 0.17523 0.47617 0.27363
 C297 C 0.17647 0.46685 0.29862
 C298 C 0.16421 0.47691 0.31908
 C299 C 0.15078 0.49586 0.31475
 C300 C 0.14998 0.50501 0.28974
 H301 H 0.14084 0.48164 0.22648
 H302 H 0.18235 0.53150 0.25521
 H303 H 0.18431 0.46861 0.25749
 H304 H 0.13999 0.51983 0.28621
 H305 H 0.16098 0.53376 0.17566
 H306 H 0.16484 0.46983 0.33839
 C307 C -0.14459 1.00208 0.23027
 C308 C -0.15543 0.99707 0.25344
 C309 C -0.16916 0.97929 0.25462
 C310 C -0.17193 0.96549 0.23291
 C311 C -0.16061 0.97062 0.20963
 C312 C -0.14680 0.98889 0.20785
 C313 C -0.15246 1.01042 0.27691
 C314 C -0.16390 1.03061 0.27988
 C315 C -0.16229 1.04326 0.30289
 C316 C -0.14901 1.03451 0.32312
 C317 C -0.13725 1.01420 0.32002
 C318 C -0.13920 1.00227 0.29686
 H319 H -0.13491 1.01665 0.22999
 H320 H -0.17812 0.97693 0.27262
 H321 H -0.17488 1.03565 0.26443
 H322 H -0.13068 0.98638 0.29444
 H323 H -0.16093 0.95911 0.19360
 H324 H -0.14664 1.04389 0.34075
 C325 C 0.35193 0.49612 -0.28459
 C326 C 0.34078 0.49034 -0.26178
 C327 C 0.32749 0.47215 -0.26162
 C328 C 0.32552 0.45910 -0.28392
 C329 C 0.33694 0.46476 -0.30669
 C330 C 0.35038 0.48337 -0.30755
 C331 C 0.34326 0.50289 -0.23754
 C332 C 0.33234 0.52337 -0.23424
 C333 C 0.33280 0.53478 -0.21021
 C334 C 0.34476 0.52480 -0.18965
 C335 C 0.35605 0.50430 -0.19302
 C336 C 0.35508 0.49344 -0.21704
 H337 H 0.36142 0.51082 -0.28415
 H338 H 0.31871 0.46819 -0.24389
 H339 H 0.32244 0.52952 -0.25017
 H340 H 0.36318 0.47737 -0.21970
 H341 H 0.33644 0.45354 -0.32303
 H342 H 0.34643 0.53335 -0.17131
 C343 C 0.63660 0.00342 -0.28723
 C344 C 0.64644 0.01158 -0.26488
 C345 C 0.65873 0.03044 -0.26628
 C346 C 0.66158 0.04133 -0.29000
 C347 C 0.65126 0.03338 -0.31236
 C348 C 0.63851 0.01426 -0.31145
 C349 C 0.64457 -0.00007 -0.23997
 C350 C 0.65701 -0.01954 -0.23585
 C351 C 0.65589 -0.03056 -0.21193
 C352 C 0.64190 -0.02188 -0.19216
 C353 C 0.62932 -0.00224 -0.19612
 C354 C 0.63085 0.00860 -0.22014
 H355 H 0.62811 -0.01184 -0.28548
 H356 H 0.66618 0.03657 -0.24875
 H357 H 0.66746 -0.02616 -0.25142
 H358 H 0.62154 0.02388 -0.22339
 H359 H 0.65294 0.04262 -0.33017
 H360 H 0.64075 -0.03046 -0.17377
 C361 C -0.01089 0.21875 0.89906
 C362 C -0.01228 0.23682 0.88216
 C363 C -0.03080 0.24016 0.86649
 C364 C -0.04804 0.22544 0.86757
 C365 C -0.04666 0.20773 0.88516
 C366 C -0.02806 0.20402 0.90073
 C367 C 0.00618 0.25168 0.88001
 C368 C 0.02470 0.24542 0.86491
 C369 C 0.04213 0.25974 0.86204
 C370 C 0.04092 0.28021 0.87492
 C371 C 0.02259 0.28655 0.89036
 C372 C 0.00520 0.27216 0.89279
 H373 H 0.00381 0.21595 0.91041
 H374 H -0.03138 0.25377 0.85289
 H375 H 0.02529 0.22962 0.85497
 H376 H -0.00919 0.27696 0.90433
 H377 H -0.06023 0.19678 0.88681
 H378 H 0.05456 0.29109 0.87338
 C379 C 0.50746 0.22988 0.11813
 C380 C 0.50941 0.24973 0.13171
 C381 C 0.52901 0.25420 0.14422
 C382 C 0.54675 0.23881 0.14356
 C383 C 0.54469 0.21894 0.12978
 C384 C 0.52514 0.21441 0.11683
 C385 C 0.49090 0.26588 0.13302
 C386 C 0.47277 0.26202 0.14906
 C387 C 0.45546 0.27788 0.15152
 C388 C 0.45661 0.29765 0.13734
 C389 C 0.47480 0.30162 0.12116
 C390 C 0.49190 0.28561 0.11917
 H391 H 0.49213 0.22650 0.10871
 H392 H 0.53022 0.26952 0.15494
 H393 H 0.47260 0.24693 0.16024
 H394 H 0.50626 0.28866 0.10730
 H395 H 0.55853 0.20725 0.12855
 H396 H 0.44325 0.30989 0.13861
 C397 C 0.00852 0.72270 0.61732
 C398 C 0.00912 0.74276 0.63078
 C399 C 0.02806 0.74827 0.64410
 C400 C 0.04640 0.73363 0.64448
 C401 C 0.04569 0.71358 0.63077
 C402 C 0.02682 0.70800 0.61711
 C403 C -0.01061 0.75731 0.63264
 C404 C -0.02840 0.75104 0.64790
 C405 C -0.04706 0.76522 0.65153
 C406 C -0.04732 0.78595 0.63885
 C407 C -0.02965 0.79206 0.62284
 C408 C -0.01123 0.77770 0.62021
 H409 H -0.00640 0.71833 0.60761
 H410 H 0.02811 0.76357 0.65504
 H411 H -0.02683 0.73550 0.65811
 H412 H 0.00280 0.78244 0.60866
 H413 H 0.05992 0.70235 0.63055
 H414 H -0.06165 0.79695 0.64010
 C415 C 0.49043 0.71575 0.38820
 C416 C 0.49066 0.73340 0.37072
 C417 C 0.47337 0.73677 0.35324
 C418 C 0.45571 0.72254 0.35316
 C419 C 0.45551 0.70511 0.37114
 C420 C 0.47290 0.70139 0.38858
 C421 C 0.50951 0.74783 0.37027
 C422 C 0.52781 0.74235 0.35455
 C423 C 0.54617 0.75560 0.35453
 C424 C 0.54603 0.77442 0.37062
 C425 C 0.52775 0.78010 0.38665
 C426 C 0.50950 0.76660 0.38623
 H427 H 0.50425 0.71294 0.40098
 H428 H 0.47396 0.75018 0.33940
 H429 H 0.52769 0.72778 0.34229
 H430 H 0.49511 0.77072 0.39808
 H431 H 0.44160 0.69454 0.37172
 H432 H 0.56047 0.78425 0.37117
 B433 B -0.02383 0.00101 1.01607
 B434 B -0.03217 -0.00351 0.98548
 B435 B -0.01513 0.01699 0.99143
 B436 B 0.00252 0.00878 1.01498
 B437 B -0.00373 -0.01747 1.02330
 B438 B -0.02542 -0.02507 1.00490
 B439 B 0.00879 -0.01753 0.97192
 B440 B 0.01720 -0.01297 1.00243
 B441 B 0.00010 -0.03347 0.99653
 B442 B -0.01754 -0.02522 0.97299
 B443 B -0.01122 0.00097 0.96465
 B444 B 0.01041 0.00861 0.98303
 B445 B 0.47056 0.49816 0.49851
 B446 B 0.46062 0.49536 0.46828
 B447 B 0.47906 0.51459 0.47420
 B448 B 0.49732 0.50449 0.49611
 B449 B 0.48996 0.47836 0.50345
 B450 B 0.46697 0.47277 0.48616
 B451 B 0.50008 0.47973 0.45138
 B452 B 0.51019 0.48256 0.48145
 B453 B 0.49164 0.46330 0.47575
 B454 B 0.47342 0.47345 0.45382
 B455 B 0.48086 0.49951 0.44645
 B456 B 0.50371 0.50522 0.46374
 B457 B 0.52350 0.98210 0.50467
 B458 B 0.53056 0.98909 0.47404
 B459 B 0.51087 0.97079 0.47898
 B460 B 0.49604 0.97842 0.50575
 B461 B 0.50674 1.00209 0.51727
 B462 B 0.52836 1.00863 0.49759
 B463 B 0.49123 1.01024 0.46835
 B464 B 0.48403 1.00322 0.49876
 B465 B 0.50382 1.02149 0.49398
 B466 B 0.51859 1.01390 0.46720
 B467 B 0.50786 0.99039 0.45567
 B468 B 0.48638 0.98365 0.47531
 B469 B 0.02646 0.48898 1.01403
 B470 B 0.03923 0.49039 0.98495
 B471 B 0.02027 0.47147 0.98974
 B472 B 0.00012 0.48244 1.00910
 B473 B 0.00668 0.50897 1.01594
 B474 B 0.03119 0.51376 1.00084
 B475 B 0.00155 0.50546 0.96323
 B476 B -0.01143 0.50339 0.99225
 B477 B 0.00756 0.52281 0.98745
 B478 B 0.02786 0.51169 0.96808
 B479 B 0.02125 0.48535 0.96133
 B480 B -0.00313 0.48036 0.97613
 B481 B 0.01924 0.50600 0.49413
 B482 B 0.02992 0.50265 0.52390
 B483 B 0.01089 0.52284 0.51875
 B484 B -0.00760 0.51363 0.49730
 B485 B 0.00028 0.48714 0.48958
 B486 B 0.02371 0.48040 0.50622
 B487 B -0.00892 0.48906 0.54201
 B488 B -0.01966 0.49235 0.51219
 B489 B -0.00046 0.47216 0.51729
 B490 B 0.01788 0.48146 0.53877
 B491 B 0.01007 0.50792 0.54636
 B492 B -0.01339 0.51468 0.52975
 B493 B 0.52287 0.01261 -0.00105
 B494 B 0.53278 0.00468 0.02802
 B495 B 0.51310 0.02474 0.02658
 B496 B 0.49563 0.01878 0.00244
 B497 B 0.50476 -0.00563 -0.01098
 B498 B 0.52800 -0.01439 0.00490
 B499 B 0.49418 -0.01296 0.04014
 B500 B 0.48410 -0.00498 0.01126
 B501 B 0.50386 -0.02500 0.01246
 B502 B 0.52128 -0.01906 0.03663
 B503 B 0.51213 0.00533 0.05012
 B504 B 0.48895 0.01413 0.03426
 B505 B 0.48208 0.49403 -0.01707
 B506 B 0.47285 0.50061 0.01301
 B507 B 0.49401 0.48236 0.00932
 B508 B 0.50972 0.49021 -0.01612
 B509 B 0.49798 0.51408 -0.02794
 B510 B 0.47491 0.52045 -0.00976
 B511 B 0.51011 0.52154 0.02236
 B512 B 0.51950 0.51489 -0.00761
 B513 B 0.49815 0.53312 -0.00387
 B514 B 0.48253 0.52516 0.02148
 B515 B 0.49437 0.50153 0.03330
 B516 B 0.51736 0.49503 0.01522
 B517 B -0.02929 0.99498 0.50904
 B518 B -0.03751 1.00402 0.53870
 B519 B -0.01823 0.98358 0.53608
 B520 B -0.00205 0.98841 0.50997
 B521 B -0.01143 1.01254 0.49645
 B522 B -0.03363 1.02222 0.51432
 B523 B 0.00201 1.02135 0.54594
 B524 B 0.01038 1.01217 0.51647
 B525 B -0.00895 1.03263 0.51890
 B526 B -0.02516 1.02781 0.54505
 B527 B -0.01569 1.00376 0.55861
 B528 B 0.00643 0.99400 0.54078
 B529 B 0.77109 0.23621 0.22737
 B530 B 0.76649 0.23024 0.25891
 B531 B 0.78270 0.25106 0.25112
 B532 B 0.77266 0.26393 0.22452
 B533 B 0.74944 0.25095 0.21601
 B534 B 0.74568 0.22978 0.23738
 B535 B 0.74298 0.26845 0.26477
 B536 B 0.74773 0.27461 0.23343
 B537 B 0.73140 0.25375 0.24108
 B538 B 0.74153 0.24075 0.26765
 B539 B 0.76451 0.25388 0.27616
 B540 B 0.76846 0.27492 0.25489
 B541 B 0.74157 0.77493 0.73144
 B542 B 0.74682 0.78692 0.76015
 B543 B 0.72542 0.77043 0.75760
 B544 B 0.73235 0.74939 0.73702
 B545 B 0.75873 0.75309 0.72718
 B546 B 0.76771 0.77645 0.74179
 B547 B 0.75861 0.74708 0.77997
 B548 B 0.75310 0.73517 0.75126
 B549 B 0.77467 0.75167 0.75394
 B550 B 0.76762 0.77265 0.77458
 B551 B 0.74126 0.76909 0.78427
 B552 B 0.73234 0.74568 0.77001
 B553 B 0.25925 0.26526 0.75515
 B554 B 0.25084 0.27386 0.72575
 B555 B 0.27059 0.25393 0.72779
 B556 B 0.26502 0.23782 0.75365
 B557 B 0.24103 0.24794 0.76736
 B558 B 0.23229 0.27048 0.74989
 B559 B 0.23257 0.23460 0.71762
 B560 B 0.24105 0.22609 0.74705
 B561 B 0.22122 0.24609 0.74473
 B562 B 0.22693 0.26218 0.71895
 B563 B 0.25071 0.25195 0.70531
 B564 B 0.25957 0.22947 0.72272
 B565 B 0.23579 0.73121 0.25781
 B566 B 0.24386 0.72194 0.22793
 B567 B 0.22536 0.74320 0.23089
 B568 B 0.23219 0.75899 0.25655
 B569 B 0.25542 0.74719 0.26953
 B570 B 0.26242 0.72400 0.25199
 B571 B 0.26492 0.75952 0.21964
 B572 B 0.25712 0.76879 0.24930
 B573 B 0.27540 0.74740 0.24658
 B574 B 0.26860 0.73178 0.22084
 B575 B 0.24545 0.74364 0.20782
 B576 B 0.23834 0.76670 0.22564
 B577 B 0.26733 0.73283 0.73307
 B578 B 0.26307 0.72580 0.76434
 B579 B 0.27886 0.74716 0.75726
 B580 B 0.26836 0.76061 0.73130
 B581 B 0.24536 0.74745 0.72250
 B582 B 0.24211 0.72565 0.74303
 B583 B 0.23901 0.76354 0.77194
 B584 B 0.24337 0.77057 0.74077
 B585 B 0.22748 0.74928 0.74782
 B586 B 0.23801 0.73572 0.77381
 B587 B 0.26090 0.74896 0.78261
 B588 B 0.26426 0.77067 0.76207
 B589 B 0.23661 0.26917 0.23870
 B590 B 0.24216 0.27646 0.26953
 B591 B 0.22378 0.25709 0.26389
 B592 B 0.23230 0.24177 0.23794
 B593 B 0.25665 0.25180 0.22768
 B594 B 0.26272 0.27353 0.24733
 B595 B 0.26179 0.23649 0.27743
 B596 B 0.25619 0.22920 0.24671
 B597 B 0.27464 0.24857 0.25225
 B598 B 0.26610 0.26390 0.27826
 B599 B 0.24183 0.25382 0.28850
 B600 B 0.23562 0.23224 0.26886
 B601 B 0.76396 0.76821 0.27257
 B602 B 0.75748 0.77918 0.24358
 B603 B 0.77882 0.76098 0.24572
 B604 B 0.77265 0.74159 0.26792
 B605 B 0.74683 0.74800 0.27935
 B606 B 0.73734 0.77142 0.26404
 B607 B 0.74420 0.73969 0.22706
 B608 B 0.75105 0.72855 0.25600
 B609 B 0.72953 0.74677 0.25379
 B610 B 0.73574 0.76620 0.23163
 B611 B 0.76157 0.75990 0.22034
 B612 B 0.77089 0.73639 0.23522
 B613 B 0.73239 0.23183 0.77166
 B614 B 0.73943 0.22382 0.74092
 B615 B 0.72077 0.24459 0.74591
 B616 B 0.72826 0.25952 0.77191
 B617 B 0.75222 0.24775 0.78310
 B618 B 0.75879 0.22528 0.76398
 B619 B 0.75962 0.26215 0.73358
 B620 B 0.75259 0.27016 0.76414
 B621 B 0.77131 0.24921 0.75918
 B622 B 0.76374 0.23437 0.73317
 B623 B 0.73996 0.24630 0.72193
 B624 B 0.73314 0.26855 0.74110
 C625 C 0.39312 1.05767 0.31188
 C626 C 0.40994 1.06132 0.32956
 C627 C 0.41869 1.04387 0.34430
 C628 C 0.41119 1.02259 0.34041
 C629 C 0.39470 1.01881 0.32258
 C630 C 0.38494 1.03633 0.30825
 C631 C 0.43464 1.04759 0.36502
 C632 C 0.42899 1.04289 0.38953
 C633 C 0.44470 1.03795 0.41060
 C634 C 0.43789 1.02346 0.42987
 C635 C 0.45251 1.01534 0.44824
 C636 C 0.47426 1.02233 0.44900
 C637 C 0.48091 1.03778 0.43038
 C638 C 0.46628 1.04543 0.41115
 H639 H 0.38699 1.07161 0.30069
 H640 H 0.41570 1.07784 0.33223
 H641 H 0.41779 1.00891 0.35175
 H642 H 0.38882 1.00224 0.32142
 H643 H 0.45130 1.05128 0.35966
 H644 H 0.41200 1.03904 0.39334
 H645 H 0.42143 1.01732 0.42987
 H646 H 0.44666 1.00292 0.46137
 H647 H 0.49758 1.04327 0.42999
 H648 H 0.47199 1.05679 0.39661
 C649 C -0.11672 0.55098 0.82358
 C650 C -0.09931 0.55247 0.84088
 C651 C -0.08918 0.53345 0.85122
 C652 C -0.09712 0.51280 0.84441
 C653 C -0.11456 0.51122 0.82725
 C654 C -0.12481 0.53028 0.81637
 C655 C -0.07131 0.53559 0.87022
 C656 C -0.05548 0.51991 0.87312
 C657 C -0.03899 0.51953 0.89415
 C658 C -0.02272 0.50261 0.89363
 C659 C -0.00891 0.49914 0.91478
 C660 C -0.01099 0.51255 0.93716
 C661 C -0.02622 0.53051 0.93685
 C662 C -0.04020 0.53389 0.91574
 H663 H -0.12312 0.56621 0.81530
 H664 H -0.09355 0.56859 0.84595
 H665 H -0.09037 0.49779 0.85296
 H666 H -0.12055 0.49495 0.82372
 H667 H -0.07137 0.55054 0.88172
 H668 H -0.05486 0.50605 0.85975
 H669 H -0.02130 0.49132 0.87726
 H670 H 0.00262 0.48517 0.91389
 H671 H -0.02857 0.54110 0.95358
 H672 H -0.05254 0.54706 0.91727
 C673 C 0.12476 -0.00974 0.82462
 C674 C 0.11072 -0.00896 0.84621
 C675 C 0.09456 -0.02462 0.84943
 C676 C 0.09277 -0.04126 0.83052
 C677 C 0.10682 -0.04199 0.80877
 C678 C 0.12287 -0.02613 0.80551
 C679 C 0.07960 -0.02216 0.87222
 C680 C 0.06739 -0.03814 0.88218
 C681 C 0.05350 -0.03434 0.90580
 C682 C 0.03426 -0.04604 0.90940
 C683 C 0.02028 -0.04144 0.93079
 C684 C 0.02540 -0.02510 0.94900
 C685 C 0.04512 -0.01404 0.94565
 C686 C 0.05914 -0.01891 0.92478
 H687 H 0.13715 0.00252 0.82289
 H688 H 0.11248 0.00402 0.86049
 H689 H 0.08022 -0.05334 0.83196
 H690 H 0.10472 -0.05460 0.79414
 H691 H 0.07894 -0.00606 0.88139
 H692 H 0.06717 -0.05415 0.87289
 H693 H 0.02971 -0.05828 0.89525
 H694 H 0.00524 -0.05023 0.93260
 H695 H 0.04990 -0.00142 0.95917
 H696 H 0.07436 -0.01036 0.92360
 C697 C 0.62609 0.45545 0.31419
 C698 C 0.61174 0.45240 0.33513
 C699 C 0.59010 0.46099 0.33442
 C700 C 0.58306 0.47290 0.31240
 C701 C 0.59757 0.47633 0.29164
 C702 C 0.61922 0.46767 0.29242
 C703 C 0.57626 0.45966 0.35809
 C704 C 0.55429 0.45940 0.35788
 C705 C 0.54123 0.46296 0.38206
 C706 C 0.52145 0.45226 0.38616
 C707 C 0.50863 0.45678 0.40857
 C708 C 0.51515 0.47250 0.42686
 C709 C 0.53488 0.48329 0.42226
 C710 C 0.54777 0.47845 0.40042
 H711 H 0.64274 0.44868 0.31522
 H712 H 0.61762 0.44349 0.35207
 H713 H 0.56664 0.48025 0.31162
 H714 H 0.59191 0.48570 0.27495
 H715 H 0.58460 0.45954 0.37662
 H716 H 0.54572 0.45737 0.33972
 H717 H 0.51595 0.44046 0.37202
 H718 H 0.49345 0.44833 0.41127
 H719 H 0.54054 0.49570 0.43553
 H720 H 0.56257 0.48749 0.39746
 C721 C 0.63294 0.55847 0.15105
 C722 C 0.61891 0.56233 0.13015
 C723 C 0.59670 0.55727 0.13202
 C724 C 0.58862 0.54884 0.15561
 C725 C 0.60269 0.54490 0.17649
 C726 C 0.62508 0.54926 0.17424
 C727 C 0.58347 0.55786 0.10804
 C728 C 0.56153 0.55728 0.10783
 C729 C 0.54950 0.55099 0.08425
 C730 C 0.52736 0.55756 0.08148
 C731 C 0.51501 0.54923 0.06107
 C732 C 0.52455 0.53396 0.04321
 C733 C 0.54679 0.52754 0.04617
 C734 C 0.55911 0.53607 0.06616
 H735 H 0.65017 0.56178 0.14864
 H736 H 0.62560 0.56856 0.11211
 H737 H 0.57175 0.54418 0.15768
 H738 H 0.59616 0.53798 0.19424
 H739 H 0.59243 0.55724 0.08970
 H740 H 0.55212 0.56009 0.12559
 H741 H 0.51945 0.56866 0.09554
 H742 H 0.49780 0.55402 0.06010
 H743 H 0.55468 0.51518 0.03366
 H744 H 0.57584 0.52981 0.06825
 C745 C 0.13368 1.06061 0.66093
 C746 C 0.11822 1.06509 0.64155
 C747 C 0.09671 1.05800 0.64418
 C748 C 0.09072 1.04680 0.66688
 C749 C 0.10622 1.04183 0.68593
 C750 C 0.12816 1.04811 0.68305
 C751 C 0.08201 1.05902 0.62152
 C752 C 0.06009 1.05920 0.62372
 C753 C 0.04630 1.05178 0.60217
 C754 C 0.02492 1.06063 0.59901
 C755 C 0.01102 1.05169 0.58049
 C756 C 0.01811 1.03336 0.56533
 C757 C 0.03949 1.02445 0.56901
 C758 C 0.05347 1.03373 0.58680
 H759 H 0.15031 1.06555 0.65743
 H760 H 0.12329 1.07344 0.62400
 H761 H 0.07437 1.04075 0.66938
 H762 H 0.10078 1.03312 0.70304
 H763 H 0.08960 1.05734 0.60240
 H764 H 0.05217 1.06282 0.64230
 H765 H 0.01890 1.07424 0.61112
 H766 H -0.00546 1.05869 0.57872
 H767 H 0.04552 1.00999 0.55840
 H768 H 0.06955 1.02597 0.58946
 C769 C -0.12103 0.44204 0.68863
 C770 C -0.10463 0.43994 0.66934
 C771 C -0.09918 0.45818 0.65424
 C772 C -0.11131 0.47818 0.65763
 C773 C -0.12770 0.48024 0.67668
 C774 C -0.13245 0.46238 0.69283
 C775 C -0.08087 0.45648 0.63504
 C776 C -0.06758 0.47336 0.63182
 C777 C -0.05155 0.47560 0.61025
 C778 C -0.04592 0.49700 0.60376
 C779 C -0.03217 0.50082 0.58272
 C780 C -0.02328 0.48328 0.56737
 C781 C -0.02770 0.46160 0.57500
 C782 C -0.04207 0.45776 0.59597
 H783 H -0.12427 0.42797 0.70080
 H784 H -0.09570 0.42430 0.66682
 H785 H -0.10810 0.49231 0.64555
 H786 H -0.13662 0.49591 0.67886
 H787 H -0.07883 0.44167 0.62334
 H788 H -0.06987 0.48753 0.64462
 H789 H -0.05270 0.51105 0.61462
 H790 H -0.02878 0.51782 0.57849
 H791 H -0.02064 0.44762 0.56445
 H792 H -0.04560 0.44094 0.60095
 C793 C 0.37049 -0.05163 0.17122
 C794 C 0.38464 -0.05415 0.14976
 C795 C 0.40651 -0.04796 0.15133
 C796 C 0.41413 -0.03951 0.17498
 C797 C 0.39990 -0.03674 0.19634
 C798 C 0.37789 -0.04248 0.19452
 C799 C 0.41988 -0.04745 0.12718
 C800 C 0.44186 -0.04779 0.12674
 C801 C 0.45422 -0.04092 0.10341
 C802 C 0.47530 -0.04995 0.09797
 C803 C 0.48778 -0.04187 0.07723
 C804 C 0.47953 -0.02429 0.06197
 C805 C 0.45845 -0.01525 0.06783
 C806 C 0.44591 -0.02359 0.08799
 H807 H 0.35354 -0.05602 0.16930
 H808 H 0.37832 -0.06038 0.13165
 H809 H 0.43072 -0.03400 0.17668
 H810 H 0.40599 -0.02977 0.21418
 H811 H 0.41111 -0.04538 0.10906
 H812 H 0.45100 -0.05194 0.14411
 H813 H 0.48219 -0.06306 0.10996
 H814 H 0.50408 -0.04896 0.07371
 H815 H 0.45156 -0.00139 0.05709
 H816 H 0.43007 -0.01568 0.09222
 C817 C 0.33637 0.41054 0.05764
 C818 C 0.35593 0.42141 0.06077
 C819 C 0.35875 0.44218 0.04955
 C820 C 0.34142 0.45208 0.03539
 C821 C 0.32188 0.44113 0.03214
 C822 C 0.31929 0.42015 0.04296
 C823 C 0.38080 0.45144 0.04999
 C824 C 0.38491 0.47260 0.04509
 C825 C 0.40737 0.47937 0.03881
 C826 C 0.41422 0.50049 0.04533
 C827 C 0.43515 0.50717 0.03784
 C828 C 0.44936 0.49297 0.02320
 C829 C 0.44203 0.47198 0.01650
 C830 C 0.42150 0.46528 0.02422
 H831 H 0.33486 0.39430 0.06599
 H832 H 0.36915 0.41330 0.07142
 H833 H 0.34318 0.46778 0.02585
 H834 H 0.30886 0.44896 0.02092
 H835 H 0.39450 0.43988 0.05309
 H836 H 0.37167 0.48496 0.04441
 H837 H 0.40339 0.51179 0.05617
 H838 H 0.43997 0.52356 0.04314
 H839 H 0.45177 0.46073 0.00439
 H840 H 0.41638 0.44927 0.01779
 C841 C -0.18715 0.93424 0.57500
 C842 C -0.16755 0.94401 0.58138
 C843 C -0.16095 0.96307 0.56866
 C844 C -0.17500 0.97287 0.55018
 C845 C -0.19462 0.96306 0.54362
 C846 C -0.20082 0.94309 0.55526
 C847 C -0.13811 0.96999 0.57230
 C848 C -0.13044 0.98949 0.56496
 C849 C -0.10656 0.99270 0.56190
 C850 C -0.09778 1.01357 0.56530
 C851 C -0.07559 1.01696 0.55949
 C852 C -0.06188 0.99964 0.54951
 C853 C -0.07099 0.97881 0.54630
 C854 C -0.09280 0.97536 0.55257
 H855 H -0.19037 0.91873 0.58429
 H856 H -0.15692 0.93596 0.59550
 H857 H -0.17046 0.98749 0.53973
 H858 H -0.20482 0.97131 0.52929
 H859 H -0.12661 0.95762 0.57987
 H860 H -0.14163 1.00293 0.55959
 H861 H -0.10820 1.02733 0.57200
 H862 H -0.06949 1.03336 0.56179
 H863 H -0.06201 0.96533 0.53695
 H864 H -0.09918 0.95932 0.54843
 C865 C -0.17933 0.06192 0.97400
 C866 C -0.15994 0.04930 0.97097
 C867 C -0.15547 0.03749 0.94783
 C868 C -0.17054 0.03905 0.92746
 C869 C -0.19027 0.05143 0.93067
 C870 C -0.19496 0.06288 0.95411
 C871 C -0.13441 0.02488 0.94458
 C872 C -0.12586 0.01338 0.96441
 C873 C -0.10211 0.00962 0.96682
 C874 C -0.09113 0.02360 0.98339
 C875 C -0.06903 0.01981 0.98840
 C876 C -0.05723 0.00160 0.97738
 C877 C -0.06829 -0.01224 0.96018
 C878 C -0.09063 -0.00820 0.95488
 H879 H -0.18192 0.07114 0.99192
 H880 H -0.14817 0.04919 0.98660
 H881 H -0.16721 0.03039 0.90929
 H882 H -0.20196 0.05173 0.91497
 H883 H -0.12488 0.02706 0.92691
 H884 H -0.13553 0.01150 0.98204
 H885 H -0.09984 0.03737 0.99286
 H886 H -0.06149 0.03094 1.00176
 H887 H -0.05988 -0.02639 0.95125
 H888 H -0.09905 -0.01926 0.94215
 C889 C 0.31232 0.57583 0.47630
 C890 C 0.33148 0.56286 0.47786
 C891 C 0.33657 0.54667 0.45904
 C892 C 0.32229 0.54399 0.43804
 C893 C 0.30276 0.55689 0.43666
 C894 C 0.29742 0.57261 0.45615
 C895 C 0.35679 0.53308 0.46288
 C896 C 0.36949 0.52426 0.44379
 C897 C 0.39224 0.51654 0.44952
 C898 C 0.40221 0.49837 0.43647
 C899 C 0.42377 0.49132 0.44245
 C900 C 0.43573 0.50249 0.46140
 C901 C 0.42558 0.52093 0.47384
 C902 C 0.40442 0.52797 0.46781
 H903 H 0.30896 0.58819 0.49122
 H904 H 0.34240 0.56548 0.49399
 H905 H 0.32577 0.53153 0.42331
 H906 H 0.29148 0.55405 0.42097
 H907 H 0.36270 0.53223 0.48269
 H908 H 0.36395 0.52409 0.42385
 H909 H 0.39325 0.48953 0.42193
 H910 H 0.43103 0.47720 0.43218
 H911 H 0.43399 0.53035 0.48826
 H912 H 0.39773 0.54270 0.47737
 C913 C 0.16787 0.59031 0.55781
 C914 C 0.14812 0.57968 0.56094
 C915 C 0.14582 0.55824 0.55123
 C916 C 0.16384 0.54738 0.53884
 C917 C 0.18350 0.55812 0.53544
 C918 C 0.18554 0.57982 0.54445
 C919 C 0.12374 0.54914 0.55090
 C920 C 0.11987 0.52763 0.54856
 C921 C 0.09777 0.52048 0.54194
 C922 C 0.08891 0.50189 0.55360
 C923 C 0.06755 0.49586 0.54766
 C924 C 0.05494 0.50811 0.52957
 C925 C 0.06460 0.52601 0.51707
 C926 C 0.08559 0.53213 0.52322
 H927 H 0.16906 0.60707 0.56484
 H928 H 0.13436 0.58846 0.57025
 H929 H 0.16249 0.53108 0.53054
 H930 H 0.19702 0.54965 0.52529
 H931 H 0.10993 0.56094 0.55115
 H932 H 0.13295 0.51524 0.55068
 H933 H 0.09826 0.49245 0.56779
 H934 H 0.06088 0.48184 0.55753
 H935 H 0.05579 0.53596 0.50297
 H936 H 0.09230 0.54612 0.51327
 C937 C 0.67886 0.08056 0.06491
 C938 C 0.65837 0.07156 0.06870
 C939 C 0.65375 0.05096 0.05801
 C940 C 0.67031 0.03923 0.04386
 C941 C 0.69085 0.04829 0.04001
 C942 C 0.69521 0.06919 0.05018
 C943 C 0.63080 0.04390 0.05911
 C944 C 0.62446 0.02344 0.05385
 C945 C 0.60114 0.01902 0.04910
 C946 C 0.59262 -0.00154 0.05515
 C947 C 0.57083 -0.00601 0.04917
 C948 C 0.55731 0.00988 0.03658
 C949 C 0.56624 0.03029 0.03036
 C950 C 0.58771 0.03479 0.03651
 H951 H 0.68161 0.09683 0.07266
 H952 H 0.64583 0.08107 0.07936
 H953 H 0.66725 0.02357 0.03476
 H954 H 0.70321 0.03912 0.02871
 H955 H 0.61832 0.05664 0.06331
 H956 H 0.63640 0.00987 0.05206
 H957 H 0.60284 -0.01412 0.06442
 H958 H 0.56478 -0.02205 0.05401
 H959 H 0.55707 0.04271 0.01960
 H960 H 0.59400 0.05042 0.03038
 C961 C 0.69699 0.96696 0.45671
 C962 C 0.67598 0.97659 0.45372
 C963 C 0.66019 0.96605 0.43899
 C964 C 0.66639 0.94642 0.42567
 C965 C 0.68738 0.93676 0.42871
 C966 C 0.70274 0.94658 0.44488
 C967 C 0.63721 0.97514 0.43946
 C968 C 0.61996 0.96219 0.43735
 C969 C 0.59716 0.96949 0.44419
 C970 C 0.58351 0.95391 0.45512
 C971 C 0.56253 0.96001 0.46401
 C972 C 0.55406 0.98181 0.46146
 C973 C 0.56756 0.99735 0.44957
 C974 C 0.58894 0.99129 0.44115
 H975 H 0.70858 0.97520 0.46884
 H976 H 0.67176 0.99185 0.46391
 H977 H 0.65496 0.93819 0.41336
 H978 H 0.69121 0.92107 0.41930
 H979 H 0.63448 0.99221 0.44524
 H980 H 0.62283 0.94468 0.43409
 H981 H 0.58951 0.93707 0.45800
 H982 H 0.55372 0.94770 0.47438
 H983 H 0.56188 1.01435 0.44742
 H984 H 0.59899 1.00366 0.43241
 C985 C 0.20294 0.43842 0.93610
 C986 C 0.18279 0.45036 0.93575
 C987 C 0.16725 0.44769 0.95574
 C988 C 0.17246 0.43333 0.97640
 C989 C 0.19235 0.42140 0.97666
 C990 C 0.20790 0.42387 0.95666
 C991 C 0.14590 0.46023 0.95543
 C992 C 0.12797 0.45161 0.96595
 C993 C 0.10685 0.46360 0.97102
 C994 C 0.09364 0.45531 0.99080
 C995 C 0.07295 0.46457 0.99588
 C996 C 0.06448 0.48242 0.98119
 C997 C 0.07800 0.49125 0.96171
 C998 C 0.09910 0.48196 0.95669
 H999 H 0.21477 0.44086 0.92060
 H1000 H 0.17929 0.46156 0.91984
 H1001 H 0.16134 0.43147 0.99274
 H1002 H 0.19557 0.41022 0.99266
 H1003 H 0.14523 0.47667 0.94730
 H1004 H 0.12909 0.43478 0.97293
 H1005 H 0.09920 0.44121 1.00217
 H1006 H 0.06326 0.45670 1.01063
 H1007 H 0.07207 0.50484 0.94981
 H1008 H 0.10886 0.48860 0.94108
 C1009 C -0.01217 0.32104 0.42379
 C1010 C -0.01792 0.33884 0.44006
 C1011 C -0.00209 0.34880 0.45533
 C1012 C 0.01973 0.34036 0.45409
 C1013 C 0.02546 0.32245 0.43784
 C1014 C 0.00961 0.31270 0.42237
 C1015 C -0.00874 0.36911 0.47003
 C1016 C 0.00360 0.37867 0.48802
 C1017 C -0.00120 0.40131 0.49818
 C1018 C -0.01410 0.41679 0.48423
 C1019 C -0.01533 0.43886 0.49177
 C1020 C -0.00377 0.44627 0.51349
 C1021 C 0.00830 0.43058 0.52817
 C1022 C 0.00955 0.40838 0.52057
 H1023 H -0.02473 0.31417 0.41181
 H1024 H -0.03477 0.34515 0.44030
 H1025 H 0.03262 0.34780 0.46494
 H1026 H 0.04235 0.31627 0.43736
 H1027 H -0.02443 0.37675 0.46506
 H1028 H 0.01829 0.37018 0.49494
 H1029 H -0.02213 0.41244 0.46640
 H1030 H -0.02439 0.45033 0.47947
 H1031 H 0.01774 0.43558 0.54475
 H1032 H 0.01977 0.39687 0.53157
 C1033 C 0.52027 -0.18675 -0.06184
 C1034 C 0.51793 -0.17014 -0.04291
 C1035 C 0.51683 -0.14793 -0.05031
 C1036 C 0.51901 -0.14251 -0.07679
 C1037 C 0.52167 -0.15901 -0.09559
 C1038 C 0.52212 -0.18126 -0.08832
 C1039 C 0.51375 -0.13034 -0.03054
 C1040 C 0.50033 -0.11290 -0.03525
 C1041 C 0.49932 -0.09207 -0.02014
 C1042 C 0.48854 -0.07395 -0.03174
 C1043 C 0.48932 -0.05310 -0.02075
 C1044 C 0.50040 -0.04968 0.00273
 C1045 C 0.51034 -0.06803 0.01517
 C1046 C 0.50986 -0.08908 0.00382
 H1047 H 0.52084 -0.20385 -0.05583
 H1048 H 0.51655 -0.17462 -0.02258
 H1049 H 0.51880 -0.12545 -0.08296
 H1050 H 0.52307 -0.15440 -0.11587
 H1051 H 0.52309 -0.13162 -0.01282
 H1052 H 0.49067 -0.11317 -0.05285
 H1053 H 0.48028 -0.07569 -0.05016
 H1054 H 0.48162 -0.03952 -0.03127
 H1055 H 0.51924 -0.06605 0.03308
 H1056 H 0.51817 -0.10268 0.01358
 C1057 C -0.03358 -0.18654 1.05974
 C1058 C -0.02992 -0.16894 1.04295
 C1059 C -0.00891 -0.16052 1.04007
 C1060 C 0.00866 -0.17096 1.05337
 C1061 C 0.00498 -0.18848 1.07029
 C1062 C -0.01626 -0.19622 1.07408
 C1063 C -0.00635 -0.14030 1.02419
 C1064 C 0.01000 -0.12642 1.02763
 C1065 C 0.00979 -0.10380 1.01681
 C1066 C 0.01961 -0.08741 1.03139
 C1067 C 0.01750 -0.06537 1.02412
 C1068 C 0.00609 -0.05905 1.00147
 C1069 C -0.00261 -0.07569 0.98592
 C1070 C -0.00082 -0.09786 0.99353
 H1071 H -0.05004 -0.19248 1.06163
 H1072 H -0.04371 -0.16146 1.03272
 H1073 H 0.02527 -0.16561 1.05104
 H1074 H 0.01872 -0.19556 1.08094
 H1075 H -0.01982 -0.13540 1.01166
 H1076 H 0.02250 -0.13032 1.04182
 H1077 H 0.02795 -0.09152 1.04934
 H1078 H 0.02417 -0.05320 1.03696
 H1079 H -0.01166 -0.07156 0.96851
 H1080 H -0.00812 -0.11021 0.98147
 C1081 C 0.45728 0.31461 0.55426
 C1082 C 0.45881 0.33156 0.53595
 C1083 C 0.47861 0.34226 0.53206
 C1084 C 0.49682 0.33575 0.54722
 C1085 C 0.49530 0.31885 0.56542
 C1086 C 0.47555 0.30806 0.56919
 C1087 C 0.47911 0.36137 0.51401
 C1088 C 0.49771 0.37002 0.50529
 C1089 C 0.49795 0.39250 0.49456
 C1090 C 0.51128 0.40761 0.50662
 C1091 C 0.50996 0.42976 0.49979
 C1092 C 0.49621 0.43730 0.47953
 C1093 C 0.48371 0.42174 0.46641
 C1094 C 0.48432 0.39956 0.47414
 H1095 H 0.44187 0.30650 0.55659
 H1096 H 0.44443 0.33642 0.52488
 H1097 H 0.51216 0.34403 0.54590
 H1098 H 0.50952 0.31455 0.57703
 H1099 H 0.46359 0.36962 0.50934
 H1100 H 0.51346 0.36230 0.50976
 H1101 H 0.52171 0.40251 0.52262
 H1102 H 0.51907 0.44108 0.51138
 H1103 H 0.47256 0.42686 0.45115
 H1104 H 0.47389 0.38804 0.46458
 C1105 C 0.54167 1.17608 0.56521
 C1106 C 0.53957 1.15722 0.54975
 C1107 C 0.51926 1.14721 0.54763
 C1108 C 0.50094 1.15685 0.56082
 C1109 C 0.50308 1.17547 0.57642
 C1110 C 0.52343 1.18538 0.57881
 C1111 C 0.51783 1.12662 0.53204
 C1112 C 0.50226 1.11199 0.53638
 C1113 C 0.50217 1.08992 0.52412
 C1114 C 0.49340 1.07282 0.53862
 C1115 C 0.49366 1.05146 0.52879
 C1116 C 0.50194 1.04661 0.50362
 C1117 C 0.51018 1.06392 0.48867
 C1118 C 0.51040 1.08541 0.49888
 H1119 H 0.55749 1.18353 0.56624
 H1120 H 0.55391 1.15029 0.53963
 H1121 H 0.48480 1.15025 0.55912
 H1122 H 0.48872 1.18205 0.58678
 H1123 H 0.53102 1.12253 0.51838
 H1124 H 0.49028 1.11507 0.55175
 H1125 H 0.48686 1.07589 0.55804
 H1126 H 0.48733 1.03870 0.54113
 H1127 H 0.51688 1.06084 0.46935
 H1128 H 0.51691 1.09840 0.48703
 C1129 C 0.04005 0.66832 1.07257
 C1130 C 0.03902 0.65054 1.05536
 C1131 C 0.01889 0.64380 1.04584
 C1132 C -0.00035 0.65557 1.05381
 C1133 C 0.00062 0.67343 1.07104
 C1134 C 0.02084 0.68010 1.08107
 C1135 C 0.01894 0.62375 1.02907
 C1136 C 0.00133 0.61605 1.01703
 C1137 C 0.00182 0.59409 1.00424
 C1138 C -0.01688 0.58144 1.00564
 C1139 C -0.01588 0.55929 0.99800
 C1140 C 0.00377 0.54925 0.98847
 C1141 C 0.02175 0.56284 0.98427
 C1142 C 0.02085 0.58493 0.99218
 H1143 H 0.05618 0.67310 1.07837
 H1144 H 0.05417 0.64194 1.04950
 H1145 H -0.01634 0.65084 1.04752
 H1146 H -0.01479 0.68116 1.07735
 H1147 H 0.03427 0.61419 1.02780
 H1148 H -0.01440 0.62474 1.01862
 H1149 H -0.03198 0.58831 1.01412
 H1150 H -0.03041 0.55014 1.00043
 H1151 H 0.03715 0.55613 0.97646
 H1152 H 0.03531 0.59454 0.98966
 C1153 C 0.51202 0.68675 -0.09404
 C1154 C 0.51635 0.66739 -0.08016
 C1155 C 0.49921 0.65564 -0.06932
 C1156 C 0.47751 0.66353 -0.07275
 C1157 C 0.47309 0.68276 -0.08689
 C1158 C 0.49024 0.69475 -0.09796
 C1159 C 0.50438 0.63429 -0.05667
 C1160 C 0.49142 0.62542 -0.03862
 C1161 C 0.49514 0.60267 -0.02906
 C1162 C 0.48734 0.59698 -0.00430
 C1163 C 0.48905 0.57514 0.00425
 C1164 C 0.49840 0.55849 -0.01195
 C1165 C 0.50615 0.56434 -0.03680
 C1166 C 0.50466 0.58612 -0.04519
 H1167 H 0.52586 0.69465 -0.10282
 H1168 H 0.53320 0.66137 -0.07820
 H1169 H 0.46383 0.65459 -0.06516
 H1170 H 0.45612 0.68839 -0.08840
 H1171 H 0.51947 0.62561 -0.06257
 H1172 H 0.47755 0.63497 -0.03065
 H1173 H 0.47960 0.60941 0.00828
 H1174 H 0.48236 0.57130 0.02320
 H1175 H 0.51319 0.55204 -0.05006
 H1176 H 0.51016 0.58972 -0.06476
 C1177 C -0.04178 1.18004 0.42809
 C1178 C -0.04069 1.16280 0.44607
 C1179 C -0.02047 1.15510 0.45575
 C1180 C -0.00138 1.16563 0.44804
 C1181 C -0.00240 1.18296 0.43023
 C1182 C -0.02262 1.19038 0.41954
 C1183 C -0.01975 1.13565 0.47310
 C1184 C -0.00283 1.12093 0.47271
 C1185 C -0.00351 1.09941 0.48593
 C1186 C 0.00609 1.08100 0.47324
 C1187 C 0.00462 1.06008 0.48394
 C1188 C -0.00566 1.05706 0.50831
 C1189 C -0.01476 1.07570 0.52143
 C1190 C -0.01380 1.09670 0.51027
 H1191 H -0.05788 1.18558 0.42167
 H1192 H -0.05569 1.15515 0.45204
 H1193 H 0.01448 1.16044 0.45559
 H1194 H 0.01297 1.18969 0.42408
 H1195 H -0.03444 1.13205 0.48410
 H1196 H 0.01085 1.12334 0.45953
 H1197 H 0.01407 1.08270 0.45444
 H1198 H 0.01146 1.04622 0.47286
 H1199 H -0.02317 1.07407 0.53993
 H1200 H -0.02112 1.11075 0.52062
 C1201 C 0.80261 0.62772 0.92149
 C1202 C 0.80360 0.64306 0.90131
 C1203 C 0.78444 0.65139 0.88967
 C1204 C 0.76421 0.64329 0.89777
 C1205 C 0.76314 0.62776 0.91777
 C1206 C 0.78230 0.61980 0.93046
 C1207 C 0.78603 0.66833 0.86905
 C1208 C 0.77048 0.68427 0.86594
 C1209 C 0.77094 0.70155 0.84557
 C1210 C 0.75663 0.72002 0.84846
 C1211 C 0.75409 0.73534 0.82844
 C1212 C 0.76573 0.73257 0.80476
 C1213 C 0.78125 0.71487 0.80258
 C1214 C 0.78371 0.69941 0.82263
 H1215 H 0.81794 0.62319 0.93072
 H1216 H 0.81941 0.64900 0.89534
 H1217 H 0.74915 0.64871 0.88842
 H1218 H 0.74717 0.62167 0.92253
 H1219 H 0.80092 0.66833 0.85741
 H1220 H 0.75670 0.68508 0.87943
 H1221 H 0.74671 0.72220 0.86596
 H1222 H 0.74206 0.74872 0.83122
 H1223 H 0.79039 0.71193 0.78468
 H1224 H 0.79469 0.68525 0.81937
 C1225 C 0.25780 0.11924 0.42017
 C1226 C 0.25721 0.13389 0.39933
 C1227 C 0.27527 0.14660 0.39315
 C1228 C 0.29429 0.14395 0.40818
 C1229 C 0.29494 0.12921 0.42917
 C1230 C 0.27656 0.11670 0.43588
 C1231 C 0.27312 0.16191 0.37070
 C1232 C 0.28820 0.17597 0.36224
 C1233 C 0.28400 0.19030 0.33921
 C1234 C 0.29293 0.21131 0.33756
 C1235 C 0.28708 0.22572 0.31717
 C1236 C 0.27222 0.21932 0.29804
 C1237 C 0.26425 0.19783 0.29932
 C1238 C 0.27047 0.18343 0.31908
 H1239 H 0.24356 0.10943 0.42322
 H1240 H 0.24243 0.13521 0.38785
 H1241 H 0.30866 0.15329 0.40410
 H1242 H 0.30965 0.12857 0.44073
 H1243 H 0.25754 0.16183 0.36081
 H1244 H 0.30328 0.17786 0.37270
 H1245 H 0.30371 0.21690 0.35262
 H1246 H 0.29346 0.24213 0.31704
 H1247 H 0.25260 0.19205 0.28538
 H1248 H 0.26412 0.16702 0.31877
 C1249 C 0.74333 0.38057 0.41277
 C1250 C 0.74415 0.36783 0.39006
 C1251 C 0.72646 0.35491 0.38312
 C1252 C 0.70776 0.35516 0.39941
 C1253 C 0.70698 0.36786 0.42218
 C1254 C 0.72473 0.38075 0.42910
 C1255 C 0.72834 0.34184 0.35865
 C1256 C 0.71459 0.32616 0.35142
 C1257 C 0.71846 0.31280 0.32747
 C1258 C 0.71199 0.29085 0.32677
 C1259 C 0.71818 0.27704 0.30583
 C1260 C 0.73083 0.28500 0.28505
 C1261 C 0.73590 0.30747 0.28512
 C1262 C 0.72950 0.32124 0.30578
 H1263 H 0.75715 0.39053 0.41736
 H1264 H 0.75872 0.36809 0.37783
 H1265 H 0.69358 0.34583 0.39474
 H1266 H 0.69250 0.36742 0.43452
 H1267 H 0.74260 0.34468 0.34656
 H1268 H 0.70129 0.32161 0.36412
 H1269 H 0.70319 0.28403 0.34311
 H1270 H 0.71416 0.25985 0.30678
 H1271 H 0.74584 0.31437 0.26985
 H1272 H 0.73393 0.33833 0.30504
 C1273 C 0.24514 0.87383 0.91756
 C1274 C 0.24499 0.85895 0.89687
 C1275 C 0.22534 0.85036 0.88828
 C1276 C 0.20562 0.85712 0.90073
 C1277 C 0.20567 0.87224 0.92141
 C1278 C 0.22550 0.88089 0.93033
 C1279 C 0.22635 0.83569 0.86522
 C1280 C 0.21092 0.82162 0.85831
 C1281 C 0.21410 0.80778 0.83465
 C1282 C 0.20818 0.78563 0.83451
 C1283 C 0.21456 0.77168 0.81366
 C1284 C 0.22682 0.77976 0.79259
 C1285 C 0.23135 0.80236 0.79232
 C1286 C 0.22466 0.81620 0.81267
 H1287 H 0.26076 0.88048 0.92255
 H1288 H 0.26040 0.85431 0.88729
 H1289 H 0.19010 0.85110 0.89433
 H1290 H 0.19013 0.87645 0.93082
 H1291 H 0.24132 0.83600 0.85367
 H1292 H 0.19681 0.81914 0.87076
 H1293 H 0.19981 0.77882 0.85117
 H1294 H 0.21099 0.75438 0.81484
 H1295 H 0.24114 0.80940 0.77702
 H1296 H 0.22876 0.83339 0.81172
 C1297 C 0.26307 0.87068 0.07471
 C1298 C 0.26254 0.85483 0.09418
 C1299 C 0.28159 0.84292 0.10145
 C1300 C 0.30145 0.84731 0.08873
 C1301 C 0.30204 0.86324 0.06902
 C1302 C 0.28277 0.87519 0.06143
 C1303 C 0.27961 0.82718 0.12329
 C1304 C 0.29562 0.81391 0.13306
 C1305 C 0.29125 0.80088 0.15685
 C1306 C 0.29947 0.77907 0.15961
 C1307 C 0.29246 0.76606 0.18056
 C1308 C 0.27719 0.77477 0.19901
 C1309 C 0.27012 0.79703 0.19658
 C1310 C 0.27754 0.80999 0.17644
 H1311 H 0.24795 0.87993 0.07100
 H1312 H 0.24704 0.85214 0.10396
 H1313 H 0.31656 0.83860 0.09385
 H1314 H 0.31758 0.86539 0.05923
 H1315 H 0.26347 0.82675 0.13229
 H1316 H 0.31154 0.81216 0.12366
 H1317 H 0.31036 0.77177 0.14491
 H1318 H 0.29811 0.74897 0.18151
 H1319 H 0.25801 0.80456 0.20966
 H1320 H 0.27162 0.82702 0.17559
 C1321 C 0.75560 0.37438 0.58742
 C1322 C 0.75502 0.36041 0.60893
 C1323 C 0.77343 0.34711 0.61558
 C1324 C 0.79258 0.34808 0.60018
 C1325 C 0.79315 0.36206 0.57863
 C1326 C 0.77471 0.37545 0.57210
 C1327 C 0.77203 0.33335 0.63927
 C1328 C 0.78624 0.31682 0.64560
 C1329 C 0.78308 0.30370 0.66954
 C1330 C 0.78866 0.28107 0.66971
 C1331 C 0.78277 0.26799 0.69095
 C1332 C 0.77126 0.27738 0.71248
 C1333 C 0.76728 0.30034 0.71276
 C1334 C 0.77340 0.31335 0.69189
 H1335 H 0.74123 0.38467 0.58308
 H1336 H 0.74010 0.36013 0.62055
 H1337 H 0.80727 0.33847 0.60484
 H1338 H 0.80805 0.36237 0.56700
 H1339 H 0.75785 0.33664 0.65176
 H1340 H 0.79938 0.31168 0.63237
 H1341 H 0.79650 0.27329 0.65284
 H1342 H 0.78623 0.25039 0.68981
 H1343 H 0.75816 0.30844 0.72818
 H1344 H 0.76968 0.33092 0.69293
 C1345 C 0.19897 0.10578 0.58981
 C1346 C 0.19603 0.12000 0.61117
 C1347 C 0.20355 0.14157 0.61019
 C1348 C 0.21429 0.14861 0.58749
 C1349 C 0.21752 0.13430 0.56632
 C1350 C 0.20998 0.11273 0.56731
 C1351 C 0.20233 0.15542 0.63399
 C1352 C 0.20207 0.17755 0.63359
 C1353 C 0.20668 0.19089 0.65699
 C1354 C 0.19924 0.21304 0.65861
 C1355 C 0.20621 0.22670 0.67877
 C1356 C 0.22100 0.21851 0.69755
 C1357 C 0.22824 0.19622 0.69572
 C1358 C 0.22100 0.18259 0.67605
 H1359 H 0.19306 0.08920 0.59106
 H1360 H 0.18803 0.11408 0.62860
 H1361 H 0.22090 0.16489 0.58634
 H1362 H 0.22588 0.14011 0.54909
 H1363 H 0.20254 0.14692 0.65250
 H1364 H 0.19963 0.18618 0.61537
 H1365 H 0.18858 0.21997 0.64378
 H1366 H 0.20088 0.24390 0.67879
 H1367 H 0.24057 0.18933 0.70856
 H1368 H 0.22792 0.16593 0.67487
 C1369 C 0.71769 0.61159 0.09617
 C1370 C 0.71717 0.62524 0.11821
 C1371 C 0.72605 0.64621 0.11716
 C1372 C 0.73662 0.65277 0.09410
 C1373 C 0.73724 0.63911 0.07218
 C1374 C 0.72745 0.61855 0.07281
 C1375 C 0.72470 0.66073 0.14042
 C1376 C 0.72371 0.68277 0.13846
 C1377 C 0.72583 0.69781 0.16089
 C1378 C 0.73587 0.71786 0.15664
 C1379 C 0.74064 0.73157 0.17746
 C1380 C 0.73515 0.72573 0.20317
 C1381 C 0.72297 0.70672 0.20703
 C1382 C 0.71873 0.69264 0.18619
 H1383 H 0.71030 0.59566 0.09730
 H1384 H 0.70938 0.61962 0.13592
 H1385 H 0.74450 0.66842 0.09291
 H1386 H 0.74483 0.64494 0.05447
 H1387 H 0.72491 0.65300 0.15939
 H1388 H 0.72322 0.69025 0.11935
 H1389 H 0.74098 0.72248 0.13721
 H1390 H 0.74925 0.74642 0.17322
 H1391 H 0.71722 0.70230 0.22621
 H1392 H 0.71004 0.67773 0.18994
 C1393 C 0.20691 0.55665 0.22209
 C1394 C 0.21790 0.57639 0.22121
 C1395 C 0.20852 0.59504 0.20899
 C1396 C 0.18800 0.59331 0.19695
 C1397 C 0.17694 0.57349 0.19789
 C1398 C 0.18609 0.55509 0.21096
 C1399 C 0.21967 0.61626 0.21160
 C1400 C 0.21619 0.63379 0.19609
 C1401 C 0.22546 0.65568 0.20140
 C1402 C 0.21489 0.67463 0.19123
 C1403 C 0.22142 0.69565 0.19835
 C1404 C 0.23849 0.69823 0.21619
 C1405 C 0.25046 0.67922 0.22424
 C1406 C 0.24403 0.65823 0.21699
 H1407 H 0.21454 0.54267 0.23198
 H1408 H 0.23365 0.57723 0.23065
 H1409 H 0.17993 0.60743 0.18791
 H1410 H 0.16079 0.57287 0.18945
 H1411 H 0.23067 0.61744 0.22785
 H1412 H 0.20507 0.63265 0.17993
 H1413 H 0.20103 0.67321 0.17842
 H1414 H 0.21271 0.70975 0.19019
 H1415 H 0.26431 0.68038 0.23709
 H1416 H 0.25353 0.64414 0.22403
 C1417 C 0.69518 0.06110 0.72270
 C1418 C 0.70721 0.08018 0.72418
 C1419 C 0.69986 0.09965 0.71190
 C1420 C 0.68033 0.09945 0.69749
 C1421 C 0.66825 0.08029 0.69603
 C1422 C 0.67533 0.06104 0.70906
 C1423 C 0.71199 0.12004 0.71670
 C1424 C 0.71023 0.13827 0.70203
 C1425 C 0.71995 0.15945 0.70948
 C1426 C 0.71005 0.17914 0.70046
 C1427 C 0.71692 0.19949 0.70935
 C1428 C 0.73365 0.20070 0.72789
 C1429 C 0.74516 0.18104 0.73469
 C1430 C 0.73825 0.16062 0.72582
 H1431 H 0.70123 0.04642 0.73264
 H1432 H 0.72213 0.07983 0.73542
 H1433 H 0.67372 0.11421 0.68828
 H1434 H 0.65288 0.08083 0.68567
 H1435 H 0.72215 0.12009 0.73383
 H1436 H 0.70001 0.13836 0.68496
 H1437 H 0.69642 0.17878 0.68714
 H1438 H 0.70875 0.21420 0.70191
 H1439 H 0.75883 0.18126 0.74793
 H1440 H 0.74714 0.14587 0.73210
 C1441 C 0.82029 0.07353 0.32953
 C1442 C 0.80950 0.09435 0.33116
 C1443 C 0.80517 0.10653 0.30857
 C1444 C 0.81084 0.09721 0.28432
 C1445 C 0.82143 0.07657 0.28258
 C1446 C 0.82655 0.06421 0.30511
 C1447 C 0.79552 0.12927 0.30987
 C1448 C 0.80407 0.14483 0.29484
 C1449 C 0.79460 0.16724 0.29008
 C1450 C 0.80716 0.18105 0.27473
 C1451 C 0.79840 0.20090 0.26561
 C1452 C 0.77678 0.20812 0.27194
 C1453 C 0.76435 0.19471 0.28838
 C1454 C 0.77312 0.17435 0.29728
 H1455 H 0.82308 0.06463 0.34746
 H1456 H 0.80501 0.10116 0.35008
 H1457 H 0.80741 0.10612 0.26650
 H1458 H 0.82648 0.07105 0.26334
 H1459 H 0.78171 0.13292 0.32276
 H1460 H 0.81902 0.14044 0.28407
 H1461 H 0.82362 0.17595 0.26851
 H1462 H 0.80837 0.20964 0.25197
 H1463 H 0.74760 0.19950 0.29360
 H1464 H 0.76278 0.16398 0.30882
 C1465 C 0.31416 0.56339 0.81767
 C1466 C 0.30360 0.58420 0.82054
 C1467 C 0.30072 0.59802 0.79901
 C1468 C 0.30757 0.59031 0.77434
 C1469 C 0.31790 0.56958 0.77135
 C1470 C 0.32169 0.55569 0.79297
 C1471 C 0.29110 0.62067 0.80218
 C1472 C 0.29972 0.63733 0.78900
 C1473 C 0.29070 0.66030 0.78779
 C1474 C 0.30374 0.67562 0.77540
 C1475 C 0.29532 0.69647 0.76925
 C1476 C 0.27355 0.70309 0.77572
 C1477 C 0.26073 0.68810 0.78954
 C1478 C 0.26917 0.66683 0.79544
 H1479 H 0.31572 0.55321 0.83484
 H1480 H 0.29811 0.58969 0.83969
 H1481 H 0.30516 0.60046 0.75724
 H1482 H 0.32380 0.56516 0.75204
 H1483 H 0.27753 0.62354 0.81566
 H1484 H 0.31451 0.63377 0.77759
 H1485 H 0.32027 0.67103 0.76896
 H1486 H 0.30559 0.70645 0.75729
 H1487 H 0.24383 0.69236 0.79466
 H1488 H 0.25848 0.65535 0.80476
 C1489 C 0.31346 0.42557 0.73968
 C1490 C 0.30214 0.40610 0.74087
 C1491 C 0.28995 0.39900 0.71963
 C1492 C 0.28886 0.41223 0.69719
 C1493 C 0.30012 0.43195 0.69608
 C1494 C 0.31272 0.43872 0.71726
 C1495 C 0.28050 0.37691 0.72152
 C1496 C 0.26933 0.36665 0.70296
 C1497 C 0.26498 0.34292 0.70577
 C1498 C 0.28118 0.32871 0.71621
 C1499 C 0.27681 0.30695 0.72160
 C1500 C 0.25628 0.29827 0.71608
 C1501 C 0.24041 0.31219 0.70407
 C1502 C 0.24478 0.33435 0.69884
 H1503 H 0.32334 0.42996 0.75616
 H1504 H 0.30348 0.39619 0.75833
 H1505 H 0.27976 0.40736 0.68033
 H1506 H 0.29904 0.44187 0.67862
 H1507 H 0.28409 0.36788 0.73926
 H1508 H 0.26374 0.37517 0.68568
 H1509 H 0.29720 0.33459 0.72099
 H1510 H 0.28947 0.29743 0.73142
 H1511 H 0.22439 0.30622 0.69949
 H1512 H 0.23213 0.34498 0.69037
 C1513 C 0.81137 0.93643 0.25920
 C1514 C 0.79948 0.91738 0.26119
 C1515 C 0.79089 0.90746 0.23909
 C1516 C 0.79383 0.91755 0.21477
 C1517 C 0.80564 0.93684 0.21271
 C1518 C 0.81502 0.94656 0.23487
 C1519 C 0.78122 0.88560 0.24250
 C1520 C 0.77258 0.87339 0.22366
 C1521 C 0.76845 0.84983 0.22826
 C1522 C 0.78320 0.83704 0.24315
 C1523 C 0.77962 0.81497 0.24779
 C1524 C 0.76124 0.80472 0.23760
 C1525 C 0.74670 0.81740 0.22204
 C1526 C 0.75039 0.83974 0.21725
 H1527 H 0.81876 0.94218 0.27687
 H1528 H 0.79775 0.90985 0.28017
 H1529 H 0.78750 0.91048 0.19718
 H1530 H 0.80700 0.94420 0.19365
 H1531 H 0.78257 0.87845 0.26177
 H1532 H 0.76915 0.88017 0.20464
 H1533 H 0.79781 0.84403 0.25104
 H1534 H 0.79156 0.80602 0.25942
 H1535 H 0.73249 0.81013 0.21358
 H1536 H 0.73901 0.84922 0.20530
 C1537 C 0.65854 0.92982 0.80164
 C1538 C 0.66973 0.90930 0.80177
 C1539 C 0.69142 0.90698 0.79239
 C1540 C 0.70201 0.92583 0.78369
 C1541 C 0.69072 0.94633 0.78328
 C1542 C 0.66872 0.94843 0.79171
 C1543 C 0.70117 0.88446 0.78863
 C1544 C 0.72276 0.87951 0.78647
 C1545 C 0.73062 0.85714 0.77829
 C1546 C 0.74833 0.84629 0.79064
 C1547 C 0.75429 0.82435 0.78411
 C1548 C 0.74288 0.81305 0.76475
 C1549 C 0.72616 0.82478 0.75135
 C1550 C 0.72010 0.84639 0.75805
 H1551 H 0.64156 0.93092 0.80803
 H1552 H 0.66115 0.89500 0.80837
 H1553 H 0.71855 0.92461 0.77586
 H1554 H 0.69899 0.96047 0.77566
 H1555 H 0.68979 0.87125 0.78673
 H1556 H 0.73470 0.89174 0.79070
 H1557 H 0.75690 0.85444 0.80608
 H1558 H 0.76730 0.81606 0.79488
 H1559 H 0.71642 0.81700 0.73684
 H1560 H 0.70673 0.85455 0.74773
 C1561 C 0.21010 0.44234 0.29025
 C1562 C 0.22158 0.42206 0.29265
 C1563 C 0.21296 0.40514 0.30774
 C1564 C 0.19334 0.40944 0.32183
 C1565 C 0.18181 0.42962 0.31933
 C1566 C 0.18978 0.44616 0.30304
 C1567 C 0.22368 0.38277 0.30661
 C1568 C 0.21183 0.36464 0.30766
 C1569 C 0.22030 0.34262 0.29928
 C1570 C 0.20639 0.32989 0.28458
 C1571 C 0.21345 0.30936 0.27516
 C1572 C 0.23441 0.30028 0.28103
 C1573 C 0.24838 0.31302 0.29618
 C1574 C 0.24146 0.33414 0.30505
 H1575 H 0.21695 0.45492 0.27803
 H1576 H 0.23675 0.41926 0.28179
 H1577 H 0.18653 0.39704 0.33433
 H1578 H 0.16621 0.43192 0.32941
 H1579 H 0.24084 0.38125 0.30096
 H1580 H 0.19424 0.36640 0.31055
 H1581 H 0.19014 0.33621 0.27954
 H1582 H 0.20248 0.30106 0.26242
 H1583 H 0.26471 0.30684 0.30094
 H1584 H 0.25248 0.34369 0.31655
 C1585 C 0.07185 0.23244 0.84765
 C1586 C 0.09126 0.22729 0.83378
 C1587 C 0.10072 0.24294 0.81747
 C1588 C 0.09025 0.26390 0.81519
 C1589 C 0.07096 0.26908 0.82916
 C1590 C 0.06169 0.25353 0.84579
 C1591 C 0.12239 0.23766 0.80511
 C1592 C 0.12974 0.24784 0.78374
 C1593 C 0.15254 0.24488 0.77359
 C1594 C 0.15707 0.25004 0.74752
 C1595 C 0.17867 0.24955 0.73800
 C1596 C 0.19632 0.24411 0.75444
 C1597 C 0.19167 0.23867 0.78052
 C1598 C 0.17011 0.23900 0.78995
 H1599 H 0.06520 0.22021 0.86052
 H1600 H 0.09912 0.21112 0.83613
 H1601 H 0.09731 0.27664 0.80344
 H1602 H 0.06341 0.28543 0.82723
 H1603 H 0.13259 0.22494 0.81415
 H1604 H 0.11877 0.25894 0.77320
 H1605 H 0.14387 0.25489 0.73457
 H1606 H 0.18149 0.25415 0.71797
 H1607 H 0.20471 0.23447 0.79394
 H1608 H 0.16744 0.23557 0.81036
 C1609 C 0.57462 0.72772 0.33860
 C1610 C 0.59393 0.72218 0.32477
 C1611 C 0.60455 0.73806 0.30993
 C1612 C 0.59533 0.75965 0.30898
 C1613 C 0.57618 0.76528 0.32317
 C1614 C 0.56577 0.74943 0.33833
 C1615 C 0.62649 0.73237 0.29859
 C1616 C 0.63516 0.74267 0.27805
 C1617 C 0.65883 0.74023 0.27125
 C1618 C 0.66607 0.74270 0.24542
 C1619 C 0.68856 0.74318 0.23944
 C1620 C 0.70428 0.74161 0.25929
 C1621 C 0.69675 0.73910 0.28508
 C1622 C 0.67448 0.73809 0.29092
 H1623 H 0.56702 0.71523 0.35030
 H1624 H 0.60087 0.70554 0.32610
 H1625 H 0.60339 0.77245 0.29830
 H1626 H 0.56963 0.78210 0.32256
 H1627 H 0.63620 0.71958 0.30826
 H1628 H 0.62504 0.75394 0.26662
 H1629 H 0.65428 0.74483 0.22997
 H1630 H 0.69353 0.74588 0.21946
 H1631 H 0.70788 0.73904 0.30127
 H1632 H 0.66954 0.73706 0.31116
 C1633 C 0.57618 0.26465 0.15538
 C1634 C 0.59586 0.26913 0.16761
 C1635 C 0.60713 0.25279 0.18202
 C1636 C 0.59830 0.23174 0.18389
 C1637 C 0.57864 0.22723 0.17152
 C1638 C 0.56743 0.24362 0.15705
 C1639 C 0.62883 0.25781 0.19275
 C1640 C 0.63856 0.24652 0.21214
 C1641 C 0.66146 0.25019 0.22000
 C1642 C 0.66824 0.24475 0.24528
 C1643 C 0.69019 0.24663 0.25248
 C1644 C 0.70585 0.25379 0.23439
 C1645 C 0.69890 0.25924 0.20909
 C1646 C 0.67707 0.25749 0.20201
 H1647 H 0.56807 0.27753 0.14408
 H1648 H 0.60245 0.28538 0.16556
 H1649 H 0.60678 0.21852 0.19419
 H1650 H 0.57219 0.21090 0.17325
 H1651 H 0.63709 0.27156 0.18417
 H1652 H 0.62963 0.23422 0.22265
 H1653 H 0.65658 0.23878 0.25940
 H1654 H 0.69492 0.24190 0.27195
 H1655 H 0.71038 0.26459 0.19442
 H1656 H 0.67274 0.26108 0.18207
 C1657 C 0.07408 0.76041 0.65916
 C1658 C 0.09286 0.76536 0.67301
 C1659 C 0.10385 0.74918 0.68794
 C1660 C 0.09559 0.72784 0.68882
 C1661 C 0.07685 0.72286 0.67486
 C1662 C 0.06602 0.73904 0.65971
 C1663 C 0.12495 0.75458 0.69994
 C1664 C 0.13453 0.74292 0.71914
 C1665 C 0.15742 0.74638 0.72713
 C1666 C 0.16425 0.74060 0.75230
 C1667 C 0.18628 0.74215 0.75938
 C1668 C 0.20193 0.74926 0.74126
 C1669 C 0.19490 0.75503 0.71608
 C1670 C 0.17304 0.75366 0.70915
 H1671 H 0.06620 0.77316 0.64746
 H1672 H 0.09903 0.78184 0.67171
 H1673 H 0.10389 0.71473 0.69950
 H1674 H 0.07086 0.70630 0.67585
 H1675 H 0.13314 0.76868 0.69210
 H1676 H 0.12568 0.73022 0.72903
 H1677 H 0.15257 0.73463 0.76640
 H1678 H 0.19108 0.73728 0.77879
 H1679 H 0.20633 0.76046 0.70139
 H1680 H 0.16866 0.75750 0.68928
 C1681 C 0.93057 0.73609 0.67047
 C1682 C 0.91271 0.72956 0.68538
 C1683 C 0.89898 0.74518 0.69815
 C1684 C 0.90343 0.76764 0.69572
 C1685 C 0.92111 0.77429 0.68042
 C1686 C 0.93506 0.75865 0.66737
 C1687 C 0.87868 0.73778 0.71084
 C1688 C 0.86851 0.74853 0.73064
 C1689 C 0.84558 0.74423 0.73831
 C1690 C 0.83793 0.74928 0.76358
 C1691 C 0.81543 0.74925 0.76955
 C1692 C 0.80009 0.74462 0.75015
 C1693 C 0.80812 0.73854 0.72524
 C1694 C 0.83044 0.73816 0.71948
 H1695 H 0.94000 0.72328 0.66023
 H1696 H 0.90931 0.71218 0.68650
 H1697 H 0.89280 0.78016 0.70485
 H1698 H 0.92402 0.79175 0.67947
 H1699 H 0.87143 0.72326 0.70277
 H1700 H 0.87661 0.76174 0.74048
 H1701 H 0.84927 0.75422 0.77839
 H1702 H 0.80998 0.75433 0.78886
 H1703 H 0.79724 0.73597 0.70921
 H1704 H 0.83553 0.73496 0.69953
 C1705 C 0.42642 0.29113 0.18380
 C1706 C 0.40839 0.28731 0.20001
 C1707 C 0.39989 0.26618 0.20188
 C1708 C 0.41042 0.24873 0.18791
 C1709 C 0.42830 0.25258 0.17156
 C1710 C 0.43645 0.27386 0.16910
 C1711 C 0.37971 0.26319 0.21778
 C1712 C 0.36587 0.24700 0.21315
 C1713 C 0.34372 0.24609 0.22507
 C1714 C 0.32730 0.23672 0.21034
 C1715 C 0.30575 0.23693 0.21943
 C1716 C 0.30000 0.24586 0.24404
 C1717 C 0.31668 0.25443 0.25939
 C1718 C 0.33836 0.25463 0.24995
 H1719 H 0.43258 0.30762 0.18289
 H1720 H 0.40078 0.30101 0.21075
 H1721 H 0.40497 0.23203 0.18945
 H1722 H 0.43553 0.23888 0.16051
 H1723 H 0.37501 0.27601 0.23170
 H1724 H 0.36956 0.23537 0.19757
 H1725 H 0.33099 0.22994 0.19118
 H1726 H 0.29351 0.23033 0.20678
 H1727 H 0.31292 0.26159 0.27831
 H1728 H 0.35080 0.26156 0.26204
 C1729 C 0.42884 0.70718 0.32180
 C1730 C 0.41096 0.70974 0.30513
 C1731 C 0.40114 0.73066 0.30076
 C1732 C 0.41037 0.74917 0.31239
 C1733 C 0.42836 0.74662 0.32897
 C1734 C 0.43752 0.72554 0.33427
 C1735 C 0.38095 0.73242 0.28483
 C1736 C 0.36515 0.74798 0.28925
 C1737 C 0.34318 0.74793 0.27717
 C1738 C 0.32535 0.75671 0.29165
 C1739 C 0.30418 0.75652 0.28184
 C1740 C 0.30017 0.74816 0.25676
 C1741 C 0.31815 0.73974 0.24192
 C1742 C 0.33947 0.73953 0.25206
 H1743 H 0.43583 0.69076 0.32506
 H1744 H 0.40437 0.69524 0.29621
 H1745 H 0.40369 0.76564 0.30886
 H1746 H 0.43472 0.76109 0.33819
 H1747 H 0.37798 0.71917 0.27128
 H1748 H 0.36732 0.75991 0.30465
 H1749 H 0.32773 0.76335 0.31097
 H1750 H 0.29095 0.76321 0.29403
 H1751 H 0.31577 0.73310 0.22263
 H1752 H 0.35298 0.73300 0.24019
 C1753 C 0.92384 0.20909 0.83879
 C1754 C 0.90498 0.21089 0.82373
 C1755 C 0.89465 0.23151 0.81906
 C1756 C 0.90400 0.25051 0.82930
 C1757 C 0.92294 0.24870 0.84454
 C1758 C 0.93281 0.22789 0.84991
 C1759 C 0.87309 0.23196 0.80592
 C1760 C 0.86355 0.24969 0.79451
 C1761 C 0.84070 0.24927 0.78484
 C1762 C 0.82490 0.23725 0.79813
 C1763 C 0.80335 0.23723 0.78959
 C1764 C 0.79667 0.24929 0.76745
 C1765 C 0.81252 0.26140 0.75411
 C1766 C 0.83425 0.26157 0.76292
 H1767 H 0.93129 0.19286 0.84198
 H1768 H 0.89816 0.19599 0.81608
 H1769 H 0.89626 0.26665 0.82657
 H1770 H 0.92937 0.26348 0.85294
 H1771 H 0.86453 0.21663 0.80586
 H1772 H 0.87249 0.26462 0.79202
 H1773 H 0.82902 0.22819 0.81563
 H1774 H 0.79184 0.22783 0.80079
 H1775 H 0.80822 0.27113 0.73729
 H1776 H 0.84607 0.27123 0.75254
 C1777 C 0.63572 1.01096 0.64067
 C1778 C 0.62506 1.00347 0.61860
 C1779 C 0.60642 0.99074 0.62077
 C1780 C 0.59869 0.98545 0.64572
 C1781 C 0.60929 0.99299 0.66793
 C1782 C 0.62799 1.00611 0.66596
 C1783 C 0.59484 0.98504 0.59652
 C1784 C 0.57967 0.96958 0.59421
 C1785 C 0.56724 0.96682 0.56970
 C1786 C 0.54547 0.96004 0.57068
 C1787 C 0.53207 0.96197 0.54867
 C1788 C 0.54014 0.97099 0.52535
 C1789 C 0.56262 0.97552 0.52399
 C1790 C 0.57606 0.97286 0.54553
 H1791 H 0.65042 1.02003 0.63752
 H1792 H 0.63146 1.00775 0.59958
 H1793 H 0.58399 0.97625 0.64833
 H1794 H 0.60185 0.98936 0.68654
 H1795 H 0.59874 0.99498 0.57978
 H1796 H 0.57503 0.95993 0.61091
 H1797 H 0.53834 0.95483 0.58894
 H1798 H 0.51490 0.95834 0.55075
 H1799 H 0.56974 0.98326 0.50725
 H1800 H 0.59308 0.97703 0.54348
 C1801 C 0.14506 0.49547 1.15197
 C1802 C 0.13250 0.48777 1.13154
 C1803 C 0.11062 0.48201 1.13567
 C1804 C 0.10187 0.48325 1.16113
 C1805 C 0.11459 0.49077 1.18169
 C1806 C 0.13617 0.49736 1.17719
 C1807 C 0.09754 0.47663 1.11239
 C1808 C 0.07558 0.47532 1.11174
 C1809 C 0.06371 0.47695 1.08668
 C1810 C 0.04393 0.46625 1.08277
 C1811 C 0.03220 0.46926 1.05950
 C1812 C 0.03993 0.48335 1.04001
 C1813 C 0.05967 0.49409 1.04440
 C1814 C 0.07131 0.49092 1.06717
 H1815 H 0.16175 0.50009 1.14800
 H1816 H 0.13975 0.48696 1.11220
 H1817 H 0.08520 0.47883 1.16532
 H1818 H 0.10731 0.49209 1.20098
 H1819 H 0.10648 0.47579 1.09403
 H1820 H 0.06590 0.47490 1.12945
 H1821 H 0.03753 0.45566 1.09775
 H1822 H 0.01697 0.46095 1.05699
 H1823 H 0.06633 0.50528 1.03028
 H1824 H 0.08596 0.50018 1.06980
 C1825 C -0.14222 -0.01424 1.16015
 C1826 C -0.12982 -0.01142 1.13753
 C1827 C -0.10995 -0.00061 1.13819
 C1828 C -0.10285 0.00783 1.16196
 C1829 C -0.11514 0.00484 1.18478
 C1830 C -0.13493 -0.00669 1.18449
 C1831 C -0.09642 -0.00048 1.11415
 C1832 C -0.08157 0.01462 1.10822
 C1833 C -0.06821 0.01340 1.08376
 C1834 C -0.04828 0.02429 1.08202
 C1835 C -0.03457 0.02161 1.05995
 C1836 C -0.04052 0.00784 1.03931
 C1837 C -0.06083 -0.00237 1.04098
 C1838 C -0.07472 0.00093 1.06229
 H1839 H -0.15774 -0.02207 1.15813
 H1840 H -0.13575 -0.01790 1.11934
 H1841 H -0.08730 0.01577 1.16326
 H1842 H -0.10813 0.01048 1.20273
 H1843 H -0.09905 -0.01397 1.10092
 H1844 H -0.07865 0.02784 1.12180
 H1845 H -0.04297 0.03429 1.09810
 H1846 H -0.01900 0.02960 1.05957
 H1847 H -0.06612 -0.01341 1.02591
 H1848 H -0.09038 -0.00677 1.06176
 C1849 C 0.35568 0.48105 0.64483
 C1850 C 0.36841 0.48415 0.62257
 C1851 C 0.38819 0.49507 0.62383
 C1852 C 0.39476 0.50350 0.64785
 C1853 C 0.38209 0.50024 0.67037
 C1854 C 0.36249 0.48841 0.66946
 C1855 C 0.40195 0.49549 0.59996
 C1856 C 0.41695 0.51051 0.59433
 C1857 C 0.42953 0.50978 0.56929
 C1858 C 0.45023 0.51918 0.56736
 C1859 C 0.46297 0.51680 0.54444
 C1860 C 0.45523 0.50487 0.52308
 C1861 C 0.43418 0.49620 0.52504
 C1862 C 0.42132 0.49925 0.54726
 H1863 H 0.34027 0.47311 0.64230
 H1864 H 0.36281 0.47777 0.60417
 H1865 H 0.41016 0.51165 0.64959
 H1866 H 0.38864 0.50588 0.68857
 H1867 H 0.39917 0.48236 0.58625
 H1868 H 0.42039 0.52328 0.60830
 H1869 H 0.45687 0.52771 0.58389
 H1870 H 0.47916 0.52351 0.54386
 H1871 H 0.42753 0.48652 0.50949
 H1872 H 0.40502 0.49287 0.54703
 C1873 C 0.36032 0.49424 -0.14606
 C1874 C 0.37268 0.48541 -0.12563
 C1875 C 0.39404 0.47662 -0.13002
 C1876 C 0.40242 0.47590 -0.15566
 C1877 C 0.38996 0.48461 -0.17616
 C1878 C 0.36893 0.49422 -0.17149
 C1879 C 0.40720 0.47010 -0.10700
 C1880 C 0.42924 0.46934 -0.10652
 C1881 C 0.44141 0.47141 -0.08182
 C1882 C 0.46347 0.46401 -0.08021
 C1883 C 0.47615 0.46944 -0.05858
 C1884 C 0.46706 0.48274 -0.03840
 C1885 C 0.44478 0.48957 -0.04005
 C1886 C 0.43217 0.48386 -0.06114
 H1887 H 0.34402 0.50117 -0.14197
 H1888 H 0.36574 0.48612 -0.10612
 H1889 H 0.41859 0.46887 -0.16001
 H1890 H 0.39699 0.48434 -0.19562
 H1891 H 0.39825 0.46868 -0.08879
 H1892 H 0.43873 0.46992 -0.12438
 H1893 H 0.47113 0.45477 -0.09617
 H1894 H 0.49334 0.46433 -0.05846
 H1895 H 0.43714 0.50063 -0.02581
 H1896 H 0.41562 0.49083 -0.06198
 C1897 C -0.10172 0.99636 0.33450
 C1898 C -0.08812 0.98764 0.35394
 C1899 C -0.09538 0.98730 0.37991
 C1900 C -0.11642 0.99633 0.38616
 C1901 C -0.12993 1.00523 0.36676
 C1902 C -0.12274 1.00529 0.34075
 C1903 C -0.07992 0.97979 0.40039
 C1904 C -0.08670 0.97233 0.42348
 C1905 C -0.07276 0.97366 0.44659
 C1906 C -0.08123 0.98577 0.46775
 C1907 C -0.06767 0.99159 0.48796
 C1908 C -0.04551 0.98414 0.48866
 C1909 C -0.03738 0.97065 0.46806
 C1910 C -0.05083 0.96573 0.44695
 H1911 H -0.09567 0.99646 0.31461
 H1912 H -0.07184 0.98126 0.34871
 H1913 H -0.12229 0.99722 0.40609
 H1914 H -0.14606 1.01196 0.37208
 H1915 H -0.06264 0.98253 0.39720
 H1916 H -0.10396 0.96969 0.42682
 H1917 H -0.09797 0.99243 0.46757
 H1918 H -0.07450 1.00324 0.50203
 H1919 H -0.02033 0.96508 0.46738
 H1920 H -0.04396 0.95640 0.43060
 C1921 C 0.14571 0.50796 0.36113
 C1922 C 0.13221 0.51490 0.38192
 C1923 C 0.10969 0.51942 0.37834
 C1924 C 0.10118 0.51797 0.35303
 C1925 C 0.11477 0.51117 0.33217
 C1926 C 0.13702 0.50553 0.33617
 C1927 C 0.09568 0.52280 0.40194
 C1928 C 0.07377 0.52605 0.40210
 C1929 C 0.06059 0.52240 0.42599
 C1930 C 0.04058 0.53410 0.43044
 C1931 C 0.02748 0.52943 0.45226
 C1932 C 0.03406 0.51270 0.46972
 C1933 C 0.05400 0.50088 0.46478
 C1934 C 0.06703 0.50568 0.44339
 H1935 H 0.16288 0.50404 0.36468
 H1936 H 0.13926 0.51587 0.40113
 H1937 H 0.08397 0.52111 0.34924
 H1938 H 0.10764 0.50931 0.31311
 H1939 H 0.10380 0.52059 0.42047
 H1940 H 0.06504 0.53008 0.38446
 H1941 H 0.03507 0.54679 0.41698
 H1942 H 0.01212 0.53863 0.45517
 H1943 H 0.05975 0.48772 0.47743
 H1944 H 0.08186 0.49567 0.44009
 C1945 C 0.59323 0.01486 -0.18084
 C1946 C 0.57921 0.02290 -0.16093
 C1947 C 0.58642 0.02367 -0.13512
 C1948 C 0.60797 0.01603 -0.12960
 C1949 C 0.62188 0.00783 -0.14943
 C1950 C 0.61464 0.00701 -0.17522
 C1951 C 0.57055 0.02991 -0.11399
 C1952 C 0.57689 0.03738 -0.09082
 C1953 C 0.56340 0.03447 -0.06723
 C1954 C 0.57261 0.02170 -0.04737
 C1955 C 0.55990 0.01545 -0.02629
 C1956 C 0.53787 0.02304 -0.02337
 C1957 C 0.52886 0.03679 -0.04290
 C1958 C 0.54145 0.04219 -0.06491
 H1959 H 0.58714 0.01422 -0.20053
 H1960 H 0.56260 0.02827 -0.16564
 H1961 H 0.61395 0.01550 -0.10986
 H1962 H 0.63832 0.00200 -0.14455
 H1963 H 0.55352 0.02603 -0.11672
 H1964 H 0.59389 0.04119 -0.08793
 H1965 H 0.58937 0.01523 -0.04906
 H1966 H 0.56733 0.00378 -0.01291
 H1967 H 0.51184 0.04245 -0.04184
 H1968 H 0.53401 0.05199 -0.08026
 C1969 C 0.66346 0.58813 0.02037
 C1970 C 0.64301 0.57985 0.01535
 C1971 C 0.64088 0.56125 -0.00046
 C1972 C 0.65984 0.55138 -0.01198
 C1973 C 0.68059 0.55971 -0.00691
 C1974 C 0.68285 0.57791 0.01007
 C1975 C 0.61850 0.55288 -0.00312
 C1976 C 0.61161 0.53890 -0.02139
 C1977 C 0.58803 0.53352 -0.02241
 C1978 C 0.58160 0.51219 -0.02868
 C1979 C 0.55955 0.50653 -0.02582
 C1980 C 0.54356 0.52214 -0.01658
 C1981 C 0.55014 0.54378 -0.01194
 C1982 C 0.57178 0.54950 -0.01547
 H1983 H 0.66375 0.60304 0.03194
 H1984 H 0.62865 0.58814 0.02400
 H1985 H 0.65884 0.53688 -0.02416
 H1986 H 0.69483 0.55100 -0.01518
 H1987 H 0.60662 0.55923 0.01112
 H1988 H 0.62302 0.53116 -0.03518
 H1989 H 0.59378 0.49962 -0.03448
 H1990 H 0.55531 0.48965 -0.02950
 H1991 H 0.53914 0.55624 -0.00362
 H1992 H 0.57591 0.56637 -0.01149
 C1993 C 0.16171 1.07973 0.48975
 C1994 C 0.14107 1.07226 0.48344
 C1995 C 0.13578 1.05020 0.48773
 C1996 C 0.15231 1.03538 0.49690
 C1997 C 0.17312 1.04291 0.50304
 C1998 C 0.17769 1.06526 0.50017
 C1999 C 0.11237 1.04451 0.48512
 C2000 C 0.10399 1.02491 0.49086
 C2001 C 0.07999 1.02237 0.49439
 C2002 C 0.07059 1.00195 0.48985
 C2003 C 0.04832 0.99894 0.49556
 C2004 C 0.03505 1.01621 0.50641
 C2005 C 0.04472 1.03661 0.51077
 C2006 C 0.06670 1.03967 0.50482
 H2007 H 0.16491 1.09708 0.48761
 H2008 H 0.12879 1.08409 0.47642
 H2009 H 0.14913 1.01826 0.50046
 H2010 H 0.18525 1.03157 0.51129
 H2011 H 0.10106 1.05794 0.47996
 H2012 H 0.11461 1.01062 0.49438
 H2013 H 0.08057 0.98821 0.48225
 H2014 H 0.04176 0.98286 0.49225
 H2015 H 0.03573 1.05014 0.52015
 H2016 H 0.07348 1.05534 0.50979
 C2017 C 0.17742 -0.04943 0.96334
 C2018 C 0.15708 -0.03866 0.96741
 C2019 C 0.14708 -0.03833 0.99215
 C2020 C 0.15851 -0.04789 1.01319
 C2021 C 0.17897 -0.05872 1.00907
 C2022 C 0.18820 -0.06026 0.98390
 C2023 C 0.12370 -0.03100 0.99398
 C2024 C 0.11260 -0.02610 1.01607
 C2025 C 0.08840 -0.02370 1.01559
 C2026 C 0.07707 -0.00590 1.02779
 C2027 C 0.05429 -0.00283 1.02468
 C2028 C 0.04250 -0.01778 1.00970
 C2029 C 0.05400 -0.03632 0.99908
 C2030 C 0.07651 -0.03922 1.00196
 H2031 H 0.18435 -0.05001 0.94383
 H2032 H 0.14866 -0.03141 0.95088
 H2033 H 0.15118 -0.04828 1.03244
 H2034 H 0.18693 -0.06703 1.02524
 H2035 H 0.11469 -0.03074 0.97587
 H2036 H 0.12099 -0.02423 1.03434
 H2037 H 0.08595 0.00612 1.03872
 H2038 H 0.04611 0.01160 1.03330
 H2039 H 0.04594 -0.04827 0.98728
 H2040 H 0.08478 -0.05343 0.99291
 C2041 C 0.66180 0.41831 0.48371
 C2042 C 0.64164 0.42873 0.48930
 C2043 C 0.64034 0.44873 0.50312
 C2044 C 0.65958 0.45715 0.51318
 C2045 C 0.68000 0.44656 0.50777
 C2046 C 0.68152 0.42734 0.49203
 C2047 C 0.61884 0.46066 0.50634
 C2048 C 0.60490 0.46115 0.48641
 C2049 C 0.58119 0.46626 0.48856
 C2050 C 0.56766 0.45316 0.47384
 C2051 C 0.54530 0.45771 0.47299
 C2052 C 0.53559 0.47596 0.48631
 C2053 C 0.54913 0.48886 0.50186
 C2054 C 0.57183 0.48392 0.50317
 H2055 H 0.66169 0.40278 0.47330
 H2056 H 0.62694 0.42114 0.48253
 H2057 H 0.65890 0.47237 0.52428
 H2058 H 0.69455 0.45430 0.51465
 H2059 H 0.61409 0.46759 0.52511
 H2060 H 0.61055 0.45441 0.46782
 H2061 H 0.57450 0.43937 0.46256
 H2062 H 0.53584 0.44712 0.46089
 H2063 H 0.54234 0.50304 0.51241
 H2064 H 0.58209 0.49434 0.51461
 C2065 C -0.16301 0.41668 0.52370
 C2066 C -0.14368 0.42807 0.52323
 C2067 C -0.14376 0.45022 0.51579
 C2068 C -0.16341 0.46076 0.50783
 C2069 C -0.18306 0.44941 0.50889
 C2070 C -0.18309 0.42741 0.51762
 C2071 C -0.12333 0.46190 0.51917
 C2072 C -0.11354 0.47333 0.50035
 C2073 C -0.08999 0.47834 0.50243
 C2074 C -0.08149 0.49733 0.49118
 C2075 C -0.05916 0.50183 0.49381
 C2076 C -0.04495 0.48725 0.50751
 C2077 C -0.05369 0.46811 0.51803
 C2078 C -0.07558 0.46352 0.51517
 H2079 H -0.16231 0.39957 0.52967
 H2080 H -0.12859 0.41965 0.52921
 H2081 H -0.16374 0.47794 0.50220
 H2082 H -0.19829 0.45812 0.50412
 H2083 H -0.11457 0.45819 0.53694
 H2084 H -0.12224 0.47757 0.48269
 H2085 H -0.09218 0.50882 0.48079
 H2086 H -0.05314 0.51680 0.48538
 H2087 H -0.04375 0.45625 0.52850
 H2088 H -0.08109 0.44807 0.52287
 C2089 C 0.34215 -0.08672 0.00171
 C2090 C 0.36204 -0.07765 -0.00515
 C2091 C 0.36357 -0.05482 -0.00868
 C2092 C 0.34441 -0.04125 -0.00625
 C2093 C 0.32433 -0.05044 0.00031
 C2094 C 0.32316 -0.07321 0.00486
 C2095 C 0.38572 -0.04629 -0.01335
 C2096 C 0.39158 -0.02554 -0.00858
 C2097 C 0.41501 -0.02046 -0.00550
 C2098 C 0.42292 0.00023 -0.01232
 C2099 C 0.44493 0.00512 -0.00782
 C2100 C 0.45928 -0.01049 0.00400
 C2101 C 0.45090 -0.03098 0.01105
 C2102 C 0.42928 -0.03586 0.00643
 H2103 H 0.34160 -0.10436 0.00463
 H2104 H 0.37648 -0.08852 -0.00696
 H2105 H 0.34482 -0.02365 -0.00924
 H2106 H 0.30982 -0.03972 0.00247
 H2107 H 0.39854 -0.05851 -0.01821
 H2108 H 0.37939 -0.01254 -0.00460
 H2109 H 0.41207 0.01258 -0.02105
 H2110 H 0.45055 0.02122 -0.01315
 H2111 H 0.46076 -0.04333 0.02106
 H2112 H 0.42358 -0.05154 0.01321
 C2113 C 0.33515 1.08566 0.50390
 C2114 C 0.35565 1.07764 0.51211
 C2115 C 0.35947 1.05512 0.51730
 C2116 C 0.34182 1.04088 0.51532
 C2117 C 0.32109 1.04903 0.50744
 C2118 C 0.31773 1.07143 0.50107
 C2119 C 0.38230 1.04758 0.52342
 C2120 C 0.39062 1.02691 0.51995
 C2121 C 0.41472 1.02188 0.51900
 C2122 C 0.42318 1.00050 0.52419
 C2123 C 0.44552 0.99493 0.51980
 C2124 C 0.45984 1.01053 0.50961
 C2125 C 0.45117 1.03202 0.50509
 C2126 C 0.42916 1.03761 0.50976
 H2127 H 0.33294 1.10305 0.49952
 H2128 H 0.36883 1.08905 0.51362
 H2129 H 0.34393 1.02351 0.51967
 H2130 H 0.30785 1.03774 0.50554
 H2131 H 0.39338 1.06036 0.52867
 H2132 H 0.37992 1.01362 0.51554
 H2133 H 0.41236 0.98790 0.53089
 H2134 H 0.45127 0.97808 0.52309
 H2135 H 0.46075 1.04432 0.49566
 H2136 H 0.42329 1.05394 0.50418
 C2137 C -0.17200 0.56864 1.01537
 C2138 C -0.15170 0.55881 1.02202
 C2139 C -0.13928 0.54645 1.00359
 C2140 C -0.14765 0.54405 0.97833
 C2141 C -0.16778 0.55401 0.97164
 C2142 C -0.18002 0.56665 0.98996
 C2143 C -0.11686 0.53811 1.01022
 C2144 C -0.10732 0.52048 0.99836
 C2145 C -0.08350 0.51488 0.99921
 C2146 C -0.07408 0.50385 0.97766
 C2147 C -0.05150 0.50004 0.97584
 C2148 C -0.03751 0.50727 0.99550
 C2149 C -0.04717 0.51638 1.01833
 C2150 C -0.06993 0.52064 1.01996
 H2151 H -0.18102 0.57851 1.02977
 H2152 H -0.14551 0.56115 1.04148
 H2153 H -0.13830 0.53530 0.96327
 H2154 H -0.17362 0.55220 0.95194
 H2155 H -0.10772 0.54762 1.02395
 H2156 H -0.11690 0.51095 0.98508
 H2157 H -0.08418 0.49872 0.96168
 H2158 H -0.04512 0.49157 0.95867
 H2159 H -0.03708 0.52108 1.03449
 H2160 H -0.07677 0.52840 1.03737
 C2161 C 0.03329 0.66718 0.61677
 C2162 C 0.03166 0.64658 0.60505
 C2163 C 0.02272 0.64458 0.58014
 C2164 C 0.01531 0.66373 0.56708
 C2165 C 0.01675 0.68444 0.57898
 C2166 C 0.02578 0.68632 0.60394
 C2167 C 0.02084 0.62209 0.56942
 C2168 C 0.01921 0.61692 0.54407
 C2169 C 0.01913 0.59354 0.53547
 C2170 C 0.00707 0.58735 0.51366
 C2171 C 0.00528 0.56496 0.50718
 C2172 C 0.01568 0.54845 0.52235
 C2173 C 0.02842 0.55502 0.54351
 C2174 C 0.03061 0.57712 0.54949
 H2175 H 0.03999 0.66810 0.63616
 H2176 H 0.03737 0.63207 0.61560
 H2177 H 0.00796 0.66280 0.54807
 H2178 H 0.01083 0.69899 0.56870
 H2179 H 0.02142 0.60893 0.58359
 H2180 H 0.01776 0.62970 0.52950
 H2181 H -0.00171 0.59975 0.50231
 H2182 H -0.00497 0.56063 0.49104
 H2183 H 0.03646 0.54309 0.55613
 H2184 H 0.04098 0.58121 0.56563
 C2185 C 0.51293 0.19326 0.07772
 C2186 C 0.51098 0.17345 0.06407
 C2187 C 0.51931 0.15352 0.07441
 C2188 C 0.52923 0.15378 0.09906
 C2189 C 0.53125 0.17354 0.11262
 C2190 C 0.52315 0.19350 0.10213
 C2191 C 0.51639 0.13266 0.05990
 C2192 C 0.52947 0.11473 0.06345
 C2193 C 0.52487 0.09270 0.05305
 C2194 C 0.53062 0.07450 0.06845
 C2195 C 0.52651 0.05327 0.06013
 C2196 C 0.51720 0.04948 0.03560
 C2197 C 0.51160 0.06776 0.01992
 C2198 C 0.51526 0.08926 0.02866
 H2199 H 0.50663 0.20844 0.06909
 H2200 H 0.50303 0.17369 0.04531
 H2201 H 0.53495 0.13872 0.10839
 H2202 H 0.53870 0.17315 0.13166
 H2203 H 0.50273 0.13192 0.04667
 H2204 H 0.54328 0.11558 0.07639
 H2205 H 0.53806 0.07674 0.08729
 H2206 H 0.53116 0.03980 0.07291
 H2207 H 0.50440 0.06549 0.00099
 H2208 H 0.51096 0.10306 0.01620
 C2209 C -0.01664 0.18499 0.94243
 C2210 C -0.01497 0.16605 0.95799
 C2211 C -0.02318 0.14606 0.94928
 C2212 C -0.03242 0.14520 0.92433
 C2213 C -0.03398 0.16398 0.90881
 C2214 C -0.02629 0.18417 0.91768
 C2215 C -0.02077 0.12587 0.96543
 C2216 C -0.03525 0.10985 0.96405
 C2217 C -0.03081 0.08706 0.97312
 C2218 C -0.03818 0.07006 0.95746
 C2219 C -0.03334 0.04817 0.96357
 C2220 C -0.02186 0.04242 0.98636
 C2221 C -0.01495 0.05951 1.00262
 C2222 C -0.01920 0.08172 0.99591
 H2223 H -0.01056 0.20030 0.94986
 H2224 H -0.00743 0.16705 0.97692
 H2225 H -0.03792 0.12986 0.91635
 H2226 H -0.04081 0.16253 0.88954
 H2227 H -0.00621 0.12365 0.97716
 H2228 H -0.04987 0.11257 0.95254
 H2229 H -0.04705 0.07375 0.93974
 H2230 H -0.03860 0.03575 0.95008
 H2231 H -0.00585 0.05578 1.02012
 H2232 H -0.01349 0.09461 1.00848
 C2233 C 0.48188 0.68302 0.43150
 C2234 C 0.48267 0.66433 0.44751
 C2235 C 0.47437 0.64440 0.43879
 C2236 C 0.46579 0.64334 0.41352
 C2237 C 0.46523 0.66183 0.39750
 C2238 C 0.47316 0.68195 0.40624
 C2239 C 0.47617 0.62431 0.45509
 C2240 C 0.46089 0.60908 0.45407
 C2241 C 0.46502 0.58582 0.46136
 C2242 C 0.45715 0.56992 0.44452
 C2243 C 0.46173 0.54768 0.44878
 C2244 C 0.47336 0.54043 0.47089
 C2245 C 0.48087 0.55641 0.48829
 C2246 C 0.47695 0.57902 0.48339
 H2247 H 0.48803 0.69829 0.43893
 H2248 H 0.48964 0.66545 0.46674
 H2249 H 0.46014 0.62799 0.40571
 H2250 H 0.45910 0.66014 0.37793
 H2251 H 0.49109 0.62119 0.46593
 H2252 H 0.44604 0.61277 0.44328
 H2253 H 0.44806 0.57476 0.42732
 H2254 H 0.45593 0.53618 0.43450
 H2255 H 0.49010 0.55151 0.50532
 H2256 H 0.48312 0.59108 0.49675
 C2257 C 0.51732 0.80069 0.42811
 C2258 C 0.51614 0.82011 0.44303
 C2259 C 0.52500 0.83954 0.43350
 C2260 C 0.53611 0.83882 0.40931
 C2261 C 0.53717 0.81954 0.39437
 C2262 C 0.52753 0.80028 0.40335
 C2263 C 0.52218 0.86042 0.44868
 C2264 C 0.52022 0.87994 0.43659
 C2265 C 0.51746 0.90200 0.44911
 C2266 C 0.51565 0.92006 0.43234
 C2267 C 0.51348 0.94141 0.44195
 C2268 C 0.51298 0.94569 0.46893
 C2269 C 0.51456 0.92761 0.48603
 C2270 C 0.51686 0.90591 0.47623
 H2271 H 0.51018 0.78603 0.43595
 H2272 H 0.50781 0.82009 0.46176
 H2273 H 0.54395 0.85320 0.40171
 H2274 H 0.54512 0.81993 0.37544
 H2275 H 0.52065 0.85944 0.46962
 H2276 H 0.52027 0.87990 0.41551
 H2277 H 0.51607 0.91772 0.41141
 H2278 H 0.51240 0.95450 0.42777
 H2279 H 0.51423 0.93026 0.50688
 H2280 H 0.51825 0.89244 0.48989
 C2281 C 0.02811 0.32709 0.88977
 C2282 C 0.02851 0.34754 0.90212
 C2283 C 0.02273 0.34987 0.92855
 C2284 C 0.01598 0.33121 0.94230
 C2285 C 0.01544 0.31065 0.92979
 C2286 C 0.02178 0.30838 0.90348
 C2287 C 0.02406 0.37214 0.94031
 C2288 C 0.02309 0.37696 0.96587
 C2289 C 0.02552 0.39993 0.97515
 C2290 C 0.01336 0.40802 0.99673
 C2291 C 0.01312 0.43056 1.00310
 C2292 C 0.02511 0.44535 0.98798
 C2293 C 0.03856 0.43667 0.96765
 C2294 C 0.03911 0.41430 0.96170
 H2295 H 0.03279 0.32589 0.86940
 H2296 H 0.03363 0.36161 0.89097
 H2297 H 0.01108 0.33230 0.96255
 H2298 H 0.01054 0.29643 0.94080
 H2299 H 0.02631 0.38547 0.92669
 H2300 H 0.01976 0.36441 0.98010
 H2301 H 0.00309 0.39716 1.00774
 H2302 H 0.00251 0.43651 1.01882
 H2303 H 0.04795 0.44727 0.95525
 H2304 H 0.04957 0.40847 0.94578
 C2305 C 0.47209 0.34278 0.12084
 C2306 C 0.47541 0.36294 0.10874
 C2307 C 0.48302 0.36377 0.08288
 C2308 C 0.48720 0.34392 0.06920
 C2309 C 0.48410 0.32367 0.08146
 C2310 C 0.47663 0.32293 0.10744
 C2311 C 0.48714 0.38568 0.07168
 C2312 C 0.48686 0.39050 0.04615
 C2313 C 0.48872 0.41348 0.03663
 C2314 C 0.49634 0.41757 0.01121
 C2315 C 0.49810 0.43930 0.00218
 C2316 C 0.49222 0.45728 0.01847
 C2317 C 0.48437 0.45293 0.04376
 C2318 C 0.48226 0.43151 0.05247
 H2319 H 0.46663 0.34270 0.14097
 H2320 H 0.47216 0.37800 0.11973
 H2321 H 0.49346 0.34391 0.04942
 H2322 H 0.48771 0.30856 0.07071
 H2323 H 0.48984 0.39863 0.08567
 H2324 H 0.48482 0.37760 0.03188
 H2325 H 0.50108 0.40395 -0.00158
 H2326 H 0.50412 0.44198 -0.01741
 H2327 H 0.47916 0.46609 0.05694
 H2328 H 0.47508 0.42932 0.07158
 C2329 C -0.02250 0.81459 0.58298
 C2330 C -0.02146 0.83488 0.57031
 C2331 C -0.02814 0.85451 0.58309
 C2332 C -0.03608 0.85331 0.60894
 C2333 C -0.03720 0.83299 0.62156
 C2334 C -0.03016 0.81345 0.60884
 C2335 C -0.02521 0.87580 0.56942
 C2336 C -0.03519 0.89485 0.57695
 C2337 C -0.03025 0.91655 0.56566
 C2338 C -0.03274 0.93506 0.58185
 C2339 C -0.02843 0.95597 0.57256
 C2340 C -0.02201 0.95915 0.54644
 C2341 C -0.01955 0.94057 0.53006
 C2342 C -0.02356 0.91942 0.53959
 H2343 H -0.01715 0.79976 0.57258
 H2344 H -0.01519 0.83526 0.55051
 H2345 H -0.04071 0.86796 0.62000
 H2346 H -0.04281 0.83264 0.64162
 H2347 H -0.01387 0.87576 0.55305
 H2348 H -0.04659 0.89505 0.59321
 H2349 H -0.03792 0.93333 0.60196
 H2350 H -0.03072 0.96970 0.58592
 H2351 H -0.01470 0.94236 0.50987
 H2352 H -0.02188 0.90549 0.52642
 C2353 C 0.26133 0.38488 0.10338
 C2354 C 0.25336 0.37380 0.12494
 C2355 C 0.24183 0.35445 0.12203
 C2356 C 0.23730 0.34698 0.09682
 C2357 C 0.24528 0.35815 0.07498
 C2358 C 0.25827 0.37685 0.07792
 C2359 C 0.23727 0.34179 0.14592
 C2360 C 0.22239 0.32614 0.14867
 C2361 C 0.22080 0.31329 0.17323
 C2362 C 0.21403 0.29141 0.17269
 C2363 C 0.21666 0.27782 0.19462
 C2364 C 0.22650 0.28579 0.21733
 C2365 C 0.23165 0.30820 0.21814
 C2366 C 0.22795 0.32190 0.19694
 H2367 H 0.26975 0.39994 0.10697
 H2368 H 0.25673 0.38017 0.14416
 H2369 H 0.22867 0.33193 0.09384
 H2370 H 0.24253 0.35104 0.05602
 H2371 H 0.24778 0.34540 0.16207
 H2372 H 0.21235 0.32166 0.13238
 H2373 H 0.20801 0.28442 0.15483
 H2374 H 0.21260 0.26066 0.19300
 H2375 H 0.24010 0.31514 0.23439
 H2376 H 0.23207 0.33900 0.19891
 C2377 C 0.74851 0.86259 0.55995
 C2378 C 0.74359 0.84515 0.57642
 C2379 C 0.73512 0.84929 0.60151
 C2380 C 0.73102 0.87123 0.60966
 C2381 C 0.73647 0.88871 0.59340
 C2382 C 0.74563 0.88448 0.56862
 C2383 C 0.73472 0.83098 0.62027
 C2384 C 0.72017 0.82984 0.63986
 C2385 C 0.72503 0.81544 0.66229
 C2386 C 0.74545 0.81661 0.67421
 C2387 C 0.75045 0.80379 0.69581
 C2388 C 0.73523 0.78913 0.70614
 C2389 C 0.71476 0.78780 0.69394
 C2390 C 0.70953 0.80120 0.67247
 H2391 H 0.75573 0.85899 0.54098
 H2392 H 0.74722 0.82838 0.56995
 H2393 H 0.72505 0.87488 0.62918
 H2394 H 0.73421 0.90550 0.60043
 H2395 H 0.74821 0.81883 0.61914
 H2396 H 0.70567 0.84070 0.64050
 H2397 H 0.75750 0.82786 0.66705
 H2398 H 0.76635 0.80577 0.70441
 H2399 H 0.70277 0.77655 0.70092
 H2400 H 0.69359 0.80019 0.66356
 C2401 C 0.24866 0.61423 0.60016
 C2402 C 0.25767 0.62511 0.62118
 C2403 C 0.26591 0.64625 0.61824
 C2404 C 0.26572 0.65604 0.59345
 C2405 C 0.25664 0.64508 0.57230
 C2406 C 0.24752 0.62431 0.57565
 C2407 C 0.27169 0.65826 0.64215
 C2408 C 0.28418 0.67604 0.64324
 C2409 C 0.28596 0.68921 0.66759
 C2410 C 0.29024 0.71177 0.66617
 C2411 C 0.28702 0.72547 0.68806
 C2412 C 0.27896 0.71691 0.71162
 C2413 C 0.27654 0.69397 0.71325
 C2414 C 0.28096 0.68026 0.69202
 H2415 H 0.24221 0.59804 0.60321
 H2416 H 0.25762 0.61721 0.64006
 H2417 H 0.27148 0.67250 0.59055
 H2418 H 0.25586 0.65327 0.55362
 H2419 H 0.26387 0.65244 0.65965
 H2420 H 0.29160 0.68224 0.62562
 H2421 H 0.29458 0.71909 0.64770
 H2422 H 0.28898 0.74302 0.68579
 H2423 H 0.26942 0.68642 0.73015
 H2424 H 0.27889 0.66280 0.69466
 C2425 C 0.75379 0.10888 0.10543
 C2426 C 0.76107 0.12235 0.12526
 C2427 C 0.77161 0.14192 0.11965
 C2428 C 0.77591 0.14714 0.09351
 C2429 C 0.76866 0.13353 0.07343
 C2430 C 0.75661 0.11456 0.07904
 C2431 C 0.77553 0.15696 0.14176
 C2432 C 0.78885 0.17415 0.14185
 C2433 C 0.78976 0.18904 0.16494
 C2434 C 0.79410 0.21148 0.16186
 C2435 C 0.79065 0.22639 0.18267
 C2436 C 0.78240 0.21915 0.20680
 C2437 C 0.77966 0.19637 0.20999
 C2438 C 0.78425 0.18153 0.18989
 H2439 H 0.74604 0.09385 0.11110
 H2440 H 0.75792 0.11766 0.14526
 H2441 H 0.78380 0.16222 0.08839
 H2442 H 0.77114 0.13895 0.05363
 H2443 H 0.76577 0.15382 0.15895
 H2444 H 0.79801 0.17827 0.12450
 H2445 H 0.79880 0.21771 0.14296
 H2446 H 0.79275 0.24377 0.17917
 H2447 H 0.77229 0.18978 0.22731
 H2448 H 0.78201 0.16424 0.19374
 C2449 C 0.72240 0.10990 0.91305
 C2450 C 0.71322 0.12309 0.89335
 C2451 C 0.72538 0.13978 0.88197
 C2452 C 0.74711 0.14254 0.88987
 C2453 C 0.75642 0.12904 0.90903
 C2454 C 0.74410 0.11275 0.92090
 C2455 C 0.71587 0.15363 0.86105
 C2456 C 0.71921 0.17531 0.86028
 C2457 C 0.71528 0.18949 0.83728
 C2458 C 0.71582 0.21238 0.84060
 C2459 C 0.71832 0.22616 0.81917
 C2460 C 0.72091 0.21732 0.79383
 C2461 C 0.71733 0.19473 0.79042
 C2462 C 0.71472 0.18089 0.81187
 H2463 H 0.71268 0.09734 0.92199
 H2464 H 0.69655 0.12054 0.88729
 H2465 H 0.75701 0.15495 0.88093
 H2466 H 0.77315 0.13153 0.91488
 H2467 H 0.70661 0.14574 0.84604
 H2468 H 0.72684 0.18289 0.87688
 H2469 H 0.71590 0.21952 0.85996
 H2470 H 0.72021 0.24355 0.82288
 H2471 H 0.71740 0.18734 0.77145
 H2472 H 0.71398 0.16335 0.80838
 C2473 C 0.23861 0.60896 0.38857
 C2474 C 0.23172 0.62100 0.36678
 C2475 C 0.22378 0.64296 0.36933
 C2476 C 0.22246 0.65246 0.39438
 C2477 C 0.22931 0.64041 0.41611
 C2478 C 0.23773 0.61865 0.41344
 C2479 C 0.21942 0.65587 0.34530
 C2480 C 0.20978 0.67613 0.34492
 C2481 C 0.21115 0.69052 0.32182
 C2482 C 0.21406 0.71308 0.32560
 C2483 C 0.21988 0.72640 0.30472
 C2484 C 0.22292 0.71744 0.27949
 C2485 C 0.21717 0.69545 0.27544
 C2486 C 0.21151 0.68208 0.29635
 H2487 H 0.24486 0.59216 0.38592
 H2488 H 0.23308 0.61328 0.34776
 H2489 H 0.21711 0.66943 0.39745
 H2490 H 0.22885 0.64851 0.43494
 H2491 H 0.22616 0.64894 0.32734
 H2492 H 0.20319 0.68359 0.36260
 H2493 H 0.21334 0.72012 0.34501
 H2494 H 0.22337 0.74343 0.30879
 H2495 H 0.21734 0.68817 0.25639
 H2496 H 0.20805 0.66499 0.29263
 C2497 C 0.76860 0.90165 0.39331
 C2498 C 0.77622 0.88695 0.37397
 C2499 C 0.78042 0.86454 0.37958
 C2500 C 0.77804 0.85741 0.40548
 C2501 C 0.77054 0.87220 0.42490
 C2502 C 0.76510 0.89432 0.41883
 C2503 C 0.78386 0.84907 0.35729
 C2504 C 0.78782 0.82717 0.35908
 C2505 C 0.78303 0.81242 0.33691
 C2506 C 0.79545 0.79280 0.33201
 C2507 C 0.78986 0.77866 0.31149
 C2508 C 0.77148 0.78374 0.29599
 C2509 C 0.75887 0.80314 0.30176
 C2510 C 0.76459 0.81720 0.32165
 H2511 H 0.76485 0.91865 0.38814
 H2512 H 0.77787 0.89295 0.35423
 H2513 H 0.78079 0.84031 0.41071
 H2514 H 0.76784 0.86604 0.44439
 H2515 H 0.78070 0.85589 0.33815
 H2516 H 0.79289 0.81968 0.37721
 H2517 H 0.80948 0.78851 0.34393
 H2518 H 0.79973 0.76375 0.30795
 H2519 H 0.74446 0.80788 0.29073
 H2520 H 0.75409 0.83166 0.32547
 C2521 C 0.26854 0.38774 0.89039
 C2522 C 0.27524 0.37593 0.86813
 C2523 C 0.28206 0.35360 0.86968
 C2524 C 0.28325 0.34369 0.89442
 C2525 C 0.27664 0.35558 0.91675
 C2526 C 0.26865 0.37754 0.91486
 C2527 C 0.28540 0.34116 0.84485
 C2528 C 0.28804 0.31912 0.84286
 C2529 C 0.28403 0.30712 0.81821
 C2530 C 0.29302 0.28568 0.81435
 C2531 C 0.28651 0.27279 0.79325
 C2532 C 0.27063 0.28101 0.77576
 C2533 C 0.26212 0.30271 0.77951
 C2534 C 0.26880 0.31558 0.80019
 H2535 H 0.26282 0.40475 0.88839
 H2536 H 0.27422 0.38410 0.84944
 H2537 H 0.28858 0.32666 0.89680
 H2538 H 0.27685 0.34727 0.93537
 H2539 H 0.28347 0.35063 0.82714
 H2540 H 0.29138 0.30918 0.85985
 H2541 H 0.30450 0.27861 0.82822
 H2542 H 0.29306 0.25603 0.79153
 H2543 H 0.24935 0.30961 0.76721
 H2544 H 0.26073 0.33161 0.80289
 C2545 C 0.79578 0.42246 0.72975
 C2546 C 0.78367 0.40407 0.73596
 C2547 C 0.78339 0.39581 0.76144
 C2548 C 0.79453 0.40706 0.78099
 C2549 C 0.80644 0.42567 0.77482
 C2550 C 0.80755 0.43324 0.74903
 C2551 C 0.77186 0.37515 0.76649
 C2552 C 0.77821 0.36043 0.78463
 C2553 C 0.76984 0.33782 0.78508
 C2554 C 0.78424 0.32012 0.79124
 C2555 C 0.77825 0.29840 0.78692
 C2556 C 0.75782 0.29395 0.77602
 C2557 C 0.74227 0.31164 0.77376
 C2558 C 0.74833 0.33337 0.77779
 H2559 H 0.79618 0.42814 0.70979
 H2560 H 0.77508 0.39583 0.72059
 H2561 H 0.79420 0.40146 0.80096
 H2562 H 0.81539 0.43371 0.79003
 H2563 H 0.75955 0.37067 0.75259
 H2564 H 0.79206 0.36379 0.79682
 H2565 H 0.80062 0.32311 0.79799
 H2566 H 0.79001 0.28539 0.79147
 H2567 H 0.72590 0.30895 0.76679
 H2568 H 0.73644 0.34667 0.77420
 C2569 C 0.30033 0.93505 0.26772
 C2570 C 0.28742 0.91723 0.27471
 C2571 C 0.29506 0.89553 0.26986
 C2572 C 0.31635 0.89186 0.25981
 C2573 C 0.32912 0.90939 0.25278
 C2574 C 0.32113 0.93140 0.25561
 C2575 C 0.28111 0.87642 0.27443
 C2576 C 0.28104 0.86047 0.25641
 C2577 C 0.27537 0.83758 0.26158
 C2578 C 0.29117 0.82139 0.25465
 C2579 C 0.28581 0.79946 0.25319
 C2580 C 0.26431 0.79286 0.25849
 C2581 C 0.24876 0.80906 0.26743
 C2582 C 0.25427 0.83136 0.26897
 H2583 H 0.29332 0.95154 0.27040
 H2584 H 0.27115 0.92041 0.28284
 H2585 H 0.32312 0.87523 0.25710
 H2586 H 0.34554 0.90545 0.24561
 H2587 H 0.27283 0.87456 0.29300
 H2588 H 0.28950 0.86310 0.23805
 H2589 H 0.30747 0.82592 0.24858
 H2590 H 0.29821 0.78833 0.24498
 H2591 H 0.23200 0.80479 0.27149
 H2592 H 0.24176 0.84379 0.27411
 C2593 C 0.15320 0.91472 0.73556
 C2594 C 0.16116 0.89418 0.72668
 C2595 C 0.18332 0.89082 0.71956
 C2596 C 0.19713 0.90892 0.72008
 C2597 C 0.18908 0.92958 0.72885
 C2598 C 0.16717 0.93251 0.73729
 C2599 C 0.19127 0.86790 0.71375
 C2600 C 0.21231 0.86079 0.71517
 C2601 C 0.21868 0.83707 0.71748
 C2602 C 0.23989 0.82954 0.71018
 C2603 C 0.24727 0.80798 0.71594
 C2604 C 0.23370 0.79359 0.72960
 C2605 C 0.21224 0.80115 0.73616
 C2606 C 0.20483 0.82247 0.73017
 H2607 H 0.13612 0.91663 0.74141
 H2608 H 0.15010 0.88062 0.72630
 H2609 H 0.21416 0.90725 0.71415
 H2610 H 0.20016 0.94308 0.72986
 H2611 H 0.17882 0.85586 0.71097
 H2612 H 0.22524 0.87238 0.71707
 H2613 H 0.25100 0.84059 0.70074
 H2614 H 0.26399 0.80302 0.71077
 H2615 H 0.20149 0.79136 0.74779
 H2616 H 0.18874 0.82786 0.73726
 C2617 C 0.65658 0.41773 0.21860
 C2618 C 0.66586 0.39775 0.20968
 C2619 C 0.68871 0.39465 0.20716
 C2620 C 0.70204 0.41271 0.21198
 C2621 C 0.69264 0.43289 0.22072
 C2622 C 0.66990 0.43526 0.22496
 C2623 C 0.69745 0.37184 0.20213
 C2624 C 0.71838 0.36492 0.20538
 C2625 C 0.72455 0.34121 0.20852
 C2626 C 0.74579 0.33328 0.20191
 C2627 C 0.75270 0.31166 0.20816
 C2628 C 0.73863 0.29765 0.22169
 C2629 C 0.71723 0.30568 0.22776
 C2630 C 0.71028 0.32702 0.22120
 H2631 H 0.63895 0.41931 0.22129
 H2632 H 0.65514 0.38428 0.20594
 H2633 H 0.71966 0.41129 0.20982
 H2634 H 0.70320 0.44629 0.22535
 H2635 H 0.68544 0.35955 0.19830
 H2636 H 0.73115 0.37657 0.20797
 H2637 H 0.75723 0.34403 0.19253
 H2638 H 0.76941 0.30636 0.20345
 H2639 H 0.70614 0.29620 0.23931
 H2640 H 0.69414 0.33278 0.22775
 C2641 C 0.70128 0.57705 0.20741
 C2642 C 0.71514 0.59426 0.21253
 C2643 C 0.71784 0.60196 0.23806
 C2644 C 0.70757 0.59080 0.25867
 C2645 C 0.69367 0.57344 0.25348
 C2646 C 0.68984 0.56696 0.22772
 C2647 C 0.73041 0.62227 0.24167
 C2648 C 0.72927 0.63510 0.26308
 C2649 C 0.73805 0.65764 0.26391
 C2650 C 0.72891 0.67300 0.28182
 C2651 C 0.73424 0.69521 0.28069
 C2652 C 0.74854 0.70269 0.26131
 C2653 C 0.75943 0.68684 0.24518
 C2654 C 0.75432 0.66461 0.24650
 H2655 H 0.69892 0.57206 0.18739
 H2656 H 0.72306 0.60221 0.19628
 H2657 H 0.70975 0.59563 0.27871
 H2658 H 0.68512 0.56581 0.26949
 H2659 H 0.73898 0.62807 0.22462
 H2660 H 0.71941 0.63026 0.27956
 H2661 H 0.71687 0.66800 0.29607
 H2662 H 0.72660 0.70652 0.29452
 H2663 H 0.77116 0.69164 0.23052
 H2664 H 0.76282 0.65315 0.23338
 C2665 C 0.20690 0.07443 0.71402
 C2666 C 0.22066 0.09136 0.72088
 C2667 C 0.22238 0.09788 0.74698
 C2668 C 0.21159 0.08593 0.76637
 C2669 C 0.19804 0.06880 0.75953
 C2670 C 0.19495 0.06345 0.73322
 C2671 C 0.23330 0.11865 0.75288
 C2672 C 0.22440 0.13330 0.76984
 C2673 C 0.22896 0.15686 0.76774
 C2674 C 0.21144 0.17150 0.76231
 C2675 C 0.21516 0.19339 0.75639
 C2676 C 0.23642 0.20165 0.75716
 C2677 C 0.25394 0.18699 0.76387
 C2678 C 0.25028 0.16468 0.76870
 H2679 H 0.20498 0.07042 0.69363
 H2680 H 0.22888 0.10029 0.70563
 H2681 H 0.21297 0.09037 0.78670
 H2682 H 0.18901 0.06059 0.77471
 H2683 H 0.24597 0.12389 0.73955
 H2684 H 0.20995 0.12911 0.78095
 H2685 H 0.19494 0.16560 0.76086
 H2686 H 0.20136 0.20316 0.74951
 H2687 H 0.27063 0.19244 0.76418
 H2688 H 0.26405 0.15348 0.77272
 C2689 C 0.30824 0.07605 0.28634
 C2690 C 0.29598 0.09549 0.28197
 C2691 C 0.29205 0.10292 0.25654
 C2692 C 0.29940 0.08965 0.23542
 C2693 C 0.31164 0.07003 0.23985
 C2694 C 0.31684 0.06356 0.26535
 C2695 C 0.28331 0.12582 0.25341
 C2696 C 0.27623 0.13496 0.23114
 C2697 C 0.27239 0.15912 0.23004
 C2698 C 0.25258 0.16859 0.22109
 C2699 C 0.24792 0.19128 0.22447
 C2700 C 0.26315 0.20479 0.23663
 C2701 C 0.28367 0.19522 0.24343
 C2702 C 0.28824 0.17282 0.24007
 H2703 H 0.31180 0.07123 0.30618
 H2704 H 0.29049 0.10535 0.29859
 H2705 H 0.29696 0.09494 0.21555
 H2706 H 0.31821 0.06066 0.22336
 H2707 H 0.28393 0.13634 0.27050
 H2708 H 0.27350 0.12511 0.21398
 H2709 H 0.24022 0.15828 0.21301
 H2710 H 0.23194 0.19792 0.21892
 H2711 H 0.29575 0.20445 0.25352
 H2712 H 0.30383 0.16592 0.24670
 C2713 C 0.80124 0.57633 0.79710
 C2714 C 0.78935 0.59624 0.79408
 C2715 C 0.78486 0.60466 0.76919
 C2716 C 0.79148 0.59193 0.74727
 C2717 C 0.80342 0.57194 0.75032
 C2718 C 0.80892 0.56425 0.77526
 C2719 C 0.77397 0.62696 0.76743
 C2720 C 0.77338 0.63938 0.74581
 C2721 C 0.76547 0.66289 0.74574
 C2722 C 0.77272 0.67675 0.72585
 C2723 C 0.76775 0.69945 0.72665
 C2724 C 0.75574 0.70891 0.74761
 C2725 C 0.74664 0.69466 0.76608
 C2726 C 0.75148 0.67199 0.76524
 H2727 H 0.80487 0.57061 0.81658
 H2728 H 0.78424 0.60545 0.81135
 H2729 H 0.78786 0.59736 0.72772
 H2730 H 0.80913 0.56295 0.73315
 H2731 H 0.76794 0.63408 0.78558
 H2732 H 0.78082 0.63304 0.72798
 H2733 H 0.78285 0.67012 0.71002
 H2734 H 0.77362 0.70949 0.71098
 H2735 H 0.73648 0.70106 0.78198
 H2736 H 0.74442 0.66182 0.78015
 C2737 C 0.91694 0.78146 0.13190
 C2738 C 0.89713 0.78177 0.14573
 C2739 C 0.89553 0.77162 0.17008
 C2740 C 0.91430 0.76088 0.18034
 C2741 C 0.93422 0.76033 0.16635
 C2742 C 0.93601 0.77070 0.14181
 C2743 C 0.87364 0.77177 0.18300
 C2744 C 0.86998 0.76907 0.20863
 C2745 C 0.84740 0.76957 0.22000
 C2746 C 0.84303 0.75763 0.24274
 C2747 C 0.82146 0.75608 0.25218
 C2748 C 0.80379 0.76655 0.23911
 C2749 C 0.80852 0.77947 0.21717
 C2750 C 0.82996 0.78132 0.20809
 H2751 H 0.91673 0.78881 0.11276
 H2752 H 0.88284 0.78987 0.13715
 H2753 H 0.91363 0.75250 0.19886
 H2754 H 0.94827 0.75226 0.17537
 H2755 H 0.85979 0.77445 0.17029
 H2756 H 0.88360 0.76577 0.22154
 H2757 H 0.85620 0.74869 0.25257
 H2758 H 0.81859 0.74580 0.26895
 H2759 H 0.79555 0.78770 0.20629
 H2760 H 0.83264 0.79166 0.19134
 C2761 C 0.43680 0.26226 0.66635
 C2762 C 0.41801 0.25947 0.68175
 C2763 C 0.39705 0.26319 0.67135
 C2764 C 0.39526 0.26925 0.64497
 C2765 C 0.41398 0.27202 0.62963
 C2766 C 0.43498 0.26860 0.64010
 C2767 C 0.37729 0.25966 0.68778
 C2768 C 0.35824 0.27067 0.68349
 C2769 C 0.33700 0.26549 0.69577
 C2770 C 0.31815 0.27014 0.68132
 C2771 C 0.29753 0.26592 0.69136
 C2772 C 0.29491 0.25748 0.71670
 C2773 C 0.31386 0.25267 0.73133
 C2774 C 0.33480 0.25655 0.72091
 H2775 H 0.45276 0.25959 0.67503
 H2776 H 0.41985 0.25456 0.70188
 H2777 H 0.37943 0.27128 0.63583
 H2778 H 0.41198 0.27627 0.60932
 H2779 H 0.37840 0.24739 0.70301
 H2780 H 0.35765 0.28326 0.66860
 H2781 H 0.31936 0.27699 0.66192
 H2782 H 0.28359 0.26997 0.67922
 H2783 H 0.31253 0.24601 0.75076
 H2784 H 0.34909 0.25302 0.73269
 C2785 C 0.42107 0.73790 0.85987
 C2786 C 0.40089 0.74231 0.84823
 C2787 C 0.39974 0.74810 0.82185
 C2788 C 0.41923 0.74969 0.80725
 C2789 C 0.43955 0.74569 0.81911
 C2790 C 0.44056 0.73968 0.84549
 C2791 C 0.37783 0.75262 0.81087
 C2792 C 0.37225 0.74781 0.78635
 C2793 C 0.34890 0.74787 0.77859
 C2794 C 0.34278 0.75185 0.75268
 C2795 C 0.32061 0.75164 0.74552
 C2796 C 0.30431 0.74731 0.76421
 C2797 C 0.31074 0.74292 0.78996
 C2798 C 0.33261 0.74286 0.79690
 H2799 H 0.42150 0.73357 0.88030
 H2800 H 0.38606 0.74104 0.85985
 H2801 H 0.41882 0.75446 0.78698
 H2802 H 0.45446 0.74724 0.80774
 H2803 H 0.36525 0.75839 0.82456
 H2804 H 0.38467 0.74259 0.77219
 H2805 H 0.35511 0.75528 0.73807
 H2806 H 0.31627 0.75488 0.72549
 H2807 H 0.29898 0.73890 0.80496
 H2808 H 0.33664 0.73838 0.81669
 C2809 C 0.91874 0.22365 0.35641
 C2810 C 0.90010 0.22945 0.34222
 C2811 C 0.90184 0.24080 0.31870
 C2812 C 0.92254 0.24583 0.30896
 C2813 C 0.94130 0.24061 0.32351
 C2814 C 0.93967 0.22984 0.34786
 C2815 C 0.88151 0.24919 0.30667
 C2816 C 0.87569 0.24435 0.28228
 C2817 C 0.85253 0.24733 0.27396
 C2818 C 0.84713 0.24985 0.24756
 C2819 C 0.82504 0.25159 0.23993
 C2820 C 0.80808 0.25067 0.25865
 C2821 C 0.81378 0.24816 0.28498
 C2822 C 0.83547 0.24612 0.29239
 H2823 H 0.91629 0.21595 0.37512
 H2824 H 0.88413 0.22561 0.35005
 H2825 H 0.92411 0.25466 0.29078
 H2826 H 0.95703 0.24499 0.31555
 H2827 H 0.86986 0.25741 0.31982
 H2828 H 0.88757 0.23660 0.26898
 H2829 H 0.85997 0.25036 0.23287
 H2830 H 0.82125 0.25328 0.21948
 H2831 H 0.80155 0.24677 0.30022
 H2832 H 0.83861 0.24279 0.31270
 C2833 C 0.08148 0.27833 0.37299
 C2834 C 0.10188 0.27531 0.36079
 C2835 C 0.10350 0.26891 0.33454
 C2836 C 0.08421 0.26572 0.32052
 C2837 C 0.06372 0.26848 0.33287
 C2838 C 0.06221 0.27466 0.35927
 C2839 C 0.12565 0.26473 0.32333
 C2840 C 0.13102 0.26677 0.29803
 C2841 C 0.15421 0.26482 0.28892
 C2842 C 0.15939 0.25856 0.26312
 C2843 C 0.18137 0.25632 0.25470
 C2844 C 0.19848 0.26031 0.27203
 C2845 C 0.19304 0.26703 0.29762
 C2846 C 0.17137 0.26970 0.30572
 H2847 H 0.08079 0.28279 0.39342
 H2848 H 0.11653 0.27780 0.37201
 H2849 H 0.08490 0.26042 0.30039
 H2850 H 0.04904 0.26558 0.32191
 H2851 H 0.13831 0.26050 0.33721
 H2852 H 0.11844 0.27030 0.28380
 H2853 H 0.14644 0.25513 0.24960
 H2854 H 0.18494 0.25129 0.23482
 H2855 H 0.20552 0.27083 0.31157
 H2856 H 0.16828 0.27590 0.32522
 C2857 C 0.55989 0.77887 0.80843
 C2858 C 0.57790 0.77807 0.79131
 C2859 C 0.59829 0.78522 0.79946
 C2860 C 0.60050 0.79289 0.82511
 C2861 C 0.58269 0.79338 0.84227
 C2862 C 0.56216 0.78636 0.83420
 C2863 C 0.61767 0.78261 0.78213
 C2864 C 0.63395 0.79675 0.78314
 C2865 C 0.65645 0.79143 0.77363
 C2866 C 0.67362 0.80119 0.78666
 C2867 C 0.69526 0.79472 0.78126
 C2868 C 0.70053 0.77905 0.76168
 C2869 C 0.68325 0.76952 0.74824
 C2870 C 0.66141 0.77575 0.75401
 H2871 H 0.54425 0.77352 0.80152
 H2872 H 0.57594 0.77182 0.77173
 H2873 H 0.61625 0.79764 0.83236
 H2874 H 0.58525 0.79857 0.86215
 H2875 H 0.61920 0.76779 0.77039
 H2876 H 0.63158 0.81162 0.79475
 H2877 H 0.67026 0.81307 0.80213
 H2878 H 0.70781 0.80172 0.79310
 H2879 H 0.68648 0.75670 0.73386
 H2880 H 0.64855 0.76797 0.74342
 C2881 C 0.57286 0.25372 0.64328
 C2882 C 0.59113 0.25774 0.65844
 C2883 C 0.60176 0.24065 0.67235
 C2884 C 0.59364 0.21925 0.67058
 C2885 C 0.57524 0.21525 0.65543
 C2886 C 0.56462 0.23244 0.64162
 C2887 C 0.62177 0.24593 0.68707
 C2888 C 0.63230 0.23221 0.70363
 C2889 C 0.65350 0.23732 0.71593
 C2890 C 0.66059 0.22508 0.73762
 C2891 C 0.68133 0.22805 0.74825
 C2892 C 0.69562 0.24324 0.73732
 C2893 C 0.68810 0.25600 0.71611
 C2894 C 0.66752 0.25297 0.70545
 H2895 H 0.56537 0.26727 0.63250
 H2896 H 0.59712 0.27432 0.65910
 H2897 H 0.60148 0.20544 0.68043
 H2898 H 0.56922 0.19870 0.65471
 H2899 H 0.62794 0.26220 0.68400
 H2900 H 0.62537 0.21661 0.70856
 H2901 H 0.65023 0.21279 0.74603
 H2902 H 0.68622 0.21783 0.76439
 H2903 H 0.69853 0.26773 0.70675
 H2904 H 0.66327 0.26232 0.68825
 C2905 C 0.05943 0.72720 0.17551
 C2906 C 0.07822 0.72959 0.19057
 C2907 C 0.09916 0.72487 0.17990
 C2908 C 0.10089 0.71683 0.15421
 C2909 C 0.08217 0.71434 0.13926
 C2910 C 0.06123 0.71967 0.14962
 C2911 C 0.11896 0.72837 0.19574
 C2912 C 0.13773 0.73480 0.18482
 C2913 C 0.15836 0.73836 0.19897
 C2914 C 0.17420 0.75093 0.18668
 C2915 C 0.19480 0.75307 0.19756
 C2916 C 0.20044 0.74248 0.22107
 C2917 C 0.18418 0.73067 0.23403
 C2918 C 0.16338 0.72853 0.22306
 H2919 H 0.04349 0.73115 0.18413
 H2920 H 0.07643 0.73555 0.21040
 H2921 H 0.11672 0.71236 0.14560
 H2922 H 0.08414 0.70859 0.11936
 H2923 H 0.11760 0.72676 0.21666
 H2924 H 0.13795 0.73835 0.16416
 H2925 H 0.17077 0.75882 0.16821
 H2926 H 0.20656 0.76257 0.18688
 H2927 H 0.18741 0.72264 0.25229
 H2928 H 0.15164 0.71856 0.23306
   
