data_POSCAR
  _audit_creation_date              2014-09-24
  _audit_creation_method            'ToBaCCo'
  _symmetry_space_group_name_H-M    'P1'
  _symmetry_Int_Tables_number       1
  _symmetry_cell_setting            triclinic
  loop_
  _symmetry_equiv_pos_as_xyz
 x,y,z
_cell_length_a 63.5157
_cell_length_b 65.7181
_cell_length_c 64.5332
_cell_angle_alpha 89.724300
_cell_angle_beta 90.015500
_cell_angle_gamma 89.762400
loop_
  _atom_site_label
  _atom_site_type_symbol
  _atom_site_fract_x
  _atom_site_fract_y
  _atom_site_fract_z
N1 N 0.36296 0.32167 0.32288
 N2 N 0.35867 0.33490 0.30808
 C3 C 0.37259 0.33266 0.29254
 C4 C 0.38663 0.31746 0.29790
 C5 C 0.38009 0.31078 0.31734
 H6 H 0.37277 0.34165 0.27847
 H7 H 0.38711 0.29886 0.32670
 Cu8 Cu 0.33603 0.35465 0.31079
 Cu9 Cu 0.34579 0.32008 0.34824
 Cu10 Cu 0.29649 0.34212 0.34180
 N11 N 0.31239 0.37312 0.31520
 N12 N 0.29661 0.36781 0.32717
 C13 C 0.28176 0.38243 0.32680
 C14 C 0.28865 0.39789 0.31405
 C15 C 0.30819 0.39150 0.30685
 H16 H 0.26694 0.38175 0.33503
 H17 H 0.31835 0.39928 0.29601
 N18 N 0.30291 0.32242 0.36361
 N19 N 0.32170 0.31442 0.36706
 C20 C 0.32092 0.30362 0.38498
 C21 C 0.30069 0.30542 0.39300
 C22 C 0.28987 0.31729 0.37904
 H23 H 0.33420 0.29596 0.39207
 H24 H 0.27390 0.32282 0.38064
 H25 H 0.32161 0.32551 0.32941
 H26 H 0.32771 0.34710 0.34703
 N27 N 0.36345 0.81624 -0.15944
 N28 N 0.36631 0.83105 -0.17289
 C29 C 0.38357 0.82692 -0.18432
 C30 C 0.39185 0.80850 -0.17752
 C31 C 0.37867 0.80219 -0.16181
 H32 H 0.38950 0.83651 -0.19663
 H33 H 0.38024 0.78845 -0.15262
 Cu34 Cu 0.34699 0.85410 -0.17443
 Cu35 Cu 0.34106 0.81651 -0.13901
 Cu36 Cu 0.30814 0.85844 -0.13909
 N37 N 0.32551 0.87529 -0.17661
 N38 N 0.31029 0.87666 -0.16287
 C39 C 0.29787 0.89258 -0.16772
 C40 C 0.30568 0.90177 -0.18540
 C41 C 0.32326 0.89038 -0.19074
 H42 H 0.28423 0.89730 -0.15890
 H43 H 0.33365 0.89288 -0.20377
 N44 N 0.30516 0.83578 -0.11914
 N45 N 0.31763 0.81969 -0.11936
 C46 C 0.31205 0.80701 -0.10388
 C47 C 0.29520 0.81550 -0.09337
 C48 C 0.29118 0.83369 -0.10353
 H49 H 0.31983 0.79274 -0.10046
 H50 H 0.27905 0.84463 -0.09969
 H51 H 0.32036 0.83464 -0.15588
 H52 H 0.33903 0.84748 -0.13782
 N53 N 0.86988 0.32329 -0.17643
 N54 N 0.86766 0.33826 -0.18989
 C55 C 0.88352 0.33725 -0.20375
 C56 C 0.89628 0.32079 -0.19874
 C57 C 0.88713 0.31228 -0.18126
 H58 H 0.88562 0.34762 -0.21665
 H59 H 0.89265 0.29921 -0.17255
 Cu60 Cu 0.84390 0.35739 -0.18790
 Cu61 Cu 0.85086 0.31997 -0.15288
 Cu62 Cu 0.80424 0.34728 -0.15546
 N63 N 0.82057 0.37680 -0.18405
 N64 N 0.80501 0.37226 -0.17142
 C65 C 0.79034 0.38704 -0.17206
 C66 C 0.79694 0.40189 -0.18570
 C67 C 0.81629 0.39493 -0.19312
 H68 H 0.77582 0.38692 -0.16330
 H69 H 0.82628 0.40223 -0.20448
 N70 N 0.80980 0.32639 -0.13439
 N71 N 0.82752 0.31590 -0.13312
 C72 C 0.82668 0.30377 -0.11620
 C73 C 0.80755 0.30709 -0.10642
 C74 C 0.79734 0.32145 -0.11834
 H75 H 0.83921 0.29373 -0.11112
 H76 H 0.78209 0.32816 -0.11526
 H77 H 0.82661 0.32897 -0.17056
 H78 H 0.83641 0.34856 -0.15205
 N79 N 0.85972 0.82702 0.33310
 N80 N 0.85926 0.84224 0.31979
 C81 C 0.87598 0.84076 0.30708
 C82 C 0.88748 0.82377 0.31268
 C83 C 0.87674 0.81532 0.32926
 H84 H 0.87958 0.85119 0.29458
 H85 H 0.88093 0.80174 0.33788
 Cu86 Cu 0.83693 0.86253 0.32033
 Cu87 Cu 0.83825 0.82361 0.35443
 Cu88 Cu 0.79804 0.85950 0.35524
 N89 N 0.81429 0.88255 0.32080
 N90 N 0.79917 0.88123 0.33465
 C91 C 0.78577 0.89693 0.33207
 C92 C 0.79279 0.90873 0.31574
 C93 C 0.81097 0.89916 0.30885
 H94 H 0.77192 0.89964 0.34143
 H95 H 0.82108 0.90395 0.29629
 N96 N 0.79958 0.83649 0.37486
 N97 N 0.81499 0.82294 0.37474
 C98 C 0.81185 0.80952 0.39029
 C99 C 0.79356 0.81491 0.40062
 C100 C 0.78619 0.83198 0.39038
 H101 H 0.82207 0.79677 0.39377
 H102 H 0.77217 0.84055 0.39418
 H103 H 0.81460 0.83800 0.33819
 H104 H 0.83020 0.85387 0.35649
 N105 N 0.62787 0.68279 0.32876
 N106 N 0.62842 0.66716 0.31611
 C107 C 0.61266 0.66908 0.30226
 C108 C 0.60169 0.68679 0.30646
 C109 C 0.61178 0.69515 0.32340
 H110 H 0.60928 0.65840 0.29002
 H111 H 0.60771 0.70908 0.33131
 Cu112 Cu 0.64955 0.64568 0.31916
 Cu113 Cu 0.64779 0.68589 0.35148
 Cu114 Cu 0.68618 0.64869 0.35648
 N115 N 0.67170 0.62514 0.32201
 N116 N 0.68597 0.62669 0.33667
 C117 C 0.69924 0.61078 0.33569
 C118 C 0.69305 0.59849 0.31962
 C119 C 0.67549 0.60801 0.31114
 H120 H 0.71243 0.60820 0.34599
 H121 H 0.66618 0.60287 0.29817
 N122 N 0.68404 0.67196 0.37519
 N123 N 0.66942 0.68618 0.37344
 C124 C 0.67193 0.69969 0.38889
 C125 C 0.68888 0.69358 0.40085
 C126 C 0.69620 0.67598 0.39171
 H127 H 0.66209 0.71291 0.39144
 H128 H 0.70929 0.66667 0.39679
 H129 H 0.67167 0.66997 0.33728
 H130 H 0.65421 0.65538 0.35528
 N131 N 0.63414 0.17671 -0.18186
 N132 N 0.63855 0.16335 -0.19635
 C133 C 0.62375 0.16413 -0.21118
 C134 C 0.60924 0.17880 -0.20589
 C135 C 0.61624 0.18658 -0.18714
 H136 H 0.62358 0.15476 -0.22491
 H137 H 0.60906 0.19858 -0.17814
 Cu138 Cu 0.66291 0.14589 -0.19481
 Cu139 Cu 0.65259 0.18036 -0.15778
 Cu140 Cu 0.69524 0.14703 -0.15423
 N141 N 0.68094 0.12305 -0.18828
 N142 N 0.69374 0.12340 -0.17231
 C143 C 0.70518 0.10611 -0.17201
 C144 C 0.69909 0.09431 -0.18868
 C145 C 0.68356 0.10553 -0.19863
 H146 H 0.71734 0.10258 -0.16080
 H147 H 0.67513 0.10166 -0.21262
 N148 N 0.68971 0.16859 -0.13383
 N149 N 0.67355 0.18128 -0.13495
 C150 C 0.67477 0.19447 -0.11902
 C151 C 0.69245 0.18976 -0.10735
 C152 C 0.70149 0.17325 -0.11721
 H153 H 0.66386 0.20684 -0.11626
 H154 H 0.71582 0.16539 -0.11290
 H155 H 0.67967 0.16991 -0.17098
 H156 H 0.66327 0.15052 -0.15750
 N157 N 0.13495 0.67552 -0.16878
 N158 N 0.13669 0.66263 -0.18424
 C159 C 0.12263 0.66750 -0.19901
 C160 C 0.11127 0.68420 -0.19250
 C161 C 0.11941 0.68896 -0.17316
 H162 H 0.12075 0.65946 -0.21348
 H163 H 0.11464 0.70130 -0.16315
 Cu164 Cu 0.15673 0.64025 -0.18385
 Cu165 Cu 0.15360 0.67362 -0.14456
 Cu166 Cu 0.20061 0.65003 -0.15778
 N167 N 0.18073 0.62182 -0.18504
 N168 N 0.19798 0.62594 -0.17469
 C169 C 0.21253 0.61159 -0.17850
 C170 C 0.20397 0.59761 -0.19190
 C171 C 0.18369 0.60454 -0.19585
 H172 H 0.22829 0.61144 -0.17212
 H173 H 0.17211 0.59774 -0.20593
 N174 N 0.19751 0.66779 -0.13368
 N175 N 0.17955 0.67607 -0.12773
 C176 C 0.18258 0.68529 -0.10929
 C177 C 0.20347 0.68240 -0.10357
 C178 C 0.21234 0.67138 -0.11939
 H179 H 0.17043 0.69301 -0.10055
 H180 H 0.22828 0.66559 -0.11998
 H181 H 0.17494 0.66812 -0.16645
 H182 H 0.17007 0.64602 -0.14889
 N183 N 0.12125 0.18352 0.31879
 N184 N 0.12279 0.16884 0.30512
 C185 C 0.10768 0.17126 0.29072
 C186 C 0.09597 0.18822 0.29572
 C187 C 0.10498 0.19574 0.31364
 H188 H 0.10523 0.16145 0.27752
 H189 H 0.10030 0.20918 0.32213
 Cu190 Cu 0.14407 0.14785 0.30761
 Cu191 Cu 0.14080 0.18571 0.34181
 Cu192 Cu 0.17946 0.14819 0.34644
 N193 N 0.16536 0.12693 0.31018
 N194 N 0.17929 0.12687 0.32528
 C195 C 0.19189 0.11041 0.32316
 C196 C 0.18527 0.09973 0.30583
 C197 C 0.16853 0.11065 0.29806
 H198 H 0.20478 0.10653 0.33344
 H199 H 0.15936 0.10686 0.28449
 N200 N 0.17662 0.17122 0.36606
 N201 N 0.16194 0.18540 0.36403
 C202 C 0.16418 0.19917 0.37918
 C203 C 0.18092 0.19349 0.39143
 C204 C 0.18856 0.17566 0.38276
 H205 H 0.15446 0.21256 0.38119
 H206 H 0.20195 0.16682 0.38800
 H207 H 0.16602 0.17043 0.32820
 H208 H 0.14791 0.15486 0.34450
 N209 N 0.63461 0.32538 0.67566
 N210 N 0.63553 0.34103 0.68827
 C211 C 0.61918 0.34004 0.70161
 C212 C 0.60739 0.32293 0.69709
 C213 C 0.61769 0.31402 0.68049
 H214 H 0.61622 0.35074 0.71396
 H215 H 0.61361 0.30001 0.67279
 Cu216 Cu 0.65842 0.36090 0.68642
 Cu217 Cu 0.65609 0.31984 0.65474
 Cu218 Cu 0.69875 0.35217 0.65398
 N219 N 0.68301 0.37892 0.68526
 N220 N 0.69891 0.37466 0.67298
 C221 C 0.71388 0.38888 0.67495
 C222 C 0.70711 0.40305 0.68903
 C223 C 0.68740 0.39633 0.69544
 H224 H 0.72853 0.38920 0.66645
 H225 H 0.67715 0.40350 0.70663
 N226 N 0.69632 0.32893 0.63556
 N227 N 0.67977 0.31689 0.63502
 C228 C 0.68265 0.30311 0.61979
 C229 C 0.70199 0.30687 0.61056
 C230 C 0.71013 0.32319 0.62096
 H231 H 0.67164 0.29125 0.61583
 H232 H 0.72500 0.33051 0.61778
 H233 H 0.67908 0.33324 0.67177
 H234 H 0.66593 0.34918 0.65137
 N235 N 0.62950 0.82330 1.17570
 N236 N 0.63079 0.83918 1.18796
 C237 C 0.61494 0.83849 1.20179
 C238 C 0.60309 0.82134 1.19802
 C239 C 0.61277 0.81199 1.18133
 H240 H 0.61210 0.84962 1.21377
 H241 H 0.60803 0.79807 1.17381
 Cu242 Cu 0.65294 0.85931 1.18454
 Cu243 Cu 0.64953 0.81865 1.15327
 Cu244 Cu 0.68920 0.85440 1.14712
 N245 N 0.67532 0.87922 1.18116
 N246 N 0.68944 0.87721 1.16641
 C247 C 0.70294 0.89293 1.16727
 C248 C 0.69701 0.90548 1.18339
 C249 C 0.67939 0.89632 1.19192
 H250 H 0.71614 0.89513 1.15693
 H251 H 0.67022 0.90171 1.20490
 N252 N 0.68634 0.83032 1.12915
 N253 N 0.67131 0.81668 1.13149
 C254 C 0.67369 0.80216 1.11697
 C255 C 0.69098 0.80689 1.10491
 C256 C 0.69863 0.82485 1.11308
 H257 H 0.66363 0.78904 1.11523
 H258 H 0.71218 0.83329 1.10780
 H259 H 0.67428 0.83395 1.16665
 H260 H 0.65716 0.84880 1.14855
 N261 N 0.13312 0.31040 1.17171
 N262 N 0.13050 0.32755 1.18182
 C263 C 0.11160 0.32694 1.19155
 C264 C 0.10222 0.30837 1.18696
 C265 C 0.11639 0.29842 1.17453
 H266 H 0.10498 0.33917 1.20065
 H267 H 0.11438 0.28365 1.16748
 Cu268 Cu 0.15227 0.34874 1.17987
 Cu269 Cu 0.15696 0.30479 1.15417
 Cu270 Cu 0.18262 0.34749 1.13689
 N271 N 0.17486 0.36858 1.17512
 N272 N 0.18660 0.36768 1.15833
 C273 C 0.20074 0.38281 1.15853
 C274 C 0.19782 0.39397 1.17629
 C275 C 0.18122 0.38456 1.18658
 H276 H 0.21231 0.38554 1.14655
 H277 H 0.17441 0.38889 1.20128
 N278 N 0.18307 0.32162 1.12183
 N279 N 0.17406 0.30505 1.12915
 C280 C 0.17653 0.28986 1.11553
 C281 C 0.18766 0.29719 1.09883
 C282 C 0.19173 0.31740 1.10329
 H283 H 0.17001 0.27477 1.11728
 H284 H 0.19998 0.32830 1.09371
 H285 H 0.17816 0.32857 1.16067
 H286 H 0.15398 0.33445 1.14516
 N287 N 0.13454 0.81145 0.66618
 N288 N 0.13367 0.82439 0.68161
 C289 C 0.11701 0.81986 0.69365
 C290 C 0.10701 0.80316 0.68524
 C291 C 0.11855 0.79820 0.66789
 H292 H 0.11270 0.82789 0.70760
 H293 H 0.11560 0.78574 0.65741
 Cu294 Cu 0.15456 0.84564 0.68466
 Cu295 Cu 0.15637 0.81263 0.64521
 Cu296 Cu 0.19326 0.85124 0.64932
 N297 N 0.17517 0.86722 0.68693
 N298 N 0.19003 0.86980 0.67298
 C299 C 0.20167 0.88611 0.67833
 C300 C 0.19360 0.89402 0.69664
 C301 C 0.17691 0.88161 0.70160
 H302 H 0.21511 0.89159 0.66971
 H303 H 0.16674 0.88310 0.71495
 N304 N 0.19360 0.83071 0.62668
 N305 N 0.17950 0.81606 0.62535
 C306 C 0.18383 0.80440 0.60878
 C307 C 0.20154 0.81197 0.59908
 C308 C 0.20733 0.82866 0.61083
 H309 H 0.17481 0.79127 0.60420
 H310 H 0.22069 0.83845 0.60806
 H311 H 0.17932 0.82654 0.66321
 H312 H 0.16194 0.84369 0.64761
 N313 N 0.37414 0.68858 0.67570
 N314 N 0.37276 0.67340 0.68893
 C315 C 0.38743 0.67561 0.70375
 C316 C 0.39860 0.69303 0.69959
 C317 C 0.38982 0.70100 0.68164
 H318 H 0.38981 0.66546 0.71677
 H319 H 0.39429 0.71482 0.67366
 Cu320 Cu 0.35180 0.65247 0.68571
 Cu321 Cu 0.35513 0.69097 0.65216
 Cu322 Cu 0.31770 0.65271 0.64602
 N323 N 0.33097 0.63143 0.68274
 N324 N 0.31761 0.63102 0.66719
 C325 C 0.30513 0.61449 0.66938
 C326 C 0.31122 0.60431 0.68735
 C327 C 0.32749 0.61550 0.69529
 H328 H 0.29250 0.61040 0.65898
 H329 H 0.33606 0.61216 0.70938
 N330 N 0.32065 0.67617 0.62661
 N331 N 0.33464 0.69075 0.62933
 C332 C 0.33246 0.70474 0.61418
 C333 C 0.31653 0.69874 0.60116
 C334 C 0.30929 0.68054 0.60945
 H335 H 0.34176 0.71840 0.61264
 H336 H 0.29650 0.67138 0.60365
 H337 H 0.32990 0.67498 0.66478
 H338 H 0.34894 0.66011 0.64892
 N339 N 0.36980 0.18763 1.16499
 N340 N 0.37276 0.17462 1.18026
 C341 C 0.38934 0.18048 1.19163
 C342 C 0.39728 0.19811 1.18301
 C343 C 0.38455 0.20224 1.16612
 H344 H 0.39501 0.17262 1.20528
 H345 H 0.38578 0.21507 1.15563
 Cu346 Cu 0.35430 0.15173 1.18415
 Cu347 Cu 0.34657 0.18475 1.14540
 Cu348 Cu 0.31268 0.14387 1.15350
 N349 N 0.33556 0.12924 1.18911
 N350 N 0.31919 0.12601 1.17710
 C351 C 0.30893 0.10942 1.18406
 C352 C 0.31956 0.10205 1.20136
 C353 C 0.33625 0.11500 1.20409
 H354 H 0.29480 0.10332 1.17715
 H355 H 0.34795 0.11404 1.21622
 N356 N 0.30912 0.16376 1.13056
 N357 N 0.32214 0.17910 1.12742
 C358 C 0.31577 0.18967 1.11060
 C359 C 0.29786 0.18060 1.10277
 C360 C 0.29406 0.16428 1.11582
 H361 H 0.32351 0.20308 1.10463
 H362 H 0.28125 0.15357 1.11455
 H363 H 0.32651 0.16968 1.16549
 H364 H 0.34299 0.15362 1.14813
 N365 N 0.86516 0.67930 1.18063
 N366 N 0.86325 0.66481 1.19464
 C367 C 0.87821 0.66726 1.20921
 C368 C 0.89000 0.68422 1.20419
 C369 C 0.88130 0.69151 1.18590
 H370 H 0.88031 0.65759 1.22266
 H371 H 0.88622 0.70472 1.17714
 Cu372 Cu 0.84117 0.64428 1.19284
 Cu373 Cu 0.84625 0.68167 1.15681
 Cu374 Cu 0.80291 0.64985 1.15777
 N375 N 0.81985 0.62319 1.18889
 N376 N 0.80516 0.62565 1.17475
 C377 C 0.79201 0.60972 1.17518
 C378 C 0.79863 0.59645 1.19043
 C379 C 0.81641 0.60541 1.19894
 H380 H 0.77830 0.60811 1.16538
 H381 H 0.82591 0.59961 1.21158
 N382 N 0.80761 0.67005 1.13601
 N383 N 0.82437 0.68180 1.13501
 C384 C 0.82310 0.69328 1.11764
 C385 C 0.80466 0.68826 1.10736
 C386 C 0.79534 0.67355 1.11943
 H387 H 0.83459 0.70448 1.11296
 H388 H 0.78070 0.66582 1.11621
 H389 H 0.82230 0.67087 1.17366
 H390 H 0.83560 0.65192 1.15647
 N391 N 0.87569 0.17918 0.67841
 N392 N 0.87355 0.16677 0.69429
 C393 C 0.89015 0.16872 0.70699
 C394 C 0.90333 0.18326 0.69877
 C395 C 0.89373 0.18967 0.68059
 H396 H 0.89242 0.16028 0.72125
 H397 H 0.89948 0.20091 0.66971
 Cu398 Cu 0.84943 0.14927 0.69723
 Cu399 Cu 0.85499 0.18016 0.65613
 Cu400 Cu 0.81649 0.14285 0.65704
 N401 N 0.83103 0.12610 0.69570
 N402 N 0.81823 0.12339 0.67996
 C403 C 0.80759 0.10593 0.68289
 C404 C 0.81422 0.09735 0.70147
 C405 C 0.82904 0.11056 0.70915
 H406 H 0.79593 0.10004 0.67233
 H407 H 0.83778 0.10895 0.72346
 N408 N 0.81781 0.16418 0.63539
 N409 N 0.83254 0.17832 0.63515
 C410 C 0.82934 0.19066 0.61878
 C411 C 0.81183 0.18405 0.60820
 C412 C 0.80481 0.16722 0.61911
 H413 H 0.83895 0.20366 0.61483
 H414 H 0.79126 0.15798 0.61554
 H415 H 0.82904 0.16803 0.67147
 H416 H 0.84801 0.14954 0.65970
 N417 N 0.31296 0.36592 0.65804
 N418 N 0.32732 0.36904 0.67235
 C419 C 0.32217 0.38599 0.68299
 C420 C 0.30357 0.39375 0.67482
 C421 C 0.29821 0.38061 0.65912
 H422 H 0.33108 0.39205 0.69581
 H423 H 0.28451 0.38169 0.64922
 Cu424 Cu 0.35111 0.35033 0.67565
 Cu425 Cu 0.31421 0.34324 0.63884
 Cu426 Cu 0.35547 0.30928 0.64494
 N427 N 0.37390 0.33050 0.67922
 N428 N 0.37542 0.31464 0.66696
 C429 C 0.39235 0.30348 0.67234
 C430 C 0.40205 0.31277 0.68893
 C431 C 0.38990 0.32985 0.69297
 H432 H 0.39705 0.28953 0.66483
 H433 H 0.39257 0.34089 0.70505
 N434 N 0.33384 0.30629 0.62346
 N435 N 0.31820 0.31935 0.62092
 C436 C 0.30628 0.31327 0.60483
 C437 C 0.31487 0.29551 0.59701
 C438 C 0.33223 0.29152 0.60919
 H439 H 0.29230 0.32106 0.59938
 H440 H 0.34289 0.27875 0.60764
 H441 H 0.33030 0.32412 0.65875
 H442 H 0.34636 0.33921 0.63994
 N443 N 0.30538 0.87157 0.16945
 N444 N 0.32005 0.87374 0.18360
 C445 C 0.31532 0.88999 0.19535
 C446 C 0.29665 0.89839 0.18813
 C447 C 0.29073 0.88625 0.17177
 H448 H 0.32462 0.89515 0.20831
 H449 H 0.27688 0.88809 0.16220
 Cu450 Cu 0.34360 0.85485 0.18534
 Cu451 Cu 0.30678 0.85018 0.14888
 Cu452 Cu 0.34887 0.81621 0.15147
 N453 N 0.36717 0.83603 0.18690
 N454 N 0.36921 0.82077 0.17392
 C455 C 0.38672 0.81010 0.17895
 C456 C 0.39603 0.81931 0.19595
 C457 C 0.38322 0.83564 0.20048
 H458 H 0.39220 0.79670 0.17089
 H459 H 0.38545 0.84632 0.21297
 N460 N 0.32643 0.81460 0.13004
 N461 N 0.31064 0.82774 0.12933
 C462 C 0.29818 0.82333 0.11320
 C463 C 0.30626 0.80666 0.10318
 C464 C 0.32424 0.80133 0.11420
 H465 H 0.28412 0.83166 0.10888
 H466 H 0.33492 0.78892 0.11085
 H467 H 0.32386 0.82915 0.16651
 H468 H 0.33941 0.84600 0.14898
 N469 N 0.80012 0.37230 0.16185
 N470 N 0.81490 0.37459 0.17587
 C471 C 0.81078 0.39132 0.18710
 C472 C 0.79235 0.39995 0.17972
 C473 C 0.78601 0.38753 0.16367
 H474 H 0.82035 0.39665 0.19980
 H475 H 0.77202 0.38927 0.15425
 Cu476 Cu 0.83770 0.35520 0.17838
 Cu477 Cu 0.79988 0.34913 0.14313
 Cu478 Cu 0.84410 0.31765 0.14375
 N479 N 0.86043 0.33578 0.18089
 N480 N 0.86342 0.32146 0.16702
 C481 C 0.88059 0.31051 0.17234
 C482 C 0.88859 0.31850 0.19055
 C483 C 0.87541 0.33438 0.19553
 H484 H 0.88652 0.29756 0.16383
 H485 H 0.87671 0.34414 0.20892
 N486 N 0.82221 0.31642 0.12196
 N487 N 0.80534 0.32824 0.12201
 C488 C 0.79331 0.32373 0.10551
 C489 C 0.80292 0.30830 0.09460
 C490 C 0.82125 0.30396 0.10543
 H491 H 0.77856 0.33110 0.10166
 H492 H 0.83290 0.29254 0.10166
 H493 H 0.81893 0.32862 0.15971
 H494 H 0.83233 0.34712 0.14214
 N495 N 0.81252 0.86378 0.66379
 N496 N 0.82463 0.86741 0.67987
 C497 C 0.81741 0.88408 0.68968
 C498 C 0.79981 0.89121 0.67916
 C499 C 0.79715 0.87793 0.66288
 H500 H 0.82432 0.89039 0.70351
 H501 H 0.78490 0.87856 0.65124
 Cu502 Cu 0.84847 0.84985 0.68663
 Cu503 Cu 0.81760 0.84108 0.64516
 Cu504 Cu 0.86069 0.81036 0.65596
 N505 N 0.87288 0.83256 0.69224
 N506 N 0.87754 0.81726 0.68000
 C507 C 0.89480 0.80768 0.68720
 C508 C 0.90139 0.81746 0.70498
 C509 C 0.88711 0.83316 0.70775
 H510 H 0.90176 0.79438 0.68013
 H511 H 0.88707 0.84408 0.72023
 N512 N 0.84187 0.80568 0.63232
 N513 N 0.82545 0.81738 0.62818
 C514 C 0.81566 0.81021 0.61123
 C515 C 0.82648 0.79317 0.60443
 C516 C 0.84294 0.79074 0.61815
 H517 H 0.80160 0.81680 0.60453
 H518 H 0.85472 0.77882 0.61783
 H519 H 0.83253 0.82262 0.66650
 H520 H 0.84954 0.83962 0.65041
 N521 N 0.67723 0.63555 0.67905
 N522 N 0.66351 0.63948 0.69380
 C523 C 0.66583 0.62586 0.70927
 C524 C 0.68168 0.61248 0.70402
 C525 C 0.68864 0.61902 0.68465
 H526 H 0.65666 0.62563 0.72339
 H527 H 0.70107 0.61243 0.67538
 Cu528 Cu 0.64376 0.66192 0.69150
 Cu529 Cu 0.67867 0.65233 0.65363
 Cu530 Cu 0.65362 0.69920 0.65817
 N531 N 0.62348 0.68375 0.68703
 N532 N 0.62770 0.69847 0.67385
 C533 C 0.61232 0.71252 0.67451
 C534 C 0.59760 0.70629 0.68883
 C535 C 0.60511 0.68791 0.69656
 H536 H 0.61221 0.72656 0.66568
 H537 H 0.59815 0.67864 0.70860
 N538 N 0.67377 0.69305 0.63622
 N539 N 0.68303 0.67520 0.63367
 C540 C 0.69445 0.67594 0.61597
 C541 C 0.69185 0.69515 0.60714
 C542 C 0.67877 0.70544 0.62043
 H543 H 0.70350 0.66339 0.60978
 H544 H 0.67274 0.72073 0.61836
 H545 H 0.67280 0.67644 0.67153
 H546 H 0.65030 0.66858 0.65489
 N547 N 0.68102 0.13559 0.16159
 N548 N 0.66707 0.13582 0.17678
 C549 C 0.67077 0.11952 0.18922
 C550 C 0.68780 0.10876 0.18121
 C551 C 0.69375 0.11940 0.16385
 H552 H 0.66181 0.11579 0.20296
 H553 H 0.70668 0.11557 0.15368
 Cu554 Cu 0.64503 0.15754 0.17874
 Cu555 Cu 0.68263 0.15625 0.13970
 Cu556 Cu 0.65060 0.19615 0.14436
 N557 N 0.62491 0.18052 0.17712
 N558 N 0.62708 0.19515 0.16330
 C559 C 0.61109 0.20848 0.16504
 C560 C 0.59817 0.20218 0.18091
 C561 C 0.60736 0.18431 0.18835
 H562 H 0.60906 0.22196 0.15554
 H563 H 0.60174 0.17480 0.20088
 N564 N 0.66947 0.19374 0.12093
 N565 N 0.68206 0.17795 0.11927
 C566 C 0.69389 0.18001 0.10215
 C567 C 0.68840 0.19814 0.09253
 C568 C 0.67282 0.20646 0.10485
 H569 H 0.70581 0.16926 0.09733
 H570 H 0.66479 0.22082 0.10243
 H571 H 0.67021 0.17158 0.16534
 H572 H 0.65080 0.15933 0.14766
 N573 N 0.17537 0.63270 0.17991
 N574 N 0.16123 0.63379 0.19474
 C575 C 0.16440 0.61868 0.20845
 C576 C 0.18114 0.60719 0.20187
 C577 C 0.18792 0.61642 0.18364
 H578 H 0.15494 0.61579 0.22206
 H579 H 0.20099 0.61180 0.17399
 Cu580 Cu 0.13881 0.65352 0.19417
 Cu581 Cu 0.17617 0.65316 0.15754
 Cu582 Cu 0.13644 0.69013 0.15826
 N583 N 0.11621 0.67309 0.19392
 N584 N 0.11524 0.68777 0.18006
 C585 C 0.09782 0.69905 0.18360
 C586 C 0.08745 0.69068 0.20050
 C587 C 0.09950 0.67433 0.20656
 H588 H 0.09300 0.71211 0.17448
 H589 H 0.09621 0.66415 0.21935
 N590 N 0.15922 0.68974 0.13746
 N591 N 0.17398 0.67551 0.13672
 C592 C 0.18678 0.67949 0.12050
 C593 C 0.17969 0.69705 0.11070
 C594 C 0.16231 0.70310 0.12189
 H595 H 0.20042 0.67050 0.11636
 H596 H 0.15264 0.71635 0.11880
 H597 H 0.16124 0.67591 0.17376
 H598 H 0.14438 0.65948 0.15726
 N599 N 0.19466 0.13235 0.67065
 N600 N 0.17833 0.12631 0.68151
 C601 C 0.18219 0.10730 0.68867
 C602 C 0.20197 0.10134 0.68160
 C603 C 0.20934 0.11763 0.67037
 H604 H 0.17153 0.09856 0.69824
 H605 H 0.22440 0.11876 0.66262
 Cu606 Cu 0.15429 0.14481 0.68519
 Cu607 Cu 0.19597 0.15887 0.65781
 Cu608 Cu 0.14747 0.18082 0.64823
 N609 N 0.13197 0.16529 0.68717
 N610 N 0.12921 0.17940 0.67285
 C611 C 0.11270 0.19128 0.67827
 C612 C 0.10483 0.18421 0.69705
 C613 C 0.11745 0.16774 0.70214
 H614 H 0.10691 0.20400 0.66920
 H615 H 0.11614 0.15830 0.71584
 N616 N 0.17272 0.18643 0.63092
 N617 N 0.19139 0.17921 0.63623
 C618 C 0.20564 0.18456 0.62197
 C619 C 0.19568 0.19537 0.60658
 C620 C 0.17470 0.19658 0.61271
 H621 H 0.22184 0.17943 0.62187
 H622 H 0.16181 0.20346 0.60422
 H623 H 0.16983 0.17492 0.66894
 H624 H 0.16533 0.15393 0.65013
 N625 N 0.31561 0.62533 0.31333
 N626 N 0.33146 0.62825 0.30062
 C627 C 0.33066 0.61449 0.28525
 C628 C 0.31352 0.60216 0.28854
 C629 C 0.30420 0.60946 0.30652
 H630 H 0.34185 0.61324 0.27270
 H631 H 0.29019 0.60377 0.31404
 Cu632 Cu 0.35211 0.64904 0.30600
 Cu633 Cu 0.31117 0.64266 0.33754
 Cu634 Cu 0.34794 0.68112 0.34619
 N635 N 0.37299 0.66965 0.31099
 N636 N 0.37144 0.68276 0.32626
 C637 C 0.38839 0.69521 0.32563
 C638 C 0.40108 0.68913 0.30920
 C639 C 0.39083 0.67299 0.30046
 H640 H 0.39150 0.70729 0.33651
 H641 H 0.39621 0.66429 0.28729
 N642 N 0.32300 0.67648 0.36439
 N643 N 0.30932 0.66173 0.36105
 C644 C 0.29441 0.66227 0.37588
 C645 C 0.29875 0.67798 0.38926
 C646 C 0.31703 0.68674 0.38155
 H647 H 0.28119 0.65200 0.37693
 H648 H 0.32533 0.69961 0.38792
 H649 H 0.32653 0.66827 0.32630
 H650 H 0.34246 0.65052 0.34255
 N651 N 0.32029 0.12668 0.82976
 N652 N 0.33232 0.12728 0.81315
 C653 C 0.32765 0.11109 0.80114
 C654 C 0.31187 0.09992 0.81091
 C655 C 0.30773 0.11031 0.82895
 H656 H 0.33490 0.10788 0.78635
 H657 H 0.29616 0.10635 0.84058
 Cu658 Cu 0.35216 0.14998 0.80904
 Cu659 Cu 0.32159 0.14688 0.85167
 Cu660 Cu 0.34508 0.19191 0.83722
 N661 N 0.37260 0.17260 0.80791
 N662 N 0.36891 0.18900 0.81894
 C663 C 0.38394 0.20284 0.81547
 C664 C 0.39815 0.19495 0.80163
 C665 C 0.39055 0.17559 0.79696
 H666 H 0.38453 0.21767 0.82266
 H667 H 0.39739 0.16472 0.78636
 N668 N 0.32808 0.18912 0.86220
 N669 N 0.31943 0.17187 0.86822
 C670 C 0.31025 0.17470 0.88682
 C671 C 0.31369 0.19465 0.89271
 C672 C 0.32498 0.20328 0.87679
 H673 H 0.30216 0.16303 0.89556
 H674 H 0.33107 0.21862 0.87619
 H675 H 0.32509 0.16765 0.82917
 H676 H 0.34944 0.16203 0.84448
 N677 N 0.82286 0.63378 0.82483
 N678 N 0.83690 0.63897 0.81081
 C679 C 0.83693 0.62521 0.79544
 C680 C 0.82219 0.61052 0.80002
 C681 C 0.81349 0.61642 0.81882
 H682 H 0.84681 0.62587 0.78180
 H683 H 0.80090 0.60903 0.82720
 Cu684 Cu 0.85390 0.66311 0.81361
 Cu685 Cu 0.81679 0.65077 0.84904
 Cu686 Cu 0.84541 0.69554 0.85228
 N687 N 0.87503 0.68278 0.82171
 N688 N 0.87146 0.69567 0.83679
 C689 C 0.88776 0.70855 0.83832
 C690 C 0.90243 0.70334 0.82349
 C691 C 0.89387 0.68687 0.81317
 H692 H 0.88864 0.72109 0.84908
 H693 H 0.90040 0.67891 0.80002
 N694 N 0.82390 0.68781 0.87248
 N695 N 0.81317 0.67068 0.87187
 C696 C 0.80026 0.67002 0.88852
 C697 C 0.80337 0.68745 0.90017
 C698 C 0.81841 0.69834 0.88940
 H699 H 0.78947 0.65778 0.89202
 H700 H 0.82497 0.71291 0.89349
 H701 H 0.82509 0.67697 0.83488
 H702 H 0.84615 0.66423 0.85041
 N703 N 0.81276 0.13328 0.33474
 N704 N 0.82637 0.13256 0.31938
 C705 C 0.82119 0.11691 0.30684
 C706 C 0.80348 0.10746 0.31500
 C707 C 0.79868 0.11826 0.33259
 H708 H 0.82968 0.11271 0.29297
 H709 H 0.78589 0.11522 0.34321
 Cu710 Cu 0.84943 0.15230 0.31748
 Cu711 Cu 0.81432 0.15269 0.35723
 Cu712 Cu 0.85591 0.18596 0.35623
 N713 N 0.86832 0.17580 0.31476
 N714 N 0.86965 0.18913 0.32982
 C715 C 0.88279 0.20410 0.32435
 C716 C 0.89051 0.20002 0.30494
 C717 C 0.88110 0.18186 0.29911
 H718 H 0.88675 0.21696 0.33399
 H719 H 0.88312 0.17391 0.28461
 N720 N 0.83519 0.18567 0.37852
 N721 N 0.81893 0.17330 0.37875
 C722 C 0.80720 0.17727 0.39564
 C723 C 0.81659 0.19300 0.40644
 C724 C 0.83423 0.19796 0.39511
 H725 H 0.79281 0.16945 0.39961
 H726 H 0.84536 0.20989 0.39854
 H727 H 0.83008 0.17476 0.34057
 H728 H 0.84587 0.15538 0.35526
 N729 N 0.68584 0.36528 0.34032
 N730 N 0.67274 0.36573 0.32436
 C731 C 0.67661 0.38256 0.31293
 C732 C 0.69301 0.39308 0.32209
 C733 C 0.69844 0.38168 0.33932
 H734 H 0.66801 0.38689 0.29913
 H735 H 0.71058 0.38528 0.35046
 Cu736 Cu 0.65083 0.34469 0.31977
 Cu737 Cu 0.68522 0.34399 0.36227
 Cu738 Cu 0.64758 0.30986 0.35709
 N739 N 0.62714 0.32542 0.32120
 N740 N 0.62651 0.31166 0.33603
 C741 C 0.60963 0.29982 0.33362
 C742 C 0.59883 0.30633 0.31648
 C743 C 0.61028 0.32268 0.30869
 H744 H 0.60548 0.28711 0.34346
 H745 H 0.60677 0.33168 0.29503
 N746 N 0.67095 0.30462 0.37509
 N747 N 0.68542 0.31844 0.37847
 C748 C 0.69768 0.31199 0.39437
 C749 C 0.69034 0.29303 0.40077
 C750 C 0.67369 0.28884 0.38802
 H751 H 0.71037 0.32066 0.40113
 H752 H 0.66355 0.27569 0.38896
 H753 H 0.67329 0.32902 0.33743
 H754 H 0.65429 0.34586 0.35106
 N755 N 0.69247 0.87075 0.83965
 N756 N 0.68003 0.87146 0.82340
 C757 C 0.68474 0.88790 0.81190
 C758 C 0.70115 0.89804 0.82144
 C759 C 0.70571 0.88670 0.83897
 H760 H 0.67704 0.89185 0.79749
 H761 H 0.71793 0.88970 0.85020
 Cu762 Cu 0.65918 0.85074 0.81834
 Cu763 Cu 0.69079 0.84879 0.85989
 Cu764 Cu 0.65262 0.81190 0.85144
 N765 N 0.63368 0.83475 0.81838
 N766 N 0.63104 0.81947 0.83132
 C767 C 0.61259 0.81034 0.82711
 C768 C 0.60323 0.82062 0.81068
 C769 C 0.61702 0.83600 0.80560
 H770 H 0.60682 0.79693 0.83501
 H771 H 0.61530 0.84692 0.79310
 N772 N 0.67233 0.81099 0.87507
 N773 N 0.68653 0.82524 0.87838
 C774 C 0.69750 0.82048 0.89555
 C775 C 0.68984 0.80237 0.90350
 C776 C 0.67392 0.79677 0.89012
 H777 H 0.71036 0.82938 0.90153
 H778 H 0.66430 0.78326 0.89125
 H779 H 0.67917 0.82705 0.84047
 H780 H 0.65918 0.84216 0.85496
 N781 N 0.18884 0.37413 0.82030
 N782 N 0.17525 0.37053 0.80543
 C783 C 0.17622 0.38533 0.79110
 C784 C 0.19133 0.39900 0.79711
 C785 C 0.19917 0.39151 0.81577
 H786 H 0.16659 0.38611 0.77728
 H787 H 0.21134 0.39814 0.82528
 Cu788 Cu 0.15705 0.34736 0.80610
 Cu789 Cu 0.19156 0.35547 0.84398
 Cu790 Cu 0.15272 0.31823 0.84854
 N791 N 0.13256 0.33109 0.81086
 N792 N 0.13063 0.31921 0.82718
 C793 C 0.11178 0.30979 0.82615
 C794 C 0.10157 0.31658 0.80834
 C795 C 0.11518 0.33004 0.79917
 H796 H 0.10584 0.29919 0.83759
 H797 H 0.11263 0.33847 0.78494
 N798 N 0.17666 0.32063 0.86817
 N799 N 0.19121 0.33488 0.86647
 C800 C 0.20566 0.33210 0.88150
 C801 C 0.20002 0.31539 0.89321
 C802 C 0.18152 0.30844 0.88437
 H803 H 0.21960 0.34127 0.88355
 H804 H 0.17254 0.29527 0.88907
 H805 H 0.17809 0.32930 0.83177
 H806 H 0.15982 0.34837 0.84349
 N807 N 0.18603 0.87350 0.32756
 N808 N 0.16902 0.87584 0.31622
 C809 C 0.17034 0.89354 0.30577
 C810 C 0.18913 0.90271 0.31088
 C811 C 0.19881 0.88956 0.32473
 H812 H 0.15864 0.89933 0.29507
 H813 H 0.21403 0.89130 0.33200
 Cu814 Cu 0.14719 0.85526 0.31587
 Cu815 Cu 0.19040 0.84953 0.34455
 Cu816 Cu 0.14731 0.81746 0.35137
 N817 N 0.12572 0.83443 0.31598
 N818 N 0.12523 0.81983 0.32999
 C819 C 0.10799 0.80826 0.32660
 C820 C 0.09733 0.81620 0.30954
 C821 C 0.10908 0.83265 0.30330
 H822 H 0.10361 0.79517 0.33582
 H823 H 0.10552 0.84274 0.29048
 N824 N 0.17217 0.81760 0.37026
 N825 N 0.18857 0.82949 0.36698
 C826 C 0.20283 0.82655 0.38207
 C827 C 0.19533 0.81206 0.39555
 C828 C 0.17580 0.80658 0.38766
 H829 H 0.21756 0.83463 0.38338
 H830 H 0.16505 0.79553 0.39411
 H831 H 0.16880 0.82854 0.33165
 H832 H 0.15822 0.84718 0.35083
 O833 O 0.29030 0.98364 0.25743
 O834 O 0.26451 1.02225 0.28917
 O835 O 0.26603 0.98241 0.28983
 O836 O 0.28364 1.02270 0.25342
 O837 O 0.25485 1.01814 0.23482
 O838 O 0.23681 0.97990 0.27152
 O839 O 0.23565 1.01955 0.27031
 O840 O 0.26118 0.97915 0.23932
 Cu841 Cu 0.27899 1.00314 0.27428
 Cu842 Cu 0.24425 0.99884 0.25223
 C843 C 0.28027 0.97457 0.24331
 C844 C 0.24588 1.02779 0.28503
 C845 C 0.24821 0.97421 0.28659
 C846 C 0.27209 1.02717 0.23786
 O847 O 0.24831 0.51296 0.70718
 O848 O 0.23175 0.47504 0.74622
 O849 O 0.22193 0.51265 0.73799
 O850 O 0.25789 0.47455 0.71523
 O851 O 0.28330 0.48442 0.73621
 O852 O 0.24728 0.52189 0.75935
 O853 O 0.25739 0.48443 0.76718
 O854 O 0.27339 0.52260 0.72860
 Cu855 Cu 0.23750 0.49276 0.72445
 Cu856 Cu 0.26796 0.50436 0.74981
 C857 C 0.26347 0.52468 0.71161
 C858 C 0.24170 0.47324 0.76326
 C859 C 0.22854 0.52373 0.75265
 C860 C 0.27656 0.47273 0.72212
 O861 O 0.73587 -0.01044 0.22299
 O862 O 0.77146 0.02971 0.24124
 O863 O 0.77125 -0.01013 0.24287
 O864 O 0.73411 0.02959 0.22431
 O865 O 0.71808 0.02928 0.25465
 O866 O 0.75483 -0.01008 0.27301
 O867 O 0.75539 0.02978 0.27156
 O868 O 0.71949 -0.01058 0.25316
 Cu869 Cu 0.75473 0.00978 0.22981
 Cu870 Cu 0.73537 0.00965 0.26609
 C871 C 0.72197 -0.01771 0.23503
 C872 C 0.76952 0.03665 0.25943
 C873 C 0.76896 -0.01715 0.26112
 C874 C 0.71988 0.03631 0.23644
 O875 O 0.75638 0.48753 0.77460
 O876 O 0.72879 0.53069 0.74769
 O877 O 0.72286 0.49138 0.75097
 O878 O 0.75400 0.52709 0.77992
 O879 O 0.77791 0.52875 0.75514
 O880 O 0.74757 0.48900 0.72701
 O881 O 0.75268 0.52864 0.72294
 O882 O 0.78114 0.48937 0.75066
 Cu883 Cu 0.73833 0.50924 0.76555
 Cu884 Cu 0.76691 0.50891 0.73669
 C885 C 0.77382 0.48130 0.76689
 C886 C 0.73629 0.53672 0.73031
 C887 C 0.72978 0.48359 0.73450
 C888 C 0.77086 0.53437 0.77278
 O889 O 0.24774 0.47955 0.26727
 O890 O 0.22041 0.52011 0.23718
 O891 O 0.21532 0.48049 0.24185
 O892 O 0.24429 0.51882 0.26968
 O893 O 0.26887 0.51965 0.24546
 O894 O 0.24072 0.47735 0.21871
 O895 O 0.24439 0.51689 0.21263
 O896 O 0.27296 0.48006 0.24370
 Cu897 Cu 0.22948 0.49971 0.25611
 Cu898 Cu 0.25902 0.49842 0.22785
 C899 C 0.26551 0.47330 0.26048
 C900 C 0.22814 0.52548 0.21971
 C901 C 0.22294 0.47184 0.22612
 C902 C 0.26114 0.52612 0.26253
 O903 O 0.71604 0.97364 0.74243
 O904 O 0.74438 1.01150 0.71194
 O905 O 0.75023 0.97154 0.71846
 O906 O 0.71586 1.01220 0.73940
 O907 O 0.73792 1.01561 0.76559
 O908 O 0.77257 0.97653 0.74411
 O909 O 0.76708 1.01556 0.73755
 O910 O 0.73928 0.97607 0.76780
 Cu911 Cu 0.73000 0.99129 0.72536
 Cu912 Cu 0.75651 0.99629 0.75630
 C913 C 0.72265 0.96834 0.76017
 C914 C 0.76014 1.02044 0.71965
 C915 C 0.76730 0.96715 0.72786
 C916 C 0.72122 1.02085 0.75619
 O917 O 0.75193 0.51658 0.23142
 O918 O 0.71628 0.47592 0.24994
 O919 O 0.71533 0.51585 0.24961
 O920 O 0.75058 0.47710 0.22832
 O921 O 0.76819 0.47551 0.25779
 O922 O 0.73299 0.51509 0.27908
 O923 O 0.73371 0.47496 0.27953
 O924 O 0.76941 0.51493 0.26097
 Cu925 Cu 0.73176 0.49653 0.23692
 Cu926 Cu 0.75270 0.49497 0.27236
 C927 C 0.76678 0.52264 0.24312
 C928 C 0.71923 0.46827 0.26786
 C929 C 0.71835 0.52242 0.26776
 C930 C 0.76521 0.46954 0.23932
 O931 O 0.26024 -0.01833 0.70973
 O932 O 0.28982 0.02085 0.73624
 O933 O 0.29004 -0.01893 0.73677
 O934 O 0.25285 0.02060 0.71695
 O935 O 0.23297 0.01581 0.74456
 O936 O 0.27011 -0.02143 0.76462
 O937 O 0.26928 0.01866 0.76375
 O938 O 0.23998 -0.02312 0.73713
 Cu939 Cu 0.27486 0.00172 0.72241
 Cu940 Cu 0.25119 -0.00287 0.75511
 C941 C 0.24553 -0.02779 0.71868
 C942 C 0.28478 0.02680 0.75416
 C943 C 0.28594 -0.02717 0.75424
 C944 C 0.23640 0.02473 0.72755
 O945 O 0.24517 0.26588 0.97044
 O946 O 0.27782 0.24464 1.01260
 O947 O 0.27270 0.23660 0.97340
 O948 O 0.25095 0.27423 1.00933
 O949 O 0.22570 0.25257 1.01735
 O950 O 0.24747 0.21488 0.98122
 O951 O 0.25258 0.22294 1.02051
 O952 O 0.21988 0.24422 0.97829
 Cu953 Cu 0.26425 0.25743 0.99057
 Cu954 Cu 0.23384 0.23149 1.00013
 C955 C 0.22692 0.25868 0.96720
 C956 C 0.27071 0.23034 1.02387
 C957 C 0.26383 0.21949 0.97101
 C958 C 0.23468 0.26966 1.01966
 O959 O 0.25073 0.71688 0.47280
 O960 O 0.21850 0.73767 0.51621
 O961 O 0.21594 0.73811 0.47571
 O962 O 0.24816 0.71020 0.51287
 O963 O 0.26909 0.73664 0.51686
 O964 O 0.23741 0.76441 0.47710
 O965 O 0.23963 0.76419 0.51772
 O966 O 0.27229 0.74287 0.47648
 Cu967 Cu 0.23132 0.72322 0.49416
 Cu968 Cu 0.25673 0.75451 0.49719
 C969 C 0.26720 0.72662 0.46734
 C970 C 0.22377 0.75457 0.52437
 C971 C 0.22105 0.75576 0.46979
 C972 C 0.26363 0.71855 0.52168
 O973 O 0.27917 0.73592 -0.01725
 O974 O 0.25110 0.70740 0.02317
 O975 O 0.24568 0.71352 -0.01673
 O976 O 0.28343 0.73157 0.02273
 O977 O 0.26307 0.75844 0.02744
 O978 O 0.22479 0.73971 -0.01046
 O979 O 0.23092 0.73413 0.02933
 O980 O 0.25818 0.76240 -0.01264
 Cu981 Cu 0.26682 0.71940 0.00242
 Cu982 Cu 0.24221 0.75132 0.00902
 C983 C 0.27338 0.75381 -0.02209
 C984 C 0.23654 0.71593 0.03343
 C985 C 0.22896 0.72366 -0.02046
 C986 C 0.27955 0.74827 0.03182
 O987 O 0.22563 0.23768 0.47054
 O988 O 0.24718 0.27281 0.50930
 O989 O 0.25624 0.26379 0.47118
 O990 O 0.21618 0.24733 0.50878
 O991 O 0.23813 0.22346 0.51970
 O992 O 0.27795 0.23940 0.48131
 O993 O 0.26927 0.24877 0.51961
 O994 O 0.24717 0.21341 0.48136
 Cu995 Cu 0.23411 0.25777 0.48878
 Cu996 Cu 0.26024 0.22878 0.50159
 C997 C 0.23284 0.21965 0.46919
 C998 C 0.26187 0.26670 0.52114
 C999 C 0.27379 0.25453 0.46971
 C1000 C 0.22060 0.23282 0.52106
 O1001 O 0.76690 0.78902 0.98393
 O1002 O 0.79727 0.76134 1.02334
 O1003 O 0.79444 0.75981 0.98312
 O1004 O 0.76815 0.78909 1.02408
 O1005 O 0.74300 0.76603 1.02570
 O1006 O 0.76951 0.73651 0.98448
 O1007 O 0.77226 0.73816 1.02510
 O1008 O 0.74186 0.76580 0.98509
 Cu1009 Cu 0.78419 0.77709 1.00343
 Cu1010 Cu 0.75415 0.74924 1.00528
 C1011 C 0.74940 0.78218 0.97767
 C1012 C 0.78984 0.74519 1.03117
 C1013 C 0.78641 0.74335 0.97664
 C1014 C 0.75114 0.78254 1.03194
 O1015 O 0.73884 0.20815 0.48565
 O1016 O 0.70983 0.23648 0.52468
 O1017 O 0.72009 0.24431 0.48527
 O1018 O 0.73598 0.20657 0.52545
 O1019 O 0.76460 0.22485 0.53023
 O1020 O 0.74789 0.26294 0.49271
 O1021 O 0.73798 0.25499 0.53125
 O1022 O 0.76672 0.22773 0.48983
 Cu1023 Cu 0.72344 0.22255 0.50432
 Cu1024 Cu 0.75703 0.24438 0.51165
 C1025 C 0.75740 0.21309 0.48074
 C1026 C 0.71890 0.25017 0.53502
 C1027 C 0.73142 0.26006 0.48221
 C1028 C 0.75338 0.20959 0.53476
 O1029 O 0.80029 0.23021 -0.02568
 O1030 O 0.76913 0.20321 0.01383
 O1031 O 0.77047 0.20320 -0.02654
 O1032 O 0.79844 0.23061 0.01475
 O1033 O 0.77420 0.25478 0.01363
 O1034 O 0.74623 0.22737 -0.02780
 O1035 O 0.74500 0.22749 0.01263
 O1036 O 0.77603 0.25435 -0.02678
 Cu1037 Cu 0.78700 0.21437 -0.00582
 Cu1038 Cu 0.75796 0.24346 -0.00723
 C1039 C 0.79334 0.24685 -0.03308
 C1040 C 0.75190 0.21084 0.02010
 C1041 C 0.75368 0.21059 -0.03426
 C1042 C 0.79092 0.24727 0.02141
 O1043 O 0.79091 0.73938 0.48291
 O1044 O 0.76599 0.70816 0.52299
 O1045 O 0.76506 0.70988 0.48327
 O1046 O 0.78643 0.74366 0.52396
 O1047 O 0.75812 0.76306 0.52122
 O1048 O 0.73659 0.72924 0.48220
 O1049 O 0.73819 0.72846 0.52266
 O1050 O 0.76283 0.75928 0.48111
 Cu1051 Cu 0.77995 0.72387 0.50395
 Cu1052 Cu 0.74616 0.74692 0.50168
 C1053 C 0.78114 0.75426 0.47479
 C1054 C 0.74796 0.71294 0.52982
 C1055 C 0.74707 0.71416 0.47565
 C1056 C 0.77575 0.75920 0.52942
 O1057 O 1.01882 0.23534 0.24979
 O1058 O 0.98084 0.25682 0.21290
 O1059 O 1.01926 0.26566 0.22398
 O1060 O 0.98012 0.22720 0.23957
 O1061 O 0.96867 0.24834 0.26359
 O1062 O 1.00839 0.28643 0.24856
 O1063 O 0.96980 0.27797 0.23710
 O1064 O 1.00757 0.25600 0.27432
 Cu1065 Cu 1.00097 0.24421 0.22912
 Cu1066 Cu 0.98742 0.26929 0.25833
 C1067 C 1.01983 0.24197 0.26821
 C1068 C 0.96861 0.27090 0.21883
 C1069 C 1.02076 0.28240 0.23370
 C1070 C 0.96747 0.23143 0.25416
 O1071 O 0.48852 0.24203 0.70899
 O1072 O 0.52919 0.22063 0.74416
 O1073 O 0.48970 0.21299 0.73647
 O1074 O 0.52955 0.24478 0.71188
 O1075 O 0.52439 0.26948 0.73440
 O1076 O 0.48246 0.23748 0.75869
 O1077 O 0.52227 0.24509 0.76651
 O1078 O 0.48315 0.26684 0.73132
 Cu1079 Cu 0.50993 0.22779 0.72318
 Cu1080 Cu 0.50245 0.25709 0.74992
 C1081 C 0.47877 0.25812 0.71441
 C1082 C 0.53252 0.22935 0.76146
 C1083 C 0.47900 0.21972 0.75148
 C1084 C 0.53409 0.26222 0.71875
 O1085 O -0.01944 0.27725 0.75955
 O1086 O 0.02427 0.25805 0.72738
 O1087 O -0.01682 0.25727 0.72500
 O1088 O 0.02149 0.27540 0.76368
 O1089 O 0.02038 0.24578 0.77993
 O1090 O -0.01761 0.22780 0.74154
 O1091 O 0.02345 0.22851 0.74377
 O1092 O -0.02055 0.24781 0.77612
 Cu1093 Cu 0.00259 0.26995 0.74230
 Cu1094 Cu 0.00128 0.23454 0.76194
 C1095 C -0.02759 0.26576 0.77321
 C1096 C 0.03133 0.24013 0.72998
 C1097 C -0.02390 0.23932 0.72693
 C1098 C 0.02752 0.26367 0.77831
 O1099 O 0.51862 0.26155 0.27497
 O1100 O 0.47830 0.22509 0.25757
 O1101 O 0.51897 0.22544 0.25750
 O1102 O 0.47871 0.25454 0.28411
 O1103 O 0.47287 0.27348 0.25634
 O1104 O 0.51554 0.24443 0.22937
 O1105 O 0.47456 0.24375 0.22925
 O1106 O 0.51324 0.28017 0.24691
 Cu1107 Cu 0.49929 0.24017 0.27128
 Cu1108 Cu 0.49350 0.26232 0.23805
 C1109 C 0.52291 0.27702 0.26370
 C1110 C 0.46958 0.22842 0.24008
 C1111 C 0.52433 0.22968 0.23915
 C1112 C 0.46853 0.26852 0.27504
 O1113 O 1.02328 0.78291 0.75925
 O1114 O 0.98455 0.74788 0.78232
 O1115 O 1.02452 0.75530 0.78834
 O1116 O 0.98303 0.77637 0.75425
 O1117 O 0.99064 0.75315 0.73074
 O1118 O 1.03215 0.73238 0.76456
 O1119 O 0.99236 0.72480 0.75873
 O1120 O 1.03057 0.75975 0.73560
 Cu1121 Cu 1.00307 0.76793 0.77345
 Cu1122 Cu 1.01222 0.74021 0.74506
 C1123 C 1.03357 0.77717 0.74344
 C1124 C 0.98175 0.73045 0.77431
 C1125 C 1.03552 0.74034 0.78216
 C1126 C 0.97971 0.76823 0.73673
 O1127 O 0.52050 0.73193 0.26346
 O1128 O 0.47908 0.74988 0.22818
 O1129 O 0.52020 0.75090 0.22822
 O1130 O 0.47950 0.73419 0.26535
 O1131 O 0.47985 0.76432 0.28031
 O1132 O 0.52074 0.78083 0.24359
 O1133 O 0.47936 0.78001 0.24316
 O1134 O 0.52107 0.76178 0.27899
 Cu1135 Cu 0.49970 0.73875 0.24483
 Cu1136 Cu 0.50030 0.77475 0.26298
 C1137 C 0.52808 0.74372 0.27703
 C1138 C 0.47203 0.76787 0.22964
 C1139 C 0.52766 0.76873 0.22988
 C1140 C 0.47262 0.74643 0.27905
 O1141 O -0.03127 0.78019 0.27024
 O1142 O 0.00797 0.76296 0.23265
 O1143 O -0.03280 0.76079 0.23504
 O1144 O 0.01022 0.77836 0.26944
 O1145 O 0.01021 0.74848 0.28521
 O1146 O -0.03208 0.73093 0.25084
 O1147 O 0.00873 0.73294 0.24817
 O1148 O -0.03110 0.75024 0.28586
 Cu1149 Cu -0.01162 0.77362 0.25046
 Cu1150 Cu -0.01096 0.73770 0.26911
 C1151 C -0.03823 0.76826 0.28414
 C1152 C 0.01513 0.74501 0.23403
 C1153 C -0.03967 0.74272 0.23709
 C1154 C 0.01778 0.76616 0.28298
 O1155 O 0.48185 0.78996 0.75675
 O1156 O 0.52091 0.75428 0.73526
 O1157 O 0.48198 0.76328 0.72734
 O1158 O 0.52156 0.78175 0.76419
 O1159 O 0.51216 0.75834 0.78700
 O1160 O 0.47275 0.73970 0.75005
 O1161 O 0.51163 0.73096 0.75823
 O1162 O 0.47250 0.76640 0.77943
 Cu1163 Cu 0.50262 0.77475 0.74368
 Cu1164 Cu 0.49127 0.74656 0.77103
 C1165 C 0.47022 0.78404 0.77157
 C1166 C 0.52286 0.73655 0.74302
 C1167 C 0.47064 0.74825 0.73245
 C1168 C 0.52380 0.77312 0.78172
 C1169 C 0.40449 0.31047 0.28502
 C1170 C 0.41934 0.29781 0.29214
 C1171 C 0.43690 0.29072 0.27891
 C1172 C 0.45149 0.27830 0.28693
 H1173 H 0.41855 0.29244 0.30802
 H1174 H 0.43749 0.29503 0.26268
 H1175 H 0.40556 0.31619 0.26927
 H1176 H 0.45029 0.27403 0.30315
 C1177 C 0.40952 0.79782 0.81562
 C1178 C 0.42241 0.80448 0.80071
 C1179 C 0.44021 0.79168 0.79409
 C1180 C 0.45355 0.79766 0.77929
 H1181 H 0.41981 0.81905 0.79319
 H1182 H 0.44209 0.77677 0.80115
 H1183 H 0.41280 0.78324 0.82293
 H1184 H 0.45171 0.81251 0.77213
 C1185 C -0.08467 0.31414 0.78986
 C1186 C -0.07383 0.29718 0.79458
 C1187 C -0.05535 0.29080 0.78221
 C1188 C -0.04554 0.27302 0.78582
 H1189 H -0.07878 0.28767 0.80741
 H1190 H -0.05003 0.30057 0.76970
 H1191 H -0.07965 0.32341 0.77686
 H1192 H -0.05120 0.26316 0.79810
 C1193 C -0.09323 0.81672 0.30229
 C1194 C -0.08313 0.79951 0.30728
 C1195 C -0.06465 0.79318 0.29513
 C1196 C -0.05523 0.77515 0.29800
 H1197 H -0.08876 0.78987 0.31975
 H1198 H -0.05922 0.80322 0.28288
 H1199 H -0.08743 0.82597 0.28957
 H1200 H -0.06080 0.76488 0.30996
 C1201 C 0.58317 0.69444 0.29499
 C1202 C 0.57326 0.71187 0.29955
 C1203 C 0.55502 0.71864 0.28715
 C1204 C 0.54552 0.73659 0.29036
 H1205 H 0.57868 0.72127 0.31220
 H1206 H 0.54958 0.70887 0.27478
 H1207 H 0.57759 0.68534 0.28216
 H1208 H 0.55115 0.74655 0.30248
 C1209 C 0.59101 0.18467 0.78130
 C1210 C 0.57790 0.19978 0.78618
 C1211 C 0.56093 0.20579 0.77181
 C1212 C 0.54861 0.22172 0.77597
 H1213 H 0.58004 0.20816 0.80044
 H1214 H 0.55895 0.19753 0.75744
 H1215 H 0.58871 0.17651 0.76691
 H1216 H 0.55080 0.22996 0.79032
 C1217 C 1.09429 0.69398 0.79547
 C1218 C 1.08230 0.70921 0.80248
 C1219 C 1.06528 0.71740 0.78927
 C1220 C 1.05245 0.73230 0.79559
 H1221 H 1.08479 0.71538 0.81782
 H1222 H 1.06321 0.71099 0.77395
 H1223 H 1.09136 0.68801 0.78010
 H1224 H 1.05452 0.73888 0.81082
 C1225 C 1.07825 0.19625 0.28357
 C1226 C 1.06588 0.21139 0.29007
 C1227 C 1.04891 0.21891 0.27657
 C1228 C 1.03573 0.23365 0.28252
 H1229 H 1.06831 0.21831 0.30508
 H1230 H 1.04747 0.21249 0.26119
 H1231 H 1.07526 0.18930 0.26865
 H1232 H 1.03700 0.24006 0.29791
 C1233 C 0.58866 0.31546 0.70854
 C1234 C 0.57797 0.29898 0.70254
 C1235 C 0.56000 0.29055 0.71443
 C1236 C 0.55099 0.27335 0.70791
 H1237 H 0.58278 0.29108 0.68863
 H1238 H 0.55472 0.29785 0.72853
 H1239 H 0.58380 0.32353 0.72235
 H1240 H 0.55697 0.26628 0.69393
 C1241 C 0.58431 0.81507 0.20982
 C1242 C 0.57341 0.79819 0.20578
 C1243 C 0.55519 0.79259 0.21874
 C1244 C 0.54486 0.77512 0.21598
 H1245 H 0.57806 0.78829 0.19319
 H1246 H 0.55059 0.80270 0.23119
 H1247 H 0.57946 0.82472 0.22256
 H1248 H 0.54972 0.76482 0.20379
 C1249 C 1.08156 0.29974 0.19215
 C1250 C 1.06874 0.30615 0.20717
 C1251 C 1.04998 0.29373 0.21186
 C1252 C 1.03747 0.29703 0.22813
 H1253 H 1.07265 0.31930 0.21644
 H1254 H 1.04697 0.28063 0.20214
 H1255 H 1.07730 0.28618 0.18362
 H1256 H 1.04014 0.31005 0.23802
 C1257 C 1.08871 0.79195 0.69316
 C1258 C 1.07768 0.79801 0.70964
 C1259 C 1.06051 0.78534 0.71767
 C1260 C 1.04947 0.79075 0.73439
 H1261 H 1.08159 0.81198 0.71755
 H1262 H 1.05730 0.77098 0.71010
 H1263 H 1.08442 0.77803 0.68529
 H1264 H 1.05260 0.80513 0.74194
 C1265 C 0.41563 0.70093 0.71258
 C1266 C 0.42665 0.71752 0.70781
 C1267 C 0.44303 0.72460 0.72208
 C1268 C 0.45477 0.74086 0.71778
 H1269 H 0.42355 0.72591 0.69364
 H1270 H 0.44540 0.71638 0.73652
 H1271 H 0.41915 0.69269 0.72678
 H1272 H 0.45260 0.74898 0.70327
 C1273 C 0.41504 0.21039 0.19038
 C1274 C 0.42588 0.20552 0.20748
 C1275 C 0.44305 0.21852 0.21469
 C1276 C 0.45326 0.21458 0.23241
 H1277 H 0.42194 0.19214 0.21649
 H1278 H 0.44706 0.23183 0.20552
 H1279 H 0.41907 0.22395 0.18164
 H1280 H 0.44917 0.20137 0.24168
 C1281 C -0.09224 0.69224 0.21642
 C1282 C -0.08279 0.71001 0.21242
 C1283 C -0.06543 0.71711 0.22578
 C1284 C -0.05671 0.73551 0.22338
 H1285 H -0.08799 0.71946 0.19960
 H1286 H -0.05989 0.70712 0.23805
 H1287 H -0.08705 0.68322 0.22958
 H1288 H -0.06239 0.74564 0.21129
 C1289 C -0.07699 0.19005 0.70837
 C1290 C -0.06682 0.20690 0.70264
 C1291 C -0.04857 0.21356 0.71481
 C1292 C -0.04010 0.23200 0.71247
 H1293 H -0.07262 0.21627 0.69000
 H1294 H -0.04273 0.20348 0.72689
 H1295 H -0.07131 0.18132 0.72155
 H1296 H -0.04599 0.24227 0.70061
 C1297 C 0.27652 0.41624 0.30840
 C1298 C 0.28405 0.43006 0.29522
 C1299 C 0.27090 0.44681 0.28727
 C1300 C 0.27803 0.45792 0.27147
 H1301 H 0.29986 0.42838 0.28914
 H1302 H 0.25515 0.44919 0.29329
 H1303 H 0.26070 0.41791 0.31449
 H1304 H 0.29361 0.45479 0.26533
 C1305 C 0.29695 -0.08100 0.80515
 C1306 C 0.30461 -0.07183 0.78814
 C1307 C 0.29341 -0.05386 0.77978
 C1308 C 0.29908 -0.04404 0.76240
 H1309 H 0.31857 -0.07750 0.78041
 H1310 H 0.27950 -0.04880 0.78807
 H1311 H 0.28290 -0.07474 0.81231
 H1312 H 0.31276 -0.04898 0.75372
 C1313 C 0.78547 0.41950 0.80930
 C1314 C 0.79229 0.43364 0.79599
 C1315 C 0.77908 0.45137 0.79016
 C1316 C 0.78617 0.46446 0.77595
 H1317 H 0.80759 0.43194 0.78876
 H1318 H 0.76344 0.45319 0.79666
 H1319 H 0.77018 0.42154 0.81650
 H1320 H 0.80171 0.46195 0.76940
 C1321 C 0.78297 -0.07356 0.30851
 C1322 C 0.78980 -0.06255 0.29235
 C1323 C 0.77789 -0.04434 0.28576
 C1324 C 0.78238 -0.03415 0.26831
 H1325 H 0.80368 -0.06706 0.28374
 H1326 H 0.76456 -0.03961 0.29510
 H1327 H 0.76881 -0.06869 0.31652
 H1328 H 0.79531 -0.03912 0.25858
 C1329 C 0.30311 0.58602 0.69774
 C1330 C 0.28893 0.57313 0.69008
 C1331 C 0.28315 0.55539 0.70295
 C1332 C 0.26925 0.54129 0.69721
 H1333 H 0.28198 0.57555 0.67493
 H1334 H 0.29046 0.55405 0.71809
 H1335 H 0.30982 0.58282 0.71289
 H1336 H 0.26146 0.54245 0.68230
 C1337 C 0.31484 1.08461 0.21487
 C1338 C 0.29892 1.07197 0.21144
 C1339 C 0.29462 1.05521 0.22598
 C1340 C 0.27810 1.04316 0.22309
 H1341 H 0.28881 1.07413 0.19807
 H1342 H 0.30464 1.05311 0.23944
 H1343 H 0.32487 1.08221 0.22827
 H1344 H 0.26801 1.04561 0.20974
 C1345 C 0.78752 0.57761 0.19616
 C1346 C 0.79192 0.56656 0.21303
 C1347 C 0.77857 0.54901 0.21851
 C1348 C 0.78104 0.53905 0.23643
 H1349 H 0.80467 0.57092 0.22321
 H1350 H 0.76599 0.54470 0.20808
 H1351 H 0.77439 0.57321 0.18644
 H1352 H 0.79348 0.54357 0.24693
 C1353 C 0.80715 1.07862 0.71183
 C1354 C 0.79278 1.06631 0.70365
 C1355 C 0.78516 1.04854 0.71531
 C1356 C 0.76981 1.03700 0.70769
 H1357 H 0.78608 1.06965 0.68857
 H1358 H 0.79156 1.04539 0.73058
 H1359 H 0.81376 1.07509 0.72693
 H1360 H 0.76334 1.04044 0.69251
 C1361 C 0.70375 0.57953 0.31360
 C1362 C 0.69743 0.56791 0.29792
 C1363 C 0.70967 0.54973 0.29218
 C1364 C 0.70497 0.53918 0.27520
 H1365 H 0.68364 0.57208 0.28894
 H1366 H 0.72331 0.54552 0.30139
 H1367 H 0.71767 0.57517 0.32232
 H1368 H 0.69172 0.54383 0.26568
 C1369 C 0.70805 1.07576 0.80545
 C1370 C 0.70186 1.06545 0.78866
 C1371 C 0.71339 1.04721 0.78189
 C1372 C 0.70820 1.03752 0.76444
 H1373 H 0.68885 1.07083 0.77925
 H1374 H 0.72695 1.04224 0.79082
 H1375 H 0.72099 1.06987 0.81470
 H1376 H 0.69465 1.04252 0.75552
 C1377 C 0.21527 0.57986 0.79985
 C1378 C 0.20745 0.56754 0.78541
 C1379 C 0.22072 0.55103 0.77720
 C1380 C 0.21438 0.53911 0.76171
 H1381 H 0.19178 0.56997 0.77923
 H1382 H 0.23637 0.54900 0.78363
 H1383 H 0.23110 0.57724 0.80560
 H1384 H 0.19876 0.54104 0.75520
 C1385 C 0.19353 1.08097 0.29648
 C1386 C 0.21049 1.07108 0.30344
 C1387 C 0.21836 1.05315 0.29218
 C1388 C 0.23656 1.04432 0.29732
 H1389 H 0.21894 1.07652 0.31690
 H1390 H 0.20963 1.04769 0.27888
 H1391 H 0.18548 1.07536 0.28283
 H1392 H 0.24551 1.05011 0.31032
 C1393 C 0.71927 0.42111 0.69506
 C1394 C 0.71125 0.43628 0.70617
 C1395 C 0.72449 0.45366 0.71222
 C1396 C 0.71677 0.46781 0.72485
 H1397 H 0.69498 0.43568 0.71118
 H1398 H 0.74089 0.45416 0.70750
 H1399 H 0.73547 0.42198 0.68985
 H1400 H 0.70058 0.46660 0.73006
 C1401 C 0.70770 -0.07557 0.18953
 C1402 C 0.70162 -0.06415 0.20560
 C1403 C 0.71349 -0.04570 0.21123
 C1404 C 0.70893 -0.03502 0.22829
 H1405 H 0.68818 -0.06855 0.21490
 H1406 H 0.72670 -0.04123 0.20161
 H1407 H 0.72132 -0.07101 0.18054
 H1408 H 0.69609 -0.03983 0.23822
 C1409 C 0.21049 0.41175 0.18231
 C1410 C 0.20454 0.42456 0.19716
 C1411 C 0.21768 0.44212 0.20306
 C1412 C 0.21061 0.45504 0.21734
 H1413 H 0.18973 0.42212 0.20511
 H1414 H 0.23316 0.44410 0.19630
 H1415 H 0.22495 0.41459 0.17388
 H1416 H 0.19514 0.45253 0.22398
 C1417 C 0.20081 -0.08849 0.70908
 C1418 C 0.21485 -0.07505 0.70211
 C1419 C 0.22206 -0.05784 0.71497
 C1420 C 0.23564 -0.04446 0.70703
 H1421 H 0.22125 -0.07674 0.68664
 H1422 H 0.21680 -0.05645 0.73088
 H1423 H 0.19404 -0.08649 0.72436
 H1424 H 0.24075 -0.04635 0.69111
 C1425 C 0.29162 0.29904 0.41290
 C1426 C 0.29891 0.28408 0.42500
 C1427 C 0.28601 0.27813 0.44303
 C1428 C 0.28925 0.26112 0.45398
 H1429 H 0.31303 0.27569 0.42095
 H1430 H 0.27244 0.28753 0.44668
 H1431 H 0.27698 0.30650 0.41711
 H1432 H 0.30278 0.25155 0.45077
 C1433 C 0.28387 0.80735 -0.07511
 C1434 C 0.28991 0.79020 -0.06550
 C1435 C 0.27837 0.78178 -0.04757
 C1436 C 0.28459 0.76412 -0.03910
 H1437 H 0.30356 0.78193 -0.07102
 H1438 H 0.26462 0.78967 -0.04167
 H1439 H 0.27029 0.81568 -0.06948
 H1440 H 0.29820 0.75634 -0.04547
 C1441 C 0.79903 0.29809 -0.08731
 C1442 C 0.80845 0.28303 -0.07688
 C1443 C 0.79780 0.27389 -0.05889
 C1444 C 0.80529 0.25721 -0.04953
 H1445 H 0.82341 0.27691 -0.08202
 H1446 H 0.78296 0.28042 -0.05385
 H1447 H 0.78392 0.30379 -0.08201
 H1448 H 0.81996 0.25046 -0.05471
 C1449 C 0.78349 0.80507 0.41864
 C1450 C 0.79255 0.78986 0.42921
 C1451 C 0.78190 0.78023 0.44701
 C1452 C 0.79134 0.76526 0.45762
 H1453 H 0.80798 0.78436 0.42474
 H1454 H 0.76618 0.78517 0.45121
 H1455 H 0.76820 0.81069 0.42344
 H1456 H 0.80703 0.76042 0.45318
 C1457 C 0.71271 0.29663 0.59335
 C1458 C 0.70370 0.28265 0.58147
 C1459 C 0.71573 0.27358 0.56434
 C1460 C 0.70700 0.26007 0.55171
 H1461 H 0.68758 0.27804 0.58422
 H1462 H 0.73203 0.27792 0.56215
 H1463 H 0.72874 0.30128 0.59005
 H1464 H 0.69072 0.25571 0.55397
 C1465 C 0.69922 0.79486 1.08737
 C1466 C 0.71585 0.80079 1.07618
 C1467 C 0.72420 0.78837 1.05903
 C1468 C 0.74126 0.79448 1.04860
 H1469 H 0.72367 0.81495 1.07977
 H1470 H 0.71666 0.77411 1.05520
 H1471 H 0.69143 0.78070 1.08366
 H1472 H 0.74870 0.80871 1.05276
 C1473 C 0.19297 0.28542 1.08029
 C1474 C 0.20537 0.29251 1.06527
 C1475 C 0.21133 0.27913 1.04810
 C1476 C 0.22666 0.28420 1.03498
 H1477 H 0.21194 0.30767 1.06612
 H1478 H 0.20392 0.26433 1.04698
 H1479 H 0.18693 0.27004 1.07936
 H1480 H 0.23444 0.29879 1.03640
 C1481 C 0.21240 0.80400 0.58049
 C1482 C 0.20585 0.78749 0.57017
 C1483 C 0.21750 0.77976 0.55199
 C1484 C 0.21156 0.76286 0.54196
 H1485 H 0.19195 0.77938 0.57523
 H1486 H 0.23142 0.78791 0.54698
 H1487 H 0.22637 0.81193 0.57525
 H1488 H 0.19776 0.75461 0.54712
 C1489 C 0.30903 0.71031 0.58294
 C1490 C 0.29575 0.70257 0.56907
 C1491 C 0.28791 0.71491 0.55150
 C1492 C 0.27446 0.70681 0.53800
 H1493 H 0.29031 0.68705 0.57082
 H1494 H 0.29233 0.73078 0.55016
 H1495 H 0.31479 0.72569 0.58086
 H1496 H 0.26992 0.69101 0.53988
 C1497 C 0.28501 0.18683 1.08471
 C1498 C 0.29081 0.20177 1.07178
 C1499 C 0.27746 0.20807 1.05416
 C1500 C 0.28378 0.22274 1.04115
 H1501 H 0.30557 0.20960 1.07419
 H1502 H 0.26228 0.20088 1.05200
 H1503 H 0.27038 0.17884 1.08200
 H1504 H 0.29898 0.22982 1.04349
 C1505 C 0.79566 0.69647 1.08805
 C1506 C 0.80476 0.71102 1.07677
 C1507 C 0.79382 0.71938 1.05849
 C1508 C 0.80169 0.73507 1.04790
 H1509 H 0.81982 0.71723 1.08134
 H1510 H 0.77862 0.71319 1.05424
 H1511 H 0.78054 0.69051 1.08323
 H1512 H 0.81674 0.74142 1.05236
 C1513 C 0.80319 0.19385 0.58951
 C1514 C 0.78580 0.18777 0.57965
 C1515 C 0.77848 0.19957 0.56158
 C1516 C 0.76053 0.19573 0.55144
 H1517 H 0.77693 0.17475 0.58506
 H1518 H 0.78799 0.21244 0.55683
 H1519 H 0.81158 0.20707 0.58378
 H1520 H 0.75074 0.18299 0.55597
 C1521 C 0.69695 0.70383 0.41944
 C1522 C 0.71341 0.69673 0.43026
 C1523 C 0.72118 0.70782 0.44840
 C1524 C 0.73855 0.70192 0.45859
 H1525 H 0.72146 0.68294 0.42563
 H1526 H 0.71285 0.72147 0.45309
 H1527 H 0.68916 0.71773 0.42425
 H1528 H 0.74715 0.68850 0.45369
 C1529 C 0.70038 0.20087 -0.08906
 C1530 C 0.71731 0.19453 -0.07843
 C1531 C 0.72601 0.20614 -0.06091
 C1532 C 0.74325 0.19938 -0.05107
 H1533 H 0.72527 0.18063 -0.08286
 H1534 H 0.71866 0.22037 -0.05641
 H1535 H 0.69229 0.21468 -0.08446
 H1536 H 0.75042 0.18515 -0.05585
 C1537 C 0.21482 0.68788 -0.08455
 C1538 C 0.20678 0.69902 -0.06923
 C1539 C 0.22010 0.70365 -0.05116
 C1540 C 0.21443 0.71734 -0.03700
 H1541 H 0.19090 0.70504 -0.07024
 H1542 H 0.23544 0.69639 -0.05001
 H1543 H 0.23094 0.68249 -0.08329
 H1544 H 0.19945 0.72518 -0.03848
 C1545 C 0.18861 0.20522 0.40924
 C1546 C 0.20367 0.19873 0.42214
 C1547 C 0.21050 0.21191 0.43925
 C1548 C 0.22497 0.20588 0.45301
 H1549 H 0.21098 0.18396 0.42005
 H1550 H 0.20377 0.22706 0.44036
 H1551 H 0.18134 0.21994 0.41187
 H1552 H 0.23170 0.19073 0.45200
 C1553 C 0.29108 0.41162 0.68118
 C1554 C 0.29780 0.42532 0.69489
 C1555 C 0.28409 0.44247 0.70093
 C1556 C 0.29060 0.45655 0.71435
 H1557 H 0.31327 0.42381 0.70181
 H1558 H 0.26823 0.44325 0.69474
 H1559 H 0.27571 0.41358 0.67412
 H1560 H 0.30641 0.45563 0.72062
 C1561 C 0.28504 0.91617 0.19610
 C1562 C 0.29367 0.92889 0.20970
 C1563 C 0.28185 0.94611 0.21848
 C1564 C 0.29124 0.95829 0.23211
 H1565 H 0.30974 0.92648 0.21476
 H1566 H 0.26544 0.94836 0.21443
 H1567 H 0.26915 0.91886 0.19059
 H1568 H 0.30764 0.95564 0.23604
 C1569 C 0.78108 0.41796 0.18746
 C1570 C 0.78698 0.42777 0.20459
 C1571 C 0.77451 0.44495 0.21240
 C1572 C 0.77864 0.45336 0.23078
 H1573 H 0.80064 0.42280 0.21330
 H1574 H 0.76127 0.45033 0.20326
 H1575 H 0.76712 0.42287 0.17914
 H1576 H 0.79163 0.44770 0.24009
 C1577 C 0.78616 0.90874 0.68412
 C1578 C 0.79072 0.92171 0.69932
 C1579 C 0.77648 0.93862 0.70471
 C1580 C 0.78130 0.95089 0.72043
 H1581 H 0.80504 0.91973 0.70822
 H1582 H 0.76187 0.94067 0.69626
 H1583 H 0.77193 0.91092 0.67508
 H1584 H 0.79589 0.94846 0.72884
 C1585 C 0.68900 0.59529 0.71706
 C1586 C 0.70381 0.58218 0.71095
 C1587 C 0.71113 0.56537 0.72450
 C1588 C 0.72661 0.55321 0.71798
 H1589 H 0.71087 0.58394 0.69576
 H1590 H 0.70436 0.56328 0.73978
 H1591 H 0.68191 0.59343 0.73223
 H1592 H 0.73329 0.55588 0.70272
 C1593 C 0.69866 0.09014 0.18836
 C1594 C 0.69450 0.08017 0.20593
 C1595 C 0.70762 0.06238 0.21166
 C1596 C 0.70548 0.05280 0.22981
 H1597 H 0.68215 0.08541 0.21621
 H1598 H 0.71986 0.05748 0.20104
 H1599 H 0.71134 0.08465 0.17859
 H1600 H 0.69345 0.05780 0.24058
 C1601 C 0.18881 0.58900 0.21285
 C1602 C 0.20071 0.57476 0.20403
 C1603 C 0.20699 0.55659 0.21600
 C1604 C 0.21910 0.54230 0.20755
 H1605 H 0.20565 0.57644 0.18804
 H1606 H 0.20245 0.55533 0.23216
 H1607 H 0.18348 0.58678 0.22866
 H1608 H 0.22423 0.54403 0.19162
 C1609 C 0.21398 0.08244 0.68503
 C1610 C 0.20919 0.06881 0.69959
 C1611 C 0.22374 0.05179 0.70399
 C1612 C 0.22109 0.04025 0.72080
 H1613 H 0.19536 0.07096 0.70919
 H1614 H 0.23735 0.04946 0.69414
 H1615 H 0.22825 0.08040 0.67603
 H1616 H 0.20759 0.04295 0.73072
 C1617 C 0.30721 0.58501 0.27529
 C1618 C 0.29272 0.57162 0.28127
 C1619 C 0.28601 0.55469 0.26791
 C1620 C 0.27096 0.54230 0.27475
 H1621 H 0.28542 0.57322 0.29635
 H1622 H 0.29262 0.55284 0.25254
 H1623 H 0.31491 0.58324 0.26041
 H1624 H 0.26441 0.54485 0.29005
 C1625 C 0.30055 0.08144 0.80418
 C1626 C 0.30517 0.07118 0.78694
 C1627 C 0.29260 0.05331 0.78055
 C1628 C 0.29726 0.04357 0.76300
 H1629 H 0.31809 0.07617 0.77723
 H1630 H 0.27923 0.04855 0.78979
 H1631 H 0.28769 0.07620 0.81385
 H1632 H 0.31057 0.04878 0.75391
 C1633 C 0.81653 0.59324 0.78663
 C1634 C 0.80334 0.57874 0.79285
 C1635 C 0.79627 0.56239 0.77891
 C1636 C 0.78152 0.54957 0.78564
 H1637 H 0.79700 0.57928 0.80841
 H1638 H 0.80208 0.56156 0.76314
 H1639 H 0.82314 0.59266 0.77118
 H1640 H 0.77565 0.55125 0.80136
 C1641 C 0.79145 0.08969 0.30779
 C1642 C 0.79528 0.07969 0.29022
 C1643 C 0.78162 0.06251 0.28426
 C1644 C 0.78379 0.05307 0.26610
 H1645 H 0.80804 0.08434 0.28014
 H1646 H 0.76920 0.05786 0.29476
 H1647 H 0.77843 0.08485 0.31747
 H1648 H 0.79601 0.05792 0.25547
 C1649 C 0.70320 0.41223 0.31561
 C1650 C 0.69793 0.42267 0.29850
 C1651 C 0.70986 0.44104 0.29251
 C1652 C 0.70604 0.45107 0.27478
 H1653 H 0.68525 0.41747 0.28865
 H1654 H 0.72254 0.44599 0.30252
 H1655 H 0.71592 0.41774 0.32525
 H1656 H 0.69363 0.44589 0.26457
 C1657 C 0.71239 0.91625 0.81403
 C1658 C 0.70543 0.92701 0.79781
 C1659 C 0.71749 0.94396 0.78890
 C1660 C 0.71070 0.95280 0.77146
 H1661 H 0.69080 0.92286 0.79035
 H1662 H 0.73223 0.94852 0.79594
 H1663 H 0.72685 0.92057 0.82174
 H1664 H 0.69612 0.94772 0.76448
 C1665 C 0.19720 0.41706 0.78499
 C1666 C 0.21314 0.42930 0.78977
 C1667 C 0.21864 0.44594 0.77545
 C1668 C 0.23534 0.45778 0.77858
 H1669 H 0.22247 0.42664 0.80359
 H1670 H 0.20915 0.44811 0.76164
 H1671 H 0.18828 0.41994 0.77093
 H1672 H 0.24487 0.45574 0.79238
 C1673 C 0.19687 0.92191 0.30209
 C1674 C 0.21519 0.93036 0.30738
 C1675 C 0.22219 0.94877 0.29643
 C1676 C 0.24087 0.95743 0.29993
 H1677 H 0.22522 0.92343 0.31904
 H1678 H 0.21199 0.95487 0.28442
 H1679 H 0.18712 0.92917 0.29038
 H1680 H 0.25121 0.95152 0.31190
 C1681 C 0.42088 0.30587 0.70042
 C1682 C 0.43246 0.28986 0.69443
 C1683 C 0.45048 0.28269 0.70685
 C1684 C 0.46184 0.26640 0.70119
 H1685 H 0.42848 0.28167 0.68046
 H1686 H 0.45409 0.29051 0.72116
 H1687 H 0.42519 0.31411 0.71429
 H1688 H 0.45812 0.25853 0.68693
 C1689 C 0.41507 0.81365 0.20777
 C1690 C 0.42644 0.79691 0.20420
 C1691 C 0.44460 0.79183 0.21757
 C1692 C 0.45491 0.77420 0.21556
 H1693 H 0.42204 0.78665 0.19186
 H1694 H 0.44910 0.80233 0.22968
 H1695 H 0.41957 0.82358 0.22037
 H1696 H 0.45005 0.76359 0.20369
 C1697 C 0.90670 0.31192 0.20301
 C1698 C 0.92071 0.29821 0.19658
 C1699 C 0.93804 0.29207 0.21035
 C1700 C 0.95248 0.27854 0.20442
 H1701 H 0.91931 0.29140 0.18138
 H1702 H 0.93859 0.29832 0.22587
 H1703 H 0.90858 0.31884 0.21812
 H1704 H 0.95187 0.27220 0.18895
 C1705 C 0.91921 0.81207 0.71868
 C1706 C 0.93276 0.79714 0.71402
 C1707 C 0.94996 0.79114 0.72813
 C1708 C 0.96292 0.77587 0.72302
 H1709 H 0.93108 0.78889 0.69964
 H1710 H 0.95174 0.79888 0.74282
 H1711 H 0.92108 0.82045 0.73297
 H1712 H 0.96084 0.76825 0.70829
 C1713 C 0.57962 0.29628 0.30937
 C1714 C 0.56885 0.30112 0.29237
 C1715 C 0.55065 0.28842 0.28699
 C1716 C 0.53964 0.29123 0.26968
 H1717 H 0.57372 0.31358 0.28243
 H1718 H 0.54660 0.27587 0.29721
 H1719 H 0.57430 0.28356 0.31877
 H1720 H 0.54350 0.30368 0.25929
 C1721 C 0.58391 0.81572 0.79922
 C1722 C 0.57117 0.80046 0.80452
 C1723 C 0.55323 0.79522 0.79120
 C1724 C 0.54041 0.77984 0.79598
 H1725 H 0.57433 0.79139 0.81824
 H1726 H 0.55096 0.80362 0.77687
 H1727 H 0.58041 0.82473 0.78551
 H1728 H 0.54266 0.77147 0.81033
 C1729 C 0.08099 0.31129 0.79962
 C1730 C 0.07045 0.29448 0.80457
 C1731 C 0.05196 0.28891 0.79211
 C1732 C 0.04351 0.27042 0.79325
 H1733 H 0.07640 0.28416 0.81636
 H1734 H 0.04616 0.29968 0.78064
 H1735 H 0.07520 0.32089 0.78712
 H1736 H 0.04937 0.25952 0.80455
 C1737 C 0.07771 0.80986 0.29921
 C1738 C 0.06611 0.79379 0.30463
 C1739 C 0.04700 0.78891 0.29252
 C1740 C 0.03583 0.77206 0.29608
 H1741 H 0.07083 0.78418 0.31751
 H1742 H 0.04243 0.79899 0.27994
 H1743 H 0.07266 0.81909 0.28614
 H1744 H 0.04071 0.76171 0.30830
 C1745 C 0.57922 0.71830 0.69530
 C1746 C 0.56683 0.71288 0.71103
 C1747 C 0.55012 0.72671 0.71811
 C1748 C 0.53846 0.72221 0.73467
 H1749 H 0.56953 0.69872 0.71928
 H1750 H 0.54783 0.74108 0.71007
 H1751 H 0.57641 0.73264 0.68735
 H1752 H 0.54068 0.70778 0.74260
 C1753 C 0.57925 0.21336 0.18788
 C1754 C 0.56819 0.20829 0.20469
 C1755 C 0.55044 0.22112 0.21182
 C1756 C 0.54107 0.21706 0.22987
 H1757 H 0.57273 0.19504 0.21372
 H1758 H 0.54556 0.23423 0.20274
 H1759 H 0.57474 0.22682 0.17914
 H1760 H 0.54654 0.20412 0.23892
 C1761 C 0.06803 0.69692 0.21098
 C1762 C 0.05807 0.71441 0.20725
 C1763 C 0.04006 0.72007 0.22031
 C1764 C 0.03141 0.73853 0.21928
 H1765 H 0.06380 0.72488 0.19552
 H1766 H 0.03449 0.70923 0.23177
 H1767 H 0.06229 0.68697 0.22317
 H1768 H 0.03705 0.74947 0.20797
 C1769 C 0.08689 0.19163 0.70960
 C1770 C 0.07614 0.20876 0.70559
 C1771 C 0.05860 0.21519 0.71925
 C1772 C 0.04881 0.23310 0.71660
 H1773 H 0.08038 0.21819 0.69244
 H1774 H 0.05382 0.20522 0.73180
 H1775 H 0.08261 0.18261 0.72304
 H1776 H 0.05395 0.24319 0.70429
 C1777 C 0.42143 0.69655 0.30150
 C1778 C 0.42936 0.71498 0.30500
 C1779 C 0.44825 0.72114 0.29324
 C1780 C 0.45563 0.74013 0.29328
 H1781 H 0.42130 0.72566 0.31501
 H1782 H 0.45565 0.70997 0.28325
 H1783 H 0.42955 0.68660 0.29075
 H1784 H 0.44848 0.75146 0.30322
 C1785 C 0.41671 0.20631 0.79424
 C1786 C 0.43086 0.19934 0.78075
 C1787 C 0.44840 0.21263 0.77407
 C1788 C 0.46228 0.20650 0.75990
 H1789 H 0.42933 0.18418 0.77440
 H1790 H 0.44958 0.22784 0.78040
 H1791 H 0.41862 0.22157 0.80028
 H1792 H 0.46084 0.19136 0.75345
 C1793 C 0.92177 0.71467 0.81879
 C1794 C 0.93524 0.70884 0.80411
 C1795 C 0.95298 0.72189 0.79816
 C1796 C 0.96563 0.71666 0.78256
 H1797 H 0.93271 0.69482 0.79572
 H1798 H 0.95503 0.73637 0.80588
 H1799 H 0.92457 0.72864 0.82721
 H1800 H 0.96339 0.70221 0.77483
 C1801 C 0.90546 0.21337 0.29413
 C1802 C 0.91915 0.20727 0.27973
 C1803 C 0.93532 0.22179 0.27264
 C1804 C 0.95113 0.21657 0.26006
 H1805 H 0.91920 0.19169 0.27429
 H1806 H 0.93454 0.23725 0.27841
 H1807 H 0.90646 0.22883 0.29986
 H1808 H 0.95201 0.20128 0.25389
 C1809 C 0.30750 0.28280 0.57979
 C1810 C 0.29197 0.28849 0.56705
 C1811 C 0.28503 0.27490 0.55036
 C1812 C 0.26997 0.28057 0.53706
 H1813 H 0.28426 0.30310 0.56893
 H1814 H 0.29210 0.25990 0.54920
 H1815 H 0.31529 0.26828 0.57748
 H1816 H 0.26298 0.29560 0.53823
 C1817 C 0.29646 0.79774 0.08471
 C1818 C 0.30274 0.78070 0.07530
 C1819 C 0.29017 0.77330 0.05767
 C1820 C 0.29401 0.75572 0.04801
 H1821 H 0.31626 0.77218 0.08084
 H1822 H 0.27672 0.78239 0.05286
 H1823 H 0.28266 0.80566 0.07883
 H1824 H 0.30739 0.74642 0.05252
 C1825 C 0.79437 0.29881 0.07575
 C1826 C 0.80363 0.28326 0.06604
 C1827 C 0.79351 0.27401 0.04783
 C1828 C 0.80167 0.25759 0.03864
 H1829 H 0.81837 0.27705 0.07172
 H1830 H 0.77879 0.28040 0.04226
 H1831 H 0.77955 0.30471 0.06990
 H1832 H 0.81622 0.25103 0.04444
 C1833 C 0.82163 0.77973 0.58687
 C1834 C 0.80562 0.78346 0.57400
 C1835 C 0.80025 0.76940 0.55715
 C1836 C 0.78326 0.77305 0.54555
 H1837 H 0.79594 0.79690 0.57610
 H1838 H 0.80970 0.75585 0.55467
 H1839 H 0.83132 0.76630 0.58466
 H1840 H 0.77382 0.78652 0.54852
 C1841 C 0.28575 0.68355 0.40743
 C1842 C 0.29035 0.69882 0.42025
 C1843 C 0.27635 0.70397 0.43786
 C1844 C 0.28080 0.71970 0.45016
 H1845 H 0.30438 0.70780 0.41765
 H1846 H 0.26220 0.69516 0.44049
 H1847 H 0.27166 0.67468 0.41023
 H1848 H 0.29490 0.72847 0.44713
 C1849 C 0.30782 0.20519 0.91183
 C1850 C 0.29466 0.19748 0.92588
 C1851 C 0.28827 0.21012 0.94349
 C1852 C 0.27215 0.20507 0.95569
 H1853 H 0.28777 0.18258 0.92380
 H1854 H 0.29609 0.22461 0.94564
 H1855 H 0.31400 0.22040 0.91396
 H1856 H 0.26407 0.19075 0.95345
 C1857 C 0.79272 0.69348 0.91962
 C1858 C 0.80007 0.70881 0.93113
 C1859 C 0.78905 0.71671 0.94956
 C1860 C 0.79705 0.73276 0.95952
 H1861 H 0.81453 0.71628 0.92663
 H1862 H 0.77420 0.71013 0.95434
 H1863 H 0.77863 0.68546 0.92434
 H1864 H 0.81178 0.73923 0.95420
 C1865 C 0.80941 0.20322 0.42546
 C1866 C 0.79284 0.19671 0.43626
 C1867 C 0.78516 0.20776 0.45457
 C1868 C 0.76755 0.20170 0.46395
 H1869 H 0.78438 0.18330 0.43130
 H1870 H 0.79328 0.22129 0.45975
 H1871 H 0.81789 0.21659 0.43054
 H1872 H 0.75936 0.18842 0.45821
 C1873 C 0.69629 0.27983 0.41825
 C1874 C 0.70881 0.28537 0.43374
 C1875 C 0.71243 0.27102 0.45101
 C1876 C 0.72612 0.27506 0.46603
 H1877 H 0.71610 0.30024 0.43377
 H1878 H 0.70426 0.25656 0.45103
 H1879 H 0.68893 0.26496 0.41885
 H1880 H 0.73479 0.28924 0.46568
 C1881 C 0.69750 0.79087 0.92172
 C1882 C 0.71262 0.79819 0.93395
 C1883 C 0.72161 0.78633 0.95122
 C1884 C 0.73824 0.79359 0.96142
 H1885 H 0.71911 0.81311 0.93092
 H1886 H 0.71526 0.77148 0.95499
 H1887 H 0.69090 0.77598 0.92482
 H1888 H 0.74467 0.80826 0.95702
 C1889 C 0.21231 0.30688 0.91065
 C1890 C 0.20627 0.29067 0.92171
 C1891 C 0.21964 0.28276 0.93866
 C1892 C 0.21363 0.26698 0.95038
 H1893 H 0.19154 0.28314 0.91828
 H1894 H 0.23468 0.28997 0.94153
 H1895 H 0.22703 0.31429 0.91442
 H1896 H 0.19850 0.25992 0.94760
 C1897 C 0.20680 0.80476 0.41403
 C1898 C 0.19998 0.78980 0.42628
 C1899 C 0.21317 0.78227 0.44357
 C1900 C 0.20764 0.76559 0.45402
 H1901 H 0.18506 0.78251 0.42308
 H1902 H 0.22792 0.78977 0.44705
 H1903 H 0.22191 0.81169 0.41725
 H1904 H 0.19312 0.75795 0.44996
 C1905 C 0.69965 0.70387 0.58755
 C1906 C 0.71417 0.69526 0.57547
 C1907 C 0.72176 0.70646 0.55706
 C1908 C 0.73878 0.70047 0.54657
 H1909 H 0.72101 0.68066 0.57958
 H1910 H 0.71396 0.72057 0.55273
 H1911 H 0.69349 0.71873 0.58328
 H1912 H 0.74699 0.68670 0.55124
 C1913 C 0.69770 0.20743 0.07388
 C1914 C 0.71328 0.19848 0.06337
 C1915 C 0.72340 0.20867 0.04572
 C1916 C 0.74020 0.20033 0.03657
 H1917 H 0.71923 0.18374 0.06819
 H1918 H 0.71755 0.22341 0.04068
 H1919 H 0.69191 0.22224 0.06900
 H1920 H 0.74618 0.18577 0.04198
 C1921 C 0.18844 0.70800 0.09263
 C1922 C 0.20374 0.70044 0.08068
 C1923 C 0.21206 0.71228 0.06300
 C1924 C 0.22669 0.70437 0.05048
 H1925 H 0.21021 0.68548 0.08392
 H1926 H 0.20644 0.72768 0.06043
 H1927 H 0.18180 0.72280 0.08895
 H1928 H 0.23220 0.68895 0.05320
 C1929 C 0.20632 0.20097 0.58716
 C1930 C 0.19764 0.21079 0.57114
 C1931 C 0.21102 0.21475 0.55287
 C1932 C 0.20548 0.22740 0.53755
 H1933 H 0.18145 0.21602 0.57166
 H1934 H 0.22654 0.20778 0.55251
 H1935 H 0.22271 0.19635 0.58606
 H1936 H 0.19028 0.23496 0.53792
   
