data_POSCAR
  _audit_creation_date              2014-09-24
  _audit_creation_method            'ToBaCCo'
  _symmetry_space_group_name_H-M    'P1'
  _symmetry_Int_Tables_number       1
  _symmetry_cell_setting            triclinic
  loop_
  _symmetry_equiv_pos_as_xyz
 x,y,z
_cell_length_a 75.2393
_cell_length_b 75.7279
_cell_length_c 76.1551
_cell_angle_alpha 91.894700
_cell_angle_beta 91.629100
_cell_angle_gamma 91.796800
loop_
  _atom_site_label
  _atom_site_type_symbol
  _atom_site_fract_x
  _atom_site_fract_y
  _atom_site_fract_z
N1 N 0.18002 0.22254 0.22688
 N2 N 0.18502 0.20855 0.23521
 C3 C 0.17425 0.20598 0.24877
 C4 C 0.16176 0.21906 0.24894
 C5 C 0.16589 0.22934 0.23480
 H6 H 0.17549 0.19542 0.25787
 H7 H 0.15913 0.24087 0.23047
 Cu8 Cu 0.20514 0.19505 0.22763
 Cu9 Cu 0.19218 0.23102 0.20647
 Cu10 Cu 0.22874 0.20793 0.19314
 N11 N 0.22603 0.18265 0.22026
 N12 N 0.23514 0.18770 0.20674
 C13 C 0.24882 0.17691 0.20451
 C14 C 0.24833 0.16440 0.21736
 C15 C 0.23366 0.16849 0.22713
 H16 H 0.25850 0.17824 0.19438
 H17 H 0.22881 0.16160 0.23832
 N18 N 0.22018 0.22875 0.18110
 N19 N 0.20623 0.23752 0.18614
 C20 C 0.20381 0.25104 0.17538
 C21 C 0.21689 0.25082 0.16296
 C22 C 0.22701 0.23647 0.16702
 H23 H 0.19342 0.26050 0.17665
 H24 H 0.23846 0.23190 0.16015
 H25 H 0.20192 0.20698 0.19838
 H26 H 0.21665 0.22126 0.21349
 N27 N 0.68086 0.72363 0.72600
 N28 N 0.68606 0.70985 0.73459
 C29 C 0.67521 0.70727 0.74808
 C30 C 0.66250 0.72012 0.74797
 C31 C 0.66655 0.73028 0.73372
 H32 H 0.67656 0.69687 0.75735
 H33 H 0.65957 0.74159 0.72916
 Cu34 Cu 0.70645 0.69664 0.72727
 Cu35 Cu 0.69299 0.73195 0.70547
 Cu36 Cu 0.72943 0.70857 0.69215
 N37 N 0.72689 0.68368 0.71965
 N38 N 0.73577 0.68838 0.70587
 C39 C 0.74916 0.67729 0.70345
 C40 C 0.74871 0.66493 0.71644
 C41 C 0.73436 0.66942 0.72649
 H42 H 0.75863 0.67831 0.69309
 H43 H 0.72962 0.66274 0.73785
 N44 N 0.72093 0.72937 0.68001
 N45 N 0.70705 0.73825 0.68505
 C46 C 0.70463 0.75167 0.67416
 C47 C 0.71762 0.75126 0.66165
 C48 C 0.72771 0.73692 0.66581
 H49 H 0.69426 0.76115 0.67537
 H50 H 0.73908 0.73220 0.65891
 H51 H 0.70269 0.70776 0.69779
 H52 H 0.71761 0.72247 0.71228
 N53 N 0.31768 0.76952 0.73079
 N54 N 0.31358 0.78395 0.73960
 C55 C 0.32427 0.78584 0.75409
 C56 C 0.33571 0.77182 0.75438
 C57 C 0.33108 0.76177 0.73930
 H58 H 0.32363 0.79653 0.76379
 H59 H 0.33699 0.74970 0.73476
 Cu60 Cu 0.29447 0.79873 0.73145
 Cu61 Cu 0.30529 0.76155 0.70908
 Cu62 Cu 0.27027 0.78642 0.69486
 N63 N 0.27412 0.81199 0.72352
 N64 N 0.26478 0.80709 0.70927
 C65 C 0.25141 0.81824 0.70701
 C66 C 0.25228 0.83095 0.72063
 C67 C 0.26698 0.82647 0.73084
 H68 H 0.24174 0.81699 0.69625
 H69 H 0.27205 0.83306 0.74283
 N70 N 0.27781 0.76507 0.68201
 N71 N 0.29117 0.75558 0.68742
 C72 C 0.29287 0.74177 0.67605
 C73 C 0.27992 0.74254 0.66282
 C74 C 0.27065 0.75755 0.66707
 H75 H 0.30268 0.73175 0.67745
 H76 H 0.25952 0.76267 0.65981
 H77 H 0.29702 0.78607 0.70174
 H78 H 0.28150 0.77287 0.71533
 N79 N 0.81807 0.26894 0.23118
 N80 N 0.81431 0.28363 0.23973
 C81 C 0.82504 0.28556 0.25419
 C82 C 0.83619 0.27125 0.25478
 C83 C 0.83125 0.26102 0.23984
 H84 H 0.82463 0.29652 0.26359
 H85 H 0.83677 0.24871 0.23544
 Cu86 Cu 0.79554 0.29870 0.23136
 Cu87 Cu 0.80568 0.26100 0.20947
 Cu88 Cu 0.77118 0.28627 0.19484
 N89 N 0.77528 0.31202 0.22332
 N90 N 0.76589 0.30710 0.20909
 C91 C 0.75258 0.31832 0.20679
 C92 C 0.75356 0.33104 0.22032
 C93 C 0.76819 0.32657 0.23057
 H94 H 0.74277 0.31706 0.19616
 H95 H 0.77325 0.33329 0.24250
 N96 N 0.77849 0.26473 0.18219
 N97 N 0.79164 0.25506 0.18776
 C98 C 0.79324 0.24117 0.17647
 C99 C 0.78044 0.24207 0.16312
 C100 C 0.77136 0.25724 0.16722
 H101 H 0.80289 0.23102 0.17799
 H102 H 0.76039 0.26251 0.15982
 H103 H 0.79790 0.28558 0.20180
 H104 H 0.78213 0.27286 0.21557
 N105 N 0.81256 0.72472 0.27349
 N106 N 0.80744 0.71027 0.26446
 C107 C 0.81871 0.70758 0.25129
 C108 C 0.83163 0.72107 0.25204
 C109 C 0.82725 0.73170 0.26637
 H110 H 0.81740 0.69677 0.24168
 H111 H 0.83414 0.74368 0.27124
 Cu112 Cu 0.78624 0.69671 0.27049
 Cu113 Cu 0.79950 0.73366 0.29351
 Cu114 Cu 0.76182 0.70932 0.30455
 N115 N 0.76518 0.68308 0.27685
 N116 N 0.75568 0.68811 0.29022
 C117 C 0.74183 0.67664 0.29170
 C118 C 0.74260 0.66364 0.27851
 C119 C 0.75766 0.66820 0.26936
 H120 H 0.73186 0.67783 0.30156
 H121 H 0.76282 0.66122 0.25811
 N122 N 0.77015 0.73114 0.31744
 N123 N 0.78445 0.74045 0.31329
 C124 C 0.78634 0.75468 0.32437
 C125 C 0.77255 0.75435 0.33608
 C126 C 0.76261 0.73917 0.33124
 H127 H 0.79690 0.76463 0.32382
 H128 H 0.75068 0.73430 0.33725
 H129 H 0.78889 0.70949 0.30026
 H130 H 0.77501 0.72290 0.28536
 N131 N 0.30995 0.22809 -0.23010
 N132 N 0.30530 0.21327 -0.23870
 C133 C 0.31677 0.21047 -0.25168
 C134 C 0.32938 0.22431 -0.25128
 C135 C 0.32452 0.23523 -0.23729
 H136 H 0.31589 0.19917 -0.26072
 H137 H 0.33101 0.24748 -0.23259
 Cu138 Cu 0.28462 0.19915 -0.23220
 Cu139 Cu 0.29688 0.23695 -0.21007
 Cu140 Cu 0.26064 0.21129 -0.19762
 N141 N 0.26418 0.18495 -0.22517
 N142 N 0.25488 0.18978 -0.21159
 C143 C 0.24143 0.17792 -0.20971
 C144 C 0.24226 0.16488 -0.22284
 C145 C 0.25694 0.16982 -0.23239
 H146 H 0.23167 0.17890 -0.19962
 H147 H 0.26200 0.16295 -0.24376
 N148 N 0.26848 0.23350 -0.18519
 N149 N 0.28197 0.24354 -0.19014
 C150 C 0.28383 0.25779 -0.17906
 C151 C 0.27099 0.25654 -0.16647
 C152 C 0.26152 0.24099 -0.17078
 H153 H 0.29408 0.26804 -0.17974
 H154 H 0.25035 0.23556 -0.16391
 H155 H 0.28757 0.21247 -0.20266
 H156 H 0.27265 0.22501 -0.21739
 N157 N 0.68300 0.27343 -0.23523
 N158 N 0.68686 0.28852 -0.24245
 C159 C 0.67554 0.29070 -0.25616
 C160 C 0.66379 0.27614 -0.25767
 C161 C 0.66905 0.26548 -0.24405
 H162 H 0.67590 0.30213 -0.26428
 H163 H 0.66327 0.25285 -0.24068
 Cu164 Cu 0.70621 0.30402 -0.23325
 Cu165 Cu 0.69623 0.26533 -0.21485
 Cu166 Cu 0.73482 0.28914 -0.20262
 N167 N 0.72945 0.31527 -0.22853
 N168 N 0.74078 0.30930 -0.21686
 C169 C 0.75561 0.31977 -0.21626
 C170 C 0.75340 0.33307 -0.22813
 C171 C 0.73662 0.32973 -0.23569
 H172 H 0.76692 0.31817 -0.20743
 H173 H 0.73006 0.33728 -0.24562
 N174 N 0.72624 0.26837 -0.18993
 N175 N 0.71148 0.25936 -0.19460
 C176 C 0.70893 0.24628 -0.18332
 C177 C 0.72274 0.24703 -0.17086
 C178 C 0.73348 0.26125 -0.17552
 H179 H 0.69779 0.23692 -0.18415
 H180 H 0.74553 0.26623 -0.16880
 H181 H 0.70744 0.28931 -0.20529
 H182 H 0.71960 0.27738 -0.22300
 N183 N 0.18238 0.77538 0.26584
 N184 N 0.18625 0.79056 0.25880
 C185 C 0.17484 0.79296 0.24521
 C186 C 0.16310 0.77846 0.24361
 C187 C 0.16835 0.76759 0.25701
 H188 H 0.17520 0.80440 0.23710
 H189 H 0.16247 0.75494 0.26018
 Cu190 Cu 0.20586 0.80574 0.26790
 Cu191 Cu 0.19585 0.76689 0.28591
 Cu192 Cu 0.23484 0.79026 0.29779
 N193 N 0.22924 0.81674 0.27229
 N194 N 0.24072 0.81056 0.28366
 C195 C 0.25574 0.82076 0.28389
 C196 C 0.25352 0.83419 0.27206
 C197 C 0.23644 0.83107 0.26496
 H198 H 0.26719 0.81870 0.29236
 H199 H 0.22964 0.83850 0.25510
 N200 N 0.22628 0.76939 0.31036
 N201 N 0.21138 0.76056 0.30582
 C202 C 0.20892 0.74732 0.31694
 C203 C 0.22294 0.74777 0.32916
 C204 C 0.23370 0.76199 0.32453
 H205 H 0.19769 0.73807 0.31616
 H206 H 0.24591 0.76677 0.33110
 H207 H 0.20744 0.79066 0.29562
 H208 H 0.21918 0.77885 0.27755
 N209 N 0.47296 0.43076 0.47657
 N210 N 0.45930 0.43562 0.48574
 C211 C 0.45749 0.42482 0.49932
 C212 C 0.47069 0.41245 0.49862
 C213 C 0.48023 0.41667 0.48394
 H214 H 0.44731 0.42583 0.50898
 H215 H 0.49183 0.41019 0.47917
 Cu216 Cu 0.44552 0.45588 0.47921
 Cu217 Cu 0.48070 0.44344 0.45611
 Cu218 Cu 0.45613 0.47938 0.44416
 N219 N 0.43164 0.47594 0.47229
 N220 N 0.43597 0.48509 0.45859
 C221 C 0.42473 0.49842 0.45690
 C222 C 0.41262 0.49768 0.47025
 C223 C 0.41742 0.48318 0.47975
 H224 H 0.42533 0.50795 0.44666
 H225 H 0.41123 0.47848 0.49142
 N226 N 0.47697 0.47154 0.43120
 N227 N 0.48639 0.45795 0.43583
 C228 C 0.50001 0.45631 0.42485
 C229 C 0.49915 0.46947 0.41267
 C230 C 0.48432 0.47884 0.41711
 H231 H 0.50985 0.44625 0.42566
 H232 H 0.47948 0.49039 0.41078
 H233 H 0.47089 0.46761 0.46355
 H234 H 0.45601 0.45273 0.44927
 N235 N -0.02697 -0.06955 0.97596
 N236 N -0.04074 -0.06479 0.98503
 C237 C -0.04273 -0.07575 0.99845
 C238 C -0.02952 -0.08810 0.99779
 C239 C -0.01979 -0.08373 0.98327
 H240 H -0.05305 -0.07483 1.00798
 H241 H -0.00814 -0.09015 0.97854
 Cu242 Cu -0.05443 -0.04445 0.97856
 Cu243 Cu -0.01909 -0.05671 0.95565
 Cu244 Cu -0.04353 -0.02062 0.94384
 N245 N -0.06820 -0.02427 0.97178
 N246 N -0.06375 -0.01498 0.95822
 C247 C -0.07494 -0.00158 0.95661
 C248 C -0.08714 -0.00245 0.96988
 C249 C -0.08245 -0.01709 0.97923
 H250 H -0.07422 0.00807 0.94650
 H251 H -0.08872 -0.02192 0.99082
 N252 N -0.02263 -0.02840 0.93094
 N253 N -0.01326 -0.04204 0.93551
 C254 C 0.00034 -0.04370 0.92452
 C255 C -0.00048 -0.03049 0.91239
 C256 C -0.01527 -0.02108 0.91687
 H257 H 0.01011 -0.05383 0.92525
 H258 H -0.02011 -0.00952 0.91055
 H259 H -0.02889 -0.03255 0.96328
 H260 H -0.04368 -0.04731 0.94875
 N261 N 1.03663 0.57699 0.97093
 N262 N 1.05128 0.57339 0.97974
 C263 C 1.05408 0.58559 0.99290
 C264 C 1.04053 0.59755 0.99218
 C265 C 1.02973 0.59167 0.97805
 H266 H 1.06521 0.58590 1.00221
 H267 H 1.01753 0.59742 0.97349
 Cu268 Cu 1.06537 0.55328 0.97287
 Cu269 Cu 1.02724 0.56211 0.95125
 Cu270 Cu 1.05190 0.52612 0.93889
 N271 N 1.07915 0.53306 0.96565
 N272 N 1.07385 0.52261 0.95228
 C273 C 1.08570 0.50986 0.95000
 C274 C 1.09923 0.51238 0.96263
 C275 C 1.09459 0.52727 0.97235
 H276 H 1.08439 0.49938 0.94002
 H277 H 1.10196 0.53349 0.98339
 N278 N 1.02935 0.53184 0.92698
 N279 N 1.01992 0.54549 0.93173
 C280 C 1.00523 0.54576 0.92124
 C281 C 1.00541 0.53162 0.90925
 C282 C 1.02094 0.52310 0.91330
 H283 H 0.99522 0.55565 0.92213
 H284 H 1.02568 0.51129 0.90687
 H285 H 1.03890 0.53911 0.95882
 H286 H 1.05158 0.55317 0.94349
 N287 N 0.53381 0.07633 0.47084
 N288 N 0.54930 0.07448 0.47885
 C289 C 0.55165 0.08732 0.49149
 C290 C 0.53680 0.09777 0.49137
 C291 C 0.52581 0.09031 0.47803
 H292 H 0.56323 0.08886 0.50019
 H293 H 0.51297 0.09477 0.47369
 Cu294 Cu 0.56471 0.05541 0.47179
 Cu295 Cu 0.52500 0.06067 0.45158
 Cu296 Cu 0.55180 0.02652 0.43887
 N297 N 0.57924 0.03557 0.46498
 N298 N 0.57419 0.02456 0.45195
 C299 C 0.58646 0.01217 0.44999
 C300 C 0.59997 0.01547 0.46249
 C301 C 0.59490 0.03045 0.47181
 H302 H 0.58537 0.00128 0.44044
 H303 H 0.60208 0.03710 0.48275
 N304 N 0.52863 0.03067 0.42730
 N305 N 0.51833 0.04355 0.43234
 C306 C 0.50342 0.04290 0.42213
 C307 C 0.50433 0.02895 0.41002
 C308 C 0.52054 0.02151 0.41369
 H309 H 0.49280 0.05212 0.42321
 H310 H 0.52599 0.01018 0.40700
 H311 H 0.53886 0.03884 0.45917
 H312 H 0.54964 0.05341 0.44295
 N313 N -0.03325 0.08076 0.53606
 N314 N -0.04690 0.07576 0.52573
 C315 C -0.04923 0.08788 0.51341
 C316 C -0.03635 0.10123 0.51610
 C317 C -0.02642 0.09623 0.53063
 H318 H -0.05925 0.08682 0.50296
 H319 H -0.01504 0.10326 0.53677
 Cu320 Cu -0.06005 0.05359 0.52864
 Cu321 Cu -0.02524 0.06667 0.55557
 Cu322 Cu -0.04717 0.02632 0.56025
 N323 N -0.07149 0.03044 0.53112
 N324 N -0.06623 0.01978 0.54334
 C325 C -0.07624 0.00474 0.54209
 C326 C -0.08851 0.00599 0.52833
 C327 C -0.08510 0.02252 0.52167
 H328 H -0.07490 -0.00614 0.55081
 H329 H -0.09194 0.02831 0.51071
 N330 N -0.02761 0.03512 0.57616
 N331 N -0.01918 0.05048 0.57449
 C332 C -0.00657 0.05258 0.58741
 C333 C -0.00708 0.03778 0.59770
 C334 C -0.02064 0.02706 0.59011
 H335 H 0.00242 0.06395 0.58911
 H336 H -0.02523 0.01434 0.59449
 H337 H -0.03361 0.04291 0.54362
 H338 H -0.04918 0.05356 0.55915
 N339 N 0.46720 0.58116 0.03565
 N340 N 0.45343 0.57627 0.02542
 C341 C 0.45121 0.58833 0.01303
 C342 C 0.46427 0.60153 0.01556
 C343 C 0.47420 0.59650 0.03008
 H344 H 0.44112 0.58732 0.00262
 H345 H 0.48569 0.60343 0.03613
 Cu346 Cu 0.43998 0.55431 0.02855
 Cu347 Cu 0.47513 0.56713 0.05522
 Cu348 Cu 0.45284 0.52705 0.06018
 N349 N 0.42841 0.53123 0.03115
 N350 N 0.43369 0.52058 0.04338
 C351 C 0.42363 0.50559 0.04223
 C352 C 0.41128 0.50684 0.02854
 C353 C 0.41471 0.52334 0.02181
 H354 H 0.42496 0.49473 0.05098
 H355 H 0.40782 0.52912 0.01087
 N356 N 0.47250 0.53574 0.07600
 N357 N 0.48108 0.55100 0.07423
 C358 C 0.49373 0.55304 0.08712
 C359 C 0.49308 0.53831 0.09748
 C360 C 0.47941 0.52769 0.08998
 H361 H 0.50284 0.56434 0.08874
 H362 H 0.47468 0.51505 0.09445
 H363 H 0.46642 0.54347 0.04336
 H364 H 0.45108 0.55433 0.05900
 N365 N 0.52983 -0.07312 0.03078
 N366 N 0.54342 -0.06812 0.02147
 C367 C 0.54369 -0.07842 0.00673
 C368 C 0.52953 -0.09057 0.00682
 C369 C 0.52104 -0.08678 0.02233
 H370 H 0.55358 -0.07731 -0.00323
 H371 H 0.50924 -0.09334 0.02708
 Cu372 Cu 0.55940 -0.04865 0.02958
 Cu373 Cu 0.52438 -0.06148 0.05306
 Cu374 Cu 0.55220 -0.02624 0.06742
 N375 N 0.57517 -0.02912 0.03800
 N376 N 0.57200 -0.02012 0.05257
 C377 C 0.58442 -0.00703 0.05504
 C378 C 0.59611 -0.00792 0.04135
 C379 C 0.58984 -0.02213 0.03079
 H380 H 0.58500 0.00235 0.06608
 H381 H 0.59534 -0.02676 0.01858
 N382 N 0.53154 -0.03450 0.08062
 N383 N 0.52105 -0.04801 0.07524
 C384 C 0.50830 -0.05043 0.08706
 C385 C 0.51083 -0.03784 0.10057
 C386 C 0.52571 -0.02798 0.09601
 H387 H 0.49777 -0.06047 0.08577
 H388 H 0.53192 -0.01690 0.10338
 H389 H 0.53571 -0.03718 0.04749
 H390 H 0.55007 -0.05264 0.05963
 N391 N 1.02937 0.42741 0.53056
 N392 N 1.04280 0.43256 0.52111
 C393 C 1.04306 0.42223 0.50638
 C394 C 1.02905 0.40991 0.50663
 C395 C 1.02067 0.41364 0.52222
 H396 H 1.05284 0.42343 0.49634
 H397 H 1.00901 0.40695 0.52710
 Cu398 Cu 1.05861 0.45223 0.52907
 Cu399 Cu 1.02403 0.43899 0.55291
 Cu400 Cu 1.05186 0.47427 0.56721
 N401 N 1.07456 0.47158 0.53756
 N402 N 1.07156 0.48045 0.55225
 C403 C 1.08409 0.49344 0.55477
 C404 C 1.09568 0.49261 0.54099
 C405 C 1.08923 0.47854 0.53033
 H406 H 1.08483 0.50270 0.56590
 H407 H 1.09462 0.47398 0.51804
 N408 N 1.03127 0.46593 0.58051
 N409 N 1.02078 0.45241 0.57514
 C410 C 1.00808 0.44994 0.58700
 C411 C 1.01063 0.46252 0.60053
 C412 C 1.02548 0.47242 0.59592
 H413 H 0.99756 0.43991 0.58572
 H414 H 1.03169 0.48351 0.60329
 H415 H 1.03513 0.46341 0.54745
 H416 H 1.04976 0.44792 0.55921
 C417 C 0.36422 0.02008 0.24280
 C418 C 0.35233 0.00337 0.24302
 C419 C 0.36094 -0.01164 0.24686
 C420 C 0.38119 -0.00861 0.24953
 C421 C 0.37434 0.02077 0.26059
 C422 C 0.38318 0.00583 0.26419
 C423 C 0.37855 0.01564 0.22953
 C424 C 0.38740 0.00068 0.23301
 H425 H 0.33812 0.00365 0.24041
 H426 H 0.38850 -0.02070 0.25248
 H427 H 0.37519 0.03250 0.26914
 H428 H 0.38228 0.02393 0.21889
 C429 C 0.13515 -0.02618 0.74796
 C430 C 0.14613 -0.00877 0.74852
 C431 C 0.13669 0.00586 0.75214
 C432 C 0.11681 0.00184 0.75481
 C433 C 0.12589 -0.02640 0.76560
 C434 C 0.11626 -0.01188 0.76926
 C435 C 0.12009 -0.02312 0.73438
 C436 C 0.11052 -0.00850 0.73794
 H437 H 0.16030 -0.00819 0.74631
 H438 H 0.10907 0.01378 0.75772
 H439 H 0.12612 -0.03771 0.77394
 H440 H 0.11790 -0.03072 0.72224
 C441 C 0.63456 0.47347 0.24796
 C442 C 0.64557 0.49085 0.24865
 C443 C 0.63614 0.50549 0.25229
 C444 C 0.61625 0.50150 0.25487
 C445 C 0.62521 0.47317 0.26555
 C446 C 0.61561 0.48771 0.26926
 C447 C 0.61951 0.47660 0.23437
 C448 C 0.60999 0.49125 0.23795
 H449 H 0.65974 0.49142 0.24650
 H450 H 0.60852 0.51344 0.25780
 H451 H 0.62539 0.46182 0.27385
 H452 H 0.61717 0.46892 0.22230
 C453 C 0.86387 0.52009 0.74244
 C454 C 0.85211 0.50335 0.74330
 C455 C 0.86090 0.48853 0.74742
 C456 C 0.88116 0.49172 0.74975
 C457 C 0.87424 0.52133 0.76010
 C458 C 0.88322 0.50657 0.76402
 C459 C 0.87803 0.51537 0.72910
 C460 C 0.88706 0.50060 0.73289
 H461 H 0.83784 0.50344 0.74101
 H462 H 0.88856 0.47973 0.75291
 H463 H 0.87509 0.53329 0.76833
 H464 H 0.88160 0.52341 0.71822
 C465 C 0.24262 0.36653 0.02000
 C466 C 0.24320 0.35470 0.00340
 C467 C 0.24706 0.36333 -0.01150
 C468 C 0.24938 0.38349 -0.00851
 C469 C 0.26046 0.37695 0.02076
 C470 C 0.26408 0.38576 0.00591
 C471 C 0.22899 0.38048 0.01553
 C472 C 0.23248 0.38934 0.00068
 H473 H 0.24098 0.34052 0.00365
 H474 H 0.25233 0.39075 -0.02055
 H475 H 0.26904 0.37795 0.03244
 H476 H 0.21818 0.38407 0.02382
 C477 C 0.74695 0.13323 -0.02537
 C478 C 0.74958 0.14462 -0.00844
 C479 C 0.75331 0.13540 0.00618
 C480 C 0.75420 0.11534 0.00260
 C481 C 0.76384 0.12254 -0.02653
 C482 C 0.76783 0.11328 -0.01198
 C483 C 0.73230 0.11960 -0.02090
 C484 C 0.73608 0.11031 -0.00632
 H485 H 0.74817 0.15882 -0.00808
 H486 H 0.75712 0.10784 0.01457
 H487 H 0.77168 0.12205 -0.03823
 H488 H 0.71955 0.11796 -0.02769
 C489 C 0.24690 0.63358 0.47439
 C490 C 0.24944 0.64495 0.49133
 C491 C 0.25308 0.63571 0.50597
 C492 C 0.25399 0.61565 0.50236
 C493 C 0.26379 0.62289 0.47330
 C494 C 0.26770 0.61361 0.48786
 C495 C 0.23221 0.61995 0.47876
 C496 C 0.23590 0.61063 0.49335
 H497 H 0.24803 0.65915 0.49171
 H498 H 0.25684 0.60814 0.51434
 H499 H 0.27170 0.62242 0.46164
 H500 H 0.21949 0.61832 0.47190
 C501 C 0.74218 0.86705 0.51834
 C502 C 0.74108 0.85609 0.50109
 C503 C 0.74433 0.86544 0.48653
 C504 C 0.74828 0.88522 0.49048
 C505 C 0.76059 0.87639 0.51854
 C506 C 0.76386 0.88586 0.50402
 C507 C 0.72927 0.88212 0.51554
 C508 C 0.73238 0.89155 0.50095
 H509 H 0.73877 0.84188 0.50063
 H510 H 0.75085 0.89288 0.47859
 H511 H 0.76972 0.87647 0.52981
 H512 H 0.71894 0.88560 0.52445
 C513 C 0.01824 0.24172 0.36692
 C514 C 0.00062 0.24059 0.35634
 C515 C -0.01395 0.24400 0.36588
 C516 C -0.00966 0.24811 0.38546
 C517 C 0.01869 0.26008 0.37607
 C518 C 0.00418 0.26351 0.38576
 C519 C 0.01546 0.22899 0.38202
 C520 C 0.00088 0.23229 0.39167
 H521 H -0.00008 0.23803 0.34225
 H522 H -0.02158 0.25078 0.39326
 H523 H 0.03017 0.26906 0.37585
 H524 H 0.02416 0.21843 0.38521
 C525 C -0.02565 0.74750 0.13340
 C526 C -0.00845 0.75008 0.14453
 C527 C 0.00629 0.75381 0.13522
 C528 C 0.00254 0.75477 0.11533
 C529 C -0.02688 0.76430 0.12286
 C530 C -0.01221 0.76831 0.11350
 C531 C -0.02127 0.73298 0.11971
 C532 C -0.00654 0.73675 0.11034
 H533 H -0.00795 0.74852 0.15863
 H534 H 0.01463 0.75770 0.10779
 H535 H -0.03874 0.77204 0.12250
 H536 H -0.02823 0.72035 0.11803
 C537 C 0.47457 0.24881 0.63383
 C538 C 0.49200 0.24928 0.64475
 C539 C 0.50681 0.25285 0.63551
 C540 C 0.50294 0.25558 0.61587
 C541 C 0.47447 0.26656 0.62477
 C542 C 0.48918 0.27019 0.61534
 C543 C 0.47767 0.23519 0.61884
 C544 C 0.49248 0.23870 0.60949
 H545 H 0.49246 0.24706 0.65873
 H546 H 0.51502 0.25844 0.60831
 H547 H 0.46308 0.27497 0.62491
 H548 H 0.46976 0.22321 0.61628
 C549 C 0.51899 0.74204 0.86610
 C550 C 0.50135 0.74099 0.85558
 C551 C 0.48681 0.74427 0.86520
 C552 C 0.49115 0.74819 0.88480
 C553 C 0.51945 0.76032 0.87544
 C554 C 0.50496 0.76363 0.88520
 C555 C 0.51631 0.72917 0.88109
 C556 C 0.50175 0.73234 0.89082
 H557 H 0.50060 0.73859 0.84147
 H558 H 0.47925 0.75078 0.89266
 H559 H 0.53092 0.76932 0.87530
 H560 H 0.52515 0.71872 0.88423
 C561 C 0.11927 0.22610 0.28510
 C562 C 0.12291 0.23881 0.27255
 C563 C 0.13670 0.23655 0.26087
 C564 C 0.14718 0.22151 0.26143
 C565 C 0.14354 0.20883 0.27403
 C566 C 0.12976 0.21110 0.28572
 C567 C 0.10456 0.22844 0.29740
 N568 N 0.10101 0.21620 0.30956
 N569 N 0.08772 0.21825 0.32055
 C570 C 0.07742 0.23263 0.31985
 N571 N 0.08098 0.24488 0.30770
 N572 N 0.09427 0.24284 0.29671
 C573 C 0.06257 0.23485 0.33200
 C574 C 0.05178 0.24960 0.33107
 C575 C 0.03769 0.25158 0.34243
 C576 C 0.03405 0.23899 0.35515
 C577 C 0.04480 0.22411 0.35590
 C578 C 0.05890 0.22213 0.34453
 H579 H 0.11512 0.25054 0.27171
 H580 H 0.13909 0.24668 0.25147
 H581 H 0.15122 0.19705 0.27489
 H582 H 0.12732 0.20104 0.29522
 H583 H 0.05413 0.25961 0.32151
 H584 H 0.02951 0.26303 0.34124
 H585 H 0.04243 0.21370 0.36493
 H586 H 0.06685 0.21051 0.34550
 C587 C 0.61975 0.72685 0.78387
 C588 C 0.62983 0.71155 0.78400
 C589 C 0.64368 0.70938 0.77238
 C590 C 0.64780 0.72246 0.76033
 C591 C 0.63771 0.73777 0.76021
 C592 C 0.62385 0.73994 0.77184
 C593 C 0.60502 0.72910 0.79616
 N594 N 0.59516 0.74381 0.79602
 N595 N 0.58188 0.74579 0.80705
 C596 C 0.57791 0.73315 0.81868
 N597 N 0.58779 0.71844 0.81883
 N598 N 0.60106 0.71646 0.80781
 C599 C 0.56310 0.73530 0.83089
 C600 C 0.55900 0.72217 0.84287
 C601 C 0.54496 0.72411 0.85432
 C602 C 0.53474 0.73939 0.85423
 C603 C 0.53875 0.75236 0.84200
 C604 C 0.55277 0.75042 0.83056
 H605 H 0.62702 0.70117 0.79307
 H606 H 0.65101 0.69734 0.77282
 H607 H 0.64053 0.74821 0.75125
 H608 H 0.61638 0.75191 0.77139
 H609 H 0.56656 0.71025 0.84333
 H610 H 0.54216 0.71336 0.86285
 H611 H 0.53090 0.76408 0.84125
 H612 H 0.55544 0.76074 0.82141
 C613 C 0.37715 0.76135 0.79270
 C614 C 0.37223 0.74882 0.77928
 C615 C 0.35874 0.75219 0.76700
 C616 C 0.34978 0.76820 0.76777
 C617 C 0.35455 0.78067 0.78133
 C618 C 0.36808 0.77728 0.79366
 C619 C 0.39200 0.75787 0.80523
 N620 N 0.39702 0.76976 0.81834
 N621 N 0.41084 0.76682 0.82908
 C622 C 0.42022 0.75186 0.82715
 N623 N 0.41508 0.73993 0.81415
 N624 N 0.40128 0.74286 0.80345
 C625 C 0.43635 0.74900 0.83823
 C626 C 0.44734 0.73483 0.83421
 C627 C 0.46341 0.73296 0.84342
 C628 C 0.46883 0.74511 0.85698
 C629 C 0.45752 0.75878 0.86165
 C630 C 0.44145 0.76077 0.85229
 H631 H 0.37888 0.73638 0.77813
 H632 H 0.35544 0.74215 0.75693
 H633 H 0.34801 0.79316 0.78237
 H634 H 0.37153 0.78724 0.80381
 H635 H 0.44381 0.72544 0.82355
 H636 H 0.47179 0.72216 0.83973
 H637 H 0.46147 0.76838 0.87199
 H638 H 0.43326 0.77178 0.85579
 C639 C -0.12316 0.26093 0.29268
 C640 C -0.12719 0.24895 0.27856
 C641 C -0.14059 0.25232 0.26619
 C642 C -0.15046 0.26780 0.26753
 C643 C -0.14652 0.27970 0.28186
 C644 C -0.13303 0.27631 0.29424
 C645 C -0.10841 0.25746 0.30533
 N646 N -0.10375 0.26917 0.31871
 N647 N -0.08999 0.26624 0.32955
 C648 C -0.08034 0.25147 0.32746
 N649 N -0.08514 0.23972 0.31420
 N650 N -0.09886 0.24263 0.30339
 C651 C -0.06429 0.24864 0.33865
 C652 C -0.05328 0.23445 0.33474
 C653 C -0.03726 0.23261 0.34405
 C654 C -0.03190 0.24481 0.35759
 C655 C -0.04323 0.25849 0.36215
 C656 C -0.05926 0.26045 0.35271
 H657 H -0.11989 0.23694 0.27691
 H658 H -0.14300 0.24263 0.25560
 H659 H -0.15365 0.29178 0.28359
 H660 H -0.13027 0.28584 0.30497
 H661 H -0.05675 0.22502 0.32411
 H662 H -0.02886 0.22179 0.34044
 H663 H -0.03933 0.26814 0.37247
 H664 H -0.06746 0.27148 0.35612
 C665 C -0.12573 0.72915 0.21610
 C666 C -0.13600 0.71330 0.21542
 C667 C -0.14970 0.71065 0.22714
 C668 C -0.15353 0.72378 0.23985
 C669 C -0.14315 0.73958 0.24062
 C670 C -0.12943 0.74223 0.22889
 C671 C -0.11133 0.73201 0.20350
 N672 N -0.10107 0.74711 0.20435
 N673 N -0.08814 0.74966 0.19303
 C674 C -0.08491 0.73721 0.18035
 N675 N -0.09518 0.72212 0.17949
 N676 N -0.10811 0.71957 0.19082
 C677 C -0.07035 0.73993 0.16790
 C678 C -0.06716 0.72711 0.15469
 C679 C -0.05310 0.72940 0.14328
 C680 C -0.04177 0.74458 0.14482
 C681 C -0.04532 0.75755 0.15782
 C682 C -0.05936 0.75527 0.16921
 H683 H -0.13348 0.70290 0.20580
 H684 H -0.15721 0.69823 0.22619
 H685 H -0.14568 0.75004 0.25013
 H686 H -0.12179 0.75459 0.22981
 H687 H -0.07546 0.71519 0.15322
 H688 H -0.05135 0.71909 0.13345
 H689 H -0.03697 0.76946 0.15931
 H690 H -0.06146 0.76548 0.17915
 C691 C 0.37241 0.23175 0.71442
 C692 C 0.36955 0.24410 0.72814
 C693 C 0.35544 0.24165 0.73947
 C694 C 0.34376 0.22674 0.73742
 C695 C 0.34680 0.21435 0.72368
 C696 C 0.36089 0.21683 0.71238
 C697 C 0.38726 0.23441 0.70228
 N698 N 0.38970 0.22269 0.68874
 N699 N 0.40301 0.22506 0.67781
 C700 C 0.41446 0.23924 0.67994
 N701 N 0.41202 0.25096 0.69348
 N702 N 0.39870 0.24860 0.70441
 C703 C 0.42937 0.24177 0.66785
 C704 C 0.44159 0.25608 0.67044
 C705 C 0.45584 0.25819 0.65926
 C706 C 0.45838 0.24607 0.64520
 C707 C 0.44587 0.23192 0.64245
 C708 C 0.43162 0.22980 0.65365
 H709 H 0.37818 0.25575 0.73012
 H710 H 0.35383 0.25158 0.74976
 H711 H 0.33837 0.20263 0.72146
 H712 H 0.36272 0.20701 0.70199
 H713 H 0.44025 0.26562 0.68118
 H714 H 0.46509 0.26931 0.66169
 H715 H 0.44679 0.22232 0.63179
 H716 H 0.42238 0.21869 0.65118
 C717 C 0.62032 0.26699 0.70589
 C718 C 0.63151 0.28210 0.70487
 C719 C 0.64591 0.28507 0.71675
 C720 C 0.64955 0.27299 0.73000
 C721 C 0.63843 0.25772 0.73073
 C722 C 0.62405 0.25480 0.71889
 C723 C 0.60455 0.26409 0.69386
 N724 N 0.59340 0.24986 0.69560
 N725 N 0.57885 0.24749 0.68535
 C726 C 0.57479 0.25922 0.67286
 N727 N 0.58602 0.27340 0.67097
 N728 N 0.60060 0.27578 0.68126
 C729 C 0.55802 0.25692 0.66218
 C730 C 0.55378 0.26855 0.64875
 C731 C 0.53735 0.26689 0.63960
 C732 C 0.52482 0.25371 0.64387
 C733 C 0.52928 0.24177 0.65687
 C734 C 0.54568 0.24331 0.66587
 H735 H 0.62906 0.29175 0.69498
 H736 H 0.65405 0.29694 0.71545
 H737 H 0.64053 0.24795 0.74053
 H738 H 0.61575 0.24298 0.72007
 H739 H 0.56301 0.27913 0.64553
 H740 H 0.53419 0.27630 0.62967
 H741 H 0.51999 0.23127 0.66019
 H742 H 0.54848 0.23403 0.67602
 C743 C 0.11917 0.76940 0.20628
 C744 C 0.12961 0.78511 0.20619
 C745 C 0.14392 0.78803 0.21819
 C746 C 0.14814 0.77529 0.23057
 C747 C 0.13780 0.75950 0.23047
 C748 C 0.12353 0.75660 0.21851
 C749 C 0.10354 0.76644 0.19410
 N750 N 0.09294 0.75171 0.19517
 N751 N 0.07851 0.74923 0.18478
 C752 C 0.07401 0.76134 0.17282
 N753 N 0.08470 0.77603 0.17159
 N754 N 0.09916 0.77853 0.18202
 C755 C 0.05731 0.75886 0.16207
 C756 C 0.05289 0.77050 0.14870
 C757 C 0.03651 0.76856 0.13946
 C758 C 0.02423 0.75513 0.14365
 C759 C 0.02889 0.74320 0.15659
 C760 C 0.04523 0.74499 0.16564
 H761 H 0.12663 0.79526 0.19697
 H762 H 0.15151 0.80035 0.21779
 H763 H 0.14059 0.74930 0.23967
 H764 H 0.11582 0.74432 0.21897
 H765 H 0.06194 0.78126 0.14555
 H766 H 0.03317 0.77790 0.12951
 H767 H 0.01979 0.73250 0.15982
 H768 H 0.04818 0.73570 0.17574
 C769 C 0.28441 0.12209 0.22518
 C770 C 0.28432 0.13132 0.20947
 C771 C 0.27265 0.14506 0.20695
 C772 C 0.26076 0.14987 0.22006
 C773 C 0.26087 0.14064 0.23577
 C774 C 0.27256 0.12693 0.23830
 C775 C 0.29671 0.10745 0.22783
 N776 N 0.29691 0.09863 0.24306
 N777 N 0.30783 0.08536 0.24541
 C778 C 0.31902 0.08034 0.23262
 N779 N 0.31885 0.08919 0.21739
 N780 N 0.30793 0.10247 0.21505
 C781 C 0.33096 0.06540 0.23517
 C782 C 0.34231 0.05995 0.22184
 C783 C 0.35325 0.04557 0.22410
 C784 C 0.35327 0.03638 0.23989
 C785 C 0.34176 0.04183 0.25312
 C786 C 0.33085 0.05618 0.25086
 H787 H 0.29325 0.12793 0.19907
 H788 H 0.27287 0.15174 0.19462
 H789 H 0.25205 0.14405 0.24623
 H790 H 0.27228 0.12012 0.25058
 H791 H 0.34259 0.06665 0.20950
 H792 H 0.36124 0.04163 0.21320
 H793 H 0.34107 0.03481 0.26526
 H794 H 0.32218 0.05991 0.26137
 C795 C 0.78425 0.62214 0.72412
 C796 C 0.78404 0.63120 0.70831
 C797 C 0.77253 0.64507 0.70582
 C798 C 0.76093 0.65020 0.71907
 C799 C 0.76114 0.64113 0.73487
 C800 C 0.77266 0.62728 0.73737
 C801 C 0.79642 0.60741 0.72678
 N802 N 0.79673 0.59878 0.74213
 N803 N 0.80758 0.58546 0.74452
 C804 C 0.81859 0.58019 0.73166
 N805 N 0.81831 0.58884 0.71632
 N806 N 0.80746 0.60217 0.71393
 C807 C 0.83047 0.56522 0.73429
 C808 C 0.84171 0.55956 0.72095
 C809 C 0.85266 0.54520 0.72335
 C810 C 0.85277 0.53624 0.73927
 C811 C 0.84134 0.54188 0.75250
 C812 C 0.83043 0.55621 0.75011
 H813 H 0.79276 0.62757 0.69780
 H814 H 0.77265 0.65162 0.69342
 H815 H 0.75253 0.64477 0.74544
 H816 H 0.77247 0.62061 0.74973
 H817 H 0.84193 0.56610 0.70853
 H818 H 0.86060 0.54113 0.71247
 H819 H 0.84076 0.53505 0.76476
 H820 H 0.82186 0.56010 0.76064
 C821 C 0.78849 0.37793 0.76387
 C822 C 0.77024 0.37845 0.75952
 C823 C 0.75899 0.36379 0.76185
 C824 C 0.76564 0.34828 0.76879
 C825 C 0.78392 0.34765 0.77302
 C826 C 0.79527 0.36230 0.77045
 C827 C 0.80006 0.39388 0.76195
 N828 N 0.81805 0.39288 0.76118
 N829 N 0.82824 0.40742 0.75942
 C830 C 0.82085 0.42353 0.75853
 N831 N 0.80291 0.42447 0.75936
 N832 N 0.79275 0.40998 0.76099
 C833 C 0.83185 0.43988 0.75660
 C834 C 0.82464 0.45632 0.76072
 C835 C 0.83427 0.47195 0.75809
 C836 C 0.85131 0.47164 0.75100
 C837 C 0.85884 0.45520 0.74738
 C838 C 0.84919 0.43943 0.75020
 H839 H 0.76460 0.39025 0.75432
 H840 H 0.74498 0.36481 0.75858
 H841 H 0.78946 0.33584 0.77826
 H842 H 0.80927 0.36152 0.77394
 H843 H 0.81147 0.45715 0.76601
 H844 H 0.82828 0.48431 0.76169
 H845 H 0.87193 0.45449 0.74195
 H846 H 0.85510 0.42693 0.74694
 C847 C 0.28886 -0.12265 0.26230
 C848 C 0.27169 -0.12373 0.25460
 C849 C 0.26025 -0.13811 0.25749
 C850 C 0.26553 -0.15177 0.26844
 C851 C 0.28294 -0.15079 0.27590
 C852 C 0.29450 -0.13645 0.27273
 C853 C 0.30034 -0.10674 0.25996
 N854 N 0.31835 -0.10717 0.26179
 N855 N 0.32845 -0.09260 0.25985
 C856 C 0.32089 -0.07702 0.25619
 N857 N 0.30291 -0.07665 0.25439
 N858 N 0.29286 -0.09120 0.25616
 C859 C 0.33172 -0.06059 0.25449
 C860 C 0.32407 -0.04425 0.25799
 C861 C 0.33370 -0.02852 0.25585
 C862 C 0.35119 -0.02863 0.24977
 C863 C 0.35905 -0.04501 0.24663
 C864 C 0.34942 -0.06087 0.24908
 H865 H 0.26701 -0.11335 0.24636
 H866 H 0.24713 -0.13810 0.25136
 H867 H 0.28776 -0.16098 0.28424
 H868 H 0.30768 -0.13594 0.27886
 H869 H 0.31058 -0.04360 0.26252
 H870 H 0.32737 -0.01626 0.25911
 H871 H 0.37244 -0.04563 0.24192
 H872 H 0.35563 -0.07332 0.24628
 C873 C 0.21706 -0.12700 0.72939
 C874 C 0.21443 -0.13878 0.71486
 C875 C 0.22604 -0.15254 0.71194
 C876 C 0.24066 -0.15500 0.72351
 C877 C 0.24327 -0.14308 0.73805
 C878 C 0.23164 -0.12929 0.74093
 C879 C 0.20464 -0.11244 0.73242
 N880 N 0.20734 -0.10067 0.74616
 N881 N 0.19619 -0.08757 0.74881
 C882 C 0.18186 -0.08570 0.73784
 N883 N 0.17916 -0.09749 0.72413
 N884 N 0.19030 -0.11057 0.72148
 C885 C 0.16957 -0.07098 0.74061
 C886 C 0.15463 -0.06927 0.72938
 C887 C 0.14328 -0.05515 0.73165
 C888 C 0.14667 -0.04222 0.74517
 C889 C 0.16138 -0.04431 0.75669
 C890 C 0.17271 -0.05841 0.75441
 H891 H 0.20336 -0.13741 0.70566
 H892 H 0.22333 -0.16120 0.70056
 H893 H 0.25426 -0.14425 0.74735
 H894 H 0.23409 -0.12044 0.75225
 H895 H 0.15168 -0.07883 0.71873
 H896 H 0.13195 -0.05470 0.72273
 H897 H 0.16423 -0.03481 0.76742
 H898 H 0.18401 -0.05937 0.76342
 C899 C 0.71757 0.37359 0.22916
 C900 C 0.73118 0.37037 0.24157
 C901 C 0.74291 0.35666 0.23869
 C902 C 0.74132 0.34582 0.22333
 C903 C 0.72777 0.34916 0.21088
 C904 C 0.71605 0.36283 0.21377
 C905 C 0.70500 0.38801 0.23221
 N906 N 0.69140 0.39055 0.22054
 N907 N 0.68009 0.40348 0.22320
 C908 C 0.68188 0.41446 0.23765
 N909 N 0.69548 0.41192 0.24934
 N910 N 0.70678 0.39896 0.24668
 C911 C 0.66941 0.42901 0.24045
 C912 C 0.67182 0.44098 0.25486
 C913 C 0.66034 0.45497 0.25716
 C914 C 0.64616 0.45748 0.24512
 C915 C 0.64355 0.44518 0.23090
 C916 C 0.65505 0.43120 0.22860
 H917 H 0.73276 0.37840 0.25358
 H918 H 0.75310 0.35455 0.24862
 H919 H 0.72611 0.34127 0.19883
 H920 H 0.70578 0.36495 0.20388
 H921 H 0.68267 0.43968 0.26432
 H922 H 0.66267 0.46407 0.26833
 H923 H 0.63279 0.44607 0.22138
 H924 H 0.65270 0.42213 0.21743
 C925 C 0.70646 0.61880 0.26826
 C926 C 0.70490 0.62969 0.28340
 C927 C 0.71655 0.64425 0.28670
 C928 C 0.73006 0.64829 0.27493
 C929 C 0.73149 0.63747 0.25971
 C930 C 0.71986 0.62292 0.25643
 C931 C 0.69451 0.60300 0.26498
 N932 N 0.69672 0.59203 0.25081
 N933 N 0.68646 0.57750 0.24812
 C934 C 0.67350 0.57330 0.25946
 N935 N 0.67116 0.58435 0.27357
 N936 N 0.68145 0.59890 0.27627
 C937 C 0.66281 0.55657 0.25687
 C938 C 0.64902 0.55220 0.26822
 C939 C 0.63989 0.53581 0.26639
 C940 C 0.64452 0.52344 0.25332
 C941 C 0.65786 0.52803 0.24162
 C942 C 0.66686 0.54440 0.24335
 H943 H 0.69476 0.62690 0.29283
 H944 H 0.71501 0.65218 0.29859
 H945 H 0.74157 0.64016 0.25024
 H946 H 0.72145 0.61485 0.24461
 H947 H 0.64550 0.56130 0.27873
 H948 H 0.62968 0.53255 0.27561
 H949 H 0.66146 0.51887 0.23120
 H950 H 0.67729 0.54733 0.23427
 C951 C 0.20682 0.11936 0.76769
 C952 C 0.20522 0.13036 0.78274
 C953 C 0.21668 0.14511 0.78582
 C954 C 0.23002 0.14924 0.77390
 C955 C 0.23154 0.13826 0.75880
 C956 C 0.22010 0.12353 0.75574
 C957 C 0.19499 0.10345 0.76456
 N958 N 0.19721 0.09243 0.75043
 N959 N 0.18700 0.07786 0.74782
 C960 C 0.17407 0.07367 0.75920
 N961 N 0.17173 0.08476 0.77328
 N962 N 0.18197 0.09935 0.77590
 C963 C 0.16339 0.05693 0.75666
 C964 C 0.14960 0.05258 0.76803
 C965 C 0.14045 0.03619 0.76622
 C966 C 0.14506 0.02382 0.75314
 C967 C 0.15840 0.02839 0.74143
 C968 C 0.16742 0.04475 0.74314
 H969 H 0.19517 0.12753 0.79225
 H970 H 0.21508 0.15314 0.79763
 H971 H 0.24151 0.14098 0.74923
 H972 H 0.22173 0.11537 0.74398
 H973 H 0.14610 0.06169 0.77853
 H974 H 0.13026 0.03295 0.77544
 H975 H 0.16198 0.01922 0.73101
 H976 H 0.17784 0.04766 0.73406
 C977 C 0.22471 0.28695 0.12113
 C978 C 0.23820 0.27553 0.12610
 C979 C 0.23565 0.26382 0.13965
 C980 C 0.21957 0.26326 0.14859
 C981 C 0.20609 0.27471 0.14366
 C982 C 0.20863 0.28641 0.13008
 C983 C 0.22739 0.29924 0.10665
 N984 N 0.21426 0.30999 0.10146
 N985 N 0.21664 0.32089 0.08830
 C986 C 0.23226 0.32152 0.07980
 N987 N 0.24540 0.31081 0.08503
 N988 N 0.24302 0.29990 0.09817
 C989 C 0.23484 0.33341 0.06497
 C990 C 0.25096 0.33379 0.05613
 C991 C 0.25327 0.34465 0.04188
 C992 C 0.23965 0.35562 0.03617
 C993 C 0.22342 0.35506 0.04495
 C994 C 0.22112 0.34418 0.05923
 H995 H 0.25076 0.27560 0.11952
 H996 H 0.24640 0.25535 0.14318
 H997 H 0.19348 0.27457 0.15012
 H998 H 0.19794 0.29500 0.12657
 H999 H 0.26179 0.32556 0.06007
 H1000 H 0.26575 0.34435 0.03514
 H1001 H 0.21222 0.36256 0.04074
 H1002 H 0.20844 0.34404 0.06562
 C1003 C 0.72504 0.78659 0.61905
 C1004 C 0.73840 0.77496 0.62383
 C1005 C 0.73601 0.76353 0.63764
 C1006 C 0.72019 0.76345 0.64703
 C1007 C 0.70684 0.77512 0.64229
 C1008 C 0.70924 0.78655 0.62846
 C1009 C 0.72755 0.79863 0.60433
 N1010 N 0.71457 0.80971 0.59950
 N1011 N 0.71680 0.82048 0.58622
 C1012 C 0.73212 0.82064 0.57720
 N1013 N 0.74511 0.80958 0.58204
 N1014 N 0.74287 0.79881 0.59532
 C1015 C 0.73458 0.83258 0.56238
 C1016 C 0.75045 0.83273 0.55310
 C1017 C 0.75271 0.84392 0.53908
 C1018 C 0.73932 0.85549 0.53409
 C1019 C 0.72325 0.85497 0.54316
 C1020 C 0.72100 0.84377 0.55720
 H1021 H 0.75077 0.77466 0.61690
 H1022 H 0.74666 0.75488 0.64099
 H1023 H 0.69443 0.77537 0.64909
 H1024 H 0.69865 0.79531 0.62513
 H1025 H 0.76112 0.82412 0.55657
 H1026 H 0.76499 0.84347 0.53202
 H1027 H 0.71213 0.86279 0.53937
 H1028 H 0.70848 0.84378 0.56386
 C1029 C 0.76205 0.79192 0.37816
 C1030 C 0.75018 0.77760 0.37403
 C1031 C 0.75358 0.76552 0.36040
 C1032 C 0.76898 0.76739 0.35049
 C1033 C 0.78083 0.78179 0.35455
 C1034 C 0.77740 0.79391 0.36822
 C1035 C 0.75849 0.80438 0.39299
 N1036 N 0.76994 0.81815 0.39746
 N1037 N 0.76691 0.82892 0.41118
 C1038 C 0.75230 0.82637 0.42101
 N1039 N 0.74081 0.81270 0.41643
 N1040 N 0.74383 0.80197 0.40273
 C1041 C 0.74935 0.83758 0.43693
 C1042 C 0.73533 0.83336 0.44803
 C1043 C 0.73336 0.84282 0.46384
 C1044 C 0.74529 0.85681 0.46890
 C1045 C 0.75883 0.86161 0.45752
 C1046 C 0.76090 0.85203 0.44170
 H1047 H 0.73821 0.77562 0.38138
 H1048 H 0.74404 0.75474 0.35775
 H1049 H 0.79283 0.78372 0.34728
 H1050 H 0.78685 0.80478 0.37106
 H1051 H 0.72609 0.82241 0.44476
 H1052 H 0.72264 0.83901 0.47227
 H1053 H 0.76829 0.87226 0.46118
 H1054 H 0.77180 0.85569 0.43343
 C1055 C 0.26384 0.29119 -0.12148
 C1056 C 0.25845 0.27327 -0.12133
 C1057 C 0.26060 0.26214 -0.13602
 C1058 C 0.26843 0.26860 -0.15113
 C1059 C 0.27387 0.28652 -0.15135
 C1060 C 0.27144 0.29776 -0.13670
 C1061 C 0.26185 0.30266 -0.10560
 N1062 N 0.26156 0.32056 -0.10652
 N1063 N 0.25964 0.33068 -0.09206
 C1064 C 0.25810 0.32329 -0.07612
 N1065 N 0.25845 0.30543 -0.07527
 N1066 N 0.26023 0.29534 -0.08969
 C1067 C 0.25608 0.33422 -0.05988
 C1068 C 0.26027 0.32712 -0.04355
 C1069 C 0.25767 0.33675 -0.02801
 C1070 C 0.25051 0.35368 -0.02830
 C1071 C 0.24677 0.36106 -0.04465
 C1072 C 0.24958 0.35142 -0.06033
 H1073 H 0.25249 0.26781 -0.10983
 H1074 H 0.25643 0.24837 -0.13536
 H1075 H 0.27985 0.29187 -0.16287
 H1076 H 0.27578 0.31151 -0.13716
 H1077 H 0.26563 0.31405 -0.04274
 H1078 H 0.26140 0.33087 -0.01573
 H1079 H 0.24126 0.37404 -0.04535
 H1080 H 0.24624 0.35722 -0.07275
 C1081 C 0.73021 0.21258 -0.12735
 C1082 C 0.74356 0.22507 -0.13144
 C1083 C 0.74114 0.23626 -0.14549
 C1084 C 0.72531 0.23526 -0.15581
 C1085 C 0.71194 0.22283 -0.15162
 C1086 C 0.71437 0.21164 -0.13759
 C1087 C 0.73278 0.20059 -0.11253
 N1088 N 0.72014 0.18810 -0.10901
 N1089 N 0.72240 0.17732 -0.09572
 C1090 C 0.73742 0.17855 -0.08537
 N1091 N 0.75007 0.19104 -0.08889
 N1092 N 0.74781 0.20181 -0.10219
 C1093 C 0.73985 0.16666 -0.07045
 C1094 C 0.75501 0.16847 -0.05929
 C1095 C 0.75710 0.15751 -0.04504
 C1096 C 0.74409 0.14444 -0.04145
 C1097 C 0.72906 0.14243 -0.05290
 C1098 C 0.72697 0.15344 -0.06715
 H1099 H 0.75594 0.22617 -0.12383
 H1100 H 0.75178 0.24558 -0.14829
 H1101 H 0.69949 0.22170 -0.15908
 H1102 H 0.70376 0.20224 -0.13479
 H1103 H 0.76527 0.17845 -0.06145
 H1104 H 0.76892 0.15932 -0.03663
 H1105 H 0.71878 0.13248 -0.05115
 H1106 H 0.71518 0.15156 -0.07558
 C1107 C 0.23069 0.71281 0.37223
 C1108 C 0.21488 0.71181 0.36192
 C1109 C 0.21239 0.72314 0.34801
 C1110 C 0.22564 0.73577 0.34401
 C1111 C 0.24146 0.73677 0.35435
 C1112 C 0.24395 0.72544 0.36829
 C1113 C 0.23325 0.70078 0.38701
 N1114 N 0.24820 0.70207 0.39746
 N1115 N 0.25042 0.69131 0.41079
 C1116 C 0.23778 0.67878 0.41423
 N1117 N 0.22285 0.67747 0.40376
 N1118 N 0.22064 0.68824 0.39045
 C1119 C 0.24012 0.66693 0.42920
 C1120 C 0.22722 0.65371 0.43244
 C1121 C 0.22920 0.64275 0.44673
 C1122 C 0.24414 0.64480 0.45829
 C1123 C 0.25718 0.65787 0.45477
 C1124 C 0.25520 0.66879 0.44048
 H1125 H 0.20435 0.70229 0.36460
 H1126 H 0.19997 0.72195 0.34052
 H1127 H 0.25202 0.74623 0.35169
 H1128 H 0.25630 0.72658 0.37594
 H1129 H 0.21550 0.65181 0.42392
 H1130 H 0.21891 0.63279 0.44842
 H1131 H 0.26893 0.65970 0.46326
 H1132 H 0.26546 0.67877 0.43836
 C1133 C 0.27015 0.70640 0.61827
 C1134 C 0.28560 0.70526 0.62892
 C1135 C 0.28877 0.71692 0.64340
 C1136 C 0.27655 0.73000 0.64757
 C1137 C 0.26103 0.73101 0.63698
 C1138 C 0.25788 0.71938 0.62253
 C1139 C 0.26693 0.69446 0.60257
 N1140 N 0.25247 0.69643 0.59183
 N1141 N 0.24977 0.68619 0.57741
 C1142 C 0.26137 0.67349 0.57307
 N1143 N 0.27578 0.67139 0.58389
 N1144 N 0.27850 0.68167 0.59834
 C1145 C 0.25868 0.66282 0.55646
 C1146 C 0.26990 0.64889 0.55213
 C1147 C 0.26779 0.63965 0.53590
 C1148 C 0.25461 0.64436 0.52367
 C1149 C 0.24310 0.65790 0.52822
 C1150 C 0.24507 0.66698 0.54441
 H1151 H 0.29536 0.69545 0.62601
 H1152 H 0.30091 0.71575 0.65115
 H1153 H 0.25119 0.74073 0.63980
 H1154 H 0.24580 0.72064 0.61467
 H1155 H 0.28045 0.64529 0.56115
 H1156 H 0.27683 0.62925 0.53267
 H1157 H 0.23258 0.66155 0.51917
 H1158 H 0.23610 0.67752 0.54730
 C1159 C 0.77063 0.20600 0.11853
 C1160 C 0.78603 0.20477 0.12924
 C1161 C 0.78920 0.21640 0.14373
 C1162 C 0.77704 0.22954 0.14787
 C1163 C 0.76157 0.23063 0.13723
 C1164 C 0.75841 0.21903 0.12277
 C1165 C 0.76740 0.19411 0.10280
 N1166 N 0.75296 0.19612 0.09205
 N1167 N 0.75025 0.18591 0.07761
 C1168 C 0.76183 0.17320 0.07326
 N1169 N 0.77622 0.17105 0.08408
 N1170 N 0.77895 0.18129 0.09855
 C1171 C 0.75910 0.16254 0.05664
 C1172 C 0.77032 0.14862 0.05227
 C1173 C 0.76816 0.13937 0.03604
 C1174 C 0.75492 0.14406 0.02387
 C1175 C 0.74343 0.15760 0.02846
 C1176 C 0.74545 0.16669 0.04463
 H1177 H 0.79575 0.19492 0.12634
 H1178 H 0.80131 0.21517 0.15153
 H1179 H 0.75177 0.24040 0.14004
 H1180 H 0.74636 0.22036 0.11487
 H1181 H 0.78091 0.14503 0.06125
 H1182 H 0.77718 0.12897 0.03279
 H1183 H 0.73286 0.16124 0.01945
 H1184 H 0.73648 0.17722 0.04755
 C1185 C 0.48061 0.37105 0.53497
 C1186 C 0.48835 0.37077 0.51837
 C1187 C 0.48517 0.38420 0.50659
 C1188 C 0.47411 0.39818 0.51109
 C1189 C 0.46636 0.39841 0.52766
 C1190 C 0.46960 0.38506 0.53946
 C1191 C 0.48369 0.35670 0.54742
 N1192 N 0.47705 0.35761 0.56381
 N1193 N 0.47935 0.34457 0.57487
 C1194 C 0.48839 0.33002 0.57006
 N1195 N 0.49516 0.32915 0.55371
 N1196 N 0.49289 0.34223 0.54264
 C1197 C 0.49010 0.31515 0.58217
 C1198 C 0.49791 0.29930 0.57674
 C1199 C 0.49820 0.28487 0.58776
 C1200 C 0.49066 0.28598 0.60441
 C1201 C 0.48350 0.30202 0.61009
 C1202 C 0.48322 0.31642 0.59912
 H1203 H 0.49689 0.36017 0.51445
 H1204 H 0.49125 0.38347 0.49390
 H1205 H 0.45789 0.40901 0.53167
 H1206 H 0.46339 0.38572 0.55211
 H1207 H 0.50335 0.29786 0.56378
 H1208 H 0.50364 0.27262 0.58295
 H1209 H 0.47788 0.30338 0.62298
 H1210 H 0.47727 0.32845 0.60383
 C1211 C -0.02036 0.86996 0.03373
 C1212 C -0.01211 0.87003 0.01740
 C1213 C -0.01502 0.88364 0.00576
 C1214 C -0.02630 0.89748 0.01014
 C1215 C -0.03449 0.89742 0.02650
 C1216 C -0.03154 0.88386 0.03814
 C1217 C -0.01758 0.85543 0.04605
 N1218 N -0.02514 0.85582 0.06204
 N1219 N -0.02304 0.84266 0.07300
 C1220 C -0.01329 0.82851 0.06849
 N1221 N -0.00563 0.82813 0.05254
 N1222 N -0.00772 0.84132 0.04156
 C1223 C -0.01170 0.81354 0.08051
 C1224 C -0.00251 0.79832 0.07566
 C1225 C -0.00214 0.78381 0.08661
 C1226 C -0.01108 0.78417 0.10255
 C1227 C -0.01964 0.79966 0.10770
 C1228 C -0.01997 0.81413 0.09683
 H1229 H -0.00343 0.85953 0.01355
 H1230 H -0.00857 0.88316 -0.00676
 H1231 H -0.04311 0.90790 0.03045
 H1232 H -0.03812 0.88428 0.05060
 H1233 H 0.00411 0.79745 0.06323
 H1234 H 0.00464 0.77215 0.08228
 H1235 H -0.02623 0.80059 0.12013
 H1236 H -0.02697 0.82569 0.10115
 C1237 C 0.03191 0.64209 0.02722
 C1238 C 0.02502 0.64167 0.00986
 C1239 C 0.02787 0.62723 -0.00152
 C1240 C 0.03790 0.61303 0.00412
 C1241 C 0.04514 0.61362 0.02134
 C1242 C 0.04206 0.62794 0.03281
 C1243 C 0.02805 0.65691 0.03959
 N1244 N 0.03000 0.65511 0.05721
 N1245 N 0.02577 0.66810 0.06839
 C1246 C 0.01954 0.68351 0.06242
 N1247 N 0.01780 0.68542 0.04479
 N1248 N 0.02192 0.67237 0.03360
 C1249 C 0.01392 0.69754 0.07491
 C1250 C 0.01177 0.71496 0.06951
 C1251 C 0.00558 0.72790 0.08118
 C1252 C 0.00111 0.72355 0.09828
 C1253 C 0.00353 0.70626 0.10378
 C1254 C 0.01000 0.69342 0.09226
 H1255 H 0.01710 0.65233 0.00515
 H1256 H 0.02226 0.62724 -0.01477
 H1257 H 0.05283 0.60284 0.02612
 H1258 H 0.04760 0.62788 0.04609
 H1259 H 0.01475 0.71855 0.05624
 H1260 H 0.00375 0.74113 0.07668
 H1261 H 0.00035 0.70267 0.11700
 H1262 H 0.01148 0.68015 0.09684
 C1263 C 0.52597 0.14336 0.52451
 C1264 C 0.51268 0.13543 0.51327
 C1265 C 0.51623 0.12070 0.50262
 C1266 C 0.53321 0.11344 0.50285
 C1267 C 0.54656 0.12136 0.51409
 C1268 C 0.54298 0.13616 0.52480
 C1269 C 0.52183 0.15883 0.53600
 N1270 N 0.53434 0.16667 0.54718
 N1271 N 0.53028 0.18024 0.55779
 C1272 C 0.51355 0.18654 0.55764
 N1273 N 0.50113 0.17877 0.54637
 N1274 N 0.50518 0.16525 0.53579
 C1275 C 0.50858 0.20099 0.57002
 C1276 C 0.49070 0.20571 0.57107
 C1277 C 0.48561 0.21831 0.58357
 C1278 C 0.49826 0.22661 0.59524
 C1279 C 0.51624 0.22250 0.59379
 C1280 C 0.52135 0.20973 0.58135
 H1281 H 0.49940 0.14054 0.51271
 H1282 H 0.50551 0.11498 0.49434
 H1283 H 0.55981 0.11622 0.51459
 H1284 H 0.55354 0.14192 0.53332
 H1285 H 0.48050 0.19938 0.56251
 H1286 H 0.47169 0.22144 0.58423
 H1287 H 0.52624 0.22864 0.60272
 H1288 H 0.53524 0.20647 0.58085
 C1289 C -0.02739 0.14587 0.48336
 C1290 C -0.01413 0.14080 0.49540
 C1291 C -0.01713 0.12653 0.50624
 C1292 C -0.03343 0.11692 0.50524
 C1293 C -0.04681 0.12220 0.49344
 C1294 C -0.04383 0.13650 0.48265
 C1295 C -0.02386 0.16039 0.47119
 N1296 N -0.03678 0.16571 0.45990
 N1297 N -0.03334 0.17820 0.44842
 C1298 C -0.01683 0.18587 0.44774
 N1299 N -0.00396 0.18066 0.45914
 N1300 N -0.00741 0.16821 0.47063
 C1301 C -0.01261 0.19894 0.43426
 C1302 C 0.00510 0.20467 0.43196
 C1303 C 0.00938 0.21585 0.41840
 C1304 C -0.00393 0.22165 0.40687
 C1305 C -0.02172 0.21658 0.40954
 C1306 C -0.02602 0.20524 0.42305
 H1307 H -0.00131 0.14772 0.49632
 H1308 H -0.00650 0.12282 0.51510
 H1309 H -0.05961 0.11527 0.49246
 H1310 H -0.05437 0.14005 0.47358
 H1311 H 0.01576 0.20020 0.44038
 H1312 H 0.02318 0.21984 0.41684
 H1313 H -0.03222 0.22084 0.40078
 H1314 H -0.03981 0.20115 0.42449
 C1315 C 0.47355 0.64592 0.98259
 C1316 C 0.45701 0.63674 0.98201
 C1317 C 0.45394 0.62250 0.99286
 C1318 C 0.46732 0.61712 1.00461
 C1319 C 0.48372 0.62655 1.00547
 C1320 C 0.48682 0.64075 0.99457
 C1321 C 0.47715 0.66039 0.97038
 N1322 N 0.49368 0.66800 0.96964
 N1323 N 0.49715 0.68041 0.95812
 C1324 C 0.48424 0.68579 0.94686
 N1325 N 0.46765 0.67832 0.94773
 N1326 N 0.46418 0.66588 0.95923
 C1327 C 0.48844 0.69884 0.93336
 C1328 C 0.47499 0.70523 0.92226
 C1329 C 0.47924 0.71658 0.90875
 C1330 C 0.49702 0.72160 0.90598
 C1331 C 0.51039 0.71568 0.91739
 C1332 C 0.50615 0.70448 0.93095
 H1333 H 0.44647 0.64038 0.97299
 H1334 H 0.44106 0.61573 0.99198
 H1335 H 0.49436 0.62275 1.01429
 H1336 H 0.49972 0.64753 0.99540
 H1337 H 0.46120 0.70121 0.92380
 H1338 H 0.46870 0.72091 0.90008
 H1339 H 0.52419 0.71963 0.91576
 H1340 H 0.51685 0.69994 0.93929
 C1341 C 0.51621 0.86794 0.96811
 C1342 C 0.50898 0.86761 0.98492
 C1343 C 0.51314 0.88116 0.99740
 C1344 C 0.52469 0.89532 0.99341
 C1345 C 0.53174 0.89576 0.97653
 C1346 C 0.52752 0.88226 0.96402
 C1347 C 0.51241 0.85321 0.95509
 N1348 N 0.51879 0.85388 0.93862
 N1349 N 0.51604 0.84036 0.92714
 C1350 C 0.50680 0.82557 0.93164
 N1351 N 0.50028 0.82495 0.94806
 N1352 N 0.50301 0.83850 0.95954
 C1353 C 0.50475 0.81011 0.91919
 C1354 C 0.49698 0.79407 0.92445
 C1355 C 0.49649 0.77909 0.91317
 C1356 C 0.50377 0.77985 0.89644
 C1357 C 0.51091 0.79604 0.89092
 C1358 C 0.51139 0.81100 0.90216
 H1359 H 0.50021 0.85680 0.98851
 H1360 H 0.50754 0.88031 1.01028
 H1361 H 0.54050 0.90655 0.97291
 H1362 H 0.53331 0.88297 0.95120
 H1363 H 0.49173 0.79292 0.93746
 H1364 H 0.49108 0.76675 0.91786
 H1365 H 0.51634 0.79709 0.87797
 H1366 H 0.51732 0.82316 0.89760
 C1367 C 0.01572 0.36824 0.46810
 C1368 C 0.00857 0.36795 0.48494
 C1369 C 0.01276 0.38155 0.49737
 C1370 C 0.02424 0.39573 0.49328
 C1371 C 0.03123 0.39612 0.47638
 C1372 C 0.02699 0.38257 0.46392
 C1373 C 0.01188 0.35347 0.45514
 N1374 N 0.01827 0.35404 0.43866
 N1375 N 0.01547 0.34047 0.42724
 C1376 C 0.00615 0.32575 0.43179
 N1377 N -0.00039 0.32524 0.44822
 N1378 N 0.00240 0.33883 0.45964
 C1379 C 0.00406 0.31023 0.41943
 C1380 C -0.00380 0.29426 0.42477
 C1381 C -0.00432 0.27921 0.41359
 C1382 C 0.00301 0.27983 0.39686
 C1383 C 0.01021 0.29595 0.39126
 C1384 C 0.01073 0.31098 0.40240
 H1385 H -0.00016 0.35714 0.48861
 H1386 H 0.00721 0.38072 0.51028
 H1387 H 0.03995 0.40692 0.47268
 H1388 H 0.03272 0.38325 0.45107
 H1389 H -0.00907 0.29320 0.43778
 H1390 H -0.00977 0.26692 0.41835
 H1391 H 0.01567 0.29689 0.37831
 H1392 H 0.01671 0.32309 0.39777
 C1393 C 0.37037 0.53369 0.48017
 C1394 C 0.38438 0.53828 0.46919
 C1395 C 0.39802 0.52661 0.46602
 C1396 C 0.39808 0.51003 0.47378
 C1397 C 0.38414 0.50543 0.48484
 C1398 C 0.37041 0.51711 0.48796
 C1399 C 0.35573 0.54606 0.48308
 N1400 N 0.34138 0.54140 0.49256
 N1401 N 0.32804 0.55241 0.49463
 C1402 C 0.32852 0.56856 0.48735
 N1403 N 0.34294 0.57325 0.47803
 N1404 N 0.35624 0.56226 0.47594
 C1405 C 0.31338 0.58060 0.48883
 C1406 C 0.31402 0.59701 0.48073
 C1407 C 0.29938 0.60788 0.48090
 C1408 C 0.28369 0.60265 0.48915
 C1409 C 0.28327 0.58663 0.49793
 C1410 C 0.29794 0.57567 0.49771
 H1411 H 0.38484 0.55092 0.46295
 H1412 H 0.40859 0.53072 0.45759
 H1413 H 0.38368 0.49273 0.49094
 H1414 H 0.35982 0.51311 0.49647
 H1415 H 0.32573 0.60139 0.47395
 H1416 H 0.30035 0.62037 0.47441
 H1417 H 0.27144 0.58225 0.50445
 H1418 H 0.29701 0.56316 0.50416
 C1419 C 0.87056 0.03346 -0.02013
 C1420 C 0.88455 0.03810 -0.03111
 C1421 C 0.89822 0.02647 -0.03430
 C1422 C 0.89833 0.00989 -0.02655
 C1423 C 0.88444 0.00527 -0.01543
 C1424 C 0.87068 0.01691 -0.01229
 C1425 C 0.85588 0.04578 -0.01719
 N1426 N 0.84158 0.04109 -0.00765
 N1427 N 0.82823 0.05208 -0.00552
 C1428 C 0.82864 0.06824 -0.01280
 N1429 N 0.84300 0.07293 -0.02221
 N1430 N 0.85631 0.06197 -0.02436
 C1431 C 0.81351 0.08026 -0.01124
 C1432 C 0.81409 0.09666 -0.01935
 C1433 C 0.79947 0.10753 -0.01911
 C1434 C 0.78382 0.10232 -0.01077
 C1435 C 0.78346 0.08631 -0.00196
 C1436 C 0.79812 0.07534 -0.00226
 H1437 H 0.88494 0.05073 -0.03737
 H1438 H 0.90876 0.03061 -0.04276
 H1439 H 0.88402 -0.00743 -0.00933
 H1440 H 0.86012 0.01289 -0.00378
 H1441 H 0.82577 0.10104 -0.02620
 H1442 H 0.80040 0.12002 -0.02560
 H1443 H 0.77168 0.08195 0.00466
 H1444 H 0.79725 0.06285 0.00424
 C1445 C 0.64086 0.02705 0.03200
 C1446 C 0.62686 0.03274 0.04241
 C1447 C 0.61248 0.02129 0.04567
 C1448 C 0.61165 0.00399 0.03839
 C1449 C 0.62568 -0.00174 0.02806
 C1450 C 0.64020 0.00962 0.02501
 C1451 C 0.65577 0.03940 0.02803
 N1452 N 0.67121 0.03331 0.02168
 N1453 N 0.68434 0.04450 0.01754
 C1454 C 0.68253 0.06225 0.01949
 N1455 N 0.66713 0.06832 0.02593
 N1456 N 0.65406 0.05713 0.03017
 C1457 C 0.69664 0.07476 0.01391
 C1458 C 0.69252 0.09225 0.01022
 C1459 C 0.70544 0.10381 0.00384
 C1460 C 0.72281 0.09822 0.00128
 C1461 C 0.72717 0.08098 0.00550
 C1462 C 0.71414 0.06926 0.01160
 H1463 H 0.62699 0.04607 0.04803
 H1464 H 0.60183 0.02615 0.05358
 H1465 H 0.62550 -0.01504 0.02239
 H1466 H 0.65074 0.00485 0.01689
 H1467 H 0.67919 0.09690 0.01183
 H1468 H 0.70185 0.11714 0.00082
 H1469 H 0.74046 0.07640 0.00355
 H1470 H 0.71773 0.05589 0.01441
 C1471 C 0.14052 0.52743 0.53155
 C1472 C 0.13974 0.51004 0.52448
 C1473 C 0.12520 0.49872 0.52756
 C1474 C 0.11127 0.50446 0.53801
 C1475 C 0.11222 0.52172 0.54539
 C1476 C 0.12662 0.53312 0.54209
 C1477 C 0.15543 0.53976 0.52753
 N1478 N 0.15375 0.55750 0.52967
 N1479 N 0.16683 0.56866 0.52539
 C1480 C 0.18220 0.56257 0.51891
 N1481 N 0.18398 0.54482 0.51695
 N1482 N 0.17084 0.53365 0.52112
 C1483 C 0.19634 0.57506 0.51335
 C1484 C 0.21384 0.56956 0.51110
 C1485 C 0.22691 0.58128 0.50507
 C1486 C 0.22259 0.59853 0.50086
 C1487 C 0.20520 0.60412 0.50334
 C1488 C 0.19225 0.59256 0.50965
 H1489 H 0.15021 0.50526 0.51627
 H1490 H 0.12492 0.48543 0.52183
 H1491 H 0.10165 0.52657 0.55341
 H1492 H 0.12684 0.54643 0.54778
 H1493 H 0.21741 0.55618 0.51392
 H1494 H 0.24021 0.57670 0.50318
 H1495 H 0.20164 0.61746 0.50032
 H1496 H 0.17891 0.59722 0.51121
 C1497 C 0.14442 0.47964 -0.02902
 C1498 C 0.13979 0.49232 -0.01618
 C1499 C 0.12528 0.50305 -0.01897
 C1500 C 0.11498 0.50136 -0.03465
 C1501 C 0.11975 0.48884 -0.04760
 C1502 C 0.13430 0.47813 -0.04483
 C1503 C 0.15931 0.46771 -0.02563
 N1504 N 0.16406 0.45552 -0.03799
 N1505 N 0.17690 0.44428 -0.03455
 C1506 C 0.18552 0.44476 -0.01861
 N1507 N 0.18087 0.45708 -0.00635
 N1508 N 0.16808 0.46831 -0.00979
 C1509 C 0.19889 0.43151 -0.01420
 C1510 C 0.20525 0.43032 0.00324
 C1511 C 0.21654 0.41689 0.00790
 C1512 C 0.22186 0.40441 -0.00476
 C1513 C 0.21628 0.40601 -0.02235
 C1514 C 0.20477 0.41938 -0.02702
 H1515 H 0.14726 0.49385 -0.00383
 H1516 H 0.12199 0.51243 -0.00864
 H1517 H 0.11228 0.48727 -0.05993
 H1518 H 0.13748 0.46852 -0.05501
 H1519 H 0.20113 0.43947 0.01345
 H1520 H 0.22097 0.41614 0.02151
 H1521 H 0.22025 0.39652 -0.03232
 H1522 H 0.20020 0.41999 -0.04059
 C1523 C 0.64523 0.98317 0.47191
 C1524 C 0.63585 0.98205 0.45567
 C1525 C 0.62134 0.99270 0.45255
 C1526 C 0.61589 1.00480 0.46557
 C1527 C 0.62552 1.00624 0.48166
 C1528 C 0.63999 0.99552 0.48481
 C1529 C 0.65991 0.97109 0.47560
 N1530 N 0.66768 0.97078 0.49190
 N1531 N 0.68023 0.95931 0.49547
 C1532 C 0.68561 0.94767 0.48289
 N1533 N 0.67800 0.94812 0.46653
 N1534 N 0.66542 0.95957 0.46297
 C1535 C 0.69877 0.93418 0.48722
 C1536 C 0.70510 0.92268 0.47409
 C1537 C 0.71650 0.90914 0.47849
 C1538 C 0.72161 0.90674 0.49608
 C1539 C 0.71576 0.91856 0.50912
 C1540 C 0.70452 0.93215 0.50474
 H1541 H 0.63953 0.97274 0.44541
 H1542 H 0.61440 0.99140 0.43992
 H1543 H 0.62166 1.01534 0.49201
 H1544 H 0.64692 0.99677 0.49747
 H1545 H 0.70101 0.92391 0.46046
 H1546 H 0.72078 0.90015 0.46820
 H1547 H 0.71979 0.91723 0.52277
 H1548 H 0.70002 0.94081 0.51519
 C1549 C 0.86982 0.96772 0.51310
 C1550 C 0.86906 0.98521 0.50754
 C1551 C 0.88274 0.99757 0.51217
 C1552 C 0.89744 0.99273 0.52255
 C1553 C 0.89838 0.97515 0.52775
 C1554 C 0.88477 0.96280 0.52306
 C1555 C 0.85485 0.95486 0.50922
 N1556 N 0.85578 0.93795 0.51449
 N1557 N 0.84200 0.92661 0.51196
 C1558 C 0.82667 0.93168 0.50404
 N1559 N 0.82580 0.94853 0.49856
 N1560 N 0.83960 0.95988 0.50109
 C1561 C 0.81094 0.91937 0.50244
 C1562 C 0.79469 0.92482 0.49517
 C1563 C 0.77950 0.91369 0.49514
 C1564 C 0.78024 0.89694 0.50243
 C1565 C 0.79660 0.89123 0.50909
 C1566 C 0.81178 0.90230 0.50907
 H1567 H 0.85776 0.98946 0.49982
 H1568 H 0.88154 1.01100 0.50798
 H1569 H 0.90961 0.97087 0.53551
 H1570 H 0.88586 0.94943 0.52752
 H1571 H 0.79357 0.93787 0.48993
 H1572 H 0.76703 0.91851 0.49008
 H1573 H 0.79761 0.87825 0.51453
 H1574 H 0.82408 0.89758 0.51464
 C1575 C 0.36948 0.46852 0.01391
 C1576 C 0.36856 0.48601 0.00838
 C1577 C 0.38229 0.49840 0.01280
 C1578 C 0.39718 0.49358 0.02290
 C1579 C 0.39828 0.47599 0.02803
 C1580 C 0.38463 0.46362 0.02357
 C1581 C 0.35451 0.45559 0.01031
 N1582 N 0.35552 0.43880 0.01587
 N1583 N 0.34178 0.42739 0.01359
 C1584 C 0.32640 0.43225 0.00564
 N1585 N 0.32543 0.44900 -0.00013
 N1586 N 0.33920 0.46043 0.00216
 C1587 C 0.31076 0.41982 0.00426
 C1588 C 0.29463 0.42475 -0.00370
 C1589 C 0.27955 0.41344 -0.00366
 C1590 C 0.28030 0.39709 0.00443
 C1591 C 0.29653 0.39192 0.01186
 C1592 C 0.31159 0.40313 0.01174
 H1593 H 0.35710 0.49024 0.00089
 H1594 H 0.38099 0.51184 0.00867
 H1595 H 0.40967 0.47171 0.03557
 H1596 H 0.38586 0.45025 0.02798
 H1597 H 0.29353 0.43749 -0.00960
 H1598 H 0.26715 0.41780 -0.00937
 H1599 H 0.29754 0.37925 0.01793
 H1600 H 0.32379 0.39882 0.01788
 C1601 C 0.53529 0.47937 0.37081
 C1602 C 0.51843 0.48687 0.37076
 C1603 C 0.50674 0.48374 0.38437
 C1604 C 0.51158 0.47296 0.39830
 C1605 C 0.52845 0.46550 0.39835
 C1606 C 0.54016 0.46869 0.38481
 C1607 C 0.54768 0.48239 0.35629
 N1608 N 0.56434 0.47602 0.35702
 N1609 N 0.57537 0.47828 0.34386
 C1610 C 0.57025 0.48700 0.32936
 N1611 N 0.55361 0.49348 0.32864
 N1612 N 0.54257 0.49124 0.34184
 C1613 C 0.58235 0.48867 0.31438
 C1614 C 0.57674 0.49638 0.29868
 C1615 C 0.58778 0.49663 0.28418
 C1616 C 0.60461 0.48914 0.28507
 C1617 C 0.61047 0.48206 0.30095
 C1618 C 0.59949 0.48183 0.31542
 H1619 H 0.51422 0.49513 0.36019
 H1620 H 0.49382 0.48962 0.38382
 H1621 H 0.53275 0.45730 0.40892
 H1622 H 0.55302 0.46267 0.38530
 H1623 H 0.56364 0.50181 0.29743
 H1624 H 0.58283 0.50204 0.27207
 H1625 H 0.62351 0.47649 0.30215
 H1626 H 0.60437 0.47597 0.32733
 C1627 C 0.03574 -0.02049 0.87060
 C1628 C 0.01888 -0.01298 0.87055
 C1629 C 0.00715 -0.01616 0.88411
 C1630 C 0.01196 -0.02700 0.89800
 C1631 C 0.02881 -0.03448 0.89805
 C1632 C 0.04056 -0.03123 0.88456
 C1633 C 0.04816 -0.01742 0.85613
 N1634 N 0.06483 -0.02377 0.85688
 N1635 N 0.07589 -0.02147 0.84375
 C1636 C 0.07079 -0.01272 0.82926
 N1637 N 0.05415 -0.00626 0.82853
 N1638 N 0.04308 -0.00853 0.84170
 C1639 C 0.08292 -0.01101 0.81432
 C1640 C 0.07729 -0.00336 0.79860
 C1641 C 0.08836 -0.00305 0.78412
 C1642 C 0.10524 -0.01044 0.78506
 C1643 C 0.11111 -0.01746 0.80097
 C1644 C 0.10011 -0.01774 0.81541
 H1645 H 0.01472 -0.00465 0.86000
 H1646 H -0.00576 -0.01027 0.88356
 H1647 H 0.03307 -0.04274 0.90860
 H1648 H 0.05342 -0.03725 0.88506
 H1649 H 0.06416 0.00198 0.79730
 H1650 H 0.08341 0.00231 0.77198
 H1651 H 0.12419 -0.02296 0.80220
 H1652 H 0.10498 -0.02357 0.82734
 C1653 C 0.02594 0.02625 0.64298
 C1654 C 0.02631 0.04330 0.63618
 C1655 C 0.01563 0.04711 0.62149
 C1656 C 0.00433 0.03396 0.61329
 C1657 C 0.00400 0.01695 0.62015
 C1658 C 0.01462 0.01316 0.63477
 C1659 C 0.03741 0.02185 0.65831
 N1660 N 0.03717 0.00515 0.66427
 N1661 N 0.04773 0.00089 0.67769
 C1662 C 0.05898 0.01314 0.68580
 N1663 N 0.05915 0.02992 0.67995
 N1664 N 0.04858 0.03419 0.66648
 C1665 C 0.07131 0.00798 0.70017
 C1666 C 0.08256 0.02057 0.70929
 C1667 C 0.09492 0.01532 0.72203
 C1668 C 0.09637 -0.00262 0.72577
 C1669 C 0.08478 -0.01512 0.71706
 C1670 C 0.07237 -0.00989 0.70447
 H1671 H 0.03488 0.05370 0.64217
 H1672 H 0.01620 0.06038 0.61666
 H1673 H -0.00432 0.00637 0.61419
 H1674 H 0.01399 -0.00014 0.63956
 H1675 H 0.08205 0.03445 0.70636
 H1676 H 0.10379 0.02521 0.72848
 H1677 H 0.08544 -0.02901 0.71988
 H1678 H 0.06387 -0.01996 0.69783
 C1679 C 0.52595 0.52660 0.14280
 C1680 C 0.51460 0.51356 0.13455
 C1681 C 0.50404 0.51741 0.11992
 C1682 C 0.50446 0.53443 0.11308
 C1683 C 0.51580 0.54753 0.12131
 C1684 C 0.52642 0.54366 0.13602
 C1685 C 0.53734 0.52213 0.15816
 N1686 N 0.54860 0.53438 0.16634
 N1687 N 0.55910 0.53004 0.17983
 C1688 C 0.55876 0.51327 0.18570
 N1689 N 0.54742 0.50110 0.17759
 N1690 N 0.53694 0.50544 0.16415
 C1691 C 0.57100 0.50801 0.20011
 C1692 C 0.57193 0.49013 0.20438
 C1693 C 0.58426 0.48480 0.21701
 C1694 C 0.59589 0.49721 0.22576
 C1695 C 0.59458 0.51518 0.22205
 C1696 C 0.58230 0.52053 0.20927
 H1697 H 0.51390 0.50026 0.13932
 H1698 H 0.49570 0.50687 0.11392
 H1699 H 0.51644 0.56080 0.11649
 H1700 H 0.53502 0.55402 0.14204
 H1701 H 0.56339 0.48011 0.19770
 H1702 H 0.58482 0.47090 0.21980
 H1703 H 0.60349 0.52500 0.22854
 H1704 H 0.58189 0.53441 0.20636
 C1705 C 0.47806 -0.02968 0.14556
 C1706 C 0.47638 -0.04546 0.13531
 C1707 C 0.48710 -0.04818 0.12082
 C1708 C 0.49978 -0.03521 0.11624
 C1709 C 0.50163 -0.01957 0.12667
 C1710 C 0.49092 -0.01683 0.14112
 C1711 C 0.46612 -0.02630 0.16039
 N1712 N 0.46692 -0.01045 0.16929
 N1713 N 0.45566 -0.00697 0.18202
 C1714 C 0.44312 -0.01918 0.18646
 N1715 N 0.44245 -0.03514 0.17772
 N1716 N 0.45371 -0.03862 0.16495
 C1717 C 0.42981 -0.01467 0.19975
 C1718 C 0.41747 -0.02746 0.20545
 C1719 C 0.40403 -0.02264 0.21688
 C1720 C 0.40258 -0.00495 0.22254
 C1721 C 0.41528 0.00767 0.21740
 C1722 C 0.42878 0.00286 0.20620
 H1723 H 0.46664 -0.05565 0.13835
 H1724 H 0.48539 -0.06048 0.11324
 H1725 H 0.51114 -0.00922 0.12355
 H1726 H 0.49260 -0.00451 0.14870
 H1727 H 0.41796 -0.04110 0.20082
 H1728 H 0.39437 -0.03257 0.22070
 H1729 H 0.41463 0.02135 0.22187
 H1730 H 0.43809 0.01305 0.20221
 C1731 C 0.97794 0.47054 0.64560
 C1732 C 0.97630 0.45476 0.63535
 C1733 C 0.98699 0.45208 0.62083
 C1734 C 0.99961 0.46510 0.61623
 C1735 C 1.00143 0.48075 0.62666
 C1736 C 0.99073 0.48343 0.64114
 C1737 C 0.96602 0.47387 0.66046
 N1738 N 0.96676 0.48971 0.66937
 N1739 N 0.95551 0.49314 0.68212
 C1740 C 0.94304 0.48087 0.68659
 N1741 N 0.94242 0.46491 0.67785
 N1742 N 0.95368 0.46149 0.66505
 C1743 C 0.92970 0.48534 0.69987
 C1744 C 0.91745 0.47249 0.70565
 C1745 C 0.90395 0.47728 0.71701
 C1746 C 0.90233 0.49499 0.72253
 C1747 C 0.91496 0.50766 0.71734
 C1748 C 0.92852 0.50289 0.70622
 H1749 H 0.96661 0.44453 0.63841
 H1750 H 0.98532 0.43978 0.61325
 H1751 H 1.01088 0.49114 0.62352
 H1752 H 0.99237 0.49576 0.64871
 H1753 H 0.91807 0.45883 0.70110
 H1754 H 0.89435 0.46730 0.72089
 H1755 H 0.91418 0.52136 0.72171
 H1756 H 0.93777 0.51312 0.70218
 C1757 C 0.96669 0.51827 0.86774
 C1758 C 0.98367 0.51105 0.86755
 C1759 C 0.99617 0.51523 0.88110
 C1760 C 0.99202 0.52679 0.89511
 C1761 C 0.97498 0.53384 0.89540
 C1762 C 0.96246 0.52961 0.88190
 C1763 C 0.95362 0.51446 0.85306
 N1764 N 0.93707 0.52106 0.85356
 N1765 N 0.92554 0.51832 0.84010
 C1766 C 0.93003 0.50884 0.82553
 N1767 N 0.94654 0.50208 0.82507
 N1768 N 0.95808 0.50482 0.83856
 C1769 C 0.91749 0.50678 0.81017
 C1770 C 0.92245 0.49810 0.79452
 C1771 C 0.91107 0.49749 0.77963
 C1772 C 0.89457 0.50561 0.78012
 C1773 C 0.88934 0.51369 0.79592
 C1774 C 0.90064 0.51425 0.81077
 H1775 H 0.98738 0.50227 0.85685
 H1776 H 1.00919 0.50963 0.88038
 H1777 H 0.97122 0.54260 0.90607
 H1778 H 0.94950 0.53540 0.88251
 H1779 H 0.93532 0.49218 0.79360
 H1780 H 0.91548 0.49130 0.76758
 H1781 H 0.87654 0.51977 0.79674
 H1782 H 0.89628 0.52089 0.82263
 C1783 C 0.46587 0.01475 0.36853
 C1784 C 0.48328 0.00857 0.36790
 C1785 C 0.49570 0.01290 0.38150
 C1786 C 0.49102 0.02359 0.39598
 C1787 C 0.47352 0.02946 0.39676
 C1788 C 0.46110 0.02508 0.38323
 C1789 C 0.45291 0.01108 0.35373
 N1790 N 0.43610 0.01700 0.35455
 N1791 N 0.42467 0.01456 0.34098
 C1792 C 0.42952 0.00607 0.32596
 N1793 N 0.44628 -0.00004 0.32518
 N1794 N 0.45773 0.00240 0.33878
 C1795 C 0.41709 0.00450 0.31049
 C1796 C 0.42220 -0.00359 0.29459
 C1797 C 0.41092 -0.00369 0.27964
 C1798 C 0.39440 0.00438 0.28030
 C1799 C 0.38904 0.01189 0.29631
 C1800 C 0.40022 0.01192 0.31123
 H1801 H 0.48740 0.00057 0.35678
 H1802 H 0.50907 0.00821 0.38043
 H1803 H 0.46934 0.03748 0.40782
 H1804 H 0.44781 0.03002 0.38421
 H1805 H 0.43508 -0.00946 0.29356
 H1806 H 0.41544 -0.00945 0.26742
 H1807 H 0.37623 0.01794 0.29724
 H1808 H 0.39576 0.01814 0.32326
   
