data_POSCAR
  _audit_creation_date              2014-09-24
  _audit_creation_method            'ToBaCCo'
  _symmetry_space_group_name_H-M    'P1'
  _symmetry_Int_Tables_number       1
  _symmetry_cell_setting            triclinic
  loop_
  _symmetry_equiv_pos_as_xyz
 x,y,z
_cell_length_a 65.9422
_cell_length_b 65.7441
_cell_length_c 66.8540
_cell_angle_alpha 89.230200
_cell_angle_beta 90.627600
_cell_angle_gamma 89.770100
loop_
  _atom_site_label
  _atom_site_type_symbol
  _atom_site_fract_x
  _atom_site_fract_y
  _atom_site_fract_z
N1 N 0.36124 1.35829 0.30735
 N2 N 0.34834 1.37351 0.30871
 C3 C 0.35080 1.38644 0.29324
 C4 C 0.36618 1.37919 0.28153
 C5 C 0.37261 1.36122 0.29087
 H6 H 0.34198 1.40015 0.29064
 H7 H 0.38433 1.35094 0.28596
 Cu8 Cu 0.32931 1.37554 0.33025
 Cu9 Cu 0.36124 1.33562 0.32688
 Cu10 Cu 0.32135 1.33577 0.36052
 N11 N 0.30537 1.37400 0.34651
 N12 N 0.30236 1.35843 0.35860
 C13 C 0.28511 1.36146 0.36872
 C14 C 0.27690 1.37995 0.36247
 C15 C 0.29009 1.38743 0.34830
 H16 H 0.27915 1.35101 0.37978
 H17 H 0.28882 1.40171 0.34015
 N18 N 0.34212 1.31430 0.36023
 N19 N 0.35769 1.31430 0.34794
 C20 C 0.36954 1.29800 0.35242
 C21 C 0.36080 1.28738 0.36817
 C22 C 0.34353 1.29809 0.37262
 H23 H 0.38340 1.29416 0.34481
 H24 H 0.33296 1.29444 0.38437
 H25 H 0.33060 1.33867 0.33086
 H26 H 0.34754 1.35002 0.35026
 N27 N 0.35763 0.85719 0.80368
 N28 N 0.34109 0.86832 0.80486
 C29 C 0.34051 0.88165 0.78935
 C30 C 0.35764 0.87875 0.77799
 C31 C 0.36818 0.86308 0.78752
 H32 H 0.32860 0.89271 0.78653
 H33 H 0.38240 0.85637 0.78311
 Cu34 Cu 0.32214 0.86427 0.82670
 Cu35 Cu 0.36464 0.83616 0.82331
 Cu36 Cu 0.32842 0.82490 0.85886
 N37 N 0.30360 0.85964 0.84877
 N38 N 0.30586 0.84382 0.86083
 C39 C 0.29099 0.84384 0.87444
 C40 C 0.27882 0.86060 0.87083
 C41 C 0.28719 0.87035 0.85439
 H42 H 0.28931 0.83267 0.88632
 H43 H 0.28174 0.88409 0.84705
 N44 N 0.35252 0.80789 0.85465
 N45 N 0.36648 0.81223 0.84128
 C46 C 0.38123 0.79799 0.84244
 C47 C 0.37639 0.78424 0.85741
 C48 C 0.35807 0.79092 0.86479
 H49 H 0.39462 0.79772 0.83326
 H50 H 0.34943 0.78403 0.87671
 H51 H 0.33477 0.82954 0.82867
 H52 H 0.34751 0.84635 0.84727
 N53 N 0.85204 1.34272 0.79907
 N54 N 0.84462 1.36072 0.80342
 C55 C 0.85172 1.37451 0.79005
 C56 C 0.86409 1.36429 0.77670
 C57 C 0.86367 1.34424 0.78280
 H58 H 0.84847 1.39063 0.79031
 H59 H 0.87211 1.33176 0.77650
 Cu60 Cu 0.82697 1.36378 0.82671
 Cu61 Cu 0.84889 1.31897 0.81620
 Cu62 Cu 0.83531 1.33023 0.86423
 N63 N 0.80930 1.36273 0.85019
 N64 N 0.81293 1.34947 0.86472
 C65 C 0.79876 1.35125 0.87885
 C66 C 0.78542 1.36641 0.87303
 C67 C 0.79253 1.37354 0.85474
 H68 H 0.79802 1.34194 0.89229
 H69 H 0.78589 1.38536 0.84534
 N70 N 0.85008 1.30545 0.85752
 N71 N 0.85419 1.30055 0.83894
 C72 C 0.86483 1.28307 0.83906
 C73 C 0.86756 1.27675 0.85865
 C74 C 0.85792 1.29123 0.87003
 H75 H 0.87115 1.27610 0.82594
 H76 H 0.85707 1.29178 0.88615
 H77 H 0.82586 1.32757 0.83570
 H78 H 0.85170 1.33881 0.83876
 N79 N 0.85101 0.84158 0.29602
 N80 N 0.84295 0.85951 0.29957
 C81 C 0.84961 0.87287 0.28547
 C82 C 0.86231 0.86237 0.27254
 C83 C 0.86252 0.84266 0.27965
 H84 H 0.84568 0.88885 0.28481
 H85 H 0.87126 0.83011 0.27387
 Cu86 Cu 0.82470 0.86249 0.32272
 Cu87 Cu 0.84845 0.81830 0.31376
 Cu88 Cu 0.83307 0.82973 0.36117
 N89 N 0.80644 0.86137 0.34605
 N90 N 0.81019 0.84843 0.36085
 C91 C 0.79564 0.84985 0.37465
 C92 C 0.78185 0.86442 0.36844
 C93 C 0.78911 0.87158 0.35016
 H94 H 0.79493 0.84058 0.38813
 H95 H 0.78212 0.88295 0.34046
 N96 N 0.84932 0.80554 0.35536
 N97 N 0.85409 0.80058 0.33696
 C98 C 0.86506 0.78330 0.33749
 C99 C 0.86733 0.77712 0.35717
 C100 C 0.85709 0.79153 0.36819
 H101 H 0.87171 0.77622 0.32459
 H102 H 0.85549 0.79194 0.38426
 H103 H 0.82490 0.82657 0.33258
 H104 H 0.85020 0.83881 0.33622
 N105 N 0.64597 0.66092 0.29558
 N106 N 0.65656 0.64433 0.29954
 C107 C 0.65481 0.63172 0.28377
 C108 C 0.64276 0.64134 0.26928
 C109 C 0.63767 0.65977 0.27724
 H110 H 0.66159 0.61675 0.28295
 H111 H 0.62755 0.67099 0.27056
 Cu112 Cu 0.67147 0.64135 0.32507
 Cu113 Cu 0.63991 0.68101 0.31544
 Cu114 Cu 0.66686 0.67854 0.35958
 N115 N 0.68999 0.64335 0.34822
 N116 N 0.68791 0.65792 0.36136
 C117 C 0.70274 0.65637 0.37524
 C118 C 0.71484 0.63998 0.37078
 C119 C 0.70635 0.63193 0.35350
 H120 H 0.70483 0.66665 0.38758
 H121 H 0.71188 0.61909 0.34518
 N122 N 0.64507 0.69848 0.35457
 N123 N 0.63536 0.69988 0.33728
 C124 C 0.62152 0.71491 0.33812
 C125 C 0.62250 0.72330 0.35683
 C126 C 0.63763 0.71261 0.36696
 H127 H 0.61111 0.71920 0.32617
 H128 H 0.64283 0.71489 0.38215
 H129 H 0.66840 0.67784 0.32897
 H130 H 0.64689 0.66359 0.34090
 N131 N 0.63511 0.15652 0.79832
 N132 N 0.64553 0.13953 0.80027
 C133 C 0.64058 0.12713 0.78508
 C134 C 0.62625 0.13707 0.77309
 C135 C 0.62327 0.15565 0.78188
 H136 H 0.64674 0.11204 0.78311
 H137 H 0.61270 0.16738 0.77701
 Cu138 Cu 0.66410 0.13515 0.82278
 Cu139 Cu 0.63573 0.17746 0.81831
 Cu140 Cu 0.66987 0.17188 0.85763
 N141 N 0.68581 0.13426 0.84269
 N142 N 0.68794 0.14824 0.85645
 C143 C 0.70431 0.14362 0.86794
 C144 C 0.71286 0.12584 0.86088
 C145 C 0.70076 0.12040 0.84489
 H146 H 0.70977 0.15273 0.88020
 H147 H 0.70287 0.10738 0.83541
 N148 N 0.65029 0.19478 0.85546
 N149 N 0.63806 0.19714 0.83984
 C150 C 0.62683 0.21401 0.84208
 C151 C 0.63197 0.22268 0.85999
 C152 C 0.64695 0.21018 0.86824
 H153 H 0.61525 0.21941 0.83172
 H154 H 0.65476 0.21214 0.88238
 H155 H 0.66579 0.17172 0.82730
 H156 H 0.64552 0.15965 0.84279
 N157 N 1.14297 0.65812 0.79892
 N158 N 1.15499 0.64232 0.80188
 C159 C 1.15234 0.62936 0.78648
 C160 C 1.13806 0.63790 0.77337
 C161 C 1.13266 0.65604 0.78171
 H162 H 1.16022 0.61503 0.78486
 H163 H 1.12145 0.66668 0.77589
 Cu164 Cu 1.17309 0.64177 0.82547
 Cu165 Cu 1.13925 0.67945 0.81814
 Cu166 Cu 1.16848 0.67717 0.86124
 N167 N 1.19051 0.64122 0.84951
 N168 N 1.18831 0.65521 0.86325
 C169 C 1.20244 0.65246 0.87765
 C170 C 1.21427 0.63597 0.87286
 C171 C 1.20632 0.62907 0.85486
 H172 H 1.20441 0.66213 0.89048
 H173 H 1.21196 0.61660 0.84609
 N174 N 1.14768 0.69830 0.85622
 N175 N 1.13725 0.69955 0.83930
 C176 C 1.12440 0.71543 0.84004
 C177 C 1.12668 0.72451 0.85831
 C178 C 1.14160 0.71338 0.86829
 H179 H 1.11365 0.71978 0.82842
 H180 H 1.14747 0.71597 0.88319
 H181 H 1.16819 0.67809 0.83061
 H182 H 1.14828 0.66228 0.84295
 N183 N 1.13358 0.15974 0.29904
 N184 N 1.14571 0.14385 0.30011
 C185 C 1.14156 0.13152 0.28466
 C186 C 1.12599 0.14030 0.27346
 C187 C 1.12135 0.15815 0.28295
 H188 H 1.14929 0.11735 0.28179
 H189 H 1.10964 0.16896 0.27864
 Cu190 Cu 1.16568 0.14151 0.32156
 Cu191 Cu 1.13365 0.18071 0.31912
 Cu192 Cu 1.16831 0.17574 0.35851
 N193 N 1.18599 0.13920 0.34263
 N194 N 1.18708 0.15247 0.35717
 C195 C 1.20303 0.14761 0.36916
 C196 C 1.21235 0.13044 0.36154
 C197 C 1.20114 0.12559 0.34480
 H198 H 1.20772 0.15616 0.38211
 H199 H 1.20419 0.11326 0.33470
 N200 N 1.14797 0.19814 0.35646
 N201 N 1.13568 0.20029 0.34082
 C202 C 1.12413 0.21693 0.34308
 C203 C 1.12903 0.22562 0.36102
 C204 C 1.14423 0.21341 0.36929
 H205 H 1.11250 0.22217 0.33270
 H206 H 1.15198 0.21554 0.38344
 H207 H 1.16393 0.17778 0.32823
 H208 H 1.14496 0.16290 0.34274
 N209 N 0.64142 1.34242 0.70220
 N210 N 0.65309 1.35842 0.69971
 C211 C 0.65077 1.37070 0.71568
 C212 C 0.63714 1.36149 0.72870
 C213 C 0.63177 1.34366 0.71968
 H214 H 0.65849 1.38501 0.71778
 H215 H 0.62102 1.33264 0.72528
 Cu216 Cu 0.67043 1.36069 0.67586
 Cu217 Cu 0.63742 1.32197 0.68213
 Cu218 Cu 0.66794 1.32364 0.64092
 N219 N 0.68966 1.35938 0.65346
 N220 N 0.68834 1.34480 0.64020
 C221 C 0.70331 1.34681 0.62687
 C222 C 0.71476 1.36350 0.63176
 C223 C 0.70572 1.37127 0.64877
 H224 H 0.70591 1.33669 0.61454
 H225 H 0.71064 1.38428 0.65725
 N226 N 0.64644 1.30328 0.64433
 N227 N 0.63508 1.30247 0.66041
 C228 C 0.62203 1.28690 0.65879
 C229 C 0.62529 1.27746 0.64085
 C230 C 0.64090 1.28818 0.63198
 H231 H 0.61082 1.28270 0.66977
 H232 H 0.64778 1.28516 0.61772
 H233 H 0.66693 1.32418 0.67157
 H234 H 0.64688 1.33904 0.65750
 N235 N 0.63896 0.85528 1.19760
 N236 N 0.65232 0.86981 1.19501
 C237 C 0.65123 0.88296 1.21016
 C238 C 0.63620 0.87649 1.22285
 C239 C 0.62864 0.85884 1.21449
 H240 H 0.66059 0.89632 1.21179
 H241 H 0.61675 0.84923 1.22030
 Cu242 Cu 0.66969 0.87030 1.17211
 Cu243 Cu 0.63659 0.83288 1.17878
 Cu244 Cu 0.67271 0.83079 1.14103
 N245 N 0.69234 0.86720 1.15458
 N246 N 0.69355 0.85225 1.14177
 C247 C 0.71097 0.85435 1.13145
 C248 C 0.72104 0.87138 1.13858
 C249 C 0.70882 0.87898 1.15323
 H250 H 0.71615 0.84405 1.12009
 H251 H 0.71176 0.89218 1.16229
 N252 N 0.65020 0.81078 1.14371
 N253 N 0.63681 0.81160 1.15827
 C254 C 0.62369 0.79613 1.15637
 C255 C 0.62886 0.78501 1.13987
 C256 C 0.64577 0.79466 1.13211
 H257 H 0.61110 0.79314 1.16620
 H258 H 0.65423 0.79026 1.11909
 H259 H 0.66704 0.83355 1.17101
 H260 H 0.64890 0.84642 1.15336
 N261 N 1.14068 1.35144 1.19766
 N262 N 1.15582 1.36424 1.19551
 C263 C 1.15500 1.37811 1.21019
 C264 C 1.13850 1.37384 1.22215
 C265 C 1.12974 1.35678 1.21373
 H266 H 1.16561 1.39044 1.21214
 H267 H 1.11649 1.34875 1.21892
 Cu268 Cu 1.17520 1.36136 1.17368
 Cu269 Cu 1.13637 1.32865 1.17950
 Cu270 Cu 1.17034 1.32368 1.14062
 N271 N 1.19413 1.35855 1.15143
 N272 N 1.19205 1.34358 1.13872
 C273 C 1.20687 1.34467 1.12508
 C274 C 1.21892 1.36120 1.12928
 C275 C 1.21043 1.36975 1.14615
 H276 H 1.20881 1.33419 1.11291
 H277 H 1.21578 1.38298 1.15403
 N278 N 1.14750 1.30488 1.14472
 N279 N 1.13457 1.30660 1.15955
 C280 C 1.12094 1.29137 1.15830
 C281 C 1.12549 1.27961 1.14191
 C282 C 1.14243 1.28863 1.13368
 H283 H 1.10857 1.28894 1.16853
 H284 H 1.15057 1.28365 1.12068
 H285 H 1.16617 1.32546 1.17126
 H286 H 1.14976 1.34217 1.15510
 N287 N 1.13977 0.84666 0.69486
 N288 N 1.15519 0.85915 0.69680
 C289 C 1.15315 0.86986 0.71360
 C290 C 1.13546 0.86422 0.72268
 C291 C 1.12713 0.84938 0.71046
 H292 H 1.16355 0.88136 0.71878
 H293 H 1.11321 0.84110 0.71285
 Cu294 Cu 1.17587 0.86184 0.67674
 Cu295 Cu 1.13845 0.82748 0.67238
 Cu296 Cu 1.17651 0.83222 0.63671
 N297 N 1.19669 0.86471 0.65678
 N298 N 1.19660 0.85347 0.64069
 C299 C 1.21195 0.85928 0.62880
 C300 C 1.22213 0.87500 0.63808
 C301 C 1.21212 0.87798 0.65576
 H302 H 1.21538 0.85259 0.61453
 H303 H 1.21565 0.88932 0.66683
 N304 N 1.15502 0.81160 0.63523
 N305 N 1.14042 0.80962 0.64850
 C306 C 1.12876 0.79359 0.64329
 C307 C 1.13657 0.78524 0.62600
 C308 C 1.15309 0.79704 0.62142
 H309 H 1.11591 0.78812 0.65167
 H310 H 1.16320 0.79484 0.60900
 H311 H 1.16901 0.82705 0.66661
 H312 H 1.15323 0.84599 0.65242
 N313 N 0.36233 0.64606 0.69641
 N314 N 0.34989 0.63088 0.69319
 C315 C 0.35083 0.61767 0.70863
 C316 C 0.36483 0.62476 0.72220
 C317 C 0.37195 0.64285 0.71407
 H318 H 0.34205 0.60385 0.70987
 H319 H 0.38301 0.65299 0.72056
 Cu320 Cu 0.33356 0.62967 0.66937
 Cu321 Cu 0.36437 0.66880 0.67742
 Cu322 Cu 0.32925 0.66966 0.63800
 N323 N 0.31121 0.63215 0.65096
 N324 N 0.30947 0.64741 0.63815
 C325 C 0.29221 0.64499 0.62739
 C326 C 0.28281 0.62742 0.63425
 C327 C 0.29522 0.61979 0.64917
 H328 H 0.28665 0.65548 0.61597
 H329 H 0.29271 0.60628 0.65820
 N330 N 0.35066 0.69050 0.64133
 N331 N 0.36371 0.69023 0.65650
 C332 C 0.37619 0.70626 0.65475
 C333 C 0.37090 0.71710 0.63770
 C334 C 0.35463 0.70675 0.62949
 H335 H 0.38845 0.70977 0.66500
 H336 H 0.34631 0.71072 0.61596
 H337 H 0.33432 0.66649 0.66830
 H338 H 0.35362 0.65498 0.65161
 N339 N 0.35388 0.15964 1.19651
 N340 N 0.33633 0.15099 1.20016
 C341 C 0.33769 0.13998 1.21716
 C342 C 0.35713 0.14159 1.22458
 C343 C 0.36713 0.15426 1.21120
 H344 H 0.32565 0.13070 1.22321
 H345 H 0.38284 0.15887 1.21184
 Cu346 Cu 0.31387 0.15227 1.18149
 Cu347 Cu 0.35778 0.17677 1.17266
 Cu348 Cu 0.32120 0.17168 1.13562
 N349 N 0.29647 0.14521 1.15929
 N350 N 0.29972 0.15228 1.14114
 C351 C 0.28649 0.14367 1.12839
 C352 C 0.27441 0.13046 1.13925
 C353 C 0.28108 0.13189 1.15878
 H354 H 0.28598 0.14658 1.11244
 H355 H 0.27562 0.12334 1.17156
 N356 N 0.34409 0.19052 1.13321
 N357 N 0.35816 0.19257 1.14724
 C358 C 0.37096 0.20750 1.14161
 C359 C 0.36447 0.21511 1.12318
 C360 C 0.34750 0.20400 1.11835
 H361 H 0.38353 0.21288 1.15057
 H362 H 0.33795 0.20612 1.10523
 H363 H 0.32786 0.18183 1.16464
 H364 H 0.33985 0.15725 1.15682
 N365 N 0.86033 0.65099 1.19247
 N366 N 0.84478 0.63854 1.19145
 C367 C 0.84600 0.62482 1.20646
 C368 C 0.86334 0.62857 1.21742
 C369 C 0.87225 0.64527 1.20813
 H370 H 0.83504 0.61297 1.20930
 H371 H 0.88615 0.65278 1.21246
 Cu372 Cu 0.82446 0.64074 1.17044
 Cu373 Cu 0.86305 0.67384 1.17339
 Cu374 Cu 0.81716 0.68668 1.15050
 N375 N 0.80494 0.64514 1.14887
 N376 N 0.80181 0.66346 1.14135
 C377 C 0.78721 0.66268 1.12721
 C378 C 0.78102 0.64277 1.12565
 C379 C 0.79251 0.63196 1.13966
 H380 H 0.78168 0.67562 1.11856
 H381 H 0.79179 0.61587 1.14308
 N382 N 0.84010 0.70536 1.15213
 N383 N 0.85821 0.70019 1.15919
 C384 C 0.87132 0.71531 1.15476
 C385 C 0.86067 0.73057 1.14456
 C386 C 0.84103 0.72380 1.14338
 H387 H 0.88736 0.71502 1.15830
 H388 H 0.82864 0.73108 1.13527
 H389 H 0.83315 0.67620 1.17597
 H390 H 0.84158 0.66714 1.15103
 N391 N 0.85689 0.15043 0.69089
 N392 N 0.84262 0.13660 0.68902
 C393 C 0.84507 0.12231 0.70340
 C394 C 0.86166 0.12731 0.71494
 C395 C 0.86893 0.14526 0.70662
 H396 H 0.83521 0.10940 0.70572
 H397 H 0.88158 0.15420 0.71193
 Cu398 Cu 0.82139 0.13886 0.66889
 Cu399 Cu 0.85763 0.17476 0.67355
 Cu400 Cu 0.81800 0.17996 0.63921
 N401 N 0.80025 0.14144 0.64861
 N402 N 0.79869 0.15804 0.63754
 C403 C 0.78298 0.15626 0.62476
 C404 C 0.77429 0.13753 0.62790
 C405 C 0.78553 0.12842 0.64317
 H406 H 0.77847 0.16752 0.61362
 H407 H 0.78326 0.11350 0.64973
 N408 N 0.83896 0.20050 0.64269
 N409 N 0.85489 0.19825 0.65467
 C410 C 0.86733 0.21432 0.65183
 C411 C 0.85844 0.22713 0.63756
 C412 C 0.84057 0.21798 0.63228
 H413 H 0.88163 0.21658 0.65954
 H414 H 0.82987 0.22345 0.62106
 H415 H 0.82695 0.17544 0.66908
 H416 H 0.84238 0.16234 0.64980
 N417 N 1.35261 0.35597 0.70288
 N418 N 1.36077 0.33785 0.70544
 C419 C 1.37349 0.33805 0.72128
 C420 C 1.37337 0.35735 0.72907
 C421 C 1.35990 0.36841 0.71709
 H422 H 1.38250 0.32521 0.72649
 H423 H 1.35577 0.38425 0.71849
 Cu424 Cu 1.35525 0.31604 0.68714
 Cu425 Cu 1.33311 0.36159 0.68131
 Cu426 Cu 1.33009 0.32567 0.64389
 N427 N 1.35782 0.29850 0.66441
 N428 N 1.34878 0.30241 0.64714
 C429 C 1.35492 0.28850 0.63376
 C430 C 1.36855 0.27534 0.64338
 C431 C 1.36986 0.28211 0.66275
 H432 H 1.35009 0.28824 0.61826
 H433 H 1.37949 0.27601 0.67461
 N434 N 1.31276 0.35049 0.64411
 N435 N 1.31422 0.36418 0.65836
 C436 C 1.30008 0.37869 0.65518
 C437 C 1.28909 0.37402 0.63821
 C438 C 1.29752 0.35602 0.63147
 H439 H 1.29744 0.39145 0.66486
 H440 H 1.29260 0.34733 0.61872
 H441 H 1.32473 0.33197 0.67357
 H442 H 1.34855 0.34227 0.66226
 N443 N 1.35323 0.85698 1.19841
 N444 N 1.36246 0.83942 1.20120
 C445 C 1.37505 0.84062 1.21709
 C446 C 1.37365 0.86002 1.22462
 C447 C 1.35960 0.87004 1.21242
 H448 H 1.38471 0.82838 1.22259
 H449 H 1.35436 0.88557 1.21356
 Cu450 Cu 1.35793 0.81699 1.18333
 Cu451 Cu 1.33341 0.86125 1.17703
 Cu452 Cu 1.33132 0.82459 1.14040
 N453 N 1.36064 0.79911 1.16085
 N454 N 1.35079 0.80214 1.14385
 C455 C 1.35681 0.78800 1.13068
 C456 C 1.37123 0.77562 1.14013
 C457 C 1.37316 0.78308 1.15919
 H458 H 1.35131 0.78705 1.11543
 H459 H 1.38338 0.77761 1.17086
 N460 N 1.31320 0.84876 1.14035
 N461 N 1.31430 0.86269 1.15436
 C462 C 1.29977 0.87674 1.15104
 C463 C 1.28895 0.87152 1.13419
 C464 C 1.29782 0.85368 1.12766
 H465 H 1.29682 0.88961 1.16051
 H466 H 1.29312 0.84469 1.11501
 H467 H 1.32639 0.83104 1.16999
 H468 H 1.34945 0.84225 1.15799
 N469 N 0.84975 0.35390 1.19975
 N470 N 0.85979 0.33683 1.20306
 C471 C 0.87153 0.33862 1.21946
 C472 C 0.86893 0.35784 1.22694
 C473 C 0.85490 0.36727 1.21413
 H474 H 0.88172 0.32694 1.22520
 H475 H 0.84908 0.38263 1.21501
 Cu476 Cu 0.85851 0.31414 1.18511
 Cu477 Cu 0.83110 0.35693 1.17669
 Cu478 Cu 0.83588 0.31999 1.14048
 N479 N 0.86482 0.29642 1.16320
 N480 N 0.85630 0.29900 1.14550
 C481 C 0.86391 0.28519 1.13291
 C482 C 0.87800 0.27340 1.14339
 C483 C 0.87815 0.28091 1.16255
 H484 H 0.85952 0.28389 1.11736
 H485 H 0.88748 0.27568 1.17502
 N486 N 0.81603 0.34232 1.13831
 N487 N 0.81394 0.35646 1.15201
 C488 C 0.79833 0.36878 1.14651
 C489 C 0.79033 0.36187 1.12855
 C490 C 0.80193 0.34519 1.12387
 H491 H 0.79287 0.38140 1.15517
 H492 H 0.79981 0.33551 1.11107
 H493 H 0.82727 0.32677 1.16983
 H494 H 0.85043 0.33984 1.16005
 N495 N 0.85275 0.85634 0.69488
 N496 N 0.86583 0.84146 0.69246
 C497 C 0.88010 0.84234 0.70703
 C498 C 0.87573 0.85872 0.71902
 C499 C 0.85824 0.86722 0.71091
 H500 H 0.89278 0.83197 0.70877
 H501 H 0.84999 0.88025 0.71627
 Cu502 Cu 0.86293 0.82268 0.67030
 Cu503 Cu 0.82948 0.86071 0.67729
 Cu504 Cu 0.82310 0.82688 0.63857
 N505 N 0.85872 0.80349 0.64868
 N506 N 0.84297 0.80518 0.63653
 C507 C 0.84356 0.79018 0.62307
 C508 C 0.86061 0.77852 0.62688
 C509 C 0.86994 0.78732 0.64327
 H510 H 0.83251 0.78798 0.61123
 H511 H 0.88376 0.78234 0.65070
 N512 N 0.80459 0.84983 0.64305
 N513 N 0.80689 0.86264 0.65793
 C514 C 0.79185 0.87655 0.65698
 C515 C 0.77965 0.87236 0.64069
 C516 C 0.78811 0.85531 0.63219
 H517 H 0.78995 0.88897 0.66725
 H518 H 0.78265 0.84741 0.61914
 H519 H 0.82682 0.83066 0.66907
 H520 H 0.84194 0.84766 0.65233
 N521 N 0.65605 0.64231 0.70154
 N522 N 0.64029 0.65443 0.69895
 C523 C 0.62774 0.65182 0.71469
 C524 C 0.63652 0.63750 0.72765
 C525 C 0.65437 0.63201 0.71885
 H526 H 0.61356 0.65983 0.71670
 H527 H 0.66510 0.62079 0.72448
 Cu528 Cu 0.63901 0.67287 0.67550
 Cu529 Cu 0.67689 0.63867 0.68187
 Cu530 Cu 0.67453 0.66896 0.63956
 N531 N 0.63879 0.69079 0.65167
 N532 N 0.65291 0.68896 0.63803
 C533 C 0.65035 0.70344 0.62389
 C534 C 0.63380 0.71508 0.62867
 C535 C 0.62666 0.70670 0.64644
 H536 H 0.66012 0.70569 0.61117
 H537 H 0.61407 0.71213 0.65515
 N538 N 0.69539 0.64790 0.64381
 N539 N 0.69660 0.63679 0.66034
 C540 C 0.71235 0.62384 0.65903
 C541 C 0.72139 0.62686 0.64080
 C542 C 0.71034 0.64225 0.63146
 H543 H 0.71674 0.61268 0.67031
 H544 H 0.71295 0.64881 0.61680
 H545 H 0.67525 0.66806 0.67028
 H546 H 0.65949 0.64835 0.65749
 N547 N 0.66060 1.13951 1.20107
 N548 N 0.64462 1.15128 1.19819
 C549 C 0.63122 1.14740 1.21298
 C550 C 0.63963 1.13248 1.22557
 C551 C 0.65819 1.12811 1.21759
 H552 H 0.61656 1.15465 1.21435
 H553 H 0.66881 1.11668 1.22303
 Cu554 Cu 0.64384 1.17036 1.17522
 Cu555 Cu 0.68230 1.13695 1.18220
 Cu556 Cu 0.68057 1.16786 1.14031
 N557 N 0.64419 1.18893 1.15189
 N558 N 0.65862 1.18747 1.13853
 C559 C 0.65628 1.20222 1.12462
 C560 C 0.63958 1.21369 1.12931
 C561 C 0.63210 1.20489 1.14675
 H562 H 0.66637 1.20484 1.11221
 H563 H 0.61929 1.21006 1.15529
 N564 N 0.70173 1.14719 1.14490
 N565 N 0.70283 1.13609 1.16143
 C566 C 0.71879 1.12338 1.16038
 C567 C 0.72805 1.12652 1.14229
 C568 C 0.71696 1.14177 1.13278
 H569 H 0.72303 1.11210 1.17160
 H570 H 0.71964 1.14828 1.11812
 H571 H 0.68031 1.16652 1.17096
 H572 H 0.66542 1.14664 1.15744
 N573 N 0.15910 0.63728 1.20192
 N574 N 0.14154 0.64646 1.19914
 C575 C 0.12895 0.64089 1.21400
 C576 C 0.13936 0.62746 1.22664
 C577 C 0.15840 0.62567 1.21858
 H578 H 0.11339 0.64594 1.21522
 H579 H 0.17056 0.61592 1.22402
 Cu580 Cu 0.13687 0.66401 1.17584
 Cu581 Cu 0.18051 0.63860 1.18242
 Cu582 Cu 0.17397 0.67111 1.14167
 N583 N 0.13578 0.68611 1.15623
 N584 N 0.14994 0.68881 1.14274
 C585 C 0.14505 0.70523 1.13129
 C586 C 0.12690 0.71323 1.13815
 C587 C 0.12155 0.70071 1.15395
 H588 H 0.15417 0.71099 1.11914
 H589 H 0.10829 0.70224 1.16322
 N590 N 0.19781 0.65266 1.14497
 N591 N 0.20060 0.64142 1.16129
 C592 C 0.21794 0.63084 1.15979
 C593 C 0.22647 0.63522 1.14161
 C594 C 0.21338 0.64916 1.13242
 H595 H 0.22367 0.61997 1.17075
 H596 H 0.21503 0.65613 1.11779
 H597 H 0.17319 0.66800 1.17197
 H598 H 0.16305 0.64636 1.15704
 N599 N 0.15826 1.14118 0.69914
 N600 N 0.14153 1.15169 0.69580
 C601 C 0.12838 1.14759 0.71072
 C602 C 0.13769 1.13384 0.72391
 C603 C 0.15658 1.13039 0.71618
 H604 H 0.11320 1.15376 0.71164
 H605 H 0.16785 1.11981 0.72202
 Cu606 Cu 0.13883 1.16918 0.67189
 Cu607 Cu 0.17968 1.13888 0.67992
 Cu608 Cu 0.17672 1.16949 0.63793
 N609 N 0.13954 1.18888 0.64959
 N610 N 0.15432 1.18858 0.63652
 C611 C 0.15161 1.20374 0.62311
 C612 C 0.13428 1.21425 0.62788
 C613 C 0.12684 1.20443 0.64480
 H614 H 0.16175 1.20716 0.61091
 H615 H 0.11350 1.20845 0.65317
 N616 N 0.19835 1.14931 0.64228
 N617 N 0.19988 1.13824 0.65881
 C618 C 0.21609 1.12588 0.65758
 C619 C 0.22511 1.12926 0.63940
 C620 C 0.21357 1.14425 0.63000
 H621 H 0.22072 1.11475 0.66879
 H622 H 0.21595 1.15085 0.61533
 H623 H 0.17548 1.16824 0.66861
 H624 H 0.16267 1.14714 0.65472
 N625 N 1.34200 0.63647 0.29940
 N626 N 1.35842 0.64762 0.30083
 C627 C 1.37084 0.64303 0.28557
 C628 C 1.36150 0.62824 0.27412
 C629 C 1.34329 0.62455 0.28330
 H630 H 1.38549 0.64986 0.28304
 H631 H 1.33201 0.61359 0.27877
 Cu632 Cu 1.36171 0.66697 0.32255
 Cu633 Cu 1.32095 0.63688 0.31924
 Cu634 Cu 1.32494 0.67131 0.35772
 N635 N 1.36225 0.68816 0.34269
 N636 N 1.34820 0.68996 0.35641
 C637 C 1.35258 0.70627 0.36780
 C638 C 1.37030 0.71509 0.36070
 C639 C 1.37591 0.70315 0.34484
 H640 H 1.34342 0.71142 0.38007
 H641 H 1.38892 0.70547 0.33538
 N642 N 1.30253 0.65108 0.35579
 N643 N 1.30088 0.63882 0.34039
 C644 C 1.28421 0.62737 0.34237
 C645 C 1.27484 0.63226 0.35989
 C646 C 1.28679 0.64742 0.36821
 H647 H 1.27929 0.61586 0.33200
 H648 H 1.28413 0.65525 0.38207
 H649 H 1.32519 0.66738 0.32757
 H650 H 1.33830 0.64761 0.34346
 N651 N 1.34401 1.13554 0.80578
 N652 N 1.35916 1.14831 0.80367
 C653 C 1.36997 1.14298 0.78751
 C654 C 1.36100 1.12601 0.77911
 C655 C 1.34460 1.12178 0.79107
 H656 H 1.38325 1.15090 0.78221
 H657 H 1.33390 1.10950 0.78919
 Cu658 Cu 1.36296 1.17073 0.82227
 Cu659 Cu 1.32467 1.13744 0.82748
 Cu660 Cu 1.33157 1.17634 0.86126
 N661 N 1.36689 1.19237 0.84173
 N662 N 1.35458 1.19433 0.85693
 C663 C 1.36057 1.21017 0.86807
 C664 C 1.37758 1.21866 0.85940
 C665 C 1.38114 1.20701 0.84270
 H666 H 1.35300 1.21516 0.88140
 H667 H 1.39326 1.20908 0.83211
 N668 N 1.30916 1.15663 0.86318
 N669 N 1.30663 1.14173 0.85037
 C670 C 1.29028 1.13078 0.85572
 C671 C 1.28212 1.13923 0.87270
 C672 C 1.29442 1.15559 0.87697
 H673 H 1.28468 1.11771 0.84778
 H674 H 1.29273 1.16590 0.88932
 H675 H 1.32737 1.16840 0.83174
 H676 H 1.34416 1.15150 0.84737
 N677 N 0.84330 0.63416 0.80587
 N678 N 0.85822 0.64713 0.80340
 C679 C 0.86910 0.64164 0.78739
 C680 C 0.86045 0.62435 0.77942
 C681 C 0.84411 0.62007 0.79147
 H682 H 0.88222 0.64969 0.78192
 H683 H 0.83364 0.60756 0.78988
 Cu684 Cu 0.86199 0.67001 0.82127
 Cu685 Cu 0.82405 0.63632 0.82762
 Cu686 Cu 0.83101 0.67602 0.86042
 N687 N 0.86597 0.69182 0.84036
 N688 N 0.85383 0.69387 0.85567
 C689 C 0.85990 0.70974 0.86664
 C690 C 0.87678 0.71815 0.85774
 C691 C 0.88020 0.70648 0.84106
 H692 H 0.85242 0.71482 0.87998
 H693 H 0.89222 0.70850 0.83035
 N694 N 0.80877 0.65644 0.86288
 N695 N 0.80620 0.64112 0.85056
 C696 C 0.78997 0.63028 0.85645
 C697 C 0.78201 0.63932 0.87324
 C698 C 0.79422 0.65584 0.87683
 H699 H 0.78432 0.61691 0.84903
 H700 H 0.79263 0.66652 0.88888
 H701 H 0.82653 0.66735 0.83103
 H702 H 0.84371 0.65094 0.84682
 N703 N 0.84554 1.13646 0.30006
 N704 N 0.86126 1.14865 0.30073
 C705 C 0.87361 1.14424 0.28532
 C706 C 0.86489 1.12850 0.27459
 C707 C 0.84717 1.12409 0.28435
 H708 H 0.88770 1.15190 0.28212
 H709 H 0.83635 1.11247 0.28035
 Cu710 Cu 0.86299 1.16905 0.32179
 Cu711 Cu 0.82439 1.13659 0.31990
 Cu712 Cu 0.82802 1.17118 0.35848
 N713 N 0.86473 1.18921 0.34298
 N714 N 0.85120 1.19004 0.35730
 C715 C 0.85582 1.20569 0.36944
 C716 C 0.87315 1.21512 0.36228
 C717 C 0.87831 1.20423 0.34555
 H718 H 0.84703 1.21009 0.38224
 H719 H 0.89095 1.20730 0.33582
 N720 N 0.80572 1.15078 0.35643
 N721 N 0.80425 1.13842 0.34107
 C722 C 0.78755 1.12700 0.34293
 C723 C 0.77800 1.13198 0.36032
 C724 C 0.78986 1.14716 0.36870
 H725 H 0.78268 1.11551 0.33252
 H726 H 0.78700 1.15510 0.38245
 H727 H 0.82676 1.16704 0.32837
 H728 H 0.84183 1.14818 0.34348
 N729 N 0.64915 0.36581 0.31065
 N730 N 0.63325 0.35416 0.31345
 C731 C 0.62023 0.35633 0.29806
 C732 C 0.62813 0.37020 0.28478
 C733 C 0.64656 0.37614 0.29316
 H734 H 0.60617 0.34806 0.29644
 H735 H 0.65745 0.38662 0.28687
 Cu736 Cu 0.63091 0.33594 0.33590
 Cu737 Cu 0.67214 0.36519 0.32976
 Cu738 Cu 0.67165 0.32441 0.36357
 N739 N 0.63197 0.31148 0.35182
 N740 N 0.64803 0.30681 0.36274
 C741 C 0.64477 0.28900 0.37229
 C742 C 0.62566 0.28223 0.36674
 C743 C 0.61802 0.29680 0.35372
 H744 H 0.65556 0.28158 0.38229
 H745 H 0.60341 0.29675 0.34618
 N746 N 0.69394 0.34406 0.36220
 N747 N 0.69399 0.36010 0.35005
 C748 C 0.71049 0.37144 0.35434
 C749 C 0.72120 0.36185 0.36978
 C750 C 0.71035 0.34461 0.37424
 H751 H 0.71428 0.38563 0.34695
 H752 H 0.71386 0.33367 0.38601
 H753 H 0.66752 0.33480 0.33422
 H754 H 0.65846 0.35198 0.35431
 N755 N 0.65718 0.86701 0.80621
 N756 N 0.64205 0.85417 0.80443
 C757 C 0.63061 0.85954 0.78846
 C758 C 0.63898 0.87669 0.77976
 C759 C 0.65588 0.88099 0.79133
 H760 H 0.61729 0.85148 0.78347
 H761 H 0.66637 0.89340 0.78909
 Cu762 Cu 0.63865 0.83167 0.82304
 Cu763 Cu 0.67714 0.86468 0.82788
 Cu764 Cu 0.67139 0.82411 0.86113
 N765 N 0.63566 0.80899 0.84154
 N766 N 0.64844 0.80626 0.85657
 C767 C 0.64255 0.79011 0.86756
 C768 C 0.62516 0.78232 0.85887
 C769 C 0.62128 0.79455 0.84235
 H770 H 0.65033 0.78455 0.88086
 H771 H 0.60866 0.79323 0.83201
 N772 N 0.69358 0.84386 0.86324
 N773 N 0.69563 0.85950 0.85083
 C774 C 0.71175 0.87053 0.85672
 C775 C 0.72019 0.86129 0.87358
 C776 C 0.70839 0.84444 0.87722
 H777 H 0.71693 0.88423 0.84930
 H778 H 0.71034 0.83360 0.88941
 H779 H 0.67459 0.83360 0.83166
 H780 H 0.65859 0.84984 0.84792
 N781 N 0.15112 0.36474 0.81044
 N782 N 0.13512 0.35306 0.81253
 C783 C 0.12314 0.35473 0.79630
 C784 C 0.13172 0.36842 0.78332
 C785 C 0.14952 0.37470 0.79265
 H786 H 0.10927 0.34630 0.79396
 H787 H 0.16070 0.38509 0.78672
 Cu788 Cu 0.13133 0.33561 0.83533
 Cu789 Cu 0.17294 0.36446 0.83086
 Cu790 Cu 0.17027 0.32437 0.86544
 N791 N 0.13104 0.31165 0.85194
 N792 N 0.14638 0.30707 0.86387
 C793 C 0.14233 0.28951 0.87359
 C794 C 0.12346 0.28283 0.86709
 C795 C 0.11680 0.29720 0.85335
 H796 H 0.15244 0.28218 0.88430
 H797 H 0.10269 0.29712 0.84494
 N798 N 0.19298 0.34366 0.86464
 N799 N 0.19396 0.35927 0.85199
 C800 C 0.21063 0.37026 0.85649
 C801 C 0.22051 0.36093 0.87260
 C802 C 0.20897 0.34418 0.87725
 H803 H 0.21512 0.38404 0.84875
 H804 H 0.21180 0.33348 0.88939
 H805 H 0.16799 0.33419 0.83577
 H806 H 0.15798 0.35186 0.85495
 N807 N 0.15931 0.86320 0.30576
 N808 N 0.14378 0.85089 0.30386
 C809 C 0.13317 0.85617 0.28728
 C810 C 0.14266 0.87266 0.27841
 C811 C 0.15922 0.87664 0.29043
 H812 H 0.11957 0.84867 0.28213
 H813 H 0.17010 0.88874 0.28839
 Cu814 Cu 0.13880 0.82950 0.32349
 Cu815 Cu 0.17776 0.86178 0.32847
 Cu816 Cu 0.16962 0.82358 0.36363
 N817 N 0.13484 0.80768 0.34288
 N818 N 0.14678 0.80565 0.35867
 C819 C 0.14041 0.78989 0.36994
 C820 C 0.12358 0.78155 0.36064
 C821 C 0.12052 0.79314 0.34349
 H822 H 0.14759 0.78497 0.38379
 H823 H 0.10860 0.79122 0.33245
 N824 N 0.19186 0.84333 0.36583
 N825 N 0.19476 0.85794 0.35245
 C826 C 0.21053 0.86937 0.35829
 C827 C 0.21793 0.86157 0.37621
 C828 C 0.20588 0.84501 0.38053
 H829 H 0.21622 0.88236 0.35008
 H830 H 0.20710 0.83516 0.39357
 H831 H 0.17422 0.83088 0.33398
 H832 H 0.15779 0.84848 0.34846
 O833 O 1.07843 1.01471 1.09610
 O834 O 1.10242 1.01413 1.11936
 C835 C 1.08592 1.02141 1.11228
 C836 C 1.07542 1.03798 1.12281
 C837 C 1.08240 1.04433 1.14160
 H838 H 1.09535 1.03681 1.14861
 O839 O 0.93048 0.97883 1.10006
 O840 O 0.90740 0.97951 1.12368
 C841 C 0.92361 0.97216 1.11654
 C842 C 0.93419 0.95528 1.12720
 C843 C 0.92816 0.94937 1.14641
 H844 H 0.91628 0.95781 1.15375
 O845 O 1.02569 1.09779 1.07021
 O846 O 1.02664 1.12121 1.09350
 C847 C 1.03329 1.11395 1.07732
 C848 C 1.05049 1.12397 1.06703
 C849 C 1.05862 1.14228 1.07419
 H850 H 1.05139 1.14952 1.08665
 O851 O 0.98165 0.89747 1.07118
 O852 O 0.98216 0.87317 1.09423
 C853 C 0.97502 0.88072 1.07800
 C854 C 0.95846 0.87024 1.06726
 C855 C 0.95227 0.85086 1.07351
 H856 H 0.96021 0.84320 1.08575
 O857 O 1.10486 1.06692 1.01562
 O858 O 1.12912 1.08991 1.01485
 C859 C 1.12194 1.07335 1.02168
 C860 C 1.13318 1.06181 1.03735
 C861 C 1.15280 1.06760 1.04309
 H862 H 1.16016 1.08011 1.03538
 O863 O 0.90011 0.92732 1.01987
 O864 O 0.87599 0.90418 1.01986
 C865 C 0.88365 0.92035 1.02681
 C866 C 0.87356 0.93070 1.04352
 C867 C 0.85473 0.92381 1.05023
 H868 H 0.84726 0.91142 1.04259
 O869 O 0.98549 1.07059 1.09757
 O870 O 0.98666 1.09405 1.12082
 C871 C 0.97905 1.07786 1.11386
 C872 C 0.96218 1.06782 1.12460
 C873 C 0.95580 1.07531 1.14305
 H874 H 0.96376 1.08798 1.14972
 O875 O 1.02111 0.92482 1.09865
 O876 O 1.02156 0.90085 1.12206
 C877 C 1.02828 0.91749 1.11489
 C878 C 1.04500 0.92811 1.12517
 C879 C 1.05111 0.92212 1.14449
 H880 H 1.04300 0.91011 1.15223
 O881 O 1.10504 0.97432 1.06964
 O882 O 1.12917 0.97344 1.09273
 C883 C 1.12157 0.96693 1.07651
 C884 C 1.13167 0.95044 1.06547
 C885 C 1.15061 0.94250 1.07164
 H886 H 1.15821 0.94917 1.08433
 O887 O 0.90234 1.01839 1.07211
 O888 O 0.87892 1.01886 1.09540
 C889 C 0.88586 1.02540 1.07888
 C890 C 0.87496 1.04162 1.06757
 C891 C 0.85552 1.04791 1.07330
 H892 H 0.84811 1.04009 1.08553
 O893 O 0.92982 1.09918 1.01875
 O894 O 0.90668 1.12346 1.01973
 C895 C 0.92332 1.11573 1.02593
 C896 C 0.93507 1.12606 1.04177
 C897 C 0.92908 1.14534 1.04826
 H898 H 0.91605 1.15283 1.04136
 O899 O 1.07301 0.89792 1.01788
 O900 O 1.09603 0.87357 1.01664
 C901 C 1.08025 0.88115 1.02445
 C902 C 1.07062 0.87057 1.04169
 C903 C 1.07874 0.85215 1.04907
 H904 H 1.09165 0.84543 1.04171
 O905 O 0.93020 1.01863 1.09975
 O906 O 0.90704 1.01946 1.12326
 C907 C 0.92346 1.02607 1.11584
 C908 C 0.93477 1.04282 1.12564
 C909 C 0.92848 1.05076 1.14407
 H910 H 0.91563 1.04405 1.15156
 O911 O 1.07721 0.97530 1.09670
 O912 O 1.10111 0.97456 1.12005
 C913 C 1.08421 0.96835 1.11319
 C914 C 1.07260 0.95274 1.12428
 C915 C 1.07855 0.94653 1.14365
 H916 H 1.09130 0.95390 1.15077
 O917 O 1.02130 0.89654 1.07224
 O918 O 1.02196 0.87236 1.09541
 C919 C 1.02870 0.87997 1.07921
 C920 C 1.04562 0.86986 1.06854
 C921 C 1.05412 0.85141 1.07576
 H922 H 1.04777 0.84431 1.08892
 O923 O 0.98592 1.09844 1.06985
 O924 O 0.98690 1.12197 1.09304
 C925 C 0.97943 1.11504 1.07691
 C926 C 0.96255 1.12593 1.06659
 C927 C 0.95621 1.14520 1.07300
 H928 H 0.96446 1.15259 1.08492
 O929 O 0.90158 1.07181 1.01823
 O930 O 0.87835 1.09600 1.01913
 C931 C 0.88533 1.07899 1.02532
 C932 C 0.87470 1.06769 1.04124
 C933 C 0.85528 1.07372 1.04710
 H934 H 0.84776 1.08632 1.03942
 O935 O 1.10210 0.92412 1.01619
 O936 O 1.12510 0.89975 1.01477
 C937 C 1.11876 0.91623 1.02217
 C938 C 1.13038 0.92590 1.03846
 C939 C 1.14927 0.91812 1.04474
 H940 H 1.15589 0.90542 1.03691
 O941 O 0.98168 0.92340 1.10017
 O942 O 0.98194 0.89932 1.12344
 C943 C 0.97496 0.91606 1.11652
 C944 C 0.95875 0.92725 1.12722
 C945 C 0.95206 0.92117 1.14642
 H946 H 0.95894 0.90812 1.15387
 O947 O 1.02510 1.06897 1.09693
 O948 O 1.02619 1.09231 1.12029
 C949 C 1.03254 1.07567 1.11312
 C950 C 1.04920 1.06433 1.12335
 C951 C 1.05635 1.07040 1.14219
 H952 H 1.04870 1.08266 1.14969
 O953 O 0.90149 0.97890 1.07372
 O954 O 0.87823 0.97920 1.09716
 C955 C 0.88506 0.97211 1.08096
 C956 C 0.87419 0.95558 1.07040
 C957 C 0.85539 0.94815 1.07717
 H958 H 0.84836 0.95492 1.09004
 O959 O 1.10566 1.01366 1.06862
 O960 O 1.12989 1.01305 1.09163
 C961 C 1.12256 1.02001 1.07525
 C962 C 1.13342 1.03594 1.06388
 C963 C 1.15301 1.04203 1.06958
 H964 H 1.16063 1.03431 1.08194
 O965 O 0.92708 0.89860 1.01925
 O966 O 0.90308 0.87534 1.01948
 C967 C 0.91988 0.88204 1.02611
 C968 C 0.93109 0.87087 1.04223
 C969 C 0.92476 0.85158 1.04910
 H970 H 0.91176 0.84436 1.04220
 O971 O 1.07849 1.09626 1.01779
 O972 O 1.10269 1.11929 1.01716
 C973 C 1.08640 1.11242 1.02458
 C974 C 1.07665 1.12308 1.04144
 C975 C 1.08464 1.14135 1.04886
 H976 H 1.09791 1.14796 1.04195
 Cu977 Cu 1.08920 0.99452 1.08043
 Cu978 Cu 1.11807 0.99372 1.10832
 Cu979 Cu 0.91845 0.99866 1.08410
 Cu980 Cu 0.89062 0.99935 1.11230
 Cu981 Cu 1.00546 1.08165 1.08127
 Cu982 Cu 1.00669 1.10974 1.10924
 Cu983 Cu 1.00132 0.91292 1.08327
 Cu984 Cu 1.00192 0.88397 1.11108
 C985 C 1.05874 1.04801 1.11383
 H986 H 1.05348 1.04342 1.09917
 C987 C 1.07314 1.06063 1.15129
 C988 C 0.94962 0.94432 1.11784
 H989 H 0.95423 0.94885 1.10293
 C990 C 0.93677 0.93235 1.15610
 C991 C 1.05953 1.11461 1.05060
 H992 H 1.05345 1.10041 1.04516
 C993 C 1.07585 1.15108 1.06530
 C994 C 0.94800 0.88000 1.05142
 H995 H 0.95271 0.89504 1.04661
 C996 C 0.93539 0.84154 1.06474
 C997 C 1.12372 1.04581 1.04765
 H998 H 1.10845 1.04148 1.04344
 C999 C 1.16270 1.05802 1.05932
 C1000 C 0.88308 0.94671 1.05354
 H1001 H 0.89771 0.95198 1.04844
 C1002 C 0.84562 0.93219 1.06706
 C1003 C 0.95168 1.05147 1.11609
 H1004 H 0.95643 1.04577 1.10175
 C1005 C 0.93894 1.06713 1.15282
 C1006 C 1.05570 0.94356 1.11523
 H1007 H 1.05119 0.94805 1.10017
 C1008 C 1.06793 0.93108 1.15378
 C1009 C 1.12184 0.94214 1.04879
 H1010 H 1.10712 0.94798 1.04413
 C1011 C 1.15950 0.92617 1.06136
 C1012 C 0.88436 1.05148 1.05141
 H1013 H 0.89950 1.04696 1.04713
 C1014 C 0.84569 1.06412 1.06321
 C1015 C 0.95194 1.11654 1.05088
 H1016 H 0.95650 1.10155 1.04607
 C1017 C 0.93937 1.15492 1.06394
 C1018 C 1.05399 0.87923 1.05145
 H1019 H 1.04781 0.89357 1.04597
 C1020 C 1.07079 0.84244 1.06609
 O1021 O 1.06950 0.97914 0.89385
 O1022 O 1.09253 0.97881 0.87020
 C1023 C 1.07620 0.97202 0.87758
 C1024 C 1.06503 0.95529 0.86770
 C1025 C 1.07106 0.94752 0.84909
 H1026 H 1.08371 0.95434 0.84134
 O1027 O 0.92511 1.02289 0.89847
 O1028 O 0.90082 1.02355 0.87554
 C1029 C 0.91756 1.03024 0.88237
 C1030 C 0.92824 1.04715 0.87205
 C1031 C 0.92162 1.05482 0.85329
 H1032 H 0.90892 1.04769 0.84586
 O1033 O 0.98085 1.10189 0.92710
 O1034 O 0.98081 1.12673 0.90459
 C1035 C 0.97430 1.11903 0.92078
 C1036 C 0.95859 1.12978 0.93216
 C1037 C 0.95236 1.14951 0.92658
 H1038 H 0.95988 1.15731 0.91440
 O1039 O 1.01615 0.89983 0.92549
 O1040 O 1.01518 0.87577 0.90282
 C1041 C 1.02249 0.88297 0.91891
 C1042 C 1.03869 0.87183 0.93001
 C1043 C 1.04445 0.85210 0.92442
 H1044 H 1.03652 0.84475 0.91226
 O1045 O 1.09903 0.92535 0.97709
 O1046 O 1.12204 0.90099 0.97581
 C1047 C 1.11487 0.91785 0.96936
 C1048 C 1.12477 0.92867 0.95245
 C1049 C 1.14385 0.92233 0.94555
 H1050 H 1.15168 0.90993 0.95315
 O1051 O 0.90022 1.07409 0.97923
 O1052 O 0.87716 1.09844 0.98022
 C1053 C 0.88377 1.08206 0.97279
 C1054 C 0.87247 1.07240 0.95620
 C1055 C 0.85376 1.08031 0.94951
 H1056 H 0.84723 1.09329 0.95698
 O1057 O 1.01825 1.07381 0.89801
 O1058 O 1.01815 1.09856 0.87540
 C1059 C 1.02461 1.08139 0.88168
 C1060 C 1.03995 1.07032 0.87009
 C1061 C 1.04551 1.07734 0.85107
 H1062 H 1.03801 1.09060 0.84456
 O1063 O 0.97638 0.92820 0.89822
 O1064 O 0.97524 0.90437 0.87533
 C1065 C 0.96885 0.92113 0.88222
 C1066 C 0.95220 0.93233 0.87184
 C1067 C 0.94464 0.92572 0.85334
 H1068 H 0.95192 0.91298 0.84628
 O1069 O 1.09790 1.01821 0.92124
 O1070 O 1.12101 1.01805 0.89766
 C1071 C 1.11438 1.02490 0.91404
 C1072 C 1.12575 1.04104 0.92461
 C1073 C 1.14429 1.04807 0.91711
 H1074 H 1.15049 1.04131 0.90379
 O1075 O 0.89874 0.98334 0.92729
 O1076 O 0.87419 0.98375 0.90463
 C1077 C 0.88196 0.97662 0.92080
 C1078 C 0.87157 0.96002 0.93185
 C1079 C 0.85230 0.95366 0.92560
 H1080 H 0.84480 0.96137 0.91311
 O1081 O 1.07504 1.09660 0.97895
 O1082 O 1.09912 1.11979 0.97834
 C1083 C 1.08207 1.11322 0.97222
 C1084 C 1.07067 1.12479 0.95672
 C1085 C 1.07719 1.14419 0.95092
 H1086 H 1.09012 1.15094 0.95843
 O1087 O 0.92606 0.89943 0.98023
 O1088 O 0.90201 0.87622 0.98044
 C1089 C 0.91842 0.88318 0.97342
 C1090 C 0.92843 0.87263 0.95680
 C1091 C 0.92128 0.85377 0.95016
 H1092 H 0.90870 0.84653 0.95772
 O1093 O 0.92431 0.98314 0.89825
 O1094 O 0.89997 0.98361 0.87537
 C1095 C 0.91655 0.97633 0.88221
 C1096 C 0.92666 0.95937 0.87180
 C1097 C 0.91920 0.95245 0.85335
 H1098 H 0.90630 0.96002 0.84632
 O1099 O 1.06935 1.01891 0.89432
 O1100 O 1.09230 1.01884 0.87059
 C1101 C 1.07616 1.02605 0.87799
 C1102 C 1.06538 1.04334 0.86811
 C1103 C 1.07106 1.05079 0.84914
 H1104 H 1.08303 1.04324 0.84112
 O1105 O 0.97675 0.89991 0.92556
 O1106 O 0.97580 0.87600 0.90273
 C1107 C 0.96953 0.88335 0.91900
 C1108 C 0.95338 0.87277 0.93016
 C1109 C 0.94614 0.85385 0.92378
 H1110 H 0.95332 0.84664 0.91125
 O1111 O 1.02020 1.10005 0.92658
 O1112 O 1.02020 1.12492 0.90410
 C1113 C 1.02731 1.11674 0.92004
 C1114 C 1.04420 1.12651 0.93096
 C1115 C 1.05105 1.14593 0.92523
 H1116 H 1.04333 1.15405 0.91320
 O1117 O 0.89927 0.92831 0.98071
 O1118 O 0.87511 0.90521 0.98073
 C1119 C 0.88251 0.92172 0.97391
 C1120 C 0.87179 0.93314 0.95760
 C1121 C 0.85250 0.92692 0.95091
 H1122 H 0.84514 0.91430 0.95835
 O1123 O 1.10284 1.06900 0.97652
 O1124 O 1.12700 1.09208 0.97583
 C1125 C 1.11895 1.07610 0.96887
 C1126 C 1.12809 1.06598 0.95138
 C1127 C 1.14664 1.07281 0.94357
 H1128 H 1.15464 1.08486 0.95108
 O1129 O 1.01582 0.92690 0.89689
 O1130 O 1.01468 0.90298 0.87410
 C1131 C 1.02200 0.91947 0.88059
 C1132 C 1.03820 0.92982 0.86929
 C1133 C 1.04408 0.92259 0.85060
 H1134 H 1.03613 0.90985 0.84406
 O1135 O 0.97895 1.07487 0.89942
 O1136 O 0.97884 1.09959 0.87678
 C1137 C 0.97176 1.08292 0.88350
 C1138 C 0.95483 1.07292 0.87285
 C1139 C 0.94814 1.08029 0.85418
 H1140 H 0.95576 1.09317 0.84735
 O1141 O 0.89762 1.02298 0.92579
 O1142 O 0.87316 1.02354 0.90303
 C1143 C 0.88095 1.03025 0.91908
 C1144 C 0.87098 1.04706 0.92987
 C1145 C 0.85221 1.05517 0.92333
 H1146 H 0.84459 1.04832 0.91074
 O1147 O 1.09647 0.97866 0.92224
 O1148 O 1.11976 0.97839 0.89881
 C1149 C 1.11280 0.97156 0.91527
 C1150 C 1.12367 0.95500 0.92621
 C1151 C 1.14274 0.94858 0.91974
 H1152 H 1.14968 0.95615 0.90705
 O1153 O 1.07057 0.89822 0.97879
 O1154 O 1.09350 0.87377 0.97769
 C1155 C 1.07678 0.88149 0.97178
 C1156 C 1.06481 0.87109 0.95620
 C1157 C 1.07011 0.85133 0.95061
 H1158 H 1.08243 0.84344 0.95834
 O1159 O 0.92891 1.10083 0.98003
 O1160 O 0.90592 1.12526 0.98107
 C1161 C 0.92216 1.11797 0.97400
 C1162 C 0.93311 1.12927 0.95830
 C1163 C 0.92716 1.14905 0.95269
 H1164 H 0.91480 1.15643 0.96036
 Cu1165 Cu 1.08091 0.99877 0.91015
 Cu1166 Cu 1.10873 0.99848 0.88195
 Cu1167 Cu 0.91391 1.00310 0.91466
 Cu1168 Cu 0.88459 1.00359 0.88736
 Cu1169 Cu 1.08794 1.07984 0.99737
 Cu1170 Cu 1.11693 1.10757 0.99647
 Cu1171 Cu 1.08392 0.91390 0.99759
 Cu1172 Cu 1.11143 0.88456 0.99602
 Cu1173 Cu 0.91741 1.08397 0.99895
 Cu1174 Cu 0.88965 1.11321 1.00020
 Cu1175 Cu 0.91556 0.91571 1.00001
 Cu1176 Cu 0.88659 0.88796 1.00014
 Cu1177 Cu 0.99959 1.08518 0.91507
 Cu1178 Cu 0.99953 1.11496 0.88793
 Cu1179 Cu 0.99639 0.91612 0.91382
 Cu1180 Cu 0.99515 0.88740 0.88642
 C1181 C 1.04855 0.94631 0.87757
 H1182 H 1.04408 0.95181 0.89208
 C1183 C 1.06055 0.93110 0.84048
 C1184 C 0.94491 1.05627 0.88158
 H1185 H 0.94995 1.05069 0.89613
 C1186 C 0.93159 1.07148 0.84426
 C1187 C 0.94901 1.11987 0.94814
 H1188 H 0.95353 1.10451 0.95230
 C1189 C 0.93655 1.15917 0.93675
 C1190 C 1.04891 0.88116 0.94600
 H1191 H 1.04490 0.89652 0.95015
 C1192 C 1.06026 0.84185 0.93465
 C1193 C 1.11484 0.94508 0.94271
 H1194 H 1.10002 0.94986 0.94769
 C1195 C 1.15289 0.93225 0.92913
 C1196 C 0.88085 1.05571 0.94638
 H1197 H 0.89542 1.04972 0.95133
 C1198 C 0.84350 1.07195 0.93305
 C1199 C 1.04974 1.05319 0.87836
 H1200 H 1.04555 1.04787 0.89315
 C1201 C 1.06111 1.06788 0.84058
 C1202 C 0.94323 0.94926 0.88085
 H1203 H 0.94884 0.95428 0.89525
 C1204 C 0.92796 0.93556 0.84406
 C1205 C 1.11782 1.05003 0.94183
 H1206 H 1.10341 1.04487 0.94758
 C1207 C 1.15479 1.06402 0.92631
 C1208 C 0.88116 0.94978 0.94801
 H1209 H 0.89617 0.95445 0.95278
 C1210 C 0.84276 0.93706 0.93480
 C1211 C 1.05404 1.11610 0.94682
 H1212 H 1.04911 1.10097 0.95109
 C1213 C 1.06769 1.15476 0.93511
 C1214 C 0.94457 0.88195 0.94678
 H1215 H 0.94994 0.89666 0.95160
 C1216 C 0.92989 0.84432 0.93356
 O1217 O 1.07786 0.51870 0.59833
 O1218 O 1.10208 0.51863 0.62136
 C1219 C 1.08529 0.52546 0.61452
 C1220 C 1.07438 0.54144 0.62551
 C1221 C 1.08115 0.54713 0.64454
 H1222 H 1.09418 0.53951 0.65132
 O1223 O 0.92525 0.48242 0.60213
 O1224 O 0.90173 0.48359 0.62531
 C1225 C 0.91830 0.47644 0.61883
 C1226 C 0.92948 0.46081 0.63063
 C1227 C 0.92322 0.45537 0.64993
 H1228 H 0.91041 0.46313 0.65647
 O1229 O 1.02205 0.59929 0.57382
 O1230 O 1.02219 0.62275 0.59709
 C1231 C 1.02889 0.61583 0.58081
 C1232 C 1.04514 0.62693 0.57024
 C1233 C 1.05170 0.64585 0.57711
 H1234 H 1.04428 0.65261 0.58981
 O1235 O 0.97885 0.40431 0.57794
 O1236 O 0.97882 0.38072 0.60170
 C1237 C 0.97197 0.38781 0.58511
 C1238 C 0.95578 0.37672 0.57422
 C1239 C 0.95014 0.35728 0.58080
 H1240 H 0.95788 0.35031 0.59356
 O1241 O 1.10082 0.57293 0.51930
 O1242 O 1.12461 0.59641 0.51840
 C1243 C 1.11782 0.57970 0.52523
 C1244 C 1.12965 0.56831 0.54053
 C1245 C 1.14910 0.57480 0.54598
 H1246 H 1.15576 0.58779 0.53839
 O1247 O 0.89561 0.42734 0.52294
 O1248 O 0.87196 0.40376 0.52356
 C1249 C 0.87923 0.42024 0.53015
 C1250 C 0.86907 0.43107 0.54675
 C1251 C 0.85043 0.42430 0.55470
 H1252 H 0.84292 0.41139 0.54811
 O1253 O 0.98271 0.57131 0.60147
 O1254 O 0.98329 0.59476 0.62474
 C1255 C 0.97589 0.57859 0.61760
 C1256 C 0.95855 0.56876 0.62769
 C1257 C 0.95172 0.57603 0.64609
 H1258 H 0.95988 0.58818 0.65340
 O1259 O 1.01955 0.43071 0.60504
 O1260 O 1.01969 0.40736 0.62903
 C1261 C 1.02700 0.42345 0.62122
 C1262 C 1.04480 0.43359 0.63048
 C1263 C 1.05215 0.42782 0.64962
 H1264 H 1.04433 0.41624 0.65819
 O1265 O 1.10492 0.47815 0.57230
 O1266 O 1.12927 0.47799 0.59517
 C1267 C 1.12141 0.47082 0.57936
 C1268 C 1.13094 0.45330 0.56931
 C1269 C 1.14984 0.44531 0.57568
 H1270 H 1.15799 0.45280 0.58757
 O1271 O 0.89764 0.52106 0.57251
 O1272 O 0.87388 0.52210 0.59544
 C1273 C 0.88111 0.52831 0.57893
 C1274 C 0.87050 0.54447 0.56729
 C1275 C 0.85110 0.55111 0.57277
 H1276 H 0.84344 0.54341 0.58490
 O1277 O 0.92728 0.60067 0.51981
 O1278 O 0.90436 0.62518 0.52010
 C1279 C 0.92064 0.61716 0.52701
 C1280 C 0.93181 0.62684 0.54381
 C1281 C 0.92538 0.64571 0.55123
 H1282 H 0.91272 0.65350 0.54408
 O1283 O 1.06947 0.39769 0.52496
 O1284 O 1.09222 0.37302 0.52508
 C1285 C 1.07633 0.38106 0.53222
 C1286 C 1.06591 0.37143 0.54946
 C1287 C 1.07203 0.35226 0.55709
 H1288 H 1.08401 0.34410 0.54969
 O1289 O 0.92548 0.52172 0.60031
 O1290 O 0.90182 0.52291 0.62334
 C1291 C 0.91856 0.52912 0.61633
 C1292 C 0.93010 0.54513 0.62683
 C1293 C 0.92344 0.55265 0.64525
 H1294 H 0.91002 0.54621 0.65189
 O1295 O 1.07687 0.47953 0.59901
 O1296 O 1.10104 0.47943 0.62211
 C1297 C 1.08405 0.47305 0.61560
 C1298 C 1.07261 0.45791 0.62743
 C1299 C 1.07935 0.45238 0.64665
 H1300 H 1.09272 0.45954 0.65294
 O1301 O 1.01820 0.40200 0.57896
 O1302 O 1.01810 0.37859 0.60291
 C1303 C 1.02478 0.38528 0.58635
 C1304 C 1.04061 0.37366 0.57582
 C1305 C 1.04684 0.35452 0.58312
 H1306 H 1.03960 0.34805 0.59620
 O1307 O 0.98249 0.59827 0.57302
 O1308 O 0.98273 0.62180 0.59622
 C1309 C 0.97557 0.61474 0.57997
 C1310 C 0.95872 0.62561 0.56943
 C1311 C 0.95207 0.64447 0.57644
 H1312 H 0.95967 0.65125 0.58915
 O1313 O 0.89851 0.57404 0.51856
 O1314 O 0.87538 0.59838 0.51847
 C1315 C 0.88208 0.58141 0.52507
 C1316 C 0.87098 0.57041 0.54088
 C1317 C 0.85162 0.57689 0.54654
 H1318 H 0.84444 0.58964 0.53878
 O1319 O 1.09918 0.42344 0.52317
 O1320 O 1.12193 0.39877 0.52284
 C1321 C 1.11584 0.41570 0.52942
 C1322 C 1.12800 0.42628 0.54480
 C1323 C 1.14688 0.41852 0.55123
 H1324 H 1.15289 0.40496 0.54437
 O1325 O 0.97968 0.43073 0.60642
 O1326 O 0.97968 0.40742 0.63043
 C1327 C 0.97279 0.42388 0.62288
 C1328 C 0.95613 0.43496 0.63280
 C1329 C 0.94940 0.42937 0.65205
 H1330 H 0.95711 0.41727 0.66025
 O1331 O 1.02271 0.57076 0.60103
 O1332 O 1.02315 0.59420 0.62431
 C1333 C 1.03013 0.57782 0.61712
 C1334 C 1.04747 0.56709 0.62705
 C1335 C 1.05482 0.57293 0.64602
 H1336 H 1.04730 0.58501 0.65394
 O1337 O 0.89757 0.48137 0.57432
 O1338 O 0.87398 0.48244 0.59741
 C1339 C 0.88107 0.47483 0.58155
 C1340 C 0.87018 0.45793 0.57171
 C1341 C 0.85157 0.45119 0.57918
 H1342 H 0.84492 0.45888 0.59178
 O1343 O 1.10504 0.51798 0.57067
 O1344 O 1.12939 0.51802 0.59354
 C1345 C 1.12171 0.52492 0.57730
 C1346 C 1.13172 0.54164 0.56621
 C1347 C 1.15108 0.54863 0.57183
 H1348 H 1.15929 0.54108 0.58393
 O1349 O 0.92534 0.40139 0.52325
 O1350 O 0.90191 0.37759 0.52423
 C1351 C 0.91846 0.38507 0.53084
 C1352 C 0.92963 0.37517 0.54786
 C1353 C 0.92399 0.35580 0.55506
 H1354 H 0.91184 0.34767 0.54770
 O1355 O 1.07366 0.60155 0.52074
 O1356 O 1.09736 0.62509 0.52012
 C1357 C 1.08120 0.61789 0.52752
 C1358 C 1.07108 0.62812 0.54443
 C1359 C 1.07772 0.64708 0.55173
 H1360 H 1.09019 0.65476 0.54452
 Cu1361 Cu 1.08891 0.49860 0.58259
 Cu1362 Cu 1.11797 0.49850 0.61030
 Cu1363 Cu 0.91381 0.50156 0.58495
 Cu1364 Cu 0.88540 0.50288 0.61263
 Cu1365 Cu 1.00255 0.58245 0.58512
 Cu1366 Cu 1.00285 0.61068 0.61293
 Cu1367 Cu 0.99908 0.41941 0.58986
 Cu1368 Cu 0.99897 0.39124 0.61845
 C1369 C 1.05739 0.55130 0.61699
 H1370 H 1.05216 0.54695 0.60224
 C1371 C 1.07168 0.56287 0.65483
 C1372 C 0.94610 0.45076 0.62234
 H1373 H 0.95088 0.45488 0.60738
 C1374 C 0.93291 0.43963 0.66070
 C1375 C 1.05476 0.61830 0.55382
 H1376 H 1.04977 0.60360 0.54860
 C1377 C 1.06796 0.65606 0.56816
 C1378 C 0.94561 0.38550 0.55757
 H1379 H 0.94985 0.40058 0.55246
 C1380 C 0.93424 0.34684 0.57155
 C1381 C 1.12120 0.55154 0.55048
 H1382 H 1.10608 0.54662 0.54638
 C1383 C 1.15978 0.56530 0.56172
 C1384 C 0.87869 0.44793 0.55539
 H1385 H 0.89315 0.45303 0.54969
 C1386 C 0.84159 0.43439 0.57100
 C1387 C 0.94773 0.55320 0.61826
 H1388 H 0.95277 0.54772 0.60392
 C1389 C 0.93413 0.56826 0.65495
 C1390 C 1.05518 0.44867 0.61955
 H1391 H 1.04997 0.45291 0.60465
 C1392 C 1.06943 0.43733 0.65775
 C1393 C 1.12032 0.44375 0.55378
 H1394 H 1.10564 0.44961 0.54901
 C1395 C 1.15794 0.42779 0.56668
 C1396 C 0.88023 0.55408 0.55120
 H1397 H 0.89535 0.54928 0.54713
 C1398 C 0.84167 0.56751 0.56258
 C1399 C 0.94857 0.61694 0.55299
 H1400 H 0.95348 0.60228 0.54761
 C1401 C 0.93538 0.65453 0.56766
 C1402 C 1.05011 0.38192 0.55891
 H1403 H 1.04549 0.39680 0.55336
 C1404 C 1.06255 0.34373 0.57403
 O1405 O 1.07065 0.47810 0.40164
 O1406 O 1.09437 0.47748 0.37868
 C1407 C 1.07791 0.47059 0.38577
 C1408 C 1.06735 0.45327 0.37592
 C1409 C 1.07468 0.44500 0.35798
 H1410 H 1.08767 0.45193 0.35097
 O1411 O 0.92560 0.52122 0.40022
 O1412 O 0.90166 0.52148 0.37693
 C1413 C 0.91830 0.52824 0.38384
 C1414 C 0.92918 0.54480 0.37320
 C1415 C 0.92295 0.55187 0.35407
 H1416 H 0.91038 0.54457 0.34657
 O1417 O 0.97962 0.60181 0.42805
 O1418 O 0.97962 0.62571 0.40458
 C1419 C 0.97298 0.61861 0.42101
 C1420 C 0.95718 0.62973 0.43200
 C1421 C 0.95128 0.64953 0.42620
 H1422 H 0.95902 0.65704 0.41400
 O1423 O 1.01508 0.39711 0.43113
 O1424 O 1.01481 0.37303 0.40850
 C1425 C 1.02167 0.38025 0.42477
 C1426 C 1.03782 0.36931 0.43627
 C1427 C 1.04482 0.35011 0.43022
 H1428 H 1.03780 0.34285 0.41749
 O1429 O 1.09591 0.42436 0.48434
 O1430 O 1.11876 0.39978 0.48406
 C1431 C 1.11188 0.41664 0.47719
 C1432 C 1.12243 0.42722 0.46058
 C1433 C 1.14087 0.41957 0.45353
 H1434 H 1.14753 0.40610 0.46050
 O1435 O 0.89853 0.57567 0.47964
 O1436 O 0.87550 0.60006 0.47942
 C1437 C 0.88229 0.58348 0.47250
 C1438 C 0.87164 0.57309 0.45579
 C1439 C 0.85273 0.58002 0.44817
 H1440 H 0.84546 0.59298 0.45490
 O1441 O 1.01842 0.57315 0.40136
 O1442 O 1.01850 0.59682 0.37767
 C1443 C 1.02516 0.58008 0.38494
 C1444 C 1.04109 0.56872 0.37434
 C1445 C 1.04724 0.57504 0.35528
 H1446 H 1.03988 0.58802 0.34807
 O1447 O 0.97683 0.42583 0.40200
 O1448 O 0.97626 0.40205 0.37907
 C1449 C 0.96976 0.41886 0.38573
 C1450 C 0.95343 0.43031 0.37497
 C1451 C 0.94602 0.42405 0.35619
 H1452 H 0.95298 0.41116 0.34905
 O1453 O 1.09840 0.51867 0.42817
 O1454 O 1.12226 0.51809 0.40537
 C1455 C 1.11492 0.52558 0.42117
 C1456 C 1.12530 0.54282 0.43133
 C1457 C 1.14423 0.55017 0.42469
 H1458 H 1.15171 0.54287 0.41234
 O1459 O 0.89850 0.48220 0.42939
 O1460 O 0.87446 0.48234 0.40620
 C1461 C 0.88179 0.47546 0.42265
 C1462 C 0.87091 0.45915 0.43369
 C1463 C 0.85177 0.45288 0.42700
 H1464 H 0.84469 0.46050 0.41423
 O1465 O 1.07139 0.60182 0.48164
 O1466 O 1.09509 0.62540 0.48101
 C1467 C 1.07837 0.61839 0.47463
 C1468 C 1.06731 0.62921 0.45839
 C1469 C 1.07363 0.64851 0.45193
 H1470 H 1.08614 0.65589 0.45954
 O1471 O 0.92321 0.39937 0.48392
 O1472 O 0.89962 0.37574 0.48476
 C1473 C 0.91583 0.38285 0.47736
 C1474 C 0.92572 0.37217 0.46050
 C1475 C 0.91770 0.35384 0.45328
 H1476 H 0.90473 0.34710 0.46062
 O1477 O 0.92550 0.48146 0.40141
 O1478 O 0.90152 0.48179 0.37816
 C1479 C 0.91803 0.47460 0.38526
 C1480 C 0.92831 0.45777 0.37486
 C1481 C 0.92127 0.45145 0.35609
 H1482 H 0.90871 0.45945 0.34889
 O1483 O 1.07013 0.51801 0.40101
 O1484 O 1.09379 0.51756 0.37797
 C1485 C 1.07733 0.52479 0.38471
 C1486 C 1.06669 0.54171 0.37404
 C1487 C 1.07286 0.54847 0.35499
 H1488 H 1.08502 0.54059 0.34755
 O1489 O 0.97546 0.39813 0.42998
 O1490 O 0.97499 0.37417 0.40724
 C1491 C 0.96806 0.38172 0.42321
 C1492 C 0.95097 0.37164 0.43386
 C1493 C 0.94262 0.35328 0.42687
 H1494 H 0.94923 0.34625 0.41396
 O1495 O 1.01888 0.60164 0.42783
 O1496 O 1.01892 0.62544 0.40425
 C1497 C 1.02570 0.61825 0.42073
 C1498 C 1.04186 0.62907 0.43169
 C1499 C 1.04841 0.64840 0.42531
 H1500 H 1.04092 0.65574 0.41268
 O1501 O 0.89689 0.42873 0.48371
 O1502 O 0.87306 0.40531 0.48407
 C1503 C 0.88037 0.42173 0.47682
 C1504 C 0.87008 0.43265 0.45986
 C1505 C 0.85102 0.42633 0.45255
 H1506 H 0.84335 0.41376 0.45978
 O1507 O 1.09839 0.57322 0.48055
 O1508 O 1.12219 0.59668 0.47972
 C1509 C 1.11468 0.58019 0.47324
 C1510 C 1.12497 0.56924 0.45691
 C1511 C 1.14394 0.57590 0.45035
 H1512 H 1.15117 0.58866 0.45760
 O1513 O 1.01655 0.42466 0.40302
 O1514 O 1.01615 0.40076 0.38021
 C1515 C 1.02357 0.41712 0.38709
 C1516 C 1.04081 0.42721 0.37671
 C1517 C 1.04837 0.41930 0.35882
 H1518 H 1.04118 0.40611 0.35232
 O1519 O 0.97900 0.57405 0.40092
 O1520 O 0.97908 0.59779 0.37729
 C1521 C 0.97215 0.58128 0.38448
 C1522 C 0.95573 0.57060 0.37374
 C1523 C 0.94955 0.57724 0.35465
 H1524 H 0.95735 0.58985 0.34755
 O1525 O 0.89868 0.52200 0.42813
 O1526 O 0.87467 0.52201 0.40490
 C1527 C 0.88215 0.52910 0.42094
 C1528 C 0.87171 0.54609 0.43095
 C1529 C 0.85282 0.55297 0.42383
 H1530 H 0.84561 0.54527 0.41141
 O1531 O 1.09713 0.47873 0.43050
 O1532 O 1.12100 0.47799 0.40769
 C1533 C 1.11350 0.47129 0.42396
 C1534 C 1.12345 0.45411 0.43492
 C1535 C 1.14199 0.44628 0.42825
 H1536 H 1.14941 0.45386 0.41595
 O1537 O 1.06813 0.39657 0.48574
 O1538 O 1.09089 0.37191 0.48596
 C1539 C 1.07446 0.37963 0.47926
 C1540 C 1.06318 0.36901 0.46327
 C1541 C 1.06960 0.34970 0.45725
 H1542 H 1.08210 0.34219 0.46506
 O1543 O 0.92734 0.60222 0.48081
 O1544 O 0.90450 0.62682 0.48098
 C1545 C 0.92078 0.61926 0.47429
 C1546 C 0.93188 0.63007 0.45835
 C1547 C 0.92620 0.64983 0.45244
 H1548 H 0.91402 0.65750 0.46011
 Cu1549 Cu 1.08174 0.49848 0.41756
 Cu1550 Cu 1.11025 0.49771 0.39018
 Cu1551 Cu 0.91451 0.50172 0.41708
 Cu1552 Cu 0.88564 0.50185 0.38927
 Cu1553 Cu 1.08357 0.58513 0.50073
 Cu1554 Cu 1.11219 0.61328 0.49970
 Cu1555 Cu 1.08085 0.41292 0.50464
 Cu1556 Cu 1.10816 0.38337 0.50440
 Cu1557 Cu 0.91519 0.58570 0.49966
 Cu1558 Cu 0.88766 0.61512 0.49979
 Cu1559 Cu 0.91254 0.41649 0.50343
 Cu1560 Cu 0.88436 0.38825 0.50420
 Cu1561 Cu 0.99899 0.58528 0.41692
 Cu1562 Cu 0.99903 0.61380 0.38851
 Cu1563 Cu 0.99599 0.41380 0.41876
 Cu1564 Cu 0.99554 0.38513 0.39147
 C1565 C 1.05036 0.44428 0.38503
 H1566 H 1.04479 0.45032 0.39894
 C1567 C 1.06529 0.42792 0.34930
 C1568 C 0.94565 0.55425 0.38279
 H1569 H 0.95033 0.54920 0.39763
 C1570 C 0.93318 0.56817 0.34470
 C1571 C 0.94747 0.62020 0.44815
 H1572 H 0.95165 0.60478 0.45245
 C1573 C 0.93559 0.65957 0.43625
 C1574 C 1.04709 0.37859 0.45288
 H1575 H 1.04224 0.39361 0.45733
 C1576 C 1.06083 0.34031 0.44064
 C1577 C 1.11385 0.44458 0.45123
 H1578 H 1.09943 0.45036 0.45632
 C1579 C 1.15067 0.42882 0.43730
 C1580 C 0.88090 0.55610 0.44702
 H1581 H 0.89557 0.55086 0.45247
 C1582 C 0.84322 0.56990 0.43212
 C1583 C 1.05074 0.55192 0.38351
 H1584 H 1.04615 0.54711 0.39834
 C1585 C 1.06315 0.56521 0.34557
 C1586 C 0.94451 0.44726 0.38407
 H1587 H 0.94983 0.45198 0.39867
 C1588 C 0.92983 0.43458 0.34669
 C1589 C 1.11585 0.55254 0.44748
 H1590 H 1.10116 0.54735 0.45250
 C1591 C 1.15362 0.56672 0.43425
 C1592 C 0.87986 0.44912 0.45029
 H1593 H 0.89472 0.45383 0.45545
 C1594 C 0.84183 0.43646 0.43607
 C1595 C 1.05128 0.61970 0.44834
 H1596 H 1.04655 0.60466 0.45312
 C1597 C 1.06445 0.65815 0.43533
 C1598 C 0.94243 0.38084 0.45073
 H1599 H 0.94852 0.39509 0.45602
 C1600 C 0.92586 0.34424 0.43647
 O1601 O 0.56934 1.01410 0.59867
 O1602 O 0.59263 1.01266 0.62258
 C1603 C 0.57653 1.02047 0.61512
 C1604 C 0.56646 1.03746 0.62547
 C1605 C 0.57353 1.04353 0.64432
 H1606 H 0.58590 1.03528 0.65157
 O1607 O 0.42584 0.98190 0.59727
 O1608 O 0.40172 0.98184 0.61985
 C1609 C 0.41807 0.97446 0.61301
 C1610 C 0.42783 0.95658 0.62293
 C1611 C 0.42107 0.94925 0.64155
 H1612 H 0.40927 0.95744 0.64917
 O1613 O 0.51996 1.09961 0.57144
 O1614 O 0.52148 1.12300 0.59475
 C1615 C 0.52792 1.11555 0.57855
 C1616 C 0.54519 1.12513 0.56813
 C1617 C 0.55273 1.14404 0.57428
 H1618 H 0.54507 1.15204 0.58605
 O1619 O 0.47471 0.89635 0.56775
 O1620 O 0.47385 0.87185 0.59057
 C1621 C 0.46723 0.87982 0.57437
 C1622 C 0.45020 0.87026 0.56342
 C1623 C 0.44209 0.85157 0.56986
 H1624 H 0.44931 0.84352 0.58223
 O1625 O 0.60142 1.06665 0.51968
 O1626 O 0.62595 1.08935 0.52078
 C1627 C 0.61812 1.07283 0.52693
 C1628 C 0.62813 1.06098 0.54315
 C1629 C 0.64755 1.06622 0.55006
 H1630 H 0.65572 1.07822 0.54246
 O1631 O 0.39671 0.93078 0.51512
 O1632 O 0.37137 0.90899 0.51474
 C1633 C 0.37975 0.92478 0.52175
 C1634 C 0.36970 0.93589 0.53802
 C1635 C 0.35031 0.92999 0.54415
 H1636 H 0.34255 0.91778 0.53653
 O1637 O 0.47914 1.07387 0.59859
 O1638 O 0.48063 1.09702 0.62212
 C1639 C 0.47282 1.08102 0.61494
 C1640 C 0.45591 1.07082 0.62541
 C1641 C 0.44897 1.07803 0.64375
 H1642 H 0.45651 1.09084 0.65061
 O1643 O 0.51441 0.92217 0.59658
 O1644 O 0.51361 0.89772 0.61949
 C1645 C 0.52088 0.91433 0.61294
 C1646 C 0.53733 0.92449 0.62412
 C1647 C 0.54386 0.91712 0.64295
 H1648 H 0.53644 0.90408 0.64968
 O1649 O 0.59636 0.97380 0.57199
 O1650 O 0.61973 0.97246 0.59585
 C1651 C 0.61271 0.96634 0.57922
 C1652 C 0.62355 0.95028 0.56822
 C1653 C 0.64256 0.94308 0.57493
 H1654 H 0.64953 0.94997 0.58785
 O1655 O 0.40026 1.02319 0.56933
 O1656 O 0.37585 1.02330 0.59162
 C1657 C 0.38367 1.03035 0.57565
 C1658 C 0.37357 1.04729 0.56454
 C1659 C 0.35423 1.05398 0.57014
 H1660 H 0.34642 1.04601 0.58202
 O1661 O 0.42920 1.10604 0.51689
 O1662 O 0.40597 1.13027 0.51708
 C1663 C 0.42233 1.12251 0.52394
 C1664 C 0.43307 1.13242 0.54070
 C1665 C 0.42657 1.15140 0.54749
 H1666 H 0.41417 1.15922 0.53982
 O1667 O 0.57028 0.89636 0.51672
 O1668 O 0.59314 0.87179 0.51701
 C1669 C 0.57689 0.87948 0.52374
 C1670 C 0.56562 0.86901 0.54009
 C1671 C 0.57211 0.84996 0.54788
 H1672 H 0.58515 0.84254 0.54150
 O1673 O 0.42585 1.02174 0.59895
 O1674 O 0.40169 1.02189 0.62148
 C1675 C 0.41842 1.02865 0.61500
 C1676 C 0.42917 1.04519 0.62563
 C1677 C 0.42225 1.05273 0.64402
 H1678 H 0.40933 1.04567 0.65103
 O1679 O 0.56827 0.97436 0.59884
 O1680 O 0.59155 0.97299 0.62277
 C1681 C 0.57495 0.96687 0.61523
 C1682 C 0.56363 0.95040 0.62527
 C1683 C 0.56983 0.94305 0.64415
 H1684 H 0.58208 0.95063 0.65185
 O1685 O 0.51448 0.89667 0.56739
 O1686 O 0.51364 0.87221 0.59026
 C1687 C 0.52109 0.87984 0.57436
 C1688 C 0.53804 0.86924 0.56438
 C1689 C 0.54456 0.85020 0.57161
 H1690 H 0.53661 0.84300 0.58390
 O1691 O 0.48046 1.10248 0.57161
 O1692 O 0.48179 1.12580 0.59497
 C1693 C 0.47440 1.11928 0.57865
 C1694 C 0.45825 1.13089 0.56780
 C1695 C 0.45128 1.14986 0.57463
 H1696 H 0.45831 1.15654 0.58766
 O1697 O 0.40155 1.07826 0.51607
 O1698 O 0.37817 1.10233 0.51649
 C1699 C 0.38517 1.08538 0.52292
 C1700 C 0.37431 1.07404 0.53877
 C1701 C 0.35499 1.08045 0.54462
 H1702 H 0.34784 1.09340 0.53718
 O1703 O 0.59791 0.92408 0.51669
 O1704 O 0.62095 0.89967 0.51695
 C1705 C 0.61405 0.91622 0.52384
 C1706 C 0.62439 0.92607 0.54086
 C1707 C 0.64332 0.91901 0.54779
 H1708 H 0.65083 0.90675 0.54007
 O1709 O 0.47509 0.92440 0.59468
 O1710 O 0.47433 0.90004 0.61766
 C1711 C 0.46802 0.91710 0.61083
 C1712 C 0.45216 0.92846 0.62164
 C1713 C 0.44531 0.92145 0.64027
 H1714 H 0.45195 0.90783 0.64696
 O1715 O 0.51851 1.07135 0.59860
 O1716 O 0.52015 1.09451 0.62212
 C1717 C 0.52599 1.07767 0.61495
 C1718 C 0.54196 1.06551 0.62541
 C1719 C 0.54935 1.07137 0.64428
 H1720 H 0.54256 1.08428 0.65152
 O1721 O 0.39829 0.98366 0.56950
 O1722 O 0.37403 0.98371 0.59195
 C1723 C 0.38140 0.97706 0.57581
 C1724 C 0.37045 0.96118 0.56451
 C1725 C 0.35107 0.95483 0.57053
 H1726 H 0.34385 0.96222 0.58295
 O1727 O 0.59782 1.01307 0.57237
 O1728 O 0.62119 1.01169 0.59623
 C1729 C 0.61459 1.01898 0.57973
 C1730 C 0.62630 1.03473 0.56912
 C1731 C 0.64569 1.04017 0.57593
 H1732 H 0.65237 1.03241 0.58883
 O1733 O 0.42213 0.90062 0.51461
 O1734 O 0.39681 0.87880 0.51438
 C1735 C 0.41388 0.88450 0.52122
 C1736 C 0.42402 0.87263 0.53741
 C1737 C 0.41607 0.85398 0.54403
 H1738 H 0.40272 0.84782 0.53673
 O1739 O 0.57492 1.09597 0.52023
 O1740 O 0.59943 1.11869 0.52107
 C1741 C 0.58256 1.11210 0.52735
 C1742 C 0.57190 1.12327 0.54320
 C1743 C 0.57918 1.14218 0.54952
 H1744 H 0.59239 1.14877 0.54247
 Cu1745 Cu 0.58054 0.99394 0.58310
 Cu1746 Cu 0.60855 0.99231 0.61186
 Cu1747 Cu 0.41506 1.00263 0.58163
 Cu1748 Cu 0.38593 1.00272 0.60851
 Cu1749 Cu 0.49931 1.08456 0.58269
 Cu1750 Cu 0.50119 1.11243 0.61084
 Cu1751 Cu 0.49472 0.91230 0.57927
 Cu1752 Cu 0.49373 0.88293 0.60669
 C1753 C 0.55054 1.04844 0.61618
 H1754 H 0.54520 1.04401 0.60150
 C1755 C 0.56530 1.06054 0.65372
 C1756 C 0.44345 0.94613 0.61318
 H1757 H 0.44854 0.95151 0.59870
 C1758 C 0.42975 0.93161 0.65030
 C1759 C 0.55481 1.11491 0.55249
 H1760 H 0.54928 1.10020 0.54784
 C1761 C 0.56986 1.15260 0.56511
 C1762 C 0.44117 0.88053 0.54709
 H1763 H 0.44714 0.89510 0.54226
 C1764 C 0.42484 0.84340 0.56033
 C1765 C 0.61770 1.04509 0.55264
 H1766 H 0.60257 1.04120 0.54757
 C1767 C 0.65628 1.05606 0.56669
 C1768 C 0.37963 0.95165 0.54816
 H1769 H 0.39471 0.95614 0.54365
 C1770 C 0.34103 0.93908 0.56050
 C1771 C 0.44605 1.05430 0.61661
 H1772 H 0.45127 1.04883 0.60234
 C1773 C 0.43214 1.06925 0.65318
 C1774 C 0.54726 0.94119 0.61547
 H1775 H 0.54258 0.94670 0.60078
 C1776 C 0.56024 0.92617 0.65299
 C1777 C 0.61468 0.94180 0.55110
 H1778 H 0.59991 0.94710 0.54601
 C1779 C 0.65248 0.92728 0.56486
 C1780 C 0.38346 1.05734 0.54871
 H1781 H 0.39850 1.05247 0.54446
 C1782 C 0.34498 1.07072 0.56040
 C1783 C 0.44905 1.12241 0.55078
 H1784 H 0.45397 1.10765 0.54565
 C1785 C 0.43533 1.16015 0.56449
 C1786 C 0.54853 0.87846 0.54849
 H1787 H 0.54364 0.89326 0.54296
 C1788 C 0.56161 0.84052 0.56374
 O1789 O 0.57044 0.98066 0.39962
 O1790 O 0.59337 0.98004 0.37589
 C1791 C 0.57691 0.97349 0.38334
 C1792 C 0.56545 0.95703 0.37330
 C1793 C 0.57181 0.94972 0.35470
 H1794 H 0.58450 0.95688 0.34736
 O1795 O 0.42602 1.02709 0.39746
 O1796 O 0.40263 1.02831 0.37364
 C1797 C 0.41928 1.03451 0.38104
 C1798 C 0.43080 1.05087 0.37090
 C1799 C 0.42503 1.05831 0.35185
 H1800 H 0.41246 1.05131 0.34405
 O1801 O 0.48169 1.10561 0.42691
 O1802 O 0.48345 1.12993 0.40396
 C1803 C 0.47585 1.12274 0.41988
 C1804 C 0.45959 1.13408 0.42997
 C1805 C 0.45324 1.15319 0.42270
 H1806 H 0.46092 1.16010 0.41009
 O1807 O 0.51330 0.89875 0.42697
 O1808 O 0.51297 0.87593 0.40309
 C1809 C 0.51994 0.88234 0.41966
 C1810 C 0.53637 0.87107 0.43032
 C1811 C 0.54220 0.85148 0.42440
 H1812 H 0.53392 0.84412 0.41247
 O1813 O 0.59888 0.92356 0.47754
 O1814 O 0.62188 0.89916 0.47750
 C1815 C 0.61515 0.91604 0.47063
 C1816 C 0.62587 0.92705 0.45420
 C1817 C 0.64482 0.92036 0.44692
 H1818 H 0.65212 0.90717 0.45369
 O1819 O 0.40072 1.08014 0.47713
 O1820 O 0.37739 1.10426 0.47760
 C1821 C 0.38422 1.08782 0.47049
 C1822 C 0.37307 1.07780 0.45405
 C1823 C 0.35409 1.08520 0.44765
 H1824 H 0.34733 1.09798 0.45523
 O1825 O 0.52002 1.07587 0.40030
 O1826 O 0.52142 1.10023 0.37733
 C1827 C 0.52722 1.08303 0.38414
 C1828 C 0.54272 1.07150 0.37319
 C1829 C 0.54834 1.07791 0.35399
 H1830 H 0.54080 1.09090 0.34701
 O1831 O 0.47522 0.92953 0.39981
 O1832 O 0.47479 0.90702 0.37565
 C1833 C 0.46843 0.92357 0.38307
 C1834 C 0.45270 0.93576 0.37232
 C1835 C 0.44586 0.92991 0.35331
 H1836 H 0.45302 0.91712 0.34621
 O1837 O 0.60060 1.01906 0.42591
 O1838 O 0.62366 1.01901 0.40229
 C1839 C 0.61708 1.02578 0.41873
 C1840 C 0.62821 1.04188 0.42970
 C1841 C 0.64705 1.04946 0.42312
 H1842 H 0.65398 1.04315 0.40997
 O1843 O 0.39723 0.98826 0.42475
 O1844 O 0.37363 0.98926 0.40111
 C1845 C 0.38060 0.98190 0.41748
 C1846 C 0.36960 0.96540 0.42793
 C1847 C 0.35041 0.95923 0.42107
 H1848 H 0.34334 0.96695 0.40837
 O1849 O 0.57465 1.09700 0.48140
 O1850 O 0.59912 1.11977 0.48236
 C1851 C 0.58237 1.11354 0.47521
 C1852 C 0.57203 1.12539 0.45921
 C1853 C 0.57980 1.14420 0.45303
 H1854 H 0.59308 1.15034 0.46047
 O1855 O 0.42124 0.90130 0.47561
 O1856 O 0.39592 0.87949 0.47545
 C1857 C 0.41280 0.88549 0.46866
 C1858 C 0.42255 0.87433 0.45222
 C1859 C 0.41426 0.85621 0.44496
 H1860 H 0.40087 0.84996 0.45195
 O1861 O 0.42515 0.98744 0.39805
 O1862 O 0.40176 0.98851 0.37421
 C1863 C 0.41793 0.98085 0.38171
 C1864 C 0.42811 0.96375 0.37161
 C1865 C 0.42141 0.95752 0.35266
 H1866 H 0.40914 0.96566 0.34513
 O1867 O 0.57216 1.02040 0.39882
 O1868 O 0.59500 1.01995 0.37498
 C1869 C 0.57895 1.02735 0.38237
 C1870 C 0.56824 1.04452 0.37214
 C1871 C 0.57401 1.05147 0.35297
 H1872 H 0.58604 1.04375 0.34518
 O1873 O 0.47363 0.89895 0.42467
 O1874 O 0.47318 0.87629 0.40068
 C1875 C 0.46615 0.88303 0.41689
 C1876 C 0.44870 0.87290 0.42671
 C1877 C 0.44017 0.85469 0.41946
 H1878 H 0.44698 0.84748 0.40674
 O1879 O 0.52109 1.10256 0.42846
 O1880 O 0.52283 1.12695 0.40557
 C1881 C 0.52902 1.11884 0.42190
 C1882 C 0.54598 1.12805 0.43312
 C1883 C 0.55393 1.14692 0.42714
 H1884 H 0.54669 1.15516 0.41492
 O1885 O 0.39635 0.93197 0.47615
 O1886 O 0.37101 0.91018 0.47592
 C1887 C 0.37924 0.92636 0.46938
 C1888 C 0.36898 0.93841 0.45337
 C1889 C 0.34968 0.93272 0.44654
 H1890 H 0.34196 0.92042 0.45410
 O1891 O 0.60197 1.06878 0.48063
 O1892 O 0.62646 1.09150 0.48188
 C1893 C 0.61872 1.07571 0.47427
 C1894 C 0.62899 1.06580 0.45738
 C1895 C 0.64790 1.07280 0.45095
 H1896 H 0.65543 1.08486 0.45902
 O1897 O 0.51468 0.92754 0.40021
 O1898 O 0.51425 0.90486 0.37621
 C1899 C 0.52157 0.92088 0.38387
 C1900 C 0.53847 0.93151 0.37370
 C1901 C 0.54507 0.92461 0.35511
 H1902 H 0.53743 0.91195 0.34809
 O1903 O 0.48074 1.07800 0.39970
 O1904 O 0.48225 1.10227 0.37667
 C1905 C 0.47453 1.08587 0.38331
 C1906 C 0.45795 1.07599 0.37211
 C1907 C 0.45212 1.08313 0.35305
 H1908 H 0.46019 1.09573 0.34623
 O1909 O 0.39812 1.02787 0.42438
 O1910 O 0.37451 1.02903 0.40078
 C1911 C 0.38185 1.03549 0.41715
 C1912 C 0.37179 1.05234 0.42780
 C1913 C 0.35276 1.06003 0.42149
 H1914 H 0.34504 1.05297 0.40906
 O1915 O 0.59912 0.97937 0.42628
 O1916 O 0.62228 0.97914 0.40273
 C1917 C 0.61529 0.97207 0.41905
 C1918 C 0.62580 0.95483 0.42937
 C1919 C 0.64470 0.94819 0.42267
 H1920 H 0.65189 0.95629 0.41043
 O1921 O 0.56901 0.89789 0.47782
 O1922 O 0.59171 0.87317 0.47798
 C1923 C 0.57527 0.88101 0.47130
 C1924 C 0.56344 0.87057 0.45561
 C1925 C 0.56887 0.85096 0.44968
 H1926 H 0.58154 0.84322 0.45698
 O1927 O 0.42877 1.10755 0.47789
 O1928 O 0.40554 1.13176 0.47799
 C1929 C 0.42187 1.12440 0.47118
 C1930 C 0.43284 1.13498 0.45488
 C1931 C 0.42641 1.15404 0.44724
 H1932 H 0.41367 1.16164 0.45398
 Cu1933 Cu 0.58331 1.00001 0.41500
 Cu1934 Cu 0.61086 0.99945 0.38658
 Cu1935 Cu 0.41398 1.00764 0.41353
 Cu1936 Cu 0.38577 1.00887 0.38503
 Cu1937 Cu 0.58582 1.07973 0.50044
 Cu1938 Cu 0.61524 1.10709 0.50166
 Cu1939 Cu 0.58183 0.91295 0.49711
 Cu1940 Cu 0.60927 0.88354 0.49728
 Cu1941 Cu 0.41745 1.09062 0.49691
 Cu1942 Cu 0.38942 1.11959 0.49739
 Cu1943 Cu 0.41172 0.91831 0.49537
 Cu1944 Cu 0.38120 0.89220 0.49511
 Cu1945 Cu 0.50071 1.08810 0.41621
 Cu1946 Cu 0.50269 1.11734 0.38859
 Cu1947 Cu 0.49419 0.91583 0.41540
 Cu1948 Cu 0.49379 0.88878 0.38649
 C1949 C 0.54867 0.94786 0.38267
 H1950 H 0.54383 0.95312 0.39715
 C1951 C 0.56178 0.93336 0.34563
 C1952 C 0.44734 1.05977 0.38082
 H1953 H 0.45167 1.05436 0.39564
 C1954 C 0.43560 1.07457 0.34290
 C1955 C 0.44949 1.12526 0.44618
 H1956 H 0.45429 1.11041 0.45169
 C1957 C 0.43658 1.16320 0.43102
 C1958 C 0.54703 0.88042 0.44600
 H1959 H 0.54290 0.89567 0.45040
 C1960 C 0.55853 0.84139 0.43403
 C1961 C 0.61663 0.94434 0.44528
 H1962 H 0.60195 0.94940 0.45041
 C1963 C 0.65433 0.93101 0.43110
 C1964 C 0.38171 1.06129 0.44415
 H1965 H 0.39648 1.05568 0.44893
 C1966 C 0.34381 1.07657 0.43138
 C1967 C 0.55251 1.05465 0.38205
 H1968 H 0.54824 1.04976 0.39695
 C1969 C 0.56402 1.06823 0.34385
 C1970 C 0.44384 0.95281 0.38130
 H1971 H 0.44885 0.95728 0.39609
 C1972 C 0.42998 0.94050 0.34353
 C1973 C 0.61941 1.05022 0.44684
 H1974 H 0.60474 1.04489 0.45177
 C1975 C 0.65697 1.06499 0.43380
 C1976 C 0.37877 0.95491 0.44413
 H1977 H 0.39378 0.95923 0.44921
 C1978 C 0.34048 0.94273 0.43010
 C1979 C 0.55502 1.11747 0.44929
 H1980 H 0.54917 1.10275 0.45379
 C1981 C 0.57106 1.15495 0.43689
 C1982 C 0.43982 0.88235 0.44316
 H1983 H 0.44609 0.89645 0.44864
 C1984 C 0.42287 0.84615 0.42863
 O1985 O 0.57654 0.52110 1.09873
 O1986 O 0.60005 0.52129 1.12246
 C1987 C 0.58355 0.52813 1.11501
 C1988 C 0.57275 0.54471 1.12529
 C1989 C 0.57920 0.55067 1.14435
 H1990 H 0.59156 0.54259 1.15182
 O1991 O 0.42996 0.48130 1.10114
 O1992 O 0.40730 0.48124 1.12514
 C1993 C 0.42350 0.47425 1.11767
 C1994 C 0.43467 0.45732 1.12786
 C1995 C 0.42814 0.44939 1.14638
 H1996 H 0.41543 0.45645 1.15366
 O1997 O 0.52343 0.60442 1.07102
 O1998 O 0.52318 0.62810 1.09404
 C1999 C 0.53041 0.62087 1.07809
 C2000 C 0.54767 0.63106 1.06801
 C2001 C 0.55560 0.64962 1.07493
 H2002 H 0.54826 0.65714 1.08719
 O2003 O 0.48458 0.39970 1.07359
 O2004 O 0.48503 0.37603 1.09728
 C2005 C 0.47783 0.38317 1.08092
 C2006 C 0.46105 0.37240 1.07065
 C2007 C 0.45469 0.35330 1.07772
 H2008 H 0.46261 0.34616 1.09027
 O2009 O 0.60468 0.57404 1.01959
 O2010 O 0.62882 0.59717 1.01894
 C2011 C 0.62157 0.58070 1.02590
 C2012 C 0.63248 0.56934 1.04188
 C2013 C 0.65219 0.57479 1.04775
 H2014 H 0.65985 0.58680 1.03967
 O2015 O 0.40034 0.42652 1.02233
 O2016 O 0.37691 0.40273 1.02287
 C2017 C 0.38411 0.41924 1.02957
 C2018 C 0.37399 0.42993 1.04633
 C2019 C 0.35552 0.42291 1.05434
 H2020 H 0.34815 0.40996 1.04768
 O2021 O 0.48418 0.57539 1.09777
 O2022 O 0.48397 0.59900 1.12089
 C2023 C 0.47727 0.58237 1.11397
 C2024 C 0.46095 0.57140 1.12471
 C2025 C 0.45461 0.57824 1.14341
 H2026 H 0.46213 0.59109 1.15021
 O2027 O 0.52409 0.42744 1.10117
 O2028 O 0.52458 0.40383 1.12493
 C2029 C 0.53122 0.42041 1.11763
 C2030 C 0.54772 0.43151 1.12795
 C2031 C 0.55512 0.42522 1.14693
 H2032 H 0.54820 0.41242 1.15451
 O2033 O 0.60497 0.48080 1.07319
 O2034 O 0.62836 0.48127 1.09702
 C2035 C 0.62148 0.47408 1.08079
 C2036 C 0.63263 0.45746 1.07093
 C2037 C 0.65136 0.45069 1.07864
 H2038 H 0.65795 0.45816 1.09150
 O2039 O 0.40043 0.52047 1.07380
 O2040 O 0.37761 0.52071 1.09764
 C2041 C 0.38407 0.52742 1.08099
 C2042 C 0.37289 0.54374 1.06988
 C2043 C 0.35391 0.55097 1.07632
 H2044 H 0.34692 0.54416 1.08935
 O2045 O 0.42691 0.59987 1.01901
 O2046 O 0.40311 0.62353 1.01878
 C2047 C 0.41987 0.61647 1.02555
 C2048 C 0.43112 0.62763 1.04129
 C2049 C 0.42417 0.64671 1.04741
 H2050 H 0.41084 0.65342 1.04030
 O2051 O 0.57933 0.39951 1.02267
 O2052 O 0.60308 0.37580 1.02323
 C2053 C 0.58655 0.38299 1.02987
 C2054 C 0.57554 0.37249 1.04631
 C2055 C 0.58179 0.35327 1.05380
 H2056 H 0.59460 0.34571 1.04712
 O2057 O 0.43009 0.52117 1.09967
 O2058 O 0.40746 0.52126 1.12369
 C2059 C 0.42357 0.52830 1.11597
 C2060 C 0.43461 0.54524 1.12575
 C2061 C 0.42841 0.55253 1.14444
 H2062 H 0.41601 0.54514 1.15207
 O2063 O 0.57656 0.48142 1.09965
 O2064 O 0.60001 0.48186 1.12343
 C2065 C 0.58360 0.47485 1.11626
 C2066 C 0.57300 0.45850 1.12716
 C2067 C 0.57990 0.45233 1.14614
 H2068 H 0.59249 0.46023 1.15309
 O2069 O 0.52438 0.40025 1.07342
 O2070 O 0.52461 0.37662 1.09715
 C2071 C 0.53148 0.38378 1.08084
 C2072 C 0.54825 0.37300 1.07082
 C2073 C 0.55452 0.35380 1.07785
 H2074 H 0.54651 0.34663 1.09012
 O2075 O 0.48350 0.60323 1.07005
 O2076 O 0.48307 0.62701 1.09298
 C2077 C 0.47603 0.61953 1.07688
 C2078 C 0.45853 0.62935 1.06629
 C2079 C 0.45110 0.64839 1.07233
 H2080 H 0.45887 0.65639 1.08416
 O2081 O 0.39890 0.57228 1.01918
 O2082 O 0.37496 0.59580 1.01874
 C2083 C 0.38238 0.57933 1.02583
 C2084 C 0.37204 0.56869 1.04243
 C2085 C 0.35298 0.57534 1.04874
 H2086 H 0.34537 0.58769 1.04075
 O2087 O 0.60711 0.42715 1.02201
 O2088 O 0.63114 0.40375 1.02242
 C2089 C 0.62374 0.42016 1.02907
 C2090 C 0.63399 0.43101 1.04566
 C2091 C 0.65277 0.42430 1.05368
 H2092 H 0.66032 0.41152 1.04696
 O2093 O 0.48450 0.42800 1.10024
 O2094 O 0.48509 0.40434 1.12393
 C2095 C 0.47788 0.42082 1.11663
 C2096 C 0.46130 0.43134 1.12717
 C2097 C 0.45463 0.42378 1.14566
 H2098 H 0.46215 0.41067 1.15245
 O2099 O 0.52371 0.57606 1.09819
 O2100 O 0.52360 0.59955 1.12142
 C2101 C 0.53067 0.58307 1.11449
 C2102 C 0.54737 0.57198 1.12510
 C2103 C 0.55454 0.57814 1.14403
 H2104 H 0.54761 0.59101 1.15129
 O2105 O 0.40189 0.48077 1.07382
 O2106 O 0.37905 0.48086 1.09766
 C2107 C 0.38575 0.47372 1.08139
 C2108 C 0.37496 0.45671 1.07150
 C2109 C 0.35654 0.44957 1.07910
 H2110 H 0.34991 0.45704 1.09184
 O2111 O 0.60473 0.52035 1.07195
 O2112 O 0.62826 0.52063 1.09568
 C2113 C 0.62127 0.52716 1.07903
 C2114 C 0.63224 0.54311 1.06795
 C2115 C 0.65191 0.54872 1.07373
 H2116 H 0.65934 0.54094 1.08621
 O2117 O 0.42881 0.39921 1.02215
 O2118 O 0.40561 0.37516 1.02277
 C2119 C 0.42219 0.38255 1.02928
 C2120 C 0.43373 0.37204 1.04560
 C2121 C 0.42759 0.35290 1.05294
 H2122 H 0.41479 0.34554 1.04593
 O2123 O 0.57729 0.60229 1.02031
 O2124 O 0.60124 0.62560 1.01972
 C2125 C 0.58480 0.61872 1.02682
 C2126 C 0.57440 0.62972 1.04299
 C2127 C 0.58199 0.64824 1.04996
 H2128 H 0.59533 0.65477 1.04309
 Cu2129 Cu 0.58833 0.50091 1.08346
 Cu2130 Cu 0.61649 0.50133 1.11208
 Cu2131 Cu 0.41786 0.50098 1.08476
 Cu2132 Cu 0.39061 0.50104 1.11344
 Cu2133 Cu 0.50378 0.58753 1.08189
 Cu2134 Cu 0.50337 0.61583 1.10958
 Cu2135 Cu 0.50439 0.41622 1.08472
 Cu2136 Cu 0.50484 0.38780 1.11315
 C2137 C 0.55664 0.55523 1.11589
 H2138 H 0.55164 0.55064 1.10115
 C2139 C 0.57044 0.56740 1.15372
 C2140 C 0.45135 0.44822 1.11846
 H2141 H 0.45627 0.45395 1.10405
 C2142 C 0.43803 0.43246 1.15532
 C2143 C 0.55715 0.62138 1.05197
 H2144 H 0.55136 0.60698 1.04675
 C2145 C 0.57287 0.65830 1.06595
 C2146 C 0.45058 0.38157 1.05449
 H2147 H 0.45523 0.39645 1.04916
 C2148 C 0.43795 0.34346 1.06914
 C2149 C 0.62271 0.55339 1.05195
 H2150 H 0.60737 0.54932 1.04769
 C2151 C 0.66192 0.56464 1.06387
 C2152 C 0.38346 0.44690 1.05501
 H2153 H 0.39779 0.45223 1.04921
 C2154 C 0.34668 0.43271 1.07082
 C2155 C 0.45098 0.55476 1.11604
 H2156 H 0.45566 0.54954 1.10150
 C2157 C 0.43829 0.56914 1.15329
 C2158 C 0.55675 0.44821 1.11827
 H2159 H 0.55151 0.45290 1.10349
 C2160 C 0.57131 0.43567 1.15606
 C2161 C 0.62419 0.44769 1.05434
 H2162 H 0.60961 0.45276 1.04851
 C2163 C 0.66156 0.43411 1.07029
 C2164 C 0.38173 0.55272 1.05289
 H2165 H 0.39654 0.54765 1.04810
 C2166 C 0.34389 0.56682 1.06571
 C2167 C 0.44844 0.61914 1.05068
 H2168 H 0.45379 0.60432 1.04615
 C2169 C 0.43384 0.65710 1.06296
 C2170 C 0.55870 0.38214 1.05493
 H2171 H 0.55396 0.39705 1.04958
 C2172 C 0.57125 0.34384 1.06965
 O2173 O 0.57304 0.48051 0.90170
 O2174 O 0.59609 0.48115 0.87806
 C2175 C 0.58000 0.47378 0.88542
 C2176 C 0.56979 0.45670 0.87526
 C2177 C 0.57630 0.45052 0.85641
 H2178 H 0.58814 0.45896 0.84887
 O2179 O 0.42948 0.51933 0.90287
 O2180 O 0.40656 0.51924 0.87860
 C2181 C 0.42273 0.52630 0.88628
 C2182 C 0.43351 0.54315 0.87613
 C2183 C 0.42755 0.54983 0.85687
 H2184 H 0.41553 0.54197 0.84904
 O2185 O 0.48114 0.60334 0.93043
 O2186 O 0.48058 0.62701 0.90673
 C2187 C 0.47380 0.61970 0.92298
 C2188 C 0.45673 0.62987 0.93297
 C2189 C 0.44937 0.64882 0.92602
 H2190 H 0.45716 0.65650 0.91398
 O2191 O 0.52335 0.39712 0.93193
 O2192 O 0.52325 0.37316 0.90919
 C2193 C 0.53041 0.38058 0.92525
 C2194 C 0.54754 0.37038 0.93602
 C2195 C 0.55495 0.35138 0.92986
 H2196 H 0.54739 0.34363 0.91772
 O2197 O 0.60576 0.42730 0.98282
 O2198 O 0.62988 0.40399 0.98285
 C2199 C 0.62210 0.42032 0.97568
 C2200 C 0.63162 0.43118 0.95853
 C2201 C 0.65048 0.42495 0.95089
 H2202 H 0.65858 0.41246 0.95806
 O2203 O 0.39840 0.57284 0.98000
 O2204 O 0.37451 0.59639 0.97950
 C2205 C 0.38189 0.57998 0.97279
 C2206 C 0.37173 0.56921 0.95607
 C2207 C 0.35294 0.57585 0.94798
 H2208 H 0.34532 0.58864 0.95462
 O2209 O 0.52082 0.57553 0.90384
 O2210 O 0.52009 0.59921 0.88013
 C2211 C 0.52710 0.58258 0.88725
 C2212 C 0.54282 0.57152 0.87613
 C2213 C 0.54813 0.57809 0.85688
 H2214 H 0.54028 0.59095 0.84999
 O2215 O 0.48373 0.42517 0.90397
 O2216 O 0.48340 0.40151 0.88090
 C2217 C 0.47668 0.41818 0.88773
 C2218 C 0.46024 0.42942 0.87700
 C2219 C 0.45359 0.42336 0.85792
 H2220 H 0.46111 0.41082 0.85071
 O2221 O 0.60087 0.52034 0.92867
 O2222 O 0.62397 0.52061 0.90506
 C2223 C 0.61717 0.52734 0.92141
 C2224 C 0.62819 0.54378 0.93173
 C2225 C 0.64713 0.55014 0.92476
 H2226 H 0.65393 0.54252 0.91220
 O2227 O 0.40144 0.47955 0.92986
 O2228 O 0.37844 0.47944 0.90566
 C2229 C 0.38514 0.47264 0.92236
 C2230 C 0.37407 0.45625 0.93294
 C2231 C 0.35514 0.44980 0.92583
 H2232 H 0.34833 0.45734 0.91288
 O2233 O 0.57580 0.60255 0.98161
 O2234 O 0.59961 0.62602 0.98087
 C2235 C 0.58273 0.61914 0.97468
 C2236 C 0.57115 0.63025 0.95900
 C2237 C 0.57714 0.64966 0.95261
 H2238 H 0.59010 0.65685 0.95964
 O2239 O 0.42822 0.39930 0.98313
 O2240 O 0.40491 0.37537 0.98354
 C2241 C 0.42123 0.38269 0.97648
 C2242 C 0.43190 0.37199 0.96011
 C2243 C 0.42430 0.35356 0.95277
 H2244 H 0.41093 0.34691 0.95946
 O2245 O 0.42996 0.47954 0.90333
 O2246 O 0.40700 0.47961 0.87910
 C2247 C 0.42336 0.47271 0.88682
 C2248 C 0.43446 0.45627 0.87660
 C2249 C 0.42825 0.45016 0.85748
 H2250 H 0.41578 0.45798 0.84995
 O2251 O 0.57300 0.52050 0.90106
 O2252 O 0.59604 0.52099 0.87741
 C2253 C 0.57975 0.52785 0.88475
 C2254 C 0.56873 0.54493 0.87469
 C2255 C 0.57427 0.55213 0.85554
 H2256 H 0.58640 0.54471 0.84760
 O2257 O 0.48341 0.39724 0.93148
 O2258 O 0.48308 0.37333 0.90870
 C2259 C 0.47604 0.38088 0.92463
 C2260 C 0.45866 0.37097 0.93491
 C2261 C 0.45069 0.35254 0.92783
 H2262 H 0.45808 0.34512 0.91555
 O2263 O 0.52080 0.60352 0.93088
 O2264 O 0.52017 0.62723 0.90721
 C2265 C 0.52738 0.62011 0.92356
 C2266 C 0.54400 0.63081 0.93394
 C2267 C 0.55021 0.65024 0.92761
 H2268 H 0.54196 0.65791 0.91563
 O2269 O 0.39972 0.42651 0.98306
 O2270 O 0.37621 0.40278 0.98331
 C2271 C 0.38328 0.41927 0.97614
 C2272 C 0.37294 0.42997 0.95916
 C2273 C 0.35403 0.42347 0.95159
 H2274 H 0.34636 0.41089 0.95882
 O2275 O 0.60322 0.57441 0.98074
 O2276 O 0.62724 0.59766 0.97994
 C2277 C 0.61956 0.58130 0.97343
 C2278 C 0.62943 0.57030 0.95695
 C2279 C 0.64838 0.57656 0.94965
 H2280 H 0.65614 0.58905 0.95673
 O2281 O 0.52310 0.42410 0.90320
 O2282 O 0.52299 0.40033 0.88025
 C2283 C 0.52984 0.41698 0.88695
 C2284 C 0.54592 0.42831 0.87606
 C2285 C 0.55311 0.42196 0.85730
 H2286 H 0.54670 0.40864 0.85033
 O2287 O 0.48167 0.57459 0.90450
 O2288 O 0.48104 0.59818 0.88069
 C2289 C 0.47470 0.58144 0.88797
 C2290 C 0.45893 0.57001 0.87713
 C2291 C 0.45296 0.57628 0.85787
 H2292 H 0.46030 0.58920 0.85081
 O2293 O 0.40081 0.51921 0.92899
 O2294 O 0.37786 0.51897 0.90474
 C2295 C 0.38443 0.52600 0.92116
 C2296 C 0.37317 0.54260 0.93095
 C2297 C 0.35443 0.54927 0.92319
 H2298 H 0.34787 0.54167 0.91038
 O2299 O 0.60140 0.48068 0.92889
 O2300 O 0.62448 0.48111 0.90526
 C2301 C 0.61788 0.47401 0.92173
 C2302 C 0.62934 0.45760 0.93237
 C2303 C 0.64822 0.45135 0.92524
 H2304 H 0.65461 0.45900 0.91231
 O2305 O 0.57841 0.39923 0.98384
 O2306 O 0.60228 0.37564 0.98414
 C2307 C 0.58550 0.38260 0.97740
 C2308 C 0.57438 0.37149 0.96159
 C2309 C 0.58135 0.35246 0.95537
 H2310 H 0.59454 0.34560 0.96261
 O2311 O 0.42607 0.60071 0.98023
 O2312 O 0.40225 0.62437 0.97998
 C2313 C 0.41885 0.61740 0.97345
 C2314 C 0.42972 0.62859 0.95757
 C2315 C 0.42256 0.64751 0.95049
 H2316 H 0.40921 0.65422 0.95709
 Cu2317 Cu 0.58467 0.50049 0.91737
 Cu2318 Cu 0.61243 0.50097 0.88907
 Cu2319 Cu 0.41775 0.49940 0.91869
 Cu2320 Cu 0.39018 0.49924 0.88958
 Cu2321 Cu 0.58788 0.58595 1.00065
 Cu2322 Cu 0.61668 0.61397 0.99980
 Cu2323 Cu 0.59037 0.41570 1.00284
 Cu2324 Cu 0.61905 0.38748 1.00315
 Cu2325 Cu 0.41487 0.58396 0.99958
 Cu2326 Cu 0.38626 0.61235 0.99930
 Cu2327 Cu 0.41649 0.41532 1.00264
 Cu2328 Cu 0.38857 0.38664 1.00318
 Cu2329 Cu 0.50123 0.58698 0.91994
 Cu2330 Cu 0.50042 0.61534 0.89134
 Cu2331 Cu 0.50351 0.41319 0.91996
 Cu2332 Cu 0.50314 0.38459 0.89258
 C2333 C 0.55444 0.44570 0.88483
 H2334 H 0.54944 0.45045 0.89944
 C2335 C 0.56832 0.43315 0.84739
 C2336 C 0.44930 0.55329 0.88611
 H2337 H 0.45375 0.54851 0.90110
 C2338 C 0.43721 0.56650 0.84774
 C2339 C 0.44690 0.61999 0.94883
 H2340 H 0.45232 0.60525 0.95404
 C2341 C 0.43214 0.65768 0.93464
 C2342 C 0.55735 0.38025 0.95197
 H2343 H 0.55206 0.39507 0.95656
 C2344 C 0.57197 0.34241 0.93943
 C2345 C 0.62125 0.44757 0.94914
 H2346 H 0.60658 0.45228 0.95461
 C2347 C 0.65885 0.43505 0.93417
 C2348 C 0.38157 0.55251 0.94747
 H2349 H 0.39616 0.54751 0.95333
 C2350 C 0.34418 0.56588 0.93142
 C2351 C 0.55296 0.55476 0.88480
 H2352 H 0.54888 0.54969 0.89970
 C2353 C 0.56389 0.56872 0.84658
 C2354 C 0.45061 0.44596 0.88617
 H2355 H 0.45535 0.45050 0.90101
 C2356 C 0.43751 0.43366 0.84813
 C2357 C 0.61952 0.55381 0.94795
 H2358 H 0.60479 0.54909 0.95326
 C2359 C 0.65726 0.56656 0.93344
 C2360 C 0.38272 0.44643 0.94973
 H2361 H 0.39743 0.45131 0.95515
 C2362 C 0.34506 0.43341 0.93486
 C2363 C 0.55446 0.62103 0.94973
 H2364 H 0.54996 0.60589 0.95444
 C2365 C 0.56691 0.65969 0.93684
 C2366 C 0.44917 0.38052 0.95112
 H2367 H 0.45498 0.39486 0.95646
 C2368 C 0.43338 0.34379 0.93657
 C2369 C 1.11578 1.13277 1.25545
 C2370 C 1.11939 1.11353 1.24782
 C2371 C 1.10872 1.10646 1.22985
 N2372 N 1.11171 1.08726 1.22332
 N2373 N 1.10219 1.08079 1.20693
 C2374 C 1.08936 1.09331 1.19650
 N2375 N 1.08637 1.11250 1.20305
 N2376 N 1.09585 1.11895 1.21944
 C2377 C 1.07916 1.08669 1.17811
 C2378 C 1.08165 1.06713 1.17071
 H2379 H 1.13008 1.10332 1.25522
 H2380 H 1.07029 1.09793 1.16989
 H2381 H 1.10467 1.14268 1.24824
 H2382 H 1.09146 1.05654 1.17880
 C2383 C 1.12919 0.63061 0.75455
 C2384 C 1.12843 0.61034 0.74889
 C2385 C 1.11605 0.60437 0.73138
 N2386 N 1.11458 0.58456 0.72613
 N2387 N 1.10312 0.57921 0.71051
 C2388 C 1.09260 0.59345 0.69962
 N2389 N 1.09404 0.61321 0.70491
 N2390 N 1.10549 0.61855 0.72049
 C2391 C 1.08044 0.58798 0.68187
 C2392 C 1.08016 0.56823 0.67464
 H2393 H 1.13602 0.59874 0.75789
 H2394 H 1.07289 0.60009 0.67351
 H2395 H 1.12101 0.64187 0.74561
 H2396 H 1.08873 0.55659 0.68270
 C2397 C 0.61593 1.13035 0.75617
 C2398 C 0.61820 1.11092 0.74838
 C2399 C 0.60637 1.10450 0.73080
 N2400 N 0.60777 1.08510 0.72429
 N2401 N 0.59712 1.07918 0.70837
 C2402 C 0.58467 1.09245 0.69837
 N2403 N 0.58329 1.11184 0.70488
 N2404 N 0.59390 1.11774 0.72081
 C2405 C 0.57330 1.08639 0.68041
 C2406 C 0.57422 1.06663 0.67314
 H2407 H 0.62846 1.10003 0.75542
 H2408 H 0.56496 1.09811 0.67230
 H2409 H 0.60525 1.14081 0.74906
 H2410 H 0.58335 1.05546 0.68124
 C2411 C 0.63482 0.63424 1.24998
 C2412 C 0.63095 0.61393 1.24578
 C2413 C 0.61838 0.60843 1.22824
 N2414 N 0.61380 0.58869 1.22471
 N2415 N 0.60197 0.58376 1.20922
 C2416 C 0.59414 0.59839 1.19675
 N2417 N 0.59869 0.61810 1.20032
 N2418 N 0.61053 0.62302 1.21577
 C2419 C 0.58162 0.59319 1.17914
 C2420 C 0.57868 0.57309 1.17351
 H2421 H 0.63586 0.60210 1.25619
 H2422 H 0.57611 0.60545 1.16952
 H2423 H 0.62918 0.64590 1.23973
 H2424 H 0.58535 0.56107 1.18271
 C2425 C 0.87378 0.86880 1.25616
 C2426 C 0.87573 0.88881 1.24929
 C2427 C 0.88930 0.89371 1.23234
 N2428 N 0.89268 0.91333 1.22681
 N2429 N 0.90485 0.91774 1.21153
 C2430 C 0.91416 0.90271 1.20120
 N2431 N 0.91082 0.88311 1.20678
 N2432 N 0.89869 0.87871 1.22204
 C2433 C 0.92674 0.90729 1.18349
 C2434 C 0.92899 0.92712 1.17625
 H2435 H 0.86773 0.90102 1.25657
 H2436 H 0.93284 0.89471 1.17514
 H2437 H 0.88238 0.85711 1.24869
 H2438 H 0.92212 0.93933 1.18457
 C2439 C 0.87579 0.37153 0.76090
 C2440 C 0.87752 0.39195 0.75529
 C2441 C 0.89067 0.39812 0.73853
 N2442 N 0.89094 0.41774 0.73201
 N2443 N 0.90237 0.42324 0.71653
 C2444 C 0.91405 0.40934 0.70704
 N2445 N 0.91391 0.38977 0.71369
 N2446 N 0.90247 0.38428 0.72913
 C2447 C 0.92578 0.41485 0.68912
 C2448 C 0.92495 0.43437 0.68074
 H2449 H 0.86908 0.40353 0.76305
 H2450 H 0.93384 0.40286 0.68159
 H2451 H 0.88436 0.36033 0.75272
 H2452 H 0.91603 0.44584 0.68817
 C2453 C 0.36316 0.89012 0.75971
 C2454 C 0.38159 0.88697 0.75021
 C2455 C 0.38741 0.89788 0.73182
 N2456 N 0.40581 0.89419 0.72376
 N2457 N 0.41139 0.90366 0.70699
 C2458 C 0.39878 0.91720 0.69763
 N2459 N 0.38035 0.92094 0.70571
 N2460 N 0.37476 0.91146 0.72252
 C2461 C 0.40471 0.92740 0.67883
 C2462 C 0.42329 0.92324 0.66990
 H2463 H 0.39237 0.87610 0.75642
 H2464 H 0.39388 0.93761 0.67168
 H2465 H 0.35251 0.90128 0.75373
 H2466 H 0.43334 0.91226 0.67715
 C2467 C 0.37282 0.38878 1.26409
 C2468 C 0.38900 0.38206 1.25265
 C2469 C 0.39516 0.39341 1.23454
 N2470 N 0.41268 0.38864 1.22521
 N2471 N 0.41843 0.39903 1.20899
 C2472 C 0.40684 0.41456 1.20146
 N2473 N 0.38927 0.41922 1.21070
 N2474 N 0.38357 0.40888 1.22695
 C2475 C 0.41285 0.42605 1.18341
 C2476 C 0.43158 0.42292 1.17445
 H2477 H 0.39764 0.36872 1.25723
 H2478 H 0.40201 0.43671 1.17699
 H2479 H 0.36495 0.40260 1.25948
 H2480 H 0.44183 0.41188 1.18132
 C2481 C 0.86843 1.11589 0.73288
 C2482 C 0.88552 1.12090 0.74413
 C2483 C 0.89119 1.10928 0.76235
 N2484 N 0.90874 1.11348 0.77218
 N2485 N 0.91393 1.10316 0.78875
 C2486 C 0.90176 1.08827 0.79617
 N2487 N 0.88418 1.08412 0.78637
 N2488 N 0.87901 1.09440 0.76976
 C2489 C 0.90716 1.07707 0.81474
 C2490 C 0.92554 1.08048 0.82462
 H2491 H 0.89497 1.13350 0.73950
 H2492 H 0.89618 1.06659 0.82084
 H2493 H 0.85938 1.10294 0.73738
 H2494 H 0.93591 1.09132 0.81798
 C2495 C 0.86980 0.61673 0.23521
 C2496 C 0.88790 0.61998 0.24554
 C2497 C 0.89342 0.60774 0.26345
 N2498 N 0.91155 0.61060 0.27271
 N2499 N 0.91658 0.59979 0.28904
 C2500 C 0.90368 0.58571 0.29675
 N2501 N 0.88554 0.58284 0.28747
 N2502 N 0.88053 0.59362 0.27111
 C2503 C 0.90882 0.57423 0.31525
 C2504 C 0.92758 0.57663 0.32472
 H2505 H 0.89822 0.63168 0.24049
 H2506 H 0.89732 0.56464 0.32182
 H2507 H 0.85977 0.60474 0.24023
 H2508 H 0.93846 0.58668 0.31771
 C2509 C 0.36477 1.13058 0.24236
 C2510 C 0.38512 1.12974 0.24804
 C2511 C 0.39174 1.11734 0.26544
 N2512 N 0.41155 1.11684 0.27112
 N2513 N 0.41751 1.10575 0.28697
 C2514 C 0.40389 1.09472 0.29767
 N2515 N 0.38413 1.09515 0.29191
 N2516 N 0.37818 1.10623 0.27610
 C2517 C 0.40997 1.08305 0.31568
 C2518 C 0.42974 1.08340 0.32321
 H2519 H 0.39635 1.13801 0.23954
 H2520 H 0.39819 1.07525 0.32385
 H2521 H 0.35374 1.12207 0.25093
 H2522 H 0.44100 1.09225 0.31528
 C2523 C 0.37041 0.61448 0.74102
 C2524 C 0.38777 0.61931 0.75186
 C2525 C 0.39383 0.60739 0.76964
 N2526 N 0.41247 0.60998 0.77790
 N2527 N 0.41827 0.59894 0.79380
 C2528 C 0.40565 0.58491 0.80201
 N2529 N 0.38695 0.58242 0.79383
 N2530 N 0.38118 0.59340 0.77788
 C2531 C 0.41172 0.57312 0.81990
 C2532 C 0.43122 0.57466 0.82789
 H2533 H 0.39768 0.63130 0.74664
 H2534 H 0.40030 0.56414 0.82740
 H2535 H 0.36112 0.60179 0.74577
 H2536 H 0.44210 0.58418 0.82018
 C2537 C 1.12840 0.87323 0.74141
 C2538 C 1.10839 0.87331 0.74783
 C2539 C 1.10247 0.88556 0.76525
 N2540 N 1.08275 0.88686 0.77074
 N2541 N 1.07740 0.89826 0.78619
 C2542 C 1.09153 0.90886 0.79670
 N2543 N 1.11121 0.90755 0.79121
 N2544 N 1.11655 0.89617 0.77579
 C2545 C 1.08602 0.92115 0.81417
 C2546 C 1.06621 0.92202 0.82115
 H2547 H 1.09687 0.86527 0.73944
 H2548 H 1.09809 0.92853 0.82239
 H2549 H 1.13954 0.88193 0.74965
 H2550 H 1.05459 0.91367 0.81317
 C2551 C 1.13223 0.38531 0.24003
 C2552 C 1.11489 0.38057 0.25099
 C2553 C 1.10862 0.39192 0.26892
 N2554 N 1.09129 0.38668 0.27846
 N2555 N 1.08538 0.39656 0.29470
 C2556 C 1.09657 0.41212 0.30211
 N2557 N 1.11391 0.41737 0.29256
 N2558 N 1.11982 0.40749 0.27629
 C2559 C 1.09029 0.42309 0.32031
 C2560 C 1.07244 0.41826 0.33051
 H2561 H 1.10541 0.36807 0.24631
 H2562 H 1.10021 0.43488 0.32573
 H2563 H 1.14159 0.39796 0.24460
 H2564 H 1.06319 0.40613 0.32457
 C2565 C 0.63009 0.88688 0.24113
 C2566 C 0.61242 0.88212 0.25131
 C2567 C 0.60612 0.89365 0.26888
 N2568 N 0.58753 0.89057 0.27678
 N2569 N 0.58156 0.90109 0.29256
 C2570 C 0.59398 0.91506 0.30105
 N2571 N 0.61263 0.91807 0.29321
 N2572 N 0.61856 0.90760 0.27738
 C2573 C 0.58774 0.92643 0.31876
 C2574 C 0.56828 0.92454 0.32648
 H2575 H 0.60256 0.87024 0.24588
 H2576 H 0.59901 0.93566 0.32616
 H2577 H 0.63944 0.89936 0.24615
 H2578 H 0.55760 0.91475 0.31885
 C2579 C 0.62892 0.36791 0.74803
 C2580 C 0.62674 0.38804 0.75388
 C2581 C 0.61469 0.39318 0.77171
 N2582 N 0.61109 0.41289 0.77636
 N2583 N 0.59978 0.41753 0.79210
 C2584 C 0.59156 0.40266 0.80378
 N2585 N 0.59517 0.38298 0.79913
 N2586 N 0.60646 0.37834 0.78340
 C2587 C 0.57949 0.40753 0.82163
 C2588 C 0.57653 0.42753 0.82767
 H2589 H 0.63274 0.40019 0.74461
 H2590 H 0.57410 0.39509 0.83090
 H2591 H 0.62207 0.35605 0.75708
 H2592 H 0.58290 0.43966 0.81861
 C2593 C 1.25840 1.11686 1.13209
 C2594 C 1.25401 1.11448 1.11185
 C2595 C 1.23778 1.10097 1.10499
 N2596 N 1.23340 1.09971 1.08519
 N2597 N 1.21827 1.08802 1.07883
 C2598 C 1.20702 1.07713 1.09204
 N2599 N 1.21153 1.07824 1.11183
 N2600 N 1.22665 1.08993 1.11819
 C2601 C 1.18941 1.06531 1.08542
 C2602 C 1.18271 1.06580 1.06558
 H2603 H 1.26247 1.12285 1.10070
 H2604 H 1.18054 1.05774 1.09680
 H2605 H 1.25003 1.10826 1.14317
 H2606 H 1.19128 1.07444 1.05467
 C2607 C 1.26357 0.61813 0.62831
 C2608 C 1.25404 0.62177 0.60998
 C2609 C 1.23629 0.60970 0.60405
 N2610 N 1.22930 0.61041 0.58491
 N2611 N 1.21368 0.59891 0.57936
 C2612 C 1.20451 0.58629 0.59273
 N2613 N 1.21141 0.58571 0.61188
 N2614 N 1.22705 0.59714 0.61741
 C2615 C 1.18693 0.57392 0.58697
 C2616 C 1.17963 0.57387 0.56738
 H2617 H 1.26045 0.63250 0.59939
 H2618 H 1.17892 0.56584 0.59866
 H2619 H 1.25761 0.60656 0.63830
 H2620 H 1.18756 0.58267 0.55612
 C2621 C 0.75707 1.12954 0.61653
 C2622 C 0.75041 1.10958 0.61850
 C2623 C 0.73328 1.10220 0.60651
 N2624 N 0.72728 1.08256 0.60821
 N2625 N 0.71154 1.07587 0.59754
 C2626 C 0.70131 1.08860 0.58479
 N2627 N 0.70737 1.10820 0.58306
 N2628 N 0.72308 1.11487 0.59370
 C2629 C 0.68342 1.08187 0.57358
 C2630 C 0.67599 1.06214 0.57533
 H2631 H 0.75793 1.09913 0.62883
 H2632 H 0.67525 1.09327 0.56488
 H2633 H 0.74970 1.13975 0.60586
 H2634 H 0.68390 1.05132 0.58501
 C2635 C 0.76516 0.63541 1.11204
 C2636 C 0.75978 0.61502 1.11114
 C2637 C 0.74250 0.60828 1.09897
 N2638 N 0.73654 0.58859 1.09992
 N2639 N 0.72017 0.58252 1.08986
 C2640 C 0.70921 0.59592 1.07846
 N2641 N 0.71533 0.61555 1.07729
 N2642 N 0.73168 0.62163 1.08737
 C2643 C 0.69039 0.58979 1.06836
 C2644 C 0.68227 0.57043 1.07116
 H2645 H 0.76778 0.60377 1.12022
 H2646 H 0.68212 0.60134 1.05996
 H2647 H 0.75718 0.64657 1.10282
 H2648 H 0.69037 0.55961 1.08068
 C2649 C 1.26097 0.86633 0.88252
 C2650 C 1.25102 0.88487 0.87978
 C2651 C 1.23327 0.89057 0.89162
 N2652 N 1.22500 0.90936 0.88922
 N2653 N 1.20874 0.91472 0.89956
 C2654 C 1.20011 0.90149 0.91271
 N2655 N 1.20842 0.88270 0.91516
 N2656 N 1.22473 0.87734 0.90483
 C2657 C 1.18164 0.90707 0.92358
 C2658 C 1.17282 0.92627 0.92108
 H2659 H 1.25647 0.89573 0.86880
 H2660 H 1.17444 0.89553 0.93269
 H2661 H 1.25585 0.85575 0.89393
 H2662 H 1.18022 0.93717 0.91132
 C2663 C 1.25947 0.38972 0.36899
 C2664 C 1.24758 0.38209 0.38446
 C2665 C 1.22966 0.39307 0.39148
 N2666 N 1.22023 0.38671 0.40835
 N2667 N 1.20403 0.39661 0.41498
 C2668 C 1.19666 0.41319 0.40493
 N2669 N 1.20603 0.41948 0.38800
 N2670 N 1.22227 0.40963 0.38142
 C2671 C 1.17864 0.42409 0.41185
 C2672 C 1.16967 0.41941 0.43014
 H2673 H 1.25175 0.36809 0.39217
 H2674 H 1.17232 0.43563 0.40195
 H2675 H 1.25540 0.40414 0.36195
 H2676 H 1.17645 0.40749 0.43939
 C2677 C 0.76324 0.86950 0.37948
 C2678 C 0.75147 0.88683 0.37588
 C2679 C 0.73373 0.89169 0.38840
 N2680 N 0.72453 0.91012 0.38658
 N2681 N 0.70863 0.91473 0.39784
 C2682 C 0.70122 0.90110 0.41137
 N2683 N 0.71039 0.88263 0.41316
 N2684 N 0.72636 0.87804 0.40195
 C2685 C 0.68312 0.90593 0.42344
 C2686 C 0.67423 0.92524 0.42251
 H2687 H 0.75580 0.89750 0.36422
 H2688 H 0.67633 0.89393 0.43230
 H2689 H 0.75928 0.85947 0.39180
 H2690 H 0.68159 0.93670 0.41336
 C2691 C 0.76732 0.37223 0.88435
 C2692 C 0.75552 0.38933 0.87992
 C2693 C 0.73787 0.39468 0.89221
 N2694 N 0.72847 0.41290 0.88948
 N2695 N 0.71263 0.41795 0.90061
 C2696 C 0.70553 0.40497 0.91488
 N2697 N 0.71485 0.38668 0.91753
 N2698 N 0.73075 0.38167 0.90645
 C2699 C 0.68767 0.41025 0.92694
 C2700 C 0.67850 0.42936 0.92518
 H2701 H 0.75966 0.39936 0.86766
 H2702 H 0.68126 0.39861 0.93654
 H2703 H 0.76352 0.36279 0.89716
 H2704 H 0.68532 0.44045 0.91521
 C2705 C 0.74062 0.88032 1.13306
 C2706 C 0.75023 0.87691 1.11499
 C2707 C 0.76842 0.88859 1.10941
 N2708 N 0.77552 0.88788 1.09047
 N2709 N 0.79155 0.89891 1.08516
 C2710 C 0.80111 0.91106 1.09857
 N2711 N 0.79410 0.91164 1.11754
 N2712 N 0.77803 0.90068 1.12283
 C2713 C 0.81909 0.92305 1.09294
 C2714 C 0.82599 0.92346 1.07331
 H2715 H 0.74361 0.86657 1.10429
 H2716 H 0.82745 0.93076 1.10459
 H2717 H 0.74686 0.89149 1.14315
 H2718 H 0.81748 0.91515 1.06215
 C2719 C 0.73293 0.37002 0.62068
 C2720 C 0.74369 0.38784 0.62426
 C2721 C 0.76160 0.39344 0.61221
 N2722 N 0.77078 0.41166 0.61484
 N2723 N 0.78691 0.41683 0.60405
 C2724 C 0.79455 0.40399 0.59020
 N2725 N 0.78540 0.38575 0.58761
 N2726 N 0.76924 0.38060 0.59836
 C2727 C 0.81273 0.40938 0.57844
 C2728 C 0.82210 0.42829 0.58034
 H2729 H 0.73874 0.39803 0.63584
 H2730 H 0.81909 0.39799 0.56880
 H2731 H 0.73778 0.36028 0.60868
 H2732 H 0.81531 0.43907 0.59043
 C2733 C 0.23959 0.88683 0.63116
 C2734 C 0.24705 0.88555 0.61184
 C2735 C 0.26426 0.89797 0.60522
 N2736 N 0.27027 0.89735 0.58591
 N2737 N 0.28598 0.90837 0.57979
 C2738 C 0.29626 0.92042 0.59275
 N2739 N 0.29023 0.92106 0.61205
 N2740 N 0.27449 0.91007 0.61817
 C2741 C 0.31424 0.93187 0.58641
 C2742 C 0.32112 0.93118 0.56679
 H2743 H 0.23996 0.87549 0.60118
 H2744 H 0.32286 0.93973 0.59776
 H2745 H 0.24635 0.89739 0.64155
 H2746 H 0.31250 0.92253 0.55597
 C2747 C 0.23695 0.36741 1.11778
 C2748 C 0.24799 0.38503 1.12159
 C2749 C 0.26595 0.39084 1.10976
 N2750 N 0.27546 0.40871 1.11336
 N2751 N 0.29173 0.41415 1.10293
 C2752 C 0.29919 0.40193 1.08847
 N2753 N 0.28968 0.38404 1.08488
 N2754 N 0.27337 0.37861 1.09529
 C2755 C 0.31749 0.40766 1.07707
 C2756 C 0.32735 0.42616 1.08021
 H2757 H 0.24328 0.39501 1.13343
 H2758 H 0.32344 0.39684 1.06659
 H2759 H 0.24151 0.35772 1.10564
 H2760 H 0.32090 0.43633 1.09109
 C2761 C 0.73120 1.11481 0.86778
 C2762 C 0.74237 1.12014 0.88472
 C2763 C 0.76081 1.10885 0.89102
 N2764 N 0.77058 1.11371 0.90826
 N2765 N 0.78733 1.10373 0.91402
 C2766 C 0.79498 1.08852 0.90274
 N2767 N 0.78521 1.08368 0.88550
 N2768 N 0.76844 1.09363 0.87975
 C2769 C 0.81372 1.07755 0.90869
 C2770 C 0.82396 1.08151 0.92662
 H2771 H 0.73749 1.13279 0.89370
 H2772 H 0.81957 1.06654 0.89836
 H2773 H 0.73594 1.10184 0.85914
 H2774 H 0.81765 1.09295 0.93631
 C2775 C 0.73313 0.63390 0.38229
 C2776 C 0.74417 0.61621 0.37887
 C2777 C 0.76229 0.61078 0.39104
 N2778 N 0.77149 0.59250 0.38865
 N2779 N 0.78787 0.58744 0.39949
 C2780 C 0.79576 0.60045 0.41314
 N2781 N 0.78659 0.61877 0.41550
 N2782 N 0.77016 0.62381 0.40470
 C2783 C 0.81426 0.59513 0.42484
 C2784 C 0.82334 0.57602 0.42322
 H2785 H 0.73927 0.60591 0.36730
 H2786 H 0.82109 0.60666 0.43409
 H2787 H 0.73782 0.64376 0.39432
 H2788 H 0.81603 0.56508 0.41356
 C2789 C 0.23072 1.11950 0.36835
 C2790 C 0.24162 1.12430 0.38559
 C2791 C 0.26026 1.11311 0.39134
 N2792 N 0.26995 1.11727 0.40880
 N2793 N 0.28691 1.10736 0.41403
 C2794 C 0.29485 1.09293 0.40198
 N2795 N 0.28517 1.08879 0.38451
 N2796 N 0.26820 1.09867 0.37931
 C2797 C 0.31384 1.08215 0.40736
 C2798 C 0.32392 1.08558 0.42546
 H2799 H 0.23645 1.13646 0.39506
 H2800 H 0.32009 1.07190 0.39651
 H2801 H 0.23584 1.10704 0.35922
 H2802 H 0.31725 1.09634 0.43565
 C2803 C 0.23216 0.62905 0.88456
 C2804 C 0.24393 0.61219 0.87981
 C2805 C 0.26205 0.60640 0.89183
 N2806 N 0.27237 0.58909 0.88771
 N2807 N 0.28884 0.58381 0.89835
 C2808 C 0.29568 0.59566 0.91350
 N2809 N 0.28537 0.61299 0.91759
 N2810 N 0.26887 0.61824 0.90699
 C2811 C 0.31417 0.59019 0.92512
 C2812 C 0.32460 0.57203 0.92181
 H2813 H 0.23981 0.60300 0.86709
 H2814 H 0.31974 0.60094 0.93594
 H2815 H 0.23619 0.63784 0.89759
 H2816 H 0.31844 0.56189 0.91066
 C2817 C 1.11454 1.26129 1.13511
 C2818 C 1.11961 1.25117 1.11758
 C2819 C 1.10915 1.23267 1.11068
 N2820 N 1.11454 1.22416 1.09311
 N2821 N 1.10547 1.20736 1.08664
 C2822 C 1.09064 1.19835 1.09754
 N2823 N 1.08525 1.20686 1.11512
 N2824 N 1.09431 1.22369 1.12158
 C2825 C 1.08054 1.17959 1.09074
 C2826 C 1.08519 1.17028 1.07261
 H2827 H 1.13172 1.25698 1.10836
 H2828 H 1.06951 1.17295 1.10067
 H2829 H 1.10215 1.25572 1.14414
 H2830 H 1.09680 1.17715 1.06341
 C2831 C 1.13028 0.76720 0.61463
 C2832 C 1.11295 0.75587 0.61864
 C2833 C 1.10758 0.73779 0.60679
 N2834 N 1.08981 0.72804 0.61008
 N2835 N 1.08486 0.71164 0.59960
 C2836 C 1.09748 0.70429 0.58543
 N2837 N 1.11528 0.71403 0.58216
 N2838 N 1.12021 0.73047 0.59260
 C2839 C 1.09233 0.68576 0.57411
 C2840 C 1.07381 0.67594 0.57681
 H2841 H 1.10300 0.76039 0.63058
 H2842 H 1.10357 0.67952 0.56423
 H2843 H 1.13983 0.76280 0.60232
 H2844 H 1.06318 0.68267 0.58707
 C2845 C 0.61416 1.25966 0.63360
 C2846 C 0.61733 1.25124 0.61490
 C2847 C 0.60616 1.23315 0.60833
 N2848 N 0.60928 1.22558 0.58984
 N2849 N 0.59945 1.20903 0.58385
 C2850 C 0.58616 1.19945 0.59614
 N2851 N 0.58302 1.20706 0.61461
 N2852 N 0.59282 1.22361 0.62058
 C2853 C 0.57561 1.18085 0.59000
 C2854 C 0.57863 1.17226 0.57130
 H2855 H 0.62825 1.25794 0.60483
 H2856 H 0.56605 1.17344 0.60090
 H2857 H 0.60297 1.25303 0.64345
 H2858 H 0.58903 1.17964 0.56111
 C2859 C 0.61796 0.76681 1.13297
 C2860 C 0.62241 0.75670 1.11535
 C2861 C 0.61086 0.73864 1.10899
 N2862 N 0.61488 0.72984 1.09121
 N2863 N 0.60460 0.71351 1.08534
 C2864 C 0.58989 0.70532 1.09701
 N2865 N 0.58588 0.71412 1.11479
 N2866 N 0.59614 0.73047 1.12065
 C2867 C 0.57865 0.68699 1.09086
 C2868 C 0.58219 0.67767 1.07257
 H2869 H 0.63445 0.76221 1.10586
 H2870 H 0.56798 0.68052 1.10131
 H2871 H 0.60562 0.76138 1.14214
 H2872 H 0.59339 0.68444 1.06281
 C2873 C 0.87974 1.25920 0.86542
 C2874 C 0.88309 1.25472 0.88559
 C2875 C 0.89561 1.23735 0.89214
 N2876 N 0.89732 1.23262 0.91189
 N2877 N 0.90824 1.21659 0.91799
 C2878 C 0.91792 1.20477 0.90456
 N2879 N 0.91638 1.20962 0.88483
 N2880 N 0.90543 1.22563 0.87872
 C2881 C 0.92898 1.18636 0.91092
 C2882 C 0.92896 1.17949 0.93072
 H2883 H 0.87622 1.26397 0.89697
 H2884 H 0.93571 1.17719 0.89940
 H2885 H 0.88654 1.24978 0.85411
 H2886 H 0.92107 1.18832 0.94182
 C2887 C 0.87928 0.75949 0.36423
 C2888 C 0.88261 0.75517 0.38444
 C2889 C 0.89517 0.73782 0.39114
 N2890 N 0.89660 0.73306 0.41090
 N2891 N 0.90769 0.71720 0.41717
 C2892 C 0.91788 0.70560 0.40391
 N2893 N 0.91661 0.71048 0.38416
 N2894 N 0.90547 0.72630 0.37789
 C2895 C 0.92926 0.68741 0.41048
 C2896 C 0.92800 0.67989 0.43002
 H2897 H 0.87582 0.76462 0.39570
 H2898 H 0.93722 0.67894 0.39922
 H2899 H 0.88599 0.74985 0.35304
 H2900 H 0.91895 0.68818 0.44064
 C2901 C 0.36759 1.26884 0.37888
 C2902 C 0.38663 1.26000 0.37660
 C2903 C 0.39289 1.24205 0.38865
 N2904 N 0.41209 1.23471 0.38744
 N2905 N 0.41789 1.21857 0.39838
 C2906 C 0.40472 1.20915 0.41095
 N2907 N 0.38553 1.21648 0.41212
 N2908 N 0.37974 1.23264 0.40122
 C2909 C 0.41074 1.19094 0.42272
 C2910 C 0.43034 1.18296 0.42191
 H2911 H 0.39733 1.26664 0.36625
 H2912 H 0.39919 1.18323 0.43128
 H2913 H 0.35726 1.26239 0.38971
 H2914 H 0.44132 1.19073 0.41264
 C2915 C 0.38854 0.76653 0.86409
 C2916 C 0.38402 0.75579 0.88157
 C2917 C 0.39576 0.73803 0.88862
 N2918 N 0.39132 0.72931 0.90652
 N2919 N 0.40150 0.71301 0.91313
 C2920 C 0.41652 0.70477 0.90206
 N2921 N 0.42099 0.71349 0.88414
 N2922 N 0.41082 0.72986 0.87754
 C2923 C 0.42743 0.68637 0.90899
 C2924 C 0.42336 0.67729 0.92751
 H2925 H 0.37153 0.76065 0.89074
 H2926 H 0.43810 0.67960 0.89886
 H2927 H 0.40153 0.76221 0.85531
 H2928 H 0.41214 0.68434 0.93693
 C2929 C 1.11470 0.74188 0.86512
 C2930 C 1.11477 0.74826 0.88485
 C2931 C 1.10191 0.76523 0.89120
 N2932 N 1.10158 0.77054 0.91072
 N2933 N 1.09018 0.78609 0.91657
 C2934 C 1.07868 0.79686 0.90313
 N2935 N 1.07895 0.79149 0.88364
 N2936 N 1.09032 0.77593 0.87779
 C2937 C 1.06704 0.81481 0.90918
 C2938 C 1.06755 0.82156 0.92883
 H2939 H 1.12415 0.74051 0.89597
 H2940 H 1.05950 0.82375 0.89758
 H2941 H 1.10484 0.74937 0.85422
 H2942 H 1.07595 0.81273 0.93996
 C2943 C 1.11899 0.24385 0.36869
 C2944 C 1.11937 0.24953 0.38865
 C2945 C 1.10673 0.26660 0.39545
 N2946 N 1.10567 0.27102 0.41517
 N2947 N 1.09398 0.28625 0.42133
 C2948 C 1.08287 0.29758 0.40799
 N2949 N 1.08395 0.29317 0.38830
 N2950 N 1.09561 0.27795 0.38216
 C2951 C 1.07046 0.31494 0.41436
 C2952 C 1.06952 0.32068 0.43431
 H2953 H 1.12818 0.24081 0.39953
 H2954 H 1.06319 0.32421 0.40285
 H2955 H 1.10953 0.25232 0.35814
 H2956 H 1.07771 0.31168 0.44546
 C2957 C 0.60965 0.73997 0.36383
 C2958 C 0.60979 0.74632 0.38359
 C2959 C 0.59716 0.76336 0.39014
 N2960 N 0.59764 0.76898 0.40956
 N2961 N 0.58674 0.78481 0.41558
 C2962 C 0.57494 0.79558 0.40241
 N2963 N 0.57435 0.78986 0.38300
 N2964 N 0.58523 0.77402 0.37698
 C2965 C 0.56390 0.81384 0.40863
 C2966 C 0.56566 0.82108 0.42805
 H2967 H 0.61948 0.73875 0.39457
 H2968 H 0.55574 0.82254 0.39726
 H2969 H 0.59958 0.74730 0.35302
 H2970 H 0.57470 0.81247 0.43886
 C2971 C 0.62228 0.24107 0.86774
 C2972 C 0.62440 0.24772 0.88731
 C2973 C 0.61275 0.26542 0.89426
 N2974 N 0.61395 0.27120 0.91364
 N2975 N 0.60328 0.28709 0.91995
 C2976 C 0.59097 0.29777 0.90712
 N2977 N 0.58979 0.29198 0.88777
 N2978 N 0.60044 0.27611 0.88148
 C2979 C 0.57949 0.31571 0.91361
 C2980 C 0.58079 0.32281 0.93312
 H2981 H 0.63415 0.23953 0.89781
 H2982 H 0.57084 0.32409 0.90238
 H2983 H 0.61209 0.24916 0.85758
 H2984 H 0.59036 0.31464 0.94382
 C2985 C 0.86787 0.74915 1.13450
 C2986 C 0.88783 0.75192 1.12855
 C2987 C 0.89330 0.76866 1.11476
 N2988 N 0.91291 0.77139 1.10949
 N2989 N 0.91795 0.78628 1.09679
 C2990 C 0.90356 0.79889 1.08873
 N2991 N 0.88393 0.79606 1.09388
 N2992 N 0.87890 0.78121 1.10662
 C2993 C 0.90907 0.81612 1.07557
 C2994 C 0.92925 0.82155 1.07288
 H2995 H 0.89939 0.74100 1.13306
 H2996 H 0.89706 0.82585 1.06971
 H2997 H 0.85641 0.76006 1.12968
 H2998 H 0.94099 0.81220 1.07985
 C2999 C 0.86553 0.24620 0.62848
 C3000 C 0.88570 0.25225 0.62821
 C3001 C 0.89184 0.26988 0.61588
 N3002 N 0.91165 0.27516 0.61461
 N3003 N 0.91721 0.29088 0.60315
 C3004 C 0.90317 0.30183 0.59248
 N3005 N 0.88340 0.29653 0.59374
 N3006 N 0.87786 0.28084 0.60518
 C3007 C 0.90887 0.31971 0.58036
 C3008 C 0.92872 0.32676 0.57996
 H3009 H 0.89716 0.24339 0.63616
 H3010 H 0.89688 0.32833 0.57295
 H3011 H 0.85437 0.25490 0.61994
 H3012 H 0.94029 0.31845 0.58836
 C3013 C 0.38108 0.73562 0.63049
 C3014 C 0.37663 0.74494 0.61212
 C3015 C 0.38747 0.76327 0.60532
 N3016 N 0.38382 0.77118 0.58677
 N3017 N 0.39358 0.78775 0.58049
 C3018 C 0.40733 0.79704 0.59256
 N3019 N 0.41094 0.78915 0.61111
 N3020 N 0.40122 0.77257 0.61736
 C3021 C 0.41807 0.81553 0.58606
 C3022 C 0.41534 0.82409 0.56699
 H3023 H 0.36521 0.73853 0.60233
 H3024 H 0.42779 0.82276 0.59694
 H3025 H 0.39287 0.74187 0.63997
 H3026 H 0.40480 0.81690 0.55677
 C3027 C 0.37222 0.23238 1.11140
 C3028 C 0.38952 0.24320 1.11673
 C3029 C 0.39597 0.26126 1.10524
 N3030 N 0.41354 0.27076 1.11008
 N3031 N 0.41930 0.28736 1.10005
 C3032 C 0.40768 0.29512 1.08483
 N3033 N 0.39012 0.28562 1.08000
 N3034 N 0.38439 0.26899 1.09000
 C3035 C 0.41352 0.31382 1.07400
 C3036 C 0.43183 0.32362 1.07799
 H3037 H 0.39845 0.23851 1.12968
 H3038 H 0.40276 0.32008 1.06327
 H3039 H 0.36370 0.23688 1.09811
 H3040 H 0.44198 0.31680 1.08906
 C3041 C 1.13038 1.12377 0.74079
 C3042 C 1.11056 1.12505 0.74764
 C3043 C 1.10408 1.11230 0.76473
 N3044 N 1.08452 1.11256 0.77080
 N3045 N 1.07868 1.10091 0.78616
 C3046 C 1.09217 1.08852 0.79596
 N3047 N 1.11169 1.08824 0.78985
 N3048 N 1.11750 1.09987 0.77453
 C3049 C 1.08626 1.07614 0.81344
 C3050 C 1.06668 1.07679 0.82098
 H3051 H 1.09956 1.13484 0.74013
 H3052 H 1.09799 1.06757 0.82128
 H3053 H 1.14089 1.11358 0.74852
 H3054 H 1.05546 1.08623 0.81331
 C3055 C 1.13270 0.61673 0.24341
 C3056 C 1.11293 0.61768 0.25050
 C3057 C 1.10661 0.60541 0.26791
 N3058 N 1.08714 0.60623 0.27418
 N3059 N 1.08132 0.59531 0.29002
 C3060 C 1.09472 0.58315 0.30017
 N3061 N 1.11417 0.58228 0.29385
 N3062 N 1.11999 0.59318 0.27800
 C3063 C 1.08870 0.57173 0.31822
 C3064 C 1.06914 0.57325 0.32575
 H3065 H 1.10174 0.62734 0.24311
 H3066 H 1.10027 0.56321 0.32636
 H3067 H 1.14355 0.60679 0.25098
 H3068 H 1.05816 0.58261 0.31767
 C3069 C 0.63208 1.12239 0.24233
 C3070 C 0.61263 1.12461 0.24993
 C3071 C 0.60628 1.11198 0.26721
 N3072 N 0.58685 1.11246 0.27366
 N3073 N 0.58120 1.10090 0.28916
 C3074 C 0.59475 1.08841 0.29877
 N3075 N 0.61414 1.08796 0.29233
 N3076 N 0.61977 1.09947 0.27684
 C3077 C 0.58906 1.07616 0.31645
 C3078 C 0.56948 1.07660 0.32398
 H3079 H 0.60188 1.13503 0.24292
 H3080 H 0.60091 1.06786 0.32441
 H3081 H 0.64218 1.11139 0.24949
 H3082 H 0.55811 1.08565 0.31607
 C3083 C 0.62969 0.62875 0.74674
 C3084 C 0.60953 0.62736 0.75252
 C3085 C 0.60399 0.61479 0.77012
 N3086 N 0.58427 0.61236 0.77519
 N3087 N 0.57930 0.60063 0.79080
 C3088 C 0.59384 0.59080 0.80187
 N3089 N 0.61352 0.59321 0.79677
 N3090 N 0.61848 0.60493 0.78120
 C3091 C 0.58874 0.57835 0.81962
 C3092 C 0.56898 0.57712 0.82663
 H3093 H 0.59770 0.63443 0.74344
 H3094 H 0.60104 0.57142 0.82818
 H3095 H 0.64120 0.62099 0.75569
 H3096 H 0.55707 0.58509 0.81839
 C3097 C 0.88728 0.86535 0.73673
 C3098 C 0.88299 0.88365 0.74613
 C3099 C 0.89376 0.89035 0.76420
 N3100 N 0.88949 0.90886 0.77187
 N3101 N 0.89876 0.91512 0.78845
 C3102 C 0.91264 0.90306 0.79803
 N3103 N 0.91693 0.88454 0.79036
 N3104 N 0.90767 0.87829 0.77373
 C3105 C 0.92267 0.90957 0.81662
 C3106 C 0.91911 0.92868 0.82482
 H3107 H 0.87130 0.89362 0.74006
 H3108 H 0.93251 0.89865 0.82412
 H3109 H 0.89949 0.85571 0.74233
 H3110 H 0.90854 0.93887 0.81718
 C3111 C 0.87931 0.36517 0.24363
 C3112 C 0.87759 0.38491 0.25083
 C3113 C 0.88945 0.39132 0.26852
 N3114 N 0.88816 0.41072 0.27510
 N3115 N 0.89873 0.41650 0.29116
 C3116 C 0.91100 0.40311 0.30124
 N3117 N 0.91231 0.38375 0.29463
 N3118 N 0.90177 0.37799 0.27859
 C3119 C 0.92230 0.40899 0.31941
 C3120 C 0.92105 0.42855 0.32713
 H3121 H 0.86765 0.39584 0.24343
 H3122 H 0.93084 0.39728 0.32733
 H3123 H 0.88959 0.35467 0.25125
 H3124 H 0.91172 0.43969 0.31919
 C3125 C 0.38439 0.86730 0.24105
 C3126 C 0.38265 0.88725 0.24766
 C3127 C 0.39365 0.89431 0.26545
 N3128 N 0.39190 0.91396 0.27114
 N3129 N 0.40146 0.92044 0.28750
 C3130 C 0.41309 0.90748 0.29875
 N3131 N 0.41489 0.88786 0.29301
 N3132 N 0.40536 0.88139 0.27665
 C3133 C 0.42318 0.91410 0.31719
 C3134 C 0.42164 0.93401 0.32401
 H3135 H 0.37294 0.89807 0.23979
 H3136 H 0.43110 0.90260 0.32599
 H3137 H 0.39451 0.85684 0.24893
 H3138 H 0.41269 0.94493 0.31539
 C3139 C 0.38557 0.36400 0.74631
 C3140 C 0.38609 0.38410 0.75258
 C3141 C 0.39824 0.39028 0.77004
 N3142 N 0.39820 0.40999 0.77575
 N3143 N 0.40875 0.41572 0.79180
 C3144 C 0.41978 0.40196 0.80273
 N3145 N 0.41993 0.38226 0.79694
 N3146 N 0.40937 0.37653 0.78089
 C3147 C 0.43073 0.40790 0.82103
 C3148 C 0.42962 0.42765 0.82828
 H3149 H 0.37732 0.39563 0.74462
 H3150 H 0.43855 0.39611 0.82957
 H3151 H 0.39459 0.35258 0.75418
 H3152 H 0.42083 0.43887 0.81986
 C3153 C 1.13657 0.88423 1.26041
 C3154 C 1.11761 0.88186 1.25147
 C3155 C 1.11140 0.89360 1.23364
 N3156 N 1.09222 0.89185 1.22641
 N3157 N 1.08640 0.90214 1.21005
 C3158 C 1.09956 0.91455 1.20032
 N3159 N 1.11874 0.91633 1.20758
 N3160 N 1.12455 0.90607 1.22398
 C3161 C 1.09357 0.92520 1.18174
 C3162 C 1.07401 0.92348 1.17385
 H3163 H 1.10679 0.87135 1.25785
 H3164 H 1.10517 0.93338 1.17370
 H3165 H 1.14707 0.89536 1.25450
 H3166 H 1.06299 0.91459 1.18207
 C3167 C 1.12308 0.37344 0.76357
 C3168 C 1.12653 0.39162 0.75337
 C3169 C 1.11440 0.39692 0.73539
 N3170 N 1.11475 0.41609 0.72770
 N3171 N 1.10311 0.42114 0.71197
 C3172 C 1.09066 0.40723 0.70337
 N3173 N 1.09044 0.38802 0.71096
 N3174 N 1.10203 0.38300 0.72671
 C3175 C 1.07809 0.41249 0.68570
 C3176 C 1.07797 0.43211 0.67765
 H3177 H 1.13695 0.40267 0.75948
 H3178 H 1.06993 0.40046 0.67823
 H3179 H 1.11172 0.36310 0.75787
 H3180 H 1.08683 0.44369 0.68507
 C3181 C 0.63184 0.88786 0.76181
 C3182 C 0.61311 0.88376 0.75293
 C3183 C 0.60612 0.89386 0.73440
 N3184 N 0.58732 0.88986 0.72705
 N3185 N 0.58087 0.89848 0.70999
 C3186 C 0.59303 0.91138 0.69964
 N3187 N 0.61182 0.91541 0.70701
 N3188 N 0.61826 0.90682 0.72409
 C3189 C 0.58636 0.92070 0.68060
 C3190 C 0.56704 0.91751 0.67251
 H3191 H 0.60307 0.87272 0.75969
 H3192 H 0.59737 0.92977 0.67266
 H3193 H 0.64152 0.89952 0.75554
 H3194 H 0.55676 0.90743 0.68033
 C3195 C 0.61868 0.37570 1.26679
 C3196 C 0.62574 0.39048 1.25356
 C3197 C 0.61409 0.39543 1.23520
 N3198 N 0.61743 0.41311 1.22514
 N3199 N 0.60637 0.41796 1.20895
 C3200 C 0.59163 0.40528 1.20218
 N3201 N 0.58852 0.38747 1.21206
 N3202 N 0.59948 0.38269 1.22831
 C3203 C 0.57943 0.41048 1.18424
 C3204 C 0.58027 0.42988 1.17570
 H3205 H 0.63917 0.39920 1.25711
 H3206 H 0.57034 0.39872 1.17746
 H3207 H 0.60455 0.36812 1.26325
 H3208 H 0.58962 0.44114 1.18302
 C3209 C 0.87178 1.11792 1.25661
 C3210 C 0.89078 1.12047 1.24805
 C3211 C 0.89676 1.10865 1.23040
 N3212 N 0.91577 1.11029 1.22299
 N3213 N 0.92125 1.09960 1.20710
 C3214 C 0.90793 1.08685 1.19801
 N3215 N 0.88894 1.08524 1.20541
 N3216 N 0.88347 1.09589 1.22130
 C3217 C 0.91357 1.07526 1.18012
 C3218 C 0.93295 1.07643 1.17201
 H3219 H 0.90154 1.13095 1.25455
 H3220 H 0.90190 1.06643 1.17284
 H3221 H 0.86137 1.10703 1.25018
 H3222 H 0.94402 1.08598 1.17937
 C3223 C 0.86671 0.61273 0.76182
 C3224 C 0.88462 0.61681 0.75168
 C3225 C 0.89080 0.60538 0.73397
 N3226 N 0.90904 0.60915 0.72555
 N3227 N 0.91482 0.59915 0.70937
 C3228 C 0.90256 0.58500 0.70096
 N3229 N 0.88429 0.58123 0.70938
 N3230 N 0.87852 0.59120 0.72560
 C3231 C 0.90857 0.57420 0.68277
 C3232 C 0.92753 0.57723 0.67409
 H3233 H 0.89463 0.62865 0.75691
 H3234 H 0.89752 0.56428 0.67600
 H3235 H 0.85702 0.60046 0.75692
 H3236 H 0.93794 0.58759 0.68132
 C3237 C 0.36690 1.11451 0.76127
 C3238 C 0.38461 1.11841 0.75072
 C3239 C 0.39035 1.10676 0.73292
 N3240 N 0.40834 1.11048 0.72397
 N3241 N 0.41374 1.10025 0.70779
 C3242 C 0.40136 1.08589 0.69988
 N3243 N 0.38334 1.08217 0.70883
 N3244 N 0.37795 1.09238 0.72505
 C3245 C 0.40707 1.07481 0.68167
 C3246 C 0.42569 1.07816 0.67242
 H3247 H 0.39478 1.13024 0.75571
 H3248 H 0.39613 1.06449 0.67528
 H3249 H 0.35700 1.10235 0.75650
 H3250 H 0.43597 1.08892 0.67926
 C3251 C 0.36862 0.61769 1.25624
 C3252 C 0.38805 0.61977 1.24857
 C3253 C 0.39450 0.60823 1.23097
 N3254 N 0.41376 0.60988 1.22422
 N3255 N 0.41968 0.59954 1.20828
 C3256 C 0.40656 0.58713 1.19849
 N3257 N 0.38733 0.58546 1.20526
 N3258 N 0.38142 0.59578 1.22120
 C3259 C 0.41266 0.57605 1.18049
 C3260 C 0.43212 0.57775 1.17269
 H3261 H 0.39884 0.62978 1.25572
 H3262 H 0.40120 0.56733 1.17278
 H3263 H 0.35809 0.60734 1.24917
 H3264 H 0.44297 0.58731 1.18036
 C3265 C 1.11282 1.26551 0.87266
 C3266 C 1.11953 1.25210 0.88760
 C3267 C 1.10749 1.23435 0.89340
 N3268 N 1.11217 1.22395 0.91046
 N3269 N 1.10119 1.20796 0.91603
 C3270 C 1.08518 1.20176 0.90473
 N3271 N 1.08061 1.21205 0.88756
 N3272 N 1.09153 1.22813 0.88203
 C3273 C 1.07336 1.18384 0.91056
 C3274 C 1.07622 1.17465 0.92926
 H3275 H 1.13341 1.25500 0.89584
 H3276 H 1.06309 1.17749 0.89961
 H3277 H 1.09840 1.26277 0.86526
 H3278 H 1.08674 1.18159 0.93968
 C3279 C 1.11178 0.76514 0.36683
 C3280 C 1.11514 0.75493 0.38498
 C3281 C 1.10287 0.73750 0.39135
 N3282 N 1.10572 0.72940 0.40992
 N3283 N 1.09506 0.71334 0.41589
 C3284 C 1.08117 0.70474 0.40352
 N3285 N 1.07829 0.71284 0.38493
 N3286 N 1.08892 0.72898 0.37896
 C3287 C 1.07001 0.68644 0.40973
 C3288 C 1.07252 0.67811 0.42890
 H3289 H 1.12697 0.75987 0.39512
 H3290 H 1.06072 0.67897 0.39864
 H3291 H 1.09940 0.76043 0.35718
 H3292 H 1.08234 0.68588 0.43939
 C3293 C 0.61557 1.26470 0.37262
 C3294 C 0.62324 1.25118 0.38701
 C3295 C 0.61160 1.23331 0.39322
 N3296 N 0.61681 1.22301 0.41021
 N3297 N 0.60602 1.20705 0.41621
 C3298 C 0.58969 1.20079 0.40540
 N3299 N 0.58463 1.21095 0.38829
 N3300 N 0.59535 1.22698 0.38235
 C3301 C 0.57782 1.18312 0.41171
 C3302 C 0.58077 1.17410 0.43048
 H3303 H 0.63748 1.25413 0.39462
 H3304 H 0.56712 1.17700 0.40105
 H3305 H 0.60078 1.26191 0.36599
 H3306 H 0.59186 1.18067 0.44056
 C3307 C 0.61285 0.76505 0.86563
 C3308 C 0.61579 0.75603 0.88438
 C3309 C 0.60370 0.73872 0.89130
 N3310 N 0.60640 0.73144 0.91020
 N3311 N 0.59593 0.71544 0.91665
 C3312 C 0.58239 0.70611 0.90442
 N3313 N 0.57963 0.71342 0.88552
 N3314 N 0.59007 0.72948 0.87907
 C3315 C 0.57158 0.68780 0.91109
 C3316 C 0.57454 0.67975 0.93030
 H3317 H 0.62716 0.76193 0.89452
 H3318 H 0.56231 0.67997 0.90022
 H3319 H 0.60092 0.75969 0.85580
 H3320 H 0.58451 0.68766 0.94054
 C3321 C 0.89048 1.25645 1.13627
 C3322 C 0.89041 1.25053 1.11636
 C3323 C 0.90239 1.23312 1.10952
 N3324 N 0.90145 1.22771 1.09003
 N3325 N 0.91176 1.21163 1.08368
 C3326 C 0.92341 1.20037 1.09657
 N3327 N 0.92447 1.20586 1.11604
 N3328 N 0.91415 1.22195 1.12240
 C3329 C 0.93405 1.18200 1.08993
 C3330 C 0.93176 1.17490 1.07048
 H3331 H 0.88114 1.25865 1.10543
 H3332 H 0.94257 1.17324 1.10099
 H3333 H 0.89999 1.24844 1.14712
 H3334 H 0.92224 1.18346 1.06004
 C3335 C 0.86691 0.76069 0.61540
 C3336 C 0.88559 0.75114 0.61836
 C3337 C 0.89177 0.73346 0.60661
 N3338 N 0.91068 0.72559 0.60901
 N3339 N 0.91647 0.70948 0.59861
 C3340 C 0.90354 0.70061 0.58542
 N3341 N 0.88461 0.70847 0.58301
 N3342 N 0.87884 0.72462 0.59338
 C3343 C 0.90958 0.68242 0.57431
 C3344 C 0.92899 0.67409 0.57638
 H3345 H 0.89619 0.75689 0.62937
 H3346 H 0.89819 0.67508 0.56519
 H3347 H 0.85661 0.75526 0.60394
 H3348 H 0.93975 0.68155 0.58618
 C3349 C 0.37971 1.25903 0.63606
 C3350 C 0.37946 1.25293 0.61617
 C3351 C 0.39214 1.23577 0.60955
 N3352 N 0.39234 1.23056 0.58999
 N3353 N 0.40361 1.21498 0.58395
 C3354 C 0.41514 1.20401 0.59723
 N3355 N 0.41498 1.20926 0.61677
 N3356 N 0.40373 1.22485 0.62280
 C3357 C 0.42700 1.18617 0.59093
 C3358 C 0.42695 1.17986 0.57110
 H3359 H 0.37010 1.26091 0.60519
 H3360 H 0.43470 1.17717 0.60238
 H3361 H 0.38947 1.25093 0.64664
 H3362 H 0.41844 1.18880 0.56014
 C3363 C 0.38238 0.75933 1.13281
 C3364 C 0.38095 0.75239 1.11324
 C3365 C 0.39333 0.73509 1.10657
 N3366 N 0.39179 0.72858 1.08745
 N3367 N 0.40272 0.71275 1.08141
 C3368 C 0.41562 0.70286 1.09427
 N3369 N 0.41721 0.70943 1.11335
 N3370 N 0.40630 0.72525 1.11937
 C3371 C 0.42717 0.68482 1.08810
 C3372 C 0.42511 0.67685 1.06897
 H3373 H 0.37067 0.75965 1.10259
 H3374 H 0.43638 0.67704 1.09931
 H3375 H 0.39291 0.75186 1.14310
 H3376 H 0.41504 0.68452 1.05837
 C3377 C 0.88853 0.73592 0.86426
 C3378 C 0.88520 0.74494 0.88269
 C3379 C 0.89593 0.76326 0.88923
 N3380 N 0.89242 0.77069 0.90770
 N3381 N 0.90159 0.78754 0.91380
 C3382 C 0.91458 0.79763 0.90162
 N3383 N 0.91812 0.79018 0.88314
 N3384 N 0.90897 0.77329 0.87704
 C3385 C 0.92441 0.81656 0.90795
 C3386 C 0.92135 0.82468 0.92690
 H3387 H 0.87424 0.73846 0.89285
 H3388 H 0.93360 0.82442 0.89706
 H3389 H 0.90003 0.74191 0.85438
 H3390 H 0.91135 0.81675 0.93708
 C3391 C 0.88403 0.23327 0.36964
 C3392 C 0.87861 0.24397 0.38672
 C3393 C 0.88973 0.26230 0.39333
 N3394 N 0.88428 0.27187 0.41035
 N3395 N 0.89408 0.28846 0.41641
 C3396 C 0.90975 0.29616 0.40568
 N3397 N 0.91519 0.28659 0.38866
 N3398 N 0.90541 0.27000 0.38262
 C3399 C 0.92072 0.31470 0.41200
 C3400 C 0.91604 0.32507 0.42955
 H3401 H 0.86587 0.23885 0.39550
 H3402 H 0.93250 0.32024 0.40227
 H3403 H 0.89693 0.23840 0.36107
 H3404 H 0.90397 0.31898 0.43869
 C3405 C 0.38079 0.73238 0.36708
 C3406 C 0.37489 0.74452 0.38304
 C3407 C 0.38643 0.76286 0.38890
 N3408 N 0.38029 0.77407 0.40465
 N3409 N 0.39045 0.79067 0.41003
 C3410 C 0.40718 0.79676 0.39988
 N3411 N 0.41331 0.78555 0.38413
 N3412 N 0.40316 0.76894 0.37875
 C3413 C 0.41854 0.81526 0.40561
 C3414 C 0.41279 0.82711 0.42186
 H3415 H 0.36150 0.74063 0.39148
 H3416 H 0.43149 0.81946 0.39672
 H3417 H 0.39432 0.73653 0.35896
 H3418 H 0.39971 0.82214 0.43026
 C3419 C 0.38947 0.23639 0.86608
 C3420 C 0.38558 0.24618 0.88406
 C3421 C 0.39699 0.26410 0.89089
 N3422 N 0.39276 0.27223 0.90894
 N3423 N 0.40265 0.28856 0.91537
 C3424 C 0.41716 0.29746 0.90399
 N3425 N 0.42141 0.28933 0.88593
 N3426 N 0.41153 0.27295 0.87950
 C3427 C 0.42795 0.31582 0.91078
 C3428 C 0.42410 0.32461 0.92932
 H3429 H 0.37372 0.24054 0.89368
 H3430 H 0.43859 0.32271 0.90058
 H3431 H 0.40165 0.24173 0.85665
 H3432 H 0.41283 0.31753 0.93879
 C3433 C 1.11584 0.73026 1.13143
 C3434 C 1.12145 0.74250 1.11519
 C3435 C 1.10945 0.76052 1.10877
 N3436 N 1.11492 0.77134 1.09228
 N3437 N 1.10434 0.78771 1.08637
 C3438 C 1.08787 0.79395 1.09673
 N3439 N 1.08240 0.78314 1.11324
 N3440 N 1.09297 0.76674 1.11914
 C3441 C 1.07617 0.81226 1.09048
 C3442 C 1.08092 0.82331 1.07315
 H3443 H 1.13490 0.73884 1.10680
 H3444 H 1.06388 0.81699 1.09993
 H3445 H 1.10211 0.73400 1.13937
 H3446 H 1.09333 0.81776 1.06421
 C3447 C 1.12711 0.23138 0.61746
 C3448 C 1.10964 0.24214 0.62236
 C3449 C 1.10349 0.26057 0.61098
 N3450 N 1.08584 0.27020 0.61519
 N3451 N 1.08032 0.28699 0.60509
 C3452 C 1.09224 0.29480 0.59043
 N3453 N 1.10988 0.28517 0.58624
 N3454 N 1.11538 0.26837 0.59629
 C3455 C 1.08662 0.31364 0.57947
 C3456 C 1.06841 0.32377 0.58302
 H3457 H 1.10032 0.23711 0.63470
 H3458 H 1.09745 0.31982 0.56903
 H3459 H 1.13591 0.23657 0.60479
 H3460 H 1.05825 0.31724 0.59398
 C3461 C 0.62708 0.73313 0.61707
 C3462 C 0.60917 0.74376 0.62041
 C3463 C 0.60343 0.76157 0.60785
 N3464 N 0.58478 0.77011 0.60948
 N3465 N 0.57949 0.78615 0.59815
 C3466 C 0.59265 0.79431 0.58475
 N3467 N 0.61134 0.78583 0.58319
 N3468 N 0.61660 0.76975 0.59447
 C3469 C 0.58716 0.81244 0.57252
 C3470 C 0.56767 0.82074 0.57296
 H3471 H 0.59899 0.73870 0.63204
 H3472 H 0.59890 0.81973 0.56386
 H3473 H 0.63670 0.73793 0.60486
 H3474 H 0.55648 0.81309 0.58209
 C3475 C 0.63311 0.23200 1.11800
 C3476 C 0.61568 0.24318 1.12194
 C3477 C 0.61044 0.26158 1.11003
 N3478 N 0.59239 0.27107 1.11263
 N3479 N 0.58759 0.28772 1.10197
 C3480 C 0.60067 0.29556 1.08832
 N3481 N 0.61875 0.28611 1.08577
 N3482 N 0.62352 0.26942 1.09638
 C3483 C 0.59572 0.31431 1.07681
 C3484 C 0.57683 0.32372 1.07845
 H3485 H 0.60560 0.23829 1.13373
 H3486 H 0.60740 0.32105 1.06767
 H3487 H 0.64268 0.23677 1.10575
 H3488 H 0.56572 0.31651 1.08801
 C3489 C 1.26419 1.13269 0.88408
 C3490 C 1.25365 1.11491 0.87971
 C3491 C 1.23563 1.10834 0.89086
 N3492 N 1.22669 1.09039 0.88642
 N3493 N 1.21025 1.08423 0.89615
 C3494 C 1.20207 1.09582 0.91070
 N3495 N 1.21102 1.11379 0.91516
 N3496 N 1.22750 1.11994 0.90544
 C3497 C 1.18363 1.08936 0.92130
 C3498 C 1.17410 1.07089 0.91724
 H3499 H 1.25877 1.10529 0.86776
 H3500 H 1.17727 1.09978 0.93193
 H3501 H 1.25934 1.14206 0.89635
 H3502 H 1.18067 1.06123 0.90599
 C3503 C 1.25611 0.62236 0.36680
 C3504 C 1.24886 0.62288 0.38627
 C3505 C 1.23107 0.61058 0.39216
 N3506 N 1.22501 0.60990 0.41149
 N3507 N 1.20914 0.59863 0.41686
 C3508 C 1.19871 0.58757 0.40314
 N3509 N 1.20476 0.58827 0.38382
 N3510 N 1.22063 0.59950 0.37846
 C3511 C 1.18067 0.57554 0.40874
 C3512 C 1.17353 0.57513 0.42829
 H3513 H 1.25675 0.63168 0.39748
 H3514 H 1.17222 0.56802 0.39702
 H3515 H 1.24836 0.61293 0.35600
 H3516 H 1.18192 0.58345 0.43953
 C3517 C 0.75911 1.12225 0.36703
 C3518 C 0.75180 1.12263 0.38648
 C3519 C 0.73389 1.11040 0.39216
 N3520 N 0.72801 1.10919 0.41153
 N3521 N 0.71208 1.09790 0.41671
 C3522 C 0.70143 1.08736 0.40275
 N3523 N 0.70730 1.08862 0.38340
 N3524 N 0.72322 1.09986 0.37823
 C3525 C 0.68340 1.07525 0.40814
 C3526 C 0.67670 1.07383 0.42782
 H3527 H 0.75977 1.13118 0.39783
 H3528 H 0.67469 1.06836 0.39622
 H3529 H 0.75133 1.11298 0.35611
 H3530 H 0.68538 1.08151 0.43929
 C3531 C 0.76437 0.63324 0.88514
 C3532 C 0.75434 0.61491 0.88229
 C3533 C 0.73673 0.60896 0.89427
 N3534 N 0.72842 0.59032 0.89188
 N3535 N 0.71231 0.58475 0.90242
 C3536 C 0.70388 0.59762 0.91575
 N3537 N 0.71219 0.61628 0.91815
 N3538 N 0.72835 0.62184 0.90763
 C3539 C 0.68564 0.59182 0.92695
 C3540 C 0.67693 0.57266 0.92482
 H3541 H 0.75964 0.60442 0.87114
 H3542 H 0.67859 0.60322 0.93611
 H3543 H 0.75945 0.64339 0.89677
 H3544 H 0.68421 0.56192 0.91502
 C3545 C 1.27106 0.88265 1.12649
 C3546 C 1.26031 0.87731 1.10932
 C3547 C 1.24195 0.88863 1.10295
 N3548 N 1.23241 0.88414 1.08549
 N3549 N 1.21567 0.89419 1.07979
 C3550 C 1.20784 0.90907 1.09138
 N3551 N 1.21737 0.91352 1.10884
 N3552 N 1.23411 0.90352 1.11450
 C3553 C 1.18912 0.92007 1.08561
 C3554 C 1.17915 0.91670 1.06744
 H3555 H 1.26535 0.86465 1.10042
 H3556 H 1.18301 0.93055 1.09631
 H3557 H 1.26610 0.89565 1.13498
 H3558 H 1.18570 0.90578 1.05735
 C3559 C 1.27141 0.38567 0.63056
 C3560 C 1.26000 0.38017 0.61381
 C3561 C 1.24173 0.39171 0.60741
 N3562 N 1.23122 0.38617 0.59080
 N3563 N 1.21451 0.39626 0.58507
 C3564 C 1.20762 0.41227 0.59576
 N3565 N 1.21814 0.41782 0.61236
 N3566 N 1.23486 0.40775 0.61807
 C3567 C 1.18888 0.42334 0.58992
 C3568 C 1.17762 0.41831 0.57286
 H3569 H 1.26436 0.36699 0.60531
 H3570 H 1.18380 0.43525 0.59967
 H3571 H 1.26702 0.39901 0.63883
 H3572 H 1.18322 0.40604 0.56374
 C3573 C 0.76156 0.88388 0.63416
 C3574 C 0.75186 0.88020 0.61597
 C3575 C 0.73359 0.89135 0.60944
 N3576 N 0.72565 0.88807 0.59098
 N3577 N 0.70889 0.89777 0.58489
 C3578 C 0.69943 0.91111 0.59704
 N3579 N 0.70738 0.91441 0.61552
 N3580 N 0.72418 0.90473 0.62161
 C3581 C 0.68061 0.92147 0.59069
 C3582 C 0.67225 0.91876 0.57164
 H3583 H 0.75787 0.86890 0.60600
 H3584 H 0.67301 0.93068 0.60160
 H3585 H 0.75598 0.89572 0.64379
 H3586 H 0.68012 0.90891 0.56140
 C3587 C 0.77262 0.36910 1.11678
 C3588 C 0.76120 0.38621 1.12151
 C3589 C 0.74320 0.39235 1.10952
 N3590 N 0.73316 0.40980 1.11374
 N3591 N 0.71677 0.41539 1.10315
 C3592 C 0.70974 0.40372 1.08795
 N3593 N 0.71976 0.38626 1.08375
 N3594 N 0.73618 0.38070 1.09431
 C3595 C 0.69132 0.40951 1.07639
 C3596 C 0.68108 0.42774 1.07985
 H3597 H 0.76550 0.39532 1.13423
 H3598 H 0.68563 0.39890 1.06551
 H3599 H 0.76843 0.36036 1.10376
 H3600 H 0.68733 0.43774 1.09109
 C3601 C 0.74546 1.11497 1.13504
 C3602 C 0.75195 1.11623 1.11535
 C3603 C 0.76902 1.10394 1.10842
 N3604 N 0.77456 1.10490 1.08896
 N3605 N 0.79022 1.09401 1.08259
 C3606 C 0.80087 1.08175 1.09545
 N3607 N 0.79528 1.08072 1.11488
 N3608 N 0.77961 1.09159 1.12124
 C3609 C 0.81882 1.07050 1.08893
 C3610 C 0.82575 1.07198 1.06937
 H3611 H 0.74423 1.12617 1.10469
 H3612 H 0.82747 1.06222 1.10024
 H3613 H 0.75292 1.10458 1.14549
 H3614 H 0.81722 1.08115 1.05860
 C3615 C 0.73885 0.61542 0.63344
 C3616 C 0.74589 0.61747 0.61398
 C3617 C 0.76340 0.60574 0.60709
 N3618 N 0.76954 0.60756 0.58786
 N3619 N 0.78562 0.59722 0.58158
 C3620 C 0.79610 0.58468 0.59432
 N3621 N 0.78991 0.58281 0.61351
 N3622 N 0.77383 0.59312 0.61978
 C3623 C 0.81437 0.57384 0.58795
 C3624 C 0.82179 0.57574 0.56858
 H3625 H 0.73840 0.62778 0.60349
 H3626 H 0.82273 0.56530 0.59926
 H3627 H 0.74615 0.60473 0.64370
 H3628 H 0.81357 0.58521 0.55783
 C3629 C 0.24280 1.11823 0.63203
 C3630 C 0.24956 1.12023 0.61248
 C3631 C 0.26707 1.10859 0.60549
 N3632 N 0.27301 1.11038 0.58620
 N3633 N 0.28903 1.10005 0.57980
 C3634 C 0.29966 1.08756 0.59247
 N3635 N 0.29367 1.08573 0.61172
 N3636 N 0.27765 1.09603 0.61812
 C3637 C 0.31785 1.07676 0.58593
 C3638 C 0.32515 1.07886 0.56655
 H3639 H 0.24181 1.13033 0.60199
 H3640 H 0.32629 1.06810 0.59712
 H3641 H 0.25038 1.10776 0.64231
 H3642 H 0.31690 1.08848 0.55594
 C3643 C 0.24520 0.62561 1.13455
 C3644 C 0.25089 0.62483 1.11459
 C3645 C 0.26849 0.61244 1.10856
 N3646 N 0.27308 0.61048 1.08895
 N3647 N 0.28875 0.59902 1.08348
 C3648 C 0.30039 0.58903 1.09740
 N3649 N 0.29579 0.59099 1.11699
 N3650 N 0.28013 0.60243 1.12245
 C3651 C 0.31819 0.57684 1.09168
 C3652 C 0.32414 0.57534 1.07182
 H3653 H 0.24182 0.63253 1.10318
 H3654 H 0.32753 0.57018 1.10349
 H3655 H 0.25409 0.61727 1.14567
 H3656 H 0.31502 0.58295 1.06037
 C3657 C 0.73777 0.86763 0.88565
 C3658 C 0.74685 0.88655 0.88316
 C3659 C 0.76429 0.89288 0.89540
 N3660 N 0.77151 0.91207 0.89346
 N3661 N 0.78748 0.91800 0.90421
 C3662 C 0.79685 0.90496 0.91730
 N3663 N 0.78962 0.88576 0.91926
 N3664 N 0.77359 0.87983 0.90854
 C3665 C 0.81507 0.91112 0.92855
 C3666 C 0.82282 0.93076 0.92673
 H3667 H 0.74086 0.89725 0.87214
 H3668 H 0.82304 0.89962 0.93731
 H3669 H 0.74332 0.85725 0.89720
 H3670 H 0.81470 0.94168 0.91733
 C3671 C 0.73963 0.36812 0.38059
 C3672 C 0.74773 0.38759 0.37937
 C3673 C 0.76515 0.39352 0.39199
 N3674 N 0.77161 0.41307 0.39190
 N3675 N 0.78723 0.41859 0.40338
 C3676 C 0.79699 0.40479 0.41542
 N3677 N 0.79053 0.38523 0.41550
 N3678 N 0.77488 0.37971 0.40404
 C3679 C 0.81477 0.41056 0.42761
 C3680 C 0.82201 0.43044 0.42748
 H3681 H 0.74074 0.39893 0.36960
 H3682 H 0.82297 0.39868 0.43567
 H3683 H 0.74635 0.35711 0.39092
 H3684 H 0.81384 0.44182 0.41867
 C3685 C 0.23496 0.86914 0.38826
 C3686 C 0.24340 0.88817 0.38450
 C3687 C 0.26114 0.89560 0.39549
 N3688 N 0.26795 0.91473 0.39192
 N3689 N 0.28442 0.92155 0.40130
 C3690 C 0.29470 0.90944 0.41456
 N3691 N 0.28787 0.89032 0.41816
 N3692 N 0.27136 0.88352 0.40882
 C3693 C 0.31329 0.91639 0.42448
 C3694 C 0.32083 0.93602 0.42166
 H3695 H 0.23689 0.89807 0.37305
 H3696 H 0.32156 0.90527 0.43342
 H3697 H 0.24078 0.85964 0.40039
 H3698 H 0.31269 0.94647 0.41177
 C3699 C 0.23894 0.36694 0.88360
 C3700 C 0.24839 0.38567 0.88104
 C3701 C 0.26619 0.39140 0.89325
 N3702 N 0.27399 0.41039 0.89158
 N3703 N 0.29003 0.41575 0.90257
 C3704 C 0.29889 0.40235 0.91566
 N3705 N 0.29110 0.38335 0.91732
 N3706 N 0.27503 0.37799 0.90636
 C3707 C 0.31704 0.40796 0.92744
 C3708 C 0.32532 0.42740 0.92601
 H3709 H 0.24233 0.39661 0.87028
 H3710 H 0.32447 0.39628 0.93645
 H3711 H 0.24477 0.35635 0.89483
 H3712 H 0.31775 0.43850 0.91636
   
