data_POSCAR
  _audit_creation_date              2014-09-24
  _audit_creation_method            'ToBaCCo'
  _symmetry_space_group_name_H-M    'P1'
  _symmetry_Int_Tables_number       1
  _symmetry_cell_setting            triclinic
  loop_
  _symmetry_equiv_pos_as_xyz
 x,y,z
_cell_length_a 72.0360
_cell_length_b 71.9538
_cell_length_c 71.7823
_cell_angle_alpha 90.019000
_cell_angle_beta 89.973100
_cell_angle_gamma 90.020400
loop_
  _atom_site_label
  _atom_site_type_symbol
  _atom_site_fract_x
  _atom_site_fract_y
  _atom_site_fract_z
C1 C 0.35964 0.33747 0.33620
 N2 N 0.35180 0.35280 0.32852
 C3 C 0.33641 0.36040 0.33632
 N4 N 0.32878 0.35258 0.35173
 C5 C 0.33662 0.33725 0.35942
 N6 N 0.35201 0.32966 0.35162
 C7 C 0.36011 0.83706 -0.16420
 N8 N 0.35211 0.85224 -0.17203
 C9 C 0.33664 0.85976 -0.16429
 N10 N 0.32910 0.85202 -0.14880
 C11 C 0.33710 0.83684 -0.14097
 N12 N 0.35257 0.82933 -0.14871
 C13 C 0.85959 0.33721 -0.16396
 N14 N 0.85192 0.32938 -0.14858
 C15 C 0.83658 0.33703 -0.14073
 N16 N 0.82884 0.35246 -0.14834
 C17 C 0.83651 0.36029 -0.16372
 N18 N 0.85185 0.35264 -0.17156
 C19 C 0.86008 0.83660 0.33690
 N20 N 0.85225 0.85187 0.32908
 C21 C 0.83684 0.85953 0.33679
 N22 N 0.82919 0.85184 0.35225
 C23 C 0.83700 0.83657 0.36007
 N24 N 0.85242 0.82891 0.35237
 C25 C 0.64085 0.66369 0.33586
 N26 N 0.64854 0.64824 0.32823
 C27 C 0.66375 0.64043 0.33615
 N28 N 0.67136 0.64814 0.35162
 C29 C 0.66368 0.66359 0.35925
 N30 N 0.64846 0.67140 0.35133
 C31 C 0.63997 0.16369 -0.16394
 N32 N 0.64766 0.14827 -0.17162
 C33 C 0.66292 0.14046 -0.16378
 N34 N 0.67056 0.14815 -0.14831
 C35 C 0.66288 0.16357 -0.14062
 N36 N 0.64762 0.17137 -0.14847
 C37 C 0.14060 0.66355 -0.16405
 N38 N 0.14827 0.67133 -0.14865
 C39 C 0.16349 0.66354 -0.14072
 N40 N 0.17111 0.64802 -0.14828
 C41 C 0.16345 0.64023 -0.16369
 N42 N 0.14823 0.64804 -0.17161
 C43 C 0.14062 0.16349 0.33616
 N44 N 0.14840 0.14807 0.32859
 C45 C 0.16367 0.14037 0.33654
 N46 N 0.17122 0.14819 0.35199
 C47 C 0.16344 0.16362 0.35956
 N48 N 0.14818 0.17131 0.35161
 C49 C 0.64026 0.33652 0.66356
 N50 N 0.64825 0.35180 0.67122
 C51 C 0.66369 0.35926 0.66339
 N52 N 0.67124 0.35137 0.64798
 C53 C 0.66326 0.33608 0.64032
 N54 N 0.64781 0.32863 0.64814
 C55 C 0.63979 0.83692 1.16345
 N56 N 0.64748 0.82907 1.14809
 C57 C 0.66292 0.83664 1.14034
 N58 N 0.67073 0.85200 1.14802
 C59 C 0.66304 0.85986 1.16339
 N60 N 0.64760 0.85228 1.17113
 C61 C 0.13959 0.33627 1.16363
 N62 N 0.14732 0.32845 1.14827
 C63 C 0.16267 0.33614 1.14046
 N64 N 0.17036 0.35159 1.14808
 C65 C 0.16263 0.35942 1.16344
 N66 N 0.14729 0.35173 1.17125
 C67 C 0.13998 0.83701 0.66332
 N68 N 0.14780 0.85239 0.67096
 C69 C 0.16322 0.85995 0.66318
 N70 N 0.17090 0.85205 0.64783
 C71 C 0.16309 0.83668 0.64019
 N72 N 0.14766 0.82912 0.64797
 C73 C 0.35937 0.66324 0.66413
 N74 N 0.35177 0.67096 0.64866
 C75 C 0.33647 0.66324 0.64081
 N76 N 0.32869 0.64786 0.64850
 C77 C 0.33628 0.64014 0.66397
 N78 N 0.35158 0.64787 0.67181
 C79 C 0.35990 0.16357 1.16448
 N80 N 0.35225 0.17124 1.14902
 C81 C 0.33690 0.16350 1.14126
 N82 N 0.32914 0.14816 1.14904
 C83 C 0.33679 0.14050 1.16451
 N84 N 0.35213 0.14824 1.17226
 C85 C 0.85935 0.66311 1.16411
 N86 N 0.85172 0.67088 1.14869
 C87 C 0.83645 0.66314 1.14080
 N88 N 0.82874 0.64768 1.14840
 C89 C 0.83637 0.63991 1.16382
 N90 N 0.85164 0.64766 1.17171
 C91 C 0.85985 0.16326 0.66384
 N92 N 0.85210 0.14796 0.67171
 C93 C 0.83669 0.14024 0.66408
 N94 N 0.82896 0.14788 0.64864
 C95 C 0.83670 0.16317 0.64077
 N96 N 0.85212 0.17090 0.64840
 C97 C 0.33646 0.35980 0.66419
 N98 N 0.35180 0.35215 0.67202
 C99 C 0.35962 0.33680 0.66434
 N100 N 0.35203 0.32902 0.64889
 C101 C 0.33669 0.33667 0.64106
 N102 N 0.32887 0.35202 0.64874
 C103 C 0.33671 0.86052 0.16350
 N104 N 0.32900 0.85266 0.14815
 C105 C 0.33675 0.83725 0.14050
 N106 N 0.35213 0.82963 0.14828
 C107 C 0.35984 0.83749 0.16362
 N108 N 0.35209 0.85289 0.17127
 C109 C 0.83739 0.35924 0.16362
 N110 N 0.85269 0.35147 0.17141
 C111 C 0.86033 0.33602 0.16374
 N112 N 0.85259 0.32828 0.14835
 C113 C 0.83729 0.33604 0.14056
 N114 N 0.82965 0.35149 0.14823
 C115 C 0.83659 0.86059 0.66389
 N116 N 0.85208 0.85299 0.67148
 C117 C 0.85971 0.83754 0.66380
 N118 N 0.85177 0.82961 0.64860
 C119 C 0.83628 0.83721 0.64101
 N120 N 0.82866 0.85266 0.64870
 C121 C 0.66279 0.63967 0.66353
 N122 N 0.64751 0.64738 0.67146
 C123 C 0.63976 0.66280 0.66388
 N124 N 0.64735 0.67060 0.64844
 C125 C 0.66263 0.66289 0.64051
 N126 N 0.67038 0.64747 0.64810
 C127 C 0.66298 0.13974 0.16308
 N128 N 0.67065 0.14756 0.14770
 C129 C 0.66296 0.16302 0.14011
 N130 N 0.64766 0.17073 0.14799
 C131 C 0.63998 0.16292 0.16337
 N132 N 0.64768 0.14746 0.17096
 C133 C 0.16249 0.64075 0.16296
 N134 N 0.14713 0.64845 0.17072
 C135 C 0.13945 0.66387 0.16306
 N136 N 0.14720 0.67167 0.14771
 C137 C 0.16257 0.66398 0.13994
 N138 N 0.17025 0.64856 0.14760
 C139 C 0.16340 0.13986 0.66335
 N140 N 0.14805 0.14751 0.67118
 C141 C 0.14031 0.16293 0.66356
 N142 N 0.14799 0.17076 0.64819
 C143 C 0.16334 0.16311 0.64035
 N144 N 0.17108 0.14769 0.64797
 C145 C 0.33698 0.64041 0.33579
 N146 N 0.35241 0.64814 0.32817
 C147 C 0.36018 0.66339 0.33610
 N148 N 0.35245 0.67100 0.35157
 C149 C 0.33703 0.66328 0.35918
 N150 N 0.32926 0.64802 0.35126
 C151 C 0.33695 0.13912 0.83679
 N152 N 0.32927 0.14679 0.85224
 C153 C 0.33699 0.16215 0.86002
 N154 N 0.35232 0.16992 0.85226
 C155 C 0.36001 0.16225 0.83680
 N156 N 0.35228 0.14689 0.82903
 C157 C 0.83719 0.64060 0.83621
 N158 N 0.85249 0.64834 0.82839
 C159 C 0.86028 0.66369 0.83612
 N160 N 0.85267 0.67137 0.85161
 C161 C 0.83736 0.66363 0.85944
 N162 N 0.82958 0.64828 0.85171
 C163 C 0.83714 0.13936 0.33620
 N164 N 0.85262 0.14699 0.32861
 C165 C 0.86041 0.16227 0.33648
 N166 N 0.85263 0.16999 0.35188
 C167 C 0.83715 0.16235 0.35947
 N168 N 0.82937 0.14707 0.35159
 C169 C 0.66373 0.35948 0.33637
 N170 N 0.67136 0.35151 0.35169
 C171 C 0.66349 0.33613 0.35926
 N172 N 0.64806 0.32865 0.35144
 C173 C 0.64042 0.33661 0.33612
 N174 N 0.64829 0.35199 0.32855
 C175 C 0.66342 0.86028 0.83678
 N176 N 0.67118 0.85230 0.85203
 C177 C 0.66344 0.83685 0.85959
 N178 N 0.64801 0.82929 0.85181
 C179 C 0.64025 0.83726 0.83656
 N180 N 0.64799 0.85272 0.82901
 C181 C 0.16280 0.35916 0.83704
 N182 N 0.17052 0.35119 0.85232
 C183 C 0.16278 0.33572 0.85984
 N184 N 0.14739 0.32815 0.85201
 C185 C 0.13967 0.33611 0.83673
 N186 N 0.14741 0.35158 0.82921
 C187 C 0.16351 0.86013 0.33663
 N188 N 0.14806 0.85261 0.32887
 C189 C 0.14027 0.83718 0.33644
 N190 N 0.14801 0.82920 0.35170
 C191 C 0.16346 0.83671 0.35946
 N192 N 0.17124 0.85214 0.35189
 O193 O 0.25224 1.01913 0.22692
 O194 O 0.22665 0.98277 0.25236
 O195 O 0.22665 1.01901 0.25250
 O196 O 0.25219 0.98288 0.22672
 O197 O 0.27387 0.98276 0.24852
 O198 O 0.24833 1.01891 0.27431
 O199 O 0.24833 0.98267 0.27416
 O200 O 0.27392 1.01901 0.24873
 Cu201 Cu 0.23724 1.00096 0.23743
 Cu202 Cu 0.26330 1.00083 0.26363
 C203 C 0.26737 1.02525 0.23357
 C204 C 0.23320 0.97654 0.26752
 C205 C 0.23321 1.02511 0.26772
 C206 C 0.26730 0.97668 0.23330
 O207 O 0.22572 0.48185 0.75282
 O208 O 0.25128 0.51805 0.72714
 O209 O 0.25127 0.48182 0.72720
 O210 O 0.22571 0.51810 0.75274
 O211 O 0.24739 0.51816 0.77454
 O212 O 0.27296 0.48187 0.74899
 O213 O 0.27296 0.51811 0.74895
 O214 O 0.24741 0.48191 0.77462
 Cu215 Cu 0.23631 0.49995 0.73778
 Cu216 Cu 0.26237 0.50002 0.76398
 C217 C 0.23229 0.47572 0.76801
 C218 C 0.26641 0.52423 0.73374
 C219 C 0.26640 0.47568 0.73381
 C220 C 0.23227 0.52430 0.76792
 O221 O 0.72624 0.01742 0.24751
 O222 O 0.75181 -0.01873 0.27315
 O223 O 0.75190 0.01751 0.27299
 O224 O 0.72620 -0.01882 0.24761
 O225 O 0.74783 -0.01893 0.22574
 O226 O 0.77351 0.01739 0.25111
 O227 O 0.77344 -0.01886 0.25128
 O228 O 0.74785 0.01732 0.22562
 Cu229 Cu 0.73686 -0.00064 0.26252
 Cu230 Cu 0.76284 -0.00078 0.23623
 C231 C 0.73276 0.02352 0.23227
 C232 C 0.76691 -0.02494 0.26652
 C233 C 0.76701 0.02363 0.26630
 C234 C 0.73271 -0.02504 0.23242
 O235 O 0.72675 0.51780 0.74802
 O236 O 0.75246 0.48182 0.77377
 O237 O 0.75235 0.51807 0.77357
 O238 O 0.72696 0.48156 0.74813
 O239 O 0.74866 0.48158 0.72633
 O240 O 0.77403 0.51806 0.75175
 O241 O 0.77416 0.48181 0.75196
 O242 O 0.74844 0.51782 0.72620
 Cu243 Cu 0.73744 0.49982 0.76307
 Cu244 Cu 0.76351 0.49982 0.73686
 C245 C 0.73328 0.52393 0.73279
 C246 C 0.76760 0.47568 0.76718
 C247 C 0.76745 0.52427 0.76692
 C248 C 0.73357 0.47536 0.73297
 O249 O 0.22576 0.51849 0.24747
 O250 O 0.25138 0.48234 0.27310
 O251 O 0.25150 0.51859 0.27288
 O252 O 0.22569 0.48225 0.24763
 O253 O 0.24726 0.48210 0.22569
 O254 O 0.27306 0.51841 0.25094
 O255 O 0.27294 0.48217 0.25116
 O256 O 0.24732 0.51834 0.22553
 Cu257 Cu 0.23641 0.50043 0.26248
 Cu258 Cu 0.26232 0.50024 0.23612
 C259 C 0.23225 0.52456 0.23221
 C260 C 0.26645 0.47611 0.26642
 C261 C 0.26660 0.52468 0.26613
 C262 C 0.23216 0.47600 0.23243
 O263 O 0.74787 1.01918 0.77425
 O264 O 0.77364 0.98299 0.74875
 O265 O 0.77358 1.01923 0.74877
 O266 O 0.74800 0.98294 0.77426
 O267 O 0.72640 0.98286 0.75237
 O268 O 0.75200 1.01917 0.72688
 O269 O 0.75205 0.98293 0.72686
 O270 O 0.72629 1.01910 0.75235
 Cu271 Cu 0.76295 1.00109 0.76372
 Cu272 Cu 0.73701 1.00101 0.73740
 C273 C 0.73276 1.02529 0.76757
 C274 C 0.76715 0.97681 0.73353
 C275 C 0.76709 1.02537 0.73355
 C276 C 0.73292 0.97673 0.76759
 O277 O 0.75256 0.51794 0.22614
 O278 O 0.72716 0.48168 0.25188
 O279 O 0.72700 0.51791 0.25175
 O280 O 0.75272 0.48170 0.22627
 O281 O 0.77440 0.48188 0.24806
 O282 O 0.74868 0.51810 0.27355
 O283 O 0.74885 0.48185 0.27368
 O284 O 0.77424 0.51813 0.24794
 Cu285 Cu 0.73767 0.49979 0.23681
 Cu286 Cu 0.76373 0.50001 0.26301
 C287 C 0.76766 0.52420 0.23273
 C288 C 0.73375 0.47560 0.26709
 C289 C 0.73353 0.52416 0.26692
 C290 C 0.76787 0.47563 0.23290
 O291 O 0.22644 0.01735 0.74772
 O292 O 0.25185 -0.01907 0.77317
 O293 O 0.25203 0.01719 0.77328
 O294 O 0.22630 -0.01889 0.74759
 O295 O 0.24798 -0.01891 0.72576
 O296 O 0.27370 0.01716 0.75145
 O297 O 0.27353 -0.01910 0.75134
 O298 O 0.24811 0.01733 0.72588
 Cu299 Cu 0.23697 -0.00085 0.76264
 Cu300 Cu 0.26302 -0.00088 0.73641
 C301 C 0.23301 0.02352 0.73253
 C302 C 0.26693 -0.02529 0.76651
 C303 C 0.26717 0.02332 0.76666
 C304 C 0.23283 -0.02503 0.73237
 O305 O 0.24766 0.27257 0.98195
 O306 O 0.27345 0.24751 1.01842
 O307 O 0.27345 0.24726 0.98210
 O308 O 0.24767 0.27283 1.01828
 O309 O 0.22618 0.25087 1.01843
 O310 O 0.25195 0.22531 0.98225
 O311 O 0.25196 0.22556 1.01857
 O312 O 0.22617 0.25062 0.98210
 Cu313 Cu 0.26273 0.26226 1.00017
 Cu314 Cu 0.23690 0.23588 1.00036
 C315 C 0.23259 0.26580 0.97583
 C316 C 0.26703 0.23233 1.02469
 C317 C 0.26702 0.23200 0.97603
 C318 C 0.23261 0.26613 1.02451
 O319 O 0.25210 0.72587 0.48178
 O320 O 0.22634 0.75133 0.51802
 O321 O 0.22641 0.75126 0.48169
 O322 O 0.25205 0.72596 0.51810
 O323 O 0.27362 0.74784 0.51809
 O324 O 0.24798 0.77315 0.48167
 O325 O 0.24790 0.77322 0.51802
 O326 O 0.27367 0.74775 0.48177
 Cu327 Cu 0.23705 0.73640 0.49990
 Cu328 Cu 0.26296 0.76270 0.49989
 C329 C 0.26720 0.73254 0.47562
 C330 C 0.23280 0.76654 0.52419
 C331 C 0.23290 0.76644 0.47548
 C332 C 0.26713 0.73266 0.52428
 O333 O 0.27395 0.75219 -0.01830
 O334 O 0.24803 0.72685 0.01792
 O335 O 0.24821 0.72681 -0.01839
 O336 O 0.27379 0.75219 0.01803
 O337 O 0.25227 0.77410 0.01794
 O338 O 0.22668 0.74872 -0.01850
 O339 O 0.22651 0.74876 0.01782
 O340 O 0.25243 0.77410 -0.01840
 Cu341 Cu 0.26317 0.73730 -0.00018
 Cu342 Cu 0.23730 0.76363 -0.00030
 C343 C 0.26754 0.76739 -0.02451
 C344 C 0.23292 0.73357 0.02403
 C345 C 0.23316 0.73350 -0.02463
 C346 C 0.26731 0.76739 0.02419
 O347 O 0.22650 0.24864 0.48200
 O348 O 0.25228 0.27395 0.51833
 O349 O 0.25221 0.27403 0.48200
 O350 O 0.22657 0.24855 0.51832
 O351 O 0.24813 0.22667 0.51821
 O352 O 0.27377 0.25215 0.48189
 O353 O 0.27384 0.25207 0.51822
 O354 O 0.24806 0.22676 0.48190
 Cu355 Cu 0.23722 0.26350 0.50018
 Cu356 Cu 0.26313 0.23721 0.50005
 C357 C 0.23296 0.23345 0.47578
 C358 C 0.26737 0.26725 0.52446
 C359 C 0.26729 0.26736 0.47577
 C360 C 0.23305 0.23333 0.52443
 O361 O 0.74808 0.77344 0.98184
 O362 O 0.77367 0.74812 1.01828
 O363 O 0.77383 0.74811 0.98196
 O364 O 0.74793 0.77348 1.01818
 O365 O 0.72640 0.75155 1.01811
 O366 O 0.75230 0.72619 0.98189
 O367 O 0.75214 0.72620 1.01820
 O368 O 0.72656 0.75152 0.98177
 Cu369 Cu 0.76305 0.76300 1.00007
 Cu370 Cu 0.73717 0.73666 0.99998
 C371 C 0.73304 0.76671 0.97559
 C372 C 0.76719 0.73291 1.02443
 C373 C 0.76741 0.73289 0.97577
 C374 C 0.73283 0.76676 1.02431
 O375 O 0.74777 0.27252 0.48156
 O376 O 0.77336 0.24724 0.51802
 O377 O 0.77348 0.24714 0.48170
 O378 O 0.74766 0.27263 0.51790
 O379 O 0.72610 0.25075 0.51790
 O380 O 0.75191 0.22525 0.48170
 O381 O 0.75179 0.22536 0.51802
 O382 O 0.72620 0.25064 0.48157
 Cu383 Cu 0.76274 0.26209 0.49980
 Cu384 Cu 0.73682 0.23579 0.49980
 C385 C 0.73270 0.26581 0.47537
 C386 C 0.76686 0.23206 0.52422
 C387 C 0.76702 0.23192 0.47555
 C388 C 0.73256 0.26596 0.52406
 O389 O 0.74790 0.22637 0.01795
 O390 O 0.77359 0.25181 -0.01836
 O391 O 0.77368 0.25170 0.01797
 O392 O 0.74784 0.22646 -0.01836
 O393 O 0.72633 0.24838 -0.01825
 O394 O 0.75217 0.27362 0.01810
 O395 O 0.75209 0.27374 -0.01824
 O396 O 0.72639 0.24830 0.01807
 Cu397 Cu 0.76293 0.23688 -0.00021
 Cu398 Cu 0.73708 0.26323 -0.00007
 C399 C 0.73283 0.23307 0.02418
 C400 C 0.76714 0.26703 -0.02448
 C401 C 0.76725 0.26688 0.02422
 C402 C 0.73275 0.23318 -0.02447
 O403 O 0.74756 0.72642 0.51850
 O404 O 0.77347 0.75204 0.48248
 O405 O 0.77311 0.75196 0.51882
 O406 O 0.74785 0.72654 0.48219
 O407 O 0.72619 0.74831 0.48207
 O408 O 0.75143 0.77372 0.51870
 O409 O 0.75180 0.77381 0.48236
 O410 O 0.72589 0.74818 0.51839
 Cu411 Cu 0.76269 0.73704 0.50050
 Cu412 Cu 0.73665 0.76320 0.50036
 C413 C 0.73238 0.73300 0.52457
 C414 C 0.76698 0.76722 0.47630
 C415 C 0.76648 0.76709 0.52500
 C416 C 0.73278 0.73316 0.47592
 O417 O 1.01902 0.22576 0.25182
 O418 O 0.98254 0.25122 0.22655
 O419 O 1.01873 0.25148 0.22638
 O420 O 0.98280 0.22550 0.25201
 O421 O 0.98276 0.24710 0.27394
 O422 O 1.01868 0.27307 0.24831
 O423 O 0.98248 0.27282 0.24847
 O424 O 1.01898 0.24736 0.27375
 Cu425 Cu 1.00077 0.23631 0.23698
 Cu426 Cu 1.00072 0.26226 0.26333
 C427 C 1.02521 0.23230 0.26700
 C428 C 0.97632 0.26629 0.23327
 C429 C 1.02481 0.26663 0.23305
 C430 C 0.97667 0.23196 0.26727
 O431 O 0.48191 0.25206 0.72693
 O432 O 0.51834 0.22643 0.75213
 O433 O 0.48211 0.22617 0.75221
 O434 O 0.51810 0.25229 0.72684
 O435 O 0.51801 0.27375 0.74891
 O436 O 0.48201 0.24762 0.77428
 O437 O 0.51823 0.24788 0.77419
 O438 O 0.48182 0.27351 0.74900
 Cu439 Cu 0.50012 0.23707 0.73731
 Cu440 Cu 0.50001 0.26285 0.76383
 C441 C 0.47568 0.26708 0.73375
 C442 C 0.52450 0.23288 0.76737
 C443 C 0.47592 0.23253 0.76748
 C444 C 0.52418 0.26740 0.73363
 O445 O 0.01747 0.25180 0.77333
 O446 O -0.01865 0.22607 0.74776
 O447 O 0.01756 0.22597 0.74800
 O448 O -0.01872 0.25193 0.77310
 O449 O -0.01850 0.27342 0.75107
 O450 O 0.01779 0.24745 0.72597
 O451 O -0.01843 0.24755 0.72573
 O452 O 0.01769 0.27329 0.75130
 Cu453 Cu -0.00061 0.23677 0.76276
 Cu454 Cu -0.00034 0.26259 0.73629
 C455 C 0.02372 0.26686 0.76660
 C456 C -0.02469 0.23250 0.73247
 C457 C 0.02386 0.23237 0.73279
 C458 C -0.02476 0.26703 0.76630
 O459 O 0.51785 0.25244 0.27343
 O460 O 0.48159 0.22659 0.24820
 O461 O 0.51781 0.22649 0.24820
 O462 O 0.48166 0.25253 0.27343
 O463 O 0.48173 0.27392 0.25132
 O464 O 0.51788 0.24788 0.22609
 O465 O 0.48165 0.24797 0.22608
 O466 O 0.51792 0.27384 0.25132
 Cu467 Cu 0.49972 0.23735 0.26304
 Cu468 Cu 0.49980 0.26306 0.23647
 C469 C 0.52405 0.26747 0.26660
 C470 C 0.47544 0.23296 0.23293
 C471 C 0.52401 0.23284 0.23293
 C472 C 0.47556 0.26759 0.26661
 O473 O 0.98241 0.74852 0.77318
 O474 O 1.01856 0.77442 0.74779
 O475 O 0.98236 0.77438 0.74787
 O476 O 1.01863 0.74854 0.77307
 O477 O 1.01859 0.72708 0.75101
 O478 O 0.98233 0.75292 0.72581
 O479 O 1.01852 0.75296 0.72573
 O480 O 0.98238 0.72706 0.75111
 Cu481 Cu 1.00049 0.76363 0.76271
 Cu482 Cu 1.00045 0.73784 0.73619
 C483 C 0.97623 0.73347 0.76638
 C484 C 1.02468 0.76803 0.73251
 C485 C 0.97618 0.76798 0.73262
 C486 C 1.02479 0.73349 0.76625
 O487 O 0.51842 0.77438 0.24792
 O488 O 0.48242 0.74853 0.27357
 O489 O 0.51864 0.74861 0.27330
 O490 O 0.48222 0.77433 0.24819
 O491 O 0.48210 0.75279 0.22620
 O492 O 0.51851 0.72707 0.25131
 O493 O 0.48230 0.72699 0.25159
 O494 O 0.51830 0.75284 0.22593
 Cu495 Cu 0.50043 0.76363 0.26297
 Cu496 Cu 0.50028 0.73775 0.23654
 C497 C 0.52448 0.76794 0.23264
 C498 C 0.47624 0.73343 0.26688
 C499 C 0.52479 0.73354 0.26649
 C500 C 0.47598 0.76788 0.23298
 O501 O -0.01866 0.77417 0.25232
 O502 O 0.01740 0.74856 0.22653
 O503 O -0.01880 0.74841 0.22688
 O504 O 0.01754 0.77431 0.25198
 O505 O 0.01780 0.75274 0.27392
 O506 O -0.01853 0.72684 0.24882
 O507 O 0.01767 0.72699 0.24847
 O508 O -0.01839 0.75260 0.27426
 Cu509 Cu -0.00066 0.76354 0.23722
 Cu510 Cu -0.00033 0.73761 0.26358
 C511 C -0.02466 0.76767 0.26761
 C512 C 0.02367 0.73348 0.23318
 C513 C -0.02484 0.73329 0.23365
 C514 C 0.02384 0.76786 0.26716
 O515 O 0.48173 0.77416 0.75179
 O516 O 0.51789 0.74804 0.72665
 O517 O 0.48167 0.74813 0.72663
 O518 O 0.51793 0.77407 0.75182
 O519 O 0.51784 0.75273 0.77399
 O520 O 0.48159 0.72680 0.74881
 O521 O 0.51780 0.72671 0.74883
 O522 O 0.48165 0.75283 0.77396
 Cu523 Cu 0.49981 0.76325 0.73698
 Cu524 Cu 0.49971 0.73761 0.76363
 C525 C 0.47554 0.76787 0.76709
 C526 C 0.52400 0.73301 0.73354
 C527 C 0.47545 0.73313 0.73352
 C528 C 0.52404 0.76774 0.76713
 C529 C 0.37561 0.32914 0.32766
 C530 C 0.38887 0.32197 0.32035
 C531 C 0.40450 0.31320 0.31147
 C532 C 0.41362 0.29840 0.32025
 C533 C 0.42842 0.28948 0.31135
 C534 C 0.43416 0.29532 0.29364
 C535 C 0.42514 0.31021 0.28493
 C536 C 0.41034 0.31914 0.29383
 C537 C 0.44898 0.28573 0.28423
 C538 C 0.46121 0.27753 0.27624
 H539 H 0.40918 0.29367 0.33387
 H540 H 0.43526 0.27794 0.31819
 H541 H 0.42944 0.31481 0.27122
 H542 H 0.40336 0.33053 0.28690
 C543 C 0.37528 0.82924 0.82777
 C544 C 0.38860 0.82214 0.82051
 C545 C 0.40430 0.81345 0.81168
 C546 C 0.40947 0.81864 0.79359
 C547 C 0.42433 0.80975 0.78476
 C548 C 0.43408 0.79564 0.79397
 C549 C 0.42901 0.79056 0.81211
 C550 C 0.41415 0.79944 0.82095
 C551 C 0.44893 0.78604 0.78462
 C552 C 0.46118 0.77783 0.77668
 H553 H 0.40192 0.82941 0.78628
 H554 H 0.42809 0.81376 0.77071
 H555 H 0.43643 0.77963 0.81934
 H556 H 0.41024 0.79529 0.83492
 C557 C -0.12449 0.32882 0.82746
 C558 C -0.11128 0.32161 0.82011
 C559 C -0.09570 0.31279 0.81120
 C560 C -0.09013 0.31844 0.79338
 C561 C -0.07537 0.30946 0.78446
 C562 C -0.06614 0.29479 0.79332
 C563 C -0.07162 0.28923 0.81120
 C564 C -0.08637 0.29821 0.82012
 C565 C -0.05135 0.28517 0.78390
 C566 C -0.03912 0.27697 0.77592
 H567 H -0.09728 0.32966 0.78633
 H568 H -0.07128 0.31384 0.77061
 H569 H -0.06460 0.27788 0.81816
 H570 H -0.09060 0.29370 0.83388
 C571 C -0.12477 0.82867 0.32892
 C572 C -0.11147 0.82149 0.32171
 C573 C -0.09578 0.81274 0.31292
 C574 C -0.08829 0.82025 0.29655
 C575 C -0.07345 0.81139 0.28764
 C576 C -0.06605 0.79499 0.29507
 C577 C -0.07344 0.78757 0.31153
 C578 C -0.08827 0.79643 0.32043
 C579 C -0.05122 0.78551 0.28556
 C580 C -0.03899 0.77744 0.27744
 H581 H -0.09402 0.83284 0.29059
 H582 H -0.06788 0.81722 0.27490
 H583 H -0.06785 0.77486 0.31737
 H584 H -0.09399 0.79048 0.33306
 C585 C 0.62510 0.67225 0.32717
 C586 C 0.61202 0.67958 0.31969
 C587 C 0.59662 0.68848 0.31058
 C588 C 0.57972 0.69082 0.31996
 C589 C 0.56488 0.69973 0.31112
 C590 C 0.56689 0.70633 0.29286
 C591 C 0.58378 0.70393 0.28347
 C592 C 0.59860 0.69503 0.29231
 C593 C 0.55178 0.71575 0.28379
 C594 C 0.53933 0.72379 0.27599
 H595 H 0.57805 0.68583 0.33410
 H596 H 0.55189 0.70153 0.31852
 H597 H 0.58550 0.70901 0.26937
 H598 H 0.61162 0.69332 0.28493
 C599 C 0.62503 0.17182 0.82792
 C600 C 0.61194 0.17924 0.82057
 C601 C 0.59654 0.18835 0.81167
 C602 C 0.57912 0.17971 0.81091
 C603 C 0.56424 0.18860 0.80210
 C604 C 0.56674 0.20616 0.79402
 C605 C 0.58416 0.21479 0.79483
 C606 C 0.59902 0.20592 0.80363
 C607 C 0.55156 0.21531 0.78479
 C608 C 0.53908 0.22321 0.77691
 H609 H 0.57706 0.16613 0.81708
 H610 H 0.55084 0.18179 0.80155
 H611 H 0.58625 0.22835 0.78862
 H612 H 0.61243 0.21272 0.80412
 C613 C 1.12484 0.67209 0.82725
 C614 C 1.11177 0.67940 0.81975
 C615 C 1.09638 0.68827 0.81058
 C616 C 1.07974 0.69142 0.82021
 C617 C 1.06493 0.70033 0.81132
 C618 C 1.06671 0.70612 0.79277
 C619 C 1.08332 0.70291 0.78313
 C620 C 1.09811 0.69400 0.79202
 C621 C 1.05166 0.71560 0.78364
 C622 C 1.03927 0.72368 0.77580
 H623 H 1.07826 0.68706 0.83458
 H624 H 1.05216 0.70278 0.81891
 H625 H 1.08486 0.70736 0.76880
 H626 H 1.11092 0.69166 0.78445
 C627 C 1.12567 0.17149 0.32790
 C628 C 1.11256 0.17873 0.32042
 C629 C 1.09712 0.18755 0.31128
 C630 C 1.09889 0.19351 0.29278
 C631 C 1.08405 0.20236 0.28392
 C632 C 1.06736 0.20528 0.29351
 C633 C 1.06555 0.19927 0.31199
 C634 C 1.08041 0.19041 0.32086
 C635 C 1.05224 0.21466 0.28440
 C636 C 1.03978 0.22264 0.27657
 H637 H 1.11176 0.19139 0.28525
 H638 H 1.08560 0.20698 0.26964
 H639 H 1.05271 0.20149 0.31953
 H640 H 1.07890 0.18588 0.33517
 C641 C 0.62425 0.32832 0.67216
 C642 C 0.61098 0.32128 0.67956
 C643 C 0.59533 0.31270 0.68860
 C644 C 0.58359 0.30082 0.67857
 C645 C 0.56875 0.29202 0.68753
 C646 C 0.56560 0.29505 0.70656
 C647 C 0.57726 0.30704 0.71655
 C648 C 0.59209 0.31584 0.70759
 C649 C 0.55075 0.28550 0.71595
 C650 C 0.53850 0.27733 0.72396
 H651 H 0.58600 0.29825 0.66389
 H652 H 0.55985 0.28274 0.67969
 H653 H 0.57499 0.30944 0.73127
 H654 H 0.60112 0.32495 0.71548
 C655 C 0.62463 0.82905 0.17148
 C656 C 0.61133 0.82190 0.17873
 C657 C 0.59564 0.81317 0.18753
 C658 C 0.58865 0.82022 0.20432
 C659 C 0.57381 0.81135 0.21321
 C660 C 0.56589 0.79539 0.20534
 C661 C 0.57278 0.78842 0.18847
 C662 C 0.58762 0.79729 0.17959
 C663 C 0.55105 0.78589 0.21481
 C664 C 0.53881 0.77777 0.22287
 H665 H 0.59478 0.83246 0.21062
 H666 H 0.56863 0.81683 0.22627
 H667 H 0.56680 0.77605 0.18229
 H668 H 0.59295 0.79168 0.16663
 C669 C 1.12452 0.32830 0.17171
 C670 C 1.11128 0.32108 0.17900
 C671 C 1.09566 0.31227 0.18786
 C672 C 1.08929 0.31872 0.20514
 C673 C 1.07452 0.30976 0.21405
 C674 C 1.06605 0.29432 0.20573
 C675 C 1.07231 0.28797 0.18838
 C676 C 1.08709 0.29692 0.17946
 C677 C 1.05128 0.28472 0.21520
 C678 C 1.03909 0.27653 0.22328
 H679 H 1.09585 0.33054 0.21178
 H680 H 1.06982 0.31477 0.22749
 H681 H 1.06589 0.27601 0.18184
 H682 H 1.09193 0.29179 0.16613
 C683 C 1.12484 0.82915 0.67139
 C684 C 1.11154 0.82203 0.67868
 C685 C 1.09587 0.81333 0.68754
 C686 C 1.08690 0.79834 0.67891
 C687 C 1.07206 0.78948 0.68780
 C688 C 1.06613 0.79557 0.70536
 C689 C 1.07499 0.81065 0.71393
 C690 C 1.08983 0.81951 0.70503
 C691 C 1.05128 0.78605 0.71480
 C692 C 1.03903 0.77791 0.72282
 H693 H 1.09149 0.79341 0.66540
 H694 H 1.06534 0.77779 0.68108
 H695 H 1.07055 0.81544 0.72753
 H696 H 1.09670 0.83106 0.71185
 C697 C 0.37523 0.67170 0.67274
 C698 C 0.38840 0.67892 0.68016
 C699 C 0.40391 0.68770 0.68923
 C700 C 0.40431 0.68909 0.70869
 C701 C 0.41914 0.69799 0.71754
 C702 C 0.43365 0.70555 0.70697
 C703 C 0.43332 0.70407 0.68750
 C704 C 0.41847 0.69516 0.67865
 C705 C 0.44864 0.71512 0.71612
 C706 C 0.46100 0.72327 0.72396
 H707 H 0.39311 0.68340 0.71700
 H708 H 0.41924 0.69909 0.73259
 H709 H 0.44444 0.70990 0.67919
 H710 H 0.41829 0.69420 0.66359
 C711 C 0.37496 0.17159 0.17254
 C712 C 0.38818 0.17882 0.17986
 C713 C 0.40376 0.18759 0.18882
 C714 C 0.40496 0.18777 0.20829
 C715 C 0.41983 0.19668 0.21708
 C716 C 0.43358 0.20544 0.20642
 C717 C 0.43245 0.20517 0.18693
 C718 C 0.41757 0.19626 0.17815
 C719 C 0.44859 0.21500 0.21554
 C720 C 0.46097 0.22313 0.22337
 H721 H 0.39434 0.18115 0.21668
 H722 H 0.42054 0.19684 0.23215
 H723 H 0.44298 0.21194 0.17856
 H724 H 0.41676 0.19624 0.16308
 C725 C -0.12481 0.67159 0.17276
 C726 C -0.11166 0.67884 0.18017
 C727 C -0.09616 0.68766 0.18922
 C728 C -0.09474 0.68731 0.20868
 C729 C -0.07996 0.69627 0.21756
 C730 C -0.06652 0.70562 0.20701
 C731 C -0.06786 0.70588 0.18753
 C732 C -0.08266 0.69691 0.17866
 C733 C -0.05160 0.71524 0.21622
 C734 C -0.03928 0.72342 0.22409
 H735 H -0.10512 0.68023 0.21699
 H736 H -0.07908 0.69602 0.23262
 H737 H -0.05757 0.71311 0.17925
 H738 H -0.08364 0.69730 0.16360
 C739 C -0.12500 0.17126 0.67175
 C740 C -0.11169 0.17848 0.67891
 C741 C -0.09599 0.18726 0.68765
 C742 C -0.08894 0.18023 0.70441
 C743 C -0.07407 0.18912 0.71322
 C744 C -0.06619 0.20507 0.70530
 C745 C -0.07314 0.21202 0.68846
 C746 C -0.08801 0.20313 0.67965
 C747 C -0.05132 0.21459 0.71470
 C748 C -0.03905 0.22269 0.72273
 H749 H -0.09504 0.16800 0.71074
 H750 H -0.06883 0.18366 0.72626
 H751 H -0.06718 0.22437 0.68224
 H752 H -0.09339 0.20871 0.66672
 C753 C 0.32783 0.37631 0.32790
 C754 C 0.32048 0.38951 0.32067
 C755 C 0.31154 0.40509 0.31188
 C756 C 0.32090 0.41535 0.29820
 C757 C 0.31197 0.43012 0.28924
 C758 C 0.29365 0.43469 0.29394
 C759 C 0.28434 0.42452 0.30772
 C760 C 0.29326 0.40975 0.31667
 C761 C 0.28424 0.44951 0.28435
 C762 C 0.27621 0.46175 0.27622
 H763 H 0.33501 0.41183 0.29436
 H764 H 0.31928 0.43786 0.27858
 H765 H 0.27016 0.42790 0.31143
 H766 H 0.28588 0.40189 0.32720
 C767 C 0.32834 -0.12536 0.82759
 C768 C 0.32081 -0.11231 0.82027
 C769 C 0.31160 -0.09694 0.81139
 C770 C 0.29295 -0.09860 0.80610
 C771 C 0.28401 -0.08381 0.79722
 C772 C 0.29366 -0.06730 0.79358
 C773 C 0.31229 -0.06561 0.79893
 C774 C 0.32124 -0.08041 0.80782
 C775 C 0.28445 -0.05224 0.78418
 C776 C 0.27656 -0.03982 0.77618
 H777 H 0.28537 -0.11133 0.80877
 H778 H 0.26960 -0.08528 0.79312
 H779 H 0.31989 -0.05291 0.79616
 H780 H 0.33567 -0.07899 0.81183
 C781 C 0.82850 0.37545 0.82839
 C782 C 0.82126 0.38876 0.82124
 C783 C 0.81245 0.40445 0.81251
 C784 C 0.82148 0.41403 0.79813
 C785 C 0.81265 0.42888 0.78923
 C786 C 0.79474 0.43421 0.79468
 C787 C 0.78577 0.42473 0.80916
 C788 C 0.79461 0.40988 0.81806
 C789 C 0.78538 0.44907 0.78511
 C790 C 0.77736 0.46133 0.77698
 H791 H 0.83526 0.40991 0.79371
 H792 H 0.81969 0.43608 0.77802
 H793 H 0.77191 0.42870 0.81344
 H794 H 0.78748 0.40254 0.82913
 C795 C 0.82828 -0.12462 0.32824
 C796 C 0.82093 -0.11145 0.32095
 C797 C 0.81196 -0.09592 0.31210
 C798 C 0.82150 -0.08533 0.29880
 C799 C 0.81257 -0.07058 0.28982
 C800 C 0.79407 -0.06636 0.29410
 C801 C 0.78457 -0.07687 0.30749
 C802 C 0.79350 -0.09161 0.31647
 C803 C 0.78468 -0.05154 0.28449
 C804 C 0.77666 -0.03930 0.27633
 H805 H 0.83577 -0.08857 0.29529
 H806 H 0.82003 -0.06257 0.27946
 H807 H 0.77025 -0.07376 0.31088
 H808 H 0.78597 -0.09974 0.32670
 C809 C 0.32776 0.62420 0.67240
 C810 C 0.32048 0.61096 0.67966
 C811 C 0.31165 0.59535 0.68852
 C812 C 0.31863 0.58841 0.70535
 C813 C 0.30971 0.57361 0.71427
 C814 C 0.29378 0.56567 0.70638
 C815 C 0.28688 0.57252 0.68947
 C816 C 0.29580 0.58732 0.68056
 C817 C 0.28427 0.55084 0.71586
 C818 C 0.27618 0.53859 0.72395
 H819 H 0.33085 0.59454 0.71165
 H820 H 0.31513 0.56846 0.72736
 H821 H 0.27454 0.56652 0.68328
 H822 H 0.29026 0.59261 0.66757
 C823 C 0.32874 1.12545 0.17259
 C824 C 0.32149 1.11224 0.17993
 C825 C 0.31270 1.09667 0.18892
 C826 C 0.30152 1.08449 0.17862
 C827 C 0.29259 1.06966 0.18750
 C828 C 0.29482 1.06696 0.20670
 C829 C 0.30610 1.07908 0.21696
 C830 C 0.31502 1.09390 0.20809
 C831 C 0.28525 1.05203 0.21597
 C832 C 0.27714 1.03970 0.22391
 H833 H 0.29960 1.08653 0.16380
 H834 H 0.28387 1.06039 0.17944
 H835 H 0.30788 1.07715 0.23182
 H836 H 0.32360 1.10326 0.21620
 C837 C 0.82838 0.62473 0.17171
 C838 C 0.82118 0.61140 0.17886
 C839 C 0.81241 0.59567 0.18760
 C840 C 0.82048 0.58747 0.20333
 C841 C 0.81165 0.57257 0.21219
 C842 C 0.79473 0.56583 0.20535
 C843 C 0.78674 0.57394 0.18953
 C844 C 0.79556 0.58883 0.18067
 C845 C 0.78533 0.55092 0.21483
 C846 C 0.77733 0.53862 0.22293
 H847 H 0.83348 0.59268 0.20884
 H848 H 0.81793 0.56644 0.22444
 H849 H 0.77363 0.56886 0.18415
 H850 H 0.78918 0.59511 0.16854
 C851 C 0.82867 1.12521 0.67222
 C852 C 0.82141 1.11201 0.67956
 C853 C 0.81256 1.09643 0.68847
 C854 C 0.81849 1.09059 0.70611
 C855 C 0.80952 1.07581 0.71503
 C856 C 0.79459 1.06682 0.70635
 C857 C 0.78875 1.07258 0.68865
 C858 C 0.79772 1.08736 0.67973
 C859 C 0.78502 1.05200 0.71578
 C860 C 0.77688 1.03975 0.72382
 H861 H 0.82992 1.09753 0.71302
 H862 H 0.81413 1.07150 0.72873
 H863 H 0.77720 1.06576 0.68183
 H864 H 0.79299 1.09179 0.66612
 C865 C 0.67218 0.62440 0.32777
 C866 C 0.67939 0.61110 0.32056
 C867 C 0.68816 0.59542 0.31176
 C868 C 0.68207 0.58936 0.29425
 C869 C 0.69098 0.57451 0.28541
 C870 C 0.70601 0.56566 0.29404
 C871 C 0.71200 0.57162 0.31163
 C872 C 0.70309 0.58648 0.32047
 C873 C 0.71557 0.55080 0.28465
 C874 C 0.72370 0.53853 0.27664
 H875 H 0.67057 0.59621 0.28737
 H876 H 0.68626 0.57004 0.27179
 H877 H 0.72363 0.56491 0.31841
 H878 H 0.70794 0.59109 0.33399
 C879 C 0.67091 1.12534 0.82824
 C880 C 0.67817 1.11206 0.82104
 C881 C 0.68705 1.09641 0.81229
 C882 C 0.68046 1.08969 0.79521
 C883 C 0.68947 1.07487 0.78640
 C884 C 0.70510 1.06672 0.79464
 C885 C 0.71160 1.07335 0.81180
 C886 C 0.70259 1.08816 0.82060
 C887 C 0.71473 1.05189 0.78528
 C888 C 0.72291 1.03965 0.77728
 H889 H 0.66849 1.09599 0.78863
 H890 H 0.68436 1.06989 0.77311
 H891 H 0.72371 1.06718 0.81827
 H892 H 0.70784 1.09328 0.83379
 C893 C 0.17136 0.62500 0.82846
 C894 C 0.17851 0.61163 0.82132
 C895 C 0.18722 0.59586 0.81261
 C896 C 0.18073 0.58936 0.79540
 C897 C 0.18957 0.57444 0.78662
 C898 C 0.20494 0.56595 0.79501
 C899 C 0.21134 0.57235 0.81229
 C900 C 0.20249 0.58727 0.82108
 C901 C 0.21444 0.55103 0.78564
 C902 C 0.22251 0.53872 0.77764
 H903 H 0.16896 0.59593 0.78871
 H904 H 0.18454 0.56964 0.77323
 H905 H 0.22324 0.56592 0.81888
 H906 H 0.20765 0.59222 0.83436
 C907 C 0.17175 1.12524 0.32867
 C908 C 0.17908 1.11195 0.32155
 C909 C 0.18800 1.09628 0.31287
 C910 C 0.17923 1.08688 0.29822
 C911 C 0.18817 1.07205 0.28938
 C912 C 0.20592 1.06656 0.29516
 C913 C 0.21462 1.07587 0.30991
 C914 C 0.20568 1.09070 0.31875
 C915 C 0.21539 1.05171 0.28565
 C916 C 0.22346 1.03946 0.27755
 H917 H 0.16557 1.09111 0.29353
 H918 H 0.18133 1.06498 0.27795
 H919 H 0.22836 1.07177 0.31446
 H920 H 0.21261 1.09791 0.33003
 C921 C 0.67244 0.37509 0.67181
 C922 C 0.67994 0.38822 0.67905
 C923 C 0.68909 0.40368 0.68786
 C924 C 0.70823 0.40296 0.69122
 C925 C 0.71712 0.41778 0.70013
 C926 C 0.70691 0.43338 0.70573
 C927 C 0.68777 0.43415 0.70229
 C928 C 0.67888 0.41932 0.69337
 C929 C 0.71607 0.44843 0.71522
 C930 C 0.72395 0.46084 0.72327
 H931 H 0.71625 0.39093 0.68705
 H932 H 0.73191 0.41703 0.70275
 H933 H 0.67974 0.44614 0.70658
 H934 H 0.66407 0.42000 0.69087
 C935 C 0.67113 -0.12507 0.17136
 C936 C 0.67845 -0.11182 0.17857
 C937 C 0.68737 -0.09621 0.18734
 C938 C 0.70461 -0.08995 0.18084
 C939 C 0.71357 -0.07515 0.18972
 C940 C 0.70531 -0.06654 0.20515
 C941 C 0.68799 -0.07270 0.21157
 C942 C 0.67904 -0.08750 0.20268
 C943 C 0.71480 -0.05170 0.21465
 C944 C 0.72290 -0.03943 0.22271
 H945 H 0.71120 -0.09661 0.16902
 H946 H 0.72697 -0.07053 0.18467
 H947 H 0.68150 -0.06617 0.22351
 H948 H 0.66573 -0.09226 0.20785
 C949 C 0.17105 0.37547 0.17178
 C950 C 0.17827 0.38880 0.17893
 C951 C 0.18709 0.40452 0.18762
 C952 C 0.20448 0.41059 0.18134
 C953 C 0.21335 0.42548 0.19016
 C954 C 0.20485 0.43436 0.20530
 C955 C 0.18739 0.42839 0.21149
 C956 C 0.17853 0.41350 0.20266
 C957 C 0.21427 0.44927 0.21476
 C958 C 0.22234 0.46158 0.22278
 H959 H 0.21125 0.40371 0.16975
 H960 H 0.22687 0.42995 0.18529
 H961 H 0.18072 0.43513 0.22321
 H962 H 0.16510 0.40889 0.20766
 C963 C 0.17132 -0.12496 0.67112
 C964 C 0.17863 -0.11170 0.67831
 C965 C 0.18753 -0.09607 0.68707
 C966 C 0.20493 -0.09002 0.68079
 C967 C 0.21387 -0.07522 0.68969
 C968 C 0.20544 -0.06640 0.70491
 C969 C 0.18798 -0.07236 0.71110
 C970 C 0.17904 -0.08716 0.70220
 C971 C 0.21493 -0.05159 0.71445
 C972 C 0.22302 -0.03936 0.72257
 H973 H 0.21165 -0.09684 0.66914
 H974 H 0.22739 -0.07076 0.68482
 H975 H 0.18136 -0.06568 0.72289
 H976 H 0.16561 -0.09176 0.70721
 C977 C 0.32826 0.32868 0.37540
 C978 C 0.32110 0.32131 0.38867
 C979 C 0.31241 0.31232 0.40431
 C980 C 0.29989 0.32214 0.41556
 C981 C 0.29104 0.31321 0.43042
 C982 C 0.29467 0.29443 0.43409
 C983 C 0.30728 0.28466 0.42292
 C984 C 0.31613 0.29358 0.40806
 C985 C 0.28515 0.28506 0.44901
 C986 C 0.27706 0.27706 0.46133
 H987 H 0.29688 0.33662 0.41276
 H988 H 0.28127 0.32088 0.43895
 H989 H 0.31015 0.27012 0.42559
 H990 H 0.32575 0.28585 0.39942
 C991 C 0.32882 0.82835 -0.12490
 C992 C 0.32171 0.82106 -0.11156
 C993 C 0.31302 0.81219 -0.09585
 C994 C 0.31790 0.79397 -0.09101
 C995 C 0.30901 0.78510 -0.07615
 C996 C 0.29520 0.79441 -0.06605
 C997 C 0.29043 0.81269 -0.07078
 C998 C 0.29932 0.82156 -0.08565
 C999 C 0.28561 0.78504 -0.05117
 C1000 C 0.27743 0.77705 -0.03890
 H1001 H 0.32844 0.78658 -0.09883
 H1002 H 0.31277 0.77095 -0.07264
 H1003 H 0.27974 0.82000 -0.06309
 H1004 H 0.29541 0.83563 -0.08930
 C1005 C 0.82818 0.32844 -0.12478
 C1006 C 0.82102 0.32104 -0.11153
 C1007 C 0.81232 0.31199 -0.09592
 C1008 C 0.80091 0.32212 -0.08379
 C1009 C 0.79205 0.31317 -0.06895
 C1010 C 0.79457 0.29406 -0.06617
 C1011 C 0.80607 0.28396 -0.07823
 C1012 C 0.81493 0.29291 -0.09307
 C1013 C 0.78504 0.28471 -0.05124
 C1014 C 0.77694 0.27672 -0.03892
 H1015 H 0.79877 0.33687 -0.08590
 H1016 H 0.78315 0.32110 -0.05973
 H1017 H 0.80808 0.26917 -0.07624
 H1018 H 0.82369 0.28494 -0.10238
 C1019 C 0.82862 0.82815 0.37613
 C1020 C 0.82140 0.82096 0.38945
 C1021 C 0.81259 0.81220 0.40516
 C1022 C 0.81944 0.79533 0.41206
 C1023 C 0.81049 0.78648 0.42691
 C1024 C 0.79465 0.79447 0.43492
 C1025 C 0.78789 0.81142 0.42813
 C1026 C 0.79684 0.82027 0.41328
 C1027 C 0.78505 0.78504 0.44975
 C1028 C 0.77687 0.77698 0.46198
 H1029 H 0.83158 0.78894 0.40586
 H1030 H 0.81580 0.77336 0.43202
 H1031 H 0.77562 0.81770 0.43419
 H1032 H 0.79140 0.83328 0.40803
 C1033 C 0.67154 0.32743 0.62433
 C1034 C 0.67864 0.32000 0.61107
 C1035 C 0.68729 0.31096 0.59542
 C1036 C 0.68444 0.29194 0.59238
 C1037 C 0.69328 0.28300 0.57753
 C1038 C 0.70503 0.29303 0.56565
 C1039 C 0.70778 0.31209 0.56861
 C1040 C 0.69893 0.32104 0.58347
 C1041 C 0.71458 0.28367 0.55075
 C1042 C 0.72272 0.27567 0.53845
 H1043 H 0.67550 0.28401 0.60156
 H1044 H 0.69109 0.26825 0.57540
 H1045 H 0.71687 0.31997 0.55954
 H1046 H 0.70127 0.33574 0.58572
 C1047 C 0.67135 0.82802 1.12441
 C1048 C 0.67856 0.82062 1.11120
 C1049 C 0.68732 0.81157 1.09562
 C1050 C 0.69818 0.82185 1.08312
 C1051 C 0.70711 0.81292 1.06830
 C1052 C 0.70520 0.79368 1.06593
 C1053 C 0.69424 0.78343 1.07835
 C1054 C 0.68532 0.79235 1.09317
 C1055 C 0.71480 0.78437 1.05102
 C1056 C 0.72296 0.77641 1.03871
 H1057 H 0.69985 0.83670 1.08491
 H1058 H 0.71559 0.82097 1.05880
 H1059 H 0.69271 0.76854 1.07668
 H1060 H 0.67698 0.78427 1.10277
 C1061 C 0.17111 0.32757 1.12451
 C1062 C 0.17833 0.32022 1.11127
 C1063 C 0.18710 0.31125 1.09565
 C1064 C 0.20060 0.32069 1.08524
 C1065 C 0.20953 0.31174 1.07043
 C1066 C 0.20500 0.29333 1.06597
 C1067 C 0.19140 0.28395 1.07629
 C1068 C 0.18247 0.29289 1.09110
 C1069 C 0.21460 0.28391 1.05113
 C1070 C 0.22276 0.27587 1.03888
 H1071 H 0.20431 0.33487 1.08867
 H1072 H 0.22005 0.31911 1.06257
 H1073 H 0.18782 0.26970 1.07300
 H1074 H 0.17209 0.28545 1.09908
 C1075 C 0.17150 0.82802 0.62428
 C1076 C 0.17869 0.82058 0.61107
 C1077 C 0.18742 0.81150 0.59550
 C1078 C 0.19830 0.82174 0.58299
 C1079 C 0.20720 0.81279 0.56817
 C1080 C 0.20525 0.79355 0.56580
 C1081 C 0.19427 0.78334 0.57824
 C1082 C 0.18538 0.79229 0.59306
 C1083 C 0.21483 0.78422 0.55090
 C1084 C 0.22297 0.77623 0.53860
 H1085 H 0.20001 0.83660 0.58478
 H1086 H 0.21569 0.82082 0.55865
 H1087 H 0.19270 0.76845 0.57657
 H1088 H 0.17703 0.78422 0.60267
 C1089 C 0.32813 0.67170 0.62477
 C1090 C 0.32097 0.67895 0.61145
 C1091 C 0.31224 0.68777 0.59574
 C1092 C 0.31897 0.70480 0.58910
 C1093 C 0.31012 0.71367 0.57422
 C1094 C 0.29450 0.70555 0.56591
 C1095 C 0.28785 0.68845 0.57245
 C1096 C 0.29670 0.67958 0.58733
 C1097 C 0.28502 0.71497 0.55102
 C1098 C 0.27693 0.72299 0.53871
 H1099 H 0.33094 0.71128 0.59553
 H1100 H 0.31534 0.72691 0.56930
 H1101 H 0.27576 0.68207 0.56616
 H1102 H 0.29135 0.66644 0.59238
 C1103 C 0.32851 0.17191 1.12522
 C1104 C 0.32131 0.17912 1.11190
 C1105 C 0.31254 0.18792 1.09620
 C1106 C 0.31775 0.20593 1.09094
 C1107 C 0.30882 0.21473 1.07606
 C1108 C 0.29463 0.20555 1.06638
 C1109 C 0.28952 0.18748 1.07154
 C1110 C 0.29845 0.17868 1.08642
 C1111 C 0.28505 0.21484 1.05147
 C1112 C 0.27689 0.22276 1.03915
 H1113 H 0.32859 0.21322 1.09843
 H1114 H 0.31285 0.22872 1.07222
 H1115 H 0.27854 0.18027 1.06418
 H1116 H 0.29428 0.16476 1.09040
 C1117 C 0.82810 0.67165 1.12479
 C1118 C 0.82094 0.67895 1.11150
 C1119 C 0.81222 0.68784 1.09582
 C1120 C 0.81868 0.70511 1.08954
 C1121 C 0.80984 0.71403 1.07469
 C1122 C 0.79450 0.70572 1.06605
 C1123 C 0.78813 0.68839 1.07223
 C1124 C 0.79697 0.67946 1.08708
 C1125 C 0.78504 0.71518 1.05116
 C1126 C 0.77697 0.72322 1.03886
 H1127 H 0.83044 0.71173 1.09623
 H1128 H 0.81486 0.72745 1.07005
 H1129 H 0.77625 0.68186 1.06567
 H1130 H 0.79183 0.66613 1.09185
 C1131 C 0.82823 0.17154 0.62475
 C1132 C 0.82094 0.17869 0.61144
 C1133 C 0.81206 0.18737 0.59574
 C1134 C 0.79495 0.18069 0.58931
 C1135 C 0.78603 0.18948 0.57443
 C1136 C 0.79417 0.20500 0.56592
 C1137 C 0.81135 0.21160 0.57226
 C1138 C 0.82027 0.20280 0.58714
 C1139 C 0.78470 0.21440 0.55100
 C1140 C 0.77663 0.22240 0.53868
 H1141 H 0.78846 0.16880 0.59589
 H1142 H 0.77273 0.18429 0.56967
 H1143 H 0.81774 0.22361 0.56581
 H1144 H 0.83348 0.20811 0.59203
 C1145 C 0.67203 0.67204 0.37530
 C1146 C 0.67919 0.67931 0.38861
 C1147 C 0.68790 0.68817 0.40432
 C1148 C 0.70261 0.67941 0.41358
 C1149 C 0.71145 0.68830 0.42847
 C1150 C 0.70561 0.70599 0.43416
 C1151 C 0.69081 0.71469 0.42499
 C1152 C 0.68197 0.70580 0.41011
 C1153 C 0.71507 0.71540 0.44909
 C1154 C 0.72310 0.72343 0.46143
 H1155 H 0.70733 0.66580 0.40919
 H1156 H 0.72290 0.68147 0.43543
 H1157 H 0.68621 0.72838 0.42925
 H1158 H 0.67064 0.71272 0.40302
 C1159 C 0.67128 0.17203 -0.12460
 C1160 C 0.67849 0.17930 -0.11132
 C1161 C 0.68728 0.18817 -0.09566
 C1162 C 0.68097 0.20552 -0.08944
 C1163 C 0.68990 0.21444 -0.07463
 C1164 C 0.70517 0.20604 -0.06596
 C1165 C 0.71138 0.18862 -0.07208
 C1166 C 0.70245 0.17971 -0.08690
 C1167 C 0.71472 0.21549 -0.05112
 C1168 C 0.72287 0.22352 -0.03886
 H1169 H 0.66928 0.21221 -0.09615
 H1170 H 0.68500 0.22792 -0.07004
 H1171 H 0.72320 0.18203 -0.06551
 H1172 H 0.70748 0.16632 -0.09162
 C1173 C 0.17191 0.67206 -0.12475
 C1174 C 0.17914 0.67937 -0.11149
 C1175 C 0.18795 0.68826 -0.09585
 C1176 C 0.20380 0.68036 -0.08780
 C1177 C 0.21271 0.68931 -0.07299
 C1178 C 0.20580 0.70619 -0.06616
 C1179 C 0.18986 0.71402 -0.07412
 C1180 C 0.18095 0.70507 -0.08894
 C1181 C 0.21529 0.71569 -0.05131
 C1182 C 0.22337 0.72377 -0.03904
 H1183 H 0.20936 0.66739 -0.09307
 H1184 H 0.22505 0.68315 -0.06696
 H1185 H 0.18442 0.72709 -0.06899
 H1186 H 0.16873 0.71133 -0.09509
 C1187 C 0.17175 0.17218 0.37557
 C1188 C 0.17890 0.17952 0.38885
 C1189 C 0.18764 0.18844 0.40451
 C1190 C 0.18183 0.20615 0.41016
 C1191 C 0.19072 0.21507 0.42499
 C1192 C 0.20545 0.20632 0.43424
 C1193 C 0.21116 0.18855 0.42868
 C1194 C 0.20227 0.17963 0.41384
 C1195 C 0.21498 0.21576 0.44910
 C1196 C 0.22311 0.22378 0.46138
 H1197 H 0.17057 0.21310 0.40300
 H1198 H 0.18622 0.22883 0.42915
 H1199 H 0.22256 0.18168 0.43569
 H1200 H 0.20690 0.16596 0.40955
 C1201 C 0.32789 0.37573 0.67260
 C1202 C 0.32055 0.38895 0.67981
 C1203 C 0.31160 0.40455 0.68858
 C1204 C 0.32055 0.41420 0.70296
 C1205 C 0.31161 0.42900 0.71185
 C1206 C 0.29367 0.43420 0.70641
 C1207 C 0.28477 0.42464 0.69194
 C1208 C 0.29371 0.40984 0.68305
 C1209 C 0.28422 0.44904 0.71594
 C1210 C 0.27616 0.46130 0.72404
 H1211 H 0.33436 0.41019 0.70738
 H1212 H 0.31860 0.43627 0.72305
 H1213 H 0.27088 0.42851 0.68766
 H1214 H 0.28664 0.40244 0.67198
 C1215 C 0.32824 0.87652 0.17188
 C1216 C 0.32100 0.88980 0.17908
 C1217 C 0.31221 0.90547 0.18788
 C1218 C 0.32045 0.91389 0.20342
 C1219 C 0.31160 0.92873 0.21234
 C1220 C 0.29447 0.93522 0.20576
 C1221 C 0.28631 0.92689 0.19014
 C1222 C 0.29515 0.91205 0.18121
 C1223 C 0.28506 0.95006 0.21532
 C1224 C 0.27703 0.96232 0.22346
 H1225 H 0.33360 0.90888 0.20872
 H1226 H 0.31801 0.93504 0.22444
 H1227 H 0.27305 0.93176 0.18496
 H1228 H 0.28864 0.90561 0.16924
 C1229 C 0.82901 0.37527 0.17203
 C1230 C 0.82181 0.38858 0.17922
 C1231 C 0.81302 0.40428 0.18797
 C1232 C 0.82065 0.41203 0.20416
 C1233 C 0.81177 0.42691 0.21300
 C1234 C 0.79523 0.43408 0.20569
 C1235 C 0.78767 0.42642 0.18943
 C1236 C 0.79655 0.41155 0.18058
 C1237 C 0.78575 0.44896 0.21514
 C1238 C 0.77767 0.46124 0.22318
 H1239 H 0.83335 0.40649 0.21002
 H1240 H 0.81770 0.43269 0.22560
 H1241 H 0.77486 0.43183 0.18369
 H1242 H 0.79050 0.40563 0.16810
 C1243 C 0.82822 0.87661 0.67232
 C1244 C 0.82102 0.88991 0.67953
 C1245 C 0.81222 0.90560 0.68831
 C1246 C 0.82070 0.91438 0.70351
 C1247 C 0.81184 0.92922 0.71242
 C1248 C 0.79446 0.93534 0.70616
 C1249 C 0.78606 0.92665 0.69086
 C1250 C 0.79492 0.91182 0.68195
 C1251 C 0.78504 0.95019 0.71570
 C1252 C 0.77697 0.96245 0.72379
 H1253 H 0.83406 0.90965 0.70857
 H1254 H 0.81844 0.93580 0.72427
 H1255 H 0.77260 0.93124 0.68593
 H1256 H 0.78822 0.90510 0.67024
 C1257 C 0.67131 0.62369 0.67187
 C1258 C 0.67862 0.61043 0.67905
 C1259 C 0.68752 0.59481 0.68780
 C1260 C 0.68095 0.58813 0.70491
 C1261 C 0.68997 0.57335 0.71375
 C1262 C 0.70561 0.56519 0.70551
 C1263 C 0.71210 0.57177 0.68833
 C1264 C 0.70308 0.58655 0.67949
 C1265 C 0.71526 0.55042 0.71492
 C1266 C 0.72344 0.53822 0.72299
 H1267 H 0.66897 0.59445 0.71149
 H1268 H 0.68487 0.56841 0.72705
 H1269 H 0.72421 0.56559 0.68186
 H1270 H 0.70831 0.59163 0.66629
 C1271 C 0.67142 0.12372 0.17143
 C1272 C 0.67865 0.11043 0.17861
 C1273 C 0.68745 0.09475 0.18738
 C1274 C 0.70274 0.08617 0.17891
 C1275 C 0.71166 0.07133 0.18775
 C1276 C 0.70533 0.06501 0.20508
 C1277 C 0.68995 0.07350 0.21348
 C1278 C 0.68103 0.08834 0.20465
 C1279 C 0.71487 0.05015 0.21447
 C1280 C 0.72298 0.03789 0.22251
 H1281 H 0.70784 0.09105 0.16559
 H1282 H 0.72357 0.06490 0.18115
 H1283 H 0.68497 0.06876 0.22691
 H1284 H 0.66925 0.09491 0.21135
 C1285 C 0.17091 0.62474 0.17135
 C1286 C 0.17813 0.61145 0.17856
 C1287 C 0.18692 0.59578 0.18734
 C1288 C 0.18072 0.58959 0.20477
 C1289 C 0.18964 0.57475 0.21360
 C1290 C 0.20480 0.56604 0.20504
 C1291 C 0.21092 0.57214 0.18754
 C1292 C 0.20200 0.58698 0.17871
 C1293 C 0.21436 0.55119 0.21442
 C1294 C 0.22247 0.53893 0.22245
 H1295 H 0.16911 0.59633 0.21158
 H1296 H 0.18483 0.57018 0.22714
 H1297 H 0.22266 0.56553 0.18082
 H1298 H 0.20694 0.59169 0.16526
 C1299 C 0.17187 0.12387 0.67172
 C1300 C 0.17911 0.11059 0.67893
 C1301 C 0.18790 0.09493 0.68774
 C1302 C 0.18174 0.08882 0.70521
 C1303 C 0.19062 0.07396 0.71405
 C1304 C 0.20571 0.06515 0.70545
 C1305 C 0.21179 0.07118 0.68791
 C1306 C 0.20290 0.08604 0.67908
 C1307 C 0.21521 0.05026 0.71481
 C1308 C 0.22329 0.03795 0.72282
 H1309 H 0.17018 0.09562 0.71206
 H1310 H 0.18584 0.06944 0.72762
 H1311 H 0.22347 0.06450 0.68116
 H1312 H 0.20781 0.09069 0.66559
 C1313 C 0.32847 0.62459 0.32712
 C1314 C 0.32118 0.61145 0.31970
 C1315 C 0.31231 0.59595 0.31066
 C1316 C 0.31342 0.59402 0.29127
 C1317 C 0.30442 0.57924 0.28240
 C1318 C 0.29427 0.56633 0.29287
 C1319 C 0.29324 0.56819 0.31228
 C1320 C 0.30225 0.58297 0.32116
 C1321 C 0.28463 0.55142 0.28364
 C1322 C 0.27645 0.53911 0.27574
 H1323 H 0.32113 0.60399 0.28301
 H1324 H 0.30527 0.57796 0.26738
 H1325 H 0.28540 0.55831 0.32051
 H1326 H 0.30127 0.58436 0.33616
 C1327 C 0.32848 0.12321 0.82823
 C1328 C 0.32126 0.11002 0.82083
 C1329 C 0.31251 0.09448 0.81175
 C1330 C 0.30183 0.08187 0.82208
 C1331 C 0.29293 0.06707 0.81311
 C1332 C 0.29467 0.06484 0.79380
 C1333 C 0.30545 0.07739 0.78350
 C1334 C 0.31434 0.09217 0.79246
 C1335 C 0.28511 0.04995 0.78445
 C1336 C 0.27698 0.03768 0.77642
 H1337 H 0.30029 0.08355 0.83700
 H1338 H 0.28460 0.05747 0.82120
 H1339 H 0.30685 0.07582 0.76856
 H1340 H 0.32252 0.10187 0.78434
 C1341 C 0.82866 0.62469 0.82771
 C1342 C 0.82139 0.61149 0.82037
 C1343 C 0.81260 0.59594 0.81137
 C1344 C 0.81321 0.59431 0.79194
 C1345 C 0.80430 0.57946 0.78310
 C1346 C 0.79474 0.56617 0.79366
 C1347 C 0.79422 0.56773 0.81311
 C1348 C 0.80313 0.58259 0.82195
 C1349 C 0.78521 0.55116 0.78447
 C1350 C 0.77714 0.53878 0.77657
 H1351 H 0.82046 0.60457 0.78362
 H1352 H 0.80476 0.57841 0.76805
 H1353 H 0.78684 0.55755 0.82141
 H1354 H 0.80255 0.58373 0.83699
 C1355 C 0.82864 0.12350 0.32758
 C1356 C 0.82137 0.11034 0.32017
 C1357 C 0.81256 0.09482 0.31112
 C1358 C 0.80156 0.08247 0.32142
 C1359 C 0.79260 0.06769 0.31250
 C1360 C 0.79460 0.06521 0.29324
 C1361 C 0.80571 0.07749 0.28297
 C1362 C 0.81466 0.09226 0.29189
 C1363 C 0.78499 0.05033 0.28392
 C1364 C 0.77683 0.03804 0.27597
 H1365 H 0.79981 0.08434 0.33630
 H1366 H 0.78402 0.05830 0.32057
 H1367 H 0.80732 0.07572 0.26806
 H1368 H 0.82311 0.10174 0.28378
 C1369 C 0.67233 0.37545 0.32807
 C1370 C 0.67969 0.38872 0.32095
 C1371 C 0.68864 0.40436 0.31226
 C1372 C 0.70657 0.40958 0.31773
 C1373 C 0.71551 0.42441 0.30889
 C1374 C 0.70657 0.43408 0.29453
 C1375 C 0.68858 0.42896 0.28915
 C1376 C 0.67964 0.41413 0.29800
 C1377 C 0.71601 0.44894 0.28502
 C1378 C 0.72405 0.46121 0.27691
 H1379 H 0.71368 0.40210 0.32871
 H1380 H 0.72944 0.42823 0.31312
 H1381 H 0.68155 0.43631 0.27804
 H1382 H 0.66579 0.41018 0.29363
 C1383 C 0.67189 0.87631 0.82848
 C1384 C 0.67916 0.88962 0.82135
 C1385 C 0.68799 0.90532 0.81265
 C1386 C 0.70555 0.91116 0.81866
 C1387 C 0.71442 0.92603 0.80980
 C1388 C 0.70576 0.93512 0.79490
 C1389 C 0.68813 0.92938 0.78898
 C1390 C 0.67926 0.91451 0.79784
 C1391 C 0.71515 0.95001 0.78540
 C1392 C 0.72318 0.96231 0.77733
 H1393 H 0.71245 0.90412 0.83006
 H1394 H 0.72807 0.93032 0.81446
 H1395 H 0.68133 0.93628 0.77744
 H1396 H 0.66571 0.91008 0.79305
 C1397 C 0.17127 0.37522 0.82878
 C1398 C 0.17852 0.38856 0.82169
 C1399 C 0.18734 0.40429 0.81302
 C1400 C 0.17884 0.41318 0.79790
 C1401 C 0.18770 0.42807 0.78908
 C1402 C 0.20511 0.43413 0.79534
 C1403 C 0.21354 0.42533 0.81055
 C1404 C 0.20468 0.41044 0.81937
 C1405 C 0.21453 0.44903 0.78587
 C1406 C 0.22256 0.46132 0.77779
 H1407 H 0.16546 0.40850 0.79285
 H1408 H 0.18108 0.43474 0.77730
 H1409 H 0.22702 0.42987 0.81547
 H1410 H 0.21140 0.40363 0.83101
 C1411 C 0.17202 0.87614 0.32832
 C1412 C 0.17932 0.88943 0.32119
 C1413 C 0.18819 0.90512 0.31249
 C1414 C 0.20597 0.91061 0.31819
 C1415 C 0.21485 0.92548 0.30935
 C1416 C 0.20601 0.93491 0.29477
 C1417 C 0.18818 0.92950 0.28916
 C1418 C 0.17929 0.91463 0.29800
 C1419 C 0.21541 0.94981 0.28529
 C1420 C 0.22345 0.96212 0.27723
 H1421 H 0.21300 0.90332 0.32934
 H1422 H 0.22866 0.92951 0.31376
 H1423 H 0.18123 0.93666 0.27787
 H1424 H 0.16556 0.91047 0.29345
 C1425 C 0.37553 0.32842 0.67291
 C1426 C 0.38874 0.32123 0.68027
 C1427 C 0.40432 0.31248 0.68924
 C1428 C 0.41666 0.30153 0.67888
 C1429 C 0.43148 0.29261 0.68774
 C1430 C 0.43401 0.29460 0.70699
 C1431 C 0.42174 0.30566 0.71732
 C1432 C 0.40693 0.31458 0.70847
 C1433 C 0.44892 0.28502 0.71623
 C1434 C 0.46123 0.27688 0.72414
 H1435 H 0.41475 0.29979 0.66401
 H1436 H 0.44086 0.28406 0.67963
 H1437 H 0.42354 0.30726 0.73222
 H1438 H 0.39745 0.32298 0.71662
 C1439 C 0.37581 0.82913 0.17213
 C1440 C 0.38907 0.82195 0.17940
 C1441 C 0.40471 0.81318 0.18823
 C1442 C 0.41328 0.79784 0.17981
 C1443 C 0.42811 0.78894 0.18868
 C1444 C 0.43442 0.79535 0.20599
 C1445 C 0.42594 0.81077 0.21433
 C1446 C 0.41112 0.81967 0.20547
 C1447 C 0.44928 0.78583 0.21539
 C1448 C 0.46156 0.77771 0.22337
 H1449 H 0.40841 0.79268 0.16650
 H1450 H 0.43453 0.77700 0.18212
 H1451 H 0.43068 0.81581 0.22774
 H1452 H 0.40456 0.83149 0.21212
 C1453 C 0.87622 0.32752 0.17224
 C1454 C 0.88942 0.32019 0.17948
 C1455 C 0.90499 0.31123 0.18825
 C1456 C 0.91566 0.32082 0.20144
 C1457 C 0.93047 0.31191 0.21033
 C1458 C 0.93467 0.29338 0.20605
 C1459 C 0.92407 0.28384 0.19276
 C1460 C 0.90927 0.29275 0.18388
 C1461 C 0.94956 0.28402 0.21554
 C1462 C 0.96187 0.27601 0.22359
 H1463 H 0.91244 0.33511 0.20495
 H1464 H 0.93854 0.31941 0.22061
 H1465 H 0.92717 0.26950 0.18937
 H1466 H 0.90109 0.28519 0.17372
 C1467 C 0.87578 0.82921 0.67214
 C1468 C 0.88911 0.82206 0.67930
 C1469 C 0.90484 0.81333 0.68803
 C1470 C 0.91337 0.79799 0.67959
 C1471 C 0.92824 0.78910 0.68839
 C1472 C 0.93463 0.79551 0.70567
 C1473 C 0.92620 0.81095 0.71403
 C1474 C 0.91133 0.81984 0.70523
 C1475 C 0.94950 0.78598 0.71503
 C1476 C 0.96178 0.77784 0.72299
 H1477 H 0.90843 0.79281 0.66632
 H1478 H 0.93463 0.77714 0.68182
 H1479 H 0.93100 0.81600 0.72741
 H1480 H 0.90481 0.83166 0.71191
 C1481 C 0.62440 0.32840 0.32757
 C1482 C 0.61109 0.32132 0.32026
 C1483 C 0.59539 0.31267 0.31140
 C1484 C 0.58599 0.29812 0.32031
 C1485 C 0.57112 0.28929 0.31143
 C1486 C 0.56560 0.29497 0.29361
 C1487 C 0.57491 0.30962 0.28476
 C1488 C 0.58978 0.31845 0.29364
 C1489 C 0.55073 0.28546 0.28421
 C1490 C 0.53844 0.27734 0.27623
 H1491 H 0.59025 0.29351 0.33402
 H1492 H 0.56405 0.27795 0.31838
 H1493 H 0.57079 0.31409 0.27096
 H1494 H 0.59699 0.32964 0.28660
 C1495 C 0.62425 0.82898 0.82805
 C1496 C 0.61096 0.82185 0.82076
 C1497 C 0.59529 0.81313 0.81191
 C1498 C 0.58607 0.79841 0.82074
 C1499 C 0.57123 0.78953 0.81186
 C1500 C 0.56555 0.79532 0.79413
 C1501 C 0.57467 0.81014 0.78536
 C1502 C 0.58951 0.81902 0.79424
 C1503 C 0.55070 0.78578 0.78473
 C1504 C 0.53843 0.77763 0.77675
 H1505 H 0.59045 0.79371 0.83438
 H1506 H 0.56431 0.77805 0.81874
 H1507 H 0.57043 0.81470 0.77163
 H1508 H 0.59657 0.83036 0.78727
 C1509 C 0.12370 0.32782 0.82816
 C1510 C 0.11043 0.32069 0.82082
 C1511 C 0.09479 0.31200 0.81189
 C1512 C 0.08574 0.29706 0.82050
 C1513 C 0.07093 0.28821 0.81154
 C1514 C 0.06512 0.29427 0.79394
 C1515 C 0.07407 0.30932 0.78540
 C1516 C 0.08888 0.31817 0.79436
 C1517 C 0.05030 0.28478 0.78444
 C1518 C 0.03806 0.27667 0.77636
 H1519 H 0.09022 0.29215 0.83404
 H1520 H 0.06413 0.27656 0.81825
 H1521 H 0.06972 0.31409 0.77177
 H1522 H 0.09581 0.32968 0.78756
 C1523 C 0.12423 0.82894 0.32793
 C1524 C 0.11092 0.82185 0.32066
 C1525 C 0.09521 0.81318 0.31182
 C1526 C 0.08563 0.79884 0.32088
 C1527 C 0.07076 0.78999 0.31202
 C1528 C 0.06542 0.79543 0.29407
 C1529 C 0.07491 0.80987 0.28507
 C1530 C 0.08977 0.81873 0.29393
 C1531 C 0.05054 0.78590 0.28470
 C1532 C 0.03825 0.77775 0.27675
 H1533 H 0.08974 0.79441 0.33470
 H1534 H 0.06355 0.77881 0.31909
 H1535 H 0.07093 0.81416 0.27117
 H1536 H 0.09712 0.82976 0.28677
 C1537 C 0.62393 0.67126 0.67258
 C1538 C 0.61081 0.67851 0.68006
 C1539 C 0.59536 0.68733 0.68919
 C1540 C 0.58020 0.69371 0.67876
 C1541 C 0.56540 0.70266 0.68765
 C1542 C 0.56571 0.70528 0.70700
 C1543 C 0.58082 0.69880 0.71742
 C1544 C 0.59560 0.68985 0.70854
 C1545 C 0.55075 0.71489 0.71615
 C1546 C 0.53842 0.72308 0.72400
 H1547 H 0.57989 0.69186 0.66379
 H1548 H 0.55381 0.70765 0.67945
 H1549 H 0.58122 0.70078 0.73238
 H1550 H 0.60727 0.68501 0.71674
 C1551 C 0.62413 0.17137 0.17202
 C1552 C 0.61098 0.17860 0.17947
 C1553 C 0.59549 0.18738 0.18858
 C1554 C 0.59559 0.18965 0.20797
 C1555 C 0.58077 0.19855 0.21684
 C1556 C 0.56578 0.20522 0.20637
 C1557 C 0.56562 0.20286 0.18700
 C1558 C 0.58045 0.19395 0.17811
 C1559 C 0.55079 0.21479 0.21553
 C1560 C 0.53844 0.22295 0.22337
 H1561 H 0.60717 0.18465 0.21619
 H1562 H 0.58106 0.20033 0.23183
 H1563 H 0.55411 0.20799 0.17877
 H1564 H 0.58025 0.19230 0.16311
 C1565 C 0.12351 0.67230 0.17157
 C1566 C 0.11027 0.67953 0.17885
 C1567 C 0.09466 0.68835 0.18771
 C1568 C 0.08749 0.70496 0.18050
 C1569 C 0.07271 0.71385 0.18945
 C1570 C 0.06502 0.70617 0.20565
 C1571 C 0.07209 0.68949 0.21278
 C1572 C 0.08688 0.68060 0.20383
 C1573 C 0.05022 0.71564 0.21521
 C1574 C 0.03799 0.72372 0.22334
 H1575 H 0.09343 0.71110 0.16808
 H1576 H 0.06738 0.72677 0.18385
 H1577 H 0.06629 0.68346 0.22533
 H1578 H 0.09234 0.66779 0.20955
 C1579 C 0.12440 0.17132 0.67217
 C1580 C 0.11120 0.17849 0.67958
 C1581 C 0.09564 0.18720 0.68864
 C1582 C 0.08084 0.19417 0.67809
 C1583 C 0.06595 0.20301 0.68693
 C1584 C 0.06580 0.20490 0.70636
 C1585 C 0.08055 0.19783 0.71691
 C1586 C 0.09544 0.18900 0.70808
 C1587 C 0.05076 0.21441 0.71548
 C1588 C 0.03836 0.22253 0.72329
 H1589 H 0.08088 0.19288 0.66305
 H1590 H 0.05463 0.20846 0.67864
 H1591 H 0.08061 0.19926 0.73194
 H1592 H 0.10682 0.18370 0.71637
 C1593 C 0.37619 0.67186 0.32776
 C1594 C 0.38948 0.67913 0.32060
 C1595 C 0.40515 0.68801 0.31190
 C1596 C 0.41358 0.67988 0.29630
 C1597 C 0.42842 0.68882 0.28747
 C1598 C 0.43488 0.70592 0.29420
 C1599 C 0.42655 0.71397 0.30990
 C1600 C 0.41172 0.70503 0.31873
 C1601 C 0.44971 0.71545 0.28473
 C1602 C 0.46193 0.72358 0.27665
 H1603 H 0.40858 0.66675 0.29088
 H1604 H 0.43472 0.68251 0.27531
 H1605 H 0.43141 0.72721 0.31519
 H1606 H 0.40528 0.71146 0.33075
 C1607 C 0.37588 0.17078 0.82825
 C1608 C 0.38903 0.17807 0.82086
 C1609 C 0.40450 0.18691 0.81177
 C1610 C 0.41987 0.19283 0.82216
 C1611 C 0.43470 0.20178 0.81331
 C1612 C 0.43419 0.20484 0.79404
 C1613 C 0.41886 0.19884 0.78365
 C1614 C 0.40405 0.18990 0.79249
 C1615 C 0.44919 0.21444 0.78492
 C1616 C 0.46153 0.22262 0.77707
 H1617 H 0.42034 0.19062 0.83708
 H1618 H 0.44647 0.20640 0.82148
 H1619 H 0.41831 0.20117 0.76875
 H1620 H 0.39222 0.18541 0.78433
 C1621 C 0.87613 0.67218 0.82750
 C1622 C 0.88926 0.67943 0.82005
 C1623 C 0.90473 0.68822 0.81091
 C1624 C 0.92014 0.69413 0.82125
 C1625 C 0.93496 0.70302 0.81234
 C1626 C 0.93443 0.70603 0.79306
 C1627 C 0.91906 0.70004 0.78272
 C1628 C 0.90425 0.69115 0.79162
 C1629 C 0.94944 0.71554 0.78388
 C1630 C 0.96180 0.72364 0.77600
 H1631 H 0.92063 0.69196 0.83618
 H1632 H 0.94676 0.70763 0.82047
 H1633 H 0.91848 0.70233 0.76782
 H1634 H 0.89239 0.68668 0.78350
 C1635 C 0.87646 0.17065 0.32815
 C1636 C 0.88979 0.17784 0.32098
 C1637 C 0.90550 0.18660 0.31223
 C1638 C 0.91266 0.17946 0.29555
 C1639 C 0.92752 0.18834 0.28671
 C1640 C 0.93528 0.20441 0.29451
 C1641 C 0.92822 0.21148 0.31127
 C1642 C 0.91336 0.20259 0.32011
 C1643 C 0.95012 0.21394 0.28507
 C1644 C 0.96236 0.22208 0.27702
 H1645 H 0.90665 0.16714 0.28930
 H1646 H 0.93283 0.18280 0.27373
 H1647 H 0.93408 0.22393 0.31740
 H1648 H 0.90789 0.20827 0.33297
 C1649 C 0.32837 0.32815 0.62503
 C1650 C 0.32124 0.32084 0.61172
 C1651 C 0.31255 0.31194 0.59602
 C1652 C 0.29908 0.32141 0.58564
 C1653 C 0.29024 0.31255 0.57074
 C1654 C 0.29483 0.29418 0.56616
 C1655 C 0.30840 0.28476 0.57647
 C1656 C 0.31724 0.29363 0.59136
 C1657 C 0.28531 0.28485 0.55123
 C1658 C 0.27719 0.27689 0.53890
 H1659 H 0.29532 0.33556 0.58915
 H1660 H 0.27973 0.31994 0.56289
 H1661 H 0.31202 0.27054 0.57308
 H1662 H 0.32760 0.28616 0.59933
 C1663 C 0.32832 0.82865 0.12457
 C1664 C 0.32114 0.82124 0.11135
 C1665 C 0.31243 0.81217 0.09576
 C1666 C 0.30210 0.82253 0.08289
 C1667 C 0.29324 0.81360 0.06803
 C1668 C 0.29467 0.79429 0.06599
 C1669 C 0.30511 0.78396 0.07879
 C1670 C 0.31397 0.79288 0.09363
 C1671 C 0.28515 0.78499 0.05103
 C1672 C 0.27706 0.77705 0.03867
 H1673 H 0.30080 0.83745 0.08441
 H1674 H 0.28517 0.82172 0.05824
 H1675 H 0.30628 0.76901 0.07736
 H1676 H 0.32189 0.78473 0.10352
 C1677 C 0.82884 0.32756 0.12458
 C1678 C 0.82161 0.32027 0.11132
 C1679 C 0.81283 0.31137 0.09567
 C1680 C 0.81635 0.29259 0.09192
 C1681 C 0.80740 0.28376 0.07706
 C1682 C 0.79490 0.29367 0.06590
 C1683 C 0.79149 0.31249 0.06957
 C1684 C 0.80044 0.32132 0.08443
 C1685 C 0.78529 0.28440 0.05098
 C1686 C 0.77711 0.27649 0.03866
 H1687 H 0.82588 0.28475 0.10055
 H1688 H 0.81011 0.26919 0.07438
 H1689 H 0.78182 0.32027 0.06105
 H1690 H 0.79759 0.33584 0.08723
 C1691 C 0.82758 0.82852 0.62528
 C1692 C 0.82007 0.82110 0.61224
 C1693 C 0.81090 0.81208 0.59689
 C1694 C 0.79336 0.80409 0.59949
 C1695 C 0.78446 0.79514 0.58469
 C1696 C 0.79305 0.79415 0.56721
 C1697 C 0.81059 0.80218 0.56458
 C1698 C 0.81950 0.81113 0.57940
 C1699 C 0.78390 0.78475 0.55208
 C1700 C 0.77605 0.77675 0.53960
 H1701 H 0.78659 0.80472 0.61296
 H1702 H 0.77091 0.78897 0.58688
 H1703 H 0.81736 0.80148 0.55112
 H1704 H 0.83307 0.81726 0.57724
 C1705 C 0.32856 0.67163 0.37523
 C1706 C 0.32131 0.67880 0.38856
 C1707 C 0.31247 0.68753 0.40427
 C1708 C 0.29573 0.68046 0.41122
 C1709 C 0.28682 0.68931 0.42610
 C1710 C 0.29462 0.70527 0.43408
 C1711 C 0.31145 0.71227 0.42722
 C1712 C 0.32035 0.70341 0.41235
 C1713 C 0.28513 0.71474 0.44895
 C1714 C 0.27702 0.72280 0.46123
 H1715 H 0.28948 0.66822 0.40505
 H1716 H 0.27379 0.68381 0.43126
 H1717 H 0.31758 0.72463 0.43326
 H1718 H 0.33327 0.70903 0.40705
 C1719 C 0.32854 0.17059 0.87604
 C1720 C 0.32130 0.17784 0.88932
 C1721 C 0.31249 0.18671 0.90497
 C1722 C 0.31929 0.20367 0.91170
 C1723 C 0.31036 0.21262 0.92650
 C1724 C 0.29458 0.20463 0.93464
 C1725 C 0.28786 0.18759 0.92802
 C1726 C 0.29680 0.17864 0.91321
 C1727 C 0.28502 0.21414 0.94945
 C1728 C 0.27687 0.22223 0.96168
 H1729 H 0.33139 0.21006 0.90540
 H1730 H 0.31564 0.22581 0.93148
 H1731 H 0.27564 0.18131 0.93418
 H1732 H 0.29139 0.16555 0.90809
 C1733 C 0.82900 0.67206 0.87550
 C1734 C 0.82180 0.67928 0.88882
 C1735 C 0.81300 0.68806 0.90453
 C1736 C 0.79769 0.67963 0.91312
 C1737 C 0.78874 0.68848 0.92798
 C1738 C 0.79506 0.70579 0.93429
 C1739 C 0.81046 0.71415 0.92579
 C1740 C 0.81941 0.70530 0.91094
 C1741 C 0.78547 0.71519 0.94914
 C1742 C 0.77730 0.72321 0.96140
 H1743 H 0.79259 0.66633 0.90824
 H1744 H 0.77682 0.68192 0.93441
 H1745 H 0.81543 0.72755 0.93053
 H1746 H 0.83120 0.71197 0.90436
 C1747 C 0.82864 0.17080 0.37544
 C1748 C 0.82136 0.17805 0.38870
 C1749 C 0.81251 0.18688 0.40435
 C1750 C 0.81932 0.20382 0.41115
 C1751 C 0.81037 0.21270 0.42598
 C1752 C 0.79458 0.20469 0.43407
 C1753 C 0.78785 0.18768 0.42737
 C1754 C 0.79680 0.17880 0.41254
 C1755 C 0.78501 0.21414 0.44892
 C1756 C 0.77687 0.22219 0.46118
 H1757 H 0.83142 0.21022 0.40490
 H1758 H 0.81566 0.22588 0.43102
 H1759 H 0.77562 0.18138 0.43349
 H1760 H 0.79139 0.16573 0.40736
 C1761 C 0.67185 0.32741 0.37515
 C1762 C 0.67898 0.31991 0.38835
 C1763 C 0.68765 0.31076 0.40390
 C1764 C 0.69733 0.32113 0.41726
 C1765 C 0.70616 0.31214 0.43209
 C1766 C 0.70535 0.29274 0.43361
 C1767 C 0.69557 0.28239 0.42031
 C1768 C 0.68674 0.29137 0.40549
 C1769 C 0.71485 0.28341 0.44855
 C1770 C 0.72293 0.27545 0.46089
 H1771 H 0.69815 0.33613 0.41615
 H1772 H 0.71372 0.32028 0.44228
 H1773 H 0.69489 0.26738 0.42132
 H1774 H 0.67933 0.28321 0.39521
 C1775 C 0.67193 0.82811 0.87540
 C1776 C 0.67918 0.82060 0.88852
 C1777 C 0.68797 0.81142 0.90399
 C1778 C 0.68976 0.79204 0.90400
 C1779 C 0.69863 0.78309 0.91881
 C1780 C 0.70576 0.79348 0.93368
 C1781 C 0.70390 0.81286 0.93373
 C1782 C 0.69502 0.82182 0.91891
 C1783 C 0.71524 0.78424 0.94869
 C1784 C 0.72330 0.77633 0.96108
 H1785 H 0.68440 0.78387 0.89252
 H1786 H 0.70003 0.76809 0.91861
 H1787 H 0.70939 0.82104 0.94515
 H1788 H 0.69374 0.83682 0.91902
 C1789 C 0.17121 0.32701 0.87570
 C1790 C 0.17843 0.31954 0.88886
 C1791 C 0.18719 0.31044 0.90439
 C1792 C 0.19685 0.32087 0.91773
 C1793 C 0.20576 0.31194 0.93254
 C1794 C 0.20505 0.29254 0.93407
 C1795 C 0.19530 0.28212 0.92080
 C1796 C 0.18639 0.29105 0.90599
 C1797 C 0.21461 0.28326 0.94901
 C1798 C 0.22275 0.27536 0.96135
 H1799 H 0.19759 0.33587 0.91660
 H1800 H 0.21329 0.32012 0.94271
 H1801 H 0.19469 0.26711 0.92182
 H1802 H 0.17900 0.28285 0.89574
 C1803 C 0.17191 0.82798 0.37530
 C1804 C 0.17911 0.82045 0.38844
 C1805 C 0.18785 0.81126 0.40393
 C1806 C 0.18914 0.79183 0.40419
 C1807 C 0.19799 0.78286 0.41900
 C1808 C 0.20559 0.79326 0.43363
 C1809 C 0.20422 0.81269 0.43343
 C1810 C 0.19536 0.82167 0.41861
 C1811 C 0.21508 0.78399 0.44862
 C1812 C 0.22315 0.77606 0.46099
 H1813 H 0.18341 0.78365 0.39290
 H1814 H 0.19901 0.76784 0.41899
 H1815 H 0.21008 0.82087 0.44465
 H1816 H 0.19447 0.83670 0.41854
 C1817 C 0.67098 0.67144 0.62451
 C1818 C 0.67817 0.67875 0.61123
 C1819 C 0.68694 0.68765 0.59558
 C1820 C 0.68026 0.70473 0.58903
 C1821 C 0.68917 0.71368 0.57422
 C1822 C 0.70481 0.70559 0.56590
 C1823 C 0.71140 0.68844 0.57234
 C1824 C 0.70248 0.67949 0.58715
 C1825 C 0.71435 0.71511 0.55110
 C1826 C 0.72250 0.72321 0.53888
 H1827 H 0.66829 0.71118 0.59548
 H1828 H 0.68399 0.72696 0.56938
 H1829 H 0.72350 0.68209 0.56604
 H1830 H 0.70780 0.66631 0.59214
 C1831 C 0.67138 0.17158 0.12415
 C1832 C 0.67862 0.17890 0.11091
 C1833 C 0.68744 0.18781 0.09529
 C1834 C 0.68062 0.20477 0.08858
 C1835 C 0.68955 0.21373 0.07378
 C1836 C 0.70534 0.20576 0.06564
 C1837 C 0.71207 0.18873 0.07225
 C1838 C 0.70314 0.17978 0.08705
 C1839 C 0.71488 0.21526 0.05081
 C1840 C 0.72301 0.22333 0.03856
 H1841 H 0.66852 0.21113 0.09488
 H1842 H 0.68426 0.22691 0.06881
 H1843 H 0.72429 0.18247 0.06609
 H1844 H 0.70856 0.16669 0.09216
 C1845 C 0.17106 0.67251 0.12401
 C1846 C 0.17834 0.67981 0.11077
 C1847 C 0.18720 0.68869 0.09516
 C1848 C 0.20212 0.68000 0.08615
 C1849 C 0.21111 0.68889 0.07135
 C1850 C 0.20522 0.70650 0.06550
 C1851 C 0.19021 0.71512 0.07442
 C1852 C 0.18122 0.70624 0.08922
 C1853 C 0.21483 0.71590 0.05066
 C1854 C 0.22302 0.72390 0.03841
 H1855 H 0.20689 0.66645 0.09067
 H1856 H 0.22273 0.68211 0.06458
 H1857 H 0.18557 0.72876 0.07003
 H1858 H 0.16973 0.71310 0.09611
 C1859 C 0.17175 0.17169 0.62440
 C1860 C 0.17897 0.17904 0.61116
 C1861 C 0.18775 0.18800 0.59555
 C1862 C 0.20279 0.17948 0.58658
 C1863 C 0.21170 0.18846 0.57178
 C1864 C 0.20561 0.20599 0.56590
 C1865 C 0.19048 0.21444 0.57477
 C1866 C 0.18157 0.20546 0.58956
 C1867 C 0.21514 0.21550 0.55107
 C1868 C 0.22325 0.22358 0.53882
 H1869 H 0.20772 0.16600 0.59112
 H1870 H 0.22342 0.18182 0.56505
 H1871 H 0.18568 0.22801 0.57036
 H1872 H 0.16998 0.21219 0.59643
   
