data_POSCAR
  _audit_creation_date              2014-09-24
  _audit_creation_method            'ToBaCCo'
  _symmetry_space_group_name_H-M    'P1'
  _symmetry_Int_Tables_number       1
  _symmetry_cell_setting            triclinic
  loop_
  _symmetry_equiv_pos_as_xyz
 x,y,z
_cell_length_a 55.5074
_cell_length_b 54.5443
_cell_length_c 60.5262
_cell_angle_alpha 90.456000
_cell_angle_beta 90.381000
_cell_angle_gamma 90.063500
loop_
  _atom_site_label
  _atom_site_type_symbol
  _atom_site_fract_x
  _atom_site_fract_y
  _atom_site_fract_z
C1 C 0.30778 0.30505 0.00102
 C2 C 0.30452 0.30345 0.02329
 C3 C 0.28535 0.31793 0.03437
 C4 C 0.32037 0.28861 0.03785
 C5 C 0.32477 0.28887 -0.01113
 C6 C 0.29397 0.32320 -0.01217
 C7 C 0.29165 0.33604 0.04991
 C8 C 0.27415 0.35194 0.05823
 C9 C 0.24996 0.34979 0.05137
 C10 C 0.24355 0.33073 0.03666
 C11 C 0.26109 0.31492 0.02826
 C12 C 0.34559 0.29064 0.03688
 C13 C 0.36017 0.27808 0.05193
 C14 C 0.34976 0.26369 0.06849
 C15 C 0.32458 0.26139 0.06922
 C16 C 0.31004 0.27371 0.05405
 C17 C 0.32471 0.26348 -0.00802
 C18 C 0.34106 0.24850 -0.01921
 C19 C 0.35792 0.25837 -0.03430
 C20 C 0.35706 0.28407 -0.03770
 C21 C 0.34080 0.29895 -0.02631
 C22 C 0.27894 0.31531 -0.02955
 C23 C 0.26364 0.33193 -0.04012
 C24 C 0.26308 0.35659 -0.03330
 C25 C 0.27898 0.36469 -0.01666
 C26 C 0.29458 0.34821 -0.00643
 H27 H 0.31030 0.33862 0.05477
 H28 H 0.27978 0.36655 0.06933
 H29 H 0.22503 0.32821 0.03142
 H30 H 0.25590 0.30081 0.01647
 H31 H 0.35398 0.30251 0.02490
 H32 H 0.37953 0.28043 0.05123
 H33 H 0.29065 0.27193 0.05516
 H34 H 0.31183 0.25515 0.00299
 H35 H 0.33927 0.22903 -0.01659
 H36 H 0.36976 0.29342 -0.04814
 H37 H 0.34115 0.31856 -0.02898
 H38 H 0.27836 0.29613 -0.03430
 H39 H 0.25156 0.32536 -0.05298
 H40 H 0.27913 0.38373 -0.01144
 H41 H 0.30651 0.35476 0.00656
 H42 H 0.31613 0.25026 0.08173
 C43 C 0.68568 0.69068 -0.01919
 C44 C 0.68566 0.69230 0.00323
 C45 C 0.70472 0.67999 0.01630
 C46 C 0.66590 0.70432 0.01556
 C47 C 0.66988 0.70607 -0.03343
 C48 C 0.70047 0.67173 -0.03049
 C49 C 0.69913 0.66014 0.02993
 C50 C 0.71756 0.64683 0.04018
 C51 C 0.74184 0.65346 0.03723
 C52 C 0.74713 0.67429 0.02455
 C53 C 0.72877 0.68727 0.01403
 C54 C 0.64189 0.69735 0.01162
 C55 C 0.62343 0.70673 0.02476
 C56 C 0.62866 0.72332 0.04201
 C57 C 0.65261 0.73080 0.04556
 C58 C 0.67111 0.72117 0.03257
 C59 C 0.66784 0.73152 -0.02987
 C60 C 0.65492 0.74608 -0.04477
 C61 C 0.64427 0.73548 -0.06366
 C62 C 0.64575 0.71002 -0.06687
 C63 C 0.65832 0.69548 -0.05189
 C64 C 0.71747 0.67829 -0.04647
 C65 C 0.72902 0.66016 -0.05902
 C66 C 0.72327 0.63533 -0.05604
 C67 C 0.70679 0.62881 -0.03960
 C68 C 0.69556 0.64685 -0.02689
 H69 H 0.68060 0.65429 0.03178
 H70 H 0.71281 0.63081 0.04964
 H71 H 0.76552 0.68039 0.02244
 H72 H 0.73332 0.70275 0.00376
 H73 H 0.63753 0.68405 -0.00118
 H74 H 0.60509 0.70077 0.02166
 H75 H 0.68956 0.72658 0.03597
 H76 H 0.67694 0.74024 -0.01601
 H77 H 0.65410 0.76571 -0.04206
 H78 H 0.63741 0.70141 -0.08119
 H79 H 0.65941 0.67594 -0.05500
 H80 H 0.72126 0.69743 -0.04959
 H81 H 0.74153 0.66555 -0.07175
 H82 H 0.70213 0.60976 -0.03704
 H83 H 0.68220 0.64147 -0.01489
 H84 H 0.65709 0.74337 0.05890
 C85 C 0.70208 0.31497 1.01718
 C86 C 0.70293 0.30708 0.99572
 C87 C 0.72257 0.31530 0.98088
 C88 C 0.68226 0.29424 0.98500
 C89 C 0.68360 0.30579 1.03275
 C90 C 0.71926 0.33389 1.02580
 C91 C 0.71685 0.32973 0.96250
 C92 C 0.73488 0.34247 0.95145
 C93 C 0.75907 0.34075 0.95836
 C94 C 0.76497 0.32452 0.97552
 C95 C 0.74687 0.31183 0.98664
 C96 C 0.65921 0.30478 0.98565
 C97 C 0.64082 0.29585 0.97196
 C98 C 0.64513 0.27627 0.95731
 C99 C 0.66773 0.26474 0.95761
 C100 C 0.68624 0.27381 0.97122
 C101 C 0.68011 0.28055 1.03583
 C102 C 0.66343 0.27218 1.05129
 C103 C 0.64987 0.28889 1.06394
 C104 C 0.65317 0.31415 1.06048
 C105 C 0.66997 0.32248 1.04519
 C106 C 0.73257 0.32972 1.04516
 C107 C 0.74993 0.34668 1.05236
 C108 C 0.75482 0.36798 1.04001
 C109 C 0.74059 0.37242 1.02107
 C110 C 0.72262 0.35599 1.01450
 H111 H 0.69823 0.33271 0.95779
 H112 H 0.72961 0.35492 0.93846
 H113 H 0.78348 0.32236 0.98091
 H114 H 0.75166 0.30050 1.00061
 H115 H 0.65583 0.32091 0.99570
 H116 H 0.62352 0.30501 0.97204
 H117 H 0.70398 0.26564 0.97027
 H118 H 0.69068 0.26736 1.02660
 H119 H 0.66164 0.25263 1.05374
 H120 H 0.64272 0.32755 1.06957
 H121 H 0.67227 0.34203 1.04299
 H122 H 0.73002 0.31297 1.05436
 H123 H 0.76044 0.34223 1.06690
 H124 H 0.74263 0.38907 1.01164
 H125 H 0.71164 0.36029 1.00020
 H126 H 0.67152 0.24978 0.94629
 C127 C 0.31257 0.68966 1.00999
 C128 C 0.31631 0.68399 0.98835
 C129 C 0.30354 0.66366 0.97686
 C130 C 0.33360 0.69768 0.97436
 C131 C 0.32582 0.71011 1.02100
 C132 C 0.29553 0.67570 1.02405
 C133 C 0.31717 0.64443 0.96793
 C134 C 0.30666 0.62760 0.95335
 C135 C 0.28235 0.62990 0.94706
 C136 C 0.26833 0.64840 0.95699
 C137 C 0.27889 0.66520 0.97181
 C138 C 0.35806 0.70003 0.98024
 C139 C 0.37438 0.71069 0.96559
 C140 C 0.36653 0.71846 0.94471
 C141 C 0.34210 0.71648 0.93901
 C142 C 0.32577 0.70634 0.95375
 C143 C 0.32390 0.73425 1.01349
 C144 C 0.33700 0.75312 1.02379
 C145 C 0.35240 0.74836 1.04201
 C146 C 0.35363 0.72391 1.04961
 C147 C 0.34046 0.70519 1.03932
 C148 C 0.27941 0.68861 1.03751
 C149 C 0.26467 0.67629 1.05234
 C150 C 0.26541 0.65050 1.05409
 C151 C 0.28118 0.63755 1.03997
 C152 C 0.29635 0.65003 1.02547
 H153 H 0.33624 0.64303 0.97162
 H154 H 0.31779 0.61321 0.94644
 H155 H 0.24960 0.65071 0.95240
 H156 H 0.26821 0.68018 0.97832
 H157 H 0.36465 0.69291 0.99579
 H158 H 0.39325 0.71189 0.97014
 H159 H 0.30704 0.70466 0.94882
 H160 H 0.31218 0.73849 0.99966
 H161 H 0.33425 0.77147 1.01770
 H162 H 0.36563 0.71858 1.06284
 H163 H 0.34220 0.68661 1.04532
 H164 H 0.27834 0.70841 1.03667
 H165 H 0.25223 0.68718 1.06197
 H166 H 0.28310 0.61786 1.04100
 H167 H 0.30926 0.63963 1.01591
 H168 H 0.33574 0.72245 0.92297
 C169 C -0.01541 0.33899 0.33038
 C170 C 0.00882 0.33504 0.33159
 C171 C 0.02022 0.32034 0.34950
 C172 C 0.02445 0.34484 0.31401
 C173 C -0.02616 0.35198 0.31133
 C174 C -0.03262 0.32840 0.34625
 C175 C 0.01424 0.32419 0.37181
 C176 C 0.02235 0.30802 0.38804
 C177 C 0.03738 0.28830 0.38241
 C178 C 0.04494 0.28557 0.36045
 C179 C 0.03635 0.30139 0.34412
 C180 C 0.03424 0.36842 0.31621
 C181 C 0.04470 0.37987 0.29804
 C182 C 0.04524 0.36793 0.27737
 C183 C 0.03651 0.34381 0.27555
 C184 C 0.02633 0.33229 0.29378
 C185 C -0.03126 0.33893 0.29189
 C186 C -0.03981 0.35105 0.27322
 C187 C -0.04425 0.37655 0.27373
 C188 C -0.04007 0.38932 0.29381
 C189 C -0.03073 0.37720 0.31228
 C190 C -0.03464 0.30299 0.34867
 C191 C -0.05116 0.29315 0.36350
 C192 C -0.06636 0.30852 0.37618
 C193 C -0.06410 0.33414 0.37339
 C194 C -0.04755 0.34386 0.35858
 H195 H 0.00260 0.33921 0.37658
 H196 H 0.01657 0.31063 0.40495
 H197 H 0.05651 0.27045 0.35576
 H198 H 0.04151 0.29810 0.32714
 H199 H 0.03261 0.37843 0.33165
 H200 H 0.05114 0.39853 0.29981
 H201 H 0.01868 0.31413 0.29181
 H202 H -0.02816 0.31934 0.29105
 H203 H -0.04366 0.34011 0.25863
 H204 H -0.04265 0.40895 0.29502
 H205 H -0.02668 0.38757 0.32718
 H206 H -0.02354 0.29075 0.33891
 H207 H -0.05254 0.27340 0.36410
 H208 H -0.07433 0.34704 0.38319
 H209 H -0.04611 0.36357 0.35707
 H210 H 0.03692 0.33416 0.25985
 C211 C -0.01028 0.66189 0.66716
 C212 C 0.01407 0.66014 0.66771
 C213 C 0.02952 0.67295 0.65154
 C214 C 0.02658 0.64305 0.68273
 C215 C -0.02606 0.64718 0.68181
 C216 C -0.02279 0.67634 0.65002
 C217 C 0.04386 0.65904 0.63718
 C218 C 0.06020 0.67046 0.62320
 C219 C 0.06282 0.69610 0.62344
 C220 C 0.04783 0.71013 0.63732
 C221 C 0.03130 0.69862 0.65128
 C222 C 0.02518 0.61768 0.67900
 C223 C 0.03974 0.60176 0.69113
 C224 C 0.05560 0.61098 0.70736
 C225 C 0.05621 0.63629 0.71170
 C226 C 0.04201 0.65226 0.69924
 C227 C -0.02423 0.64856 0.70492
 C228 C -0.04047 0.63570 0.71823
 C229 C -0.05927 0.62152 0.70870
 C230 C -0.06034 0.61985 0.68542
 C231 C -0.04406 0.63243 0.67229
 C232 C -0.03573 0.69731 0.65605
 C233 C -0.05147 0.70831 0.64100
 C234 C -0.05533 0.69792 0.61981
 C235 C -0.04118 0.67749 0.61362
 C236 C -0.02494 0.66702 0.62850
 H237 H 0.04259 0.63922 0.63697
 H238 H 0.07101 0.65914 0.61235
 H239 H 0.04951 0.72990 0.63799
 H240 H 0.02049 0.70964 0.66238
 H241 H 0.01357 0.61036 0.66609
 H242 H 0.03902 0.58228 0.68757
 H243 H 0.04344 0.67184 0.70210
 H244 H -0.01068 0.66011 0.71267
 H245 H -0.03892 0.63811 0.73594
 H246 H -0.07330 0.60818 0.67703
 H247 H -0.04557 0.63055 0.65452
 H248 H -0.03442 0.70452 0.67275
 H249 H -0.06204 0.72369 0.64682
 H250 H -0.04253 0.66948 0.59725
 H251 H -0.01503 0.65076 0.62364
 H252 H 0.06848 0.64376 0.72402
 C253 C 1.01311 0.70244 0.31509
 C254 C 0.98876 0.70400 0.31741
 C255 C 0.97790 0.71426 0.33789
 C256 C 0.97176 0.69279 0.30107
 C257 C 1.02470 0.68869 0.29665
 C258 C 1.03007 0.71267 0.33196
 C259 C 0.98290 0.70366 0.35846
 C260 C 0.97082 0.71163 0.37735
 C261 C 0.95334 0.73021 0.37602
 C262 C 0.94885 0.74129 0.35552
 C263 C 0.96091 0.73323 0.33657
 C264 C 0.95352 0.67714 0.30861
 C265 C 0.93823 0.66519 0.29370
 C266 C 0.94089 0.66845 0.27088
 C267 C 0.95879 0.68441 0.26321
 C268 C 0.97388 0.69681 0.27822
 C269 C 1.04372 0.69966 0.28528
 C270 C 1.05803 0.68591 0.27100
 C271 C 1.05357 0.66070 0.26742
 C272 C 1.03331 0.65018 0.27772
 C273 C 1.01940 0.66388 0.29254
 C274 C 1.02915 0.73730 0.33879
 C275 C 1.04652 0.74674 0.35347
 C276 C 1.06566 0.73189 0.36109
 C277 C 1.06591 0.70702 0.35449
 C278 C 1.04837 0.69761 0.34027
 H279 H 0.99561 0.68868 0.35977
 H280 H 0.97473 0.70285 0.39296
 H281 H 0.93525 0.75540 0.35396
 H282 H 0.95663 0.74142 0.32078
 H283 H 0.95149 0.67364 0.32609
 H284 H 0.92466 0.65282 0.30000
 H285 H 0.98745 0.70919 0.27200
 H286 H 1.04809 0.71879 0.28816
 H287 H 1.07258 0.69524 0.26271
 H288 H 1.02928 0.63085 0.27593
 H289 H 1.00525 0.65478 0.30159
 H290 H 1.01540 0.74939 0.33230
 H291 H 1.04563 0.76603 0.35765
 H292 H 1.07930 0.69439 0.36070
 H293 H 1.04922 0.67843 0.33554
 H294 H 0.96098 0.68735 0.24567
 C295 C 1.01201 0.29256 0.69074
 C296 C 0.98764 0.29202 0.69335
 C297 C 0.97156 0.27757 0.67840
 C298 C 0.97608 0.30714 0.71082
 C299 C 1.02681 0.31139 0.70236
 C300 C 1.02447 0.27402 0.67702
 C301 C 0.97360 0.27939 0.65533
 C302 C 0.95717 0.26741 0.64135
 C303 C 0.93817 0.25362 0.65017
 C304 C 0.93646 0.25141 0.67324
 C305 C 0.95293 0.26333 0.68720
 C306 C 0.95993 0.32578 0.70507
 C307 C 0.95168 0.34222 0.72114
 C308 C 0.95925 0.34010 0.74330
 C309 C 0.97448 0.32059 0.74913
 C310 C 0.98277 0.30423 0.73305
 C311 C 1.04415 0.30447 0.71808
 C312 C 1.05435 0.32208 0.73228
 C313 C 1.04721 0.34673 0.73091
 C314 C 1.03125 0.35381 0.71407
 C315 C 1.02135 0.33633 0.69975
 C316 C 1.02115 0.24906 0.68114
 C317 C 1.03138 0.23142 0.66732
 C318 C 1.04505 0.23822 0.64868
 C319 C 1.04915 0.26357 0.64540
 C320 C 1.03910 0.28117 0.65949
 H321 H 0.98743 0.29078 0.64814
 H322 H 0.95872 0.26981 0.62368
 H323 H 0.92216 0.24070 0.68051
 H324 H 0.95097 0.26171 0.70493
 H325 H 0.95466 0.32832 0.68798
 H326 H 0.94016 0.35717 0.71604
 H327 H 0.99503 0.28973 0.73779
 H328 H 1.04859 0.28531 0.72030
 H329 H 1.06665 0.31625 0.74517
 H330 H 1.02578 0.37278 0.71251
 H331 H 1.00828 0.34203 0.68746
 H332 H 1.01043 0.24322 0.69504
 H333 H 1.02876 0.21247 0.67177
 H334 H 1.05891 0.27026 0.63129
 H335 H 1.04186 0.30044 0.65613
 H336 H 0.98023 0.31813 0.76610
 C337 C 0.33123 -0.00809 0.33118
 C338 C 0.32796 0.01604 0.32605
 C339 C 0.34231 0.02776 0.30842
 C340 C 0.30951 0.03144 0.33707
 C341 C 0.31460 -0.02117 0.34621
 C342 C 0.35069 -0.02250 0.32047
 C343 C 0.35907 0.04608 0.31385
 C344 C 0.37487 0.05487 0.29784
 C345 C 0.37390 0.04573 0.27602
 C346 C 0.35620 0.02820 0.27048
 C347 C 0.34057 0.01929 0.28653
 C348 C 0.30844 0.03321 0.36020
 C349 C 0.28970 0.04605 0.37034
 C350 C 0.27183 0.05751 0.35750
 C351 C 0.27363 0.05668 0.33436
 C352 C 0.29235 0.04383 0.32425
 C353 C 0.28966 -0.02109 0.34221
 C354 C 0.27386 -0.03134 0.35743
 C355 C 0.28268 -0.04220 0.37686
 C356 C 0.30775 -0.04344 0.38027
 C357 C 0.32357 -0.03304 0.36503
 C358 C 0.34485 -0.04247 0.30677
 C359 C 0.36204 -0.05232 0.29243
 C360 C 0.38536 -0.04199 0.29118
 C361 C 0.39158 -0.02341 0.30657
 C362 C 0.37457 -0.01413 0.32127
 H363 H 0.36066 0.05273 0.33071
 H364 H 0.38840 0.06816 0.30278
 H365 H 0.35453 0.02119 0.25376
 H366 H 0.32753 0.00529 0.28205
 H367 H 0.32177 0.02411 0.37038
 H368 H 0.28870 0.04625 0.38820
 H369 H 0.29297 0.04287 0.30638
 H370 H 0.28240 -0.01256 0.32750
 H371 H 0.25469 -0.03063 0.35408
 H372 H 0.31507 -0.05165 0.39509
 H373 H 0.34277 -0.03346 0.36831
 H374 H 0.32651 -0.04926 0.30599
 H375 H 0.35615 -0.06646 0.28098
 H376 H 0.40959 -0.01582 0.30729
 H377 H 0.37961 0.00079 0.33228
 H378 H 0.26034 0.06567 0.32407
 C379 C 0.66616 0.00058 0.67414
 C380 C 0.67146 0.02472 0.67117
 C381 C 0.65988 0.04475 0.68398
 C382 C 0.68859 0.03230 0.65395
 C383 C 0.67823 -0.01875 0.66072
 C384 C 0.64797 -0.00795 0.69037
 C385 C 0.64703 0.06297 0.67271
 C386 C 0.63470 0.08115 0.68437
 C387 C 0.63517 0.08173 0.70760
 C388 C 0.64870 0.06386 0.71887
 C389 C 0.66101 0.04558 0.70715
 C390 C 0.68220 0.03064 0.63153
 C391 C 0.69864 0.03752 0.61533
 C392 C 0.72177 0.04564 0.62141
 C393 C 0.72813 0.04718 0.64385
 C394 C 0.71151 0.04084 0.66005
 C395 C 0.70329 -0.02215 0.66178
 C396 C 0.71429 -0.04059 0.64919
 C397 C 0.70035 -0.05614 0.63556
 C398 C 0.67526 -0.05260 0.63458
 C399 C 0.66433 -0.03417 0.64710
 C400 C 0.65352 -0.02773 0.70414
 C401 C 0.63682 -0.03625 0.71941
 C402 C 0.61417 -0.02483 0.72173
 C403 C 0.60861 -0.00507 0.70768
 C404 C 0.62503 0.00278 0.69182
 H405 H 0.64588 0.06264 0.65484
 H406 H 0.62419 0.09434 0.67515
 H407 H 0.64976 0.06401 0.73673
 H408 H 0.67113 0.03188 0.71614
 H409 H 0.66450 0.02409 0.62665
 H410 H 0.69345 0.03626 0.59808
 H411 H 0.71661 0.04220 0.67732
 H412 H 0.71428 -0.01072 0.67254
 H413 H 0.73359 -0.04307 0.65052
 H414 H 0.66406 -0.06403 0.62400
 H415 H 0.64498 -0.03181 0.64607
 H416 H 0.67101 -0.03646 0.70327
 H417 H 0.64231 -0.05106 0.73010
 H418 H 0.59113 0.00367 0.70810
 H419 H 0.61974 0.01722 0.68064
 H420 H 0.74583 0.05365 0.64882
 C421 C 0.30793 1.02437 0.68801
 C422 C 0.30551 1.00033 0.69347
 C423 C 0.31742 0.98970 0.71325
 C424 C 0.29200 0.98264 0.67930
 C425 C 0.29791 1.03404 0.66697
 C426 C 0.32025 1.04177 0.70320
 C427 C 0.34261 0.99008 0.71554
 C428 C 0.35393 0.97592 0.73174
 C429 C 0.34024 0.96098 0.74574
 C430 C 0.31498 0.96182 0.74424
 C431 C 0.30370 0.97598 0.72811
 C432 C 0.30362 0.96129 0.67202
 C433 C 0.29115 0.94376 0.65962
 C434 C 0.26672 0.94714 0.65429
 C435 C 0.25511 0.96873 0.66123
 C436 C 0.26762 0.98628 0.67384
 C437 C 0.28071 1.05287 0.66740
 C438 C 0.26837 1.05939 0.64808
 C439 C 0.27306 1.04716 0.62803
 C440 C 0.29142 1.02945 0.62739
 C441 C 0.30390 1.02314 0.64664
 C442 C 0.31141 1.04576 0.72459
 C443 C 0.32406 1.06069 0.73949
 C444 C 0.34585 1.07175 0.73330
 C445 C 0.35449 1.06801 0.71177
 C446 C 0.34164 1.05330 0.69675
 H447 H 0.35356 1.00012 0.70395
 H448 H 0.37343 0.97540 0.73233
 H449 H 0.30398 0.95073 0.75499
 H450 H 0.28425 0.97539 0.72655
 H451 H 0.32242 0.95817 0.67600
 H452 H 0.30064 0.92749 0.65416
 H453 H 0.25824 1.00248 0.67960
 H454 H 0.27592 1.06160 0.68290
 H455 H 0.25428 1.07306 0.64905
 H456 H 0.29570 1.02007 0.61208
 H457 H 0.31749 1.00893 0.64587
 H458 H 0.29490 1.03700 0.72980
 H459 H 0.31708 1.06321 0.75602
 H460 H 0.37109 1.07657 0.70654
 H461 H 0.34870 1.05034 0.68031
 H462 H 0.23625 0.97167 0.65741
 C463 C 0.70016 1.00269 0.30526
 C464 C 0.69994 0.97825 0.30938
 C465 C 0.68521 0.96055 0.29627
 C466 C 0.71369 0.96809 0.32817
 C467 C 0.71157 1.02072 0.32074
 C468 C 0.68704 1.01363 0.28635
 C469 C 0.66915 0.94512 0.30735
 C470 C 0.65500 0.92828 0.29567
 C471 C 0.65661 0.92638 0.27258
 C472 C 0.67276 0.94175 0.26140
 C473 C 0.68710 0.95857 0.27318
 C474 C 0.70559 0.97100 0.34995
 C475 C 0.71909 0.96156 0.36751
 C476 C 0.74100 0.94959 0.36344
 C477 C 0.74900 0.94665 0.34166
 C478 C 0.73525 0.95555 0.32410
 C479 C 0.73619 1.02011 0.32621
 C480 C 0.74633 1.03825 0.33998
 C481 C 0.73221 1.05795 0.34794
 C482 C 0.70742 1.05800 0.34254
 C483 C 0.69734 1.03969 0.32927
 C484 C 0.69996 1.02802 0.27144
 C485 C 0.68787 1.04305 0.25653
 C486 C 0.66260 1.04413 0.25638
 C487 C 0.64960 1.02841 0.27025
 C488 C 0.66177 1.01331 0.28524
 H489 H 0.66728 0.94634 0.32512
 H490 H 0.64245 0.91700 0.30471
 H491 H 0.67450 0.94051 0.24362
 H492 H 0.69972 0.96994 0.26431
 H493 H 0.68892 0.98060 0.35326
 H494 H 0.71274 0.96400 0.38427
 H495 H 0.74164 0.95317 0.30735
 H496 H 0.74769 1.00598 0.31940
 H497 H 0.76550 1.03746 0.34324
 H498 H 0.69534 1.07176 0.34908
 H499 H 0.67824 1.04039 0.32557
 H500 H 0.71946 1.02858 0.27217
 H501 H 0.69829 1.05479 0.24585
 H502 H 0.63011 1.02908 0.27060
 H503 H 0.65150 1.00265 0.29691
 H504 H 0.76584 0.93738 0.33828
 O505 O 0.85619 0.82189 0.49437
 O506 O 0.81536 0.85168 0.53501
 O507 O 0.84609 0.81522 0.53540
 O508 O 0.82904 0.86120 0.49435
 O509 O 0.79881 0.83780 0.48338
 O510 O 0.81711 0.79058 0.52348
 O511 O 0.78690 0.82542 0.52520
 O512 O 0.82630 0.79720 0.48448
 Cu513 Cu 0.83946 0.84019 0.51586
 Cu514 Cu 0.80387 0.81151 0.50248
 C515 C 0.84820 0.80364 0.48325
 C516 C 0.79422 0.84298 0.53735
 C517 C 0.83543 0.79462 0.53573
 C518 C 0.81118 0.85732 0.48168
 O519 O 0.10686 0.14502 0.47793
 O520 O 0.14827 0.10447 0.50839
 O521 O 0.11242 0.13261 0.51864
 O522 O 0.14141 0.11517 0.46682
 O523 O 0.16893 0.14397 0.47188
 O524 O 0.13663 0.16455 0.52201
 O525 O 0.17288 0.13569 0.51424
 O526 O 0.13375 0.17483 0.47995
 Cu527 Cu 0.12476 0.12121 0.49244
 Cu528 Cu 0.15567 0.15785 0.49734
 C529 C 0.11330 0.16684 0.47368
 C530 C 0.16734 0.11334 0.51706
 C531 C 0.11914 0.15173 0.52902
 C532 C 0.16030 0.12618 0.46065
 O533 O 0.14687 0.81758 0.52535
 O534 O 0.17274 0.86620 0.49079
 O535 O 0.14797 0.82617 0.48303
 O536 O 0.17209 0.85705 0.53323
 O537 O 0.20523 0.83489 0.53028
 O538 O 0.18207 0.80575 0.47999
 O539 O 0.20664 0.84540 0.48802
 O540 O 0.18037 0.79624 0.52175
 Cu541 Cu 0.15657 0.84399 0.50834
 Cu542 Cu 0.19702 0.81860 0.50464
 C543 C 0.15926 0.79856 0.52950
 C544 C 0.19401 0.86411 0.48339
 C545 C 0.16102 0.81055 0.47301
 C546 C 0.19258 0.85050 0.54058
 O547 O 0.82877 0.14830 0.46584
 O548 O 0.85642 0.17476 0.51685
 O549 O 0.83120 0.13583 0.50743
 O550 O 0.85518 0.18696 0.47508
 O551 O 0.82257 0.20861 0.48221
 O552 O 0.79752 0.15647 0.51267
 O553 O 0.82256 0.19468 0.52325
 O554 O 0.79648 0.17091 0.47183
 Cu555 Cu 0.84626 0.15936 0.49060
 Cu556 Cu 0.80649 0.18478 0.49807
 C557 C 0.80788 0.15553 0.46007
 C558 C 0.84380 0.18884 0.52900
 C559 C 0.81029 0.13744 0.51568
 C560 C 0.84306 0.20658 0.47317
 O561 O 0.52137 0.84465 0.86249
 O562 O 0.46505 0.87191 0.84077
 O563 O 0.47565 0.83378 0.86484
 O564 O 0.51019 0.88309 0.83822
 O565 O 0.51322 0.86022 0.80808
 O566 O 0.47942 0.81094 0.83481
 O567 O 0.46788 0.84820 0.81111
 O568 O 0.52456 0.82266 0.83189
 Cu569 Cu 0.49287 0.86064 0.85468
 Cu570 Cu 0.49666 0.83328 0.81844
 C571 C 0.53252 0.82893 0.85080
 C572 C 0.45684 0.86439 0.82228
 C573 C 0.47153 0.81395 0.85429
 C574 C 0.51730 0.88011 0.81848
 O575 O 0.53221 0.17953 0.14202
 O576 O 0.49313 0.13281 0.16705
 O577 O 0.48568 0.17183 0.14303
 O578 O 0.53921 0.14080 0.16640
 O579 O 0.53692 0.16475 0.19593
 O580 O 0.48245 0.19359 0.17377
 O581 O 0.49081 0.15526 0.19746
 O582 O 0.52852 0.20265 0.17187
 Cu583 Cu 0.51281 0.15399 0.15154
 Cu584 Cu 0.50936 0.18133 0.18777
 C585 C 0.53714 0.19906 0.15272
 C586 C 0.48541 0.13598 0.18658
 C587 C 0.47474 0.18776 0.15466
 C588 C 0.54731 0.14787 0.18507
 O589 O 0.52638 0.15303 0.82285
 O590 O 0.48545 0.16930 0.86781
 O591 O 0.48017 0.14641 0.83042
 O592 O 0.52953 0.18108 0.85857
 O593 O 0.51737 0.21436 0.84132
 O594 O 0.46822 0.18098 0.81501
 O595 O 0.47477 0.20324 0.85073
 O596 O 0.51536 0.18614 0.80482
 Cu597 Cu 0.50668 0.15904 0.84645
 Cu598 Cu 0.49365 0.19903 0.82546
 C599 C 0.52790 0.16667 0.80609
 C600 C 0.47307 0.18883 0.86711
 C601 C 0.46518 0.15838 0.81868
 C602 C 0.53132 0.20402 0.85502
 O603 O 0.53123 0.86439 0.16541
 O604 O 0.47952 0.85343 0.12818
 O605 O 0.48794 0.88145 0.16313
 O606 O 0.52291 0.83562 0.13171
 O607 O 0.50922 0.80657 0.15351
 O608 O 0.47461 0.85221 0.18490
 O609 O 0.46637 0.82435 0.15018
 O610 O 0.51831 0.83501 0.18723
 Cu611 Cu 0.50657 0.86167 0.14485
 Cu612 Cu 0.49073 0.82671 0.17120
 C613 C 0.53360 0.85158 0.18271
 C614 C 0.46439 0.83667 0.13253
 C615 C 0.47572 0.87468 0.17969
 C616 C 0.52189 0.81319 0.13722
 O617 O 0.86970 0.52365 0.83242
 O618 O 0.85411 0.47894 0.87557
 O619 O 0.88407 0.47967 0.84272
 O620 O 0.83887 0.52271 0.86529
 O621 O 0.81126 0.50568 0.84375
 O622 O 0.85636 0.46415 0.82035
 O623 O 0.82696 0.46235 0.85324
 O624 O 0.84131 0.50791 0.81093
 Cu625 Cu 0.86446 0.50299 0.85620
 Cu626 Cu 0.83120 0.48352 0.82984
 C627 C 0.85817 0.52330 0.81422
 C628 C 0.83802 0.46284 0.87169
 C629 C 0.87784 0.46451 0.82765
 C630 C 0.81715 0.52114 0.85861
 O631 O 0.14257 0.48724 0.12393
 O632 O 0.12068 0.53354 0.16359
 O633 O 0.15042 0.53386 0.13070
 O634 O 0.11303 0.48682 0.15727
 O635 O 0.14273 0.47888 0.18053
 O636 O 0.18067 0.52474 0.15314
 O637 O 0.15162 0.52559 0.18555
 O638 O 0.17222 0.47795 0.14679
 Cu639 Cu 0.12863 0.51110 0.14157
 Cu640 Cu 0.16482 0.50061 0.16873
 C641 C 0.16111 0.47464 0.12859
 C642 C 0.13289 0.53795 0.18099
 C643 C 0.17172 0.53759 0.13776
 C644 C 0.12138 0.47505 0.17364
 O645 O 0.86771 0.54116 0.11802
 O646 O 0.89701 0.49501 0.15217
 O647 O 0.87232 0.49448 0.11542
 O648 O 0.88925 0.54272 0.15626
 O649 O 0.85441 0.53702 0.17277
 O650 O 0.83933 0.48719 0.13449
 O651 O 0.86369 0.48987 0.17133
 O652 O 0.83302 0.53441 0.13451
 Cu653 Cu 0.88517 0.51892 0.13394
 Cu654 Cu 0.84431 0.51153 0.15518
 C655 C 0.84534 0.54526 0.11982
 C656 C 0.88550 0.48434 0.16733
 C657 C 0.85273 0.48272 0.11807
 C658 C 0.87410 0.54861 0.17110
 O659 O 0.16781 0.52076 0.86175
 O660 O 0.12465 0.47459 0.84111
 O661 O 0.15528 0.47727 0.87424
 O662 O 0.13756 0.51766 0.82831
 O663 O 0.16553 0.50066 0.80750
 O664 O 0.18360 0.46099 0.85336
 O665 O 0.15302 0.45778 0.82062
 O666 O 0.19592 0.50462 0.84055
 Cu667 Cu 0.14352 0.49923 0.85349
 Cu668 Cu 0.17744 0.47941 0.82850
 C669 C 0.18933 0.52046 0.85479
 C670 C 0.13129 0.45860 0.82704
 C671 C 0.17268 0.46241 0.87169
 C672 C 0.14812 0.51551 0.80982
 C673 C 0.21619 0.39603 0.08632
 C674 C 0.19906 0.40390 0.07148
 C675 C 0.19725 0.39457 0.05009
 C676 C 0.21385 0.37649 0.04372
 C677 C 0.23177 0.36803 0.05873
 C678 C 0.23272 0.37795 0.08042
 O679 O 0.21529 0.40767 0.10562
 C680 C 0.19721 0.42327 0.10291
 C681 C 0.18662 0.42168 0.08234
 C682 C 0.16755 0.43659 0.07594
 C683 C 0.15910 0.45387 0.09136
 C684 C 0.16986 0.45601 0.11266
 C685 C 0.18918 0.44035 0.11844
 H686 H 0.18378 0.40124 0.03861
 H687 H 0.21310 0.36957 0.02691
 H688 H 0.24598 0.37190 0.09237
 H689 H 0.15954 0.43506 0.05963
 H690 H 0.14433 0.46571 0.08660
 H691 H 0.19784 0.44146 0.13450
 C692 C 0.77849 0.61138 0.07417
 C693 C 0.79901 0.60897 0.06178
 C694 C 0.80201 0.62031 0.04153
 C695 C 0.78307 0.63483 0.03368
 C696 C 0.76169 0.63806 0.04619
 C697 C 0.75946 0.62601 0.06679
 O698 O 0.77924 0.59857 0.09277
 C699 C 0.80074 0.58788 0.09204
 C700 C 0.81352 0.59380 0.07344
 C701 C 0.83642 0.58486 0.06921
 C702 C 0.84666 0.56910 0.08479
 C703 C 0.83390 0.56240 0.10412
 C704 C 0.81051 0.57196 0.10775
 H705 H 0.81825 0.61782 0.03198
 H706 H 0.78497 0.64317 0.01763
 H707 H 0.74352 0.62806 0.07684
 H708 H 0.84607 0.58982 0.05442
 H709 H 0.86448 0.56190 0.08159
 H710 H 0.80032 0.56725 0.12231
 C711 C 0.79187 0.38271 0.91920
 C712 C 0.80831 0.39355 0.93331
 C713 C 0.81050 0.38697 0.95539
 C714 C 0.79486 0.36881 0.96329
 C715 C 0.77746 0.35759 0.94911
 C716 C 0.77638 0.36447 0.92661
 O717 O 0.79177 0.39239 0.89917
 C718 C 0.80844 0.40977 0.90066
 C719 C 0.81917 0.41126 0.92117
 C720 C 0.83647 0.42886 0.92648
 C721 C 0.84289 0.44563 0.90999
 C722 C 0.83188 0.44460 0.88874
 C723 C 0.81450 0.42621 0.88409
 H724 H 0.82329 0.39601 0.96631
 H725 H 0.79567 0.36429 0.98066
 H726 H 0.76338 0.35639 0.91529
 H727 H 0.84453 0.42985 0.94280
 H728 H 0.85617 0.45958 0.91390
 H729 H 0.80560 0.42493 0.86815
 C730 C 0.24035 0.58977 0.91274
 C731 C 0.25491 0.58448 0.89503
 C732 C 0.27820 0.59351 0.89322
 C733 C 0.28690 0.60855 0.91038
 C734 C 0.27241 0.61413 0.92905
 C735 C 0.24866 0.60468 0.93007
 O736 O 0.21896 0.57890 0.91140
 C737 C 0.22011 0.56649 0.89247
 C738 C 0.24173 0.56927 0.88183
 C739 C 0.24711 0.55725 0.86213
 C740 C 0.22953 0.54152 0.85310
 C741 C 0.20707 0.53823 0.86376
 C742 C 0.20228 0.55116 0.88366
 H743 H 0.28930 0.58911 0.87910
 H744 H 0.30490 0.61601 0.90901
 H745 H 0.23719 0.60839 0.94410
 H746 H 0.26434 0.55961 0.85416
 H747 H 0.23353 0.53175 0.83792
 H748 H 0.18548 0.54881 0.89239
 C749 C 0.07239 0.24362 0.41766
 C750 C 0.05378 0.23181 0.42808
 C751 C 0.02975 0.23818 0.42494
 C752 C 0.02467 0.25737 0.41031
 C753 C 0.04348 0.26944 0.39894
 C754 C 0.06771 0.26246 0.40271
 O755 O 0.09393 0.23487 0.42313
 C756 C 0.08879 0.21705 0.43719
 C757 C 0.06446 0.21428 0.44060
 C758 C 0.05503 0.19619 0.45411
 C759 C 0.07134 0.18036 0.46461
 C760 C 0.09654 0.18317 0.46178
 C761 C 0.10536 0.20187 0.44788
 H762 H 0.01542 0.22866 0.43337
 H763 H 0.00607 0.26243 0.40737
 H764 H 0.08238 0.27138 0.39422
 H765 H 0.03580 0.19423 0.45639
 H766 H 0.06436 0.16620 0.47527
 H767 H 0.12450 0.20429 0.44526
 C768 C 0.09626 0.74019 0.58622
 C769 C 0.11808 0.72843 0.58453
 C770 C 0.12308 0.70656 0.59520
 C771 C 0.10480 0.69627 0.60806
 C772 C 0.08193 0.70779 0.60996
 C773 C 0.07775 0.73025 0.59892
 O774 O 0.09532 0.76086 0.57477
 C775 C 0.11702 0.76213 0.56567
 C776 C 0.13159 0.74270 0.57112
 C777 C 0.15499 0.74026 0.56340
 C778 C 0.16382 0.75866 0.54955
 C779 C 0.14928 0.77906 0.54371
 C780 C 0.12545 0.78070 0.55194
 H781 H 0.14047 0.69776 0.59374
 H782 H 0.10861 0.67941 0.61672
 H783 H 0.06053 0.73948 0.59989
 H784 H 0.16609 0.72476 0.56792
 H785 H 0.18208 0.75705 0.54351
 H786 H 0.11385 0.79597 0.54786
 C787 C 0.91711 0.76543 0.41866
 C788 C 0.90790 0.74627 0.43058
 C789 C 0.91330 0.72189 0.42603
 C790 C 0.92876 0.71698 0.40835
 C791 C 0.93834 0.73630 0.39549
 C792 C 0.93243 0.76094 0.40082
 O793 O 0.90913 0.78719 0.42551
 C794 C 0.89446 0.78155 0.44201
 C795 C 0.89305 0.75670 0.44561
 C796 C 0.87789 0.74644 0.46118
 C797 C 0.86340 0.76240 0.47346
 C798 C 0.86454 0.78810 0.47026
 C799 C 0.88054 0.79792 0.45450
 H800 H 0.90562 0.70715 0.43557
 H801 H 0.93270 0.69805 0.40428
 H802 H 0.93937 0.77606 0.39128
 H803 H 0.87693 0.72680 0.46350
 H804 H 0.85124 0.75477 0.48555
 H805 H 0.88143 0.81746 0.45157
 C806 C 0.90644 0.22361 0.60125
 C807 C 0.88283 0.22640 0.60749
 C808 C 0.87616 0.23715 0.62741
 C809 C 0.89459 0.24554 0.64150
 C810 C 0.91917 0.24319 0.63547
 C811 C 0.92512 0.23193 0.61501
 O812 O 0.90875 0.21332 0.58138
 C813 C 0.88607 0.20964 0.57494
 C814 C 0.86958 0.21743 0.59033
 C815 C 0.84488 0.21621 0.58682
 C816 C 0.83676 0.20666 0.56655
 C817 C 0.85328 0.19838 0.55030
 C818 C 0.87837 0.19972 0.55468
 H819 H 0.85742 0.23930 0.63183
 H820 H 0.88966 0.25452 0.65683
 H821 H 0.94366 0.22986 0.60991
 H822 H 0.83229 0.22263 0.59915
 H823 H 0.81752 0.20568 0.56357
 H824 H 0.89142 0.19377 0.54256
 C825 C 0.41689 0.08539 0.24350
 C826 C 0.42515 0.06877 0.22813
 C827 C 0.41755 0.04448 0.22752
 C828 C 0.40073 0.03705 0.24336
 C829 C 0.39166 0.05392 0.25929
 C830 C 0.40001 0.07849 0.25924
 O831 O 0.42653 0.10752 0.24140
 C832 C 0.44116 0.10483 0.22431
 C833 C 0.44092 0.08151 0.21550
 C834 C 0.45464 0.07484 0.19727
 C835 C 0.46920 0.09296 0.18776
 C836 C 0.46996 0.11711 0.19670
 C837 C 0.45571 0.12302 0.21531
 H838 H 0.42446 0.03164 0.21540
 H839 H 0.39507 0.01805 0.24336
 H840 H 0.39340 0.09197 0.27092
 H841 H 0.45409 0.05640 0.19056
 H842 H 0.48001 0.08812 0.17356
 H843 H 0.45571 0.14129 0.22243
 C844 C 0.59421 0.11160 0.74972
 C845 C 0.59211 0.13482 0.74123
 C846 C 0.60420 0.14212 0.72234
 C847 C 0.61880 0.12472 0.71167
 C848 C 0.62094 0.10044 0.71987
 C849 C 0.60851 0.09399 0.73935
 O850 O 0.58114 0.10827 0.76772
 C851 C 0.57054 0.12983 0.77064
 C852 C 0.57653 0.14672 0.75486
 C853 C 0.56698 0.17032 0.75464
 C854 C 0.55072 0.17676 0.77143
 C855 C 0.54451 0.15971 0.78807
 C856 C 0.55463 0.13588 0.78753
 H857 H 0.60239 0.16053 0.71599
 H858 H 0.62843 0.13019 0.69701
 H859 H 0.60935 0.07561 0.74592
 H860 H 0.57184 0.18329 0.74197
 H861 H 0.54319 0.19507 0.77159
 H862 H 0.55018 0.12233 0.79983
 C863 C 0.38524 0.92928 0.78314
 C864 C 0.37644 0.90570 0.78230
 C865 C 0.35553 0.89933 0.77091
 C866 C 0.34328 0.91797 0.75969
 C867 C 0.35217 0.94241 0.75983
 C868 C 0.37340 0.94812 0.77195
 O869 O 0.40604 0.93113 0.79401
 C870 C 0.41054 0.90819 0.80000
 C871 C 0.39302 0.89192 0.79311
 C872 C 0.39500 0.86672 0.79594
 C873 C 0.41602 0.85790 0.80609
 C874 C 0.43422 0.87431 0.81348
 C875 C 0.43131 0.89985 0.81071
 H876 H 0.34918 0.88057 0.77023
 H877 H 0.32739 0.91313 0.75012
 H878 H 0.38077 0.96651 0.77220
 H879 H 0.38121 0.85425 0.78994
 H880 H 0.41831 0.83831 0.80799
 H881 H 0.44533 0.91261 0.81565
 C882 C 0.61253 0.89911 0.23124
 C883 C 0.60883 0.87636 0.24029
 C884 C 0.62096 0.86845 0.25908
 C885 C 0.63729 0.88478 0.26915
 C886 C 0.64109 0.90859 0.26044
 C887 C 0.62875 0.91563 0.24095
 O888 O 0.59846 0.90340 0.21388
 C889 C 0.58557 0.88297 0.21198
 C890 C 0.59117 0.86586 0.22776
 C891 C 0.57899 0.84366 0.22949
 C892 C 0.56020 0.83895 0.21439
 C893 C 0.55407 0.85629 0.19792
 C894 C 0.56716 0.87854 0.19666
 H895 H 0.61768 0.85051 0.26595
 H896 H 0.64677 0.87900 0.28390
 H897 H 0.63089 0.93378 0.23412
 H898 H 0.58353 0.83061 0.24223
 H899 H 0.55037 0.82186 0.21562
 H900 H 0.56270 0.89235 0.18455
 C901 C 0.40256 0.23630 0.92491
 C902 C 0.40814 0.21388 0.93361
 C903 C 0.39766 0.20512 0.95269
 C904 C 0.38072 0.22008 0.96336
 C905 C 0.37433 0.24375 0.95500
 C906 C 0.38587 0.25159 0.93519
 O907 O 0.41431 0.24107 0.90639
 C908 C 0.42773 0.22121 0.90343
 C909 C 0.42465 0.20403 0.91967
 C910 C 0.43690 0.18184 0.91985
 C911 C 0.45297 0.17715 0.90253
 C912 C 0.45641 0.19450 0.88543
 C913 C 0.44354 0.21690 0.88599
 H914 H 0.40254 0.18742 0.95933
 H915 H 0.37383 0.21328 0.97878
 H916 H 0.38143 0.26852 0.92699
 H917 H 0.43417 0.16860 0.93281
 H918 H 0.46257 0.15988 0.90241
 H919 H 0.44570 0.23054 0.87326
 C920 C 0.60299 0.78058 0.90786
 C921 C 0.60945 0.77668 0.88621
 C922 C 0.62742 0.76037 0.88000
 C923 C 0.63911 0.74733 0.89679
 C924 C 0.63270 0.75079 0.91926
 C925 C 0.61462 0.76799 0.92489
 O926 O 0.58431 0.79563 0.90998
 C927 C 0.57885 0.80126 0.88921
 C928 C 0.59376 0.79016 0.87408
 C929 C 0.59041 0.79213 0.85141
 C930 C 0.57062 0.80577 0.84397
 C931 C 0.55468 0.81714 0.85917
 C932 C 0.55918 0.81522 0.88216
 H933 H 0.63192 0.75738 0.86282
 H934 H 0.65300 0.73431 0.89231
 H935 H 0.60909 0.77062 0.94187
 H936 H 0.60220 0.78292 0.83985
 H937 H 0.56743 0.80702 0.82634
 H938 H 0.54705 0.82321 0.89415
 C939 C 0.39045 0.78296 0.08299
 C940 C 0.39649 0.80323 0.07094
 C941 C 0.38806 0.80690 0.04958
 C942 C 0.37298 0.78885 0.04018
 C943 C 0.36654 0.76729 0.05210
 C944 C 0.37541 0.76490 0.07413
 O945 O 0.40118 0.78228 0.10263
 C946 C 0.41444 0.80252 0.10293
 C947 C 0.41222 0.81606 0.08396
 C948 C 0.42552 0.83730 0.08042
 C949 C 0.44206 0.84458 0.09691
 C950 C 0.44500 0.83061 0.11646
 C951 C 0.43058 0.80949 0.11957
 H952 H 0.39341 0.82280 0.04021
 H953 H 0.36761 0.79139 0.02317
 H954 H 0.37070 0.74965 0.08455
 H955 H 0.42368 0.84755 0.06526
 H956 H 0.45299 0.86070 0.09416
 H957 H 0.43259 0.79814 0.13405
 C958 C 0.60357 0.25090 0.09439
 C959 C 0.60161 0.26416 0.11371
 C960 C 0.61477 0.28541 0.11783
 C961 C 0.63058 0.29335 0.10136
 C962 C 0.63288 0.28016 0.08112
 C963 C 0.61905 0.25855 0.07770
 O964 O 0.58984 0.23094 0.09398
 C965 C 0.57900 0.23163 0.11348
 C966 C 0.58554 0.25163 0.12614
 C967 C 0.57654 0.25582 0.14721
 C968 C 0.56028 0.23861 0.15566
 C969 C 0.55341 0.21761 0.14306
 C970 C 0.56290 0.21424 0.12156
 H971 H 0.61313 0.29538 0.13328
 H972 H 0.64133 0.30957 0.10459
 H973 H 0.62015 0.24808 0.06248
 H974 H 0.58199 0.27169 0.15687
 H975 H 0.55331 0.24152 0.17213
 H976 H 0.55815 0.19843 0.11151
 C977 C 0.23543 0.07842 0.58407
 C978 C 0.22648 0.05835 0.57279
 C979 C 0.23256 0.03443 0.57827
 C980 C 0.24838 0.03104 0.59617
 C981 C 0.25763 0.05140 0.60832
 C982 C 0.25104 0.07546 0.60206
 O983 O 0.22712 0.09955 0.57640
 C984 C 0.21253 0.09267 0.56000
 C985 C 0.21140 0.06765 0.55717
 C986 C 0.19648 0.05646 0.54151
 C987 C 0.18208 0.07169 0.52827
 C988 C 0.18305 0.09758 0.53072
 C989 C 0.19868 0.10815 0.54677
 H990 H 0.22518 0.01891 0.56924
 H991 H 0.25291 0.01251 0.60096
 H992 H 0.25774 0.09136 0.61100
 H993 H 0.19572 0.03672 0.53973
 H994 H 0.17021 0.06331 0.51610
 H995 H 0.19958 0.12781 0.54928
 C996 C 0.77065 0.09304 0.38835
 C997 C 0.75965 0.11554 0.38735
 C998 C 0.74042 0.12042 0.37337
 C999 C 0.73181 0.10124 0.36003
 C1000 C 0.74233 0.07737 0.36075
 C1001 C 0.76260 0.07362 0.37493
 O1002 O 0.78773 0.09203 0.40387
 C1003 C 0.78739 0.11441 0.41280
 C1004 C 0.77052 0.12943 0.40316
 C1005 C 0.76589 0.15308 0.41061
 C1006 C 0.77893 0.16156 0.42899
 C1007 C 0.79630 0.14647 0.43953
 C1008 C 0.80091 0.12264 0.43104
 H1009 H 0.73209 0.13835 0.37294
 H1010 H 0.71720 0.10543 0.34877
 H1011 H 0.77093 0.05582 0.37668
 H1012 H 0.75227 0.16439 0.40288
 H1013 H 0.77523 0.17982 0.43524
 H1014 H 0.81370 0.11055 0.43901
 C1015 C 0.74319 0.90769 0.59919
 C1016 C 0.73133 0.88557 0.59809
 C1017 C 0.70985 0.88116 0.60902
 C1018 C 0.70004 0.90039 0.62153
 C1019 C 0.71166 0.92358 0.62282
 C1020 C 0.73374 0.92714 0.61159
 O1021 O 0.76306 0.90815 0.58704
 C1022 C 0.76370 0.88582 0.57806
 C1023 C 0.74464 0.87137 0.58432
 C1024 C 0.74114 0.84769 0.57635
 C1025 C 0.75786 0.83853 0.56114
 C1026 C 0.77772 0.85299 0.55427
 C1027 C 0.78079 0.87695 0.56309
 H1028 H 0.70087 0.86357 0.60786
 H1029 H 0.68339 0.89718 0.63027
 H1030 H 0.74292 0.94466 0.61199
 H1031 H 0.72589 0.83676 0.58141
 H1032 H 0.75523 0.82016 0.55465
 H1033 H 0.79555 0.88854 0.55798
 C1034 C 0.25318 0.91826 0.42032
 C1035 C 0.23313 0.93209 0.42502
 C1036 C 0.22834 0.95433 0.41483
 C1037 C 0.24485 0.96262 0.39909
 C1038 C 0.26567 0.94868 0.39379
 C1039 C 0.26990 0.92620 0.40475
 O1040 O 0.25406 0.89744 0.43153
 C1041 C 0.23413 0.89816 0.44356
 C1042 C 0.22071 0.91899 0.44020
 C1043 C 0.19892 0.92326 0.45072
 C1044 C 0.19049 0.90524 0.46520
 C1045 C 0.20386 0.88344 0.46890
 C1046 C 0.22614 0.88003 0.45798
 H1047 H 0.21243 0.96489 0.41881
 H1048 H 0.24151 0.98003 0.39117
 H1049 H 0.28545 0.91501 0.40095
 H1050 H 0.18863 0.93976 0.44772
 H1051 H 0.17342 0.90822 0.47334
 H1052 H 0.23672 0.86357 0.46024
 C1053 C 0.08492 0.38488 0.77046
 C1054 C 0.06720 0.39838 0.78069
 C1055 C 0.04293 0.39605 0.77529
 C1056 C 0.03667 0.37910 0.75868
 C1057 C 0.05454 0.36467 0.74811
 C1058 C 0.07903 0.36752 0.75422
 O1059 O 0.10697 0.39098 0.77712
 C1060 C 0.10308 0.40864 0.79189
 C1061 C 0.07904 0.41371 0.79482
 C1062 C 0.07094 0.43202 0.80903
 C1063 C 0.08834 0.44599 0.82041
 C1064 C 0.11331 0.44166 0.81719
 C1065 C 0.12069 0.42240 0.80292
 H1066 H 0.02934 0.40712 0.78332
 H1067 H 0.01790 0.37710 0.75406
 H1068 H 0.09304 0.35700 0.74618
 H1069 H 0.05192 0.43574 0.81096
 H1070 H 0.08232 0.46074 0.83110
 H1071 H 0.13955 0.41874 0.79990
 C1072 C 0.07897 0.61061 0.23215
 C1073 C 0.10302 0.61649 0.23316
 C1074 C 0.11170 0.63698 0.24433
 C1075 C 0.09496 0.65200 0.25512
 C1076 C 0.06988 0.64614 0.25509
 C1077 C 0.06199 0.62492 0.24325
 O1078 O 0.07449 0.59063 0.22011
 C1079 C 0.09626 0.58365 0.21359
 C1080 C 0.11434 0.59873 0.22139
 C1081 C 0.13857 0.59448 0.21721
 C1082 C 0.14442 0.57388 0.20433
 C1083 C 0.12609 0.55844 0.19557
 C1084 C 0.10163 0.56342 0.20021
 H1085 H 0.13076 0.64120 0.24485
 H1086 H 0.10198 0.66743 0.26448
 H1087 H 0.04314 0.61993 0.24209
 H1088 H 0.15248 0.60652 0.22369
 H1089 H 0.16318 0.57028 0.20072
 H1090 H 0.08734 0.55181 0.19379
 C1091 C 0.92505 0.42127 0.23649
 C1092 C 0.93255 0.41267 0.21630
 C1093 C 0.94744 0.39243 0.21393
 C1094 C 0.95486 0.38038 0.23316
 C1095 C 0.94776 0.38888 0.25450
 C1096 C 0.93269 0.40995 0.25594
 O1097 O 0.91054 0.44058 0.23499
 C1098 C 0.90905 0.44433 0.21335
 C1099 C 0.92241 0.42783 0.20125
 C1100 C 0.92421 0.42877 0.17840
 C1101 C 0.91186 0.44759 0.16754
 C1102 C 0.89767 0.46464 0.17954
 C1103 C 0.89603 0.46287 0.20279
 H1104 H 0.95319 0.38611 0.19781
 H1105 H 0.96703 0.36504 0.23125
 H1106 H 0.92620 0.41687 0.27161
 H1107 H 0.93500 0.41569 0.16928
 H1108 H 0.91319 0.44882 0.14974
 H1109 H 0.88557 0.47589 0.21231
 C1110 C 0.91123 0.58856 0.75542
 C1111 C 0.88905 0.58378 0.74617
 C1112 C 0.88259 0.59148 0.72520
 C1113 C 0.89977 0.60439 0.71307
 C1114 C 0.92326 0.60941 0.72183
 C1115 C 0.92864 0.60161 0.74373
 O1116 O 0.91403 0.57857 0.77524
 C1117 C 0.89313 0.56726 0.77848
 C1118 C 0.87724 0.56994 0.76115
 C1119 C 0.85476 0.55871 0.76051
 C1120 C 0.84846 0.54384 0.77836
 C1121 C 0.86456 0.54053 0.79643
 C1122 C 0.88713 0.55273 0.79656
 H1123 H 0.86495 0.58754 0.71832
 H1124 H 0.89422 0.61097 0.69702
 H1125 H 0.94625 0.60417 0.75115
 H1126 H 0.84269 0.56092 0.74655
 H1127 H 0.83115 0.53468 0.77795
 H1128 H 0.89998 0.55027 0.80989
 C1129 C 0.76521 0.59495 0.91076
 C1130 C 0.74867 0.58020 0.90003
 C1131 C 0.72397 0.58250 0.90293
 C1132 C 0.71593 0.60074 0.91754
 C1133 C 0.73253 0.61635 0.92870
 C1134 C 0.75756 0.61353 0.92513
 O1135 O 0.78787 0.58906 0.90616
 C1136 C 0.78553 0.57025 0.89220
 C1137 C 0.76190 0.56426 0.88784
 C1138 C 0.75520 0.54512 0.87385
 C1139 C 0.77362 0.53142 0.86400
 C1140 C 0.79824 0.53685 0.86842
 C1141 C 0.80423 0.55669 0.88272
 H1142 H 0.71135 0.57054 0.89440
 H1143 H 0.69674 0.60287 0.92007
 H1144 H 0.77059 0.62509 0.93360
 H1145 H 0.73645 0.54078 0.87072
 H1146 H 0.76863 0.51628 0.85322
 H1147 H 0.82279 0.56131 0.88648
 C1148 C 0.22685 0.39288 0.92546
 C1149 C 0.21257 0.40655 0.93939
 C1150 C 0.21391 0.40472 0.96227
 C1151 C 0.23066 0.38815 0.97113
 C1152 C 0.24543 0.37374 0.95706
 C1153 C 0.24333 0.37605 0.93389
 O1154 O 0.22361 0.39819 0.90431
 C1155 C 0.20691 0.41555 0.90487
 C1156 C 0.19941 0.42126 0.92590
 C1157 C 0.18241 0.43936 0.93023
 C1158 C 0.17301 0.45233 0.91216
 C1159 C 0.18091 0.44717 0.89034
 C1160 C 0.19793 0.42826 0.88674
 H1161 H 0.20269 0.41585 0.97292
 H1162 H 0.23209 0.38642 0.98890
 H1163 H 0.25464 0.36552 0.92282
 H1164 H 0.17686 0.44361 0.94694
 H1165 H 0.16012 0.46682 0.91526
 H1166 H 0.20445 0.42391 0.87035
 C1167 C 0.22952 0.60224 0.08266
 C1168 C 0.22422 0.61429 0.10202
 C1169 C 0.23161 0.63812 0.10645
 C1170 C 0.24506 0.65012 0.09027
 C1171 C 0.25129 0.63817 0.07002
 C1172 C 0.24329 0.61362 0.06645
 O1173 O 0.22024 0.57978 0.08157
 C1174 C 0.20899 0.57760 0.10076
 C1175 C 0.21107 0.59819 0.11394
 C1176 C 0.20106 0.59984 0.13490
 C1177 C 0.18835 0.57942 0.14259
 C1178 C 0.18563 0.55820 0.12919
 C1179 C 0.19602 0.55721 0.10795
 H1180 H 0.22725 0.64718 0.12189
 H1181 H 0.25145 0.66839 0.09419
 H1182 H 0.24677 0.60381 0.05120
 H1183 H 0.20305 0.61620 0.14499
 H1184 H 0.18035 0.58018 0.15887
 H1185 H 0.19419 0.54108 0.09753
 C1186 C 0.79680 0.40560 0.07470
 C1187 C 0.80911 0.41806 0.05867
 C1188 C 0.80444 0.41473 0.03628
 C1189 C 0.78629 0.39800 0.03017
 C1190 C 0.77337 0.38449 0.04638
 C1191 C 0.77923 0.38832 0.06904
 O1192 O 0.80240 0.41293 0.09503
 C1193 C 0.81870 0.43032 0.09178
 C1194 C 0.82372 0.43400 0.06984
 C1195 C 0.83966 0.45201 0.06277
 C1196 C 0.85043 0.46715 0.07897
 C1197 C 0.84467 0.46433 0.10161
 C1198 C 0.82890 0.44533 0.10806
 H1199 H 0.81411 0.42500 0.02392
 H1200 H 0.78291 0.39518 0.01271
 H1201 H 0.76939 0.37940 0.08210
 H1202 H 0.84320 0.45471 0.04540
 H1203 H 0.86225 0.48180 0.07380
 H1204 H 0.82398 0.44288 0.12518
 C1205 C 0.90032 0.73964 0.59280
 C1206 C 0.88820 0.72329 0.57940
 C1207 C 0.89437 0.69868 0.57797
 C1208 C 0.91363 0.69051 0.59109
 C1209 C 0.92620 0.70680 0.60573
 C1210 C 0.91915 0.73187 0.60638
 O1211 O 0.89271 0.76255 0.59058
 C1212 C 0.87530 0.76056 0.57554
 C1213 C 0.87160 0.73687 0.56836
 C1214 C 0.85467 0.73072 0.55221
 C1215 C 0.84147 0.74988 0.54263
 C1216 C 0.84573 0.77461 0.54905
 C1217 C 0.86258 0.77990 0.56609
 H1218 H 0.88475 0.68620 0.56707
 H1219 H 0.91783 0.67115 0.59046
 H1220 H 0.92859 0.74530 0.61645
 H1221 H 0.85218 0.71194 0.54674
 H1222 H 0.82892 0.74554 0.52939
 H1223 H 0.86648 0.79858 0.57115
 C1224 C 0.90276 0.26577 0.41482
 C1225 C 0.88274 0.27925 0.42017
 C1226 C 0.87844 0.30239 0.41170
 C1227 C 0.89547 0.31206 0.39710
 C1228 C 0.91658 0.29861 0.39111
 C1229 C 0.91995 0.27495 0.40041
 O1230 O 0.90339 0.24404 0.42450
 C1231 C 0.88324 0.24378 0.43615
 C1232 C 0.86994 0.26490 0.43410
 C1233 C 0.84803 0.26833 0.44468
 C1234 C 0.83941 0.24913 0.45778
 C1235 C 0.85274 0.22705 0.46003
 C1236 C 0.87508 0.22452 0.44909
 H1237 H 0.86236 0.31255 0.41593
 H1238 H 0.89135 0.32964 0.38989
 H1239 H 0.93583 0.26402 0.39730
 H1240 H 0.83784 0.28510 0.44277
 H1241 H 0.82227 0.25141 0.46599
 H1242 H 0.88568 0.20793 0.45034
 C1243 C 0.08029 0.20745 0.60376
 C1244 C 0.06872 0.18525 0.60261
 C1245 C 0.04970 0.17919 0.61624
 C1246 C 0.04214 0.19680 0.63167
 C1247 C 0.05364 0.22023 0.63348
 C1248 C 0.07327 0.22522 0.61910
 O1249 O 0.09747 0.20980 0.58874
 C1250 C 0.09657 0.18861 0.57782
 C1251 C 0.07928 0.17295 0.58572
 C1252 C 0.07465 0.15009 0.57637
 C1253 C 0.08825 0.14315 0.55794
 C1254 C 0.10608 0.15905 0.54922
 C1255 C 0.11042 0.18205 0.55953
 H1256 H 0.04058 0.16171 0.61470
 H1257 H 0.02645 0.19222 0.64126
 H1258 H 0.08335 0.24217 0.61983
 H1259 H 0.06084 0.13816 0.58283
 H1260 H 0.08466 0.12548 0.55034
 H1261 H 0.12369 0.19470 0.55320
 C1262 C 0.09913 0.76942 0.40317
 C1263 C 0.12148 0.75882 0.40177
 C1264 C 0.12668 0.73983 0.38725
 C1265 C 0.10800 0.73116 0.37366
 C1266 C 0.08440 0.74152 0.37462
 C1267 C 0.08026 0.76138 0.38953
 O1268 O 0.09782 0.78647 0.41893
 C1269 C 0.11989 0.78659 0.42758
 C1270 C 0.13503 0.77005 0.41754
 C1271 C 0.15870 0.76645 0.42425
 C1272 C 0.16713 0.78034 0.44225
 C1273 C 0.15187 0.79736 0.45323
 C1274 C 0.12790 0.80066 0.44559
 H1275 H 0.14449 0.73181 0.38650
 H1276 H 0.11239 0.71682 0.36193
 H1277 H 0.06263 0.76952 0.39151
 H1278 H 0.17018 0.75319 0.41612
 H1279 H 0.18550 0.77750 0.44779
 H1280 H 0.11573 0.81330 0.45368
 C1281 C 0.58016 0.93425 0.75938
 C1282 C 0.56529 0.95086 0.76964
 C1283 C 0.56529 0.97564 0.76447
 C1284 C 0.58134 0.98361 0.74816
 C1285 C 0.59753 0.96693 0.73768
 C1286 C 0.59668 0.94180 0.74363
 O1287 O 0.57661 0.91136 0.76581
 C1288 C 0.55924 0.91357 0.78062
 C1289 C 0.55184 0.93740 0.78381
 C1290 C 0.53397 0.94378 0.79882
 C1291 C 0.52319 0.92479 0.81084
 C1292 C 0.53006 0.90004 0.80724
 C1293 C 0.54841 0.89443 0.79196
 H1294 H 0.55329 0.98839 0.77263
 H1295 H 0.58174 1.00299 0.74450
 H1296 H 0.60777 0.92811 0.73562
 H1297 H 0.52847 0.96265 0.80113
 H1298 H 0.50902 0.92923 0.82241
 H1299 H 0.55402 0.87569 0.78895
 C1300 C 0.41645 0.92135 0.24751
 C1301 C 0.43174 0.93875 0.23917
 C1302 C 0.43315 0.96241 0.24768
 C1303 C 0.41807 0.96846 0.26542
 C1304 C 0.40150 0.95106 0.27418
 C1305 C 0.40092 0.92706 0.26482
 O1306 O 0.41859 0.89964 0.23766
 C1307 C 0.43550 0.90349 0.22266
 C1308 C 0.44398 0.92719 0.22275
 C1309 C 0.46177 0.93517 0.20841
 C1310 C 0.47145 0.91792 0.19359
 C1311 C 0.46351 0.89316 0.19364
 C1312 C 0.44508 0.88598 0.20830
 H1313 H 0.44538 0.97580 0.24088
 H1314 H 0.41863 0.98719 0.27144
 H1315 H 0.38936 0.91282 0.27120
 H1316 H 0.46815 0.95393 0.20878
 H1317 H 0.48567 0.92367 0.18261
 H1318 H 0.43866 0.86724 0.20879
 C1319 C 0.61700 0.07916 0.22214
 C1320 C 0.62592 0.10257 0.22460
 C1321 C 0.64690 0.10787 0.23631
 C1322 C 0.65915 0.08826 0.24605
 C1323 C 0.65019 0.06393 0.24416
 C1324 C 0.62880 0.05933 0.23192
 O1325 O 0.59632 0.07835 0.21094
 C1326 C 0.59208 0.10177 0.20642
 C1327 C 0.60961 0.11730 0.21457
 C1328 C 0.60804 0.14268 0.21315
 C1329 C 0.58744 0.15248 0.20306
 C1330 C 0.56925 0.13689 0.19432
 C1331 C 0.57171 0.11114 0.19574
 H1332 H 0.65339 0.12650 0.23820
 H1333 H 0.67520 0.09216 0.25573
 H1334 H 0.62143 0.04101 0.23036
 H1335 H 0.62188 0.15451 0.22006
 H1336 H 0.58555 0.17222 0.20212
 H1337 H 0.55773 0.09893 0.18964
 C1338 C 0.39649 0.09958 0.76735
 C1339 C 0.38401 0.11700 0.77916
 C1340 C 0.35931 0.12047 0.77689
 C1341 C 0.34690 0.10531 0.76184
 C1342 C 0.35932 0.08733 0.74927
 C1343 C 0.38453 0.08447 0.75210
 O1344 O 0.41999 0.09965 0.77173
 C1345 C 0.42240 0.11760 0.78656
 C1346 C 0.40089 0.12884 0.79155
 C1347 C 0.39927 0.14890 0.80574
 C1348 C 0.42075 0.15799 0.81493
 C1349 C 0.44313 0.14674 0.81013
 C1350 C 0.44400 0.12602 0.79598
 H1351 H 0.34994 0.13443 0.78629
 H1352 H 0.32768 0.10784 0.75969
 H1353 H 0.39446 0.07084 0.74279
 H1354 H 0.38218 0.15761 0.80917
 H1355 H 0.42004 0.17398 0.82565
 H1356 H 0.46098 0.11752 0.79170
 C1357 C 0.58910 0.76350 0.07770
 C1358 C 0.57394 0.74618 0.08643
 C1359 C 0.57539 0.72141 0.08106
 C1360 C 0.59328 0.71416 0.06612
 C1361 C 0.60937 0.73160 0.05708
 C1362 C 0.60721 0.75665 0.06301
 O1363 O 0.58451 0.78609 0.08484
 C1364 C 0.56610 0.78293 0.09843
 C1365 C 0.55906 0.75884 0.10008
 C1366 C 0.54041 0.75132 0.11366
 C1367 C 0.52848 0.76940 0.12602
 C1368 C 0.53516 0.79447 0.12443
 C1369 C 0.55428 0.80127 0.11036
 H1370 H 0.56323 0.70814 0.08815
 H1371 H 0.59492 0.69490 0.06191
 H1372 H 0.61917 0.77036 0.05629
 H1373 H 0.53526 0.73222 0.11473
 H1374 H 0.51383 0.76387 0.13662
 H1375 H 0.55990 0.82020 0.10887
 C1376 C 0.40037 0.23027 0.09760
 C1377 C 0.39362 0.23349 0.11926
 C1378 C 0.37277 0.24582 0.12534
 C1379 C 0.35828 0.25531 0.10840
 C1380 C 0.36492 0.25254 0.08591
 C1381 C 0.38632 0.23979 0.08047
 O1382 O 0.42097 0.21811 0.09548
 C1383 C 0.42739 0.21369 0.11626
 C1384 C 0.41130 0.22286 0.13140
 C1385 C 0.41480 0.22107 0.15407
 C1386 C 0.43581 0.20942 0.16148
 C1387 C 0.45266 0.19960 0.14624
 C1388 C 0.44825 0.20163 0.12326
 H1389 H 0.36791 0.24818 0.14251
 H1390 H 0.34214 0.26530 0.11282
 H1391 H 0.39182 0.23736 0.06346
 H1392 H 0.40196 0.22861 0.16565
 H1393 H 0.43889 0.20795 0.17910
 H1394 H 0.46090 0.19458 0.11125
 C1395 C 0.60346 0.24147 0.91830
 C1396 C 0.59471 0.26064 0.90601
 C1397 C 0.60128 0.28488 0.90980
 C1398 C 0.61766 0.28965 0.92697
 C1399 C 0.62724 0.27030 0.93986
 C1400 C 0.62012 0.24578 0.93536
 O1401 O 0.59417 0.21992 0.91223
 C1402 C 0.57931 0.22570 0.89573
 C1403 C 0.57919 0.25038 0.89128
 C1404 C 0.56493 0.26069 0.87493
 C1405 C 0.54984 0.24500 0.86278
 C1406 C 0.54906 0.21944 0.86718
 C1407 C 0.56428 0.20962 0.88383
 H1408 H 0.59400 0.29961 0.89993
 H1409 H 0.62320 0.30842 0.93004
 H1410 H 0.62710 0.23070 0.94500
 H1411 H 0.56520 0.28020 0.87179
 H1412 H 0.53843 0.25298 0.85017
 H1413 H 0.56405 0.19028 0.88771
 C1414 C 0.41238 0.75693 0.91505
 C1415 C 0.41365 0.74438 0.89527
 C1416 C 0.40060 0.72310 0.89093
 C1417 C 0.38542 0.71452 0.90761
 C1418 C 0.38379 0.72712 0.92812
 C1419 C 0.39770 0.74846 0.93202
 O1420 O 0.42529 0.77745 0.91529
 C1421 C 0.43489 0.77782 0.89525
 C1422 C 0.42841 0.75794 0.88242
 C1423 C 0.43582 0.75497 0.86069
 C1424 C 0.45042 0.77333 0.85174
 C1425 C 0.45715 0.79426 0.86449
 C1426 C 0.44934 0.79637 0.88666
 H1427 H 0.40168 0.71373 0.87514
 H1428 H 0.37474 0.69820 0.90454
 H1429 H 0.39640 0.75859 0.94743
 H1430 H 0.43033 0.73923 0.85088
 H1431 H 0.45612 0.77138 0.83474
 H1432 H 0.45400 0.81212 0.89681
 C1433 C 0.76248 0.91259 0.41195
 C1434 C 0.78504 0.92253 0.41520
 C1435 C 0.79405 0.94144 0.40234
 C1436 C 0.77923 0.95036 0.38536
 C1437 C 0.75587 0.94054 0.38184
 C1438 C 0.74728 0.92153 0.39543
 O1439 O 0.75780 0.89407 0.42536
 C1440 C 0.77782 0.89232 0.43738
 C1441 C 0.79496 0.90943 0.43190
 C1442 C 0.81733 0.91077 0.44225
 C1443 C 0.82230 0.89374 0.45890
 C1444 C 0.80508 0.87562 0.46466
 C1445 C 0.78247 0.87501 0.45371
 H1446 H 0.81196 0.94877 0.40507
 H1447 H 0.78588 0.96487 0.37490
 H1448 H 0.72962 0.91353 0.39278
 H1449 H 0.83054 0.92437 0.43761
 H1450 H 0.83973 0.89442 0.46702
 H1451 H 0.76895 0.86145 0.45771
 C1452 C 0.22862 0.91446 0.61120
 C1453 C 0.23292 0.89049 0.61689
 C1454 C 0.24688 0.88392 0.63501
 C1455 C 0.25718 0.90284 0.64766
 C1456 C 0.25359 0.92776 0.64191
 C1457 C 0.23868 0.93365 0.62363
 O1458 O 0.21601 0.91658 0.59257
 C1459 C 0.21242 0.89344 0.58633
 C1460 C 0.22251 0.87683 0.60067
 C1461 C 0.22271 0.85174 0.59661
 C1462 C 0.21230 0.84339 0.57681
 C1463 C 0.20174 0.86007 0.56175
 C1464 C 0.20140 0.88544 0.56671
 H1465 H 0.25014 0.86490 0.63900
 H1466 H 0.26831 0.89808 0.66175
 H1467 H 0.23601 0.95246 0.61861
 H1468 H 0.23118 0.83912 0.60796
 H1469 H 0.21264 0.82394 0.57306
 H1470 H 0.19393 0.89853 0.55519
 C1471 C 0.23255 0.09222 0.39789
 C1472 C 0.21012 0.08746 0.38906
 C1473 C 0.20668 0.07383 0.36980
 C1474 C 0.22721 0.06459 0.35925
 C1475 C 0.25060 0.06895 0.36813
 C1476 C 0.25322 0.08315 0.38770
 O1477 O 0.23175 0.10463 0.41684
 C1478 C 0.20830 0.10763 0.42010
 C1479 C 0.19431 0.09739 0.40359
 C1480 C 0.16929 0.09693 0.40435
 C1481 C 0.15826 0.10712 0.42305
 C1482 C 0.17227 0.11772 0.44034
 C1483 C 0.19767 0.11835 0.43864
 H1484 H 0.18882 0.07004 0.36336
 H1485 H 0.22482 0.05338 0.34456
 H1486 H 0.27077 0.08673 0.39495
 H1487 H 0.15869 0.08843 0.39131
 H1488 H 0.13880 0.10647 0.42421
 H1489 H 0.20880 0.12579 0.45184
 C1490 C 0.75021 0.07996 0.57472
 C1491 C 0.77269 0.06935 0.57424
 C1492 C 0.77944 0.05056 0.58841
 C1493 C 0.76236 0.04253 0.60377
 C1494 C 0.73908 0.05318 0.60444
 C1495 C 0.73286 0.07195 0.58952
 O1496 O 0.74793 0.09865 0.56100
 C1497 C 0.76941 0.09989 0.55163
 C1498 C 0.78518 0.08228 0.55902
 C1499 C 0.80895 0.08093 0.55199
 C1500 C 0.81685 0.09866 0.53698
 C1501 C 0.80107 0.11741 0.52957
 C1502 C 0.77689 0.11773 0.53683
 H1503 H 0.79736 0.04277 0.58800
 H1504 H 0.76724 0.02820 0.61525
 H1505 H 0.71537 0.08071 0.59008
 H1506 H 0.82110 0.06704 0.55818
 H1507 H 0.83544 0.09820 0.53171
 H1508 H 0.76444 0.13188 0.53169
 C1509 C 0.91953 0.62535 0.22569
 C1510 C 0.89522 0.62507 0.22990
 C1511 C 0.88465 0.63942 0.24624
 C1512 C 0.89984 0.65439 0.25910
 C1513 C 0.92505 0.65476 0.25541
 C1514 C 0.93498 0.64035 0.23816
 O1515 O 0.92595 0.60932 0.21015
 C1516 C 0.90523 0.59866 0.20451
 C1517 C 0.88594 0.60769 0.21616
 C1518 C 0.86275 0.59849 0.21380
 C1519 C 0.85923 0.57912 0.19882
 C1520 C 0.87874 0.56932 0.18648
 C1521 C 0.90210 0.57944 0.18928
 H1522 H 0.86549 0.63867 0.24935
 H1523 H 0.89208 0.66535 0.27224
 H1524 H 0.95421 0.63991 0.23532
 H1525 H 0.84793 0.60575 0.22335
 H1526 H 0.84121 0.57176 0.19687
 H1527 H 0.91739 0.57224 0.18033
 C1528 C 0.92298 0.38740 0.77468
 C1529 C 0.93967 0.39538 0.79003
 C1530 C 0.96275 0.38562 0.79142
 C1531 C 0.96889 0.36705 0.77627
 C1532 C 0.95207 0.35876 0.76001
 C1533 C 0.92869 0.36907 0.75945
 O1534 O 0.90206 0.39899 0.77608
 C1535 C 0.90562 0.41467 0.79264
 C1536 C 0.92833 0.41329 0.80175
 C1537 C 0.93581 0.42831 0.81919
 C1538 C 0.91916 0.44534 0.82760
 C1539 C 0.89555 0.44697 0.81853
 C1540 C 0.88884 0.43134 0.80074
 H1541 H 0.97563 0.39216 0.80362
 H1542 H 0.98689 0.35952 0.77695
 H1543 H 0.91529 0.36302 0.74754
 H1544 H 0.95380 0.42696 0.82608
 H1545 H 0.92462 0.45712 0.84123
 H1546 H 0.87103 0.43207 0.79335
 C1547 C 0.09129 0.57848 0.75159
 C1548 C 0.10615 0.56419 0.73874
 C1549 C 0.10507 0.56401 0.71578
 C1550 C 0.08803 0.57929 0.70565
 C1551 C 0.07277 0.59448 0.71852
 C1552 C 0.07450 0.59413 0.74184
 O1553 O 0.09460 0.57514 0.77311
 C1554 C 0.11197 0.55844 0.77384
 C1555 C 0.11979 0.55130 0.75325
 C1556 C 0.13762 0.53379 0.75014
 C1557 C 0.14755 0.52287 0.76900
 C1558 C 0.13937 0.52936 0.79046
 C1559 C 0.12147 0.54767 0.79284
 H1560 H 0.11680 0.55243 0.70604
 H1561 H 0.08693 0.57959 0.68778
 H1562 H 0.06290 0.60542 0.75200
 H1563 H 0.14342 0.52845 0.73376
 H1564 H 0.16109 0.50879 0.76680
 H1565 H 0.11468 0.55294 0.80892
 C1566 C 0.08044 0.40876 0.23906
 C1567 C 0.06592 0.40803 0.22055
 C1568 C 0.04490 0.39418 0.21937
 C1569 C 0.03855 0.38060 0.23806
 C1570 C 0.05309 0.38126 0.25746
 C1571 C 0.07437 0.39556 0.25788
 O1572 O 0.09946 0.42328 0.23687
 C1573 C 0.09685 0.43198 0.21658
 C1574 C 0.07657 0.42332 0.20591
 C1575 C 0.07001 0.43068 0.18477
 C1576 C 0.08493 0.44771 0.17421
 C1577 C 0.10606 0.45682 0.18481
 C1578 C 0.11209 0.44867 0.20630
 H1579 H 0.03368 0.39400 0.20468
 H1580 H 0.02199 0.37007 0.23764
 H1581 H 0.08578 0.39645 0.27245
 H1582 H 0.05386 0.42374 0.17677
 H1583 H 0.08005 0.45373 0.15778
 H1584 H 0.12791 0.45546 0.21495
   
