data_POSCAR
  _audit_creation_date              2014-09-24
  _audit_creation_method            'ToBaCCo'
  _symmetry_space_group_name_H-M    'P1'
  _symmetry_Int_Tables_number       1
  _symmetry_cell_setting            triclinic
  loop_
  _symmetry_equiv_pos_as_xyz
 x,y,z
_cell_length_a 63.0421
_cell_length_b 64.8327
_cell_length_c 67.3214
_cell_angle_alpha 88.278700
_cell_angle_beta 90.945200
_cell_angle_gamma 90.257700
loop_
  _atom_site_label
  _atom_site_type_symbol
  _atom_site_fract_x
  _atom_site_fract_y
  _atom_site_fract_z
N1 N 0.18163 0.21441 0.21108
 N2 N 0.18872 0.20346 0.22654
 C3 C 0.17423 0.20382 0.24104
 C4 C 0.15717 0.21556 0.23411
 C5 C 0.16237 0.22189 0.21506
 H6 H 0.17598 0.19613 0.25544
 H7 H 0.15292 0.23143 0.20490
 Cu8 Cu 0.21607 0.18966 0.22570
 Cu9 Cu 0.19774 0.21819 0.18687
 Cu10 Cu 0.25111 0.20635 0.19192
 N11 N 0.24240 0.17483 0.22158
 N12 N 0.25632 0.18185 0.20868
 C13 C 0.27319 0.16924 0.20892
 C14 C 0.26958 0.15329 0.22248
 C15 C 0.24986 0.15729 0.23032
 H16 H 0.28686 0.17126 0.19954
 H17 H 0.24151 0.14815 0.24141
 N18 N 0.23953 0.22377 0.16996
 N19 N 0.21910 0.22776 0.16773
 C20 C 0.21602 0.23916 0.15090
 C21 C 0.23547 0.24238 0.14211
 C22 C 0.25000 0.23236 0.15452
 H23 H 0.20072 0.24440 0.14534
 H24 H 0.26689 0.23112 0.15229
 H25 H 0.22125 0.19551 0.19016
 H26 H 0.22421 0.21973 0.20428
 N27 N 0.66809 0.74005 0.72630
 N28 N 0.67161 0.72324 0.73721
 C29 C 0.65616 0.72099 0.75069
 C30 C 0.64229 0.73738 0.74802
 C31 C 0.65035 0.74915 0.73245
 H32 H 0.65509 0.70832 0.76145
 H33 H 0.64375 0.76326 0.72604
 Cu34 Cu 0.69613 0.70612 0.73269
 Cu35 Cu 0.68705 0.74898 0.70526
 Cu36 Cu 0.72063 0.71101 0.68865
 N37 N 0.71503 0.68507 0.72359
 N38 N 0.72465 0.68689 0.70643
 C39 C 0.73673 0.67006 0.70404
 C40 C 0.73433 0.65706 0.72057
 C41 C 0.72043 0.66703 0.73259
 H42 H 0.74634 0.66745 0.69121
 H43 H 0.71466 0.66150 0.74683
 N44 N 0.71443 0.73684 0.67326
 N45 N 0.70205 0.75137 0.67997
 C46 C 0.70092 0.76705 0.66649
 C47 C 0.71314 0.76227 0.65051
 C48 C 0.72155 0.74300 0.65523
 H49 H 0.69162 0.78087 0.66802
 H50 H 0.73201 0.73414 0.64624
 H51 H 0.69076 0.71850 0.69861
 H52 H 0.71427 0.73099 0.71039
 N53 N 0.33155 0.76679 0.70900
 N54 N 0.32950 0.78306 0.71998
 C55 C 0.34403 0.78224 0.73483
 C56 C 0.35587 0.76452 0.73305
 C57 C 0.34760 0.75510 0.71646
 H58 H 0.34601 0.79382 0.74592
 H59 H 0.35289 0.74083 0.71030
 Cu60 Cu 0.30834 0.80400 0.71388
 Cu61 Cu 0.31312 0.76223 0.68599
 Cu62 Cu 0.27419 0.79898 0.67547
 N63 N 0.28652 0.82434 0.70791
 N64 N 0.27286 0.82226 0.69313
 C65 C 0.25930 0.83832 0.69277
 C66 C 0.26497 0.85108 0.70818
 C67 C 0.28226 0.84176 0.71738
 H68 H 0.24647 0.84052 0.68208
 H69 H 0.29094 0.84728 0.73017
 N70 N 0.27818 0.77436 0.65938
 N71 N 0.29294 0.76038 0.66340
 C72 C 0.29181 0.74574 0.64963
 C73 C 0.27558 0.75078 0.63631
 C74 C 0.26732 0.76897 0.64290
 H75 H 0.30222 0.73257 0.64918
 H76 H 0.25446 0.77771 0.63603
 H77 H 0.30618 0.79292 0.67961
 H78 H 0.28750 0.77844 0.69618
 N79 N 0.84117 0.27680 0.21649
 N80 N 0.83807 0.29132 0.22933
 C81 C 0.85400 0.29089 0.24293
 C82 C 0.86780 0.27523 0.23828
 C83 C 0.85915 0.26663 0.22145
 H84 H 0.85550 0.30134 0.25508
 H85 H 0.86560 0.25402 0.21332
 Cu86 Cu 0.81388 0.30983 0.22684
 Cu87 Cu 0.82204 0.27253 0.19399
 Cu88 Cu 0.77981 0.30621 0.18799
 N89 N 0.79039 0.32896 0.22272
 N90 N 0.77709 0.32737 0.20760
 C91 C 0.76263 0.34254 0.20815
 C92 C 0.76717 0.35431 0.22449
 C93 C 0.78488 0.34531 0.23337
 H94 H 0.75004 0.34500 0.19726
 H95 H 0.79320 0.35048 0.24650
 N96 N 0.78512 0.28378 0.16970
 N97 N 0.80101 0.27071 0.17214
 C98 C 0.80034 0.25722 0.15730
 C99 C 0.78324 0.26215 0.14495
 C100 C 0.77401 0.27904 0.15320
 H101 H 0.81164 0.24498 0.15544
 H102 H 0.76023 0.28728 0.14748
 H103 H 0.81233 0.30297 0.19144
 H104 H 0.79529 0.28485 0.20636
 N105 N 0.83012 0.72279 0.28705
 N106 N 0.82410 0.71014 0.27310
 C107 C 0.83868 0.71047 0.25869
 C108 C 0.85474 0.72397 0.26405
 C109 C 0.84882 0.73143 0.28213
 H110 H 0.83771 0.70149 0.24543
 H111 H 0.85741 0.74243 0.29100
 Cu112 Cu 0.79802 0.69410 0.27545
 Cu113 Cu 0.81329 0.72695 0.31060
 Cu114 Cu 0.76071 0.71222 0.30490
 N115 N 0.77130 0.67937 0.27932
 N116 N 0.75658 0.68693 0.29060
 C117 C 0.73958 0.67437 0.29056
 C118 C 0.74392 0.65788 0.27884
 C119 C 0.76420 0.66152 0.27182
 H120 H 0.72528 0.67683 0.29881
 H121 H 0.77311 0.65195 0.26209
 N122 N 0.77064 0.73079 0.32560
 N123 N 0.79072 0.73604 0.32820
 C124 C 0.79248 0.74767 0.34440
 C125 C 0.77252 0.74956 0.35240
 C126 C 0.75911 0.73867 0.34016
 H127 H 0.80725 0.75372 0.35024
 H128 H 0.74229 0.73610 0.34210
 H129 H 0.79113 0.70281 0.30972
 H130 H 0.78809 0.72549 0.29217
 N131 N 0.32564 0.22543 -0.22275
 N132 N 0.32545 0.20580 -0.22712
 C133 C 0.34245 0.20173 -0.23813
 C134 C 0.35368 0.21985 -0.24114
 C135 C 0.34252 0.23470 -0.23127
 H136 H 0.34626 0.18676 -0.24377
 H137 H 0.34657 0.25082 -0.22984
 Cu138 Cu 0.30226 0.18776 -0.21911
 Cu139 Cu 0.30429 0.23700 -0.20565
 Cu140 Cu 0.27513 0.20018 -0.17907
 N141 N 0.27849 0.17105 -0.21004
 N142 N 0.26775 0.17601 -0.19432
 C143 C 0.25237 0.16187 -0.19113
 C144 C 0.25352 0.14735 -0.20569
 C145 C 0.27028 0.15365 -0.21747
 H146 H 0.24119 0.16215 -0.17913
 H147 H 0.27603 0.14628 -0.23051
 N148 N 0.27822 0.22893 -0.17091
 N149 N 0.28866 0.24311 -0.18136
 C150 C 0.28817 0.26103 -0.17175
 C151 C 0.27692 0.25795 -0.15447
 C152 C 0.27076 0.23743 -0.15444
 H153 H 0.29608 0.27510 -0.17659
 H154 H 0.26182 0.22913 -0.14319
 H155 H 0.30467 0.20959 -0.19037
 H156 H 0.28009 0.21462 -0.20555
 N157 N 0.68187 0.27718 -0.22136
 N158 N 0.68315 0.29676 -0.22690
 C159 C 0.66676 0.30150 -0.23922
 C160 C 0.65476 0.28388 -0.24180
 C161 C 0.66486 0.26862 -0.23033
 H162 H 0.66385 0.31659 -0.24598
 H163 H 0.65997 0.25271 -0.22814
 Cu164 Cu 0.70681 0.31383 -0.21843
 Cu165 Cu 0.70205 0.26475 -0.20228
 Cu166 Cu 0.73258 0.30018 -0.17638
 N167 N 0.73091 0.32971 -0.20891
 N168 N 0.74118 0.32424 -0.19245
 C169 C 0.75680 0.33802 -0.18907
 C170 C 0.75625 0.35287 -0.20424
 C171 C 0.73964 0.34709 -0.21661
 H172 H 0.76760 0.33738 -0.17642
 H173 H 0.73427 0.35487 -0.23019
 N174 N 0.72786 0.27157 -0.16674
 N175 N 0.71681 0.25794 -0.17684
 C176 C 0.71605 0.24006 -0.16614
 C177 C 0.72714 0.24257 -0.14850
 C178 C 0.73451 0.26272 -0.14941
 H179 H 0.70740 0.22644 -0.17052
 H180 H 0.74365 0.27057 -0.13819
 H181 H 0.70282 0.29221 -0.18853
 H182 H 0.72736 0.28599 -0.20223
 N183 N 0.16985 0.77041 0.27498
 N184 N 0.17208 0.79002 0.26983
 C185 C 0.15597 0.79574 0.25754
 C186 C 0.14322 0.77873 0.25454
 C187 C 0.15248 0.76285 0.26577
 H188 H 0.15377 0.81108 0.25108
 H189 H 0.14670 0.74718 0.26760
 Cu190 Cu 0.19634 0.80597 0.27881
 Cu191 Cu 0.18924 0.75658 0.29391
 Cu192 Cu 0.22425 0.78891 0.31849
 N193 N 0.22363 0.81812 0.28574
 N194 N 0.23459 0.81141 0.30138
 C195 C 0.25236 0.82284 0.30321
 C196 C 0.25255 0.83748 0.28785
 C197 C 0.23405 0.83403 0.27699
 H198 H 0.26412 0.82080 0.31499
 H199 H 0.22839 0.84245 0.26387
 N200 N 0.21729 0.76095 0.32837
 N201 N 0.20451 0.74834 0.31879
 C202 C 0.20284 0.73052 0.32951
 C203 C 0.21513 0.73206 0.34661
 C204 C 0.22414 0.75155 0.34535
 H205 H 0.19291 0.71760 0.32548
 H206 H 0.23473 0.75855 0.35601
 H207 H 0.19286 0.78354 0.30835
 H208 H 0.21563 0.77618 0.29269
 N209 N 0.48492 0.42109 0.47027
 N210 N 0.46863 0.42583 0.48118
 C211 C 0.46512 0.41025 0.49449
 C212 C 0.48003 0.39503 0.49160
 C213 C 0.49224 0.40241 0.47614
 H214 H 0.45264 0.40993 0.50531
 H215 H 0.50554 0.39471 0.46970
 Cu216 Cu 0.45358 0.45180 0.47655
 Cu217 Cu 0.49566 0.43929 0.44930
 Cu218 Cu 0.46879 0.48501 0.43986
 N219 N 0.43819 0.47730 0.47046
 N220 N 0.44444 0.49028 0.45633
 C221 C 0.43112 0.50643 0.45515
 C222 C 0.41560 0.50339 0.46915
 C223 C 0.42053 0.48475 0.47866
 H224 H 0.43235 0.51930 0.44463
 H225 H 0.41188 0.47713 0.49053
 N226 N 0.49380 0.47691 0.42481
 N227 N 0.50421 0.45960 0.42866
 C228 C 0.52028 0.45825 0.41586
 C229 C 0.51984 0.47538 0.40323
 C230 C 0.50288 0.48696 0.40929
 H231 H 0.53125 0.44551 0.41535
 H232 H 0.49746 0.50148 0.40281
 H233 H 0.48486 0.46662 0.46055
 H234 H 0.46680 0.45329 0.44270
 N235 N -0.03170 -0.07462 0.96205
 N236 N -0.04368 -0.06875 0.97665
 C237 C -0.04385 -0.08373 0.99099
 C238 C -0.03133 -0.09981 0.98490
 C239 C -0.02399 -0.09353 0.96648
 H240 H -0.05248 -0.08299 1.00469
 H241 H -0.01369 -0.10206 0.95703
 Cu242 Cu -0.05810 -0.04223 0.97504
 Cu243 Cu -0.02718 -0.05751 0.93821
 Cu244 Cu -0.04037 -0.00609 0.94284
 N245 N -0.07351 -0.01650 0.97016
 N246 N -0.06608 -0.00222 0.95783
 C247 C -0.07910 0.01415 0.95740
 C248 C -0.09573 0.00986 0.96994
 C249 C -0.09172 -0.00974 0.97789
 H250 H -0.07681 0.02802 0.94834
 H251 H -0.10126 -0.01844 0.98842
 N252 N -0.02167 -0.01579 0.92208
 N253 N -0.01708 -0.03543 0.91992
 C254 C -0.00489 -0.03716 0.90381
 C255 C -0.00187 -0.01764 0.89541
 C256 C -0.01274 -0.00451 0.90733
 H257 H 0.00099 -0.05158 0.89846
 H258 H -0.01442 0.01201 0.90515
 H259 H -0.02660 -0.03292 0.95591
 H260 H -0.05095 -0.03528 0.93999
 N261 N 1.01649 0.57686 0.98188
 N262 N 1.03260 0.56930 0.99236
 C263 C 1.03683 0.58177 1.00759
 C264 C 1.02268 0.59797 1.00657
 C265 C 1.00993 0.59436 0.99008
 H266 H 1.04931 0.57937 1.01862
 H267 H 0.99687 0.60369 0.98444
 Cu268 Cu 1.04670 0.54408 0.98497
 Cu269 Cu 1.00522 0.56348 0.95837
 Cu270 Cu 1.03033 0.51882 0.94462
 N271 N 1.06109 0.51938 0.97652
 N272 N 1.05424 0.50937 0.96096
 C273 C 1.06682 0.49302 0.95830
 C274 C 1.08255 0.49290 0.97277
 C275 C 1.07847 0.50982 0.98416
 H276 H 1.06504 0.48227 0.94640
 H277 H 1.08748 0.51482 0.99695
 N278 N 1.00593 0.53072 0.92985
 N279 N 0.99623 0.54769 0.93504
 C280 C 0.98052 0.55198 0.92172
 C281 C 0.98049 0.53709 0.90746
 C282 C 0.99675 0.52383 0.91312
 H283 H 0.97008 0.56514 0.92211
 H284 H 1.00166 0.51023 0.90557
 H285 H 1.01474 0.53406 0.96669
 H286 H 1.03339 0.54978 0.95107
 N287 N 0.51663 0.08760 0.47418
 N288 N 0.53351 0.08423 0.48551
 C289 C 0.53471 0.09884 0.49934
 C290 C 0.51764 0.11201 0.49640
 C291 C 0.50654 0.10442 0.48035
 H292 H 0.54715 0.09994 0.51050
 H293 H 0.49224 0.11080 0.47360
 Cu294 Cu 0.55248 0.06134 0.48077
 Cu295 Cu 0.50915 0.07017 0.45211
 Cu296 Cu 0.54323 0.02999 0.44246
 N297 N 0.57168 0.03900 0.47487
 N298 N 0.56804 0.02676 0.45995
 C299 C 0.58377 0.01279 0.45932
 C300 C 0.59801 0.01658 0.47467
 C301 C 0.58987 0.03328 0.48418
 H302 H 0.58477 0.00090 0.44847
 H303 H 0.59678 0.04068 0.49694
 N304 N 0.51725 0.03581 0.42651
 N305 N 0.50419 0.05097 0.43042
 C306 C 0.48794 0.05096 0.41719
 C307 C 0.49094 0.03519 0.40428
 C308 C 0.50966 0.02582 0.41058
 H309 H 0.47491 0.06176 0.41679
 H310 H 0.51716 0.01272 0.40410
 H311 H 0.52414 0.04363 0.46288
 H312 H 0.53992 0.06127 0.44633
 N313 N -0.02915 0.09226 0.54235
 N314 N -0.04369 0.08906 0.52854
 C315 C -0.04119 0.10310 0.51358
 C316 C -0.02419 0.11570 0.51838
 C317 C -0.01698 0.10841 0.53670
 H318 H -0.05108 0.10417 0.50032
 H319 H -0.00381 0.11445 0.54527
 Cu320 Cu -0.06452 0.06697 0.53168
 Cu321 Cu -0.02686 0.07529 0.56655
 Cu322 Cu -0.06411 0.03637 0.57300
 N323 N -0.08578 0.04546 0.53588
 N324 N -0.08537 0.03347 0.55199
 C325 C -0.10148 0.01985 0.55111
 C326 C -0.11264 0.02352 0.53351
 C327 C -0.10231 0.03989 0.52424
 H328 H -0.10485 0.00827 0.56252
 H329 H -0.10652 0.04710 0.51003
 N330 N -0.04136 0.04174 0.59257
 N331 N -0.02712 0.05652 0.59003
 C332 C -0.01347 0.05607 0.60562
 C333 C -0.01943 0.04023 0.61858
 C334 C -0.03716 0.03151 0.60990
 H335 H -0.00013 0.06642 0.60732
 H336 H -0.04613 0.01849 0.61573
 H337 H -0.04071 0.04904 0.55526
 H338 H -0.05868 0.06745 0.56753
 N339 N 0.48618 0.55631 0.00868
 N340 N 0.46926 0.55036 -0.00129
 C341 C 0.46470 0.56452 -0.01572
 C342 C 0.47949 0.58023 -0.01463
 C343 C 0.49300 0.57451 0.00097
 H344 H 0.45144 0.56363 -0.02607
 H345 H 0.50671 0.58285 0.00638
 Cu346 Cu 0.45468 0.52473 0.00549
 Cu347 Cu 0.49795 0.53976 0.03074
 Cu348 Cu 0.46093 0.50701 0.05268
 N349 N 0.43750 0.50230 0.01620
 N350 N 0.44000 0.49528 0.03460
 C351 C 0.42543 0.48046 0.03828
 C352 C 0.41311 0.47821 0.02131
 C353 C 0.42124 0.49229 0.00755
 H354 H 0.42356 0.47232 0.05241
 H355 H 0.41555 0.49534 -0.00749
 N356 N 0.48742 0.51550 0.06618
 N357 N 0.50181 0.52738 0.05750
 C358 C 0.51825 0.53002 0.07017
 C359 C 0.51399 0.51934 0.08769
 C360 C 0.49433 0.51024 0.08468
 H361 H 0.53215 0.53932 0.06703
 H362 H 0.48575 0.50043 0.09505
 H363 H 0.48105 0.51159 0.02976
 H364 H 0.46731 0.53518 0.03811
 N365 N 0.51029 -0.07892 0.01991
 N366 N 0.52879 -0.07584 0.01159
 C367 C 0.53000 -0.08726 -0.00468
 C368 C 0.51141 -0.09835 -0.00652
 C369 C 0.49916 -0.09273 0.00932
 H370 H 0.54364 -0.08793 -0.01418
 H371 H 0.48346 -0.09829 0.01293
 Cu372 Cu 0.55019 -0.05839 0.02340
 Cu373 Cu 0.50250 -0.06479 0.04391
 Cu374 Cu 0.53785 -0.02755 0.06067
 N375 N 0.56806 -0.03534 0.03039
 N376 N 0.56336 -0.02305 0.04485
 C377 C 0.57868 -0.00852 0.04631
 C378 C 0.59364 -0.01210 0.03193
 C379 C 0.58637 -0.02917 0.02218
 H380 H 0.57900 0.00352 0.05708
 H381 H 0.59391 -0.03656 0.00997
 N382 N 0.51114 -0.03471 0.07438
 N383 N 0.49768 -0.04876 0.06786
 C384 C 0.48142 -0.05055 0.08051
 C385 C 0.48482 -0.03716 0.09578
 C386 C 0.50380 -0.02730 0.09146
 H387 H 0.46826 -0.06118 0.07906
 H388 H 0.51180 -0.01581 0.10019
 H389 H 0.52108 -0.03918 0.03687
 H390 H 0.53252 -0.05835 0.05531
 N391 N 1.02042 0.41628 0.53196
 N392 N 1.03378 0.42363 0.51872
 C393 C 1.03719 0.40917 0.50515
 C394 C 1.02525 0.39188 0.51029
 C395 C 1.01487 0.39694 0.52733
 H396 H 1.04751 0.41113 0.49257
 H397 H 1.00384 0.38731 0.53558
 Cu398 Cu 1.04546 0.45132 0.52061
 Cu399 Cu 1.01030 0.43254 0.55366
 Cu400 Cu 1.03046 0.48215 0.55709
 N401 N 1.06183 0.47567 0.52754
 N402 N 1.05575 0.48777 0.54168
 C403 C 1.06945 0.50365 0.54306
 C404 C 1.08506 0.50130 0.52917
 C405 C 1.07977 0.48336 0.51954
 H406 H 1.06823 0.51594 0.55349
 H407 H 1.08819 0.47643 0.50758
 N408 N 1.00950 0.47042 0.57566
 N409 N 1.00189 0.45150 0.57441
 C410 C 0.98788 0.44812 0.58905
 C411 C 0.98683 0.46562 0.60013
 C412 C 1.00075 0.47950 0.59127
 H413 H 0.97905 0.43397 0.59155
 H414 H 1.00413 0.49507 0.59571
 H415 H 1.01427 0.46075 0.53985
 H416 H 1.03700 0.45136 0.55568
 C417 C 0.35445 -0.02920 0.25308
 C418 C 0.36629 -0.01081 0.25309
 C419 C 0.35587 0.00826 0.25320
 C420 C 0.33358 0.00909 0.25304
 C421 C 0.32195 -0.00939 0.25304
 C422 C 0.33217 -0.02855 0.25318
 C423 C 0.38963 -0.01144 0.25305
 C424 C 0.40039 -0.01309 0.23510
 C425 C 0.42271 -0.01308 0.23493
 C426 C 0.43400 -0.01138 0.25296
 C427 C 0.42342 -0.00953 0.27099
 C428 C 0.40112 -0.00968 0.27093
 H429 H 0.36263 -0.04384 0.25278
 H430 H 0.36524 0.02228 0.25364
 H431 H 0.39123 -0.01378 0.22140
 H432 H 0.39256 -0.00868 0.28467
 H433 H 0.30476 -0.00886 0.25301
 H434 H 0.45120 -0.01122 0.25294
 C435 C 0.15265 -0.02055 0.73989
 C436 C 0.14380 -0.00260 0.74720
 C437 C 0.15688 0.01413 0.75193
 C438 C 0.17893 0.01301 0.74937
 C439 C 0.18761 -0.00502 0.74187
 C440 C 0.17461 -0.02201 0.73733
 C441 C 0.12070 -0.00092 0.74905
 C442 C 0.11078 -0.00751 0.76660
 C443 C 0.08880 -0.00530 0.76856
 C444 C 0.07670 0.00284 0.75243
 C445 C 0.08653 0.00909 0.73462
 C446 C 0.10861 0.00749 0.73322
 H447 H 0.14239 -0.03338 0.73614
 H448 H 0.14964 0.02810 0.75697
 H449 H 0.12025 -0.01393 0.77885
 H450 H 0.11642 0.01251 0.71967
 H451 H 0.20450 -0.00558 0.73930
 H452 H 0.05972 0.00433 0.75379
 C453 C 0.64740 0.48267 0.24089
 C454 C 0.63794 0.50142 0.24543
 C455 C 0.65063 0.51877 0.24893
 C456 C 0.67287 0.51753 0.24783
 C457 C 0.68213 0.49857 0.24348
 C458 C 0.66953 0.48099 0.24027
 C459 C 0.61468 0.50298 0.24622
 C460 C 0.60474 0.50553 0.26445
 C461 C 0.58250 0.50654 0.26533
 C462 C 0.57044 0.50588 0.24765
 C463 C 0.58025 0.50374 0.22927
 C464 C 0.60244 0.50186 0.22873
 H465 H 0.63749 0.46930 0.23816
 H466 H 0.64291 0.53321 0.25179
 H467 H 0.61441 0.50665 0.27782
 H468 H 0.61034 0.49947 0.21484
 H469 H 0.69920 0.49769 0.24222
 H470 H 0.55330 0.50692 0.24821
 C471 C 0.84879 0.49116 0.75283
 C472 C 0.86082 0.50851 0.74708
 C473 C 0.85065 0.52639 0.73971
 C474 C 0.82847 0.52724 0.73837
 C475 C 0.81655 0.50961 0.74370
 C476 C 0.82653 0.49153 0.75101
 C477 C 0.88414 0.50786 0.74831
 C478 C 0.89591 0.50679 0.73089
 C479 C 0.91817 0.50609 0.73187
 C480 C 0.92850 0.50709 0.75043
 C481 C 0.91690 0.50843 0.76796
 C482 C 0.89461 0.50852 0.76682
 H483 H 0.85695 0.47729 0.75794
 H484 H 0.86006 0.53976 0.73533
 H485 H 0.88763 0.50664 0.71667
 H486 H 0.88532 0.50900 0.78018
 H487 H 0.79945 0.50973 0.74191
 H488 H 0.94569 0.50675 0.75124
 C489 C 0.24657 0.35180 -0.02401
 C490 C 0.24254 0.36370 -0.00743
 C491 C 0.23729 0.35402 0.01071
 C492 C 0.23673 0.33248 0.01261
 C493 C 0.24048 0.32065 -0.00410
 C494 C 0.24530 0.33012 -0.02253
 C495 C 0.24413 0.38634 -0.00887
 C496 C 0.22585 0.39847 -0.00785
 C497 C 0.22737 0.42012 -0.00885
 C498 C 0.24744 0.42942 -0.01029
 C499 C 0.26585 0.41742 -0.01084
 C500 C 0.26407 0.39582 -0.01045
 H501 H 0.25008 0.35965 -0.03797
 H502 H 0.23429 0.36329 0.02350
 H503 H 0.21063 0.39092 -0.00602
 H504 H 0.27811 0.38632 -0.01121
 H505 H 0.23933 0.30398 -0.00287
 H506 H 0.24877 0.44611 -0.01073
 C507 C 0.74822 0.14793 -0.01049
 C508 C 0.74947 0.13631 0.00740
 C509 C 0.75410 0.14606 0.02523
 C510 C 0.75738 0.16742 0.02545
 C511 C 0.75614 0.17899 0.00747
 C512 C 0.75146 0.16945 -0.01057
 C513 C 0.74681 0.11375 0.00761
 C514 C 0.76424 0.10117 0.00395
 C515 C 0.76238 0.07955 0.00558
 C516 C 0.74278 0.07080 0.01090
 C517 C 0.72507 0.08329 0.01429
 C518 C 0.72734 0.10481 0.01288
 H519 H 0.74522 0.14000 -0.02417
 H520 H 0.75531 0.13691 0.03895
 H521 H 0.77930 0.10844 0.00066
 H522 H 0.71400 0.11466 0.01591
 H523 H 0.75930 0.19542 0.00735
 H524 H 0.74159 0.05420 0.01278
 C525 C 0.24642 0.63462 0.48123
 C526 C 0.25064 0.62240 0.49838
 C527 C 0.25555 0.63176 0.51638
 C528 C 0.25594 0.65332 0.51752
 C529 C 0.25215 0.66543 0.50016
 C530 C 0.24734 0.65628 0.48196
 C531 C 0.25029 0.59973 0.49746
 C532 C 0.26940 0.58872 0.49771
 C533 C 0.26923 0.56707 0.49688
 C534 C 0.24971 0.55662 0.49639
 C535 C 0.23048 0.56742 0.49650
 C536 C 0.23089 0.58910 0.49671
 H537 H 0.24321 0.62709 0.46738
 H538 H 0.25881 0.62222 0.52957
 H539 H 0.28423 0.59713 0.49874
 H540 H 0.21627 0.59781 0.49630
 H541 H 0.25335 0.68207 0.50060
 H542 H 0.24947 0.53990 0.49605
 C543 C 0.75460 0.85638 0.47959
 C544 C 0.74974 0.86531 0.49761
 C545 C 0.74720 0.85279 0.51475
 C546 C 0.74915 0.83121 0.51389
 C547 C 0.75410 0.82247 0.49571
 C548 C 0.75676 0.83496 0.47848
 C549 C 0.74812 0.88787 0.49866
 C550 C 0.72971 0.89805 0.49186
 C551 C 0.72808 0.91957 0.49296
 C552 C 0.74561 0.93090 0.50005
 C553 C 0.76429 0.92080 0.50656
 C554 C 0.76520 0.89923 0.50624
 H555 H 0.75683 0.86618 0.46644
 H556 H 0.74415 0.86008 0.52865
 H557 H 0.71650 0.88914 0.48611
 H558 H 0.77943 0.89125 0.51138
 H559 H 0.75626 0.80593 0.49512
 H560 H 0.74476 0.94751 0.50055
 C561 C -0.00031 0.25722 0.35159
 C562 C 0.01777 0.25050 0.36218
 C563 C 0.03517 0.24299 0.35200
 C564 C 0.03479 0.24248 0.33118
 C565 C 0.01627 0.24872 0.32068
 C566 C -0.00141 0.25598 0.33086
 C567 C 0.01806 0.25054 0.38401
 C568 C 0.01280 0.23250 0.39478
 C569 C 0.01235 0.23232 0.41559
 C570 C 0.01701 0.25062 0.42555
 C571 C 0.02196 0.26898 0.41483
 C572 C 0.02269 0.26869 0.39402
 H573 H -0.01378 0.26286 0.35961
 H574 H 0.04912 0.23781 0.36033
 H575 H 0.00892 0.21861 0.38690
 H576 H 0.02645 0.28267 0.38554
 H577 H 0.01557 0.24794 0.30468
 H578 H 0.01655 0.25063 0.44156
 C579 C -0.02421 0.74525 0.14221
 C580 C -0.00554 0.74820 0.13148
 C581 C 0.01403 0.74925 0.14157
 C582 C 0.01495 0.74794 0.16240
 C583 C -0.00388 0.74503 0.17306
 C584 C -0.02358 0.74362 0.16303
 C585 C -0.00667 0.75042 0.10967
 C586 C -0.01092 0.76977 0.10066
 C587 C -0.01290 0.77200 0.07993
 C588 C -0.01109 0.75442 0.06832
 C589 C -0.00668 0.73497 0.07714
 C590 C -0.00446 0.73309 0.09794
 H591 H -0.03927 0.74422 0.13428
 H592 H 0.02847 0.75143 0.13322
 H593 H -0.01271 0.78309 0.10985
 H594 H -0.00178 0.71818 0.10519
 H595 H -0.00295 0.74300 0.18905
 H596 H -0.01348 0.75564 0.05238
 C597 C 0.48266 0.25600 0.65487
 C598 C 0.50121 0.25308 0.64408
 C599 C 0.52071 0.25054 0.65423
 C600 C 0.52180 0.25163 0.67500
 C601 C 0.50303 0.25386 0.68567
 C602 C 0.48338 0.25569 0.67568
 C603 C 0.50014 0.25273 0.62218
 C604 C 0.49230 0.26987 0.61122
 C605 C 0.49149 0.26985 0.59039
 C606 C 0.49742 0.25192 0.58064
 C607 C 0.50476 0.23442 0.59150
 C608 C 0.50667 0.23520 0.61225
 H609 H 0.46755 0.25766 0.64707
 H610 H 0.53510 0.24854 0.64591
 H611 H 0.48745 0.28347 0.61892
 H612 H 0.51254 0.22190 0.62076
 H613 H 0.50372 0.25414 0.70175
 H614 H 0.49638 0.25160 0.56462
 C615 C 0.47565 0.75268 0.86045
 C616 C 0.49369 0.74768 0.87203
 C617 C 0.51261 0.74252 0.86273
 C618 C 0.51379 0.74293 0.84195
 C619 C 0.49541 0.74733 0.83050
 C620 C 0.47620 0.75193 0.83968
 C621 C 0.49259 0.74732 0.89389
 C622 C 0.49583 0.72876 0.90469
 C623 C 0.49423 0.72805 0.92548
 C624 C 0.49022 0.74628 0.93542
 C625 C 0.48729 0.76504 0.92483
 C626 C 0.48810 0.76539 0.90395
 H627 H 0.46098 0.75644 0.86768
 H628 H 0.52658 0.73875 0.87171
 H629 H 0.49949 0.71493 0.89680
 H630 H 0.48528 0.77958 0.89545
 H631 H 0.49606 0.74718 0.81447
 H632 H 0.48934 0.74585 0.95150
 C633 C 0.13754 0.22098 0.24421
 C634 C 0.13336 0.21514 0.26384
 C635 C 0.11380 0.22158 0.27356
 N636 N 0.11011 0.21568 0.29271
 N637 N 0.09253 0.22159 0.30165
 C638 C 0.07801 0.23365 0.29177
 N639 N 0.08171 0.23954 0.27263
 N640 N 0.09926 0.23362 0.26370
 C641 C 0.05859 0.24054 0.30137
 C642 C 0.05384 0.23505 0.32100
 H643 H 0.14469 0.20588 0.27239
 H644 H 0.04821 0.25076 0.29278
 H645 H 0.12610 0.23027 0.23580
 H646 H 0.06513 0.22581 0.32966
 C647 C 0.62279 0.74177 0.75877
 C648 C 0.61638 0.73025 0.77545
 C649 C 0.59656 0.73481 0.78565
 N650 N 0.59150 0.72431 0.80268
 N651 N 0.57349 0.72825 0.81193
 C652 C 0.55988 0.74281 0.80444
 N653 N 0.56492 0.75325 0.78740
 N654 N 0.58293 0.74935 0.77820
 C655 C 0.53975 0.74722 0.81413
 C656 C 0.53423 0.73846 0.83252
 H657 H 0.62612 0.71769 0.78128
 H658 H 0.52922 0.75818 0.80664
 H659 H 0.61327 0.75469 0.75337
 H660 H 0.54565 0.72897 0.84073
 C661 C 0.37392 0.75744 0.74560
 C662 C 0.37924 0.76698 0.76331
 C663 C 0.39802 0.76133 0.77544
 N664 N 0.40179 0.77092 0.79279
 N665 N 0.41902 0.76650 0.80377
 C666 C 0.43316 0.75233 0.79778
 N667 N 0.42938 0.74270 0.78044
 N668 N 0.41212 0.74710 0.76946
 C669 C 0.45251 0.74764 0.80950
 C670 C 0.45662 0.75627 0.82793
 H671 H 0.36944 0.77928 0.76853
 H672 H 0.46357 0.73682 0.80352
 H673 H 0.38319 0.74455 0.74075
 H674 H 0.44461 0.76573 0.83446
 C675 C -0.11332 0.26917 0.24785
 C676 C -0.10538 0.27854 0.26484
 C677 C -0.08523 0.27220 0.27448
 N678 N -0.07857 0.28139 0.29133
 N679 N -0.06034 0.27589 0.30023
 C680 C -0.04806 0.26101 0.29258
 N681 N -0.05469 0.25185 0.27570
 N682 N -0.07294 0.25733 0.26682
 C683 C -0.02790 0.25473 0.30225
 C684 C -0.02116 0.26260 0.32037
 H685 H -0.11404 0.29090 0.27143
 H686 H -0.01865 0.24307 0.29521
 H687 H -0.10453 0.25664 0.24163
 H688 H -0.03145 0.27311 0.32786
 C689 C -0.12576 0.72951 0.25337
 C690 C -0.12162 0.72266 0.23440
 C691 C -0.10209 0.72836 0.22385
 N692 N -0.09940 0.72237 0.20492
 N693 N -0.08178 0.72736 0.19520
 C694 C -0.06618 0.73851 0.20405
 N695 N -0.06884 0.74445 0.22300
 N696 N -0.08648 0.73950 0.23271
 C697 C -0.04646 0.74385 0.19364
 C698 C -0.04358 0.73944 0.17370
 H699 H -0.13308 0.71304 0.22687
 H700 H -0.03417 0.75172 0.20191
 H701 H -0.11446 0.73953 0.26065
 H702 H -0.05674 0.73304 0.16533
 C703 C 0.37249 0.22184 0.74836
 C704 C 0.38211 0.24077 0.74379
 C705 C 0.40238 0.24177 0.73332
 N706 N 0.40776 0.25890 0.72242
 N707 N 0.42607 0.25977 0.71278
 C708 C 0.43974 0.24362 0.71392
 N709 N 0.43448 0.22664 0.72504
 N710 N 0.41609 0.22567 0.73447
 C711 C 0.46005 0.24424 0.70356
 C712 C 0.46347 0.25687 0.68680
 H713 H 0.37431 0.25508 0.74708
 H714 H 0.47210 0.23323 0.70835
 H715 H 0.37963 0.20787 0.74310
 H716 H 0.45054 0.26605 0.68055
 C717 C 0.63619 0.28269 0.74675
 C718 C 0.62570 0.26421 0.74290
 C719 C 0.60548 0.26410 0.73169
 N720 N 0.59912 0.24704 0.72196
 N721 N 0.58073 0.24688 0.71189
 C722 C 0.56795 0.26372 0.71140
 N723 N 0.57420 0.28065 0.72131
 N724 N 0.59267 0.28090 0.73117
 C725 C 0.54732 0.26373 0.70095
 C726 C 0.54258 0.25066 0.68541
 H727 H 0.63266 0.24957 0.74752
 H728 H 0.53585 0.27524 0.70492
 H729 H 0.62991 0.29694 0.74024
 H730 H 0.55486 0.24091 0.67973
 C731 C 0.12348 0.77838 0.24262
 C732 C 0.11567 0.76042 0.23430
 C733 C 0.09572 0.76030 0.22267
 N734 N 0.09192 0.74535 0.20937
 N735 N 0.07379 0.74504 0.19891
 C736 C 0.05870 0.75956 0.20155
 N737 N 0.06241 0.77437 0.21501
 N738 N 0.08063 0.77482 0.22528
 C739 C 0.03830 0.75902 0.19070
 C740 C 0.03572 0.74894 0.17281
 H741 H 0.12483 0.74633 0.23562
 H742 H 0.02513 0.76744 0.19660
 H743 H 0.11543 0.79289 0.23955
 H744 H 0.04947 0.74264 0.16572
 C745 C 0.28382 0.13568 0.22654
 C746 C 0.27813 0.11864 0.23841
 C747 C 0.29197 0.10048 0.24095
 N748 N 0.28488 0.08336 0.25089
 N749 N 0.29693 0.06656 0.25271
 C750 C 0.31657 0.06626 0.24470
 N751 N 0.32376 0.08346 0.23494
 N752 N 0.31168 0.10024 0.23308
 C753 C 0.32974 0.04754 0.24591
 C754 C 0.32178 0.02876 0.25327
 H755 H 0.26277 0.11814 0.24536
 H756 H 0.34546 0.04838 0.23972
 H757 H 0.29899 0.13585 0.21922
 H758 H 0.30549 0.02809 0.25814
 C759 C 0.74386 0.63676 0.72509
 C760 C 0.76041 0.62875 0.71428
 C761 C 0.77003 0.60870 0.71988
 N762 N 0.78817 0.60264 0.71121
 N763 N 0.79718 0.58469 0.71652
 C764 C 0.78831 0.57213 0.73064
 N765 N 0.77008 0.57811 0.73916
 N766 N 0.76114 0.59606 0.73391
 C767 C 0.79804 0.55238 0.73696
 C768 C 0.81823 0.54660 0.73108
 H769 H 0.76699 0.63762 0.70195
 H770 H 0.78940 0.54267 0.74741
 H771 H 0.73803 0.62818 0.73794
 H772 H 0.82744 0.55727 0.72198
 C773 C 0.77040 0.37095 0.79361
 C774 C 0.76670 0.38645 0.77918
 C775 C 0.78055 0.40463 0.77660
 N776 N 0.77497 0.41974 0.76319
 N777 N 0.78727 0.43628 0.76042
 C778 C 0.80568 0.43834 0.77094
 N779 N 0.81133 0.42319 0.78433
 N780 N 0.79897 0.40664 0.78714
 C781 C 0.81951 0.45649 0.76775
 C782 C 0.81318 0.47315 0.75545
 H783 H 0.75293 0.38552 0.76944
 H784 H 0.83465 0.45678 0.77553
 H785 H 0.78375 0.37221 0.80383
 H786 H 0.79731 0.47300 0.74903
 C787 C 0.26809 -0.14738 0.28479
 C788 C 0.26667 -0.13233 0.26955
 C789 C 0.28237 -0.11559 0.26728
 N790 N 0.27835 -0.09961 0.25433
 N791 N 0.29198 -0.08395 0.25252
 C792 C 0.31023 -0.08372 0.26353
 N793 N 0.31440 -0.09984 0.27630
 N794 N 0.30070 -0.11547 0.27819
 C795 C 0.32498 -0.06606 0.26221
 C796 C 0.31894 -0.04742 0.25296
 H797 H 0.25318 -0.13208 0.25941
 H798 H 0.34015 -0.06729 0.26991
 H799 H 0.28150 -0.14711 0.29507
 H800 H 0.30298 -0.04599 0.24685
 C801 C 0.25591 -0.13053 0.71398
 C802 C 0.23778 -0.12180 0.70512
 C803 C 0.22902 -0.10239 0.71226
 N804 N 0.20980 -0.09555 0.70556
 N805 N 0.20172 -0.07814 0.71222
 C806 C 0.21262 -0.06691 0.72577
 N807 N 0.23188 -0.07367 0.73232
 N808 N 0.23991 -0.09109 0.72573
 C809 C 0.20408 -0.04769 0.73340
 C810 C 0.18338 -0.04114 0.72934
 H811 H 0.22952 -0.12946 0.69318
 H812 H 0.21424 -0.03896 0.74320
 H813 H 0.26340 -0.12288 0.72637
 H814 H 0.17284 -0.05095 0.72090
 C815 C 0.75638 0.37299 0.23094
 C816 C 0.73758 0.38011 0.22200
 C817 C 0.72744 0.39936 0.22777
 N818 N 0.70853 0.40501 0.21939
 N819 N 0.69935 0.42262 0.22415
 C820 C 0.70877 0.43525 0.23744
 N821 N 0.72768 0.42960 0.24579
 N822 N 0.73683 0.41197 0.24107
 C823 C 0.69917 0.45498 0.24251
 C824 C 0.67903 0.46091 0.23565
 H825 H 0.73003 0.37142 0.21035
 H826 H 0.70814 0.46489 0.25224
 H827 H 0.76352 0.38134 0.24305
 H828 H 0.66949 0.45010 0.22735
 C829 C 0.72963 0.64029 0.27557
 C830 C 0.73561 0.62283 0.26552
 C831 C 0.72124 0.60503 0.26357
 N832 N 0.72791 0.58781 0.25460
 N833 N 0.71509 0.57152 0.25299
 C834 C 0.69513 0.57186 0.26030
 N835 N 0.68846 0.58909 0.26921
 N836 N 0.70127 0.60536 0.27084
 C837 C 0.68070 0.55407 0.25865
 C838 C 0.68696 0.53570 0.25023
 H839 H 0.75132 0.62192 0.25936
 H840 H 0.66498 0.55560 0.26458
 H841 H 0.71398 0.64094 0.28194
 H842 H 0.70321 0.53437 0.24545
 C843 C 0.23948 0.12931 0.79208
 C844 C 0.24291 0.11456 0.77784
 C845 C 0.22875 0.09674 0.77520
 N846 N 0.23346 0.08250 0.76161
 N847 N 0.22073 0.06636 0.75883
 C848 C 0.20277 0.06387 0.76952
 N849 N 0.19803 0.07812 0.78311
 N850 N 0.21079 0.09426 0.78592
 C851 C 0.18838 0.04628 0.76637
 C852 C 0.19322 0.03064 0.75340
 H853 H 0.25648 0.11598 0.76825
 H854 H 0.17389 0.04559 0.77476
 H855 H 0.22619 0.12761 0.80199
 H856 H 0.20852 0.03094 0.74629
 C857 C 0.24007 0.25314 0.12312
 C858 C 0.22540 0.26610 0.11342
 C859 C 0.22981 0.27618 0.09408
 N860 N 0.21698 0.29148 0.08682
 N861 N 0.22070 0.30059 0.06920
 C862 C 0.23730 0.29461 0.05816
 N863 N 0.25003 0.27922 0.06536
 N864 N 0.24639 0.27021 0.08302
 C865 C 0.24149 0.30423 0.03858
 C866 C 0.23199 0.32266 0.03211
 H867 H 0.21041 0.26928 0.12031
 H868 H 0.25311 0.29703 0.02938
 H869 H 0.25559 0.25105 0.11683
 H870 H 0.22207 0.33089 0.04218
 C871 C 0.71583 0.77548 0.63258
 C872 C 0.72788 0.76989 0.61645
 C873 C 0.73001 0.78365 0.59877
 N874 N 0.74159 0.77772 0.58313
 N875 N 0.74356 0.79010 0.56708
 C876 C 0.73401 0.80887 0.56610
 N877 N 0.72247 0.81479 0.58175
 N878 N 0.72050 0.80242 0.59776
 C879 C 0.73598 0.82284 0.54859
 C880 C 0.74696 0.81741 0.53170
 H881 H 0.73587 0.75514 0.61668
 H882 H 0.72805 0.83757 0.54899
 H883 H 0.70781 0.79023 0.63213
 H884 H 0.75358 0.80205 0.53118
 C885 C 0.76642 0.75934 0.37084
 C886 C 0.77967 0.77290 0.38088
 C887 C 0.77341 0.78176 0.39974
 N888 N 0.78410 0.79820 0.40696
 N889 N 0.77855 0.80627 0.42408
 C890 C 0.76222 0.79809 0.43467
 N891 N 0.75168 0.78153 0.42754
 N892 N 0.75711 0.77356 0.41036
 C893 C 0.75606 0.80664 0.45368
 C894 C 0.76270 0.82615 0.45939
 H895 H 0.79473 0.77749 0.37459
 H896 H 0.74533 0.79772 0.46296
 H897 H 0.75075 0.75597 0.37649
 H898 H 0.77162 0.83578 0.44905
 C899 C 0.27369 0.27322 -0.13902
 C900 C 0.26358 0.26818 -0.12126
 C901 C 0.26157 0.28279 -0.10510
 N902 N 0.25228 0.27650 -0.08793
 N903 N 0.25061 0.28930 -0.07294
 C904 C 0.25819 0.30891 -0.07455
 N905 N 0.26742 0.31526 -0.09176
 N906 N 0.26911 0.30243 -0.10677
 C907 C 0.25648 0.32316 -0.05799
 C908 C 0.24801 0.31672 -0.03978
 H909 H 0.25729 0.25279 -0.11875
 H910 H 0.26236 0.33871 -0.06027
 H911 H 0.28003 0.28862 -0.14150
 H912 H 0.24325 0.30071 -0.03787
 C913 C 0.72911 0.22720 -0.13197
 C914 C 0.73968 0.23152 -0.11421
 C915 C 0.74050 0.21689 -0.09707
 N916 N 0.75046 0.22248 -0.08004
 N917 N 0.75106 0.20970 -0.06418
 C918 C 0.74169 0.19081 -0.06473
 N919 N 0.73178 0.18516 -0.08180
 N920 N 0.73118 0.19797 -0.09767
 C921 C 0.74201 0.17668 -0.04714
 C922 C 0.75103 0.18253 -0.02905
 H923 H 0.74729 0.24636 -0.11249
 H924 H 0.73441 0.16179 -0.04846
 H925 H 0.72154 0.21232 -0.13370
 H926 H 0.75755 0.19796 -0.02812
 C927 C 0.21718 0.71642 0.36290
 C928 C 0.22848 0.72033 0.38038
 C929 C 0.23014 0.70541 0.39723
 N930 N 0.24050 0.71095 0.41406
 N931 N 0.24213 0.69785 0.42961
 C932 C 0.23348 0.67866 0.42893
 N933 N 0.22316 0.67306 0.41205
 N934 N 0.22149 0.68620 0.39648
 C935 C 0.23527 0.66408 0.44612
 C936 C 0.24454 0.67000 0.46408
 H937 H 0.23619 0.73512 0.38211
 H938 H 0.22880 0.64873 0.44458
 H939 H 0.20919 0.70173 0.36125
 H940 H 0.24974 0.68587 0.46533
 C941 C 0.26866 0.73996 0.61837
 C942 C 0.27716 0.72109 0.61312
 C943 C 0.27078 0.71088 0.59469
 N944 N 0.27898 0.69220 0.59054
 N945 N 0.27364 0.68295 0.57375
 C946 C 0.25991 0.69207 0.56047
 N947 N 0.25171 0.71074 0.56463
 N948 N 0.25702 0.71996 0.58142
 C949 C 0.25417 0.68240 0.54161
 C950 C 0.26108 0.66276 0.53681
 H951 H 0.28893 0.71356 0.62266
 H952 H 0.24391 0.69103 0.53138
 H953 H 0.25653 0.74720 0.60900
 H954 H 0.26989 0.65363 0.54784
 C955 C 0.77625 0.25237 0.12651
 C956 C 0.78463 0.23382 0.12036
 C957 C 0.77772 0.22439 0.10172
 N958 N 0.78442 0.20520 0.09746
 N959 N 0.77840 0.19652 0.08057
 C960 C 0.76552 0.20677 0.06729
 N961 N 0.75890 0.22600 0.07151
 N962 N 0.76485 0.23464 0.08843
 C963 C 0.75902 0.19755 0.04843
 C964 C 0.76313 0.17696 0.04449
 H965 H 0.79635 0.22574 0.12955
 H966 H 0.75036 0.20713 0.03767
 H967 H 0.76387 0.25994 0.11769
 H968 H 0.77015 0.16716 0.05612
 C969 C 0.48307 0.37504 0.50213
 C970 C 0.47212 0.36905 0.51919
 C971 C 0.47662 0.34924 0.52968
 N972 N 0.46752 0.34458 0.54741
 N973 N 0.47198 0.32688 0.55717
 C974 C 0.48566 0.31318 0.54952
 N975 N 0.49461 0.31778 0.53175
 N976 N 0.49020 0.33546 0.52203
 C977 C 0.49127 0.29375 0.56011
 C978 C 0.48445 0.28875 0.57928
 H979 H 0.46057 0.37927 0.52533
 H980 H 0.50209 0.28365 0.55281
 H981 H 0.49500 0.36491 0.49644
 H982 H 0.47494 0.29977 0.58696
 C983 C -0.02636 0.88038 -0.00485
 C984 C -0.03322 0.87511 0.01423
 C985 C -0.02772 0.85514 0.02398
 N986 N -0.03406 0.85066 0.04281
 N987 N -0.02919 0.83259 0.05169
 C988 C -0.01778 0.81835 0.04206
 N989 N -0.01148 0.82284 0.02325
 N990 N -0.01633 0.84088 0.01439
 C991 C -0.01246 0.79816 0.05134
 C992 C -0.01764 0.79263 0.07088
 H993 H -0.04269 0.88583 0.02229
 H994 H -0.00384 0.78751 0.04245
 H995 H -0.01667 0.86964 -0.01269
 H996 H -0.02476 0.80404 0.08010
 C997 C 0.02189 0.61515 0.02037
 C998 C 0.00840 0.63196 0.01724
 C999 C 0.00769 0.64920 0.03094
 N1000 N -0.00461 0.66582 0.02631
 N1001 N -0.00545 0.68161 0.03848
 C1002 C 0.00595 0.68136 0.05578
 N1003 N 0.01820 0.66469 0.06047
 N1004 N 0.01908 0.64891 0.04826
 C1005 C 0.00516 0.69875 0.06935
 C1006 C -0.00557 0.71697 0.06417
 H1007 H -0.00182 0.63276 0.00417
 H1008 H 0.01377 0.69730 0.08335
 H1009 H 0.03251 0.61465 0.03318
 H1010 H -0.01280 0.71851 0.04949
 C1011 C 0.51210 0.13055 0.50728
 C1012 C 0.52340 0.13697 0.52398
 C1013 C 0.51763 0.15577 0.53436
 N1014 N 0.52829 0.16103 0.55116
 N1015 N 0.52322 0.17807 0.56060
 C1016 C 0.50732 0.19048 0.55355
 N1017 N 0.49671 0.18523 0.53674
 N1018 N 0.50175 0.16820 0.52733
 C1019 C 0.50153 0.20947 0.56353
 C1020 C 0.51074 0.21527 0.58153
 H1021 H 0.53674 0.12803 0.52970
 H1022 H 0.48913 0.21883 0.55662
 H1023 H 0.49853 0.13937 0.50188
 H1024 H 0.52185 0.20491 0.58912
 C1025 C -0.01531 0.13339 0.50709
 C1026 C -0.02219 0.13897 0.48792
 C1027 C -0.01330 0.15693 0.47703
 N1028 N -0.01958 0.16118 0.45799
 N1029 N -0.01183 0.17753 0.44804
 C1030 C 0.00248 0.19026 0.45678
 N1031 N 0.00874 0.18602 0.47583
 N1032 N 0.00103 0.16964 0.48577
 C1033 C 0.01074 0.20870 0.44622
 C1034 C 0.00572 0.21314 0.42629
 H1035 H -0.03432 0.12995 0.48059
 H1036 H 0.02111 0.21884 0.45442
 H1037 H -0.00278 0.14217 0.51415
 H1038 H -0.00326 0.20189 0.41800
 C1039 C 0.48001 0.59896 0.97254
 C1040 C 0.49259 0.61597 0.97700
 C1041 C 0.49223 0.63499 0.96454
 N1042 N 0.50222 0.65220 0.97092
 N1043 N 0.50173 0.66963 0.95993
 C1044 C 0.49129 0.67044 0.94211
 N1045 N 0.48145 0.65318 0.93566
 N1046 N 0.48187 0.63578 0.94669
 C1047 C 0.49028 0.68959 0.92991
 C1048 C 0.49679 0.70855 0.93717
 H1049 H 0.50236 0.61572 0.99037
 H1050 H 0.48304 0.68886 0.91525
 H1051 H 0.46947 0.59963 0.95966
 H1052 H 0.50228 0.70939 0.95246
 C1053 C 0.50697 0.88639 0.97824
 C1054 C 0.49140 0.87121 0.98031
 C1055 C 0.48979 0.85416 0.96641
 N1056 N 0.47861 0.83689 0.97140
 N1057 N 0.47826 0.82080 0.95952
 C1058 C 0.48898 0.82146 0.94216
 N1059 N 0.49982 0.83887 0.93701
 N1060 N 0.50027 0.85490 0.94893
 C1061 C 0.48990 0.80345 0.92943
 C1062 C 0.48340 0.78387 0.93606
 H1063 H 0.48147 0.87074 0.99330
 H1064 H 0.49771 0.80536 0.91530
 H1065 H 0.51764 0.88603 0.96581
 H1066 H 0.47720 0.78198 0.95093
 C1067 C 0.02304 0.37218 0.50015
 C1068 C 0.03274 0.36818 0.48222
 C1069 C 0.02931 0.34850 0.47221
 N1070 N 0.03825 0.34525 0.45437
 N1071 N 0.03496 0.32757 0.44514
 C1072 C 0.02260 0.31251 0.45344
 N1073 N 0.01374 0.31576 0.47129
 N1074 N 0.01702 0.33341 0.48049
 C1075 C 0.01856 0.29290 0.44360
 C1076 C 0.02639 0.28862 0.42489
 H1077 H 0.04274 0.37976 0.47516
 H1078 H 0.00847 0.28183 0.45124
 H1079 H 0.01293 0.36054 0.50700
 H1080 H 0.03517 0.30050 0.41685
 C1081 C 0.39759 0.51722 0.47229
 C1082 C 0.38070 0.51183 0.48452
 C1083 C 0.36214 0.52530 0.48637
 N1084 N 0.34482 0.51829 0.49622
 N1085 N 0.32768 0.53009 0.49754
 C1086 C 0.32726 0.54940 0.48911
 N1087 N 0.34466 0.55649 0.47943
 N1088 N 0.36177 0.54465 0.47805
 C1089 C 0.30827 0.56246 0.48999
 C1090 C 0.28900 0.55481 0.49704
 H1091 H 0.38059 0.49700 0.49233
 H1092 H 0.30931 0.57806 0.48390
 H1093 H 0.39728 0.53181 0.46401
 H1094 H 0.28796 0.53869 0.50166
 C1095 C 0.88628 0.02367 -0.02681
 C1096 C 0.86891 0.01804 -0.01528
 C1097 C 0.85079 0.03201 -0.01308
 N1098 N 0.83374 0.02576 -0.00239
 N1099 N 0.81718 0.03822 -0.00048
 C1100 C 0.81707 0.05741 -0.00919
 N1101 N 0.83414 0.06366 -0.01983
 N1102 N 0.85067 0.05120 -0.02175
 C1103 C 0.79900 0.07147 -0.00723
 C1104 C 0.78067 0.06565 0.00290
 H1105 H 0.86835 0.00295 -0.00797
 H1106 H 0.80020 0.08659 -0.01433
 H1107 H 0.88659 0.03871 -0.03425
 H1108 H 0.77941 0.04995 0.00877
 C1109 C 0.61354 -0.00117 0.02738
 C1110 C 0.62007 0.01702 0.03619
 C1111 C 0.64031 0.02699 0.03067
 N1112 N 0.64590 0.04557 0.03800
 N1113 N 0.66418 0.05457 0.03290
 C1114 C 0.67753 0.04527 0.02031
 N1115 N 0.67196 0.02670 0.01307
 N1116 N 0.65372 0.01776 0.01812
 C1117 C 0.69791 0.05461 0.01453
 C1118 C 0.70431 0.07429 0.02001
 H1119 H 0.61019 0.02416 0.04701
 H1120 H 0.70792 0.04569 0.00514
 H1121 H 0.62338 -0.00782 0.01621
 H1122 H 0.69340 0.08376 0.02799
 C1123 C 0.10320 0.51530 0.52590
 C1124 C 0.11946 0.51100 0.51289
 C1125 C 0.13796 0.52472 0.51042
 N1126 N 0.15451 0.51875 0.49934
 N1127 N 0.17159 0.53076 0.49736
 C1128 C 0.17273 0.54924 0.50632
 N1129 N 0.15610 0.55530 0.51724
 N1130 N 0.13905 0.54326 0.51928
 C1131 C 0.19177 0.56240 0.50479
 C1132 C 0.21040 0.55551 0.49631
 H1133 H 0.11904 0.49689 0.50471
 H1134 H 0.19144 0.57726 0.51168
 H1135 H 0.10397 0.52919 0.53443
 H1136 H 0.21083 0.53999 0.49081
 C1137 C 0.10006 0.47803 -0.02542
 C1138 C 0.11785 0.48111 -0.01330
 C1139 C 0.13594 0.46684 -0.01302
 N1140 N 0.15441 0.47208 -0.00382
 N1141 N 0.17110 0.45956 -0.00399
 C1142 C 0.16990 0.44128 -0.01331
 N1143 N 0.15137 0.43594 -0.02233
 N1144 N 0.13471 0.44850 -0.02223
 C1145 C 0.18826 0.42740 -0.01394
 C1146 C 0.20849 0.43348 -0.00771
 H1147 H 0.11907 0.49482 -0.00455
 H1148 H 0.18588 0.41246 -0.02038
 H1149 H 0.09937 0.46475 -0.03480
 H1150 H 0.21086 0.44913 -0.00287
 C1151 C 0.61784 1.00580 0.48023
 C1152 C 0.62486 0.98833 0.47074
 C1153 C 0.64480 0.97794 0.47676
 N1154 N 0.65068 0.96037 0.46790
 N1155 N 0.66869 0.95086 0.47328
 C1156 C 0.68148 0.95862 0.48771
 N1157 N 0.67561 0.97620 0.49651
 N1158 N 0.65762 0.98567 0.49116
 C1159 C 0.70147 0.94853 0.49391
 C1160 C 0.70805 0.92978 0.48644
 H1161 H 0.61552 0.98197 0.45874
 H1162 H 0.71091 0.95595 0.50522
 H1163 H 0.62712 1.01186 0.49243
 H1164 H 0.69762 0.92174 0.47629
 C1165 C 0.86846 1.01266 0.52594
 C1166 C 0.86059 0.99479 0.53527
 C1167 C 0.84171 0.98386 0.52787
 N1168 N 0.83599 0.96554 0.53651
 N1169 N 0.81893 0.95541 0.53004
 C1170 C 0.80689 0.96327 0.51473
 N1171 N 0.81255 0.98164 0.50615
 N1172 N 0.82967 0.99175 0.51257
 C1173 C 0.78797 0.95230 0.50744
 C1174 C 0.78294 0.93229 0.51406
 H1175 H 0.86868 0.98829 0.54829
 H1176 H 0.77830 0.95993 0.49604
 H1177 H 0.86080 1.01874 0.51251
 H1178 H 0.79378 0.92422 0.52421
 C1179 C 0.39465 0.46445 0.01912
 C1180 C 0.38051 0.46644 0.00305
 C1181 C 0.36115 0.45385 0.00149
 N1182 N 0.34590 0.45923 -0.01211
 N1183 N 0.32796 0.44839 -0.01339
 C1184 C 0.32469 0.43166 -0.00118
 N1185 N 0.34006 0.42611 0.01225
 N1186 N 0.35795 0.43704 0.01362
 C1187 C 0.30469 0.41994 -0.00201
 C1188 C 0.28667 0.42788 -0.01173
 H1189 H 0.38299 0.47836 -0.00828
 H1190 H 0.30373 0.40552 0.00647
 H1191 H 0.39156 0.45321 0.03096
 H1192 H 0.28732 0.44322 -0.01854
 C1193 C 0.53413 0.47928 0.38647
 C1194 C 0.53011 0.49431 0.37167
 C1195 C 0.54343 0.49646 0.35399
 N1196 N 0.53687 0.50841 0.33819
 N1197 N 0.54836 0.50976 0.32176
 C1198 C 0.56689 0.49928 0.32056
 N1199 N 0.57358 0.48756 0.33646
 N1200 N 0.56205 0.48613 0.35285
 C1201 C 0.57935 0.49985 0.30228
 C1202 C 0.57135 0.50823 0.28437
 H1203 H 0.51615 0.50391 0.37241
 H1204 H 0.59448 0.49203 0.30267
 H1205 H 0.54759 0.46911 0.38518
 H1206 H 0.55544 0.51451 0.28392
 C1207 C 0.00924 -0.01162 0.87709
 C1208 C 0.02206 -0.02515 0.86703
 C1209 C 0.03237 -0.01896 0.84832
 N1210 N 0.04722 -0.03128 0.84048
 N1211 N 0.05654 -0.02587 0.82346
 C1212 C 0.05124 -0.00798 0.81362
 N1213 N 0.03630 0.00426 0.82140
 N1214 N 0.02708 -0.00109 0.83846
 C1215 C 0.06109 -0.00182 0.79471
 C1216 C 0.07882 -0.01176 0.78748
 H1217 H 0.02488 -0.04057 0.87310
 H1218 H 0.05461 0.01149 0.78667
 H1219 H 0.00738 0.00412 0.87149
 H1220 H 0.08643 -0.02377 0.79655
 C1221 C -0.00913 0.03339 0.63740
 C1222 C 0.01005 0.04175 0.64397
 C1223 C 0.02093 0.03432 0.66225
 N1224 N 0.04049 0.04172 0.66689
 N1225 N 0.05078 0.03491 0.68321
 C1226 C 0.04187 0.02047 0.69553
 N1227 N 0.02223 0.01317 0.69097
 N1228 N 0.01195 0.01994 0.67461
 C1229 C 0.05320 0.01255 0.71341
 C1230 C 0.07434 0.01766 0.71735
 H1231 H 0.01778 0.05375 0.63519
 H1232 H 0.04494 0.00169 0.72308
 H1233 H -0.01659 0.02105 0.64599
 H1234 H 0.08278 0.02729 0.70665
 C1235 C 0.52782 0.51843 0.10549
 C1236 C 0.52144 0.50944 0.12349
 C1237 C 0.53527 0.50921 0.14131
 N1238 N 0.52791 0.50153 0.15886
 N1239 N 0.54021 0.50139 0.17515
 C1240 C 0.56035 0.50891 0.17446
 N1241 N 0.56773 0.51651 0.15689
 N1242 N 0.55542 0.51669 0.14062
 C1243 C 0.57413 0.50900 0.19229
 C1244 C 0.56683 0.50306 0.21106
 H1245 H 0.50574 0.50276 0.12477
 H1246 H 0.59018 0.51467 0.19056
 H1247 H 0.54335 0.52555 0.10444
 H1248 H 0.55027 0.49889 0.21269
 C1249 C 0.47110 -0.03506 0.11310
 C1250 C 0.47691 -0.02354 0.12948
 C1251 C 0.46360 -0.02269 0.14721
 N1252 N 0.47101 -0.01316 0.16361
 N1253 N 0.45934 -0.01258 0.17991
 C1254 C 0.43979 -0.02147 0.18041
 N1255 N 0.43232 -0.03088 0.16396
 N1256 N 0.44402 -0.03152 0.14768
 C1257 C 0.42680 -0.02108 0.19841
 C1258 C 0.43490 -0.01378 0.21631
 H1259 H 0.49198 -0.01547 0.12969
 H1260 H 0.41089 -0.02734 0.19756
 H1261 H 0.45627 -0.04356 0.11320
 H1262 H 0.45136 -0.00893 0.21696
 C1263 C 0.97324 0.46841 0.61739
 C1264 C 0.97582 0.48485 0.63009
 C1265 C 0.96224 0.48732 0.64741
 N1266 N 0.96765 0.50110 0.66142
 N1267 N 0.95558 0.50338 0.67726
 C1268 C 0.93757 0.49204 0.67961
 N1269 N 0.93206 0.47841 0.66551
 N1270 N 0.94419 0.47604 0.64973
 C1271 C 0.92412 0.49426 0.69706
 C1272 C 0.93105 0.50469 0.71381
 H1273 H 0.98856 0.49585 0.62771
 H1274 H 0.90888 0.48650 0.69710
 H1275 H 0.96127 0.45677 0.62050
 H1276 H 0.94710 0.51073 0.71428
 C1277 C 0.96647 0.53620 0.88975
 C1278 C 0.97002 0.52228 0.87476
 C1279 C 0.95691 0.52143 0.85655
 N1280 N 0.96296 0.50915 0.84173
 N1281 N 0.95152 0.50819 0.82499
 C1282 C 0.93350 0.51943 0.82245
 N1283 N 0.92733 0.53162 0.83734
 N1284 N 0.93885 0.53265 0.85409
 C1285 C 0.92088 0.51858 0.80389
 C1286 C 0.92860 0.50905 0.78716
 H1287 H 0.98339 0.51190 0.87600
 H1288 H 0.90574 0.52640 0.80317
 H1289 H 0.95358 0.54714 0.88820
 H1290 H 0.94453 0.50284 0.78773
 C1291 C 0.47680 0.03023 0.38746
 C1292 C 0.48190 0.01585 0.37335
 C1293 C 0.46789 0.01199 0.35612
 N1294 N 0.47451 -0.00027 0.34148
 N1295 N 0.46216 -0.00351 0.32561
 C1296 C 0.44269 0.00533 0.32383
 N1297 N 0.43601 0.01745 0.33854
 N1298 N 0.44838 0.02075 0.35438
 C1299 C 0.42902 0.00230 0.30620
 C1300 C 0.43621 -0.00762 0.28949
 H1301 H 0.49683 0.00769 0.37452
 H1302 H 0.41337 0.00909 0.30607
 H1303 H 0.46213 0.03880 0.38584
 H1304 H 0.45248 -0.01296 0.28943
   
