data_POSCAR
  _audit_creation_date              2014-09-24
  _audit_creation_method            'ToBaCCo'
  _symmetry_space_group_name_H-M    'P1'
  _symmetry_Int_Tables_number       1
  _symmetry_cell_setting            triclinic
  loop_
  _symmetry_equiv_pos_as_xyz
 x,y,z
_cell_length_a 66.9954
_cell_length_b 67.6806
_cell_length_c 66.7630
_cell_angle_alpha 89.977700
_cell_angle_beta 90.200100
_cell_angle_gamma 89.303800
loop_
  _atom_site_label
  _atom_site_type_symbol
  _atom_site_fract_x
  _atom_site_fract_y
  _atom_site_fract_z
C1 C 0.36715 1.34942 0.33919
 C2 C 0.36593 1.33567 0.35487
 C3 C 0.35054 1.33710 0.36857
 C4 C 0.33625 1.35231 0.36685
 C5 C 0.33732 1.36564 0.35131
 C6 C 0.35288 1.36418 0.33737
 C7 C 0.38000 1.35129 0.32329
 N8 N 0.37385 1.36682 0.31164
 C9 C 0.35716 1.37469 0.32036
 C10 C 0.32101 1.37808 0.35278
 N11 N 0.30998 1.37277 0.36903
 C12 C 0.31941 1.35691 0.37766
 C13 C 0.35229 1.32122 0.38131
 N14 N 0.36836 1.31012 0.37569
 C15 C 0.37685 1.31894 0.35957
 H16 H 0.39242 1.34142 0.32023
 H17 H 0.34867 1.38735 0.31511
 H18 H 0.31782 1.39026 0.34276
 H19 H 0.31420 1.34861 0.39041
 H20 H 0.34237 1.31783 0.39357
 H21 H 0.38950 1.31315 0.35131
 C22 C 0.36475 0.85143 0.83575
 C23 C 0.36451 0.83656 0.85039
 C24 C 0.34892 0.83568 0.86395
 C25 C 0.33335 0.84982 0.86306
 C26 C 0.33365 0.86432 0.84853
 C27 C 0.34945 0.86524 0.83494
 C28 C 0.37763 0.85563 0.82032
 N29 N 0.37049 0.87174 0.81030
 C30 C 0.35324 0.87768 0.81919
 C31 C 0.31666 0.87559 0.85055
 N32 N 0.30573 0.86854 0.86613
 C33 C 0.31605 0.85275 0.87392
 C34 C 0.35247 0.81939 0.87594
 N35 N 0.36981 0.81049 0.87002
 C36 C 0.37721 0.82096 0.85441
 H37 H 0.39119 0.84757 0.81668
 H38 H 0.34384 0.88987 0.81425
 H39 H 0.31302 0.88835 0.84145
 H40 H 0.31121 0.84351 0.88616
 H41 H 0.34311 0.81441 0.88808
 H42 H 0.39064 0.81723 0.84619
 C43 C 0.87242 1.35678 0.84283
 C44 C 0.87211 1.34299 0.85842
 C45 C 0.85644 1.34291 0.87185
 C46 C 0.84091 1.35696 0.86989
 C47 C 0.84131 1.37058 0.85449
 C48 C 0.85725 1.37057 0.84092
 C49 C 0.88521 1.35935 0.82708
 N50 N 0.87834 1.37454 0.81543
 C51 C 0.86119 1.38152 0.82404
 C52 C 0.82408 1.38171 0.85563
 N53 N 0.81302 1.37540 0.87147
 C54 C 0.82344 1.36020 0.88026
 C55 C 0.85967 1.32709 0.88456
 N56 N 0.87696 1.31779 0.87915
 C57 C 0.88460 1.32748 0.86318
 H58 H 0.89867 1.35072 0.82464
 H59 H 0.85158 1.39308 0.81811
 H60 H 0.82028 1.39376 0.84563
 H61 H 0.81854 1.35146 0.89284
 H62 H 0.85004 1.32256 0.89667
 H63 H 0.89792 1.32311 0.85509
 C64 C 0.87779 0.85890 0.34524
 C65 C 0.87902 0.84535 0.36104
 C66 C 0.86528 0.84615 0.37640
 C67 C 0.85023 0.86073 0.37623
 C68 C 0.84906 0.87421 0.36065
 C69 C 0.86306 0.87331 0.34502
 C70 C 0.88846 0.86061 0.32786
 N71 N 0.88076 0.87586 0.31681
 C72 C 0.86519 0.88376 0.32743
 C73 C 0.83236 0.88584 0.36392
 N74 N 0.82345 0.87978 0.38111
 C75 C 0.83433 0.86443 0.38870
 C76 C 0.86931 0.83037 0.38886
 N77 N 0.88521 0.82012 0.38142
 C78 C 0.89124 0.82925 0.36441
 H79 H 0.90112 0.85137 0.32392
 H80 H 0.85541 0.89564 0.32253
 H81 H 0.82703 0.89772 0.35438
 H82 H 0.83059 0.85608 0.40197
 H83 H 0.86107 0.82646 0.40218
 H84 H 0.90312 0.82407 0.35472
 C85 C 0.62791 0.64453 0.33998
 C86 C 0.62857 0.65927 0.35472
 C87 C 0.64407 0.65947 0.36844
 C88 C 0.65906 0.64485 0.36769
 C89 C 0.65839 0.63031 0.35317
 C90 C 0.64276 0.63026 0.33912
 C91 C 0.61509 0.64119 0.32426
 N92 N 0.62181 0.62527 0.31356
 C93 C 0.63882 0.61856 0.32278
 C94 C 0.67502 0.61842 0.35577
 N95 N 0.68577 0.62542 0.37150
 C96 C 0.67610 0.64163 0.37883
 C97 C 0.64136 0.67586 0.38034
 N98 N 0.62457 0.68563 0.37420
 C99 C 0.61664 0.67552 0.35854
 H100 H 0.60232 0.65042 0.32057
 H101 H 0.64780 0.60597 0.31827
 H102 H 0.67916 0.60584 0.34662
 H103 H 0.68099 0.65038 0.39145
 H104 H 0.65099 0.68038 0.39252
 H105 H 0.60352 0.67999 0.35011
 C106 C 0.62579 0.14139 0.84288
 C107 C 0.62672 0.15689 0.85687
 C108 C 0.64131 0.15654 0.87164
 C109 C 0.65499 0.14074 0.87275
 C110 C 0.65386 0.12549 0.85919
 C111 C 0.63935 0.12592 0.84408
 C112 C 0.61451 0.13837 0.82584
 N113 N 0.62117 0.12160 0.81647
 C114 C 0.63632 0.11395 0.82786
 C115 C 0.66961 0.11285 0.86292
 N116 N 0.68064 0.12008 0.87841
 C117 C 0.67160 0.13725 0.88447
 C118 C 0.63964 0.17387 0.88222
 N119 N 0.62438 0.18480 0.87436
 C120 C 0.61636 0.17451 0.85886
 H121 H 0.60317 0.14846 0.82021
 H122 H 0.64481 0.10062 0.82480
 H123 H 0.67324 0.09998 0.85400
 H124 H 0.67656 0.14674 0.89646
 H125 H 0.64897 0.17824 0.89468
 H126 H 0.60431 0.17972 0.84931
 C127 C 1.12238 0.64096 0.84853
 C128 C 1.12193 0.65659 0.86226
 C129 C 1.13731 0.65872 0.87589
 C130 C 1.15330 0.64515 0.87606
 C131 C 1.15371 0.62966 0.86263
 C132 C 1.13818 0.62761 0.84860
 C133 C 1.11017 0.63621 0.83273
 N134 N 1.11818 0.62035 0.82306
 C135 C 1.13533 0.61497 0.83270
 C136 C 1.17126 0.61935 0.86586
 N137 N 1.18172 0.62824 0.88090
 C138 C 1.17063 0.64413 0.88708
 C139 C 1.13359 0.67582 0.88644
 N140 N 1.11631 0.68411 0.87952
 C141 C 1.10908 0.67238 0.86474
 H142 H 1.09693 0.64431 0.82805
 H143 H 1.14523 0.60302 0.82824
 H144 H 1.17617 0.60672 0.85719
 H145 H 1.17447 0.65425 0.89897
 H146 H 1.14294 0.68188 0.89811
 H147 H 1.09586 0.67550 0.85586
 C148 C 1.13131 0.15012 0.33926
 C149 C 1.13259 0.16536 0.35345
 C150 C 1.14862 0.16583 0.36650
 C151 C 1.16346 0.15115 0.36566
 C152 C 1.16222 0.13612 0.35182
 C153 C 1.14606 0.13570 0.33836
 C154 C 1.11803 0.14646 0.32399
 N155 N 1.12437 0.13023 0.31353
 C156 C 1.14158 0.12363 0.32245
 C157 C 1.17904 0.12441 0.35420
 N158 N 1.19063 0.13211 0.36910
 C159 C 1.18096 0.14855 0.37607
 C160 C 1.14672 0.18262 0.37786
 N161 N 1.12991 0.19250 0.37206
 C162 C 1.12110 0.18199 0.35715
 H163 H 1.10527 0.15572 0.32036
 H164 H 1.15040 0.11092 0.31796
 H165 H 1.18272 0.11167 0.34511
 H166 H 1.18586 0.15798 0.38815
 H167 H 1.15695 0.18736 0.38944
 H168 H 1.10772 0.18644 0.34912
 C169 C 0.64139 1.34476 0.66746
 C170 C 0.64118 1.32962 0.65302
 C171 C 0.65589 1.32881 0.63852
 C172 C 0.67087 1.34309 0.63810
 C173 C 0.67100 1.35794 0.65225
 C174 C 0.65629 1.35866 0.66708
 C175 C 0.62954 1.34907 0.68379
 N176 N 0.63704 1.36515 0.69352
 C177 C 0.65344 1.37100 0.68314
 C178 C 0.68737 1.36942 0.64857
 N179 N 0.69725 1.36190 0.63248
 C180 C 0.68724 1.34573 0.62602
 C181 C 0.65256 1.31231 0.62706
 N182 N 0.63619 1.30298 0.63416
 C183 C 0.62907 1.31353 0.65002
 H184 H 0.61689 1.34048 0.68850
 H185 H 0.66269 1.38353 0.68657
 H186 H 0.69199 1.38208 0.65726
 H187 H 0.69148 1.33659 0.61339
 H188 H 0.66148 1.30746 0.61446
 H189 H 0.61638 1.30950 0.65907
 C190 C 0.64086 0.84101 1.16713
 C191 C 0.64164 0.82599 1.15265
 C192 C 0.65627 0.82624 1.13813
 C193 C 0.67019 0.84148 1.13778
 C194 C 0.66933 0.85640 1.15190
 C195 C 0.65448 0.85615 1.16670
 C196 C 0.62889 0.84402 1.18354
 N197 N 0.63476 0.86072 1.19328
 C198 C 0.65044 0.86821 1.18281
 C199 C 0.68513 0.86873 1.14822
 N200 N 0.69554 0.86152 1.13230
 C201 C 0.68641 0.84488 1.12583
 C202 C 0.65399 0.80967 1.12652
 N203 N 0.63824 0.79934 1.13356
 C204 C 0.63057 0.80924 1.14956
 H205 H 0.61666 0.83462 1.18773
 H206 H 0.65905 0.88102 1.18688
 H207 H 0.68910 0.88163 1.15687
 H208 H 0.69124 0.83582 1.11336
 H209 H 0.66307 0.80552 1.11379
 H210 H 0.61812 0.80441 1.15854
 C211 C 1.13344 1.34851 1.16188
 C212 C 1.13367 1.33389 1.14699
 C213 C 1.14889 1.33338 1.13311
 C214 C 1.16415 1.34729 1.13399
 C215 C 1.16398 1.36177 1.14854
 C216 C 1.14849 1.36234 1.16272
 C217 C 1.12071 1.35228 1.17755
 N218 N 1.12761 1.36801 1.18802
 C219 C 1.14464 1.37425 1.17906
 C220 C 1.18083 1.37295 1.14567
 N221 N 1.19137 1.36546 1.12984
 C222 C 1.18101 1.34971 1.12272
 C223 C 1.14563 1.31755 1.12070
 N224 N 1.12880 1.30832 1.12674
 C225 C 1.12139 1.31821 1.14287
 H226 H 1.10763 1.34383 1.18134
 H227 H 1.15357 1.38655 1.18401
 H228 H 1.18523 1.38522 1.15501
 H229 H 1.18496 1.34070 1.10994
 H230 H 1.15512 1.31279 1.10849
 H231 H 1.10806 1.31431 1.15100
 C232 C 1.13903 0.85126 0.66434
 C233 C 1.13790 0.83577 0.65046
 C234 C 1.15233 0.83374 0.63584
 C235 C 1.16802 0.84720 0.63480
 C236 C 1.16911 0.86254 0.64842
 C237 C 1.15455 0.86453 0.66338
 C238 C 1.12756 0.85636 0.68062
 N239 N 1.13574 0.87235 0.68965
 C240 C 1.15227 0.87744 0.67916
 C241 C 1.18608 0.87296 0.64405
 N242 N 1.19531 0.86426 0.62816
 C243 C 1.18433 0.84847 0.62245
 C244 C 1.14792 0.81711 0.62496
 N245 N 1.13114 0.80895 0.63260
 C246 C 1.12489 0.82033 0.64820
 H247 H 1.11456 0.84858 0.68586
 H248 H 1.16201 0.88959 0.68276
 H249 H 1.19152 0.88568 0.65213
 H250 H 1.18785 0.83866 0.61013
 H251 H 1.15635 0.81138 0.61239
 H252 H 1.11214 0.81732 0.65758
 C253 C 0.37442 0.64441 0.65519
 C254 C 0.37460 0.65967 0.64105
 C255 C 0.35908 0.66175 0.62751
 C256 C 0.34320 0.64840 0.62784
 C257 C 0.34310 0.63323 0.64168
 C258 C 0.35876 0.63131 0.65563
 C259 C 0.38699 0.63972 0.67081
 N260 N 0.37934 0.62414 0.68091
 C261 C 0.36205 0.61887 0.67169
 C262 C 0.32581 0.62285 0.63867
 N263 N 0.31519 0.63132 0.62335
 C264 C 0.32590 0.64709 0.61679
 C265 C 0.36283 0.67838 0.61628
 N266 N 0.38027 0.68634 0.62269
 C267 C 0.38754 0.67493 0.63785
 H268 H 0.40030 0.64765 0.67504
 H269 H 0.35241 0.60708 0.67650
 H270 H 0.32124 0.61037 0.64760
 H271 H 0.32189 0.65682 0.60455
 H272 H 0.35347 0.68428 0.60440
 H273 H 0.40094 0.67786 0.64640
 C274 C 0.36943 0.14569 1.15758
 C275 C 0.36805 0.16012 1.14263
 C276 C 0.35232 0.16011 1.12912
 C277 C 0.33781 0.14524 1.13035
 C278 C 0.33950 0.13080 1.14492
 C279 C 0.35530 0.13109 1.15872
 C280 C 0.38241 0.14302 1.17336
 N281 N 0.37646 0.12714 1.18415
 C282 C 0.35994 0.11966 1.17519
 C283 C 0.32355 0.11845 1.14281
 N284 N 0.31186 0.12488 1.12730
 C285 C 0.32059 0.14142 1.11970
 C286 C 0.35481 0.17629 1.11676
 N287 N 0.37172 0.18580 1.12242
 C288 C 0.37978 0.17600 1.13829
 H289 H 0.39507 0.15219 1.17689
 H290 H 0.35140 0.10734 1.18073
 H291 H 0.32054 0.10608 1.15255
 H292 H 0.31522 0.15000 1.10707
 H293 H 0.34517 0.18069 1.10446
 H294 H 0.39309 0.18029 1.14635
 C295 C 0.85865 0.65749 1.16761
 C296 C 0.85901 0.67150 1.15221
 C297 C 0.84438 0.67161 1.13758
 C298 C 0.82922 0.65745 1.13810
 C299 C 0.82899 0.64342 1.15322
 C300 C 0.84383 0.64347 1.16817
 C301 C 0.87059 0.65465 1.18413
 N302 N 0.86346 0.63923 1.19485
 C303 C 0.84713 0.63220 1.18513
 C304 C 0.81249 0.63184 1.15006
 N305 N 0.80267 0.63851 1.13347
 C306 C 0.81284 0.65418 1.12610
 C307 C 0.84832 0.68723 1.12495
 N308 N 0.86506 0.69642 1.13157
 C309 C 0.87162 0.68685 1.14827
 H310 H 0.88354 0.66326 1.18807
 H311 H 0.83799 0.62015 1.19030
 H312 H 0.80777 0.61971 1.15942
 H313 H 0.80872 0.66257 1.11287
 H314 H 0.83971 0.69150 1.11186
 H315 H 0.88443 0.69100 1.15718
 C316 C 0.86216 0.15453 0.66160
 C317 C 0.86364 0.16870 0.64629
 C318 C 0.84958 0.16924 0.63105
 C319 C 0.83382 0.15584 0.63095
 C320 C 0.83237 0.14197 0.64602
 C321 C 0.84657 0.14139 0.66146
 C322 C 0.87334 0.15057 0.67853
 N323 N 0.86481 0.13542 0.68885
 C324 C 0.84836 0.12985 0.67828
 C325 C 0.81542 0.13127 0.64244
 N326 N 0.80648 0.13838 0.62557
 C327 C 0.81765 0.15345 0.61846
 C328 C 0.85425 0.18467 0.61863
 N329 N 0.87077 0.19365 0.62592
 C330 C 0.87662 0.18399 0.64287
 H331 H 0.88635 0.15873 0.68314
 H332 H 0.83842 0.11796 0.68205
 H333 H 0.80973 0.11953 0.65175
 H334 H 0.81430 0.16205 0.60517
 H335 H 0.84583 0.18940 0.60558
 H336 H 0.88930 0.18785 0.65211
 C337 C 1.35996 0.36864 0.65533
 C338 C 1.34558 0.36905 0.63998
 C339 C 1.34634 0.35509 0.62486
 C340 C 1.36133 0.34048 0.62494
 C341 C 1.37553 0.34015 0.63991
 C342 C 1.37481 0.35425 0.65526
 C343 C 1.36235 0.37955 0.67258
 N344 N 1.37819 0.37203 0.68299
 C345 C 1.38589 0.35657 0.67244
 C346 C 1.38756 0.32385 0.63673
 N347 N 1.38090 0.31398 0.62023
 C348 C 1.36479 0.32429 0.61298
 C349 C 1.33014 0.35837 0.61259
 N350 N 1.31946 0.37396 0.61985
 C351 C 1.32879 0.38056 0.63665
 H352 H 1.35279 0.39158 0.67753
 H353 H 1.39852 0.34750 0.67701
 H354 H 1.39957 0.31914 0.64655
 H355 H 1.35604 0.32054 0.59992
 H356 H 1.32606 0.34958 0.59969
 H357 H 1.32368 0.39274 0.64588
 C358 C 1.35144 0.86511 1.16267
 C359 C 1.33605 0.86408 1.14849
 C360 C 1.33533 0.84848 1.13509
 C361 C 1.35014 0.83355 1.13589
 C362 C 1.36506 0.83451 1.15018
 C363 C 1.36573 0.85038 1.16359
 C364 C 1.35537 0.87819 1.17788
 N365 N 1.37177 0.87173 1.18827
 C366 C 1.37810 0.85460 1.17943
 C367 C 1.37671 0.81783 1.14837
 N368 N 1.36952 0.80650 1.13316
 C369 C 1.35321 0.81620 1.12541
 C370 C 1.31808 0.85099 1.12392
 N371 N 1.30838 0.86755 1.13047
 C372 C 1.31939 0.87564 1.14539
 H373 H 1.34623 0.89098 1.18144
 H374 H 1.39089 0.84572 1.18384
 H375 H 1.38978 0.81464 1.15740
 H376 H 1.34368 0.81085 1.11353
 H377 H 1.31257 0.84107 1.11251
 H378 H 1.31539 0.88885 1.15367
 C379 C 0.85556 0.36795 1.16358
 C380 C 0.84028 0.36774 1.14913
 C381 C 0.83994 0.35301 1.13473
 C382 C 0.85503 0.33839 1.13447
 C383 C 0.87012 0.33888 1.14854
 C384 C 0.87025 0.35355 1.16327
 C385 C 0.85920 0.37971 1.18002
 N386 N 0.87566 0.37257 1.18993
 C387 C 0.88246 0.35658 1.17946
 C388 C 0.88250 0.32298 1.14515
 N389 N 0.87540 0.31245 1.12931
 C390 C 0.85843 0.32188 1.12278
 C391 C 0.82311 0.35619 1.12318
 N392 N 0.81332 0.37252 1.13016
 C393 C 0.82375 0.37962 1.14605
 H394 H 0.84980 0.39192 1.18477
 H395 H 0.89543 0.34760 1.18305
 H396 H 0.89529 0.31911 1.15433
 H397 H 0.84923 0.31744 1.11026
 H398 H 0.81844 0.34734 1.11055
 H399 H 0.81943 0.39227 1.15502
 C400 C 0.86327 0.87557 0.65105
 C401 C 0.84899 0.87717 0.63570
 C402 C 0.84863 0.86329 0.62051
 C403 C 0.86242 0.84755 0.62053
 C404 C 0.87650 0.84597 0.63565
 C405 C 0.87690 0.86006 0.65103
 C406 C 0.86636 0.88616 0.66835
 N407 N 0.88147 0.87741 0.67886
 C408 C 0.88799 0.86143 0.66832
 C409 C 0.88695 0.82862 0.63261
 N410 N 0.87948 0.81957 0.61608
 C411 C 0.86447 0.83110 0.60860
 C412 C 0.83251 0.86772 0.60847
 N413 N 0.82298 0.88391 0.61600
 C414 C 0.83299 0.88978 0.63268
 H415 H 0.85770 0.89885 0.67328
 H416 H 0.89979 0.85135 0.67299
 H417 H 0.89853 0.82259 0.64227
 H418 H 0.85543 0.82763 0.59563
 H419 H 0.82756 0.85923 0.59568
 H420 H 0.82875 0.90210 0.64215
 C421 C 0.64451 0.63373 0.66312
 C422 C 0.66019 0.63230 0.64934
 C423 C 0.66190 0.64624 0.63436
 C424 C 0.64808 0.66186 0.63302
 C425 C 0.63255 0.66330 0.64657
 C426 C 0.63073 0.64908 0.66176
 C427 C 0.63985 0.62285 0.67978
 N428 N 0.62355 0.63114 0.68864
 C429 C 0.61783 0.64718 0.67766
 C430 C 0.62216 0.68048 0.64221
 N431 N 0.63114 0.68948 0.62646
 C432 C 0.64697 0.67813 0.62076
 C433 C 0.67893 0.64178 0.62380
 N434 N 0.68768 0.62548 0.63205
 C435 C 0.67629 0.61959 0.64772
 H436 H 0.64785 0.60988 0.68513
 H437 H 0.60562 0.65713 0.68134
 H438 H 0.60948 0.68635 0.65036
 H439 H 0.65711 0.68154 0.60868
 H440 H 0.68490 0.65023 0.61147
 H441 H 0.67954 0.60709 0.65736
 C442 C 0.63864 1.12326 1.15399
 C443 C 0.65274 1.12389 1.13863
 C444 C 0.65234 1.13917 1.12491
 C445 C 0.63748 1.15393 1.12629
 C446 C 0.62329 1.15305 1.14123
 C447 C 0.62394 1.13760 1.15530
 C448 C 0.63676 1.11102 1.17021
 N449 N 0.62120 1.11746 1.18167
 C450 C 0.61316 1.13371 1.17236
 C451 C 0.61122 1.16953 1.13929
 N452 N 0.61772 1.18065 1.12358
 C453 C 0.63389 1.17101 1.11564
 C454 C 0.66860 1.13650 1.11254
 N455 N 0.67864 1.11988 1.11842
 C456 C 0.66901 1.11215 1.13441
 H457 H 0.64628 1.09835 1.17320
 H458 H 0.60111 1.14288 1.17801
 H459 H 0.59913 1.17335 1.14931
 H460 H 0.64247 1.17572 1.10286
 H461 H 0.67287 1.14600 1.10027
 H462 H 0.67388 1.09927 1.14280
 C463 C 0.14795 0.63542 1.16285
 C464 C 0.16234 0.63690 1.14779
 C465 C 0.16074 0.65160 1.13350
 C466 C 0.14471 0.66511 1.13420
 C467 C 0.13039 0.66352 1.14891
 C468 C 0.13202 0.64850 1.16338
 C469 C 0.14633 0.62309 1.17907
 N470 N 0.12969 0.62820 1.18969
 C471 C 0.12084 0.64378 1.17995
 C472 C 0.11704 0.67893 1.14621
 N473 N 0.12296 0.69010 1.13031
 C474 C 0.13995 0.68150 1.12292
 C475 C 0.17703 0.64970 1.12108
 N476 N 0.18846 0.63421 1.12756
 C477 C 0.17955 0.62634 1.14392
 H478 H 0.15662 0.61114 1.18250
 H479 H 0.10768 0.65182 1.18480
 H480 H 0.10449 0.68207 1.15588
 H481 H 0.14839 0.68647 1.11015
 H482 H 0.18049 0.65914 1.10850
 H483 H 0.18506 0.61373 1.15235
 C484 C 0.14923 1.13416 0.66092
 C485 C 0.16270 1.13345 0.64491
 C486 C 0.16086 1.14689 0.62946
 C487 C 0.14559 1.16115 0.62973
 C488 C 0.13240 1.16206 0.64555
 C489 C 0.13410 1.14823 0.66126
 C490 C 0.14786 1.12321 0.67814
 N491 N 0.13207 1.12997 0.68914
 C492 C 0.12360 1.14536 0.67875
 C493 C 0.12013 1.17829 0.64222
 N494 N 0.12548 1.18712 0.62463
 C495 C 0.14107 1.17645 0.61702
 C496 C 0.17648 1.14358 0.61657
 N497 N 0.18782 1.12841 0.62382
 C498 C 0.17942 1.12204 0.64113
 H499 H 0.15751 1.11083 0.68186
 H500 H 0.11107 1.15433 0.68360
 H501 H 0.10818 1.18311 0.65199
 H502 H 0.14949 1.18001 0.60373
 H503 H 0.17950 1.15182 0.60304
 H504 H 0.18547 1.11049 0.65069
 C505 C 1.34804 0.63850 0.33632
 C506 C 1.33420 0.63879 0.35199
 C507 C 1.33589 0.65250 0.36717
 C508 C 1.35153 0.66605 0.36694
 C509 C 1.36517 0.66588 0.35147
 C510 C 1.36350 0.65180 0.33605
 C511 C 1.34966 0.62697 0.31951
 N512 N 1.36591 0.63265 0.30880
 C513 C 1.37446 0.64790 0.31900
 C514 C 1.37808 0.68125 0.35492
 N515 N 1.37272 0.69069 0.37223
 C516 C 1.35643 0.68123 0.37956
 C517 C 1.32010 0.64978 0.37996
 N518 N 1.30889 0.63467 0.37291
 C519 C 1.31746 0.62784 0.35580
 H520 H 1.33984 0.61492 0.31590
 H521 H 1.38738 0.65610 0.31430
 H522 H 1.39057 0.68495 0.34548
 H523 H 1.34797 0.68542 0.39268
 H524 H 1.31702 0.65819 0.39340
 H525 H 1.31166 0.61613 0.34649
 C526 C 1.34505 1.14016 0.83326
 C527 C 1.32991 1.14009 0.84778
 C528 C 1.32987 1.15416 0.86278
 C529 C 1.34485 1.16836 0.86360
 C530 C 1.35960 1.16863 0.84928
 C531 C 1.35980 1.15432 0.83403
 C532 C 1.34885 1.12851 0.81675
 N533 N 1.36557 1.13516 0.80755
 C534 C 1.37231 1.15098 0.81805
 C535 C 1.37155 1.18455 0.85351
 N536 N 1.36448 1.19392 0.87022
 C537 C 1.34809 1.18387 0.87639
 C538 C 1.31328 1.15119 0.87433
 N539 N 1.30310 1.13563 0.86679
 C540 C 1.31323 1.12863 0.85058
 H541 H 1.34018 1.11597 0.81197
 H542 H 1.38521 1.15965 0.81420
 H543 H 1.38459 1.18863 0.84504
 H544 H 1.33849 1.18782 0.88877
 H545 H 1.30891 1.15980 0.88729
 H546 H 1.30853 1.11650 0.84120
 C547 C 0.84744 0.63698 0.83907
 C548 C 0.83285 0.63824 0.85402
 C549 C 0.83344 0.65327 0.86803
 C550 C 0.84880 0.66721 0.86734
 C551 C 0.86330 0.66581 0.85269
 C552 C 0.86260 0.65063 0.83845
 C553 C 0.84999 0.62451 0.82300
 N554 N 0.86634 0.63025 0.81261
 C555 C 0.87417 0.64620 0.82203
 C556 C 0.87597 0.68144 0.85527
 N557 N 0.86953 0.69237 0.87110
 C558 C 0.85288 0.68376 0.87856
 C559 C 0.81708 0.65110 0.88026
 N560 N 0.80666 0.63508 0.87403
 C561 C 0.81625 0.62718 0.85796
 H562 H 0.84053 0.61223 0.81911
 H563 H 0.88696 0.65442 0.81694
 H564 H 0.88865 0.68488 0.84594
 H565 H 0.84435 0.68912 0.89122
 H566 H 0.81313 0.66046 0.89282
 H567 H 0.81129 0.61455 0.84942
 C568 C 0.84852 1.14187 0.33720
 C569 C 0.83311 1.14359 0.35136
 C570 C 0.83294 1.15921 0.36475
 C571 C 0.84814 1.17328 0.36426
 C572 C 0.86325 1.17155 0.35032
 C573 C 0.86350 1.15574 0.33682
 C574 C 0.85238 1.12869 0.32188
 N575 N 0.86938 1.13424 0.31242
 C576 C 0.87623 1.15078 0.32151
 C577 C 0.87552 1.18750 0.35273
 N578 N 0.86828 1.19890 0.36784
 C579 C 0.85155 1.19027 0.37504
 C580 C 0.81615 1.15745 0.37637
 N581 N 0.80609 1.14112 0.37047
 C582 C 0.81640 1.13254 0.35517
 H583 H 0.84347 1.11603 0.31793
 H584 H 0.88925 1.15895 0.31698
 H585 H 0.88877 1.19056 0.34408
 H586 H 0.84224 1.19617 0.38689
 H587 H 0.81169 1.16730 0.38836
 H588 H 0.81190 1.11944 0.34713
 C589 C 0.65728 0.35904 0.33318
 C590 C 0.67194 0.35847 0.34822
 C591 C 0.67179 0.34363 0.36241
 C592 C 0.65695 0.32925 0.36185
 C593 C 0.64234 0.32989 0.34716
 C594 C 0.64251 0.34499 0.33269
 C595 C 0.65435 0.37127 0.31699
 N596 N 0.63805 0.36518 0.30646
 C597 C 0.63072 0.34907 0.31621
 C598 C 0.63035 0.31371 0.35007
 N599 N 0.63748 0.30329 0.36606
 C600 C 0.65371 0.31278 0.37334
 C601 C 0.68801 0.34632 0.37473
 N602 N 0.69801 0.36251 0.36843
 C603 C 0.68825 0.37004 0.35219
 H604 H 0.66349 0.38387 0.31354
 H605 H 0.61822 0.34027 0.31142
 H606 H 0.61775 0.30954 0.34088
 H607 H 0.66259 0.30805 0.38608
 H608 H 0.69215 0.33720 0.38744
 H609 H 0.69289 0.38275 0.34361
 C610 C 0.65028 0.85829 0.83581
 C611 C 0.66607 0.85810 0.84967
 C612 C 0.66741 0.84323 0.86381
 C613 C 0.65299 0.82844 0.86439
 C614 C 0.63733 0.82867 0.85084
 C615 C 0.63598 0.84372 0.83640
 C616 C 0.64572 0.87041 0.81986
 N617 N 0.62900 0.86359 0.81071
 C618 C 0.62292 0.84729 0.82080
 C619 C 0.62602 0.81222 0.85466
 N620 N 0.63454 0.80203 0.87011
 C621 C 0.65103 0.81192 0.87613
 C622 C 0.68447 0.84627 0.87479
 N623 N 0.69358 0.86268 0.86771
 C624 C 0.68238 0.87003 0.85233
 H625 H 0.65406 0.88322 0.81524
 H626 H 0.61029 0.83828 0.81673
 H627 H 0.61287 0.80774 0.84645
 H628 H 0.66092 0.80745 0.88821
 H629 H 0.68982 0.83720 0.88709
 H630 H 0.68606 0.88283 0.84341
 C631 C 0.14430 0.36534 0.84252
 C632 C 0.15999 0.36506 0.85650
 C633 C 0.16081 0.35050 0.87098
 C634 C 0.14602 0.33612 0.87177
 C635 C 0.13046 0.33644 0.85812
 C636 C 0.12959 0.35124 0.84338
 C637 C 0.14043 0.37692 0.82604
 N638 N 0.12361 0.37036 0.81669
 C639 C 0.11691 0.35463 0.82746
 C640 C 0.11912 0.31997 0.86179
 N641 N 0.12758 0.30971 0.87723
 C642 C 0.14399 0.31959 0.88343
 C643 C 0.17808 0.35300 0.88173
 N644 N 0.18785 0.36879 0.87418
 C645 C 0.17685 0.37631 0.85874
 H646 H 0.14939 0.38930 0.82147
 H647 H 0.10433 0.34549 0.82364
 H648 H 0.10618 0.31538 0.85332
 H649 H 0.15395 0.31495 0.89539
 H650 H 0.18321 0.34388 0.89408
 H651 H 0.18111 0.38864 0.84942
 C652 C 0.15127 0.86323 0.33616
 C653 C 0.16576 0.86188 0.35131
 C654 C 0.16432 0.84757 0.36598
 C655 C 0.14839 0.83432 0.36561
 C656 C 0.13401 0.83574 0.35074
 C657 C 0.13545 0.85038 0.33593
 C658 C 0.14937 0.87522 0.31964
 N659 N 0.13265 0.87013 0.30920
 C660 C 0.12407 0.85488 0.31930
 C661 C 0.12086 0.82054 0.35367
 N662 N 0.12698 0.80987 0.36988
 C663 C 0.14379 0.81828 0.37728
 C664 C 0.18065 0.84945 0.37838
 N665 N 0.19198 0.86455 0.37155
 C666 C 0.18295 0.87220 0.35496
 H667 H 0.15948 0.88697 0.31590
 H668 H 0.11094 0.84692 0.31470
 H669 H 0.10819 0.81709 0.34425
 H670 H 0.15221 0.81301 0.39012
 H671 H 0.18422 0.84023 0.39117
 H672 H 0.18839 0.88448 0.34623
 O673 O 0.97779 0.93080 0.89778
 O674 O 0.97771 0.90799 0.87420
 C675 C 0.97114 0.92423 0.88127
 C676 C 0.95536 0.93550 0.87049
 C677 C 0.94941 0.93009 0.85109
 H678 H 0.95699 0.91797 0.84359
 O679 O 1.01827 1.07328 0.89971
 O680 O 1.01873 1.09682 0.87688
 C681 C 1.02529 1.08043 0.88366
 C682 C 1.04143 1.06968 0.87297
 C683 C 1.04804 1.07621 0.85421
 H684 H 1.04116 1.08919 0.84752
 O685 O 0.89955 0.98470 0.92485
 O686 O 0.87606 0.98547 0.90163
 C687 C 0.88317 0.97841 0.91783
 C688 C 0.87255 0.96243 0.92841
 C689 C 0.85403 0.95581 0.92135
 H690 H 0.84731 0.96265 0.90825
 O691 O 1.09642 1.01931 0.92719
 O692 O 1.12001 1.01894 0.90424
 C693 C 1.11281 1.02575 0.92047
 C694 C 1.12339 1.04158 0.93139
 C695 C 1.14208 1.04802 0.92478
 H696 H 1.14888 1.04113 0.91180
 O697 O 0.92518 0.90480 0.97833
 O698 O 0.90152 0.88242 0.97806
 C699 C 0.91787 0.88898 0.97134
 C700 C 0.92812 0.87846 0.95478
 C701 C 0.92079 0.86044 0.94765
 H702 H 0.90824 0.85370 0.95508
 O703 O 1.07025 1.09811 0.98187
 O704 O 1.09342 1.12097 0.98207
 C705 C 1.07710 1.11428 0.97531
 C706 C 1.06618 1.12515 0.95936
 C707 C 1.07177 1.14435 0.95386
 H708 H 1.08371 1.15159 0.96188
 O709 O 0.92693 1.02290 0.89761
 O710 O 0.90354 1.02386 0.87430
 C711 C 0.91992 1.03006 0.88142
 C712 C 0.93075 1.04611 0.87119
 C713 C 0.92465 1.05304 0.85225
 H714 H 0.91242 1.04593 0.84457
 O715 O 1.06918 0.98141 0.89907
 O716 O 1.09266 0.98100 0.87600
 C717 C 1.07630 0.97456 0.88286
 C718 C 1.06567 0.95860 0.87219
 C719 C 1.07213 0.95210 0.85328
 H720 H 1.08443 0.95944 0.84604
 O721 O 1.01588 0.90270 0.92571
 O722 O 1.01591 0.87962 0.90240
 C723 C 1.02258 0.88646 0.91881
 C724 C 1.03864 0.87580 0.92980
 C725 C 1.04557 0.85720 0.92328
 H726 H 1.03882 0.85033 0.91030
 O727 O 0.97930 1.10062 0.92705
 O728 O 0.97956 1.12425 0.90429
 C729 C 0.97266 1.11702 0.92036
 C730 C 0.95645 1.12745 0.93126
 C731 C 0.94926 1.14603 0.92483
 H732 H 0.95586 1.15309 0.91193
 O733 O 0.90080 1.07366 0.98013
 O734 O 0.87758 1.09705 0.98022
 C735 C 0.88459 1.08093 0.97330
 C736 C 0.87399 1.07083 0.95682
 C737 C 0.85497 1.07741 0.95082
 H738 H 0.84767 1.08925 0.95901
 O739 O 1.09515 0.92846 0.97966
 O740 O 1.11828 0.90499 0.97954
 C741 C 1.11134 0.92125 0.97281
 C742 C 1.12207 0.93166 0.95664
 C743 C 1.14089 0.92483 0.95035
 H744 H 1.14753 0.91196 0.95750
 O745 O 0.97936 1.07389 0.89934
 O746 O 0.97975 1.09737 0.87644
 C747 C 0.97278 1.08128 0.88309
 C748 C 0.95661 1.07122 0.87210
 C749 C 0.95025 1.07807 0.85327
 H750 H 0.95742 1.09075 0.84667
 O751 O 1.01662 0.92986 0.89847
 O752 O 1.01666 0.90699 0.87495
 C753 C 1.02354 0.92289 0.88222
 C754 C 1.03994 0.93326 0.87192
 C755 C 1.04668 0.92691 0.85306
 H756 H 1.03968 0.91441 0.84591
 O757 O 1.09646 0.98077 0.92668
 O758 O 1.12010 0.98031 0.90378
 C759 C 1.11276 0.97369 0.91995
 C760 C 1.12291 0.95728 0.93084
 C761 C 1.14185 0.95032 0.92487
 H762 H 1.14951 0.95759 0.91271
 O763 O 0.90017 1.02312 0.92549
 O764 O 0.87657 1.02404 0.90238
 C765 C 0.88389 1.03030 0.91876
 C766 C 0.87362 1.04627 0.93002
 C767 C 0.85465 1.05321 0.92408
 H768 H 0.84738 1.04673 0.91119
 O769 O 0.92789 1.10064 0.98065
 O770 O 0.90468 1.12403 0.98076
 C771 C 0.92088 1.11688 0.97394
 C772 C 0.93127 1.12728 0.95762
 C773 C 0.92432 1.14581 0.95105
 H774 H 0.91197 1.15294 0.95871
 O775 O 1.06767 0.90183 0.97955
 O776 O 1.09077 0.87834 0.97948
 C777 C 1.07458 0.88566 0.97266
 C778 C 1.06400 0.87549 0.95620
 C779 C 1.07067 0.85692 0.94952
 H780 H 1.08298 0.84958 0.95715
 O781 O 1.06990 1.02001 0.89889
 O782 O 1.09333 1.01968 0.87577
 C783 C 1.07712 1.02675 0.88272
 C784 C 1.06673 1.04334 0.87235
 C785 C 1.07306 1.05001 0.85346
 H786 H 1.08516 1.04234 0.84591
 O787 O 0.92670 0.98442 0.89743
 O788 O 0.90341 0.98526 0.87401
 C789 C 0.91959 0.97806 0.88103
 C790 C 0.93013 0.96188 0.87036
 C791 C 0.92429 0.95622 0.85100
 H792 H 0.91203 0.96394 0.84368
 O793 O 1.01807 1.09937 0.92808
 O794 O 1.01839 1.12310 0.90542
 C795 C 1.02488 1.11560 0.92168
 C796 C 1.04067 1.12572 0.93313
 C797 C 1.04644 1.14486 0.92786
 H798 H 1.03913 1.15231 0.91542
 O799 O 0.97701 0.90363 0.92508
 O800 O 0.97684 0.88062 0.90171
 C801 C 0.97000 0.88775 0.91795
 C802 C 0.95346 0.87783 0.92852
 C803 C 0.94583 0.85982 0.92152
 H804 H 0.95231 0.85287 0.90841
 O805 O 1.09746 1.07052 0.98121
 O806 O 1.12077 1.09323 0.98122
 C807 C 1.11361 1.07732 0.97426
 C808 C 1.12383 1.06683 0.95760
 C809 C 1.14256 1.07305 0.95074
 H810 H 1.14998 1.08514 0.95819
 O811 O 0.89849 0.93282 0.97816
 O812 O 0.87479 0.91049 0.97782
 C813 C 0.88219 0.92636 0.97109
 C814 C 0.87206 0.93707 0.95449
 C815 C 0.85351 0.93072 0.94725
 H816 H 0.84613 0.91852 0.95451
 Cu817 Cu 0.99681 0.91902 0.91411
 Cu818 Cu 0.99677 0.89148 0.88596
 Cu819 Cu 0.99869 1.08442 0.91581
 Cu820 Cu 0.99919 1.11274 0.88843
 Cu821 Cu 0.91570 1.00372 0.91364
 Cu822 Cu 0.88752 1.00475 0.88574
 Cu823 Cu 1.08063 1.00041 0.91522
 Cu824 Cu 1.10889 0.99994 0.88764
 C825 C 0.94577 0.95153 0.87989
 H826 H 0.95016 0.95565 0.89493
 C827 C 0.93392 0.94041 0.84118
 C828 C 1.05075 1.05316 0.88182
 H829 H 1.04589 1.04825 0.89644
 C830 C 1.06372 1.06641 0.84420
 C831 C 0.88137 0.95307 0.94508
 H832 H 0.89581 0.95788 0.95042
 C833 C 0.84441 0.93994 0.93065
 C834 C 1.11447 1.05096 0.94792
 H835 H 1.09992 1.04624 0.95294
 C836 C 1.15182 1.06369 0.93435
 C837 C 0.94458 0.88693 0.94524
 H838 H 0.95013 0.90097 0.95053
 C839 C 0.92943 0.85105 0.93098
 C840 C 1.05047 1.11605 0.94904
 H841 H 1.04623 1.10116 0.95302
 C842 C 1.06189 1.15435 0.93818
 C843 C 0.94688 1.05515 0.88084
 H844 H 0.95154 1.05002 0.89552
 C845 C 0.93436 1.06902 0.84312
 C846 C 1.04944 0.94921 0.88127
 H847 H 1.04452 0.95401 0.89594
 C848 C 1.06272 0.93627 0.84358
 C849 C 1.04785 0.88473 0.94638
 H850 H 1.04283 0.89920 0.95130
 C851 C 1.06163 0.84769 0.93304
 C852 C 0.94745 1.11830 0.94777
 H853 H 0.95267 1.10387 0.95264
 C854 C 0.93310 1.15525 0.93463
 C855 C 0.88312 1.05511 0.94649
 H856 H 0.89789 1.05009 0.95097
 C857 C 0.84519 1.06878 0.93443
 C858 C 1.11327 0.94798 0.94691
 H859 H 1.09861 0.95311 0.95150
 C860 C 1.15100 0.93409 0.93459
 O861 O 1.01645 0.92888 1.09868
 O862 O 1.01627 0.90577 1.12196
 C863 C 1.02331 0.92168 1.11490
 C864 C 1.03985 0.93174 1.12545
 C865 C 1.04635 0.92506 1.14431
 H866 H 1.03911 0.91255 1.15117
 O867 O 0.97877 1.07161 1.10159
 O868 O 0.97888 1.09452 1.12505
 C869 C 0.97187 1.07868 1.11781
 C870 C 0.95509 1.06864 1.12786
 C871 C 0.94732 1.07572 1.14609
 H872 H 0.95400 1.08840 1.15324
 O873 O 0.89864 1.02189 1.07196
 O874 O 0.87491 1.02208 1.09478
 C875 C 0.88229 1.02881 1.07869
 C876 C 0.87211 1.04513 1.06782
 C877 C 0.85324 1.05220 1.07386
 H878 H 0.84581 1.04542 1.08645
 O879 O 1.09745 0.97989 1.07204
 O880 O 1.12092 0.97880 1.09526
 C881 C 1.11366 0.97260 1.07883
 C882 C 1.12379 0.95643 1.06770
 C883 C 1.14284 0.94950 1.07346
 H884 H 1.15061 0.95660 1.08571
 O885 O 1.06786 0.90152 1.01868
 O886 O 1.09100 0.87807 1.01850
 C887 C 1.07482 0.88526 1.02538
 C888 C 1.06432 0.87489 1.04174
 C889 C 1.07134 0.85650 1.04870
 H890 H 1.08380 0.84937 1.04121
 O891 O 0.92799 1.09989 1.01982
 O892 O 0.90480 1.12331 1.01976
 C893 C 0.92093 1.11598 1.02675
 C894 C 0.93119 1.12600 1.04352
 C895 C 0.92412 1.14432 1.05047
 H896 H 0.91190 1.15164 1.04268
 O897 O 0.92550 0.98266 1.09917
 O898 O 0.90207 0.98284 1.12230
 C899 C 0.91836 0.97595 1.11536
 C900 C 0.92907 0.95983 1.12603
 C901 C 0.92316 0.95404 1.14528
 H902 H 0.91063 0.96149 1.15232
 O903 O 1.07048 1.01837 1.10022
 O904 O 1.09373 1.01736 1.12367
 C905 C 1.07753 1.02459 1.11670
 C906 C 1.06705 1.04076 1.12754
 C907 C 1.07413 1.04732 1.14616
 H908 H 1.08665 1.03970 1.15313
 O909 O 0.97677 0.90297 1.07144
 O910 O 0.97640 0.87975 1.09461
 C911 C 0.96962 0.88708 1.07838
 C912 C 0.95293 0.87742 1.06763
 C913 C 0.94483 0.85965 1.07470
 H914 H 0.95108 0.85268 1.08796
 O915 O 1.01798 1.09755 1.07404
 O916 O 1.01819 1.12060 1.09736
 C917 C 1.02494 1.11347 1.08108
 C918 C 1.04141 1.12352 1.07056
 C919 C 1.04856 1.14160 1.07769
 H920 H 1.04128 1.14866 1.09031
 O921 O 0.89794 0.93243 1.01730
 O922 O 0.87421 0.91013 1.01688
 C923 C 0.88152 0.92591 1.02392
 C924 C 0.87116 0.93643 1.04040
 C925 C 0.85248 0.93007 1.04719
 H926 H 0.84513 0.91798 1.03966
 O927 O 1.09795 1.07006 1.02039
 O928 O 1.12126 1.09279 1.02042
 C929 C 1.11423 1.07678 1.02722
 C930 C 1.12471 1.06631 1.04375
 C931 C 1.14291 1.07336 1.05110
 H932 H 1.14990 1.08570 1.04368
 O933 O 1.01780 1.07077 1.10167
 O934 O 1.01808 1.09365 1.12516
 C935 C 1.02482 1.07752 1.11795
 C936 C 1.04135 1.06673 1.12817
 C937 C 1.04886 1.07328 1.14667
 H938 H 1.04226 1.08620 1.15371
 O939 O 0.97752 0.92960 1.09933
 O940 O 0.97729 0.90655 1.12268
 C941 C 0.97076 0.92286 1.11569
 C942 C 0.95481 0.93395 1.12633
 C943 C 0.94887 0.92850 1.14571
 H944 H 0.95668 0.91658 1.15334
 O945 O 1.09815 1.01844 1.07320
 O946 O 1.12155 1.01752 1.09650
 C947 C 1.11447 1.02478 1.08038
 C948 C 1.12487 1.04110 1.07000
 C949 C 1.14304 1.04856 1.07734
 H950 H 1.14980 1.04211 1.09061
 O951 O 0.89853 0.98346 1.07130
 O952 O 0.87494 0.98358 1.09427
 C953 C 0.88213 0.97698 1.07797
 C954 C 0.87153 0.96133 1.06688
 C955 C 0.85288 0.95474 1.07347
 H956 H 0.84609 0.96139 1.08658
 O957 O 1.07060 1.09739 1.02096
 O958 O 1.09383 1.12019 1.02115
 C959 C 1.07768 1.11327 1.02804
 C960 C 1.06725 1.12347 1.04474
 C961 C 1.07427 1.14153 1.05224
 H962 H 1.08724 1.14825 1.04555
 O963 O 0.92509 0.90484 1.01755
 O964 O 0.90140 0.88251 1.01720
 C965 C 0.91766 0.88901 1.02432
 C966 C 0.92766 0.87841 1.04109
 C967 C 0.91990 0.86062 1.04830
 H968 H 0.90721 0.85410 1.04081
 O969 O 1.07015 0.97988 1.09942
 O970 O 1.09340 0.97876 1.12287
 C971 C 1.07703 0.97262 1.11561
 C972 C 1.06605 0.95662 1.12585
 C973 C 1.07217 0.94984 1.14482
 H974 H 1.08447 0.95696 1.15237
 O975 O 0.92574 1.02113 1.09968
 O976 O 0.90213 1.02136 1.12262
 C977 C 0.91852 1.02784 1.11592
 C978 C 0.92900 1.04373 1.12680
 C979 C 0.92154 1.05090 1.14504
 H980 H 0.90865 1.04400 1.15169
 O981 O 0.97910 1.09869 1.07423
 O982 O 0.97917 1.12177 1.09754
 C983 C 0.97236 1.11491 1.08120
 C984 C 0.95614 1.12552 1.07032
 C985 C 0.94867 1.14381 1.07723
 H986 H 0.95503 1.15042 1.09053
 O987 O 1.01575 0.90165 1.07157
 O988 O 1.01557 0.87837 1.09468
 C989 C 1.02244 0.88537 1.07848
 C990 C 1.03879 0.87490 1.06780
 C991 C 1.04622 0.85661 1.07475
 H992 H 1.03966 0.84991 1.08786
 O993 O 1.09547 0.92815 1.01879
 O994 O 1.11863 0.90471 1.01850
 C995 C 1.11179 0.92090 1.02542
 C996 C 1.12276 0.93118 1.04156
 C997 C 1.14177 0.92446 1.04754
 H998 H 1.14848 0.91182 1.04010
 O999 O 0.90011 1.07368 1.01920
 O1000 O 0.87693 1.09712 1.01908
 C1001 C 0.88380 1.08087 1.02583
 C1002 C 0.87295 1.07052 1.04187
 C1003 C 0.85410 1.07733 1.04801
 H1004 H 0.84708 1.08966 1.04027
 Cu1005 Cu 0.99661 0.91806 1.08292
 Cu1006 Cu 0.99635 0.89027 1.11080
 Cu1007 Cu 0.99836 1.08233 1.08559
 Cu1008 Cu 0.99863 1.10993 1.11365
 Cu1009 Cu 0.91405 0.92096 0.99787
 Cu1010 Cu 0.88563 0.89413 0.99745
 Cu1011 Cu 1.07920 0.91734 0.99921
 Cu1012 Cu 1.10698 0.88917 0.99899
 Cu1013 Cu 0.91656 1.08462 0.99996
 Cu1014 Cu 0.88870 1.11275 0.99995
 Cu1015 Cu 1.08175 1.08174 1.00106
 Cu1016 Cu 1.10968 1.10905 1.00119
 Cu1017 Cu 0.91446 1.00227 1.08322
 Cu1018 Cu 0.88614 1.00245 1.11082
 Cu1019 Cu 1.08178 0.99926 1.08386
 Cu1020 Cu 1.10974 0.99797 1.11192
 C1021 C 1.04972 0.94761 1.11639
 H1022 H 1.04499 0.95265 1.10170
 C1023 C 1.06242 0.93406 1.15420
 C1024 C 0.94590 1.05254 1.11846
 H1025 H 0.95155 1.04721 1.10424
 C1026 C 0.93047 1.06696 1.15475
 C1027 C 0.88175 1.05431 1.05172
 H1028 H 0.89642 1.04916 1.04716
 C1029 C 0.84414 1.06834 1.06401
 C1030 C 1.11399 0.94728 1.05159
 H1031 H 1.09921 0.95235 1.04720
 C1032 C 1.15200 0.93356 1.06339
 C1033 C 1.04789 0.88383 1.05122
 H1034 H 1.04254 0.89812 1.04604
 C1035 C 1.06255 0.84728 1.06531
 C1036 C 0.94733 1.11682 1.05339
 H1037 H 0.95269 1.10256 1.04819
 C1038 C 0.93259 1.15329 1.06740
 C1039 C 0.94498 0.94979 1.11675
 H1040 H 0.94938 0.95401 1.10176
 C1041 C 0.93308 0.93852 1.15537
 C1042 C 1.05051 1.05040 1.11880
 H1043 H 1.04509 1.04552 1.10434
 C1044 C 1.06527 1.06367 1.15581
 C1045 C 0.94429 0.88659 1.05073
 H1046 H 0.95018 0.90045 1.04538
 C1047 C 0.92824 0.85118 1.06516
 C1048 C 1.05073 1.11465 1.05395
 H1049 H 1.04542 1.10057 1.04851
 C1050 C 1.06504 1.15067 1.06876
 C1051 C 0.88046 0.95222 1.05022
 H1052 H 0.89500 0.95702 1.04526
 C1053 C 0.84324 0.93911 1.06375
 C1054 C 1.11594 1.05005 1.05314
 H1055 H 1.10177 1.04471 1.04764
 C1056 C 1.15212 1.06481 1.06801
 O1057 O 1.07541 0.52023 0.60082
 O1058 O 1.09907 0.51970 0.62388
 C1059 C 1.08271 0.52669 0.61710
 C1060 C 1.07222 0.54273 0.62802
 C1061 C 1.07879 0.54866 0.64703
 H1062 H 1.09117 0.54089 0.65410
 O1063 O 0.93063 0.48445 0.60249
 O1064 O 0.90777 0.48499 0.62618
 C1065 C 0.92393 0.47805 0.61899
 C1066 C 0.93494 0.46220 0.62973
 C1067 C 0.92911 0.45639 0.64899
 H1068 H 0.91646 0.46365 0.65600
 O1069 O 1.02315 0.59968 0.57481
 O1070 O 1.02368 0.62274 0.59813
 C1071 C 1.03024 0.61559 0.58179
 C1072 C 1.04657 0.62555 0.57099
 C1073 C 1.05425 0.64351 0.57800
 H1074 H 1.04795 0.65033 0.59126
 O1075 O 0.98236 0.40496 0.57542
 O1076 O 0.98233 0.38211 0.59898
 C1077 C 0.97543 0.38912 0.58266
 C1078 C 0.95892 0.37897 0.57224
 C1079 C 0.95201 0.36079 0.57932
 H1080 H 0.95941 0.35376 0.59194
 O1081 O 1.10187 0.57163 0.52046
 O1082 O 1.12536 0.59417 0.51998
 C1083 C 1.11836 0.57824 0.52695
 C1084 C 1.12915 0.56752 0.54313
 C1085 C 1.14818 0.57350 0.54945
 H1086 H 1.15547 0.58547 0.54171
 O1087 O 0.90217 0.43259 0.52296
 O1088 O 0.87884 0.40988 0.52311
 C1089 C 0.88600 0.42585 0.52991
 C1090 C 0.87575 0.43638 0.54644
 C1091 C 0.85732 0.42981 0.55361
 H1092 H 0.85006 0.41755 0.54628
 O1093 O 0.98410 0.57350 0.60232
 O1094 O 0.98442 0.59652 0.62568
 C1095 C 0.97741 0.58061 0.61860
 C1096 C 0.96102 0.57046 0.62911
 C1097 C 0.95461 0.57693 0.64804
 H1098 H 0.96191 0.58931 0.65512
 O1099 O 1.02227 0.43092 0.60215
 O1100 O 1.02235 0.40812 0.62575
 C1101 C 1.02930 0.42391 0.61839
 C1102 C 1.04598 0.43405 0.62853
 C1103 C 1.05320 0.42737 0.64715
 H1104 H 1.04636 0.41476 0.65423
 O1105 O 1.10173 0.48118 0.57283
 O1106 O 1.12549 0.48065 0.59577
 C1107 C 1.11799 0.47403 0.57964
 C1108 C 1.12799 0.45746 0.56902
 C1109 C 1.14659 0.45028 0.57564
 H1110 H 1.15411 0.45760 0.58791
 O1111 O 0.90300 0.52298 0.57504
 O1112 O 0.87985 0.52346 0.59846
 C1113 C 0.88679 0.52993 0.58206
 C1114 C 0.87623 0.54600 0.57122
 C1115 C 0.85695 0.55203 0.57688
 H1116 H 0.84939 0.54426 0.58879
 O1117 O 0.93091 0.60156 0.52240
 O1118 O 0.90804 0.62527 0.52284
 C1119 C 0.92435 0.61786 0.52930
 C1120 C 0.93568 0.62812 0.54519
 C1121 C 0.93056 0.64750 0.55082
 H1122 H 0.91870 0.65527 0.54291
 O1123 O 1.07254 0.40149 0.52161
 O1124 O 1.09556 0.37793 0.52123
 C1125 C 1.07957 0.38529 0.52840
 C1126 C 1.06920 0.37533 0.54514
 C1127 C 1.07578 0.35683 0.55243
 H1128 H 1.08844 0.34949 0.54552
 O1129 O 0.93057 0.52287 0.60231
 O1130 O 0.90760 0.52345 0.62589
 C1131 C 0.92383 0.52980 0.61865
 C1132 C 0.93480 0.54565 0.62910
 C1133 C 0.92869 0.55225 0.64808
 H1134 H 0.91634 0.54512 0.65547
 O1135 O 1.07527 0.48180 0.60099
 O1136 O 1.09895 0.48129 0.62403
 C1137 C 1.08250 0.47495 0.61723
 C1138 C 1.07190 0.45911 0.62799
 C1139 C 1.07874 0.45243 0.64673
 H1140 H 1.09123 0.45969 0.65381
 O1141 O 1.02122 0.40373 0.57495
 O1142 O 1.02120 0.38083 0.59846
 C1143 C 1.02782 0.38748 0.58201
 C1144 C 1.04374 0.37651 0.57126
 C1145 C 1.05033 0.35799 0.57817
 H1146 H 1.04289 0.35125 0.59078
 O1147 O 0.98429 0.60044 0.57485
 O1148 O 0.98473 0.62366 0.59801
 C1149 C 0.97779 0.61675 0.58174
 C1150 C 0.96178 0.62758 0.57085
 C1151 C 0.95636 0.64692 0.57638
 H1152 H 0.96405 0.65400 0.58867
 O1153 O 0.90312 0.57522 0.52266
 O1154 O 0.88007 0.59877 0.52308
 C1155 C 0.88699 0.58244 0.52963
 C1156 C 0.87638 0.57178 0.54565
 C1157 C 0.85714 0.57772 0.55157
 H1158 H 0.84995 0.59021 0.54426
 O1159 O 1.09994 0.42814 0.52103
 O1160 O 1.12312 0.40474 0.52063
 C1161 C 1.11632 0.42096 0.52756
 C1162 C 1.12723 0.43142 0.54366
 C1163 C 1.14587 0.42439 0.55056
 H1164 H 1.15258 0.41138 0.54381
 O1165 O 0.98335 0.43203 0.60286
 O1166 O 0.98343 0.40930 0.62654
 C1167 C 0.97680 0.42549 0.61939
 C1168 C 0.96093 0.43661 0.63005
 C1169 C 0.95509 0.43114 0.64944
 H1170 H 0.96300 0.41928 0.65707
 O1171 O 1.02304 0.57274 0.60231
 O1172 O 1.02346 0.59564 0.62579
 C1173 C 1.03006 0.57946 0.61860
 C1174 C 1.04641 0.56852 0.62888
 C1175 C 1.05322 0.57433 0.64790
 H1176 H 1.04620 0.58678 0.65538
 O1177 O 0.90274 0.48447 0.57560
 O1178 O 0.87973 0.48489 0.59915
 C1179 C 0.88660 0.47794 0.58286
 C1180 C 0.87604 0.46180 0.57242
 C1181 C 0.85764 0.45493 0.57949
 H1182 H 0.85092 0.46173 0.59255
 O1183 O 1.10249 0.51979 0.57320
 O1184 O 1.12627 0.51927 0.59612
 C1185 C 1.11894 0.52619 0.57997
 C1186 C 1.12937 0.54212 0.56914
 C1187 C 1.14829 0.54842 0.57540
 H1188 H 1.15537 0.54140 0.58820
 O1189 O 0.92932 0.40507 0.52278
 O1190 O 0.90610 0.38226 0.52302
 C1191 C 0.92236 0.38912 0.52979
 C1192 C 0.93302 0.37883 0.54635
 C1193 C 0.92625 0.36064 0.55373
 H1194 H 0.91335 0.35380 0.54695
 O1195 O 1.07433 0.59882 0.52092
 O1196 O 1.09773 0.62145 0.52052
 C1197 C 1.08162 0.61472 0.52768
 C1198 C 1.07160 0.62514 0.54444
 C1199 C 1.07899 0.64313 0.55159
 H1200 H 1.09147 0.64993 0.54409
 Cu1201 Cu 1.08637 0.50083 0.58463
 Cu1202 Cu 1.11487 0.50018 0.61222
 Cu1203 Cu 0.91901 0.50364 0.58647
 Cu1204 Cu 0.89141 0.50426 0.61479
 Cu1205 Cu 1.00362 0.58427 0.58626
 Cu1206 Cu 1.00409 0.61196 0.61426
 Cu1207 Cu 1.00228 0.42022 0.58650
 Cu1208 Cu 1.00231 0.39278 0.61480
 C1209 C 1.05591 0.55260 0.61917
 H1210 H 1.05093 0.54822 0.60439
 C1211 C 1.06942 0.56445 0.65710
 C1212 C 0.95095 0.45233 0.62045
 H1213 H 0.95527 0.45653 0.60543
 C1214 C 0.93917 0.44097 0.65907
 C1215 C 1.05526 0.61657 0.55411
 H1216 H 1.04964 0.60257 0.54882
 C1217 C 1.07050 0.65238 0.56842
 C1218 C 0.94946 0.38778 0.55563
 H1219 H 0.95458 0.40194 0.55026
 C1220 C 0.93564 0.35153 0.57026
 C1221 C 1.12001 0.55168 0.55292
 H1222 H 1.10527 0.54711 0.54824
 C1223 C 1.15793 0.56403 0.56559
 C1224 C 0.88488 0.45251 0.55581
 H1225 H 0.89922 0.45749 0.55048
 C1226 C 0.84815 0.43893 0.57018
 C1227 C 0.95110 0.55472 0.61984
 H1228 H 0.95577 0.54984 0.60511
 C1229 C 0.93849 0.56789 0.65768
 C1230 C 1.05537 0.44999 0.61914
 H1231 H 1.05012 0.45498 0.60460
 C1232 C 1.06957 0.43649 0.65643
 C1233 C 1.11851 0.44806 0.55291
 H1234 H 1.10401 0.45338 0.54792
 C1235 C 1.15562 0.43372 0.56661
 C1236 C 0.88572 0.55582 0.55546
 H1237 H 0.90068 0.55134 0.55114
 C1238 C 0.84724 0.56785 0.56710
 C1239 C 0.95146 0.61836 0.55514
 H1240 H 0.95539 0.60335 0.55097
 C1241 C 0.94085 0.65706 0.56636
 C1242 C 1.05310 0.38495 0.55462
 H1243 H 1.04818 0.39935 0.54937
 C1244 C 1.06642 0.34806 0.56902
 O1245 O 1.07188 0.48112 0.40079
 O1246 O 1.09518 0.48068 0.37754
 C1247 C 1.07896 0.47417 0.38458
 C1248 C 1.06852 0.45794 0.37418
 C1249 C 1.07586 0.45037 0.35604
 H1250 H 1.08863 0.45720 0.34908
 O1251 O 0.92771 0.52322 0.40352
 O1252 O 0.90406 0.52355 0.38045
 C1253 C 0.92045 0.53003 0.38730
 C1254 C 0.93098 0.54591 0.37649
 C1255 C 0.92412 0.55246 0.35772
 H1256 H 0.91116 0.54565 0.35102
 O1257 O 0.98161 0.60098 0.42964
 O1258 O 0.98140 0.62415 0.40641
 C1259 C 0.97485 0.61725 0.42280
 C1260 C 0.95891 0.62791 0.43386
 C1261 C 0.95217 0.64669 0.42763
 H1262 H 0.95891 0.65366 0.41476
 O1263 O 1.01909 0.40412 0.42912
 O1264 O 1.01829 0.38083 0.40605
 C1265 C 1.02537 0.38770 0.42228
 C1266 C 1.04125 0.37669 0.43318
 C1267 C 1.04706 0.35767 0.42700
 H1268 H 1.03970 0.35094 0.41429
 O1269 O 1.09877 0.42845 0.48202
 O1270 O 1.12198 0.40507 0.48151
 C1271 C 1.11486 0.42133 0.47490
 C1272 C 1.12524 0.43194 0.45862
 C1273 C 1.14424 0.42567 0.45229
 H1274 H 1.15129 0.41300 0.45942
 O1275 O 0.90240 0.57545 0.48368
 O1276 O 0.87940 0.59904 0.48408
 C1277 C 0.88611 0.58282 0.47712
 C1278 C 0.87519 0.57261 0.46089
 C1279 C 0.85659 0.57978 0.45416
 H1280 H 0.84972 0.59236 0.46157
 O1281 O 1.01962 0.57291 0.40178
 O1282 O 1.01947 0.59584 0.37830
 C1283 C 1.02619 0.57961 0.38534
 C1284 C 1.04205 0.56856 0.37454
 C1285 C 1.04806 0.57449 0.35538
 H1286 H 1.04089 0.58718 0.34843
 O1287 O 0.98047 0.43219 0.40184
 O1288 O 0.97968 0.40921 0.37845
 C1289 C 0.97331 0.42551 0.38561
 C1290 C 0.95707 0.43661 0.37534
 C1291 C 0.95059 0.43110 0.35613
 H1292 H 0.95825 0.41921 0.34835
 O1293 O 1.09930 0.51944 0.42817
 O1294 O 1.12255 0.51905 0.40487
 C1295 C 1.11558 0.52590 0.42114
 C1296 C 1.12630 0.54177 0.43182
 C1297 C 1.14507 0.54802 0.42518
 H1298 H 1.15184 0.54102 0.41225
 O1299 O 0.90083 0.48492 0.43127
 O1300 O 0.87712 0.48524 0.40828
 C1301 C 0.88449 0.47835 0.42443
 C1302 C 0.87426 0.46217 0.43509
 C1303 C 0.85574 0.45531 0.42828
 H1304 H 0.84873 0.46217 0.41535
 O1305 O 1.07366 0.59896 0.48175
 O1306 O 1.09704 0.62160 0.48135
 C1307 C 1.08066 0.61488 0.47474
 C1308 C 1.06999 0.62536 0.45831
 C1309 C 1.07705 0.64347 0.45113
 H1310 H 1.08971 0.65028 0.45839
 O1311 O 0.92913 0.40540 0.48358
 O1312 O 0.90595 0.38255 0.48383
 C1313 C 0.92204 0.38943 0.47678
 C1314 C 0.93232 0.37900 0.46019
 C1315 C 0.92575 0.36042 0.45381
 H1316 H 0.91329 0.35359 0.46131
 O1317 O 0.92766 0.48473 0.40342
 O1318 O 0.90406 0.48510 0.38031
 C1319 C 0.92045 0.47821 0.38713
 C1320 C 0.93111 0.46227 0.37620
 C1321 C 0.92468 0.45640 0.35710
 H1322 H 0.91184 0.46368 0.35035
 O1323 O 1.07153 0.51968 0.40102
 O1324 O 1.09463 0.51929 0.37757
 C1325 C 1.07841 0.52624 0.38465
 C1326 C 1.06759 0.54244 0.37411
 C1327 C 1.07331 0.54850 0.35484
 H1328 H 1.08524 0.54067 0.34721
 O1329 O 0.98030 0.40482 0.42902
 O1330 O 0.97942 0.38166 0.40582
 C1331 C 0.97313 0.38885 0.42224
 C1332 C 0.95714 0.37875 0.43344
 C1333 C 0.95041 0.36009 0.42734
 H1334 H 0.95747 0.35273 0.41478
 O1335 O 1.02050 0.60010 0.42901
 O1336 O 1.02044 0.62320 0.40571
 C1337 C 1.02743 0.61601 0.42190
 C1338 C 1.04409 0.62593 0.43239
 C1339 C 1.05148 0.64399 0.42534
 H1340 H 1.04473 0.65092 0.41231
 O1341 O 0.90161 0.43259 0.48392
 O1342 O 0.87832 0.40984 0.48403
 C1343 C 0.88529 0.42586 0.47719
 C1344 C 0.87465 0.43650 0.46087
 C1345 C 0.85608 0.42991 0.45388
 H1346 H 0.84905 0.41749 0.46114
 O1347 O 1.10065 0.57125 0.48144
 O1348 O 1.12414 0.59380 0.48098
 C1349 C 1.11682 0.57784 0.47434
 C1350 C 1.12693 0.56708 0.45788
 C1351 C 1.14575 0.57302 0.45113
 H1352 H 1.15331 0.58497 0.45869
 O1353 O 1.01942 0.43024 0.40080
 O1354 O 1.01875 0.40711 0.37757
 C1355 C 1.02601 0.42295 0.38453
 C1356 C 1.04266 0.43279 0.37406
 C1357 C 1.05028 0.42531 0.35591
 H1358 H 1.04362 0.41241 0.34916
 O1359 O 0.98070 0.57413 0.40207
 O1360 O 0.98045 0.59711 0.37865
 C1361 C 0.97361 0.58120 0.38587
 C1362 C 0.95694 0.57098 0.37571
 C1363 C 0.94985 0.57734 0.35689
 H1364 H 0.95715 0.58940 0.34931
 O1365 O 0.90075 0.52353 0.43120
 O1366 O 0.87700 0.52390 0.40824
 C1367 C 0.88442 0.53056 0.42439
 C1368 C 0.87433 0.54702 0.43510
 C1369 C 0.85578 0.55446 0.42849
 H1370 H 0.84859 0.54783 0.41563
 O1371 O 1.09865 0.48091 0.42886
 O1372 O 1.12207 0.48050 0.40573
 C1373 C 1.11493 0.47393 0.42202
 C1374 C 1.12537 0.45773 0.43292
 C1375 C 1.14449 0.45137 0.42700
 H1376 H 1.15199 0.45899 0.41497
 O1377 O 1.07144 0.40176 0.48250
 O1378 O 1.09443 0.37817 0.48198
 C1379 C 1.07812 0.38556 0.47547
 C1380 C 1.06702 0.37557 0.45920
 C1381 C 1.07264 0.35654 0.45278
 H1382 H 1.08470 0.34873 0.46034
 O1383 O 0.93024 0.60162 0.48338
 O1384 O 0.90734 0.62531 0.48383
 C1385 C 0.92335 0.61792 0.47674
 C1386 C 0.93379 0.62816 0.46031
 C1387 C 0.92735 0.64693 0.45398
 H1388 H 0.91529 0.65434 0.46184
 Cu1389 Cu 1.08301 0.50035 0.41702
 Cu1390 Cu 1.11094 0.49985 0.38909
 Cu1391 Cu 0.91658 0.50406 0.41969
 Cu1392 Cu 0.88815 0.50447 0.39203
 Cu1393 Cu 1.08527 0.58291 0.50120
 Cu1394 Cu 1.11338 0.61006 0.50065
 Cu1395 Cu 1.08334 0.41726 0.50187
 Cu1396 Cu 1.11109 0.38911 0.50125
 Cu1397 Cu 0.91896 0.58609 0.50302
 Cu1398 Cu 0.89141 0.61449 0.50354
 Cu1399 Cu 0.91791 0.42117 0.50330
 Cu1400 Cu 0.88998 0.39383 0.50350
 Cu1401 Cu 1.00061 0.58473 0.41795
 Cu1402 Cu 1.00044 0.61239 0.38992
 Cu1403 Cu 0.99989 0.42020 0.41746
 Cu1404 Cu 0.99892 0.39240 0.38961
 C1405 C 1.05181 0.44918 0.38294
 H1406 H 1.04626 0.45482 0.39707
 C1407 C 1.06697 0.43398 0.34682
 C1408 C 0.94750 0.55513 0.38527
 H1409 H 0.95270 0.55029 0.39987
 C1410 C 0.93348 0.56809 0.34773
 C1411 C 0.94970 0.61885 0.45031
 H1412 H 0.95458 0.60424 0.45501
 C1413 C 0.93636 0.65630 0.43762
 C1414 C 1.05119 0.38544 0.44942
 H1415 H 1.04694 0.40022 0.45410
 C1416 C 1.06268 0.34745 0.43673
 C1417 C 1.11597 0.44807 0.44891
 H1418 H 1.10117 0.45279 0.45350
 C1419 C 1.15407 0.43536 0.43660
 C1420 C 0.88381 0.55610 0.45141
 H1421 H 0.89827 0.55064 0.45637
 C1422 C 0.84677 0.57085 0.43792
 C1423 C 1.05179 0.55243 0.38371
 H1424 H 1.04741 0.54797 0.39863
 C1425 C 1.06356 0.56449 0.34530
 C1426 C 0.94739 0.45239 0.38512
 H1427 H 0.95220 0.45662 0.40001
 C1428 C 0.93438 0.44092 0.34685
 C1429 C 1.11742 0.55130 0.44827
 H1430 H 1.10281 0.54678 0.45328
 C1431 C 1.15495 0.56362 0.43476
 C1432 C 0.88351 0.45278 0.45150
 H1433 H 0.89795 0.45778 0.45663
 C1434 C 0.84652 0.43919 0.43757
 C1435 C 1.05338 0.61682 0.44898
 H1436 H 1.04801 0.60272 0.45428
 C1437 C 1.06801 0.65285 0.43459
 C1438 C 0.94813 0.38798 0.45002
 H1439 H 0.95309 0.40245 0.45469
 C1440 C 0.93473 0.35079 0.43746
 O1441 O 0.48767 0.92687 0.39990
 O1442 O 0.48924 0.90392 0.37649
 C1443 C 0.48157 0.91976 0.38342
 C1444 C 0.46497 0.92966 0.37251
 C1445 C 0.45874 0.92257 0.35379
 H1446 H 0.46690 0.91051 0.34682
 O1447 O 0.51939 1.07114 0.40036
 O1448 O 0.51850 1.09372 0.37652
 C1449 C 0.52590 1.07795 0.38395
 C1450 C 0.54229 1.06745 0.37349
 C1451 C 0.54748 1.07272 0.35390
 H1452 H 0.53948 1.08469 0.34653
 O1453 O 0.40405 0.97647 0.42440
 O1454 O 0.38147 0.97574 0.40030
 C1455 C 0.38829 0.96928 0.41686
 C1456 C 0.37819 0.95288 0.42720
 C1457 C 0.36008 0.94549 0.41990
 H1458 H 0.35292 0.95255 0.40715
 O1459 O 0.60093 1.02212 0.42886
 O1460 O 0.62443 1.02311 0.40585
 C1461 C 0.61680 1.02960 0.42200
 C1462 C 0.62627 1.04622 0.43276
 C1463 C 0.64490 1.05327 0.42667
 H1464 H 0.65247 1.04635 0.41415
 O1465 O 0.43361 0.89848 0.47740
 O1466 O 0.41133 0.87477 0.47703
 C1467 C 0.42738 0.88219 0.47047
 C1468 C 0.43876 0.87213 0.45430
 C1469 C 0.43251 0.85390 0.44652
 H1470 H 0.41935 0.84699 0.45259
 O1471 O 0.56884 1.10121 0.48042
 O1472 O 0.59119 1.12485 0.48100
 C1473 C 0.57539 1.11745 0.47374
 C1474 C 0.56479 1.12738 0.45695
 C1475 C 0.57107 1.14576 0.44967
 H1476 H 0.58323 1.15327 0.45706
 O1477 O 0.43078 1.01558 0.39786
 O1478 O 0.40840 1.01475 0.37358
 C1479 C 0.42409 1.02198 0.38123
 C1480 C 0.43442 1.03826 0.37093
 C1481 C 0.42866 1.04404 0.35154
 H1482 H 0.41672 1.03632 0.34400
 O1483 O 0.57649 0.98198 0.40134
 O1484 O 0.59992 0.98290 0.37825
 C1485 C 0.58407 0.97544 0.38520
 C1486 C 0.57451 0.95875 0.37466
 C1487 C 0.58177 0.95211 0.35609
 H1488 H 0.59441 0.95937 0.34938
 O1489 O 0.52718 0.90093 0.42814
 O1490 O 0.52875 0.87783 0.40489
 C1491 C 0.53490 0.88510 0.42130
 C1492 C 0.55151 0.87538 0.43235
 C1493 C 0.55883 0.85673 0.42650
 H1494 H 0.55204 0.84924 0.41392
 O1495 O 0.47880 1.09706 0.42656
 O1496 O 0.47805 1.11999 0.40307
 C1497 C 0.47138 1.11287 0.41931
 C1498 C 0.45467 1.12284 0.42979
 C1499 C 0.44848 1.14197 0.42431
 H1500 H 0.45610 1.14952 0.41230
 O1501 O 0.39894 1.06703 0.47678
 O1502 O 0.37446 1.08910 0.47615
 C1503 C 0.38249 1.07331 0.46954
 C1504 C 0.37296 1.06241 0.45289
 C1505 C 0.35417 1.06830 0.44548
 H1506 H 0.34612 1.08028 0.45272
 O1507 O 0.60542 0.93160 0.48160
 O1508 O 0.62991 0.90956 0.48246
 C1509 C 0.62217 0.92527 0.47526
 C1510 C 0.63235 0.93609 0.45897
 C1511 C 0.65118 0.92988 0.45193
 H1512 H 0.65861 0.91727 0.45878
 O1513 O 0.48065 1.06997 0.39920
 O1514 O 0.47977 1.09273 0.37554
 C1515 C 0.47385 1.07640 0.38261
 C1516 C 0.45868 1.06490 0.37163
 C1517 C 0.45283 1.07038 0.35216
 H1518 H 0.46005 1.08265 0.34486
 O1519 O 0.52652 0.92798 0.40067
 O1520 O 0.52808 0.90500 0.37730
 C1521 C 0.53394 0.92131 0.38451
 C1522 C 0.54990 0.93240 0.37429
 C1523 C 0.55716 0.92615 0.35560
 H1524 H 0.55029 0.91372 0.34819
 O1525 O 0.60342 0.98358 0.42914
 O1526 O 0.62695 0.98452 0.40616
 C1527 C 0.62010 0.97752 0.42238
 C1528 C 0.63129 0.96175 0.43316
 C1529 C 0.65012 0.95541 0.42642
 H1530 H 0.65697 0.96288 0.41390
 O1531 O 0.40268 1.01493 0.42432
 O1532 O 0.38014 1.01425 0.40017
 C1533 C 0.38641 1.02121 0.41668
 C1534 C 0.37493 1.03703 0.42694
 C1535 C 0.35622 1.04325 0.41960
 H1536 H 0.35005 1.03624 0.40642
 O1537 O 0.42488 1.09506 0.47737
 O1538 O 0.40058 1.11734 0.47678
 C1539 C 0.41734 1.11098 0.47046
 C1540 C 0.42816 1.12194 0.45478
 C1541 C 0.42220 1.14115 0.44919
 H1542 H 0.40985 1.14829 0.45685
 O1543 O 0.57932 0.90372 0.48100
 O1544 O 0.60364 0.88147 0.48190
 C1545 C 0.58720 0.88778 0.47461
 C1546 C 0.57722 0.87674 0.45835
 C1547 C 0.58430 0.85805 0.45237
 H1548 H 0.59681 0.85130 0.46022
 O1549 O 0.57408 1.02044 0.40088
 O1550 O 0.59741 1.02136 0.37768
 C1551 C 0.58069 1.02727 0.38450
 C1552 C 0.56895 1.04254 0.37360
 C1553 C 0.57381 1.04783 0.35386
 H1554 H 0.58579 1.04006 0.34624
 O1555 O 0.43242 0.97705 0.39820
 O1556 O 0.40995 0.97622 0.37400
 C1557 C 0.42621 0.96999 0.38173
 C1558 C 0.43781 0.95407 0.37174
 C1559 C 0.43162 0.94657 0.35314
 H1560 H 0.41838 0.95266 0.34598
 O1561 O 0.51767 1.09897 0.42691
 O1562 O 0.51696 1.12169 0.40323
 C1563 C 0.52384 1.11517 0.41973
 C1564 C 0.53953 1.12622 0.43049
 C1565 C 0.54602 1.14458 0.42339
 H1566 H 0.53918 1.15093 0.41010
 O1567 O 0.48818 0.89962 0.42711
 O1568 O 0.48975 0.87659 0.40379
 C1569 C 0.48217 0.88339 0.41983
 C1570 C 0.46573 0.87268 0.42972
 C1571 C 0.45942 0.85436 0.42233
 H1572 H 0.46748 0.84749 0.41009
 O1573 O 0.59731 1.07497 0.48093
 O1574 O 0.61982 1.09847 0.48159
 C1575 C 0.61348 1.08227 0.47453
 C1576 C 0.62471 1.07198 0.45841
 C1577 C 0.64343 1.07882 0.45211
 H1578 H 0.65010 1.09131 0.45960
 O1579 O 0.40504 0.92461 0.47680
 O1580 O 0.38263 0.90101 0.47650
 C1581 C 0.38917 0.91721 0.46971
 C1582 C 0.37859 0.92735 0.45306
 C1583 C 0.36050 0.92007 0.44550
 H1584 H 0.35397 0.90710 0.45220
 Cu1585 Cu 0.50726 0.91612 0.41633
 Cu1586 Cu 0.50912 0.88851 0.38829
 Cu1587 Cu 0.49920 1.08204 0.41567
 Cu1588 Cu 0.49823 1.10935 0.38723
 Cu1589 Cu 0.41974 0.99608 0.41362
 Cu1590 Cu 0.39273 0.99518 0.38456
 Cu1591 Cu 0.58639 1.00196 0.41736
 Cu1592 Cu 0.61456 1.00311 0.38970
 C1593 C 0.45457 0.94558 0.38125
 H1594 H 0.45919 0.95101 0.39579
 C1595 C 0.44199 0.93081 0.34404
 C1596 C 0.55300 1.05226 0.38317
 H1597 H 0.54923 1.04833 0.39841
 C1598 C 0.56306 1.06286 0.34382
 C1599 C 0.38719 0.94385 0.44391
 H1600 H 0.40129 0.94933 0.44945
 C1601 C 0.35113 0.92905 0.42890
 C1602 C 0.61638 1.05556 0.44874
 H1603 H 0.60188 1.05033 0.45334
 C1604 C 0.65369 1.06948 0.43630
 C1605 C 0.45545 0.88131 0.44585
 H1606 H 0.46013 0.89554 0.45148
 C1607 C 0.44275 0.84487 0.43050
 C1608 C 0.54887 1.11787 0.44738
 H1609 H 0.54412 1.10357 0.45274
 C1610 C 0.56177 1.15449 0.43287
 C1611 C 0.44956 1.04868 0.38079
 H1612 H 0.45386 1.04449 0.39588
 C1613 C 0.43783 1.06003 0.34198
 C1614 C 0.55851 0.94885 0.38358
 H1615 H 0.55307 0.95366 0.39806
 C1616 C 0.57316 0.93583 0.34638
 C1617 C 0.56071 0.88517 0.44838
 H1618 H 0.55529 0.89967 0.45279
 C1619 C 0.57517 0.84789 0.43648
 C1620 C 0.44452 1.11302 0.44513
 H1621 H 0.44911 1.09816 0.44926
 C1622 C 0.43239 1.15134 0.43405
 C1623 C 0.38310 1.04661 0.44367
 H1624 H 0.39769 1.04212 0.44918
 C1625 C 0.34569 1.05886 0.42878
 C1626 C 0.62265 0.95214 0.44957
 H1627 H 0.60799 0.95680 0.45465
 C1628 C 0.66016 0.93943 0.43561
 O1629 O 0.52223 0.92796 0.59876
 O1630 O 0.52313 0.90469 0.62188
 C1631 C 0.52924 0.92106 0.61507
 C1632 C 0.54496 0.93202 0.62592
 C1633 C 0.55262 0.92498 0.64424
 H1634 H 0.54677 0.91155 0.65066
 O1635 O 0.47595 1.07147 0.59805
 O1636 O 0.47429 1.09468 0.62118
 C1637 C 0.46840 1.07833 0.61409
 C1638 C 0.45234 1.06732 0.62430
 C1639 C 0.44409 1.07428 0.64235
 H1640 H 0.44972 1.08769 0.64904
 O1641 O 0.40079 1.01540 0.56947
 O1642 O 0.37692 1.01455 0.59211
 C1643 C 0.38402 1.02148 0.57596
 C1644 C 0.37286 1.03702 0.56483
 C1645 C 0.35365 1.04288 0.57093
 H1646 H 0.34689 1.03581 0.58374
 O1647 O 0.59894 0.98407 0.57371
 O1648 O 0.62186 0.98517 0.59747
 C1649 C 0.61551 0.97817 0.58101
 C1650 C 0.62727 0.96272 0.57046
 C1651 C 0.64652 0.95749 0.57712
 H1652 H 0.65313 0.96543 0.58951
 O1653 O 0.57825 0.90376 0.51983
 O1654 O 0.60254 0.88149 0.52084
 C1655 C 0.58567 0.88784 0.52687
 C1656 C 0.57456 0.87682 0.54232
 C1657 C 0.58040 0.85755 0.54788
 H1658 H 0.59290 0.85044 0.54043
 O1659 O 0.42413 1.09528 0.51624
 O1660 O 0.39975 1.11748 0.51568
 C1661 C 0.41629 1.11121 0.52273
 C1662 C 0.42639 1.12232 0.53885
 C1663 C 0.41974 1.14133 0.54425
 H1664 H 0.40763 1.14824 0.53593
 O1665 O 0.42922 0.97798 0.59791
 O1666 O 0.40546 0.97700 0.62065
 C1667 C 0.42214 0.97085 0.61396
 C1668 C 0.43321 0.95482 0.62448
 C1669 C 0.42636 0.94723 0.64278
 H1670 H 0.41306 0.95348 0.64960
 O1671 O 0.56892 1.02117 0.60079
 O1672 O 0.59162 1.02214 0.62476
 C1673 C 0.57515 1.02814 0.61730
 C1674 C 0.56334 1.04373 0.62758
 C1675 C 0.56831 1.04989 0.64705
 H1676 H 0.58030 1.04242 0.65503
 O1677 O 0.48469 0.89996 0.57064
 O1678 O 0.48532 0.87674 0.59381
 C1679 C 0.47837 0.88368 0.57751
 C1680 C 0.46237 0.87308 0.56667
 C1681 C 0.45522 0.85493 0.57382
 H1682 H 0.46178 0.84829 0.58710
 O1683 O 0.51458 1.09935 0.57144
 O1684 O 0.51311 1.12251 0.59463
 C1685 C 0.52065 1.11561 0.57861
 C1686 C 0.53697 1.12633 0.56849
 C1687 C 0.54350 1.14460 0.57589
 H1688 H 0.53630 1.15105 0.58888
 O1689 O 0.40482 0.92506 0.51588
 O1690 O 0.38230 0.90156 0.51563
 C1691 C 0.38874 0.91782 0.52251
 C1692 C 0.37776 0.92822 0.53870
 C1693 C 0.35878 0.92190 0.54471
 H1694 H 0.35175 0.90976 0.53695
 O1695 O 0.59601 1.07440 0.51999
 O1696 O 0.61859 1.09783 0.52070
 C1697 C 0.61187 1.08158 0.52727
 C1698 C 0.62230 1.07117 0.54384
 C1699 C 0.64115 1.07739 0.55036
 H1700 H 0.64846 1.08933 0.54259
 O1701 O 0.51478 1.07210 0.59867
 O1702 O 0.51319 1.09511 0.62202
 C1703 C 0.52076 1.07917 0.61521
 C1704 C 0.53686 1.06884 0.62642
 C1705 C 0.54219 1.07499 0.64575
 H1706 H 0.53438 1.08741 0.65247
 O1707 O 0.48339 0.92726 0.59779
 O1708 O 0.48422 0.90413 0.62106
 C1709 C 0.47681 0.92005 0.61400
 C1710 C 0.46001 0.92999 0.62440
 C1711 C 0.45306 0.92272 0.64273
 H1712 H 0.46077 0.91039 0.64980
 O1713 O 0.59652 1.02251 0.57364
 O1714 O 0.61937 1.02356 0.59746
 C1715 C 0.61230 1.02988 0.58094
 C1716 C 0.62241 1.04605 0.57017
 C1717 C 0.64120 1.05260 0.57655
 H1718 H 0.64832 1.04572 0.58942
 O1719 O 0.40281 0.97696 0.56947
 O1720 O 0.37892 0.97614 0.59209
 C1721 C 0.38665 0.96974 0.57595
 C1722 C 0.37686 0.95358 0.56479
 C1723 C 0.35793 0.94704 0.57056
 H1724 H 0.35045 0.95399 0.58312
 O1725 O 0.56807 1.10111 0.51953
 O1726 O 0.59047 1.12470 0.52025
 C1727 C 0.57438 1.11727 0.52670
 C1728 C 0.56320 1.12716 0.54310
 C1729 C 0.56945 1.14545 0.55069
 H1730 H 0.58195 1.15284 0.54383
 O1731 O 0.43315 0.89877 0.51647
 O1732 O 0.41079 0.87514 0.51622
 C1733 C 0.42662 0.88260 0.52332
 C1734 C 0.43715 0.87266 0.54013
 C1735 C 0.43028 0.85456 0.54745
 H1736 H 0.41791 0.84739 0.54005
 O1737 O 0.57117 0.98259 0.60049
 O1738 O 0.59400 0.98354 0.62434
 C1739 C 0.57839 0.97600 0.61683
 C1740 C 0.56888 0.95899 0.62682
 C1741 C 0.57627 0.95180 0.64517
 H1742 H 0.58833 0.95943 0.65260
 O1743 O 0.42722 1.01666 0.59779
 O1744 O 0.40345 1.01574 0.62052
 C1745 C 0.41938 1.02325 0.61379
 C1746 C 0.42850 1.04025 0.62423
 C1747 C 0.42051 1.04737 0.64232
 H1748 H 0.40826 1.03966 0.64926
 O1749 O 0.47565 1.09790 0.57000
 O1750 O 0.47412 1.12126 0.59299
 C1751 C 0.46803 1.11386 0.57660
 C1752 C 0.45168 1.12362 0.56523
 C1753 C 0.44467 1.14250 0.57063
 H1754 H 0.45141 1.15002 0.58322
 O1755 O 0.52364 0.90168 0.57061
 O1756 O 0.52426 0.87826 0.59360
 C1757 C 0.53096 0.88568 0.57750
 C1758 C 0.54764 0.87578 0.56690
 C1759 C 0.55368 0.85659 0.57225
 H1760 H 0.54589 0.84895 0.58409
 O1761 O 0.60385 0.93214 0.52067
 O1762 O 0.62837 0.91013 0.52172
 C1763 C 0.62021 0.92595 0.52814
 C1764 C 0.62958 0.93715 0.54468
 C1765 C 0.64876 0.93205 0.55164
 H1766 H 0.65687 0.91993 0.54470
 O1767 O 0.39853 1.06692 0.51587
 O1768 O 0.37398 1.08892 0.51536
 C1769 C 0.38183 1.07317 0.52238
 C1770 C 0.37174 1.06223 0.53860
 C1771 C 0.35249 1.06780 0.54484
 H1772 H 0.34460 1.07960 0.53709
 Cu1773 Cu 0.50341 0.91653 0.58212
 Cu1774 Cu 0.50433 0.88861 0.60991
 Cu1775 Cu 0.49538 1.08291 0.58221
 Cu1776 Cu 0.49354 1.11075 0.61001
 Cu1777 Cu 0.42138 0.91410 0.49662
 Cu1778 Cu 0.39453 0.88573 0.49634
 Cu1779 Cu 0.58931 0.92005 0.50068
 Cu1780 Cu 0.61863 0.89349 0.50187
 Cu1781 Cu 0.41404 1.07883 0.49662
 Cu1782 Cu 0.38468 1.10539 0.49594
 Cu1783 Cu 0.58031 1.08559 0.50012
 Cu1784 Cu 0.60726 1.11384 0.50097
 Cu1785 Cu 0.41745 0.99683 0.58146
 Cu1786 Cu 0.38883 0.99575 0.60866
 Cu1787 Cu 0.58156 1.00252 0.58481
 Cu1788 Cu 0.60898 1.00375 0.61343
 C1789 C 0.55309 0.94912 0.61744
 H1790 H 0.54749 0.95444 0.60316
 C1791 C 0.56832 0.93474 0.65397
 C1792 C 0.44453 1.05022 0.61548
 H1793 H 0.45059 1.04496 0.60141
 C1794 C 0.42814 1.06442 0.65149
 C1795 C 0.38172 1.04668 0.54855
 H1796 H 0.39666 1.04245 0.54397
 C1797 C 0.34333 1.05823 0.56102
 C1798 C 0.61901 0.95260 0.55410
 H1799 H 0.60409 0.95643 0.54902
 C1800 C 0.65740 0.94219 0.56781
 C1801 C 0.55804 0.88571 0.55179
 H1802 H 0.55355 0.90062 0.54773
 C1803 C 0.56990 0.84726 0.56273
 C1804 C 0.44251 1.11371 0.54926
 H1805 H 0.44762 1.09900 0.54523
 C1806 C 0.42880 1.15159 0.56013
 C1807 C 0.45014 0.94619 0.61552
 H1808 H 0.45530 0.95170 0.60123
 C1809 C 0.43618 0.93112 0.65200
 C1810 C 0.54742 1.05313 0.61752
 H1811 H 0.54360 1.04856 0.60246
 C1812 C 0.55778 1.06552 0.65631
 C1813 C 0.45331 0.88173 0.54972
 H1814 H 0.45848 0.89586 0.54432
 C1815 C 0.43907 0.84566 0.56435
 C1816 C 0.54682 1.11783 0.55199
 H1817 H 0.54208 1.10361 0.54641
 C1818 C 0.55975 1.15428 0.56713
 C1819 C 0.38658 0.94420 0.54872
 H1820 H 0.40129 0.94904 0.54434
 C1821 C 0.34870 0.93132 0.56057
 C1822 C 0.61314 1.05534 0.55371
 H1823 H 0.59853 1.05055 0.54887
 C1824 C 0.65074 1.06818 0.56668
 O1825 O 0.57054 0.51428 1.09898
 O1826 O 0.59366 0.51348 1.12257
 C1827 C 0.57754 0.52070 1.11541
 C1828 C 0.56721 0.53715 1.12597
 C1829 C 0.57410 0.54355 1.14473
 H1830 H 0.58626 0.53561 1.15198
 O1831 O 0.42839 0.47897 1.10012
 O1832 O 0.40542 0.47909 1.12369
 C1833 C 0.42146 0.47204 1.11630
 C1834 C 0.43170 0.45516 1.12625
 C1835 C 0.42474 0.44801 1.14464
 H1836 H 0.41265 0.45573 1.15214
 O1837 O 0.51884 0.59593 1.07251
 O1838 O 0.51929 0.61883 1.09600
 C1839 C 0.52586 0.61181 1.07963
 C1840 C 0.54215 0.62194 1.06900
 C1841 C 0.54887 0.64039 1.07561
 H1842 H 0.54180 0.64740 1.08837
 O1843 O 0.47830 0.39731 1.07057
 O1844 O 0.47820 0.37395 1.09359
 C1845 C 0.47125 0.38136 1.07748
 C1846 C 0.45440 0.37183 1.06686
 C1847 C 0.44665 0.35371 1.07345
 H1848 H 0.45337 0.34624 1.08619
 O1849 O 0.59866 0.56724 1.02019
 O1850 O 0.62210 0.58982 1.02049
 C1851 C 0.61492 0.57383 1.02722
 C1852 C 0.62520 0.56308 1.04375
 C1853 C 0.64350 0.56975 1.05138
 H1854 H 0.65064 0.58226 1.04441
 O1855 O 0.39852 0.42881 1.01948
 O1856 O 0.37465 0.40667 1.01910
 C1857 C 0.38218 0.42231 1.02629
 C1858 C 0.37220 0.43282 1.04307
 C1859 C 0.35343 0.42682 1.05003
 H1860 H 0.34575 0.41498 1.04244
 O1861 O 0.48001 0.56946 1.10006
 O1862 O 0.48055 0.59226 1.12364
 C1863 C 0.47357 0.57635 1.11654
 C1864 C 0.45757 0.56594 1.12736
 C1865 C 0.45116 0.57259 1.14620
 H1866 H 0.45814 0.58537 1.15286
 O1867 O 0.51786 0.42351 1.09761
 O1868 O 0.51791 0.40035 1.12086
 C1869 C 0.52477 0.41637 1.11384
 C1870 C 0.54113 0.42666 1.12446
 C1871 C 0.54791 0.41985 1.14318
 H1872 H 0.54106 0.40704 1.14985
 O1873 O 0.59793 0.47554 1.07134
 O1874 O 0.62115 0.47470 1.09482
 C1875 C 0.61407 0.46830 1.07840
 C1876 C 0.62432 0.45191 1.06765
 C1877 C 0.64280 0.44437 1.07444
 H1878 H 0.64983 0.45086 1.08747
 O1879 O 0.40097 0.51848 1.07352
 O1880 O 0.37798 0.51866 1.09708
 C1881 C 0.38486 0.52545 1.08078
 C1882 C 0.37433 0.54194 1.07045
 C1883 C 0.35610 0.54929 1.07785
 H1884 H 0.34925 0.54220 1.09060
 O1885 O 0.42695 0.59759 1.02027
 O1886 O 0.40372 0.62096 1.02071
 C1887 C 0.42008 0.61373 1.02726
 C1888 C 0.43102 0.62397 1.04345
 C1889 C 0.42480 0.64276 1.04991
 H1890 H 0.41201 0.64979 1.04281
 O1891 O 0.56966 0.39710 1.01780
 O1892 O 0.59281 0.37367 1.01717
 C1893 C 0.57663 0.38073 1.02421
 C1894 C 0.56610 0.37011 1.04037
 C1895 C 0.57286 0.35145 1.04683
 H1896 H 0.58520 0.34434 1.03913
 O1897 O 0.42815 0.51763 1.10124
 O1898 O 0.40526 0.51775 1.12489
 C1899 C 0.42139 0.52434 1.11769
 C1900 C 0.43212 0.54041 1.12810
 C1901 C 0.42596 0.54720 1.14704
 H1902 H 0.41380 0.53994 1.15463
 O1903 O 0.57048 0.47560 1.09864
 O1904 O 0.59359 0.47483 1.12223
 C1905 C 0.57735 0.46846 1.11491
 C1906 C 0.56666 0.45222 1.12509
 C1907 C 0.57304 0.44531 1.14395
 H1908 H 0.58521 0.45262 1.15152
 O1909 O 0.51732 0.39640 1.07032
 O1910 O 0.51740 0.37306 1.09337
 C1911 C 0.52416 0.38015 1.07716
 C1912 C 0.54050 0.36979 1.06635
 C1913 C 0.54767 0.35123 1.07282
 H1914 H 0.54095 0.34427 1.08571
 O1915 O 0.47990 0.59679 1.07280
 O1916 O 0.48032 0.61973 1.09624
 C1917 C 0.47330 0.61299 1.07992
 C1918 C 0.45701 0.62374 1.06925
 C1919 C 0.45066 0.64267 1.07543
 H1920 H 0.45830 0.64990 1.08766
 O1921 O 0.39974 0.57082 1.02066
 O1922 O 0.37640 0.59408 1.02129
 C1923 C 0.38369 0.57793 1.02793
 C1924 C 0.37373 0.56758 1.04464
 C1925 C 0.35556 0.57478 1.05235
 H1926 H 0.34862 0.58778 1.04576
 O1927 O 0.59700 0.42387 1.01823
 O1928 O 0.62025 0.40054 1.01771
 C1929 C 0.61328 0.41658 1.02489
 C1930 C 0.62388 0.42663 1.04148
 C1931 C 0.64239 0.41940 1.04841
 H1932 H 0.64939 0.40694 1.04092
 O1933 O 0.47900 0.42415 1.09820
 O1934 O 0.47892 0.40094 1.12138
 C1935 C 0.47228 0.41726 1.11451
 C1936 C 0.45631 0.42820 1.12530
 C1937 C 0.44894 0.42112 1.14361
 H1938 H 0.45514 0.40767 1.15000
 O1939 O 0.51889 0.56845 1.09947
 O1940 O 0.51950 0.59120 1.12309
 C1941 C 0.52602 0.57502 1.11577
 C1942 C 0.54226 0.56387 1.12608
 C1943 C 0.54960 0.57020 1.14473
 H1944 H 0.54321 0.58327 1.15167
 O1945 O 0.40040 0.47995 1.07328
 O1946 O 0.37735 0.48014 1.09678
 C1947 C 0.38415 0.47347 1.08034
 C1948 C 0.37327 0.45778 1.06952
 C1949 C 0.35461 0.45145 1.07636
 H1950 H 0.34814 0.45824 1.08954
 O1951 O 0.59833 0.51425 1.07209
 O1952 O 0.62153 0.51344 1.09559
 C1953 C 0.61455 0.52068 1.07941
 C1954 C 0.62503 0.53711 1.06928
 C1955 C 0.64329 0.54411 1.07677
 H1956 H 0.64994 0.53718 1.08984
 O1957 O 0.42527 0.40084 1.01860
 O1958 O 0.40151 0.37857 1.01808
 C1959 C 0.41795 0.38482 1.02503
 C1960 C 0.42835 0.37367 1.04115
 C1961 C 0.42089 0.35558 1.04786
 H1962 H 0.40803 0.34928 1.04048
 O1963 O 0.57173 0.59505 1.02026
 O1964 O 0.59506 0.61776 1.02046
 C1965 C 0.57878 0.61102 1.02715
 C1966 C 0.56810 0.62156 1.04340
 C1967 C 0.57460 0.64007 1.05018
 H1968 H 0.58708 0.64709 1.04289
 Cu1969 Cu 0.58204 0.49498 1.08290
 Cu1970 Cu 0.60979 0.49402 1.11115
 Cu1971 Cu 0.41681 0.49877 1.08472
 Cu1972 Cu 0.38922 0.49891 1.11299
 Cu1973 Cu 0.49933 0.58040 1.08384
 Cu1974 Cu 0.49996 0.60780 1.11211
 Cu1975 Cu 0.49810 0.41260 1.08182
 Cu1976 Cu 0.49813 0.38473 1.10961
 C1977 C 0.55112 0.54726 1.11688
 H1978 H 0.54585 0.54252 1.10232
 C1979 C 0.56552 0.56014 1.15419
 C1980 C 0.44765 0.44529 1.11681
 H1981 H 0.45295 0.45060 1.10250
 C1982 C 0.43310 0.43091 1.15338
 C1983 C 0.55173 0.61274 1.05277
 H1984 H 0.54679 0.59836 1.04780
 C1985 C 0.56504 0.64961 1.06627
 C1986 C 0.44521 0.38156 1.05060
 H1987 H 0.45085 0.39567 1.04563
 C1988 C 0.42982 0.34552 1.06405
 C1989 C 0.61622 0.54662 1.05269
 H1990 H 0.60200 0.54154 1.04705
 C1991 C 0.65267 0.56044 1.06793
 C1992 C 0.38187 0.44846 1.05279
 H1993 H 0.39641 0.45307 1.04765
 C1994 C 0.34449 0.43605 1.06669
 C1995 C 0.44808 0.54974 1.11853
 H1996 H 0.45278 0.54475 1.10385
 C1997 C 0.43545 0.56329 1.15626
 C1998 C 0.55053 0.44292 1.11559
 H1999 H 0.54561 0.44805 1.10099
 C2000 C 0.56379 0.42911 1.15314
 C2001 C 0.61509 0.44301 1.05107
 H2002 H 0.60070 0.44851 1.04595
 C2003 C 0.65196 0.42810 1.06492
 C2004 C 0.38292 0.55106 1.05371
 H2005 H 0.39710 0.54563 1.04808
 C2006 C 0.34664 0.56576 1.06896
 C2007 C 0.44723 0.61466 1.05309
 H2008 H 0.45189 0.60002 1.04835
 C2009 C 0.43459 0.65236 1.06575
 C2010 C 0.54976 0.37902 1.05005
 H2011 H 0.54460 0.39349 1.04524
 C2012 C 0.56386 0.34190 1.06314
 O2013 O 0.57013 0.47890 0.89964
 O2014 O 0.59319 0.47865 0.87616
 C2015 C 0.57695 0.47216 0.88323
 C2016 C 0.56612 0.45625 0.87267
 C2017 C 0.57253 0.44938 0.85384
 H2018 H 0.58493 0.45647 0.84652
 O2019 O 0.42626 0.52059 0.90036
 O2020 O 0.40282 0.52121 0.87709
 C2021 C 0.41914 0.52760 0.88417
 C2022 C 0.42973 0.54364 0.87373
 C2023 C 0.42303 0.55048 0.85503
 H2024 H 0.41056 0.54332 0.84778
 O2025 O 0.47838 0.59845 0.92845
 O2026 O 0.47851 0.62183 0.90545
 C2027 C 0.47151 0.61467 0.92152
 C2028 C 0.45483 0.62487 0.93203
 C2029 C 0.44705 0.64301 0.92500
 H2030 H 0.45359 0.64992 0.91199
 O2031 O 0.51644 0.40032 0.92637
 O2032 O 0.51587 0.37750 0.90281
 C2033 C 0.52285 0.38408 0.91918
 C2034 C 0.53888 0.37298 0.92977
 C2035 C 0.54468 0.35401 0.92339
 H2036 H 0.53713 0.34733 0.91076
 O2037 O 0.59671 0.42467 0.97913
 O2038 O 0.61999 0.40136 0.97859
 C2039 C 0.61294 0.41769 0.97215
 C2040 C 0.62357 0.42856 0.95623
 C2041 C 0.64274 0.42251 0.95018
 H2042 H 0.64973 0.40980 0.95729
 O2043 O 0.39868 0.57126 0.98155
 O2044 O 0.37516 0.59433 0.98217
 C2045 C 0.38221 0.57829 0.97509
 C2046 C 0.37153 0.56793 0.95881
 C2047 C 0.35213 0.57374 0.95302
 H2048 H 0.34450 0.58538 0.96120
 O2049 O 0.51749 0.57092 0.90129
 O2050 O 0.51787 0.59426 0.87825
 C2051 C 0.52454 0.57796 0.88520
 C2052 C 0.54096 0.56733 0.87476
 C2053 C 0.54839 0.57446 0.85651
 H2054 H 0.54185 0.58764 0.84987
 O2055 O 0.47808 0.42896 0.89913
 O2056 O 0.47770 0.40635 0.87535
 C2057 C 0.47123 0.42252 0.88263
 C2058 C 0.45524 0.43375 0.87213
 C2059 C 0.44896 0.42823 0.85285
 H2060 H 0.45653 0.41619 0.84522
 O2061 O 0.59801 0.51655 0.92746
 O2062 O 0.62117 0.51641 0.90407
 C2063 C 0.61428 0.52308 0.92047
 C2064 C 0.62494 0.53891 0.93132
 C2065 C 0.64357 0.54556 0.92464
 H2066 H 0.65038 0.53882 0.91159
 O2067 O 0.39910 0.48222 0.92754
 O2068 O 0.37562 0.48276 0.90430
 C2069 C 0.38273 0.47588 0.92057
 C2070 C 0.37200 0.46015 0.93134
 C2071 C 0.35303 0.45426 0.92488
 H2072 H 0.34612 0.46144 0.91207
 O2073 O 0.57134 0.59515 0.98128
 O2074 O 0.59467 0.61786 0.98144
 C2075 C 0.57830 0.61125 0.97465
 C2076 C 0.56737 0.62215 0.95866
 C2077 C 0.57370 0.64088 0.95236
 H2078 H 0.58628 0.64773 0.95972
 O2079 O 0.42486 0.40187 0.97950
 O2080 O 0.40113 0.37958 0.97890
 C2081 C 0.41744 0.38626 0.97216
 C2082 C 0.42773 0.37615 0.95531
 C2083 C 0.42048 0.35832 0.94746
 H2084 H 0.40734 0.35173 0.95395
 O2085 O 0.42601 0.48209 0.89977
 O2086 O 0.40266 0.48270 0.87639
 C2087 C 0.41893 0.47569 0.88336
 C2088 C 0.42960 0.45972 0.87252
 C2089 C 0.42344 0.45394 0.85328
 H2090 H 0.41088 0.46142 0.84623
 O2091 O 0.56993 0.51749 0.90072
 O2092 O 0.59297 0.51736 0.87721
 C2093 C 0.57687 0.52438 0.88452
 C2094 C 0.56643 0.54109 0.87441
 C2095 C 0.57352 0.54839 0.85611
 H2096 H 0.58602 0.54108 0.84888
 O2097 O 0.47747 0.40193 0.92665
 O2098 O 0.47697 0.37925 0.90295
 C2099 C 0.47031 0.38621 0.91934
 C2100 C 0.45371 0.37617 0.92967
 C2101 C 0.44644 0.35824 0.92227
 H2102 H 0.45382 0.35125 0.90968
 O2103 O 0.51743 0.59745 0.92917
 O2104 O 0.51766 0.62095 0.90629
 C2105 C 0.52441 0.61350 0.92248
 C2106 C 0.54089 0.62329 0.93333
 C2107 C 0.54746 0.64196 0.92727
 H2108 H 0.54013 0.64937 0.91483
 O2109 O 0.39819 0.42981 0.98038
 O2110 O 0.37432 0.40766 0.97997
 C2111 C 0.38173 0.42360 0.97347
 C2112 C 0.37143 0.43472 0.95729
 C2113 C 0.35242 0.42908 0.95067
 H2114 H 0.34482 0.41713 0.95814
 O2115 O 0.59872 0.56773 0.98102
 O2116 O 0.62219 0.59029 0.98124
 C2117 C 0.61498 0.57443 0.97424
 C2118 C 0.62528 0.56396 0.95768
 C2119 C 0.64394 0.57032 0.95088
 H2120 H 0.65130 0.58234 0.95850
 O2121 O 0.51702 0.42801 0.89959
 O2122 O 0.51660 0.40527 0.87595
 C2123 C 0.52371 0.42105 0.88324
 C2124 C 0.54015 0.43120 0.87280
 C2125 C 0.54688 0.42442 0.85411
 H2126 H 0.53984 0.41176 0.84729
 O2127 O 0.47858 0.57179 0.90066
 O2128 O 0.47884 0.59502 0.87750
 C2129 C 0.47191 0.57900 0.88435
 C2130 C 0.45556 0.56881 0.87368
 C2131 C 0.44862 0.57552 0.85493
 H2132 H 0.45558 0.58808 0.84787
 O2133 O 0.39894 0.52062 0.92773
 O2134 O 0.37538 0.52115 0.90456
 C2135 C 0.38254 0.52751 0.92095
 C2136 C 0.37184 0.54320 0.93218
 C2137 C 0.35255 0.54929 0.92648
 H2138 H 0.34547 0.54240 0.91370
 O2139 O 0.59732 0.47801 0.92736
 O2140 O 0.62057 0.47783 0.90406
 C2141 C 0.61353 0.47107 0.92030
 C2142 C 0.62398 0.45469 0.93094
 C2143 C 0.64325 0.44853 0.92522
 H2144 H 0.65089 0.45639 0.91344
 O2145 O 0.56934 0.39791 0.97879
 O2146 O 0.59245 0.37443 0.97813
 C2147 C 0.57613 0.38181 0.97163
 C2148 C 0.56505 0.37186 0.95534
 C2149 C 0.57063 0.35285 0.94880
 H2150 H 0.58276 0.34504 0.95623
 O2151 O 0.42617 0.59788 0.98118
 O2152 O 0.40276 0.62106 0.98161
 C2153 C 0.41892 0.61402 0.97450
 C2154 C 0.42910 0.62443 0.95795
 C2155 C 0.42162 0.64255 0.95076
 H2156 H 0.40887 0.64940 0.95803
 Cu2157 Cu 0.58155 0.49773 0.91613
 Cu2158 Cu 0.60926 0.49753 0.88800
 Cu2159 Cu 0.41495 0.50132 0.91616
 Cu2160 Cu 0.38677 0.50201 0.88822
 Cu2161 Cu 0.58281 0.57901 1.00067
 Cu2162 Cu 0.61090 0.60616 1.00090
 Cu2163 Cu 0.58086 0.41322 0.99853
 Cu2164 Cu 0.60872 0.38517 0.99782
 Cu2165 Cu 0.41520 0.58204 1.00083
 Cu2166 Cu 0.38717 0.60995 1.00150
 Cu2167 Cu 0.41408 0.41755 0.99955
 Cu2168 Cu 0.38552 0.39088 0.99898
 Cu2169 Cu 0.49790 0.58234 0.91720
 Cu2170 Cu 0.49829 0.61038 0.88958
 Cu2171 Cu 0.49730 0.41708 0.91531
 Cu2172 Cu 0.49673 0.38980 0.88690
 C2173 C 0.54977 0.44720 0.88188
 H2174 H 0.54485 0.45227 0.89646
 C2175 C 0.56299 0.43344 0.84441
 C2176 C 0.44611 0.55276 0.88283
 H2177 H 0.45116 0.54769 0.89740
 C2178 C 0.43230 0.56643 0.84552
 C2179 C 0.44581 0.61581 0.94860
 H2180 H 0.45150 0.60170 0.95393
 C2181 C 0.43037 0.65193 0.93424
 C2182 C 0.54903 0.38169 0.94586
 H2183 H 0.54479 0.39643 0.95067
 C2184 C 0.56045 0.34375 0.93286
 C2185 C 0.61438 0.44475 0.94661
 H2186 H 0.59948 0.44931 0.95102
 C2187 C 0.65283 0.43248 0.93483
 C2188 C 0.38113 0.55250 0.94844
 H2189 H 0.39613 0.54805 0.95271
 C2190 C 0.34245 0.56443 0.93690
 C2191 C 0.55001 0.55055 0.88352
 H2192 H 0.54461 0.54516 0.89776
 C2193 C 0.56469 0.56513 0.84710
 C2194 C 0.44561 0.44964 0.88172
 H2195 H 0.45024 0.45384 0.89668
 C2196 C 0.43308 0.43826 0.84327
 C2197 C 0.61602 0.54812 0.94794
 H2198 H 0.60151 0.54330 0.95297
 C2199 C 0.65321 0.56126 0.93434
 C2200 C 0.38102 0.45042 0.94767
 H2201 H 0.39579 0.45469 0.95252
 C2202 C 0.34311 0.43876 0.93447
 C2203 C 0.55082 0.61358 0.94917
 H2204 H 0.54599 0.59905 0.95374
 C2205 C 0.56378 0.65092 0.93671
 C2206 C 0.44441 0.38489 0.94633
 H2207 H 0.44987 0.39883 0.95200
 C2208 C 0.42973 0.34926 0.93088
 C2209 C 1.09584 1.12808 1.29109
 C2210 C 1.08709 1.12066 1.27364
 C2211 C 1.09773 1.10778 1.26118
 C2212 C 1.11716 1.10192 1.26663
 C2213 C 1.12588 1.10906 1.28419
 C2214 C 1.11551 1.12253 1.29669
 N2215 N 1.08862 1.10103 1.24302
 N2216 N 1.09861 1.09187 1.22968
 C2217 C 1.08983 1.08496 1.21144
 C2218 C 1.10236 1.07759 1.19644
 C2219 C 1.09441 1.07084 1.17837
 C2220 C 1.07365 1.07105 1.17506
 C2221 C 1.06107 1.07841 1.19024
 C2222 C 1.06908 1.08539 1.20825
 H2223 H 1.08688 1.13787 1.30024
 H2224 H 1.07202 1.12516 1.26969
 H2225 H 1.12568 1.09189 1.25726
 H2226 H 1.14103 1.10441 1.28739
 H2227 H 1.11837 1.07728 1.19870
 H2228 H 1.10460 1.06569 1.16690
 H2229 H 1.04502 1.07855 1.18831
 H2230 H 1.05909 1.09093 1.21971
 C2231 C 1.08992 0.61218 0.80083
 C2232 C 1.08257 0.60535 0.78252
 C2233 C 1.09566 0.59835 0.76780
 C2234 C 1.11627 0.59772 0.77182
 C2235 C 1.12364 0.60442 0.79019
 C2236 C 1.11055 0.61199 0.80478
 N2237 N 1.08771 0.59249 0.74880
 N2238 N 1.09893 0.58744 0.73430
 C2239 C 1.09112 0.58182 0.71516
 C2240 C 1.10448 0.57691 0.69987
 C2241 C 1.09745 0.57143 0.68099
 C2242 C 1.07682 0.57071 0.67708
 C2243 C 1.06341 0.57577 0.69245
 C2244 C 1.07048 0.58128 0.71135
 H2245 H 1.07948 0.61770 0.81189
 H2246 H 1.06665 0.60584 0.77965
 H2247 H 1.12670 0.59232 0.76068
 H2248 H 1.13960 0.60428 0.79271
 H2249 H 1.12042 0.57739 0.70260
 H2250 H 1.10817 0.56793 0.66937
 H2251 H 1.04745 0.57516 0.68995
 H2252 H 1.05985 0.58502 0.72296
 C2253 C 0.62628 1.10017 0.78780
 C2254 C 0.62000 1.09298 0.76929
 C2255 C 0.60188 1.09924 0.76099
 C2256 C 0.59001 1.11303 0.77136
 C2257 C 0.59640 1.12057 0.78981
 C2258 C 0.61467 1.11422 0.79845
 N2259 N 0.59624 1.09161 0.74185
 N2260 N 0.57882 1.09393 0.73452
 C2261 C 0.57383 1.08645 0.71510
 C2262 C 0.55381 1.08607 0.70916
 C2263 C 0.54854 1.07894 0.69024
 C2264 C 0.56331 1.07236 0.67675
 C2265 C 0.58343 1.07281 0.68280
 C2266 C 0.58864 1.07968 0.70182
 H2267 H 0.64065 1.09507 0.79319
 H2268 H 0.62935 1.08247 0.76132
 H2269 H 0.57591 1.11811 0.76514
 H2270 H 0.58670 1.13101 0.79737
 H2271 H 0.54226 1.09118 0.71928
 H2272 H 0.53288 1.07849 0.68624
 H2273 H 0.59522 1.06824 0.67271
 H2274 H 0.60426 1.07999 0.70601
 C2275 C 0.59383 0.62341 1.29041
 C2276 C 0.58547 0.61618 1.27269
 C2277 C 0.59640 0.60345 1.26033
 C2278 C 0.61573 0.59760 1.26610
 C2279 C 0.62407 0.60456 1.28393
 C2280 C 0.61338 0.61783 1.29638
 N2281 N 0.58764 0.59682 1.24195
 N2282 N 0.59782 0.58757 1.22881
 C2283 C 0.58931 0.58080 1.21038
 C2284 C 0.60202 0.57318 1.19566
 C2285 C 0.59433 0.56659 1.17741
 C2286 C 0.57364 0.56726 1.17364
 C2287 C 0.56089 0.57486 1.18855
 C2288 C 0.56865 0.58164 1.20674
 H2289 H 0.58463 0.63307 1.29948
 H2290 H 0.57047 0.62068 1.26847
 H2291 H 0.62448 0.58769 1.25679
 H2292 H 0.63916 0.59992 1.28739
 H2293 H 0.61798 0.57255 1.19826
 H2294 H 0.60464 0.56123 1.16615
 H2295 H 0.54488 0.57533 1.18627
 H2296 H 0.55851 0.58738 1.21798
 C2297 C 0.90002 0.86943 1.28675
 C2298 C 0.90662 0.87534 1.26790
 C2299 C 0.90105 0.89371 1.26011
 C2300 C 0.88843 0.90617 1.27128
 C2301 C 0.88149 0.90020 1.29006
 C2302 C 0.88728 0.88174 1.29827
 N2303 N 0.90827 0.89918 1.24076
 N2304 N 0.90638 0.91662 1.23385
 C2305 C 0.91344 0.92175 1.21432
 C2306 C 0.91368 0.94164 1.20871
 C2307 C 0.92036 0.94712 1.18972
 C2308 C 0.92667 0.93270 1.17584
 C2309 C 0.92641 0.91270 1.18157
 C2310 C 0.91995 0.90728 1.20066
 H2311 H 0.90456 0.85491 1.29181
 H2312 H 0.91621 0.86553 1.25933
 H2313 H 0.88387 0.92047 1.26548
 H2314 H 0.87205 0.91041 1.29823
 H2315 H 0.90879 0.95294 1.21914
 H2316 H 0.92069 0.96268 1.18597
 H2317 H 0.93083 0.90119 1.17117
 H2318 H 0.91977 0.89177 1.20461
 C2319 C 0.90133 0.36958 0.78784
 C2320 C 0.90958 0.37603 0.76987
 C2321 C 0.90394 0.39423 0.76170
 C2322 C 0.88974 0.40601 0.77165
 C2323 C 0.88117 0.39948 0.78950
 C2324 C 0.88681 0.38111 0.79799
 N2325 N 0.91245 0.40014 0.74305
 N2326 N 0.91047 0.41761 0.73625
 C2327 C 0.91846 0.42317 0.71724
 C2328 C 0.91868 0.44315 0.71199
 C2329 C 0.92583 0.44899 0.69330
 C2330 C 0.93260 0.43484 0.67936
 C2331 C 0.93246 0.41475 0.68478
 C2332 C 0.92555 0.40897 0.70358
 H2333 H 0.90597 0.35519 0.79322
 H2334 H 0.92041 0.36676 0.76221
 H2335 H 0.88512 0.42017 0.76555
 H2336 H 0.87048 0.40917 0.79672
 H2337 H 0.91329 0.45423 0.72242
 H2338 H 0.92606 0.46460 0.68978
 H2339 H 0.93722 0.40343 0.67432
 H2340 H 0.92536 0.39339 0.70726
 C2341 C 0.37694 0.90109 0.78944
 C2342 C 0.38448 0.90967 0.77205
 C2343 C 0.39415 0.89801 0.75768
 C2344 C 0.39666 0.87763 0.76112
 C2345 C 0.38928 0.86906 0.77861
 C2346 C 0.37913 0.88067 0.79284
 N2347 N 0.40095 0.90714 0.73964
 N2348 N 0.40818 0.89708 0.72523
 C2349 C 0.41492 0.90602 0.70708
 C2350 C 0.42169 0.89381 0.69160
 C2351 C 0.42839 0.90195 0.67367
 C2352 C 0.42857 0.92257 0.67094
 C2353 C 0.42163 0.93483 0.68649
 C2354 C 0.41485 0.92664 0.70443
 H2355 H 0.36942 0.91043 0.80028
 H2356 H 0.38254 0.92539 0.76961
 H2357 H 0.40415 0.86831 0.75025
 H2358 H 0.39102 0.85328 0.78076
 H2359 H 0.42169 0.87791 0.69343
 H2360 H 0.43328 0.89208 0.66185
 H2361 H 0.42176 0.95075 0.68491
 H2362 H 0.40969 0.93639 0.71623
 C2363 C 0.40194 0.36665 1.28867
 C2364 C 0.41071 0.37313 1.27089
 C2365 C 0.40035 0.38594 1.25804
 C2366 C 0.38113 0.39248 1.26328
 C2367 C 0.37240 0.38628 1.28112
 C2368 C 0.38257 0.37313 1.29419
 N2369 N 0.40959 0.39219 1.23982
 N2370 N 0.39977 0.40164 1.22649
 C2371 C 0.40855 0.40842 1.20827
 C2372 C 0.39607 0.41652 1.19352
 C2373 C 0.40401 0.42359 1.17565
 C2374 C 0.42473 0.42295 1.17230
 C2375 C 0.43727 0.41472 1.18715
 C2376 C 0.42924 0.40745 1.20498
 H2377 H 0.41070 0.35696 1.29818
 H2378 H 0.42561 0.36807 1.26708
 H2379 H 0.37280 0.40244 1.25358
 H2380 H 0.35743 0.39149 1.28415
 H2381 H 0.38009 0.41726 1.19588
 H2382 H 0.39387 0.42942 1.16439
 H2383 H 0.45329 0.41420 1.18514
 H2384 H 0.43919 0.40133 1.21626
 C2385 C 0.85889 1.11496 0.71805
 C2386 C 0.86554 1.10664 0.73604
 C2387 C 0.88483 1.11007 0.74302
 C2388 C 0.89747 1.12227 0.73191
 C2389 C 0.89079 1.13090 0.71401
 C2390 C 0.87138 1.12729 0.70660
 N2391 N 0.89106 1.10116 0.76150
 N2392 N 0.90909 1.10144 0.76756
 C2393 C 0.91506 1.09275 0.78625
 C2394 C 0.93538 1.09151 0.79098
 C2395 C 0.94168 1.08345 0.80925
 C2396 C 0.92768 1.07668 0.82327
 C2397 C 0.90725 1.07784 0.81839
 C2398 C 0.90099 1.08573 0.80003
 H2399 H 0.84371 1.11202 0.71361
 H2400 H 0.85560 1.09739 0.74459
 H2401 H 0.91248 1.12519 0.73708
 H2402 H 0.90118 1.13991 0.70584
 H2403 H 0.94636 1.09679 0.78046
 H2404 H 0.95753 1.08249 0.81236
 H2405 H 0.89606 1.07307 0.82894
 H2406 H 0.88517 1.08663 0.79675
 C2407 C 0.88075 0.64539 0.22692
 C2408 C 0.88922 0.63861 0.24481
 C2409 C 0.88892 0.61854 0.24968
 C2410 C 0.87967 0.60522 0.23651
 C2411 C 0.87101 0.61203 0.21862
 C2412 C 0.87164 0.63218 0.21356
 N2413 N 0.89810 0.61218 0.26803
 N2414 N 0.89977 0.59405 0.27288
 C2415 C 0.90887 0.58794 0.29138
 C2416 C 0.91076 0.56775 0.29553
 C2417 C 0.91910 0.56129 0.31364
 C2418 C 0.92566 0.57498 0.32802
 C2419 C 0.92402 0.59527 0.32368
 C2420 C 0.91571 0.60170 0.30553
 H2421 H 0.88117 0.66103 0.22359
 H2422 H 0.89618 0.64903 0.25488
 H2423 H 0.87919 0.58961 0.23999
 H2424 H 0.86420 0.60152 0.20856
 H2425 H 0.90564 0.55698 0.28473
 H2426 H 0.92041 0.54556 0.31640
 H2427 H 0.92869 0.60619 0.33452
 H2428 H 0.91440 0.61742 0.30269
 C2429 C 0.39421 1.13383 0.21584
 C2430 C 0.40222 1.12741 0.23408
 C2431 C 0.40156 1.10746 0.23942
 C2432 C 0.39282 1.09386 0.22624
 C2433 C 0.38467 1.10029 0.20802
 C2434 C 0.38526 1.12036 0.20265
 N2435 N 0.40942 1.10157 0.25849
 N2436 N 0.41039 1.08358 0.26398
 C2437 C 0.41783 1.07801 0.28333
 C2438 C 0.41983 1.05795 0.28804
 C2439 C 0.42657 1.05206 0.30698
 C2440 C 0.43131 1.06622 0.32162
 C2441 C 0.42937 1.08638 0.31678
 C2442 C 0.42274 1.09223 0.29781
 H2443 H 0.39462 1.14942 0.21228
 H2444 H 0.40882 1.13803 0.24417
 H2445 H 0.39212 1.07834 0.23008
 H2446 H 0.37802 1.08958 0.19807
 H2447 H 0.41612 1.04685 0.27699
 H2448 H 0.42816 1.03643 0.31014
 H2449 H 0.43258 1.09765 0.32780
 H2450 H 0.42120 1.10785 0.29457
 C2451 C 0.40823 0.61579 0.70251
 C2452 C 0.41611 0.60904 0.72071
 C2453 C 0.40348 0.60240 0.73585
 C2454 C 0.38276 0.60207 0.73238
 C2455 C 0.37487 0.60869 0.71412
 C2456 C 0.38750 0.61587 0.69910
 N2457 N 0.41197 0.59648 0.75467
 N2458 N 0.40115 0.59177 0.76950
 C2459 C 0.40941 0.58593 0.78844
 C2460 C 0.39639 0.58120 0.80398
 C2461 C 0.40384 0.57517 0.82258
 C2462 C 0.42454 0.57370 0.82597
 C2463 C 0.43763 0.57876 0.81042
 C2464 C 0.43013 0.58481 0.79177
 H2465 H 0.41833 0.62101 0.69112
 H2466 H 0.43210 0.60927 0.72315
 H2467 H 0.37267 0.59695 0.74384
 H2468 H 0.35884 0.60877 0.71201
 H2469 H 0.38041 0.58214 0.80163
 H2470 H 0.39337 0.57170 0.83436
 H2471 H 0.45363 0.57763 0.81255
 H2472 H 0.44050 0.58843 0.77997
 C2473 C 1.14197 0.89049 0.72118
 C2474 C 1.13507 0.89882 0.73906
 C2475 C 1.11475 0.89858 0.74377
 C2476 C 1.10125 0.89003 0.73024
 C2477 C 1.10813 0.88162 0.71240
 C2478 C 1.12858 0.88165 0.70771
 N2479 N 1.10828 0.90669 0.76251
 N2480 N 1.08995 0.90747 0.76744
 C2481 C 1.08351 0.91516 0.78637
 C2482 C 1.06306 0.91640 0.79038
 C2483 C 1.05627 0.92340 0.80887
 C2484 C 1.06990 0.92923 0.82375
 C2485 C 1.09046 0.92804 0.81962
 C2486 C 1.09722 0.92109 0.80110
 H2487 H 1.15782 0.89054 0.71813
 H2488 H 1.14563 0.90530 0.74940
 H2489 H 1.08545 0.88969 0.73352
 H2490 H 1.09744 0.87515 0.70221
 H2491 H 1.05235 0.91189 0.77914
 H2492 H 1.04035 0.92439 0.81146
 H2493 H 1.10136 0.93211 0.83086
 H2494 H 1.11313 0.92016 0.79840
 C2495 C 1.09784 0.37537 0.20866
 C2496 C 1.08915 0.38268 0.22621
 C2497 C 1.10100 0.39077 0.24135
 C2498 C 1.12177 0.39179 0.23857
 C2499 C 1.13047 0.38461 0.22094
 C2500 C 1.11862 0.37617 0.20585
 N2501 N 1.09163 0.39771 0.25935
 N2502 N 1.10169 0.40402 0.27418
 C2503 C 1.09253 0.41103 0.29225
 C2504 C 1.10479 0.41714 0.30800
 C2505 C 1.09649 0.42433 0.32576
 C2506 C 1.07565 0.42567 0.32809
 C2507 C 1.06332 0.41929 0.31233
 C2508 C 1.07167 0.41204 0.29453
 H2509 H 1.08829 0.36921 0.19721
 H2510 H 1.07313 0.38189 0.22811
 H2511 H 1.13127 0.39801 0.25003
 H2512 H 1.14652 0.38525 0.21932
 H2513 H 1.12087 0.41632 0.30649
 H2514 H 1.10642 0.42875 0.33774
 H2515 H 1.04723 0.42027 0.31360
 H2516 H 1.06187 0.40741 0.28255
 C2517 C 0.61386 0.85688 0.22264
 C2518 C 0.60611 0.86437 0.24052
 C2519 C 0.61067 0.88345 0.24683
 C2520 C 0.62323 0.89508 0.23505
 C2521 C 0.63126 0.88757 0.21725
 C2522 C 0.62675 0.86826 0.21065
 N2523 N 0.60262 0.89044 0.26541
 N2524 N 0.60407 0.90833 0.27106
 C2525 C 0.59627 0.91492 0.28990
 C2526 C 0.59545 0.93517 0.29403
 C2527 C 0.58786 0.94202 0.31228
 C2528 C 0.58115 0.92864 0.32687
 C2529 C 0.58222 0.90827 0.32270
 C2530 C 0.58959 0.90148 0.30437
 H2531 H 0.61011 0.84189 0.21876
 H2532 H 0.59652 0.85521 0.24956
 H2533 H 0.62696 0.90992 0.23965
 H2534 H 0.64064 0.89721 0.20861
 H2535 H 0.60054 0.94568 0.28299
 H2536 H 0.58701 0.95780 0.31485
 H2537 H 0.57763 0.89752 0.33372
 H2538 H 0.59027 0.88572 0.30163
 C2539 C 0.64150 0.38705 0.72193
 C2540 C 0.63423 0.39571 0.73946
 C2541 C 0.61504 0.39166 0.74621
 C2542 C 0.60312 0.37852 0.73532
 C2543 C 0.61045 0.36954 0.71789
 C2544 C 0.62978 0.37373 0.71074
 N2545 N 0.60824 0.40086 0.76430
 N2546 N 0.59014 0.40026 0.76998
 C2547 C 0.58369 0.40922 0.78834
 C2548 C 0.56327 0.41042 0.79247
 C2549 C 0.55652 0.41868 0.81043
 C2550 C 0.57015 0.42569 0.82479
 C2551 C 0.59069 0.42459 0.82051
 C2552 C 0.59740 0.41651 0.80243
 H2553 H 0.65660 0.39051 0.71769
 H2554 H 0.64363 0.40568 0.74784
 H2555 H 0.58820 0.37511 0.74033
 H2556 H 0.60062 0.35975 0.70987
 H2557 H 0.55255 0.40493 0.78170
 H2558 H 0.54060 0.41960 0.81305
 H2559 H 0.60162 0.42952 0.83133
 H2560 H 0.61329 0.41564 0.79965
 C2561 C 1.28945 1.09694 1.12692
 C2562 C 1.27160 1.08833 1.12078
 C2563 C 1.25806 1.09879 1.10877
 C2564 C 1.26281 1.11797 1.10248
 C2565 C 1.28084 1.12656 1.10831
 C2566 C 1.29445 1.11631 1.12091
 N2567 N 1.23968 1.08960 1.10319
 N2568 N 1.22543 1.09925 1.09498
 C2569 C 1.20708 1.09020 1.08913
 C2570 C 1.19141 1.10228 1.08233
 C2571 C 1.17346 1.09405 1.07599
 C2572 C 1.17088 1.07343 1.07604
 C2573 C 1.18654 1.06130 1.08323
 C2574 C 1.20449 1.06961 1.08975
 H2575 H 1.29943 1.08802 1.13600
 H2576 H 1.26821 1.07345 1.12557
 H2577 H 1.25259 1.12634 1.09306
 H2578 H 1.28363 1.14147 1.10338
 H2579 H 1.19315 1.11817 1.08192
 H2580 H 1.16158 1.10389 1.07103
 H2581 H 1.18511 1.04538 1.08333
 H2582 H 1.21643 1.05995 1.09494
 C2583 C 1.28547 0.63745 0.60317
 C2584 C 1.26706 0.63120 0.59573
 C2585 C 1.25985 0.61252 0.60049
 C2586 C 1.27120 0.60010 0.61307
 C2587 C 1.28949 0.60638 0.62079
 C2588 C 1.29710 0.62518 0.61594
 N2589 N 1.24092 0.60661 0.59256
 N2590 N 1.23468 0.58899 0.59411
 C2591 C 1.21560 0.58313 0.58652
 C2592 C 1.21086 0.56306 0.58642
 C2593 C 1.19229 0.55683 0.57938
 C2594 C 1.17794 0.57065 0.57252
 C2595 C 1.18280 0.59083 0.57264
 C2596 C 1.20147 0.59701 0.57949
 H2597 H 1.29013 0.65215 0.59922
 H2598 H 1.25838 0.64098 0.58615
 H2599 H 1.26591 0.58556 0.61700
 H2600 H 1.29776 0.59611 0.63012
 H2601 H 1.22163 0.55220 0.59174
 H2602 H 1.18924 0.54116 0.57919
 H2603 H 1.17203 0.60192 0.56782
 H2604 H 1.20473 0.61264 0.57957
 C2605 C 0.77495 1.14466 0.60720
 C2606 C 0.75678 1.13806 0.59955
 C2607 C 0.75143 1.11825 0.60153
 C2608 C 0.76454 1.10498 0.61124
 C2609 C 0.78265 1.11158 0.61902
 C2610 C 0.78803 1.13150 0.61713
 N2611 N 0.73251 1.11207 0.59392
 N2612 N 0.72723 1.09408 0.59428
 C2613 C 0.70815 1.08795 0.58705
 C2614 C 0.70389 1.06779 0.58656
 C2615 C 0.68531 1.06132 0.57984
 C2616 C 0.67059 1.07501 0.57359
 C2617 C 0.67494 1.09528 0.57411
 C2618 C 0.69356 1.10171 0.58073
 H2619 H 0.77858 1.16013 0.60574
 H2620 H 0.74676 1.14844 0.59215
 H2621 H 0.76074 1.08957 0.61296
 H2622 H 0.79254 1.10108 0.62638
 H2623 H 0.71503 1.05705 0.59137
 H2624 H 0.68253 1.04560 0.57935
 H2625 H 0.66383 1.10621 0.56971
 H2626 H 0.69647 1.11740 0.58110
 C2627 C 0.77069 0.64300 1.11527
 C2628 C 0.75302 0.63538 1.10737
 C2629 C 0.74879 0.61526 1.10916
 C2630 C 0.76248 0.60276 1.11914
 C2631 C 0.78012 0.61040 1.12719
 C2632 C 0.78446 0.63060 1.12529
 N2633 N 0.73052 0.60803 1.10082
 N2634 N 0.72616 0.58977 1.10070
 C2635 C 0.70774 0.58277 1.09242
 C2636 C 0.70448 0.56240 1.09144
 C2637 C 0.68668 0.55511 1.08344
 C2638 C 0.67171 0.56813 1.07633
 C2639 C 0.67503 0.58860 1.07745
 C2640 C 0.69286 0.59585 1.08535
 H2641 H 0.77343 0.65865 1.11379
 H2642 H 0.74257 0.64519 1.09980
 H2643 H 0.75956 0.58715 1.12073
 H2644 H 0.79050 0.60045 1.13464
 H2645 H 0.71582 0.55214 1.09680
 H2646 H 0.68475 0.53928 1.08260
 H2647 H 0.66371 0.59907 1.07248
 H2648 H 0.69494 0.61168 1.08605
 C2649 C 1.27641 0.88913 0.86026
 C2650 C 1.25830 0.89715 0.86681
 C2651 C 1.25103 0.89273 0.88581
 C2652 C 1.26191 0.87970 0.89819
 C2653 C 1.27995 0.87132 0.89156
 C2654 C 1.28772 0.87611 0.87253
 N2655 N 1.23255 0.90163 0.89199
 N2656 N 1.22637 0.90094 0.90997
 C2657 C 1.20772 0.90980 0.91577
 C2658 C 1.20291 0.91081 0.93611
 C2659 C 1.18473 0.91910 0.94224
 C2660 C 1.17084 0.92635 0.92807
 C2661 C 1.17582 0.92546 0.90763
 C2662 C 1.19411 0.91733 0.90153
 H2663 H 1.28109 0.89289 0.84530
 H2664 H 1.24992 0.90701 0.85704
 H2665 H 1.25648 0.87598 0.91296
 H2666 H 1.28799 0.86165 0.90172
 H2667 H 1.21331 0.90516 0.94723
 H2668 H 1.18157 0.91986 0.95812
 H2669 H 1.16539 0.93060 0.89630
 H2670 H 1.19745 0.91665 0.88570
 C2671 C 1.28157 0.39458 0.36278
 C2672 C 1.26351 0.40302 0.36908
 C2673 C 1.25601 0.39894 0.38810
 C2674 C 1.26676 0.38621 0.40086
 C2675 C 1.28467 0.37753 0.39455
 C2676 C 1.29247 0.38149 0.37533
 N2677 N 1.23729 0.40752 0.39395
 N2678 N 1.23090 0.40634 0.41183
 C2679 C 1.21191 0.41429 0.41767
 C2680 C 1.20700 0.41468 0.43800
 C2681 C 1.18837 0.42181 0.44419
 C2682 C 1.17418 0.42847 0.43006
 C2683 C 1.17923 0.42814 0.40962
 C2684 C 1.19796 0.42119 0.40347
 H2685 H 1.28646 0.39795 0.34778
 H2686 H 1.25528 0.41273 0.35905
 H2687 H 1.26125 0.38284 0.41568
 H2688 H 1.29247 0.36807 0.40508
 H2689 H 1.21766 0.40943 0.44907
 H2690 H 1.18512 0.42218 0.46006
 H2691 H 1.16856 0.43284 0.39831
 H2692 H 1.20138 0.42088 0.38764
 C2693 C 0.80182 0.88696 0.41022
 C2694 C 0.78377 0.89379 0.41825
 C2695 C 0.76867 0.90118 0.40571
 C2696 C 0.77196 0.90200 0.38494
 C2697 C 0.79005 0.89528 0.37689
 C2698 C 0.80513 0.88753 0.38943
 N2699 N 0.75013 0.90752 0.41439
 N2700 N 0.73542 0.91328 0.40367
 C2701 C 0.71678 0.91960 0.41212
 C2702 C 0.70124 0.92515 0.39920
 C2703 C 0.68285 0.93145 0.40682
 C2704 C 0.67967 0.93239 0.42762
 C2705 C 0.69529 0.92667 0.44061
 C2706 C 0.71370 0.92033 0.43294
 H2707 H 0.81324 0.88132 0.42027
 H2708 H 0.78147 0.89315 0.43428
 H2709 H 0.76051 0.90767 0.37492
 H2710 H 0.79205 0.89571 0.36082
 H2711 H 0.70339 0.92454 0.38314
 H2712 H 0.67104 0.93540 0.39640
 H2713 H 0.69336 0.92740 0.45669
 H2714 H 0.72552 0.91612 0.44324
 C2715 C 0.78341 0.39534 0.86446
 C2716 C 0.76476 0.40275 0.87028
 C2717 C 0.75696 0.39818 0.88905
 C2718 C 0.76797 0.38585 0.90200
 C2719 C 0.78653 0.37815 0.89615
 C2720 C 0.79472 0.38281 0.87726
 N2721 N 0.73777 0.40606 0.89445
 N2722 N 0.73088 0.40464 0.91213
 C2723 C 0.71153 0.41218 0.91743
 C2724 C 0.70594 0.41226 0.93758
 C2725 C 0.68705 0.41916 0.94326
 C2726 C 0.67323 0.42590 0.92879
 C2727 C 0.67895 0.42590 0.90852
 C2728 C 0.69795 0.41917 0.90289
 H2729 H 0.78849 0.39913 0.84964
 H2730 H 0.75633 0.41213 0.86009
 H2731 H 0.76221 0.38207 0.91662
 H2732 H 0.79453 0.36898 0.90680
 H2733 H 0.71629 0.40698 0.94893
 H2734 H 0.68331 0.41928 0.95902
 H2735 H 0.66861 0.43069 0.89696
 H2736 H 0.70189 0.41914 0.88718
 C2737 C 0.72797 0.85697 1.11539
 C2738 C 0.74528 0.86467 1.10704
 C2739 C 0.74849 0.88503 1.10706
 C2740 C 0.73422 0.89773 1.11578
 C2741 C 0.71689 0.89002 1.12427
 C2742 C 0.71354 0.86955 1.12403
 N2743 N 0.76638 0.89228 1.09819
 N2744 N 0.77008 0.91062 1.09674
 C2745 C 0.78820 0.91746 1.08792
 C2746 C 0.79139 0.93779 1.08645
 C2747 C 0.80913 0.94488 1.07832
 C2748 C 0.82401 0.93167 1.07153
 C2749 C 0.82065 0.91125 1.07285
 C2750 C 0.80292 0.90420 1.08095
 H2751 H 0.72598 0.84113 1.11528
 H2752 H 0.75623 0.85474 1.10047
 H2753 H 0.73642 0.91355 1.11600
 H2754 H 0.70597 0.90006 1.13068
 H2755 H 0.78014 0.94816 1.09171
 H2756 H 0.81120 0.96069 1.07731
 H2757 H 0.83194 0.90071 1.06805
 H2758 H 0.80083 0.88839 1.08196
 C2759 C 0.72934 0.35690 0.61488
 C2760 C 0.74710 0.36434 0.60715
 C2761 C 0.75116 0.38454 0.60834
 C2762 C 0.73717 0.39733 0.61735
 C2763 C 0.71945 0.38990 0.62517
 C2764 C 0.71535 0.36959 0.62407
 N2765 N 0.76963 0.39161 0.60052
 N2766 N 0.77397 0.40987 0.60044
 C2767 C 0.79257 0.41682 0.59281
 C2768 C 0.79593 0.43717 0.59207
 C2769 C 0.81394 0.44441 0.58473
 C2770 C 0.82898 0.43134 0.57803
 C2771 C 0.82558 0.41088 0.57893
 C2772 C 0.80754 0.40368 0.58620
 H2773 H 0.72673 0.34118 0.61401
 H2774 H 0.75780 0.35433 0.60029
 H2775 H 0.73995 0.41301 0.61843
 H2776 H 0.70886 0.40007 0.63192
 H2777 H 0.78449 0.44745 0.59712
 H2778 H 0.81601 0.46024 0.58403
 H2779 H 0.83698 0.40040 0.57425
 H2780 H 0.80537 0.38787 0.58675
 C2781 C 0.22675 0.85659 0.61036
 C2782 C 0.24458 0.86263 0.60157
 C2783 C 0.24958 0.88262 0.60118
 C2784 C 0.23653 0.89662 0.60981
 C2785 C 0.21876 0.89058 0.61873
 C2786 C 0.21366 0.87050 0.61907
 N2787 N 0.26807 0.88828 0.59226
 N2788 N 0.27293 0.90630 0.59038
 C2789 C 0.29158 0.91209 0.58192
 C2790 C 0.29555 0.93222 0.57996
 C2791 C 0.31392 0.93846 0.57260
 C2792 C 0.32873 0.92460 0.56713
 C2793 C 0.32456 0.90434 0.56873
 C2794 C 0.30613 0.89812 0.57606
 H2795 H 0.22337 0.84100 0.61062
 H2796 H 0.25455 0.85169 0.59507
 H2797 H 0.24008 0.91218 0.60973
 H2798 H 0.20888 0.90164 0.62512
 H2799 H 0.28443 0.94312 0.58434
 H2800 H 0.31657 0.95416 0.57126
 H2801 H 0.33573 0.89332 0.56484
 H2802 H 0.30341 0.88245 0.57748
 C2803 C 0.22077 0.36052 1.10923
 C2804 C 0.23869 0.36742 1.10146
 C2805 C 0.24544 0.38624 1.10627
 C2806 C 0.23418 0.39812 1.11938
 C2807 C 0.21633 0.39116 1.12748
 C2808 C 0.20912 0.37225 1.12238
 N2809 N 0.26380 0.39274 1.09772
 N2810 N 0.26971 0.41049 1.09903
 C2811 C 0.28827 0.41657 1.09051
 C2812 C 0.29283 0.43667 1.09015
 C2813 C 0.31089 0.44304 1.08210
 C2814 C 0.32488 0.42934 1.07445
 C2815 C 0.32019 0.40913 1.07478
 C2816 C 0.30204 0.40281 1.08266
 H2817 H 0.21652 0.34571 1.10518
 H2818 H 0.24735 0.35804 1.09152
 H2819 H 0.23919 0.41275 1.12338
 H2820 H 0.20801 0.40095 1.13723
 H2821 H 0.28232 0.44744 1.09607
 H2822 H 0.31384 0.45873 1.08180
 H2823 H 0.33073 0.39814 1.06935
 H2824 H 0.29892 0.38715 1.08287
 C2825 C 0.70396 1.09247 0.88087
 C2826 C 0.72225 1.08466 0.88737
 C2827 C 0.73532 1.09617 0.89857
 C2828 C 0.72963 1.11549 0.90388
 C2829 C 0.71122 1.12328 0.89766
 C2830 C 0.69816 1.11207 0.88565
 N2831 N 0.75440 1.08807 0.90403
 N2832 N 0.76804 1.09873 0.91150
 C2833 C 0.78720 1.09083 0.91695
 C2834 C 0.80205 1.10385 0.92308
 C2835 C 0.82095 1.09672 0.92848
 C2836 C 0.82526 1.07632 0.92806
 C2837 C 0.81030 1.06326 0.92182
 C2838 C 0.79143 1.07045 0.91626
 H2839 H 0.69437 1.08288 0.87234
 H2840 H 0.72639 1.06966 0.88338
 H2841 H 0.73949 1.12464 0.91267
 H2842 H 0.70782 1.13840 0.90169
 H2843 H 0.79899 1.11959 0.92355
 H2844 H 0.83223 1.10721 0.93284
 H2845 H 0.81307 1.04747 0.92157
 H2846 H 0.78013 1.06010 0.91162
 C2847 C 0.70834 0.59683 0.37759
 C2848 C 0.72628 0.58889 0.38497
 C2849 C 0.74053 0.60115 0.39372
 C2850 C 0.73661 0.62155 0.39510
 C2851 C 0.71864 0.62949 0.38784
 C2852 C 0.70430 0.61722 0.37898
 N2853 N 0.75878 0.59257 0.40109
 N2854 N 0.77272 0.60306 0.40827
 C2855 C 0.79099 0.59462 0.41573
 C2856 C 0.80608 0.60724 0.42217
 C2857 C 0.82417 0.59955 0.42939
 C2858 C 0.82743 0.57900 0.43043
 C2859 C 0.81217 0.56634 0.42405
 C2860 C 0.79411 0.57407 0.41673
 H2861 H 0.69750 0.58698 0.37107
 H2862 H 0.72910 0.57314 0.38386
 H2863 H 0.74740 0.63136 0.40179
 H2864 H 0.71608 0.64527 0.38890
 H2865 H 0.80387 0.62310 0.42142
 H2866 H 0.83572 0.60972 0.43386
 H2867 H 0.81410 0.55046 0.42490
 H2868 H 0.78261 0.56401 0.41194
 C2869 C 0.22127 1.13658 0.38792
 C2870 C 0.23954 1.12925 0.39492
 C2871 C 0.24575 1.11006 0.39033
 C2872 C 0.23359 1.09820 0.37826
 C2873 C 0.21535 1.10556 0.37096
 C2874 C 0.20871 1.12489 0.37581
 N2875 N 0.26448 1.10313 0.39813
 N2876 N 0.27032 1.08523 0.39674
 C2877 C 0.28923 1.07889 0.40468
 C2878 C 0.29396 1.05871 0.40517
 C2879 C 0.31222 1.05213 0.41311
 C2880 C 0.32616 1.06572 0.42054
 C2881 C 0.32139 1.08601 0.41982
 C2882 C 0.30310 1.09253 0.41206
 H2883 H 0.21745 1.15166 0.39172
 H2884 H 0.24890 1.13858 0.40408
 H2885 H 0.23816 1.08327 0.37448
 H2886 H 0.20634 1.09578 0.36202
 H2887 H 0.28339 1.04805 0.39957
 H2888 H 0.31531 1.03640 0.41364
 H2889 H 0.33193 1.09689 0.42501
 H2890 H 0.29987 1.10823 0.41170
 C2891 C 0.21140 0.63515 0.90059
 C2892 C 0.23009 0.62929 0.90798
 C2893 C 0.23791 0.61059 0.90360
 C2894 C 0.22687 0.59774 0.89150
 C2895 C 0.20827 0.60361 0.88385
 C2896 C 0.20007 0.62245 0.88829
 N2897 N 0.25716 0.60514 0.91140
 N2898 N 0.26408 0.58760 0.91006
 C2899 C 0.28348 0.58218 0.91745
 C2900 C 0.28916 0.56224 0.91748
 C2901 C 0.30814 0.55644 0.92413
 C2902 C 0.32195 0.57059 0.93067
 C2903 C 0.31612 0.59064 0.93075
 C2904 C 0.29704 0.59639 0.92426
 H2905 H 0.20629 0.64991 0.90421
 H2906 H 0.23854 0.63940 0.91718
 H2907 H 0.23264 0.58316 0.88788
 H2908 H 0.20026 0.59303 0.87488
 H2909 H 0.27882 0.55114 0.91234
 H2910 H 0.31198 0.54086 0.92420
 H2911 H 0.32646 0.60194 0.93540
 H2912 H 0.29303 0.61193 0.92426
 C2913 C 1.12288 1.28707 1.09729
 C2914 C 1.11576 1.26962 1.08883
 C2915 C 1.10659 1.25544 1.10081
 C2916 C 1.10423 1.25907 1.12141
 C2917 C 1.11120 1.27660 1.12986
 C2918 C 1.12077 1.29069 1.11792
 N2919 N 1.10001 1.23746 1.09178
 N2920 N 1.09328 1.22328 1.10217
 C2921 C 1.08661 1.20522 1.09337
 C2922 C 1.08050 1.18999 1.10599
 C2923 C 1.07373 1.17222 1.09800
 C2924 C 1.07282 1.16941 1.07714
 C2925 C 1.07914 1.18470 1.06446
 C2926 C 1.08600 1.20247 1.07250
 H2927 H 1.12997 1.29778 1.08770
 H2928 H 1.11758 1.26704 1.07293
 H2929 H 1.09714 1.24835 1.13099
 H2930 H 1.10954 1.27891 1.14581
 H2931 H 1.08102 1.19190 1.12208
 H2932 H 1.06934 1.16061 1.10818
 H2933 H 1.07844 1.18305 1.04834
 H2934 H 1.09063 1.21408 1.06244
 C2935 C 1.10126 0.78840 0.62745
 C2936 C 1.09242 0.77101 0.62066
 C2937 C 1.10411 0.75594 0.61217
 C2938 C 1.12483 0.75848 0.61048
 C2939 C 1.13365 0.77587 0.61716
 C2940 C 1.12197 0.79104 0.62572
 N2941 N 1.09468 0.73829 0.60530
 N2942 N 1.10477 0.72387 0.59825
 C2943 C 1.09575 0.70614 0.59112
 C2944 C 1.10812 0.69078 0.58435
 C2945 C 1.09993 0.67332 0.57708
 C2946 C 1.07911 0.67094 0.57636
 C2947 C 1.06669 0.68637 0.58327
 C2948 C 1.07493 0.70385 0.59060
 H2949 H 1.09186 0.79990 0.63378
 H2950 H 1.07644 0.76926 0.62200
 H2951 H 1.13421 0.74705 0.60399
 H2952 H 1.14965 0.77733 0.61588
 H2953 H 1.12418 0.69236 0.58475
 H2954 H 1.10992 0.66158 0.57222
 H2955 H 1.05060 0.68505 0.58273
 H2956 H 1.06506 0.71557 0.59572
 C2957 C 0.64114 1.27055 0.61784
 C2958 C 0.63358 1.25302 0.61003
 C2959 C 0.61311 1.24930 0.61058
 C2960 C 0.60017 1.26332 0.61934
 C2961 C 0.60774 1.28087 0.62730
 C2962 C 0.62831 1.28474 0.62649
 N2963 N 0.60601 1.23124 0.60210
 N2964 N 0.58756 1.22710 0.60092
 C2965 C 0.58091 1.20889 0.59233
 C2966 C 0.56041 1.20547 0.59064
 C2967 C 0.55349 1.18783 0.58234
 C2968 C 0.56702 1.17323 0.57561
 C2969 C 0.58761 1.17674 0.57734
 C2970 C 0.59449 1.19439 0.58559
 H2971 H 0.65707 1.27292 0.61728
 H2972 H 0.64372 1.24229 0.60342
 H2973 H 0.58427 1.26075 0.61997
 H2974 H 0.59750 1.29157 0.63374
 H2975 H 0.54977 1.21653 0.59572
 H2976 H 0.53755 1.18569 0.58102
 H2977 H 0.59843 1.16569 0.57264
 H2978 H 0.61043 1.19661 0.58680
 C2979 C 0.64447 0.76748 1.11656
 C2980 C 0.63756 0.74987 1.10832
 C2981 C 0.61721 0.74553 1.10866
 C2982 C 0.60377 0.75893 1.11762
 C2983 C 0.61070 0.77651 1.12601
 C2984 C 0.63111 0.78102 1.12545
 N2985 N 0.61067 0.72742 1.09988
 N2986 N 0.59229 0.72314 1.09835
 C2987 C 0.58586 0.70491 1.08974
 C2988 C 0.56540 0.70149 1.08781
 C2989 C 0.55862 0.68368 1.07988
 C2990 C 0.57225 0.66890 1.07381
 C2991 C 0.59282 0.67248 1.07558
 C2992 C 0.59957 0.69033 1.08345
 H2993 H 0.66030 0.77043 1.11615
 H2994 H 0.64806 0.73960 1.10156
 H2995 H 0.58796 0.75586 1.11811
 H2996 H 0.60006 0.78674 1.13260
 H2997 H 0.55469 0.71264 1.09253
 H2998 H 0.54269 0.68147 1.07847
 H2999 H 0.60369 0.66130 1.07131
 H3000 H 0.61548 0.69261 1.08485
 C3001 C 0.90611 1.29687 0.88789
 C3002 C 0.91426 1.27894 0.89453
 C3003 C 0.90184 1.26378 0.90097
 C3004 C 0.88106 1.26698 0.90134
 C3005 C 0.87288 1.28499 0.89483
 C3006 C 0.88532 1.29999 0.88770
 N3007 N 0.91067 1.24518 0.90651
 N3008 N 0.90015 1.23028 0.91092
 C3009 C 0.90886 1.21158 0.91628
 C3010 C 0.89622 1.19600 0.92102
 C3011 C 0.90411 1.17763 0.92662
 C3012 C 0.92489 1.17451 0.92761
 C3013 C 0.93760 1.19007 0.92247
 C3014 C 0.92966 1.20850 0.91688
 H3015 H 0.91605 1.30827 0.88272
 H3016 H 0.93029 1.27670 0.89429
 H3017 H 0.87114 1.25548 0.90634
 H3018 H 0.85682 1.28694 0.89469
 H3019 H 0.88018 1.19816 0.92046
 H3020 H 0.89394 1.16583 0.93017
 H3021 H 0.95365 1.18812 0.92323
 H3022 H 0.93974 1.22033 0.91321
 C3023 C 0.91384 0.79742 0.38687
 C3024 C 0.92162 0.77925 0.39333
 C3025 C 0.90915 0.76524 0.40202
 C3026 C 0.88881 0.76980 0.40469
 C3027 C 0.88104 0.78803 0.39840
 C3028 C 0.89343 0.80192 0.38918
 N3029 N 0.91739 0.74641 0.40762
 N3030 N 0.90640 0.73242 0.41363
 C3031 C 0.91434 0.71347 0.41922
 C3032 C 0.90109 0.69866 0.42473
 C3033 C 0.90823 0.68004 0.43043
 C3034 C 0.92886 0.67592 0.43084
 C3035 C 0.94217 0.69079 0.42510
 C3036 C 0.93497 0.70943 0.41932
 H3037 H 0.92375 0.80795 0.38002
 H3038 H 0.93733 0.77595 0.39128
 H3039 H 0.87887 0.75922 0.41143
 H3040 H 0.86524 0.79102 0.40018
 H3041 H 0.88516 0.70158 0.42458
 H3042 H 0.89758 0.66880 0.43442
 H3043 H 0.95813 0.68811 0.42545
 H3044 H 0.94551 0.72069 0.41512
 C3045 C 0.36025 1.27881 0.39270
 C3046 C 0.36606 1.26047 0.40051
 C3047 C 0.38612 1.25454 0.40026
 C3048 C 0.40045 1.26726 0.39219
 C3049 C 0.39463 1.28558 0.38426
 C3050 C 0.37446 1.29152 0.38437
 N3051 N 0.39145 1.23539 0.40782
 N3052 N 0.40951 1.22943 0.40890
 C3053 C 0.41481 1.21008 0.41593
 C3054 C 0.43501 1.20492 0.41764
 C3055 C 0.44072 1.18596 0.42381
 C3056 C 0.42626 1.17172 0.42825
 C3057 C 0.40595 1.17702 0.42673
 C3058 C 0.40025 1.19604 0.42064
 H3059 H 0.34457 1.28284 0.39274
 H3060 H 0.35489 1.25075 0.40660
 H3061 H 0.41607 1.26299 0.39182
 H3062 H 0.40591 1.29514 0.37812
 H3063 H 0.44635 1.21563 0.41410
 H3064 H 0.45648 1.18244 0.42515
 H3065 H 0.39445 1.16634 0.42981
 H3066 H 0.38452 1.19966 0.41934
 C3067 C 0.39950 0.78983 0.87796
 C3068 C 0.40810 0.77231 0.88522
 C3069 C 0.39613 0.75732 0.89286
 C3070 C 0.37531 0.76020 0.89350
 C3071 C 0.36668 0.77780 0.88634
 C3072 C 0.37867 0.79274 0.87831
 N3073 N 0.40546 0.73932 0.89965
 N3074 N 0.39539 0.72466 0.90569
 C3075 C 0.40459 0.70660 0.91246
 C3076 C 0.39238 0.69109 0.91845
 C3077 C 0.40075 0.67332 0.92531
 C3078 C 0.42160 0.67072 0.92639
 C3079 C 0.43387 0.68628 0.92016
 C3080 C 0.42545 0.70408 0.91326
 H3081 H 0.40916 0.80116 0.87214
 H3082 H 0.42416 0.77033 0.88474
 H3083 H 0.36572 0.74884 0.89937
 H3084 H 0.35061 0.77951 0.88664
 H3085 H 0.37630 0.69279 0.91780
 H3086 H 0.39086 0.66153 0.92964
 H3087 H 0.44996 0.68481 0.92096
 H3088 H 0.43522 0.71587 0.90871
 C3089 C 1.08703 0.70605 0.88485
 C3090 C 1.07882 0.72430 0.89051
 C3091 C 1.09116 0.73951 0.89713
 C3092 C 1.11189 0.73621 0.89824
 C3093 C 1.12009 0.71797 0.89268
 C3094 C 1.10777 0.70271 0.88583
 N3095 N 1.08237 0.75813 0.90259
 N3096 N 1.09306 0.77269 0.90775
 C3097 C 1.08471 0.79141 0.91344
 C3098 C 1.09768 0.80657 0.91873
 C3099 C 1.09018 0.82491 0.92484
 C3100 C 1.06947 0.82839 0.92581
 C3101 C 1.05643 0.81323 0.92019
 C3102 C 1.06398 0.79484 0.91407
 H3103 H 1.07715 0.69451 0.87985
 H3104 H 1.06282 0.72663 0.88967
 H3105 H 1.12176 0.74773 0.90330
 H3106 H 1.13613 0.71596 0.89334
 H3107 H 1.11367 0.80412 0.91820
 H3108 H 1.10059 0.83641 0.92873
 H3109 H 1.04041 0.81546 0.92093
 H3110 H 1.05367 0.78330 0.91003
 C3111 C 1.13712 0.22496 0.38710
 C3112 C 1.13072 0.24302 0.39501
 C3113 C 1.11039 0.24774 0.39594
 C3114 C 1.09637 0.23419 0.38866
 C3115 C 1.10276 0.21610 0.38064
 C3116 C 1.12321 0.21125 0.37990
 N3117 N 1.10449 0.26638 0.40426
 N3118 N 1.08629 0.27153 0.40632
 C3119 C 1.08072 0.29034 0.41453
 C3120 C 1.06047 0.29515 0.41647
 C3121 C 1.05457 0.31359 0.42396
 C3122 C 1.06891 0.32755 0.42964
 C3123 C 1.08926 0.32256 0.42791
 C3124 C 1.09513 0.30413 0.42042
 H3125 H 1.15297 0.22182 0.38642
 H3126 H 1.14165 0.25340 0.40046
 H3127 H 1.08055 0.23755 0.38920
 H3128 H 1.09173 0.20577 0.37534
 H3129 H 1.04923 0.28463 0.41205
 H3130 H 1.03879 0.31692 0.42536
 H3131 H 1.10065 0.33309 0.43190
 H3132 H 1.11090 0.30077 0.41903
 C3133 C 0.59640 0.70832 0.38176
 C3134 C 0.58909 0.72630 0.38917
 C3135 C 0.60215 0.74028 0.39708
 C3136 C 0.62272 0.73597 0.39774
 C3137 C 0.63004 0.71795 0.39044
 C3138 C 0.61697 0.70396 0.38226
 N3139 N 0.59421 0.75877 0.40406
 N3140 N 0.60538 0.77252 0.41039
 C3141 C 0.59747 0.79108 0.41721
 C3142 C 0.61070 0.80590 0.42289
 C3143 C 0.60351 0.82432 0.42924
 C3144 C 0.58285 0.82820 0.43007
 C3145 C 0.56958 0.81319 0.42452
 C3146 C 0.57681 0.79480 0.41811
 H3147 H 0.58595 0.69775 0.37578
 H3148 H 0.57320 0.72943 0.38863
 H3149 H 0.63313 0.74655 0.40377
 H3150 H 0.64597 0.71514 0.39080
 H3151 H 0.62666 0.80322 0.42220
 H3152 H 0.61412 0.83564 0.43313
 H3153 H 0.55360 0.81561 0.42528
 H3154 H 0.56627 0.78354 0.41388
 C3155 C 0.63241 0.21720 0.88914
 C3156 C 0.62653 0.23584 0.89607
 C3157 C 0.60650 0.24180 0.89520
 C3158 C 0.59231 0.22894 0.88699
 C3159 C 0.59820 0.21031 0.87989
 C3160 C 0.61830 0.20419 0.88105
 N3161 N 0.60104 0.26089 0.90280
 N3162 N 0.58299 0.26685 0.90381
 C3163 C 0.57773 0.28602 0.91140
 C3164 C 0.55755 0.29131 0.91292
 C3165 C 0.55192 0.30995 0.92009
 C3166 C 0.56645 0.32372 0.92581
 C3167 C 0.58673 0.31831 0.92436
 C3168 C 0.59234 0.29963 0.91724
 H3169 H 0.64803 0.21304 0.88994
 H3170 H 0.63761 0.24565 0.90226
 H3171 H 0.57672 0.23325 0.88612
 H3172 H 0.58701 0.20054 0.87388
 H3173 H 0.54616 0.28093 0.90855
 H3174 H 0.53618 0.31355 0.92130
 H3175 H 0.59828 0.32865 0.92836
 H3176 H 0.60805 0.29591 0.91614
 C3177 C 0.89500 0.71605 1.12422
 C3178 C 0.90388 0.73305 1.11664
 C3179 C 0.89223 0.74791 1.10770
 C3180 C 0.87148 0.74538 1.10601
 C3181 C 0.86258 0.72828 1.11345
 C3182 C 0.87423 0.71354 1.12286
 N3183 N 0.90180 0.76545 1.10076
 N3184 N 0.89196 0.78019 1.09392
 C3185 C 0.90147 0.79779 1.08706
 C3186 C 0.88954 0.81360 1.08046
 C3187 C 0.89822 0.83097 1.07357
 C3188 C 0.91912 0.83283 1.07304
 C3189 C 0.93110 0.81697 1.07985
 C3190 C 0.92236 0.79959 1.08680
 H3191 H 0.90439 0.70482 1.13111
 H3192 H 0.91988 0.73476 1.11794
 H3193 H 0.86214 0.75665 1.09910
 H3194 H 0.84654 0.72682 1.11234
 H3195 H 0.87343 0.81245 1.08070
 H3196 H 0.88856 0.84302 1.06879
 H3197 H 0.94722 0.81788 1.07947
 H3198 H 0.93191 0.78755 1.09182
 C3199 C 0.87910 0.21437 0.59674
 C3200 C 0.88675 0.23173 0.58863
 C3201 C 0.89500 0.24610 0.60110
 C3202 C 0.89600 0.24270 0.62186
 C3203 C 0.88849 0.22525 0.62998
 C3204 C 0.87973 0.21102 0.61752
 N3205 N 0.90185 0.26412 0.59236
 N3206 N 0.90800 0.27842 0.60299
 C3207 C 0.91471 0.29654 0.59437
 C3208 C 0.92056 0.31179 0.60713
 C3209 C 0.92718 0.32968 0.59931
 C3210 C 0.92815 0.33261 0.57847
 C3211 C 0.92214 0.31730 0.56565
 C3212 C 0.91546 0.29939 0.57352
 H3213 H 0.87268 0.20356 0.58676
 H3214 H 0.88597 0.23414 0.57261
 H3215 H 0.90236 0.25358 0.63182
 H3216 H 0.88901 0.22315 0.64605
 H3217 H 0.91993 0.30981 0.62321
 H3218 H 0.93137 0.34129 0.60959
 H3219 H 0.92290 0.31904 0.54955
 H3220 H 0.91102 0.28780 0.56334
 C3221 C 0.40999 0.70661 0.61612
 C3222 C 0.41859 0.72427 0.60986
 C3223 C 0.40658 0.73990 0.60295
 C3224 C 0.38577 0.73756 0.60206
 C3225 C 0.37716 0.71987 0.60821
 C3226 C 0.38916 0.70425 0.61547
 N3227 N 0.41582 0.75797 0.59706
 N3228 N 0.40555 0.77302 0.59172
 C3229 C 0.41444 0.79118 0.58565
 C3230 C 0.40193 0.80688 0.57998
 C3231 C 0.40995 0.82466 0.57341
 C3232 C 0.43075 0.82704 0.57234
 C3233 C 0.44335 0.81138 0.57844
 C3234 C 0.43526 0.79354 0.58501
 H3235 H 0.41963 0.69475 0.62139
 H3236 H 0.43464 0.72584 0.61052
 H3237 H 0.37615 0.74943 0.59674
 H3238 H 0.36108 0.71859 0.60775
 H3239 H 0.38587 0.80527 0.58053
 H3240 H 0.39987 0.83657 0.56916
 H3241 H 0.45941 0.81278 0.57766
 H3242 H 0.44524 0.78158 0.58937
 C3243 C 0.40073 0.20590 1.11320
 C3244 C 0.40886 0.22348 1.10620
 C3245 C 0.39643 0.23892 1.09964
 C3246 C 0.37562 0.23633 1.09955
 C3247 C 0.36744 0.21861 1.10641
 C3248 C 0.37993 0.20335 1.11365
 N3249 N 0.40538 0.25710 1.09363
 N3250 N 0.39511 0.27237 1.08896
 C3251 C 0.40421 0.29056 1.08318
 C3252 C 0.39196 0.30674 1.07835
 C3253 C 0.40028 0.32464 1.07246
 C3254 C 0.42113 0.32669 1.07123
 C3255 C 0.43345 0.31050 1.07639
 C3256 C 0.42508 0.29256 1.08229
 H3257 H 0.41072 0.19428 1.11840
 H3258 H 0.42491 0.22523 1.10623
 H3259 H 0.36570 0.24805 1.09446
 H3260 H 0.35138 0.21707 1.10671
 H3261 H 0.37588 0.30544 1.07911
 H3262 H 0.39039 0.33693 1.06891
 H3263 H 0.44953 0.31158 1.07545
 H3264 H 0.43489 0.28027 1.08600
 C3265 C 1.13842 1.10965 0.71853
 C3266 C 1.13206 1.10170 0.73668
 C3267 C 1.11301 1.10597 0.74399
 C3268 C 1.10040 1.11877 0.73309
 C3269 C 1.10681 1.12705 0.71502
 C3270 C 1.12590 1.12246 0.70721
 N3271 N 1.10696 1.09720 0.76251
 N3272 N 1.08901 1.09803 0.76866
 C3273 C 1.08309 1.08944 0.78732
 C3274 C 1.06279 1.08894 0.79205
 C3275 C 1.05649 1.08106 0.81028
 C3276 C 1.07045 1.07371 0.82431
 C3277 C 1.09086 1.07403 0.81941
 C3278 C 1.09713 1.08177 0.80106
 H3279 H 1.15341 1.10600 0.71379
 H3280 H 1.14201 1.09201 0.74506
 H3281 H 1.08559 1.12237 0.73851
 H3282 H 1.09642 1.13651 0.70701
 H3283 H 1.05182 1.09470 0.78155
 H3284 H 1.04065 1.08071 0.81337
 H3285 H 1.10203 1.06876 0.82995
 H3286 H 1.11293 1.08206 0.79778
 C3287 C 1.13614 0.60677 0.21824
 C3288 C 1.12986 0.59828 0.23617
 C3289 C 1.11069 0.60198 0.24345
 C3290 C 1.09773 0.61446 0.23260
 C3291 C 1.10401 0.62323 0.21476
 C3292 C 1.12338 0.61955 0.20716
 N3293 N 1.10496 0.59325 0.26207
 N3294 N 1.08710 0.59404 0.26845
 C3295 C 1.08156 0.58577 0.28736
 C3296 C 1.06136 0.58523 0.29246
 C3297 C 1.05548 0.57790 0.31107
 C3298 C 1.06979 0.57118 0.32506
 C3299 C 1.09009 0.57153 0.31977
 C3300 C 1.09593 0.57870 0.30107
 H3301 H 1.15127 0.60366 0.21360
 H3302 H 1.14005 0.58878 0.24449
 H3303 H 1.08279 0.61757 0.23798
 H3304 H 1.09339 0.63251 0.20686
 H3305 H 1.05014 0.59057 0.28200
 H3306 H 1.03971 0.57752 0.31450
 H3307 H 1.10152 0.56675 0.33027
 H3308 H 1.11167 0.57908 0.29750
 C3309 C 0.62809 1.09634 0.21030
 C3310 C 0.62259 1.08888 0.22893
 C3311 C 0.60427 1.09408 0.23738
 C3312 C 0.59135 1.10698 0.22699
 C3313 C 0.59692 1.11477 0.20845
 C3314 C 0.61545 1.10961 0.19971
 N3315 N 0.59945 1.08648 0.25675
 N3316 N 0.58207 1.08814 0.26419
 C3317 C 0.57764 1.08104 0.28386
 C3318 C 0.55775 1.08037 0.29000
 C3319 C 0.55298 1.07404 0.30929
 C3320 C 0.56812 1.06856 0.32295
 C3321 C 0.58812 1.06910 0.31665
 C3322 C 0.59284 1.07520 0.29725
 H3323 H 0.64265 1.09212 0.20478
 H3324 H 0.63272 1.07904 0.23690
 H3325 H 0.57707 1.11123 0.23330
 H3326 H 0.58642 1.12450 0.20092
 H3327 H 0.54591 1.08477 0.27979
 H3328 H 0.53740 1.07342 0.31349
 H3329 H 0.60017 1.06529 0.32684
 H3330 H 0.60837 1.07574 0.29287
 C3331 C 0.59393 0.62699 0.71023
 C3332 C 0.58523 0.62015 0.72792
 C3333 C 0.59695 0.61086 0.74264
 C3334 C 0.61757 0.60849 0.73949
 C3335 C 0.62624 0.61520 0.72181
 C3336 C 0.61453 0.62447 0.70695
 N3337 N 0.58767 0.60380 0.76053
 N3338 N 0.59791 0.59611 0.77468
 C3339 C 0.58913 0.58866 0.79263
 C3340 C 0.60173 0.58148 0.80777
 C3341 C 0.59381 0.57391 0.82545
 C3342 C 0.57303 0.57326 0.82826
 C3343 C 0.56037 0.58054 0.81301
 C3344 C 0.56835 0.58820 0.79534
 H3345 H 0.58453 0.63392 0.69898
 H3346 H 0.56932 0.62204 0.73014
 H3347 H 0.62699 0.60140 0.75064
 H3348 H 0.64218 0.61333 0.71987
 H3349 H 0.61777 0.58183 0.80587
 H3350 H 0.60397 0.56878 0.83703
 H3351 H 0.54431 0.58006 0.81464
 H3352 H 0.55831 0.59361 0.78378
 C3353 C 0.89609 0.86936 0.71196
 C3354 C 0.90265 0.87515 0.73092
 C3355 C 0.90197 0.89504 0.73654
 C3356 C 0.89464 0.90922 0.72290
 C3357 C 0.88798 0.90344 0.70394
 C3358 C 0.88862 0.88344 0.69827
 N3359 N 0.90858 0.90037 0.75620
 N3360 N 0.90908 0.91824 0.76208
 C3361 C 0.91548 0.92343 0.78185
 C3362 C 0.91665 0.94340 0.78703
 C3363 C 0.92271 0.94896 0.80625
 C3364 C 0.92764 0.93454 0.82069
 C3365 C 0.92642 0.91447 0.81543
 C3366 C 0.92043 0.90895 0.79619
 H3367 H 0.89650 0.85382 0.70816
 H3368 H 0.90819 0.86409 0.74134
 H3369 H 0.89398 0.92471 0.72690
 H3370 H 0.88250 0.91462 0.69365
 H3371 H 0.91290 0.95469 0.77610
 H3372 H 0.92374 0.96453 0.80975
 H3373 H 0.92982 0.90301 0.82629
 H3374 H 0.91954 0.89339 0.79258
 C3375 C 0.89726 0.36809 0.21885
 C3376 C 0.90487 0.37494 0.23699
 C3377 C 0.89932 0.39350 0.24427
 C3378 C 0.88589 0.40528 0.23321
 C3379 C 0.87796 0.39837 0.21513
 C3380 C 0.88351 0.37959 0.20755
 N3381 N 0.90724 0.39974 0.26313
 N3382 N 0.90511 0.41727 0.26970
 C3383 C 0.91280 0.42292 0.28887
 C3384 C 0.91292 0.44292 0.29410
 C3385 C 0.92020 0.44883 0.31278
 C3386 C 0.92724 0.43473 0.32672
 C3387 C 0.92704 0.41463 0.32138
 C3388 C 0.91999 0.40878 0.30261
 H3389 H 0.90179 0.35342 0.21426
 H3390 H 0.91512 0.36568 0.24550
 H3391 H 0.88137 0.41973 0.23861
 H3392 H 0.86783 0.40803 0.20704
 H3393 H 0.90747 0.45396 0.28362
 H3394 H 0.92042 0.46444 0.31625
 H3395 H 0.93196 0.40335 0.33185
 H3396 H 0.91988 0.39320 0.29898
 C3397 C 0.37470 0.90007 0.21034
 C3398 C 0.38274 0.90878 0.22749
 C3399 C 0.39601 0.89822 0.23973
 C3400 C 0.40158 0.87889 0.23442
 C3401 C 0.39379 0.87019 0.21718
 C3402 C 0.37998 0.88051 0.20487
 N3403 N 0.40339 0.90729 0.25760
 N3404 N 0.41318 0.89746 0.27066
 C3405 C 0.42061 0.90623 0.28864
 C3406 C 0.42860 0.89393 0.30352
 C3407 C 0.43554 0.90189 0.32148
 C3408 C 0.43487 0.92242 0.32476
 C3409 C 0.42706 0.93478 0.30962
 C3410 C 0.41990 0.92676 0.29173
 H3411 H 0.36465 0.90897 0.20132
 H3412 H 0.37845 0.92377 0.23137
 H3413 H 0.41188 0.87043 0.24366
 H3414 H 0.39824 0.85512 0.21409
 H3415 H 0.42914 0.87808 0.30131
 H3416 H 0.44109 0.89190 0.33294
 H3417 H 0.42660 0.95067 0.31154
 H3418 H 0.41390 0.93657 0.28034
 C3419 C 0.39357 0.36501 0.71595
 C3420 C 0.40024 0.37129 0.73471
 C3421 C 0.39867 0.39117 0.74018
 C3422 C 0.39018 0.40484 0.72667
 C3423 C 0.38336 0.39855 0.70791
 C3424 C 0.38507 0.37857 0.70232
 N3425 N 0.40573 0.39699 0.75955
 N3426 N 0.40591 0.41493 0.76523
 C3427 C 0.41289 0.42044 0.78474
 C3428 C 0.41385 0.44048 0.78970
 C3429 C 0.42052 0.44631 0.80864
 C3430 C 0.42627 0.43211 0.82302
 C3431 C 0.42527 0.41198 0.81796
 C3432 C 0.41868 0.40618 0.79900
 H3433 H 0.39480 0.34949 0.71223
 H3434 H 0.40667 0.36061 0.74504
 H3435 H 0.38878 0.42031 0.73059
 H3436 H 0.37702 0.40934 0.69766
 H3437 H 0.40948 0.45161 0.77883
 H3438 H 0.42136 0.46193 0.81197
 H3439 H 0.42927 0.40067 0.82878
 H3440 H 0.41797 0.39057 0.79557
 C3441 C 1.13834 0.89096 1.28019
 C3442 C 1.13162 0.89921 1.26216
 C3443 C 1.11236 0.89561 1.25518
 C3444 C 1.09976 0.88349 1.26640
 C3445 C 1.10648 0.87497 1.28432
 C3446 C 1.12594 0.87854 1.29163
 N3447 N 1.10611 0.90415 1.23652
 N3448 N 1.08812 0.90348 1.23041
 C3449 C 1.08204 0.91163 1.21152
 C3450 C 1.06170 0.91268 1.20684
 C3451 C 1.05529 0.92023 1.18839
 C3452 C 1.06921 0.92667 1.17412
 C3453 C 1.08966 0.92563 1.17892
 C3454 C 1.09603 0.91826 1.19747
 H3455 H 1.15351 0.89397 1.28462
 H3456 H 1.14153 0.90844 1.25356
 H3457 H 1.08475 0.88048 1.26128
 H3458 H 1.09609 0.86598 1.29252
 H3459 H 1.05078 0.90766 1.21756
 H3460 H 1.03942 0.92112 1.18535
 H3461 H 1.10080 0.93012 1.16819
 H3462 H 1.11187 0.91746 1.20068
 C3463 C 1.09596 0.37250 0.79311
 C3464 C 1.08781 0.37980 0.77522
 C3465 C 1.09886 0.39223 0.76291
 C3466 C 1.11811 0.39769 0.76888
 C3467 C 1.12622 0.39068 0.78686
 C3468 C 1.11540 0.37775 0.79929
 N3469 N 1.09033 0.39903 0.74441
 N3470 N 1.10077 0.40780 0.73132
 C3471 C 1.09255 0.41486 0.71280
 C3472 C 1.10553 0.42167 0.69805
 C3473 C 1.09811 0.42857 0.67974
 C3474 C 1.07743 0.42907 0.67594
 C3475 C 1.06440 0.42232 0.69089
 C3476 C 1.07189 0.41519 0.70913
 H3477 H 1.08670 0.36310 0.80215
 H3478 H 1.07287 0.37560 0.77085
 H3479 H 1.12695 0.40735 0.75962
 H3480 H 1.14126 0.39502 0.79045
 H3481 H 1.12149 0.42141 0.70070
 H3482 H 1.10862 0.43326 0.66847
 H3483 H 1.04840 0.42277 0.68861
 H3484 H 1.06155 0.41013 0.72040
 C3485 C 0.59920 0.87004 0.78956
 C3486 C 0.59040 0.87790 0.77221
 C3487 C 0.60204 0.88748 0.75790
 C3488 C 0.62267 0.88924 0.76119
 C3489 C 0.63146 0.88149 0.77854
 C3490 C 0.61984 0.87177 0.79292
 N3491 N 0.59265 0.89522 0.74018
 N3492 N 0.60268 0.90331 0.72633
 C3493 C 0.59364 0.91114 0.70850
 C3494 C 0.60594 0.91896 0.69368
 C3495 C 0.59774 0.92663 0.67601
 C3496 C 0.57696 0.92671 0.67288
 C3497 C 0.56461 0.91887 0.68784
 C3498 C 0.57286 0.91113 0.70550
 H3499 H 0.58983 0.86283 0.80044
 H3500 H 0.57448 0.87648 0.76989
 H3501 H 0.63202 0.89655 0.75035
 H3502 H 0.64743 0.88281 0.78053
 H3503 H 0.62198 0.91898 0.69578
 H3504 H 0.60771 0.93223 0.66467
 H3505 H 0.54854 0.91890 0.68598
 H3506 H 0.56304 0.90520 0.71679
 C3507 C 0.64220 0.38698 1.27791
 C3508 C 0.63490 0.39519 1.26010
 C3509 C 0.61592 0.39049 1.25304
 C3510 C 0.60422 0.37726 1.26396
 C3511 C 0.61156 0.36876 1.28167
 C3512 C 0.63073 0.37348 1.28908
 N3513 N 0.60909 0.39911 1.23461
 N3514 N 0.59114 0.39769 1.22852
 C3515 C 0.58463 0.40602 1.20984
 C3516 C 0.56424 0.40645 1.20530
 C3517 C 0.55743 0.41422 1.18707
 C3518 C 0.57098 0.42150 1.17287
 C3519 C 0.59149 0.42105 1.17752
 C3520 C 0.59825 0.41348 1.19585
 H3521 H 0.65713 0.39090 1.28239
 H3522 H 0.64413 0.40527 1.25172
 H3523 H 0.58946 0.37338 1.25876
 H3524 H 0.60188 0.35886 1.28966
 H3525 H 0.55358 0.40080 1.21596
 H3526 H 0.54152 0.41462 1.18416
 H3527 H 0.60239 0.42618 1.16684
 H3528 H 0.61412 0.41317 1.19895
 C3529 C 0.89917 1.12526 1.29259
 C3530 C 0.90788 1.11732 1.27535
 C3531 C 0.89599 1.10905 1.26036
 C3532 C 0.87520 1.10830 1.26306
 C3533 C 0.86648 1.11609 1.28041
 C3534 C 0.87836 1.12491 1.29522
 N3535 N 0.90536 1.10193 1.24245
 N3536 N 0.89530 1.09588 1.22751
 C3537 C 0.90454 1.08891 1.20949
 C3538 C 0.89238 1.08325 1.19350
 C3539 C 0.90080 1.07635 1.17569
 C3540 C 0.92166 1.07487 1.17357
 C3541 C 0.93389 1.08074 1.18961
 C3542 C 0.92541 1.08771 1.20744
 H3543 H 0.90871 1.13172 1.30388
 H3544 H 0.92391 1.11790 1.27350
 H3545 H 0.86569 1.10192 1.25169
 H3546 H 0.85041 1.11577 1.28196
 H3547 H 0.87629 1.08424 1.19484
 H3548 H 0.89096 1.07232 1.16349
 H3549 H 0.94998 1.07962 1.18849
 H3550 H 0.93514 1.09201 1.21962
 C3551 C 0.86022 0.61285 0.78068
 C3552 C 0.86713 0.60493 0.76264
 C3553 C 0.88743 0.60545 0.75789
 C3554 C 0.90088 0.61397 0.77148
 C3555 C 0.89397 0.62200 0.78950
 C3556 C 0.87355 0.62157 0.79427
 N3557 N 0.89388 0.59758 0.73906
 N3558 N 0.91219 0.59682 0.73406
 C3559 C 0.91844 0.58925 0.71503
 C3560 C 0.93885 0.58775 0.71088
 C3561 C 0.94541 0.58069 0.69233
 C3562 C 0.93159 0.57508 0.67754
 C3563 C 0.91108 0.57661 0.68178
 C3564 C 0.90455 0.58358 0.70035
 H3565 H 0.84439 0.61254 0.78378
 H3566 H 0.85662 0.59847 0.75224
 H3567 H 0.91666 0.61454 0.76814
 H3568 H 0.90461 0.62843 0.79976
 H3569 H 0.94970 0.59206 0.72207
 H3570 H 0.96131 0.57946 0.68962
 H3571 H 0.90005 0.57273 0.67061
 H3572 H 0.88867 0.58472 0.70315
 C3573 C 0.39531 1.12832 0.78663
 C3574 C 0.40406 1.12043 0.76936
 C3575 C 0.39238 1.11110 0.75485
 C3576 C 0.37169 1.10963 0.75788
 C3577 C 0.36291 1.11744 0.77519
 C3578 C 0.37461 1.12694 0.78976
 N3579 N 0.40186 1.10334 0.73724
 N3580 N 0.39203 1.09531 0.72313
 C3581 C 0.40146 1.08757 0.70549
 C3582 C 0.38953 1.07972 0.69029
 C3583 C 0.39816 1.07219 0.67280
 C3584 C 0.41900 1.07228 0.67022
 C3585 C 0.43097 1.08013 0.68557
 C3586 C 0.42229 1.08772 0.70305
 H3587 H 0.40478 1.13527 0.79766
 H3588 H 0.42003 1.12160 0.76725
 H3589 H 0.36231 1.10251 0.74687
 H3590 H 0.34693 1.11633 0.77703
 H3591 H 0.37346 1.07958 0.69194
 H3592 H 0.38847 1.06657 0.66116
 H3593 H 0.44706 1.08022 0.68417
 H3594 H 0.43186 1.09365 0.71462
 C3595 C 0.35981 0.61189 1.27982
 C3596 C 0.36641 0.60321 1.26204
 C3597 C 0.38571 0.60642 1.25510
 C3598 C 0.39838 0.61885 1.26600
 C3599 C 0.39174 0.62785 1.28369
 C3600 C 0.37236 0.62437 1.29112
 N3601 N 0.39192 0.59700 1.23690
 N3602 N 0.40998 0.59690 1.23106
 C3603 C 0.41598 0.58769 1.21266
 C3604 C 0.43631 0.58630 1.20816
 C3605 C 0.44265 0.57791 1.19011
 C3606 C 0.42870 0.57094 1.17605
 C3607 C 0.40826 0.57212 1.18075
 C3608 C 0.40195 0.58037 1.19891
 H3609 H 0.34463 0.60907 1.28426
 H3610 H 0.35642 0.59382 1.25364
 H3611 H 0.41339 0.62163 1.26084
 H3612 H 0.40216 0.63701 1.29173
 H3613 H 0.44727 0.59179 1.21867
 H3614 H 0.45851 0.57693 1.18715
 H3615 H 0.39711 0.56716 1.17018
 H3616 H 0.38612 0.58134 1.20201
 C3617 C 1.13513 1.27731 0.89261
 C3618 C 1.12895 1.25926 0.90036
 C3619 C 1.10870 1.25460 0.90078
 C3620 C 1.09456 1.26819 0.89317
 C3621 C 1.10074 1.28626 0.88528
 C3622 C 1.12110 1.29104 0.88503
 N3623 N 1.10302 1.23590 0.90881
 N3624 N 1.08487 1.23090 0.91057
 C3625 C 1.07947 1.21200 0.91833
 C3626 C 1.05926 1.20743 0.92006
 C3627 C 1.05352 1.18884 0.92689
 C3628 C 1.06798 1.17446 0.93208
 C3629 C 1.08829 1.17922 0.93066
 C3630 C 1.09400 1.19782 0.92384
 H3631 H 1.15093 1.28041 0.89229
 H3632 H 1.13997 1.24884 0.90606
 H3633 H 1.07880 1.26486 0.89330
 H3634 H 1.08963 1.29661 0.87968
 H3635 H 1.04794 1.21825 0.91593
 H3636 H 1.03776 1.18569 0.92809
 H3637 H 1.09976 1.16838 0.93430
 H3638 H 1.10974 1.20100 0.92261
 C3639 C 1.09721 0.78928 0.37536
 C3640 C 1.08850 0.77190 0.38234
 C3641 C 1.10028 0.75702 0.39113
 C3642 C 1.12096 0.75980 0.39305
 C3643 C 1.12965 0.77718 0.38622
 C3644 C 1.11790 0.79211 0.37724
 N3645 N 1.09101 0.73928 0.39796
 N3646 N 1.10127 0.72485 0.40487
 C3647 C 1.09246 0.70700 0.41195
 C3648 C 1.10505 0.69162 0.41836
 C3649 C 1.09711 0.67403 0.42556
 C3650 C 1.07633 0.67153 0.42661
 C3651 C 1.06368 0.68698 0.42003
 C3652 C 1.07167 0.70459 0.41275
 H3653 H 1.08775 0.80059 0.36870
 H3654 H 1.07254 0.76998 0.38082
 H3655 H 1.13042 0.74853 0.39979
 H3656 H 1.14564 0.77878 0.38762
 H3657 H 1.12109 0.69328 0.41772
 H3658 H 1.10727 0.66230 0.43014
 H3659 H 1.04762 0.68558 0.42083
 H3660 H 1.06164 0.71632 0.40791
 C3661 C 0.64264 1.27099 0.38260
 C3662 C 0.63520 1.25348 0.39052
 C3663 C 0.61476 1.24965 0.38986
 C3664 C 0.60173 1.26351 0.38086
 C3665 C 0.60919 1.28103 0.37279
 C3666 C 0.62973 1.28502 0.37374
 N3667 N 0.60776 1.23164 0.39847
 N3668 N 0.58933 1.22742 0.39948
 C3669 C 0.58275 1.20926 0.40815
 C3670 C 0.56227 1.20562 0.40933
 C3671 C 0.55541 1.18795 0.41753
 C3672 C 0.56899 1.17355 0.42471
 C3673 C 0.58955 1.17731 0.42359
 C3674 C 0.59638 1.19499 0.41541
 H3675 H 0.65856 1.27347 0.38326
 H3676 H 0.64540 1.24287 0.39731
 H3677 H 0.58585 1.26084 0.38015
 H3678 H 0.59888 1.29163 0.36619
 H3679 H 0.55161 1.21651 0.40385
 H3680 H 0.53948 1.18560 0.41838
 H3681 H 0.60040 1.16641 0.42867
 H3682 H 0.61230 1.19741 0.41463
 C3683 C 0.64135 0.76990 0.88648
 C3684 C 0.63473 0.75222 0.89478
 C3685 C 0.61436 0.74805 0.89537
 C3686 C 0.60056 0.76176 0.88734
 C3687 C 0.60718 0.77942 0.87890
 C3688 C 0.62766 0.78372 0.87846
 N3689 N 0.60816 0.72977 0.90402
 N3690 N 0.58985 0.72546 0.90611
 C3691 C 0.58375 0.70702 0.91451
 C3692 C 0.56337 0.70346 0.91682
 C3693 C 0.55689 0.68540 0.92438
 C3694 C 0.57074 0.67050 0.92971
 C3695 C 0.59123 0.67423 0.92765
 C3696 C 0.59770 0.69233 0.92012
 H3697 H 0.65722 0.77265 0.88609
 H3698 H 0.64551 0.74173 0.90081
 H3699 H 0.58472 0.75884 0.88759
 H3700 H 0.59629 0.78986 0.87300
 H3701 H 0.55249 0.71469 0.91262
 H3702 H 0.54101 0.68308 0.92605
 H3703 H 0.60225 0.66297 0.93137
 H3704 H 0.61355 0.69471 0.91843
 C3705 C 0.90347 1.28961 1.12692
 C3706 C 0.91171 1.27186 1.12001
 C3707 C 0.90050 1.25917 1.10812
 C3708 C 0.88096 1.26471 1.10263
 C3709 C 0.87272 1.28264 1.10925
 C3710 C 0.88370 1.29531 1.12187
 N3711 N 0.90926 1.24074 1.10203
 N3712 N 0.89908 1.22722 1.09381
 C3713 C 0.90786 1.20879 1.08772
 C3714 C 0.89538 1.19387 1.08078
 C3715 C 0.90338 1.17576 1.07457
 C3716 C 0.92415 1.17230 1.07493
 C3717 C 0.93667 1.18727 1.08210
 C3718 C 0.92860 1.20536 1.08849
 H3719 H 0.91294 1.29892 1.13590
 H3720 H 0.92687 1.26785 1.12415
 H3721 H 0.87203 1.25514 1.09331
 H3722 H 0.85749 1.28605 1.10501
 H3723 H 0.87938 1.19628 1.08026
 H3724 H 0.89327 1.16441 1.06955
 H3725 H 0.95271 1.18516 1.08239
 H3726 H 0.93856 1.21672 1.09377
 C3727 C 0.87148 0.78796 0.59960
 C3728 C 0.87714 0.76911 0.59308
 C3729 C 0.89685 0.76245 0.59538
 C3730 C 0.91099 0.77492 0.60424
 C3731 C 0.90531 0.79374 0.61089
 C3732 C 0.88548 0.80043 0.60869
 N3733 N 0.90198 0.74286 0.58898
 N3734 N 0.91981 0.73618 0.58962
 C3735 C 0.92473 0.71643 0.58356
 C3736 C 0.94479 0.71050 0.58305
 C3737 C 0.95007 0.69127 0.57738
 C3738 C 0.93528 0.67756 0.57225
 C3739 C 0.91512 0.68357 0.57285
 C3740 C 0.90989 0.70284 0.57840
 H3741 H 0.85604 0.79258 0.59796
 H3742 H 0.86611 0.75959 0.58635
 H3743 H 0.92633 0.77008 0.60619
 H3744 H 0.91644 0.80310 0.61767
 H3745 H 0.95636 0.72086 0.58698
 H3746 H 0.96574 0.68720 0.57680
 H3747 H 0.90336 0.67330 0.56932
 H3748 H 0.89425 0.70703 0.57883
 C3749 C 0.40742 1.28926 0.61896
 C3750 C 0.41480 1.27116 0.61195
 C3751 C 0.40341 1.25966 0.59897
 C3752 C 0.38469 1.26670 0.59256
 C3753 C 0.37737 1.28493 0.59927
 C3754 C 0.38846 1.29648 0.61288
 N3755 N 0.41105 1.24080 0.59276
 N3756 N 0.40015 1.22831 0.58378
 C3757 C 0.40769 1.20942 0.57758
 C3758 C 0.39424 1.19517 0.57098
 C3759 C 0.40104 1.17640 0.56533
 C3760 C 0.42154 1.17163 0.56592
 C3761 C 0.43505 1.18614 0.57226
 C3762 C 0.42819 1.20483 0.57814
 H3763 H 0.41690 1.29763 0.62887
 H3764 H 0.42936 1.26594 0.61686
 H3765 H 0.37563 1.25807 0.58244
 H3766 H 0.36266 1.28940 0.59424
 H3767 H 0.37840 1.19854 0.57053
 H3768 H 0.39019 1.16552 0.56085
 H3769 H 0.45095 1.18313 0.57253
 H3770 H 0.43889 1.21568 0.58303
 C3771 C 0.39085 0.77791 1.13935
 C3772 C 0.39906 0.75992 1.13307
 C3773 C 0.39438 0.75223 1.11429
 C3774 C 0.38090 0.76256 1.10186
 C3775 C 0.37231 0.78045 1.10823
 C3776 C 0.37733 0.78864 1.12703
 N3777 N 0.40343 0.73389 1.10833
 N3778 N 0.40273 0.72762 1.09038
 C3779 C 0.41156 0.70910 1.08462
 C3780 C 0.41262 0.70435 1.06428
 C3781 C 0.42063 0.68620 1.05814
 C3782 C 0.42749 0.67225 1.07232
 C3783 C 0.42668 0.67720 1.09277
 C3784 C 0.41884 0.69549 1.09887
 H3785 H 0.39483 0.78296 1.15415
 H3786 H 0.40928 0.75197 1.14287
 H3787 H 0.37696 0.75681 1.08727
 H3788 H 0.36228 0.78805 1.09804
 H3789 H 0.40718 0.71476 1.05315
 H3790 H 0.42139 0.68306 1.04226
 H3791 H 0.43156 0.66674 1.10409
 H3792 H 0.41811 0.69880 1.11472
 C3793 C 0.89919 0.71314 0.87644
 C3794 C 0.90785 0.73073 0.88287
 C3795 C 0.89603 0.74585 0.89106
 C3796 C 0.87536 0.74307 0.89301
 C3797 C 0.86671 0.72542 0.88670
 C3798 C 0.87851 0.71031 0.87822
 N3799 N 0.90532 0.76384 0.89720
 N3800 N 0.89518 0.77859 0.90348
 C3801 C 0.90420 0.79664 0.90980
 C3802 C 0.89183 0.81228 0.91585
 C3803 C 0.90002 0.83000 0.92247
 C3804 C 0.92085 0.83238 0.92324
 C3805 C 0.93327 0.81671 0.91690
 C3806 C 0.92503 0.79896 0.91023
 H3807 H 0.90870 0.70167 0.87020
 H3808 H 0.92380 0.73265 0.88137
 H3809 H 0.86590 0.75453 0.89933
 H3810 H 0.85073 0.72377 0.88807
 H3811 H 0.87577 0.81071 0.91548
 H3812 H 0.89003 0.84190 0.92688
 H3813 H 0.94936 0.81803 0.91748
 H3814 H 0.93491 0.78704 0.90563
 C3815 C 0.88632 0.22976 0.36101
 C3816 C 0.89457 0.24749 0.36751
 C3817 C 0.89351 0.25295 0.38768
 C3818 C 0.88386 0.24051 0.40135
 C3819 C 0.87543 0.22283 0.39482
 C3820 C 0.87667 0.21723 0.37459
 N3821 N 0.90218 0.27122 0.39378
 N3822 N 0.90334 0.27635 0.41208
 C3823 C 0.91176 0.29479 0.41804
 C3824 C 0.91382 0.29891 0.43845
 C3825 C 0.92158 0.31694 0.44478
 C3826 C 0.92731 0.33128 0.43072
 C3827 C 0.92538 0.32701 0.41019
 C3828 C 0.91771 0.30892 0.40389
 H3829 H 0.88725 0.22596 0.34529
 H3830 H 0.90187 0.25701 0.35682
 H3831 H 0.88280 0.24446 0.41703
 H3832 H 0.86822 0.21338 0.40562
 H3833 H 0.90935 0.28812 0.44949
 H3834 H 0.92315 0.31964 0.46069
 H3835 H 0.92937 0.33782 0.39899
 H3836 H 0.91619 0.30611 0.38800
 C3837 C 0.37735 0.71270 0.40052
 C3838 C 0.38567 0.72967 0.40879
 C3839 C 0.39819 0.74158 0.39747
 C3840 C 0.40285 0.73601 0.37776
 C3841 C 0.39479 0.71884 0.36947
 C3842 C 0.38155 0.70700 0.38057
 N3843 N 0.40565 0.75934 0.40629
 N3844 N 0.41485 0.77231 0.39620
 C3845 C 0.42203 0.79012 0.40517
 C3846 C 0.42970 0.80487 0.39283
 C3847 C 0.43636 0.82263 0.40101
 C3848 C 0.43569 0.82589 0.42183
 C3849 C 0.42812 0.81094 0.43422
 C3850 C 0.42129 0.79324 0.42598
 H3851 H 0.36793 0.70399 0.41008
 H3852 H 0.38213 0.73371 0.42408
 H3853 H 0.41260 0.74498 0.36872
 H3854 H 0.39845 0.71542 0.35410
 H3855 H 0.43025 0.80270 0.37677
 H3856 H 0.44172 0.83392 0.39096
 H3857 H 0.42766 0.81282 0.45032
 H3858 H 0.41551 0.78202 0.43586
 C3859 C 0.36626 0.21624 0.89859
 C3860 C 0.37342 0.23351 0.90734
 C3861 C 0.38623 0.24581 0.89680
 C3862 C 0.39235 0.24035 0.87746
 C3863 C 0.38549 0.22289 0.86875
 C3864 C 0.37201 0.21061 0.87902
 N3865 N 0.39268 0.26376 0.90600
 N3866 N 0.40151 0.27714 0.89614
 C3867 C 0.40808 0.29510 0.90524
 C3868 C 0.41516 0.31016 0.89295
 C3869 C 0.42183 0.32783 0.90124
 C3870 C 0.42183 0.33068 0.92213
 C3871 C 0.41456 0.31554 0.93447
 C3872 C 0.40768 0.29792 0.92610
 H3873 H 0.35653 0.20721 0.90753
 H3874 H 0.36877 0.23746 0.92235
 H3875 H 0.40237 0.24961 0.86904
 H3876 H 0.39028 0.21956 0.85368
 H3877 H 0.41542 0.30821 0.87685
 H3878 H 0.42689 0.33931 0.89124
 H3879 H 0.41455 0.31715 0.95061
 H3880 H 0.40232 0.28643 0.93593
 C3881 C 1.09445 0.71268 1.12953
 C3882 C 1.08546 0.73021 1.12270
 C3883 C 1.09571 0.74284 1.10988
 C3884 C 1.11500 0.73754 1.10359
 C3885 C 1.12393 0.71994 1.11014
 C3886 C 1.11393 0.70717 1.12342
 N3887 N 1.08634 0.76094 1.10349
 N3888 N 1.09613 0.77420 1.09439
 C3889 C 1.08726 0.79235 1.08756
 C3890 C 1.09973 0.80705 1.08019
 C3891 C 1.09173 0.82491 1.07320
 C3892 C 1.07096 0.82832 1.07316
 C3893 C 1.05844 0.81350 1.08065
 C3894 C 1.06652 0.79567 1.08786
 H3895 H 1.08579 0.70338 1.13927
 H3896 H 1.07051 0.73405 1.12755
 H3897 H 1.12323 0.74704 1.09362
 H3898 H 1.13896 0.71688 1.10514
 H3899 H 1.11574 0.80469 1.07998
 H3900 H 1.10187 0.83612 1.06801
 H3901 H 1.04239 0.81553 1.08063
 H3902 H 1.05658 0.78444 1.09340
 C3903 C 1.12137 0.20912 0.59621
 C3904 C 1.11440 0.22692 0.58809
 C3905 C 1.10368 0.24034 0.59983
 C3906 C 1.09923 0.23541 0.61975
 C3907 C 1.10589 0.21741 0.62788
 C3908 C 1.11755 0.20411 0.61640
 N3909 N 1.09784 0.25893 0.59123
 N3910 N 1.09095 0.27310 0.60175
 C3911 C 1.08527 0.29174 0.59313
 C3912 C 1.07971 0.30720 0.60588
 C3913 C 1.07400 0.32556 0.59806
 C3914 C 1.07352 0.32876 0.57722
 C3915 C 1.07934 0.31324 0.56442
 C3916 C 1.08520 0.29488 0.57230
 H3917 H 1.12949 0.19927 0.58638
 H3918 H 1.11769 0.23044 0.57263
 H3919 H 1.09079 0.24554 0.62909
 H3920 H 1.10257 0.21450 0.64342
 H3921 H 1.07986 0.30502 0.62195
 H3922 H 1.07003 0.33730 0.60837
 H3923 H 1.07894 0.31515 0.54832
 H3924 H 1.08944 0.28312 0.56213
 C3925 C 0.64015 0.72081 0.61002
 C3926 C 0.63477 0.73906 0.60173
 C3927 C 0.61474 0.74505 0.60097
 C3928 C 0.60003 0.73257 0.60875
 C3929 C 0.60541 0.71435 0.61720
 C3930 C 0.62553 0.70826 0.61786
 N3931 N 0.60981 0.76396 0.59258
 N3932 N 0.59182 0.76974 0.59017
 C3933 C 0.58684 0.78884 0.58226
 C3934 C 0.56674 0.79386 0.57944
 C3935 C 0.56126 0.81267 0.57264
 C3936 C 0.57588 0.82688 0.56864
 C3937 C 0.59612 0.82167 0.57108
 C3938 C 0.60157 0.80279 0.57784
 H3939 H 0.65578 0.71665 0.61060
 H3940 H 0.64624 0.74860 0.59590
 H3941 H 0.58443 0.73692 0.60839
 H3942 H 0.59385 0.70491 0.62298
 H3943 H 0.55527 0.78320 0.58271
 H3944 H 0.54557 0.81613 0.57059
 H3945 H 0.60769 0.83235 0.56832
 H3946 H 0.61724 0.79925 0.57995
 C3947 C 0.59066 0.20489 1.12369
 C3948 C 0.58265 0.22302 1.11733
 C3949 C 0.59348 0.23531 1.10468
 C3950 C 0.61240 0.22910 1.09810
 C3951 C 0.62036 0.21086 1.10416
 C3952 C 0.60973 0.19840 1.11725
 N3953 N 0.58499 0.25395 1.09872
 N3954 N 0.59526 0.26696 1.08981
 C3955 C 0.58700 0.28558 1.08350
 C3956 C 0.59990 0.30010 1.07652
 C3957 C 0.59243 0.31841 1.07014
 C3958 C 0.57177 0.32246 1.07032
 C3959 C 0.55882 0.30779 1.07735
 C3960 C 0.56636 0.28953 1.08397
 H3961 H 0.58153 0.19589 1.13327
 H3962 H 0.56796 0.22758 1.12240
 H3963 H 0.62107 0.23834 1.08824
 H3964 H 0.63514 0.20701 1.09894
 H3965 H 0.61583 0.29725 1.07618
 H3966 H 0.60290 0.32946 1.06525
 H3967 H 0.54283 0.31028 1.07745
 H3968 H 0.55608 0.27846 1.08919
 C3969 C 1.27071 1.14155 0.88334
 C3970 C 1.25294 1.13462 0.89143
 C3971 C 1.24863 1.11448 0.89098
 C3972 C 1.26221 1.10124 0.88194
 C3973 C 1.27998 1.10820 0.87366
 C3974 C 1.28449 1.12841 0.87448
 N3975 N 1.23041 1.10798 0.89985
 N3976 N 1.22599 1.08981 0.90139
 C3977 C 1.20763 1.08363 0.91024
 C3978 C 1.20387 1.06343 0.91199
 C3979 C 1.18592 1.05693 0.92016
 C3980 C 1.17134 1.07059 0.92669
 C3981 C 1.17528 1.09090 0.92515
 C3982 C 1.19326 1.09737 0.91702
 H3983 H 1.27362 1.15723 0.88389
 H3984 H 1.24254 1.14497 0.89824
 H3985 H 1.25914 1.08559 0.88136
 H3986 H 1.29038 1.09776 0.86704
 H3987 H 1.21486 1.05270 0.90692
 H3988 H 1.18346 1.04119 0.92139
 H3989 H 1.16426 1.10179 0.92979
 H3990 H 1.19580 1.11309 0.91581
 C3991 C 1.27782 0.64051 0.39197
 C3992 C 1.25990 0.63371 0.39992
 C3993 C 1.25461 0.61389 0.39783
 C3994 C 1.26752 0.60081 0.38769
 C3995 C 1.28538 0.60762 0.37961
 C3996 C 1.29070 0.62756 0.38162
 N3997 N 1.23594 0.60754 0.40579
 N3998 N 1.23067 0.58954 0.40542
 C3999 C 1.21179 0.58337 0.41305
 C4000 C 1.20753 0.56320 0.41365
 C4001 C 1.18915 0.55673 0.42081
 C4002 C 1.17461 0.57041 0.42738
 C4003 C 1.17895 0.59068 0.42670
 C4004 C 1.19737 0.59711 0.41966
 H4005 H 1.28138 0.65598 0.39353
 H4006 H 1.25003 0.64393 0.40763
 H4007 H 1.26375 0.58540 0.38589
 H4008 H 1.29511 0.59727 0.37192
 H4009 H 1.21853 0.55247 0.40861
 H4010 H 1.18638 0.54101 0.42137
 H4011 H 1.16797 0.60163 0.43131
 H4012 H 1.20025 0.61281 0.41920
 C4013 C 0.77371 1.14778 0.38700
 C4014 C 0.75585 1.14116 0.39529
 C4015 C 0.75159 1.12099 0.39578
 C4016 C 0.76542 1.10740 0.38770
 C4017 C 0.78324 1.11401 0.37929
 C4018 C 0.78762 1.13428 0.37890
 N4019 N 0.73311 1.11476 0.40436
 N4020 N 0.72877 1.09660 0.40626
 C4021 C 0.71019 1.09029 0.41455
 C4022 C 0.70678 1.07005 0.41656
 C4023 C 0.68860 1.06331 0.42397
 C4024 C 0.67340 1.07676 0.42945
 C4025 C 0.67698 1.09713 0.42771
 C4026 C 0.69522 1.10385 0.42032
 H4027 H 0.77650 1.16348 0.38669
 H4028 H 0.74529 1.15180 0.40137
 H4029 H 0.76246 1.09172 0.38788
 H4030 H 0.79373 1.10325 0.37337
 H4031 H 0.71821 1.05945 0.41225
 H4032 H 0.68644 1.04754 0.42542
 H4033 H 0.66551 1.10785 0.43159
 H4034 H 0.69748 1.11959 0.41887
 C4035 C 0.77473 0.64087 0.89177
 C4036 C 0.75675 0.63387 0.89945
 C4037 C 0.75218 0.61378 0.89825
 C4038 C 0.76593 0.60065 0.88937
 C4039 C 0.78386 0.60763 0.88160
 C4040 C 0.78843 0.62784 0.88261
 N4041 N 0.73343 0.60716 0.90585
 N4042 N 0.72860 0.58902 0.90571
 C4043 C 0.70973 0.58243 0.91302
 C4044 C 0.70588 0.56216 0.91340
 C4045 C 0.68757 0.55523 0.92033
 C4046 C 0.67271 0.56855 0.92695
 C4047 C 0.67662 0.58893 0.92645
 C4048 C 0.69496 0.59581 0.91959
 H4049 H 0.77771 0.65653 0.89258
 H4050 H 0.74626 0.64414 0.90623
 H4051 H 0.76278 0.58503 0.88830
 H4052 H 0.79421 0.59719 0.87491
 H4053 H 0.71714 0.55169 0.90838
 H4054 H 0.68513 0.53945 0.92074
 H4055 H 0.66539 0.59959 0.93109
 H4056 H 0.69752 0.61157 0.91931
 C4057 C 1.27607 0.88384 1.13757
 C4058 C 1.25775 0.89163 1.13121
 C4059 C 1.25221 0.89077 1.11104
 C4060 C 1.26511 0.88156 1.09722
 C4061 C 1.28344 0.87355 1.10362
 C4062 C 1.28919 0.87485 1.12384
 N4063 N 1.23349 0.89943 1.10514
 N4064 N 1.22804 0.90092 1.08692
 C4065 C 1.20919 0.90962 1.08140
 C4066 C 1.20440 0.91162 1.06109
 C4067 C 1.18600 0.91973 1.05523
 C4068 C 1.17197 0.92591 1.06964
 C4069 C 1.17693 0.92409 1.09005
 C4070 C 1.19537 0.91604 1.09589
 H4071 H 1.27995 0.88475 1.15329
 H4072 H 1.24788 0.89856 1.14202
 H4073 H 1.26108 0.88064 1.08153
 H4074 H 1.29331 0.86676 1.09275
 H4075 H 1.21495 0.90683 1.04978
 H4076 H 1.18276 0.92119 1.03939
 H4077 H 1.16637 0.92845 1.10151
 H4078 H 1.19870 0.91462 1.11170
 C4079 C 1.29720 0.38031 0.59090
 C4080 C 1.27896 0.38686 0.58297
 C4081 C 1.26410 0.39449 0.59555
 C4082 C 1.26783 0.39582 0.61624
 C4083 C 1.28612 0.38939 0.62418
 C4084 C 1.30095 0.38141 0.61162
 N4085 N 1.24539 0.40062 0.58700
 N4086 N 1.23090 0.40647 0.59784
 C4087 C 1.21211 0.41272 0.58956
 C4088 C 1.19691 0.41858 0.60263
 C4089 C 1.17850 0.42513 0.59517
 C4090 C 1.17498 0.42599 0.57440
 C4091 C 1.19019 0.41982 0.56127
 C4092 C 1.20864 0.41324 0.56878
 H4093 H 1.30843 0.37447 0.58083
 H4094 H 1.27631 0.38584 0.56700
 H4095 H 1.25659 0.40170 0.62629
 H4096 H 1.28848 0.39023 0.64020
 H4097 H 1.19938 0.41813 0.61866
 H4098 H 1.16697 0.42944 0.60568
 H4099 H 1.18796 0.42047 0.54521
 H4100 H 1.22019 0.40877 0.55838
 C4101 C 0.80025 0.89168 0.58780
 C4102 C 0.78202 0.89896 0.58053
 C4103 C 0.76782 0.90688 0.59367
 C4104 C 0.77224 0.90788 0.61424
 C4105 C 0.79053 0.90073 0.62151
 C4106 C 0.80464 0.89234 0.60840
 N4107 N 0.74890 0.91331 0.58585
 N4108 N 0.73479 0.91915 0.59719
 C4109 C 0.71574 0.92527 0.58946
 C4110 C 0.70058 0.93031 0.60292
 C4111 C 0.68165 0.93585 0.59592
 C4112 C 0.67759 0.93653 0.57524
 C4113 C 0.69294 0.93162 0.56174
 C4114 C 0.71185 0.92601 0.56877
 H4115 H 0.81094 0.88551 0.57733
 H4116 H 0.77881 0.89817 0.56464
 H4117 H 0.76149 0.91395 0.62470
 H4118 H 0.79338 0.90124 0.63747
 H4119 H 0.70338 0.92972 0.61889
 H4120 H 0.67008 0.93926 0.60672
 H4121 H 0.69037 0.93227 0.54573
 H4122 H 0.72337 0.92224 0.55806
 C4123 C 0.79099 0.40119 1.12366
 C4124 C 0.77305 0.40919 1.11636
 C4125 C 0.75869 0.39699 1.10771
 C4126 C 0.76258 0.37658 1.10623
 C4127 C 0.78058 0.36857 1.11342
 C4128 C 0.79495 0.38078 1.12232
 N4129 N 0.74034 0.40567 1.10067
 N4130 N 0.72619 0.39530 1.09372
 C4131 C 0.70781 0.40390 1.08666
 C4132 C 0.69262 0.39142 1.08017
 C4133 C 0.67449 0.39925 1.07320
 C4134 C 0.67124 0.41982 1.07249
 C4135 C 0.68654 0.43235 1.07906
 C4136 C 0.70467 0.42447 1.08610
 H4137 H 0.80186 0.41101 1.13017
 H4138 H 0.77028 0.42494 1.11751
 H4139 H 0.75171 0.36682 1.09960
 H4140 H 0.78309 0.35278 1.11236
 H4141 H 0.69482 0.37554 1.08061
 H4142 H 0.66292 0.38917 1.06859
 H4143 H 0.68461 0.44824 1.07850
 H4144 H 0.71621 0.43444 1.09099
 C4145 C 0.70074 1.09164 1.11026
 C4146 C 0.71904 1.08409 1.10363
 C4147 C 0.73386 1.09681 1.09690
 C4148 C 0.72996 1.11727 1.09625
 C4149 C 0.71156 1.12485 1.10273
 C4150 C 0.69690 1.11211 1.11011
 N4151 N 0.75283 1.08862 1.09132
 N4152 N 0.76753 1.09942 1.08671
 C4153 C 0.78658 1.09123 1.08137
 C4154 C 0.80209 1.10408 1.07680
 C4155 C 0.82085 1.09664 1.07144
 C4156 C 0.82440 1.07613 1.07049
 C4157 C 0.80885 1.06323 1.07532
 C4158 C 0.79007 1.07071 1.08070
 H4159 H 0.68960 1.08149 1.11562
 H4160 H 0.72183 1.06831 1.10410
 H4161 H 0.74119 1.12740 1.09103
 H4162 H 0.70905 1.14067 1.10261
 H4163 H 0.79962 1.11991 1.07740
 H4164 H 0.83262 1.10695 1.06812
 H4165 H 0.81110 1.04738 1.07454
 H4166 H 0.77829 1.06048 1.08420
 C4167 C 0.71914 0.60761 0.63987
 C4168 C 0.73763 0.59989 0.63391
 C4169 C 0.74353 0.60096 0.61387
 C4170 C 0.73062 0.60970 0.59970
 C4171 C 0.71219 0.61752 0.60565
 C4172 C 0.70631 0.61668 0.62582
 N4173 N 0.76286 0.59358 0.60839
 N4174 N 0.76884 0.59358 0.59032
 C4175 C 0.78835 0.58669 0.58487
 C4176 C 0.79351 0.58607 0.56460
 C4177 C 0.81258 0.57984 0.55879
 C4178 C 0.82688 0.57420 0.57324
 C4179 C 0.82162 0.57481 0.59361
 C4180 C 0.80252 0.58096 0.59938
 H4181 H 0.71513 0.60696 0.65553
 H4182 H 0.74749 0.59324 0.64496
 H4183 H 0.73484 0.61069 0.58410
 H4184 H 0.70250 0.62419 0.59447
 H4185 H 0.78270 0.59044 0.55329
 H4186 H 0.81607 0.57926 0.54297
 H4187 H 0.83238 0.57086 0.60511
 H4188 H 0.79891 0.58145 0.61517
 C4189 C 0.21880 1.13415 0.60492
 C4190 C 0.23678 1.12731 0.59685
 C4191 C 0.24244 1.10746 0.59881
 C4192 C 0.22990 1.09440 0.60903
 C4193 C 0.21194 1.10127 0.61726
 C4194 C 0.20620 1.12122 0.61525
 N4195 N 0.26114 1.10112 0.59059
 N4196 N 0.26678 1.08311 0.59055
 C4197 C 0.28575 1.07715 0.58262
 C4198 C 0.29064 1.05703 0.58173
 C4199 C 0.30922 1.05081 0.57446
 C4200 C 0.32330 1.06471 0.56806
 C4201 C 0.31826 1.08492 0.56889
 C4202 C 0.29966 1.09110 0.57605
 H4203 H 0.21493 1.14965 0.60340
 H4204 H 0.24639 1.13752 0.58910
 H4205 H 0.23401 1.07898 0.61077
 H4206 H 0.20244 1.09097 0.62501
 H4207 H 0.28003 1.04615 0.58671
 H4208 H 0.31255 1.03513 0.57377
 H4209 H 0.32887 1.09601 0.56440
 H4210 H 0.29627 1.10676 0.57670
 C4211 C 0.21018 0.62907 1.09806
 C4212 C 0.22786 0.62184 1.08954
 C4213 C 0.24256 0.61288 1.10154
 C4214 C 0.23942 0.61129 1.12228
 C4215 C 0.22174 0.61841 1.13079
 C4216 C 0.20688 0.62731 1.11877
 N4217 N 0.26039 0.60532 1.09237
 N4218 N 0.27452 0.59771 1.10270
 C4219 C 0.29235 0.58985 1.09384
 C4220 C 0.30761 0.58287 1.10641
 C4221 C 0.32521 0.57504 1.09835
 C4222 C 0.32781 0.57395 1.07748
 C4223 C 0.31240 0.58094 1.06488
 C4224 C 0.29482 0.58886 1.07298
 H4225 H 0.19893 0.63566 1.08841
 H4226 H 0.23008 0.62311 1.07354
 H4227 H 0.25057 0.60447 1.13190
 H4228 H 0.21976 0.61710 1.14681
 H4229 H 0.30588 0.58361 1.12251
 H4230 H 0.33691 0.57011 1.10848
 H4231 H 0.31385 0.58009 1.04875
 H4232 H 0.28316 0.59408 1.06296
 C4233 C 0.72678 0.85796 0.88329
 C4234 C 0.74463 0.86558 0.89067
 C4235 C 0.74811 0.88589 0.89005
 C4236 C 0.73355 0.89861 0.88175
 C4237 C 0.71570 0.89099 0.87426
 C4238 C 0.71209 0.87057 0.87505
 N4239 N 0.76650 0.89311 0.89800
 N4240 N 0.77047 0.91143 0.89884
 C4241 C 0.78900 0.91828 0.90687
 C4242 C 0.79230 0.93862 0.90811
 C4243 C 0.81024 0.94572 0.91591
 C4244 C 0.82522 0.93251 0.92258
 C4245 C 0.82185 0.91209 0.92127
 C4246 C 0.80392 0.90503 0.91352
 H4247 H 0.72458 0.84215 0.88384
 H4248 H 0.75578 0.85563 0.89695
 H4249 H 0.73592 0.91439 0.88111
 H4250 H 0.70458 0.90107 0.86817
 H4251 H 0.78090 0.94898 0.90308
 H4252 H 0.81231 0.96153 0.91691
 H4253 H 0.83322 0.90154 0.92595
 H4254 H 0.80178 0.88922 0.91263
 C4255 C 0.72983 0.35738 0.38664
 C4256 C 0.74724 0.36478 0.39524
 C4257 C 0.75107 0.38504 0.39480
 C4258 C 0.73728 0.39792 0.38550
 C4259 C 0.71991 0.39052 0.37676
 C4260 C 0.71597 0.37017 0.37728
 N4261 N 0.76912 0.39205 0.40371
 N4262 N 0.77310 0.41036 0.40485
 C4263 C 0.79132 0.41722 0.41354
 C4264 C 0.79440 0.43757 0.41511
 C4265 C 0.81219 0.44474 0.42314
 C4266 C 0.82730 0.43162 0.42970
 C4267 C 0.82409 0.41117 0.42821
 C4268 C 0.80627 0.40402 0.42024
 H4269 H 0.72735 0.34162 0.38704
 H4270 H 0.75780 0.35470 0.40229
 H4271 H 0.73993 0.41366 0.38495
 H4272 H 0.70941 0.40074 0.36985
 H4273 H 0.78298 0.44789 0.41004
 H4274 H 0.81410 0.46057 0.42431
 H4275 H 0.83554 0.40067 0.43282
 H4276 H 0.80429 0.38821 0.41911
 C4277 C 0.21394 0.86963 0.40094
 C4278 C 0.23176 0.87638 0.40932
 C4279 C 0.24644 0.88466 0.39716
 C4280 C 0.24310 0.88612 0.37642
 C4281 C 0.22526 0.87948 0.36804
 C4282 C 0.21046 0.87120 0.38020
 N4283 N 0.26447 0.89164 0.40620
 N4284 N 0.27861 0.89858 0.39575
 C4285 C 0.29663 0.90586 0.40448
 C4286 C 0.31174 0.91241 0.39179
 C4287 C 0.32945 0.91984 0.39970
 C4288 C 0.33233 0.92095 0.42055
 C4289 C 0.31714 0.91427 0.43329
 C4290 C 0.29943 0.90677 0.42533
 H4291 H 0.20273 0.86352 0.41071
 H4292 H 0.23413 0.87522 0.42533
 H4293 H 0.25423 0.89244 0.36668
 H4294 H 0.22315 0.88063 0.35201
 H4295 H 0.30977 0.91172 0.37570
 H4296 H 0.34098 0.92452 0.38948
 H4297 H 0.31882 0.91512 0.44940
 H4298 H 0.28791 0.90185 0.43544
 C4299 C 0.22111 0.36250 0.88897
 C4300 C 0.23941 0.36926 0.89605
 C4301 C 0.24379 0.38938 0.89546
 C4302 C 0.22971 0.40278 0.88740
 C4303 C 0.21141 0.39600 0.88018
 C4304 C 0.20687 0.37580 0.88104
 N4305 N 0.26258 0.39572 0.90320
 N4306 N 0.26729 0.41383 0.90426
 C4307 C 0.28622 0.41979 0.91206
 C4308 C 0.29037 0.43993 0.91355
 C4309 C 0.30877 0.44616 0.92100
 C4310 C 0.32336 0.43225 0.92705
 C4311 C 0.31910 0.41202 0.92558
 C4312 C 0.30070 0.40583 0.91818
 H4313 H 0.21817 0.34682 0.88953
 H4314 H 0.25019 0.35880 0.90213
 H4315 H 0.23281 0.41843 0.88676
 H4316 H 0.20065 0.40658 0.87428
 H4317 H 0.27930 0.45082 0.90893
 H4318 H 0.31154 0.46185 0.92217
 H4319 H 0.33015 0.40095 0.92981
 H4320 H 0.29788 0.39015 0.91711
   
