data_POSCAR
  _audit_creation_date              2014-09-24
  _audit_creation_method            'ToBaCCo'
  _symmetry_space_group_name_H-M    'P1'
  _symmetry_Int_Tables_number       1
  _symmetry_cell_setting            triclinic
  loop_
  _symmetry_equiv_pos_as_xyz
 x,y,z
_cell_length_a 41.2425
_cell_length_b 41.3476
_cell_length_c 41.1951
_cell_angle_alpha 89.732400
_cell_angle_beta 89.803600
_cell_angle_gamma 90.101500
loop_
  _atom_site_label
  _atom_site_type_symbol
  _atom_site_fract_x
  _atom_site_fract_y
  _atom_site_fract_z
C1 C 0.11125 -0.00078 0.22029
 C2 C 0.13407 0.02800 0.22206
 C3 C 0.15201 0.02936 0.24939
 C4 C 0.14580 0.00128 0.27326
 C5 C 0.13274 -0.03044 0.22552
 C6 C 0.15084 -0.02948 0.25301
 C7 C 0.09088 0.00082 0.25162
 C8 C 0.10887 0.00165 0.27943
 H9 H 0.13459 0.04698 0.20380
 H10 H 0.16096 0.00204 0.29545
 H11 H 0.13130 -0.05183 0.21047
 H12 H 0.06475 -0.00085 0.25206
 C13 C 0.39432 -0.00451 0.72253
 C14 C 0.37016 -0.03208 0.72669
 C15 C 0.35051 -0.02941 0.75289
 C16 C 0.35697 0.00125 0.77335
 C17 C 0.37402 0.02621 0.72266
 C18 C 0.35418 0.02964 0.74880
 C19 C 0.41199 -0.00354 0.75302
 C20 C 0.39170 0.00005 0.78139
 H21 H 0.36982 -0.05307 0.71099
 H22 H 0.34003 0.00375 0.79407
 H23 H 0.37755 0.04508 0.70464
 H24 H 0.43757 -0.00850 0.75480
 C25 C 0.88880 0.49638 0.21821
 C26 C 0.86231 0.47099 0.22111
 C27 C 0.84386 0.47304 0.24819
 C28 C 0.85347 0.50129 0.27071
 C29 C 0.87152 0.52873 0.22159
 C30 C 0.85339 0.53182 0.24895
 C31 C 0.90830 0.49321 0.24995
 C32 C 0.88990 0.49619 0.27752
 H33 H 0.86041 0.45084 0.20444
 H34 H 0.83805 0.50351 0.29271
 H35 H 0.87525 0.54848 0.20457
 H36 H 0.93434 0.49097 0.25091
 C37 C 0.61146 0.49760 0.72061
 C38 C 0.63589 0.52503 0.72230
 C39 C 0.65372 0.52574 0.74974
 C40 C 0.64585 0.49809 0.77377
 C41 C 0.63117 0.46679 0.72616
 C42 C 0.64913 0.46679 0.75380
 C43 C 0.59109 0.50059 0.75186
 C44 C 0.60895 0.50059 0.77979
 H45 H 0.63709 0.54413 0.70418
 H46 H 0.66091 0.49818 0.79605
 H47 H 0.62889 0.44561 0.71092
 H48 H 0.56490 0.50037 0.75216
 C49 C 0.21915 0.11026 0.99992
 C50 C 0.22028 0.13373 1.02814
 C51 C 0.24751 0.15187 1.02955
 C52 C 0.27193 0.14519 1.00209
 C53 C 0.22493 0.13105 0.96961
 C54 C 0.25234 0.14936 0.97066
 C55 C 0.25045 0.09025 1.00278
 C56 C 0.27817 0.10841 1.00363
 H57 H 0.20169 0.13451 1.04681
 H58 H 0.29406 0.16048 1.00289
 H59 H 0.21024 0.12917 0.94794
 H60 H 0.25094 0.06416 1.00165
 C61 C 0.71701 0.39042 0.99331
 C62 C 0.71747 0.36331 0.97132
 C63 C 0.74537 0.34323 0.97358
 C64 C 0.76822 0.35407 0.99891
 C65 C 0.72103 0.37660 1.02537
 C66 C 0.74909 0.35665 1.02930
 C67 C 0.74750 0.40758 0.98684
 C68 C 0.77627 0.38803 0.99094
 H69 H 0.70075 0.36158 0.95108
 H70 H 0.78925 0.33772 1.00138
 H71 H 0.70319 0.38007 1.04442
 H72 H 0.74885 0.43164 0.97676
 C73 C 0.22211 0.89315 0.49577
 C74 C 0.22552 0.86689 0.47032
 C75 C 0.25280 0.84896 0.47260
 C76 C 0.27499 0.85879 0.50107
 C77 C 0.22561 0.87581 0.52831
 C78 C 0.25314 0.85819 0.53161
 C79 C 0.25365 0.91318 0.49272
 C80 C 0.28143 0.89526 0.49583
 H81 H 0.20888 0.86461 0.45011
 H82 H 0.29711 0.84375 0.50347
 H83 H 0.20838 0.87897 0.54797
 H84 H 0.25430 0.93915 0.49008
 C85 C 0.72031 0.61178 0.49619
 C86 C 0.72241 0.63344 0.52576
 C87 C 0.75004 0.65086 0.52782
 C88 C 0.77390 0.64532 0.49959
 C89 C 0.72608 0.63424 0.46708
 C90 C 0.75391 0.65186 0.46879
 C91 C 0.75115 0.59095 0.49727
 C92 C 0.77931 0.60835 0.49889
 H93 H 0.70388 0.63390 0.54451
 H94 H 0.79636 0.66007 0.50095
 H95 H 0.71137 0.63364 0.44534
 H96 H 0.75085 0.56490 0.49510
 C97 C -0.00224 0.21673 0.10988
 C98 C 0.02613 0.21856 0.13319
 C99 C 0.02781 0.24621 0.15045
 C100 C 0.00025 0.27027 0.14316
 C101 C -0.03238 0.22290 0.13075
 C102 C -0.03124 0.25077 0.14816
 C103 C 0.00044 0.24741 0.08877
 C104 C 0.00149 0.27554 0.10603
 H105 H 0.04476 0.20012 0.13438
 H106 H 0.00120 0.29273 0.15778
 H107 H -0.05417 0.20832 0.12919
 H108 H -0.00082 0.24711 0.06257
 C109 C -0.00611 0.71972 0.39059
 C110 C -0.02926 0.72078 0.36461
 C111 C -0.02839 0.74927 0.34528
 C112 C -0.00313 0.77219 0.35530
 C113 C 0.02679 0.72516 0.37446
 C114 C 0.02887 0.75249 0.35612
 C115 C -0.01159 0.75108 0.41007
 C116 C -0.00926 0.77880 0.39174
 H117 H -0.04869 0.70315 0.36275
 H118 H -0.00147 0.79414 0.33978
 H119 H 0.04731 0.70934 0.37863
 H120 H -0.01342 0.75175 0.43620
 C121 C 0.49482 0.22180 0.89255
 C122 C 0.46980 0.22536 0.86579
 C123 C 0.47317 0.25218 0.84718
 C124 C 0.50207 0.27380 0.85696
 C125 C 0.52759 0.22420 0.87550
 C126 C 0.53188 0.25127 0.85723
 C127 C 0.49242 0.25357 0.91188
 C128 C 0.49657 0.28086 0.89332
 H129 H 0.44910 0.20929 0.86368
 H130 H 0.50526 0.29561 0.84146
 H131 H 0.54660 0.20650 0.87916
 H132 H 0.48917 0.25477 0.93785
 C133 C 0.49740 0.72083 0.61012
 C134 C 0.52519 0.72128 0.63416
 C135 C 0.52724 0.74842 0.65216
 C136 C 0.50063 0.77345 0.64484
 C137 C 0.46698 0.72737 0.63037
 C138 C 0.46854 0.75468 0.64859
 C139 C 0.50158 0.75195 0.58985
 C140 C 0.50302 0.77963 0.60789
 H141 H 0.54349 0.70248 0.63505
 H142 H 0.50186 0.79549 0.66006
 H143 H 0.44503 0.71306 0.62843
 H144 H 0.50109 0.75235 0.56364
 C145 C 0.89060 0.99765 0.78146
 C146 C 0.87435 1.02820 0.77667
 C147 C 0.85454 1.03005 0.74830
 C148 C 0.85461 1.00007 0.72947
 C149 C 0.86403 0.97213 0.78062
 C150 C 0.84531 0.97283 0.75370
 C151 C 0.90969 0.99251 0.74974
 C152 C 0.89110 0.99436 0.72232
 H153 H 0.87722 1.04820 0.79335
 H154 H 0.83920 1.00089 0.70745
 H155 H 0.86268 0.95257 0.79822
 H156 H 0.93567 0.98992 0.74846
 C157 C 0.38928 0.50596 0.28240
 C158 C 0.36752 0.53518 0.27569
 C159 C 0.34929 0.53257 0.24837
 C160 C 0.35458 0.50078 0.22976
 C161 C 0.36664 0.47696 0.28231
 C162 C 0.34865 0.47392 0.25515
 C163 C 0.40951 0.50289 0.25117
 C164 C 0.39152 0.50042 0.22349
 H165 H 0.36885 0.55741 0.28946
 H166 H 0.33939 0.49869 0.20768
 H167 H 0.36642 0.45895 0.30154
 H168 H 0.43566 0.50467 0.25079
 C169 C 0.60962 1.00428 0.28021
 C170 C 0.62482 0.97123 0.27406
 C171 C 0.64319 0.96957 0.24662
 C172 C 0.64474 1.00200 0.22751
 C173 C 0.63625 1.02675 0.27968
 C174 C 0.65545 1.02633 0.25104
 C175 C 0.59033 1.01105 0.24888
 C176 C 0.60850 1.00907 0.22102
 H177 H 0.62039 0.95052 0.28969
 H178 H 0.66017 1.00068 0.20543
 H179 H 0.63856 1.04566 0.29772
 H180 H 0.56427 1.01332 0.24830
 C181 C 0.10721 0.50374 0.77766
 C182 C 0.12454 0.47132 0.77489
 C183 C 0.14286 0.46780 0.74769
 C184 C 0.14287 0.49799 0.72546
 C185 C 0.13375 0.52911 0.77450
 C186 C 0.15233 0.52658 0.74752
 C187 C 0.08795 0.50646 0.74576
 C188 C 0.10653 0.50310 0.71839
 H189 H 0.12094 0.45194 0.79235
 H190 H 0.15837 0.49546 0.70355
 H191 H 0.13560 0.54952 0.79085
 H192 H 0.06198 0.50920 0.74449
 C193 C 0.77973 0.89002 0.00419
 C194 C 0.77209 0.86845 0.03351
 C195 C 0.74424 0.85106 0.03067
 C196 C 0.72610 0.85689 -0.00140
 C197 C 0.77915 0.86755 -0.02484
 C198 C 0.75149 0.85034 -0.02806
 C199 C 0.74922 0.91108 0.00073
 C200 C 0.72100 0.89390 -0.00196
 H201 H 0.78571 0.86929 0.05594
 H202 H 0.70363 0.84228 -0.00362
 H203 H 0.79860 0.86667 -0.04261
 H204 H 0.74966 0.93715 0.00253
 C205 C 0.28097 0.39134 0.50485
 C206 C 0.27389 0.37063 0.53492
 C207 C 0.24652 0.35239 0.53275
 C208 C 0.22824 0.35660 0.50049
 C209 C 0.28098 0.36784 0.47664
 C210 C 0.25375 0.34984 0.47401
 C211 C 0.24990 0.41143 0.50066
 C212 C 0.22217 0.39339 0.49863
 H213 H 0.28775 0.37236 0.55715
 H214 H 0.20612 0.34137 0.49879
 H215 H 0.30019 0.36726 0.45859
 H216 H 0.24956 0.43754 0.50159
 C217 C 0.27692 0.60501 0.00470
 C218 C 0.27406 0.62316 -0.02744
 C219 C 0.24693 0.64140 -0.03055
 C220 C 0.22481 0.64055 -0.00023
 C221 C 0.27385 0.63071 0.03075
 C222 C 0.24702 0.64930 0.02862
 C223 C 0.24503 0.58555 0.00704
 C224 C 0.21763 0.60408 0.00406
 H225 H 0.29124 0.61993 -0.04712
 H226 H 0.20301 0.65608 -0.00246
 H227 H 0.29049 0.63233 0.05102
 H228 H 0.24388 0.55955 0.00907
 C229 C 0.78217 0.10779 0.50575
 C230 C 0.78084 0.12444 0.47485
 C231 C 0.75384 0.14582 0.47064
 C232 C 0.73192 0.14535 0.49930
 C233 C 0.78006 0.13270 0.53013
 C234 C 0.75283 0.15349 0.52718
 C235 C 0.75128 0.09057 0.50797
 C236 C 0.72310 0.11086 0.50352
 H237 H 0.79630 0.11696 0.45495
 H238 H 0.71130 0.16224 0.49702
 H239 H 0.79583 0.13326 0.55119
 H240 H 0.74901 0.06590 0.51623
 C241 C 1.00348 0.77820 0.89140
 C242 C 1.03284 0.77211 0.86948
 C243 C 1.03027 0.74535 0.85061
 C244 C 0.99834 0.72657 0.85546
 C245 C 0.97452 0.77851 0.86876
 C246 C 0.97150 0.75192 0.85010
 C247 C 1.00019 0.74659 0.91099
 C248 C 0.99783 0.71941 0.89231
 H249 H 1.05510 0.78599 0.87105
 H250 H 0.99627 0.70494 0.83974
 H251 H 0.95652 0.79762 0.86895
 H252 H 1.00203 0.74552 0.93712
 C253 C 0.50512 0.28263 0.39142
 C254 C 0.53384 0.27642 0.36862
 C255 C 0.53103 0.24906 0.35057
 C256 C 0.49951 0.23004 0.35701
 C257 C 0.47539 0.28198 0.36980
 C258 C 0.47214 0.25487 0.35191
 C259 C 0.50302 0.25148 0.41187
 C260 C 0.50039 0.22380 0.39402
 H261 H 0.55615 0.29027 0.36948
 H262 H 0.49722 0.20801 0.34189
 H263 H 0.45735 0.30104 0.36979
 H264 H 0.50573 0.25117 0.43795
 C265 C 1.00575 0.27814 0.60494
 C266 C 0.97342 0.27484 0.62267
 C267 C 0.97052 0.24801 0.64152
 C268 C 1.00106 0.22654 0.64153
 C269 C 1.03139 0.27596 0.63128
 C270 C 1.02928 0.24939 0.65043
 C271 C 1.00896 0.24619 0.58610
 C272 C 1.00607 0.21907 0.60516
 H273 H 0.95364 0.29170 0.61906
 H274 H 0.99892 0.20492 0.65746
 H275 H 1.05142 0.29291 0.63287
 H276 H 1.01157 0.24473 0.56008
 C277 C 0.50209 0.78054 0.10779
 C278 C 0.46954 0.77606 0.12492
 C279 C 0.46705 0.74877 0.14321
 C280 C 0.49825 0.72816 0.14332
 C281 C 0.52732 0.77858 0.13451
 C282 C 0.52581 0.75156 0.15307
 C283 C 0.50641 0.74902 0.08842
 C284 C 0.50394 0.72149 0.10689
 H285 H 0.44935 0.79239 0.12117
 H286 H 0.49647 0.70620 0.15882
 H287 H 0.54700 0.79590 0.13648
 H288 H 0.50895 0.74810 0.06237
 O289 O -0.09054 0.97756 0.98553
 O290 O -0.09283 1.03242 1.00050
 O291 O -0.01716 0.98136 0.90933
 O292 O 0.03433 0.99408 0.90469
 O293 O -0.01452 0.90530 0.98309
 O294 O 0.00165 0.90400 1.03799
 O295 O 0.06912 1.06287 0.99523
 O296 O 0.04261 1.06863 0.94493
 O297 O -0.00553 1.06628 1.06532
 O298 O -0.05600 1.03576 1.07433
 O299 O 0.06542 0.99323 1.07006
 O300 O 0.07529 0.94304 1.04141
 O301 O 0.09161 1.01835 1.01835
 O302 O 0.09402 0.96124 1.00093
 O303 O 0.02020 1.01538 1.09216
 O304 O -0.03620 0.99729 1.09474
 O305 O 0.01759 1.08855 1.02038
 O306 O -0.00023 1.09149 0.96553
 O307 O -0.06858 0.93289 1.00896
 O308 O -0.03902 0.92502 1.05817
 O309 O 0.00815 0.92755 0.93791
 O310 O 0.05910 0.95768 0.93205
 O311 O -0.06305 1.00216 0.93154
 O312 O -0.07124 1.05210 0.95959
 Zr313 Zr -0.05156 1.00966 0.98044
 O314 O -0.02433 1.04075 1.00977
 Zr315 Zr 0.01442 0.97664 0.94882
 O316 O 0.04470 1.00686 0.97624
 Zr317 Zr -0.01935 0.94458 1.01485
 O318 O 0.00986 0.97284 1.04530
 Zr319 Zr 0.02063 1.05002 0.98759
 O320 O -0.00817 1.02171 0.95625
 Zr321 Zr -0.01275 1.01750 1.05357
 O322 O -0.04376 0.98776 1.02595
 Zr323 Zr 0.05338 0.98487 1.02145
 O324 O 0.02586 0.95293 0.99254
 O325 O -0.03000 0.96543 0.97014
 O326 O 0.03189 1.02919 1.03242
 C327 C -0.09274 0.94916 0.99800
 C328 C -0.04634 0.99194 0.90734
 C329 C -0.00242 0.90330 0.95442
 C330 C 0.09331 1.04721 1.00685
 C331 C 0.00591 1.09041 1.04923
 C332 C 0.04927 1.00460 1.09410
 H333 H -0.03696 1.06069 1.01343
 H334 H 0.01367 0.96074 1.06567
 H335 H -0.04376 0.95140 0.95644
 H336 H 0.06488 1.01107 0.96389
 H337 H 0.02992 1.06037 0.92635
 H338 H 0.04861 1.01251 0.91009
 H339 H -0.02505 0.97685 1.10030
 H340 H -0.05434 0.94131 1.06675
 H341 H -0.02209 1.09468 0.97488
 H342 H -0.05499 1.06032 0.94383
 H343 H 0.06061 0.93441 1.05841
 H344 H 0.02405 0.90226 1.02947
 H345 H -0.09490 1.02431 1.02306
 H346 H -0.06376 1.05366 1.06038
 H347 H 0.06549 0.94032 0.94736
 H348 H 0.10017 0.97302 0.98087
 O349 O 0.48070 0.48631 0.40970
 O350 O 0.53569 0.50283 0.40724
 O351 O 0.48666 0.40989 0.48274
 O352 O 0.49858 0.40530 0.53440
 O353 O 0.40895 0.48218 0.48617
 O354 O 0.40708 0.53675 0.50306
 O355 O 0.56620 0.49608 0.56961
 O356 O 0.57238 0.44622 0.54223
 O357 O 0.56944 0.56660 0.49488
 O358 O 0.53924 0.57585 0.44500
 O359 O 0.49523 0.57018 0.56605
 O360 O 0.44509 0.53949 0.57562
 O361 O 0.52146 0.51869 0.59225
 O362 O 0.46524 0.50094 0.59548
 O363 O 0.51771 0.59264 0.52091
 O364 O 0.49981 0.59478 0.46423
 O365 O 0.59204 0.52204 0.51780
 O366 O 0.59584 0.46805 0.50015
 O367 O 0.43599 0.50893 0.43246
 O368 O 0.42760 0.55737 0.46216
 O369 O 0.43154 0.43716 0.50822
 O370 O 0.46144 0.43148 0.55903
 O371 O 0.50742 0.43268 0.43689
 O372 O 0.55608 0.46224 0.42786
 Zr373 Zr 0.51334 0.48166 0.44845
 O374 O 0.54421 0.51104 0.47595
 Zr375 Zr 0.48063 0.44898 0.51451
 O376 O 0.51042 0.47671 0.54498
 Zr377 Zr 0.44790 0.51451 0.48150
 O378 O 0.47587 0.54521 0.51065
 Zr379 Zr 0.55365 0.48888 0.52089
 O380 O 0.52571 0.45751 0.49175
 Zr381 Zr 0.52059 0.55429 0.48790
 O382 O 0.49100 0.52656 0.45683
 Zr383 Zr 0.48802 0.52141 0.55406
 O384 O 0.45646 0.49205 0.52652
 O385 O 0.46917 0.47036 0.47024
 O386 O 0.53242 0.53321 0.53252
 C387 C 0.45211 0.49844 0.40799
 C388 C 0.49791 0.40819 0.45368
 C389 C 0.40713 0.45345 0.49794
 C390 C 0.55034 0.50732 0.59393
 C391 C 0.59375 0.55078 0.50605
 C392 C 0.50627 0.59443 0.54983
 H393 H 0.56421 0.51504 0.46329
 H394 H 0.46343 0.56524 0.51450
 H395 H 0.45539 0.45645 0.45643
 H396 H 0.51469 0.46433 0.56509
 H397 H 0.56454 0.42784 0.52904
 H398 H 0.51687 0.41098 0.54876
 H399 H 0.47943 0.60020 0.47568
 H400 H 0.44383 0.56646 0.44687
 H401 H 0.59855 0.47689 0.47797
 H402 H 0.56513 0.44708 0.44414
 H403 H 0.43693 0.55723 0.56170
 H404 H 0.40505 0.52757 0.52521
 H405 H 0.52674 0.52494 0.40519
 H406 H 0.55650 0.56162 0.43645
 H407 H 0.44421 0.44671 0.56580
 H408 H 0.47611 0.48017 0.60034
 O409 O 0.43426 -0.06311 0.49491
 O410 O 0.46409 -0.07023 0.44566
 O411 O 0.51350 -0.06843 0.56516
 O412 O 0.55949 -0.04148 0.57373
 O413 O 0.44027 0.00496 0.57299
 O414 O 0.43081 0.05523 0.54581
 O415 O 0.59380 0.02508 0.48332
 O416 O 0.59673 -0.03032 0.50185
 O417 O 0.52036 0.02179 0.41032
 O418 O 0.46468 0.00379 0.40900
 O419 O 0.51880 0.09414 0.48205
 O420 O 0.50146 0.09449 0.54030
 O421 O 0.57131 0.06941 0.50654
 O422 O 0.54259 0.07623 0.55759
 O423 O 0.49501 0.07232 0.43762
 O424 O 0.44398 0.04105 0.43134
 O425 O 0.56656 0.00073 0.43136
 O426 O 0.57813 -0.04758 0.45543
 O427 O 0.41196 -0.01913 0.51905
 O428 O 0.40917 0.03653 0.50469
 O429 O 0.48647 -0.01668 0.59371
 O430 O 0.54097 0.00412 0.59345
 O431 O 0.48806 -0.08962 0.52126
 O432 O 0.50516 -0.09065 0.46559
 Zr433 Zr 0.48350 -0.05050 0.48869
 O434 O 0.51164 -0.02114 0.45772
 Zr435 Zr 0.51801 -0.01888 0.55383
 O436 O 0.54760 0.01206 0.52566
 Zr437 Zr 0.45080 0.01367 0.52381
 O438 O 0.47740 0.04589 0.49422
 Zr439 Zr 0.55565 -0.00873 0.48011
 O440 O 0.52924 -0.04171 0.50960
 Zr441 Zr 0.48837 0.02337 0.44999
 O442 O 0.45831 -0.00751 0.47808
 Zr443 Zr 0.52283 0.05532 0.51521
 O444 O 0.49459 0.02587 0.54684
 O445 O 0.47326 -0.03024 0.53354
 O446 O 0.53335 0.03543 0.46996
 C447 C 0.40989 -0.04745 0.50641
 C448 C 0.50111 -0.09226 0.54946
 C449 C 0.45732 -0.00632 0.59651
 C450 C 0.59560 0.05398 0.49466
 C451 C 0.54962 0.01166 0.40768
 C452 C 0.50693 0.09630 0.45328
 H453 H 0.51522 -0.03286 0.43717
 H454 H 0.46463 0.06585 0.49106
 H455 H 0.45979 -0.04470 0.54730
 H456 H 0.56818 0.01592 0.53725
 H457 H 0.58916 -0.05021 0.51308
 H458 H 0.57879 -0.03126 0.56371
 H459 H 0.43720 0.05966 0.44474
 H460 H 0.40655 0.02836 0.48231
 H461 H 0.56072 -0.06112 0.44623
 H462 H 0.52663 -0.09378 0.47581
 H463 H 0.48125 0.10044 0.52888
 H464 H 0.44769 0.06398 0.56037
 H465 H 0.44845 -0.05417 0.43716
 H466 H 0.47519 -0.01705 0.40381
 H467 H 0.52947 0.02480 0.59708
 H468 H 0.56002 0.06180 0.56543
 O469 O 0.00531 0.42623 1.06093
 O470 O 0.05382 0.45633 1.06821
 O471 O -0.06719 0.50047 1.06726
 O472 O -0.08127 0.54505 1.04189
 O473 O -0.07163 0.42942 0.98941
 O474 O -0.04197 0.42316 0.94055
 O475 O 0.01304 0.58822 0.97798
 O476 O -0.00743 0.58990 1.03154
 O477 O 0.08728 0.51900 0.97975
 O478 O 0.09000 0.46122 0.99518
 O479 O 0.01465 0.51701 0.90598
 O480 O -0.04031 0.49905 0.90313
 O481 O -0.01098 0.56696 0.93338
 O482 O -0.06241 0.53506 0.92670
 O483 O 0.06069 0.49596 0.92740
 O484 O 0.07122 0.44453 0.95433
 O485 O 0.06465 0.56303 1.00341
 O486 O 0.03582 0.56914 1.05390
 O487 O -0.01747 0.40403 1.01609
 O488 O 0.00044 0.40405 0.96014
 O489 O -0.09459 0.47350 1.01275
 O490 O -0.09610 0.53040 0.99481
 O491 O -0.02171 0.47804 1.08860
 O492 O 0.03273 0.49656 1.09000
 Zr493 Zr 0.01030 0.47545 1.04914
 O494 O 0.04033 0.50605 1.02143
 Zr495 Zr -0.05652 0.50728 1.01788
 O496 O -0.02927 0.54005 0.98943
 Zr497 Zr -0.02269 0.44321 0.98349
 O498 O 0.00543 0.47309 0.95276
 Zr499 Zr 0.01591 0.54935 1.01090
 O500 O -0.01319 0.52010 1.04179
 Zr501 Zr 0.04907 0.48532 0.97590
 O502 O 0.02243 0.45249 1.00529
 Zr503 Zr -0.01782 0.51774 0.94519
 O504 O -0.04796 0.48608 0.97243
 O505 O -0.03397 0.46354 1.02811
 O506 O 0.02691 0.52955 0.96574
 C507 C -0.00550 0.40198 1.04486
 C508 C -0.05055 0.48928 1.09111
 C509 C -0.09627 0.44502 1.00035
 C510 C 0.00131 0.59070 0.94919
 C511 C 0.08906 0.54763 0.99168
 C512 C 0.04415 0.50755 0.90372
 H513 H 0.06063 0.50967 1.03356
 H514 H 0.00928 0.46165 0.93210
 H515 H -0.04751 0.44918 1.04193
 H516 H -0.04170 0.56027 0.98643
 H517 H -0.02102 0.58167 1.04965
 H518 H -0.07030 0.56547 1.03576
 H519 H 0.05633 0.43613 0.93759
 H520 H 0.02224 0.40210 0.96996
 H521 H 0.05306 0.55449 1.06171
 H522 H 0.02257 0.51802 1.09301
 H523 H -0.03083 0.47753 0.89888
 H524 H -0.05699 0.43951 0.93150
 H525 H 0.06274 0.44163 1.05153
 H526 H 0.09579 0.47193 1.01580
 H527 H -0.10043 0.51848 0.97449
 H528 H -0.06868 0.55433 0.93938
 O529 O 0.02142 0.48101 0.58815
 O530 O -0.03412 0.49512 0.59181
 O531 O 0.01713 0.40697 0.51284
 O532 O 0.00367 0.40390 0.46147
 O533 O 0.09207 0.48041 0.51188
 O534 O 0.09282 0.53573 0.49473
 O535 O -0.06751 0.49334 0.42975
 O536 O -0.07292 0.44366 0.45609
 O537 O -0.07016 0.56261 0.50627
 O538 O -0.03880 0.56903 0.55705
 O539 O 0.00122 0.56932 0.43427
 O540 O 0.05061 0.54320 0.42154
 O541 O -0.02355 0.51782 0.40716
 O542 O 0.03512 0.50104 0.40422
 O543 O -0.02009 0.58995 0.48061
 O544 O -0.00095 0.59100 0.53635
 O545 O -0.09221 0.51879 0.48167
 O546 O -0.09397 0.46225 0.50050
 O547 O 0.06550 0.50561 0.56582
 O548 O 0.07228 0.55526 0.53644
 O549 O 0.07044 0.43594 0.48803
 O550 O 0.03967 0.43273 0.43656
 O551 O -0.00315 0.42762 0.55972
 O552 O -0.05345 0.45462 0.56978
 Zr553 Zr -0.01164 0.47663 0.54961
 O554 O -0.04383 0.50630 0.52360
 Zr555 Zr 0.02098 0.44733 0.48215
 O556 O -0.01049 0.47516 0.45316
 Zr557 Zr 0.05273 0.51233 0.51678
 O558 O 0.02336 0.54313 0.48877
 Zr559 Zr -0.05366 0.48551 0.47825
 O560 O -0.02406 0.45382 0.50576
 Zr561 Zr -0.02114 0.55043 0.51257
 O562 O 0.00966 0.52236 0.54234
 Zr563 Zr 0.01073 0.52064 0.44491
 O564 O 0.04392 0.49151 0.47113
 O565 O 0.03240 0.46742 0.52689
 O566 O -0.03338 0.53060 0.46762
 C567 C 0.04985 0.49366 0.59013
 C568 C 0.00735 0.40412 0.54232
 C569 C 0.09446 0.45194 0.49969
 C570 C -0.05228 0.50579 0.40546
 C571 C -0.09420 0.54732 0.49387
 C572 C -0.01015 0.59272 0.45122
 H573 H -0.06370 0.50952 0.53664
 H574 H 0.03513 0.56366 0.48505
 H575 H 0.04669 0.45355 0.54029
 H576 H -0.01482 0.46338 0.43280
 H577 H -0.06324 0.42482 0.46737
 H578 H -0.01512 0.40959 0.44774
 H579 H 0.01941 0.59686 0.52500
 H580 H 0.05624 0.56330 0.55240
 H581 H -0.09907 0.47350 0.52101
 H582 H -0.06239 0.44030 0.55281
 H583 H 0.06179 0.55657 0.43791
 H584 H 0.09493 0.52658 0.47266
 H585 H -0.02620 0.51758 0.59425
 H586 H -0.05728 0.55542 0.56415
 H587 H 0.05767 0.44765 0.43100
 H588 H 0.02271 0.48192 0.39692
 O589 O 0.51752 0.91013 0.01733
 O590 O 0.49948 0.90959 -0.03713
 O591 O 0.59212 0.98304 0.01389
 O592 O 0.59560 1.03512 -0.00048
 O593 O 0.52158 0.98458 0.09176
 O594 O 0.46588 0.99914 0.09519
 O595 O 0.50080 1.07211 -0.06281
 O596 O 0.55209 1.04730 -0.07114
 O597 O 0.43261 0.99699 -0.06697
 O598 O 0.42493 0.94636 -0.03775
 O599 O 0.42994 1.06573 0.00974
 O600 O 0.46193 1.07202 0.06053
 O601 O 0.47981 1.09287 -0.01635
 O602 O 0.49921 1.09445 0.03897
 O603 O 0.40791 1.02165 -0.01437
 O604 O 0.40695 0.96374 0.00342
 O605 O 0.47675 1.02108 -0.08964
 O606 O 0.53162 1.00491 -0.09502
 O607 O 0.49621 0.93089 0.06368
 O608 O 0.44663 0.95830 0.07406
 O609 O 0.56595 1.00802 0.06878
 O610 O 0.57057 1.05875 0.03981
 O611 O 0.56988 0.93839 -0.00911
 O612 O 0.53961 0.93231 -0.05827
 Zr613 Zr 0.52051 0.95009 -0.01413
 O614 O 0.48961 0.97813 -0.04333
 Zr615 Zr 0.55287 1.01502 0.01989
 O616 O 0.52355 1.04606 -0.00815
 Zr617 Zr 0.48835 0.97995 0.05330
 O618 O 0.45615 1.00947 0.02700
 Zr619 Zr 0.51077 1.02357 -0.05186
 O620 O 0.54366 0.99407 -0.02576
 Zr621 Zr 0.44644 0.98855 -0.01836
 O622 O 0.47574 0.95698 0.00960
 Zr623 Zr 0.47905 1.05350 0.01581
 O624 O 0.50991 1.02540 0.04556
 O625 O 0.53226 0.97033 0.03049
 O626 O 0.46671 1.03361 -0.02902
 C627 C 0.50694 0.90731 0.04654
 C628 C 0.59417 0.95444 0.00186
 C629 C 0.55022 0.99685 0.09339
 C630 C 0.48933 1.09550 -0.04589
 C631 C 0.44794 1.00933 -0.09130
 C632 C 0.40587 1.05021 -0.00235
 H633 H 0.48540 0.96628 -0.06365
 H634 H 0.43622 1.01262 0.03996
 H635 H 0.54665 0.95646 0.04378
 H636 H 0.53528 1.06655 -0.01227
 H637 H 0.57123 1.03458 -0.06428
 H638 H 0.58893 1.05193 -0.01624
 H639 H 0.40093 0.97535 0.02348
 H640 H 0.43721 0.94423 0.05713
 H641 H 0.52301 0.98285 -0.09834
 H642 H 0.55510 0.94881 -0.06640
 H643 H 0.44309 1.05881 0.06745
 H644 H 0.47448 1.02133 0.09781
 H645 H 0.47757 0.90689 -0.02762
 H646 H 0.43933 0.93832 -0.05517
 H647 H 0.55498 1.06542 0.05682
 H648 H 0.51975 1.09993 0.02774
 O649 O 0.47957 0.51536 0.09329
 O650 O 0.53514 0.49877 0.09450
 O651 O 0.48258 0.59140 0.02150
 O652 O 0.49234 0.59721 -0.03065
 O653 O 0.40693 0.51587 0.01933
 O654 O 0.40658 0.46185 0.00187
 O655 O 0.56406 0.50918 -0.06865
 O656 O 0.56819 0.55896 -0.04133
 O657 O 0.56950 0.43767 0.00306
 O658 O 0.54326 0.42557 0.05293
 O659 O 0.49431 0.43274 -0.06537
 O660 O 0.44439 0.46132 -0.07390
 O661 O 0.51988 0.48484 -0.09047
 O662 O 0.46156 0.50292 -0.09140
 O663 O 0.51795 0.41044 -0.02096
 O664 O 0.50083 0.40816 0.03783
 O665 O 0.59079 0.48366 -0.01862
 O666 O 0.59237 0.53823 0.00133
 O667 O 0.43532 0.49079 0.07175
 O668 O 0.42996 0.44096 0.04170
 O669 O 0.42770 0.56225 -0.00204
 O670 O 0.45615 0.56950 -0.05452
 O671 O 0.50549 0.56920 0.06643
 O672 O 0.55493 0.54024 0.07379
 Zr673 Zr 0.51212 0.52028 0.05404
 O674 O 0.54328 0.49225 0.02509
 Zr675 Zr 0.47699 0.55247 -0.01075
 O676 O 0.50731 0.52648 -0.04255
 Zr677 Zr 0.44722 0.48526 0.02235
 O678 O 0.47543 0.45627 -0.00858
 Zr679 Zr 0.55132 0.51557 -0.01967
 O680 O 0.52280 0.54542 0.01067
 Zr681 Zr 0.52080 0.44840 0.01282
 O682 O 0.49127 0.47459 0.04558
 Zr683 Zr 0.48621 0.48115 -0.05195
 O684 O 0.45413 0.50860 -0.02270
 O685 O 0.46729 0.53008 0.03346
 O686 O 0.53119 0.47074 -0.03155
 C687 C 0.45109 0.50280 0.09572
 C688 C 0.49452 0.59346 0.05024
 C689 C 0.40407 0.54496 0.00884
 C690 C 0.54863 0.49681 -0.09263
 C691 C 0.59314 0.45432 -0.00868
 C692 C 0.50635 0.40860 -0.04981
 H693 H 0.56368 0.48853 0.03702
 H694 H 0.46357 0.43587 -0.01252
 H695 H 0.45346 0.54352 0.04772
 H696 H 0.51098 0.53926 -0.06257
 H697 H 0.55978 0.57698 -0.02798
 H698 H 0.51096 0.59266 -0.04509
 H699 H 0.48164 0.40075 0.02557
 H700 H 0.44601 0.43374 0.05800
 H701 H 0.59746 0.52704 0.02195
 H702 H 0.56341 0.55577 0.05748
 H703 H 0.43546 0.44483 -0.05885
 H704 H 0.40400 0.47089 -0.02026
 H705 H 0.52602 0.47669 0.09669
 H706 H 0.55663 0.44202 0.06398
 H707 H 0.43889 0.55400 -0.06052
 H708 H 0.47392 0.52236 -0.09814
 O709 O -0.09216 0.01411 0.51830
 O710 O -0.09257 -0.04030 0.50001
 O711 O -0.01989 0.01107 0.59287
 O712 O 0.03232 -0.00275 0.59686
 O713 O -0.01733 0.08849 0.52175
 O714 O -0.00252 0.09192 0.46629
 O715 O 0.07049 -0.06526 0.50213
 O716 O 0.04485 -0.07372 0.55328
 O717 O -0.00547 -0.06965 0.43384
 O718 O -0.05474 -0.04076 0.42503
 O719 O 0.06474 0.00682 0.43108
 O720 O 0.07091 0.05754 0.46294
 O721 O 0.09149 -0.01877 0.48133
 O722 O 0.09287 0.03631 0.50046
 O723 O 0.02071 -0.01741 0.40890
 O724 O -0.03757 0.00085 0.40796
 O725 O 0.01857 -0.09245 0.47781
 O726 O 0.00265 -0.09770 0.53259
 O727 O -0.07081 0.06038 0.49716
 O728 O -0.04311 0.07011 0.44678
 O729 O 0.00582 0.06607 0.56643
 O730 O 0.05651 0.03694 0.57167
 O731 O -0.06462 -0.01185 0.57052
 O732 O -0.07017 -0.06113 0.54062
 Zr733 Zr -0.05219 -0.01711 0.52128
 O734 O -0.02386 -0.04606 0.49053
 Zr735 Zr 0.01271 0.01711 0.55378
 O736 O 0.04400 -0.01089 0.52467
 Zr737 Zr -0.02176 0.05003 0.48887
 O738 O 0.00817 0.02399 0.45693
 Zr739 Zr 0.02156 -0.05459 0.51176
 O740 O -0.00825 -0.02853 0.54455
 Zr741 Zr -0.01296 -0.02118 0.44729
 O742 O -0.04492 0.00646 0.47640
 Zr743 Zr 0.05202 0.01296 0.48013
 O744 O 0.02359 0.04259 0.51072
 O745 O -0.03182 0.02742 0.53292
 O746 O 0.03207 -0.03179 0.46766
 C747 C -0.09457 0.04337 0.50811
 C748 C -0.04872 -0.00083 0.59485
 C749 C -0.00527 0.09042 0.55041
 C750 C 0.09413 -0.04815 0.49096
 C751 C 0.00637 -0.09403 0.44916
 C752 C 0.04940 -0.00532 0.40696
 H753 H -0.03590 -0.06629 0.48636
 H754 H 0.01160 0.03689 0.43695
 H755 H -0.04570 0.04069 0.54727
 H756 H 0.06440 -0.01489 0.53655
 H757 H 0.03196 -0.06686 0.57237
 H758 H 0.04875 -0.01890 0.59038
 H759 H -0.02520 0.02032 0.40133
 H760 H -0.05791 0.05343 0.43804
 H761 H -0.01976 -0.10055 0.52466
 H762 H -0.05391 -0.06889 0.55647
 H763 H 0.05798 0.06431 0.44391
 H764 H 0.01986 0.09444 0.47454
 H765 H -0.09560 -0.03023 0.47838
 H766 H -0.06417 -0.05683 0.44023
 H767 H 0.06335 0.05403 0.55618
 H768 H 0.09808 0.02524 0.52112
 O769 O 0.65851 0.22032 0.25984
 O770 O 0.65974 0.23799 0.20509
 O771 O 0.74045 0.15545 0.26338
 O772 O 0.79310 0.15706 0.25762
 O773 O 0.72461 0.22830 0.33935
 O774 O 0.73561 0.28423 0.34127
 O775 O 0.82398 0.25334 0.18973
 O776 O 0.80550 0.19969 0.18286
 O777 O 0.74552 0.31298 0.17848
 O778 O 0.69320 0.31813 0.19966
 O779 O 0.80457 0.32536 0.26168
 O780 O 0.81352 0.29605 0.31059
 O781 O 0.83976 0.27773 0.23642
 O782 O 0.83800 0.25826 0.29400
 O783 O 0.76005 0.34226 0.23417
 O784 O 0.69987 0.33437 0.24482
 O785 O 0.77440 0.27081 0.15854
 O786 O 0.76172 0.21390 0.15562
 O787 O 0.67372 0.24547 0.30636
 O788 O 0.69499 0.29969 0.31429
 O789 O 0.75638 0.18744 0.32085
 O790 O 0.81067 0.18690 0.29490
 O791 O 0.69641 0.17128 0.23427
 O792 O 0.68786 0.20171 0.18578
 Zr793 Zr 0.70103 0.22207 0.23086
 O794 O 0.72822 0.25514 0.20264
 Zr795 Zr 0.76647 0.19842 0.27153
 O796 O 0.79657 0.22954 0.24399
 Zr797 Zr 0.72207 0.25916 0.29878
 O798 O 0.75092 0.29311 0.27365
 Zr799 Zr 0.77613 0.23866 0.19824
 O800 O 0.74826 0.20387 0.22392
 Zr801 Zr 0.73277 0.29968 0.22648
 O802 O 0.70159 0.26800 0.25282
 Zr803 Zr 0.79809 0.27506 0.26650
 O804 O 0.77032 0.24284 0.29576
 O805 O 0.71894 0.21377 0.27735
 O806 O 0.78038 0.28413 0.21990
 C807 C 0.65272 0.23113 0.28855
 C808 C 0.71435 0.14948 0.24747
 C809 C 0.74052 0.20202 0.34349
 C810 C 0.84511 0.26773 0.20735
 C811 C 0.76109 0.29867 0.15547
 C812 C 0.78684 0.34765 0.24914
 H813 H 0.71773 0.25785 0.18128
 H814 H 0.75079 0.31334 0.28633
 H815 H 0.70580 0.19791 0.28982
 H816 H 0.81834 0.21982 0.24174
 H817 H 0.79433 0.17956 0.18971
 H818 H 0.80747 0.16372 0.23953
 H819 H 0.70904 0.34290 0.26523
 H820 H 0.67870 0.30417 0.29726
 H821 H 0.74097 0.22313 0.14805
 H822 H 0.70677 0.18909 0.17819
 H823 H 0.79526 0.30900 0.31910
 H824 H 0.75801 0.27739 0.34643
 H825 H 0.65416 0.25956 0.21381
 H826 H 0.68366 0.29982 0.18765
 H827 H 0.81356 0.20268 0.31266
 H828 H 0.84817 0.24021 0.28204
 O829 O 0.75913 0.68985 0.67711
 O830 O 0.80765 0.68154 0.70502
 O831 O 0.69197 0.67472 0.76098
 O832 O 0.67679 0.70027 0.80393
 O833 O 0.67646 0.75695 0.69029
 O834 O 0.70356 0.80522 0.68041
 O835 O 0.76893 0.76585 0.84193
 O836 O 0.75336 0.71087 0.84208
 O837 O 0.84056 0.77124 0.76679
 O838 O 0.84347 0.76043 0.71223
 O839 O 0.76350 0.84119 0.77010
 O840 O 0.70619 0.83953 0.75669
 O841 O 0.74159 0.80964 0.82304
 O842 O 0.69047 0.81681 0.79527
 O843 O 0.80820 0.82378 0.74314
 O844 O 0.81613 0.79300 0.69084
 O845 O 0.82218 0.74401 0.81118
 O846 O 0.79816 0.69475 0.82002
 O847 O 0.73122 0.73326 0.65829
 O848 O 0.74424 0.78932 0.65852
 O849 O 0.65828 0.72826 0.73378
 O850 O 0.65948 0.74528 0.79069
 O851 O 0.73504 0.65743 0.73141
 O852 O 0.79089 0.65880 0.74540
 Zr853 Zr 0.76463 0.69873 0.72698
 O854 O 0.79480 0.72749 0.75593
 Zr855 Zr 0.69875 0.72499 0.76454
 O856 O 0.72625 0.75439 0.79559
 Zr857 Zr 0.72618 0.76324 0.69904
 O858 O 0.75439 0.79474 0.72723
 Zr859 Zr 0.77303 0.73546 0.80136
 O860 O 0.74420 0.70358 0.77360
 Zr861 Zr 0.80001 0.77402 0.73591
 O862 O 0.77300 0.74381 0.70457
 Zr863 Zr 0.73383 0.79984 0.77366
 O864 O 0.70334 0.77142 0.74394
 O865 O 0.71843 0.71725 0.71857
 O866 O 0.78051 0.78194 0.78220
 C867 C 0.74652 0.70658 0.65407
 C868 C 0.70880 0.65231 0.74755
 C869 C 0.65372 0.74376 0.70711
 C870 C 0.75463 0.79313 0.84599
 C871 C 0.84492 0.75708 0.79428
 C872 C 0.79080 0.84619 0.75583
 H873 H 0.81590 0.71638 0.75778
 H874 H 0.75591 0.81554 0.71541
 H875 H 0.70487 0.70308 0.70479
 H876 H 0.71475 0.75586 0.81662
 H877 H 0.74148 0.69180 0.83375
 H878 H 0.69019 0.70463 0.82329
 H879 H 0.80253 0.81199 0.68558
 H880 H 0.76630 0.78100 0.65408
 H881 H 0.81109 0.68537 0.80216
 H882 H 0.78204 0.65407 0.76729
 H883 H 0.71558 0.84669 0.73572
 H884 H 0.69036 0.81426 0.69830
 H885 H 0.81617 0.69944 0.69141
 H886 H 0.84698 0.73721 0.71683
 H887 H 0.65339 0.76558 0.77945
 H888 H 0.68385 0.80103 0.81217
 O889 O 0.31338 0.17909 0.74442
 O890 O 0.31879 0.20382 0.69290
 O891 O 0.32678 0.26723 0.80451
 O892 O 0.29891 0.31026 0.81751
 O893 O 0.25297 0.19238 0.82655
 O894 O 0.19969 0.18335 0.80488
 O895 O 0.22995 0.33923 0.72530
 O896 O 0.28429 0.34298 0.73823
 O897 O 0.22289 0.26058 0.65984
 O898 O 0.24154 0.20449 0.66114
 O899 O 0.15742 0.26394 0.73850
 O900 O 0.16110 0.25513 0.79642
 O901 O 0.18631 0.31907 0.75244
 O902 O 0.18304 0.29610 0.80842
 O903 O 0.17519 0.23570 0.69479
 O904 O 0.20654 0.18560 0.68826
 O905 O 0.24588 0.30788 0.67573
 O906 O 0.30221 0.31617 0.69618
 O907 O 0.27187 0.16037 0.77589
 O908 O 0.21559 0.15743 0.76373
 O909 O 0.27774 0.23895 0.84195
 O910 O 0.25491 0.29447 0.83834
 O911 O 0.34428 0.23664 0.76224
 O912 O 0.34024 0.24637 0.70556
 Zr913 Zr 0.30210 0.22809 0.73478
 O914 O 0.27097 0.25390 0.70361
 Zr915 Zr 0.27599 0.26818 0.79967
 O916 O 0.24407 0.29605 0.77108
 Zr917 Zr 0.24029 0.19990 0.77799
 O918 O 0.20651 0.22450 0.74890
 Zr919 Zr 0.26152 0.29966 0.72334
 O920 O 0.29554 0.27529 0.75278
 Zr921 Zr 0.22545 0.23117 0.70188
 O922 O 0.25791 0.20311 0.73005
 Zr923 Zr 0.19952 0.27166 0.76645
 O924 O 0.23036 0.24538 0.79825
 O925 O 0.28546 0.22207 0.78206
 O926 O 0.21606 0.27771 0.71897
 C927 C 0.29847 0.15659 0.76028
 C928 C 0.34937 0.25381 0.78771
 C929 C 0.26711 0.21019 0.84763
 C930 C 0.20143 0.34202 0.73744
 C931 C 0.23194 0.28993 0.65462
 C932 C 0.15258 0.24864 0.71183
 H933 H 0.28089 0.25545 0.68181
 H934 H 0.18622 0.21175 0.74894
 H935 H 0.30127 0.20995 0.79545
 H936 H 0.24159 0.31768 0.78087
 H937 H 0.30344 0.33664 0.75121
 H938 H 0.29189 0.32849 0.80362
 H939 H 0.19030 0.17912 0.70480
 H940 H 0.22363 0.15198 0.74176
 H941 H 0.30480 0.30239 0.67680
 H942 H 0.34215 0.26965 0.71070
 H943 H 0.15669 0.23238 0.79055
 H944 H 0.19379 0.20087 0.82009
 H945 H 0.30075 0.18974 0.68576
 H946 H 0.26143 0.21495 0.65263
 H947 H 0.23562 0.28215 0.84572
 H948 H 0.19750 0.31483 0.81203
 O949 O 0.17833 0.74903 0.31515
 O950 O 0.19982 0.69529 0.31929
 O951 O 0.26683 0.80548 0.32536
 O952 O 0.31060 0.81657 0.29703
 O953 O 0.19224 0.82644 0.25175
 O954 O 0.18315 0.80431 0.19851
 O955 O 0.33778 0.72388 0.22992
 O956 O 0.34140 0.73721 0.28418
 O957 O 0.25748 0.65901 0.22447
 O958 O 0.20389 0.65920 0.24109
 O959 O 0.26246 0.73633 0.15703
 O960 O 0.25446 0.79466 0.16024
 O961 O 0.31806 0.75005 0.18561
 O962 O 0.29648 0.80546 0.18072
 O963 O 0.23322 0.69350 0.17568
 O964 O 0.18167 0.68966 0.20998
 O965 O 0.30536 0.67491 0.24643
 O966 O 0.31378 0.69574 0.30252
 O967 O 0.15908 0.77583 0.27099
 O968 O 0.15629 0.76438 0.21467
 O969 O 0.23940 0.84177 0.27564
 O970 O 0.29488 0.83722 0.25266
 O971 O 0.23647 0.76335 0.34404
 O972 O 0.24352 0.70645 0.34061
 Zr973 Zr 0.22627 0.73585 0.30230
 O974 O 0.25151 0.70386 0.27158
 Zr975 Zr 0.26792 0.79930 0.27462
 O976 O 0.29522 0.76987 0.24309
 Zr977 Zr 0.19903 0.77780 0.23950
 O978 O 0.22315 0.74790 0.20608
 Zr979 Zr 0.29786 0.72260 0.26152
 O980 O 0.27401 0.75288 0.29514
 Zr981 Zr 0.22892 0.70141 0.22605
 O982 O 0.20122 0.73034 0.25824
 Zr983 Zr 0.27075 0.76474 0.19866
 O984 O 0.24504 0.79728 0.22906
 O985 O 0.22136 0.78260 0.28451
 O986 O 0.27590 0.71769 0.21612
 C987 C 0.15560 0.76362 0.29943
 C988 C 0.25361 0.78900 0.34848
 C989 C 0.21054 0.84750 0.26536
 C990 C 0.34087 0.73542 0.20112
 C991 C 0.28694 0.65375 0.23318
 C992 C 0.24655 0.70992 0.15265
 H993 H 0.25255 0.68226 0.28185
 H994 H 0.21032 0.74772 0.18587
 H995 H 0.20968 0.79652 0.30015
 H996 H 0.31709 0.77932 0.24032
 H997 H 0.33517 0.75044 0.30318
 H998 H 0.32859 0.80256 0.28978
 H999 H 0.17697 0.70332 0.19078
 H1000 H 0.15020 0.74260 0.22270
 H1001 H 0.29965 0.67658 0.30532
 H1002 H 0.26708 0.71075 0.34221
 H1003 H 0.23182 0.78841 0.15548
 H1004 H 0.20095 0.81931 0.19251
 H1005 H 0.18344 0.69037 0.30249
 H1006 H 0.20760 0.65665 0.26465
 H1007 H 0.28276 0.84418 0.23314
 H1008 H 0.31448 0.80994 0.19585
 O1009 O 0.23769 0.65556 0.76163
 O1010 O 0.29467 0.66006 0.75412
 O1011 O 0.22601 0.72842 0.83992
 O1012 O 0.23186 0.78105 0.84484
 O1013 O 0.15784 0.72278 0.75895
 O1014 O 0.16049 0.74239 0.70466
 O1015 O 0.30633 0.82412 0.76603
 O1016 O 0.30981 0.79303 0.81547
 O1017 O 0.32510 0.75370 0.69267
 O1018 O 0.30275 0.69833 0.68256
 O1019 O 0.24898 0.81476 0.68108
 O1020 O 0.19620 0.82071 0.70130
 O1021 O 0.26324 0.84249 0.73719
 O1022 O 0.20264 0.83612 0.74698
 O1023 O 0.27590 0.77139 0.66096
 O1024 O 0.26428 0.71387 0.65746
 O1025 O 0.34085 0.77701 0.73991
 O1026 O 0.34225 0.75795 0.79133
 O1027 O 0.19411 0.67371 0.73331
 O1028 O 0.18776 0.70523 0.68493
 O1029 O 0.17349 0.74559 0.80651
 O1030 O 0.19623 0.80101 0.81394
 O1031 O 0.25137 0.68414 0.81965
 O1032 O 0.30550 0.68075 0.79791
 Zr1033 Zr 0.26474 0.69754 0.77181
 O1034 O 0.29638 0.72871 0.74626
 Zr1035 Zr 0.22208 0.75920 0.79961
 O1036 O 0.25215 0.79306 0.77581
 Zr1037 Zr 0.20071 0.72426 0.73066
 O1038 O 0.22957 0.75684 0.70364
 Zr1039 Zr 0.29882 0.77388 0.76923
 O1040 O 0.26998 0.74137 0.79708
 Zr1041 Zr 0.27706 0.73896 0.70025
 O1042 O 0.24736 0.70460 0.72425
 Zr1043 Zr 0.23483 0.80086 0.72848
 O1044 O 0.20232 0.76958 0.75369
 O1045 O 0.21768 0.71444 0.77712
 O1046 O 0.28204 0.78405 0.72254
 C1047 C 0.21139 0.65088 0.74560
 C1048 C 0.23761 0.69982 0.84289
 C1049 C 0.15225 0.73234 0.78811
 C1050 C 0.28970 0.84701 0.75303
 C1051 C 0.34617 0.76777 0.71060
 C1052 C 0.26398 0.79986 0.65812
 H1053 H 0.31808 0.71871 0.74470
 H1054 H 0.21971 0.76001 0.68203
 H1055 H 0.20389 0.69867 0.78898
 H1056 H 0.25244 0.81300 0.78895
 H1057 H 0.30343 0.77656 0.83185
 H1058 H 0.25176 0.79412 0.84196
 H1059 H 0.24366 0.72304 0.64943
 H1060 H 0.20618 0.69174 0.67767
 H1061 H 0.34130 0.73411 0.79222
 H1062 H 0.30915 0.69619 0.81585
 H1063 H 0.18681 0.80297 0.68834
 H1064 H 0.15525 0.76370 0.71419
 H1065 H 0.29005 0.65826 0.73064
 H1066 H 0.32162 0.69456 0.69684
 H1067 H 0.17867 0.80433 0.79794
 H1068 H 0.21184 0.84416 0.76758
 O1069 O 0.25851 0.19293 0.17749
 O1070 O 0.30700 0.18360 0.20520
 O1071 O 0.19163 0.17774 0.26177
 O1072 O 0.17601 0.20333 0.30448
 O1073 O 0.17655 0.26015 0.19118
 O1074 O 0.20415 0.30910 0.18284
 O1075 O 0.27007 0.26646 0.34317
 O1076 O 0.25375 0.21197 0.34293
 O1077 O 0.34124 0.27190 0.26788
 O1078 O 0.34023 0.25820 0.20906
 O1079 O 0.26576 0.34253 0.27238
 O1080 O 0.21026 0.34403 0.26041
 O1081 O 0.24303 0.31069 0.32491
 O1082 O 0.19082 0.31805 0.29544
 O1083 O 0.31008 0.32468 0.24506
 O1084 O 0.31991 0.29866 0.19525
 O1085 O 0.32274 0.24457 0.31215
 O1086 O 0.29756 0.19476 0.31992
 O1087 O 0.23082 0.23671 0.15913
 O1088 O 0.24459 0.29245 0.15983
 O1089 O 0.15836 0.23136 0.23460
 O1090 O 0.16012 0.24878 0.29204
 O1091 O 0.23406 0.16032 0.23134
 O1092 O 0.28974 0.16040 0.24510
 Zr1093 Zr 0.26424 0.20114 0.22741
 O1094 O 0.29509 0.22884 0.25670
 Zr1095 Zr 0.19880 0.22790 0.26546
 O1096 O 0.22698 0.25632 0.29685
 Zr1097 Zr 0.22631 0.26634 0.20021
 O1098 O 0.25530 0.29681 0.22868
 Zr1099 Zr 0.27347 0.23654 0.30223
 O1100 O 0.24395 0.20566 0.27412
 Zr1101 Zr 0.30071 0.27540 0.23698
 O1102 O 0.27290 0.24635 0.20532
 Zr1103 Zr 0.23518 0.30182 0.27532
 O1104 O 0.20390 0.27448 0.24532
 O1105 O 0.21823 0.22030 0.21940
 O1106 O 0.28157 0.28303 0.28348
 C1107 C 0.24581 0.20989 0.15467
 C1108 C 0.20798 0.15535 0.24775
 C1109 C 0.15381 0.24666 0.20779
 C1110 C 0.25604 0.29380 0.34760
 C1111 C 0.34554 0.25772 0.29537
 C1112 C 0.29320 0.34715 0.25824
 H1113 H 0.31601 0.21738 0.25837
 H1114 H 0.25720 0.31778 0.21724
 H1115 H 0.20451 0.20636 0.20553
 H1116 H 0.21552 0.25770 0.31792
 H1117 H 0.24096 0.19355 0.33450
 H1118 H 0.18985 0.20651 0.32376
 H1119 H 0.30287 0.31304 0.18651
 H1120 H 0.26673 0.28420 0.15564
 H1121 H 0.31148 0.18631 0.30233
 H1122 H 0.28126 0.15590 0.26719
 H1123 H 0.21677 0.34873 0.23774
 H1124 H 0.19035 0.31728 0.20070
 H1125 H 0.31590 0.20162 0.19200
 H1126 H 0.34867 0.23847 0.21974
 H1127 H 0.15343 0.26858 0.28024
 H1128 H 0.18537 0.30378 0.31403
 O1129 O 0.81307 0.68111 0.24532
 O1130 O 0.81589 0.70300 0.19154
 O1131 O 0.82706 0.76917 0.30165
 O1132 O 0.79978 0.81305 0.31365
 O1133 O 0.75294 0.69540 0.32568
 O1134 O 0.69902 0.68689 0.30554
 O1135 O 0.72964 0.84091 0.22232
 O1136 O 0.78412 0.84421 0.23384
 O1137 O 0.72066 0.76061 0.15839
 O1138 O 0.73662 0.70671 0.15869
 O1139 O 0.65622 0.76647 0.23812
 O1140 O 0.66135 0.75874 0.29656
 O1141 O 0.68597 0.82164 0.25008
 O1142 O 0.68309 0.80034 0.30644
 O1143 O 0.67298 0.73714 0.19476
 O1144 O 0.70592 0.68541 0.19016
 O1145 O 0.74387 0.80822 0.17308
 O1146 O 0.80096 0.81608 0.19220
 O1147 O 0.77001 0.66227 0.27434
 O1148 O 0.71312 0.66010 0.26494
 O1149 O 0.77779 0.74230 0.34009
 O1150 O 0.75585 0.79814 0.33566
 O1151 O 0.84317 0.73764 0.25946
 O1152 O 0.83815 0.74651 0.20234
 Zr1153 Zr 0.80060 0.72911 0.23283
 O1154 O 0.76918 0.75449 0.20165
 Zr1155 Zr 0.77605 0.77083 0.29725
 O1156 O 0.74389 0.79838 0.26858
 Zr1157 Zr 0.73912 0.70240 0.27732
 O1158 O 0.70502 0.72683 0.24842
 Zr1159 Zr 0.76056 0.80081 0.22049
 O1160 O 0.79490 0.77676 0.24991
 Zr1161 Zr 0.72337 0.73228 0.20106
 O1162 O 0.75615 0.70439 0.22909
 Zr1163 Zr 0.69894 0.77444 0.26513
 O1164 O 0.73012 0.74844 0.29686
 O1165 O 0.78450 0.72428 0.28041
 O1166 O 0.71478 0.77927 0.21732
 C1167 C 0.79776 0.65856 0.26075
 C1168 C 0.84899 0.75469 0.28482
 C1169 C 0.76731 0.71357 0.34631
 C1170 C 0.70122 0.84418 0.23457
 C1171 C 0.72962 0.78986 0.15253
 C1172 C 0.65075 0.75065 0.21187
 H1173 H 0.77870 0.75542 0.17963
 H1174 H 0.68462 0.71425 0.24905
 H1175 H 0.80035 0.71235 0.29390
 H1176 H 0.74179 0.82026 0.27792
 H1177 H 0.80338 0.83797 0.24671
 H1178 H 0.79261 0.83104 0.29953
 H1179 H 0.68733 0.68089 0.20475
 H1180 H 0.72041 0.65383 0.24294
 H1181 H 0.80268 0.80214 0.17283
 H1182 H 0.84073 0.76975 0.20735
 H1183 H 0.65615 0.73612 0.29082
 H1184 H 0.69366 0.70481 0.32048
 H1185 H 0.79857 0.68708 0.18689
 H1186 H 0.75973 0.71143 0.15433
 H1187 H 0.73636 0.78633 0.34336
 H1188 H 0.69823 0.81859 0.30977
 O1189 O 0.76496 0.15749 0.72216
 O1190 O 0.70985 0.15766 0.74114
 O1191 O 0.76512 0.23898 0.65596
 O1192 O 0.75874 0.29202 0.65784
 O1193 O 0.84187 0.22598 0.72992
 O1194 O 0.84381 0.23737 0.78620
 O1195 O 0.69230 0.32192 0.75274
 O1196 O 0.68653 0.30248 0.69856
 O1197 O 0.68114 0.24422 0.81382
 O1198 O 0.70223 0.19209 0.81953
 O1199 O 0.76404 0.30360 0.82688
 O1200 O 0.81523 0.31085 0.79279
 O1201 O 0.73816 0.33842 0.77830
 O1202 O 0.79198 0.34105 0.76229
 O1203 O 0.73545 0.25943 0.84336
 O1204 O 0.74758 0.19936 0.83626
 O1205 O 0.66170 0.27229 0.77062
 O1206 O 0.65850 0.25967 0.71425
 O1207 O 0.80976 0.17448 0.74905
 O1208 O 0.81853 0.19670 0.80200
 O1209 O 0.82228 0.25337 0.68630
 O1210 O 0.79924 0.30812 0.68633
 O1211 O 0.73753 0.19417 0.67267
 O1212 O 0.68992 0.18424 0.70362
 Zr1213 Zr 0.73460 0.19911 0.72371
 O1214 O 0.70585 0.22645 0.75601
 Zr1215 Zr 0.77405 0.26512 0.69883
 O1216 O 0.74680 0.29514 0.72993
 Zr1217 Zr 0.80166 0.22271 0.76109
 O1218 O 0.77599 0.25076 0.79494
 Zr1219 Zr 0.70130 0.27412 0.73873
 O1220 O 0.72695 0.24591 0.70454
 Zr1221 Zr 0.72910 0.23172 0.80096
 O1222 O 0.75626 0.20099 0.76997
 Zr1223 Zr 0.76868 0.29745 0.77603
 O1224 O 0.79802 0.27040 0.74353
 O1225 O 0.78055 0.21811 0.71544
 O1226 O 0.72230 0.27897 0.78461
 C1227 C 0.79341 0.15271 0.73420
 C1228 C 0.74984 0.21241 0.65038
 C1229 C 0.84516 0.23878 0.70169
 C1230 C 0.70926 0.34325 0.76764
 C1231 C 0.65848 0.25957 0.79886
 C1232 C 0.75048 0.28609 0.84901
 H1233 H 0.68452 0.21583 0.75868
 H1234 H 0.78854 0.25081 0.81534
 H1235 H 0.79296 0.20482 0.69980
 H1236 H 0.74451 0.31686 0.72008
 H1237 H 0.69342 0.29081 0.67876
 H1238 H 0.74321 0.30852 0.66551
 H1239 H 0.76730 0.20931 0.84553
 H1240 H 0.80138 0.18093 0.80789
 H1241 H 0.65160 0.23842 0.72297
 H1242 H 0.68141 0.20300 0.69133
 H1243 H 0.82067 0.29642 0.81120
 H1244 H 0.84921 0.25941 0.77837
 H1245 H 0.71971 0.15206 0.76231
 H1246 H 0.69125 0.18184 0.80093
 H1247 H 0.81668 0.31096 0.70253
 H1248 H 0.78779 0.34440 0.73890
 C1249 C 0.06176 1.01078 1.18479
 C1250 C 0.09367 0.99926 1.18808
 C1251 C 0.11123 0.99136 1.15987
 C1252 C 0.09696 0.99349 1.12942
 C1253 C 0.06484 1.00413 1.12625
 C1254 C 0.04745 1.01295 1.15422
 H1255 H 0.04788 1.01890 1.20546
 H1256 H 0.13632 0.98384 1.16135
 H1257 H 0.11120 0.98682 1.10836
 H1258 H 0.02271 1.02154 1.15254
 C1259 C 0.56296 0.51230 0.68481
 C1260 C 0.59399 0.49860 0.68826
 C1261 C 0.61105 0.48961 0.66007
 C1262 C 0.59712 0.49290 0.62950
 C1263 C 0.56584 0.50577 0.62618
 C1264 C 0.54898 0.51559 0.65415
 H1265 H 0.54958 0.52130 0.70543
 H1266 H 0.63556 0.48039 0.66165
 H1267 H 0.61094 0.48532 0.60848
 H1268 H 0.52491 0.52587 0.65241
 C1269 C 0.39382 -0.00789 0.66199
 C1270 C 0.41254 -0.00726 0.69055
 C1271 C 0.44657 -0.00772 0.68771
 C1272 C 0.46120 -0.00824 0.65706
 C1273 C 0.44219 -0.00781 0.62881
 C1274 C 0.40839 -0.00796 0.63159
 H1275 H 0.36758 -0.00757 0.66328
 H1276 H 0.46217 -0.00708 0.70865
 H1277 H 0.48742 -0.00803 0.65545
 H1278 H 0.39313 -0.00797 0.61024
 C1279 C -0.11258 0.49882 1.15755
 C1280 C -0.09404 0.49373 1.18575
 C1281 C -0.06110 0.48566 1.18239
 C1282 C -0.04704 0.48363 1.15156
 C1283 C -0.06559 0.48960 1.12359
 C1284 C -0.09856 0.49696 1.12694
 H1285 H -0.13816 0.50449 1.15931
 H1286 H -0.04597 0.48076 1.20313
 H1287 H -0.02151 0.47780 1.14969
 H1288 H -0.11362 0.50140 1.10590
 C1289 C -0.11223 0.48726 0.33791
 C1290 C -0.09573 0.49911 0.31044
 C1291 C -0.06570 0.51465 0.31473
 C1292 C -0.05210 0.51756 0.34560
 C1293 C -0.06817 0.50505 0.37309
 C1294 C -0.09858 0.49011 0.36889
 H1295 H -0.13537 0.47514 0.33543
 H1296 H -0.05273 0.52491 0.29424
 H1297 H -0.02875 0.52934 0.34782
 H1298 H -0.11164 0.48009 0.38946
 C1299 C 0.38600 0.99692 -0.15869
 C1300 C 0.40465 1.00332 -0.18685
 C1301 C 0.43708 1.01337 -0.18252
 C1302 C 0.45049 1.01624 -0.15163
 C1303 C 0.43220 1.00889 -0.12375
 C1304 C 0.39969 0.99941 -0.12763
 H1305 H 0.36127 0.98843 -0.16023
 H1306 H 0.45232 1.02005 -0.20288
 H1307 H 0.47557 1.02379 -0.14972
 H1308 H 0.38491 0.99341 -0.10667
 C1309 C 0.56434 0.48285 -0.18233
 C1310 C 0.59389 0.49921 -0.18737
 C1311 C 0.60904 0.51385 -0.16071
 C1312 C 0.59463 0.51272 -0.12987
 C1313 C 0.56475 0.49686 -0.12498
 C1314 C 0.54993 0.48176 -0.15160
 H1315 H 0.55241 0.47047 -0.20206
 H1316 H 0.63170 0.52676 -0.16376
 H1317 H 0.60674 0.52468 -0.10996
 H1318 H 0.52710 0.46908 -0.14876
 C1319 C 0.06563 -0.01877 0.31741
 C1320 C 0.09414 -0.00071 0.31228
 C1321 C 0.10859 0.01473 0.33885
 C1322 C 0.09443 0.01276 0.36973
 C1323 C 0.06549 -0.00471 0.37469
 C1324 C 0.05143 -0.02065 0.34817
 H1325 H 0.05434 -0.03179 0.29770
 H1326 H 0.13044 0.02895 0.33569
 H1327 H 0.10588 0.02544 0.38958
 H1328 H 0.02934 -0.03458 0.35112
 C1329 C 0.18378 1.06116 1.01359
 C1330 C 0.18709 1.09229 1.00001
 C1331 C 0.15894 1.10892 0.99043
 C1332 C 0.12856 1.09445 0.99301
 C1333 C 0.12539 1.06307 1.00576
 C1334 C 0.15330 1.04662 1.01616
 H1335 H 0.20437 1.04813 1.02308
 H1336 H 0.16036 1.13351 0.98136
 H1337 H 0.10755 1.10797 0.98504
 H1338 H 0.15163 1.02251 1.02642
 C1339 C 0.68437 0.56395 0.51153
 C1340 C 0.68805 0.59421 0.49616
 C1341 C 0.66007 0.61070 0.48586
 C1342 C 0.62950 0.59678 0.48942
 C1343 C 0.62599 0.56621 0.50397
 C1344 C 0.65374 0.54996 0.51506
 H1345 H 0.70490 0.55132 0.52173
 H1346 H 0.66166 0.63483 0.47566
 H1347 H 0.60862 0.61011 0.48084
 H1348 H 0.65184 0.52650 0.52670
 C1349 C 0.68407 0.44176 -0.01328
 C1350 C 0.68655 0.40792 -0.00885
 C1351 C 0.65743 0.39010 -0.00504
 C1352 C 0.62740 0.40510 -0.00578
 C1353 C 0.62515 0.43858 -0.01015
 C1354 C 0.65369 0.45677 -0.01417
 H1355 H 0.70505 0.45722 -0.01532
 H1356 H 0.65801 0.36417 -0.00107
 H1357 H 0.60589 0.39033 -0.00259
 H1358 H 0.65261 0.48279 -0.01713
 C1359 C 0.18548 -0.05732 0.48588
 C1360 C 0.18934 -0.09036 0.49305
 C1361 C 0.16136 -0.10949 0.49766
 C1362 C 0.13054 -0.09597 0.49634
 C1363 C 0.12672 -0.06288 0.49004
 C1364 C 0.15447 -0.04376 0.48439
 H1365 H 0.20599 -0.04166 0.48151
 H1366 H 0.16348 -0.13514 0.50272
 H1367 H 0.10973 -0.11146 0.50055
 H1368 H 0.15230 -0.01812 0.47940
 C1369 C 0.31872 -0.05986 0.51324
 C1370 C 0.31433 -0.09006 0.49827
 C1371 C 0.34178 -0.10659 0.48679
 C1372 C 0.37282 -0.09307 0.48982
 C1373 C 0.37719 -0.06272 0.50456
 C1374 C 0.34968 -0.04639 0.51633
 H1375 H 0.29826 -0.04677 0.52310
 H1376 H 0.33926 -0.12978 0.47498
 H1377 H 0.39337 -0.10631 0.48030
 H1378 H 0.35199 -0.02303 0.52788
 C1379 C -0.18769 0.43516 0.99740
 C1380 C -0.19194 0.40164 0.99213
 C1381 C -0.16365 0.38250 0.98974
 C1382 C -0.13264 0.39639 0.99240
 C1383 C -0.12889 0.42968 0.99813
 C1384 C -0.15685 0.44878 1.00058
 H1385 H -0.20807 0.45122 1.00058
 H1386 H -0.16493 0.35690 0.98487
 H1387 H -0.11156 0.38097 0.99007
 H1388 H -0.15498 0.47455 1.00480
 C1389 C -0.18327 0.56469 0.47898
 C1390 C -0.18814 0.59309 0.49706
 C1391 C -0.16161 0.60684 0.51321
 C1392 C -0.13105 0.59226 0.51178
 C1393 C -0.12631 0.56351 0.49420
 C1394 C -0.15279 0.55002 0.47767
 H1395 H -0.20293 0.55386 0.46549
 H1396 H -0.16456 0.62850 0.52757
 H1397 H -0.11124 0.60328 0.52494
 H1398 H -0.15000 0.52810 0.46366
 C1399 C 0.31629 1.06535 -0.01592
 C1400 C 0.31104 1.09393 0.00172
 C1401 C 0.33754 1.10874 0.01700
 C1402 C 0.36846 1.09490 0.01527
 C1403 C 0.37354 1.06592 -0.00181
 C1404 C 0.34708 1.05148 -0.01758
 H1405 H 0.29667 1.05378 -0.02885
 H1406 H 0.33429 1.13069 0.03085
 H1407 H 0.38826 1.10664 0.02779
 H1408 H 0.35011 1.02936 -0.03122
 C1409 C -0.01305 1.15669 1.10908
 C1410 C -0.00209 1.18449 1.09252
 C1411 C 0.01334 1.18067 1.06224
 C1412 C 0.01623 1.15012 1.04829
 C1413 C 0.00441 1.12257 1.06457
 C1414 C -0.01012 1.12621 1.09520
 H1415 H -0.02343 1.15842 1.13318
 H1416 H 0.02403 1.20098 1.04953
 H1417 H 0.02793 1.14810 1.02481
 H1418 H -0.01923 1.10548 1.10858
 C1419 C 0.48638 0.66094 0.60911
 C1420 C 0.49713 0.68877 0.59242
 C1421 C 0.51235 0.68496 0.56205
 C1422 C 0.51561 0.65431 0.54834
 C1423 C 0.50433 0.62670 0.56492
 C1424 C 0.48970 0.63039 0.59547
 H1425 H 0.47604 0.66272 0.63323
 H1426 H 0.52272 0.70530 0.54913
 H1427 H 0.52725 0.65228 0.52483
 H1428 H 0.48085 0.60964 0.60902
 C1429 C -0.01819 0.68335 0.44012
 C1430 C -0.00760 0.68726 0.40785
 C1431 C 0.00047 0.65953 0.38984
 C1432 C -0.00102 0.62895 0.40374
 C1433 C -0.01081 0.62508 0.43611
 C1434 C -0.01966 0.65252 0.45413
 H1435 H -0.02563 0.70366 0.45468
 H1436 H 0.00798 0.66163 0.36468
 H1437 H 0.00577 0.60836 0.38906
 H1438 H -0.02746 0.65025 0.47917
 C1439 C 0.49438 1.16135 -0.10898
 C1440 C 0.49112 1.18954 -0.09020
 C1441 C 0.48501 1.18633 -0.05674
 C1442 C 0.48340 1.15566 -0.04242
 C1443 C 0.48793 1.12771 -0.06122
 C1444 C 0.49293 1.13089 -0.09472
 H1445 H 0.49872 1.16300 -0.13489
 H1446 H 0.48183 1.20708 -0.04129
 H1447 H 0.47944 1.15389 -0.01647
 H1448 H 0.49620 1.10986 -0.10995
 C1449 C 0.51450 0.31811 -0.06227
 C1450 C 0.49958 0.31371 -0.09257
 C1451 C 0.48838 0.34101 -0.10954
 C1452 C 0.49127 0.37195 -0.09611
 C1453 C 0.50561 0.37628 -0.06546
 C1454 C 0.51747 0.34895 -0.04890
 H1455 H 0.52420 0.29772 -0.04893
 H1456 H 0.47673 0.33841 -0.13289
 H1457 H 0.48175 0.39239 -0.10952
 H1458 H 0.52877 0.35128 -0.02534
 C1459 C 0.01029 -0.18483 0.43651
 C1460 C -0.00518 -0.18854 0.40633
 C1461 C -0.01506 -0.16064 0.38952
 C1462 C -0.01051 -0.12991 0.40294
 C1463 C 0.00428 -0.12629 0.43347
 C1464 C 0.01490 -0.15417 0.44990
 H1465 H 0.01935 -0.20558 0.44973
 H1466 H -0.02678 -0.16247 0.36617
 H1467 H -0.01909 -0.10902 0.38957
 H1468 H 0.02649 -0.15240 0.47338
 C1469 C 0.48623 -0.18178 0.56381
 C1470 C 0.50276 -0.18750 0.59308
 C1471 C 0.51835 -0.16143 0.60829
 C1472 C 0.51777 -0.13046 0.59432
 C1473 C 0.50151 -0.12487 0.56483
 C1474 C 0.48570 -0.15096 0.54985
 H1475 H 0.47315 -0.20101 0.55183
 H1476 H 0.53142 -0.16502 0.63075
 H1477 H 0.53026 -0.11096 0.60653
 H1478 H 0.47267 -0.14760 0.52730
 C1479 C 0.01482 0.33475 1.10459
 C1480 C -0.00029 0.30792 1.09037
 C1481 C -0.01766 0.31241 1.06133
 C1482 C -0.01943 0.34287 1.04662
 C1483 C -0.00412 0.36970 1.06070
 C1484 C 0.01292 0.36529 1.08996
 H1485 H 0.02857 0.33211 1.12677
 H1486 H -0.03039 0.29249 1.05012
 H1487 H -0.03300 0.34540 1.02430
 H1488 H 0.02515 0.38539 1.10144
 C1489 C 0.77404 0.31456 0.06454
 C1490 C 0.75692 0.34374 0.06036
 C1491 C 0.74558 0.35952 0.08858
 C1492 C 0.74834 0.34549 0.11921
 C1493 C 0.76267 0.31507 0.12314
 C1494 C 0.77649 0.30017 0.09557
 H1495 H 0.78345 0.30157 0.04381
 H1496 H 0.73445 0.38317 0.08736
 H1497 H 0.73833 0.35832 0.13979
 H1498 H 0.78815 0.27682 0.09776
 C1499 C 0.27265 0.81256 0.56695
 C1500 C 0.26204 0.84457 0.56369
 C1501 C 0.25622 0.86285 0.59184
 C1502 C 0.25829 0.84872 0.62255
 C1503 C 0.26655 0.81599 0.62593
 C1504 C 0.27489 0.79834 0.59787
 H1505 H 0.27733 0.79805 0.54563
 H1506 H 0.24877 0.88790 0.59002
 H1507 H 0.25233 0.86320 0.64358
 H1508 H 0.28158 0.77308 0.59964
 C1509 C 0.77525 0.65774 0.58172
 C1510 C 0.75579 0.67029 0.55692
 C1511 C 0.73489 0.69615 0.56356
 C1512 C 0.73235 0.70842 0.59497
 C1513 C 0.75032 0.69463 0.62044
 C1514 C 0.77251 0.66977 0.61329
 H1515 H 0.79081 0.63716 0.57716
 H1516 H 0.71908 0.70551 0.54480
 H1517 H 0.71533 0.72779 0.59953
 H1518 H 0.78714 0.65900 0.63224
 C1519 C 0.27457 0.16176 0.08204
 C1520 C 0.25302 0.17224 0.05805
 C1521 C 0.23076 0.19685 0.06513
 C1522 C 0.22898 0.20980 0.09632
 C1523 C 0.24905 0.19784 0.12108
 C1524 C 0.27253 0.17437 0.11339
 H1525 H 0.29129 0.14218 0.07717
 H1526 H 0.21346 0.20465 0.04699
 H1527 H 0.21089 0.22806 0.10138
 H1528 H 0.28875 0.16510 0.13183
 C1529 C 0.26988 0.14720 0.91342
 C1530 C 0.26431 0.16576 0.94122
 C1531 C 0.26490 0.19962 0.93894
 C1532 C 0.26836 0.21468 0.90849
 C1533 C 0.27100 0.19586 0.88026
 C1534 C 0.27319 0.16207 0.88324
 H1535 H 0.26963 0.12102 0.91484
 H1536 H 0.26041 0.21423 0.96023
 H1537 H 0.26658 0.24077 0.90677
 H1538 H 0.27573 0.14701 0.86193
 C1539 C 0.77365 0.65099 0.41224
 C1540 C 0.76604 0.66908 0.43988
 C1541 C 0.76402 0.70289 0.43751
 C1542 C 0.76713 0.71818 0.40713
 C1543 C 0.77183 0.69961 0.37901
 C1544 C 0.77645 0.66608 0.38208
 H1545 H 0.77516 0.62486 0.41369
 H1546 H 0.75776 0.71711 0.45863
 H1547 H 0.76336 0.74404 0.40530
 H1548 H 0.78043 0.65127 0.36081
 C1549 C 0.28166 0.83878 0.42072
 C1550 C 0.26101 0.82740 0.44537
 C1551 C 0.24058 0.80101 0.43895
 C1552 C 0.23929 0.78754 0.40788
 C1553 C 0.25805 0.80055 0.38238
 C1554 C 0.28017 0.82554 0.38948
 H1555 H 0.29688 0.85973 0.42487
 H1556 H 0.22379 0.79246 0.45738
 H1557 H 0.22217 0.76818 0.40345
 H1558 H 0.29531 0.83589 0.37057
 C1559 C 0.77911 0.32586 0.92763
 C1560 C 0.75140 0.32222 0.94735
 C1561 C 0.72548 0.30337 0.93556
 C1562 C 0.72601 0.29061 0.90427
 C1563 C 0.75208 0.29704 0.88333
 C1564 C 0.77911 0.31398 0.89557
 H1565 H 0.79925 0.34063 0.93557
 H1566 H 0.70380 0.29997 0.95015
 H1567 H 0.70506 0.27728 0.89581
 H1568 H 0.79986 0.31873 0.88007
 C1569 C 0.83421 0.42135 0.27722
 C1570 C 0.82263 0.44540 0.25620
 C1571 C 0.79696 0.43799 0.23515
 C1572 C 0.78443 0.40655 0.23369
 C1573 C 0.79775 0.38174 0.25287
 C1574 C 0.82198 0.38978 0.27551
 H1575 H 0.85465 0.42627 0.29290
 H1576 H 0.78833 0.45599 0.21806
 H1577 H 0.76558 0.40132 0.21623
 H1578 H 0.83240 0.37139 0.29108
 C1579 C 0.30265 0.93708 0.73963
 C1580 C 0.32855 0.94352 0.76068
 C1581 C 0.33947 0.91897 0.78147
 C1582 C 0.32618 0.88783 0.77967
 C1583 C 0.30162 0.88072 0.75708
 C1584 C 0.28910 0.90607 0.73803
 H1585 H 0.29458 0.95545 0.72267
 H1586 H 0.36008 0.92318 0.79715
 H1587 H 0.33606 0.86903 0.79509
 H1588 H 0.27007 0.90156 0.72056
 C1589 C 0.14837 0.91351 0.27054
 C1590 C 0.16721 0.94113 0.26458
 C1591 C 0.20111 0.93857 0.26375
 C1592 C 0.21585 0.90809 0.26638
 C1593 C 0.19665 0.88009 0.26945
 C1594 C 0.16292 0.88327 0.27288
 H1595 H 0.12215 0.91514 0.27123
 H1596 H 0.21591 0.95970 0.25883
 H1597 H 0.24191 0.90619 0.26368
 H1598 H 0.14760 0.86212 0.27577
 C1599 C 0.64568 0.40847 0.76734
 C1600 C 0.66456 0.43665 0.76526
 C1601 C 0.69828 0.43444 0.76912
 C1602 C 0.71310 0.40398 0.77228
 C1603 C 0.69425 0.37556 0.77148
 C1604 C 0.66032 0.37830 0.77039
 H1605 H 0.61958 0.40972 0.76470
 H1606 H 0.71323 0.45595 0.76743
 H1607 H 0.73930 0.40258 0.77310
 H1608 H 0.64509 0.35692 0.77028
 C1609 C 0.69912 0.56204 0.73471
 C1610 C 0.67362 0.55453 0.75611
 C1611 C 0.66142 0.57865 0.77652
 C1612 C 0.67320 0.61035 0.77413
 C1613 C 0.69752 0.61839 0.75136
 C1614 C 0.71116 0.59358 0.73253
 H1615 H 0.70822 0.54389 0.71814
 H1616 H 0.64109 0.57355 0.79247
 H1617 H 0.66253 0.62875 0.78942
 H1618 H 0.73012 0.59879 0.71502
 C1619 C 0.16030 0.08198 0.27640
 C1620 C 0.17188 0.05814 0.25535
 C1621 C 0.19699 0.06564 0.23354
 C1622 C 0.20932 0.09704 0.23163
 C1623 C 0.19634 0.12162 0.25119
 C1624 C 0.17238 0.11355 0.27430
 H1625 H 0.14030 0.07678 0.29274
 H1626 H 0.20561 0.04762 0.21657
 H1627 H 0.22800 0.10232 0.21384
 H1628 H 0.16226 0.13181 0.29012
 C1629 C 0.33222 0.07450 0.78403
 C1630 C 0.33584 0.06022 0.75332
 C1631 C 0.32526 0.07742 0.72573
 C1632 C 0.31395 0.10896 0.72834
 C1633 C 0.31159 0.12367 0.75869
 C1634 C 0.31970 0.10598 0.78673
 H1635 H 0.34020 0.06195 0.80569
 H1636 H 0.32658 0.06680 0.70178
 H1637 H 0.30672 0.12186 0.70658
 H1638 H 0.31729 0.11688 0.81047
 C1639 C 0.80792 0.56742 0.26793
 C1640 C 0.84022 0.56380 0.25801
 C1641 C 0.85934 0.59159 0.25291
 C1642 C 0.84583 0.62236 0.25500
 C1643 C 0.81291 0.62614 0.26265
 C1644 C 0.79433 0.59841 0.27027
 H1645 H 0.79279 0.54635 0.27204
 H1646 H 0.88461 0.58945 0.24599
 H1647 H 0.86098 0.64316 0.24969
 H1648 H 0.76889 0.60056 0.27649
 C1649 C 0.91147 0.26798 0.14454
 C1650 C 0.93912 0.26337 0.16369
 C1651 C 0.93650 0.26565 0.19757
 C1652 C 0.90594 0.26979 0.21218
 C1653 C 0.87785 0.27148 0.19294
 C1654 C 0.88117 0.27199 0.15898
 H1655 H 0.91310 0.26645 0.11833
 H1656 H 0.95761 0.26194 0.21269
 H1657 H 0.90405 0.26924 0.23841
 H1658 H 0.86003 0.27367 0.14352
 C1659 C 0.41140 0.77232 0.64690
 C1660 C 0.43937 0.76676 0.66528
 C1661 C 0.43735 0.76698 0.69928
 C1662 C 0.40704 0.76998 0.71464
 C1663 C 0.37863 0.77253 0.69599
 C1664 C 0.38134 0.77518 0.66207
 H1665 H 0.41257 0.77229 0.62061
 H1666 H 0.45873 0.76243 0.71378
 H1667 H 0.40557 0.76782 0.74082
 H1668 H 0.35992 0.77761 0.64711
 C1669 C 0.43956 0.24007 0.79915
 C1670 C 0.44645 0.26074 0.82516
 C1671 C 0.42237 0.28194 0.83617
 C1672 C 0.39108 0.28061 0.82313
 C1673 C 0.38340 0.25813 0.79871
 C1674 C 0.40842 0.23893 0.78586
 H1675 H 0.45759 0.22290 0.79092
 H1676 H 0.42692 0.29738 0.85684
 H1677 H 0.37255 0.29613 0.83327
 H1678 H 0.40351 0.22157 0.76689
 C1679 C 0.92707 0.78321 0.32523
 C1680 C 0.94581 0.75485 0.32365
 C1681 C 0.93398 0.72871 0.30528
 C1682 C 0.90334 0.72966 0.29125
 C1683 C 0.88313 0.75644 0.29586
 C1684 C 0.89557 0.78367 0.31212
 H1685 H 0.93513 0.80361 0.33942
 H1686 H 0.94801 0.70668 0.30307
 H1687 H 0.89467 0.70848 0.27853
 H1688 H 0.88058 0.80487 0.31555
 C1689 C 0.06423 0.77062 0.30983
 C1690 C 0.06064 0.76263 0.34271
 C1691 C 0.08854 0.75916 0.36201
 C1692 C 0.11941 0.76069 0.34820
 C1693 C 0.12315 0.76623 0.31480
 C1694 C 0.09530 0.77249 0.29596
 H1695 H 0.04310 0.77331 0.29452
 H1696 H 0.08637 0.75357 0.38764
 H1697 H 0.14029 0.75647 0.36351
 H1698 H 0.09741 0.77710 0.27014
 C1699 C 0.59208 0.25243 0.86183
 C1700 C 0.56415 0.25902 0.84345
 C1701 C 0.56765 0.26952 0.81126
 C1702 C 0.59855 0.27104 0.79701
 C1703 C 0.62632 0.26208 0.81481
 C1704 C 0.62277 0.25377 0.84766
 H1705 H 0.59007 0.24508 0.88704
 H1706 H 0.54648 0.27478 0.79669
 H1707 H 0.60051 0.27783 0.77165
 H1708 H 0.64362 0.24741 0.86226
 C1709 C 0.58081 0.77394 0.66012
 C1710 C 0.55631 0.75351 0.67188
 C1711 C 0.56338 0.73129 0.69670
 C1712 C 0.59491 0.72845 0.70859
 C1713 C 0.62004 0.74744 0.69542
 C1714 C 0.61247 0.77088 0.67172
 H1715 H 0.57597 0.79054 0.64030
 H1716 H 0.54486 0.71476 0.70542
 H1717 H 0.59982 0.71048 0.72713
 H1718 H 0.63116 0.78635 0.66155
 C1719 C 0.06411 0.23088 0.19566
 C1720 C 0.05674 0.25233 0.17025
 C1721 C 0.08076 0.27341 0.15860
 C1722 C 0.11228 0.27182 0.17103
 C1723 C 0.12017 0.24922 0.19545
 C1724 C 0.09544 0.22953 0.20836
 H1725 H 0.04602 0.21388 0.20437
 H1726 H 0.07574 0.28946 0.13839
 H1727 H 0.13064 0.28773 0.16093
 H1728 H 0.10056 0.21210 0.22736
 C1729 C -0.10936 1.00203 0.84217
 C1730 C -0.09150 0.99616 0.81362
 C1731 C -0.05853 0.98783 0.81640
 C1732 C -0.04389 0.98608 0.84688
 C1733 C -0.06184 0.99254 0.87516
 C1734 C -0.09476 1.00040 0.87245
 H1735 H -0.13493 1.00791 0.84095
 H1736 H -0.04375 0.98233 0.79553
 H1737 H -0.01843 0.97987 0.84824
 H1738 H -0.10940 1.00529 0.89374
 C1739 C 0.39229 0.51925 0.34200
 C1740 C 0.40771 0.50709 0.31411
 C1741 C 0.43755 0.49100 0.31771
 C1742 C 0.45208 0.48828 0.34812
 C1743 C 0.43675 0.50087 0.37578
 C1744 C 0.40674 0.51646 0.37236
 H1745 H 0.36850 0.53016 0.34058
 H1746 H 0.44932 0.47946 0.29735
 H1747 H 0.47507 0.47579 0.35001
 H1748 H 0.39412 0.52626 0.39319
 C1749 C 0.56107 0.01902 0.31665
 C1750 C 0.59223 0.00575 0.31268
 C1751 C 0.60945 -0.00402 0.34048
 C1752 C 0.59585 -0.00140 0.37118
 C1753 C 0.56456 0.01121 0.37513
 C1754 C 0.54732 0.02154 0.34759
 H1755 H 0.54733 0.02804 0.29631
 H1756 H 0.63386 -0.01345 0.33838
 H1757 H 0.60991 -0.00952 0.39181
 H1758 H 0.52316 0.03151 0.34991
 C1759 C 0.05630 0.51329 0.81278
 C1760 C 0.08965 0.50673 0.80992
 C1761 C 0.10796 0.50267 0.83842
 C1762 C 0.09334 0.50375 0.86881
 C1763 C 0.05993 0.50919 0.87162
 C1764 C 0.04163 0.51452 0.84337
 H1765 H 0.04119 0.51727 0.79185
 H1766 H 0.13379 0.49809 0.83705
 H1767 H 0.10821 0.49988 0.89009
 H1768 H 0.01578 0.51889 0.84482
 C1769 C 0.06232 0.48508 0.68092
 C1770 C 0.09240 0.50044 0.68542
 C1771 C 0.10909 0.51245 0.65814
 C1772 C 0.09563 0.50979 0.62708
 C1773 C 0.06524 0.49490 0.62266
 C1774 C 0.04892 0.48236 0.64998
 H1775 H 0.04921 0.47477 0.70130
 H1776 H 0.13226 0.52446 0.66084
 H1777 H 0.10886 0.51980 0.60662
 H1778 H 0.02558 0.47059 0.64758
 C1779 C 0.56299 0.99161 0.18446
 C1780 C 0.59364 1.00616 0.18824
 C1781 C 0.61051 1.01630 0.16030
 C1782 C 0.59674 1.01280 0.12948
 C1783 C 0.56582 0.99880 0.12581
 C1784 C 0.54927 0.98805 0.15372
 H1785 H 0.54967 0.98235 0.20518
 H1786 H 0.63422 1.02730 0.16217
 H1787 H 0.61023 1.02139 0.10854
 H1788 H 0.52553 0.97699 0.15191
 C1789 C 0.39206 0.48463 0.16463
 C1790 C 0.40636 0.50123 0.19058
 C1791 C 0.43497 0.51897 0.18480
 C1792 C 0.44932 0.51950 0.15408
 C1793 C 0.43533 0.50255 0.12818
 C1794 C 0.40638 0.48527 0.13375
 H1795 H 0.37013 0.47064 0.16828
 H1796 H 0.44618 0.53289 0.20392
 H1797 H 0.47137 0.53339 0.15065
 H1798 H 0.39495 0.47190 0.11434
 C1799 C -0.10993 -0.01738 0.66245
 C1800 C -0.09417 -0.00405 0.68940
 C1801 C -0.06397 0.01122 0.68475
 C1802 C -0.04943 0.01235 0.65415
 C1803 C -0.06475 -0.00155 0.62721
 C1804 C -0.09534 -0.01623 0.63166
 H1805 H -0.13319 -0.02925 0.66525
 H1806 H -0.05158 0.02271 0.70475
 H1807 H -0.02611 0.02421 0.65166
 H1808 H -0.10791 -0.02712 0.61142
 C1809 C -0.16068 0.89097 1.01803
 C1810 C -0.18793 0.90734 1.00568
 C1811 C -0.18320 0.93712 0.98972
 C1812 C -0.15233 0.95069 0.98731
 C1813 C -0.12530 0.93449 1.00013
 C1814 C -0.12982 0.90451 1.01558
 H1815 H -0.16304 0.86717 1.02884
 H1816 H -0.20303 0.94961 0.97805
 H1817 H -0.14964 0.97369 0.97489
 H1818 H -0.10948 0.89126 1.02551
 C1819 C 0.31678 0.43966 0.49032
 C1820 C 0.31290 0.40948 0.50582
 C1821 C 0.34063 0.39358 0.51763
 C1822 C 0.37113 0.40784 0.51507
 C1823 C 0.37484 0.43817 0.50009
 C1824 C 0.34733 0.45398 0.48782
 H1825 H 0.29658 0.45192 0.47908
 H1826 H 0.33889 0.36961 0.52817
 H1827 H 0.39183 0.39487 0.52460
 H1828 H 0.34943 0.47725 0.47580
 C1829 C 0.31274 0.55456 0.01289
 C1830 C 0.30936 0.58793 0.00712
 C1831 C 0.33754 0.60689 0.00337
 C1832 C 0.36813 0.59298 0.00433
 C1833 C 0.37153 0.55966 0.00938
 C1834 C 0.34359 0.54059 0.01405
 H1835 H 0.29198 0.53901 0.01642
 H1836 H 0.33577 0.63274 -0.00069
 H1837 H 0.38913 0.60843 0.00097
 H1838 H 0.34552 0.51476 0.01807
 C1839 C -0.18552 0.05587 0.51011
 C1840 C -0.18768 0.08996 0.50848
 C1841 C -0.15841 0.10788 0.50761
 C1842 C -0.12851 0.09269 0.50805
 C1843 C -0.12657 0.05897 0.50938
 C1844 C -0.15524 0.04065 0.51084
 H1845 H -0.20664 0.04048 0.51003
 H1846 H -0.15875 0.13405 0.50595
 H1847 H -0.10684 0.10752 0.50710
 H1848 H -0.15429 0.01448 0.51160
 C1849 C 0.68691 0.06472 0.49312
 C1850 C 0.69124 0.09775 0.50076
 C1851 C 0.66304 0.11670 0.50480
 C1852 C 0.63197 0.10279 0.50242
 C1853 C 0.62814 0.06975 0.49525
 C1854 C 0.65607 0.05112 0.49026
 H1855 H 0.70726 0.04903 0.48820
 H1856 H 0.66452 0.14198 0.51114
 H1857 H 0.61094 0.11790 0.50652
 H1858 H 0.65422 0.02563 0.48458
 C1859 C 0.15716 0.60646 1.01221
 C1860 C 0.18458 0.58999 1.00059
 C1861 C 0.18010 0.56032 0.98465
 C1862 C 0.14910 0.54711 0.98102
 C1863 C 0.12163 0.56319 0.99321
 C1864 C 0.12605 0.59320 1.00863
 H1865 H 0.15976 0.62930 1.02468
 H1866 H 0.20054 0.54736 0.97457
 H1867 H 0.14675 0.52404 0.96891
 H1868 H 0.10553 0.60623 1.01849
 C1869 C 0.18362 0.43705 0.51573
 C1870 C 0.18934 0.40811 0.49887
 C1871 C 0.16335 0.39322 0.48279
 C1872 C 0.13246 0.40727 0.48313
 C1873 C 0.12693 0.43651 0.49960
 C1874 C 0.15290 0.45112 0.51599
 H1875 H 0.20275 0.44873 0.52927
 H1876 H 0.16694 0.37099 0.46950
 H1877 H 0.11300 0.39536 0.47023
 H1878 H 0.14951 0.47341 0.52925
 C1879 C 0.66214 0.89544 -0.01746
 C1880 C 0.68852 0.90943 -0.00124
 C1881 C 0.68345 0.93812 0.01632
 C1882 C 0.65294 0.95268 0.01725
 C1883 C 0.62655 0.93880 0.00091
 C1884 C 0.63149 0.90992 -0.01638
 H1885 H 0.66521 0.87352 -0.03139
 H1886 H 0.70292 0.94916 0.02992
 H1887 H 0.64999 0.97469 0.03108
 H1888 H 0.61173 0.89862 -0.02936
 C1889 C 0.01550 0.83777 0.89359
 C1890 C 0.00499 0.80970 0.90997
 C1891 C -0.00877 0.81290 0.94112
 C1892 C -0.01109 0.84324 0.95571
 C1893 C -0.00027 0.87110 0.93925
 C1894 C 0.01318 0.86796 0.90810
 H1895 H 0.02473 0.83652 0.86899
 H1896 H -0.01885 0.79234 0.95393
 H1897 H -0.02182 0.84490 0.97967
 H1898 H 0.02158 0.88890 0.89459
 C1899 C 0.51776 0.34233 0.39356
 C1900 C 0.50651 0.31438 0.40966
 C1901 C 0.49151 0.31784 0.44021
 C1902 C 0.48888 0.34821 0.45464
 C1903 C 0.50048 0.37596 0.43856
 C1904 C 0.51506 0.37263 0.40791
 H1905 H 0.52784 0.34097 0.36932
 H1906 H 0.48073 0.29738 0.45264
 H1907 H 0.47719 0.34999 0.47814
 H1908 H 0.52409 0.39350 0.39470
 C1909 C 0.01290 0.31327 0.55350
 C1910 C 0.00778 0.31025 0.58716
 C1911 C 0.00383 0.33850 0.60568
 C1912 C 0.00402 0.36879 0.59112
 C1913 C 0.00843 0.37184 0.55752
 C1914 C 0.01327 0.34386 0.53885
 H1915 H 0.01641 0.29246 0.53822
 H1916 H 0.00012 0.33699 0.63170
 H1917 H 0.00058 0.38984 0.60629
 H1918 H 0.01683 0.34554 0.51284
 C1919 C 0.51226 0.81640 0.05739
 C1920 C 0.50405 0.81290 0.09040
 C1921 C 0.49812 0.84089 0.10879
 C1922 C 0.49946 0.87140 0.09462
 C1923 C 0.50702 0.87489 0.06160
 C1924 C 0.51369 0.84714 0.04315
 H1925 H 0.51773 0.79586 0.04232
 H1926 H 0.49228 0.83906 0.13439
 H1927 H 0.49444 0.89224 0.10964
 H1928 H 0.51970 0.84912 0.01761
 C1929 C 0.48663 0.68407 0.06231
 C1930 C 0.50170 0.68864 0.09252
 C1931 C 0.51350 0.66147 0.10928
 C1932 C 0.51080 0.63050 0.09585
 C1933 C 0.49609 0.62600 0.06539
 C1934 C 0.48391 0.65321 0.04892
 H1935 H 0.47639 0.70428 0.04911
 H1936 H 0.52527 0.66415 0.13255
 H1937 H 0.52056 0.61013 0.10921
 H1938 H 0.47227 0.65076 0.02553
 C1939 C 0.01484 0.15893 0.60853
 C1940 C 0.00309 0.18599 0.59151
 C1941 C -0.01260 0.18112 0.56169
 C1942 C -0.01588 0.15011 0.54885
 C1943 C -0.00361 0.12301 0.56547
 C1944 C 0.01161 0.12777 0.59562
 H1945 H 0.02706 0.16187 0.63154
 H1946 H -0.02279 0.20127 0.54835
 H1947 H -0.02790 0.14747 0.52568
 H1948 H 0.02147 0.10750 0.60904
 C1949 C 0.48621 0.16466 0.39486
 C1950 C 0.50250 0.19098 0.40880
 C1951 C 0.52123 0.18559 0.43681
 C1952 C 0.52297 0.15487 0.45099
 C1953 C 0.50628 0.12862 0.43737
 C1954 C 0.48810 0.13383 0.40895
 H1955 H 0.47143 0.16797 0.37344
 H1956 H 0.53494 0.20502 0.44771
 H1957 H 0.53746 0.15172 0.47265
 H1958 H 0.47480 0.11419 0.39786
 C1959 C -0.01717 0.66039 0.89144
 C1960 C -0.00084 0.68620 0.90629
 C1961 C 0.01727 0.67996 0.93451
 C1962 C 0.01830 0.64896 0.94806
 C1963 C 0.00145 0.62322 0.93364
 C1964 C -0.01605 0.62923 0.90495
 H1965 H -0.03140 0.66437 0.86976
 H1966 H 0.03104 0.69896 0.94609
 H1967 H 0.03233 0.64522 0.96993
 H1968 H -0.02939 0.60999 0.89324
 C1969 C 0.24333 0.63682 0.90935
 C1970 C 0.23846 0.65540 0.93748
 C1971 C 0.22957 0.68791 0.93424
 C1972 C 0.22798 0.70220 0.90331
 C1973 C 0.23529 0.68409 0.87526
 C1974 C 0.24195 0.65101 0.87865
 H1975 H 0.24955 0.61144 0.91121
 H1976 H 0.22571 0.70264 0.95557
 H1977 H 0.22247 0.72774 0.90151
 H1978 H 0.24702 0.63621 0.85762
 C1979 C 0.77624 0.16583 0.41902
 C1980 C 0.74952 0.16241 0.44050
 C1981 C 0.71934 0.17464 0.42996
 C1982 C 0.71596 0.18780 0.39843
 C1983 C 0.74249 0.18847 0.37677
 C1984 C 0.77258 0.17777 0.38769
 H1985 H 0.80067 0.15981 0.42620
 H1986 H 0.69802 0.17301 0.44524
 H1987 H 0.69252 0.19664 0.39068
 H1988 H 0.79376 0.17943 0.37211
 C1989 C 0.27157 0.30616 0.43720
 C1990 C 0.24898 0.33035 0.44474
 C1991 C 0.22755 0.34123 0.42081
 C1992 C 0.22981 0.32925 0.38922
 C1993 C 0.25339 0.30599 0.38119
 C1994 C 0.27356 0.29383 0.40577
 H1995 H 0.28881 0.29808 0.45528
 H1996 H 0.21061 0.36053 0.42599
 H1997 H 0.21350 0.33865 0.37093
 H1998 H 0.29172 0.27570 0.40044
 C1999 C 0.72585 0.84170 0.91841
 C2000 C 0.74682 0.83076 0.94270
 C2001 C 0.76916 0.80618 0.93567
 C2002 C 0.77140 0.79354 0.90439
 C2003 C 0.75172 0.80572 0.87943
 C2004 C 0.72835 0.82938 0.88695
 H2005 H 0.70909 0.86125 0.92322
 H2006 H 0.78603 0.79800 0.95406
 H2007 H 0.78937 0.77511 0.89948
 H2008 H 0.71239 0.83883 0.86838
 C2009 C 0.72278 0.85223 0.08656
 C2010 C 0.73078 0.83405 0.05907
 C2011 C 0.73258 0.80026 0.06150
 C2012 C 0.72921 0.78507 0.09186
 C2013 C 0.72444 0.80374 0.11992
 C2014 C 0.71971 0.83722 0.11675
 H2015 H 0.72145 0.87837 0.08506
 H2016 H 0.73915 0.78598 0.04051
 H2017 H 0.73307 0.75923 0.09377
 H2018 H 0.71570 0.85209 0.13797
 C2019 C 0.22726 0.35353 0.58952
 C2020 C 0.23377 0.33544 0.56158
 C2021 C 0.23403 0.30156 0.56351
 C2022 C 0.23063 0.28608 0.59375
 C2023 C 0.22723 0.30451 0.62218
 C2024 C 0.22403 0.33823 0.61953
 H2025 H 0.22694 0.37972 0.58841
 H2026 H 0.23933 0.28731 0.54215
 H2027 H 0.23325 0.26006 0.59520
 H2028 H 0.22098 0.35298 0.64099
 C2029 C 0.77326 0.19429 0.56367
 C2030 C 0.74699 0.17557 0.55246
 C2031 C 0.71947 0.17253 0.57250
 C2032 C 0.71992 0.18494 0.60435
 C2033 C 0.74725 0.20182 0.61601
 C2034 C 0.77315 0.20767 0.59469
 H2035 H 0.79491 0.19697 0.54889
 H2036 H 0.69917 0.15770 0.56500
 H2037 H 0.69939 0.18048 0.62021
 H2038 H 0.79440 0.22077 0.60277
 C2039 C 0.26076 0.69672 0.06249
 C2040 C 0.23948 0.67103 0.05590
 C2041 C 0.21838 0.66024 0.08042
 C2042 C 0.22007 0.67346 0.11164
 C2043 C 0.24283 0.69785 0.11888
 C2044 C 0.26224 0.71020 0.09355
 H2045 H 0.27791 0.70474 0.04416
 H2046 H 0.20251 0.63981 0.07615
 H2047 H 0.20438 0.66371 0.13042
 H2048 H 0.27982 0.72910 0.09813
 C2049 C 0.16203 0.57819 0.71832
 C2050 C 0.17373 0.55390 0.73902
 C2051 C 0.20016 0.56071 0.75924
 C2052 C 0.21339 0.59185 0.76027
 C2053 C 0.20005 0.61699 0.74148
 C2054 C 0.17500 0.60950 0.71958
 H2055 H 0.14102 0.57369 0.70327
 H2056 H 0.20891 0.54253 0.77606
 H2057 H 0.23281 0.59663 0.77723
 H2058 H 0.16446 0.62816 0.70442
 C2059 C 0.67463 0.07183 0.21774
 C2060 C 0.67697 0.05229 0.24566
 C2061 C 0.69573 0.06353 0.27187
 C2062 C 0.70933 0.09439 0.27148
 C2063 C 0.70384 0.11529 0.24525
 C2064 C 0.68729 0.10346 0.21788
 H2065 H 0.66011 0.06425 0.19733
 H2066 H 0.69846 0.04888 0.29358
 H2067 H 0.72236 0.10263 0.29269
 H2068 H 0.68326 0.11902 0.19707
 C2069 C 0.85675 0.08853 0.74613
 C2070 C 0.84036 0.05967 0.73884
 C2071 C 0.80935 0.06182 0.72459
 C2072 C 0.79378 0.09214 0.72168
 C2073 C 0.80963 0.12062 0.73173
 C2074 C 0.84191 0.11828 0.74228
 H2075 H 0.88141 0.08829 0.75509
 H2076 H 0.79610 0.04011 0.71832
 H2077 H 0.76907 0.09313 0.71296
 H2078 H 0.85570 0.13952 0.74901
 C2079 C 0.35006 0.58866 0.22760
 C2080 C 0.33201 0.56100 0.23557
 C2081 C 0.29809 0.56300 0.23734
 C2082 C 0.28265 0.59306 0.23379
 C2083 C 0.30115 0.62127 0.22880
 C2084 C 0.33481 0.61851 0.22428
 H2085 H 0.37628 0.58751 0.22622
 H2086 H 0.28387 0.54188 0.24384
 H2087 H 0.25669 0.59461 0.23749
 H2088 H 0.34961 0.63981 0.22006
 C2089 C 0.30511 0.43667 0.27329
 C2090 C 0.32943 0.44439 0.25062
 C2091 C 0.34069 0.42053 0.22943
 C2092 C 0.32890 0.38889 0.23195
 C2093 C 0.30545 0.38072 0.25556
 C2094 C 0.29297 0.40519 0.27554
 H2095 H 0.29674 0.45470 0.29037
 H2096 H 0.36010 0.42586 0.21243
 H2097 H 0.33856 0.37070 0.21576
 H2098 H 0.27468 0.39977 0.29370
 C2099 C 0.83769 0.92007 0.72683
 C2100 C 0.82521 0.94424 0.74703
 C2101 C 0.79983 0.93659 0.76854
 C2102 C 0.78820 0.90489 0.77101
 C2103 C 0.80218 0.88010 0.75241
 C2104 C 0.82637 0.88824 0.72956
 H2105 H 0.85799 0.92525 0.71087
 H2106 H 0.79059 0.95473 0.78503
 H2107 H 0.76926 0.89956 0.78852
 H2108 H 0.83718 0.86986 0.71436
 C2109 C 0.63800 0.90997 0.23977
 C2110 C 0.65688 0.93816 0.23624
 C2111 C 0.68963 0.93521 0.22763
 C2112 C 0.70384 0.90446 0.22531
 C2113 C 0.68546 0.87630 0.23170
 C2114 C 0.65213 0.87944 0.23774
 H2115 H 0.61246 0.91159 0.24575
 H2116 H 0.70464 0.95656 0.22483
 H2117 H 0.72959 0.90283 0.22035
 H2118 H 0.63714 0.85831 0.24209
 C2119 C 0.13839 0.40772 0.74541
 C2120 C 0.15671 0.43587 0.73936
 C2121 C 0.18885 0.43280 0.72871
 C2122 C 0.20312 0.40208 0.72658
 C2123 C 0.18539 0.37404 0.73505
 C2124 C 0.15257 0.37723 0.74344
 H2125 H 0.11323 0.40938 0.75284
 H2126 H 0.20338 0.45412 0.72382
 H2127 H 0.22845 0.40045 0.71978
 H2128 H 0.13801 0.35620 0.74947
 C2129 C 0.08660 0.72544 0.85115
 C2130 C 0.05891 0.73319 0.83314
 C2131 C 0.06114 0.73558 0.79921
 C2132 C 0.09142 0.73276 0.78377
 C2133 C 0.11960 0.72796 0.80229
 C2134 C 0.11666 0.72293 0.83592
 H2135 H 0.08528 0.72361 0.87738
 H2136 H 0.04001 0.74195 0.78503
 H2137 H 0.09313 0.73677 0.75782
 H2138 H 0.13794 0.71878 0.85070
 C2139 C 0.56180 0.23702 0.29951
 C2140 C 0.55956 0.23602 0.33350
 C2141 C 0.58702 0.22802 0.35177
 C2142 C 0.61694 0.22387 0.33659
 C2143 C 0.61998 0.22750 0.30279
 C2144 C 0.59193 0.23259 0.28414
 H2145 H 0.54083 0.24347 0.28512
 H2146 H 0.58569 0.22717 0.37804
 H2147 H 0.63813 0.21966 0.35150
 H2148 H 0.59373 0.23567 0.25808
 C2149 C 0.56097 0.76655 0.19941
 C2150 C 0.55335 0.74449 0.17471
 C2151 C 0.57695 0.72231 0.16468
 C2152 C 0.60835 0.72372 0.17746
 C2153 C 0.61667 0.74722 0.20070
 C2154 C 0.59223 0.76773 0.21249
 H2155 H 0.54332 0.78443 0.20688
 H2156 H 0.57190 0.70574 0.14504
 H2157 H 0.62646 0.70717 0.16821
 H2158 H 0.59768 0.78592 0.23051
 C2159 C 0.07991 0.22007 0.66336
 C2160 C 0.05620 0.24240 0.67272
 C2161 C 0.06326 0.26460 0.69743
 C2162 C 0.09418 0.26578 0.71122
 C2163 C 0.11880 0.24514 0.70005
 C2164 C 0.11099 0.22149 0.67681
 H2165 H 0.07523 0.20338 0.64372
 H2166 H 0.04548 0.28258 0.70436
 H2167 H 0.09930 0.28407 0.72922
 H2168 H 0.12927 0.20486 0.66808
 C2169 C 0.91058 0.24380 0.63769
 C2170 C 0.93888 0.23952 0.65613
 C2171 C 0.93615 0.23127 0.68904
 C2172 C 0.90549 0.22974 0.70380
 C2173 C 0.87728 0.23651 0.68576
 C2174 C 0.88015 0.24250 0.65234
 H2175 H 0.91209 0.24951 0.61203
 H2176 H 0.95768 0.22789 0.70364
 H2177 H 0.90398 0.22476 0.72959
 H2178 H 0.85892 0.24705 0.63761
 C2179 C 0.40717 0.74297 0.13809
 C2180 C 0.43529 0.73888 0.15689
 C2181 C 0.43214 0.72917 0.18937
 C2182 C 0.40124 0.72626 0.20350
 C2183 C 0.37313 0.73303 0.18526
 C2184 C 0.37648 0.74024 0.15212
 H2185 H 0.40896 0.74971 0.11271
 H2186 H 0.45346 0.72581 0.20427
 H2187 H 0.39947 0.72043 0.22910
 H2188 H 0.35542 0.74497 0.13721
 C2189 C 0.41844 0.22920 0.34363
 C2190 C 0.44261 0.25038 0.33256
 C2191 C 0.43525 0.27296 0.30812
 C2192 C 0.40386 0.27508 0.29564
 C2193 C 0.37907 0.25508 0.30790
 C2194 C 0.38688 0.23160 0.33151
 H2195 H 0.42349 0.21223 0.36308
 H2196 H 0.45349 0.29003 0.29987
 H2197 H 0.39875 0.29317 0.27727
 H2198 H 0.36846 0.21540 0.34102
 C2199 C 0.91778 0.72681 0.84129
 C2200 C 0.94209 0.74797 0.83053
 C2201 C 0.93484 0.77117 0.80665
 C2202 C 0.90338 0.77396 0.79448
 C2203 C 0.87847 0.75401 0.80654
 C2204 C 0.88618 0.72988 0.82951
 H2205 H 0.92274 0.70938 0.86034
 H2206 H 0.95321 0.78824 0.79870
 H2207 H 0.89832 0.79249 0.77654
 H2208 H 0.86766 0.71367 0.83879
   
