data_POSCAR
  _audit_creation_date              2014-09-24
  _audit_creation_method            'ToBaCCo'
  _symmetry_space_group_name_H-M    'P1'
  _symmetry_Int_Tables_number       1
  _symmetry_cell_setting            triclinic
  loop_
  _symmetry_equiv_pos_as_xyz
 x,y,z
_cell_length_a 42.9371
_cell_length_b 43.7318
_cell_length_c 51.6311
_cell_angle_alpha 89.932400
_cell_angle_beta 89.977300
_cell_angle_gamma 90.031200
loop_
  _atom_site_label
  _atom_site_type_symbol
  _atom_site_fract_x
  _atom_site_fract_y
  _atom_site_fract_z
Zr1 Zr 0.24851 0.24852 0.29561
 O2 O 0.27175 0.27232 0.32564
 O3 O 0.21845 0.21996 0.31664
 O4 O 0.21775 0.27656 0.31676
 O5 O 0.30745 0.19560 0.28608
 O6 O 0.19246 0.30433 0.28570
 O7 O 0.27849 0.21984 0.31701
 O8 O 0.19051 0.19567 0.28514
 O9 O 0.20791 0.24981 0.27319
 O10 O 0.24900 0.20892 0.27296
 O11 O 0.25116 0.28942 0.27425
 O12 O 0.29067 0.25007 0.27459
 Zr13 Zr 0.25250 0.25230 0.20538
 Zr14 Zr 0.21168 0.28931 0.25040
 Zr15 Zr 0.28933 0.21139 0.25054
 Zr16 Zr 0.20959 0.21108 0.24971
 O17 O 0.33851 0.21464 0.25021
 O18 O 0.16093 0.21920 0.24830
 O19 O 0.24988 0.21096 0.22649
 O20 O 0.21075 0.25051 0.22668
 O21 O 0.25207 0.29215 0.22779
 O22 O 0.29275 0.25095 0.22813
 C23 C 0.19719 0.20143 0.30893
 C24 C 0.30007 0.20132 0.30973
 C25 C 0.19797 0.29685 0.30935
 O26 O 0.16263 0.28593 0.24772
 O27 O 0.19693 0.30864 0.21502
 O28 O 0.22472 0.28320 0.18407
 C29 C 0.20454 0.30317 0.19137
 O30 O 0.31147 0.30511 0.28668
 Zr31 Zr 0.29139 0.28963 0.25143
 O32 O 0.28226 0.28142 0.18455
 O33 O 0.21617 0.33740 0.25299
 O34 O 0.28435 0.33758 0.25301
 O35 O 0.34037 0.28346 0.25035
 O36 O 0.30740 0.30825 0.21620
 C37 C 0.30143 0.30196 0.19242
 O38 O 0.22787 0.22996 0.17531
 O39 O 0.28484 0.16321 0.25088
 O40 O 0.28125 0.22240 0.18404
 O41 O 0.30515 0.19334 0.21503
 O42 O 0.21481 0.16287 0.25072
 O43 O 0.19309 0.19164 0.21459
 C44 C 0.29965 0.20082 0.19136
 H45 H 0.24893 0.18991 0.28338
 H46 H 0.19242 0.25062 0.21505
 H47 H 0.31214 0.25065 0.21776
 H48 H 0.25146 0.30744 0.28583
 H49 H 0.15034 0.19966 0.25247
 H50 H 0.15437 0.30705 0.24870
 H51 H 0.19484 0.34596 0.25201
 H52 H 0.30454 0.34753 0.24904
 H53 H 0.19407 0.15396 0.25450
 H54 H 0.30623 0.15476 0.25171
 H55 H 0.34661 0.19344 0.24946
 H56 H 0.34989 0.30368 0.24676
 H57 H 0.17515 0.17809 0.21831
 H58 H 0.23616 0.23779 0.15862
 H59 H 0.26362 0.26438 0.34235
 H60 H 0.32580 0.32234 0.28307
 Zr61 Zr 0.75159 0.75159 0.29530
 O62 O 0.72844 0.72780 0.32545
 O63 O 0.78161 0.78028 0.31620
 O64 O 0.78241 0.72365 0.31652
 O65 O 0.69244 0.80425 0.28559
 O66 O 0.80775 0.69586 0.28556
 O67 O 0.72149 0.78021 0.31661
 O68 O 0.80947 0.80456 0.28458
 O69 O 0.79219 0.75034 0.27285
 O70 O 0.75098 0.79112 0.27250
 O71 O 0.74906 0.71062 0.27408
 O72 O 0.70944 0.74982 0.27430
 Zr73 Zr 0.74762 0.74752 0.20506
 Zr74 Zr 0.78854 0.71076 0.25020
 Zr75 Zr 0.71067 0.78845 0.25011
 Zr76 Zr 0.79040 0.78900 0.24923
 O77 O 0.66150 0.78508 0.24980
 O78 O 0.83908 0.78102 0.24780
 O79 O 0.75011 0.78892 0.22603
 O80 O 0.78935 0.74952 0.22634
 O81 O 0.74817 0.70773 0.22762
 O82 O 0.70737 0.74884 0.22785
 C83 C 0.80283 0.79884 0.30840
 C84 C 0.69983 0.79862 0.30927
 C85 C 0.80222 0.70338 0.30918
 O86 O 0.83758 0.71429 0.24753
 O87 O 0.80345 0.69145 0.21488
 O88 O 0.77554 0.71668 0.18385
 C89 C 0.79583 0.69684 0.19121
 O90 O 0.68884 0.69466 0.28659
 Zr91 Zr 0.70883 0.71021 0.25127
 O92 O 0.71788 0.71829 0.18436
 O93 O 0.78418 0.66267 0.25294
 O94 O 0.71605 0.66228 0.25296
 O95 O 0.65984 0.71627 0.25029
 O96 O 0.69276 0.69152 0.21613
 C97 C 0.69869 0.69778 0.19231
 O98 O 0.77216 0.76985 0.17488
 O99 O 0.71502 0.83665 0.25028
 O100 O 0.71880 0.77731 0.18365
 O101 O 0.69483 0.80638 0.21455
 O102 O 0.78500 0.83720 0.25006
 O103 O 0.80683 0.80842 0.21402
 C104 C 0.70036 0.79886 0.19090
 H105 H 0.75099 0.81015 0.28285
 H106 H 0.80769 0.74944 0.21471
 H107 H 0.68797 0.74906 0.21749
 H108 H 0.74881 0.69262 0.28572
 H109 H 0.84962 0.80060 0.25188
 H110 H 0.84591 0.69319 0.24859
 H111 H 0.80554 0.65416 0.25198
 H112 H 0.69590 0.65226 0.24903
 H113 H 0.80571 0.84619 0.25380
 H114 H 0.69361 0.84504 0.25109
 H115 H 0.65334 0.80625 0.24897
 H116 H 0.65035 0.69603 0.24676
 H117 H 0.82472 0.82204 0.21769
 H118 H 0.76388 0.76195 0.15823
 H119 H 0.73654 0.73582 0.34212
 H120 H 0.67457 0.67739 0.28303
 Zr121 Zr 0.75143 0.24823 -0.29546
 O122 O 0.72827 0.27181 -0.32569
 O123 O 0.78148 0.21947 -0.31627
 O124 O 0.78223 0.27609 -0.31682
 O125 O 0.69230 0.19554 -0.28550
 O126 O 0.80757 0.30407 -0.28598
 O127 O 0.72134 0.21945 -0.31663
 O128 O 0.80937 0.19543 -0.28459
 O129 O 0.79204 0.24968 -0.27305
 O130 O 0.75086 0.20883 -0.27251
 O131 O 0.74888 0.28931 -0.27440
 O132 O 0.70929 0.25005 -0.27444
 Zr133 Zr 0.74749 0.25280 -0.20524
 Zr134 Zr 0.78836 0.28937 -0.25056
 Zr135 Zr 0.71055 0.21157 -0.25010
 Zr136 Zr 0.79028 0.21114 -0.24928
 O137 O 0.66138 0.21486 -0.24975
 O138 O 0.83896 0.21921 -0.24792
 O139 O 0.75000 0.21129 -0.22605
 O140 O 0.78922 0.25076 -0.22654
 O141 O 0.74800 0.29247 -0.22796
 O142 O 0.70723 0.25129 -0.22799
 C143 C 0.80273 0.20100 -0.30842
 C144 C 0.69968 0.20106 -0.30920
 C145 C 0.80203 0.29641 -0.30956
 O146 O 0.83741 0.28595 -0.24788
 O147 O 0.80323 0.30895 -0.21534
 O148 O 0.77536 0.28383 -0.18419
 C149 C 0.79562 0.30369 -0.19164
 O150 O 0.68864 0.30510 -0.28692
 Zr151 Zr 0.70866 0.28979 -0.25156
 O152 O 0.71775 0.28211 -0.18463
 O153 O 0.78399 0.33744 -0.25352
 O154 O 0.71584 0.33772 -0.25348
 O155 O 0.65967 0.28365 -0.25049
 O156 O 0.69262 0.30868 -0.21647
 C157 C 0.69857 0.30257 -0.19264
 O158 O 0.77207 0.23069 -0.17499
 O159 O 0.71492 0.16337 -0.25009
 O160 O 0.71871 0.22309 -0.18369
 O161 O 0.69476 0.19381 -0.21446
 O162 O 0.78492 0.16293 -0.24992
 O163 O 0.80673 0.19195 -0.21400
 C164 C 0.70029 0.20147 -0.19085
 H165 H 0.75088 0.18974 -0.28279
 H166 H 0.80756 0.25094 -0.21493
 H167 H 0.68784 0.25110 -0.21761
 H168 H 0.74861 0.30725 -0.28612
 H169 H 0.84951 0.19963 -0.25192
 H170 H 0.84572 0.30705 -0.24905
 H171 H 0.80534 0.34599 -0.25261
 H172 H 0.69568 0.34773 -0.24957
 H173 H 0.80564 0.15396 -0.25364
 H174 H 0.69351 0.15494 -0.25084
 H175 H 0.65323 0.19368 -0.24881
 H176 H 0.65017 0.30389 -0.24703
 H177 H 0.82462 0.17833 -0.21763
 H178 H 0.76380 0.23867 -0.15837
 H179 H 0.73637 0.26371 -0.34233
 H180 H 0.67432 0.32235 -0.28342
 Zr181 Zr 0.24770 0.75288 -0.29555
 O182 O 0.27093 0.72942 -0.32578
 O183 O 0.21767 0.78171 -0.31637
 O184 O 0.21696 0.72499 -0.31691
 O185 O 0.30679 0.80560 -0.28553
 O186 O 0.19158 0.69692 -0.28606
 O187 O 0.27789 0.78178 -0.31668
 O188 O 0.18975 0.80567 -0.28473
 O189 O 0.20704 0.75135 -0.27316
 O190 O 0.24822 0.79222 -0.27259
 O191 O 0.25020 0.71176 -0.27444
 O192 O 0.28979 0.75100 -0.27446
 Zr193 Zr 0.25143 0.74805 -0.20525
 Zr194 Zr 0.21066 0.71161 -0.25062
 Zr195 Zr 0.28847 0.78943 -0.25013
 Zr196 Zr 0.20874 0.78983 -0.24940
 O197 O 0.33764 0.78612 -0.24977
 O198 O 0.16007 0.78173 -0.24811
 O199 O 0.24897 0.78961 -0.22611
 O200 O 0.20976 0.75017 -0.22662
 O201 O 0.25098 0.70844 -0.22797
 O202 O 0.29174 0.74965 -0.22798
 C203 C 0.19640 0.80020 -0.30859
 C204 C 0.29953 0.80020 -0.30928
 C205 C 0.19716 0.70460 -0.30966
 O206 O 0.16161 0.71503 -0.24805
 O207 O 0.19561 0.69199 -0.21538
 O208 O 0.22340 0.71698 -0.18422
 C209 C 0.20309 0.69715 -0.19165
 O210 O 0.31045 0.69593 -0.28687
 Zr211 Zr 0.29037 0.71121 -0.25155
 O212 O 0.28117 0.71870 -0.18461
 O213 O 0.21508 0.66355 -0.25351
 O214 O 0.28317 0.66328 -0.25341
 O215 O 0.33935 0.71739 -0.25048
 O216 O 0.30642 0.69227 -0.21644
 C217 C 0.30043 0.69830 -0.19260
 O218 O 0.22682 0.77008 -0.17501
 O219 O 0.28407 0.83762 -0.25009
 O220 O 0.28019 0.77778 -0.18370
 O221 O 0.30422 0.80710 -0.21447
 O222 O 0.21412 0.83804 -0.25000
 O223 O 0.19217 0.80895 -0.21416
 C224 C 0.29864 0.79941 -0.19086
 H225 H 0.24822 0.81134 -0.28287
 H226 H 0.19139 0.74997 -0.21503
 H227 H 0.31111 0.74983 -0.21759
 H228 H 0.25051 0.69385 -0.28614
 H229 H 0.14952 0.80131 -0.25214
 H230 H 0.15330 0.69393 -0.24921
 H231 H 0.19373 0.65499 -0.25261
 H232 H 0.30332 0.65326 -0.24948
 H233 H 0.19343 0.84703 -0.25378
 H234 H 0.30547 0.84606 -0.25086
 H235 H 0.34579 0.80730 -0.24883
 H236 H 0.34887 0.69716 -0.24700
 H237 H 0.17427 0.82255 -0.21782
 H238 H 0.23507 0.76204 -0.15839
 H239 H 0.26285 0.73759 -0.34241
 H240 H 0.32476 0.67868 -0.28333
 Zr241 Zr 1.25296 1.25297 0.79458
 O242 O 1.22967 1.22952 0.82484
 O243 O 1.28324 1.28171 0.81517
 O244 O 1.28373 1.22503 0.81593
 O245 O 1.19441 1.30624 0.78482
 O246 O 1.30865 1.19674 0.78507
 O247 O 1.22333 1.28205 0.81585
 O248 O 1.31115 1.30556 0.78334
 O249 O 1.29349 1.25127 0.77208
 O250 O 1.25269 1.29238 0.77160
 O251 O 1.24986 1.21194 0.77350
 O252 O 1.21074 1.25151 0.77361
 Zr253 Zr 1.24878 1.24870 0.70440
 Zr254 Zr 1.28934 1.21160 0.74967
 Zr255 Zr 1.21229 1.29006 0.74935
 Zr256 Zr 1.29200 1.28980 0.74824
 O257 O 1.16310 1.28706 0.74909
 O258 O 1.34061 1.28137 0.74688
 O259 O 1.25166 1.29013 0.72520
 O260 O 1.29056 1.25020 0.72562
 O261 O 1.24895 1.20893 0.72702
 O262 O 1.20853 1.25046 0.72714
 C263 C 1.30446 1.30015 0.80716
 C264 C 1.20189 1.30069 0.80849
 C265 C 1.30340 1.20455 0.80868
 O266 O 1.33842 1.21455 0.74689
 O267 O 1.30394 1.19208 0.71443
 O268 O 1.27630 1.21752 0.68333
 C269 C 1.29639 1.19755 0.69078
 O270 O 1.18946 1.19637 0.78587
 Zr271 Zr 1.20962 1.21185 0.75060
 O272 O 1.21870 1.21999 0.68361
 O273 O 1.28446 1.16358 0.75264
 O274 O 1.21645 1.16386 0.75219
 O275 O 1.16069 1.21841 0.74975
 O276 O 1.19324 1.19344 0.71532
 C277 C 1.19923 1.19971 0.69149
 O278 O 1.27368 1.27056 0.67417
 O279 O 1.21696 1.33824 0.74950
 O280 O 1.22055 1.27893 0.68293
 O281 O 1.19681 1.30823 0.71379
 O282 O 1.28713 1.33806 0.74877
 O283 O 1.30854 1.30869 0.71286
 C284 C 1.20242 1.30073 0.69016
 H285 H 1.25290 1.31150 0.78184
 H286 H 1.30889 1.24990 0.71399
 H287 H 1.18915 1.25092 0.71677
 H288 H 1.24947 1.19401 0.78522
 H289 H 1.35133 1.30091 0.75075
 H290 H 1.34650 1.19337 0.74798
 H291 H 1.30572 1.15484 0.75163
 H292 H 1.19624 1.15402 0.74814
 H293 H 1.30798 1.34688 0.75227
 H294 H 1.19561 1.34679 0.75026
 H295 H 1.15512 1.30829 0.74818
 H296 H 1.15099 1.19830 0.74610
 H297 H 1.32661 1.32212 0.71638
 H298 H 1.26529 1.26275 0.65753
 H299 H 1.23788 1.23756 0.84146
 H300 H 1.17513 1.17915 0.78227
 Zr301 Zr 0.74716 0.74738 0.79479
 O302 O 0.77047 0.77106 0.82485
 O303 O 0.71694 0.71877 0.81563
 O304 O 0.71638 0.77544 0.81600
 O305 O 0.80571 0.69407 0.78531
 O306 O 0.69139 0.80349 0.78499
 O307 O 0.77683 0.71847 0.81621
 O308 O 0.68901 0.69469 0.78400
 O309 O 0.70660 0.74888 0.77235
 O310 O 0.74743 0.70780 0.77209
 O311 O 0.75020 0.78826 0.77343
 O312 O 0.78935 0.74870 0.77375
 Zr313 Zr 0.75121 0.75098 0.70459
 Zr314 Zr 0.71069 0.78840 0.74967
 Zr315 Zr 0.78780 0.70997 0.74976
 Zr316 Zr 0.70808 0.71019 0.74877
 O317 O 0.83698 0.71300 0.74942
 O318 O 0.65947 0.71856 0.74742
 O319 O 0.74839 0.70970 0.72567
 O320 O 0.70947 0.74963 0.72588
 O321 O 0.75105 0.79091 0.72693
 O322 O 0.79150 0.74942 0.72728
 C323 C 0.69573 0.70027 0.80777
 C324 C 0.79826 0.69979 0.80895
 C325 C 0.69668 0.79584 0.80865
 O326 O 0.66161 0.78541 0.74698
 O327 O 0.69606 0.80764 0.71430
 O328 O 0.72367 0.78199 0.68334
 C329 C 0.70358 0.80199 0.69068
 O330 O 0.81060 0.80392 0.78560
 Zr331 Zr 0.79040 0.78820 0.75047
 O332 O 0.78124 0.77953 0.68356
 O333 O 0.71554 0.83644 0.75228
 O334 O 0.78354 0.83619 0.75171
 O335 O 0.83934 0.78170 0.74960
 O336 O 0.80673 0.80632 0.71504
 C337 C 0.80071 0.79986 0.69127
 O338 O 0.72628 0.72887 0.67457
 O339 O 0.78314 0.66179 0.75024
 O340 O 0.77947 0.72064 0.68328
 O341 O 0.80330 0.69159 0.71430
 O342 O 0.71296 0.66194 0.74965
 O343 O 0.69153 0.69104 0.71354
 C344 C 0.79766 0.69893 0.69063
 H345 H 0.74724 0.68875 0.78246
 H346 H 0.69112 0.74984 0.71428
 H347 H 0.81087 0.74890 0.71689
 H348 H 0.75059 0.80627 0.78503
 H349 H 0.64877 0.69904 0.75144
 H350 H 0.65352 0.80660 0.74791
 H351 H 0.69428 0.84516 0.75124
 H352 H 0.80374 0.84601 0.74755
 H353 H 0.69212 0.65313 0.75323
 H354 H 0.80449 0.65326 0.75103
 H355 H 0.84498 0.69177 0.74866
 H356 H 0.84901 0.80179 0.74580
 H357 H 0.67347 0.67762 0.71718
 H358 H 0.73464 0.73656 0.65786
 H359 H 0.76229 0.76313 0.84154
 H360 H 0.82487 0.82117 0.78187
 Zr361 Zr 1.25296 0.74713 0.20534
 O362 O 1.22972 0.77075 0.17517
 O363 O 1.28312 0.71840 0.18462
 O364 O 1.28380 0.77508 0.18404
 O365 O 1.19428 0.69390 0.21498
 O366 O 1.30881 0.80321 0.21494
 O367 O 1.22326 0.71818 0.18401
 O368 O 1.31096 0.69435 0.21636
 O369 O 1.29350 0.74868 0.22780
 O370 O 1.25258 0.70763 0.22820
 O371 O 1.24998 0.78809 0.22653
 O372 O 1.21074 0.74859 0.22634
 Zr373 Zr 1.24883 0.75107 0.29551
 Zr374 Zr 1.28948 0.78827 0.25032
 Zr375 Zr 1.21219 0.70994 0.25048
 Zr376 Zr 1.29192 0.71006 0.25152
 O377 O 1.16301 0.71303 0.25079
 O378 O 1.34055 0.71842 0.25282
 O379 O 1.25158 0.70972 0.27460
 O380 O 1.29059 0.74957 0.27426
 O381 O 1.24910 0.79093 0.27301
 O382 O 1.20856 0.74946 0.27281
 C383 C 1.30427 0.69986 0.19256
 C384 C 1.20179 0.69953 0.19132
 C385 C 1.30353 0.79549 0.19132
 O386 O 1.33854 0.78525 0.25306
 O387 O 1.30413 0.80763 0.28561
 O388 O 1.27642 0.78212 0.31665
 C389 C 1.29656 0.80207 0.30925
 O390 O 1.18964 0.80384 0.21426
 Zr391 Zr 1.20975 0.78817 0.24947
 O392 O 1.21882 0.77972 0.31642
 O393 O 1.28474 0.83631 0.24749
 O394 O 1.21673 0.83615 0.24803
 O395 O 1.16080 0.78169 0.25032
 O396 O 1.19340 0.80643 0.28482
 C397 C 1.19939 0.80005 0.30863
 O398 O 1.27369 0.72904 0.32565
 O399 O 1.21672 0.66175 0.25022
 O400 O 1.22053 0.72082 0.31692
 O401 O 1.19668 0.69168 0.28601
 O402 O 1.28692 0.66181 0.25090
 O403 O 1.30844 0.69102 0.28684
 C404 C 1.20233 0.69909 0.30965
 H405 H 1.25273 0.68855 0.21791
 H406 H 1.30893 0.74980 0.28587
 H407 H 1.18918 0.74899 0.28319
 H408 H 1.24964 0.80606 0.21485
 H409 H 1.35122 0.69888 0.24889
 H410 H 1.34668 0.80643 0.25201
 H411 H 1.30602 0.84501 0.24850
 H412 H 1.19655 0.84600 0.25213
 H413 H 1.30774 0.65296 0.24736
 H414 H 1.19534 0.65324 0.24945
 H415 H 1.15497 0.69181 0.25165
 H416 H 1.15116 0.80180 0.25403
 H417 H 1.32650 0.67761 0.28326
 H418 H 1.26534 0.73680 0.34232
 H419 H 1.23790 0.76277 0.15852
 H420 H 1.17536 0.82107 0.21792
 Zr421 Zr 0.74763 1.25276 0.20512
 O422 O 0.77092 1.22943 0.17486
 O423 O 0.71741 1.28162 0.18450
 O424 O 0.71686 1.22486 0.18371
 O425 O 0.80632 1.30594 0.21503
 O426 O 0.69182 1.19650 0.21454
 O427 O 0.77744 1.28192 0.18392
 O428 O 0.68952 1.30538 0.21632
 O429 O 0.70705 1.25101 0.22757
 O430 O 0.74795 1.29207 0.22813
 O431 O 0.75058 1.21165 0.22621
 O432 O 0.78979 1.25114 0.22617
 Zr433 Zr 0.75159 1.24808 0.29537
 Zr434 Zr 0.71104 1.21124 0.24998
 Zr435 Zr 0.78829 1.28960 0.25046
 Zr436 Zr 0.70858 1.28945 0.25144
 O437 O 0.83747 1.28651 0.25078
 O438 O 0.65995 1.28107 0.25272
 O439 O 0.74887 1.28960 0.27456
 O440 O 0.70988 1.24976 0.27406
 O441 O 0.75137 1.20841 0.27271
 O442 O 0.79189 1.24991 0.27266
 C443 C 0.69620 1.30005 0.19250
 C444 C 0.79891 1.30051 0.19132
 C445 C 0.69714 1.20436 0.19093
 O446 O 0.66196 1.21427 0.25264
 O447 O 0.69620 1.19164 0.28520
 O448 O 0.72385 1.21687 0.31637
 C449 C 0.70368 1.19699 0.30889
 O450 O 0.81093 1.19595 0.21394
 Zr451 Zr 0.79076 1.21139 0.24918
 O452 O 0.78160 1.21925 0.31617
 O453 O 0.71582 1.16322 0.24704
 O454 O 0.78378 1.16342 0.24758
 O455 O 0.83970 1.21792 0.25005
 O456 O 0.80711 1.19286 0.28446
 C457 C 0.80110 1.19903 0.30830
 O458 O 0.72672 1.26987 0.32560
 O459 O 0.78372 1.33779 0.25037
 O460 O 0.77987 1.27824 0.31688
 O461 O 0.80376 1.30760 0.28606
 O462 O 0.71361 1.33769 0.25096
 O463 O 0.69201 1.30824 0.28680
 C464 C 0.79808 1.30004 0.30969
 H465 H 0.74781 1.31123 0.21791
 H466 H 0.69152 1.24945 0.28565
 H467 H 0.81125 1.25031 0.28306
 H468 H 0.75096 1.19376 0.21448
 H469 H 0.64928 1.30064 0.24886
 H470 H 0.65382 1.19311 0.25151
 H471 H 0.69454 1.15451 0.24799
 H472 H 0.80395 1.15353 0.25166
 H473 H 0.69281 1.34658 0.24742
 H474 H 0.80509 1.34632 0.24964
 H475 H 0.84551 1.30772 0.25174
 H476 H 0.84937 1.19780 0.25371
 H477 H 0.67398 1.32172 0.28326
 H478 H 0.73506 1.26196 0.34223
 H479 H 0.76276 1.23756 0.15824
 H480 H 0.82522 1.17871 0.21756
 N481 N 0.55542 1.03217 0.02798
 N482 N 0.57741 1.05220 0.03378
 N483 N 0.53355 0.96789 0.04586
 N484 N 0.54032 0.94814 0.06437
 N485 N 0.55530 0.96785 0.02794
 N486 N 0.57746 0.94808 0.03385
 N487 N 0.53358 1.03218 0.04583
 N488 N 0.54011 1.05220 0.06416
 C489 C 0.56717 1.06483 0.05614
 C490 C 0.56741 0.93562 0.05634
 N491 N 0.44448 0.96792 0.02807
 N492 N 0.42260 0.94775 0.03385
 N493 N 0.46634 1.03218 0.04589
 N494 N 0.45955 1.05183 0.06445
 N495 N 0.44454 1.03223 0.02803
 N496 N 0.42233 1.05190 0.03402
 N497 N 0.46635 0.96791 0.04588
 N498 N 0.45996 0.94774 0.06417
 Mn499 Mn 0.49995 1.00004 0.04604
 C500 C 0.43294 0.93505 0.05615
 C501 C 0.43239 1.06430 0.05650
 N502 N 0.55524 0.96781 -0.02813
 N503 N 0.57718 0.94776 -0.03399
 N504 N 0.53356 1.03214 -0.04595
 N505 N 0.54030 1.05199 -0.06441
 N506 N 0.55534 1.03212 -0.02808
 N507 N 0.57748 1.05195 -0.03394
 N508 N 0.53337 0.96786 -0.04594
 N509 N 0.53982 0.94786 -0.06430
 Mn510 Mn 0.55560 0.99999 -0.00007
 C511 C 0.56686 0.93517 -0.05634
 C512 C 0.56740 1.06450 -0.05637
 N513 N 0.44452 1.03234 -0.02805
 N514 N 0.42264 1.05248 -0.03384
 N515 N 0.46613 0.96801 -0.04591
 N516 N 0.45923 0.94835 -0.06443
 N517 N 0.44437 0.96802 -0.02800
 N518 N 0.42208 0.94838 -0.03392
 N519 N 0.46636 1.03229 -0.04591
 N520 N 0.45994 1.05239 -0.06424
 Mn521 Mn 0.44421 1.00013 0.00001
 Mn522 Mn 0.49986 1.00007 -0.04610
 Cl523 Cl 0.49990 1.00006 -0.00003
 C524 C 0.43295 1.06511 -0.05620
 C525 C 0.43205 0.93594 -0.05642
 N526 N 1.03258 0.46713 0.45402
 N527 N 1.05229 0.46018 0.43529
 N528 N 0.96727 0.44563 0.47204
 N529 N 0.94713 0.42384 0.46625
 N530 N 0.96716 0.46702 0.45414
 N531 N 0.94694 0.46035 0.43574
 N532 N 1.03269 0.44582 0.47198
 N533 N 1.05245 0.42383 0.46593
 C534 C 1.06489 0.43349 0.44331
 C535 C 0.93428 0.43371 0.44384
 N536 N 0.96744 0.46683 0.54592
 N537 N 0.94760 0.45980 0.56453
 N538 N 1.03286 0.44581 0.52789
 N539 N 1.05322 0.42420 0.53362
 N540 N 1.03285 0.46714 0.54579
 N541 N 1.05319 0.46062 0.56414
 N542 N 0.96747 0.44558 0.52794
 N543 N 0.94766 0.42355 0.53388
 Mn544 Mn 1.00007 0.44547 0.49997
 C545 C 0.93507 0.43313 0.55643
 C546 C 1.06605 0.43413 0.55599
 N547 N 0.96706 0.53300 0.45416
 N548 N 0.94729 0.54001 0.43550
 N549 N 1.03243 0.55442 0.47202
 N550 N 1.05281 0.57605 0.46632
 N551 N 1.03247 0.53309 0.45411
 N552 N 1.05286 0.53962 0.43579
 N553 N 0.96704 0.55427 0.47212
 N554 N 0.94726 0.57628 0.46613
 Mn555 Mn 0.99982 0.50007 0.45391
 C556 C 0.93473 0.56667 0.44355
 C557 C 1.06569 0.56612 0.44396
 N558 N 1.03258 0.53315 0.54589
 N559 N 1.05225 0.54029 0.56458
 N560 N 0.96705 0.55417 0.52804
 N561 N 0.94675 0.57579 0.53387
 N562 N 0.96715 0.53279 0.54594
 N563 N 0.94693 0.53928 0.56439
 N564 N 1.03247 0.55445 0.52792
 N565 N 1.05205 0.57663 0.53394
 Mn566 Mn 1.00001 0.49997 0.54608
 Mn567 Mn 0.99974 0.55457 0.50002
 Cl568 Cl 0.99991 0.50002 0.49999
 C569 C 1.06461 0.56710 0.55654
 C570 C 0.93404 0.56581 0.55631
 N571 N 1.03334 0.44607 0.02758
 N572 N 1.05344 0.42426 0.03354
 N573 N 0.96798 0.46767 0.04551
 N574 N 0.94821 0.46082 0.06424
 N575 N 0.96784 0.44629 0.02763
 N576 N 0.94798 0.42435 0.03379
 N577 N 1.03346 0.46751 0.04540
 N578 N 1.05362 0.46088 0.06387
 C579 C 1.06626 0.43419 0.05595
 C580 C 0.93553 0.43411 0.05638
 N581 N 0.96833 0.55519 0.02755
 N582 N 0.94819 0.57695 0.03349
 N583 N 1.03370 0.53352 0.04528
 N584 N 1.05370 0.54023 0.06384
 N585 N 1.03383 0.55489 0.02735
 N586 N 1.05388 0.57670 0.03331
 N587 N 0.96824 0.53373 0.04540
 N588 N 0.94806 0.54031 0.06387
 Mn589 Mn 1.00084 0.50061 0.04556
 C590 C 0.93539 0.56699 0.05593
 C591 C 1.06647 0.56684 0.05582
 N592 N 0.96773 0.44634 -0.02849
 N593 N 0.94746 0.42468 -0.03442
 N594 N 1.03330 0.46750 -0.04641
 N595 N 1.05331 0.46069 -0.06494
 N596 N 1.03321 0.44612 -0.02849
 N597 N 1.05316 0.42422 -0.03441
 N598 N 0.96784 0.46778 -0.04637
 N599 N 0.94765 0.46127 -0.06485
 Mn600 Mn 1.00053 0.44596 -0.00045
 C601 C 0.93477 0.43468 -0.05688
 C602 C 1.06587 0.43400 -0.05690
 N603 N 1.03383 0.55503 -0.02879
 N604 N 1.05377 0.57691 -0.03503
 N605 N 0.96821 0.53379 -0.04640
 N606 N 0.94804 0.54051 -0.06483
 N607 N 0.96832 0.55515 -0.02851
 N608 N 0.94824 0.57697 -0.03435
 N609 N 1.03370 0.53358 -0.04661
 N610 N 1.05353 0.54030 -0.06533
 Mn611 Mn 1.00108 0.55532 -0.00060
 Mn612 Mn 1.00076 0.50065 -0.04661
 Cl613 Cl 1.00081 0.50064 -0.00052
 C614 C 1.06627 0.56704 -0.05760
 C615 C 0.93542 0.56714 -0.05676
 N616 N 0.55476 1.03163 0.52829
 N617 N 0.57681 1.05158 0.53410
 N618 N 0.53329 0.96727 0.54620
 N619 N 0.54035 0.94762 0.56470
 N620 N 0.55496 0.96740 0.52821
 N621 N 0.57733 0.94786 0.53404
 N622 N 0.53303 1.03150 0.54622
 N623 N 0.53970 1.05135 0.56465
 C624 C 0.56671 1.06403 0.55656
 C625 C 0.56749 0.93534 0.55654
 N626 N 0.44419 0.96685 0.52867
 N627 N 0.42190 0.94726 0.53483
 N628 N 0.46583 1.03116 0.54640
 N629 N 0.45888 1.05075 0.56495
 N630 N 0.44406 1.03110 0.52851
 N631 N 0.42174 1.05064 0.53445
 N632 N 0.46604 0.96691 0.54649
 N633 N 0.45920 0.94737 0.56517
 Mn634 Mn 0.49956 0.99921 0.54651
 C635 C 0.43196 0.93491 0.55736
 C636 C 0.43169 1.06307 0.55692
 N637 N 0.55487 0.96739 0.47226
 N638 N 0.57703 0.94762 0.46636
 N639 N 0.53293 1.03158 0.45439
 N640 N 0.54002 1.05088 0.43560
 N641 N 0.55470 1.03166 0.47228
 N642 N 0.57716 1.05100 0.46609
 N643 N 0.53303 0.96732 0.45445
 N644 N 0.53972 0.94751 0.43600
 Mn645 Mn 0.55508 0.99953 0.50027
 C646 C 0.56687 0.93506 0.44397
 C647 C 0.56729 1.06321 0.44347
 N648 N 0.44394 1.03124 0.47256
 N649 N 0.42184 1.05115 0.46681
 N650 N 0.46583 0.96714 0.45466
 N651 N 0.45885 0.94762 0.43607
 N652 N 0.44416 0.96701 0.47264
 N653 N 0.42187 0.94740 0.46672
 N654 N 0.46570 1.03137 0.45465
 N655 N 0.45900 1.05135 0.43631
 Mn656 Mn 0.44383 0.99904 0.50059
 Mn657 Mn 0.49936 0.99935 0.45436
 Cl658 Cl 0.49946 0.99928 0.50043
 C659 C 0.43194 1.06383 0.44442
 C660 C 0.43176 0.93512 0.44417
 N661 N 1.05584 1.03126 0.52844
 N662 N 1.07783 1.05125 0.53419
 N663 N 1.03367 0.96712 0.54630
 N664 N 1.04004 0.94717 0.56473
 N665 N 1.05559 0.96703 0.52853
 N666 N 1.07750 0.94701 0.53447
 N667 N 1.03397 1.03133 0.54624
 N668 N 1.04045 1.05136 0.56454
 C669 C 1.06751 1.06392 0.55646
 C670 C 1.06708 0.93448 0.55682
 N671 N 0.94493 0.96756 0.52811
 N672 N 0.92295 0.94747 0.53368
 N673 N 0.96694 1.03164 0.54606
 N674 N 0.96057 1.05175 0.56433
 N675 N 0.94518 1.03177 0.52818
 N676 N 0.92337 1.05198 0.53386
 N677 N 0.96664 0.96745 0.54603
 N678 N 0.96008 0.94727 0.56423
 Mn679 Mn 1.00030 0.99938 0.54636
 C680 C 0.93314 0.93469 0.55597
 C681 C 0.93369 1.06456 0.55618
 N682 N 1.05576 0.96714 0.47259
 N683 N 1.07771 0.94712 0.46685
 N684 N 1.03425 1.03146 0.45470
 N685 N 1.04060 1.05181 0.43659
 N686 N 1.05602 1.03136 0.47257
 N687 N 1.07784 1.05165 0.46704
 N688 N 1.03403 0.96727 0.45468
 N689 N 1.04058 0.94733 0.43633
 Mn690 Mn 1.05611 0.99919 0.50053
 C691 C 1.06750 0.93462 0.44447
 C692 C 1.06750 1.06451 0.44481
 N693 N 0.94537 1.03180 0.47226
 N694 N 0.92336 1.05170 0.46631
 N695 N 0.96701 0.96750 0.45449
 N696 N 0.96063 0.94740 0.43622
 N697 N 0.94510 0.96758 0.47225
 N698 N 0.92316 0.94751 0.46648
 N699 N 0.96723 1.03171 0.45445
 N700 N 0.96071 1.05154 0.43596
 Mn701 Mn 0.94484 0.99968 0.50020
 Mn702 Mn 1.00064 0.99949 0.45438
 Cl703 Cl 1.00047 0.99943 0.50037
 C704 C 0.93366 1.06417 0.44392
 C705 C 0.93357 0.93480 0.44424
 N706 N 0.55477 0.46715 0.02730
 N707 N 0.57617 0.46096 0.04487
 N708 N 0.53352 0.44604 -0.02712
 N709 N 0.53979 0.42498 -0.04462
 N710 N 0.55514 0.46729 -0.02702
 N711 N 0.57675 0.46128 -0.04446
 N712 N 0.53309 0.44596 0.02719
 N713 N 0.53909 0.42477 0.04467
 C714 C 0.56572 0.43474 0.05571
 C715 C 0.56653 0.43511 -0.05543
 N716 N 0.44483 0.46716 -0.02750
 N717 N 0.42353 0.46105 -0.04517
 N718 N 0.46612 0.44594 0.02688
 N719 N 0.45992 0.42485 0.04443
 N720 N 0.44446 0.46713 0.02679
 N721 N 0.42290 0.46107 0.04427
 N722 N 0.46655 0.44603 -0.02739
 N723 N 0.46068 0.42496 -0.04497
 Mn724 Mn 0.49981 0.44570 -0.00011
 C725 C 0.43409 0.43495 -0.05605
 C726 C 0.43320 0.43492 0.05526
 N727 N 0.55501 0.53309 -0.02699
 N728 N 0.57648 0.53919 -0.04454
 N729 N 0.53306 0.55419 0.02719
 N730 N 0.53919 0.57537 0.04465
 N731 N 0.55470 0.53298 0.02729
 N732 N 0.57616 0.53912 0.04482
 N733 N 0.53328 0.55421 -0.02708
 N734 N 0.53931 0.57527 -0.04467
 Mn735 Mn 0.55522 0.50013 0.00015
 C736 C 0.56601 0.56527 -0.05554
 C737 C 0.56583 0.56532 0.05565
 N738 N 0.44438 0.53294 0.02680
 N739 N 0.42288 0.53896 0.04433
 N740 N 0.46630 0.55425 -0.02741
 N741 N 0.46008 0.57552 -0.04481
 N742 N 0.44469 0.53299 -0.02752
 N743 N 0.42315 0.53919 -0.04498
 N744 N 0.46608 0.55411 0.02689
 N745 N 0.46001 0.57512 0.04446
 Mn746 Mn 0.44427 0.50005 -0.00036
 Mn747 Mn 0.49968 0.55448 -0.00010
 Cl748 Cl 0.49975 0.50009 -0.00011
 C749 C 0.43329 0.56506 0.05533
 C750 C 0.43340 0.56549 -0.05578
 C751 C 0.34824 1.15159 0.13694
 C752 C 0.35378 1.11855 0.14585
 C753 C 0.37069 1.10162 0.12878
 C754 C 0.38047 1.11933 0.10440
 C755 C 0.39782 1.14759 0.11454
 C756 C 0.38088 1.16454 0.13163
 C757 C 0.33299 1.14874 0.11015
 C758 C 0.34994 1.13177 0.09303
 C759 C 0.33021 1.16962 0.15568
 C760 C 0.31592 1.18403 0.17167
 C761 C 0.39885 1.10070 0.08632
 C762 C 0.41411 1.08457 0.07225
 H763 H 0.34515 1.10925 0.16399
 H764 H 0.37652 1.07783 0.13231
 H765 H 0.42130 1.15377 0.10876
 H766 H 0.38988 1.18524 0.14048
 H767 H 0.31087 1.15915 0.10506
 H768 H 0.34234 1.12765 0.07329
 C769 C 0.84550 0.64902 0.63634
 C770 C 0.85842 0.61932 0.64797
 C771 C 0.87545 0.60245 0.63095
 C772 C 0.87794 0.61689 0.60392
 C773 C 0.89112 0.64906 0.60859
 C774 C 0.87407 0.66594 0.62562
 C775 C 0.82705 0.63896 0.61232
 C776 C 0.84414 0.62204 0.59526
 C777 C 0.82751 0.66712 0.65501
 C778 C 0.81349 0.68178 0.67097
 C779 C 0.89677 0.59866 0.58593
 C780 C 0.91324 0.58364 0.57195
 H781 H 0.85449 0.61214 0.66784
 H782 H 0.88611 0.58082 0.63625
 H783 H 0.91197 0.65783 0.59929
 H784 H 0.88032 0.68917 0.63090
 H785 H 0.80277 0.64463 0.60901
 H786 H 0.83449 0.61322 0.57733
 C787 C 0.65166 0.84803 0.13650
 C788 C 0.64251 0.83054 0.11185
 C789 C 0.62551 0.84755 0.09478
 C790 C 0.61935 0.88036 0.10404
 C791 C 0.65171 0.89370 0.10976
 C792 C 0.66868 0.87672 0.12681
 C793 C 0.62081 0.85980 0.14769
 C794 C 0.60385 0.87676 0.13066
 C795 C 0.66975 0.82998 0.15519
 C796 C 0.68407 0.81558 0.17118
 C797 C 0.60094 0.89904 0.08603
 C798 C 0.58567 0.91524 0.07202
 H799 H 0.64884 0.80692 0.10814
 H800 H 0.61728 0.83850 0.07645
 H801 H 0.66054 0.91464 0.10113
 H802 H 0.69204 0.88311 0.13278
 H803 H 0.61294 0.85518 0.16730
 H804 H 0.58146 0.88666 0.13569
 C805 C 1.15468 0.35063 0.63579
 C806 C 1.12845 0.36900 0.64862
 C807 C 1.11142 0.38592 0.63163
 C808 C 1.12224 0.38288 0.60342
 C809 C 1.12146 0.34842 0.59781
 C810 C 1.13853 0.33146 0.61483
 C811 C 1.17402 0.37438 0.62086
 C812 C 1.15694 0.39135 0.60382
 C813 C 1.17264 0.33249 0.65444
 C814 C 1.18663 0.31783 0.67043
 C815 C 1.10341 0.40118 0.58547
 C816 C 1.08691 0.41625 0.57154
 H817 H 1.12366 0.36874 0.66927
 H818 H 1.09206 0.40016 0.63774
 H819 H 1.10870 0.33824 0.58184
 H820 H 1.14038 0.30675 0.61345
 H821 H 1.19890 0.37755 0.62341
 H822 H 1.16720 0.40906 0.59178
 C823 C 0.65164 1.15236 -0.13636
 C824 C 0.63553 1.12471 -0.14879
 C825 C 0.61856 1.10771 -0.13178
 C826 C 0.61931 1.11996 -0.10395
 C827 C 0.60836 1.15328 -0.10607
 C828 C 0.62537 1.17032 -0.12312
 C829 C 0.67104 1.13902 -0.11408
 C830 C 0.65404 1.12198 -0.09703
 C831 C 0.66973 1.17043 -0.15505
 C832 C 0.68403 1.18481 -0.17107
 C833 C 0.60090 1.10123 -0.08597
 C834 C 0.58563 1.08496 -0.07199
 H835 H 0.63729 1.11897 -0.16920
 H836 H 0.60580 1.08742 -0.13763
 H837 H 0.58902 1.16268 -0.09513
 H838 H 0.62058 1.19432 -0.12677
 H839 H 0.69591 1.14268 -0.11186
 H840 H 0.66435 1.11104 -0.08021
 C841 C 1.15452 0.64932 0.36407
 C842 C 1.13807 0.62185 0.35165
 C843 C 1.12101 0.60500 0.36870
 C844 C 1.12203 0.61722 0.39653
 C845 C 1.11144 0.65066 0.39446
 C846 C 1.12852 0.66753 0.37740
 C847 C 1.17390 0.63575 0.38629
 C848 C 1.15679 0.61885 0.40338
 C849 C 1.17251 0.66738 0.34537
 C850 C 1.18652 0.68200 0.32936
 C851 C 1.10316 0.59901 0.41452
 C852 C 1.08662 0.58398 0.42845
 H853 H 1.13971 0.61611 0.33124
 H854 H 1.10804 0.58482 0.36289
 H855 H 1.09226 0.66026 0.40548
 H856 H 1.12397 0.69159 0.37380
 H857 H 1.19881 0.63915 0.38841
 H858 H 1.16703 0.60776 0.42015
 C859 C 0.34739 0.84847 -0.13641
 C860 C 0.38201 0.83972 -0.13557
 C861 C 0.39904 0.85670 -0.11858
 C862 C 0.37983 0.88080 -0.10405
 C863 C 0.35321 0.86283 -0.09123
 C864 C 0.33615 0.84583 -0.10825
 C865 C 0.34711 0.88286 -0.14234
 C866 C 0.36412 0.89983 -0.12536
 C867 C 0.32925 0.83042 -0.15507
 C868 C 0.31491 0.81605 -0.17107
 C869 C 0.39833 0.89948 -0.08608
 C870 C 0.41368 0.91564 -0.07209
 H871 H 0.39223 0.82171 -0.14726
 H872 H 0.42384 0.85323 -0.11572
 H873 H 0.34822 0.86340 -0.07062
 H874 H 0.31655 0.83183 -0.10221
 H875 H 0.33458 0.89302 -0.15846
 H876 H 0.36616 0.92451 -0.12696
 C877 C 0.84588 0.34989 0.36407
 C878 C 0.88037 0.34081 0.36519
 C879 C 0.89739 0.35778 0.38215
 C880 C 0.87831 0.38221 0.39639
 C881 C 0.85140 0.36462 0.40919
 C882 C 0.83433 0.34761 0.39217
 C883 C 0.84598 0.38423 0.35789
 C884 C 0.86301 0.40121 0.37487
 C885 C 0.82791 0.33172 0.34543
 C886 C 0.81389 0.31707 0.32945
 C887 C 0.89711 0.40057 0.41433
 C888 C 0.91354 0.41571 0.42826
 H889 H 0.89053 0.32260 0.35368
 H890 H 0.92213 0.35408 0.38517
 H891 H 0.84622 0.36546 0.42975
 H892 H 0.81453 0.33387 0.39817
 H893 H 0.83369 0.39435 0.34163
 H894 H 0.86530 0.42585 0.37315
 C895 C 1.15617 0.35261 0.13672
 C896 C 1.12130 0.35328 0.14323
 C897 C 1.10394 0.36966 0.12606
 C898 C 1.12306 0.38385 0.10397
 C899 C 1.14046 0.35686 0.09164
 C900 C 1.15787 0.34044 0.10886
 C901 C 1.16579 0.38635 0.13472
 C902 C 1.14840 0.40276 0.11753
 C903 C 1.17452 0.33492 0.15558
 C904 C 1.18870 0.32043 0.17164
 C905 C 1.10385 0.40162 0.08578
 C906 C 1.08719 0.41638 0.07166
 H907 H 1.11111 0.34186 0.15988
 H908 H 1.07890 0.37224 0.12803
 H909 H 1.13926 0.35118 0.07120
 H910 H 1.17157 0.32071 0.10315
 H911 H 1.18466 0.39646 0.14580
 H912 H 1.15238 0.42690 0.11389
 C913 C 0.65459 0.85069 0.63645
 C914 C 0.62083 0.85535 0.64538
 C915 C 0.60323 0.87172 0.62839
 C916 C 0.62110 0.88185 0.60412
 C917 C 0.63437 0.85227 0.59255
 C918 C 0.65201 0.83585 0.60958
 C919 C 0.66713 0.88300 0.63136
 C920 C 0.64952 0.89938 0.61436
 C921 C 0.67318 0.83320 0.65506
 C922 C 0.68761 0.81895 0.67102
 C923 C 0.60201 0.89983 0.58619
 C924 C 0.58620 0.91550 0.57222
 H925 H 0.61153 0.84652 0.66347
 H926 H 0.57887 0.87691 0.63192
 H927 H 0.63031 0.84489 0.57277
 H928 H 0.66308 0.81440 0.60439
 H929 H 0.68804 0.89217 0.64027
 H930 H 0.65534 0.92262 0.60871
 C931 C 1.15587 0.64899 -0.13891
 C932 C 1.13659 0.62344 -0.15148
 C933 C 1.11924 0.60699 -0.13430
 C934 C 1.12275 0.61760 -0.10611
 C935 C 1.11474 0.65182 -0.10665
 C936 C 1.13211 0.66828 -0.12385
 C937 C 1.17533 0.63288 -0.11799
 C938 C 1.15793 0.61639 -0.10076
 C939 C 1.17426 0.66679 -0.15780
 C940 C 1.18851 0.68138 -0.17384
 C941 C 1.10356 0.59974 -0.08783
 C942 C 1.08700 0.58492 -0.07358
 H943 H 1.13660 0.61864 -0.17211
 H944 H 1.10442 0.58814 -0.14025
 H945 H 1.09702 0.66223 -0.09453
 H946 H 1.12923 0.69276 -0.12643
 H947 H 1.20053 0.63431 -0.11680
 H948 H 1.16826 0.60373 -0.08485
 C949 C 0.65440 1.14779 0.36295
 C950 C 0.63585 1.12185 0.35021
 C951 C 0.61827 1.10541 0.36720
 C952 C 0.62091 1.11647 0.39532
 C953 C 0.61238 1.15053 0.39438
 C954 C 0.62999 1.16700 0.37736
 C955 C 0.67354 1.13225 0.38434
 C956 C 0.65593 1.11577 0.40137
 C957 C 0.67304 1.16542 0.34433
 C958 C 0.68755 1.17982 0.32844
 C959 C 0.60181 1.09844 0.41334
 C960 C 0.58601 1.08285 0.42748
 H961 H 0.63647 1.11682 0.32963
 H962 H 0.60385 1.08631 0.36116
 H963 H 0.59417 1.16082 0.40606
 H964 H 0.62685 1.19140 0.37448
 H965 H 0.69868 1.13404 0.38599
 H966 H 0.66599 1.10346 0.41760
 C967 C 0.84472 0.64781 0.13664
 C968 C 0.85932 0.61884 0.14823
 C969 C 0.87686 0.60264 0.13107
 C970 C 0.87816 0.61692 0.10391
 C971 C 0.88979 0.64972 0.10824
 C972 C 0.87224 0.66593 0.12542
 C973 C 0.82637 0.63665 0.11291
 C974 C 0.84395 0.62041 0.09570
 C975 C 0.82618 0.66531 0.15549
 C976 C 0.81184 0.67968 0.17152
 C977 C 0.89755 0.59933 0.08571
 C978 C 0.91434 0.58470 0.07162
 H979 H 0.85612 0.61164 0.16819
 H980 H 0.88866 0.58159 0.13635
 H981 H 0.91002 0.65939 0.09862
 H982 H 0.87746 0.68947 0.13049
 H983 H 0.80177 0.64112 0.10990
 H984 H 0.83440 0.61099 0.07796
 C985 C 0.34517 1.14833 0.63677
 C986 C 0.33554 1.15271 0.60836
 C987 C 0.35307 1.13613 0.59138
 C988 C 0.37845 1.11686 0.60452
 C989 C 0.36109 1.09718 0.62450
 C990 C 0.34361 1.11372 0.64144
 C991 C 0.38001 1.15622 0.63753
 C992 C 0.39750 1.13967 0.62059
 C993 C 0.32668 1.16601 0.65533
 C994 C 0.31232 1.18041 0.67121
 C995 C 0.39741 1.09872 0.58662
 C996 C 0.41311 1.08296 0.57265
 H997 H 0.31665 1.16748 0.60214
 H998 H 0.34921 1.13671 0.57061
 H999 H 0.36239 1.07240 0.62525
 H1000 H 0.32992 1.10312 0.65670
 H1001 H 0.39005 1.17334 0.65026
 H1002 H 0.42252 1.14262 0.61878
 C1003 C 0.84430 0.35330 -0.13733
 C1004 C 0.87836 0.34283 -0.13575
 C1005 C 0.89584 0.35921 -0.11866
 C1006 C 0.87762 0.38453 -0.10476
 C1007 C 0.84976 0.36818 -0.09221
 C1008 C 0.83223 0.35176 -0.10934
 C1009 C 0.84600 0.38757 -0.14367
 C1010 C 0.86349 0.40396 -0.12658
 C1011 C 0.82583 0.33560 -0.15609
 C1012 C 0.81156 0.32105 -0.17205
 C1013 C 0.89695 0.40229 -0.08664
 C1014 C 0.91372 0.41699 -0.07258
 H1015 H 0.88792 0.32413 -0.14704
 H1016 H 0.92034 0.35451 -0.11535
 H1017 H 0.84426 0.36940 -0.07172
 H1018 H 0.81174 0.33893 -0.10350
 H1019 H 0.83442 0.39806 -0.16012
 H1020 H 0.86687 0.42847 -0.12841
 C1021 C 0.34531 0.85078 0.36361
 C1022 C 0.37924 0.83995 0.36548
 C1023 C 0.39669 0.85627 0.38261
 C1024 C 0.37850 0.88183 0.39620
 C1025 C 0.35035 0.86586 0.40865
 C1026 C 0.33287 0.84951 0.39148
 C1027 C 0.34738 0.88494 0.35707
 C1028 C 0.36482 0.90126 0.37419
 C1029 C 0.32686 0.83333 0.34487
 C1030 C 0.31252 0.81909 0.32888
 C1031 C 0.39743 0.89974 0.41428
 C1032 C 0.41313 0.91535 0.42837
 H1033 H 0.38872 0.82107 0.35435
 H1034 H 0.42111 0.85139 0.38617
 H1035 H 0.34467 0.86727 0.42910
 H1036 H 0.31220 0.83690 0.39723
 H1037 H 0.33610 0.89542 0.34047
 H1038 H 0.36848 0.92573 0.37225
 C1039 C 1.14818 1.15334 0.36359
 C1040 C 1.12494 1.13113 0.35116
 C1041 C 1.10878 1.11409 0.36865
 C1042 C 1.11742 1.12090 0.39691
 C1043 C 1.11255 1.15547 0.40007
 C1044 C 1.12876 1.17256 0.38252
 C1045 C 1.16899 1.13330 0.38082
 C1046 C 1.15280 1.11623 0.39835
 C1047 C 1.16557 1.17129 0.34449
 C1048 C 1.17994 1.18537 0.32838
 C1049 C 1.09992 1.10205 0.41532
 C1050 C 1.08526 1.08548 0.42942
 H1051 H 1.12145 1.12900 0.33041
 H1052 H 1.09144 1.09735 0.36289
 H1053 H 1.09775 1.16562 0.41478
 H1054 H 1.12784 1.19737 0.38218
 H1055 H 1.19421 1.13263 0.37942
 H1056 H 1.16415 1.10094 0.41198
 C1057 C 0.64650 0.65017 -0.13949
 C1058 C 0.62612 0.62607 -0.15290
 C1059 C 0.60965 0.60831 -0.13610
 C1060 C 0.61524 0.61647 -0.10760
 C1061 C 0.60763 0.65067 -0.10549
 C1062 C 0.62410 0.66843 -0.12231
 C1063 C 0.66709 0.63209 -0.12064
 C1064 C 0.65062 0.61434 -0.10383
 C1065 C 0.66413 0.66897 -0.15766
 C1066 C 0.67861 0.68376 -0.17314
 C1067 C 0.59761 0.59755 -0.08951
 C1068 C 0.58313 0.58243 -0.07426
 H1069 H 0.62474 0.62320 -0.17376
 H1070 H 0.59416 0.59022 -0.14251
 H1071 H 0.59079 0.66011 -0.09200
 H1072 H 0.62142 0.69310 -0.12324
 H1073 H 0.69236 0.63316 -0.12049
 H1074 H 0.66175 0.60015 -0.08926
 C1075 C 0.85222 1.15282 0.63728
 C1076 C 0.86439 1.17143 0.61413
 C1077 C 0.88081 1.15441 0.59670
 C1078 C 0.88339 1.12052 0.60418
 C1079 C 0.84967 1.10968 0.60786
 C1080 C 0.83328 1.12666 0.62526
 C1081 C 0.88114 1.13745 0.64887
 C1082 C 0.89752 1.12048 0.63148
 C1083 C 0.83459 1.17074 0.65625
 C1084 C 0.82008 1.18484 0.67225
 C1085 C 0.90112 1.10177 0.58585
 C1086 C 0.91588 1.08533 0.57172
 H1087 H 0.86045 1.19578 0.61166
 H1088 H 0.89094 1.16417 0.57929
 H1089 H 0.83953 1.09040 0.59765
 H1090 H 0.80911 1.12193 0.62996
 H1091 H 0.88818 1.13972 0.66897
 H1092 H 0.91859 1.10822 0.63670
 C1093 C 0.35323 0.64963 0.13974
 C1094 C 0.36498 0.61958 0.15163
 C1095 C 0.38131 0.60189 0.13473
 C1096 C 0.38424 0.61603 0.10764
 C1097 C 0.39873 0.64771 0.11202
 C1098 C 0.38240 0.66540 0.12892
 C1099 C 0.33434 0.64006 0.11587
 C1100 C 0.35067 0.62236 0.09896
 C1101 C 0.33573 0.66841 0.15801
 C1102 C 0.32134 0.68324 0.17350
 C1103 C 0.40176 0.59717 0.08943
 C1104 C 0.41618 0.58213 0.07411
 H1105 H 0.36083 0.61280 0.17157
 H1106 H 0.39116 0.57994 0.14015
 H1107 H 0.41994 0.65554 0.10267
 H1108 H 0.38958 0.68842 0.13407
 H1109 H 0.31028 0.64661 0.11254
 H1110 H 0.34061 0.61371 0.08112
 C1111 C 1.14857 0.84686 0.63868
 C1112 C 1.11833 0.86032 0.64964
 C1113 C 1.10196 0.87719 0.63214
 C1114 C 1.11741 0.87899 0.60536
 C1115 C 1.12213 0.84559 0.59711
 C1116 C 1.13853 0.82867 0.61465
 C1117 C 1.16669 0.87440 0.62802
 C1118 C 1.15032 0.89128 0.61052
 C1119 C 1.16618 0.82902 0.65777
 C1120 C 1.18068 0.81494 0.67384
 C1121 C 1.09969 0.89762 0.58688
 C1122 C 1.08492 0.91391 0.57260
 H1123 H 1.11042 0.85686 0.66940
 H1124 H 1.08004 0.88818 0.63693
 H1125 H 1.11339 0.83608 0.57911
 H1126 H 1.14384 0.80467 0.61167
 H1127 H 1.19034 0.88011 0.63369
 H1128 H 1.15995 0.91145 0.60119
 C1129 C 0.64661 0.35017 0.13984
 C1130 C 0.61218 0.35362 0.14730
 C1131 C 0.59560 0.37121 0.13046
 C1132 C 0.61511 0.38360 0.10786
 C1133 C 0.62973 0.35523 0.09526
 C1134 C 0.64632 0.33763 0.11211
 C1135 C 0.65895 0.38300 0.13739
 C1136 C 0.64237 0.40060 0.12056
 C1137 C 0.66440 0.33148 0.15805
 C1138 C 0.67899 0.31669 0.17349
 C1139 C 0.59734 0.40240 0.08971
 C1140 C 0.58282 0.41749 0.07444
 H1141 H 0.60175 0.34315 0.16429
 H1142 H 0.57095 0.37585 0.13302
 H1143 H 0.62728 0.34948 0.07492
 H1144 H 0.65808 0.31680 0.10622
 H1145 H 0.67896 0.39166 0.14795
 H1146 H 0.64814 0.42434 0.11668
 C1147 C 0.85219 0.84686 0.36286
 C1148 C 0.88623 0.83672 0.36584
 C1149 C 0.90259 0.85366 0.38331
 C1150 C 0.88329 0.87906 0.39608
 C1151 C 0.85498 0.86271 0.40786
 C1152 C 0.83860 0.84575 0.39037
 C1153 C 0.85385 0.88097 0.35603
 C1154 C 0.87018 0.89788 0.37347
 C1155 C 0.83462 0.82900 0.34382
 C1156 C 0.82015 0.81494 0.32778
 C1157 C 0.90098 0.89774 0.41448
 C1158 C 0.91574 0.91411 0.42865
 H1159 H 0.89655 0.81787 0.35520
 H1160 H 0.92693 0.84932 0.38765
 H1161 H 0.84840 0.86426 0.42812
 H1162 H 0.81798 0.83278 0.39565
 H1163 H 0.84311 0.89098 0.33897
 H1164 H 0.87342 0.92238 0.37135
 C1165 C 0.35383 0.35029 -0.14023
 C1166 C 0.38725 0.33904 -0.13583
 C1167 C 0.40371 0.35672 -0.11899
 C1168 C 0.38508 0.38384 -0.10827
 C1169 C 0.35569 0.36963 -0.09631
 C1170 C 0.33923 0.35196 -0.11315
 C1171 C 0.35718 0.38368 -0.14903
 C1172 C 0.37364 0.40135 -0.13220
 C1173 C 0.33617 0.33154 -0.15842
 C1174 C 0.32166 0.31675 -0.17385
 C1175 C 0.40270 0.40269 -0.09013
 C1176 C 0.41711 0.41778 -0.07483
 H1177 H 0.39711 0.31898 -0.14510
 H1178 H 0.42771 0.35183 -0.11382
 H1179 H 0.34846 0.37314 -0.07639
 H1180 H 0.31788 0.34030 -0.10768
 H1181 H 0.34748 0.39265 -0.16690
 H1182 H 0.37807 0.42546 -0.13561
 C1183 C 1.15311 0.34973 -0.13720
 C1184 C 1.13072 0.37233 -0.15025
 C1185 C 1.11389 0.38934 -0.13320
 C1186 C 1.12104 0.38215 -0.10472
 C1187 C 1.15638 0.38646 -0.10204
 C1188 C 1.17325 0.36940 -0.11913
 C1189 C 1.13256 0.33053 -0.11907
 C1190 C 1.11569 0.34757 -0.10199
 C1191 C 1.17100 0.33157 -0.15589
 C1192 C 1.18528 0.31715 -0.17186
 C1193 C 1.10247 0.40059 -0.08668
 C1194 C 1.08630 0.41585 -0.07264
 H1195 H 1.12830 0.37477 -0.17108
 H1196 H 1.09707 0.40635 -0.13944
 H1197 H 1.16719 0.40152 -0.08797
 H1198 H 1.19853 0.36985 -0.11969
 H1199 H 1.13140 0.30573 -0.11957
 H1200 H 1.10009 0.33737 -0.08786
 C1201 C 0.65027 0.84691 0.36368
 C1202 C 0.62925 0.87079 0.35070
 C1203 C 0.61248 0.88785 0.36777
 C1204 C 0.61831 0.87942 0.39622
 C1205 C 0.65369 0.88224 0.39982
 C1206 C 0.67049 0.86515 0.38272
 C1207 C 0.62833 0.82790 0.38083
 C1208 C 0.61152 0.84499 0.39794
 C1209 C 0.66826 0.82884 0.34494
 C1210 C 0.68280 0.81469 0.32895
 C1211 C 0.60011 0.89823 0.41429
 C1212 C 0.58500 0.91455 0.42832
 H1213 H 0.62765 0.87402 0.32989
 H1214 H 0.59654 0.90567 0.36156
 H1215 H 0.66459 0.89636 0.41453
 H1216 H 0.69577 0.86465 0.38279
 H1217 H 0.62621 0.80320 0.37966
 H1218 H 0.59501 0.83494 0.41142
 C1219 C 0.84733 0.65106 -0.13670
 C1220 C 0.84752 0.66406 -0.10908
 C1221 C 0.86456 0.64707 -0.09204
 C1222 C 0.87971 0.61877 -0.10432
 C1223 C 0.89878 0.63118 -0.12718
 C1224 C 0.88178 0.64813 -0.14418
 C1225 C 0.83569 0.61803 -0.13377
 C1226 C 0.85272 0.60105 -0.11674
 C1227 C 0.82928 0.66914 -0.15536
 C1228 C 0.81492 0.68347 -0.17134
 C1229 C 0.89845 0.60040 -0.08635
 C1230 C 0.91479 0.58521 -0.07239
 H1231 H 0.83533 0.68474 -0.10341
 H1232 H 0.86697 0.65318 -0.07176
 H1233 H 0.92352 0.62703 -0.12978
 H1234 H 0.89195 0.65850 -0.16133
 H1235 H 0.81579 0.60881 -0.14411
 H1236 H 0.84740 0.57730 -0.11251
 C1237 C 0.34916 1.15275 0.36428
 C1238 C 0.36942 1.12823 0.35136
 C1239 C 0.38602 1.11103 0.36846
 C1240 C 0.38079 1.11998 0.39687
 C1241 C 0.34541 1.11800 0.40086
 C1242 C 0.32878 1.13523 0.38373
 C1243 C 0.37178 1.17150 0.38097
 C1244 C 0.38842 1.15425 0.39811
 C1245 C 0.33135 1.17095 0.34550
 C1246 C 0.31695 1.18520 0.32947
 C1247 C 0.39882 1.10100 0.41494
 C1248 C 0.41385 1.08453 0.42891
 H1249 H 0.37064 1.12468 0.33058
 H1250 H 0.40145 1.09277 0.36230
 H1251 H 0.33439 1.10434 0.41585
 H1252 H 0.30352 1.13632 0.38405
 H1253 H 0.37444 1.19612 0.37948
 H1254 H 0.40534 1.16411 0.41130
 C1255 C 1.15322 0.65072 0.13674
 C1256 C 1.12283 0.66609 0.12807
 C1257 C 1.10611 0.64914 0.11085
 C1258 C 1.12139 0.61847 0.10398
 C1259 C 1.12661 0.60242 0.13006
 C1260 C 1.14333 0.61935 0.14726
 C1261 C 1.17089 0.64379 0.11154
 C1262 C 1.15413 0.62682 0.09430
 C1263 C 1.17099 0.66879 0.15558
 C1264 C 1.18519 0.68314 0.17163
 C1265 C 1.10295 0.60012 0.08579
 C1266 C 1.08685 0.58493 0.07164
 H1267 H 1.11515 0.68835 0.13482
 H1268 H 1.08409 0.65690 0.10286
 H1269 H 1.11797 0.57970 0.13462
 H1270 H 1.14899 0.61113 0.16655
 H1271 H 1.19444 0.65153 0.10759
 H1272 H 1.16333 0.62002 0.07558
 C1273 C 0.65009 1.15252 0.63657
 C1274 C 0.65881 1.15820 0.60811
 C1275 C 0.64199 1.14103 0.59104
 C1276 C 0.61811 1.11990 0.60413
 C1277 C 0.59805 1.14110 0.62094
 C1278 C 0.61485 1.15824 0.63798
 C1279 C 0.65385 1.11793 0.64050
 C1280 C 0.63707 1.10081 0.62347
 C1281 C 0.66809 1.17066 0.65525
 C1282 C 0.68264 1.18489 0.67119
 C1283 C 0.59991 1.10102 0.58612
 C1284 C 0.58480 1.08463 0.57214
 H1285 H 0.67660 1.17427 0.60192
 H1286 H 0.64536 1.14241 0.57024
 H1287 H 0.57287 1.14257 0.61954
 H1288 H 0.60405 1.17438 0.65118
 H1289 H 0.66846 1.10776 0.65534
 H1290 H 0.63732 1.07599 0.62375
 C1291 C 0.84813 0.34974 0.13706
 C1292 C 0.88310 0.35052 0.14315
 C1293 C 0.90003 0.36755 0.12611
 C1294 C 0.88040 0.38219 0.10457
 C1295 C 0.85517 0.40049 0.11882
 C1296 C 0.83822 0.38345 0.13588
 C1297 C 0.84601 0.33835 0.10899
 C1298 C 0.86298 0.35541 0.09190
 C1299 C 0.83009 0.33154 0.15577
 C1300 C 0.81568 0.31706 0.17170
 C1301 C 0.89905 0.40067 0.08648
 C1302 C 0.91520 0.41593 0.07233
 H1303 H 0.89366 0.33870 0.15943
 H1304 H 0.92508 0.37029 0.12781
 H1305 H 0.85095 0.42470 0.11574
 H1306 H 0.81949 0.39308 0.14740
 H1307 H 0.83238 0.31866 0.10305
 H1308 H 0.86388 0.35033 0.07134
 C1309 C 0.34785 0.84726 0.63814
 C1310 C 0.37955 0.85760 0.64872
 C1311 C 0.39646 0.87461 0.63163
 C1312 C 0.38008 0.87970 0.60556
 C1313 C 0.34847 0.89388 0.61255
 C1314 C 0.33155 0.87686 0.62965
 C1315 C 0.35539 0.83041 0.61281
 C1316 C 0.37233 0.84746 0.59568
 C1317 C 0.32970 0.82918 0.65691
 C1318 C 0.31507 0.81497 0.67291
 C1319 C 0.39844 0.89845 0.58742
 C1320 C 0.41368 0.91463 0.57326
 H1321 H 0.38802 0.85201 0.66796
 H1322 H 0.41937 0.88356 0.63626
 H1323 H 0.34007 0.91540 0.60471
 H1324 H 0.30870 0.88381 0.63643
 H1325 H 0.34805 0.80716 0.60869
 H1326 H 0.37949 0.83880 0.57691
 C1327 C 0.35227 1.15580 -0.13663
 C1328 C 0.37213 1.13089 -0.14946
 C1329 C 0.38829 1.11336 -0.13230
 C1330 C 0.38308 1.12237 -0.10390
 C1331 C 0.34765 1.12109 -0.10006
 C1332 C 0.33146 1.13865 -0.11725
 C1333 C 0.37517 1.17409 -0.11984
 C1334 C 0.39137 1.15651 -0.10263
 C1335 C 0.33483 1.17430 -0.15549
 C1336 C 0.32050 1.18860 -0.17156
 C1337 C 0.40062 1.10299 -0.08574
 C1338 C 0.41524 1.08618 -0.07172
 H1339 H 0.37342 1.12734 -0.17024
 H1340 H 0.40340 1.09482 -0.13841
 H1341 H 0.33627 1.10763 -0.08512
 H1342 H 0.30623 1.14022 -0.11702
 H1343 H 0.37834 1.19866 -0.12130
 H1344 H 0.40841 1.16604 -0.08936
 C1345 C 0.85053 0.65386 0.36336
 C1346 C 0.85068 0.66643 0.39111
 C1347 C 0.86696 0.64869 0.40813
 C1348 C 0.88143 0.62016 0.39567
 C1349 C 0.90122 0.63238 0.37314
 C1350 C 0.88498 0.65008 0.35617
 C1351 C 0.83788 0.62113 0.36580
 C1352 C 0.85414 0.60341 0.38278
 C1353 C 0.83318 0.67261 0.34476
 C1354 C 0.81905 0.68719 0.32882
 C1355 C 0.89929 0.60099 0.41362
 C1356 C 0.91490 0.58522 0.42768
 H1357 H 0.83905 0.68738 0.39688
 H1358 H 0.86926 0.65443 0.42849
 H1359 H 0.92586 0.62757 0.37075
 H1360 H 0.89570 0.66043 0.33925
 H1361 H 0.81788 0.61263 0.35514
 H1362 H 0.84807 0.57975 0.38669
 C1363 C 0.64821 1.15554 0.13631
 C1364 C 0.61635 1.16891 0.12894
 C1365 C 0.60010 1.15131 0.11182
 C1366 C 0.61729 1.12205 0.10372
 C1367 C 0.62493 1.10566 0.12924
 C1368 C 0.64114 1.12322 0.14632
 C1369 C 0.66512 1.15067 0.11041
 C1370 C 0.64887 1.13307 0.09328
 C1371 C 0.66571 1.17410 0.15510
 C1372 C 0.68005 1.18842 0.17115
 C1373 C 0.59967 1.10264 0.08563
 C1374 C 0.58498 1.08584 0.07165
 H1375 H 0.60737 1.19034 0.13646
 H1376 H 0.57722 1.15768 0.10469
 H1377 H 0.61819 1.08226 0.13353
 H1378 H 0.64825 1.11484 0.16522
 H1379 H 0.68781 1.16025 0.10591
 H1380 H 0.65766 1.12758 0.07413
 C1381 C 1.14884 0.65493 0.63626
 C1382 C 1.12572 0.63321 0.64954
 C1383 C 1.10944 0.61538 0.63271
 C1384 C 1.11785 0.62098 0.60420
 C1385 C 1.15323 0.61630 0.60270
 C1386 C 1.16953 0.63416 0.61956
 C1387 C 1.12924 0.67327 0.61685
 C1388 C 1.11294 0.65541 0.59998
 C1389 C 1.16623 0.67380 0.65474
 C1390 C 1.18037 0.68844 0.67064
 C1391 C 1.09996 0.60166 0.58638
 C1392 C 1.08437 0.58577 0.57240
 H1393 H 1.12240 0.63194 0.67036
 H1394 H 1.09221 0.59885 0.63912
 H1395 H 1.16448 0.60043 0.58953
 H1396 H 1.19476 0.63358 0.62084
 H1397 H 1.12829 0.69808 0.61636
 H1398 H 1.09801 0.66493 0.58504
 C1399 C 0.64771 0.84473 -0.13681
 C1400 C 0.62674 0.86872 -0.14971
 C1401 C 0.61055 0.88622 -0.13257
 C1402 C 0.61683 0.87810 -0.10411
 C1403 C 0.65232 0.88049 -0.10104
 C1404 C 0.66853 0.86296 -0.11822
 C1405 C 0.62586 0.82623 -0.11917
 C1406 C 0.60962 0.84378 -0.10198
 C1407 C 0.66519 0.82623 -0.15564
 C1408 C 0.67954 0.81189 -0.17167
 C1409 C 0.59926 0.89744 -0.08596
 C1410 C 0.58461 0.91419 -0.07191
 H1411 H 0.62476 0.87169 -0.17052
 H1412 H 0.59472 0.90416 -0.13873
 H1413 H 0.66371 0.89465 -0.08662
 H1414 H 0.69380 0.86213 -0.11848
 H1415 H 0.62339 0.80155 -0.12008
 H1416 H 0.59326 0.83411 -0.08818
 C1417 C 1.14946 0.34644 0.36333
 C1418 C 1.12770 0.36945 0.35007
 C1419 C 1.11137 0.38713 0.36696
 C1420 C 1.11837 0.38012 0.39549
 C1421 C 1.15381 0.38352 0.39811
 C1422 C 1.17017 0.36580 0.38119
 C1423 C 1.12842 0.32801 0.38163
 C1424 C 1.11206 0.34573 0.39856
 C1425 C 1.16691 0.32769 0.34481
 C1426 C 1.18110 0.31308 0.32894
 C1427 C 1.10042 0.39928 0.41338
 C1428 C 1.08475 0.41501 0.42741
 H1429 H 1.12531 0.37166 0.32921
 H1430 H 1.09501 0.40450 0.36057
 H1431 H 1.16505 0.39847 0.41204
 H1432 H 1.19544 0.36556 0.38062
 H1433 H 1.12658 0.30325 0.38136
 H1434 H 1.09619 0.33614 0.41279
 C1435 C 0.35239 0.84427 0.13663
 C1436 C 0.38742 0.84609 0.14237
 C1437 C 0.40356 0.86365 0.12516
 C1438 C 0.38314 0.87771 0.10385
 C1439 C 0.35756 0.89519 0.11838
 C1440 C 0.34143 0.87765 0.13558
 C1441 C 0.35022 0.83285 0.10856
 C1442 C 0.36640 0.85044 0.09131
 C1443 C 0.33498 0.82576 0.15550
 C1444 C 0.32066 0.81146 0.17159
 C1445 C 0.40065 0.89710 0.08567
 C1446 C 0.41525 0.91394 0.07165
 H1447 H 0.39858 0.83454 0.15851
 H1448 H 0.42854 0.86712 0.12658
 H1449 H 0.35252 0.91927 0.11539
 H1450 H 0.32258 0.88671 0.14731
 H1451 H 0.33717 0.81273 0.10275
 H1452 H 0.36720 0.84539 0.07074
 C1453 C 0.85045 0.34584 0.63626
 C1454 C 0.86347 0.32803 0.61306
 C1455 C 0.87982 0.34580 0.59611
 C1456 C 0.88150 0.37959 0.60407
 C1457 C 0.89509 0.37934 0.63155
 C1458 C 0.87878 0.36161 0.64846
 C1459 C 0.83115 0.37185 0.62434
 C1460 C 0.84749 0.38961 0.60741
 C1461 C 0.83303 0.32708 0.65480
 C1462 C 0.81887 0.31252 0.67074
 C1463 C 0.89944 0.39879 0.58620
 C1464 C 0.91513 0.41458 0.57222
 H1465 H 0.86012 0.30366 0.61018
 H1466 H 0.89048 0.33666 0.57870
 H1467 H 0.91575 0.39199 0.63724
 H1468 H 0.88547 0.35906 0.66863
 H1469 H 0.80678 0.37592 0.62878
 H1470 H 0.83715 0.40890 0.59733
 C1471 C 1.15037 1.15089 0.63737
 C1472 C 1.16876 1.14259 0.61286
 C1473 C 1.15205 1.12580 0.59550
 C1474 C 1.11864 1.11900 0.60441
 C1475 C 1.10427 1.15039 0.61019
 C1476 C 1.12098 1.16718 0.62754
 C1477 C 1.13883 1.12027 0.64825
 C1478 C 1.12215 1.10351 0.63093
 C1479 C 1.16817 1.16868 0.65626
 C1480 C 1.18251 1.18295 0.67220
 C1481 C 1.10058 1.10055 0.58615
 C1482 C 1.08553 1.08438 0.57205
 H1483 H 1.19275 1.14934 0.60942
 H1484 H 1.16170 1.11815 0.57718
 H1485 H 1.08293 1.15871 0.60141
 H1486 H 1.11395 1.18990 0.63364
 H1487 H 1.14336 1.11242 0.66785
 H1488 H 1.11240 1.08129 0.63570
 C1489 C 0.64921 0.64767 0.13960
 C1490 C 0.62225 0.66544 0.12718
 C1491 C 0.60505 0.64842 0.11037
 C1492 C 0.61653 0.61535 0.10766
 C1493 C 0.61679 0.60252 0.13533
 C1494 C 0.63399 0.61953 0.15214
 C1495 C 0.66818 0.63509 0.11680
 C1496 C 0.65097 0.61807 0.09998
 C1497 C 0.66751 0.66588 0.15780
 C1498 C 0.68208 0.68063 0.17326
 C1499 C 0.59809 0.59715 0.08955
 C1500 C 0.58315 0.58243 0.07431
 H1501 H 0.61714 0.68927 0.13122
 H1502 H 0.58517 0.65766 0.09999
 H1503 H 0.60456 0.58191 0.14119
 H1504 H 0.63652 0.61350 0.17243
 H1505 H 0.69291 0.63918 0.11410
 H1506 H 0.66096 0.60755 0.08285
 C1507 C 1.15051 0.84844 0.36305
 C1508 C 1.12799 0.87127 0.35051
 C1509 C 1.11130 0.88784 0.36795
 C1510 C 1.11875 0.87997 0.39625
 C1511 C 1.15411 0.88427 0.39875
 C1512 C 1.17083 0.86767 0.38128
 C1513 C 1.13016 0.82875 0.38099
 C1514 C 1.11344 0.84536 0.39847
 C1515 C 1.16832 0.83084 0.34403
 C1516 C 1.18267 0.81670 0.32799
 C1517 C 1.10067 0.89824 0.41463
 C1518 C 1.08560 0.91427 0.42882
 H1519 H 1.12535 0.87417 0.32973
 H1520 H 1.09436 0.90494 0.36211
 H1521 H 1.16505 0.89898 0.41302
 H1522 H 1.19609 0.86816 0.38057
 H1523 H 1.12903 0.80397 0.38006
 H1524 H 1.09797 0.83483 0.41253
 C1525 C 0.64946 0.35292 -0.13984
 C1526 C 0.62759 0.37586 -0.15311
 C1527 C 0.61056 0.39290 -0.13620
 C1528 C 0.61710 0.38530 -0.10771
 C1529 C 0.65242 0.38923 -0.10448
 C1530 C 0.66946 0.37218 -0.12140
 C1531 C 0.62835 0.33374 -0.12217
 C1532 C 0.61132 0.35078 -0.10526
 C1533 C 0.66759 0.33467 -0.15813
 C1534 C 0.68204 0.31984 -0.17361
 C1535 C 0.59882 0.40350 -0.08948
 C1536 C 0.58393 0.41816 -0.07417
 H1537 H 0.62566 0.37849 -0.17396
 H1538 H 0.59403 0.41013 -0.14253
 H1539 H 0.66310 0.40409 -0.09018
 H1540 H 0.69475 0.37240 -0.12161
 H1541 H 0.62692 0.30896 -0.12287
 H1542 H 0.59527 0.34061 -0.09146
 C1543 C 0.85025 1.15034 0.36250
 C1544 C 0.87232 1.12717 0.34986
 C1545 C 0.88912 1.11056 0.36722
 C1546 C 0.88223 1.11871 0.39556
 C1547 C 0.84687 1.11480 0.39852
 C1548 C 0.83004 1.13145 0.38113
 C1549 C 0.87111 1.16994 0.38005
 C1550 C 0.88795 1.15328 0.39745
 C1551 C 0.83230 1.16801 0.34357
 C1552 C 0.81787 1.18225 0.32761
 C1553 C 0.90043 1.10041 0.41389
 C1554 C 0.91556 1.08442 0.42812
 H1555 H 0.87457 1.12409 0.32908
 H1556 H 0.90577 1.09324 0.36131
 H1557 H 0.83601 1.10030 0.41302
 H1558 H 0.80476 1.13121 0.38072
 H1559 H 0.87249 1.19469 0.37893
 H1560 H 0.90376 1.16376 0.41124
 C1561 C 0.34993 0.64800 -0.13985
 C1562 C 0.37097 0.62438 -0.15317
 C1563 C 0.38815 0.60736 -0.13633
 C1564 C 0.38260 0.61564 -0.10784
 C1565 C 0.34731 0.61247 -0.10383
 C1566 C 0.33012 0.62950 -0.12069
 C1567 C 0.37193 0.66712 -0.12294
 C1568 C 0.38912 0.65009 -0.10610
 C1569 C 0.33163 0.66624 -0.15809
 C1570 C 0.31705 0.68105 -0.17356
 C1571 C 0.40105 0.59741 -0.08968
 C1572 C 0.41601 0.58266 -0.07444
 H1573 H 0.37224 0.62130 -0.17401
 H1574 H 0.40416 0.58969 -0.14271
 H1575 H 0.33676 0.59811 -0.08907
 H1576 H 0.30483 0.62976 -0.12037
 H1577 H 0.37382 0.69184 -0.12408
 H1578 H 0.40576 0.66022 -0.09280
 C1579 C 0.84973 0.84813 0.63685
 C1580 C 0.87793 0.86437 0.64881
 C1581 C 0.89472 0.88098 0.63143
 C1582 C 0.88167 0.87973 0.60379
 C1583 C 0.84767 0.89015 0.60624
 C1584 C 0.83086 0.87352 0.62364
 C1585 C 0.86309 0.82891 0.61459
 C1586 C 0.87992 0.84557 0.59716
 C1587 C 0.83183 0.83053 0.65581
 C1588 C 0.81744 0.81642 0.67185
 C1589 C 0.89985 0.89805 0.58551
 C1590 C 0.91500 0.91419 0.57145
 H1591 H 0.88419 0.86292 0.66915
 H1592 H 0.91539 0.89377 0.63688
 H1593 H 0.83766 0.90889 0.59523
 H1594 H 0.80644 0.87799 0.62756
 H1595 H 0.85960 0.80443 0.61267
 H1596 H 0.89088 0.83538 0.58029
 C1597 C 0.35043 0.35230 0.13953
 C1598 C 0.38469 0.35591 0.14746
 C1599 C 0.40171 0.37305 0.13057
 C1600 C 0.38276 0.38486 0.10747
 C1601 C 0.35524 0.40221 0.11943
 C1602 C 0.33821 0.38506 0.13632
 C1603 C 0.35134 0.33906 0.11205
 C1604 C 0.36836 0.35621 0.09516
 C1605 C 0.33234 0.33397 0.15780
 C1606 C 0.31791 0.31914 0.17331
 C1607 C 0.40100 0.40316 0.08928
 C1608 C 0.41587 0.41790 0.07399
 H1609 H 0.39470 0.34587 0.16480
 H1610 H 0.42630 0.37773 0.13343
 H1611 H 0.34962 0.42586 0.11503
 H1612 H 0.31798 0.39399 0.14640
 H1613 H 0.33965 0.31810 0.10635
 H1614 H 0.37128 0.34995 0.07496
   
