data_POSCAR
  _audit_creation_date              2014-09-24
  _audit_creation_method            'ToBaCCo'
  _symmetry_space_group_name_H-M    'P1'
  _symmetry_Int_Tables_number       1
  _symmetry_cell_setting            triclinic
  loop_
  _symmetry_equiv_pos_as_xyz
 x,y,z
_cell_length_a 100.4308
_cell_length_b 100.4944
_cell_length_c 100.8601
_cell_angle_alpha 89.996100
_cell_angle_beta 89.965400
_cell_angle_gamma 89.966200
loop_
  _atom_site_label
  _atom_site_type_symbol
  _atom_site_fract_x
  _atom_site_fract_y
  _atom_site_fract_z
N1 N 0.35977 0.32308 0.33278
 N2 N 0.35968 0.33243 0.32365
 C3 C 0.37014 0.33062 0.31548
 C4 C 0.37714 0.31958 0.31976
 C5 C 0.37028 0.31501 0.33073
 H6 H 0.37262 0.33691 0.30714
 H7 H 0.37284 0.30654 0.33684
 Cu8 Cu 0.34612 0.34625 0.32365
 Cu9 Cu 0.34651 0.32231 0.34688
 Cu10 Cu 0.32212 0.34681 0.34682
 N11 N 0.33239 0.35989 0.32362
 N12 N 0.32300 0.36003 0.33273
 C13 C 0.31500 0.37058 0.33067
 C14 C 0.31965 0.37741 0.31972
 C15 C 0.33066 0.37036 0.31546
 H16 H 0.30652 0.37319 0.33675
 H17 H 0.33700 0.37280 0.30714
 N18 N 0.32295 0.33258 0.36025
 N19 N 0.33223 0.32326 0.36029
 C20 C 0.33031 0.31526 0.37084
 C21 C 0.31933 0.31979 0.37774
 C22 C 0.31489 0.33074 0.37077
 H23 H 0.33649 0.30684 0.37342
 H24 H 0.30647 0.33696 0.37329
 H25 H 0.33152 0.33173 0.33645
 H26 H 0.34222 0.34241 0.34720
 N27 N 0.36099 0.82397 -0.16696
 N28 N 0.36038 0.83266 -0.17668
 C29 C 0.37060 0.83050 -0.18508
 C30 C 0.37799 0.81991 -0.18030
 C31 C 0.37159 0.81598 -0.16881
 H32 H 0.37264 0.83627 -0.19390
 H33 H 0.37454 0.80803 -0.16219
 Cu34 Cu 0.34653 0.84624 -0.17717
 Cu35 Cu 0.34846 0.82418 -0.15224
 Cu36 Cu 0.32248 0.84676 -0.15383
 N37 N 0.33298 0.86009 -0.17681
 N38 N 0.32351 0.86012 -0.16780
 C39 C 0.31556 0.87073 -0.16975
 C40 C 0.32033 0.87774 -0.18055
 C41 C 0.33138 0.87071 -0.18482
 H42 H 0.30704 0.87325 -0.16368
 H43 H 0.33780 0.87321 -0.19307
 N44 N 0.32345 0.83254 -0.14040
 N45 N 0.33342 0.82400 -0.13971
 C46 C 0.33150 0.81590 -0.12923
 C47 C 0.31981 0.81959 -0.12302
 C48 C 0.31494 0.83013 -0.13035
 H49 H 0.33817 0.80802 -0.12621
 H50 H 0.30598 0.83575 -0.12834
 H51 H 0.33296 0.83176 -0.16335
 H52 H 0.34262 0.84412 -0.15339
 N53 N 0.85974 0.32364 -0.16737
 N54 N 0.85948 0.33278 -0.17669
 C55 C 0.86999 0.33099 -0.18481
 C56 C 0.87717 0.32016 -0.18031
 C57 C 0.87039 0.31573 -0.16924
 H58 H 0.87233 0.33712 -0.19331
 H59 H 0.87308 0.30741 -0.16298
 Cu60 Cu 0.84563 0.34632 -0.17718
 Cu61 Cu 0.84646 0.32282 -0.15335
 Cu62 Cu 0.82213 0.34726 -0.15331
 N63 N 0.83216 0.36025 -0.17661
 N64 N 0.82301 0.36056 -0.16729
 C65 C 0.81515 0.37126 -0.16915
 C66 C 0.81967 0.37803 -0.18020
 C67 C 0.83046 0.37077 -0.18471
 H68 H 0.80684 0.37397 -0.16288
 H69 H 0.83664 0.37305 -0.19320
 N70 N 0.82290 0.33296 -0.13997
 N71 N 0.83218 0.32365 -0.13998
 C72 C 0.83021 0.31554 -0.12953
 C73 C 0.81919 0.31999 -0.12262
 C74 C 0.81479 0.33102 -0.12950
 H75 H 0.83637 0.30708 -0.12701
 H76 H 0.80636 0.33722 -0.12696
 H77 H 0.83130 0.33208 -0.16372
 H78 H 0.84229 0.34300 -0.15346
 N79 N 0.86002 0.82339 0.33261
 N80 N 0.85996 0.83273 0.32347
 C81 C 0.87050 0.83094 0.31538
 C82 C 0.87750 0.81994 0.31973
 C83 C 0.87057 0.81537 0.33065
 H84 H 0.87302 0.83723 0.30704
 H85 H 0.87311 0.80692 0.33679
 Cu86 Cu 0.84630 0.84648 0.32340
 Cu87 Cu 0.84668 0.82256 0.34664
 Cu88 Cu 0.82222 0.84696 0.34650
 N89 N 0.83250 0.86008 0.32332
 N90 N 0.82310 0.86019 0.33241
 C91 C 0.81506 0.87071 0.33037
 C92 C 0.81970 0.87758 0.31943
 C93 C 0.83075 0.87056 0.31516
 H94 H 0.80657 0.87326 0.33647
 H95 H 0.83710 0.87302 0.30685
 N96 N 0.82303 0.83273 0.35993
 N97 N 0.83234 0.82344 0.35997
 C98 C 0.83041 0.81543 0.37052
 C99 C 0.81941 0.81993 0.37740
 C100 C 0.81495 0.83088 0.37044
 H101 H 0.83662 0.80704 0.37312
 H102 H 0.80653 0.83709 0.37296
 H103 H 0.83170 0.83192 0.33616
 H104 H 0.84234 0.84263 0.34694
 N105 N 0.63996 0.67703 0.33278
 N106 N 0.64024 0.66786 0.32348
 C107 C 0.62976 0.66964 0.31533
 C108 C 0.62257 0.68048 0.31980
 C109 C 0.62931 0.68494 0.33087
 H110 H 0.62743 0.66348 0.30686
 H111 H 0.62661 0.69327 0.33710
 Cu112 Cu 0.65409 0.65431 0.32302
 Cu113 Cu 0.65321 0.67786 0.34683
 Cu114 Cu 0.67756 0.65344 0.34686
 N115 N 0.66759 0.64041 0.32356
 N116 N 0.67673 0.64015 0.33288
 C117 C 0.68462 0.62947 0.33105
 C118 C 0.68015 0.62267 0.32002
 C119 C 0.66934 0.62986 0.31549
 H120 H 0.69292 0.62677 0.33733
 H121 H 0.66319 0.62751 0.30702
 N122 N 0.67676 0.66771 0.36020
 N123 N 0.66747 0.67702 0.36022
 C124 C 0.66945 0.68511 0.37068
 C125 C 0.68048 0.68065 0.37755
 C126 C 0.68488 0.66964 0.37065
 H127 H 0.66329 0.69356 0.37322
 H128 H 0.69331 0.66344 0.37316
 H129 H 0.66834 0.66863 0.33647
 H130 H 0.65737 0.65771 0.34674
 N131 N 0.64023 0.17647 -0.16714
 N132 N 0.64048 0.16731 -0.17644
 C133 C 0.62993 0.16905 -0.18451
 C134 C 0.62274 0.17987 -0.18001
 C135 C 0.62954 0.18436 -0.16899
 H136 H 0.62756 0.16287 -0.19296
 H137 H 0.62684 0.19267 -0.16272
 Cu138 Cu 0.65436 0.15377 -0.17695
 Cu139 Cu 0.65352 0.17731 -0.15314
 Cu140 Cu 0.67789 0.15293 -0.15317
 N141 N 0.66788 0.13987 -0.17645
 N142 N 0.67706 0.13964 -0.16715
 C143 C 0.68496 0.12897 -0.16899
 C144 C 0.68048 0.12214 -0.18001
 C145 C 0.66963 0.12932 -0.18452
 H146 H 0.69329 0.12632 -0.16272
 H147 H 0.66344 0.12696 -0.19296
 N148 N 0.67710 0.16720 -0.13982
 N149 N 0.66781 0.17649 -0.13980
 C150 C 0.66974 0.18455 -0.12930
 C151 C 0.68074 0.18008 -0.12241
 C152 C 0.68519 0.16910 -0.12934
 H153 H 0.66355 0.19297 -0.12673
 H154 H 0.69361 0.16289 -0.12682
 H155 H 0.66863 0.16809 -0.16355
 H156 H 0.65769 0.15715 -0.15325
 N157 N 0.13996 0.67688 -0.16731
 N158 N 0.14003 0.66753 -0.17643
 C159 C 0.12955 0.66936 -0.18458
 C160 C 0.12259 0.68041 -0.18029
 C161 C 0.12947 0.68496 -0.16934
 H162 H 0.12707 0.66308 -0.19293
 H163 H 0.12694 0.69345 -0.16324
 Cu164 Cu 0.15363 0.65372 -0.17651
 Cu165 Cu 0.15324 0.67772 -0.15328
 Cu166 Cu 0.17759 0.65324 -0.15326
 N167 N 0.16734 0.64003 -0.17637
 N168 N 0.17669 0.63993 -0.16726
 C169 C 0.18470 0.62937 -0.16922
 C170 C 0.18010 0.62248 -0.18014
 C171 C 0.16909 0.62949 -0.18447
 H172 H 0.19317 0.62681 -0.16311
 H173 H 0.16281 0.62702 -0.19281
 N174 N 0.17680 0.66753 -0.13992
 N175 N 0.16752 0.67685 -0.13991
 C176 C 0.16946 0.68491 -0.12941
 C177 C 0.18045 0.68042 -0.12252
 C178 C 0.18488 0.66943 -0.12944
 H179 H 0.16328 0.69334 -0.12686
 H180 H 0.19328 0.66320 -0.12689
 H181 H 0.16820 0.66826 -0.16371
 H182 H 0.15747 0.65760 -0.15296
 N183 N 0.14010 0.17692 0.33268
 N184 N 0.14024 0.16759 0.32353
 C185 C 0.12979 0.16940 0.31535
 C186 C 0.12277 0.18043 0.31964
 C187 C 0.12958 0.18497 0.33063
 H188 H 0.12736 0.16314 0.30698
 H189 H 0.12700 0.19343 0.33674
 Cu190 Cu 0.15388 0.15382 0.32348
 Cu191 Cu 0.15333 0.17779 0.34676
 Cu192 Cu 0.17775 0.15339 0.34684
 N193 N 0.16764 0.14017 0.32366
 N194 N 0.17694 0.14008 0.33283
 C195 C 0.18497 0.12953 0.33090
 C196 C 0.18044 0.12263 0.31996
 C197 C 0.16944 0.12963 0.31558
 H198 H 0.19340 0.12698 0.33706
 H199 H 0.16320 0.12715 0.30721
 N200 N 0.17688 0.16767 0.36019
 N201 N 0.16757 0.17696 0.36018
 C202 C 0.16950 0.18505 0.37066
 C203 C 0.18051 0.18062 0.37756
 C204 C 0.18496 0.16961 0.37067
 H205 H 0.16330 0.19348 0.37319
 H206 H 0.19339 0.16343 0.37321
 H207 H 0.16836 0.16838 0.33636
 H208 H 0.15761 0.15767 0.34706
 N209 N 0.64012 0.32323 0.66729
 N210 N 0.64030 0.33243 0.67654
 C211 C 0.62978 0.33064 0.68466
 C212 C 0.62270 0.31973 0.68022
 C213 C 0.62952 0.31526 0.66919
 H214 H 0.62738 0.33683 0.69309
 H215 H 0.62687 0.30691 0.66296
 Cu216 Cu 0.65410 0.34603 0.67702
 Cu217 Cu 0.65344 0.32244 0.65328
 Cu218 Cu 0.67773 0.34686 0.65333
 N219 N 0.66761 0.35991 0.67658
 N220 N 0.67684 0.36015 0.66734
 C221 C 0.68476 0.37078 0.66925
 C222 C 0.68023 0.37757 0.68027
 C223 C 0.66934 0.37044 0.68469
 H224 H 0.69311 0.37347 0.66303
 H225 H 0.66310 0.37281 0.69311
 N226 N 0.67700 0.33261 0.63998
 N227 N 0.66773 0.32330 0.63994
 C228 C 0.66963 0.31533 0.62936
 C229 C 0.68059 0.31987 0.62244
 C230 C 0.68503 0.33081 0.62942
 H231 H 0.66340 0.30697 0.62673
 H232 H 0.69338 0.33709 0.62685
 H233 H 0.66847 0.33173 0.66369
 H234 H 0.65754 0.34262 0.65333
 N235 N 0.63996 0.82295 1.16708
 N236 N 0.64005 0.83221 1.17629
 C237 C 0.62952 0.83039 1.18438
 C238 C 0.62250 0.81943 1.17997
 C239 C 0.62940 0.81493 1.16900
 H240 H 0.62703 0.83661 1.19277
 H241 H 0.62684 0.80653 1.16280
 Cu242 Cu 0.65369 0.84596 1.17651
 Cu243 Cu 0.65324 0.82221 1.15302
 Cu244 Cu 0.67764 0.84661 1.15321
 N245 N 0.66746 0.85958 1.17650
 N246 N 0.67680 0.85975 1.16736
 C247 C 0.68480 0.87029 1.16941
 C248 C 0.68021 0.87709 1.18040
 C249 C 0.66922 0.87003 1.18468
 H250 H 0.69324 0.87292 1.16328
 H251 H 0.66292 0.87245 1.19304
 N252 N 0.67680 0.83247 1.13971
 N253 N 0.66752 0.82317 1.13963
 C254 C 0.66944 0.81520 1.12906
 C255 C 0.68042 0.81974 1.12217
 C256 C 0.68486 0.83066 1.12918
 H257 H 0.66325 0.80681 1.12644
 H258 H 0.69327 0.83689 1.12668
 H259 H 0.66823 0.83152 1.16353
 H260 H 0.65750 0.84233 1.15291
 N261 N 0.14004 0.32326 1.16723
 N262 N 0.14008 0.33260 1.17637
 C263 C 0.12955 0.33079 1.18446
 C264 C 0.12258 0.31977 1.18012
 C265 C 0.12951 0.31522 1.16919
 H266 H 0.12704 0.33706 1.19281
 H267 H 0.12699 0.30676 1.16306
 Cu268 Cu 0.15369 0.34639 1.17648
 Cu269 Cu 0.15336 0.32242 1.15323
 Cu270 Cu 0.17769 0.34686 1.15322
 N271 N 0.16742 0.36007 1.17637
 N272 N 0.17677 0.36017 1.16723
 C273 C 0.18475 0.37074 1.16919
 C274 C 0.18015 0.37763 1.18012
 C275 C 0.16915 0.37060 1.18446
 H276 H 0.19320 0.37331 1.16306
 H277 H 0.16285 0.37308 1.19280
 N278 N 0.17694 0.33256 1.13987
 N279 N 0.16766 0.32326 1.13988
 C280 C 0.16963 0.31515 1.12943
 C281 C 0.18064 0.31959 1.12253
 C282 C 0.18505 0.33061 1.12941
 H283 H 0.16346 0.30671 1.12690
 H284 H 0.19347 0.33681 1.12686
 H285 H 0.16831 0.33188 1.16368
 H286 H 0.15758 0.34255 1.15293
 N287 N 0.13994 0.82322 0.66702
 N288 N 0.14018 0.83233 0.67637
 C289 C 0.12965 0.83051 0.68446
 C290 C 0.12248 0.81971 0.67990
 C291 C 0.12928 0.81531 0.66884
 H292 H 0.12728 0.83662 0.69297
 H293 H 0.12661 0.80702 0.66254
 Cu294 Cu 0.15403 0.84588 0.67695
 Cu295 Cu 0.15322 0.82248 0.65298
 Cu296 Cu 0.17750 0.84691 0.65307
 N297 N 0.16750 0.85981 0.67645
 N298 N 0.17664 0.86013 0.66712
 C299 C 0.18449 0.87082 0.66898
 C300 C 0.18000 0.87757 0.68004
 C301 C 0.16922 0.87033 0.68456
 H302 H 0.19278 0.87355 0.66270
 H303 H 0.16307 0.87264 0.69306
 N304 N 0.17675 0.83270 0.63965
 N305 N 0.16748 0.82339 0.63961
 C306 C 0.16942 0.81538 0.62906
 C307 C 0.18040 0.81991 0.62216
 C308 C 0.18482 0.83087 0.62913
 H309 H 0.16325 0.80696 0.62647
 H310 H 0.19322 0.83710 0.62661
 H311 H 0.16834 0.83167 0.66340
 H312 H 0.15734 0.84264 0.65321
 N313 N 0.36008 0.67684 0.66713
 N314 N 0.35974 0.66769 0.67644
 C315 C 0.37022 0.66940 0.68459
 C316 C 0.37748 0.68018 0.68012
 C317 C 0.37077 0.68469 0.66904
 H318 H 0.37250 0.66324 0.69308
 H319 H 0.37354 0.69299 0.66279
 Cu320 Cu 0.34584 0.65422 0.67691
 Cu321 Cu 0.34688 0.67769 0.65305
 Cu322 Cu 0.32246 0.65337 0.65296
 N323 N 0.33231 0.64038 0.67636
 N324 N 0.32320 0.64011 0.66701
 C325 C 0.31531 0.62944 0.66884
 C326 C 0.31974 0.62266 0.67991
 C327 C 0.33052 0.62986 0.68445
 H328 H 0.30703 0.62673 0.66254
 H329 H 0.33665 0.62752 0.69296
 N330 N 0.32337 0.66761 0.63958
 N331 N 0.33268 0.67689 0.63961
 C332 C 0.33084 0.68495 0.62910
 C333 C 0.31988 0.68051 0.62213
 C334 C 0.31536 0.66953 0.62903
 H335 H 0.33706 0.69335 0.62658
 H336 H 0.30695 0.66335 0.62645
 H337 H 0.33163 0.66851 0.66337
 H338 H 0.34263 0.65753 0.65317
 N339 N 0.36000 0.17654 1.16735
 N340 N 0.35968 0.16735 1.17662
 C341 C 0.37019 0.16904 1.18476
 C342 C 0.37742 0.17986 1.18032
 C343 C 0.37068 0.18439 1.16927
 H344 H 0.37250 0.16285 1.19322
 H345 H 0.37344 0.19270 1.16303
 Cu346 Cu 0.34578 0.15386 1.17701
 Cu347 Cu 0.34679 0.17742 1.15327
 Cu348 Cu 0.32233 0.15313 1.15313
 N349 N 0.33219 0.14006 1.17648
 N350 N 0.32305 0.13985 1.16716
 C351 C 0.31509 0.12922 1.16901
 C352 C 0.31950 0.12243 1.18007
 C353 C 0.33035 0.12955 1.18458
 H354 H 0.30679 0.12656 1.16272
 H355 H 0.33648 0.12717 1.19307
 N356 N 0.32327 0.16740 1.13977
 N357 N 0.33259 0.17666 1.13983
 C358 C 0.33076 0.18476 1.12935
 C359 C 0.31979 0.18036 1.12237
 C360 C 0.31526 0.16937 1.12923
 H361 H 0.33699 0.19317 1.12687
 H362 H 0.30682 0.16322 1.12664
 H363 H 0.33155 0.16822 1.16357
 H364 H 0.34249 0.15728 1.15329
 N365 N 0.86016 0.67664 1.16723
 N366 N 0.85971 0.66756 1.17662
 C367 C 0.87009 0.66934 1.18489
 C368 C 0.87738 0.68010 1.18042
 C369 C 0.87081 0.68451 1.16922
 H370 H 0.87230 0.66321 1.19342
 H371 H 0.87363 0.69277 1.16294
 Cu372 Cu 0.84589 0.65403 1.17649
 Cu373 Cu 0.84705 0.67746 1.15297
 Cu374 Cu 0.82080 0.65496 1.15480
 N375 N 0.83245 0.64012 1.17627
 N376 N 0.82267 0.64052 1.16761
 C377 C 0.81476 0.62985 1.16939
 C378 C 0.81991 0.62236 1.17967
 C379 C 0.83113 0.62914 1.18382
 H380 H 0.80593 0.62772 1.16364
 H381 H 0.83779 0.62625 1.19174
 N382 N 0.82262 0.66817 1.14044
 N383 N 0.83267 0.67662 1.13967
 C384 C 0.83122 0.68409 1.12867
 C385 C 0.81977 0.68012 1.12223
 C386 C 0.81456 0.67001 1.12993
 H387 H 0.83798 0.69185 1.12554
 H388 H 0.80561 0.66438 1.12795
 H389 H 0.83203 0.66967 1.16410
 H390 H 0.84105 0.65765 1.15324
 N391 N 0.85982 0.17669 0.66722
 N392 N 0.85963 0.16745 0.67645
 C393 C 0.87015 0.16919 0.68455
 C394 C 0.87727 0.18009 0.68013
 C395 C 0.87045 0.18462 0.66913
 H396 H 0.87254 0.16298 0.69297
 H397 H 0.87309 0.19300 0.66294
 Cu398 Cu 0.84581 0.15389 0.67688
 Cu399 Cu 0.84650 0.17756 0.65324
 Cu400 Cu 0.82218 0.15313 0.65321
 N401 N 0.83229 0.14002 0.67643
 N402 N 0.82308 0.13980 0.66718
 C403 C 0.81516 0.12916 0.66909
 C404 C 0.81967 0.12237 0.68012
 C405 C 0.83054 0.12951 0.68455
 H406 H 0.80679 0.12651 0.66289
 H407 H 0.83672 0.12716 0.69300
 N408 N 0.82293 0.16745 0.63989
 N409 N 0.83219 0.17677 0.63991
 C410 C 0.83019 0.18490 0.62947
 C411 C 0.81918 0.18045 0.62259
 C412 C 0.81481 0.16940 0.62945
 H413 H 0.83634 0.19336 0.62696
 H414 H 0.80640 0.16320 0.62691
 H415 H 0.83142 0.16825 0.66362
 H416 H 0.84234 0.15741 0.65320
 N417 N 0.32326 0.35989 0.66713
 N418 N 0.33239 0.35958 0.67646
 C419 C 0.33064 0.37011 0.68456
 C420 C 0.31985 0.37734 0.68002
 C421 C 0.31539 0.37058 0.66897
 H422 H 0.33678 0.37244 0.69304
 H423 H 0.30711 0.37331 0.66268
 Cu424 Cu 0.34589 0.34569 0.67698
 Cu425 Cu 0.32247 0.34666 0.65308
 Cu426 Cu 0.34683 0.32227 0.65305
 N427 N 0.35977 0.33217 0.67645
 N428 N 0.36007 0.32305 0.66711
 C429 C 0.37076 0.31517 0.66896
 C430 C 0.37751 0.31962 0.68003
 C431 C 0.37029 0.33040 0.68456
 H432 H 0.37349 0.30688 0.66268
 H433 H 0.37261 0.33654 0.69306
 N434 N 0.33259 0.32314 0.63965
 N435 N 0.32330 0.33244 0.63967
 C436 C 0.31525 0.33059 0.62916
 C437 C 0.31972 0.31963 0.62220
 C438 C 0.33069 0.31512 0.62911
 H439 H 0.30684 0.33681 0.62663
 H440 H 0.33689 0.30671 0.62654
 H441 H 0.33165 0.33145 0.66343
 H442 H 0.34264 0.34243 0.65324
 N443 N 0.32344 0.86020 0.16709
 N444 N 0.33284 0.86010 0.17617
 C445 C 0.33110 0.87058 0.18431
 C446 C 0.32006 0.87760 0.18008
 C447 C 0.31542 0.87074 0.16914
 H448 H 0.33743 0.87304 0.19263
 H449 H 0.30693 0.87332 0.16308
 Cu450 Cu 0.34659 0.84646 0.17613
 Cu451 Cu 0.32254 0.84693 0.15302
 Cu452 Cu 0.34695 0.82247 0.15298
 N453 N 0.36021 0.83268 0.17611
 N454 N 0.36026 0.82331 0.16701
 C455 C 0.37079 0.81527 0.16900
 C456 C 0.37770 0.81986 0.17991
 C457 C 0.37073 0.83091 0.18421
 H458 H 0.37332 0.80679 0.16290
 H459 H 0.37324 0.83722 0.19253
 N460 N 0.33265 0.82334 0.13963
 N461 N 0.32336 0.83265 0.13964
 C462 C 0.31530 0.83077 0.12914
 C463 C 0.31975 0.81979 0.12221
 C464 C 0.33073 0.81530 0.12912
 H465 H 0.30689 0.83699 0.12659
 H466 H 0.33693 0.80688 0.12655
 H467 H 0.33197 0.83192 0.16342
 H468 H 0.34264 0.84257 0.15261
 N469 N 0.82327 0.36000 0.16717
 N470 N 0.83256 0.35986 0.17636
 C471 C 0.83074 0.37034 0.18450
 C472 C 0.81976 0.37738 0.18014
 C473 C 0.81524 0.37054 0.16915
 H474 H 0.83698 0.37280 0.19288
 H475 H 0.80683 0.37315 0.16298
 Cu476 Cu 0.84633 0.34624 0.17646
 Cu477 Cu 0.82251 0.34680 0.15306
 Cu478 Cu 0.84697 0.32242 0.15307
 N479 N 0.86002 0.33251 0.17636
 N480 N 0.86018 0.32323 0.16717
 C481 C 0.87075 0.31524 0.16914
 C482 C 0.87759 0.31978 0.18012
 C483 C 0.87052 0.33073 0.18449
 H484 H 0.87338 0.30684 0.16297
 H485 H 0.87296 0.33699 0.19286
 N486 N 0.83277 0.32330 0.13963
 N487 N 0.82345 0.33258 0.13962
 C488 C 0.81544 0.33069 0.12907
 C489 C 0.81996 0.31973 0.12215
 C490 C 0.83093 0.31527 0.12910
 H491 H 0.80702 0.33688 0.12650
 H492 H 0.83715 0.30686 0.12656
 H493 H 0.83188 0.33177 0.16345
 H494 H 0.84263 0.34254 0.15284
 N495 N 0.82392 0.86076 0.66678
 N496 N 0.83271 0.86013 0.67642
 C497 C 0.83047 0.87019 0.68496
 C498 C 0.81975 0.87749 0.68038
 C499 C 0.81581 0.87122 0.66884
 H500 H 0.83630 0.87222 0.69374
 H501 H 0.80779 0.87419 0.66233
 Cu502 Cu 0.84655 0.84657 0.67652
 Cu503 Cu 0.82421 0.84846 0.65189
 Cu504 Cu 0.84681 0.82242 0.65336
 N505 N 0.86024 0.83286 0.67632
 N506 N 0.86017 0.82336 0.66735
 C507 C 0.87072 0.81534 0.66932
 C508 C 0.87777 0.82008 0.68008
 C509 C 0.87086 0.83119 0.68431
 H510 H 0.87320 0.80679 0.66329
 H511 H 0.87346 0.83761 0.69251
 N512 N 0.83259 0.82350 0.63992
 N513 N 0.82407 0.83350 0.63928
 C514 C 0.81591 0.83161 0.62885
 C515 C 0.81953 0.81993 0.62261
 C516 C 0.83010 0.81502 0.62987
 H517 H 0.80800 0.83828 0.62591
 H518 H 0.83567 0.80604 0.62783
 H519 H 0.83189 0.83297 0.66296
 H520 H 0.84414 0.84252 0.65277
 N521 N 0.67686 0.63997 0.66748
 N522 N 0.66777 0.64026 0.67686
 C523 C 0.66954 0.62971 0.68492
 C524 C 0.68029 0.62248 0.68031
 C525 C 0.68472 0.62927 0.66925
 H526 H 0.66342 0.62737 0.69344
 H527 H 0.69298 0.62655 0.66292
 Cu528 Cu 0.65428 0.65418 0.67746
 Cu529 Cu 0.67762 0.65323 0.65346
 Cu530 Cu 0.65325 0.67762 0.65357
 N531 N 0.64040 0.66770 0.67701
 N532 N 0.64007 0.67682 0.66767
 C533 C 0.62943 0.68474 0.66960
 C534 C 0.62273 0.68033 0.68071
 C535 C 0.62994 0.66951 0.68520
 H536 H 0.62671 0.69305 0.66333
 H537 H 0.62766 0.66339 0.69372
 N538 N 0.66746 0.67677 0.64010
 N539 N 0.67676 0.66748 0.64008
 C540 C 0.68481 0.66939 0.62956
 C541 C 0.68034 0.68038 0.62265
 C542 C 0.66936 0.68484 0.62960
 H543 H 0.69325 0.66321 0.62700
 H544 H 0.66317 0.69327 0.62708
 H545 H 0.66845 0.66847 0.66384
 H546 H 0.65742 0.65751 0.65370
 N547 N 0.67718 0.13990 0.16705
 N548 N 0.66786 0.14000 0.17622
 C549 C 0.66975 0.12958 0.18442
 C550 C 0.68081 0.12262 0.18011
 C551 C 0.68529 0.12944 0.16909
 H552 H 0.66353 0.12713 0.19283
 H553 H 0.69376 0.12690 0.16296
 Cu554 Cu 0.65407 0.15362 0.17624
 Cu555 Cu 0.67794 0.15308 0.15292
 Cu556 Cu 0.65353 0.17753 0.15296
 N557 N 0.64046 0.16743 0.17628
 N558 N 0.64035 0.17675 0.16713
 C559 C 0.62986 0.18484 0.16918
 C560 C 0.62302 0.18032 0.18017
 C561 C 0.63000 0.16927 0.18447
 H562 H 0.62730 0.19329 0.16306
 H563 H 0.62755 0.16302 0.19284
 N564 N 0.66772 0.17657 0.13947
 N565 N 0.67700 0.16726 0.13946
 C566 C 0.68501 0.16909 0.12890
 C567 C 0.68052 0.18004 0.12195
 C568 C 0.66958 0.18457 0.12891
 H569 H 0.69341 0.16287 0.12634
 H570 H 0.66339 0.19299 0.12636
 H571 H 0.66856 0.16814 0.16333
 H572 H 0.65782 0.15743 0.15266
 N573 N 0.17690 0.64004 0.16709
 N574 N 0.16761 0.64014 0.17627
 C575 C 0.16940 0.62960 0.18436
 C576 C 0.18038 0.62259 0.17996
 C577 C 0.18492 0.62948 0.16901
 H578 H 0.16315 0.62712 0.19273
 H579 H 0.19334 0.62691 0.16283
 Cu580 Cu 0.15389 0.65383 0.17648
 Cu581 Cu 0.17774 0.65334 0.15308
 Cu582 Cu 0.15337 0.67781 0.15322
 N583 N 0.14029 0.66764 0.17647
 N584 N 0.14016 0.67697 0.16733
 C585 C 0.12966 0.68503 0.16939
 C586 C 0.12283 0.68049 0.18038
 C587 C 0.12982 0.66945 0.18465
 H588 H 0.12708 0.69348 0.16327
 H589 H 0.12737 0.66317 0.19301
 N590 N 0.16760 0.67695 0.13976
 N591 N 0.17688 0.66764 0.13973
 C592 C 0.18492 0.66953 0.12919
 C593 C 0.18046 0.68052 0.12229
 C594 C 0.16950 0.68501 0.12924
 H595 H 0.19332 0.66332 0.12662
 H596 H 0.16330 0.69344 0.12672
 H597 H 0.16839 0.66837 0.16355
 H598 H 0.15761 0.65769 0.15287
 N599 N 0.17687 0.13944 0.66712
 N600 N 0.16775 0.13966 0.67648
 C601 C 0.16957 0.12911 0.68454
 C602 C 0.18039 0.12196 0.67996
 C603 C 0.18479 0.12878 0.66891
 H604 H 0.16347 0.12674 0.69306
 H605 H 0.19309 0.12612 0.66261
 Cu606 Cu 0.15420 0.15351 0.67710
 Cu607 Cu 0.17761 0.15275 0.65314
 Cu608 Cu 0.15319 0.17707 0.65334
 N609 N 0.14029 0.16702 0.67672
 N610 N 0.13998 0.17619 0.66743
 C611 C 0.12933 0.18409 0.66936
 C612 C 0.12260 0.17962 0.68043
 C613 C 0.12980 0.16878 0.68489
 H614 H 0.12662 0.19242 0.66313
 H615 H 0.12749 0.16262 0.69337
 N616 N 0.16738 0.17632 0.63989
 N617 N 0.17669 0.16704 0.63981
 C618 C 0.18471 0.16902 0.62927
 C619 C 0.18019 0.18003 0.62243
 C620 C 0.16922 0.18443 0.62942
 H621 H 0.19314 0.16285 0.62666
 H622 H 0.16299 0.19285 0.62695
 H623 H 0.16842 0.16785 0.66362
 H624 H 0.15744 0.15692 0.65338
 N625 N 0.32236 0.64048 0.33219
 N626 N 0.33210 0.64012 0.32347
 C627 C 0.33067 0.62923 0.31581
 C628 C 0.31943 0.62248 0.31995
 C629 C 0.31438 0.62989 0.33034
 H630 H 0.33727 0.62640 0.30782
 H631 H 0.30555 0.62774 0.33611
 Cu632 Cu 0.34564 0.65394 0.32331
 Cu633 Cu 0.32062 0.65479 0.34516
 Cu634 Cu 0.34686 0.67728 0.34696
 N635 N 0.35945 0.66748 0.32321
 N636 N 0.35992 0.67652 0.33264
 C637 C 0.37056 0.68441 0.33065
 C638 C 0.37712 0.68004 0.31941
 C639 C 0.36981 0.66930 0.31492
 H640 H 0.37340 0.69264 0.33695
 H641 H 0.37201 0.66322 0.30635
 N642 N 0.33253 0.67639 0.36032
 N643 N 0.32249 0.66793 0.35958
 C644 C 0.31447 0.66974 0.37014
 C645 C 0.31970 0.67982 0.37784
 C646 C 0.33112 0.68383 0.37135
 H647 H 0.30552 0.66411 0.37214
 H648 H 0.33788 0.69159 0.37446
 H649 H 0.33181 0.66952 0.33583
 H650 H 0.34088 0.65747 0.34662
 N651 N 0.32294 0.13975 0.83268
 N652 N 0.33213 0.14000 0.82338
 C653 C 0.33037 0.12949 0.81527
 C654 C 0.31952 0.12233 0.81974
 C655 C 0.31503 0.12911 0.83079
 H656 H 0.33656 0.12713 0.80682
 H657 H 0.30671 0.12641 0.83704
 Cu658 Cu 0.34569 0.15383 0.82295
 Cu659 Cu 0.32213 0.15299 0.84674
 Cu660 Cu 0.34654 0.17733 0.84675
 N661 N 0.35958 0.16734 0.82343
 N662 N 0.35982 0.17651 0.83273
 C663 C 0.37050 0.18438 0.83089
 C664 C 0.37732 0.17989 0.81986
 C665 C 0.37013 0.16908 0.81536
 H666 H 0.37319 0.19269 0.83715
 H667 H 0.37251 0.16290 0.80690
 N668 N 0.33228 0.17651 0.86013
 N669 N 0.32297 0.16723 0.86014
 C670 C 0.31493 0.16913 0.87067
 C671 C 0.31943 0.18010 0.87760
 C672 C 0.33040 0.18455 0.87065
 H673 H 0.30652 0.16294 0.87325
 H674 H 0.33663 0.19294 0.87320
 H675 H 0.33138 0.16810 0.83639
 H676 H 0.34231 0.15715 0.84667
 N677 N 0.82330 0.63979 0.83289
 N678 N 0.83243 0.64008 0.82354
 C679 C 0.83047 0.62975 0.81524
 C680 C 0.81955 0.62266 0.81966
 C681 C 0.81522 0.62930 0.83086
 H682 H 0.83658 0.62745 0.80671
 H683 H 0.80687 0.62664 0.83709
 Cu684 Cu 0.84632 0.65356 0.82355
 Cu685 Cu 0.82258 0.65293 0.84706
 Cu686 Cu 0.84514 0.67897 0.84518
 N687 N 0.86005 0.66721 0.82386
 N688 N 0.85958 0.67708 0.83242
 C689 C 0.87018 0.68505 0.83054
 C690 C 0.87770 0.67987 0.82029
 C691 C 0.87101 0.66856 0.81627
 H692 H 0.87225 0.69396 0.83619
 H693 H 0.87391 0.66188 0.80838
 N694 N 0.83191 0.67730 0.85952
 N695 N 0.82343 0.66729 0.86032
 C696 C 0.81589 0.66883 0.87126
 C697 C 0.81985 0.68032 0.87765
 C698 C 0.83001 0.68545 0.86996
 H699 H 0.80808 0.66213 0.87438
 H700 H 0.83563 0.69442 0.87189
 H701 H 0.83061 0.66764 0.83561
 H702 H 0.84248 0.65871 0.84676
 N703 N 0.82317 0.13980 0.33284
 N704 N 0.83251 0.13984 0.32370
 C705 C 0.83063 0.12938 0.31555
 C706 C 0.81955 0.12247 0.31987
 C707 C 0.81505 0.12935 0.33084
 H708 H 0.83688 0.12687 0.30718
 H709 H 0.80656 0.12686 0.33696
 Cu710 Cu 0.84633 0.15339 0.32365
 Cu711 Cu 0.82240 0.15307 0.34690
 Cu712 Cu 0.84689 0.17741 0.34678
 N713 N 0.85999 0.16712 0.32358
 N714 N 0.86012 0.17650 0.33267
 C715 C 0.87065 0.18451 0.33059
 C716 C 0.87748 0.17988 0.31963
 C717 C 0.87046 0.16885 0.31540
 H718 H 0.87324 0.19299 0.33666
 H719 H 0.87290 0.16253 0.30707
 N720 N 0.83266 0.17661 0.36022
 N721 N 0.82334 0.16734 0.36027
 C722 C 0.81532 0.16928 0.37081
 C723 C 0.81983 0.18026 0.37769
 C724 C 0.83080 0.18468 0.37072
 H725 H 0.80690 0.16311 0.37340
 H726 H 0.83703 0.19308 0.37323
 H727 H 0.83184 0.16802 0.33644
 H728 H 0.84253 0.15733 0.34720
 N729 N 0.67689 0.36001 0.33280
 N730 N 0.66776 0.35969 0.32346
 C731 C 0.66949 0.37021 0.31536
 C732 C 0.68025 0.37746 0.31990
 C733 C 0.68473 0.37071 0.33096
 H734 H 0.66335 0.37253 0.30687
 H735 H 0.69300 0.37346 0.33725
 Cu736 Cu 0.65430 0.34577 0.32295
 Cu737 Cu 0.67771 0.34679 0.34687
 Cu738 Cu 0.65341 0.32237 0.34689
 N739 N 0.64046 0.33222 0.32347
 N740 N 0.64019 0.32311 0.33282
 C741 C 0.62955 0.31519 0.33096
 C742 C 0.62279 0.31959 0.31987
 C743 C 0.62997 0.33041 0.31534
 H744 H 0.62685 0.30690 0.33725
 H745 H 0.62763 0.33652 0.30684
 N746 N 0.66762 0.32328 0.36030
 N747 N 0.67689 0.33259 0.36029
 C748 C 0.68492 0.33075 0.37082
 C749 C 0.68047 0.31979 0.37778
 C750 C 0.66952 0.31527 0.37085
 H751 H 0.69331 0.33698 0.37337
 H752 H 0.66333 0.30685 0.37342
 H753 H 0.66857 0.33157 0.33652
 H754 H 0.65754 0.34253 0.34669
 N755 N 0.67673 0.86003 0.83256
 N756 N 0.66734 0.85992 0.82347
 C757 C 0.66907 0.87042 0.81534
 C758 C 0.68009 0.87746 0.81961
 C759 C 0.68472 0.87058 0.83053
 H760 H 0.66274 0.87289 0.80702
 H761 H 0.69320 0.87316 0.83662
 Cu762 Cu 0.65362 0.84624 0.82357
 Cu763 Cu 0.67766 0.84681 0.84667
 Cu764 Cu 0.65332 0.82233 0.84685
 N765 N 0.64004 0.83242 0.82365
 N766 N 0.64001 0.82309 0.83281
 C767 C 0.62952 0.81501 0.83085
 C768 C 0.62259 0.81952 0.81991
 C769 C 0.62953 0.83056 0.81555
 H770 H 0.62702 0.80654 0.83699
 H771 H 0.62702 0.83679 0.80718
 N772 N 0.66762 0.82329 0.86020
 N773 N 0.67689 0.83261 0.86012
 C774 C 0.68497 0.83079 0.87062
 C775 C 0.68055 0.81985 0.87763
 C776 C 0.66957 0.81531 0.87076
 H777 H 0.69338 0.83702 0.87310
 H778 H 0.66340 0.80690 0.87338
 H779 H 0.66826 0.83172 0.83633
 H780 H 0.65758 0.84241 0.84710
 N781 N 0.17676 0.36005 0.83281
 N782 N 0.16740 0.35997 0.82369
 C783 C 0.16918 0.37045 0.81555
 C784 C 0.18021 0.37744 0.81984
 C785 C 0.18480 0.37057 0.83078
 H786 H 0.16288 0.37293 0.80721
 H787 H 0.19327 0.37312 0.83688
 Cu788 Cu 0.15365 0.34634 0.82371
 Cu789 Cu 0.17760 0.34681 0.84689
 Cu790 Cu 0.15320 0.32237 0.84691
 N791 N 0.14005 0.33256 0.82370
 N792 N 0.13996 0.32320 0.83281
 C793 C 0.12946 0.31515 0.83075
 C794 C 0.12261 0.31973 0.81979
 C795 C 0.12960 0.33077 0.81553
 H796 H 0.12689 0.30667 0.83685
 H797 H 0.12713 0.33707 0.80719
 N798 N 0.16745 0.32328 0.86032
 N799 N 0.17674 0.33258 0.86029
 C800 C 0.18479 0.33072 0.87081
 C801 C 0.18034 0.31976 0.87776
 C802 C 0.16937 0.31526 0.87086
 H803 H 0.19319 0.33694 0.87334
 H804 H 0.16318 0.30684 0.87343
 H805 H 0.16819 0.33179 0.83651
 H806 H 0.15749 0.34247 0.84726
 N807 N 0.17718 0.85960 0.33221
 N808 N 0.16740 0.85992 0.32354
 C809 C 0.16871 0.87087 0.31593
 C810 C 0.17991 0.87770 0.32007
 C811 C 0.18506 0.87027 0.33039
 H812 H 0.16205 0.87370 0.30800
 H813 H 0.19387 0.87246 0.33615
 Cu814 Cu 0.15397 0.84597 0.32344
 Cu815 Cu 0.17910 0.84526 0.34512
 Cu816 Cu 0.15299 0.82265 0.34712
 N817 N 0.14024 0.83233 0.32340
 N818 N 0.13987 0.82331 0.33286
 C819 C 0.12927 0.81536 0.33095
 C820 C 0.12263 0.81964 0.31974
 C821 C 0.12985 0.83041 0.31517
 H822 H 0.12652 0.80712 0.33730
 H823 H 0.12758 0.83646 0.30659
 N824 N 0.16737 0.82363 0.36041
 N825 N 0.17737 0.83213 0.35957
 C826 C 0.18547 0.83038 0.37007
 C827 C 0.18033 0.82029 0.37784
 C828 C 0.16889 0.81622 0.37144
 H829 H 0.19441 0.83606 0.37199
 H830 H 0.16219 0.80843 0.37462
 H831 H 0.16793 0.83047 0.33590
 H832 H 0.15886 0.84249 0.34672
 C833 C 0.24010 0.95943 0.24992
 C834 C 0.24989 0.95936 0.24047
 C835 C 0.25578 0.97183 0.24078
 N836 N 0.24990 0.97952 0.25010
 C837 C 0.24031 0.97194 0.25571
 C838 C 0.26690 0.97563 0.23308
 C839 C 0.27108 0.98899 0.23171
 C840 C 0.28311 0.99300 0.22627
 C841 C 0.28298 1.00669 0.22603
 C842 C 0.27091 1.01067 0.23143
 N843 N 0.26369 0.99982 0.23476
 C844 C 0.26648 1.02397 0.23231
 C845 C 0.25554 1.02798 0.24016
 C846 C 0.25022 1.04070 0.24033
 C847 C 0.24059 1.04078 0.24996
 C848 C 0.24042 1.02813 0.25547
 N849 N 0.24959 1.02033 0.24947
 C850 C 0.23255 1.02429 0.26644
 C851 C 0.23113 1.01092 0.27061
 C852 C 0.22586 1.00699 0.28271
 C853 C 0.22579 0.99329 0.28275
 C854 C 0.23103 0.98923 0.27069
 N855 N 0.23419 1.00004 0.26332
 C856 C 0.23233 0.97585 0.26658
 H857 H 0.23355 0.95120 0.25222
 H858 H 0.25235 0.95108 0.23407
 H859 H 0.23702 0.99997 0.25341
 H860 H 0.29114 0.98674 0.22274
 H861 H 0.29084 1.01298 0.22221
 H862 H 0.25307 1.04913 0.23429
 H863 H 0.23448 1.04924 0.25264
 H864 H 0.22235 0.98706 0.29080
 H865 H 0.25372 0.99978 0.23753
 H866 H 0.22248 1.01330 0.29072
 C867 C 0.24500 0.54180 0.75453
 C868 C 0.25509 0.54182 0.74541
 C869 C 0.25799 0.52862 0.74264
 N870 N 0.25007 0.52056 0.74993
 C871 C 0.24214 0.52858 0.75725
 C872 C 0.26761 0.52438 0.73327
 C873 C 0.27057 0.51091 0.73030
 C874 C 0.27842 0.50689 0.71971
 C875 C 0.27844 0.49323 0.71970
 C876 C 0.27060 0.48918 0.73028
 N877 N 0.26604 0.50003 0.73685
 C878 C 0.26769 0.47570 0.73322
 C879 C 0.25806 0.47142 0.74257
 C880 C 0.25520 0.45820 0.74530
 C881 C 0.24510 0.45818 0.75440
 C882 C 0.24219 0.47139 0.75716
 N883 N 0.25011 0.47944 0.74987
 C884 C 0.23255 0.47562 0.76651
 C885 C 0.22960 0.48909 0.76949
 C886 C 0.22174 0.49310 0.78007
 C887 C 0.22173 0.50676 0.78010
 C888 C 0.22959 0.51081 0.76953
 N889 N 0.23415 0.49997 0.76296
 C890 C 0.23251 0.52430 0.76659
 H891 H 0.24036 0.55059 0.75866
 H892 H 0.25971 0.55063 0.74131
 H893 H 0.23938 0.49999 0.75411
 H894 H 0.28337 0.51314 0.71248
 H895 H 0.28341 0.48701 0.71246
 H896 H 0.25984 0.44941 0.74117
 H897 H 0.24048 0.44937 0.75850
 H898 H 0.21676 0.51298 0.78733
 H899 H 0.26082 0.50002 0.74570
 H900 H 0.21677 0.48685 0.78728
 C901 C 0.75465 0.04150 0.25511
 C902 C 0.74563 0.04151 0.24494
 C903 C 0.74299 0.02830 0.24197
 N904 N 0.75013 0.02026 0.25003
 C905 C 0.75728 0.02828 0.25808
 C906 C 0.73369 0.02404 0.23232
 C907 C 0.73035 0.01059 0.22974
 C908 C 0.71985 0.00661 0.22174
 C909 C 0.71966 -0.00706 0.22193
 C910 C 0.73012 -0.01114 0.22994
 N911 N 0.73671 -0.00031 0.23448
 C912 C 0.73304 -0.02463 0.23290
 C913 C 0.74259 -0.02892 0.24232
 C914 C 0.74541 -0.04214 0.24513
 C915 C 0.75479 -0.04215 0.25495
 C916 C 0.75763 -0.02894 0.25776
 N917 N 0.75012 -0.02090 0.25004
 C918 C 0.76717 -0.02467 0.26719
 C919 C 0.77011 -0.01119 0.27014
 C920 C 0.78057 -0.00713 0.27815
 C921 C 0.78039 0.00654 0.27833
 C922 C 0.76990 0.01054 0.27033
 N923 N 0.76353 -0.00034 0.26559
 C924 C 0.76657 0.02400 0.26774
 H925 H 0.75888 0.05027 0.25968
 H926 H 0.74142 0.05030 0.24037
 H927 H 0.75468 -0.00036 0.26035
 H928 H 0.71290 0.01287 0.21643
 H929 H 0.71247 -0.01325 0.21686
 H930 H 0.74117 -0.05093 0.24061
 H931 H 0.75902 -0.05095 0.25948
 H932 H 0.78735 0.01279 0.28365
 H933 H 0.74557 -0.00035 0.23971
 H934 H 0.78774 -0.01334 0.28324
 C935 C 0.74034 0.45941 0.75032
 C936 C 0.75009 0.45937 0.75980
 C937 C 0.75598 0.47183 0.75947
 N938 N 0.75013 0.47951 0.75012
 C939 C 0.74056 0.47191 0.74451
 C940 C 0.76707 0.47565 0.76718
 C941 C 0.77124 0.48901 0.76851
 C942 C 0.78326 0.49305 0.77393
 C943 C 0.78312 0.50674 0.77412
 C944 C 0.77106 0.51069 0.76869
 N945 N 0.76385 0.49982 0.76539
 C946 C 0.76661 0.52399 0.76777
 C947 C 0.75565 0.52797 0.75995
 C948 C 0.75032 0.54070 0.75976
 C949 C 0.74070 0.54077 0.75014
 C950 C 0.74052 0.52811 0.74467
 N951 N 0.74968 0.52031 0.75067
 C952 C 0.73263 0.52424 0.73372
 C953 C 0.73121 0.51086 0.72959
 C954 C 0.72594 0.50689 0.71751
 C955 C 0.72594 0.49320 0.71748
 C956 C 0.73121 0.48917 0.72953
 N957 N 0.73432 0.50000 0.73688
 C958 C 0.73258 0.47579 0.73364
 H959 H 0.73382 0.45116 0.74801
 H960 H 0.75250 0.45111 0.76625
 H961 H 0.73715 0.49994 0.74680
 H962 H 0.79127 0.48680 0.77750
 H963 H 0.79097 0.51305 0.77791
 H964 H 0.75318 0.54914 0.76579
 H965 H 0.73460 0.54923 0.74745
 H966 H 0.72253 0.48694 0.70944
 H967 H 0.75390 0.49978 0.76259
 H968 H 0.72252 0.51318 0.70950
 C969 C 0.24064 0.54089 0.25005
 C970 C 0.25026 0.54080 0.25968
 C971 C 0.25558 0.52807 0.25985
 N972 N 0.24963 0.52043 0.25055
 C973 C 0.24047 0.52825 0.24455
 C974 C 0.26651 0.52406 0.26770
 C975 C 0.27095 0.51075 0.26857
 C976 C 0.28300 0.50678 0.27399
 C977 C 0.28314 0.49308 0.27374
 C978 C 0.27111 0.48908 0.26829
 N979 N 0.26373 0.49991 0.26523
 C980 C 0.26693 0.47572 0.26693
 C981 C 0.25582 0.47193 0.25922
 C982 C 0.24994 0.45946 0.25952
 C983 C 0.24015 0.45953 0.25008
 C984 C 0.24036 0.47204 0.24429
 N985 N 0.24994 0.47963 0.24991
 C986 C 0.23241 0.47595 0.23342
 C987 C 0.23108 0.48934 0.22933
 C988 C 0.22582 0.49341 0.21728
 C989 C 0.22589 0.50710 0.21733
 C990 C 0.23117 0.51103 0.22942
 N991 N 0.23423 0.50014 0.23670
 C992 C 0.23260 0.52440 0.23358
 H993 H 0.23455 0.54936 0.24737
 H994 H 0.25311 0.54923 0.26573
 H995 H 0.23707 0.50008 0.24661
 H996 H 0.29085 0.51306 0.27782
 H997 H 0.29115 0.48682 0.27727
 H998 H 0.25239 0.45116 0.26592
 H999 H 0.23361 0.45130 0.24776
 H1000 H 0.22250 0.51342 0.20933
 H1001 H 0.25377 0.49988 0.26244
 H1002 H 0.22238 0.48717 0.20924
 C1003 C 0.74057 1.04101 0.75010
 C1004 C 0.75021 1.04089 0.74049
 C1005 C 0.75550 1.02815 0.74034
 N1006 N 0.74951 1.02053 0.74964
 C1007 C 0.74036 1.02837 0.75562
 C1008 C 0.76644 1.02411 0.73250
 C1009 C 0.77083 1.01079 0.73159
 C1010 C 0.78287 1.00677 0.72616
 C1011 C 0.78296 0.99308 0.72640
 C1012 C 0.77092 0.98910 0.73186
 N1013 N 0.76358 0.99996 0.73493
 C1014 C 0.76671 0.97576 0.73324
 C1015 C 0.75558 0.97200 0.74096
 C1016 C 0.74967 0.95955 0.74069
 C1017 C 0.73988 0.95967 0.75013
 C1018 C 0.74012 0.97219 0.75590
 N1019 N 0.74972 0.97974 0.75026
 C1020 C 0.73218 0.97612 0.76678
 C1021 C 0.73088 0.98951 0.77087
 C1022 C 0.72560 0.99358 0.78291
 C1023 C 0.72568 1.00728 0.78285
 C1024 C 0.73099 1.01120 0.77076
 N1025 N 0.73406 1.00030 0.76349
 C1026 C 0.73244 1.02455 0.76658
 H1027 H 0.73448 1.04949 0.75276
 H1028 H 0.75309 1.04931 0.73443
 H1029 H 0.73691 1.00022 0.75359
 H1030 H 0.79074 1.01304 0.72233
 H1031 H 0.79095 0.98679 0.72285
 H1032 H 0.75212 0.95123 0.73432
 H1033 H 0.73332 0.95145 0.75247
 H1034 H 0.72228 1.01361 0.79084
 H1035 H 0.75362 0.99996 0.73774
 H1036 H 0.72212 0.98736 0.79095
 C1037 C 0.74492 0.45828 0.25456
 C1038 C 0.75502 0.45827 0.24545
 C1039 C 0.75791 0.47148 0.24271
 N1040 N 0.74998 0.47953 0.25000
 C1041 C 0.74204 0.47150 0.25730
 C1042 C 0.76753 0.47573 0.23335
 C1043 C 0.77047 0.48920 0.23039
 C1044 C 0.77831 0.49322 0.21979
 C1045 C 0.77831 0.50687 0.21978
 C1046 C 0.77048 0.51092 0.23038
 N1047 N 0.76594 0.50007 0.23694
 C1048 C 0.76756 0.52440 0.23333
 C1049 C 0.75794 0.52868 0.24269
 C1050 C 0.75507 0.54190 0.24544
 C1051 C 0.74499 0.54191 0.25456
 C1052 C 0.74209 0.52870 0.25730
 N1053 N 0.75001 0.52065 0.24999
 C1054 C 0.73246 0.52445 0.26665
 C1055 C 0.72951 0.51098 0.26961
 C1056 C 0.72164 0.50695 0.28018
 C1057 C 0.72163 0.49329 0.28018
 C1058 C 0.72948 0.48925 0.26960
 N1059 N 0.73405 0.50011 0.26305
 C1060 C 0.73241 0.47577 0.26664
 H1061 H 0.74029 0.44949 0.25867
 H1062 H 0.75965 0.44947 0.24134
 H1063 H 0.73928 0.50010 0.25420
 H1064 H 0.78326 0.48698 0.21256
 H1065 H 0.78326 0.51310 0.21254
 H1066 H 0.75970 0.55069 0.24131
 H1067 H 0.74037 0.55072 0.25868
 H1068 H 0.71666 0.48707 0.28740
 H1069 H 0.76073 0.50008 0.24581
 H1070 H 0.71669 0.51319 0.28741
 C1071 C 0.25049 0.04032 0.75991
 C1072 C 0.24086 0.04042 0.75030
 C1073 C 0.24069 0.02779 0.74477
 N1074 N 0.24986 0.01997 0.75073
 C1075 C 0.25582 0.02760 0.76005
 C1076 C 0.23282 0.02396 0.73380
 C1077 C 0.23142 0.01059 0.72961
 C1078 C 0.22615 0.00666 0.71752
 C1079 C 0.22611 -0.00703 0.71745
 C1080 C 0.23136 -0.01110 0.72950
 N1081 N 0.23450 -0.00030 0.73688
 C1082 C 0.23268 -0.02449 0.73359
 C1083 C 0.24065 -0.02842 0.74444
 C1084 C 0.24046 -0.04094 0.75020
 C1085 C 0.25025 -0.04103 0.75964
 C1086 C 0.25613 -0.02856 0.75935
 N1087 N 0.25024 -0.02084 0.75006
 C1088 C 0.26724 -0.02476 0.76706
 C1089 C 0.27140 -0.01140 0.76844
 C1090 C 0.28343 -0.00738 0.77387
 C1091 C 0.28328 0.00632 0.77412
 C1092 C 0.27122 0.01028 0.76873
 N1093 N 0.26400 -0.00057 0.76540
 C1094 C 0.26677 0.02359 0.76786
 H1095 H 0.25333 0.04874 0.76597
 H1096 H 0.23475 0.04889 0.74763
 H1097 H 0.25404 -0.00061 0.76262
 H1098 H 0.22277 0.01299 0.70952
 H1099 H 0.22267 -0.01325 0.70940
 H1100 H 0.23392 -0.04918 0.74788
 H1101 H 0.25271 -0.04933 0.76602
 H1102 H 0.29114 0.01261 0.77793
 H1103 H 0.23733 -0.00039 0.74679
 H1104 H 0.29146 -0.01363 0.77737
 C1105 C 0.24025 0.24977 0.95963
 C1106 C 0.24980 0.24004 0.95967
 C1107 C 0.25562 0.24027 0.97212
 N1108 N 0.24994 0.24981 0.97970
 C1109 C 0.24054 0.25565 0.97206
 C1110 C 0.26661 0.23238 0.97598
 C1111 C 0.27075 0.23105 0.98931
 C1112 C 0.28289 0.22585 0.99332
 C1113 C 0.28286 0.22590 1.00696
 C1114 C 0.27071 0.23113 1.01093
 N1115 N 0.26335 0.23416 1.00010
 C1116 C 0.26656 0.23256 1.02426
 C1117 C 0.25550 0.24038 1.02811
 C1118 C 0.25000 0.24054 1.04073
 C1119 C 0.24029 0.25012 1.04067
 C1120 C 0.24006 0.25543 1.02799
 N1121 N 0.24942 0.24951 1.02034
 C1122 C 0.23213 0.26633 1.02402
 C1123 C 0.23117 0.27075 1.01077
 C1124 C 0.22567 0.28278 1.00682
 C1125 C 0.22588 0.28291 0.99318
 C1126 C 0.23139 0.27091 0.98917
 N1127 N 0.23452 0.26354 0.99995
 C1128 C 0.23276 0.26673 0.97585
 H1129 H 0.23381 0.25220 0.95138
 H1130 H 0.25216 0.23353 0.95145
 H1131 H 0.23737 0.25360 0.99991
 H1132 H 0.29097 0.22245 0.98708
 H1133 H 0.29094 0.22255 1.01323
 H1134 H 0.25275 0.23447 1.04915
 H1135 H 0.23423 0.25295 1.04909
 H1136 H 0.22229 0.29091 0.98695
 H1137 H 0.25339 0.23696 1.00006
 H1138 H 0.22182 0.29062 1.01310
 C1139 C 0.23971 0.74950 0.54009
 C1140 C 0.24934 0.73984 0.54010
 C1141 C 0.25534 0.74023 0.52773
 N1142 N 0.24969 0.74978 0.52014
 C1143 C 0.24015 0.75548 0.52772
 C1144 C 0.26648 0.73252 0.52397
 C1145 C 0.27073 0.73127 0.51066
 C1146 C 0.28295 0.72624 0.50668
 C1147 C 0.28293 0.72621 0.49303
 C1148 C 0.27070 0.73122 0.48906
 N1149 N 0.26330 0.73422 0.49987
 C1150 C 0.26642 0.73240 0.47577
 C1151 C 0.25532 0.74016 0.47199
 C1152 C 0.24932 0.73978 0.45962
 C1153 C 0.23974 0.74948 0.45961
 C1154 C 0.24018 0.75548 0.47198
 N1155 N 0.24970 0.74975 0.47956
 C1156 C 0.23254 0.76667 0.47574
 C1157 C 0.23135 0.77093 0.48905
 C1158 C 0.22642 0.78319 0.49303
 C1159 C 0.22641 0.78319 0.50667
 C1160 C 0.23133 0.77092 0.51065
 N1161 N 0.23426 0.76350 0.49985
 C1162 C 0.23250 0.76666 0.52395
 H1163 H 0.23316 0.75184 0.54828
 H1164 H 0.25164 0.73328 0.54830
 H1165 H 0.23681 0.75346 0.49985
 H1166 H 0.29107 0.72298 0.51293
 H1167 H 0.29104 0.72292 0.48677
 H1168 H 0.25160 0.73319 0.45144
 H1169 H 0.23319 0.75183 0.45142
 H1170 H 0.22318 0.79132 0.51294
 H1171 H 0.25328 0.73686 0.49988
 H1172 H 0.22322 0.79134 0.48677
 C1173 C 0.24523 0.74535 -0.04187
 C1174 C 0.25525 0.75456 -0.04192
 C1175 C 0.25815 0.75735 -0.02877
 N1176 N 0.25030 0.74999 -0.02072
 C1177 C 0.24240 0.74260 -0.02869
 C1178 C 0.26773 0.76680 -0.02457
 C1179 C 0.27068 0.76980 -0.01116
 C1180 C 0.27851 0.78045 -0.00718
 C1181 C 0.27852 0.78049 0.00643
 C1182 C 0.27070 0.76986 0.01049
 N1183 N 0.26617 0.76325 -0.00031
 C1184 C 0.26777 0.76693 0.02393
 C1185 C 0.25821 0.75750 0.02821
 C1186 C 0.25535 0.75478 0.04140
 C1187 C 0.24532 0.74558 0.04144
 C1188 C 0.24245 0.74276 0.02829
 N1189 N 0.25033 0.75009 0.02024
 C1190 C 0.23287 0.73331 0.02409
 C1191 C 0.22995 0.73028 0.01068
 C1192 C 0.22215 0.71961 0.00670
 C1193 C 0.22215 0.71957 -0.00691
 C1194 C 0.22994 0.73022 -0.01097
 N1195 N 0.23445 0.73685 -0.00017
 C1196 C 0.23284 0.73317 -0.02440
 H1197 H 0.24061 0.74117 -0.05062
 H1198 H 0.25982 0.75871 -0.05071
 H1199 H 0.23961 0.74577 -0.00020
 H1200 H 0.28344 0.78769 -0.01343
 H1201 H 0.28347 0.78776 0.01261
 H1202 H 0.25995 0.75897 0.05014
 H1203 H 0.24071 0.74147 0.05023
 H1204 H 0.21722 0.71229 -0.01310
 H1205 H 0.26096 0.75436 -0.00028
 H1206 H 0.21723 0.71236 0.01294
 C1207 C 0.25975 0.24981 0.54046
 C1208 C 0.25005 0.24025 0.54053
 C1209 C 0.24417 0.24049 0.52810
 N1210 N 0.24998 0.24989 0.52043
 C1211 C 0.25950 0.25561 0.52799
 C1212 C 0.23311 0.23268 0.52432
 C1213 C 0.22895 0.23127 0.51101
 C1214 C 0.21696 0.22573 0.50701
 C1215 C 0.21710 0.22551 0.49336
 C1216 C 0.22912 0.23102 0.48941
 N1217 N 0.23632 0.23439 0.50022
 C1218 C 0.23354 0.23198 0.47615
 C1219 C 0.24443 0.23990 0.47217
 C1220 C 0.24975 0.24012 0.45948
 C1221 C 0.25931 0.24984 0.45941
 C1222 C 0.25945 0.25535 0.47201
 N1223 N 0.25033 0.24927 0.47979
 C1224 C 0.26723 0.26642 0.47584
 C1225 C 0.26862 0.27061 0.48916
 C1226 C 0.27380 0.28278 0.49308
 C1227 C 0.27384 0.28284 0.50672
 C1228 C 0.26867 0.27071 0.51077
 N1229 N 0.26559 0.26329 0.50000
 C1230 C 0.26736 0.26659 0.52411
 H1231 H 0.26626 0.25219 0.54867
 H1232 H 0.24763 0.23382 0.54880
 H1233 H 0.26283 0.25332 0.50007
 H1234 H 0.20897 0.22213 0.51325
 H1235 H 0.20927 0.22163 0.48709
 H1236 H 0.24694 0.23405 0.45108
 H1237 H 0.26539 0.25258 0.45098
 H1238 H 0.27722 0.29094 0.51294
 H1239 H 0.24626 0.23726 0.50026
 H1240 H 0.27714 0.29084 0.48679
 C1241 C 0.74084 0.75001 0.95923
 C1242 C 0.75041 0.74029 0.95930
 C1243 C 0.75570 0.74005 0.97199
 N1244 N 0.74978 0.74941 0.97962
 C1245 C 0.74067 0.75551 0.97184
 C1246 C 0.76658 0.73210 0.97598
 C1247 C 0.77096 0.73111 0.98924
 C1248 C 0.78295 0.72555 0.99321
 C1249 C 0.78304 0.72573 1.00686
 C1250 C 0.77104 0.73128 1.01085
 N1251 N 0.76372 0.73447 1.00005
 C1252 C 0.76684 0.73265 1.02415
 C1253 C 0.75580 0.74051 1.02794
 C1254 C 0.74990 0.74028 1.04037
 C1255 C 0.74023 0.74989 1.04030
 C1256 C 0.74052 0.75569 1.02783
 N1257 N 0.75004 0.74994 1.02027
 C1258 C 0.73271 0.76672 1.02395
 C1259 C 0.73141 0.77085 1.01061
 C1260 C 0.72625 0.78299 1.00658
 C1261 C 0.72628 0.78294 0.99294
 C1262 C 0.73147 0.77076 0.98900
 N1263 N 0.73449 0.76342 0.99984
 C1264 C 0.73286 0.76657 0.97568
 H1265 H 0.73478 0.75276 0.95080
 H1266 H 0.75325 0.73423 0.95090
 H1267 H 0.73724 0.75345 0.99990
 H1268 H 0.79080 0.72167 0.98695
 H1269 H 0.79101 0.72210 1.01310
 H1270 H 0.75228 0.73384 1.04863
 H1271 H 0.73372 0.75230 1.04851
 H1272 H 0.72294 0.79100 0.98665
 H1273 H 0.75379 0.73736 1.00007
 H1274 H 0.72288 0.79109 1.01280
 C1275 C 0.74051 0.24986 0.54069
 C1276 C 0.75006 0.24012 0.54061
 C1277 C 0.75538 0.23990 0.52794
 N1278 N 0.74951 0.24929 0.52031
 C1279 C 0.74039 0.25539 0.52809
 C1280 C 0.76627 0.23194 0.52396
 C1281 C 0.77070 0.23099 0.51071
 C1282 C 0.78272 0.22547 0.50676
 C1283 C 0.78286 0.22570 0.49311
 C1284 C 0.77087 0.23125 0.48911
 N1285 N 0.76350 0.23438 0.49989
 C1286 C 0.76671 0.23267 0.47579
 C1287 C 0.75566 0.24050 0.47201
 C1288 C 0.74979 0.24027 0.45958
 C1289 C 0.74009 0.24986 0.45965
 C1290 C 0.74035 0.25565 0.47212
 N1291 N 0.74986 0.24990 0.47968
 C1292 C 0.73251 0.26666 0.47600
 C1293 C 0.73121 0.27077 0.48934
 C1294 C 0.72605 0.28292 0.49338
 C1295 C 0.72609 0.28286 0.50703
 C1296 C 0.73125 0.27067 0.51095
 N1297 N 0.73427 0.26334 0.50010
 C1298 C 0.73261 0.26647 0.52427
 H1299 H 0.73444 0.25261 0.54912
 H1300 H 0.75285 0.23402 0.54901
 H1301 H 0.73700 0.25336 0.50003
 H1302 H 0.79055 0.22158 0.51303
 H1303 H 0.79086 0.22209 0.48688
 H1304 H 0.75220 0.23384 0.45131
 H1305 H 0.73359 0.25226 0.45143
 H1306 H 0.72276 0.29092 0.51332
 H1307 H 0.75357 0.23726 0.49985
 H1308 H 0.72268 0.29102 0.48717
 C1309 C 0.74066 0.25027 -0.04081
 C1310 C 0.75018 0.26002 -0.04072
 C1311 C 0.75550 0.26022 -0.02805
 N1312 N 0.74965 0.25081 -0.02044
 C1313 C 0.74055 0.24472 -0.02822
 C1314 C 0.76637 0.26819 -0.02406
 C1315 C 0.77080 0.26912 -0.01081
 C1316 C 0.78281 0.27465 -0.00687
 C1317 C 0.78296 0.27438 0.00677
 C1318 C 0.77098 0.26881 0.01079
 N1319 N 0.76362 0.26569 0.00000
 C1320 C 0.76683 0.26736 0.02410
 C1321 C 0.75579 0.25951 0.02788
 C1322 C 0.74992 0.25972 0.04032
 C1323 C 0.74024 0.25012 0.04025
 C1324 C 0.74051 0.24436 0.02776
 N1325 N 0.75001 0.25012 0.02020
 C1326 C 0.73268 0.23336 0.02386
 C1327 C 0.73138 0.22926 0.01052
 C1328 C 0.72625 0.21712 0.00646
 C1329 C 0.72629 0.21720 -0.00718
 C1330 C 0.73143 0.22939 -0.01109
 N1331 N 0.73443 0.23671 -0.00024
 C1332 C 0.73280 0.23362 -0.02440
 H1333 H 0.73459 0.24753 -0.04924
 H1334 H 0.75297 0.26613 -0.04911
 H1335 H 0.73716 0.24669 -0.00015
 H1336 H 0.79062 0.27856 -0.01315
 H1337 H 0.79095 0.27798 0.01300
 H1338 H 0.75231 0.26614 0.04860
 H1339 H 0.73374 0.24770 0.04846
 H1340 H 0.72298 0.20914 -0.01349
 H1341 H 0.75368 0.26280 0.00005
 H1342 H 0.72290 0.20899 0.01266
 C1343 C 0.74515 0.74508 0.45853
 C1344 C 0.75425 0.75520 0.45844
 C1345 C 0.75750 0.75775 0.47156
 N1346 N 0.75055 0.74955 0.47963
 C1347 C 0.74300 0.74176 0.47170
 C1348 C 0.76687 0.76743 0.47571
 C1349 C 0.76981 0.77048 0.48913
 C1350 C 0.78017 0.77867 0.49312
 C1351 C 0.77997 0.77896 0.50673
 C1352 C 0.76955 0.77086 0.51078
 N1353 N 0.76325 0.76595 0.49996
 C1354 C 0.76628 0.76829 0.52421
 C1355 C 0.75702 0.75859 0.52854
 C1356 C 0.75490 0.75524 0.54171
 C1357 C 0.74581 0.74511 0.54180
 C1358 C 0.74253 0.74260 0.52867
 N1359 N 0.74946 0.75082 0.52061
 C1360 C 0.73313 0.73295 0.52452
 C1361 C 0.73017 0.72992 0.51111
 C1362 C 0.71977 0.72177 0.50712
 C1363 C 0.71998 0.72147 0.49351
 C1364 C 0.73043 0.72953 0.48946
 N1365 N 0.73676 0.73442 0.50028
 C1366 C 0.73371 0.73209 0.47603
 H1367 H 0.74044 0.74087 0.44984
 H1368 H 0.75790 0.76019 0.44966
 H1369 H 0.74561 0.73968 0.50030
 H1370 H 0.78727 0.78384 0.48690
 H1371 H 0.78684 0.78444 0.51292
 H1372 H 0.75963 0.75943 0.55040
 H1373 H 0.74217 0.74010 0.55057
 H1374 H 0.71309 0.71600 0.48732
 H1375 H 0.75442 0.76064 0.49994
 H1376 H 0.71264 0.71665 0.51334
 C1377 C 0.95948 0.25982 0.25019
 C1378 C 0.95942 0.25002 0.25963
 C1379 C 0.97191 0.24415 0.25933
 N1380 N 0.97962 0.25005 0.25003
 C1381 C 0.97201 0.25963 0.24442
 C1382 C 0.97572 0.23302 0.26700
 C1383 C 0.98909 0.22885 0.26836
 C1384 C 0.99313 0.21681 0.27376
 C1385 C 1.00683 0.21695 0.27400
 C1386 C 1.01078 0.22902 0.26863
 N1387 N 0.99992 0.23625 0.26532
 C1388 C 1.02409 0.23347 0.26775
 C1389 C 1.02808 0.24444 0.25996
 C1390 C 1.04080 0.24978 0.25982
 C1391 C 1.04088 0.25943 0.25023
 C1392 C 1.02823 0.25960 0.24471
 N1393 N 1.02043 0.25041 0.25067
 C1394 C 1.02439 0.26750 0.23376
 C1395 C 1.01102 0.26891 0.22958
 C1396 C 1.00708 0.27419 0.21749
 C1397 C 0.99338 0.27422 0.21743
 C1398 C 0.98932 0.26894 0.22947
 N1399 N 1.00012 0.26581 0.23685
 C1400 C 0.97592 0.26759 0.23355
 H1401 H 0.95123 0.26634 0.24787
 H1402 H 0.95111 0.24754 0.26600
 H1403 H 1.00004 0.26296 0.24676
 H1404 H 0.98687 0.20878 0.27726
 H1405 H 1.01313 0.20909 0.27779
 H1406 H 1.04923 0.24692 0.26587
 H1407 H 1.04933 0.26555 0.24758
 H1408 H 0.98715 0.27766 0.20938
 H1409 H 0.99987 0.24621 0.26257
 H1410 H 1.01341 0.27760 0.20950
 C1411 C 0.54190 0.25485 0.74567
 C1412 C 0.54189 0.24476 0.75476
 C1413 C 0.52867 0.24186 0.75748
 N1414 N 0.52063 0.24979 0.75019
 C1415 C 0.52868 0.25774 0.74292
 C1416 C 0.52441 0.23223 0.76681
 C1417 C 0.51092 0.22930 0.76976
 C1418 C 0.50687 0.22142 0.78031
 C1419 C 0.49321 0.22142 0.78030
 C1420 C 0.48918 0.22930 0.76974
 N1421 N 0.50006 0.23387 0.76322
 C1422 C 0.47570 0.23224 0.76677
 C1423 C 0.47144 0.24188 0.75744
 C1424 C 0.45822 0.24477 0.75469
 C1425 C 0.45823 0.25487 0.74560
 C1426 C 0.47145 0.25775 0.74287
 N1427 N 0.47949 0.24981 0.75016
 C1428 C 0.47572 0.26738 0.73353
 C1429 C 0.48921 0.27032 0.73058
 C1430 C 0.49326 0.27818 0.72002
 C1431 C 0.50693 0.27817 0.72003
 C1432 C 0.51095 0.27031 0.73061
 N1433 N 0.50007 0.26575 0.73713
 C1434 C 0.52443 0.26738 0.73359
 H1435 H 0.55070 0.25948 0.74156
 H1436 H 0.55070 0.24015 0.75889
 H1437 H 0.50006 0.26050 0.74596
 H1438 H 0.51311 0.21643 0.78752
 H1439 H 0.48696 0.21642 0.78749
 H1440 H 0.44941 0.24013 0.75878
 H1441 H 0.44942 0.25951 0.74149
 H1442 H 0.51318 0.28313 0.71282
 H1443 H 0.50006 0.23912 0.75439
 H1444 H 0.48703 0.28316 0.71280
 C1445 C -0.04193 0.25486 0.75495
 C1446 C -0.04196 0.24570 0.74491
 C1447 C -0.02876 0.24244 0.74244
 N1448 N -0.02071 0.24944 0.75060
 C1449 C -0.02871 0.25703 0.75829
 C1450 C -0.02454 0.23298 0.73291
 C1451 C -0.01106 0.22999 0.72995
 C1452 C -0.00702 0.21952 0.72194
 C1453 C 0.00665 0.21971 0.72167
 C1454 C 0.01069 0.23022 0.72962
 N1455 N -0.00019 0.23660 0.73441
 C1456 C 0.02419 0.23351 0.73217
 C1457 C 0.02849 0.24290 0.74172
 C1458 C 0.04171 0.24512 0.74503
 C1459 C 0.04174 0.25429 0.75505
 C1460 C 0.02855 0.25751 0.75755
 N1461 N 0.02049 0.25048 0.74942
 C1462 C 0.02432 0.26696 0.76709
 C1463 C 0.01084 0.26992 0.77008
 C1464 C 0.00680 0.28035 0.77815
 C1465 C -0.00687 0.28015 0.77844
 C1466 C -0.01091 0.26967 0.77044
 N1467 N -0.00002 0.26333 0.76560
 C1468 C -0.02440 0.26639 0.76788
 H1469 H -0.05068 0.25957 0.75908
 H1470 H -0.05074 0.24202 0.73991
 H1471 H 0.00002 0.25450 0.76034
 H1472 H -0.01325 0.21234 0.71691
 H1473 H 0.01287 0.21274 0.71633
 H1474 H 0.05047 0.24041 0.74088
 H1475 H 0.05054 0.25801 0.76001
 H1476 H -0.01308 0.28708 0.78383
 H1477 H -0.00024 0.24547 0.73962
 H1478 H 0.01303 0.28752 0.78321
 C1479 C 0.45820 0.24483 0.24551
 C1480 C 0.45820 0.25507 0.25445
 C1481 C 0.47142 0.25806 0.25708
 N1482 N 0.47945 0.24987 0.25006
 C1483 C 0.47142 0.24174 0.24297
 C1484 C 0.47569 0.26785 0.26626
 C1485 C 0.48918 0.27056 0.26947
 C1486 C 0.49321 0.27896 0.27963
 C1487 C 0.50688 0.27880 0.27977
 C1488 C 0.51094 0.27041 0.26962
 N1489 N 0.50007 0.26563 0.26325
 C1490 C 0.52443 0.26736 0.26674
 C1491 C 0.52872 0.25776 0.25736
 C1492 C 0.54194 0.25495 0.25452
 C1493 C 0.54195 0.24499 0.24527
 C1494 C 0.52872 0.24206 0.24259
 N1495 N 0.52070 0.24987 0.25003
 C1496 C 0.52444 0.23239 0.23330
 C1497 C 0.51096 0.22922 0.23054
 C1498 C 0.50691 0.22059 0.22060
 C1499 C 0.49324 0.22041 0.22077
 C1500 C 0.48920 0.22905 0.23073
 N1501 N 0.50008 0.23414 0.23681
 C1502 C 0.47571 0.23186 0.23388
 H1503 H 0.44940 0.24026 0.24131
 H1504 H 0.44940 0.25969 0.25861
 H1505 H 0.50009 0.23998 0.24522
 H1506 H 0.48698 0.28457 0.28637
 H1507 H 0.51311 0.28419 0.28668
 H1508 H 0.55074 0.25957 0.25866
 H1509 H 0.55075 0.24044 0.24105
 H1510 H 0.48701 0.21463 0.21419
 H1511 H 0.50009 0.26006 0.25464
 H1512 H 0.51314 0.21504 0.21380
 C1513 C 1.04084 0.75942 0.75027
 C1514 C 1.04075 0.74979 0.75988
 C1515 C 1.02802 0.74448 0.76003
 N1516 N 1.02038 0.75044 0.75072
 C1517 C 1.02820 0.75960 0.74474
 C1518 C 1.02400 0.73354 0.76784
 C1519 C 1.01069 0.72911 0.76874
 C1520 C 1.00673 0.71706 0.77415
 C1521 C 0.99303 0.71695 0.77395
 C1522 C 0.98900 0.72898 0.76853
 N1523 N 0.99984 0.73635 0.76544
 C1524 C 0.97563 0.73318 0.76720
 C1525 C 0.97183 0.74427 0.75947
 C1526 C 0.95936 0.75017 0.75976
 C1527 C 0.95944 0.75994 0.75029
 C1528 C 0.97197 0.75970 0.74451
 N1529 N 0.97955 0.75013 0.75015
 C1530 C 0.97589 0.76763 0.73363
 C1531 C 0.98929 0.76894 0.72952
 C1532 C 0.99335 0.77417 0.71745
 C1533 C 1.00705 0.77413 0.71751
 C1534 C 1.01099 0.76888 0.72960
 N1535 N 1.00010 0.76581 0.73689
 C1536 C 1.02437 0.76748 0.73378
 H1537 H 1.04931 0.76552 0.74760
 H1538 H 1.04917 0.74693 0.76593
 H1539 H 1.00002 0.76300 0.74681
 H1540 H 1.01302 0.70920 0.77795
 H1541 H 0.98676 0.70894 0.77748
 H1542 H 0.95105 0.74774 0.76615
 H1543 H 0.95121 0.76648 0.74796
 H1544 H 1.01337 0.77751 0.70949
 H1545 H 0.99981 0.74631 0.76267
 H1546 H 0.98711 0.77759 0.70940
 C1547 C 0.45929 0.75001 0.25961
 C1548 C 0.45937 0.75982 0.25019
 C1549 C 0.47191 0.75962 0.24443
 N1550 N 0.47950 0.75004 0.25005
 C1551 C 0.47178 0.74414 0.25933
 C1552 C 0.47583 0.76758 0.23357
 C1553 C 0.48923 0.76891 0.22950
 C1554 C 0.49331 0.77415 0.21744
 C1555 C 0.50701 0.77411 0.21752
 C1556 C 0.51093 0.76885 0.22962
 N1557 N 0.50003 0.76579 0.23689
 C1558 C 0.52429 0.76744 0.23382
 C1559 C 0.52812 0.75956 0.24479
 C1560 C 0.54075 0.75939 0.25033
 C1561 C 0.54066 0.74975 0.25993
 C1562 C 0.52794 0.74442 0.26005
 N1563 N 0.52030 0.75039 0.25074
 C1564 C 0.52393 0.73346 0.26784
 C1565 C 0.51062 0.72902 0.26871
 C1566 C 0.50666 0.71694 0.27407
 C1567 C 0.49296 0.71680 0.27380
 C1568 C 0.48893 0.72884 0.26839
 N1569 N 0.49976 0.73624 0.26538
 C1570 C 0.47557 0.73300 0.26699
 H1571 H 0.45097 0.74753 0.26598
 H1572 H 0.45113 0.76635 0.24786
 H1573 H 0.49972 0.74620 0.26263
 H1574 H 0.48709 0.77757 0.20938
 H1575 H 0.51335 0.77748 0.20951
 H1576 H 0.54922 0.76550 0.24767
 H1577 H 0.54908 0.74690 0.26599
 H1578 H 0.48670 0.70877 0.27729
 H1579 H 0.49994 0.76296 0.24681
 H1580 H 0.51296 0.70909 0.27788
 C1581 C 0.04085 0.75943 0.24970
 C1582 C 0.04077 0.74978 0.24012
 C1583 C 0.02805 0.74445 0.23999
 N1584 N 0.02040 0.75043 0.24929
 C1585 C 0.02820 0.75961 0.25523
 C1586 C 0.02405 0.73348 0.23221
 C1587 C 0.01075 0.72903 0.23136
 C1588 C 0.00679 0.71695 0.22600
 C1589 C -0.00691 0.71681 0.22626
 C1590 C -0.01095 0.72885 0.23166
 N1591 N -0.00012 0.73625 0.23468
 C1592 C -0.02432 0.73302 0.23304
 C1593 C -0.02812 0.74416 0.24070
 C1594 C -0.04061 0.75003 0.24040
 C1595 C -0.04055 0.75984 0.24983
 C1596 C -0.02802 0.75965 0.25558
 N1597 N -0.02042 0.75007 0.24998
 C1598 C -0.02411 0.76763 0.26643
 C1599 C -0.01071 0.76899 0.27050
 C1600 C -0.00665 0.77429 0.28253
 C1601 C 0.00705 0.77426 0.28245
 C1602 C 0.01099 0.76895 0.27037
 N1603 N 0.00010 0.76585 0.26312
 C1604 C 0.02436 0.76752 0.26619
 H1605 H 0.04931 0.76554 0.25235
 H1606 H 0.04920 0.74691 0.23407
 H1607 H 0.00002 0.76298 0.25322
 H1608 H 0.01310 0.70909 0.22221
 H1609 H -0.01317 0.70878 0.22276
 H1610 H -0.04892 0.74755 0.23404
 H1611 H -0.04880 0.76636 0.25215
 H1612 H 0.01338 0.77769 0.29043
 H1613 H -0.00017 0.74621 0.23742
 H1614 H -0.01289 0.77774 0.29058
 C1615 C 0.45929 0.75984 0.74995
 C1616 C 0.45925 0.75007 0.74048
 C1617 C 0.47175 0.74421 0.74079
 N1618 N 0.47943 0.75009 0.75011
 C1619 C 0.47180 0.75965 0.75573
 C1620 C 0.47559 0.73310 0.73310
 C1621 C 0.48897 0.72891 0.73178
 C1622 C 0.49301 0.71689 0.72635
 C1623 C 0.50671 0.71703 0.72613
 C1624 C 0.51066 0.72908 0.73155
 N1625 N 0.49979 0.73629 0.73487
 C1626 C 0.52397 0.73351 0.73247
 C1627 C 0.52794 0.74447 0.74028
 C1628 C 0.54067 0.74980 0.74047
 C1629 C 0.54072 0.75942 0.75009
 C1630 C 0.52805 0.75961 0.75556
 N1631 N 0.52026 0.75045 0.74956
 C1632 C 0.52417 0.76750 0.76651
 C1633 C 0.51078 0.76894 0.77065
 C1634 C 0.50680 0.77425 0.78271
 C1635 C 0.49310 0.77427 0.78275
 C1636 C 0.48907 0.76897 0.77072
 N1637 N 0.49990 0.76583 0.76336
 C1638 C 0.47568 0.76760 0.76662
 H1639 H 0.45102 0.76634 0.75228
 H1640 H 0.45097 0.74760 0.73409
 H1641 H 0.49986 0.76296 0.75346
 H1642 H 0.48676 0.70888 0.72281
 H1643 H 0.51302 0.70918 0.72231
 H1644 H 0.54912 0.74695 0.73443
 H1645 H 0.54918 0.76550 0.75280
 H1646 H 0.48683 0.77771 0.79079
 H1647 H 0.49973 0.74624 0.73766
 H1648 H 0.51309 0.77768 0.79072
 N1649 N 0.40613 0.31473 0.29794
 C1650 C 0.41195 0.30384 0.30335
 N1651 N 0.40632 0.29810 0.31416
 N1652 N 0.39523 0.30313 0.31941
 C1653 C 0.38938 0.31404 0.31400
 N1654 N 0.39504 0.31976 0.30319
 C1655 C 0.42368 0.29822 0.29747
 C1656 C 0.43339 0.29340 0.29233
 C1657 C 0.44470 0.28749 0.28595
 N1658 N 0.45256 0.27875 0.29256
 N1659 N 0.46265 0.27273 0.28639
 C1660 C 0.46521 0.27530 0.27342
 N1661 N 0.45736 0.28410 0.26684
 N1662 N 0.44728 0.29010 0.27301
 N1663 N 0.40689 0.79899 0.81512
 C1664 C 0.41213 0.80405 0.80381
 N1665 N 0.40594 0.81440 0.79778
 N1666 N 0.39486 0.81957 0.80294
 C1667 C 0.38957 0.81452 0.81428
 N1668 N 0.39581 0.80415 0.82028
 C1669 C 0.42384 0.79822 0.79806
 C1670 C 0.43349 0.79306 0.79313
 C1671 C 0.44465 0.78656 0.78704
 N1672 N 0.45538 0.79364 0.78289
 N1673 N 0.46542 0.78759 0.77666
 C1674 C 0.46504 0.77428 0.77436
 N1675 N 0.45434 0.76722 0.77866
 N1676 N 0.44432 0.77326 0.78488
 N1677 N -0.09361 0.29865 0.81454
 C1678 C -0.08805 0.30406 0.80354
 N1679 N -0.09390 0.31480 0.79785
 N1680 N -0.10496 0.31998 0.80302
 C1681 C -0.11056 0.31457 0.81403
 N1682 N -0.10467 0.30382 0.81970
 C1683 C -0.07636 0.29820 0.79778
 C1684 C -0.06670 0.29300 0.79293
 C1685 C -0.05542 0.28649 0.78707
 N1686 N -0.04755 0.29298 0.77827
 N1687 N -0.03745 0.28670 0.77239
 C1688 C -0.03488 0.27373 0.77518
 N1689 N -0.04277 0.26726 0.78401
 N1690 N -0.05285 0.27354 0.78988
 N1691 N -0.09326 0.79842 0.31458
 C1692 C -0.08751 0.80407 0.30380
 N1693 N -0.09325 0.81492 0.29823
 N1694 N -0.10440 0.82001 0.30333
 C1695 C -0.11019 0.81438 0.31413
 N1696 N -0.10440 0.80351 0.31967
 C1697 C -0.07578 0.79828 0.29806
 C1698 C -0.06614 0.79314 0.29310
 C1699 C -0.05501 0.78664 0.28697
 N1700 N -0.04430 0.79370 0.28278
 N1701 N -0.03430 0.78764 0.27650
 C1702 C -0.03472 0.77433 0.27419
 N1703 N -0.04541 0.76729 0.27853
 N1704 N -0.05538 0.77334 0.28480
 N1705 N 0.59365 0.68561 0.29792
 C1706 C 0.58775 0.69636 0.30354
 N1707 N 0.59327 0.70187 0.31450
 N1708 N 0.60436 0.69678 0.31970
 C1709 C 0.61030 0.68602 0.31409
 N1710 N 0.60474 0.68051 0.30312
 C1711 C 0.57600 0.70206 0.29778
 C1712 C 0.56626 0.70707 0.29289
 C1713 C 0.55489 0.71333 0.28695
 N1714 N 0.54995 0.72479 0.29209
 N1715 N 0.53985 0.73102 0.28619
 C1716 C 0.53435 0.72597 0.27497
 N1717 N 0.53927 0.71448 0.26987
 N1718 N 0.54937 0.70825 0.27578
 N1719 N 0.59337 0.20121 0.81485
 C1720 C 0.58779 0.19568 0.80393
 N1721 N 0.59368 0.18493 0.79828
 N1722 N 0.60480 0.17985 0.80343
 C1723 C 0.61042 0.18538 0.81437
 N1724 N 0.60449 0.19613 0.81999
 C1725 C 0.57605 0.20141 0.79818
 C1726 C 0.56635 0.20646 0.79325
 C1727 C 0.55508 0.21279 0.78719
 N1728 N 0.54686 0.20585 0.77908
 N1729 N 0.53688 0.21196 0.77283
 C1730 C 0.53484 0.22522 0.77448
 N1731 N 0.54300 0.23210 0.78273
 N1732 N 0.55297 0.22599 0.78896
 N1733 N 1.09354 0.68552 0.79802
 C1734 C 1.08782 0.69643 0.80352
 N1735 N 1.09352 0.70208 0.81432
 N1736 N 1.10460 0.69695 0.81949
 C1737 C 1.11036 0.68603 0.81401
 N1738 N 1.10462 0.68039 0.80320
 C1739 C 1.07608 0.70217 0.79777
 C1740 C 1.06635 0.70718 0.79288
 C1741 C 1.05498 0.71344 0.78695
 N1742 N 1.05004 0.72489 0.79208
 N1743 N 1.03993 0.73111 0.78618
 C1744 C 1.03443 0.72606 0.77497
 N1745 N 1.03935 0.71456 0.76987
 N1746 N 1.04946 0.70834 0.77578
 N1747 N 1.09365 0.20202 0.31419
 C1748 C 1.08801 0.19640 0.30335
 N1749 N 1.09378 0.18553 0.29784
 N1750 N 1.10486 0.18041 0.30304
 C1751 C 1.11054 0.18603 0.31390
 N1752 N 1.10472 0.19691 0.31939
 C1753 C 1.07625 0.20211 0.29760
 C1754 C 1.06650 0.20712 0.29272
 C1755 C 1.05511 0.21337 0.28680
 N1756 N 1.04957 0.20827 0.27565
 N1757 N 1.03945 0.21449 0.26976
 C1758 C 1.03453 0.22599 0.27487
 N1759 N 1.04005 0.23104 0.28607
 N1760 N 1.05017 0.22482 0.29194
 N1761 N 0.59352 0.29819 0.68551
 C1762 C 0.58784 0.30379 0.69636
 N1763 N 0.59362 0.31462 0.70192
 N1764 N 0.60472 0.31973 0.69677
 C1765 C 0.61043 0.31414 0.68590
 N1766 N 0.60462 0.30329 0.68036
 C1767 C 0.57610 0.29805 0.70212
 C1768 C 0.56641 0.29302 0.70708
 C1769 C 0.55515 0.28672 0.71319
 N1770 N 0.54694 0.29369 0.72131
 N1771 N 0.53695 0.28761 0.72757
 C1772 C 0.53488 0.27436 0.72592
 N1773 N 0.54304 0.26744 0.71768
 N1774 N 0.55301 0.27352 0.71143
 N1775 N 0.59337 0.81430 0.20157
 C1776 C 0.58762 0.80346 0.19599
 N1777 N 0.59332 0.79788 0.18515
 N1778 N 0.60442 0.80300 0.18002
 C1779 C 0.61021 0.81385 0.18558
 N1780 N 0.60447 0.81943 0.19644
 C1781 C 0.57594 0.79764 0.20179
 C1782 C 0.56634 0.79252 0.20681
 C1783 C 0.55521 0.78611 0.21304
 N1784 N 0.55544 0.77280 0.21512
 N1785 N 0.54547 0.76685 0.22150
 C1786 C 0.53494 0.77401 0.22603
 N1787 N 0.53467 0.78735 0.22382
 N1788 N 0.54466 0.79330 0.21744
 N1789 N 1.09347 0.29813 0.18534
 C1790 C 1.08773 0.30374 0.19615
 N1791 N 1.09343 0.31463 0.20170
 N1792 N 1.10452 0.31977 0.19657
 C1793 C 1.11030 0.31417 0.18575
 N1794 N 1.10456 0.30328 0.18021
 C1795 C 1.07605 0.29791 0.20193
 C1796 C 1.06644 0.29277 0.20693
 C1797 C 1.05531 0.28631 0.21311
 N1798 N 1.04474 0.29347 0.21752
 N1799 N 1.03475 0.28747 0.22385
 C1800 C 1.03503 0.27412 0.22599
 N1801 N 1.04556 0.26699 0.22143
 N1802 N 1.05553 0.27298 0.21510
 N1803 N 1.09347 0.81441 0.70165
 C1804 C 1.08762 0.80369 0.69595
 N1805 N 1.09320 0.79825 0.68497
 N1806 N 1.10428 0.80340 0.67982
 C1807 C 1.11018 0.81413 0.68551
 N1808 N 1.10456 0.81956 0.69650
 C1809 C 1.07596 0.79783 0.70175
 C1810 C 1.06637 0.79268 0.70678
 C1811 C 1.05526 0.78624 0.71302
 N1812 N 1.05551 0.77292 0.71509
 N1813 N 1.04556 0.76694 0.72146
 C1814 C 1.03501 0.77408 0.72599
 N1815 N 1.03470 0.78741 0.72377
 N1816 N 1.04468 0.79340 0.71740
 N1817 N 0.40633 0.68499 0.70212
 C1818 C 0.41233 0.69572 0.69658
 N1819 N 0.40689 0.70134 0.68562
 N1820 N 0.39580 0.69636 0.68035
 C1821 C 0.38976 0.68562 0.68587
 N1822 N 0.39524 0.68001 0.69684
 C1823 C 0.42400 0.70136 0.70253
 C1824 C 0.43360 0.70630 0.70774
 C1825 C 0.44471 0.71245 0.71423
 N1826 N 0.45545 0.71659 0.70720
 N1827 N 0.46543 0.72292 0.71322
 C1828 C 0.46496 0.72533 0.72647
 N1829 N 0.45423 0.72106 0.73348
 N1830 N 0.44428 0.71474 0.72746
 N1831 N 0.40670 0.20121 0.18587
 C1832 C 0.41218 0.19559 0.19681
 N1833 N 0.40627 0.18479 0.20230
 N1834 N 0.39521 0.17974 0.19702
 C1835 C 0.38969 0.18535 0.18607
 N1836 N 0.39564 0.19616 0.18058
 C1837 C 0.42389 0.20122 0.20272
 C1838 C 0.43357 0.20607 0.20786
 C1839 C 0.44485 0.21202 0.21424
 N1840 N 0.44729 0.20961 0.22724
 N1841 N 0.45732 0.21569 0.23340
 C1842 C 0.46524 0.22437 0.22676
 N1843 N 0.46282 0.22673 0.21372
 N1844 N 0.45279 0.22064 0.20756
 N1845 N -0.09385 0.68498 0.20250
 C1846 C -0.08778 0.69563 0.19689
 N1847 N -0.09315 0.70118 0.18587
 N1848 N -0.10424 0.69620 0.18060
 C1849 C -0.11035 0.68554 0.18619
 N1850 N -0.10494 0.68000 0.19723
 C1851 C -0.07609 0.70127 0.20283
 C1852 C -0.06647 0.70619 0.20799
 C1853 C -0.05531 0.71233 0.21442
 N1854 N -0.04459 0.71642 0.20731
 N1855 N -0.03458 0.72275 0.21326
 C1856 C -0.03497 0.72521 0.22650
 N1857 N -0.04568 0.72100 0.23358
 N1858 N -0.05567 0.71467 0.22764
 N1859 N -0.09373 0.18504 0.70191
 C1860 C -0.08789 0.19587 0.69638
 N1861 N -0.09349 0.20150 0.68552
 N1862 N -0.10458 0.19644 0.68031
 C1863 C -0.11045 0.18560 0.68582
 N1864 N -0.10482 0.17998 0.69670
 C1865 C -0.07618 0.20156 0.70222
 C1866 C -0.06652 0.20650 0.70730
 C1867 C -0.05528 0.21260 0.71362
 N1868 N -0.04679 0.22039 0.70661
 N1869 N -0.03681 0.22665 0.71268
 C1870 C -0.03502 0.22532 0.72596
 N1871 N -0.04346 0.21741 0.73293
 N1872 N -0.05343 0.21116 0.72685
 N1873 N 0.31502 0.40643 0.29792
 C1874 C 0.30412 0.41228 0.30332
 N1875 N 0.29831 0.40667 0.31409
 N1876 N 0.30328 0.39556 0.31934
 C1877 C 0.31419 0.38968 0.31396
 N1878 N 0.31998 0.39532 0.30317
 C1879 C 0.29851 0.42399 0.29739
 C1880 C 0.29362 0.43362 0.29221
 C1881 C 0.28751 0.44476 0.28573
 N1882 N 0.28338 0.45549 0.29279
 N1883 N 0.27707 0.46549 0.28679
 C1884 C 0.27469 0.46508 0.27354
 N1885 N 0.27896 0.45437 0.26650
 N1886 N 0.28525 0.44438 0.27250
 N1887 N 0.31590 -0.09372 0.79811
 C1888 C 0.30490 -0.08802 0.80343
 N1889 N 0.29907 -0.09374 0.81414
 N1890 N 0.30412 -0.10483 0.81937
 C1891 C 0.31514 -0.11059 0.81405
 N1892 N 0.32095 -0.10481 0.80334
 C1893 C 0.29918 -0.07636 0.79749
 C1894 C 0.29418 -0.06678 0.79230
 C1895 C 0.28797 -0.05568 0.78583
 N1896 N 0.28387 -0.04494 0.79288
 N1897 N 0.27751 -0.03496 0.78689
 C1898 C 0.27503 -0.03541 0.77366
 N1899 N 0.27926 -0.04614 0.76663
 N1900 N 0.28561 -0.05610 0.77261
 N1901 N 0.81512 0.40631 0.79816
 C1902 C 0.80440 0.41232 0.80373
 N1903 N 0.79879 0.40687 0.81469
 N1904 N 0.80378 0.39576 0.81994
 C1905 C 0.81451 0.38970 0.81438
 N1906 N 0.82010 0.39520 0.80340
 C1907 C 0.79874 0.42400 0.79779
 C1908 C 0.79380 0.43360 0.79259
 C1909 C 0.78765 0.44472 0.78609
 N1910 N 0.78352 0.45547 0.79311
 N1911 N 0.77721 0.46546 0.78708
 C1912 C 0.77483 0.46501 0.77383
 N1913 N 0.77909 0.45427 0.76683
 N1914 N 0.78538 0.44430 0.77285
 N1915 N 0.81517 -0.09396 0.29802
 C1916 C 0.80427 -0.08817 0.30346
 N1917 N 0.79851 -0.09383 0.31422
 N1918 N 0.80353 -0.10495 0.31942
 C1919 C 0.81446 -0.11079 0.31400
 N1920 N 0.82019 -0.10508 0.30321
 C1921 C 0.79865 -0.07641 0.29765
 C1922 C 0.79377 -0.06670 0.29259
 C1923 C 0.78771 -0.05540 0.28633
 N1924 N 0.77969 -0.04712 0.29333
 N1925 N 0.77341 -0.03712 0.28731
 C1926 C 0.77494 -0.03510 0.27409
 N1927 N 0.78311 -0.04332 0.26713
 N1928 N 0.78938 -0.05331 0.27316
 N1929 N 0.29847 0.59327 0.68501
 C1930 C 0.30397 0.58773 0.69597
 N1931 N 0.31468 0.59365 0.70165
 N1932 N 0.31974 0.60476 0.69650
 C1933 C 0.31424 0.61035 0.68553
 N1934 N 0.30352 0.60439 0.67987
 C1935 C 0.29825 0.57600 0.70174
 C1936 C 0.29322 0.56632 0.70671
 C1937 C 0.28692 0.55507 0.71283
 N1938 N 0.29391 0.54684 0.72090
 N1939 N 0.28784 0.53687 0.72717
 C1940 C 0.27457 0.53483 0.72558
 N1941 N 0.26763 0.54299 0.71738
 N1942 N 0.27370 0.55296 0.71112
 N1943 N 0.29796 1.09326 0.18538
 C1944 C 0.30347 1.08769 0.19633
 N1945 N 0.31426 1.09352 0.20193
 N1946 N 0.31940 1.10458 0.19672
 C1947 C 0.31390 1.11018 0.18576
 N1948 N 0.30309 1.10431 0.18018
 C1949 C 0.29774 1.07596 0.20210
 C1950 C 0.29275 1.06623 0.20703
 C1951 C 0.28652 1.05487 0.21302
 N1952 N 0.29168 1.04936 0.22417
 N1953 N 0.28547 1.03928 0.23014
 C1954 C 0.27393 1.03438 0.22512
 N1955 N 0.26882 1.03987 0.21393
 N1956 N 0.27503 1.04994 0.20797
 N1957 N 0.79814 0.59341 0.18519
 C1958 C 0.80421 0.58730 0.19554
 N1959 N 0.81549 0.59266 0.20063
 N1960 N 0.82055 0.60379 0.19551
 C1961 C 0.81448 0.60995 0.18516
 N1962 N 0.80320 0.60454 0.18007
 C1963 C 0.79844 0.57563 0.20138
 C1964 C 0.79336 0.56602 0.20643
 C1965 C 0.78700 0.55487 0.21266
 N1966 N 0.79397 0.54662 0.22073
 N1967 N 0.78785 0.53673 0.22709
 C1968 C 0.77455 0.53481 0.22561
 N1969 N 0.76762 0.54301 0.21742
 N1970 N 0.77375 0.55288 0.21106
 N1971 N 0.81449 1.09349 0.70202
 C1972 C 0.80368 1.08765 0.69646
 N1973 N 0.79815 1.09321 0.68552
 N1974 N 0.80327 1.10425 0.68029
 C1975 C 0.81409 1.11013 0.68584
 N1976 N 0.81962 1.10453 0.69679
 C1977 C 0.79793 1.07595 0.70227
 C1978 C 0.79289 1.06626 0.70722
 C1979 C 0.78660 1.05494 0.71322
 N1980 N 0.77508 1.05006 0.70816
 N1981 N 0.76884 1.04001 0.71412
 C1982 C 0.77392 1.03450 0.72532
 N1983 N 0.78548 1.03936 0.73034
 N1984 N 0.79172 1.04942 0.72437
 N1985 N 0.70148 0.59330 0.31492
 C1986 C 0.69595 0.58772 0.30400
 N1987 N 0.68522 0.59361 0.29834
 N1988 N 0.68014 0.60473 0.30347
 C1989 C 0.68566 0.61035 0.31441
 N1990 N 0.69641 0.60441 0.32006
 C1991 C 0.70169 0.57599 0.29823
 C1992 C 0.70673 0.56631 0.29326
 C1993 C 0.71306 0.55508 0.28714
 N1994 N 0.70609 0.54686 0.27906
 N1995 N 0.71219 0.53690 0.27277
 C1996 C 0.72547 0.53489 0.27434
 N1997 N 0.73239 0.54305 0.28256
 N1998 N 0.72628 0.55299 0.28885
 N1999 N 0.70168 1.09350 0.81514
 C2000 C 0.69619 1.08790 0.80421
 N2001 N 0.68542 1.09374 0.79856
 N2002 N 0.68028 1.10483 0.80370
 C2003 C 0.68576 1.11048 0.81466
 N2004 N 0.69655 1.10458 0.82028
 C2005 C 0.70202 1.07622 0.79842
 C2006 C 0.70716 1.06661 0.79341
 C2007 C 0.71361 1.05548 0.78722
 N2008 N 0.70645 1.04493 0.78282
 N2009 N 0.71246 1.03494 0.77648
 C2010 C 0.72581 1.03520 0.77433
 N2011 N 0.73295 1.04573 0.77888
 N2012 N 0.72695 1.05570 0.78521
 N2013 N 0.18503 0.59330 0.79831
 C2014 C 0.19592 0.58755 0.80383
 N2015 N 0.20159 0.59326 0.81460
 N2016 N 0.19652 0.60438 0.81973
 C2017 C 0.18563 0.61018 0.81423
 N2018 N 0.17996 0.60442 0.80344
 C2019 C 0.20165 0.57582 0.79806
 C2020 C 0.20670 0.56614 0.79311
 C2021 C 0.21304 0.55491 0.78702
 N2022 N 0.22626 0.55281 0.78877
 N2023 N 0.23238 0.54287 0.78252
 C2024 C 0.22549 0.53471 0.77428
 N2025 N 0.21222 0.53673 0.77265
 N2026 N 0.20610 0.54668 0.77891
 N2027 N 0.20202 1.09345 0.31481
 C2028 C 0.19643 1.08773 0.30400
 N2029 N 0.18556 1.09346 0.29842
 N2030 N 0.18043 1.10457 0.30353
 C2031 C 0.18602 1.11033 0.31436
 N2032 N 0.19689 1.10456 0.31992
 C2033 C 0.20224 1.07603 0.29824
 C2034 C 0.20737 1.06640 0.29327
 C2035 C 0.21380 1.05524 0.28711
 N2036 N 0.20662 1.04471 0.28270
 N2037 N 0.21260 1.03470 0.27638
 C2038 C 0.22595 1.03493 0.27424
 N2039 N 0.23312 1.04543 0.27879
 N2040 N 0.22714 1.05542 0.28511
 N2041 N 0.70168 0.40680 0.68550
 C2042 C 0.69607 0.41247 0.69635
 N2043 N 0.68526 0.40666 0.70194
 N2044 N 0.68017 0.39555 0.69681
 C2045 C 0.68577 0.38985 0.68594
 N2046 N 0.69660 0.39569 0.68037
 C2047 C 0.70185 0.42417 0.70212
 C2048 C 0.70700 0.43379 0.70709
 C2049 C 0.71352 0.44490 0.71322
 N2050 N 0.70646 0.45563 0.71739
 N2051 N 0.71254 0.46562 0.72364
 C2052 C 0.72586 0.46518 0.72594
 N2053 N 0.73289 0.45446 0.72164
 N2054 N 0.72682 0.44450 0.71540
 N2055 N 0.70155 -0.09364 0.18584
 C2056 C 0.69583 -0.08802 0.19666
 N2057 N 0.68498 -0.09387 0.20214
 N2058 N 0.67998 -0.10499 0.19695
 C2059 C 0.68569 -0.11064 0.18611
 N2060 N 0.69656 -0.10476 0.18065
 C2061 C 0.70144 -0.07628 0.20248
 C2062 C 0.70633 -0.06658 0.20753
 C2063 C 0.71242 -0.05530 0.21378
 N2064 N 0.71079 -0.05321 0.22696
 N2065 N 0.71709 -0.04324 0.23298
 C2066 C 0.72525 -0.03504 0.22601
 N2067 N 0.72677 -0.03706 0.21278
 N2068 N 0.72046 -0.04704 0.20677
 N2069 N 0.18508 0.40682 0.20169
 C2070 C 0.19593 0.41259 0.19612
 N2071 N 0.20159 0.40688 0.18532
 N2072 N 0.19652 0.39576 0.18020
 C2073 C 0.18566 0.38995 0.18574
 N2074 N 0.18001 0.39569 0.19657
 C2075 C 0.20170 0.42430 0.20189
 C2076 C 0.20685 0.43393 0.20685
 C2077 C 0.21337 0.44506 0.21296
 N2078 N 0.22667 0.44466 0.21514
 N2079 N 0.23273 0.45463 0.22138
 C2080 C 0.22570 0.46535 0.22567
 N2081 N 0.21238 0.46580 0.22335
 N2082 N 0.20631 0.45581 0.21709
 N2083 N 0.20132 -0.09308 0.68512
 C2084 C 0.19585 -0.08753 0.69610
 N2085 N 0.18515 -0.09344 0.70181
 N2086 N 0.18004 -0.10454 0.69666
 C2087 C 0.18551 -0.11012 0.68567
 N2088 N 0.19622 -0.10417 0.67998
 C2089 C 0.20168 -0.07588 0.70191
 C2090 C 0.20688 -0.06630 0.70691
 C2091 C 0.21346 -0.05524 0.71307
 N2092 N 0.20647 -0.04447 0.71725
 N2093 N 0.21259 -0.03453 0.72353
 C2094 C 0.22591 -0.03506 0.72586
 N2095 N 0.23288 -0.04581 0.72154
 N2096 N 0.22676 -0.05572 0.71526
 N2097 N 0.31409 0.29840 0.40694
 C2098 C 0.30324 0.30408 0.41260
 N2099 N 0.29768 0.31492 0.40682
 N2100 N 0.30284 0.31995 0.39572
 C2101 C 0.31370 0.31428 0.39002
 N2102 N 0.31925 0.30343 0.39584
 C2103 C 0.29739 0.29839 0.42428
 C2104 C 0.29226 0.29344 0.43389
 C2105 C 0.28585 0.28726 0.44501
 N2106 N 0.27253 0.28519 0.44484
 N2107 N 0.26659 0.27882 0.45478
 C2108 C 0.27378 0.27427 0.46525
 N2109 N 0.28712 0.27649 0.46548
 N2110 N 0.29306 0.28287 0.45551
 N2111 N 0.29748 0.81379 -0.09463
 C2112 C 0.30364 0.80359 -0.08833
 N2113 N 0.31507 0.79858 -0.09346
 N2114 N 0.32021 0.80367 -0.10454
 C2115 C 0.31407 0.81390 -0.11087
 N2116 N 0.30262 0.81888 -0.10571
 C2117 C 0.29795 0.79795 -0.07655
 C2118 C 0.29299 0.79310 -0.06679
 C2119 C 0.28680 0.78712 -0.05544
 N2120 N 0.29385 0.77903 -0.04728
 N2121 N 0.28787 0.77283 -0.03722
 C2122 C 0.27463 0.77453 -0.03502
 N2123 N 0.26764 0.78276 -0.04312
 N2124 N 0.27362 0.78894 -0.05316
 N2125 N 0.81392 0.29833 -0.09362
 C2126 C 0.80306 0.30396 -0.08792
 N2127 N 0.79750 0.31484 -0.09362
 N2128 N 0.80265 0.31996 -0.10468
 C2129 C 0.81352 0.31435 -0.11042
 N2130 N 0.81907 0.30345 -0.10468
 C2131 C 0.79734 0.29829 -0.07616
 C2132 C 0.79238 0.29343 -0.06641
 C2133 C 0.78622 0.28748 -0.05502
 N2134 N 0.77472 0.29253 -0.05009
 N2135 N 0.76858 0.28659 -0.03998
 C2136 C 0.77377 0.27541 -0.03446
 N2137 N 0.78532 0.27040 -0.03937
 N2138 N 0.79146 0.27635 -0.04948
 N2139 N 0.79783 0.81492 0.40652
 C2140 C 0.80346 0.80410 0.41227
 N2141 N 0.81432 0.79848 0.40657
 N2142 N 0.81942 0.80355 0.39546
 C2143 C 0.81381 0.81438 0.38968
 N2144 N 0.80293 0.81999 0.39541
 C2145 C 0.79776 0.79838 0.42400
 C2146 C 0.79288 0.79333 0.43369
 C2147 C 0.78692 0.78695 0.44494
 N2148 N 0.78846 0.77367 0.44677
 N2149 N 0.78233 0.76753 0.45675
 C2150 C 0.77444 0.77446 0.46524
 N2151 N 0.77302 0.78778 0.46348
 N2152 N 0.77916 0.79393 0.45348
 N2153 N 0.68583 0.29851 0.59323
 C2154 C 0.69668 0.30419 0.58757
 N2155 N 0.70221 0.31504 0.59335
 N2156 N 0.69704 0.32007 0.60444
 C2157 C 0.68619 0.31440 0.61014
 N2158 N 0.68066 0.30354 0.60433
 C2159 C 0.70252 0.29852 0.57587
 C2160 C 0.70763 0.29356 0.56624
 C2161 C 0.71402 0.28738 0.55510
 N2162 N 0.72734 0.28525 0.55528
 N2163 N 0.73326 0.27886 0.54533
 C2164 C 0.72607 0.27435 0.53486
 N2165 N 0.71273 0.27663 0.53462
 N2166 N 0.70680 0.28303 0.54459
 N2167 N 0.68564 0.79845 1.09289
 C2168 C 0.69647 0.80416 1.08722
 N2169 N 0.70202 0.81497 1.09304
 N2170 N 0.69688 0.81996 1.10416
 C2171 C 0.68604 0.81427 1.10987
 N2172 N 0.68050 0.80343 1.10402
 C2173 C 0.70230 0.79851 1.07552
 C2174 C 0.70744 0.79359 1.06589
 C2175 C 0.71391 0.78746 1.05477
 N2176 N 0.72719 0.78514 1.05513
 N2177 N 0.73318 0.77881 1.04518
 C2178 C 0.72610 0.77457 1.03452
 N2179 N 0.71280 0.77703 1.03411
 N2180 N 0.70680 0.78337 1.04408
 N2181 N 0.20227 0.31429 1.09349
 C2182 C 0.19665 0.30342 1.08783
 N2183 N 0.18579 0.29786 1.09358
 N2184 N 0.18068 0.30303 1.10464
 C2185 C 0.18629 0.31391 1.11033
 N2186 N 0.19717 0.31946 1.10455
 C2187 C 0.20231 0.29766 1.07609
 C2188 C 0.20714 0.29264 1.06635
 C2189 C 0.21303 0.28640 1.05497
 N2190 N 0.20792 0.27490 1.05013
 N2191 N 0.21381 0.26869 1.04004
 C2192 C 0.22499 0.27380 1.03444
 N2193 N 0.23006 0.28534 1.03926
 N2194 N 0.22417 0.29155 1.04936
 N2195 N 0.20202 0.81506 0.59305
 C2196 C 0.19647 0.80423 0.58727
 N2197 N 0.18564 0.79854 0.59295
 N2198 N 0.18049 0.80356 0.60405
 C2199 C 0.18603 0.81441 0.60987
 N2200 N 0.19688 0.82008 0.60416
 C2201 C 0.20230 0.79855 0.57557
 C2202 C 0.20743 0.79360 0.56595
 C2203 C 0.21387 0.78743 0.55484
 N2204 N 0.20679 0.78368 0.54401
 N2205 N 0.21274 0.77733 0.53402
 C2206 C 0.22596 0.77449 0.53457
 N2207 N 0.23302 0.77839 0.54537
 N2208 N 0.22707 0.78474 0.55533
 N2209 N 0.31495 0.70211 0.59304
 C2210 C 0.30410 0.69655 0.58728
 N2211 N 0.29843 0.68571 0.59297
 N2212 N 0.30349 0.68057 0.60406
 C2213 C 0.31435 0.68612 0.60986
 N2214 N 0.32000 0.69697 0.60413
 C2215 C 0.29839 0.70237 0.57560
 C2216 C 0.29342 0.70748 0.56599
 C2217 C 0.28724 0.71390 0.55488
 N2218 N 0.28347 0.70681 0.54406
 N2219 N 0.27711 0.71276 0.53408
 C2220 C 0.27431 0.72598 0.53460
 N2221 N 0.27822 0.73304 0.54539
 N2222 N 0.28457 0.72711 0.55536
 N2223 N 0.31498 0.20210 1.09337
 C2224 C 0.30414 0.19659 1.08756
 N2225 N 0.29843 0.18574 1.09318
 N2226 N 0.30343 0.18054 1.10427
 C2227 C 0.31429 0.18604 1.11011
 N2228 N 0.31999 0.19690 1.10445
 C2229 C 0.29848 0.20246 1.07588
 C2230 C 0.29356 0.20760 1.06626
 C2231 C 0.28741 0.21400 1.05511
 N2232 N 0.28300 0.20677 1.04464
 N2233 N 0.27663 0.21270 1.03466
 C2234 C 0.27444 0.22604 1.03484
 N2235 N 0.27902 0.23325 1.04528
 N2236 N 0.28538 0.22733 1.05525
 N2237 N 0.79777 0.68576 1.09357
 C2238 C 0.80406 0.69586 1.08723
 N2239 N 0.81554 0.70074 1.09236
 N2240 N 0.82059 0.69565 1.10347
 C2241 C 0.81430 0.68555 1.10985
 N2242 N 0.80282 0.68067 1.10469
 C2243 C 0.79834 0.70174 1.07558
 C2244 C 0.79339 0.70695 1.06602
 C2245 C 0.78725 0.71351 1.05496
 N2246 N 0.78507 0.72681 1.05538
 N2247 N 0.77881 0.73290 1.04546
 C2248 C 0.77452 0.72591 1.03476
 N2249 N 0.77683 0.71259 1.03430
 N2250 N 0.78309 0.70649 1.04425
 N2251 N 0.81388 0.20208 0.59357
 C2252 C 0.80306 0.19642 0.58786
 N2253 N 0.79752 0.18553 0.59358
 N2254 N 0.80266 0.18044 0.60465
 C2255 C 0.81351 0.18608 0.61039
 N2256 N 0.81903 0.19699 0.60464
 C2257 C 0.79733 0.20206 0.57610
 C2258 C 0.79235 0.20689 0.56635
 C2259 C 0.78617 0.21279 0.55496
 N2260 N 0.77471 0.20768 0.55003
 N2261 N 0.76856 0.21357 0.53991
 C2262 C 0.77370 0.22476 0.53437
 N2263 N 0.78520 0.22984 0.53928
 N2264 N 0.79135 0.22394 0.54940
 N2265 N 0.68589 0.70221 0.40659
 C2266 C 0.69675 0.69653 0.41223
 N2267 N 0.70227 0.68565 0.40647
 N2268 N 0.69706 0.68059 0.39542
 C2269 C 0.68619 0.68625 0.38974
 N2270 N 0.68069 0.69714 0.39554
 C2271 C 0.70255 0.70213 0.42396
 C2272 C 0.70763 0.70691 0.43369
 C2273 C 0.71396 0.71273 0.44504
 N2274 N 0.72677 0.70966 0.44797
 N2275 N 0.73292 0.71555 0.45808
 C2276 C 0.72645 0.72468 0.46563
 N2277 N 0.71360 0.72772 0.46271
 N2278 N 0.70745 0.72182 0.45259
 N2279 N 0.70245 0.18506 -0.09342
 C2280 C 0.69689 0.19592 -0.08765
 N2281 N 0.68603 0.20157 -0.09330
 N2282 N 0.68085 0.19650 -0.10437
 C2283 C 0.68639 0.18564 -0.11017
 N2284 N 0.69727 0.18000 -0.10448
 C2285 C 0.70274 0.20163 -0.07599
 C2286 C 0.70787 0.20659 -0.06639
 C2287 C 0.71425 0.21277 -0.05526
 N2288 N 0.70703 0.21709 -0.04473
 N2289 N 0.71295 0.22347 -0.03476
 C2290 C 0.72628 0.22575 -0.03501
 N2291 N 0.73349 0.22128 -0.04550
 N2292 N 0.72757 0.21490 -0.05546
 N2293 N 0.20204 0.68534 -0.09344
 C2294 C 0.19646 0.69618 -0.08767
 N2295 N 0.18563 0.70186 -0.09336
 N2296 N 0.18051 0.69683 -0.10447
 C2297 C 0.18607 0.68597 -0.11027
 N2298 N 0.19692 0.68031 -0.10454
 C2299 C 0.20220 0.70180 -0.07592
 C2300 C 0.20722 0.70667 -0.06622
 C2301 C 0.21351 0.71269 -0.05495
 N2302 N 0.20653 0.72082 -0.04676
 N2303 N 0.21261 0.72708 -0.03681
 C2304 C 0.22587 0.72542 -0.03476
 N2305 N 0.23279 0.71716 -0.04289
 N2306 N 0.22671 0.71090 -0.05282
 N2307 N 0.18575 0.20219 0.40662
 C2308 C 0.19661 0.19655 0.41230
 N2309 N 0.20219 0.18570 0.40655
 N2310 N 0.19704 0.18061 0.39548
 C2311 C 0.18616 0.18623 0.38978
 N2312 N 0.18060 0.19710 0.39555
 C2313 C 0.20234 0.20219 0.42405
 C2314 C 0.20734 0.20700 0.43380
 C2315 C 0.21355 0.21289 0.44519
 N2316 N 0.22505 0.20777 0.45005
 N2317 N 0.23123 0.21365 0.46016
 C2318 C 0.22609 0.22482 0.46574
 N2319 N 0.21455 0.22990 0.46090
 N2320 N 0.20837 0.22401 0.45079
 N2321 N 0.29863 0.40679 0.68508
 C2322 C 0.30415 0.41234 0.69602
 N2323 N 0.31484 0.40641 0.70171
 N2324 N 0.31988 0.39526 0.69659
 C2325 C 0.31437 0.38967 0.68563
 N2326 N 0.30367 0.39565 0.67996
 C2327 C 0.29844 0.42410 0.70176
 C2328 C 0.29341 0.43380 0.70670
 C2329 C 0.28709 0.44506 0.71278
 N2330 N 0.29405 0.45327 0.72089
 N2331 N 0.28795 0.46324 0.72715
 C2332 C 0.27469 0.46529 0.72552
 N2333 N 0.26778 0.45714 0.71728
 N2334 N 0.27388 0.44718 0.71102
 N2335 N 0.29858 0.90676 0.18575
 C2336 C 0.30435 0.91238 0.19652
 N2337 N 0.31529 0.90659 0.20189
 N2338 N 0.32032 0.89552 0.19662
 C2339 C 0.31456 0.88985 0.18583
 N2340 N 0.30361 0.89569 0.18047
 C2341 C 0.29866 0.92403 0.20249
 C2342 C 0.29370 0.93362 0.20771
 C2343 C 0.28753 0.94472 0.21421
 N2344 N 0.28522 0.94429 0.22744
 N2345 N 0.27890 0.95425 0.23345
 C2346 C 0.27466 0.96499 0.22645
 N2347 N 0.27710 0.96546 0.21320
 N2348 N 0.28343 0.95547 0.20718
 N2349 N 0.79830 0.40664 0.18536
 C2350 C 0.80392 0.41230 0.19619
 N2351 N 0.81475 0.40650 0.20176
 N2352 N 0.81982 0.39537 0.19663
 C2353 C 0.81421 0.38967 0.18578
 N2354 N 0.80337 0.39551 0.18023
 C2355 C 0.79821 0.42405 0.20193
 C2356 C 0.79318 0.43375 0.20687
 C2357 C 0.78688 0.44502 0.21294
 N2358 N 0.79385 0.45323 0.22104
 N2359 N 0.78777 0.46321 0.22730
 C2360 C 0.77451 0.46529 0.22566
 N2361 N 0.76759 0.45715 0.21742
 N2362 N 0.77368 0.44718 0.21118
 N2363 N 0.81425 0.90586 0.70284
 C2364 C 0.80382 0.91211 0.69700
 N2365 N 0.79858 0.90695 0.68573
 N2366 N 0.80365 0.89590 0.68043
 C2367 C 0.81411 0.88963 0.68625
 N2368 N 0.81933 0.89482 0.69754
 C2369 C 0.79814 0.92379 0.70290
 C2370 C 0.79322 0.93343 0.70806
 C2371 C 0.78712 0.94462 0.71450
 N2372 N 0.78306 0.95535 0.70742
 N2373 N 0.77683 0.96542 0.71340
 C2374 C 0.77445 0.96507 0.72666
 N2375 N 0.77864 0.95434 0.73372
 N2376 N 0.78487 0.94430 0.72774
 N2377 N 0.68559 0.59343 0.70197
 C2378 C 0.69627 0.58754 0.69619
 N2379 N 0.70166 0.59311 0.68518
 N2380 N 0.69651 0.60421 0.68009
 C2381 C 0.68583 0.61014 0.68586
 N2382 N 0.68044 0.60454 0.69687
 C2383 C 0.70214 0.57587 0.70193
 C2384 C 0.70732 0.56627 0.70690
 C2385 C 0.71379 0.55514 0.71305
 N2386 N 0.72713 0.55535 0.71503
 N2387 N 0.73314 0.54538 0.72134
 C2388 C 0.72601 0.53486 0.72592
 N2389 N 0.71265 0.53459 0.72380
 N2390 N 0.70664 0.54458 0.71747
 N2391 N 0.68611 0.09365 0.20185
 C2392 C 0.69701 0.08794 0.19631
 N2393 N 0.70258 0.09363 0.18546
 N2394 N 0.69740 0.10468 0.18029
 C2395 C 0.68649 0.11043 0.18582
 N2396 N 0.68092 0.10470 0.19669
 C2397 C 0.70278 0.07621 0.20203
 C2398 C 0.70782 0.06649 0.20690
 C2399 C 0.71410 0.05513 0.21283
 N2400 N 0.72681 0.05192 0.20959
 N2401 N 0.73292 0.04179 0.21555
 C2402 C 0.72650 0.03452 0.22493
 N2403 N 0.71377 0.03773 0.22814
 N2404 N 0.70766 0.04787 0.22217
 N2405 N 0.20205 0.59349 0.18518
 C2406 C 0.19643 0.58775 0.19598
 N2407 N 0.18553 0.59345 0.20153
 N2408 N 0.18038 0.60454 0.19640
 C2409 C 0.18599 0.61031 0.18558
 N2410 N 0.19691 0.60458 0.18006
 C2411 C 0.20225 0.57606 0.20173
 C2412 C 0.20738 0.56643 0.20670
 C2413 C 0.21382 0.55529 0.21286
 N2414 N 0.20665 0.54476 0.21731
 N2415 N 0.21264 0.53478 0.22366
 C2416 C 0.22599 0.53503 0.22579
 N2417 N 0.23315 0.54552 0.22119
 N2418 N 0.22716 0.55548 0.21485
 N2419 N 0.18574 0.09298 0.70169
 C2420 C 0.19649 0.08714 0.69600
 N2421 N 0.20192 0.09272 0.68502
 N2422 N 0.19675 0.10379 0.67988
 C2423 C 0.18599 0.10967 0.68556
 N2424 N 0.18056 0.10405 0.69655
 C2425 C 0.20237 0.07550 0.70180
 C2426 C 0.20753 0.06592 0.70683
 C2427 C 0.21400 0.05483 0.71307
 N2428 N 0.22732 0.05509 0.71514
 N2429 N 0.23332 0.04514 0.72150
 C2430 C 0.22619 0.03459 0.72603
 N2431 N 0.21285 0.03429 0.72382
 N2432 N 0.20685 0.04425 0.71746
 N2433 N 0.29755 0.59363 0.31434
 C2434 C 0.30355 0.58759 0.30390
 N2435 N 0.31482 0.59297 0.29879
 N2436 N 0.31992 0.60405 0.30395
 C2437 C 0.31392 0.61014 0.31438
 N2438 N 0.30265 0.60472 0.31950
 C2439 C 0.29782 0.57588 0.29810
 C2440 C 0.29279 0.56620 0.29313
 C2441 C 0.28653 0.55489 0.28708
 N2442 N 0.29175 0.54935 0.27597
 N2443 N 0.28554 0.53930 0.26997
 C2444 C 0.27393 0.53446 0.27491
 N2445 N 0.26876 0.53999 0.28606
 N2446 N 0.27497 0.55004 0.29206
 N2447 N 0.29813 0.09305 0.81448
 C2448 C 0.30368 0.08748 0.80355
 N2449 N 0.31445 0.09336 0.79794
 N2450 N 0.31953 0.10445 0.80311
 C2451 C 0.31399 0.11005 0.81406
 N2452 N 0.30320 0.10414 0.81966
 C2453 C 0.29800 0.07571 0.79781
 C2454 C 0.29302 0.06596 0.79293
 C2455 C 0.28681 0.05457 0.78699
 N2456 N 0.29193 0.04906 0.77582
 N2457 N 0.28573 0.03895 0.76991
 C2458 C 0.27424 0.03401 0.77500
 N2459 N 0.26916 0.03950 0.78622
 N2460 N 0.27536 0.04961 0.79212
 N2461 N 0.79804 0.59348 0.81431
 C2462 C 0.80351 0.58799 0.80330
 N2463 N 0.81423 0.59390 0.79764
 N2464 N 0.81935 0.60496 0.80286
 C2465 C 0.81390 0.61048 0.81389
 N2466 N 0.80316 0.60453 0.81953
 C2467 C 0.79782 0.57623 0.79755
 C2468 C 0.79284 0.56647 0.79267
 C2469 C 0.78663 0.55506 0.78677
 N2470 N 0.79175 0.54950 0.77563
 N2471 N 0.78556 0.53936 0.76976
 C2472 C 0.77407 0.53444 0.77488
 N2473 N 0.76899 0.53998 0.78606
 N2474 N 0.77518 0.55011 0.79192
 N2475 N 0.81426 0.09345 0.29820
 C2476 C 0.80333 0.08779 0.30374
 N2477 N 0.79774 0.09353 0.31456
 N2478 N 0.80293 0.10458 0.31970
 C2479 C 0.81387 0.11027 0.31419
 N2480 N 0.81945 0.10450 0.30335
 C2481 C 0.79754 0.07608 0.29803
 C2482 C 0.79247 0.06637 0.29316
 C2483 C 0.78618 0.05504 0.28723
 N2484 N 0.77347 0.05186 0.29047
 N2485 N 0.76735 0.04175 0.28450
 C2486 C 0.77376 0.03446 0.27513
 N2487 N 0.78650 0.03764 0.27192
 N2488 N 0.79262 0.04776 0.27789
 N2489 N 0.70144 0.40691 0.31480
 C2490 C 0.69593 0.41244 0.30384
 N2491 N 0.68524 0.40650 0.29816
 N2492 N 0.68021 0.39537 0.30330
 C2493 C 0.68572 0.38979 0.31427
 N2494 N 0.69641 0.39578 0.31994
 C2495 C 0.70164 0.42418 0.29808
 C2496 C 0.70667 0.43386 0.29312
 C2497 C 0.71300 0.44511 0.28704
 N2498 N 0.70604 0.45335 0.27894
 N2499 N 0.71214 0.46332 0.27269
 C2500 C 0.72541 0.46535 0.27433
 N2501 N 0.73231 0.45718 0.28256
 N2502 N 0.72621 0.44722 0.28880
 N2503 N 0.70146 0.90676 0.81448
 C2504 C 0.69576 0.91254 0.80375
 N2505 N 0.68490 0.90678 0.79819
 N2506 N 0.67988 0.89560 0.80325
 C2507 C 0.68557 0.88979 0.81401
 N2508 N 0.69644 0.89559 0.81954
 C2509 C 0.70148 0.92431 0.79806
 C2510 C 0.70660 0.93399 0.79318
 C2511 C 0.71312 0.94517 0.78716
 N2512 N 0.70606 0.95590 0.78299
 N2513 N 0.71213 0.96592 0.77678
 C2514 C 0.72547 0.96553 0.77454
 N2515 N 0.73251 0.95484 0.77887
 N2516 N 0.72644 0.94484 0.78507
 N2517 N 0.20175 0.40658 0.81446
 C2518 C 0.19607 0.41228 0.80368
 N2519 N 0.18516 0.40655 0.79819
 N2520 N 0.18008 0.39545 0.80336
 C2521 C 0.18576 0.38970 0.81415
 N2522 N 0.19667 0.39548 0.81962
 C2523 C 0.20179 0.42400 0.79790
 C2524 C 0.20683 0.43368 0.79294
 C2525 C 0.21316 0.44493 0.78686
 N2526 N 0.20620 0.45316 0.77876
 N2527 N 0.21230 0.46314 0.77252
 C2528 C 0.22556 0.46518 0.77417
 N2529 N 0.23247 0.45700 0.78239
 N2530 N 0.22637 0.44704 0.78862
 N2531 N 0.18438 0.90739 0.29908
 C2532 C 0.19560 0.91280 0.30425
 N2533 N 0.20162 0.90672 0.31464
 N2534 N 0.19656 0.89558 0.31973
 C2535 C 0.18533 0.89012 0.31458
 N2536 N 0.17931 0.89625 0.30418
 C2537 C 0.20140 0.92448 0.29842
 C2538 C 0.20657 0.93406 0.29339
 C2539 C 0.21314 0.94510 0.28718
 N2540 N 0.22643 0.94459 0.28490
 N2541 N 0.23253 0.95450 0.27859
 C2542 C 0.22557 0.96526 0.27432
 N2543 N 0.21226 0.96582 0.27673
 N2544 N 0.20615 0.95589 0.28305
 N2545 N 0.40692 0.29833 0.68519
 C2546 C 0.41244 0.30384 0.69615
 N2547 N 0.40650 0.31455 0.70182
 N2548 N 0.39539 0.31961 0.69665
 C2549 C 0.38983 0.31411 0.68567
 N2550 N 0.39581 0.30340 0.68003
 C2551 C 0.42416 0.29812 0.70195
 C2552 C 0.43383 0.29308 0.70694
 C2553 C 0.44506 0.28676 0.71306
 N2554 N 0.45328 0.29372 0.72116
 N2555 N 0.46325 0.28763 0.72743
 C2556 C 0.46528 0.27437 0.72583
 N2557 N 0.45712 0.26745 0.71761
 N2558 N 0.44717 0.27355 0.71134
 N2559 N 0.40688 0.79833 0.18520
 C2560 C 0.41261 0.80400 0.19597
 N2561 N 0.40687 0.81490 0.20148
 N2562 N 0.39576 0.81999 0.19634
 C2563 C 0.38999 0.81432 0.18556
 N2564 N 0.39577 0.80341 0.18007
 C2565 C 0.42430 0.79822 0.20177
 C2566 C 0.43391 0.79308 0.20677
 C2567 C 0.44500 0.78657 0.21295
 N2568 N 0.45572 0.79363 0.21712
 N2569 N 0.46570 0.78757 0.22344
 C2570 C 0.46524 0.77427 0.22580
 N2571 N 0.45454 0.76724 0.22148
 N2572 N 0.44460 0.77329 0.21518
 N2573 N 0.90673 0.31479 0.20173
 C2574 C 0.91255 0.30397 0.19614
 N2575 N 0.90688 0.29836 0.18530
 N2576 N 0.89576 0.30343 0.18018
 C2577 C 0.88990 0.31425 0.18575
 N2578 N 0.89560 0.31986 0.19661
 C2579 C 0.92426 0.29820 0.20191
 C2580 C 0.93389 0.29307 0.20688
 C2581 C 0.94502 0.28657 0.21302
 N2582 N 0.94464 0.27328 0.21521
 N2583 N 0.95461 0.26723 0.22148
 C2584 C 0.96531 0.27427 0.22579
 N2585 N 0.96573 0.28758 0.22346
 N2586 N 0.95574 0.29364 0.21718
 N2587 N 0.90712 0.81529 0.70147
 C2588 C 0.91276 0.80429 0.69607
 N2589 N 0.90692 0.79850 0.68542
 N2590 N 0.89580 0.80357 0.68030
 C2591 C 0.89011 0.81458 0.68568
 N2592 N 0.89599 0.82037 0.69635
 C2593 C 0.92444 0.79849 0.70188
 C2594 C 0.93403 0.79332 0.70688
 C2595 C 0.94511 0.78676 0.71306
 N2596 N 0.94465 0.77348 0.71528
 N2597 N 0.95457 0.76739 0.72158
 C2598 C 0.96531 0.77437 0.72588
 N2599 N 0.96581 0.78767 0.72352
 N2600 N 0.95586 0.79377 0.71722
 N2601 N 0.59350 0.29818 0.31478
 C2602 C 0.58794 0.30364 0.30381
 N2603 N 0.59382 0.31435 0.29811
 N2604 N 0.60492 0.31947 0.30324
 C2605 C 0.61051 0.31402 0.31423
 N2606 N 0.60459 0.30329 0.31991
 C2607 C 0.57621 0.29789 0.29807
 C2608 C 0.56651 0.29287 0.29313
 C2609 C 0.55522 0.28661 0.28705
 N2610 N 0.54724 0.29353 0.27868
 N2611 N 0.53722 0.28749 0.27245
 C2612 C 0.53488 0.27433 0.27440
 N2613 N 0.54281 0.26746 0.28288
 N2614 N 0.55282 0.27350 0.28910
 N2615 N 0.59348 0.79787 0.81476
 C2616 C 0.58770 0.80349 0.80398
 N2617 N 0.59339 0.81438 0.79842
 N2618 N 0.60451 0.81951 0.80351
 C2619 C 0.61031 0.81390 0.81431
 N2620 N 0.60459 0.80300 0.81985
 C2621 C 0.57597 0.79770 0.79827
 C2622 C 0.56632 0.79259 0.79333
 C2623 C 0.55513 0.78618 0.78720
 N2624 N 0.54462 0.79339 0.78274
 N2625 N 0.53461 0.78744 0.77642
 C2626 C 0.53480 0.77408 0.77432
 N2627 N 0.54527 0.76690 0.77894
 N2628 N 0.55526 0.77285 0.78526
 N2629 N 0.09347 0.29823 0.81426
 C2630 C 0.08780 0.30396 0.80349
 N2631 N 0.09357 0.31487 0.79806
 N2632 N 0.10466 0.31992 0.80326
 C2633 C 0.11037 0.31419 0.81405
 N2634 N 0.10456 0.30327 0.81947
 C2635 C 0.07607 0.29831 0.79767
 C2636 C 0.06638 0.29340 0.79261
 C2637 C 0.05511 0.28732 0.78631
 N2638 N 0.05319 0.28881 0.77310
 N2639 N 0.04320 0.28258 0.76705
 C2640 C 0.03480 0.27463 0.77402
 N2641 N 0.03666 0.27325 0.78729
 N2642 N 0.04667 0.27949 0.79333
 N2643 N 0.09331 0.79826 0.31470
 C2644 C 0.08783 0.80361 0.30364
 N2645 N 0.09378 0.81424 0.29785
 N2646 N 0.10487 0.81939 0.30300
 C2647 C 0.11038 0.81404 0.31408
 N2648 N 0.10439 0.80340 0.31985
 C2649 C 0.07615 0.79780 0.29788
 C2650 C 0.06651 0.79268 0.29291
 C2651 C 0.05535 0.78625 0.28677
 N2652 N 0.04481 0.79344 0.28235
 N2653 N 0.03479 0.78746 0.27605
 C2654 C 0.03501 0.77411 0.27395
 N2655 N 0.04552 0.76695 0.27851
 N2656 N 0.05552 0.77292 0.28481
 N2657 N 0.59342 0.70173 0.68592
 C2658 C 0.58792 0.69630 0.69694
 N2659 N 0.59384 0.68560 0.70264
 N2660 N 0.60493 0.68048 0.69745
 C2661 C 0.61047 0.68590 0.68642
 N2662 N 0.60450 0.69661 0.68074
 C2663 C 0.57617 0.70205 0.70269
 C2664 C 0.56644 0.70709 0.70757
 C2665 C 0.55506 0.71339 0.71349
 N2666 N 0.54944 0.70827 0.72461
 N2667 N 0.53930 0.71450 0.73047
 C2668 C 0.53444 0.72603 0.72538
 N2669 N 0.54005 0.73110 0.71422
 N2670 N 0.55018 0.72487 0.70837
 N2671 N 0.59392 0.18541 0.20184
 C2672 C 0.58818 0.19630 0.19632
 N2673 N 0.59389 0.20193 0.18551
 N2674 N 0.60499 0.19682 0.18036
 C2675 C 0.61077 0.18592 0.18586
 N2676 N 0.60502 0.18029 0.19669
 C2677 C 0.57642 0.20201 0.20206
 C2678 C 0.56669 0.20700 0.20698
 C2679 C 0.55534 0.21321 0.21303
 N2680 N 0.55275 0.22625 0.21080
 N2681 N 0.54269 0.23227 0.21699
 C2682 C 0.53490 0.22542 0.22562
 N2683 N 0.53743 0.21232 0.22776
 N2684 N 0.54750 0.20631 0.22156
 N2685 N 0.09377 0.70216 0.18588
 C2686 C 0.08807 0.69649 0.19668
 N2687 N 0.09380 0.68557 0.20214
 N2688 N 0.10488 0.68045 0.19694
 C2689 C 0.11061 0.68610 0.18612
 N2690 N 0.10485 0.69704 0.18068
 C2691 C 0.07629 0.70218 0.20241
 C2692 C 0.06652 0.70717 0.20727
 C2693 C 0.05510 0.71339 0.21317
 N2694 N 0.04958 0.70832 0.22435
 N2695 N 0.03945 0.71453 0.23023
 C2696 C 0.03449 0.72599 0.22509
 N2697 N 0.03998 0.73101 0.21385
 N2698 N 0.05012 0.72480 0.20798
 N2699 N 0.09341 0.20116 0.68566
 C2700 C 0.08785 0.19574 0.69666
 N2701 N 0.09369 0.18498 0.70233
 N2702 N 0.10475 0.17979 0.69714
 C2703 C 0.11034 0.18521 0.68613
 N2704 N 0.10446 0.19597 0.68048
 C2705 C 0.07617 0.20160 0.70241
 C2706 C 0.06650 0.20680 0.70725
 C2707 C 0.05521 0.21334 0.71307
 N2708 N 0.04735 0.20688 0.72190
 N2709 N 0.03724 0.21319 0.72775
 C2710 C 0.03466 0.22615 0.72489
 N2711 N 0.04254 0.23257 0.71603
 N2712 N 0.05264 0.22627 0.71020
 N2713 N 0.40662 0.70111 0.31402
 C2714 C 0.41198 0.69560 0.30296
 N2715 N 0.40588 0.68499 0.29730
 N2716 N 0.39478 0.68001 0.30256
 C2717 C 0.38938 0.68550 0.31363
 N2718 N 0.39551 0.69613 0.31928
 C2719 C 0.42369 0.70123 0.29706
 C2720 C 0.43334 0.70615 0.29192
 C2721 C 0.44451 0.71230 0.28553
 N2722 N 0.44420 0.71464 0.27230
 N2723 N 0.45422 0.72097 0.26639
 C2724 C 0.46490 0.72519 0.27351
 N2725 N 0.46524 0.72272 0.28675
 N2726 N 0.45521 0.71638 0.29266
 N2727 N 0.40641 0.18496 0.79819
 C2728 C 0.41228 0.19570 0.80384
 N2729 N 0.40667 0.20123 0.81475
 N2730 N 0.39554 0.19616 0.81988
 C2731 C 0.38964 0.18540 0.81425
 N2732 N 0.39529 0.17988 0.80332
 C2733 C 0.42403 0.20142 0.79810
 C2734 C 0.43373 0.20646 0.79317
 C2735 C 0.44500 0.21280 0.78711
 N2736 N 0.44710 0.22600 0.78889
 N2737 N 0.45706 0.23211 0.78266
 C2738 C 0.46525 0.22522 0.77442
 N2739 N 0.46323 0.21197 0.77277
 N2740 N 0.45325 0.20585 0.77900
 N2741 N 0.90650 0.70176 0.81438
 C2742 C 0.91261 0.69560 0.80408
 N2743 N 0.90729 0.68423 0.79915
 N2744 N 0.89621 0.67917 0.80439
 C2745 C 0.89006 0.68533 0.81469
 N2746 N 0.89542 0.69670 0.81961
 C2747 C 0.92422 0.70134 0.79808
 C2748 C 0.93376 0.70634 0.79281
 C2749 C 0.94481 0.71255 0.78624
 N2750 N 0.94429 0.71490 0.77303
 N2751 N 0.95421 0.72123 0.76695
 C2752 C 0.96500 0.72545 0.77389
 N2753 N 0.96555 0.72299 0.78713
 N2754 N 0.95561 0.71665 0.79321
 N2755 N 0.90652 0.18463 0.29784
 C2756 C 0.91231 0.19554 0.30322
 N2757 N 0.90667 0.20131 0.31400
 N2758 N 0.89557 0.19630 0.31925
 C2759 C 0.88974 0.18537 0.31388
 N2760 N 0.89543 0.17961 0.30309
 C2761 C 0.92400 0.20121 0.29730
 C2762 C 0.93361 0.20615 0.29212
 C2763 C 0.94475 0.21232 0.28568
 N2764 N 0.95547 0.21643 0.29277
 N2765 N 0.96547 0.22277 0.28680
 C2766 C 0.96507 0.22522 0.27356
 N2767 N 0.95437 0.22099 0.26650
 N2768 N 0.94439 0.21465 0.27246
 N2769 N 0.31453 0.29823 0.59300
 C2770 C 0.30370 0.30393 0.58731
 N2771 N 0.29814 0.31477 0.59309
 N2772 N 0.30327 0.31979 0.60420
 C2773 C 0.31411 0.31411 0.60992
 N2774 N 0.31966 0.30325 0.60410
 C2775 C 0.29788 0.29827 0.57562
 C2776 C 0.29274 0.29335 0.56600
 C2777 C 0.28625 0.28725 0.55489
 N2778 N 0.27296 0.28498 0.55528
 N2779 N 0.26694 0.27868 0.54534
 C2780 C 0.27400 0.27441 0.53466
 N2781 N 0.28731 0.27683 0.53422
 N2782 N 0.29333 0.28313 0.54418
 N2783 N 0.29828 0.81489 0.09303
 C2784 C 0.30390 0.80407 0.08727
 N2785 N 0.31471 0.79839 0.09299
 N2786 N 0.31978 0.80341 0.10413
 C2787 C 0.31418 0.81425 0.10992
 N2788 N 0.30335 0.81991 0.10416
 C2789 C 0.29820 0.79843 0.07550
 C2790 C 0.29321 0.79355 0.06579
 C2791 C 0.28697 0.78750 0.05451
 N2792 N 0.29399 0.77935 0.04637
 N2793 N 0.28795 0.77306 0.03641
 C2794 C 0.27471 0.77471 0.03429
 N2795 N 0.26774 0.78300 0.04237
 N2796 N 0.27378 0.78928 0.05232
 N2797 N 0.79849 0.31451 0.09301
 C2798 C 0.80417 0.30367 0.08733
 N2799 N 0.81504 0.29812 0.09308
 N2800 N 0.82009 0.30327 0.10416
 C2801 C 0.81443 0.31412 0.10988
 N2802 N 0.80355 0.31966 0.10409
 C2803 C 0.79846 0.29783 0.07568
 C2804 C 0.79350 0.29268 0.06609
 C2805 C 0.78735 0.28621 0.05499
 N2806 N 0.78516 0.27291 0.05532
 N2807 N 0.77888 0.26691 0.04536
 C2808 C 0.77457 0.27399 0.03472
 N2809 N 0.77688 0.28731 0.03436
 N2810 N 0.78317 0.29332 0.04434
 N2811 N 0.81325 0.79760 0.59433
 C2812 C 0.80302 0.80383 0.58814
 N2813 N 0.79816 0.81530 0.59332
 N2814 N 0.80340 0.82041 0.60433
 C2815 C 0.81367 0.81421 0.61054
 N2816 N 0.81850 0.80271 0.60534
 C2817 C 0.79722 0.79824 0.57640
 C2818 C 0.79218 0.79348 0.56665
 C2819 C 0.78590 0.78768 0.55526
 N2820 N 0.77308 0.79070 0.55232
 N2821 N 0.76697 0.78480 0.54218
 C2822 C 0.77350 0.77572 0.53462
 N2823 N 0.78636 0.77274 0.53755
 N2824 N 0.79246 0.77864 0.54770
 N2825 N 0.29772 0.68548 0.40655
 C2826 C 0.30400 0.69560 0.41285
 N2827 N 0.31547 0.70048 0.40770
 N2828 N 0.32052 0.69538 0.39659
 C2829 C 0.31425 0.68526 0.39023
 N2830 N 0.30277 0.68037 0.39543
 C2831 C 0.29827 0.70150 0.42449
 C2832 C 0.29328 0.70673 0.43404
 C2833 C 0.28709 0.71331 0.44506
 N2834 N 0.28447 0.72652 0.44441
 N2835 N 0.27813 0.73260 0.45430
 C2836 C 0.27417 0.72569 0.46518
 N2837 N 0.27692 0.71247 0.46586
 N2838 N 0.28327 0.70637 0.45596
 N2839 N 0.31458 0.20163 0.90675
 C2840 C 0.30374 0.19607 0.91254
 N2841 N 0.29804 0.18526 0.90684
 N2842 N 0.30306 0.18014 0.89572
 C2843 C 0.31391 0.18569 0.88989
 N2844 N 0.31959 0.19652 0.89562
 C2845 C 0.29810 0.20187 0.92427
 C2846 C 0.29321 0.20700 0.93392
 C2847 C 0.28715 0.21348 0.94508
 N2848 N 0.28304 0.20640 0.95577
 N2849 N 0.27678 0.21242 0.96578
 C2850 C 0.27441 0.22573 0.96539
 N2851 N 0.27867 0.23280 0.95472
 N2852 N 0.28493 0.22678 0.94474
 N2853 N 0.79908 0.68481 0.90742
 C2854 C 0.80396 0.69632 0.91248
 N2855 N 0.81411 0.70254 0.90614
 N2856 N 0.81922 0.69741 0.89506
 C2857 C 0.81434 0.68590 0.88995
 N2858 N 0.80420 0.67969 0.89635
 C2859 C 0.79817 0.70204 0.92418
 C2860 C 0.79310 0.70694 0.93386
 C2861 C 0.78678 0.71290 0.94516
 N2862 N 0.79195 0.72400 0.95080
 N2863 N 0.78569 0.72994 0.96084
 C2864 C 0.77407 0.72494 0.96558
 N2865 N 0.76893 0.71380 0.95995
 N2866 N 0.77520 0.70787 0.94991
 N2867 N 0.79837 0.18551 0.40684
 C2868 C 0.80404 0.19634 0.41251
 N2869 N 0.81490 0.20189 0.40674
 N2870 N 0.81995 0.19674 0.39565
 C2871 C 0.81429 0.18589 0.38995
 N2872 N 0.80342 0.18035 0.39575
 C2873 C 0.79834 0.20219 0.42418
 C2874 C 0.79339 0.20734 0.43379
 C2875 C 0.78726 0.21381 0.44490
 N2876 N 0.78504 0.22711 0.44456
 N2877 N 0.77876 0.23311 0.45453
 C2878 C 0.77446 0.22604 0.46517
 N2879 N 0.77681 0.21272 0.46555
 N2880 N 0.78310 0.20671 0.45556
 N2881 N 0.70196 0.31494 0.40695
 C2882 C 0.69639 0.30411 0.41272
 N2883 N 0.68558 0.29842 0.40701
 N2884 N 0.68048 0.30343 0.39589
 C2885 C 0.68604 0.31428 0.39008
 N2886 N 0.69687 0.31996 0.39583
 C2887 C 0.70217 0.29845 0.42444
 C2888 C 0.70729 0.29353 0.43407
 C2889 C 0.71374 0.28740 0.44520
 N2890 N 0.70662 0.28329 0.45588
 N2891 N 0.71261 0.27696 0.46585
 C2892 C 0.72591 0.27451 0.46544
 N2893 N 0.73301 0.27878 0.45479
 N2894 N 0.72702 0.28510 0.44484
 N2895 N 0.68588 0.79853 0.90686
 C2896 C 0.69673 0.80423 0.91248
 N2897 N 0.70226 0.81506 0.90666
 N2898 N 0.69707 0.82007 0.89557
 C2899 C 0.68621 0.81438 0.88991
 N2900 N 0.68069 0.80354 0.89577
 C2901 C 0.70262 0.79855 0.92415
 C2902 C 0.70778 0.79360 0.93375
 C2903 C 0.71421 0.78743 0.94487
 N2904 N 0.72754 0.78535 0.94467
 N2905 N 0.73349 0.77898 0.95461
 C2906 C 0.72631 0.77444 0.96509
 N2907 N 0.71296 0.77667 0.96535
 N2908 N 0.70701 0.78305 0.95539
 N2909 N 0.20196 0.31489 0.90683
 C2910 C 0.19641 0.30404 0.91261
 N2911 N 0.18558 0.29835 0.90694
 N2912 N 0.18043 0.30338 0.89584
 C2913 C 0.18596 0.31424 0.89003
 N2914 N 0.19680 0.31992 0.89574
 C2915 C 0.20226 0.29836 0.92428
 C2916 C 0.20741 0.29342 0.93388
 C2917 C 0.21389 0.28729 0.94499
 N2918 N 0.20678 0.28315 0.95566
 N2919 N 0.21280 0.27686 0.96564
 C2920 C 0.22612 0.27449 0.96525
 N2921 N 0.23320 0.27876 0.95459
 N2922 N 0.22719 0.28504 0.94463
 N2923 N 0.18492 0.79979 0.40777
 C2924 C 0.19638 0.80480 0.41281
 N2925 N 0.20253 0.81494 0.40641
 N2926 N 0.19737 0.81995 0.39530
 C2927 C 0.18590 0.81494 0.39021
 N2928 N 0.17976 0.80480 0.39666
 C2929 C 0.20226 0.79903 0.42444
 C2930 C 0.20741 0.79396 0.43398
 C2931 C 0.21386 0.78765 0.44501
 N2932 N 0.22704 0.78482 0.44439
 N2933 N 0.23299 0.77838 0.45429
 C2934 C 0.22597 0.77451 0.46514
 N2935 N 0.21278 0.77746 0.46578
 N2936 N 0.20682 0.78391 0.45587
 N2937 N 0.68543 0.70194 0.59356
 C2938 C 0.69628 0.69633 0.58783
 N2939 N 0.70191 0.68549 0.59354
 N2940 N 0.69681 0.68038 0.60463
 C2941 C 0.68594 0.68598 0.61040
 N2942 N 0.68033 0.69684 0.60464
 C2943 C 0.70200 0.70208 0.57612
 C2944 C 0.70693 0.70714 0.56646
 C2945 C 0.71296 0.71351 0.55524
 N2946 N 0.72069 0.70649 0.54670
 N2947 N 0.72687 0.71261 0.53672
 C2948 C 0.72553 0.72595 0.53499
 N2949 N 0.71769 0.73292 0.54349
 N2950 N 0.71152 0.72679 0.55345
 N2951 N 0.68563 0.20144 0.09273
 C2952 C 0.69644 0.19575 0.08701
 N2953 N 0.70202 0.18491 0.09276
 N2954 N 0.69692 0.17988 0.10388
 C2955 C 0.68610 0.18555 0.10964
 N2956 N 0.68053 0.19641 0.10386
 C2957 C 0.70224 0.20144 0.07531
 C2958 C 0.70737 0.20639 0.06569
 C2959 C 0.71384 0.21255 0.05459
 N2960 N 0.72712 0.21486 0.05498
 N2961 N 0.73313 0.22122 0.04506
 C2962 C 0.72605 0.22550 0.03441
 N2963 N 0.71276 0.22304 0.03397
 N2964 N 0.70675 0.21668 0.04391
 N2965 N 0.20201 0.68548 0.09315
 C2966 C 0.19644 0.69633 0.08742
 N2967 N 0.18561 0.70200 0.09313
 N2968 N 0.18049 0.69695 0.10424
 C2969 C 0.18605 0.68608 0.11001
 N2970 N 0.19690 0.68042 0.10426
 C2971 C 0.20220 0.70200 0.07570
 C2972 C 0.20725 0.70691 0.06602
 C2973 C 0.21356 0.71295 0.05477
 N2974 N 0.20656 0.72098 0.04651
 N2975 N 0.21263 0.72722 0.03653
 C2976 C 0.22591 0.72563 0.03452
 N2977 N 0.23286 0.71747 0.04272
 N2978 N 0.22678 0.71124 0.05269
 N2979 N 0.18508 0.20179 0.59346
 C2980 C 0.19593 0.19627 0.58765
 N2981 N 0.20163 0.18541 0.59327
 N2982 N 0.19659 0.18021 0.60434
 C2983 C 0.18572 0.18571 0.61018
 N2984 N 0.18004 0.19659 0.60453
 C2985 C 0.20160 0.20215 0.57598
 C2986 C 0.20652 0.20732 0.56637
 C2987 C 0.21263 0.21380 0.55524
 N2988 N 0.21679 0.20670 0.54457
 N2989 N 0.22305 0.21272 0.53458
 C2990 C 0.22537 0.22604 0.53495
 N2991 N 0.22108 0.23311 0.54560
 N2992 N 0.21482 0.22710 0.55557
   
