data_POSCAR
  _audit_creation_date              2014-09-24
  _audit_creation_method            'ToBaCCo'
  _symmetry_space_group_name_H-M    'P1'
  _symmetry_Int_Tables_number       1
  _symmetry_cell_setting            triclinic
  loop_
  _symmetry_equiv_pos_as_xyz
 x,y,z
_cell_length_a 71.3676
_cell_length_b 71.3519
_cell_length_c 71.3412
_cell_angle_alpha 90.015200
_cell_angle_beta 89.989200
_cell_angle_gamma 90.004000
loop_
  _atom_site_label
  _atom_site_type_symbol
  _atom_site_fract_x
  _atom_site_fract_y
  _atom_site_fract_z
C1 C 0.33984 1.36459 0.34012
 C2 C 0.34778 1.37259 0.32397
 C3 C 0.36357 1.36446 0.31516
 C4 C 0.37142 1.34819 0.32333
 C5 C 0.36363 1.34010 0.33944
 C6 C 0.34773 1.34826 0.34782
 C7 C 0.32379 1.37248 0.34836
 C8 C 0.31527 1.36423 0.36426
 C9 C 0.32363 1.34795 0.37189
 C10 C 0.33967 1.33999 0.36383
 C11 C 0.34767 1.32373 0.37148
 C12 C 0.36356 1.31551 0.36322
 C13 C 0.37149 1.32385 0.34723
 H14 H 0.34091 1.38466 0.31787
 H15 H 0.38402 1.34198 0.31762
 H16 H 0.31752 1.38454 0.34164
 H17 H 0.31813 1.34165 0.38455
 H18 H 0.34127 1.31722 0.38363
 H19 H 0.38385 1.31772 0.34089
 C20 C 0.33971 0.86420 0.83976
 C21 C 0.34774 0.87204 0.82360
 C22 C 0.36374 0.86398 0.81539
 C23 C 0.37180 0.84802 0.82367
 C24 C 0.36393 0.84006 0.83982
 C25 C 0.34785 0.84820 0.84794
 C26 C 0.32354 0.87206 0.84770
 C27 C 0.31514 0.86421 0.86387
 C28 C 0.32369 0.84827 0.87199
 C29 C 0.33982 0.84023 0.86412
 C30 C 0.34781 0.82405 0.87198
 C31 C 0.36373 0.81573 0.86385
 C32 C 0.37179 0.82395 0.84785
 H33 H 0.34127 0.88417 0.81714
 H34 H 0.38425 0.84182 0.81756
 H35 H 0.31799 0.88473 0.84149
 H36 H 0.31738 0.84137 0.88394
 H37 H 0.34138 0.81767 0.88417
 H38 H 0.38422 0.81780 0.84165
 C39 C 0.83982 1.36425 0.83977
 C40 C 0.84773 1.37221 0.82361
 C41 C 0.86363 1.36415 0.81491
 C42 C 0.87157 1.34798 0.82320
 C43 C 0.86382 1.33994 0.83936
 C44 C 0.84787 1.34806 0.84768
 C45 C 0.82369 1.37204 0.84792
 C46 C 0.81550 1.36384 0.86388
 C47 C 0.82380 1.34782 0.87180
 C48 C 0.83989 1.33987 0.86381
 C49 C 0.84795 1.32369 0.87155
 C50 C 0.86386 1.31549 0.86332
 C51 C 0.87176 1.32379 0.84727
 H52 H 0.84077 1.38417 0.81741
 H53 H 0.88422 1.34182 0.81754
 H54 H 0.81724 1.38425 0.84159
 H55 H 0.81774 1.34156 0.88425
 H56 H 0.84159 1.31724 0.88374
 H57 H 0.88415 1.31767 0.84096
 C58 C 0.83989 0.86419 0.33970
 C59 C 0.84784 0.87216 0.32356
 C60 C 0.86375 0.86409 0.31488
 C61 C 0.87165 0.84790 0.32316
 C62 C 0.86385 0.83984 0.33929
 C63 C 0.84791 0.84797 0.34759
 C64 C 0.82376 0.87199 0.34783
 C65 C 0.81554 0.86379 0.36376
 C66 C 0.82379 0.84773 0.37167
 C67 C 0.83988 0.83976 0.36369
 C68 C 0.84790 0.82356 0.37142
 C69 C 0.86382 0.81535 0.36320
 C70 C 0.87176 0.82367 0.34719
 H71 H 0.84091 0.88414 0.31736
 H72 H 0.88430 0.84173 0.31752
 H73 H 0.81735 0.88422 0.34151
 H74 H 0.81770 0.84146 0.38410
 H75 H 0.84151 0.81710 0.38359
 H76 H 0.88415 0.81755 0.34089
 C77 C 0.66009 0.63603 0.33946
 C78 C 0.65190 0.62818 0.32338
 C79 C 0.63589 0.63633 0.31498
 C80 C 0.62814 0.65250 0.32346
 C81 C 0.63614 0.66042 0.33957
 C82 C 0.65220 0.65221 0.34757
 C83 C 0.67632 0.62815 0.34731
 C84 C 0.68477 0.63625 0.36318
 C85 C 0.67664 0.65225 0.37132
 C86 C 0.66048 0.66030 0.36360
 C87 C 0.65259 0.67644 0.37156
 C88 C 0.63657 0.68475 0.36365
 C89 C 0.62838 0.67657 0.34770
 H90 H 0.65874 0.61624 0.31701
 H91 H 0.61543 0.65873 0.31802
 H92 H 0.68263 0.61595 0.34082
 H93 H 0.68289 0.65843 0.38371
 H94 H 0.65889 0.68252 0.38398
 H95 H 0.61620 0.68305 0.34134
 C96 C 0.66027 0.13608 0.83985
 C97 C 0.65224 0.12839 0.82361
 C98 C 0.63631 0.13659 0.81542
 C99 C 0.62832 0.15254 0.82378
 C100 C 0.63618 0.16036 0.84001
 C101 C 0.65219 0.15208 0.84811
 C102 C 0.67636 0.12808 0.84779
 C103 C 0.68475 0.13578 0.86404
 C104 C 0.67627 0.15173 0.87223
 C105 C 0.66021 0.15991 0.86437
 C106 C 0.65229 0.17609 0.87230
 C107 C 0.63644 0.18455 0.86418
 C108 C 0.62839 0.17646 0.84812
 H109 H 0.65865 0.11625 0.81709
 H110 H 0.61592 0.15885 0.81768
 H111 H 0.68186 0.11542 0.84151
 H112 H 0.68257 0.15854 0.88424
 H113 H 0.65871 0.18236 0.88456
 H114 H 0.61602 0.18272 0.84192
 C115 C 1.15951 0.63549 0.84045
 C116 C 1.15141 0.62793 0.82420
 C117 C 1.13542 0.63618 0.81615
 C118 C 1.12748 0.65208 0.82467
 C119 C 1.13539 0.65975 0.84094
 C120 C 1.15146 0.65141 0.84889
 C121 C 1.17565 0.62743 0.84826
 C122 C 1.18408 0.63497 0.86455
 C123 C 1.17563 0.65084 0.87291
 C124 C 1.15956 0.65910 0.86516
 C125 C 1.15166 0.67517 0.87330
 C126 C 1.13574 0.68368 0.86538
 C127 C 1.12762 0.67579 0.84926
 H128 H 1.15779 0.61585 0.81756
 H129 H 1.11504 0.65842 0.81868
 H130 H 1.18113 0.61482 0.84184
 H131 H 1.18198 0.65754 0.88495
 H132 H 1.15786 0.68105 0.88587
 H133 H 1.11551 0.68239 0.84290
 C134 C 1.15998 0.13575 0.33982
 C135 C 1.15183 0.12809 0.32363
 C136 C 1.13592 0.13638 0.31520
 C137 C 1.12828 0.15258 0.32371
 C138 C 1.13621 0.16027 0.33998
 C139 C 1.15211 0.15183 0.34806
 C140 C 1.17604 0.12761 0.34773
 C141 C 1.18454 0.13521 0.36396
 C142 C 1.17620 0.15122 0.37218
 C143 C 1.16023 0.15955 0.36433
 C144 C 1.15241 0.17572 0.37236
 C145 C 1.13657 0.18428 0.36436
 C146 C 1.12850 0.17639 0.34821
 H147 H 1.15862 0.11615 0.31719
 H148 H 1.11567 0.15897 0.31822
 H149 H 1.18142 0.11489 0.34145
 H150 H 1.18257 0.15795 0.38419
 H151 H 1.15860 0.18160 0.38493
 H152 H 1.11645 0.18304 0.34179
 C153 C 0.65972 1.36475 0.65968
 C154 C 0.65158 1.37224 0.67595
 C155 C 0.63561 1.36392 0.68397
 C156 C 0.62772 1.34801 0.67542
 C157 C 0.63567 1.34041 0.65912
 C158 C 0.65172 1.34882 0.65120
 C159 C 0.67582 1.37291 0.65189
 C160 C 0.68427 1.36546 0.63556
 C161 C 0.67589 1.34956 0.62717
 C162 C 0.65985 1.34122 0.63490
 C163 C 0.65200 1.32514 0.62671
 C164 C 0.63610 1.31656 0.63460
 C165 C 0.62796 1.32438 0.65076
 H166 H 0.65792 1.38433 0.68263
 H167 H 0.61530 1.34161 0.68138
 H168 H 0.68126 1.38551 0.65834
 H169 H 0.68225 1.34293 0.61510
 H170 H 0.65822 1.31934 0.61412
 H171 H 0.61586 1.31772 0.65708
 C172 C 0.66019 0.86397 1.16008
 C173 C 0.65218 0.87195 1.17616
 C174 C 0.63589 0.86427 1.18445
 C175 C 0.62769 0.84838 1.17585
 C176 C 0.63563 0.84024 1.15980
 C177 C 0.65193 0.84805 1.15186
 C178 C 0.67646 0.87165 1.15216
 C179 C 0.68474 0.86351 1.13623
 C180 C 0.67639 0.84762 1.12809
 C181 C 0.66007 0.83982 1.13581
 C182 C 0.65196 0.82374 1.12793
 C183 C 0.63582 0.81571 1.13591
 C184 C 0.62769 0.82414 1.15177
 H185 H 0.65847 0.88457 1.18174
 H186 H 0.61565 0.84159 1.18207
 H187 H 0.68268 0.88404 1.15839
 H188 H 0.68282 0.84109 1.11597
 H189 H 0.65846 0.81721 1.11586
 H190 H 0.61510 0.81818 1.15784
 C191 C 1.15905 1.36497 1.15908
 C192 C 1.15090 1.37245 1.17536
 C193 C 1.13496 1.36409 1.18339
 C194 C 1.12710 1.34817 1.17484
 C195 C 1.13506 1.34057 1.15855
 C196 C 1.15108 1.34902 1.15062
 C197 C 1.17514 1.37315 1.15129
 C198 C 1.18361 1.36569 1.13497
 C199 C 1.17524 1.34978 1.12658
 C200 C 1.15922 1.34142 1.13432
 C201 C 1.15141 1.32532 1.12615
 C202 C 1.13554 1.31670 1.13406
 C203 C 1.12738 1.32451 1.15020
 H204 H 1.15722 1.38455 1.18202
 H205 H 1.11470 1.34174 1.18082
 H206 H 1.18056 1.38576 1.15773
 H207 H 1.18163 1.34315 1.11453
 H208 H 1.15765 1.31951 1.11357
 H209 H 1.11530 1.31783 1.15655
 C210 C 1.16011 0.86439 0.65968
 C211 C 1.15192 0.87193 0.67591
 C212 C 1.13594 0.86363 0.68391
 C213 C 1.12807 0.84769 0.67537
 C214 C 1.13606 0.84005 0.65912
 C215 C 1.15213 0.84844 0.65122
 C216 C 1.17622 0.87253 0.65190
 C217 C 1.18471 0.86504 0.63561
 C218 C 1.17635 0.84912 0.62724
 C219 C 1.16030 0.84080 0.63496
 C220 C 1.15246 0.82470 0.62679
 C221 C 1.13655 0.81614 0.63465
 C222 C 1.12836 0.82400 0.65077
 H223 H 1.15825 0.88403 0.68257
 H224 H 1.11564 0.84131 0.68132
 H225 H 1.18164 0.88515 0.65834
 H226 H 1.18274 0.84246 0.61521
 H227 H 1.15871 0.81887 0.61422
 H228 H 1.11624 0.81736 0.65708
 C229 C 0.34034 0.63572 0.65960
 C230 C 0.34838 0.62794 0.67576
 C231 C 0.36438 0.63607 0.68393
 C232 C 0.37242 0.65202 0.67561
 C233 C 0.36453 0.65996 0.65945
 C234 C 0.34841 0.65182 0.65143
 C235 C 0.32414 0.62787 0.65168
 C236 C 0.31584 0.63592 0.63571
 C237 C 0.32408 0.65186 0.62757
 C238 C 0.34024 0.65989 0.63535
 C239 C 0.34821 0.67601 0.62742
 C240 C 0.36421 0.68430 0.63541
 C241 C 0.37235 0.67610 0.65138
 H242 H 0.34194 0.61580 0.68224
 H243 H 0.38487 0.65824 0.68168
 H244 H 0.31773 0.61573 0.65820
 H245 H 0.31792 0.65803 0.61513
 H246 H 0.34197 0.68211 0.61499
 H247 H 0.38452 0.68254 0.65780
 C248 C 0.34022 0.13586 1.15995
 C249 C 0.34822 0.12798 1.17607
 C250 C 0.36436 0.13585 1.18447
 C251 C 0.37245 0.15181 1.17592
 C252 C 0.36454 0.15986 1.15980
 C253 C 0.34836 0.15187 1.15180
 C254 C 0.32407 0.12800 1.15196
 C255 C 0.31580 0.13605 1.13599
 C256 C 0.32403 0.15202 1.12790
 C257 C 0.34020 0.16000 1.13572
 C258 C 0.34817 0.17616 1.12789
 C259 C 0.36417 0.18439 1.13593
 C260 C 0.37235 0.17606 1.15181
 H261 H 0.34204 0.11528 1.18160
 H262 H 0.38440 0.15872 1.18221
 H263 H 0.31793 0.11557 1.15816
 H264 H 0.31759 0.15850 1.11576
 H265 H 0.34192 0.18233 1.11550
 H266 H 0.38454 0.18246 1.15823
 C267 C 0.83998 0.63592 1.15962
 C268 C 0.84787 0.62805 1.17582
 C269 C 0.86382 0.63610 1.18416
 C270 C 0.87197 0.65205 1.17595
 C271 C 0.86422 0.66010 1.15980
 C272 C 0.84815 0.65204 1.15158
 C273 C 0.82383 0.62815 1.15153
 C274 C 0.81569 0.63629 1.13553
 C275 C 0.82402 0.65227 1.12753
 C276 C 0.84015 0.66021 1.13546
 C277 C 0.84824 0.67636 1.12768
 C278 C 0.86419 0.68455 1.13587
 C279 C 0.87216 0.67623 1.15187
 H280 H 0.84135 0.61590 1.18219
 H281 H 0.88440 0.65821 1.18215
 H282 H 0.81735 0.61600 1.15795
 H283 H 0.81796 0.65851 1.11507
 H284 H 0.84185 0.68283 1.11551
 H285 H 0.88458 0.68232 1.15814
 C286 C 0.83931 0.13648 0.66057
 C287 C 0.84743 0.12851 0.67663
 C288 C 0.86327 0.13671 0.68532
 C289 C 0.87095 0.15304 0.67711
 C290 C 0.86301 0.16109 0.66105
 C291 C 0.84707 0.15286 0.65282
 C292 C 0.82324 0.12851 0.65246
 C293 C 0.81455 0.13672 0.63663
 C294 C 0.82277 0.15304 0.62894
 C295 C 0.83881 0.16110 0.63690
 C296 C 0.84667 0.17739 0.62918
 C297 C 0.86260 0.18569 0.63727
 C298 C 0.87072 0.17739 0.65319
 H299 H 0.84067 0.11641 0.68278
 H300 H 0.88356 0.15931 0.68273
 H301 H 0.81709 0.11640 0.65921
 H302 H 0.81717 0.15931 0.61633
 H303 H 0.84042 0.18358 0.61680
 H304 H 0.88283 0.18386 0.65969
 C305 C 1.36421 0.33999 0.65998
 C306 C 1.37215 0.34808 0.67608
 C307 C 1.36393 0.36390 0.68478
 C308 C 1.34763 0.37161 0.67655
 C309 C 1.33960 0.36369 0.66046
 C310 C 1.34785 0.34776 0.65222
 C311 C 1.37218 0.32392 0.65185
 C312 C 1.36399 0.31525 0.63600
 C313 C 1.34770 0.32349 0.62829
 C314 C 1.33963 0.33953 0.63627
 C315 C 1.32336 0.34739 0.62854
 C316 C 1.31505 0.36331 0.63665
 C317 C 1.32332 0.37142 0.65259
 H318 H 1.38423 0.34131 0.68224
 H319 H 1.34135 0.38422 0.68218
 H320 H 1.38427 0.31776 0.65861
 H321 H 1.34144 0.31790 0.61566
 H322 H 1.31718 0.34116 0.61613
 H323 H 1.31684 0.38351 0.65911
 C324 C 1.36459 0.84013 1.15924
 C325 C 1.37261 0.84808 1.17534
 C326 C 1.36453 0.86391 1.18388
 C327 C 1.34836 0.87192 1.17595
 C328 C 1.34018 0.86412 1.15987
 C329 C 1.34827 0.84811 1.15154
 C330 C 1.37249 0.82412 1.15098
 C331 C 1.36423 0.81561 1.13508
 C332 C 1.34791 0.82393 1.12751
 C333 C 1.33994 0.83997 1.13561
 C334 C 1.32364 0.84793 1.12803
 C335 C 1.31541 0.86383 1.13628
 C336 C 1.32383 0.87189 1.15218
 H337 H 1.38522 0.84198 1.18122
 H338 H 1.34190 0.88397 1.18257
 H339 H 1.38456 0.81787 1.15769
 H340 H 1.34157 0.81841 1.11489
 H341 H 1.31736 0.84176 1.11565
 H342 H 1.31744 0.88398 1.15880
 C343 C 0.86379 0.33955 1.16003
 C344 C 0.87165 0.34749 1.17621
 C345 C 0.86364 0.36346 1.18452
 C346 C 0.84770 0.37161 1.17629
 C347 C 0.83972 0.36385 1.16008
 C348 C 0.84782 0.34777 1.15189
 C349 C 0.87165 0.32344 1.15199
 C350 C 0.86380 0.31511 1.13580
 C351 C 0.84787 0.32372 1.12771
 C352 C 0.83985 0.33983 1.13566
 C353 C 0.82369 0.34789 1.12785
 C354 C 0.81539 0.36378 1.13606
 C355 C 0.82361 0.37175 1.15211
 H356 H 0.88406 0.34124 1.18235
 H357 H 0.84126 0.38376 1.18275
 H358 H 0.88433 0.31787 1.15817
 H359 H 0.84097 0.31747 1.11573
 H360 H 0.81730 0.34152 1.11562
 H361 H 0.81747 0.38415 1.15838
 C362 C 0.86432 0.84036 0.65968
 C363 C 0.87206 0.84837 0.67589
 C364 C 0.86392 0.86435 0.68409
 C365 C 0.84798 0.87240 0.67575
 C366 C 0.84008 0.86456 0.65956
 C367 C 0.84824 0.84845 0.65150
 C368 C 0.87219 0.82418 0.65173
 C369 C 0.86417 0.81592 0.63573
 C370 C 0.84824 0.82418 0.62757
 C371 C 0.84020 0.84032 0.63538
 C372 C 0.82410 0.84831 0.62744
 C373 C 0.81580 0.86429 0.63546
 C374 C 0.82396 0.87239 0.65147
 H375 H 0.88418 0.84191 0.68237
 H376 H 0.84175 0.88485 0.68185
 H377 H 0.88431 0.81776 0.65826
 H378 H 0.84211 0.81804 0.61510
 H379 H 0.81803 0.84210 0.61497
 H380 H 0.81751 0.88455 0.65790
 C381 C 0.63600 0.66032 0.66002
 C382 C 0.62816 0.65232 0.67619
 C383 C 0.63623 0.63632 0.68441
 C384 C 0.65218 0.62823 0.67611
 C385 C 0.66019 0.63609 0.65999
 C386 C 0.65210 0.65220 0.65190
 C387 C 0.62821 0.67651 0.65205
 C388 C 0.63632 0.68477 0.63608
 C389 C 0.65228 0.67649 0.62800
 C390 C 0.66024 0.66031 0.63580
 C391 C 0.67637 0.65228 0.62794
 C392 C 0.68459 0.63629 0.63600
 C393 C 0.67631 0.62822 0.65197
 H394 H 0.61603 0.65880 0.68263
 H395 H 0.65835 0.61577 0.68222
 H396 H 0.61607 0.68295 0.65852
 H397 H 0.65849 0.68262 0.61556
 H398 H 0.68281 0.65875 0.61579
 H399 H 0.68243 0.61576 0.65815
 C400 C 0.63526 1.16010 1.15926
 C401 C 0.62738 1.15207 1.17541
 C402 C 0.63555 1.13619 1.18377
 C403 C 0.65161 1.12822 1.17561
 C404 C 0.65967 1.13612 1.15953
 C405 C 0.65151 1.15216 1.15136
 C406 C 0.62735 1.17620 1.15120
 C407 C 0.63550 1.18480 1.13529
 C408 C 0.65174 1.17648 1.12750
 C409 C 0.65973 1.16036 1.13539
 C410 C 0.67597 1.15241 1.12762
 C411 C 0.68422 1.13646 1.13573
 C412 C 0.67590 1.12835 1.15164
 H413 H 0.61513 1.15844 1.18175
 H414 H 0.65785 1.11583 1.18179
 H415 H 0.61535 1.18244 1.15806
 H416 H 0.65798 1.18207 1.11486
 H417 H 0.68245 1.15891 1.11552
 H418 H 0.68204 1.11593 1.15787
 C419 C 0.13560 0.66051 1.15988
 C420 C 0.12765 0.65235 1.17595
 C421 C 0.13586 0.63648 1.18456
 C422 C 0.15213 0.62878 1.17626
 C423 C 0.16017 0.63678 1.16023
 C424 C 0.15194 0.65275 1.15205
 C425 C 0.12766 0.67663 1.15185
 C426 C 0.13586 0.68536 1.13604
 C427 C 0.15214 0.67713 1.12827
 C428 C 0.16016 0.66102 1.13613
 C429 C 0.17644 0.65317 1.12835
 C430 C 0.18472 0.63721 1.13641
 C431 C 0.17643 0.62907 1.15231
 H432 H 0.11558 0.65911 1.18216
 H433 H 0.15839 0.61613 1.18180
 H434 H 0.11559 0.68279 1.15866
 H435 H 0.15840 0.68279 1.11566
 H436 H 0.18291 0.65972 1.11627
 H437 H 0.18262 0.61666 1.15851
 C438 C 0.13549 1.15990 0.65950
 C439 C 0.12744 1.15198 0.67560
 C440 C 0.13506 1.13571 0.68398
 C441 C 0.15099 1.12747 0.67552
 C442 C 0.15923 1.13533 0.65948
 C443 C 0.15146 1.15159 0.65143
 C444 C 0.12785 1.17613 0.65145
 C445 C 0.13607 1.18429 0.63550
 C446 C 0.15203 1.17591 0.62754
 C447 C 0.15978 1.15964 0.63539
 C448 C 0.17587 1.15146 0.62761
 C449 C 0.18385 1.13535 0.63569
 C450 C 0.17535 1.12732 0.65156
 H451 H 0.11480 1.15831 0.68110
 H452 H 0.15774 1.11545 0.68183
 H453 H 0.11573 1.18268 0.65785
 H454 H 0.15836 1.18198 0.61513
 H455 H 0.18245 1.15789 0.61553
 H456 H 0.18128 1.11477 0.65773
 C457 C 1.36441 0.66032 0.34020
 C458 C 1.37256 0.65235 0.32416
 C459 C 1.36482 0.63621 0.31560
 C460 C 1.34871 0.62814 0.32385
 C461 C 1.34038 0.63604 0.33982
 C462 C 1.34822 0.65224 0.34797
 C463 C 1.37218 0.67645 0.34839
 C464 C 1.36386 0.68497 0.36425
 C465 C 1.34757 0.67659 0.37182
 C466 C 1.33976 0.66042 0.36382
 C467 C 1.32352 0.65238 0.37142
 C468 C 1.31548 0.63632 0.36330
 C469 C 1.32407 0.62819 0.34753
 H470 H 1.38535 0.65850 0.31885
 H471 H 1.34189 0.61621 0.31742
 H472 H 1.38421 0.68278 0.34166
 H473 H 1.34115 0.68214 0.38440
 H474 H 1.31713 0.65859 0.38373
 H475 H 1.31783 0.61596 0.34102
 C476 C 1.36480 1.16007 0.84063
 C477 C 1.37292 1.15217 0.82456
 C478 C 1.36491 1.13635 0.81595
 C479 C 1.34871 1.12830 0.82377
 C480 C 1.34042 1.13605 0.83983
 C481 C 1.34845 1.15206 0.84823
 C482 C 1.37264 1.17608 0.84897
 C483 C 1.36428 1.18455 0.86484
 C484 C 1.34792 1.17618 0.87231
 C485 C 1.34002 1.16015 0.86414
 C486 C 1.32369 1.15215 0.87161
 C487 C 1.31553 1.13626 0.86328
 C488 C 1.32405 1.12825 0.84742
 H489 H 1.38555 1.15831 0.81875
 H490 H 1.34229 1.11625 0.81710
 H491 H 1.38474 1.18236 0.84233
 H492 H 1.34150 1.18167 0.88491
 H493 H 1.31733 1.15829 0.88397
 H494 H 1.31771 1.11616 0.84074
 C495 C 0.86417 0.66024 0.84020
 C496 C 0.87215 0.65239 0.82404
 C497 C 0.86416 0.63648 0.81557
 C498 C 0.84810 0.62832 0.82360
 C499 C 0.83996 0.63601 0.83976
 C500 C 0.84799 0.65206 0.84808
 C501 C 0.87196 0.67631 0.84843
 C502 C 0.86373 0.68442 0.86441
 C503 C 0.84768 0.67610 0.87225
 C504 C 0.83974 0.66005 0.86417
 C505 C 0.82353 0.65199 0.87180
 C506 C 0.81533 0.63610 0.86351
 C507 C 0.82371 0.62813 0.84754
 H508 H 0.88465 0.65863 0.81808
 H509 H 0.84170 0.61622 0.81701
 H510 H 0.88417 0.68279 0.84212
 H511 H 0.84137 0.68213 0.88469
 H512 H 0.81730 0.65808 0.88425
 H513 H 0.81734 0.61603 0.84092
 C514 C 0.86435 1.16019 0.33995
 C515 C 0.87242 1.15231 0.32385
 C516 C 0.86472 1.13614 0.31533
 C517 C 0.84871 1.12794 0.32368
 C518 C 0.84046 1.13574 0.33975
 C519 C 0.84828 1.15194 0.34790
 C520 C 0.87204 1.17636 0.34812
 C521 C 0.86377 1.18450 0.36406
 C522 C 0.84775 1.17614 0.37191
 C523 C 0.83994 1.15998 0.36392
 C524 C 0.82377 1.15188 0.37158
 C525 C 0.81570 1.13588 0.36339
 C526 C 0.82422 1.12782 0.34754
 H527 H 0.88512 1.15859 0.31845
 H528 H 0.84192 1.11599 0.31727
 H529 H 0.88422 1.18288 0.34180
 H530 H 0.84140 1.18219 0.38432
 H531 H 0.81745 1.15804 0.38395
 H532 H 0.81796 1.11561 0.34101
 C533 C 0.63540 0.34056 0.34030
 C534 C 0.62732 0.34842 0.32420
 C535 C 0.63487 0.36472 0.31580
 C536 C 0.65077 0.37303 0.32425
 C537 C 0.65905 0.36522 0.34029
 C538 C 0.65135 0.34894 0.34835
 C539 C 0.62783 0.32430 0.34837
 C540 C 0.63609 0.31619 0.36432
 C541 C 0.65202 0.32465 0.37227
 C542 C 0.65970 0.34093 0.36439
 C543 C 0.67576 0.34919 0.37216
 C544 C 0.68367 0.36533 0.36407
 C545 C 0.67514 0.37330 0.34818
 H546 H 0.61470 0.34204 0.31872
 H547 H 0.65748 0.38507 0.31792
 H548 H 0.61573 0.31770 0.34198
 H549 H 0.65837 0.31860 0.38468
 H550 H 0.68237 0.34280 0.38425
 H551 H 0.68102 0.38588 0.34201
 C552 C 0.63580 0.84020 0.83995
 C553 C 0.62804 0.84833 0.82382
 C554 C 0.63614 0.86440 0.81576
 C555 C 0.65205 0.87244 0.82418
 C556 C 0.65997 0.86447 0.84030
 C557 C 0.65185 0.84827 0.84821
 C558 C 0.62797 0.82393 0.84775
 C559 C 0.63601 0.81556 0.86369
 C560 C 0.65191 0.82381 0.87192
 C561 C 0.65991 0.84003 0.86426
 C562 C 0.67598 0.84800 0.87228
 C563 C 0.68424 0.86407 0.86441
 C564 C 0.67606 0.87229 0.84847
 H565 H 0.61594 0.84190 0.81727
 H566 H 0.65825 0.88495 0.81820
 H567 H 0.61587 0.81754 0.84117
 H568 H 0.65805 0.81758 0.88434
 H569 H 0.68205 0.84170 0.88470
 H570 H 0.68249 0.88451 0.84215
 C571 C 0.13510 0.34012 0.84077
 C572 C 0.12699 0.34806 0.82471
 C573 C 0.13493 0.36399 0.81623
 C574 C 0.15104 0.37210 0.82416
 C575 C 0.15933 0.36429 0.84019
 C576 C 0.15137 0.34820 0.84849
 C577 C 0.12734 0.32404 0.84899
 C578 C 0.13566 0.31555 0.86486
 C579 C 0.15195 0.32397 0.87243
 C580 C 0.15977 0.34011 0.86440
 C581 C 0.17601 0.34821 0.87200
 C582 C 0.18407 0.36421 0.86379
 C583 C 0.17559 0.37219 0.84789
 H584 H 0.11443 0.34187 0.81882
 H585 H 0.15740 0.38423 0.81759
 H586 H 0.11531 0.31771 0.84226
 H587 H 0.15835 0.31845 0.88503
 H588 H 0.18263 0.34180 0.88407
 H589 H 0.18159 0.38464 0.84158
 C590 C 0.13631 0.83946 0.33959
 C591 C 0.12822 0.84755 0.32360
 C592 C 0.13597 0.86375 0.31517
 C593 C 0.15206 0.87178 0.32353
 C594 C 0.16033 0.86376 0.33947
 C595 C 0.15248 0.84750 0.34747
 C596 C 0.12853 0.82328 0.34764
 C597 C 0.13680 0.81465 0.36346
 C598 C 0.15306 0.82299 0.37114
 C599 C 0.16088 0.83922 0.36329
 C600 C 0.17709 0.84722 0.37101
 C601 C 0.18515 0.86333 0.36303
 C602 C 0.17661 0.87157 0.34729
 H603 H 0.11544 0.84143 0.31820
 H604 H 0.15889 0.88376 0.31722
 H605 H 0.11652 0.81699 0.34084
 H606 H 0.15943 0.81737 0.38370
 H607 H 0.18342 0.84092 0.38329
 H608 H 0.18287 0.88384 0.34090
 O609 O 1.06799 1.01865 1.09336
 O610 O 1.08984 1.01874 1.11522
 C611 C 1.07461 1.02515 1.10856
 C612 C 1.06470 1.04060 1.11827
 C613 C 1.07112 1.04736 1.13562
 H614 H 1.08326 1.04098 1.14213
 O615 O 0.93241 0.98240 1.09349
 O616 O 0.91065 0.98249 1.11544
 C617 C 0.92585 0.97604 1.10877
 C618 C 0.93577 0.96066 1.11858
 C619 C 0.92926 0.95395 1.13592
 H620 H 0.91707 0.96032 1.14234
 O621 O 1.01868 1.09360 1.06723
 O622 O 1.01878 1.11564 1.08891
 C623 C 1.02513 1.10888 1.07370
 C624 C 1.04051 1.11857 1.06366
 C625 C 1.04715 1.13603 1.06989
 H626 H 1.04073 1.14267 1.08194
 O627 O 0.98185 0.90731 1.06801
 O628 O 0.98184 0.88544 1.08984
 C629 C 0.97545 0.89206 1.07460
 C630 C 0.96008 0.88223 1.06469
 C631 C 0.95356 0.86481 1.07112
 H632 H 0.96040 0.85811 1.08290
 O633 O 1.09370 1.06743 1.01779
 O634 O 1.11562 1.08921 1.01767
 C635 C 1.10896 1.07402 1.02416
 C636 C 1.11874 1.06416 1.03959
 C637 C 1.13611 1.07064 1.04624
 H638 H 1.14263 1.08271 1.03975
 O639 O 0.90668 0.93275 1.01866
 O640 O 0.88477 0.91095 1.01880
 C641 C 0.89143 0.92621 1.02512
 C642 C 0.88165 0.93623 1.04046
 C643 C 0.86428 0.92982 1.04717
 H644 H 0.85778 0.91767 1.04080
 O645 O 0.98210 1.06812 1.09305
 O646 O 0.98216 1.09004 1.11484
 C647 C 0.97573 1.07478 1.10828
 C648 C 0.96036 1.06492 1.11816
 C649 C 0.95392 1.07135 1.13562
 H650 H 0.96087 1.08306 1.14232
 O651 O 1.01843 0.93299 1.09368
 O652 O 1.01839 0.91121 1.11561
 C653 C 1.02481 0.92643 1.10895
 C654 C 1.04021 0.93633 1.11874
 C655 C 1.04678 0.92990 1.13614
 H656 H 1.03987 0.91819 1.14289
 O657 O 1.09345 0.98191 1.06776
 O658 O 1.11543 0.98192 1.08948
 C659 C 1.10871 0.97550 1.07428
 C660 C 1.11845 0.96011 1.06430
 C661 C 1.13581 0.95338 1.07071
 H662 H 1.14232 0.95975 1.08286
 O663 O 0.90681 1.01892 1.06770
 O664 O 0.88495 1.01906 1.08955
 C665 C 0.89158 1.02538 1.07427
 C666 C 0.88178 1.04073 1.06429
 C667 C 0.86441 1.04735 1.07073
 H668 H 0.85772 1.04061 1.08257
 O669 O 0.93245 1.09366 1.01802
 O670 O 0.91073 1.11564 1.01802
 C671 C 0.92595 1.10895 1.02441
 C672 C 0.93597 1.11874 1.03974
 C673 C 0.92958 1.13613 1.04642
 H674 H 0.91739 1.14258 1.04007
 O675 O 1.06757 0.90705 1.01829
 O676 O 1.08932 0.88510 1.01834
 C677 C 1.07412 0.89181 1.02475
 C678 C 1.06421 0.88210 1.04021
 C679 C 1.07060 0.86470 1.04681
 H680 H 1.08229 0.85791 1.03991
 O681 O 0.93249 1.01898 1.09335
 O682 O 0.91074 1.01912 1.11531
 C683 C 0.92597 1.02546 1.10859
 C684 C 0.93600 1.04083 1.11832
 C685 C 0.92968 1.04753 1.13573
 H686 H 0.91754 1.04118 1.14226
 O687 O 1.06795 0.98208 1.09359
 O688 O 1.08981 0.98210 1.11543
 C689 C 1.07455 0.97571 1.10885
 C690 C 1.06458 0.96039 1.11871
 C691 C 1.07104 0.95369 1.13607
 H692 H 1.08325 0.96002 1.14249
 O693 O 1.01842 0.90732 1.06800
 O694 O 1.01843 0.88545 1.08983
 C695 C 1.02482 0.89207 1.07458
 C696 C 1.04016 0.88223 1.06461
 C697 C 1.04682 0.86486 1.07108
 H698 H 1.04047 0.85846 1.08329
 O699 O 0.98210 1.09365 1.06723
 O700 O 0.98218 1.11567 1.08893
 C701 C 0.97574 1.10896 1.07374
 C702 C 0.96035 1.11875 1.06382
 C703 C 0.95382 1.13618 1.07022
 H704 H 0.96072 1.14293 1.08193
 O705 O 0.90669 1.06812 1.01811
 O706 O 0.88484 1.08998 1.01811
 C707 C 0.89147 1.07474 1.02453
 C708 C 0.88169 1.06485 1.03996
 C709 C 0.86432 1.07130 1.04663
 H710 H 0.85780 1.08339 1.04016
 O711 O 1.09330 0.93265 1.01816
 O712 O 1.11514 0.91079 1.01821
 C713 C 1.10853 0.92605 1.02458
 C714 C 1.11835 0.93595 1.03998
 C715 C 1.13571 0.92944 1.04659
 H716 H 1.14238 0.91763 1.03977
 O717 O 0.98186 0.93308 1.09359
 O718 O 0.98181 0.91130 1.11552
 C719 C 0.97543 0.92654 1.10885
 C720 C 0.96004 0.93648 1.11861
 C721 C 0.95340 0.93005 1.13599
 H722 H 0.96023 0.91829 1.14272
 O723 O 1.01866 1.06805 1.09302
 O724 O 1.01874 1.08999 1.11480
 C725 C 1.02509 1.07470 1.10824
 C726 C 1.04045 1.06480 1.11810
 C727 C 1.04699 1.07128 1.13549
 H728 H 1.04011 1.08305 1.14217
 O729 O 0.90676 0.98236 1.06784
 O730 O 0.88489 0.98245 1.08968
 C731 C 0.89151 0.97599 1.07446
 C732 C 0.88171 0.96056 1.06460
 C733 C 0.86434 0.95397 1.07108
 H734 H 0.85764 0.96079 1.08288
 O735 O 1.09353 1.01844 1.06759
 O736 O 1.11550 1.01853 1.08932
 C737 C 1.10882 1.02484 1.07407
 C738 C 1.11863 1.04013 1.06401
 C739 C 1.13599 1.04678 1.07043
 H740 H 1.14267 1.04009 1.08231
 O741 O 0.93236 0.90710 1.01868
 O742 O 0.91056 0.88519 1.01883
 C743 C 0.92581 0.89186 1.02516
 C744 C 0.93581 0.88210 1.04051
 C745 C 0.92947 0.86469 1.04716
 H746 H 0.91737 0.85814 1.04075
 O747 O 1.06800 1.09308 1.01775
 O748 O 1.08984 1.11495 1.01763
 C749 C 1.07460 1.10836 1.02408
 C750 C 1.06470 1.11828 1.03940
 C751 C 1.07112 1.13574 1.04581
 H752 H 1.08290 1.14239 1.03891
 Cu753 Cu 1.07853 1.00026 1.07841
 Cu754 Cu 1.10485 1.00033 1.10455
 Cu755 Cu 0.92180 1.00065 1.07841
 Cu756 Cu 0.89561 1.00080 1.10469
 Cu757 Cu 1.00038 1.07866 1.07795
 Cu758 Cu 1.00047 1.10504 1.10405
 Cu759 Cu 1.00015 0.92236 1.07863
 Cu760 Cu 1.00011 0.89616 1.10490
 C761 C 1.04927 1.04933 1.10971
 H762 H 1.04444 1.04441 1.09618
 C763 C 1.06235 1.06270 1.14436
 C764 C 0.95126 0.95192 1.11013
 H765 H 0.95616 0.95681 1.09662
 C766 C 0.93797 0.93864 1.14473
 C767 C 1.04927 1.10990 1.04830
 H768 H 1.04441 1.09631 1.04359
 C769 C 1.06247 1.14472 1.06106
 C770 C 0.95123 0.89067 1.04926
 H771 H 0.95603 0.90423 1.04440
 C772 C 0.93825 0.85594 1.06247
 C773 C 1.11021 1.04879 1.04847
 H774 H 1.09669 1.04390 1.04361
 C775 C 1.14482 1.06206 1.06168
 C776 C 0.89015 0.95171 1.04916
 H777 H 0.90368 0.95655 1.04425
 C778 C 0.85553 0.93859 1.06248
 C779 C 0.95143 1.04953 1.10973
 H780 H 0.95619 1.04464 1.09617
 C781 C 0.93855 1.06279 1.14450
 C782 C 1.04907 0.95171 1.11025
 H783 H 1.04421 0.95658 1.09672
 C784 C 1.06223 0.93843 1.14490
 C785 C 1.10993 0.95140 1.04882
 H786 H 1.09642 0.95632 1.04397
 C787 C 1.14453 0.93804 1.06196
 C788 C 0.89021 1.04945 1.04879
 H789 H 0.90374 1.04458 1.04391
 C790 C 0.85558 1.06266 1.06202
 C791 C 0.95146 1.11025 1.04844
 H792 H 0.95627 1.09669 1.04358
 C793 C 0.93840 1.14496 1.06166
 C794 C 1.04886 0.89065 1.04908
 H795 H 1.04400 0.90418 1.04420
 C796 C 1.06205 0.85599 1.06228
 O797 O 1.06753 0.98140 0.90610
 O798 O 1.08928 0.98126 0.88414
 C799 C 1.07405 0.97490 0.89086
 C800 C 1.06406 0.95949 0.88117
 C801 C 1.07040 0.95273 0.86378
 H802 H 1.08250 0.95911 0.85720
 O803 O 0.93210 1.01832 0.90660
 O804 O 0.91026 1.01829 0.88474
 C805 C 0.92549 1.02471 0.89135
 C806 C 0.93542 1.04008 0.88152
 C807 C 0.92888 1.04681 0.86420
 H808 H 0.91666 1.04048 0.85781
 O809 O 0.98185 1.09320 0.93203
 O810 O 0.98186 1.11507 0.91019
 C811 C 0.97547 1.10847 0.92545
 C812 C 0.96014 1.11834 0.93538
 C813 C 0.95359 1.13573 0.92890
 H814 H 0.96040 1.14238 0.91707
 O815 O 1.01808 0.90656 0.93234
 O816 O 1.01800 0.88453 0.91065
 C817 C 1.02445 0.89126 0.92583
 C818 C 1.03983 0.88152 0.93582
 C819 C 1.04649 0.86409 0.92949
 H820 H 1.04006 0.85750 0.91741
 O821 O 1.09328 0.93245 0.98154
 O822 O 1.11513 0.91059 0.98157
 C823 C 1.10849 0.92580 0.97511
 C824 C 1.11826 0.93564 0.95963
 C825 C 1.13561 0.92915 0.95296
 H826 H 1.14208 0.91703 0.95942
 O827 O 0.90665 1.06802 0.98154
 O828 O 0.88481 1.08988 0.98147
 C829 C 0.89141 1.07461 0.97512
 C830 C 0.88158 1.06460 0.95980
 C831 C 0.86420 1.07100 0.95313
 H832 H 0.85776 1.08320 0.95947
 O833 O 1.01824 1.06736 0.90622
 O834 O 1.01823 1.08915 0.88430
 C835 C 1.02460 1.07389 0.89093
 C836 C 1.03990 1.06392 0.88106
 C837 C 1.04640 1.07031 0.86362
 H838 H 1.03951 1.08205 0.85691
 O839 O 0.98151 0.93218 0.90669
 O840 O 0.98135 0.91029 0.88487
 C841 C 0.97503 0.92557 0.89148
 C842 C 0.95967 0.93555 0.88170
 C843 C 0.95299 0.92915 0.86432
 H844 H 0.95938 0.91702 0.85780
 O845 O 1.09328 1.01802 0.93159
 O846 O 1.11515 1.01794 0.90975
 C847 C 1.10853 1.02438 0.92499
 C848 C 1.11838 1.03974 0.93492
 C849 C 1.13571 1.04644 0.92839
 H850 H 1.14214 1.04006 0.91620
 O851 O 0.90653 0.98181 0.93243
 O852 O 0.88458 0.98171 0.91068
 C853 C 0.89126 0.97537 0.92592
 C854 C 0.88149 0.96004 0.93596
 C855 C 0.86409 0.95336 0.92962
 H856 H 0.85755 0.95973 0.91748
 O857 O 1.06792 1.09296 0.98119
 O858 O 1.08975 1.11483 0.98107
 C859 C 1.07449 1.10819 0.97474
 C860 C 1.06453 1.11799 0.95938
 C861 C 1.07092 1.13541 0.95284
 H862 H 1.08266 1.14214 0.95972
 O863 O 0.93230 0.90698 0.98211
 O864 O 0.91049 0.88509 0.98223
 C865 C 0.92571 0.89171 0.97577
 C866 C 0.93559 0.88183 0.96040
 C867 C 0.92913 0.86441 0.95392
 H868 H 0.91735 0.85774 0.96079
 O869 O 0.93223 0.98173 0.90679
 O870 O 0.91038 0.98166 0.88493
 C871 C 0.92562 0.97528 0.89156
 C872 C 0.93552 0.95986 0.88177
 C873 C 0.92907 0.95328 0.86439
 H874 H 0.91729 0.96011 0.85768
 O875 O 1.06757 1.01798 0.90599
 O876 O 1.08931 1.01790 0.88403
 C877 C 1.07411 1.02435 0.89071
 C878 C 1.06415 1.03973 0.88093
 C879 C 1.07054 1.04640 0.86353
 H880 H 1.08267 1.04000 0.85702
 O881 O 0.98152 0.90663 0.93246
 O882 O 0.98139 0.88461 0.91077
 C883 C 0.97506 0.89135 0.92600
 C884 C 0.95972 0.88163 0.93607
 C885 C 0.95303 0.86421 0.92977
 H886 H 0.95941 0.85763 0.91766
 O887 O 1.01844 1.09310 0.93184
 O888 O 1.01846 1.11498 0.91002
 C889 C 1.02489 1.10832 0.92523
 C890 C 1.04032 1.11807 0.93514
 C891 C 1.04699 1.13546 0.92873
 H892 H 1.04058 1.14196 0.91660
 O893 O 0.90667 0.93267 0.98208
 O894 O 0.88476 0.91087 0.98219
 C895 C 0.89141 0.92607 0.97572
 C896 C 0.88159 0.93594 0.96032
 C897 C 0.86419 0.92948 0.95378
 H898 H 0.85749 0.91771 0.96065
 O899 O 1.09354 1.06725 0.98117
 O900 O 1.11546 1.08904 0.98104
 C901 C 1.10877 1.07381 0.97469
 C902 C 1.11847 1.06389 0.95923
 C903 C 1.13580 1.07037 0.95252
 H904 H 1.14254 1.08217 0.95929
 O905 O 1.01807 0.93211 0.90657
 O906 O 1.01797 0.91019 0.88477
 C907 C 1.02442 0.92545 0.89132
 C908 C 1.03979 0.93530 0.88143
 C909 C 1.04632 0.92876 0.86404
 H910 H 1.03948 0.91694 0.85742
 O911 O 0.98167 1.06749 0.90639
 O912 O 0.98165 1.08927 0.88446
 C913 C 0.97523 1.07406 0.89115
 C914 C 0.95976 1.06418 0.88143
 C915 C 0.95310 1.07065 0.86408
 H916 H 0.95995 1.08239 0.85733
 O917 O 0.90659 1.01838 0.93242
 O918 O 0.88464 1.01831 0.91066
 C919 C 0.89132 1.02475 0.92587
 C920 C 0.88154 1.04017 0.93576
 C921 C 0.86412 1.04670 0.92937
 H922 H 0.85736 1.03977 0.91768
 O923 O 1.09314 0.98149 0.93180
 O924 O 1.11502 0.98135 0.90996
 C925 C 1.10838 0.97504 0.92525
 C926 C 1.11819 0.95973 0.93527
 C927 C 1.13558 0.95312 0.92888
 H928 H 1.14230 0.95991 0.91708
 O929 O 1.06749 0.90690 0.98171
 O930 O 1.08925 0.88495 0.98175
 C931 C 1.07402 0.89160 0.97536
 C932 C 1.06406 0.88172 0.96004
 C933 C 1.07048 0.86429 0.95354
 H934 H 1.08228 0.85762 0.96038
 O935 O 0.93240 1.09358 0.98145
 O936 O 0.91069 1.11557 0.98139
 C937 C 0.92590 1.10884 0.97500
 C938 C 0.93589 1.11855 0.95960
 C939 C 0.92953 1.13594 0.95289
 H940 H 0.91743 1.14251 0.95929
 Cu941 Cu 1.07819 0.99974 0.92105
 Cu942 Cu 1.10438 0.99959 0.89477
 Cu943 Cu 0.92155 1.00007 0.92173
 Cu944 Cu 0.89527 0.99998 0.89556
 Cu945 Cu 1.07861 1.07798 0.99950
 Cu946 Cu 1.10487 1.10419 0.99934
 Cu947 Cu 1.07824 0.92196 0.99992
 Cu948 Cu 1.10440 0.89566 0.99997
 Cu949 Cu 0.92172 1.07865 0.99978
 Cu950 Cu 0.89558 1.10497 0.99974
 Cu951 Cu 0.92169 0.92206 1.00038
 Cu952 Cu 0.89545 0.89583 1.00052
 Cu953 Cu 1.00005 1.07811 0.92131
 Cu954 Cu 1.00005 1.10431 0.89505
 Cu955 Cu 0.99980 0.92156 0.92169
 Cu956 Cu 0.99966 0.89520 0.89558
 C957 C 1.04863 0.95078 0.88978
 H958 H 1.04384 0.95573 0.90331
 C959 C 1.06163 0.93736 0.85512
 C960 C 0.95096 1.04877 0.88993
 H961 H 0.95588 1.04386 0.90343
 C962 C 0.93762 1.06211 0.85537
 C963 C 0.95131 1.10996 0.95086
 H964 H 0.95611 1.09643 0.95577
 C965 C 0.93828 1.14462 0.93752
 C966 C 1.04862 0.89012 0.95120
 H967 H 1.04376 0.90369 0.95598
 C968 C 1.06183 0.85539 0.93825
 C969 C 1.10974 0.95102 0.95078
 H970 H 1.09622 0.95590 0.95564
 C971 C 1.14439 0.93779 0.93758
 C972 C 0.89005 1.04909 0.95111
 H973 H 0.90360 1.04426 0.95597
 C974 C 0.85535 1.06215 0.93790
 C975 C 1.04874 1.04849 0.88949
 H976 H 1.04394 1.04364 0.90306
 C977 C 1.06175 1.06170 0.85476
 C978 C 0.95094 0.95102 0.89022
 H979 H 0.95583 0.95586 0.90376
 C980 C 0.93768 0.93791 0.85556
 C981 C 1.10997 1.04846 0.95045
 H982 H 1.09648 1.04356 0.95539
 C983 C 1.14451 1.06177 0.93708
 C984 C 0.89003 0.95134 0.95143
 H985 H 0.90358 0.95623 0.95622
 C986 C 0.85535 0.93806 0.93842
 C987 C 1.04910 1.10954 0.95056
 H988 H 1.04424 1.09599 0.95539
 C989 C 1.06230 1.14425 0.93749
 C990 C 0.95101 0.89024 0.95150
 H991 H 0.95590 0.90380 0.95625
 C992 C 0.93772 0.85551 0.93859
 O993 O 0.98159 0.43198 0.40689
 O994 O 0.98146 0.41002 0.38513
 C995 C 0.97515 0.42534 0.39168
 C996 C 0.95984 0.43529 0.38180
 C997 C 0.95324 0.42879 0.36444
 H998 H 0.95997 0.41690 0.35782
 O999 O 1.01874 0.56738 0.40608
 O1000 O 1.01883 0.58913 0.38412
 C1001 C 1.02516 0.57388 0.39079
 C1002 C 1.04043 0.56381 0.38097
 C1003 C 1.04709 0.57016 0.36355
 H1004 H 1.04076 0.58235 0.35710
 O1005 O 0.90678 0.48192 0.43208
 O1006 O 0.88492 0.48189 0.41024
 C1007 C 0.89151 0.47555 0.42553
 C1008 C 0.88160 0.46030 0.43554
 C1009 C 0.86418 0.45377 0.42911
 H1010 H 0.85755 0.46054 0.41724
 O1011 O 1.09338 0.51773 0.43172
 O1012 O 1.11529 0.51758 0.40991
 C1013 C 1.10866 0.52407 0.42512
 C1014 C 1.11850 0.53944 0.43504
 C1015 C 1.13582 0.54614 0.42849
 H1016 H 1.14225 0.53976 0.41630
 O1017 O 0.93189 0.40717 0.48196
 O1018 O 0.91000 0.38535 0.48203
 C1019 C 0.92528 0.39190 0.47563
 C1020 C 0.93522 0.38195 0.46035
 C1021 C 0.92874 0.36453 0.45387
 H1022 H 0.91688 0.35793 0.46066
 O1023 O 1.06812 0.59288 0.48120
 O1024 O 1.09004 0.61466 0.48112
 C1025 C 1.07477 0.60809 0.47475
 C1026 C 1.06490 0.61792 0.45935
 C1027 C 1.07139 0.63529 0.45278
 H1028 H 1.08315 0.64198 0.45966
 O1029 O 0.93262 0.51824 0.40624
 O1030 O 0.91085 0.51825 0.38430
 C1031 C 0.92610 0.52462 0.39095
 C1032 C 0.93611 0.53993 0.38112
 C1033 C 0.92968 0.54660 0.36374
 H1034 H 0.91754 0.54021 0.35725
 O1035 O 1.06763 0.48109 0.40627
 O1036 O 1.08941 0.48085 0.38435
 C1037 C 1.07416 0.47455 0.39106
 C1038 C 1.06414 0.45915 0.38138
 C1039 C 1.07041 0.45243 0.36396
 H1040 H 1.08249 0.45882 0.35734
 O1041 O 1.01808 0.40630 0.43262
 O1042 O 1.01802 0.38424 0.41096
 C1043 C 1.02447 0.39099 0.42613
 C1044 C 1.03988 0.38128 0.43608
 C1045 C 1.04663 0.36392 0.42968
 H1046 H 1.04023 0.35734 0.41759
 O1047 O 0.98229 0.59320 0.43176
 O1048 O 0.98236 0.61506 0.40991
 C1049 C 0.97593 0.60846 0.42516
 C1050 C 0.96056 0.61832 0.43505
 C1051 C 0.95401 0.63570 0.42855
 H1052 H 0.96083 0.64235 0.41673
 O1053 O 0.90705 0.56793 0.48121
 O1054 O 0.88524 0.58981 0.48110
 C1055 C 0.89184 0.57453 0.47476
 C1056 C 0.88202 0.56459 0.45939
 C1057 C 0.86466 0.57104 0.45277
 H1058 H 0.85797 0.58287 0.45954
 O1059 O 1.09321 0.43237 0.48189
 O1060 O 1.11508 0.41053 0.48200
 C1061 C 1.10846 0.42575 0.47553
 C1062 C 1.11829 0.43557 0.46010
 C1063 C 1.13576 0.42918 0.45368
 H1064 H 1.14252 0.41754 0.46070
 O1065 O 0.98219 0.56746 0.40617
 O1066 O 0.98224 0.58922 0.38422
 C1067 C 0.97580 0.57401 0.39090
 C1068 C 0.96039 0.56411 0.38113
 C1069 C 0.95378 0.57055 0.36375
 H1070 H 0.96058 0.58234 0.35704
 O1071 O 1.01814 0.43183 0.40683
 O1072 O 1.01804 0.40988 0.38506
 C1073 C 1.02449 0.42514 0.39160
 C1074 C 1.03986 0.43497 0.38168
 C1075 C 1.04631 0.42848 0.36426
 H1076 H 1.03943 0.41668 0.35762
 O1077 O 1.09328 0.48120 0.43194
 O1078 O 1.11519 0.48097 0.41014
 C1079 C 1.10852 0.47472 0.42543
 C1080 C 1.11831 0.45946 0.43555
 C1081 C 1.13574 0.45280 0.42926
 H1082 H 1.14223 0.45909 0.41706
 O1083 O 0.90692 0.51847 0.43187
 O1084 O 0.88504 0.51848 0.41004
 C1085 C 0.89170 0.52490 0.42527
 C1086 C 0.88194 0.54032 0.43518
 C1087 C 0.86457 0.54700 0.42874
 H1088 H 0.85806 0.54057 0.41663
 O1089 O 0.93277 0.59354 0.48110
 O1090 O 0.91106 0.61553 0.48099
 C1091 C 0.92627 0.60880 0.47463
 C1092 C 0.93628 0.61850 0.45924
 C1093 C 0.92991 0.63588 0.45251
 H1094 H 0.91780 0.64244 0.45889
 O1095 O 1.06750 0.40672 0.48194
 O1096 O 1.08929 0.38480 0.48203
 C1097 C 1.07407 0.39143 0.47560
 C1098 C 1.06416 0.38155 0.46026
 C1099 C 1.07067 0.36418 0.45369
 H1100 H 1.08253 0.35756 0.46047
 O1101 O 1.06772 0.51766 0.40607
 O1102 O 1.08951 0.51749 0.38414
 C1103 C 1.07430 0.52397 0.39077
 C1104 C 1.06443 0.53937 0.38094
 C1105 C 1.07082 0.54585 0.36349
 H1106 H 1.08250 0.53890 0.35673
 O1107 O 0.93245 0.48166 0.40643
 O1108 O 0.91071 0.48162 0.38448
 C1109 C 0.92589 0.47518 0.39120
 C1110 C 0.93577 0.45968 0.38153
 C1111 C 0.92936 0.45296 0.36416
 H1112 H 0.91731 0.45942 0.35758
 O1113 O 1.01886 0.59308 0.43171
 O1114 O 1.01897 0.61494 0.40987
 C1115 C 1.02535 0.60829 0.42511
 C1116 C 1.04076 0.61803 0.43505
 C1117 C 1.04752 0.63537 0.42861
 H1118 H 1.04116 0.64185 0.41644
 O1119 O 0.98149 0.40647 0.43270
 O1120 O 0.98138 0.38440 0.41105
 C1121 C 0.97501 0.39120 0.42623
 C1122 C 0.95956 0.38156 0.43623
 C1123 C 0.95286 0.36415 0.42993
 H1124 H 0.95931 0.35750 0.41790
 O1125 O 1.09363 0.56705 0.48125
 O1126 O 1.11563 0.58875 0.48116
 C1127 C 1.10889 0.57355 0.47479
 C1128 C 1.11859 0.56361 0.45934
 C1129 C 1.13591 0.57009 0.45261
 H1130 H 1.14265 0.58190 0.45936
 O1131 O 0.90627 0.43288 0.48181
 O1132 O 0.88427 0.41117 0.48187
 C1133 C 0.89100 0.42634 0.47540
 C1134 C 0.88130 0.43624 0.45994
 C1135 C 0.86389 0.42989 0.45327
 H1136 H 0.85729 0.41786 0.45976
 Cu1137 Cu 0.99984 0.42133 0.42194
 Cu1138 Cu 0.99971 0.39492 0.39587
 Cu1139 Cu 1.00052 0.57810 0.42112
 Cu1140 Cu 1.00061 0.60428 0.39483
 Cu1141 Cu 0.92188 0.50008 0.42133
 Cu1142 Cu 0.89569 0.50006 0.39506
 Cu1143 Cu 1.07831 0.49944 0.42118
 Cu1144 Cu 1.10454 0.49920 0.39493
 C1145 C 0.95112 0.45086 0.39014
 H1146 H 0.95597 0.45579 0.40366
 C1147 C 0.93799 0.43750 0.35552
 C1148 C 1.04911 0.54831 0.38946
 H1149 H 1.04425 0.54354 0.40303
 C1150 C 1.06228 0.56128 0.35469
 C1151 C 0.88994 0.45156 0.45107
 H1152 H 0.90350 0.45635 0.45594
 C1153 C 0.85524 0.43855 0.43784
 C1154 C 1.11010 0.54817 0.45057
 H1155 H 1.09661 0.54327 0.45552
 C1156 C 1.14461 0.56149 0.43717
 C1157 C 0.95076 0.39025 0.45156
 H1158 H 0.95567 0.40381 0.45631
 C1159 C 0.93744 0.35554 0.43865
 C1160 C 1.04946 0.60950 0.45052
 H1161 H 1.04453 0.59599 0.45537
 C1162 C 1.06283 0.64412 0.43738
 C1163 C 0.95158 0.54868 0.38961
 H1164 H 0.95643 0.54380 0.40314
 C1165 C 0.93841 0.56192 0.35496
 C1166 C 1.04875 0.45043 0.39003
 H1167 H 1.04400 0.45535 0.40359
 C1168 C 1.06159 0.43709 0.35530
 C1169 C 1.04864 0.38989 0.45148
 H1170 H 1.04371 0.40341 0.45632
 C1171 C 1.06205 0.35527 0.43838
 C1172 C 0.95171 0.60993 0.45051
 H1173 H 0.95652 0.59640 0.45544
 C1174 C 0.93867 0.64458 0.43716
 C1175 C 0.89045 0.54911 0.45062
 H1176 H 0.90397 0.54422 0.45548
 C1177 C 0.85583 0.56237 0.43744
 C1178 C 1.10979 0.45085 0.45107
 H1179 H 1.09621 0.45570 0.45581
 C1180 C 1.14459 0.43766 0.43824
 O1181 O 1.01807 0.43268 0.59346
 O1182 O 1.01797 0.41090 0.61539
 C1183 C 1.02443 0.42611 0.60874
 C1184 C 1.03980 0.43601 0.61857
 C1185 C 1.04633 0.42956 0.63598
 H1186 H 1.03949 0.41777 0.64265
 O1187 O 0.98209 0.56830 0.59291
 O1188 O 0.98212 0.59024 0.61469
 C1189 C 0.97570 0.57497 0.60813
 C1190 C 0.96034 0.56510 0.61801
 C1191 C 0.95382 0.57158 0.63541
 H1192 H 0.96066 0.58339 0.64207
 O1193 O 0.90701 0.51905 0.56754
 O1194 O 0.88512 0.51929 0.58936
 C1195 C 0.89180 0.52557 0.57409
 C1196 C 0.88206 0.54093 0.56408
 C1197 C 0.86471 0.54763 0.57051
 H1198 H 0.85802 0.54093 0.58238
 O1199 O 1.09322 0.48178 0.56805
 O1200 O 1.11512 0.48176 0.58986
 C1201 C 1.10846 0.47534 0.57463
 C1202 C 1.11821 0.45993 0.56469
 C1203 C 1.13553 0.45318 0.57117
 H1204 H 1.14202 0.45955 0.58333
 O1205 O 1.06742 0.40687 0.51852
 O1206 O 1.08919 0.38494 0.51861
 C1207 C 1.07396 0.39163 0.52497
 C1208 C 1.06401 0.38187 0.54036
 C1209 C 1.07047 0.36452 0.54703
 H1210 H 1.08230 0.35782 0.54027
 O1211 O 0.93282 0.59366 0.51768
 O1212 O 0.91109 0.61563 0.51760
 C1213 C 0.92630 0.60897 0.52402
 C1214 C 0.93625 0.61881 0.53937
 C1215 C 0.92981 0.63620 0.54593
 H1216 H 0.91800 0.64289 0.53913
 O1217 O 0.93237 0.48239 0.59338
 O1218 O 0.91056 0.48258 0.61529
 C1219 C 0.92574 0.47605 0.60864
 C1220 C 0.93557 0.46061 0.61845
 C1221 C 0.92901 0.45391 0.63578
 H1222 H 0.91685 0.46034 0.64220
 O1223 O 1.06771 0.51854 0.59356
 O1224 O 1.08948 0.51859 0.61549
 C1225 C 1.07429 0.52502 0.60878
 C1226 C 1.06439 0.54051 0.61845
 C1227 C 1.07075 0.54723 0.63584
 H1228 H 1.08278 0.54075 0.64246
 O1229 O 0.98140 0.40709 0.56783
 O1230 O 0.98129 0.38521 0.58966
 C1231 C 0.97491 0.39188 0.57443
 C1232 C 0.95945 0.38217 0.56453
 C1233 C 0.95266 0.36487 0.57103
 H1234 H 0.95907 0.35835 0.58315
 O1235 O 1.01876 0.59372 0.56716
 O1236 O 1.01884 0.61578 0.58882
 C1237 C 1.02523 0.60899 0.57364
 C1238 C 1.04065 0.61863 0.56362
 C1239 C 1.04738 0.63605 0.56990
 H1240 H 1.04097 0.64270 0.58195
 O1241 O 0.90625 0.43304 0.51841
 O1242 O 0.88425 0.41134 0.51852
 C1243 C 0.89097 0.42656 0.52486
 C1244 C 0.88125 0.43661 0.54022
 C1245 C 0.86382 0.43034 0.54691
 H1246 H 0.85726 0.41823 0.54053
 O1247 O 1.09362 0.56718 0.51788
 O1248 O 1.11563 0.58887 0.51780
 C1249 C 1.10889 0.57371 0.52428
 C1250 C 1.11860 0.56387 0.53977
 C1251 C 1.13600 0.57030 0.54636
 H1252 H 1.14277 0.58200 0.53946
 O1253 O 1.01864 0.56820 0.59297
 O1254 O 1.01870 0.59015 0.61474
 C1255 C 1.02504 0.57484 0.60820
 C1256 C 1.04032 0.56489 0.61812
 C1257 C 1.04685 0.57138 0.63551
 H1258 H 1.04009 0.58325 0.64212
 O1259 O 0.98152 0.43281 0.59344
 O1260 O 0.98139 0.41104 0.61538
 C1261 C 0.97507 0.42630 0.60870
 C1262 C 0.95972 0.43631 0.61847
 C1263 C 0.95304 0.42989 0.63584
 H1264 H 0.95981 0.41810 0.64257
 O1265 O 1.09333 0.51830 0.56786
 O1266 O 1.11523 0.51837 0.58966
 C1267 C 1.10861 0.52469 0.57438
 C1268 C 1.11848 0.53992 0.56429
 C1269 C 1.13588 0.54658 0.57068
 H1270 H 1.14232 0.54027 0.58289
 O1271 O 0.90672 0.48251 0.56770
 O1272 O 0.88481 0.48272 0.58951
 C1273 C 0.89141 0.47624 0.57428
 C1274 C 0.88148 0.46093 0.56437
 C1275 C 0.86401 0.45453 0.57078
 H1276 H 0.85733 0.46148 0.58251
 O1277 O 1.06812 0.59302 0.51777
 O1278 O 1.09005 0.61479 0.51769
 C1279 C 1.07478 0.60827 0.52410
 C1280 C 1.06489 0.61824 0.53941
 C1281 C 1.07140 0.63566 0.54586
 H1282 H 1.08323 0.64225 0.53900
 O1283 O 0.93186 0.40734 0.51852
 O1284 O 0.90997 0.38553 0.51862
 C1285 C 0.92523 0.39214 0.52499
 C1286 C 0.93513 0.38234 0.54038
 C1287 C 0.92858 0.36504 0.54708
 H1288 H 0.91669 0.35840 0.54036
 O1289 O 1.06755 0.48196 0.59369
 O1290 O 1.08932 0.48193 0.61562
 C1291 C 1.07408 0.47556 0.60896
 C1292 C 1.06407 0.46020 0.61873
 C1293 C 1.07043 0.45352 0.63614
 H1294 H 1.08253 0.45991 0.64269
 O1295 O 0.93260 0.51899 0.59328
 O1296 O 0.91082 0.51921 0.61521
 C1297 C 0.92607 0.52551 0.60852
 C1298 C 0.93609 0.54089 0.61823
 C1299 C 0.92976 0.54759 0.63564
 H1300 H 0.91768 0.54119 0.64222
 O1301 O 0.98218 0.59385 0.56714
 O1302 O 0.98222 0.61590 0.58880
 C1303 C 0.97581 0.60917 0.57361
 C1304 C 0.96046 0.61894 0.56360
 C1305 C 0.95380 0.63633 0.56999
 H1306 H 0.96020 0.64287 0.58210
 O1307 O 1.01800 0.40690 0.56788
 O1308 O 1.01792 0.38503 0.58971
 C1309 C 1.02436 0.39164 0.57448
 C1310 C 1.03975 0.38182 0.56457
 C1311 C 1.04644 0.36447 0.57105
 H1312 H 1.04002 0.35798 0.58318
 O1313 O 1.09315 0.43248 0.51851
 O1314 O 1.11500 0.41062 0.51860
 C1315 C 1.10837 0.42587 0.52497
 C1316 C 1.11814 0.43576 0.54039
 C1317 C 1.13547 0.42924 0.54705
 H1318 H 1.14215 0.41742 0.54026
 O1319 O 0.90701 0.56816 0.51780
 O1320 O 0.88517 0.59003 0.51773
 C1321 C 0.89179 0.57481 0.52421
 C1322 C 0.88200 0.56499 0.53967
 C1323 C 0.86465 0.57151 0.54634
 H1324 H 0.85815 0.58359 0.53985
 Cu1325 Cu 0.99976 0.42204 0.57846
 Cu1326 Cu 0.99963 0.39585 0.60473
 Cu1327 Cu 1.00041 0.57883 0.57786
 Cu1328 Cu 1.00047 0.60523 0.60394
 Cu1329 Cu 0.92125 0.42230 0.50017
 Cu1330 Cu 0.89492 0.39616 0.50027
 Cu1331 Cu 1.07814 0.42181 0.50020
 Cu1332 Cu 1.10433 0.39553 0.50032
 Cu1333 Cu 0.92208 0.57862 0.49945
 Cu1334 Cu 0.89595 0.60495 0.49934
 Cu1335 Cu 1.07868 0.57785 0.49953
 Cu1336 Cu 1.10506 0.60394 0.49944
 Cu1337 Cu 0.92187 0.50071 0.57830
 Cu1338 Cu 0.89564 0.50098 0.60454
 Cu1339 Cu 1.07826 0.50014 0.57862
 Cu1340 Cu 1.10448 0.50017 0.60486
 C1341 C 1.04865 0.45146 0.61016
 H1342 H 1.04385 0.45634 0.59662
 C1343 C 1.06166 0.43818 0.64485
 C1344 C 0.95150 0.54963 0.60963
 H1345 H 0.95628 0.54472 0.59608
 C1346 C 0.93853 0.56294 0.64433
 C1347 C 0.89049 0.54959 0.54854
 H1348 H 0.90400 0.54467 0.54366
 C1349 C 0.85592 0.56293 0.56178
 C1350 C 1.10972 0.45123 0.54919
 H1351 H 1.09623 0.45617 0.54430
 C1352 C 1.14425 0.43782 0.56245
 C1353 C 1.04852 0.39031 0.54911
 H1354 H 1.04363 0.40382 0.54421
 C1355 C 1.06183 0.35573 0.56239
 C1356 C 0.95170 0.61038 0.54818
 H1357 H 0.95658 0.59683 0.54336
 C1358 C 0.93845 0.64506 0.56126
 C1359 C 0.95102 0.45179 0.61000
 H1360 H 0.95595 0.45667 0.59649
 C1361 C 0.93765 0.43854 0.64458
 C1362 C 1.04907 0.54934 0.60980
 H1363 H 1.04426 0.54443 0.59626
 C1364 C 1.06208 0.56267 0.64447
 C1365 C 0.95069 0.39070 0.54909
 H1366 H 0.95565 0.40418 0.54418
 C1367 C 0.93722 0.35621 0.56241
 C1368 C 1.04940 0.60994 0.54827
 H1369 H 1.04448 0.59638 0.54353
 C1370 C 1.06277 0.64466 0.56111
 C1371 C 0.88988 0.45201 0.54896
 H1372 H 0.90346 0.45672 0.54409
 C1373 C 0.85508 0.43921 0.56219
 C1374 C 1.11006 0.54855 0.54872
 H1375 H 1.09652 0.54369 0.54388
 C1376 C 1.14472 0.56179 0.56183
 O1377 O 0.48173 0.93205 0.40675
 O1378 O 0.48167 0.91012 0.38496
 C1379 C 0.47532 0.92541 0.39153
 C1380 C 0.45998 0.93534 0.38167
 C1381 C 0.45345 0.92890 0.36426
 H1382 H 0.46026 0.91708 0.35759
 O1383 O 0.51829 1.06756 0.40612
 O1384 O 0.51832 1.08927 0.38413
 C1385 C 0.52469 1.07405 0.39083
 C1386 C 0.54000 1.06401 0.38103
 C1387 C 0.54662 1.07035 0.36360
 H1388 H 0.54022 1.08246 0.35707
 O1389 O 0.40680 0.98162 0.43218
 O1390 O 0.38490 0.98149 0.41038
 C1391 C 0.39155 0.97517 0.42565
 C1392 C 0.38175 0.95986 0.43569
 C1393 C 0.36441 0.95312 0.42926
 H1394 H 0.35793 0.95944 0.41707
 O1395 O 0.59327 1.01809 0.43180
 O1396 O 0.61515 1.01800 0.40997
 C1397 C 0.60853 1.02445 0.42519
 C1398 C 0.61837 1.03983 0.43509
 C1399 C 0.63574 1.04646 0.42860
 H1400 H 0.64220 1.04001 0.41647
 O1401 O 0.43240 0.90689 0.48205
 O1402 O 0.41057 0.88501 0.48219
 C1403 C 0.42580 0.89161 0.47573
 C1404 C 0.43568 0.88171 0.46037
 C1405 C 0.42921 0.86428 0.45389
 H1406 H 0.41746 0.85762 0.46081
 O1407 O 0.56780 1.09326 0.48104
 O1408 O 0.58965 1.11512 0.48091
 C1409 C 0.57440 1.10847 0.47456
 C1410 C 0.56449 1.11824 0.45915
 C1411 C 0.57097 1.13560 0.45252
 H1412 H 0.58279 1.14229 0.45930
 O1413 O 0.43248 1.01809 0.40638
 O1414 O 0.41068 1.01801 0.38448
 C1415 C 0.42591 1.02444 0.39110
 C1416 C 0.43583 1.03980 0.38125
 C1417 C 0.42942 1.04629 0.36381
 H1418 H 0.41770 1.03938 0.35709
 O1419 O 0.56749 0.98143 0.40637
 O1420 O 0.58926 0.98131 0.38443
 C1421 C 0.57404 0.97495 0.39114
 C1422 C 0.56411 0.95951 0.38143
 C1423 C 0.57049 0.95289 0.36403
 H1424 H 0.58219 0.95978 0.35723
 O1425 O 0.51822 0.90644 0.43252
 O1426 O 0.51822 0.88439 0.41085
 C1427 C 0.52463 0.89114 0.42604
 C1428 C 0.54002 0.88144 0.43604
 C1429 C 0.54675 0.86406 0.42967
 H1430 H 0.54035 0.85748 0.41758
 O1431 O 0.48181 1.09334 0.43180
 O1432 O 0.48179 1.11516 0.40991
 C1433 C 0.47540 1.10856 0.42517
 C1434 C 0.46000 1.11839 0.43506
 C1435 C 0.45341 1.13575 0.42856
 H1436 H 0.46023 1.14243 0.41675
 O1437 O 0.40663 1.06785 0.48121
 O1438 O 0.38472 1.08964 0.48110
 C1439 C 0.39138 1.07438 0.47476
 C1440 C 0.38161 1.06434 0.45943
 C1441 C 0.36420 1.07067 0.45275
 H1442 H 0.35770 1.08283 0.45910
 O1443 O 0.59326 0.93258 0.48174
 O1444 O 0.61517 0.91079 0.48182
 C1445 C 0.60851 0.92597 0.47534
 C1446 C 0.61828 0.93579 0.45988
 C1447 C 0.63566 0.92932 0.45331
 H1448 H 0.64239 0.91757 0.46019
 O1449 O 0.48174 1.06763 0.40618
 O1450 O 0.48172 1.08934 0.38419
 C1451 C 0.47532 1.07414 0.39091
 C1452 C 0.45995 1.06413 0.38116
 C1453 C 0.45327 1.07049 0.36377
 H1454 H 0.45964 1.08265 0.35727
 O1455 O 0.51827 0.93189 0.40666
 O1456 O 0.51827 0.90996 0.38487
 C1457 C 0.52467 0.92523 0.39144
 C1458 C 0.54002 0.93515 0.38157
 C1459 C 0.54668 0.92866 0.36420
 H1460 H 0.54031 0.91645 0.35780
 O1461 O 0.59324 0.98155 0.43195
 O1462 O 0.61512 0.98141 0.41012
 C1463 C 0.60849 0.97510 0.42540
 C1464 C 0.61830 0.95981 0.43545
 C1465 C 0.63568 0.95312 0.42906
 H1466 H 0.64217 0.95945 0.41689
 O1467 O 0.40679 1.01819 0.43204
 O1468 O 0.38489 1.01809 0.41025
 C1469 C 0.39153 1.02455 0.42546
 C1470 C 0.38170 1.03995 0.43535
 C1471 C 0.36425 1.04641 0.42895
 H1472 H 0.35753 1.03945 0.41725
 O1473 O 0.43227 1.09353 0.48109
 O1474 O 0.41048 1.11544 0.48098
 C1475 C 0.42572 1.10876 0.47461
 C1476 C 0.43570 1.11850 0.45922
 C1477 C 0.42930 1.13587 0.45250
 H1478 H 0.41716 1.14239 0.45888
 O1479 O 0.56759 0.90690 0.48190
 O1480 O 0.58942 0.88503 0.48198
 C1481 C 0.57418 0.89162 0.47556
 C1482 C 0.56426 0.88171 0.46024
 C1483 C 0.57077 0.86433 0.45370
 H1484 H 0.58262 0.85771 0.46049
 O1485 O 0.56753 1.01801 0.40622
 O1486 O 0.58930 1.01793 0.38427
 C1487 C 0.57409 1.02436 0.39093
 C1488 C 0.56416 1.03972 0.38110
 C1489 C 0.57057 1.04625 0.36367
 H1490 H 0.58234 1.03941 0.35695
 O1491 O 0.43241 0.98150 0.40646
 O1492 O 0.41062 0.98139 0.38455
 C1493 C 0.42585 0.97502 0.39122
 C1494 C 0.43580 0.95961 0.38148
 C1495 C 0.42944 0.95294 0.36408
 H1496 H 0.41737 0.95937 0.35751
 O1497 O 0.51838 1.09335 0.43167
 O1498 O 0.51842 1.11518 0.40980
 C1499 C 0.52482 1.10857 0.42504
 C1500 C 0.54024 1.11834 0.43495
 C1501 C 0.54695 1.13570 0.42849
 H1502 H 0.54053 1.14221 0.41638
 O1503 O 0.48165 0.90647 0.43248
 O1504 O 0.48159 0.88442 0.41081
 C1505 C 0.47520 0.89119 0.42601
 C1506 C 0.45980 0.88150 0.43603
 C1507 C 0.45306 0.86411 0.42969
 H1508 H 0.45940 0.85758 0.41754
 O1509 O 0.59342 1.06755 0.48114
 O1510 O 0.61535 1.08932 0.48100
 C1511 C 0.60867 1.07407 0.47468
 C1512 C 0.61841 1.06408 0.45930
 C1513 C 0.63578 1.07050 0.45263
 H1514 H 0.64251 1.08231 0.45937
 O1515 O 0.40679 0.93261 0.48195
 O1516 O 0.38487 0.91083 0.48208
 C1517 C 0.39154 0.92601 0.47558
 C1518 C 0.38176 0.93583 0.46011
 C1519 C 0.36442 0.92930 0.45349
 H1520 H 0.35772 0.91752 0.46033
 Cu1521 Cu 0.49997 0.92140 0.42178
 Cu1522 Cu 0.49993 0.89501 0.39569
 Cu1523 Cu 0.50006 1.07830 0.42114
 Cu1524 Cu 0.50006 1.10443 0.39481
 Cu1525 Cu 0.42181 0.99986 0.42144
 Cu1526 Cu 0.39558 0.99974 0.39522
 Cu1527 Cu 0.57820 0.99978 0.42127
 Cu1528 Cu 0.60439 0.99965 0.39499
 C1529 C 0.45119 0.95082 0.39007
 H1530 H 0.45599 0.95570 0.40362
 C1531 C 0.43817 0.93757 0.35537
 C1532 C 0.54876 1.04858 0.38957
 H1533 H 0.54391 1.04380 0.40314
 C1534 C 0.56192 1.06157 0.35482
 C1535 C 0.39022 0.95123 0.45123
 H1536 H 0.40372 0.95616 0.45609
 C1537 C 0.35565 0.93783 0.43805
 C1538 C 0.60992 1.04863 0.45056
 H1539 H 0.59639 1.04378 0.45546
 C1540 C 0.64453 1.06181 0.43726
 C1541 C 0.45111 0.89010 0.45147
 H1542 H 0.45602 0.90364 0.45625
 C1543 C 0.43776 0.85539 0.43852
 C1544 C 0.54901 1.10982 0.45039
 H1545 H 0.54410 1.09631 0.45527
 C1546 C 0.56233 1.14442 0.43718
 C1547 C 0.45122 1.04869 0.38971
 H1548 H 0.45609 1.04390 0.40327
 C1549 C 0.43801 1.06167 0.35497
 C1550 C 0.54875 0.95067 0.38998
 H1551 H 0.54390 0.95556 0.40352
 C1552 C 0.56192 0.93743 0.35532
 C1553 C 0.54876 0.89006 0.45144
 H1554 H 0.54384 0.90359 0.45624
 C1555 C 0.56214 0.85541 0.43840
 C1556 C 0.45116 1.10997 0.45051
 H1557 H 0.45600 1.09645 0.45543
 C1558 C 0.43805 1.14458 0.43716
 C1559 C 0.39016 1.04888 0.45072
 H1560 H 0.40372 1.04411 0.45558
 C1561 C 0.35540 1.06180 0.43750
 C1562 C 0.60981 0.95116 0.45097
 H1563 H 0.59628 0.95606 0.45580
 C1564 C 0.64446 0.93785 0.43789
 O1565 O 0.51844 0.93289 0.59361
 O1566 O 0.51845 0.91118 0.61561
 C1567 C 0.52484 0.92639 0.60889
 C1568 C 0.54020 0.93640 0.61865
 C1569 C 0.54689 0.93005 0.63605
 H1570 H 0.54049 0.91794 0.64260
 O1571 O 0.48194 1.06850 0.59279
 O1572 O 0.48195 1.09043 0.61457
 C1573 C 0.47557 1.07514 0.60803
 C1574 C 0.46025 1.06522 0.61793
 C1575 C 0.45378 1.07167 0.63537
 H1576 H 0.46062 1.08348 0.64202
 O1577 O 0.40697 1.01898 0.56757
 O1578 O 0.38510 1.01912 0.58941
 C1579 C 0.39173 1.02542 0.57412
 C1580 C 0.38189 1.04073 0.56412
 C1581 C 0.36450 1.04732 0.57055
 H1582 H 0.35784 1.04057 0.58241
 O1583 O 0.59337 0.98227 0.56771
 O1584 O 0.61529 0.98234 0.58949
 C1585 C 0.60862 0.97588 0.57428
 C1586 C 0.61840 0.96048 0.56435
 C1587 C 0.63578 0.95381 0.57077
 H1588 H 0.64230 0.96025 0.58288
 O1589 O 0.56764 0.90708 0.51848
 O1590 O 0.58947 0.88520 0.51856
 C1591 C 0.57424 0.89186 0.52495
 C1592 C 0.56435 0.88211 0.54038
 C1593 C 0.57081 0.86475 0.54702
 H1594 H 0.58260 0.85803 0.54022
 O1595 O 0.43237 1.09367 0.51764
 O1596 O 0.41057 1.11557 0.51759
 C1597 C 0.42582 1.10895 0.52399
 C1598 C 0.43578 1.11884 0.53930
 C1599 C 0.42937 1.13627 0.54582
 H1600 H 0.41759 1.14295 0.53896
 O1601 O 0.43256 0.98247 0.59342
 O1602 O 0.41077 0.98257 0.61535
 C1603 C 0.42598 0.97612 0.60870
 C1604 C 0.43589 0.96073 0.61853
 C1605 C 0.42937 0.95405 0.63588
 H1606 H 0.41723 0.96047 0.64234
 O1607 O 0.56774 1.01897 0.59320
 O1608 O 0.58953 1.01910 0.61511
 C1609 C 0.57431 1.02548 0.60841
 C1610 C 0.56437 1.04094 0.61810
 C1611 C 0.57074 1.04765 0.63548
 H1612 H 0.58280 1.04121 0.64207
 O1613 O 0.48187 0.90714 0.56805
 O1614 O 0.48184 0.88530 0.58992
 C1615 C 0.47545 0.89191 0.57466
 C1616 C 0.46007 0.88210 0.56473
 C1617 C 0.45342 0.86471 0.57116
 H1618 H 0.45986 0.85820 0.58327
 O1619 O 0.51845 1.09407 0.56697
 O1620 O 0.51850 1.11612 0.58864
 C1621 C 0.52488 1.10936 0.57344
 C1622 C 0.54028 1.11905 0.56343
 C1623 C 0.54698 1.13648 0.56971
 H1624 H 0.54056 1.14311 0.58177
 O1625 O 0.40677 0.93274 0.51856
 O1626 O 0.38484 0.91097 0.51871
 C1627 C 0.39152 0.92622 0.52503
 C1628 C 0.38176 0.93627 0.54037
 C1629 C 0.36435 0.92994 0.54706
 H1630 H 0.35784 0.91778 0.54072
 O1631 O 0.59347 1.06776 0.51774
 O1632 O 0.61541 1.08952 0.51760
 C1633 C 0.60874 1.07434 0.52410
 C1634 C 0.61852 1.06451 0.53955
 C1635 C 0.63593 1.07095 0.54609
 H1636 H 0.64268 1.08264 0.53915
 O1637 O 0.51848 1.06851 0.59273
 O1638 O 0.51852 1.09045 0.61451
 C1639 C 0.52490 1.07516 0.60795
 C1640 C 0.54024 1.06525 0.61783
 C1641 C 0.54678 1.07174 0.63522
 H1642 H 0.54000 1.08360 0.64185
 O1643 O 0.48188 0.93300 0.59351
 O1644 O 0.48184 0.91128 0.61549
 C1645 C 0.47546 0.92649 0.60878
 C1646 C 0.46007 0.93646 0.61853
 C1647 C 0.45338 0.93001 0.63587
 H1648 H 0.46011 0.91817 0.64258
 O1649 O 0.59340 1.01882 0.56755
 O1650 O 0.61531 1.01894 0.58934
 C1651 C 0.60866 1.02526 0.57408
 C1652 C 0.61848 1.04054 0.56402
 C1653 C 0.63585 1.04725 0.57043
 H1654 H 0.64227 1.04096 0.58266
 O1655 O 0.40694 0.98242 0.56772
 O1656 O 0.38505 0.98253 0.58954
 C1657 C 0.39168 0.97606 0.57432
 C1658 C 0.38184 0.96067 0.56444
 C1659 C 0.36440 0.95420 0.57086
 H1660 H 0.35767 0.96116 0.58256
 O1661 O 0.56784 1.09348 0.51762
 O1662 O 0.58970 1.11533 0.51749
 C1663 C 0.57445 1.10877 0.52392
 C1664 C 0.56453 1.11871 0.53922
 C1665 C 0.57101 1.13614 0.54568
 H1666 H 0.58283 1.14276 0.53883
 O1667 O 0.43249 0.90712 0.51863
 O1668 O 0.41065 0.88525 0.51878
 C1669 C 0.42590 0.89190 0.52512
 C1670 C 0.43584 0.88214 0.54051
 C1671 C 0.42942 0.86475 0.54712
 H1672 H 0.41762 0.85804 0.54032
 O1673 O 0.56770 0.98239 0.59338
 O1674 O 0.58951 0.98248 0.61527
 C1675 C 0.57428 0.97605 0.60865
 C1676 C 0.56437 0.96069 0.61851
 C1677 C 0.57083 0.95416 0.63591
 H1678 H 0.58262 0.96099 0.64259
 O1679 O 0.43262 1.01906 0.59326
 O1680 O 0.41085 1.01920 0.61520
 C1681 C 0.42608 1.02555 0.60850
 C1682 C 0.43607 1.04096 0.61820
 C1683 C 0.42977 1.04763 0.63563
 H1684 H 0.41772 1.04119 0.64224
 O1685 O 0.48186 1.09402 0.56698
 O1686 O 0.48187 1.11606 0.58866
 C1687 C 0.47544 1.10930 0.57348
 C1688 C 0.46003 1.11901 0.56351
 C1689 C 0.45334 1.13641 0.56989
 H1690 H 0.45975 1.14293 0.58201
 O1691 O 0.51842 0.90716 0.56800
 O1692 O 0.51845 0.88533 0.58988
 C1693 C 0.52483 0.89193 0.57462
 C1694 C 0.54018 0.88211 0.56467
 C1695 C 0.54687 0.86475 0.57113
 H1696 H 0.54048 0.85827 0.58328
 O1697 O 0.59325 0.93280 0.51834
 O1698 O 0.61516 0.91101 0.51843
 C1699 C 0.60851 0.92626 0.52477
 C1700 C 0.61831 0.93624 0.54012
 C1701 C 0.63569 0.92980 0.54672
 H1702 H 0.64238 0.91798 0.53993
 O1703 O 0.40664 1.06806 0.51782
 O1704 O 0.38473 1.08984 0.51776
 C1705 C 0.39140 1.07466 0.52424
 C1706 C 0.38168 1.06479 0.53972
 C1707 C 0.36429 1.07120 0.54639
 H1708 H 0.35772 1.08325 0.53990
 Cu1709 Cu 0.50016 0.92222 0.57860
 Cu1710 Cu 0.50014 0.89609 0.60494
 Cu1711 Cu 0.50019 1.07909 0.57768
 Cu1712 Cu 0.50021 1.10548 0.60377
 Cu1713 Cu 0.42179 0.92203 0.50029
 Cu1714 Cu 0.39553 0.89583 0.50046
 Cu1715 Cu 0.57825 0.92203 0.50010
 Cu1716 Cu 0.60451 0.89582 0.50021
 Cu1717 Cu 0.42165 1.07859 0.49945
 Cu1718 Cu 0.39542 1.10481 0.49935
 Cu1719 Cu 0.57844 1.07833 0.49940
 Cu1720 Cu 0.60473 1.10451 0.49924
 Cu1721 Cu 0.42196 1.00072 0.57831
 Cu1722 Cu 0.39575 1.00087 0.60457
 Cu1723 Cu 0.57837 1.00061 0.57828
 Cu1724 Cu 0.60460 1.00072 0.60451
 C1725 C 0.54894 0.95184 0.61009
 H1726 H 0.54405 0.95664 0.59654
 C1727 C 0.56221 0.93882 0.64477
 C1728 C 0.45142 1.04975 0.60956
 H1729 H 0.45618 1.04487 0.59599
 C1730 C 0.43853 1.06299 0.64432
 C1731 C 0.39027 1.04944 0.54858
 H1732 H 0.40380 1.04460 0.54370
 C1733 C 0.35561 1.06257 0.56182
 C1734 C 0.60987 0.95170 0.54891
 H1735 H 0.59634 0.95657 0.54406
 C1736 C 0.64451 0.93845 0.56206
 C1737 C 0.54891 0.89058 0.54918
 H1738 H 0.54402 0.90409 0.54430
 C1739 C 0.56220 0.85598 0.56241
 C1740 C 0.45124 1.11043 0.54811
 H1741 H 0.45612 1.09687 0.54332
 C1742 C 0.43801 1.14515 0.56114
 C1743 C 0.45135 0.95195 0.61006
 H1744 H 0.45627 0.95683 0.59656
 C1745 C 0.43801 0.93866 0.64463
 C1746 C 0.54901 1.04973 0.60948
 H1747 H 0.54420 1.04481 0.59594
 C1748 C 0.56204 1.06306 0.64414
 C1749 C 0.45129 0.89060 0.54929
 H1750 H 0.45615 0.90414 0.54443
 C1751 C 0.43808 0.85595 0.56245
 C1752 C 0.54905 1.11038 0.54807
 H1753 H 0.54415 1.09682 0.54332
 C1754 C 0.56236 1.14512 0.56094
 C1755 C 0.39030 0.95173 0.54907
 H1756 H 0.40386 0.95650 0.54420
 C1757 C 0.35555 0.93881 0.56231
 C1758 C 0.61002 1.04917 0.54848
 H1759 H 0.59648 1.04428 0.54366
 C1760 C 0.64469 1.06246 0.56156
 O1761 O 0.48143 0.43209 0.90674
 O1762 O 0.48136 0.41016 0.88495
 C1763 C 0.47502 0.42546 0.89151
 C1764 C 0.45972 0.43543 0.88163
 C1765 C 0.45306 0.42896 0.86426
 H1766 H 0.45940 0.41674 0.85786
 O1767 O 0.51844 0.56743 0.90638
 O1768 O 0.51856 0.58917 0.88442
 C1769 C 0.52489 0.57393 0.89111
 C1770 C 0.54021 0.56389 0.88134
 C1771 C 0.54690 0.57025 0.86394
 H1772 H 0.54054 0.58239 0.85742
 O1773 O 0.40663 0.48181 0.93211
 O1774 O 0.38478 0.48176 0.91026
 C1775 C 0.39138 0.47540 0.92553
 C1776 C 0.38153 0.46007 0.93548
 C1777 C 0.36418 0.45345 0.92898
 H1778 H 0.35755 0.46019 0.91710
 O1779 O 0.59326 0.51784 0.93216
 O1780 O 0.61519 0.51776 0.91037
 C1781 C 0.60853 0.52422 0.92558
 C1782 C 0.61832 0.53962 0.93550
 C1783 C 0.63566 0.54631 0.92900
 H1784 H 0.64214 0.53990 0.91686
 O1785 O 0.43186 0.40702 0.98197
 O1786 O 0.41003 0.38514 0.98202
 C1787 C 0.42529 0.39173 0.97563
 C1788 C 0.43526 0.38182 0.96034
 C1789 C 0.42889 0.36434 0.95392
 H1790 H 0.41715 0.35764 0.96084
 O1791 O 0.56772 0.59308 0.98150
 O1792 O 0.58957 0.61493 0.98146
 C1793 C 0.57433 0.60831 0.97507
 C1794 C 0.56444 0.61811 0.95967
 C1795 C 0.57090 0.63549 0.95308
 H1796 H 0.58269 0.64220 0.95989
 O1797 O 0.43234 0.51829 0.90637
 O1798 O 0.41058 0.51830 0.88443
 C1799 C 0.42581 0.52468 0.89109
 C1800 C 0.43580 0.54002 0.88128
 C1801 C 0.42940 0.54669 0.86389
 H1802 H 0.41726 0.54031 0.85739
 O1803 O 0.56758 0.48121 0.90660
 O1804 O 0.58939 0.48106 0.88469
 C1805 C 0.57414 0.47472 0.89137
 C1806 C 0.56414 0.45932 0.88164
 C1807 C 0.57051 0.45259 0.86425
 H1808 H 0.58263 0.45897 0.85770
 O1809 O 0.51787 0.40651 0.93265
 O1810 O 0.51786 0.38449 0.91095
 C1811 C 0.52426 0.39121 0.92615
 C1812 C 0.53964 0.38145 0.93612
 C1813 C 0.54626 0.36407 0.92970
 H1814 H 0.53949 0.35733 0.91790
 O1815 O 0.48190 0.59325 0.93196
 O1816 O 0.48199 0.61510 0.91011
 C1817 C 0.47555 0.60850 0.92534
 C1818 C 0.46018 0.61837 0.93523
 C1819 C 0.45367 0.63578 0.92877
 H1820 H 0.46052 0.64246 0.91699
 O1821 O 0.40659 0.56794 0.98125
 O1822 O 0.38476 0.58980 0.98113
 C1823 C 0.39137 0.57453 0.97479
 C1824 C 0.38158 0.56452 0.95945
 C1825 C 0.36416 0.57087 0.95280
 H1826 H 0.35767 0.58302 0.95918
 O1827 O 0.59305 0.43225 0.98196
 O1828 O 0.61487 0.41037 0.98205
 C1829 C 0.60828 0.42560 0.97559
 C1830 C 0.61813 0.43544 0.96018
 C1831 C 0.63554 0.42897 0.95367
 H1832 H 0.64222 0.41721 0.96055
 O1833 O 0.48188 0.56750 0.90638
 O1834 O 0.48196 0.58926 0.88442
 C1835 C 0.47551 0.57406 0.89110
 C1836 C 0.46011 0.56416 0.88132
 C1837 C 0.45353 0.57061 0.86393
 H1838 H 0.46035 0.58239 0.85722
 O1839 O 0.51799 0.43202 0.90684
 O1840 O 0.51796 0.41010 0.88504
 C1841 C 0.52440 0.42535 0.89163
 C1842 C 0.53982 0.43518 0.88180
 C1843 C 0.54637 0.42867 0.86441
 H1844 H 0.53952 0.41688 0.85774
 O1845 O 0.59323 0.48129 0.93228
 O1846 O 0.61516 0.48114 0.91049
 C1847 C 0.60849 0.47483 0.92575
 C1848 C 0.61825 0.45952 0.93581
 C1849 C 0.63566 0.45283 0.92948
 H1850 H 0.64220 0.45919 0.91735
 O1851 O 0.40669 0.51837 0.93206
 O1852 O 0.38482 0.51835 0.91022
 C1853 C 0.39144 0.52477 0.92546
 C1854 C 0.38163 0.54016 0.93536
 C1855 C 0.36417 0.54663 0.92898
 H1856 H 0.35743 0.53968 0.91729
 O1857 O 0.43233 0.59353 0.98120
 O1858 O 0.41061 0.61551 0.98109
 C1859 C 0.42584 0.60879 0.97474
 C1860 C 0.43587 0.61853 0.95939
 C1861 C 0.42955 0.63594 0.95272
 H1862 H 0.41745 0.64250 0.95911
 O1863 O 0.56735 0.40662 0.98201
 O1864 O 0.58907 0.38463 0.98209
 C1865 C 0.57387 0.39131 0.97566
 C1866 C 0.56389 0.38148 0.96032
 C1867 C 0.57033 0.36409 0.95368
 H1868 H 0.58247 0.35762 0.96009
 O1869 O 0.56760 0.51779 0.90651
 O1870 O 0.58941 0.51769 0.88461
 C1871 C 0.57420 0.52414 0.89124
 C1872 C 0.56432 0.53954 0.88142
 C1873 C 0.57079 0.54609 0.86402
 H1874 H 0.58257 0.53925 0.85732
 O1875 O 0.43234 0.48172 0.90649
 O1876 O 0.41059 0.48170 0.88454
 C1877 C 0.42579 0.47529 0.89123
 C1878 C 0.43569 0.45984 0.88150
 C1879 C 0.42930 0.45324 0.86409
 H1880 H 0.41761 0.46014 0.85730
 O1881 O 0.51846 0.59316 0.93200
 O1882 O 0.51859 0.61502 0.91015
 C1883 C 0.52492 0.60839 0.92541
 C1884 C 0.54028 0.61817 0.93539
 C1885 C 0.54695 0.63556 0.92898
 H1886 H 0.54055 0.64207 0.91685
 O1887 O 0.48130 0.40658 0.93257
 O1888 O 0.48125 0.38455 0.91088
 C1889 C 0.47485 0.39131 0.92607
 C1890 C 0.45945 0.38160 0.93608
 C1891 C 0.45281 0.36416 0.92979
 H1892 H 0.45922 0.35759 0.91770
 O1893 O 0.59328 0.56731 0.98155
 O1894 O 0.61522 0.58907 0.98149
 C1895 C 0.60853 0.57384 0.97511
 C1896 C 0.61829 0.56388 0.95972
 C1897 C 0.63564 0.57035 0.95304
 H1898 H 0.64234 0.58218 0.95979
 O1899 O 0.40622 0.43269 0.98177
 O1900 O 0.38428 0.41093 0.98180
 C1901 C 0.39099 0.42611 0.97533
 C1902 C 0.38129 0.43598 0.95984
 C1903 C 0.36394 0.42954 0.95311
 H1904 H 0.35738 0.41747 0.95957
 Cu1905 Cu 0.49964 0.42149 0.92187
 Cu1906 Cu 0.49960 0.39511 0.89578
 Cu1907 Cu 0.50017 0.57816 0.92137
 Cu1908 Cu 0.50029 0.60433 0.89507
 Cu1909 Cu 0.42169 0.50005 0.92144
 Cu1910 Cu 0.39550 0.50003 0.89516
 Cu1911 Cu 0.57823 0.49954 0.92157
 Cu1912 Cu 0.60448 0.49940 0.89534
 C1913 C 0.45103 0.45097 0.89005
 H1914 H 0.45588 0.45584 0.90358
 C1915 C 0.43784 0.43777 0.85538
 C1916 C 0.54891 0.54842 0.88987
 H1917 H 0.54402 0.54361 0.90341
 C1918 C 0.56220 0.56146 0.85519
 C1919 C 0.38988 0.45136 0.95103
 H1920 H 0.40339 0.45622 0.95595
 C1921 C 0.35529 0.43817 0.93766
 C1922 C 0.60984 0.54840 0.95096
 H1923 H 0.59634 0.54351 0.95587
 C1924 C 0.64441 0.56169 0.93767
 C1925 C 0.45067 0.39023 0.95145
 H1926 H 0.45551 0.40382 0.95618
 C1927 C 0.43752 0.35541 0.93862
 C1928 C 0.54901 0.60966 0.95085
 H1929 H 0.54412 0.59613 0.95569
 C1930 C 0.56227 0.64431 0.93773
 C1931 C 0.45127 0.54874 0.88978
 H1932 H 0.45611 0.54386 0.90332
 C1933 C 0.43816 0.56200 0.85513
 C1934 C 0.54869 0.45062 0.89020
 H1935 H 0.54387 0.45555 0.90373
 C1936 C 0.56172 0.43726 0.85554
 C1937 C 0.54843 0.38995 0.95155
 H1938 H 0.54357 0.40349 0.95641
 C1939 C 0.56163 0.35530 0.93836
 C1940 C 0.45130 0.60995 0.95065
 H1941 H 0.45607 0.59639 0.95554
 C1942 C 0.43835 0.64467 0.93740
 C1943 C 0.39010 0.54907 0.95072
 H1944 H 0.40367 0.54429 0.95556
 C1945 C 0.35534 0.56201 0.93757
 C1946 C 0.60970 0.45083 0.95128
 H1947 H 0.59615 0.45573 0.95606
 C1948 C 0.64440 0.43755 0.93831
 O1949 O 0.51783 0.43283 1.09360
 O1950 O 0.51773 0.41108 1.11555
 C1951 C 0.52418 0.42629 1.10889
 C1952 C 0.53957 0.43619 1.11870
 C1953 C 0.54605 0.42981 1.13614
 H1954 H 0.53911 0.41812 1.14289
 O1955 O 0.48154 0.56795 1.09315
 O1956 O 0.48157 0.58985 1.11496
 C1957 C 0.47516 0.57459 1.10839
 C1958 C 0.45979 0.56472 1.11826
 C1959 C 0.45335 0.57113 1.13571
 H1960 H 0.46031 0.58283 1.14243
 O1961 O 0.40648 0.51893 1.06750
 O1962 O 0.38454 0.51909 1.08928
 C1963 C 0.39125 0.52542 1.07403
 C1964 C 0.38153 0.54081 1.06405
 C1965 C 0.36422 0.54756 1.07053
 H1966 H 0.35752 0.54088 1.08240
 O1967 O 0.59306 0.48179 1.06788
 O1968 O 0.61494 0.48179 1.08970
 C1969 C 0.60829 0.47537 1.07448
 C1970 C 0.61805 0.45994 1.06458
 C1971 C 0.63543 0.45333 1.07102
 H1972 H 0.64214 0.46013 1.08282
 O1973 O 0.56720 0.40683 1.01858
 O1974 O 0.58893 0.38485 1.01869
 C1975 C 0.57370 0.39157 1.02504
 C1976 C 0.56373 0.38185 1.04044
 C1977 C 0.57009 0.36445 1.04705
 H1978 H 0.58181 0.35767 1.04019
 O1979 O 0.43236 0.59356 1.01776
 O1980 O 0.41065 0.61555 1.01769
 C1981 C 0.42585 0.60886 1.02413
 C1982 C 0.43578 0.61866 1.03951
 C1983 C 0.42942 0.63610 1.04601
 H1984 H 0.41774 0.64287 1.03908
 O1985 O 0.43187 0.48229 1.09332
 O1986 O 0.41002 0.48239 1.11519
 C1987 C 0.42524 0.47592 1.10857
 C1988 C 0.43513 0.46054 1.11841
 C1989 C 0.42861 0.45388 1.13577
 H1990 H 0.41643 0.46028 1.14217
 O1991 O 0.56751 0.51852 1.09343
 O1992 O 0.58927 0.51858 1.11537
 C1993 C 0.57407 0.52498 1.10866
 C1994 C 0.56412 0.54041 1.11838
 C1995 C 0.57051 0.54714 1.13575
 H1996 H 0.58265 0.54076 1.14226
 O1997 O 0.48125 0.40716 1.06794
 O1998 O 0.48115 0.38529 1.08978
 C1999 C 0.47479 0.39193 1.07452
 C2000 C 0.45941 0.38215 1.06457
 C2001 C 0.45278 0.36475 1.07096
 H2002 H 0.45923 0.35822 1.08305
 O2003 O 0.51815 0.59341 1.06734
 O2004 O 0.51819 0.61540 1.08906
 C2005 C 0.52459 0.60867 1.07385
 C2006 C 0.54002 0.61838 1.06392
 C2007 C 0.54666 0.63576 1.07034
 H2008 H 0.53985 0.64252 1.08211
 O2009 O 0.40609 0.43284 1.01837
 O2010 O 0.38415 0.41108 1.01844
 C2011 C 0.39082 0.42632 1.02479
 C2012 C 0.38102 0.43637 1.04010
 C2013 C 0.36357 0.43008 1.04672
 H2014 H 0.35705 0.41794 1.04033
 O2015 O 0.59329 0.56743 1.01815
 O2016 O 0.61523 0.58919 1.01811
 C2017 C 0.60855 0.57399 1.02455
 C2018 C 0.61832 0.56412 1.03998
 C2019 C 0.63570 0.57058 1.04656
 H2020 H 0.64242 0.58234 1.03970
 O2021 O 0.51809 0.56788 1.09314
 O2022 O 0.51814 0.58979 1.11496
 C2023 C 0.52450 0.57451 1.10838
 C2024 C 0.53985 0.56460 1.11823
 C2025 C 0.54638 0.57105 1.13565
 H2026 H 0.53949 0.58281 1.14234
 O2027 O 0.48126 0.43291 1.09353
 O2028 O 0.48114 0.41115 1.11547
 C2029 C 0.47480 0.42639 1.10878
 C2030 C 0.45940 0.43636 1.11851
 C2031 C 0.45275 0.42997 1.13590
 H2032 H 0.45958 0.41823 1.14267
 O2033 O 0.59324 0.51834 1.06785
 O2034 O 0.61513 0.51841 1.08966
 C2035 C 0.60851 0.52475 1.07439
 C2036 C 0.61833 0.54005 1.06436
 C2037 C 0.63572 0.54673 1.07076
 H2038 H 0.64221 0.54038 1.08292
 O2039 O 0.40626 0.48237 1.06761
 O2040 O 0.38430 0.48250 1.08937
 C2041 C 0.39095 0.47606 1.07415
 C2042 C 0.38110 0.46072 1.06421
 C2043 C 0.36361 0.45430 1.07055
 H2044 H 0.35687 0.46126 1.08224
 O2045 O 0.56770 0.59317 1.01807
 O2046 O 0.58955 0.61503 1.01805
 C2047 C 0.57429 0.60843 1.02445
 C2048 C 0.56433 0.61830 1.03978
 C2049 C 0.57080 0.63568 1.04643
 H2050 H 0.58296 0.64213 1.04004
 O2051 O 0.43181 0.40723 1.01852
 O2052 O 0.40998 0.38536 1.01861
 C2053 C 0.42522 0.39201 1.02498
 C2054 C 0.43515 0.38223 1.04037
 C2055 C 0.42874 0.36483 1.04695
 H2056 H 0.41695 0.35811 1.04016
 O2057 O 0.56747 0.48194 1.09362
 O2058 O 0.58923 0.48194 1.11556
 C2059 C 0.57400 0.47556 1.10890
 C2060 C 0.56396 0.46025 1.11872
 C2061 C 0.57032 0.45359 1.13613
 H2062 H 0.58249 0.45994 1.14260
 O2063 O 0.43196 0.51886 1.09334
 O2064 O 0.41013 0.51901 1.11522
 C2065 C 0.42539 0.52533 1.10858
 C2066 C 0.43542 0.54066 1.11836
 C2067 C 0.42909 0.54734 1.13578
 H2068 H 0.41694 0.54099 1.14229
 O2069 O 0.48157 0.59354 1.06740
 O2070 O 0.48159 0.61554 1.08911
 C2071 C 0.47518 0.60884 1.07390
 C2072 C 0.45986 0.61865 1.06388
 C2073 C 0.45322 0.63606 1.07026
 H2074 H 0.45958 0.64253 1.08243
 O2075 O 0.51783 0.40705 1.06804
 O2076 O 0.51776 0.38520 1.08989
 C2077 C 0.52420 0.39180 1.07465
 C2078 C 0.53956 0.38195 1.06474
 C2079 C 0.54621 0.36458 1.07122
 H2080 H 0.53981 0.35816 1.08340
 O2081 O 0.59306 0.43230 1.01855
 O2082 O 0.61489 0.41043 1.01866
 C2083 C 0.60828 0.42570 1.02501
 C2084 C 0.61808 0.43567 1.04037
 C2085 C 0.63546 0.42924 1.04704
 H2086 H 0.64195 0.41711 1.04063
 O2087 O 0.40654 0.56809 1.01784
 O2088 O 0.38471 0.58996 1.01777
 C2089 C 0.39131 0.57474 1.02424
 C2090 C 0.38152 0.56491 1.03969
 C2091 C 0.36421 0.57148 1.04640
 H2092 H 0.35775 0.58361 1.03995
 Cu2093 Cu 0.49955 0.42216 1.07858
 Cu2094 Cu 0.49943 0.39599 1.10488
 Cu2095 Cu 0.49982 0.57850 1.07808
 Cu2096 Cu 0.49988 0.60486 1.10420
 Cu2097 Cu 0.42117 0.42214 1.00016
 Cu2098 Cu 0.39491 0.39593 1.00022
 Cu2099 Cu 0.57799 0.42170 1.00027
 Cu2100 Cu 0.60412 0.39537 1.00039
 Cu2101 Cu 0.42162 0.57858 0.99951
 Cu2102 Cu 0.39549 0.60491 0.99941
 Cu2103 Cu 0.57831 0.57806 0.99982
 Cu2104 Cu 0.60460 0.60424 0.99977
 Cu2105 Cu 0.42134 0.50060 1.07827
 Cu2106 Cu 0.39505 0.50076 1.10445
 Cu2107 Cu 0.57814 0.50015 1.07851
 Cu2108 Cu 0.60434 0.50018 1.10477
 C2109 C 0.54849 0.45154 1.11020
 H2110 H 0.54370 0.45639 1.09664
 C2111 C 0.56146 0.43836 1.14495
 C2112 C 0.45087 0.54935 1.10980
 H2113 H 0.45563 0.54449 1.09623
 C2114 C 0.43796 0.56258 1.14458
 C2115 C 0.38997 0.54946 1.04851
 H2116 H 0.40345 0.54450 1.04360
 C2117 C 0.35547 0.56291 1.06184
 C2118 C 0.60959 0.45113 1.04913
 H2119 H 0.59606 0.45599 1.04426
 C2120 C 0.64422 0.43797 1.06237
 C2121 C 0.54833 0.39039 1.04925
 H2122 H 0.54350 0.40392 1.04437
 C2123 C 0.56149 0.35572 1.06248
 C2124 C 0.45114 0.61014 1.04841
 H2125 H 0.45597 0.59657 1.04361
 C2126 C 0.43799 0.64490 1.06142
 C2127 C 0.45062 0.45177 1.10999
 H2128 H 0.45553 0.45662 1.09646
 C2129 C 0.43732 0.43859 1.14462
 C2130 C 0.54869 0.54915 1.10982
 H2131 H 0.54388 0.54424 1.09628
 C2132 C 0.56174 0.56246 1.14451
 C2133 C 0.45060 0.39069 1.04916
 H2134 H 0.45546 0.40424 1.04433
 C2135 C 0.43744 0.35599 1.06225
 C2136 C 0.54883 0.60986 1.04852
 H2137 H 0.54395 0.59633 1.04366
 C2138 C 0.56207 0.64450 1.06173
 C2139 C 0.38958 0.45180 1.04885
 H2140 H 0.40317 0.45653 1.04403
 C2141 C 0.35475 0.43895 1.06195
 C2142 C 0.60985 0.54873 1.04886
 H2143 H 0.59631 0.54385 1.04403
 C2144 C 0.64449 0.56202 1.06196
 C2145 C 1.11266 1.11380 1.26488
 C2146 C 1.12226 1.10222 1.27756
 C2147 C 1.12985 1.10957 1.29405
 C2148 C 1.12800 1.12880 1.29852
 C2149 C 1.11814 1.14026 1.28572
 C2150 C 1.11067 1.13288 1.26919
 C2151 C 1.10492 1.10608 1.24719
 N2152 N 1.09721 1.11759 1.23414
 N2153 N 1.09043 1.11073 1.21816
 C2154 C 1.09103 1.09205 1.21454
 N2155 N 1.09869 1.08052 1.22761
 N2156 N 1.10551 1.08739 1.24358
 C2157 C 1.08359 1.08447 1.19666
 C2158 C 1.08263 1.06503 1.19356
 C2159 C 1.07568 1.05795 1.17664
 C2160 C 1.06959 1.07015 1.16243
 C2161 C 1.07058 1.08958 1.16553
 C2162 C 1.07745 1.09665 1.18245
 H2163 H 1.12393 1.08740 1.27476
 H2164 H 1.13654 1.09985 1.30355
 H2165 H 1.11680 1.15520 1.28786
 H2166 H 1.10345 1.14226 1.25969
 H2167 H 1.08716 1.05524 1.20422
 H2168 H 1.07488 1.04291 1.17478
 H2169 H 1.06632 1.09937 1.15475
 H2170 H 1.07809 1.11170 1.18429
 C2171 C 1.11222 0.61367 0.76506
 C2172 C 1.11818 0.60165 0.77950
 C2173 C 1.12563 0.60894 0.79610
 C2174 C 1.12725 0.62840 0.79866
 C2175 C 1.12121 0.64042 0.78428
 C2176 C 1.11378 0.63314 0.76768
 C2177 C 1.10453 0.60599 0.74733
 N2178 N 1.09894 0.61762 0.73334
 N2179 N 1.09218 0.61078 0.71735
 C2180 C 1.09070 0.59199 0.71464
 N2181 N 1.09626 0.58035 0.72864
 N2182 N 1.10303 0.58720 0.74464
 C2183 C 1.08327 0.58442 0.69676
 C2184 C 1.08166 0.56498 0.69391
 C2185 C 1.07476 0.55791 0.67698
 C2186 C 1.06929 0.57011 0.66253
 C2187 C 1.07089 0.58953 0.66537
 C2188 C 1.07778 0.59660 0.68228
 H2189 H 1.11714 0.58659 0.77799
 H2190 H 1.12997 0.59934 0.80702
 H2191 H 1.12252 0.65547 0.78573
 H2192 H 1.10938 0.64283 0.75686
 H2193 H 1.08572 0.55518 0.70477
 H2194 H 1.07351 0.54288 0.67527
 H2195 H 1.06706 0.59929 0.65440
 H2196 H 1.07888 0.61165 0.68393
 C2197 C 0.61313 1.11399 0.76435
 C2198 C 0.61479 1.13346 0.76690
 C2199 C 0.62226 1.14075 0.78347
 C2200 C 0.62824 1.12876 0.79790
 C2201 C 0.62657 1.10929 0.79539
 C2202 C 0.61909 1.10199 0.77881
 C2203 C 0.60530 1.10631 0.74669
 N2204 N 0.60371 1.08752 0.74403
 N2205 N 0.59677 1.08067 0.72810
 C2206 C 0.59113 1.09232 0.71414
 N2207 N 0.59271 1.11110 0.71681
 N2208 N 0.59964 1.11794 0.73273
 C2209 C 0.58352 1.08477 0.69632
 C2210 C 0.57792 1.09696 0.68190
 C2211 C 0.57090 1.08991 0.66504
 C2212 C 0.56929 1.07049 0.66219
 C2213 C 0.57484 1.05828 0.67660
 C2214 C 0.58187 1.06533 0.69349
 H2215 H 0.61041 1.14313 0.75607
 H2216 H 0.62362 1.15580 0.78487
 H2217 H 0.63087 1.09971 0.80634
 H2218 H 0.61798 1.08692 0.77735
 H2219 H 0.57904 1.11201 0.68355
 H2220 H 0.56701 1.09968 0.65409
 H2221 H 0.57358 1.04325 0.67488
 H2222 H 0.58600 1.05553 0.70430
 C2223 C 0.61257 0.61355 1.26479
 C2224 C 0.62229 0.60204 1.27742
 C2225 C 0.62992 0.60945 1.29388
 C2226 C 0.62797 0.62866 1.29834
 C2227 C 0.61800 0.64006 1.28557
 C2228 C 0.61050 0.63263 1.26909
 C2229 C 0.60475 0.60580 1.24715
 N2230 N 0.59693 0.61730 1.23415
 N2231 N 0.59005 0.61043 1.21822
 C2232 C 0.59067 0.59175 1.21459
 N2233 N 0.59844 0.58023 1.22760
 N2234 N 0.60536 0.58712 1.24353
 C2235 C 0.58313 0.58418 1.19675
 C2236 C 0.58214 0.56474 1.19365
 C2237 C 0.57511 0.55768 1.17677
 C2238 C 0.56898 0.56989 1.16258
 C2239 C 0.57000 0.58932 1.16568
 C2240 C 0.57694 0.59637 1.18257
 H2241 H 0.62404 0.58722 1.27462
 H2242 H 0.63673 0.59978 1.30335
 H2243 H 0.61661 0.65500 1.28768
 H2244 H 0.60318 0.64196 1.25962
 H2245 H 0.58671 0.55495 1.20430
 H2246 H 0.57431 0.54264 1.17489
 H2247 H 0.56571 0.59911 1.15492
 H2248 H 0.57760 0.61142 1.18442
 C2249 C 0.88658 0.88713 1.26459
 C2250 C 0.87694 0.89857 1.27735
 C2251 C 0.86943 0.89108 1.29384
 C2252 C 0.87144 0.87185 1.29818
 C2253 C 0.88127 0.86051 1.28524
 C2254 C 0.88865 0.86802 1.26874
 C2255 C 0.89436 0.89496 1.24697
 N2256 N 0.90217 0.88352 1.23391
 N2257 N 0.90907 0.89046 1.21802
 C2258 C 0.90850 0.90915 1.21450
 N2259 N 0.90073 0.92062 1.22757
 N2260 N 0.89378 0.91367 1.24346
 C2261 C 0.91613 0.91679 1.19673
 C2262 C 0.91715 0.93624 1.19371
 C2263 C 0.92431 0.94334 1.17690
 C2264 C 0.93056 0.93117 1.16272
 C2265 C 0.92950 0.91174 1.16574
 C2266 C 0.92242 0.90464 1.18255
 H2267 H 0.87519 0.91340 1.27465
 H2268 H 0.86269 0.90069 1.30342
 H2269 H 0.88267 0.84555 1.28724
 H2270 H 0.89588 0.85873 1.25916
 H2271 H 0.91250 0.94600 1.20436
 H2272 H 0.92514 0.95839 1.17508
 H2273 H 0.93387 0.90197 1.15498
 H2274 H 0.92174 0.88958 1.18434
 C2275 C 0.88634 0.38715 0.76454
 C2276 C 0.87670 0.39860 0.77731
 C2277 C 0.86924 0.39111 0.79382
 C2278 C 0.87129 0.37189 0.79819
 C2279 C 0.88111 0.36055 0.78524
 C2280 C 0.88844 0.36805 0.76872
 C2281 C 0.89407 0.39497 0.74689
 N2282 N 0.90184 0.38351 0.73382
 N2283 N 0.90871 0.39044 0.71791
 C2284 C 0.90815 0.40913 0.71438
 N2285 N 0.90041 0.42061 0.72746
 N2286 N 0.89350 0.41368 0.74337
 C2287 C 0.91575 0.41675 0.69660
 C2288 C 0.91683 0.43620 0.69357
 C2289 C 0.92400 0.44329 0.67675
 C2290 C 0.93020 0.43110 0.66256
 C2291 C 0.92907 0.41167 0.66558
 C2292 C 0.92198 0.40459 0.68240
 H2293 H 0.87492 0.41342 0.77459
 H2294 H 0.86250 0.40073 0.80340
 H2295 H 0.88254 0.34560 0.78726
 H2296 H 0.89567 0.35876 0.75914
 H2297 H 0.91223 0.44597 0.70423
 H2298 H 0.92488 0.45833 0.67494
 H2299 H 0.93339 0.40189 0.65481
 H2300 H 0.92126 0.38953 0.68418
 C2301 C 0.38678 0.88701 0.76446
 C2302 C 0.38075 0.89889 0.77899
 C2303 C 0.37333 0.89144 0.79554
 C2304 C 0.37180 0.87195 0.79793
 C2305 C 0.37786 0.86008 0.78343
 C2306 C 0.38526 0.86751 0.76691
 C2307 C 0.39453 0.89483 0.74682
 N2308 N 0.40025 0.88329 0.73280
 N2309 N 0.40712 0.89025 0.71691
 C2310 C 0.40859 0.90905 0.71433
 N2311 N 0.40288 0.92061 0.72836
 N2312 N 0.39600 0.91364 0.74426
 C2313 C 0.41618 0.91672 0.69656
 C2314 C 0.41775 0.93618 0.69380
 C2315 C 0.42485 0.94332 0.67698
 C2316 C 0.43057 0.93117 0.66257
 C2317 C 0.42899 0.91174 0.66532
 C2318 C 0.42189 0.90460 0.68211
 H2319 H 0.38176 0.91397 0.77762
 H2320 H 0.36897 0.90094 0.80655
 H2321 H 0.37660 0.84502 0.78475
 H2322 H 0.38970 0.85793 0.75601
 H2323 H 0.41352 0.94592 0.70464
 H2324 H 0.42607 0.95836 0.67533
 H2325 H 0.43298 0.90202 0.65437
 H2326 H 0.42083 0.88955 0.68369
 C2327 C 0.38621 0.38742 1.26474
 C2328 C 0.37672 0.39892 1.27759
 C2329 C 0.36928 0.39145 1.29412
 C2330 C 0.37120 0.37220 1.29842
 C2331 C 0.38087 0.36082 1.28539
 C2332 C 0.38818 0.36830 1.26886
 C2333 C 0.39392 0.39522 1.24708
 N2334 N 0.40163 0.38374 1.23400
 N2335 N 0.40848 0.39064 1.21807
 C2336 C 0.40796 0.40933 1.21453
 N2337 N 0.40028 0.42084 1.22762
 N2338 N 0.39339 0.41393 1.24355
 C2339 C 0.41554 0.41691 1.19672
 C2340 C 0.41657 0.43635 1.19363
 C2341 C 0.42370 0.44341 1.17679
 C2342 C 0.42992 0.43118 1.16263
 C2343 C 0.42884 0.41176 1.16572
 C2344 C 0.42179 0.40472 1.18256
 H2345 H 0.37504 0.41376 1.27492
 H2346 H 0.36267 0.40109 1.30376
 H2347 H 0.38218 0.34585 1.28736
 H2348 H 0.39529 0.35898 1.25923
 H2349 H 0.41195 0.44615 1.20426
 H2350 H 0.42454 0.45844 1.17492
 H2351 H 0.43319 0.40196 1.15498
 H2352 H 0.42110 0.38967 1.18439
 C2353 C 0.88635 1.11366 0.73549
 C2354 C 0.87682 1.10218 0.72267
 C2355 C 0.86926 1.10968 0.70621
 C2356 C 0.87108 1.12895 0.70196
 C2357 C 0.88082 1.14032 0.71494
 C2358 C 0.88826 1.13280 0.73140
 C2359 C 0.89414 1.10583 0.75311
 N2360 N 0.90191 1.11727 0.76619
 N2361 N 0.90879 1.11033 0.78208
 C2362 C 0.90824 1.09163 0.78558
 N2363 N 0.90051 1.08016 0.77249
 N2364 N 0.89359 1.08712 0.75660
 C2365 C 0.91584 1.08399 0.80336
 C2366 C 0.91680 1.06454 0.80640
 C2367 C 0.92393 1.05742 0.82322
 C2368 C 0.93021 1.06959 0.83739
 C2369 C 0.92920 1.08902 0.83435
 C2370 C 0.92215 1.09613 0.81754
 H2371 H 0.87519 1.08733 0.72531
 H2372 H 0.86262 1.10004 0.69659
 H2373 H 0.88209 1.15529 0.71300
 H2374 H 0.89541 1.14211 0.74102
 H2375 H 0.91213 1.05478 0.79576
 H2376 H 0.92472 1.04238 0.82505
 H2377 H 0.93361 1.09878 0.84511
 H2378 H 0.92152 1.11118 0.81575
 C2379 C 0.88673 0.61316 0.23517
 C2380 C 0.88073 0.60124 0.22066
 C2381 C 0.87331 0.60865 0.20410
 C2382 C 0.87174 0.62813 0.20168
 C2383 C 0.87771 0.64003 0.21619
 C2384 C 0.88512 0.63264 0.23272
 C2385 C 0.89457 0.60540 0.25279
 N2386 N 0.90034 0.61698 0.26675
 N2387 N 0.90733 0.61009 0.28261
 C2388 C 0.90887 0.59130 0.28523
 N2389 N 0.90312 0.57969 0.27127
 N2390 N 0.89612 0.58659 0.25538
 C2391 C 0.91658 0.58370 0.30297
 C2392 C 0.91816 0.56425 0.30579
 C2393 C 0.92530 0.55717 0.32262
 C2394 C 0.93105 0.56937 0.33698
 C2395 C 0.92950 0.58879 0.33415
 C2396 C 0.92237 0.59587 0.31736
 H2397 H 0.88180 0.58617 0.22205
 H2398 H 0.86900 0.59913 0.19308
 H2399 H 0.87642 0.65509 0.21486
 H2400 H 0.88952 0.64225 0.24361
 H2401 H 0.91389 0.55447 0.29501
 H2402 H 0.92650 0.54214 0.32433
 H2403 H 0.93353 0.59854 0.34506
 H2404 H 0.92130 0.61092 0.31572
 C2405 C 0.38712 1.11281 0.23478
 C2406 C 0.39864 1.12251 0.22212
 C2407 C 0.39123 1.13008 0.20563
 C2408 C 0.37203 1.12808 0.20117
 C2409 C 0.36063 1.11818 0.21400
 C2410 C 0.36805 1.11074 0.23050
 C2411 C 0.39486 1.10498 0.25241
 N2412 N 0.38335 1.09713 0.26539
 N2413 N 0.39020 1.09021 0.28130
 C2414 C 0.40887 1.09079 0.28493
 N2415 N 0.42040 1.09859 0.27194
 N2416 N 0.41354 1.10555 0.25603
 C2417 C 0.41640 1.08318 0.30274
 C2418 C 0.43583 1.08217 0.30587
 C2419 C 0.44286 1.07509 0.32274
 C2420 C 0.43062 1.06891 0.33689
 C2421 C 0.41120 1.06992 0.33376
 C2422 C 0.40419 1.07692 0.31688
 H2423 H 0.41345 1.12426 0.22491
 H2424 H 0.40089 1.13687 0.19613
 H2425 H 0.34569 1.11678 0.21191
 H2426 H 0.35871 1.10346 0.23999
 H2427 H 0.44565 1.08679 0.29526
 H2428 H 0.45789 1.07429 0.32464
 H2429 H 0.40139 1.06560 0.34449
 H2430 H 0.38914 1.07759 0.31501
 C2431 C 0.38743 0.61324 0.73494
 C2432 C 0.38143 0.60130 0.72044
 C2433 C 0.37401 0.60868 0.70387
 C2434 C 0.37245 0.62816 0.70141
 C2435 C 0.37848 0.64009 0.71587
 C2436 C 0.38588 0.63273 0.73243
 C2437 C 0.39515 0.60549 0.75261
 N2438 N 0.40088 0.61709 0.76659
 N2439 N 0.40772 0.61019 0.78252
 C2440 C 0.40913 0.59140 0.78519
 N2441 N 0.40343 0.57979 0.77121
 N2442 N 0.39659 0.58669 0.75526
 C2443 C 0.41666 0.58380 0.80301
 C2444 C 0.41815 0.56435 0.80586
 C2445 C 0.42516 0.55726 0.82274
 C2446 C 0.43085 0.56945 0.83712
 C2447 C 0.42937 0.58888 0.83427
 C2448 C 0.42238 0.59596 0.81742
 H2449 H 0.38246 0.58623 0.72187
 H2450 H 0.36967 0.59914 0.69289
 H2451 H 0.37719 0.65515 0.71451
 H2452 H 0.39029 0.64235 0.74330
 H2453 H 0.41392 0.55457 0.79506
 H2454 H 0.42630 0.54222 0.82447
 H2455 H 0.43337 0.59863 0.84519
 H2456 H 0.42137 0.61101 0.81576
 C2457 C 1.11236 0.88615 0.73484
 C2458 C 1.11841 0.89816 0.72043
 C2459 C 1.12598 0.89087 0.70388
 C2460 C 1.12765 0.87141 0.70136
 C2461 C 1.12153 0.85940 0.71571
 C2462 C 1.11398 0.86668 0.73225
 C2463 C 1.10454 0.89385 0.75251
 N2464 N 1.09882 0.88224 0.76646
 N2465 N 1.09194 0.88911 0.78240
 C2466 C 1.09048 0.90789 0.78509
 N2467 N 1.09617 0.91952 0.77112
 N2468 N 1.10306 0.91265 0.75518
 C2469 C 1.08295 0.91550 0.80292
 C2470 C 1.08143 0.93495 0.80576
 C2471 C 1.07447 0.94205 0.82266
 C2472 C 1.06885 0.92988 0.83708
 C2473 C 1.07034 0.91045 0.83423
 C2474 C 1.07729 0.90334 0.81737
 H2475 H 1.11733 0.91323 0.72190
 H2476 H 1.13037 0.90047 0.69298
 H2477 H 1.12287 0.84435 0.71429
 H2478 H 1.10951 0.85701 0.74306
 H2479 H 1.08561 0.94472 0.79494
 H2480 H 1.07331 0.95709 0.82437
 H2481 H 1.06639 0.90071 0.84518
 H2482 H 1.07832 0.88829 0.81572
 C2483 C 1.11160 0.38640 0.23451
 C2484 C 1.11754 0.39847 0.22010
 C2485 C 1.12503 0.39125 0.20349
 C2486 C 1.12674 0.37180 0.20090
 C2487 C 1.12072 0.35973 0.21525
 C2488 C 1.11325 0.36694 0.23185
 C2489 C 1.10388 0.39401 0.25225
 N2490 N 1.09826 0.38234 0.26620
 N2491 N 1.09148 0.38914 0.28220
 C2492 C 1.09000 0.40792 0.28497
 N2493 N 1.09559 0.41960 0.27102
 N2494 N 1.10238 0.41280 0.25500
 C2495 C 1.08258 0.41544 0.30288
 C2496 C 1.08109 0.43488 0.30581
 C2497 C 1.07424 0.44191 0.32278
 C2498 C 1.06870 0.42968 0.33719
 C2499 C 1.07016 0.41026 0.33425
 C2500 C 1.07701 0.40323 0.31731
 H2501 H 1.11643 0.41352 0.22164
 H2502 H 1.12933 0.40089 0.19259
 H2503 H 1.12210 0.34469 0.21377
 H2504 H 1.10887 0.35722 0.24265
 H2505 H 1.08521 0.44470 0.29501
 H2506 H 1.07309 0.45694 0.32457
 H2507 H 1.06628 0.40048 0.34518
 H2508 H 1.07802 0.38818 0.31558
 C2509 C 0.61300 0.88722 0.23476
 C2510 C 0.63210 0.88923 0.23057
 C2511 C 0.63956 0.88187 0.21404
 C2512 C 0.62817 0.87210 0.20110
 C2513 C 0.60893 0.87022 0.20544
 C2514 C 0.60149 0.87771 0.22196
 C2515 C 0.60523 0.89486 0.25247
 N2516 N 0.58654 0.89421 0.25606
 N2517 N 0.57964 0.90097 0.27205
 C2518 C 0.59115 0.90863 0.28516
 N2519 N 0.60982 0.90928 0.28155
 N2520 N 0.61671 0.90256 0.26555
 C2521 C 0.58358 0.91603 0.30305
 C2522 C 0.59577 0.92224 0.31722
 C2523 C 0.58874 0.92914 0.33413
 C2524 C 0.56932 0.93010 0.33727
 C2525 C 0.55710 0.92390 0.32312
 C2526 C 0.56414 0.91692 0.30620
 H2527 H 0.64143 0.89638 0.24017
 H2528 H 0.65452 0.88320 0.21203
 H2529 H 0.59927 0.86357 0.19585
 H2530 H 0.58665 0.87602 0.22467
 H2531 H 0.61082 0.92165 0.31534
 H2532 H 0.59854 0.93348 0.34487
 H2533 H 0.54206 0.92465 0.32503
 H2534 H 0.55434 0.91231 0.29557
 C2535 C 0.61218 0.38634 0.73502
 C2536 C 0.61820 0.39838 0.72063
 C2537 C 0.62572 0.39112 0.70404
 C2538 C 0.62737 0.37166 0.70146
 C2539 C 0.62128 0.35962 0.71580
 C2540 C 0.61378 0.36687 0.73238
 C2541 C 0.60442 0.39399 0.75274
 N2542 N 0.59872 0.38234 0.76667
 N2543 N 0.59189 0.38917 0.78264
 C2544 C 0.59046 0.40796 0.78539
 N2545 N 0.59614 0.41962 0.77145
 N2546 N 0.60298 0.41278 0.75547
 C2547 C 0.58298 0.41552 0.80326
 C2548 C 0.58151 0.43496 0.80617
 C2549 C 0.57458 0.44203 0.82310
 C2550 C 0.56894 0.42982 0.83748
 C2551 C 0.57038 0.41039 0.83457
 C2552 C 0.57731 0.40333 0.81767
 H2553 H 0.61714 0.41344 0.72215
 H2554 H 0.63008 0.40074 0.69315
 H2555 H 0.62261 0.34458 0.71434
 H2556 H 0.60934 0.35717 0.74317
 H2557 H 0.58571 0.44476 0.79538
 H2558 H 0.57345 0.45706 0.82486
 H2559 H 0.56642 0.40063 0.84549
 H2560 H 0.57829 0.38828 0.81597
 C2561 C 1.26481 1.11310 1.11306
 C2562 C 1.27933 1.11906 1.10114
 C2563 C 1.29590 1.12645 1.10856
 C2564 C 1.29832 1.12803 1.12804
 C2565 C 1.28382 1.12205 1.13994
 C2566 C 1.26727 1.11467 1.13255
 C2567 C 1.24715 1.10538 1.10528
 N2568 N 1.23312 1.09976 1.11685
 N2569 N 1.21720 1.09291 1.10993
 C2570 C 1.21461 1.09137 1.09113
 N2571 N 1.22865 1.09697 1.07954
 N2572 N 1.24457 1.10383 1.08647
 C2573 C 1.19682 1.08380 1.08350
 C2574 C 1.19406 1.08211 1.06405
 C2575 C 1.17722 1.07504 1.05695
 C2576 C 1.16278 1.06947 1.06913
 C2577 C 1.16554 1.07116 1.08856
 C2578 C 1.18235 1.07823 1.09566
 H2579 H 1.27794 1.11802 1.08607
 H2580 H 1.30691 1.13077 1.09904
 H2581 H 1.28515 1.12334 1.15501
 H2582 H 1.25638 1.11029 1.14216
 H2583 H 1.20491 1.08624 1.05428
 H2584 H 1.17556 1.07373 1.04192
 H2585 H 1.15457 1.06728 1.09830
 H2586 H 1.18393 1.07939 1.11071
 C2587 C 1.26477 0.61302 0.61288
 C2588 C 1.27927 0.60109 0.61888
 C2589 C 1.29585 0.60849 0.62626
 C2590 C 1.29832 0.62797 0.62778
 C2591 C 1.28384 0.63988 0.62178
 C2592 C 1.26728 0.63250 0.61442
 C2593 C 1.24712 0.60526 0.60513
 N2594 N 1.23318 0.61685 0.59932
 N2595 N 1.21728 0.60995 0.59243
 C2596 C 1.21459 0.59116 0.59103
 N2597 N 1.22853 0.57955 0.59682
 N2598 N 1.24445 0.58645 0.60372
 C2599 C 1.19680 0.58356 0.58343
 C2600 C 1.19390 0.56411 0.58203
 C2601 C 1.17704 0.55703 0.57498
 C2602 C 1.16273 0.56923 0.56914
 C2603 C 1.16564 0.58865 0.57051
 C2604 C 1.18247 0.59573 0.57756
 H2605 H 1.27785 0.58602 0.61786
 H2606 H 1.30685 0.59897 0.63058
 H2607 H 1.28520 0.65495 0.62304
 H2608 H 1.25640 0.64212 0.61001
 H2609 H 1.20464 0.55432 0.58639
 H2610 H 1.17526 0.54199 0.57392
 H2611 H 1.15478 0.59841 0.56640
 H2612 H 1.18417 0.61078 0.57848
 C2613 C 0.76443 1.11377 0.61336
 C2614 C 0.77719 1.10226 0.62293
 C2615 C 0.79362 1.10973 0.63058
 C2616 C 0.79791 1.12899 0.62880
 C2617 C 0.78496 1.14039 0.61906
 C2618 C 0.76853 1.13291 0.61153
 C2619 C 0.74686 1.10597 0.60543
 N2620 N 0.73387 1.11744 0.59758
 N2621 N 0.71803 1.11053 0.59056
 C2622 C 0.71449 1.09184 0.59103
 N2623 N 0.72750 1.08034 0.59884
 N2624 N 0.74334 1.08726 0.60591
 C2625 C 0.69675 1.08423 0.58331
 C2626 C 0.69366 1.06479 0.58235
 C2627 C 0.67684 1.05771 0.57519
 C2628 C 0.66272 1.06991 0.56887
 C2629 C 0.66583 1.08933 0.56982
 C2630 C 0.68264 1.09641 0.57691
 H2631 H 0.77453 1.08740 0.62450
 H2632 H 0.80320 1.10007 0.63724
 H2633 H 0.78692 1.15537 0.61784
 H2634 H 0.75896 1.14225 0.60437
 H2635 H 0.70425 1.05501 0.58707
 H2636 H 0.67496 1.04267 0.57443
 H2637 H 0.65512 1.09912 0.56538
 H2638 H 0.68449 1.11146 0.57752
 C2639 C 0.76472 0.61342 1.11243
 C2640 C 0.76723 0.63291 1.11396
 C2641 C 0.78378 0.64029 1.12136
 C2642 C 0.79823 0.62837 1.12742
 C2643 C 0.79578 0.60889 1.12585
 C2644 C 0.77922 0.60149 1.11843
 C2645 C 0.74704 0.60565 1.10474
 N2646 N 0.74439 0.58684 1.10335
 N2647 N 0.72844 0.57992 1.09655
 C2648 C 0.71445 0.59150 1.09084
 N2649 N 0.71713 0.61030 1.09221
 N2650 N 0.73306 0.61722 1.09901
 C2651 C 0.69662 0.58387 1.08336
 C2652 C 0.68221 0.59602 1.07763
 C2653 C 0.66536 0.58891 1.07067
 C2654 C 0.66250 0.56948 1.06925
 C2655 C 0.67687 0.55731 1.07497
 C2656 C 0.69376 0.56442 1.08194
 H2657 H 0.75636 0.64252 1.10953
 H2658 H 0.78513 0.65535 1.12264
 H2659 H 0.80675 0.59936 1.13021
 H2660 H 0.77779 0.58642 1.11742
 H2661 H 0.68388 0.61107 1.07858
 H2662 H 0.65444 0.59865 1.06665
 H2663 H 0.67514 0.54227 1.07387
 H2664 H 0.70456 0.55465 1.08619
 C2665 C 1.26477 0.88711 0.88664
 C2666 C 1.26904 0.88920 0.86756
 C2667 C 1.28558 0.88183 0.86013
 C2668 C 1.29844 0.87198 0.87153
 C2669 C 1.29399 0.86998 0.89075
 C2670 C 1.27747 0.87748 0.89816
 C2671 C 1.24708 0.89481 0.89438
 N2672 N 1.24348 0.89423 0.91307
 N2673 N 1.22751 0.90107 0.91994
 C2674 C 1.21445 0.90875 0.90841
 N2675 N 1.21807 0.90933 0.88973
 N2676 N 1.23403 0.90253 0.88287
 C2677 C 1.19660 0.91624 0.91596
 C2678 C 1.18240 0.92234 0.90374
 C2679 C 1.16552 0.92931 0.91077
 C2680 C 1.16243 0.93045 0.93019
 C2681 C 1.17662 0.92438 0.94243
 C2682 C 1.19351 0.91733 0.93540
 H2683 H 1.25952 0.89644 0.85822
 H2684 H 1.28768 0.88325 0.84519
 H2685 H 1.30351 0.86325 0.90042
 H2686 H 1.27468 0.87572 0.91297
 H2687 H 1.18424 0.92160 0.88869
 H2688 H 1.15475 0.93354 0.90095
 H2689 H 1.17476 0.92528 0.95747
 H2690 H 1.20416 0.91283 0.94521
 C2691 C 1.26507 0.38693 0.38761
 C2692 C 1.26931 0.36783 0.38952
 C2693 C 1.28579 0.36043 0.38200
 C2694 C 1.29863 0.37188 0.37219
 C2695 C 1.29423 0.39112 0.37038
 C2696 C 1.27776 0.39850 0.37802
 C2697 C 1.24742 0.39464 0.39543
 N2698 N 1.24377 0.41332 0.39483
 N2699 N 1.22782 0.42016 0.40175
 C2700 C 1.21483 0.40860 0.40952
 N2701 N 1.21850 0.38994 0.41012
 N2702 N 1.23445 0.38311 0.40325
 C2703 C 1.19697 0.41612 0.41704
 C2704 C 1.18287 0.40388 0.42334
 C2705 C 1.16595 0.41088 0.43024
 C2706 C 1.16272 0.43029 0.43109
 C2707 C 1.17683 0.44255 0.42487
 C2708 C 1.19375 0.43554 0.41790
 H2709 H 1.25979 0.35845 0.39671
 H2710 H 1.28784 0.34547 0.38326
 H2711 H 1.30375 0.40082 0.36369
 H2712 H 1.27501 0.41334 0.37640
 H2713 H 1.18481 0.38884 0.42280
 H2714 H 1.15525 0.40105 0.43462
 H2715 H 1.17485 0.45758 0.42555
 H2716 H 1.20433 0.44537 0.41324
 C2717 C 0.76460 0.88662 0.38699
 C2718 C 0.76707 0.86714 0.38533
 C2719 C 0.78360 0.85978 0.37787
 C2720 C 0.79808 0.87170 0.37189
 C2721 C 0.79566 0.89118 0.37357
 C2722 C 0.77911 0.89856 0.38105
 C2723 C 0.74694 0.89436 0.39477
 N2724 N 0.74430 0.91317 0.39624
 N2725 N 0.72837 0.92006 0.40313
 C2726 C 0.71440 0.90845 0.40885
 N2727 N 0.71707 0.88966 0.40739
 N2728 N 0.73298 0.88277 0.40051
 C2729 C 0.69659 0.91606 0.41641
 C2730 C 0.68221 0.90389 0.42219
 C2731 C 0.66537 0.91098 0.42920
 C2732 C 0.66248 0.93040 0.43061
 C2733 C 0.67683 0.94260 0.42486
 C2734 C 0.69371 0.93551 0.41785
 H2735 H 0.75618 0.85751 0.38969
 H2736 H 0.78492 0.84472 0.37649
 H2737 H 0.80666 0.90071 0.36928
 H2738 H 0.77772 0.91362 0.38217
 H2739 H 0.68389 0.88884 0.42123
 H2740 H 0.65447 0.90122 0.43324
 H2741 H 0.67508 0.95763 0.42596
 H2742 H 0.70449 0.94529 0.41357
 C2743 C 0.76457 0.38657 0.88722
 C2744 C 0.76708 0.36709 0.88555
 C2745 C 0.78360 0.35977 0.87804
 C2746 C 0.79804 0.37172 0.87202
 C2747 C 0.79558 0.39120 0.87371
 C2748 C 0.77904 0.39854 0.88123
 C2749 C 0.74693 0.39427 0.89507
 N2750 N 0.74426 0.41307 0.89659
 N2751 N 0.72834 0.41992 0.90353
 C2752 C 0.71440 0.40828 0.90927
 N2753 N 0.71710 0.38950 0.90777
 N2754 N 0.73300 0.38265 0.90083
 C2755 C 0.69659 0.41584 0.91687
 C2756 C 0.68222 0.40365 0.92263
 C2757 C 0.66537 0.41070 0.92964
 C2758 C 0.66246 0.43012 0.93108
 C2759 C 0.67681 0.44234 0.92538
 C2760 C 0.69370 0.43529 0.91837
 H2761 H 0.75623 0.35744 0.88995
 H2762 H 0.78495 0.34471 0.87666
 H2763 H 0.80655 0.40075 0.86938
 H2764 H 0.77762 0.41360 0.88236
 H2765 H 0.68392 0.38860 0.92163
 H2766 H 0.65447 0.40093 0.93364
 H2767 H 0.67504 0.45737 0.92651
 H2768 H 0.70447 0.44509 0.91411
 C2769 C 0.73580 0.88654 1.11350
 C2770 C 0.72133 0.88055 1.10153
 C2771 C 0.70477 0.87307 1.10887
 C2772 C 0.70230 0.87144 1.12835
 C2773 C 0.71676 0.87739 1.14030
 C2774 C 0.73330 0.88485 1.13298
 C2775 C 0.75341 0.89447 1.10580
 N2776 N 0.76732 0.90027 1.11742
 N2777 N 0.78316 0.90735 1.11057
 C2778 C 0.78580 0.90895 1.09179
 N2779 N 0.77189 0.90316 1.08014
 N2780 N 0.75603 0.89608 1.08700
 C2781 C 0.80353 0.91673 1.08422
 C2782 C 0.80637 0.91832 1.06478
 C2783 C 0.82319 0.92549 1.05771
 C2784 C 0.83752 0.93126 1.06993
 C2785 C 0.83466 0.92973 1.08935
 C2786 C 0.81787 0.92256 1.09641
 H2787 H 0.72276 0.88167 1.08646
 H2788 H 0.69379 0.86878 1.09932
 H2789 H 0.71539 0.87605 1.15536
 H2790 H 0.74416 0.88924 1.14263
 H2791 H 0.79562 0.91402 1.05498
 H2792 H 0.82492 0.92669 1.04268
 H2793 H 0.84555 0.93378 1.09911
 H2794 H 0.81621 0.92150 1.11146
 C2795 C 0.73440 0.38909 0.61298
 C2796 C 0.73014 0.39093 0.63210
 C2797 C 0.71366 0.38336 0.63947
 C2798 C 0.70086 0.37354 0.62797
 C2799 C 0.70526 0.37187 0.60871
 C2800 C 0.72171 0.37956 0.60137
 C2801 C 0.75207 0.39689 0.60529
 N2802 N 0.75569 0.39636 0.58660
 N2803 N 0.77166 0.40319 0.57976
 C2804 C 0.78473 0.41081 0.59133
 N2805 N 0.78109 0.41136 0.61001
 N2806 N 0.76511 0.40456 0.61684
 C2807 C 0.80263 0.41822 0.58380
 C2808 C 0.81682 0.42433 0.59602
 C2809 C 0.83378 0.43113 0.58900
 C2810 C 0.83695 0.43210 0.56958
 C2811 C 0.82274 0.42605 0.55734
 C2812 C 0.80579 0.41917 0.56436
 H2813 H 0.73965 0.39810 0.64151
 H2814 H 0.71158 0.38456 0.65443
 H2815 H 0.69575 0.36522 0.59896
 H2816 H 0.72446 0.37801 0.58652
 H2817 H 0.81493 0.42370 0.61107
 H2818 H 0.84455 0.43536 0.59883
 H2819 H 0.82466 0.42683 0.54230
 H2820 H 0.79514 0.41466 0.55454
 C2821 C 0.23488 0.88863 0.61306
 C2822 C 0.22221 0.87906 0.60145
 C2823 C 0.20575 0.87138 0.60878
 C2824 C 0.20131 0.87311 0.62803
 C2825 C 0.21409 0.88297 0.63952
 C2826 C 0.23058 0.89052 0.63217
 C2827 C 0.25256 0.89641 0.60538
 N2828 N 0.26557 0.90414 0.61693
 N2829 N 0.28156 0.91093 0.61010
 C2830 C 0.28523 0.91032 0.59143
 N2831 N 0.27220 0.90264 0.57987
 N2832 N 0.25621 0.89582 0.58670
 C2833 C 0.30313 0.91774 0.58391
 C2834 C 0.30632 0.91862 0.56447
 C2835 C 0.32327 0.92552 0.55745
 C2836 C 0.33743 0.93165 0.56970
 C2837 C 0.33424 0.93074 0.58912
 C2838 C 0.31729 0.92391 0.59614
 H2839 H 0.22500 0.87746 0.58661
 H2840 H 0.19626 0.86470 0.59903
 H2841 H 0.21198 0.88422 0.65448
 H2842 H 0.24007 0.89772 0.64157
 H2843 H 0.29570 0.91405 0.55465
 H2844 H 0.32521 0.92625 0.54242
 H2845 H 0.34498 0.93503 0.59894
 H2846 H 0.31538 0.92333 0.61118
 C2847 C 0.23380 0.38923 1.11246
 C2848 C 0.22951 0.39111 1.13156
 C2849 C 0.21299 0.38359 1.13890
 C2850 C 0.20020 0.37377 1.12739
 C2851 C 0.20463 0.37207 1.10814
 C2852 C 0.22111 0.37972 1.10082
 C2853 C 0.25152 0.39695 1.10480
 N2854 N 0.25519 0.39636 1.08612
 N2855 N 0.27121 0.40312 1.07931
 C2856 C 0.28427 0.41071 1.09090
 N2857 N 0.28058 0.41132 1.10957
 N2858 N 0.26455 0.40460 1.11637
 C2859 C 0.30222 0.41805 1.08341
 C2860 C 0.31638 0.42414 1.09567
 C2861 C 0.33337 0.43090 1.08870
 C2862 C 0.33660 0.43183 1.06929
 C2863 C 0.32244 0.42578 1.05701
 C2864 C 0.30545 0.41894 1.06399
 H2865 H 0.23901 0.39827 1.14098
 H2866 H 0.21089 0.38482 1.15386
 H2867 H 0.19512 0.36543 1.09839
 H2868 H 0.22389 0.37814 1.08598
 H2869 H 0.31444 0.42355 1.11072
 H2870 H 0.34411 0.43514 1.09855
 H2871 H 0.32441 0.42652 1.04197
 H2872 H 0.29482 0.41443 1.05414
 C2873 C 0.73495 1.11258 0.88686
 C2874 C 0.72224 1.12220 0.89838
 C2875 C 0.70577 1.12978 0.89096
 C2876 C 0.70138 1.12788 0.87172
 C2877 C 0.71422 1.11801 0.86032
 C2878 C 0.73071 1.11055 0.86776
 C2879 C 0.75261 1.10484 0.89461
 N2880 N 0.76564 1.09705 0.88312
 N2881 N 0.78159 1.09025 0.88999
 C2882 C 0.78522 1.09092 0.90867
 N2883 N 0.77218 1.09867 0.92018
 N2884 N 0.75623 1.10550 0.91330
 C2885 C 0.80308 1.08347 0.91623
 C2886 C 0.80624 1.08260 0.93567
 C2887 C 0.82314 1.07562 0.94272
 C2888 C 0.83729 1.06940 0.93050
 C2889 C 0.83413 1.07031 0.91107
 C2890 C 0.81723 1.07721 0.90403
 H2891 H 0.72499 1.12391 0.91321
 H2892 H 0.69624 1.13651 0.90063
 H2893 H 0.71217 1.11665 0.84536
 H2894 H 0.74024 1.10332 0.85842
 H2895 H 0.79563 1.08723 0.94548
 H2896 H 0.82506 1.07490 0.95776
 H2897 H 0.84486 1.06595 0.90127
 H2898 H 0.81535 1.07777 0.88898
 C2899 C 0.73590 0.61339 0.38591
 C2900 C 0.72135 0.60145 0.38004
 C2901 C 0.70476 0.60883 0.37266
 C2902 C 0.70233 0.62830 0.37102
 C2903 C 0.71687 0.64022 0.37686
 C2904 C 0.73344 0.63287 0.38422
 C2905 C 0.75355 0.60566 0.39372
 N2906 N 0.76752 0.61727 0.39939
 N2907 N 0.78340 0.61041 0.40636
 C2908 C 0.78603 0.59163 0.40797
 N2909 N 0.77205 0.58000 0.40231
 N2910 N 0.75615 0.58687 0.39534
 C2911 C 0.80379 0.58406 0.41566
 C2912 C 0.80663 0.56463 0.41729
 C2913 C 0.82347 0.55757 0.42441
 C2914 C 0.83783 0.56979 0.43009
 C2915 C 0.83499 0.58921 0.42849
 C2916 C 0.81818 0.59626 0.42137
 H2917 H 0.72275 0.58638 0.38116
 H2918 H 0.69373 0.59930 0.36845
 H2919 H 0.71555 0.65528 0.37551
 H2920 H 0.74435 0.64249 0.38852
 H2921 H 0.79584 0.55482 0.41307
 H2922 H 0.82519 0.54254 0.42565
 H2923 H 0.84590 0.59898 0.43247
 H2924 H 0.81653 0.61130 0.42027
 C2925 C 0.23469 1.11176 0.38665
 C2926 C 0.23037 1.10971 0.36758
 C2927 C 0.21388 1.11721 0.36018
 C2928 C 0.20112 1.12718 0.37161
 C2929 C 0.20558 1.12906 0.39083
 C2930 C 0.22204 1.12143 0.39821
 C2931 C 0.25238 1.10402 0.39437
 N2932 N 0.25604 1.10472 0.41304
 N2933 N 0.27203 1.09793 0.41989
 C2934 C 0.28506 1.09021 0.40835
 N2935 N 0.28138 1.08950 0.38969
 N2936 N 0.26539 1.09624 0.38285
 C2937 C 0.30298 1.08283 0.41589
 C2938 C 0.31714 1.07665 0.40367
 C2939 C 0.33409 1.06984 0.41069
 C2940 C 0.33729 1.06896 0.43011
 C2941 C 0.32312 1.07510 0.44235
 C2942 C 0.30617 1.08198 0.43533
 H2943 H 0.23984 1.10242 0.35822
 H2944 H 0.21176 1.11584 0.34523
 H2945 H 0.19611 1.13584 0.40053
 H2946 H 0.22484 1.12315 0.41302
 H2947 H 0.31523 1.07720 0.38863
 H2948 H 0.34483 1.06554 0.40087
 H2949 H 0.32506 1.07439 0.45739
 H2950 H 0.29554 1.08656 0.44515
 C2951 C 0.23440 0.61170 0.88706
 C2952 C 0.22168 0.62118 0.89868
 C2953 C 0.20516 0.62876 0.89137
 C2954 C 0.20073 0.62700 0.87213
 C2955 C 0.21356 0.61722 0.86062
 C2956 C 0.23010 0.60978 0.86796
 C2957 C 0.25213 0.60403 0.89471
 N2958 N 0.26518 0.59638 0.88315
 N2959 N 0.28121 0.58968 0.88994
 C2960 C 0.28490 0.59031 0.90861
 N2961 N 0.27184 0.59791 0.92020
 N2962 N 0.25581 0.60464 0.91339
 C2963 C 0.30284 0.58298 0.91610
 C2964 C 0.30607 0.58210 0.93552
 C2965 C 0.32305 0.57525 0.94251
 C2966 C 0.33721 0.56916 0.93023
 C2967 C 0.33398 0.57008 0.91081
 C2968 C 0.31700 0.57686 0.90384
 H2969 H 0.22446 0.62280 0.91352
 H2970 H 0.19564 0.63538 0.90112
 H2971 H 0.21146 0.61596 0.84566
 H2972 H 0.23963 0.60264 0.85855
 H2973 H 0.29545 0.58663 0.94537
 H2974 H 0.32502 0.57451 0.95754
 H2975 H 0.34472 0.56582 0.90096
 H2976 H 0.31506 0.57743 0.88880
 C2977 C 1.11310 1.26571 1.11056
 C2978 C 1.10106 1.28006 1.11671
 C2979 C 1.10832 1.29664 1.12421
 C2980 C 1.12778 1.29928 1.12572
 C2981 C 1.13981 1.28500 1.11947
 C2982 C 1.13257 1.26842 1.11198
 C2983 C 1.10546 1.24796 1.10290
 N2984 N 1.11713 1.23404 1.09719
 N2985 N 1.11033 1.21801 1.09049
 C2986 C 1.09155 1.21518 1.08919
 N2987 N 1.07987 1.22911 1.09486
 N2988 N 1.08668 1.24515 1.10157
 C2989 C 1.08404 1.19723 1.08187
 C2990 C 1.06460 1.19426 1.08043
 C2991 C 1.05759 1.17725 1.07365
 C2992 C 1.06985 1.16285 1.06814
 C2993 C 1.08926 1.16583 1.06956
 C2994 C 1.09627 1.18280 1.07633
 H2995 H 1.08600 1.27848 1.11578
 H2996 H 1.09870 1.30749 1.12871
 H2997 H 1.15486 1.28650 1.12068
 H2998 H 1.14227 1.25768 1.10743
 H2999 H 1.05477 1.20506 1.08453
 H3000 H 1.04257 1.17544 1.07254
 H3001 H 1.09906 1.15490 1.06570
 H3002 H 1.11130 1.18455 1.07731
 C3003 C 1.11393 0.76528 0.61104
 C3004 C 1.10194 0.77967 0.61717
 C3005 C 1.10926 0.79622 0.62472
 C3006 C 1.12872 0.79875 0.62629
 C3007 C 1.14071 0.78443 0.62005
 C3008 C 1.13340 0.76789 0.61252
 C3009 C 1.10622 0.74758 0.60331
 N3010 N 1.11783 0.73361 0.59760
 N3011 N 1.11096 0.71764 0.59084
 C3012 C 1.09217 0.71491 0.58948
 N3013 N 1.08055 0.72888 0.59515
 N3014 N 1.08742 0.74487 0.60192
 C3015 C 1.08458 0.69702 0.58209
 C3016 C 1.06513 0.69415 0.58060
 C3017 C 1.05804 0.67720 0.57376
 C3018 C 1.07023 0.66275 0.56823
 C3019 C 1.08965 0.66562 0.56970
 C3020 C 1.09674 0.68254 0.57653
 H3021 H 1.08688 0.77817 0.61619
 H3022 H 1.09968 0.80710 0.62920
 H3023 H 1.15576 0.78585 0.62131
 H3024 H 1.14306 0.75710 0.60799
 H3025 H 1.05535 0.70500 0.58471
 H3026 H 1.04301 0.67547 0.57261
 H3027 H 1.09940 0.65465 0.56583
 H3028 H 1.11179 0.68421 0.57754
 C3029 C 0.61347 1.26572 0.61096
 C3030 C 0.63295 1.26835 0.61240
 C3031 C 0.64025 1.28487 0.61994
 C3032 C 0.62828 1.29918 0.62622
 C3033 C 0.60881 1.29663 0.62470
 C3034 C 0.60149 1.28009 0.61714
 C3035 C 0.60576 1.24802 0.60322
 N3036 N 0.58697 1.24530 0.60186
 N3037 N 0.58009 1.22931 0.59508
 C3038 C 0.59172 1.21535 0.58937
 N3039 N 0.61051 1.21810 0.59071
 N3040 N 0.61738 1.23407 0.59748
 C3041 C 0.58413 1.19747 0.58197
 C3042 C 0.59630 1.18300 0.57640
 C3043 C 0.58922 1.16608 0.56955
 C3044 C 0.56980 1.16320 0.56808
 C3045 C 0.55761 1.17764 0.57363
 C3046 C 0.56469 1.19459 0.58049
 H3047 H 0.64261 1.25757 0.60782
 H3048 H 0.65531 1.28631 0.62116
 H3049 H 0.59923 1.30749 0.62922
 H3050 H 0.58642 1.27858 0.61620
 H3051 H 0.61135 1.18468 0.57740
 H3052 H 0.59898 1.15513 0.56568
 H3053 H 0.54258 1.17590 0.57249
 H3054 H 0.55490 1.20543 0.58461
 C3055 C 0.61274 0.76474 1.11300
 C3056 C 0.61893 0.77916 1.10107
 C3057 C 0.62635 0.79573 1.10847
 C3058 C 0.62771 0.79826 1.12796
 C3059 C 0.62147 0.78388 1.13988
 C3060 C 0.61408 0.76733 1.13249
 C3061 C 0.60505 0.74705 1.10523
 N3062 N 0.59921 0.73312 1.11682
 N3063 N 0.59241 0.71718 1.10991
 C3064 C 0.59113 0.71445 1.09112
 N3065 N 0.59694 0.72838 1.07951
 N3066 N 0.60376 0.74434 1.08642
 C3067 C 0.58363 0.69661 1.08351
 C3068 C 0.58219 0.69372 1.06405
 C3069 C 0.57518 0.67684 1.05697
 C3070 C 0.56942 0.66249 1.06917
 C3071 C 0.57087 0.66538 1.08860
 C3072 C 0.57787 0.68223 1.09568
 H3073 H 0.61807 0.77767 1.08599
 H3074 H 0.63085 0.80664 1.09894
 H3075 H 0.62260 0.78529 1.15495
 H3076 H 0.60950 0.75652 1.14211
 H3077 H 0.58647 0.70451 1.05427
 H3078 H 0.57406 0.67509 1.04193
 H3079 H 0.56683 0.65448 1.09835
 H3080 H 0.57884 0.68391 1.11073
 C3081 C 0.88718 1.26460 0.88613
 C3082 C 0.88123 1.27911 0.89807
 C3083 C 0.87372 1.29564 0.89069
 C3084 C 0.87201 1.29804 0.87121
 C3085 C 0.87799 1.28356 0.85929
 C3086 C 0.88548 1.26704 0.86665
 C3087 C 0.89500 1.24697 0.89389
 N3088 N 0.90069 1.23297 0.88231
 N3089 N 0.90761 1.21708 0.88922
 C3090 C 0.90916 1.21448 0.90801
 N3091 N 0.90350 1.22849 0.91961
 N3092 N 0.89657 1.24439 0.91270
 C3093 C 0.91676 1.19670 0.91564
 C3094 C 0.91834 1.19391 0.93509
 C3095 C 0.92536 1.17705 0.94221
 C3096 C 0.93101 1.16263 0.93004
 C3097 C 0.92947 1.16543 0.91061
 C3098 C 0.92244 1.18225 0.90349
 H3099 H 0.88236 1.27774 0.91314
 H3100 H 0.86942 1.30664 0.90023
 H3101 H 0.87660 1.28487 0.84423
 H3102 H 0.88986 1.25615 0.85702
 H3103 H 0.91413 1.20474 0.94486
 H3104 H 0.92656 1.17537 0.95725
 H3105 H 0.93342 1.15447 0.90087
 H3106 H 0.92138 1.18387 0.88844
 C3107 C 0.88717 0.76444 0.38594
 C3108 C 0.88118 0.77892 0.39790
 C3109 C 0.87364 0.79545 0.39055
 C3110 C 0.87194 0.79788 0.37107
 C3111 C 0.87793 0.78342 0.35912
 C3112 C 0.88546 0.76691 0.36646
 C3113 C 0.89507 0.74683 0.39366
 N3114 N 0.90081 0.73288 0.38206
 N3115 N 0.90781 0.71701 0.38893
 C3116 C 0.90938 0.71439 0.40772
 N3117 N 0.90366 0.72835 0.41935
 N3118 N 0.89666 0.74424 0.41246
 C3119 C 0.91706 0.69663 0.41533
 C3120 C 0.91865 0.69383 0.43478
 C3121 C 0.92572 0.67699 0.44187
 C3122 C 0.93140 0.66259 0.42969
 C3123 C 0.92986 0.66541 0.41026
 C3124 C 0.92279 0.68222 0.40316
 H3125 H 0.88232 0.77752 0.41297
 H3126 H 0.86932 0.80643 0.40010
 H3127 H 0.87655 0.78476 0.34407
 H3128 H 0.88986 0.75605 0.35681
 H3129 H 0.91442 0.70463 0.44456
 H3130 H 0.92692 0.67529 0.45691
 H3131 H 0.93384 0.65447 0.40051
 H3132 H 0.92172 0.68384 0.38811
 C3133 C 0.38681 1.26454 0.38592
 C3134 C 0.38088 1.27904 0.39789
 C3135 C 0.37338 1.29559 0.39055
 C3136 C 0.37166 1.29802 0.37108
 C3137 C 0.37762 1.28356 0.35911
 C3138 C 0.38510 1.26702 0.36644
 C3139 C 0.39464 1.24691 0.39364
 N3140 N 0.40034 1.23293 0.38204
 N3141 N 0.40728 1.21704 0.38892
 C3142 C 0.40884 1.21442 0.40771
 N3143 N 0.40316 1.22840 0.41933
 N3144 N 0.39622 1.24431 0.41244
 C3145 C 0.41646 1.19664 0.41532
 C3146 C 0.41801 1.19383 0.43477
 C3147 C 0.42507 1.17698 0.44187
 C3148 C 0.43075 1.16258 0.42969
 C3149 C 0.42923 1.16541 0.41026
 C3150 C 0.42218 1.18222 0.40316
 H3151 H 0.38202 1.27764 0.41296
 H3152 H 0.36910 1.30658 0.40011
 H3153 H 0.37622 1.28490 0.34406
 H3154 H 0.38946 1.25615 0.35679
 H3155 H 0.41378 1.20464 0.44455
 H3156 H 0.42625 1.17527 0.45691
 H3157 H 0.43322 1.15447 0.40051
 H3158 H 0.42114 1.18386 0.38811
 C3159 C 0.38682 0.76470 0.88659
 C3160 C 0.38085 0.77918 0.89857
 C3161 C 0.37337 0.79575 0.89122
 C3162 C 0.37172 0.79821 0.87175
 C3163 C 0.37766 0.78373 0.85979
 C3164 C 0.38513 0.76719 0.86711
 C3165 C 0.39471 0.74707 0.89428
 N3166 N 0.40047 0.73315 0.88263
 N3167 N 0.40749 0.71727 0.88946
 C3168 C 0.40907 0.71460 0.90824
 N3169 N 0.40333 0.72853 0.91990
 N3170 N 0.39631 0.74442 0.91307
 C3171 C 0.41677 0.69682 0.91577
 C3172 C 0.41836 0.69395 0.93521
 C3173 C 0.42544 0.67708 0.94224
 C3174 C 0.43111 0.66272 0.93000
 C3175 C 0.42959 0.66563 0.91058
 C3176 C 0.42252 0.68246 0.90355
 H3177 H 0.38198 0.77776 0.91363
 H3178 H 0.36908 0.80673 0.90078
 H3179 H 0.37630 0.78509 0.84474
 H3180 H 0.38951 0.75633 0.85746
 H3181 H 0.41411 0.70471 0.94503
 H3182 H 0.42663 0.67532 0.95727
 H3183 H 0.43358 0.65473 0.90079
 H3184 H 0.42145 0.68415 0.88851
 C3185 C 1.11301 0.73462 0.88871
 C3186 C 1.10105 0.72019 0.88262
 C3187 C 1.10840 0.70361 0.87518
 C3188 C 1.12787 0.70108 0.87368
 C3189 C 1.13983 0.71545 0.87988
 C3190 C 1.13249 0.73201 0.88731
 C3191 C 1.10527 0.75236 0.89632
 N3192 N 1.11686 0.76635 0.90199
 N3193 N 1.10998 0.78236 0.90865
 C3194 C 1.09119 0.78511 0.90993
 N3195 N 1.07958 0.77111 0.90429
 N3196 N 1.08647 0.75508 0.89762
 C3197 C 1.08359 0.80303 0.91724
 C3198 C 1.06414 0.80592 0.91868
 C3199 C 1.05706 0.82289 0.92550
 C3200 C 1.06926 0.83731 0.93106
 C3201 C 1.08868 0.83442 0.92960
 C3202 C 1.09576 0.81749 0.92279
 H3203 H 1.08598 0.72168 0.88355
 H3204 H 1.09884 0.69270 0.87071
 H3205 H 1.15488 0.71403 0.87866
 H3206 H 1.14213 0.74283 0.89181
 H3207 H 1.05436 0.79508 0.91456
 H3208 H 1.04203 0.82464 0.92663
 H3209 H 1.09844 0.84538 0.93349
 H3210 H 1.11080 0.81581 0.92182
 C3211 C 1.11373 0.23511 0.38784
 C3212 C 1.10180 0.22071 0.38161
 C3213 C 1.10920 0.20419 0.37408
 C3214 C 1.12868 0.20168 0.37265
 C3215 C 1.14059 0.21602 0.37897
 C3216 C 1.13322 0.23254 0.38647
 C3217 C 1.10594 0.25277 0.39558
 N3218 N 1.11748 0.26675 0.40138
 N3219 N 1.11054 0.28268 0.40819
 C3220 C 1.09174 0.28534 0.40950
 N3221 N 1.08018 0.27135 0.40374
 N3222 N 1.08713 0.25541 0.39692
 C3223 C 1.08406 0.30317 0.41699
 C3224 C 1.06461 0.30594 0.41849
 C3225 C 1.05745 0.32282 0.42545
 C3226 C 1.06957 0.33728 0.43109
 C3227 C 1.08901 0.33450 0.42958
 C3228 C 1.09616 0.31766 0.42263
 H3229 H 1.08673 0.22218 0.38249
 H3230 H 1.09966 0.19329 0.36954
 H3231 H 1.15566 0.21461 0.37781
 H3232 H 1.14283 0.24333 0.39108
 H3233 H 1.05487 0.29508 0.41431
 H3234 H 1.04241 0.32448 0.42662
 H3235 H 1.09871 0.34548 0.43353
 H3236 H 1.11122 0.31606 0.42161
 C3237 C 0.61369 0.73557 0.38708
 C3238 C 0.60178 0.72106 0.38108
 C3239 C 0.60918 0.70456 0.37353
 C3240 C 0.62865 0.70217 0.37183
 C3241 C 0.64055 0.71665 0.37786
 C3242 C 0.63317 0.73315 0.38539
 C3243 C 0.60591 0.75318 0.39494
 N3244 N 0.61747 0.76719 0.40065
 N3245 N 0.61054 0.78305 0.40761
 C3246 C 0.59175 0.78562 0.40918
 N3247 N 0.58018 0.77161 0.40350
 N3248 N 0.58711 0.75573 0.39653
 C3249 C 0.58410 0.80338 0.41681
 C3250 C 0.56465 0.80613 0.41843
 C3251 C 0.55751 0.82297 0.42548
 C3252 C 0.56965 0.83742 0.43111
 C3253 C 0.58908 0.83466 0.42953
 C3254 C 0.59622 0.81785 0.42248
 H3255 H 0.58671 0.72243 0.38220
 H3256 H 0.59966 0.69356 0.36919
 H3257 H 0.65561 0.71535 0.37648
 H3258 H 0.64278 0.74403 0.38981
 H3259 H 0.55490 0.79528 0.41424
 H3260 H 0.54248 0.82462 0.42671
 H3261 H 0.59879 0.84564 0.43347
 H3262 H 0.61127 0.81627 0.42139
 C3263 C 0.61353 0.23556 0.88717
 C3264 C 0.61939 0.22098 0.89908
 C3265 C 0.62683 0.20443 0.89166
 C3266 C 0.62853 0.20207 0.87217
 C3267 C 0.62270 0.21664 0.86029
 C3268 C 0.61529 0.23317 0.86769
 C3269 C 0.60567 0.25317 0.89494
 N3270 N 0.59996 0.26714 0.88335
 N3271 N 0.59294 0.28300 0.89024
 C3272 C 0.59130 0.28559 0.90902
 N3273 N 0.59699 0.27161 0.92064
 N3274 N 0.60402 0.25574 0.91374
 C3275 C 0.58356 0.30332 0.91662
 C3276 C 0.58193 0.30615 0.93606
 C3277 C 0.57475 0.32296 0.94314
 C3278 C 0.56902 0.33731 0.93093
 C3279 C 0.57061 0.33448 0.91150
 C3280 C 0.57779 0.31770 0.90444
 H3281 H 0.61822 0.22233 0.91415
 H3282 H 0.63103 0.19337 0.90116
 H3283 H 0.62411 0.21537 0.84523
 H3284 H 0.61100 0.24410 0.85809
 H3285 H 0.58620 0.29537 0.94586
 H3286 H 0.57352 0.32468 0.95817
 H3287 H 0.56660 0.34538 0.90174
 H3288 H 0.57889 0.31606 0.88939
 C3289 C 0.88736 0.73560 1.11324
 C3290 C 0.88140 0.72114 1.10124
 C3291 C 0.87393 0.70455 1.10855
 C3292 C 0.87228 0.70205 1.12802
 C3293 C 0.87827 0.71649 1.14001
 C3294 C 0.88572 0.73305 1.13271
 C3295 C 0.89516 0.75328 1.10556
 N3296 N 0.90086 0.76721 1.11721
 N3297 N 0.90775 0.78315 1.11039
 C3298 C 0.90926 0.78586 1.09161
 N3299 N 0.90359 0.77192 1.07994
 N3300 N 0.89668 0.75597 1.08677
 C3301 C 0.91684 0.80370 1.08407
 C3302 C 0.91838 0.80661 1.06464
 C3303 C 0.92538 0.82352 1.05761
 C3304 C 0.93101 0.83788 1.06986
 C3305 C 0.92951 0.83496 1.08928
 C3306 C 0.92251 0.81808 1.09630
 H3307 H 0.88250 0.72260 1.08617
 H3308 H 0.86962 0.69360 1.09897
 H3309 H 0.87692 0.71510 1.15506
 H3310 H 0.89010 0.74389 1.14238
 H3311 H 0.91418 0.79583 1.05481
 H3312 H 0.92656 0.82529 1.04258
 H3313 H 0.93346 0.84586 1.09907
 H3314 H 0.92148 0.81637 1.11134
 C3315 C 0.88552 0.23665 0.61421
 C3316 C 0.89742 0.22213 0.62021
 C3317 C 0.89001 0.20560 0.62767
 C3318 C 0.87053 0.20319 0.62928
 C3319 C 0.85864 0.21769 0.62328
 C3320 C 0.86603 0.23421 0.61584
 C3321 C 0.89332 0.25425 0.60636
 N3322 N 0.88177 0.26826 0.60064
 N3323 N 0.88872 0.28411 0.59365
 C3324 C 0.90751 0.28665 0.59206
 N3325 N 0.91907 0.27263 0.59777
 N3326 N 0.91212 0.25678 0.60477
 C3327 C 0.91519 0.30436 0.58435
 C3328 C 0.93464 0.30706 0.58268
 C3329 C 0.94180 0.32384 0.57552
 C3330 C 0.92968 0.33828 0.56984
 C3331 C 0.91025 0.33558 0.57149
 C3332 C 0.90309 0.31883 0.57864
 H3333 H 0.91249 0.22351 0.61913
 H3334 H 0.89952 0.19459 0.63198
 H3335 H 0.84358 0.21636 0.62459
 H3336 H 0.85644 0.24510 0.61143
 H3337 H 0.94437 0.29621 0.58690
 H3338 H 0.95684 0.32545 0.57424
 H3339 H 0.90055 0.34655 0.56751
 H3340 H 0.88804 0.31729 0.57978
 C3341 C 0.38700 0.73541 0.61256
 C3342 C 0.36752 0.73287 0.61410
 C3343 C 0.36017 0.71628 0.62142
 C3344 C 0.37211 0.70180 0.62737
 C3345 C 0.39158 0.70428 0.62579
 C3346 C 0.39895 0.72089 0.61846
 C3347 C 0.39473 0.75315 0.60496
 N3348 N 0.41353 0.75583 0.60353
 N3349 N 0.42042 0.77183 0.59680
 C3350 C 0.40880 0.78584 0.59122
 N3351 N 0.39001 0.78314 0.59264
 N3352 N 0.38314 0.76716 0.59936
 C3353 C 0.41638 0.80372 0.58380
 C3354 C 0.40420 0.81815 0.57820
 C3355 C 0.41126 0.83504 0.57127
 C3356 C 0.43067 0.83792 0.56975
 C3357 C 0.44289 0.82353 0.57536
 C3358 C 0.43582 0.80661 0.58229
 H3359 H 0.35789 0.74376 0.60976
 H3360 H 0.34512 0.71490 0.62271
 H3361 H 0.40112 0.69328 0.63007
 H3362 H 0.41401 0.72234 0.61743
 H3363 H 0.38915 0.81647 0.57922
 H3364 H 0.40149 0.84597 0.56735
 H3365 H 0.45791 0.82528 0.57418
 H3366 H 0.44562 0.79579 0.58645
 C3367 C 0.38682 0.23557 1.11309
 C3368 C 0.36735 0.23304 1.11478
 C3369 C 0.36006 0.21644 1.12213
 C3370 C 0.37203 0.20195 1.12798
 C3371 C 0.39149 0.20444 1.12630
 C3372 C 0.39881 0.22106 1.11893
 C3373 C 0.39448 0.25328 1.10536
 N3374 N 0.41326 0.25597 1.10377
 N3375 N 0.42008 0.27194 1.09690
 C3376 C 0.40840 0.28591 1.09132
 N3377 N 0.38963 0.28320 1.09289
 N3378 N 0.38283 0.26724 1.09976
 C3379 C 0.41592 0.30376 1.08375
 C3380 C 0.40368 0.31814 1.07813
 C3381 C 0.41068 0.33501 1.07111
 C3382 C 0.43008 0.33793 1.06953
 C3383 C 0.44234 0.32358 1.07513
 C3384 C 0.43534 0.30667 1.08215
 H3385 H 0.35769 0.24392 1.11049
 H3386 H 0.34501 0.21505 1.12351
 H3387 H 0.40106 0.19344 1.13051
 H3388 H 0.41387 0.22251 1.11780
 H3389 H 0.38864 0.31643 1.07922
 H3390 H 0.40087 0.34591 1.06720
 H3391 H 0.45736 0.32535 1.07390
 H3392 H 0.44518 0.29589 1.08631
 C3393 C 1.11180 1.11287 0.73418
 C3394 C 1.10980 1.13197 0.72996
 C3395 C 1.11725 1.13942 0.71346
 C3396 C 1.12710 1.12802 0.70059
 C3397 C 1.12895 1.10877 0.70495
 C3398 C 1.12137 1.10134 0.72143
 C3399 C 1.10410 1.10510 0.75186
 N3400 N 1.10473 1.08640 0.75544
 N3401 N 1.09796 1.07950 0.77142
 C3402 C 1.09031 1.09101 0.78453
 N3403 N 1.08968 1.10969 0.78094
 N3404 N 1.09641 1.11658 0.76495
 C3405 C 1.08293 1.08342 0.80242
 C3406 C 1.07681 1.09561 0.81665
 C3407 C 1.06998 1.08855 0.83358
 C3408 C 1.06899 1.06912 0.83668
 C3409 C 1.07508 1.05692 0.82246
 C3410 C 1.08200 1.06398 0.80553
 H3411 H 1.10259 1.14131 0.73951
 H3412 H 1.11592 1.15438 0.71142
 H3413 H 1.13564 1.09910 0.69540
 H3414 H 1.12305 1.08651 0.72415
 H3415 H 1.07744 1.11066 0.81480
 H3416 H 1.06572 1.09835 0.84436
 H3417 H 1.07430 1.04188 0.82434
 H3418 H 1.08653 1.05419 0.79486
 C3419 C 1.11308 0.61312 0.23473
 C3420 C 1.10153 0.62274 0.22204
 C3421 C 1.10894 0.63043 0.20560
 C3422 C 1.12818 0.62862 0.20122
 C3423 C 1.13962 0.61883 0.21410
 C3424 C 1.13219 0.61128 0.23054
 C3425 C 1.10534 0.60515 0.25231
 N3426 N 1.11687 0.59728 0.26525
 N3427 N 1.11003 0.59022 0.28111
 C3428 C 1.09136 0.59069 0.28473
 N3429 N 1.07980 0.59852 0.27178
 N3430 N 1.08665 0.60562 0.25591
 C3431 C 1.08383 0.58295 0.30250
 C3432 C 1.06441 0.58196 0.30566
 C3433 C 1.05740 0.57481 0.32251
 C3434 C 1.06965 0.56853 0.33661
 C3435 C 1.08906 0.56950 0.33342
 C3436 C 1.09606 0.57658 0.31657
 H3437 H 1.08669 0.62432 0.22477
 H3438 H 1.09925 0.63714 0.19607
 H3439 H 1.15458 0.61760 0.21208
 H3440 H 1.14156 0.60408 0.24006
 H3441 H 1.05458 0.58666 0.29510
 H3442 H 1.04237 0.57403 0.32445
 H3443 H 1.09889 0.56509 0.34411
 H3444 H 1.11110 0.57721 0.31467
 C3445 C 0.61274 1.11309 0.23477
 C3446 C 0.63221 1.11486 0.23233
 C3447 C 0.63955 1.12233 0.21579
 C3448 C 0.62762 1.12819 0.20127
 C3449 C 0.60815 1.12645 0.20368
 C3450 C 0.60079 1.11897 0.22024
 C3451 C 0.60504 1.10521 0.25240
 N3452 N 0.58625 1.10357 0.25503
 N3453 N 0.57941 1.09656 0.27093
 C3454 C 0.59106 1.09088 0.28488
 N3455 N 0.60983 1.09251 0.28223
 N3456 N 0.61667 1.09951 0.26634
 C3457 C 0.58352 1.08319 0.30266
 C3458 C 0.59574 1.07747 0.31703
 C3459 C 0.58871 1.07038 0.33387
 C3460 C 0.56931 1.06884 0.33677
 C3461 C 0.55706 1.07451 0.32242
 C3462 C 0.56409 1.08159 0.30555
 H3463 H 0.64185 1.11056 0.24323
 H3464 H 0.65460 1.12377 0.21449
 H3465 H 0.59862 1.13067 0.19266
 H3466 H 0.58573 1.11777 0.22162
 H3467 H 0.61077 1.07854 0.31534
 H3468 H 0.59850 1.06641 0.34476
 H3469 H 0.54204 1.07330 0.32419
 H3470 H 0.55427 1.08583 0.29479
 C3471 C 0.61338 0.61312 0.73534
 C3472 C 0.63286 0.61473 0.73286
 C3473 C 0.64022 0.62222 0.71634
 C3474 C 0.62830 0.62829 0.70189
 C3475 C 0.60883 0.62671 0.70434
 C3476 C 0.60144 0.61920 0.72088
 C3477 C 0.60563 0.60522 0.75295
 N3478 N 0.58684 0.60369 0.75557
 N3479 N 0.57995 0.59666 0.77145
 C3480 C 0.59157 0.59086 0.78538
 N3481 N 0.61035 0.59238 0.78273
 N3482 N 0.61723 0.59940 0.76687
 C3483 C 0.58398 0.58315 0.80313
 C3484 C 0.59615 0.57735 0.81750
 C3485 C 0.58907 0.57025 0.83431
 C3486 C 0.56965 0.56875 0.83717
 C3487 C 0.55745 0.57449 0.82281
 C3488 C 0.56453 0.58160 0.80597
 H3489 H 0.64248 0.61027 0.74370
 H3490 H 0.65528 0.62352 0.71499
 H3491 H 0.59930 0.63108 0.69338
 H3492 H 0.58637 0.61814 0.72230
 H3493 H 0.61119 0.57838 0.81584
 H3494 H 0.59882 0.56621 0.84521
 H3495 H 0.54242 0.57333 0.82455
 H3496 H 0.55475 0.58589 0.79520
 C3497 C 0.88664 0.88732 0.73519
 C3498 C 0.86717 0.88577 0.73264
 C3499 C 0.85984 0.87839 0.71606
 C3500 C 0.87179 0.87238 0.70161
 C3501 C 0.89126 0.87395 0.70411
 C3502 C 0.89861 0.88134 0.72071
 C3503 C 0.89436 0.89502 0.75290
 N3504 N 0.91315 0.89647 0.75558
 N3505 N 0.92002 0.90330 0.77155
 C3506 C 0.90839 0.90897 0.78552
 N3507 N 0.88961 0.90754 0.78282
 N3508 N 0.88274 0.90072 0.76686
 C3509 C 0.91597 0.91648 0.80337
 C3510 C 0.90378 0.92216 0.81778
 C3511 C 0.91084 0.92914 0.83465
 C3512 C 0.93026 0.93063 0.83753
 C3513 C 0.94247 0.92497 0.82315
 C3514 C 0.93541 0.91798 0.80625
 H3515 H 0.85752 0.89017 0.74350
 H3516 H 0.84478 0.87711 0.71466
 H3517 H 0.90082 0.86963 0.69314
 H3518 H 0.91367 0.88237 0.72217
 H3519 H 0.88874 0.92115 0.81610
 H3520 H 0.90107 0.93312 0.84557
 H3521 H 0.95750 0.92612 0.82490
 H3522 H 0.94520 0.91377 0.79545
 C3523 C 0.88676 0.38626 0.23552
 C3524 C 0.88510 0.36678 0.23303
 C3525 C 0.87765 0.35943 0.21649
 C3526 C 0.87169 0.37136 0.20202
 C3527 C 0.87334 0.39084 0.20446
 C3528 C 0.88081 0.39820 0.22102
 C3529 C 0.89457 0.39399 0.25316
 N3530 N 0.89619 0.41279 0.25575
 N3531 N 0.90313 0.41969 0.27166
 C3532 C 0.90875 0.40807 0.28567
 N3533 N 0.90714 0.38929 0.28306
 N3534 N 0.90021 0.38240 0.26716
 C3535 C 0.91637 0.41568 0.30345
 C3536 C 0.92195 0.40352 0.31792
 C3537 C 0.92901 0.41061 0.33474
 C3538 C 0.93068 0.43003 0.33752
 C3539 C 0.92514 0.44222 0.32307
 C3540 C 0.91808 0.43512 0.30622
 H3541 H 0.88948 0.35714 0.24391
 H3542 H 0.87630 0.34437 0.21514
 H3543 H 0.86904 0.40038 0.19347
 H3544 H 0.88191 0.41327 0.22243
 H3545 H 0.92078 0.38847 0.31633
 H3546 H 0.93288 0.40087 0.34572
 H3547 H 0.92645 0.45725 0.32474
 H3548 H 0.91396 0.44490 0.29537
 C3549 C 0.38780 0.88661 0.23486
 C3550 C 0.38644 0.86712 0.23220
 C3551 C 0.37899 0.85981 0.21564
 C3552 C 0.37272 0.87178 0.20132
 C3553 C 0.37412 0.89125 0.20392
 C3554 C 0.38159 0.89859 0.22049
 C3555 C 0.39552 0.89431 0.25256
 N3556 N 0.39687 0.91311 0.25530
 N3557 N 0.40369 0.91997 0.27129
 C3558 C 0.40943 0.90832 0.28521
 N3559 N 0.40810 0.88954 0.28244
 N3560 N 0.40130 0.88268 0.26648
 C3561 C 0.41690 0.91589 0.30308
 C3562 C 0.42251 0.90369 0.31750
 C3563 C 0.42944 0.91074 0.33440
 C3564 C 0.43094 0.93015 0.33730
 C3565 C 0.42535 0.94238 0.32291
 C3566 C 0.41841 0.93533 0.30598
 H3567 H 0.39103 0.85747 0.24296
 H3568 H 0.37784 0.84474 0.21418
 H3569 H 0.36959 0.90082 0.19305
 H3570 H 0.38247 0.91366 0.22203
 H3571 H 0.42149 0.88864 0.31581
 H3572 H 0.43335 0.90096 0.34533
 H3573 H 0.42652 0.95741 0.32467
 H3574 H 0.41425 0.94513 0.29518
 C3575 C 0.38680 0.38686 0.73511
 C3576 C 0.36768 0.38878 0.73095
 C3577 C 0.36022 0.38138 0.71444
 C3578 C 0.37163 0.37168 0.70147
 C3579 C 0.39088 0.36984 0.70579
 C3580 C 0.39832 0.37736 0.72230
 C3581 C 0.39456 0.39460 0.75277
 N3582 N 0.41325 0.39403 0.75634
 N3583 N 0.42014 0.40092 0.77229
 C3584 C 0.40863 0.40863 0.78535
 N3585 N 0.38995 0.40920 0.78176
 N3586 N 0.38307 0.40235 0.76582
 C3587 C 0.41619 0.41617 0.80318
 C3588 C 0.40399 0.42247 0.81732
 C3589 C 0.41103 0.42947 0.83419
 C3590 C 0.43044 0.43043 0.83733
 C3591 C 0.44267 0.42416 0.82320
 C3592 C 0.43562 0.41709 0.80633
 H3593 H 0.35833 0.39591 0.74056
 H3594 H 0.34526 0.38265 0.71246
 H3595 H 0.40055 0.36323 0.69618
 H3596 H 0.41316 0.37573 0.72498
 H3597 H 0.38895 0.42187 0.81544
 H3598 H 0.40122 0.43386 0.84491
 H3599 H 0.45770 0.42492 0.82512
 H3600 H 0.44543 0.41243 0.79572
 C3601 C 1.11264 0.88686 1.26514
 C3602 C 1.11045 0.86778 1.26938
 C3603 C 1.11793 0.86025 1.28582
 C3604 C 1.12799 0.87154 1.29862
 C3605 C 1.13004 0.89076 1.29425
 C3606 C 1.12243 0.89828 1.27782
 C3607 C 1.10492 0.89470 1.24751
 N3608 N 1.10571 0.91339 1.24392
 N3609 N 1.09890 0.92035 1.22798
 C3610 C 1.09105 0.90891 1.21493
 N3611 N 1.09026 0.89024 1.21853
 N3612 N 1.09703 0.88329 1.23447
 C3613 C 1.08362 0.91656 1.19708
 C3614 C 1.07733 0.90442 1.18290
 C3615 C 1.07043 0.91152 1.16602
 C3616 C 1.06954 0.93096 1.16292
 C3617 C 1.07582 0.94312 1.17710
 C3618 C 1.08280 0.93601 1.19398
 H3619 H 1.10308 0.85853 1.25988
 H3620 H 1.11644 0.84531 1.28787
 H3621 H 1.13691 0.90036 1.30375
 H3622 H 1.12427 0.91309 1.27508
 H3623 H 1.07787 0.88936 1.18473
 H3624 H 1.06604 0.90176 1.15526
 H3625 H 1.07512 0.95817 1.17523
 H3626 H 1.08746 0.94576 1.20463
 C3627 C 1.11157 0.38682 0.76536
 C3628 C 1.11299 0.36733 0.76792
 C3629 C 1.12044 0.35996 0.78446
 C3630 C 1.12665 0.37189 0.79884
 C3631 C 1.12515 0.39137 0.79635
 C3632 C 1.11769 0.39876 0.77980
 C3633 C 1.10392 0.39458 0.74765
 N3634 N 1.10261 0.41339 0.74497
 N3635 N 1.09588 0.42030 0.72898
 C3636 C 1.09019 0.40871 0.71498
 N3637 N 1.09148 0.38991 0.71769
 N3638 N 1.09820 0.38300 0.73367
 C3639 C 1.08281 0.41634 0.69711
 C3640 C 1.07718 0.40418 0.68265
 C3641 C 1.07032 0.41129 0.66575
 C3642 C 1.06888 0.43072 0.66289
 C3643 C 1.07451 0.44290 0.67731
 C3644 C 1.08139 0.43579 0.69424
 H3645 H 1.10847 0.35770 0.75710
 H3646 H 1.12165 0.34490 0.78585
 H3647 H 1.12963 0.40092 0.80727
 H3648 H 1.11676 0.41383 0.77834
 H3649 H 1.07815 0.38913 0.68431
 H3650 H 1.06638 0.40154 0.65480
 H3651 H 1.07340 0.45793 0.67558
 H3652 H 1.08556 0.44556 0.70508
 C3653 C 0.61337 0.88777 0.76487
 C3654 C 0.63285 0.88625 0.76741
 C3655 C 0.64019 0.87874 0.78393
 C3656 C 0.62825 0.87257 0.79832
 C3657 C 0.60878 0.87410 0.79582
 C3658 C 0.60141 0.88163 0.77929
 C3659 C 0.60564 0.89560 0.74723
 N3660 N 0.58684 0.89704 0.74457
 N3661 N 0.57996 0.90397 0.72865
 C3662 C 0.59158 0.90975 0.71471
 N3663 N 0.61036 0.90832 0.71740
 N3664 N 0.61724 0.90140 0.73330
 C3665 C 0.58398 0.91734 0.69691
 C3666 C 0.59616 0.92306 0.68251
 C3667 C 0.58908 0.93007 0.66566
 C3668 C 0.56966 0.93157 0.66280
 C3669 C 0.55746 0.92589 0.67719
 C3670 C 0.56454 0.91886 0.69406
 H3671 H 0.64249 0.89077 0.75660
 H3672 H 0.65525 0.87749 0.78532
 H3673 H 0.59922 0.86965 0.80675
 H3674 H 0.58635 0.88263 0.77784
 H3675 H 0.61120 0.92203 0.68416
 H3676 H 0.59883 0.93405 0.65474
 H3677 H 0.54243 0.92705 0.67546
 H3678 H 0.55476 0.91464 0.70486
 C3679 C 0.61151 0.38743 1.26561
 C3680 C 0.60957 0.36833 1.26984
 C3681 C 0.61706 0.36092 1.28634
 C3682 C 0.62688 0.37237 1.29919
 C3683 C 0.62866 0.39162 1.29481
 C3684 C 0.62105 0.39900 1.27834
 C3685 C 0.60379 0.39516 1.24792
 N3686 N 0.60441 0.41385 1.24430
 N3687 N 0.59763 0.42071 1.22832
 C3688 C 0.58997 0.40918 1.21524
 N3689 N 0.58934 0.39050 1.21887
 N3690 N 0.59608 0.38365 1.23486
 C3691 C 0.58258 0.41673 1.19734
 C3692 C 0.57640 0.40452 1.18316
 C3693 C 0.56957 0.41154 1.16622
 C3694 C 0.56866 0.43096 1.16305
 C3695 C 0.57481 0.44320 1.17722
 C3696 C 0.58172 0.43616 1.19417
 H3697 H 0.60239 0.35896 1.26030
 H3698 H 0.61578 0.34596 1.28840
 H3699 H 0.63532 0.40133 1.30435
 H3700 H 0.62268 0.41384 1.27560
 H3701 H 0.57697 0.38947 1.18506
 H3702 H 0.56527 0.40173 1.15547
 H3703 H 0.57409 0.45823 1.17530
 H3704 H 0.58629 0.44597 1.20480
 C3705 C 0.88814 1.11351 1.26512
 C3706 C 0.87844 1.10195 1.27772
 C3707 C 0.87079 1.10931 1.29420
 C3708 C 0.87270 1.12852 1.29870
 C3709 C 0.88266 1.13996 1.28596
 C3710 C 0.89018 1.13258 1.26946
 C3711 C 0.89594 1.10582 1.24744
 N3712 N 0.90374 1.11736 1.23446
 N3713 N 0.91058 1.11054 1.21849
 C3714 C 0.90994 1.09188 1.21480
 N3715 N 0.90219 1.08032 1.22780
 N3716 N 0.89532 1.08715 1.24377
 C3717 C 0.91742 1.08436 1.19692
 C3718 C 0.91835 1.06493 1.19374
 C3719 C 0.92529 1.05792 1.17680
 C3720 C 0.93141 1.07017 1.16263
 C3721 C 0.93047 1.08959 1.16582
 C3722 C 0.92360 1.09659 1.18276
 H3723 H 0.87671 1.08714 1.27489
 H3724 H 0.86399 1.09961 1.30365
 H3725 H 0.88403 1.15490 1.28810
 H3726 H 0.89749 1.14195 1.26001
 H3727 H 0.91378 1.05510 1.20436
 H3728 H 0.92605 1.04289 1.17486
 H3729 H 0.93475 1.09941 1.15508
 H3730 H 0.92299 1.11163 1.18467
 C3731 C 0.88758 0.61387 0.76461
 C3732 C 0.88601 0.63335 0.76721
 C3733 C 0.87849 0.64064 0.78375
 C3734 C 0.87235 0.62865 0.79811
 C3735 C 0.87393 0.60918 0.79556
 C3736 C 0.88147 0.60187 0.77901
 C3737 C 0.89541 0.60619 0.74695
 N3738 N 0.89690 0.58740 0.74425
 N3739 N 0.90383 0.58055 0.72831
 C3740 C 0.90957 0.59221 0.71439
 N3741 N 0.90810 0.61099 0.71711
 N3742 N 0.90118 0.61783 0.73304
 C3743 C 0.91715 0.58465 0.69656
 C3744 C 0.92282 0.59685 0.68216
 C3745 C 0.92981 0.58979 0.66529
 C3746 C 0.93132 0.57037 0.66239
 C3747 C 0.92570 0.55815 0.67678
 C3748 C 0.91871 0.56521 0.69368
 H3749 H 0.89051 0.64302 0.75642
 H3750 H 0.87720 0.65569 0.78517
 H3751 H 0.86951 0.59960 0.80647
 H3752 H 0.88250 0.58681 0.77752
 H3753 H 0.92177 0.61189 0.68384
 H3754 H 0.93375 0.59956 0.65436
 H3755 H 0.92688 0.54312 0.67503
 H3756 H 0.91452 0.55540 0.70448
 C3757 C 0.38838 1.11377 0.76500
 C3758 C 0.38214 1.10175 0.77934
 C3759 C 0.37462 1.10905 0.79590
 C3760 C 0.37319 1.12852 0.79852
 C3761 C 0.37950 1.14053 0.78425
 C3762 C 0.38700 1.13324 0.76770
 C3763 C 0.39611 1.10610 0.74729
 N3764 N 0.40189 1.11775 0.73339
 N3765 N 0.40868 1.11092 0.71740
 C3766 C 0.41000 1.09214 0.71460
 N3767 N 0.40426 1.08047 0.72851
 N3768 N 0.39745 1.08731 0.74451
 C3769 C 0.41743 1.08461 0.69670
 C3770 C 0.41894 1.06517 0.69377
 C3771 C 0.42582 1.05814 0.67682
 C3772 C 0.43137 1.07038 0.66242
 C3773 C 0.42989 1.08980 0.66536
 C3774 C 0.42301 1.09682 0.68229
 H3775 H 0.38303 1.08669 0.77777
 H3776 H 0.37006 1.09946 0.80674
 H3777 H 0.37834 1.15558 0.78574
 H3778 H 0.39161 1.14292 0.75696
 H3779 H 0.41481 1.05535 0.70458
 H3780 H 0.42699 1.04311 0.67503
 H3781 H 0.43377 1.09959 0.65443
 H3782 H 0.42199 1.11187 0.68400
 C3783 C 0.38821 0.61344 1.26543
 C3784 C 0.39042 0.63249 1.26981
 C3785 C 0.38294 0.63991 1.28631
 C3786 C 0.37284 0.62853 1.29901
 C3787 C 0.37080 0.60934 1.29450
 C3788 C 0.37841 0.60194 1.27802
 C3789 C 0.39591 0.60572 1.24772
 N3790 N 0.39512 0.58705 1.24401
 N3791 N 0.40187 0.58020 1.22800
 C3792 C 0.40966 0.59172 1.21499
 N3793 N 0.41046 0.61037 1.21872
 N3794 N 0.40375 0.61722 1.23473
 C3795 C 0.41700 0.58418 1.19706
 C3796 C 0.42318 0.59640 1.18289
 C3797 C 0.42996 0.58939 1.16592
 C3798 C 0.43082 0.56997 1.16271
 C3799 C 0.42468 0.55773 1.17688
 C3800 C 0.41782 0.56475 1.19385
 H3801 H 0.39781 0.64180 1.26038
 H3802 H 0.38443 0.65483 1.28848
 H3803 H 0.36392 0.59968 1.30393
 H3804 H 0.37657 0.58715 1.27517
 H3805 H 0.42265 0.61145 1.18482
 H3806 H 0.43426 0.59921 1.15518
 H3807 H 0.42538 0.54269 1.17492
 H3808 H 0.41325 0.55494 1.20447
 C3809 C 1.11306 1.26519 0.88797
 C3810 C 1.13215 1.26946 0.88993
 C3811 C 1.13953 1.28603 0.88254
 C3812 C 1.12805 1.29890 0.87279
 C3813 C 1.10882 1.29449 0.87100
 C3814 C 1.10147 1.27796 0.87851
 C3815 C 1.10537 1.24744 0.89557
 N3816 N 1.08669 1.24381 0.89496
 N3817 N 1.07985 1.22776 0.90163
 C3818 C 1.09141 1.21464 0.90917
 N3819 N 1.11008 1.21829 0.90979
 N3820 N 1.11690 1.23434 0.90315
 C3821 C 1.08388 1.19669 0.91645
 C3822 C 1.09611 1.18247 0.92248
 C3823 C 1.08909 1.16550 0.92926
 C3824 C 1.06968 1.16234 0.93027
 C3825 C 1.05743 1.17655 0.92425
 C3826 C 1.06445 1.19352 0.91740
 H3827 H 1.14154 1.25991 0.89705
 H3828 H 1.15448 1.28812 0.88383
 H3829 H 1.09909 1.30404 0.86439
 H3830 H 1.08664 1.27519 0.87687
 H3831 H 1.11114 1.18436 0.92185
 H3832 H 1.09892 1.15472 0.93346
 H3833 H 1.04240 1.17463 0.92506
 H3834 H 1.05463 1.20419 0.91293
 C3835 C 1.11407 0.76432 0.38652
 C3836 C 1.13319 0.76851 0.38842
 C3837 C 1.14061 0.78503 0.38099
 C3838 C 1.12916 0.79795 0.37126
 C3839 C 1.10992 0.79358 0.36945
 C3840 C 1.10252 0.77708 0.37701
 C3841 C 1.10632 0.74666 0.39430
 N3842 N 1.08762 0.74312 0.39379
 N3843 N 1.08072 0.72719 0.40069
 C3844 C 1.09223 0.71411 0.40835
 N3845 N 1.11092 0.71767 0.40886
 N3846 N 1.11781 0.73360 0.40200
 C3847 C 1.08464 0.69629 0.41590
 C3848 C 1.09680 0.68210 0.42210
 C3849 C 1.08972 0.66523 0.42907
 C3850 C 1.07030 0.66216 0.43010
 C3851 C 1.05811 0.67636 0.42394
 C3852 C 1.06520 0.69322 0.41690
 H3853 H 1.14255 0.75894 0.39556
 H3854 H 1.15556 0.78707 0.38227
 H3855 H 1.10022 0.80315 0.36283
 H3856 H 1.08768 0.77436 0.37539
 H3857 H 1.11185 0.68392 0.42144
 H3858 H 1.09950 0.65446 0.43338
 H3859 H 1.04307 0.67451 0.42475
 H3860 H 1.05542 0.70388 0.41231
 C3861 C 0.61350 1.26504 0.38731
 C3862 C 0.63298 1.26764 0.38579
 C3863 C 0.64027 1.28426 0.37845
 C3864 C 0.62829 1.29868 0.37245
 C3865 C 0.60883 1.29614 0.37404
 C3866 C 0.60151 1.27951 0.38140
 C3867 C 0.60579 1.24728 0.39489
 N3868 N 0.58699 1.24458 0.39630
 N3869 N 0.58011 1.22856 0.40298
 C3870 C 0.59173 1.21454 0.40854
 N3871 N 0.61052 1.21725 0.40715
 N3872 N 0.61739 1.23326 0.40047
 C3873 C 0.58413 1.19664 0.41590
 C3874 C 0.59629 1.18218 0.42148
 C3875 C 0.58920 1.16529 0.42837
 C3876 C 0.56978 1.16244 0.42988
 C3877 C 0.55759 1.17685 0.42429
 C3878 C 0.56468 1.19378 0.41739
 H3879 H 0.64264 1.25679 0.39016
 H3880 H 0.65533 1.28569 0.37716
 H3881 H 0.59924 1.30709 0.36975
 H3882 H 0.58645 1.27802 0.38242
 H3883 H 0.61133 1.18384 0.42046
 H3884 H 0.59895 1.15434 0.43228
 H3885 H 0.54256 1.17513 0.42546
 H3886 H 0.55490 1.20461 0.41326
 C3887 C 0.61323 0.76438 0.88638
 C3888 C 0.63270 0.76691 0.88481
 C3889 C 0.64004 0.78350 0.87746
 C3890 C 0.62810 0.79798 0.87152
 C3891 C 0.60863 0.79547 0.87305
 C3892 C 0.60127 0.77886 0.88041
 C3893 C 0.60551 0.74671 0.89417
 N3894 N 0.58672 0.74405 0.89571
 N3895 N 0.57987 0.72814 0.90266
 C3896 C 0.59151 0.71420 0.90839
 N3897 N 0.61029 0.71688 0.90686
 N3898 N 0.61714 0.73278 0.89991
 C3899 C 0.58395 0.69641 0.91605
 C3900 C 0.59615 0.68204 0.92179
 C3901 C 0.58910 0.66521 0.92888
 C3902 C 0.56969 0.66233 0.93042
 C3903 C 0.55747 0.67669 0.92472
 C3904 C 0.56451 0.69354 0.91763
 H3905 H 0.64234 0.75605 0.88919
 H3906 H 0.65510 0.78489 0.87620
 H3907 H 0.59908 0.80646 0.86876
 H3908 H 0.58620 0.77741 0.88144
 H3909 H 0.61119 0.68371 0.92072
 H3910 H 0.59887 0.65431 0.93287
 H3911 H 0.54244 0.67494 0.92592
 H3912 H 0.55471 0.70432 0.91339
 C3913 C 0.88686 1.26487 1.11287
 C3914 C 0.88888 1.26908 1.13197
 C3915 C 0.88142 1.28555 1.13945
 C3916 C 0.87156 1.29843 1.12808
 C3917 C 0.86959 1.29403 1.10885
 C3918 C 0.87718 1.27757 1.10139
 C3919 C 0.89473 1.24728 1.10508
 N3920 N 0.89417 1.24371 1.08638
 N3921 N 0.90119 1.22784 1.07947
 C3922 C 0.90902 1.21484 1.09097
 N3923 N 0.90958 1.21843 1.10966
 N3924 N 0.90260 1.23430 1.11655
 C3925 C 0.91670 1.19708 1.08338
 C3926 C 0.92303 1.18295 1.09557
 C3927 C 0.93009 1.16612 1.08851
 C3928 C 0.93109 1.16301 1.06909
 C3929 C 0.92483 1.17714 1.05687
 C3930 C 0.91769 1.19398 1.06394
 H3931 H 0.89614 1.25955 1.14129
 H3932 H 0.88279 1.28759 1.15441
 H3933 H 0.86282 1.30357 1.09921
 H3934 H 0.87546 1.27483 1.08656
 H3935 H 0.92239 1.18480 1.11062
 H3936 H 0.93448 1.15540 1.09831
 H3937 H 0.92563 1.17526 1.04183
 H3938 H 0.91302 1.20458 1.05414
 C3939 C 0.88712 0.76494 0.61271
 C3940 C 0.86764 0.76741 0.61426
 C3941 C 0.86024 0.78394 0.62169
 C3942 C 0.87213 0.79842 0.62774
 C3943 C 0.89162 0.79598 0.62622
 C3944 C 0.89903 0.77943 0.61878
 C3945 C 0.89490 0.74732 0.60488
 N3946 N 0.91370 0.74471 0.60338
 N3947 N 0.92061 0.72882 0.59641
 C3948 C 0.90902 0.71486 0.59064
 N3949 N 0.89023 0.71748 0.59213
 N3950 N 0.88332 0.73336 0.59910
 C3951 C 0.91663 0.69710 0.58297
 C3952 C 0.90448 0.68268 0.57724
 C3953 C 0.91157 0.66588 0.57014
 C3954 C 0.93099 0.66306 0.56859
 C3955 C 0.94317 0.67745 0.57428
 C3956 C 0.93608 0.69429 0.58138
 H3957 H 0.85803 0.75654 0.60981
 H3958 H 0.84518 0.78528 0.62294
 H3959 H 0.90112 0.80697 0.63059
 H3960 H 0.91410 0.77803 0.61776
 H3961 H 0.88943 0.68431 0.57831
 H3962 H 0.90183 0.65494 0.56616
 H3963 H 0.95820 0.67575 0.57307
 H3964 H 0.94585 0.70510 0.58562
 C3965 C 0.38690 1.26508 0.61276
 C3966 C 0.39842 1.27784 0.62233
 C3967 C 0.39097 1.29429 0.62997
 C3968 C 0.37171 1.29860 0.62817
 C3969 C 0.36030 1.28566 0.61842
 C3970 C 0.36777 1.26921 0.61091
 C3971 C 0.39468 1.24749 0.60486
 N3972 N 0.38318 1.23446 0.59710
 N3973 N 0.39006 1.21859 0.59010
 C3974 C 0.40875 1.21506 0.59052
 N3975 N 0.42028 1.22811 0.59823
 N3976 N 0.41339 1.24398 0.60527
 C3977 C 0.41633 1.19729 0.58283
 C3978 C 0.43576 1.19424 0.58170
 C3979 C 0.44281 1.17740 0.57456
 C3980 C 0.43060 1.16321 0.56843
 C3981 C 0.41118 1.16627 0.56956
 C3982 C 0.40413 1.18311 0.57662
 H3983 H 0.41327 1.27516 0.62392
 H3984 H 0.40063 1.30387 0.63664
 H3985 H 0.34533 1.28763 0.61718
 H3986 H 0.35843 1.25963 0.60374
 H3987 H 0.44556 1.20488 0.58628
 H3988 H 0.45785 1.17556 0.57367
 H3989 H 0.40138 1.15551 0.56528
 H3990 H 0.38909 1.18492 0.57737
 C3991 C 0.38705 0.76543 1.11177
 C3992 C 0.39859 0.77819 1.12130
 C3993 C 0.39117 0.79466 1.12890
 C3994 C 0.37192 0.79900 1.12712
 C3995 C 0.36050 0.78611 1.11733
 C3996 C 0.36794 0.76962 1.10985
 C3997 C 0.39479 0.74776 1.10402
 N3998 N 0.38329 0.73470 1.09631
 N3999 N 0.39016 0.71873 1.08952
 C4000 C 0.40883 0.71512 1.09012
 N4001 N 0.42036 0.72820 1.09779
 N4002 N 0.41348 0.74417 1.10461
 C4003 C 0.41638 0.69724 1.08268
 C4004 C 0.43581 0.69408 1.08177
 C4005 C 0.44284 0.67715 1.07481
 C4006 C 0.43061 0.66299 1.06866
 C4007 C 0.41119 0.66615 1.06962
 C4008 C 0.40417 0.68307 1.07649
 H4009 H 0.41343 0.77548 1.12292
 H4010 H 0.40086 0.80423 1.13556
 H4011 H 0.34554 0.78813 1.11607
 H4012 H 0.35858 0.76006 1.10269
 H4013 H 0.44562 0.70471 1.08635
 H4014 H 0.45787 0.67523 1.07405
 H4015 H 0.40138 0.65540 1.06531
 H4016 H 0.38913 0.68496 1.07710
 C4017 C 0.88651 0.73527 0.88787
 C4018 C 0.86704 0.73280 0.88620
 C4019 C 0.85969 0.71629 0.87867
 C4020 C 0.87162 0.70184 0.87264
 C4021 C 0.89109 0.70425 0.87435
 C4022 C 0.89846 0.72078 0.88189
 C4023 C 0.89425 0.75292 0.89568
 N4024 N 0.91305 0.75555 0.89719
 N4025 N 0.91994 0.77148 0.90408
 C4026 C 0.90833 0.78547 0.90976
 N4027 N 0.88954 0.78282 0.90827
 N4028 N 0.88266 0.76690 0.90139
 C4029 C 0.91593 0.80329 0.91729
 C4030 C 0.90376 0.81772 0.92297
 C4031 C 0.91085 0.83459 0.92992
 C4032 C 0.93027 0.83745 0.93139
 C4033 C 0.94246 0.82305 0.92575
 C4034 C 0.93537 0.80615 0.91879
 H4035 H 0.85741 0.74367 0.89059
 H4036 H 0.84464 0.71497 0.87728
 H4037 H 0.90064 0.69327 0.87002
 H4038 H 0.91352 0.72218 0.88302
 H4039 H 0.88872 0.81606 0.92196
 H4040 H 0.90110 0.84553 0.93387
 H4041 H 0.95749 0.82478 0.92690
 H4042 H 0.94515 0.79533 0.91459
 C4043 C 0.88640 0.23540 0.38754
 C4044 C 0.86693 0.23291 0.38580
 C4045 C 0.85963 0.21639 0.37825
 C4046 C 0.87161 0.20195 0.37226
 C4047 C 0.89107 0.20439 0.37402
 C4048 C 0.89839 0.22092 0.38159
 C4049 C 0.89410 0.25304 0.39542
 N4050 N 0.91288 0.25564 0.39707
 N4051 N 0.91974 0.27156 0.40403
 C4052 C 0.90811 0.28555 0.40964
 N4053 N 0.88933 0.28292 0.40801
 N4054 N 0.88248 0.26702 0.40105
 C4055 C 0.91568 0.30335 0.41725
 C4056 C 0.90351 0.31782 0.42280
 C4057 C 0.91058 0.33467 0.42980
 C4058 C 0.92999 0.33749 0.43145
 C4059 C 0.94219 0.32303 0.42595
 C4060 C 0.93512 0.30615 0.41894
 H4061 H 0.85728 0.24376 0.39017
 H4062 H 0.84459 0.21504 0.37682
 H4063 H 0.90064 0.19343 0.36973
 H4064 H 0.91344 0.22234 0.38277
 H4065 H 0.88847 0.31620 0.42165
 H4066 H 0.90082 0.34565 0.43365
 H4067 H 0.95721 0.32473 0.42723
 H4068 H 0.94491 0.29530 0.41484
 C4069 C 0.38656 0.73515 0.38767
 C4070 C 0.36744 0.73096 0.38953
 C4071 C 0.36003 0.71448 0.38199
 C4072 C 0.37149 0.70161 0.37220
 C4073 C 0.39074 0.70597 0.37046
 C4074 C 0.39813 0.72243 0.37812
 C4075 C 0.39431 0.75278 0.39552
 N4076 N 0.41301 0.75633 0.39503
 N4077 N 0.41990 0.77224 0.40196
 C4078 C 0.40838 0.78531 0.40965
 N4079 N 0.38969 0.78175 0.41015
 N4080 N 0.38281 0.76583 0.40326
 C4081 C 0.41597 0.80314 0.41720
 C4082 C 0.40380 0.81734 0.42340
 C4083 C 0.41088 0.83423 0.43032
 C4084 C 0.43030 0.83731 0.43132
 C4085 C 0.44249 0.82310 0.42519
 C4086 C 0.43541 0.80621 0.41818
 H4087 H 0.35807 0.74050 0.39670
 H4088 H 0.34507 0.71244 0.38322
 H4089 H 0.40045 0.69643 0.36381
 H4090 H 0.41297 0.72515 0.37654
 H4091 H 0.38875 0.81551 0.42275
 H4092 H 0.40110 0.84501 0.43462
 H4093 H 0.45753 0.82495 0.42599
 H4094 H 0.44519 0.79556 0.41361
 C4095 C 0.38690 0.23471 0.88836
 C4096 C 0.36779 0.23049 0.89017
 C4097 C 0.36041 0.21401 0.88263
 C4098 C 0.37190 0.20115 0.87287
 C4099 C 0.39116 0.20551 0.87120
 C4100 C 0.39851 0.22198 0.87887
 C4101 C 0.39459 0.25238 0.89616
 N4102 N 0.41328 0.25599 0.89567
 N4103 N 0.42010 0.27197 0.90252
 C4104 C 0.40852 0.28504 0.91011
 N4105 N 0.38984 0.28142 0.91061
 N4106 N 0.38303 0.26544 0.90380
 C4107 C 0.41602 0.30295 0.91755
 C4108 C 0.40377 0.31714 0.92362
 C4109 C 0.41076 0.33410 0.93045
 C4110 C 0.43017 0.33727 0.93149
 C4111 C 0.44243 0.32307 0.92548
 C4112 C 0.43544 0.30611 0.91857
 H4113 H 0.35838 0.24003 0.89730
 H4114 H 0.34544 0.21197 0.88381
 H4115 H 0.40089 0.19597 0.86458
 H4116 H 0.41336 0.22471 0.87733
 H4117 H 0.38874 0.31525 0.92294
 H4118 H 0.40092 0.34486 0.93465
 H4119 H 0.45746 0.32500 0.92631
 H4120 H 0.44528 0.29546 0.91409
 C4121 C 1.11302 0.73574 1.11320
 C4122 C 1.13213 0.73157 1.11127
 C4123 C 1.13958 0.71505 1.11863
 C4124 C 1.12816 0.70207 1.12832
 C4125 C 1.10892 0.70641 1.13019
 C4126 C 1.10149 0.72293 1.12269
 C4127 C 1.10526 0.75340 1.10547
 N4128 N 1.08657 0.75698 1.10603
 N4129 N 1.07969 0.77292 1.09914
 C4130 C 1.09122 0.78598 1.09144
 N4131 N 1.10990 0.78239 1.09089
 N4132 N 1.11676 0.76645 1.09774
 C4133 C 1.08367 0.80381 1.08389
 C4134 C 1.09588 0.81793 1.07760
 C4135 C 1.08885 0.83480 1.07059
 C4136 C 1.06944 0.83795 1.06961
 C4137 C 1.05721 0.82382 1.07586
 C4138 C 1.06424 0.80695 1.08295
 H4139 H 1.14148 0.74118 1.10415
 H4140 H 1.15454 0.71305 1.11734
 H4141 H 1.09924 0.69681 1.13680
 H4142 H 1.08665 0.72563 1.12434
 H4143 H 1.11092 0.81606 1.07822
 H4144 H 1.09866 0.84552 1.06621
 H4145 H 1.04217 0.82573 1.07509
 H4146 H 1.05443 0.79636 1.08760
 C4147 C 1.11330 0.23537 0.61254
 C4148 C 1.13279 0.23284 0.61406
 C4149 C 1.14014 0.21625 0.62140
 C4150 C 1.12821 0.20178 0.62740
 C4151 C 1.10874 0.20425 0.62581
 C4152 C 1.10136 0.22085 0.61846
 C4153 C 1.10554 0.25310 0.60495
 N4154 N 1.08673 0.25574 0.60355
 N4155 N 1.07980 0.27173 0.59684
 C4156 C 1.09138 0.28577 0.59125
 N4157 N 1.11017 0.28312 0.59264
 N4158 N 1.11710 0.26714 0.59934
 C4159 C 1.08373 0.30363 0.58384
 C4160 C 1.09586 0.31811 0.57823
 C4161 C 1.08874 0.33496 0.57128
 C4162 C 1.06931 0.33776 0.56975
 C4163 C 1.05715 0.32333 0.57540
 C4164 C 1.06428 0.30644 0.58235
 H4165 H 1.14241 0.24372 0.60969
 H4166 H 1.15520 0.21487 0.62268
 H4167 H 1.09919 0.19327 0.63011
 H4168 H 1.08630 0.22229 0.61745
 H4169 H 1.11091 0.31649 0.57925
 H4170 H 1.09846 0.34592 0.56734
 H4171 H 1.04212 0.32502 0.57422
 H4172 H 1.05452 0.29559 0.58651
 C4173 C 0.61347 0.73583 0.61320
 C4174 C 0.63295 0.73333 0.61476
 C4175 C 0.64032 0.71676 0.62211
 C4176 C 0.62840 0.70227 0.62809
 C4177 C 0.60893 0.70473 0.62653
 C4178 C 0.60154 0.72132 0.61916
 C4179 C 0.60571 0.75352 0.60551
 N4180 N 0.58691 0.75615 0.60405
 N4181 N 0.58001 0.77209 0.59721
 C4182 C 0.59161 0.78609 0.59154
 N4183 N 0.61040 0.78344 0.59298
 N4184 N 0.61729 0.76751 0.59982
 C4185 C 0.58400 0.80390 0.58400
 C4186 C 0.59616 0.81832 0.57828
 C4187 C 0.58907 0.83515 0.57126
 C4188 C 0.56965 0.83799 0.56975
 C4189 C 0.55746 0.82361 0.57546
 C4190 C 0.56455 0.80674 0.58249
 H4191 H 0.64257 0.74422 0.61037
 H4192 H 0.65538 0.71541 0.62339
 H4193 H 0.59940 0.69373 0.63083
 H4194 H 0.58647 0.72274 0.61813
 H4195 H 0.61120 0.81666 0.57930
 H4196 H 0.59882 0.84607 0.56726
 H4197 H 0.54243 0.82533 0.57430
 H4198 H 0.55478 0.79594 0.58672
 C4199 C 0.61260 0.23516 1.11251
 C4200 C 0.63169 0.23095 1.11041
 C4201 C 0.63916 0.21441 1.11772
 C4202 C 0.62779 0.20148 1.12752
 C4203 C 0.60856 0.20584 1.12949
 C4204 C 0.60111 0.22237 1.12205
 C4205 C 0.60482 0.25288 1.10492
 N4206 N 0.58614 0.25647 1.10560
 N4207 N 0.57924 0.27247 1.09888
 C4208 C 0.59074 0.28558 1.09123
 N4209 N 0.60941 0.28197 1.09054
 N4210 N 0.61630 0.26597 1.09722
 C4211 C 0.58316 0.30347 1.08386
 C4212 C 0.59535 0.31766 1.07769
 C4213 C 0.58831 0.33457 1.07081
 C4214 C 0.56889 0.33768 1.06981
 C4215 C 0.55667 0.32351 1.07598
 C4216 C 0.56372 0.30660 1.08294
 H4217 H 0.64100 0.24054 1.10323
 H4218 H 0.65410 0.21237 1.11633
 H4219 H 0.59891 0.19625 1.13617
 H4220 H 0.58629 0.22509 1.12381
 H4221 H 0.61039 0.31580 1.07830
 H4222 H 0.59811 0.34532 1.06650
 H4223 H 0.54164 0.32541 1.07520
 H4224 H 0.55393 0.29595 1.08751
 C4225 C 1.26428 1.11326 0.88562
 C4226 C 1.26675 1.13275 0.88409
 C4227 C 1.28336 1.14016 0.87686
 C4228 C 1.29791 1.12828 0.87098
 C4229 C 1.29547 1.10880 0.87245
 C4230 C 1.27884 1.10136 0.87970
 C4231 C 1.24662 1.10547 0.89333
 N4232 N 1.24403 1.08666 0.89481
 N4233 N 1.22813 1.07972 0.90173
 C4234 C 1.21414 1.09130 0.90746
 N4235 N 1.21674 1.11010 0.90597
 N4236 N 1.23263 1.11702 0.89906
 C4237 C 1.19639 1.08366 0.91512
 C4238 C 1.18200 1.09580 0.92094
 C4239 C 1.16524 1.08868 0.92809
 C4240 C 1.16244 1.06925 0.92963
 C4241 C 1.17680 1.05708 0.92382
 C4242 C 1.19360 1.06420 0.91666
 H4243 H 1.25583 1.14235 0.88844
 H4244 H 1.28470 1.15523 0.87564
 H4245 H 1.30651 1.09929 0.86821
 H4246 H 1.27744 1.08629 0.88070
 H4247 H 1.18362 1.11085 0.91990
 H4248 H 1.15432 1.09841 0.93217
 H4249 H 1.17511 1.04205 0.92500
 H4250 H 1.20439 1.05444 0.91235
 C4251 C 1.26434 0.61321 0.38578
 C4252 C 1.26670 0.63270 0.38409
 C4253 C 1.28328 0.64015 0.37683
 C4254 C 1.29792 0.62831 0.37108
 C4255 C 1.29559 0.60882 0.37272
 C4256 C 1.27899 0.60135 0.38000
 C4257 C 1.24669 0.60537 0.39347
 N4258 N 1.24417 0.58656 0.39503
 N4259 N 1.22827 0.57959 0.40192
 C4260 C 1.21422 0.59113 0.40756
 N4261 N 1.21675 0.60993 0.40601
 N4262 N 1.23263 0.61690 0.39912
 C4263 C 1.19647 0.58346 0.41520
 C4264 C 1.18205 0.59557 0.42099
 C4265 C 1.16529 0.58843 0.42814
 C4266 C 1.16253 0.56899 0.42969
 C4267 C 1.17692 0.55685 0.42390
 C4268 C 1.19371 0.56400 0.41676
 H4269 H 1.25571 0.64226 0.38833
 H4270 H 1.28453 0.65521 0.37547
 H4271 H 1.30670 0.59934 0.36859
 H4272 H 1.27768 0.58627 0.38113
 H4273 H 1.18364 0.61062 0.41995
 H4274 H 1.15436 0.59814 0.43220
 H4275 H 1.17526 0.54181 0.42510
 H4276 H 1.20452 0.55426 0.41246
 C4277 C 0.76450 1.11291 0.38588
 C4278 C 0.76694 1.13240 0.38422
 C4279 C 0.78353 1.13979 0.37695
 C4280 C 0.79812 1.12790 0.37116
 C4281 C 0.79571 1.10841 0.37276
 C4282 C 0.77909 1.10100 0.38006
 C4283 C 0.74683 1.10516 0.39360
 N4284 N 0.74424 1.08636 0.39519
 N4285 N 0.72832 1.07947 0.40211
 C4286 C 0.71431 1.09108 0.40773
 N4287 N 0.71693 1.10987 0.40615
 N4288 N 0.73283 1.11675 0.39924
 C4289 C 0.69654 1.08350 0.41539
 C4290 C 0.68215 1.09569 0.42110
 C4291 C 0.66535 1.08864 0.42824
 C4292 C 0.66251 1.06922 0.42985
 C4293 C 0.67686 1.05700 0.42414
 C4294 C 0.69370 1.06406 0.41701
 H4295 H 0.75600 1.14200 0.38849
 H4296 H 0.78484 1.15485 0.37561
 H4297 H 0.80678 1.09891 0.36859
 H4298 H 0.77771 1.08593 0.38116
 H4299 H 0.68379 1.11074 0.42000
 H4300 H 0.65444 1.09841 0.43223
 H4301 H 0.67514 1.04197 0.42539
 H4302 H 0.70449 1.05426 0.41278
 C4303 C 0.76421 0.61309 0.88613
 C4304 C 0.77873 0.60119 0.88012
 C4305 C 0.79532 0.60862 0.87278
 C4306 C 0.79777 0.62811 0.87133
 C4307 C 0.78325 0.63999 0.87731
 C4308 C 0.76669 0.63258 0.88463
 C4309 C 0.74656 0.60530 0.89389
 N4310 N 0.73259 0.61687 0.89964
 N4311 N 0.71671 0.60996 0.90658
 C4312 C 0.71410 0.59116 0.90808
 N4313 N 0.72808 0.57957 0.90234
 N4314 N 0.74397 0.58650 0.89540
 C4315 C 0.69635 0.58353 0.91576
 C4316 C 0.69356 0.56409 0.91737
 C4317 C 0.67675 0.55698 0.92452
 C4318 C 0.66237 0.56916 0.93025
 C4319 C 0.66516 0.58858 0.92865
 C4320 C 0.68194 0.59569 0.92151
 H4321 H 0.77732 0.58611 0.88110
 H4322 H 0.80633 0.59912 0.86846
 H4323 H 0.78460 0.65506 0.87611
 H4324 H 0.75580 0.64218 0.88905
 H4325 H 0.70436 0.55432 0.91312
 H4326 H 0.67507 0.54195 0.92575
 H4327 H 0.65424 0.59832 0.93267
 H4328 H 0.68355 0.61074 0.92042
 C4329 C 1.26428 0.88670 1.11359
 C4330 C 1.27879 0.89864 1.11956
 C4331 C 1.29537 0.89124 1.12694
 C4332 C 1.29783 0.87176 1.12847
 C4333 C 1.28333 0.85985 1.12253
 C4334 C 1.26676 0.86722 1.11518
 C4335 C 1.24665 0.89446 1.10576
 N4336 N 1.23270 0.88287 1.10000
 N4337 N 1.21684 0.88977 1.09301
 C4338 C 1.21422 0.90856 1.09146
 N4339 N 1.22818 0.92016 1.09722
 N4340 N 1.24406 0.91326 1.10422
 C4341 C 1.19649 0.91618 1.08375
 C4342 C 1.19369 0.93563 1.08217
 C4343 C 1.17688 0.94273 1.07504
 C4344 C 1.16251 0.93056 1.06930
 C4345 C 1.16532 0.91113 1.07084
 C4346 C 1.18210 0.90402 1.07797
 H4347 H 1.27738 0.91371 1.11852
 H4348 H 1.30638 0.90077 1.13122
 H4349 H 1.28468 0.84478 1.12380
 H4350 H 1.25588 0.85760 1.11079
 H4351 H 1.20449 0.94540 1.08645
 H4352 H 1.17519 0.95777 1.07385
 H4353 H 1.15439 0.90139 1.06681
 H4354 H 1.18372 0.88897 1.07903
 C4355 C 1.26404 0.38621 0.61371
 C4356 C 1.26651 0.36672 0.61527
 C4357 C 1.28306 0.35933 0.62266
 C4358 C 1.29754 0.37123 0.62867
 C4359 C 1.29510 0.39072 0.62712
 C4360 C 1.27855 0.39813 0.61971
 C4361 C 1.24640 0.39400 0.60594
 N4362 N 1.24383 0.41281 0.60446
 N4363 N 1.22793 0.41975 0.59754
 C4364 C 1.21394 0.40818 0.59182
 N4365 N 1.21653 0.38938 0.59329
 N4366 N 1.23241 0.38245 0.60020
 C4367 C 1.19618 0.41584 0.58419
 C4368 C 1.18175 0.40373 0.57844
 C4369 C 1.16497 0.41087 0.57135
 C4370 C 1.16220 0.43031 0.56983
 C4371 C 1.17661 0.44245 0.57556
 C4372 C 1.19342 0.43530 0.58265
 H4373 H 1.25563 0.35711 0.61085
 H4374 H 1.28440 0.34427 0.62393
 H4375 H 1.30610 0.40024 0.63145
 H4376 H 1.27715 0.41320 0.61868
 H4377 H 1.18335 0.38867 0.57947
 H4378 H 1.15403 0.40116 0.56733
 H4379 H 1.17494 0.45749 0.57438
 H4380 H 1.20424 0.44505 0.58691
 C4381 C 0.76480 0.88717 0.61247
 C4382 C 0.77930 0.89910 0.61846
 C4383 C 0.79588 0.89170 0.62584
 C4384 C 0.79833 0.87222 0.62739
 C4385 C 0.78387 0.86030 0.62135
 C4386 C 0.76731 0.86768 0.61399
 C4387 C 0.74711 0.89493 0.60481
 N4388 N 0.73310 0.88335 0.59915
 N4389 N 0.71715 0.89026 0.59237
 C4390 C 0.71449 0.90905 0.59096
 N4391 N 0.72850 0.92065 0.59660
 N4392 N 0.74446 0.91374 0.60338
 C4393 C 0.69665 0.91666 0.58349
 C4394 C 0.69381 0.93611 0.58197
 C4395 C 0.67692 0.94320 0.57500
 C4396 C 0.66252 0.93101 0.56937
 C4397 C 0.66536 0.91159 0.57089
 C4398 C 0.68221 0.90450 0.57786
 H4399 H 0.77788 0.91417 0.61746
 H4400 H 0.80686 0.90123 0.63018
 H4401 H 0.78522 0.84524 0.62262
 H4402 H 0.75643 0.85806 0.60958
 H4403 H 0.70464 0.94589 0.58614
 H4404 H 0.67520 0.95824 0.57382
 H4405 H 0.65441 0.90184 0.56696
 H4406 H 0.68386 0.88945 0.57889
 C4407 C 0.76436 0.38684 1.11331
 C4408 C 0.76684 0.38513 1.13279
 C4409 C 0.78339 0.37771 1.14012
 C4410 C 0.79789 0.37182 1.12817
 C4411 C 0.79545 0.37351 1.10869
 C4412 C 0.77888 0.38095 1.10134
 C4413 C 0.74669 0.39462 1.10560
 N4414 N 0.74405 0.39618 1.08681
 N4415 N 0.72812 0.40310 1.07995
 C4416 C 0.71415 0.40875 1.09159
 N4417 N 0.71681 0.40720 1.11038
 N4418 N 0.73273 0.40029 1.11723
 C4419 C 0.69634 0.41635 1.08404
 C4420 C 0.68196 0.42206 1.09624
 C4421 C 0.66512 0.42912 1.08920
 C4422 C 0.66224 0.43065 1.06978
 C4423 C 0.67659 0.42496 1.05755
 C4424 C 0.69347 0.41791 1.06459
 H4425 H 0.75595 0.38945 1.14243
 H4426 H 0.78473 0.37632 1.15517
 H4427 H 0.80646 0.36928 1.09914
 H4428 H 0.77747 0.38210 1.08628
 H4429 H 0.68364 0.42102 1.11129
 H4430 H 0.65422 0.43310 1.09898
 H4431 H 0.67485 0.42615 1.04252
 H4432 H 0.70424 0.41368 1.05478
 C4433 C 0.73536 1.11361 1.11300
 C4434 C 0.73280 1.11516 1.13248
 C4435 C 0.71621 1.12252 1.13981
 C4436 C 0.70177 1.12850 1.12785
 C4437 C 0.70428 1.12695 1.10837
 C4438 C 0.72089 1.11957 1.10102
 C4439 C 0.75306 1.10588 1.10529
 N4440 N 0.75572 1.10436 1.08649
 N4441 N 0.77167 1.09748 1.07962
 C4442 C 0.78564 1.09185 1.09127
 N4443 N 0.78296 1.09337 1.11005
 N4444 N 0.76702 1.10023 1.11691
 C4445 C 0.80346 1.08428 1.08370
 C4446 C 0.81788 1.07866 1.09590
 C4447 C 0.83472 1.07161 1.08885
 C4448 C 0.83757 1.07000 1.06943
 C4449 C 0.82319 1.07560 1.05721
 C4450 C 0.80631 1.08265 1.06426
 H4451 H 0.74365 1.11077 1.14213
 H4452 H 0.71481 1.12380 1.15487
 H4453 H 0.69332 1.13125 1.09881
 H4454 H 0.72236 1.11854 1.08595
 H4455 H 0.81622 1.07977 1.11094
 H4456 H 0.84565 1.06770 1.09862
 H4457 H 0.82492 1.07434 1.04218
 H4458 H 0.79551 1.08680 1.05445
 C4459 C 0.73566 0.61348 0.61308
 C4460 C 0.73315 0.61498 0.63257
 C4461 C 0.71657 0.62229 0.63996
 C4462 C 0.70208 0.62828 0.62806
 C4463 C 0.70454 0.62676 0.60857
 C4464 C 0.72114 0.61943 0.60116
 C4465 C 0.75337 0.60585 0.60531
 N4466 N 0.75600 0.60438 0.58650
 N4467 N 0.77197 0.59761 0.57958
 C4468 C 0.78600 0.59203 0.59118
 N4469 N 0.78335 0.59349 0.60997
 N4470 N 0.76740 0.60025 0.61688
 C4471 C 0.80384 0.58455 0.58356
 C4472 C 0.81831 0.57899 0.59573
 C4473 C 0.83514 0.57198 0.58864
 C4474 C 0.83794 0.57033 0.56922
 C4475 C 0.82353 0.57591 0.55702
 C4476 C 0.80665 0.58293 0.56411
 H4477 H 0.74404 0.61060 0.64219
 H4478 H 0.71521 0.62355 0.65503
 H4479 H 0.69354 0.63108 0.59905
 H4480 H 0.72257 0.61843 0.58609
 H4481 H 0.81669 0.58011 0.61077
 H4482 H 0.84610 0.56809 0.59839
 H4483 H 0.82522 0.57464 0.54199
 H4484 H 0.79581 0.58705 0.55433
 C4485 C 0.23490 1.11229 0.61295
 C4486 C 0.22048 1.11837 0.60098
 C4487 C 0.20387 1.12575 0.60834
 C4488 C 0.20130 1.12718 0.62782
 C4489 C 0.21567 1.12101 0.63977
 C4490 C 0.23226 1.11366 0.63244
 C4491 C 0.25266 1.10472 0.60522
 N4492 N 0.26665 1.09910 0.61683
 N4493 N 0.28267 1.09243 0.60995
 C4494 C 0.28541 1.09110 0.59115
 N4495 N 0.27141 1.09670 0.57953
 N4496 N 0.25538 1.10337 0.58641
 C4497 C 0.30332 1.08376 0.58356
 C4498 C 0.30619 1.08221 0.56411
 C4499 C 0.32313 1.07534 0.55704
 C4500 C 0.33756 1.06983 0.56925
 C4501 C 0.33471 1.07141 0.58867
 C4502 C 0.31780 1.07827 0.59574
 H4503 H 0.22200 1.11748 0.58591
 H4504 H 0.19296 1.13019 0.59877
 H4505 H 0.21422 1.12218 0.65484
 H4506 H 0.24307 1.10916 0.64209
 H4507 H 0.29533 1.08627 0.55432
 H4508 H 0.32486 1.07411 0.54201
 H4509 H 0.34567 1.06757 0.59844
 H4510 H 0.31614 1.07934 0.61079
 C4511 C 0.23576 0.61438 1.11344
 C4512 C 0.23328 0.61592 1.13293
 C4513 C 0.21673 0.62327 1.14034
 C4514 C 0.20224 0.62927 1.12845
 C4515 C 0.20467 0.62775 1.10896
 C4516 C 0.22124 0.62037 1.10153
 C4517 C 0.25340 0.60664 1.10563
 N4518 N 0.25595 0.60510 1.08682
 N4519 N 0.27185 0.59819 1.07987
 C4520 C 0.28587 0.59252 1.09144
 N4521 N 0.28329 0.59405 1.11024
 N4522 N 0.26741 0.60095 1.11718
 C4523 C 0.30362 0.58488 1.08377
 C4524 C 0.31807 0.57921 1.09590
 C4525 C 0.33483 0.57207 1.08876
 C4526 C 0.33756 0.57040 1.06933
 C4527 C 0.32315 0.57607 1.05718
 C4528 C 0.30635 0.58322 1.06432
 H4529 H 0.24417 0.61150 1.14253
 H4530 H 0.21539 0.62452 1.15541
 H4531 H 0.19366 0.63207 1.09946
 H4532 H 0.22263 0.61936 1.08646
 H4533 H 0.31650 0.58034 1.11095
 H4534 H 0.34579 0.56810 1.09848
 H4535 H 0.32478 0.57479 1.04214
 H4536 H 0.29551 0.58743 1.05457
 C4537 C 0.73515 0.88687 0.88768
 C4538 C 0.72064 0.89882 0.88177
 C4539 C 0.70409 0.89144 0.87429
 C4540 C 0.70168 0.87197 0.87257
 C4541 C 0.71616 0.86004 0.87852
 C4542 C 0.73269 0.86739 0.88599
 C4543 C 0.75281 0.89461 0.89546
 N4544 N 0.76679 0.88301 0.90114
 N4545 N 0.78271 0.88990 0.90801
 C4546 C 0.78536 0.90869 0.90950
 N4547 N 0.77138 0.92030 0.90385
 N4548 N 0.75544 0.91341 0.89697
 C4549 C 0.80318 0.91628 0.91704
 C4550 C 0.80605 0.93573 0.91853
 C4551 C 0.82294 0.94282 0.92551
 C4552 C 0.83732 0.93062 0.93118
 C4553 C 0.83444 0.91119 0.92972
 C4554 C 0.81758 0.90411 0.92275
 H4555 H 0.72203 0.91388 0.88292
 H4556 H 0.69309 0.90098 0.87001
 H4557 H 0.71484 0.84498 0.87712
 H4558 H 0.74358 0.85776 0.89034
 H4559 H 0.79525 0.94552 0.91431
 H4560 H 0.82468 0.95785 0.92664
 H4561 H 0.84536 0.90144 0.93370
 H4562 H 0.81591 0.88906 0.92175
 C4563 C 0.73462 0.38863 0.38676
 C4564 C 0.73199 0.38723 0.36728
 C4565 C 0.71543 0.37980 0.35995
 C4566 C 0.70109 0.37358 0.37192
 C4567 C 0.70364 0.37505 0.39140
 C4568 C 0.72021 0.38251 0.39874
 C4569 C 0.75234 0.39628 0.39448
 N4570 N 0.75505 0.39766 0.41329
 N4571 N 0.77106 0.40438 0.42016
 C4572 C 0.78504 0.41001 0.40853
 N4573 N 0.78231 0.40866 0.38974
 N4574 N 0.76632 0.40194 0.38287
 C4575 C 0.80294 0.41739 0.41612
 C4576 C 0.81742 0.42288 0.40393
 C4577 C 0.83433 0.42975 0.41100
 C4578 C 0.83718 0.43133 0.43042
 C4579 C 0.82274 0.42584 0.44263
 C4580 C 0.80580 0.41896 0.43556
 H4581 H 0.74279 0.39176 0.35762
 H4582 H 0.71399 0.37860 0.34489
 H4583 H 0.69275 0.37058 0.40097
 H4584 H 0.72172 0.38342 0.41381
 H4585 H 0.81577 0.42180 0.38888
 H4586 H 0.84530 0.43357 0.40123
 H4587 H 0.82446 0.42707 0.45766
 H4588 H 0.79495 0.41490 0.44536
 C4589 C 0.23612 0.88631 0.38602
 C4590 C 0.22152 0.89820 0.38023
 C4591 C 0.20498 0.89078 0.37276
 C4592 C 0.20267 0.87130 0.37095
 C4593 C 0.21727 0.85943 0.37672
 C4594 C 0.23379 0.86683 0.38417
 C4595 C 0.25370 0.89409 0.39393
 N4596 N 0.26769 0.88253 0.39965
 N4597 N 0.28352 0.88946 0.40671
 C4598 C 0.28605 0.90825 0.40837
 N4599 N 0.27206 0.91983 0.40266
 N4600 N 0.25622 0.91290 0.39560
 C4601 C 0.30375 0.91589 0.41615
 C4602 C 0.30654 0.93535 0.41770
 C4603 C 0.32333 0.94248 0.42487
 C4604 C 0.33768 0.93032 0.43069
 C4605 C 0.33488 0.91089 0.42919
 C4606 C 0.31813 0.90376 0.42201
 H4607 H 0.22281 0.91327 0.38148
 H4608 H 0.19389 0.90028 0.36863
 H4609 H 0.21604 0.84437 0.37524
 H4610 H 0.24475 0.85724 0.38841
 H4611 H 0.29576 0.94510 0.41336
 H4612 H 0.32501 0.95752 0.42603
 H4613 H 0.34579 0.90117 0.43328
 H4614 H 0.31651 0.88871 0.42098
 C4615 C 0.23508 0.38747 0.88642
 C4616 C 0.22064 0.38143 0.89841
 C4617 C 0.20407 0.37397 0.89108
 C4618 C 0.20155 0.37238 0.87161
 C4619 C 0.21593 0.37848 0.85963
 C4620 C 0.23249 0.38593 0.86694
 C4621 C 0.25276 0.39520 0.89414
 N4622 N 0.26675 0.40087 0.88253
 N4623 N 0.28269 0.40770 0.88941
 C4624 C 0.28535 0.40917 0.90821
 N4625 N 0.27136 0.40353 0.91983
 N4626 N 0.25541 0.39670 0.91294
 C4627 C 0.30318 0.41668 0.91582
 C4628 C 0.30598 0.41830 0.93527
 C4629 C 0.32285 0.42529 0.94237
 C4630 C 0.33729 0.43086 0.93019
 C4631 C 0.33450 0.42925 0.91076
 C4632 C 0.31766 0.42226 0.90366
 H4633 H 0.22212 0.38245 0.91348
 H4634 H 0.19314 0.36959 0.90066
 H4635 H 0.21451 0.37720 0.84457
 H4636 H 0.24331 0.39038 0.85728
 H4637 H 0.29513 0.41417 0.94504
 H4638 H 0.32453 0.42654 0.95741
 H4639 H 0.34547 0.43314 0.90102
 H4640 H 0.31604 0.42115 0.88861
   
