data_POSCAR
  _audit_creation_date              2014-09-24
  _audit_creation_method            'ToBaCCo'
  _symmetry_space_group_name_H-M    'P1'
  _symmetry_Int_Tables_number       1
  _symmetry_cell_setting            triclinic
  loop_
  _symmetry_equiv_pos_as_xyz
 x,y,z
_cell_length_a 54.9902
_cell_length_b 54.8997
_cell_length_c 54.7957
_cell_angle_alpha 89.916300
_cell_angle_beta 89.985200
_cell_angle_gamma 89.934900
loop_
  _atom_site_label
  _atom_site_type_symbol
  _atom_site_fract_x
  _atom_site_fract_y
  _atom_site_fract_z
N1 N 0.36301 1.34862 0.29689
 N2 N 0.34606 1.36555 0.29742
 C3 C 0.35001 1.38148 0.27908
 C4 C 0.37051 1.37405 0.26656
 C5 C 0.37831 1.35318 0.27826
 H6 H 0.33899 1.39735 0.27524
 H7 H 0.39402 1.34226 0.27363
 Cu8 Cu 0.32093 1.36522 0.32246
 Cu9 Cu 0.36431 1.32214 0.32061
 Cu10 Cu 0.31917 1.32102 0.36484
 N11 N 0.29565 1.36442 0.34732
 N12 N 0.29506 1.34695 0.36378
 C13 C 0.27632 1.35085 0.37909
 C14 C 0.26464 1.37189 0.37183
 C15 C 0.27726 1.38007 0.35164
 H16 H 0.27177 1.33944 0.39452
 H17 H 0.27345 1.39635 0.34118
 N18 N 0.34516 1.29641 0.36296
 N19 N 0.36243 1.29687 0.34620
 C20 C 0.37787 1.27823 0.35031
 C21 C 0.36992 1.26563 0.37057
 C22 C 0.34917 1.27749 0.37812
 H23 H 0.39394 1.27424 0.33965
 H24 H 0.33809 1.27288 0.39376
 H25 H 0.32750 1.32164 0.32805
 H26 H 0.34699 1.34043 0.34858
 N27 N 0.36303 0.84810 0.79623
 N28 N 0.34545 0.86436 0.79587
 C29 C 0.34947 0.88016 0.77746
 C30 C 0.37065 0.87338 0.76582
 C31 C 0.37877 0.85297 0.77806
 H32 H 0.33800 0.89552 0.77295
 H33 H 0.39502 0.84259 0.77409
 Cu34 Cu 0.31924 0.86392 0.81969
 Cu35 Cu 0.36453 0.82230 0.82052
 Cu36 Cu 0.31974 0.82198 0.86486
 N37 N 0.29520 0.86404 0.84570
 N38 N 0.29541 0.84763 0.86321
 C39 C 0.27709 0.85227 0.87882
 C40 C 0.26492 0.87269 0.87069
 C41 C 0.27674 0.87971 0.84964
 H42 H 0.27299 0.84175 0.89500
 H43 H 0.27231 0.89516 0.83821
 N44 N 0.34592 0.79755 0.86355
 N45 N 0.36301 0.79769 0.84664
 C46 C 0.37839 0.77902 0.85079
 C47 C 0.37066 0.76675 0.87133
 C48 C 0.34998 0.77878 0.87892
 H49 H 0.39412 0.77462 0.83980
 H50 H 0.33882 0.77420 0.89450
 H51 H 0.32764 0.82094 0.82789
 H52 H 0.34639 0.84187 0.84712
 N53 N 0.86408 1.34718 0.79613
 N54 N 0.84702 1.36399 0.79636
 C55 C 0.85098 1.37975 0.77790
 C56 C 0.87160 1.37232 0.76560
 C57 C 0.87947 1.35164 0.77755
 H58 H 0.83992 1.39555 0.77387
 H59 H 0.89533 1.34083 0.77318
 Cu60 Cu 0.82178 1.36399 0.82125
 Cu61 Cu 0.86561 1.32120 0.82029
 Cu62 Cu 0.82083 1.32082 0.86483
 N63 N 0.79674 1.36355 0.84635
 N64 N 0.79649 1.34660 0.86335
 C65 C 0.77778 1.35078 0.87863
 C66 C 0.76577 1.37142 0.87078
 C67 C 0.77817 1.37910 0.85029
 H68 H 0.77335 1.33984 0.89444
 H69 H 0.77408 1.39496 0.83931
 N70 N 0.84701 1.29629 0.86329
 N71 N 0.86406 1.29644 0.84630
 C72 C 0.87956 1.27786 0.85047
 C73 C 0.87187 1.26556 0.87101
 C74 C 0.85124 1.27761 0.87869
 H75 H 0.89545 1.27372 0.83962
 H76 H 0.84037 1.27319 0.89453
 H77 H 0.82893 1.32065 0.82790
 H78 H 0.84838 1.34019 0.84776
 N79 N 0.86351 0.84706 0.29716
 N80 N 0.84656 0.86398 0.29726
 C81 C 0.85065 0.87959 0.27868
 C82 C 0.87125 0.87193 0.26646
 C83 C 0.87897 0.85130 0.27860
 H84 H 0.83965 0.89538 0.27447
 H85 H 0.89477 0.84035 0.27433
 Cu86 Cu 0.82119 0.86402 0.32203
 Cu87 Cu 0.86471 0.82106 0.32137
 Cu88 Cu 0.81898 0.82026 0.36487
 N89 N 0.79558 0.86338 0.34655
 N90 N 0.79463 0.84589 0.36295
 C91 C 0.77560 0.84980 0.37788
 C92 C 0.76407 0.87082 0.37041
 C93 C 0.77719 0.87911 0.35061
 H94 H 0.77088 0.83862 0.39344
 H95 H 0.77373 0.89553 0.34026
 N96 N 0.84528 0.79595 0.36391
 N97 N 0.86276 0.79630 0.34738
 C98 C 0.87832 0.77790 0.35198
 C99 C 0.87024 0.76554 0.37233
 C100 C 0.84927 0.77732 0.37945
 H101 H 0.89452 0.77388 0.34154
 H102 H 0.83801 0.77283 0.39498
 H103 H 0.82790 0.82057 0.32813
 H104 H 0.84701 0.83964 0.34874
 N105 N 0.63681 0.65444 0.29545
 N106 N 0.65449 0.63830 0.29503
 C107 C 0.65048 0.62255 0.27665
 C108 C 0.62927 0.62933 0.26502
 C109 C 0.62104 0.64959 0.27733
 H110 H 0.66191 0.60715 0.27218
 H111 H 0.60463 0.65981 0.27359
 Cu112 Cu 0.68090 0.63883 0.31865
 Cu113 Cu 0.63506 0.67986 0.31988
 Cu114 Cu 0.67870 0.67906 0.36526
 N115 N 0.70377 0.63754 0.34571
 N116 N 0.70288 0.65322 0.36381
 C117 C 0.72065 0.64797 0.37988
 C118 C 0.73325 0.62796 0.37139
 C119 C 0.72212 0.62174 0.34971
 H120 H 0.72416 0.65788 0.39655
 H121 H 0.72698 0.60680 0.33783
 N122 N 0.65276 0.70379 0.36356
 N123 N 0.63619 0.70412 0.34614
 C124 C 0.62076 0.72277 0.35013
 C125 C 0.62799 0.73461 0.37103
 C126 C 0.64828 0.72224 0.37912
 H127 H 0.60524 0.72726 0.33889
 H128 H 0.65878 0.72630 0.39529
 H129 H 0.67178 0.68134 0.32831
 H130 H 0.65287 0.65937 0.34627
 N131 N 0.63631 0.15224 0.79562
 N132 N 0.65400 0.13610 0.79501
 C133 C 0.65011 0.12066 0.77630
 C134 C 0.62891 0.12763 0.76469
 C135 C 0.62063 0.14769 0.77734
 H136 H 0.66171 0.10547 0.77155
 H137 H 0.60435 0.15811 0.77355
 Cu138 Cu 0.68022 0.13646 0.81891
 Cu139 Cu 0.63474 0.17781 0.82009
 Cu140 Cu 0.68001 0.17855 0.86380
 N141 N 0.70444 0.13635 0.84487
 N142 N 0.70429 0.15286 0.86224
 C143 C 0.72248 0.14815 0.87799
 C144 C 0.73458 0.12765 0.87007
 C145 C 0.72277 0.12056 0.84903
 H146 H 0.72645 0.15862 0.89421
 H147 H 0.72704 0.10491 0.83786
 N148 N 0.65386 0.20301 0.86254
 N149 N 0.63622 0.20234 0.84622
 C150 C 0.62047 0.22058 0.85080
 C151 C 0.62874 0.23337 0.87077
 C152 C 0.64991 0.22184 0.87779
 H153 H 0.60410 0.22430 0.84052
 H154 H 0.66123 0.22654 0.89321
 H155 H 0.67151 0.17931 0.82688
 H156 H 0.65314 0.15829 0.84648
 N157 N 1.13771 0.65279 0.79643
 N158 N 1.15468 0.63589 0.79678
 C159 C 1.15079 0.62023 0.77827
 C160 C 1.13032 0.62780 0.76582
 C161 C 1.12248 0.64847 0.77772
 H162 H 1.16172 0.60433 0.77434
 H163 H 1.10665 0.65930 0.77328
 Cu164 Cu 1.17958 0.63558 0.82194
 Cu165 Cu 1.13602 0.67857 0.82076
 Cu166 Cu 1.18021 0.67831 0.86586
 N167 N 1.20428 0.63566 0.84731
 N168 N 1.20435 0.65242 0.86444
 C169 C 1.22283 0.64803 0.87992
 C170 C 1.23488 0.62747 0.87207
 C171 C 1.22276 0.62002 0.85135
 H172 H 1.22710 0.65882 0.89585
 H173 H 1.22700 0.60430 0.84027
 N174 N 1.15421 0.70296 0.86417
 N175 N 1.13739 0.70307 0.84697
 C176 C 1.12202 0.72174 0.85104
 C177 C 1.12953 0.73382 0.87173
 C178 C 1.14996 0.72156 0.87962
 H179 H 1.10633 0.72617 0.83999
 H180 H 1.16072 0.72577 0.89557
 H181 H 1.17269 0.67891 0.82891
 H182 H 1.15288 0.65927 0.84840
 N183 N 1.13686 0.15310 0.29568
 N184 N 1.15395 0.13632 0.29644
 C185 C 1.15033 0.12036 0.27814
 C186 C 1.12995 0.12762 0.26538
 C187 C 1.12185 0.14841 0.27689
 H188 H 1.16136 0.10446 0.27456
 H189 H 1.10605 0.15913 0.27205
 Cu190 Cu 1.17848 0.13673 0.32195
 Cu191 Cu 1.13470 0.17922 0.31963
 Cu192 Cu 1.17848 0.17971 0.36536
 N193 N 1.20294 0.13698 0.34751
 N194 N 1.20283 0.15389 0.36449
 C195 C 1.22125 0.14973 0.38014
 C196 C 1.23342 0.12912 0.37254
 C197 C 1.22143 0.12146 0.35184
 H198 H 1.22543 0.16078 0.39592
 H199 H 1.22581 0.10565 0.34095
 N200 N 1.15229 0.20419 0.36299
 N201 N 1.13567 0.20407 0.34557
 C202 C 1.12010 0.22268 0.34931
 C203 C 1.12730 0.23493 0.37002
 C204 C 1.14768 0.22284 0.37824
 H205 H 1.10450 0.22685 0.33806
 H206 H 1.15814 0.22722 0.39435
 H207 H 1.17128 0.18020 0.32840
 H208 H 1.15144 0.16063 0.34780
 N209 N 0.63605 1.34540 0.70416
 N210 N 0.65259 1.36268 0.70389
 C211 C 0.64819 1.37816 0.72244
 C212 C 0.62787 1.37005 0.73480
 C213 C 0.62063 1.34924 0.72283
 H214 H 0.65866 1.39431 0.72651
 H215 H 0.60508 1.33799 0.72714
 Cu216 Cu 0.67760 1.36352 0.67872
 Cu217 Cu 0.63487 1.31987 0.67970
 Cu218 Cu 0.67936 1.32085 0.63486
 N219 N 0.70284 1.36369 0.65376
 N220 N 0.70332 1.34691 0.63665
 C221 C 0.72202 1.35139 0.62145
 C222 C 0.73381 1.37203 0.62945
 C223 C 0.72129 1.37942 0.64999
 H224 H 0.72660 1.34061 0.60559
 H225 H 0.72521 1.39517 0.66112
 N226 N 0.65351 1.29601 0.63625
 N227 N 0.63665 1.29563 0.65341
 C228 C 0.62128 1.27705 0.64906
 C229 C 0.62884 1.26533 0.62820
 C230 C 0.64928 1.27767 0.62052
 H231 H 0.60551 1.27261 0.65995
 H232 H 0.65996 1.27372 0.60443
 H233 H 0.67162 1.32015 0.67170
 H234 H 0.65156 1.33943 0.65208
 N235 N 0.63690 0.84683 1.20343
 N236 N 0.65510 0.86231 1.20440
 C237 C 0.65114 0.87817 1.22273
 C238 C 0.62935 0.87214 1.23370
 C239 C 0.62081 0.85223 1.22109
 H240 H 0.66313 0.89296 1.22769
 H241 H 0.60406 0.84249 1.22452
 Cu242 Cu 0.68228 0.86029 1.18176
 Cu243 Cu 0.63512 0.82112 1.17923
 Cu244 Cu 0.67956 0.82083 1.13465
 N245 N 0.70501 0.86189 1.15461
 N246 N 0.70394 0.84639 1.13636
 C247 C 0.72172 0.85156 1.12030
 C248 C 0.73451 0.87134 1.12894
 C249 C 0.72351 0.87750 1.15072
 H250 H 0.72513 0.84174 1.10355
 H251 H 0.72857 0.89222 1.16278
 N252 N 0.65334 0.79648 1.13612
 N253 N 0.63640 0.79657 1.15320
 C254 C 0.62089 0.77806 1.14912
 C255 C 0.62846 0.76587 1.12852
 C256 C 0.64903 0.77790 1.12071
 H257 H 0.60511 0.77387 1.16011
 H258 H 0.65986 0.77349 1.10484
 H259 H 0.67185 0.81831 1.17145
 H260 H 0.65408 0.84124 1.15347
 N261 N 1.13694 1.34740 1.20242
 N262 N 1.15550 1.36243 1.20357
 C263 C 1.15179 1.37838 1.22188
 C264 C 1.12978 1.37292 1.23268
 C265 C 1.12083 1.35320 1.21997
 H266 H 1.16415 1.39280 1.22699
 H267 H 1.10388 1.34381 1.22333
 Cu268 Cu 1.18285 1.35964 1.18128
 Cu269 Cu 1.13504 1.32147 1.17831
 Cu270 Cu 1.18017 1.32008 1.13434
 N271 N 1.20569 1.36109 1.15424
 N272 N 1.20481 1.34542 1.13614
 C273 C 1.22271 1.35050 1.12016
 C274 C 1.23531 1.37046 1.12871
 C275 C 1.22410 1.37676 1.15033
 H276 H 1.22617 1.34058 1.10348
 H277 H 1.22896 1.39169 1.16221
 N278 N 1.15362 1.29606 1.13567
 N279 N 1.13634 1.29665 1.15240
 C280 C 1.12063 1.27832 1.14820
 C281 C 1.12843 1.26573 1.12791
 C282 C 1.14936 1.27733 1.12040
 H283 H 1.10459 1.27444 1.15893
 H284 H 1.16049 1.27256 1.10486
 H285 H 1.17179 1.31781 1.17103
 H286 H 1.15475 1.34097 1.15267
 N287 N 1.13622 0.84640 0.70261
 N288 N 1.15415 0.86220 0.70349
 C289 C 1.15004 0.87788 0.72194
 C290 C 1.12849 0.87144 0.73314
 C291 C 1.12018 0.85141 0.72049
 H292 H 1.16173 0.89292 0.72684
 H293 H 1.10364 0.84135 0.72396
 Cu294 Cu 1.18119 0.86105 0.68051
 Cu295 Cu 1.13481 0.82082 0.67821
 Cu296 Cu 1.17975 0.82054 0.63412
 N297 N 1.20462 0.86197 0.65384
 N298 N 1.20407 0.84608 0.63592
 C299 C 1.22213 0.85104 0.62009
 C300 C 1.23456 0.87112 0.62854
 C301 C 1.22305 0.87765 0.64995
 H302 H 1.22581 0.84096 0.60356
 H303 H 1.22770 0.89279 0.66165
 N304 N 1.15361 0.79616 0.63530
 N305 N 1.13639 0.79635 0.65208
 C306 C 1.12093 0.77786 0.64776
 C307 C 1.12885 0.76555 0.62735
 C308 C 1.14958 0.77751 0.61987
 H309 H 1.10495 0.77367 0.65847
 H310 H 1.16071 0.77306 0.60423
 H311 H 1.17168 0.81863 0.67093
 H312 H 1.15366 0.84082 0.65228
 N313 N 0.36381 0.65507 0.70369
 N314 N 0.34691 0.63814 0.70357
 C315 C 0.35098 0.62266 0.72224
 C316 C 0.37144 0.63040 0.73457
 C317 C 0.37913 0.65100 0.72242
 H318 H 0.34019 0.60673 0.72640
 H319 H 0.39492 0.66193 0.72662
 Cu320 Cu 0.32193 0.63750 0.67838
 Cu321 Cu 0.36544 0.68048 0.67900
 Cu322 Cu 0.32136 0.67969 0.63384
 N323 N 0.29721 0.63739 0.65292
 N324 N 0.29721 0.65391 0.63551
 C325 C 0.27881 0.64937 0.61999
 C326 C 0.26670 0.62895 0.62813
 C327 C 0.27874 0.62177 0.64903
 H328 H 0.27468 0.65997 0.60386
 H329 H 0.27445 0.60618 0.66030
 N330 N 0.34728 0.70433 0.63522
 N331 N 0.36406 0.70462 0.65245
 C332 C 0.37939 0.72325 0.64820
 C333 C 0.37186 0.73513 0.62738
 C334 C 0.35150 0.72280 0.61956
 H335 H 0.39501 0.72782 0.65925
 H336 H 0.34074 0.72689 0.60356
 H337 H 0.32887 0.68068 0.67088
 H338 H 0.34875 0.66078 0.65174
 N339 N 0.36226 0.15282 1.20250
 N340 N 0.34404 0.13734 1.20343
 C341 C 0.34791 0.12142 1.22177
 C342 C 0.36964 0.12738 1.23282
 C343 C 0.37828 0.14734 1.22023
 H344 H 0.33588 0.10664 1.22668
 H345 H 0.39500 0.15707 1.22375
 Cu346 Cu 0.31693 0.13943 1.18079
 Cu347 Cu 0.36399 0.17869 1.17830
 Cu348 Cu 0.31934 0.17923 1.13389
 N349 N 0.29428 0.13786 1.15363
 N350 N 0.29511 0.15358 1.13552
 C351 C 0.27738 0.14836 1.11943
 C352 C 0.26492 0.12829 1.12793
 C353 C 0.27603 0.12203 1.14962
 H354 H 0.27390 0.15831 1.10275
 H355 H 0.27118 0.10707 1.16151
 N356 N 0.34544 0.20364 1.13534
 N357 N 0.36254 0.20339 1.15225
 C358 C 0.37802 0.22192 1.14805
 C359 C 0.37024 0.23428 1.12758
 C360 C 0.34958 0.22234 1.11995
 H361 H 0.39393 0.22606 1.15887
 H362 H 0.33859 0.22682 1.10422
 H363 H 0.32726 0.18153 1.17070
 H364 H 0.34499 0.15879 1.15251
 N365 N 0.86273 0.65282 1.20356
 N366 N 0.84507 0.63671 1.20423
 C367 C 0.84915 0.62104 1.22274
 C368 C 0.87042 0.62782 1.23421
 C369 C 0.87856 0.64804 1.22170
 H370 H 0.83758 0.60587 1.22751
 H371 H 0.89488 0.65835 1.22546
 Cu372 Cu 0.81841 0.63716 1.18091
 Cu373 Cu 0.86397 0.67852 1.17914
 Cu374 Cu 0.81966 0.67783 1.13447
 N375 N 0.79538 0.63587 1.15404
 N376 N 0.79587 0.65172 1.13604
 C377 C 0.77803 0.64641 1.12012
 C378 C 0.76589 0.62612 1.12855
 C379 C 0.77726 0.61985 1.15010
 H380 H 0.77419 0.65642 1.10354
 H381 H 0.77267 0.60481 1.16199
 N382 N 0.84516 0.70281 1.13598
 N383 N 0.86211 0.70303 1.15303
 C384 C 0.87740 0.72167 1.14868
 C385 C 0.86970 0.73358 1.12793
 C386 C 0.84921 0.72132 1.12034
 H387 H 0.89322 0.72609 1.15951
 H388 H 0.83838 0.72535 1.10437
 H389 H 0.82713 0.67977 1.17142
 H390 H 0.84589 0.65794 1.15304
 N391 N 0.86289 0.15335 0.70351
 N392 N 0.84600 0.13640 0.70317
 C393 C 0.84996 0.12074 0.72172
 C394 C 0.87036 0.12837 0.73421
 C395 C 0.87812 0.14907 0.72227
 H396 H 0.83911 0.10481 0.72564
 H397 H 0.89387 0.15997 0.72673
 Cu398 Cu 0.82124 0.13607 0.67781
 Cu399 Cu 0.86451 0.17918 0.67915
 Cu400 Cu 0.82016 0.17908 0.63420
 N401 N 0.79628 0.13628 0.65264
 N402 N 0.79606 0.15320 0.63561
 C403 C 0.77762 0.14884 0.62010
 C404 C 0.76575 0.12812 0.62781
 C405 C 0.77795 0.12056 0.64848
 H406 H 0.77330 0.15969 0.60418
 H407 H 0.77395 0.10465 0.65938
 N408 N 0.84608 0.20375 0.63582
 N409 N 0.86301 0.20375 0.65291
 C410 C 0.87842 0.22235 0.64871
 C411 C 0.87081 0.23448 0.62804
 C412 C 0.85029 0.22236 0.62032
 H413 H 0.89421 0.22666 0.65962
 H414 H 0.83948 0.22662 0.60440
 H415 H 0.82801 0.17936 0.67110
 H416 H 0.84786 0.15997 0.65144
 N417 N 1.34728 0.36293 0.70420
 N418 N 1.36395 0.34573 0.70407
 C419 C 1.37955 0.34961 0.72263
 C420 C 1.37221 0.37035 0.73479
 C421 C 1.35171 0.37834 0.72273
 H422 H 1.39527 0.33853 0.72675
 H423 H 1.34105 0.39434 0.72700
 Cu424 Cu 1.36383 0.32073 0.67892
 Cu425 Cu 1.32159 0.36478 0.67981
 Cu426 Cu 1.32152 0.32035 0.63485
 N427 N 1.36391 0.29581 0.65371
 N428 N 1.34721 0.29584 0.63651
 C429 C 1.35159 0.27738 0.62097
 C430 C 1.37212 0.26522 0.62887
 C431 C 1.37949 0.27727 0.64970
 H432 H 1.34087 0.27325 0.60496
 H433 H 1.39521 0.27313 0.66079
 N434 N 1.29716 0.34674 0.63641
 N435 N 1.29715 0.36360 0.65359
 C436 C 1.27858 0.37912 0.64953
 C437 C 1.26645 0.37163 0.62886
 C438 C 1.27860 0.35113 0.62097
 H439 H 1.27429 0.39483 0.66059
 H440 H 1.27427 0.34040 0.60503
 H441 H 1.32081 0.32804 0.67149
 H442 H 1.34070 0.34757 0.65206
 N443 N 1.34771 0.86324 1.20363
 N444 N 1.36412 0.84578 1.20363
 C445 C 1.37990 0.84964 1.22205
 C446 C 1.37290 0.87059 1.23409
 C447 C 1.35246 0.87876 1.22200
 H448 H 1.39539 0.83824 1.22627
 H449 H 1.34196 0.89490 1.22619
 Cu450 Cu 1.36368 0.82003 1.17922
 Cu451 Cu 1.32173 0.86488 1.17960
 Cu452 Cu 1.32121 0.82047 1.13486
 N453 N 1.36355 0.79591 1.15318
 N454 N 1.34690 0.79612 1.13595
 C455 C 1.35132 0.77784 1.12018
 C456 C 1.37187 0.76565 1.12797
 C457 C 1.37921 0.77751 1.14890
 H458 H 1.34059 0.77390 1.10414
 H459 H 1.39490 0.77314 1.15997
 N460 N 1.29670 0.84657 1.13668
 N461 N 1.29688 0.86353 1.15375
 C462 C 1.27819 0.87896 1.14984
 C463 C 1.26580 0.87130 1.12937
 C464 C 1.27792 0.85079 1.12148
 H465 H 1.27400 0.89473 1.16086
 H466 H 1.27342 0.83994 1.10565
 H467 H 1.32065 0.82819 1.17187
 H468 H 1.34103 0.84738 1.15248
 N469 N 0.84773 0.36415 1.20375
 N470 N 0.86537 0.34797 1.20248
 C471 C 0.88146 0.35226 1.22053
 C472 C 0.87336 0.37213 1.23369
 C473 C 0.85194 0.37920 1.22264
 H474 H 0.89783 0.34183 1.22382
 H475 H 0.84045 0.39433 1.22783
 Cu476 Cu 0.86557 0.32309 1.17717
 Cu477 Cu 0.82110 0.36517 1.18034
 Cu478 Cu 0.82047 0.32051 1.13577
 N479 N 0.86440 0.29760 1.15246
 N480 N 0.84664 0.29669 1.13638
 C481 C 0.85035 0.27771 1.12130
 C482 C 0.87152 0.26619 1.12831
 C483 C 0.87998 0.27917 1.14810
 H484 H 0.83866 0.27275 1.10624
 H485 H 0.89637 0.27546 1.15836
 N486 N 0.79555 0.34616 1.13800
 N487 N 0.79575 0.36319 1.15499
 C488 C 0.77699 0.37854 1.15107
 C489 C 0.76456 0.37073 1.13068
 C490 C 0.77669 0.35021 1.12286
 H491 H 0.77294 0.39450 1.16186
 H492 H 0.77232 0.33943 1.10696
 H493 H 0.82181 0.32852 1.17285
 H494 H 0.83950 0.34890 1.15207
 N495 N 0.84694 0.86373 0.70332
 N496 N 0.86323 0.84617 0.70337
 C497 C 0.87913 0.85011 0.72167
 C498 C 0.87231 0.87119 0.73354
 C499 C 0.85187 0.87936 0.72153
 H500 H 0.89460 0.83870 0.72592
 H501 H 0.84154 0.89562 0.72564
 Cu502 Cu 0.86249 0.82024 0.67916
 Cu503 Cu 0.82102 0.86549 0.67934
 Cu504 Cu 0.81998 0.82091 0.63478
 N505 N 0.86206 0.79597 0.65328
 N506 N 0.84541 0.79626 0.63605
 C507 C 0.84966 0.77784 0.62040
 C508 C 0.87007 0.76548 0.62824
 C509 C 0.87751 0.77737 0.64910
 H510 H 0.83891 0.77391 0.60437
 H511 H 0.89316 0.77290 0.66018
 N512 N 0.79580 0.84737 0.63655
 N513 N 0.79618 0.86434 0.65358
 C514 C 0.77776 0.88006 0.64962
 C515 C 0.76533 0.87259 0.62913
 C516 C 0.77712 0.85186 0.62128
 H517 H 0.77382 0.89594 0.66058
 H518 H 0.77252 0.84110 0.60544
 H519 H 0.81954 0.82861 0.67159
 H520 H 0.84012 0.84750 0.65211
 N521 N 0.65293 0.63678 0.70394
 N522 N 0.63588 0.65359 0.70318
 C523 C 0.61999 0.64961 0.72150
 C524 C 0.62761 0.62926 0.73421
 C525 C 0.64850 0.62158 0.72267
 H526 H 0.60395 0.66041 0.72515
 H527 H 0.65943 0.60588 0.72740
 Cu528 Cu 0.63595 0.67834 0.67769
 Cu529 Cu 0.67909 0.63512 0.68012
 Cu530 Cu 0.67963 0.67929 0.63482
 N531 N 0.63654 0.70327 0.65239
 N532 N 0.65373 0.70353 0.63569
 C533 C 0.64971 0.72217 0.62020
 C534 C 0.62891 0.73412 0.62761
 C535 C 0.62099 0.72176 0.64806
 H536 H 0.66091 0.72655 0.60458
 H537 H 0.60498 0.72588 0.65874
 N538 N 0.70421 0.65320 0.63711
 N539 N 0.70402 0.63643 0.65441
 C540 C 0.72261 0.62087 0.65067
 C541 C 0.73493 0.62822 0.63006
 C542 C 0.72292 0.64871 0.62189
 H543 H 0.72667 0.60511 0.66180
 H544 H 0.72734 0.65926 0.60582
 H545 H 0.67936 0.67185 0.67171
 H546 H 0.66044 0.65180 0.65186
 N547 N 0.65312 1.13633 1.20346
 N548 N 0.63697 1.15401 1.20369
 C549 C 0.62110 1.15011 1.22203
 C550 C 0.62778 1.12890 1.23382
 C551 C 0.64814 1.12061 1.22166
 H552 H 0.60575 1.16165 1.22634
 H553 H 0.65840 1.10426 1.22565
 Cu554 Cu 0.63762 1.18012 1.17968
 Cu555 Cu 0.67899 1.13469 1.17930
 Cu556 Cu 0.67974 1.17950 1.13486
 N557 N 0.63777 1.20420 1.15361
 N558 N 0.65425 1.20396 1.13622
 C559 C 0.64968 1.22222 1.12044
 C560 C 0.62924 1.23441 1.12840
 C561 C 0.62211 1.22262 1.14943
 H562 H 0.66020 1.22613 1.10424
 H563 H 0.60650 1.22700 1.16059
 N564 N 0.70406 1.15326 1.13643
 N565 N 0.70373 1.13611 1.15334
 C566 C 0.72221 1.12052 1.14920
 C567 C 0.73461 1.12825 1.12876
 C568 C 0.72275 1.14903 1.12109
 H569 H 0.72626 1.10454 1.16002
 H570 H 0.72726 1.16002 1.10535
 H571 H 0.68048 1.17146 1.17183
 H572 H 0.65961 1.15275 1.15250
 N573 N 0.15397 0.63604 1.20444
 N574 N 0.13724 0.65320 1.20435
 C575 C 0.12155 0.64910 1.22279
 C576 C 0.12895 0.62834 1.23493
 C577 C 0.14956 0.62050 1.22292
 H578 H 0.10575 0.66011 1.22694
 H579 H 0.16032 0.60453 1.22707
 Cu580 Cu 0.13745 0.67840 1.17939
 Cu581 Cu 0.17962 0.63442 1.17996
 Cu582 Cu 0.17910 0.67900 1.13489
 N583 N 0.13673 0.70325 1.15409
 N584 N 0.15316 0.70326 1.13663
 C585 C 0.14842 0.72163 1.12106
 C586 C 0.12794 0.73369 1.12919
 C587 C 0.12092 0.72165 1.15019
 H588 H 0.15888 0.72578 1.10486
 H589 H 0.10537 0.72581 1.16153
 N590 N 0.20374 0.65284 1.13641
 N591 N 0.20394 0.63591 1.15357
 C592 C 0.22269 0.62062 1.14949
 C593 C 0.23473 0.62833 1.12881
 C594 C 0.22238 0.64875 1.12098
 H595 H 0.22721 0.60497 1.16059
 H596 H 0.22666 0.65967 1.10512
 H597 H 0.18049 0.67108 1.17153
 H598 H 0.16040 0.65161 1.15242
 N599 N 0.15207 1.13714 0.70374
 N600 N 0.13523 1.15420 0.70350
 C601 C 0.11969 1.15036 0.72214
 C602 C 0.12723 1.12984 0.73461
 C603 C 0.14780 1.12189 0.72253
 H604 H 0.10394 1.16145 0.72620
 H605 H 0.15866 1.10604 0.72697
 Cu606 Cu 0.13489 1.17933 0.67838
 Cu607 Cu 0.17785 1.13563 0.67926
 Cu608 Cu 0.17754 1.18033 0.63447
 N609 N 0.13491 1.20428 0.65310
 N610 N 0.15170 1.20451 0.63600
 C611 C 0.14736 1.22311 0.62059
 C612 C 0.12677 1.23511 0.62847
 C613 C 0.11927 1.22280 0.64913
 H614 H 0.15819 1.22747 0.60470
 H615 H 0.10353 1.22688 0.66023
 N616 N 0.20219 1.15434 0.63589
 N617 N 0.20233 1.13725 0.65288
 C618 C 0.22106 1.12198 0.64856
 C619 C 0.23313 1.12989 0.62794
 C620 C 0.22079 1.15040 0.62037
 H621 H 0.22557 1.10615 0.65942
 H622 H 0.22499 1.16146 0.60459
 H623 H 0.17818 1.17248 0.67137
 H624 H 0.15861 1.15280 0.65177
 N625 N 1.34788 0.63824 0.29692
 N626 N 1.36488 0.65504 0.29792
 C627 C 1.38089 0.65129 0.27964
 C628 C 1.37340 0.63109 0.26669
 C629 C 1.35245 0.62327 0.27805
 H630 H 1.39691 0.66216 0.27614
 H631 H 1.34155 0.60767 0.27309
 Cu632 Cu 1.36452 0.67961 0.32352
 Cu633 Cu 1.32146 0.63642 0.32050
 Cu634 Cu 1.32053 0.68033 0.36600
 N635 N 1.36377 0.70430 0.34897
 N636 N 1.34642 0.70449 0.36550
 C637 C 1.35022 0.72304 0.38109
 C638 C 1.37107 0.73502 0.37390
 C639 C 1.37925 0.72276 0.35350
 H640 H 1.33880 0.72733 0.39657
 H641 H 1.39534 0.72694 0.34294
 N642 N 1.29597 0.65436 0.36338
 N643 N 1.29627 0.63766 0.34605
 C644 C 1.27768 0.62211 0.34969
 C645 C 1.26529 0.62936 0.37031
 C646 C 1.27720 0.64982 0.37850
 H647 H 1.27366 0.60642 0.33850
 H648 H 1.27266 0.66033 0.39455
 H649 H 1.32097 0.67312 0.32901
 H650 H 1.33973 0.65293 0.34893
 N651 N 1.34595 1.13606 0.79597
 N652 N 1.36285 1.15299 0.79635
 C653 C 1.37846 1.14907 0.77781
 C654 C 1.37088 1.12867 0.76530
 C655 C 1.35021 1.12084 0.77721
 H656 H 1.39432 1.15998 0.77378
 H657 H 1.33932 1.10507 0.77274
 Cu658 Cu 1.36315 1.17803 0.82146
 Cu659 Cu 1.32024 1.13446 0.82032
 Cu660 Cu 1.32050 1.17880 0.86537
 N661 N 1.36308 1.20287 0.84674
 N662 N 1.34631 1.20305 0.86386
 C663 C 1.35065 1.22166 0.87923
 C664 C 1.37120 1.23368 0.87130
 C665 C 1.37867 1.22138 0.85067
 H666 H 1.33986 1.22601 0.89514
 H667 H 1.39440 1.22549 0.83957
 N668 N 1.29594 1.15272 0.86375
 N669 N 1.29579 1.13589 0.84655
 C670 C 1.27719 1.12047 0.85070
 C671 C 1.26520 1.12799 0.87145
 C672 C 1.27744 1.14842 0.87928
 H673 H 1.27283 1.10476 0.83967
 H674 H 1.27325 1.15913 0.89529
 H675 H 1.31990 1.17127 0.82848
 H676 H 1.33948 1.15139 0.84798
 N677 N 0.84514 0.63626 0.79617
 N678 N 0.86097 0.65415 0.79501
 C679 C 0.87649 0.64986 0.77648
 C680 C 0.86989 0.62822 0.76555
 C681 C 0.84994 0.62006 0.77840
 H682 H 0.89153 0.66148 0.77139
 H683 H 0.83987 0.60346 0.77523
 Cu684 Cu 0.85996 0.68132 0.81773
 Cu685 Cu 0.81996 0.63495 0.82094
 Cu686 Cu 0.82150 0.67927 0.86568
 N687 N 0.86266 0.70397 0.84485
 N688 N 0.84754 0.70318 0.86344
 C689 C 0.85337 0.72091 0.87933
 C690 C 0.87316 0.73337 0.87022
 C691 C 0.87866 0.72222 0.84833
 H692 H 0.84393 0.72455 0.89626
 H693 H 0.89317 0.72705 0.83591
 N694 N 0.79658 0.65349 0.86469
 N695 N 0.79605 0.63665 0.84753
 C696 C 0.77740 0.62140 0.85192
 C697 C 0.76573 0.62902 0.87278
 C698 C 0.77822 0.64939 0.88048
 H699 H 0.77272 0.60573 0.84097
 H700 H 0.77435 0.66018 0.89651
 H701 H 0.81804 0.67173 0.82894
 H702 H 0.84089 0.65337 0.84637
 N703 N 0.84702 1.13729 0.29676
 N704 N 0.86363 1.15451 0.29671
 C705 C 0.87940 1.15031 0.27833
 C706 C 0.87215 1.12941 0.26639
 C707 C 0.85160 1.12163 0.27846
 H708 H 0.89508 1.16139 0.27409
 H709 H 0.84097 1.10558 0.27436
 Cu710 Cu 0.86340 1.18036 0.32106
 Cu711 Cu 0.82118 1.13593 0.32087
 Cu712 Cu 0.82101 1.18033 0.36560
 N713 N 0.86348 1.20448 0.34711
 N714 N 0.84684 1.20441 0.36436
 C715 C 0.85134 1.22269 0.38006
 C716 C 0.87190 1.23475 0.37224
 C717 C 0.87918 1.22282 0.35133
 H718 H 0.84061 1.22679 0.39608
 H719 H 0.89483 1.22714 0.34020
 N720 N 0.79638 1.15442 0.36385
 N721 N 0.79649 1.13748 0.34677
 C722 C 0.77786 1.12208 0.35078
 C723 C 0.76559 1.12972 0.37130
 C724 C 0.77767 1.15024 0.37917
 H725 H 0.77363 1.10628 0.33984
 H726 H 0.77330 1.16108 0.39503
 H727 H 0.82035 1.17281 0.32876
 H728 H 0.84067 1.15344 0.34810
 N729 N 0.65337 0.36334 0.29557
 N730 N 0.63718 0.34572 0.29546
 C731 C 0.62177 0.34918 0.27663
 C732 C 0.62873 0.37010 0.26449
 C733 C 0.64876 0.37868 0.27696
 H734 H 0.60633 0.33777 0.27242
 H735 H 0.65899 0.39501 0.27294
 Cu736 Cu 0.63697 0.32095 0.32089
 Cu737 Cu 0.67891 0.36543 0.32008
 Cu738 Cu 0.67915 0.32116 0.36531
 N739 N 0.63713 0.29638 0.34653
 N740 N 0.65366 0.29655 0.36388
 C741 C 0.64926 0.27809 0.37950
 C742 C 0.62887 0.26583 0.37145
 C743 C 0.62161 0.27783 0.35055
 H744 H 0.65989 0.27409 0.39562
 H745 H 0.60604 0.27345 0.33934
 N746 N 0.70340 0.34755 0.36363
 N747 N 0.70330 0.36441 0.34641
 C748 C 0.72180 0.37998 0.35040
 C749 C 0.73399 0.37256 0.37109
 C750 C 0.72196 0.35200 0.37904
 H751 H 0.72603 0.39568 0.33926
 H752 H 0.72640 0.34127 0.39499
 H753 H 0.67996 0.32883 0.32825
 H754 H 0.65975 0.34829 0.34746
 N755 N 0.65319 0.86482 0.79588
 N756 N 0.63663 0.84754 0.79590
 C757 C 0.62085 0.85163 0.77754
 C758 C 0.62798 0.87254 0.76554
 C759 C 0.64850 0.88046 0.77756
 H760 H 0.60521 0.84049 0.77334
 H761 H 0.65904 0.89657 0.77341
 Cu762 Cu 0.63711 0.82211 0.82060
 Cu763 Cu 0.67913 0.86628 0.82004
 Cu764 Cu 0.67975 0.82096 0.86432
 N765 N 0.63730 0.79677 0.84539
 N766 N 0.65405 0.79648 0.86254
 C767 C 0.64967 0.77774 0.87780
 C768 C 0.62914 0.76576 0.86975
 C769 C 0.62173 0.77821 0.84918
 H770 H 0.66036 0.77335 0.89378
 H771 H 0.60596 0.77425 0.83811
 N772 N 0.70408 0.84738 0.86291
 N773 N 0.70381 0.86461 0.84605
 C774 C 0.72233 0.88011 0.85020
 C775 C 0.73475 0.87223 0.87057
 C776 C 0.72280 0.85151 0.87821
 H777 H 0.72639 0.89609 0.83940
 H778 H 0.72736 0.84046 0.89391
 H779 H 0.68021 0.82943 0.82764
 H780 H 0.66041 0.84856 0.84755
 N781 N 0.15271 0.36273 0.79823
 N782 N 0.13696 0.34474 0.79740
 C783 C 0.12132 0.34870 0.77889
 C784 C 0.12769 0.37024 0.76763
 C785 C 0.14763 0.37871 0.78028
 H786 H 0.10631 0.33696 0.77406
 H787 H 0.15760 0.39530 0.77669
 Cu788 Cu 0.13772 0.31811 0.82084
 Cu789 Cu 0.17840 0.36411 0.82253
 Cu790 Cu 0.17922 0.31873 0.86632
 N791 N 0.13754 0.29402 0.84687
 N792 N 0.15376 0.29423 0.86449
 C793 C 0.14894 0.27596 0.88018
 C794 C 0.12860 0.26380 0.87193
 C795 C 0.12178 0.27564 0.85078
 H796 H 0.15920 0.27202 0.89656
 H797 H 0.10634 0.27142 0.83934
 N798 N 0.20346 0.34509 0.86518
 N799 N 0.20306 0.36248 0.84852
 C800 C 0.22145 0.37808 0.85288
 C801 C 0.23392 0.37009 0.87319
 C802 C 0.22214 0.34918 0.88058
 H803 H 0.22542 0.39422 0.84228
 H804 H 0.22670 0.33798 0.89616
 H805 H 0.18034 0.32706 0.82964
 H806 H 0.15888 0.34519 0.84893
 N807 N 0.15284 0.86184 0.29786
 N808 N 0.13696 0.84396 0.29722
 C809 C 0.12136 0.84783 0.27866
 C810 C 0.12789 0.86921 0.26719
 C811 C 0.14788 0.87767 0.27975
 H812 H 0.10622 0.83619 0.27400
 H813 H 0.15795 0.89417 0.27602
 Cu814 Cu 0.13745 0.81766 0.32097
 Cu815 Cu 0.17846 0.86334 0.32224
 Cu816 Cu 0.17882 0.81845 0.36655
 N817 N 0.13711 0.79376 0.34716
 N818 N 0.15326 0.79408 0.36486
 C819 C 0.14839 0.77591 0.38063
 C820 C 0.12810 0.76370 0.37235
 C821 C 0.12136 0.77540 0.35111
 H822 H 0.15861 0.77202 0.39704
 H823 H 0.10601 0.77105 0.33960
 N824 N 0.20320 0.84465 0.36523
 N825 N 0.20299 0.86182 0.34834
 C826 C 0.22148 0.87732 0.35255
 C827 C 0.23379 0.86952 0.37303
 C828 C 0.22184 0.84879 0.38065
 H829 H 0.22563 0.89328 0.34174
 H830 H 0.22627 0.83776 0.39638
 H831 H 0.18010 0.82644 0.32972
 H832 H 0.15873 0.84496 0.34875
 O833 O 0.97641 0.91280 0.87735
 O834 O 0.97642 0.88474 0.84859
 C835 C 0.96797 0.90435 0.85752
 C836 C 0.94746 0.91693 0.84531
 C837 C 0.93701 0.90714 0.82409
 H838 H 0.94458 0.89086 0.81589
 O839 O 1.02412 1.08907 0.87877
 O840 O 1.02407 1.11774 0.85056
 C841 C 1.03262 1.09798 0.85912
 C842 C 1.05323 1.08566 0.84672
 C843 C 1.06372 1.09567 0.82554
 H844 H 1.05615 1.11204 0.81746
 O845 O 0.87892 0.97624 0.91190
 O846 O 0.85048 0.97634 0.88355
 C847 C 0.85931 0.96769 0.90317
 C848 C 0.84725 0.94687 0.91550
 C849 C 0.82608 0.93642 0.90564
 H850 H 0.81779 0.94418 0.88945
 O851 O 1.12104 1.02430 0.91238
 O852 O 1.14971 1.02444 0.88424
 C853 C 1.14084 1.03276 0.90394
 C854 C 1.15311 1.05313 0.91665
 C855 C 1.17427 1.06365 0.90684
 H856 H 1.18239 1.05622 0.89044
 O857 O 0.91351 0.87791 0.97575
 O858 O 0.88525 0.84945 0.97564
 C859 C 0.90490 0.85823 0.96718
 C860 C 0.91721 0.84599 0.94648
 C861 C 0.90738 0.82465 0.93643
 H862 H 0.89146 0.81656 0.94469
 O863 O 1.08725 1.12099 0.97765
 O864 O 1.11565 1.14931 0.97799
 C865 C 1.09600 1.14074 0.96936
 C866 C 1.08381 1.15334 0.94879
 C867 C 1.09416 1.17439 0.93859
 H868 H 1.11043 1.18198 0.94660
 O869 O 0.91186 1.02455 0.87906
 O870 O 0.88347 1.02483 0.85065
 C871 C 0.90315 1.03323 0.85940
 C872 C 0.91561 1.05383 0.84710
 C873 C 0.90568 1.06436 0.82593
 H874 H 0.88933 1.05686 0.81787
 O875 O 1.08791 0.97698 0.87843
 O876 O 1.11656 0.97717 0.85027
 C877 C 1.09678 0.96867 0.85871
 C878 C 1.08453 0.94829 0.84598
 C879 C 1.09482 0.93826 0.82479
 H880 H 1.11114 0.94621 0.81720
 O881 O 1.02392 0.87921 0.91055
 O882 O 1.02397 0.85108 0.88188
 C883 C 1.03234 0.85955 0.90174
 C884 C 1.05264 0.84691 0.91423
 C885 C 1.06283 0.82577 0.90408
 H886 H 1.05509 0.81817 0.88763
 O887 O 0.97622 1.12161 0.91260
 O888 O 0.97604 1.15036 0.88445
 C889 C 0.96759 1.14136 0.90408
 C890 C 0.94689 1.15339 0.91662
 C891 C 0.93626 1.17451 0.90672
 H892 H 0.94378 1.18274 0.89040
 O893 O 0.87839 1.08754 0.97725
 O894 O 0.84991 1.11585 0.97750
 C895 C 0.85864 1.09622 0.96890
 C896 C 0.84624 1.08391 0.94832
 C897 C 0.82507 1.09401 0.93810
 H898 H 0.81722 1.11023 0.94605
 O899 O 1.12011 0.91154 0.97630
 O900 O 1.14859 0.88323 0.97596
 C901 C 1.13987 0.90307 0.96779
 C902 C 1.15239 0.91583 0.94755
 C903 C 1.17367 0.90592 0.93746
 H904 H 1.18143 0.88959 0.94530
 O905 O 0.97648 1.08844 0.87916
 O906 O 0.97633 1.11712 0.85095
 C907 C 0.96794 1.09731 0.85953
 C908 C 0.94737 1.08503 0.84713
 C909 C 0.93714 1.09522 0.82596
 H910 H 0.94511 1.11142 0.81809
 O911 O 1.02402 0.91259 0.87718
 O912 O 1.02415 0.88453 0.84844
 C913 C 1.03257 0.90413 0.85738
 C914 C 1.05315 0.91673 0.84524
 C915 C 1.06374 0.90703 0.82400
 H916 H 1.05622 0.89080 0.81569
 O917 O 1.12079 0.97663 0.91223
 O918 O 1.14946 0.97675 0.88408
 C919 C 1.14055 0.96818 0.90369
 C920 C 1.15276 0.94755 0.91616
 C921 C 1.17403 0.93724 0.90632
 H922 H 1.18223 0.94498 0.89009
 O923 O 0.87847 1.02395 0.91238
 O924 O 0.85004 1.02412 0.88401
 C925 C 0.85871 1.03240 0.90381
 C926 C 0.84626 1.05273 0.91647
 C927 C 0.82511 1.06316 0.90654
 H928 H 0.81713 1.05569 0.89010
 O929 O 0.91195 1.12056 0.97726
 O930 O 0.88350 1.14889 0.97748
 C931 C 0.90319 1.14028 0.96888
 C932 C 0.91546 1.15283 0.94829
 C933 C 0.90520 1.17394 0.93807
 H934 H 0.88887 1.18158 0.94598
 O935 O 1.08726 0.87779 0.97568
 O936 O 1.11574 0.84949 0.97529
 C937 C 1.09606 0.85827 0.96690
 C938 C 1.08379 0.84623 0.94608
 C939 C 1.09370 0.82507 0.93559
 H940 H 1.10985 0.81679 0.94334
 O941 O 1.08791 1.02467 0.87884
 O942 O 1.11656 1.02485 0.85069
 C943 C 1.09680 1.03329 0.85925
 C944 C 1.08456 1.05395 0.84685
 C945 C 1.09468 1.06422 0.82568
 H946 H 1.11090 1.05626 0.81787
 O947 O 0.91213 0.97691 0.87843
 O948 O 0.88373 0.97715 0.85003
 C949 C 0.90349 0.96870 0.85858
 C950 C 0.91598 0.94844 0.84584
 C951 C 0.90588 0.93838 0.82458
 H952 H 0.88954 0.94624 0.81692
 O953 O 1.02384 1.12179 0.91273
 O954 O 1.02379 1.15053 0.88458
 C955 C 1.03224 1.14162 0.90425
 C956 C 1.05270 1.15382 0.91689
 C957 C 1.06340 1.17488 0.90696
 H958 H 1.05606 1.18300 0.89050
 O959 O 0.97646 0.87887 0.91021
 O960 O 0.97641 0.85074 0.88152
 C961 C 0.96806 0.85919 0.90142
 C962 C 0.94787 0.84652 0.91411
 C963 C 0.93760 0.82523 0.90427
 H964 H 0.94495 0.81740 0.88769
 O965 O 1.12059 1.08773 0.97741
 O966 O 1.14898 1.11606 0.97777
 C967 C 1.14032 1.09645 0.96911
 C968 C 1.15282 1.08423 0.94855
 C969 C 1.17399 1.09440 0.93848
 H970 H 1.18175 1.11057 0.94656
 O971 O 0.88008 0.91120 0.97583
 O972 O 0.85185 0.88272 0.97561
 C973 C 0.86044 0.90254 0.96728
 C974 C 0.84790 0.91508 0.94687
 C975 C 0.82673 0.90501 0.93673
 H976 H 0.81909 0.88866 0.94459
 Cu977 Cu 1.00018 0.89870 0.89666
 Cu978 Cu 1.00025 0.86497 0.86220
 Cu979 Cu 1.00021 1.10237 0.89862
 Cu980 Cu 1.00003 1.13681 0.86481
 Cu981 Cu 0.89816 1.00040 0.89830
 Cu982 Cu 0.86408 1.00064 0.86422
 Cu983 Cu 1.10155 1.00064 0.89829
 Cu984 Cu 1.13593 1.00081 0.86449
 C985 C 0.93693 0.93775 0.85592
 H986 H 0.94457 0.94513 0.87256
 C987 C 0.91621 0.91768 0.81377
 C988 C 1.06371 1.06467 0.85709
 H989 H 1.05606 1.05709 0.87366
 C990 C 1.08447 1.08510 0.81504
 C991 C 0.85790 0.93614 0.93626
 H992 H 0.87446 0.94375 0.94374
 C993 C 0.81588 0.91544 0.91607
 C994 C 1.14265 1.06344 0.93766
 H995 H 1.12608 1.05576 0.94508
 C996 C 1.18466 1.08432 0.91758
 C997 C 0.93764 0.85663 0.93535
 H998 H 0.94509 0.87330 0.94279
 C999 C 0.91736 0.81429 0.91531
 C1000 C 1.06294 1.14332 0.93795
 H1001 H 1.05514 1.12681 0.94544
 C1002 C 1.08419 1.18510 0.91763
 C1003 C 0.93659 1.06420 0.85745
 H1004 H 0.94409 1.05652 0.87404
 C1005 C 0.91626 1.08508 0.81540
 C1006 C 1.06357 0.93752 0.85595
 H1007 H 1.05583 0.94487 0.87256
 C1008 C 1.08464 0.91759 0.81385
 C1009 C 1.06311 0.85688 0.93538
 H1010 H 1.05562 0.87344 0.94306
 C1011 C 1.08339 0.81488 0.91457
 C1012 C 0.93645 1.14280 0.93755
 H1013 H 0.94421 1.12626 0.94504
 C1014 C 0.91539 1.18474 0.91726
 C1015 C 0.85656 1.06312 0.93751
 H1016 H 0.87313 1.05550 0.94501
 C1017 C 0.81456 1.08383 0.91716
 C1018 C 1.14219 0.93681 0.93694
 H1019 H 1.12553 0.94430 0.94437
 C1020 C 1.18442 0.91639 0.91680
 O1021 O 1.02423 0.90998 1.12219
 O1022 O 1.02433 0.88140 1.15051
 C1023 C 1.03266 0.90121 1.14192
 C1024 C 1.05290 0.91379 1.15446
 C1025 C 1.06327 0.90394 1.17575
 H1026 H 1.05593 0.88743 1.18371
 O1027 O 0.97564 1.08638 1.12257
 O1028 O 0.97560 1.11453 1.15124
 C1029 C 0.96721 1.09488 1.14240
 C1030 C 0.94680 1.08233 1.15478
 C1031 C 0.93626 1.09237 1.17585
 H1032 H 0.94372 1.10880 1.18382
 O1033 O 0.87923 1.02195 1.08892
 O1034 O 0.85072 1.02157 1.11722
 C1035 C 0.85947 1.03026 1.09759
 C1036 C 0.84705 1.05089 1.08532
 C1037 C 0.82589 1.06101 1.09551
 H1038 H 0.81808 1.05295 1.11172
 O1039 O 1.12065 0.97430 1.08878
 O1040 O 1.14909 0.97405 1.11715
 C1041 C 1.14031 0.96568 1.09742
 C1042 C 1.15255 0.94516 1.08485
 C1043 C 1.17377 0.93471 1.09464
 H1044 H 1.18191 0.94223 1.11098
 O1045 O 1.08712 0.87711 1.02353
 O1046 O 1.11563 0.84884 1.02309
 C1047 C 1.09596 0.85735 1.03176
 C1048 C 1.08386 0.84472 1.05235
 C1049 C 1.09414 0.82355 1.06247
 H1050 H 1.11033 0.81582 1.05437
 O1051 O 0.91152 1.12082 1.02506
 O1052 O 0.88310 1.14917 1.02531
 C1053 C 0.90281 1.14046 1.03368
 C1054 C 0.91529 1.15270 1.05425
 C1055 C 0.90556 1.17398 1.06467
 H1056 H 0.88934 1.18224 1.05706
 O1057 O 0.91242 0.97406 1.12228
 O1058 O 0.88395 0.97377 1.15062
 C1059 C 0.90370 0.96544 1.14195
 C1060 C 0.91617 0.94493 1.15435
 C1061 C 0.90630 0.93458 1.17563
 H1062 H 0.89001 0.94222 1.18372
 O1063 O 1.08772 1.02213 1.12219
 O1064 O 1.11622 1.02218 1.15051
 C1065 C 1.09651 1.03065 1.14185
 C1066 C 1.08413 1.05123 1.15417
 C1067 C 1.09428 1.06189 1.17514
 H1068 H 1.11077 1.05450 1.18305
 O1069 O 0.97680 0.87716 1.08838
 O1070 O 0.97677 0.84855 1.11666
 C1071 C 0.96835 0.85741 1.09695
 C1072 C 0.94787 0.84517 1.08445
 C1073 C 0.93736 0.82418 1.09462
 H1074 H 0.94504 0.81639 1.11103
 O1075 O 1.02308 1.12012 1.08936
 O1076 O 1.02302 1.14824 1.11806
 C1077 C 1.03144 1.13977 1.09822
 C1078 C 1.05182 1.15238 1.08586
 C1079 C 1.06177 1.17368 1.09589
 H1080 H 1.05377 1.18149 1.11212
 O1081 O 0.87990 0.91090 1.02358
 O1082 O 0.85158 0.88248 1.02327
 C1083 C 0.86016 0.90215 1.03188
 C1084 C 0.84759 0.91440 1.05240
 C1085 C 0.82622 0.90441 1.06228
 H1086 H 0.81838 0.88831 1.05412
 O1087 O 1.12058 1.08716 1.02505
 O1088 O 1.14897 1.11550 1.02541
 C1089 C 1.14032 1.09564 1.03356
 C1090 C 1.15282 1.08276 1.05374
 C1091 C 1.17412 1.09242 1.06406
 H1092 H 1.18217 1.10881 1.05658
 O1093 O 1.02325 1.08616 1.12213
 O1094 O 1.02317 1.11431 1.15081
 C1095 C 1.03171 1.09472 1.14191
 C1096 C 1.05235 1.08243 1.15417
 C1097 C 1.06275 1.09272 1.17513
 H1098 H 1.05485 1.10900 1.18290
 O1099 O 0.97672 0.91000 1.12212
 O1100 O 0.97674 0.88143 1.15046
 C1101 C 0.96827 0.90119 1.14182
 C1102 C 0.94776 0.91354 1.15428
 C1103 C 0.93759 0.90349 1.17555
 H1104 H 0.94551 0.88725 1.18343
 O1105 O 1.12068 1.02195 1.08853
 O1106 O 1.14919 1.02171 1.11683
 C1107 C 1.14044 1.03025 1.09715
 C1108 C 1.15285 1.05074 1.08478
 C1109 C 1.17409 1.06073 1.09484
 H1110 H 1.18199 1.05262 1.11099
 O1111 O 0.87933 0.97429 1.08867
 O1112 O 0.85083 0.97390 1.11699
 C1113 C 0.85963 0.96570 1.09719
 C1114 C 0.84736 0.94538 1.08441
 C1115 C 0.82605 0.93503 1.09405
 H1116 H 0.81790 0.94249 1.11043
 O1117 O 1.08743 1.12074 1.02541
 O1118 O 1.11579 1.14909 1.02575
 C1119 C 1.09607 1.14037 1.03405
 C1120 C 1.08350 1.15264 1.05455
 C1121 C 1.09321 1.17391 1.06491
 H1122 H 1.10949 1.18206 1.05734
 O1123 O 0.91308 0.87742 1.02365
 O1124 O 0.88474 0.84904 1.02345
 C1125 C 0.90433 0.85770 1.03209
 C1126 C 0.91652 0.84528 1.05279
 C1127 C 0.90627 0.82429 1.06333
 H1128 H 0.88987 0.81644 1.05573
 O1129 O 1.08743 0.97454 1.12221
 O1130 O 1.11583 0.97457 1.15062
 C1131 C 1.09611 0.96619 1.14201
 C1132 C 1.08374 0.94580 1.15457
 C1133 C 1.09367 0.93583 1.17596
 H1134 H 1.10974 0.94394 1.18388
 O1135 O 0.91223 1.02173 1.12254
 O1136 O 0.88373 1.02147 1.15086
 C1137 C 0.90340 1.03006 1.14227
 C1138 C 0.91560 1.05063 1.15474
 C1139 C 0.90533 1.06099 1.17580
 H1140 H 0.88903 1.05317 1.18356
 O1141 O 0.97555 1.11988 1.08923
 O1142 O 0.97556 1.14800 1.11792
 C1143 C 0.96716 1.13954 1.09808
 C1144 C 0.94683 1.15220 1.08569
 C1145 C 0.93690 1.17351 1.09573
 H1146 H 0.94488 1.18122 1.11201
 O1147 O 1.02430 0.87677 1.08869
 O1148 O 1.02436 0.84814 1.11696
 C1149 C 1.03272 0.85695 1.09723
 C1150 C 1.05303 0.84457 1.08451
 C1151 C 1.06360 0.82339 1.09435
 H1152 H 1.05630 0.81536 1.11086
 O1153 O 1.12020 0.91057 1.02401
 O1154 O 1.14869 0.88227 1.02360
 C1155 C 1.13993 0.90183 1.03234
 C1156 C 1.15233 0.91398 1.05301
 C1157 C 1.17353 0.90384 1.06310
 H1158 H 1.18135 0.88766 1.05505
 O1159 O 0.87880 1.08696 1.02501
 O1160 O 0.85034 1.11528 1.02530
 C1161 C 0.85912 1.09552 1.03362
 C1162 C 0.84688 1.08285 1.05414
 C1163 C 0.82574 1.09269 1.06470
 H1164 H 0.81767 1.10911 1.05725
 Cu1165 Cu 1.00056 0.89636 1.10252
 Cu1166 Cu 1.00055 0.86201 1.13648
 Cu1167 Cu 0.99936 1.10030 1.10295
 Cu1168 Cu 0.99932 1.13407 1.13741
 Cu1169 Cu 0.89951 0.89718 0.99973
 Cu1170 Cu 0.86555 0.86307 0.99944
 Cu1171 Cu 1.10077 0.89706 0.99991
 Cu1172 Cu 1.13500 0.86312 0.99943
 Cu1173 Cu 0.89801 1.10115 1.00114
 Cu1174 Cu 0.86386 1.13514 1.00141
 Cu1175 Cu 1.10109 1.10132 1.00139
 Cu1176 Cu 1.13518 1.13535 1.00177
 Cu1177 Cu 0.89867 0.99802 1.10278
 Cu1178 Cu 0.86445 0.99763 1.13675
 Cu1179 Cu 1.10126 0.99823 1.10258
 Cu1180 Cu 1.13545 0.99811 1.13661
 C1181 C 1.06316 0.93486 1.14414
 H1182 H 1.05565 0.94226 1.12742
 C1183 C 1.08362 0.91488 1.18652
 C1184 C 0.93648 1.06130 1.14451
 H1185 H 0.94424 1.05370 1.12802
 C1186 C 0.91550 1.08190 1.18631
 C1187 C 0.85728 1.06181 1.06448
 H1188 H 0.87383 1.05437 1.05678
 C1189 C 0.81530 1.08196 1.08542
 C1190 C 1.14210 0.93477 1.06389
 H1191 H 1.12552 0.94244 1.05646
 C1192 C 1.18423 0.91403 1.08393
 C1193 C 1.06315 0.85492 1.06335
 H1194 H 1.05540 0.87149 1.05590
 C1195 C 1.08419 0.81290 1.08349
 C1196 C 0.93608 1.14209 1.06478
 H1197 H 0.94343 1.12543 1.05717
 C1198 C 0.91626 1.18439 1.08540
 C1199 C 0.93705 0.93439 1.14395
 H1200 H 0.94450 0.94196 1.12728
 C1201 C 0.91682 0.91384 1.18619
 C1202 C 1.06302 1.06153 1.14395
 H1203 H 1.05531 1.05373 1.12754
 C1204 C 1.08377 1.08270 1.18554
 C1205 C 0.93749 0.85543 1.06336
 H1206 H 0.94525 0.87185 1.05566
 C1207 C 0.91658 0.81373 1.08421
 C1208 C 1.06265 1.14216 1.06501
 H1209 H 1.05530 1.12552 1.05741
 C1210 C 1.08248 1.18443 1.08557
 C1211 C 0.85788 0.93504 1.06345
 H1212 H 0.87459 0.94258 1.05620
 C1213 C 0.81550 0.91454 1.08314
 C1214 C 1.14247 1.06173 1.06407
 H1215 H 1.12582 1.05441 1.05652
 C1216 C 1.18465 1.08162 1.08469
 O1217 O 1.08862 0.52321 0.62207
 O1218 O 1.11694 0.52323 0.65057
 C1219 C 1.09727 0.53171 0.64179
 C1220 C 1.08479 0.55226 0.65404
 C1221 C 1.09478 0.56292 0.67508
 H1222 H 1.11123 0.55552 0.68309
 O1223 O 0.91191 0.47541 0.62187
 O1224 O 0.88364 0.47524 0.65042
 C1225 C 0.90335 0.46687 0.64164
 C1226 C 0.91598 0.44641 0.65400
 C1227 C 0.90618 0.43590 0.67524
 H1228 H 0.88981 0.44335 0.68332
 O1229 O 1.02366 0.62024 0.58831
 O1230 O 1.02360 0.64854 0.61683
 C1231 C 1.03206 0.63992 0.59707
 C1232 C 1.05254 0.65237 0.58476
 C1233 C 1.06247 0.67369 0.59475
 H1234 H 1.05432 0.68164 0.61084
 O1235 O 0.97712 0.37884 0.58836
 O1236 O 0.97728 0.35015 0.61657
 C1237 C 0.96877 0.35901 0.59691
 C1238 C 0.94832 0.34663 0.58448
 C1239 C 0.93811 0.32548 0.59463
 H1240 H 0.94598 0.31768 0.61094
 O1241 O 1.12243 0.58707 0.52479
 O1242 O 1.15058 0.61564 0.52488
 C1243 C 1.14207 0.59583 0.53326
 C1244 C 1.15451 0.58333 0.55374
 C1245 C 1.17565 0.59322 0.56420
 H1246 H 1.18372 0.60956 0.55659
 O1247 O 0.87927 0.41174 0.52411
 O1248 O 0.85122 0.38308 0.52399
 C1249 C 0.85966 0.40284 0.53253
 C1250 C 0.84707 0.41508 0.55308
 C1251 C 0.82588 0.40494 0.56317
 H1252 H 0.81816 0.38872 0.55515
 O1253 O 0.97620 0.58668 0.62167
 O1254 O 0.97626 0.61503 0.65014
 C1255 C 0.96781 0.59535 0.64144
 C1256 C 0.94733 0.58306 0.65393
 C1257 C 0.93714 0.59334 0.67503
 H1258 H 0.94513 0.60957 0.68275
 O1259 O 1.02456 0.41170 0.62231
 O1260 O 1.02466 0.38303 0.65053
 C1261 C 1.03300 0.40285 0.64202
 C1262 C 1.05331 0.41530 0.65459
 C1263 C 1.06352 0.40543 0.67596
 H1264 H 1.05596 0.38905 0.68399
 O1265 O 1.12181 0.47551 0.58885
 O1266 O 1.15012 0.47518 0.61734
 C1267 C 1.14146 0.46693 0.59750
 C1268 C 1.15383 0.44661 0.58473
 C1269 C 1.17501 0.43603 0.59446
 H1270 H 1.18305 0.44330 0.61097
 O1271 O 0.87852 0.52316 0.58869
 O1272 O 0.85015 0.52315 0.61713
 C1273 C 0.85887 0.53167 0.59741
 C1274 C 0.84664 0.55232 0.58495
 C1275 C 0.82558 0.56290 0.59495
 H1276 H 0.81749 0.55537 0.61134
 O1277 O 0.91185 0.62121 0.52441
 O1278 O 0.88357 0.64973 0.52454
 C1279 C 0.90322 0.64091 0.53298
 C1280 C 0.91566 0.65312 0.55358
 C1281 C 0.90577 0.67427 0.56409
 H1282 H 0.88950 0.68244 0.55650
 O1283 O 1.08842 0.37957 0.52319
 O1284 O 1.11670 0.35106 0.52293
 C1285 C 1.09708 0.35977 0.53153
 C1286 C 1.08477 0.34725 0.55209
 C1287 C 1.09481 0.32594 0.56216
 H1288 H 1.11096 0.31808 0.55411
 O1289 O 0.91168 0.52299 0.62212
 O1290 O 0.88340 0.52299 0.65066
 C1291 C 0.90307 0.53143 0.64190
 C1292 C 0.91559 0.55190 0.65423
 C1293 C 0.90566 0.56253 0.67535
 H1294 H 0.88927 0.55512 0.68343
 O1295 O 1.08851 0.47564 0.62226
 O1296 O 1.11676 0.47559 0.65081
 C1297 C 1.09706 0.46726 0.64211
 C1298 C 1.08452 0.44696 0.65466
 C1299 C 1.09429 0.43695 0.67611
 H1300 H 1.11043 0.44491 0.68404
 O1301 O 1.02469 0.37913 0.58817
 O1302 O 1.02485 0.35043 0.61637
 C1303 C 1.03320 0.35933 0.59666
 C1304 C 1.05361 0.34705 0.58397
 C1305 C 1.06397 0.32575 0.59373
 H1306 H 1.05643 0.31758 0.61007
 O1307 O 0.97605 0.62040 0.58856
 O1308 O 0.97613 0.64869 0.61709
 C1309 C 0.96764 0.64010 0.59735
 C1310 C 0.94718 0.65267 0.58503
 C1311 C 0.93701 0.67382 0.59524
 H1312 H 0.94491 0.68152 0.61157
 O1313 O 0.87901 0.58754 0.52425
 O1314 O 0.85072 0.61604 0.52444
 C1315 C 0.85937 0.59623 0.53279
 C1316 C 0.84696 0.58378 0.55329
 C1317 C 0.82589 0.59396 0.56352
 H1318 H 0.81820 0.61028 0.55559
 O1319 O 1.12171 0.41284 0.52332
 O1320 O 1.14997 0.38432 0.52297
 C1321 C 1.14136 0.40396 0.53167
 C1322 C 1.15379 0.41596 0.55239
 C1323 C 1.17498 0.40571 0.56239
 H1324 H 1.18284 0.38966 0.55411
 O1325 O 0.97697 0.41204 0.62179
 O1326 O 0.97706 0.38337 0.65001
 C1327 C 0.96852 0.40313 0.64144
 C1328 C 0.94790 0.41532 0.65390
 C1329 C 0.93780 0.40513 0.67513
 H1330 H 0.94587 0.38895 0.68298
 O1331 O 1.02385 0.58690 0.62173
 O1332 O 1.02377 0.61526 0.65020
 C1333 C 1.03231 0.59561 0.64146
 C1334 C 1.05294 0.58340 0.65386
 C1335 C 1.06320 0.59370 0.67492
 H1336 H 1.05521 0.60993 0.68268
 O1337 O 0.87848 0.47549 0.58868
 O1338 O 0.85011 0.47531 0.61712
 C1339 C 0.85883 0.46693 0.59735
 C1340 C 0.84662 0.44641 0.58480
 C1341 C 0.82543 0.43594 0.59460
 H1342 H 0.81724 0.44350 0.61091
 O1343 O 1.12203 0.52306 0.58889
 O1344 O 1.15038 0.52281 0.61735
 C1345 C 1.14177 0.53133 0.59760
 C1346 C 1.15429 0.55173 0.58520
 C1347 C 1.17540 0.56188 0.59536
 H1348 H 1.18316 0.55393 0.61165
 O1349 O 0.91281 0.37863 0.52400
 O1350 O 0.88477 0.34995 0.52388
 C1351 C 0.90433 0.35880 0.53242
 C1352 C 0.91679 0.34649 0.55301
 C1353 C 0.90683 0.32535 0.56353
 H1354 H 0.89050 0.31732 0.55597
 O1355 O 1.08874 0.62012 0.52500
 O1356 O 1.11689 0.64870 0.52509
 C1357 C 1.09722 0.63990 0.53346
 C1358 C 1.08453 0.65231 0.55378
 C1359 C 1.09420 0.67363 0.56410
 H1360 H 1.11057 0.68169 0.55662
 Cu1361 Cu 1.10240 0.49934 0.60266
 Cu1362 Cu 1.13639 0.49917 0.63689
 Cu1363 Cu 0.89796 0.49927 0.60248
 Cu1364 Cu 0.86397 0.49915 0.63667
 Cu1365 Cu 0.99993 0.60071 0.60219
 Cu1366 Cu 0.99993 0.63470 0.63643
 Cu1367 Cu 1.00086 0.39832 0.60234
 Cu1368 Cu 1.00097 0.36387 0.63619
 C1369 C 1.06372 0.56254 0.64369
 H1370 H 1.05616 0.55476 0.62720
 C1371 C 1.08416 0.58368 0.68547
 C1372 C 0.93699 0.43610 0.64360
 H1373 H 0.94441 0.44378 0.62697
 C1374 C 0.91691 0.41522 0.68575
 C1375 C 1.06354 0.64195 0.56411
 H1376 H 1.05622 0.62528 0.55656
 C1377 C 1.08333 0.68428 0.58460
 C1378 C 0.93767 0.35688 0.56353
 H1379 H 0.94518 0.37344 0.55586
 C1380 C 0.91731 0.31491 0.58438
 C1381 C 1.14413 0.56242 0.56425
 H1382 H 1.12758 0.55493 0.55661
 C1383 C 1.18602 0.58268 0.58508
 C1384 C 0.85716 0.43596 0.56389
 H1385 H 0.87374 0.44361 0.55648
 C1386 C 0.81508 0.41519 0.58396
 C1387 C 0.93658 0.56220 0.64380
 H1388 H 0.94409 0.55446 0.62725
 C1389 C 0.91625 0.58333 0.68566
 C1390 C 1.06384 0.43621 0.64422
 H1391 H 1.05644 0.44363 0.62746
 C1392 C 1.08399 0.41616 0.68674
 C1393 C 1.14350 0.43655 0.56355
 H1394 H 1.12692 0.44429 0.55617
 C1395 C 1.18554 0.41553 0.58346
 C1396 C 0.85708 0.56281 0.56398
 H1397 H 0.87359 0.55513 0.55643
 C1398 C 0.81525 0.58376 0.58438
 C1399 C 0.93651 0.64259 0.56406
 H1400 H 0.94399 0.62604 0.55636
 C1401 C 0.91627 0.68459 0.58496
 C1402 C 1.06403 0.35755 0.56300
 H1403 H 1.05646 0.37422 0.55562
 C1404 C 1.08461 0.31525 0.58303
 O1405 O 1.08856 0.47718 0.37726
 O1406 O 1.11690 0.47734 0.34878
 C1407 C 1.09724 0.46882 0.35746
 C1408 C 1.08474 0.44843 0.34499
 C1409 C 1.09464 0.43799 0.32377
 H1410 H 1.11108 0.44539 0.31580
 O1411 O 0.91152 0.52437 0.37913
 O1412 O 0.88320 0.52469 0.35065
 C1413 C 0.90289 0.53303 0.35944
 C1414 C 0.91545 0.55359 0.34721
 C1415 C 0.90574 0.56403 0.32590
 H1416 H 0.88951 0.55645 0.31767
 O1417 O 0.97654 0.62148 0.41288
 O1418 O 0.97663 0.65019 0.38469
 C1419 C 0.96820 0.64134 0.40437
 C1420 C 0.94778 0.65376 0.41681
 C1421 C 0.93760 0.67494 0.40668
 H1422 H 0.94561 0.68283 0.39047
 O1423 O 1.02423 0.38031 0.41054
 O1424 O 1.02430 0.35189 0.38214
 C1425 C 1.03273 0.36060 0.40187
 C1426 C 1.05316 0.34820 0.41442
 C1427 C 1.06348 0.32692 0.40457
 H1428 H 1.05596 0.31891 0.38816
 O1429 O 1.12185 0.41297 0.47549
 O1430 O 1.15009 0.38443 0.47520
 C1431 C 1.14146 0.40423 0.46687
 C1432 C 1.15377 0.41672 0.44630
 C1433 C 1.17489 0.40679 0.43579
 H1434 H 1.18297 0.39042 0.44334
 O1435 O 0.87859 0.58815 0.47654
 O1436 O 0.85026 0.61660 0.47675
 C1437 C 0.85886 0.59689 0.46822
 C1438 C 0.84627 0.58452 0.44780
 C1439 C 0.82494 0.59451 0.43783
 H1440 H 0.81717 0.61074 0.44583
 O1441 O 1.02382 0.58839 0.37881
 O1442 O 1.02364 0.61710 0.35063
 C1443 C 1.03209 0.59728 0.35906
 C1444 C 1.05240 0.58504 0.34630
 C1445 C 1.06238 0.59533 0.32508
 H1446 H 1.05441 0.61167 0.31744
 O1447 O 0.97631 0.41340 0.37730
 O1448 O 0.97625 0.38498 0.34890
 C1449 C 0.96775 0.40466 0.35763
 C1450 C 0.94705 0.41698 0.34541
 C1451 C 0.93668 0.40711 0.32416
 H1452 H 0.94453 0.39102 0.31584
 O1453 O 1.12153 0.52471 0.41093
 O1454 O 1.14991 0.52506 0.38249
 C1455 C 1.14120 0.53329 0.40232
 C1456 C 1.15354 0.55361 0.41507
 C1457 C 1.17452 0.56434 0.40510
 H1458 H 1.18240 0.55720 0.38845
 O1459 O 0.87831 0.47642 0.41212
 O1460 O 0.84989 0.47652 0.38374
 C1461 C 0.85867 0.46792 0.40341
 C1462 C 0.84653 0.44721 0.41583
 C1463 C 0.82540 0.43672 0.40596
 H1464 H 0.81718 0.44437 0.38969
 O1465 O 1.08840 0.62016 0.47735
 O1466 O 1.11654 0.64875 0.47747
 C1467 C 1.09690 0.64000 0.46900
 C1468 C 1.08443 0.65254 0.44859
 C1469 C 1.09448 0.67380 0.43855
 H1470 H 1.11069 0.68152 0.44655
 O1471 O 0.91288 0.37894 0.47618
 O1472 O 0.88486 0.35024 0.47604
 C1473 C 0.90443 0.35920 0.46758
 C1474 C 0.91696 0.34711 0.44691
 C1475 C 0.90730 0.32581 0.43650
 H1476 H 0.89118 0.31747 0.44421
 O1477 O 0.91142 0.47674 0.37854
 O1478 O 0.88305 0.47698 0.35011
 C1479 C 0.90276 0.46847 0.35872
 C1480 C 0.91522 0.44813 0.34605
 C1481 C 0.90508 0.43788 0.32489
 H1482 H 0.88871 0.44567 0.31721
 O1483 O 1.08813 0.52475 0.37771
 O1484 O 1.11643 0.52505 0.34919
 C1485 C 1.09671 0.53334 0.35798
 C1486 C 1.08408 0.55380 0.34573
 C1487 C 1.09379 0.56438 0.32450
 H1488 H 1.11010 0.55692 0.31628
 O1489 O 0.97670 0.38037 0.41111
 O1490 O 0.97678 0.35194 0.38272
 C1491 C 0.96842 0.36056 0.40253
 C1492 C 0.94824 0.34785 0.41516
 C1493 C 0.93831 0.32654 0.40513
 H1494 H 0.94619 0.31889 0.38876
 O1495 O 1.02412 0.62107 0.41282
 O1496 O 1.02417 0.64977 0.38462
 C1497 C 1.03263 0.64082 0.40428
 C1498 C 1.05316 0.65298 0.41685
 C1499 C 1.06361 0.67422 0.40705
 H1500 H 1.05612 0.68241 0.39069
 O1501 O 0.87928 0.41203 0.47634
 O1502 O 0.85125 0.38335 0.47624
 C1503 C 0.85969 0.40320 0.46785
 C1504 C 0.84709 0.41562 0.44738
 C1505 C 0.82593 0.40550 0.43726
 H1506 H 0.81828 0.38918 0.44519
 O1507 O 1.12195 0.58718 0.47697
 O1508 O 1.15009 0.61576 0.47706
 C1509 C 1.14147 0.59612 0.46841
 C1510 C 1.15370 0.58418 0.44751
 C1511 C 1.17468 0.59455 0.43727
 H1512 H 1.18253 0.61061 0.44549
 O1513 O 1.02398 0.41379 0.37723
 O1514 O 1.02389 0.38538 0.34883
 C1515 C 1.03235 0.40509 0.35746
 C1516 C 1.05283 0.41742 0.34494
 C1517 C 1.06292 0.40739 0.32366
 H1518 H 1.05488 0.39125 0.31578
 O1519 O 0.97625 0.58816 0.37953
 O1520 O 0.97614 0.61688 0.35136
 C1521 C 0.96770 0.59709 0.35993
 C1522 C 0.94715 0.58486 0.34747
 C1523 C 0.93712 0.59496 0.32616
 H1524 H 0.94514 0.61115 0.31830
 O1525 O 0.87794 0.52413 0.41220
 O1526 O 0.84954 0.52434 0.38380
 C1527 C 0.85824 0.53268 0.40357
 C1528 C 0.84593 0.55315 0.41615
 C1529 C 0.82465 0.56354 0.40639
 H1530 H 0.81649 0.55597 0.39009
 O1531 O 1.12135 0.47715 0.41108
 O1532 O 1.14977 0.47738 0.38268
 C1533 C 1.14109 0.46884 0.40241
 C1534 C 1.15356 0.44839 0.41486
 C1535 C 1.17472 0.43826 0.40476
 H1536 H 1.18247 0.44620 0.38846
 O1537 O 1.08811 0.38011 0.47540
 O1538 O 1.11637 0.35158 0.47523
 C1539 C 1.09670 0.36040 0.46684
 C1540 C 1.08430 0.34810 0.44628
 C1541 C 1.09423 0.32681 0.43619
 H1542 H 1.11033 0.31887 0.44425
 O1543 O 0.91202 0.62135 0.47668
 O1544 O 0.88370 0.64982 0.47677
 C1545 C 0.90339 0.64114 0.46830
 C1546 C 0.91592 0.65363 0.44790
 C1547 C 0.90593 0.67477 0.43738
 H1548 H 0.88943 0.68266 0.44476
 Cu1549 Cu 1.10204 0.50093 0.39707
 Cu1550 Cu 1.13611 0.50123 0.36294
 Cu1551 Cu 0.89761 0.50040 0.39836
 Cu1552 Cu 0.86358 0.50066 0.36424
 Cu1553 Cu 1.10259 0.60072 0.50109
 Cu1554 Cu 1.13637 0.63506 0.50113
 Cu1555 Cu 1.10221 0.39926 0.49936
 Cu1556 Cu 1.13611 0.36499 0.49906
 Cu1557 Cu 0.89823 0.60173 0.50042
 Cu1558 Cu 0.86421 0.63589 0.50064
 Cu1559 Cu 0.89889 0.39818 0.50017
 Cu1560 Cu 0.86522 0.36378 0.50002
 Cu1561 Cu 1.00021 0.60189 0.39885
 Cu1562 Cu 1.00013 0.63636 0.36500
 Cu1563 Cu 1.00031 0.39984 0.39686
 Cu1564 Cu 1.00029 0.36572 0.36280
 C1565 C 1.06371 0.43811 0.35531
 H1566 H 1.05627 0.44569 0.37195
 C1567 C 1.08386 0.41746 0.31311
 C1568 C 0.93629 0.56405 0.35775
 H1569 H 0.94363 0.55644 0.37445
 C1570 C 0.91638 0.58474 0.31544
 C1571 C 0.93700 0.64340 0.43760
 H1572 H 0.94454 0.62684 0.44527
 C1573 C 0.91664 0.68539 0.41674
 C1574 C 1.06359 0.35853 0.43543
 H1575 H 1.05607 0.37517 0.44289
 C1576 C 1.08401 0.31624 0.41532
 C1577 C 1.14336 0.43767 0.43580
 H1578 H 1.12679 0.44515 0.44343
 C1579 C 1.18534 0.41742 0.41501
 C1580 C 0.85647 0.56367 0.43700
 H1581 H 0.87313 0.55612 0.44434
 C1582 C 0.81416 0.58422 0.41710
 C1583 C 1.06322 0.56413 0.35634
 H1584 H 1.05588 0.55640 0.37298
 C1585 C 1.08310 0.58519 0.31422
 C1586 C 0.93631 0.43765 0.35606
 H1587 H 0.94393 0.44513 0.37266
 C1588 C 0.91558 0.41730 0.31400
 C1589 C 1.14340 0.56355 0.43643
 H1590 H 1.12697 0.55571 0.44399
 C1591 C 1.18504 0.58484 0.41604
 C1592 C 0.85711 0.43661 0.43668
 H1593 H 0.87367 0.44425 0.44413
 C1594 C 0.81511 0.41584 0.41652
 C1595 C 1.06361 0.64239 0.43777
 H1596 H 1.05602 0.62574 0.44517
 C1597 C 1.08431 0.68458 0.41775
 C1598 C 0.93759 0.35787 0.43621
 H1599 H 0.94488 0.37455 0.44379
 C1600 C 0.91780 0.31558 0.41557
 O1601 O 0.47548 0.91145 0.37811
 O1602 O 0.47541 0.88282 0.34992
 C1603 C 0.46700 0.90262 0.35844
 C1604 C 0.44657 0.91508 0.34593
 C1605 C 0.43623 0.90516 0.32469
 H1606 H 0.44379 0.88878 0.31669
 O1607 O 0.52368 1.08803 0.37687
 O1608 O 0.52347 1.11628 0.34823
 C1609 C 0.53203 1.09664 0.35703
 C1610 C 0.55249 1.08415 0.34464
 C1611 C 0.56305 1.09411 0.32348
 H1612 H 0.55564 1.11056 0.31544
 O1613 O 0.37845 0.97605 0.41128
 O1614 O 0.35006 0.97607 0.38287
 C1615 C 0.35873 0.96764 0.40264
 C1616 C 0.34625 0.94724 0.41521
 C1617 C 0.32518 0.93688 0.40513
 H1618 H 0.31746 0.94459 0.38869
 O1619 O 0.62065 1.02370 0.41035
 O1620 O 0.64894 1.02333 0.38181
 C1621 C 0.64033 1.03198 0.40149
 C1622 C 0.65281 1.05252 0.41367
 C1623 C 0.67401 1.06256 0.40352
 H1624 H 0.68186 1.05452 0.38733
 O1625 O 0.41120 0.87922 0.47636
 O1626 O 0.38301 0.85068 0.47678
 C1627 C 0.40262 0.85937 0.46814
 C1628 C 0.41514 0.84683 0.44772
 C1629 C 0.40530 0.82553 0.43745
 H1630 H 0.38897 0.81752 0.44506
 O1631 O 0.58793 1.12214 0.47362
 O1632 O 0.61628 1.15052 0.47330
 C1633 C 0.59655 1.14183 0.46502
 C1634 C 0.58396 1.15419 0.44458
 C1635 C 0.59369 1.17545 0.43417
 H1636 H 0.60998 1.18358 0.44173
 O1637 O 0.41165 1.02363 0.37760
 O1638 O 0.38324 1.02369 0.34922
 C1639 C 0.40294 1.03210 0.35785
 C1640 C 0.41540 1.05252 0.34533
 C1641 C 0.40542 1.06287 0.32408
 H1642 H 0.38901 1.05536 0.31615
 O1643 O 0.58719 0.97590 0.37758
 O1644 O 0.61549 0.97552 0.34906
 C1645 C 0.59580 0.96726 0.35789
 C1646 C 0.58327 0.94680 0.34565
 C1647 C 0.59311 0.93639 0.32442
 H1648 H 0.60942 0.94393 0.31630
 O1649 O 0.52326 0.87855 0.41170
 O1650 O 0.52335 0.84989 0.38354
 C1651 C 0.53180 0.85879 0.40317
 C1652 C 0.55235 0.84662 0.41576
 C1653 C 0.56296 0.82547 0.40594
 H1654 H 0.55553 0.81731 0.38956
 O1655 O 0.47601 1.12095 0.41058
 O1656 O 0.47568 1.14917 0.38191
 C1657 C 0.46737 1.14053 0.40177
 C1658 C 0.44682 1.15291 0.41414
 C1659 C 0.43666 1.17406 0.40393
 H1660 H 0.44460 1.18183 0.38763
 O1661 O 0.37808 1.08814 0.47568
 O1662 O 0.34970 1.11654 0.47528
 C1663 C 0.35841 1.09672 0.46708
 C1664 C 0.34611 1.08406 0.44668
 C1665 C 0.32480 1.09376 0.43636
 H1666 H 0.31660 1.11003 0.44397
 O1667 O 0.62081 0.91233 0.47599
 O1668 O 0.64923 0.88395 0.47604
 C1669 C 0.64049 0.90363 0.46751
 C1670 C 0.65282 0.91605 0.44694
 C1671 C 0.67411 0.90620 0.43674
 H1672 H 0.68209 0.88986 0.44443
 O1673 O 0.47609 1.08769 0.37717
 O1674 O 0.47589 1.11590 0.34849
 C1675 C 0.46757 1.09622 0.35737
 C1676 C 0.44711 1.08372 0.34506
 C1677 C 0.43693 1.09364 0.32375
 H1678 H 0.44487 1.10979 0.31574
 O1679 O 0.52299 0.91189 0.37828
 O1680 O 0.52298 0.88328 0.35009
 C1681 C 0.53136 0.90309 0.35857
 C1682 C 0.55170 0.91548 0.34593
 C1683 C 0.56178 0.90543 0.32464
 H1684 H 0.55389 0.88917 0.31686
 O1685 O 0.62039 0.97613 0.41108
 O1686 O 0.64869 0.97579 0.38256
 C1687 C 0.64008 0.96762 0.40246
 C1688 C 0.65262 0.94740 0.41520
 C1689 C 0.67396 0.93734 0.40539
 H1690 H 0.68177 0.94494 0.38892
 O1691 O 0.37874 1.02369 0.41141
 O1692 O 0.35033 1.02367 0.38303
 C1693 C 0.35901 1.03210 0.40277
 C1694 C 0.34648 1.05248 0.41525
 C1695 C 0.32516 1.06247 0.40527
 H1696 H 0.31737 1.05451 0.38902
 O1697 O 0.41126 1.12148 0.47506
 O1698 O 0.38296 1.14996 0.47462
 C1699 C 0.40262 1.14109 0.46625
 C1700 C 0.41511 1.15318 0.44551
 C1701 C 0.40522 1.17431 0.43488
 H1702 H 0.38888 1.18244 0.44237
 O1703 O 0.58721 0.87938 0.47630
 O1704 O 0.61561 0.85099 0.47645
 C1705 C 0.59589 0.85963 0.46797
 C1706 C 0.58356 0.84705 0.44755
 C1707 C 0.59377 0.82588 0.43750
 H1708 H 0.61004 0.81822 0.44550
 O1709 O 0.58716 1.02354 0.37723
 O1710 O 0.61546 1.02314 0.34871
 C1711 C 0.59585 1.03178 0.35739
 C1712 C 0.58360 1.05230 0.34483
 C1713 C 0.59381 1.06248 0.32367
 H1714 H 0.61006 1.05450 0.31594
 O1715 O 0.41183 0.97593 0.37793
 O1716 O 0.38343 0.97600 0.34953
 C1717 C 0.40310 0.96748 0.35822
 C1718 C 0.41541 0.94690 0.34582
 C1719 C 0.40539 0.93672 0.32458
 H1720 H 0.38923 0.94472 0.31668
 O1721 O 0.52360 1.12166 0.40993
 O1722 O 0.52325 1.14991 0.38129
 C1723 C 0.53184 1.14139 0.40105
 C1724 C 0.55227 1.15398 0.41329
 C1725 C 0.56230 1.17523 0.40315
 H1726 H 0.55433 1.18305 0.38688
 O1727 O 0.47567 0.87885 0.41229
 O1728 O 0.47571 0.85018 0.38414
 C1729 C 0.46728 0.85904 0.40383
 C1730 C 0.44686 0.84669 0.41640
 C1731 C 0.43679 0.82539 0.40653
 H1732 H 0.44481 0.81743 0.39039
 O1733 O 0.62092 1.08849 0.47373
 O1734 O 0.64930 1.11684 0.47336
 C1735 C 0.64059 1.09707 0.46514
 C1736 C 0.65292 1.08438 0.44478
 C1737 C 0.67411 1.09414 0.43435
 H1738 H 0.68219 1.11050 0.44183
 O1739 O 0.37795 0.91260 0.47619
 O1740 O 0.34970 0.88414 0.47656
 C1741 C 0.35831 0.90378 0.46782
 C1742 C 0.34599 0.91599 0.44708
 C1743 C 0.32493 0.90589 0.43666
 H1744 H 0.31689 0.88963 0.44444
 Cu1745 Cu 0.49935 0.89805 0.39792
 Cu1746 Cu 0.49936 0.86365 0.36412
 Cu1747 Cu 0.49992 1.10175 0.39651
 Cu1748 Cu 0.49951 1.13565 0.36212
 Cu1749 Cu 0.39804 0.99982 0.39738
 Cu1750 Cu 0.36392 0.99987 0.36331
 Cu1751 Cu 0.60099 0.99983 0.39692
 Cu1752 Cu 0.63497 0.99939 0.36266
 C1753 C 0.43615 0.93610 0.35621
 H1754 H 0.44371 0.94360 0.37282
 C1755 C 0.41562 0.91582 0.31403
 C1756 C 0.56280 1.06311 0.35503
 H1757 H 0.55509 1.05559 0.37160
 C1758 C 0.58375 1.08342 0.31302
 C1759 C 0.35636 0.93681 0.43634
 H1760 H 0.37283 0.94445 0.44397
 C1761 C 0.31454 0.91618 0.41567
 C1762 C 0.64254 1.06341 0.43446
 H1763 H 0.62596 1.05602 0.44213
 C1764 C 0.68461 1.08341 0.41370
 C1765 C 0.43606 0.85714 0.43715
 H1766 H 0.44347 0.87383 0.44458
 C1767 C 0.41597 0.81486 0.41681
 C1768 C 0.56309 1.14375 0.43415
 H1769 H 0.55573 1.12711 0.44180
 C1770 C 0.58304 1.18593 0.41342
 C1771 C 0.43637 1.06299 0.35558
 H1772 H 0.44387 1.05550 0.37226
 C1773 C 0.41603 1.08344 0.31332
 C1774 C 0.56241 0.93634 0.35614
 H1775 H 0.55501 0.94394 0.37280
 C1776 C 0.58253 0.91572 0.31394
 C1777 C 0.56269 0.85715 0.43672
 H1778 H 0.55495 0.87371 0.44415
 C1779 C 0.58369 0.81513 0.41667
 C1780 C 0.43606 1.14271 0.43509
 H1781 H 0.44355 1.12617 0.44283
 C1782 C 0.41585 1.18472 0.41409
 C1783 C 0.35669 1.06325 0.43612
 H1784 H 0.37336 1.05590 0.44366
 C1785 C 0.31439 1.08316 0.41562
 C1786 C 0.64235 0.93683 0.43618
 H1787 H 0.62567 0.94426 0.44362
 C1788 C 0.68479 0.91687 0.41612
 O1789 O 0.52431 0.91404 0.62116
 O1790 O 0.52442 0.88582 0.64985
 C1791 C 0.53280 0.90548 0.64096
 C1792 C 0.55322 0.91806 0.65325
 C1793 C 0.56361 0.90827 0.67454
 H1794 H 0.55611 0.89192 0.68270
 O1795 O 0.47656 1.08956 0.61980
 O1796 O 0.47663 1.11817 0.64800
 C1797 C 0.46822 1.09836 0.63952
 C1798 C 0.44788 1.08599 0.65219
 C1799 C 0.43787 1.09610 0.67347
 H1800 H 0.44581 1.11236 0.68120
 O1801 O 0.37861 1.02517 0.58783
 O1802 O 0.35051 1.02528 0.61654
 C1803 C 0.35898 1.03363 0.59664
 C1804 C 0.34637 1.05403 0.58420
 C1805 C 0.32522 1.06416 0.59436
 H1806 H 0.31757 1.05623 0.61071
 O1807 O 0.62168 0.97767 0.58735
 O1808 O 0.65015 0.97780 0.61569
 C1809 C 0.64134 0.96915 0.59610
 C1810 C 0.65346 0.94838 0.58385
 C1811 C 0.67454 0.93780 0.59385
 H1812 H 0.68270 0.94541 0.61013
 O1813 O 0.58790 0.87913 0.52403
 O1814 O 0.61627 0.85071 0.52415
 C1815 C 0.59661 0.85944 0.53260
 C1816 C 0.58419 0.84719 0.55322
 C1817 C 0.59395 0.82590 0.56365
 H1818 H 0.61015 0.81765 0.55599
 O1819 O 0.41149 1.12200 0.52284
 O1820 O 0.38315 1.15045 0.52249
 C1821 C 0.40284 1.14182 0.53106
 C1822 C 0.41524 1.15441 0.55146
 C1823 C 0.40497 1.17544 0.56182
 H1824 H 0.38851 1.18300 0.55413
 O1825 O 0.41214 0.97777 0.62150
 O1826 O 0.38404 0.97793 0.65022
 C1827 C 0.40366 0.96944 0.64141
 C1828 C 0.41624 0.94906 0.65388
 C1829 C 0.40636 0.93860 0.67512
 H1830 H 0.38996 0.94606 0.68314
 O1831 O 0.58864 1.02593 0.62009
 O1832 O 0.61704 1.02614 0.64849
 C1833 C 0.59735 1.03455 0.63974
 C1834 C 0.58487 1.05510 0.65204
 C1835 C 0.59465 1.06541 0.67336
 H1836 H 0.61094 1.05779 0.68148
 O1837 O 0.47661 0.88076 0.58805
 O1838 O 0.47662 0.85258 0.61677
 C1839 C 0.46817 0.86114 0.59694
 C1840 C 0.44773 0.84862 0.58462
 C1841 C 0.43787 0.82729 0.59472
 H1842 H 0.44594 0.81949 0.61093
 O1843 O 0.52382 1.12283 0.58594
 O1844 O 0.52401 1.15143 0.61415
 C1845 C 0.53236 1.14256 0.59445
 C1846 C 0.55289 1.15469 0.58184
 C1847 C 0.56360 1.17568 0.59180
 H1848 H 0.55621 1.18378 0.60823
 O1849 O 0.37807 0.91292 0.52398
 O1850 O 0.34980 0.88447 0.52450
 C1851 C 0.35849 0.90426 0.53273
 C1852 C 0.34633 0.91684 0.55335
 C1853 C 0.32525 0.90700 0.56402
 H1854 H 0.31707 0.89070 0.55653
 O1855 O 0.62125 1.08888 0.52142
 O1856 O 0.64965 1.11721 0.52105
 C1857 C 0.64101 1.09755 0.52969
 C1858 C 0.65353 1.08522 0.55021
 C1859 C 0.67473 1.09529 0.56029
 H1860 H 0.68254 1.11150 0.55227
 O1861 O 0.52412 1.08991 0.61979
 O1862 O 0.52418 1.11849 0.64802
 C1863 C 0.53262 1.09873 0.63945
 C1864 C 0.55316 1.08639 0.65193
 C1865 C 0.56321 1.09635 0.67328
 H1866 H 0.55521 1.11253 0.68117
 O1867 O 0.47674 0.91400 0.62148
 O1868 O 0.47691 0.88581 0.65019
 C1869 C 0.46843 0.90546 0.64136
 C1870 C 0.44801 0.91788 0.65384
 C1871 C 0.43791 0.90780 0.67511
 H1872 H 0.44592 0.89160 0.68297
 O1873 O 0.62164 1.02529 0.58640
 O1874 O 0.65009 1.02552 0.61475
 C1875 C 0.64138 1.03375 0.59490
 C1876 C 0.65374 1.05401 0.58210
 C1877 C 0.67493 1.06440 0.59189
 H1878 H 0.68300 1.05690 0.60830
 O1879 O 0.37893 0.97749 0.58801
 O1880 O 0.35083 0.97763 0.61673
 C1881 C 0.35934 0.96907 0.59694
 C1882 C 0.34683 0.94851 0.58474
 C1883 C 0.32578 0.93835 0.59509
 H1884 H 0.31813 0.94631 0.61142
 O1885 O 0.58772 1.12196 0.52130
 O1886 O 0.61610 1.15030 0.52101
 C1887 C 0.59644 1.14168 0.52960
 C1888 C 0.58417 1.15421 0.55010
 C1889 C 0.59451 1.17521 0.56032
 H1890 H 0.61085 1.18279 0.55241
 O1891 O 0.41175 0.88000 0.52405
 O1892 O 0.38358 0.85145 0.52459
 C1893 C 0.40329 0.86032 0.53279
 C1894 C 0.41602 0.84817 0.55330
 C1895 C 0.40648 0.82683 0.56373
 H1896 H 0.39027 0.81855 0.55617
 O1897 O 0.58817 0.97832 0.62043
 O1898 O 0.61659 0.97849 0.64881
 C1899 C 0.59685 0.97005 0.64025
 C1900 C 0.58445 0.94973 0.65293
 C1901 C 0.59448 0.93969 0.67424
 H1902 H 0.61071 0.94763 0.68200
 O1903 O 0.41229 1.02542 0.62083
 O1904 O 0.38420 1.02562 0.64955
 C1905 C 0.40379 1.03402 0.64058
 C1906 C 0.41633 1.05460 0.65271
 C1907 C 0.40659 1.06508 0.67396
 H1908 H 0.39034 1.05754 0.68221
 O1909 O 0.47615 1.12300 0.58650
 O1910 O 0.47628 1.15163 0.61468
 C1911 C 0.46766 1.14274 0.59512
 C1912 C 0.44690 1.15489 0.58282
 C1913 C 0.43628 1.17590 0.59292
 H1914 H 0.44388 1.18400 0.60924
 O1915 O 0.52416 0.88016 0.58830
 O1916 O 0.52410 0.85197 0.61701
 C1917 C 0.53249 0.86043 0.59715
 C1918 C 0.55276 0.84771 0.58475
 C1919 C 0.56274 0.82640 0.59485
 H1920 H 0.55481 0.81869 0.61118
 O1921 O 0.62065 0.91294 0.52371
 O1922 O 0.64902 0.88452 0.52374
 C1923 C 0.64038 0.90428 0.53211
 C1924 C 0.65292 0.91674 0.55248
 C1925 C 0.67401 0.90655 0.56270
 H1926 H 0.68162 0.89017 0.55488
 O1927 O 0.37783 1.08909 0.52342
 O1928 O 0.34945 1.11749 0.52313
 C1929 C 0.35816 1.09788 0.53186
 C1930 C 0.34591 1.08557 0.55262
 C1931 C 0.32477 1.09550 0.56317
 H1932 H 0.31662 1.11180 0.55556
 Cu1933 Cu 0.50048 0.90008 0.60187
 Cu1934 Cu 0.50051 0.86622 0.63633
 Cu1935 Cu 0.50016 1.10350 0.60015
 Cu1936 Cu 0.50028 1.13781 0.63403
 Cu1937 Cu 0.39753 0.89904 0.50009
 Cu1938 Cu 0.36368 0.86484 0.50067
 Cu1939 Cu 0.60128 0.89879 0.50001
 Cu1940 Cu 0.63538 0.86469 0.50009
 Cu1941 Cu 0.39748 1.10233 0.49930
 Cu1942 Cu 0.36349 1.13647 0.49883
 Cu1943 Cu 0.60161 1.10252 0.49752
 Cu1944 Cu 0.63568 1.13657 0.49716
 Cu1945 Cu 0.39832 1.00144 0.60168
 Cu1946 Cu 0.36457 1.00164 0.63612
 Cu1947 Cu 0.60220 1.00180 0.60071
 Cu1948 Cu 0.63632 1.00202 0.63478
 C1949 C 0.56364 0.93895 0.64271
 H1950 H 0.55605 0.94635 0.62603
 C1951 C 0.58425 0.91893 0.68501
 C1952 C 0.43712 1.06509 0.64207
 H1953 H 0.44447 1.05744 0.62541
 C1954 C 0.41719 1.08584 0.68430
 C1955 C 0.35640 1.06469 0.56317
 H1956 H 0.37291 1.05716 0.55546
 C1957 C 0.31441 1.08491 0.58406
 C1958 C 0.64292 0.93780 0.56302
 H1959 H 0.62642 0.94552 0.55545
 C1960 C 0.68477 0.91685 0.58342
 C1961 C 0.56345 0.85780 0.56378
 H1962 H 0.55609 0.87446 0.55616
 C1963 C 0.58336 0.81552 0.58448
 C1964 C 0.43635 1.14442 0.56195
 H1965 H 0.44411 1.12796 0.55433
 C1966 C 0.41531 1.18616 0.58258
 C1967 C 0.43720 0.93866 0.64349
 H1968 H 0.44463 0.94625 0.62683
 C1969 C 0.41703 0.91792 0.68568
 C1970 C 0.56398 1.06561 0.64161
 H1971 H 0.55656 1.05805 0.62495
 C1972 C 0.58397 1.08602 0.68399
 C1973 C 0.43681 0.85882 0.56377
 H1974 H 0.44403 0.87553 0.55615
 C1975 C 0.41722 0.81646 0.58446
 C1976 C 0.56322 1.14421 0.56084
 H1977 H 0.55542 1.12774 0.55333
 C1978 C 0.58444 1.18587 0.58120
 C1979 C 0.35684 0.93776 0.56374
 H1980 H 0.37333 0.94522 0.55592
 C1981 C 0.31504 0.91757 0.58494
 C1982 C 0.64332 1.06441 0.56109
 H1983 H 0.62672 1.05681 0.55370
 C1984 C 0.68537 1.08506 0.58118
 O1985 O 0.47555 0.41145 0.87914
 O1986 O 0.47525 0.38328 0.85049
 C1987 C 0.46702 0.40302 0.85934
 C1988 C 0.44667 0.41578 0.84703
 C1989 C 0.43621 0.40600 0.82583
 H1990 H 0.44365 0.38961 0.81772
 O1991 O 0.52394 0.58773 0.87830
 O1992 O 0.52413 0.61578 0.84945
 C1993 C 0.53242 0.59610 0.85843
 C1994 C 0.55283 0.58338 0.84623
 C1995 C 0.56331 0.59318 0.82500
 H1996 H 0.55578 0.60950 0.81678
 O1997 O 0.37845 0.47651 0.91272
 O1998 O 0.34998 0.47696 0.88439
 C1999 C 0.35865 0.46829 0.90405
 C2000 C 0.34613 0.44778 0.91636
 C2001 C 0.32508 0.43752 0.90612
 H2002 H 0.31737 0.44540 0.88976
 O2003 O 0.62125 0.52264 0.91237
 O2004 O 0.64948 0.52236 0.88377
 C2005 C 0.64093 0.53094 0.90351
 C2006 C 0.65341 0.55147 0.91571
 C2007 C 0.67458 0.56158 0.90556
 H2008 H 0.68246 0.55355 0.88938
 O2009 O 0.41129 0.37892 0.97676
 O2010 O 0.38280 0.35070 0.97719
 C2011 C 0.40247 0.35921 0.96850
 C2012 C 0.41467 0.34659 0.94794
 C2013 C 0.40445 0.32544 0.93784
 H2014 H 0.38820 0.31777 0.94586
 O2015 O 0.58802 0.62096 0.97542
 O2016 O 0.61662 0.64908 0.97543
 C2017 C 0.59690 0.64058 0.96693
 C2018 C 0.58474 0.65310 0.94631
 C2019 C 0.59504 0.67415 0.93607
 H2020 H 0.61129 0.68179 0.94407
 O2021 O 0.41215 0.52412 0.87941
 O2022 O 0.38363 0.52434 0.85113
 C2023 C 0.40339 0.53266 0.85971
 C2024 C 0.41570 0.55312 0.84710
 C2025 C 0.40537 0.56336 0.82600
 H2026 H 0.38901 0.55551 0.81842
 O2027 O 0.58726 0.47522 0.87950
 O2028 O 0.61550 0.47505 0.85092
 C2029 C 0.59580 0.46674 0.85972
 C2030 C 0.58333 0.44635 0.84727
 C2031 C 0.59341 0.43628 0.82604
 H2032 H 0.60960 0.44428 0.81825
 O2033 O 0.52270 0.37729 0.91232
 O2034 O 0.52237 0.34904 0.88376
 C2035 C 0.53090 0.35751 0.90354
 C2036 C 0.55126 0.34483 0.91591
 C2037 C 0.56132 0.32357 0.90583
 H2038 H 0.55340 0.31578 0.88955
 O2039 O 0.47688 0.62198 0.91140
 O2040 O 0.47705 0.65012 0.88263
 C2041 C 0.46862 0.64172 0.90253
 C2042 C 0.44835 0.65445 0.91496
 C2043 C 0.43802 0.67549 0.90463
 H2044 H 0.44569 0.68301 0.88809
 O2045 O 0.38090 0.58963 0.97678
 O2046 O 0.35252 0.61804 0.97673
 C2047 C 0.36112 0.59822 0.96843
 C2048 C 0.34844 0.58554 0.94827
 C2049 C 0.32705 0.59542 0.93835
 H2050 H 0.31937 0.61179 0.94615
 O2051 O 0.62022 0.41032 0.97597
 O2052 O 0.64837 0.38167 0.97610
 C2053 C 0.63988 0.40149 0.96761
 C2054 C 0.65248 0.41392 0.94722
 C2055 C 0.67366 0.40383 0.93709
 H2056 H 0.68133 0.38747 0.94495
 O2057 O 0.47635 0.58848 0.87826
 O2058 O 0.47642 0.61655 0.84943
 C2059 C 0.46783 0.59704 0.85847
 C2060 C 0.44710 0.58465 0.84643
 C2061 C 0.43640 0.59462 0.82534
 H2062 H 0.44388 0.61093 0.81711
 O2063 O 0.52310 0.41082 0.87909
 O2064 O 0.52293 0.38263 0.85046
 C2065 C 0.53153 0.40220 0.85931
 C2066 C 0.55210 0.41465 0.84704
 C2067 C 0.56264 0.40476 0.82585
 H2068 H 0.55520 0.38839 0.81776
 O2069 O 0.62119 0.47492 0.91222
 O2070 O 0.64941 0.47468 0.88363
 C2071 C 0.64076 0.46628 0.90341
 C2072 C 0.65297 0.44560 0.91581
 C2073 C 0.67415 0.43518 0.90592
 H2074 H 0.68235 0.44287 0.88966
 O2075 O 0.37932 0.52424 0.91325
 O2076 O 0.35081 0.52464 0.88495
 C2077 C 0.35971 0.53297 0.90465
 C2078 C 0.34767 0.55365 0.91714
 C2079 C 0.32631 0.56390 0.90749
 H2080 H 0.31791 0.55607 0.89143
 O2081 O 0.41380 0.62331 0.97631
 O2082 O 0.38544 0.65173 0.97628
 C2083 C 0.40503 0.64295 0.96769
 C2084 C 0.41720 0.65509 0.94683
 C2085 C 0.40711 0.67610 0.93615
 H2086 H 0.39087 0.68426 0.94381
 O2087 O 0.58708 0.37689 0.97592
 O2088 O 0.61519 0.34822 0.97609
 C2089 C 0.59563 0.35709 0.96752
 C2090 C 0.58315 0.34477 0.94701
 C2091 C 0.59314 0.32371 0.93641
 H2092 H 0.60971 0.31587 0.94370
 O2093 O 0.58783 0.52287 0.87910
 O2094 O 0.61609 0.52261 0.85054
 C2095 C 0.59648 0.53121 0.85927
 C2096 C 0.58417 0.55172 0.84671
 C2097 C 0.59434 0.56187 0.82550
 H2098 H 0.61063 0.55396 0.81779
 O2099 O 0.41206 0.47643 0.87958
 O2100 O 0.38356 0.47674 0.85128
 C2101 C 0.40325 0.46812 0.85985
 C2102 C 0.41550 0.44761 0.84729
 C2103 C 0.40537 0.43754 0.82606
 H2104 H 0.38915 0.44554 0.81828
 O2105 O 0.52438 0.62168 0.91094
 O2106 O 0.52468 0.64980 0.88217
 C2107 C 0.53304 0.64121 0.90201
 C2108 C 0.55362 0.65344 0.91443
 C2109 C 0.56428 0.67449 0.90443
 H2110 H 0.55687 0.68256 0.88797
 O2111 O 0.47516 0.37788 0.91230
 O2112 O 0.47474 0.34964 0.88373
 C2113 C 0.46645 0.35833 0.90355
 C2114 C 0.44589 0.34615 0.91612
 C2115 C 0.43536 0.32500 0.90631
 H2116 H 0.44287 0.31681 0.88998
 O2117 O 0.62122 0.58751 0.97553
 O2118 O 0.64979 0.61567 0.97548
 C2119 C 0.64101 0.59600 0.96711
 C2120 C 0.65341 0.58335 0.94679
 C2121 C 0.67458 0.59317 0.93637
 H2122 H 0.68258 0.60958 0.94383
 O2123 O 0.37799 0.41227 0.97671
 O2124 O 0.34947 0.38407 0.97704
 C2125 C 0.35823 0.40367 0.96838
 C2126 C 0.34591 0.41610 0.94779
 C2127 C 0.32488 0.40611 0.93723
 H2128 H 0.31686 0.38973 0.94479
 Cu2129 Cu 0.49916 0.39718 0.89856
 Cu2130 Cu 0.49879 0.36333 0.86423
 Cu2131 Cu 0.50037 0.60216 0.89759
 Cu2132 Cu 0.50058 0.63586 0.86301
 Cu2133 Cu 0.39833 0.50026 0.89910
 Cu2134 Cu 0.36415 0.50071 0.86511
 Cu2135 Cu 0.60159 0.49894 0.89870
 Cu2136 Cu 0.63544 0.49865 0.86434
 C2137 C 0.43633 0.43675 0.85750
 H2138 H 0.44401 0.44415 0.87411
 C2139 C 0.41555 0.41670 0.81538
 C2140 C 0.56326 0.56248 0.85683
 H2141 H 0.55559 0.55507 0.87347
 C2142 C 0.58411 0.58264 0.81472
 C2143 C 0.35625 0.43709 0.93734
 H2144 H 0.37270 0.44465 0.94509
 C2145 C 0.31447 0.41666 0.91638
 C2146 C 0.64310 0.56234 0.93648
 H2147 H 0.62652 0.55493 0.94413
 C2148 C 0.68511 0.58248 0.91572
 C2149 C 0.43553 0.35667 0.93709
 H2150 H 0.44325 0.37321 0.94451
 C2151 C 0.41461 0.31467 0.91700
 C2152 C 0.56387 0.64304 0.93553
 H2153 H 0.55607 0.62658 0.94313
 C2154 C 0.58499 0.68485 0.91513
 C2155 C 0.43670 0.56376 0.85705
 H2156 H 0.44451 0.55622 0.87357
 C2157 C 0.41549 0.58413 0.81516
 C2158 C 0.56251 0.43559 0.85751
 H2159 H 0.55488 0.44305 0.87412
 C2160 C 0.58332 0.41545 0.81539
 C2161 C 0.56209 0.35506 0.93674
 H2162 H 0.55460 0.37161 0.94444
 C2163 C 0.58224 0.31299 0.91595
 C2164 C 0.43797 0.64456 0.93621
 H2165 H 0.44559 0.62810 0.94402
 C2166 C 0.41737 0.68629 0.91504
 C2167 C 0.35850 0.56450 0.93768
 H2168 H 0.37525 0.55704 0.94494
 C2169 C 0.31605 0.58480 0.91792
 C2170 C 0.64243 0.43496 0.93662
 H2171 H 0.62586 0.44261 0.94410
 C2172 C 0.68449 0.41429 0.91643
 O2173 O 0.52360 0.41221 1.12242
 O2174 O 0.52356 0.38378 1.15089
 C2175 C 0.53216 0.40337 1.14207
 C2176 C 0.55294 0.41550 1.15420
 C2177 C 0.56354 0.40536 1.17525
 H2178 H 0.55600 0.38899 1.18331
 O2179 O 0.47713 0.58863 1.12223
 O2180 O 0.47760 0.61686 1.15080
 C2181 C 0.46888 0.59731 1.14205
 C2182 C 0.44829 0.58503 1.15446
 C2183 C 0.43792 0.59509 1.17563
 H2184 H 0.44562 0.61135 1.18370
 O2185 O 0.37965 0.52507 1.08878
 O2186 O 0.35111 0.52548 1.11704
 C2187 C 0.36002 0.53381 1.09733
 C2188 C 0.34799 0.55448 1.08472
 C2189 C 0.32666 0.56485 1.09433
 H2190 H 0.31828 0.55715 1.11049
 O2191 O 0.62130 0.47484 1.08748
 O2192 O 0.64986 0.47473 1.11573
 C2193 C 0.64095 0.46622 1.09613
 C2194 C 0.65301 0.44546 1.08382
 C2195 C 0.67402 0.43489 1.09390
 H2196 H 0.68218 0.44257 1.11015
 O2197 O 0.58660 0.37742 1.02370
 O2198 O 0.61470 0.34872 1.02393
 C2199 C 0.59510 0.35770 1.03235
 C2200 C 0.58264 0.34568 1.05308
 C2201 C 0.59246 0.32452 1.06365
 H2202 H 0.60862 0.31620 1.05598
 O2203 O 0.41408 0.62339 1.02419
 O2204 O 0.38572 0.65181 1.02421
 C2205 C 0.40539 0.64308 1.03270
 C2206 C 0.41774 0.65528 1.05338
 C2207 C 0.40776 0.67635 1.06397
 H2208 H 0.39152 0.68455 1.05632
 O2209 O 0.41211 0.47711 1.12266
 O2210 O 0.38361 0.47739 1.15098
 C2211 C 0.40327 0.46874 1.14239
 C2212 C 0.41553 0.44813 1.15487
 C2213 C 0.40550 0.43773 1.17608
 H2214 H 0.38918 0.44538 1.18410
 O2215 O 0.58849 0.52296 1.12068
 O2216 O 0.61709 0.52285 1.14888
 C2217 C 0.59736 0.53138 1.14033
 C2218 C 0.58518 0.55191 1.15290
 C2219 C 0.59549 0.56194 1.17405
 H2220 H 0.61176 0.55392 1.18170
 O2221 O 0.47560 0.37962 1.08909
 O2222 O 0.47550 0.35120 1.11758
 C2223 C 0.46711 0.35994 1.09781
 C2224 C 0.44670 0.34755 1.08535
 C2225 C 0.43667 0.32626 1.09535
 H2226 H 0.44459 0.31841 1.11163
 O2227 O 0.52479 0.62145 1.08854
 O2228 O 0.52539 0.64977 1.11703
 C2229 C 0.53350 0.64106 1.09715
 C2230 C 0.55384 0.65331 1.08435
 C2231 C 0.56435 0.67452 1.09405
 H2232 H 0.55700 0.68265 1.11048
 O2233 O 0.37846 0.41284 1.02444
 O2234 O 0.34992 0.38466 1.02486
 C2235 C 0.35878 0.40437 1.03312
 C2236 C 0.34663 0.41701 1.05367
 C2237 C 0.32553 0.40718 1.06427
 H2238 H 0.31737 0.39087 1.05676
 O2239 O 0.62102 0.58718 1.02314
 O2240 O 0.64958 0.61535 1.02304
 C2241 C 0.64083 0.59565 1.03147
 C2242 C 0.65340 0.58302 1.05176
 C2243 C 0.67472 0.59289 1.06175
 H2244 H 0.68248 0.60918 1.05385
 O2245 O 0.52472 0.58793 1.12174
 O2246 O 0.52531 0.61616 1.15031
 C2247 C 0.53346 0.59641 1.14143
 C2248 C 0.55396 0.58368 1.15352
 C2249 C 0.56461 0.59341 1.17467
 H2250 H 0.55720 0.60975 1.18291
 O2251 O 0.47590 0.41283 1.12258
 O2252 O 0.47587 0.38442 1.15106
 C2253 C 0.46747 0.40417 1.14236
 C2254 C 0.44703 0.41663 1.15484
 C2255 C 0.43675 0.40658 1.17605
 H2256 H 0.44462 0.39030 1.18391
 O2257 O 0.62176 0.52255 1.08728
 O2258 O 0.65036 0.52244 1.11547
 C2259 C 0.64155 0.53091 1.09578
 C2260 C 0.65384 0.55137 1.08320
 C2261 C 0.67515 0.56160 1.09294
 H2262 H 0.68338 0.55386 1.10916
 O2263 O 0.37937 0.47735 1.08873
 O2264 O 0.35087 0.47775 1.11703
 C2265 C 0.35958 0.46912 1.09738
 C2266 C 0.34706 0.44865 1.08507
 C2267 C 0.32599 0.43848 1.09537
 H2268 H 0.31830 0.44639 1.11170
 O2269 O 0.58806 0.62092 1.02323
 O2270 O 0.61664 0.64907 1.02314
 C2271 C 0.59691 0.64054 1.03166
 C2272 C 0.58472 0.65306 1.05223
 C2273 C 0.59488 0.67428 1.06219
 H2274 H 0.61099 0.68207 1.05401
 O2275 O 0.41144 0.37920 1.02453
 O2276 O 0.38295 0.35097 1.02501
 C2277 C 0.40272 0.35962 1.03327
 C2278 C 0.41521 0.34734 1.05384
 C2279 C 0.40544 0.32606 1.06420
 H2280 H 0.38920 0.31793 1.05657
 O2281 O 0.58829 0.47539 1.12117
 O2282 O 0.61686 0.47532 1.14941
 C2283 C 0.59702 0.46703 1.14095
 C2284 C 0.58452 0.44681 1.15371
 C2285 C 0.59463 0.43658 1.17491
 H2286 H 0.61109 0.44424 1.18250
 O2287 O 0.41288 0.52474 1.12219
 O2288 O 0.38437 0.52508 1.15050
 C2289 C 0.40418 0.53331 1.14187
 C2290 C 0.41669 0.55371 1.15431
 C2291 C 0.40664 0.56405 1.17545
 H2292 H 0.39033 0.55629 1.18325
 O2293 O 0.47734 0.62199 1.08883
 O2294 O 0.47783 0.65029 1.11735
 C2295 C 0.46923 0.64181 1.09759
 C2296 C 0.44895 0.65458 1.08517
 C2297 C 0.43872 0.67565 1.09543
 H2298 H 0.44643 0.68317 1.11193
 O2299 O 0.52306 0.37913 1.08884
 O2300 O 0.52292 0.35072 1.11733
 C2301 C 0.53131 0.35929 1.09749
 C2302 C 0.55147 0.34653 1.08493
 C2303 C 0.56158 0.32535 1.09515
 H2304 H 0.55385 0.31780 1.11165
 O2305 O 0.62035 0.41017 1.02362
 O2306 O 0.64847 0.38150 1.02379
 C2307 C 0.63995 0.40133 1.03214
 C2308 C 0.65247 0.41371 1.05259
 C2309 C 0.67345 0.40342 1.06299
 H2310 H 0.68102 0.38693 1.05534
 O2311 O 0.38098 0.58990 1.02441
 O2312 O 0.35260 0.61831 1.02433
 C2313 C 0.36126 0.59857 1.03281
 C2314 C 0.34867 0.58608 1.05320
 C2315 C 0.32733 0.59607 1.06308
 H2316 H 0.31962 0.61235 1.05508
 Cu2317 Cu 0.49955 0.39885 1.10292
 Cu2318 Cu 0.49943 0.36470 1.13709
 Cu2319 Cu 0.50094 0.60215 1.10251
 Cu2320 Cu 0.50159 0.63609 1.13676
 Cu2321 Cu 0.39764 0.39863 1.00056
 Cu2322 Cu 0.36343 0.36477 1.00108
 Cu2323 Cu 0.60072 0.39654 0.99977
 Cu2324 Cu 0.63449 0.36214 0.99999
 Cu2325 Cu 0.40035 0.60378 1.00043
 Cu2326 Cu 0.36625 0.63784 1.00038
 Cu2327 Cu 0.60168 0.60133 0.99932
 Cu2328 Cu 0.63600 0.63515 0.99930
 Cu2329 Cu 0.39886 0.50102 1.10276
 Cu2330 Cu 0.36462 0.50147 1.13671
 Cu2331 Cu 0.60212 0.49894 1.10128
 Cu2332 Cu 0.63642 0.49882 1.13519
 C2333 C 0.56348 0.43634 1.14369
 H2334 H 0.55579 0.44392 1.12713
 C2335 C 0.58429 0.41587 1.18570
 C2336 C 0.43765 0.56420 1.14407
 H2337 H 0.44520 0.55662 1.12747
 C2338 C 0.41704 0.58480 1.18605
 C2339 C 0.35876 0.56514 1.06400
 H2340 H 0.37546 0.55758 1.05674
 C2341 C 0.31638 0.58567 1.08368
 C2342 C 0.64250 0.43487 1.06300
 H2343 H 0.62607 0.44264 1.05536
 C2344 C 0.68420 0.41386 1.08366
 C2345 C 0.56199 0.35645 1.06374
 H2346 H 0.55459 0.37305 1.05603
 C2347 C 0.58212 0.31443 1.08472
 C2348 C 0.43850 0.64470 1.06398
 H2349 H 0.44606 0.62821 1.05621
 C2350 C 0.41809 0.68650 1.08502
 C2351 C 0.43642 0.43754 1.14454
 H2352 H 0.44397 0.44511 1.12792
 C2353 C 0.41594 0.41691 1.18664
 C2354 C 0.56427 0.56276 1.14288
 H2355 H 0.55649 0.55540 1.12630
 C2356 C 0.58542 0.58273 1.18486
 C2357 C 0.43601 0.35783 1.06443
 H2358 H 0.44341 0.37448 1.05686
 C2359 C 0.41604 0.31555 1.08495
 C2360 C 0.56403 0.64286 1.06327
 H2361 H 0.55634 0.62626 1.05591
 C2362 C 0.58489 0.68497 1.08311
 C2363 C 0.35714 0.43790 1.06409
 H2364 H 0.37367 0.44534 1.05634
 C2365 C 0.31529 0.41769 1.08519
 C2366 C 0.64322 0.56211 1.06246
 H2367 H 0.62651 0.55468 1.05513
 C2368 C 0.68553 0.58240 1.08240
 C2369 C 1.12212 1.10447 1.20628
 C2370 C 1.11356 1.12787 1.21953
 C2371 C 1.11827 1.11532 1.24415
 C2372 C 1.12703 1.09207 1.23121
 C2373 C 1.09207 1.10567 1.24482
 C2374 C 1.08718 1.11813 1.21997
 C2375 C 1.09584 1.09482 1.20692
 C2376 C 1.10062 1.08227 1.23158
 H2377 H 1.13436 1.10392 1.19018
 H2378 H 1.11906 1.14672 1.21473
 H2379 H 1.14355 1.08143 1.23594
 H2380 H 1.07983 1.10626 1.26092
 H2381 H 1.07088 1.12932 1.21587
 H2382 H 1.09512 1.06342 1.23638
 C2383 C 1.08739 0.61889 0.72024
 C2384 C 1.09217 0.60623 0.74503
 C2385 C 1.11840 0.61582 0.74452
 C2386 C 1.11380 0.62857 0.71999
 C2387 C 1.12714 0.59265 0.73142
 C2388 C 1.10072 0.58292 0.73163
 C2389 C 1.09606 0.59566 0.70704
 C2390 C 1.12235 0.60527 0.70659
 H2391 H 1.07110 0.63009 0.71611
 H2392 H 1.07989 0.60673 0.76111
 H2393 H 1.11937 0.64746 0.71538
 H2394 H 1.14362 0.58195 0.73614
 H2395 H 1.09518 0.56404 0.73629
 H2396 H 1.13468 0.60482 0.69054
 C2397 C 0.62169 1.10763 0.70587
 C2398 C 0.61271 1.13024 0.72015
 C2399 C 0.61768 1.11667 0.74418
 C2400 C 0.62686 1.09420 0.73020
 C2401 C 0.59164 1.10653 0.74444
 C2402 C 0.58650 1.11998 0.72013
 C2403 C 0.59560 1.09746 0.70603
 C2404 C 0.60063 1.08391 0.73013
 H2405 H 0.63395 1.10802 0.68977
 H2406 H 0.61783 1.14939 0.71617
 H2407 H 0.64355 1.08361 0.73440
 H2408 H 0.57939 1.10613 0.76054
 H2409 H 0.56992 1.13091 0.71642
 H2410 H 0.59551 1.06476 0.73409
 C2411 C 0.58485 0.59884 1.23113
 C2412 C 0.60836 0.59055 1.24434
 C2413 C 0.61754 0.61696 1.24385
 C2414 C 0.59419 0.62543 1.23093
 C2415 C 0.63015 0.61266 1.21921
 C2416 C 0.62085 0.58607 1.21943
 C2417 C 0.59744 0.59450 1.20644
 C2418 C 0.60666 0.62096 1.20602
 H2419 H 0.56611 0.59303 1.23587
 H2420 H 0.60919 0.57815 1.26034
 H2421 H 0.58326 0.64175 1.23571
 H2422 H 0.64888 0.61850 1.21445
 H2423 H 0.63217 0.56991 1.21508
 H2424 H 0.60588 0.63337 1.19003
 C2425 C 0.90043 0.91548 1.23242
 C2426 C 0.87394 0.90589 1.23248
 C2427 C 0.88261 0.88292 1.24602
 C2428 C 0.90889 0.89236 1.24630
 C2429 C 0.88708 0.86968 1.22176
 C2430 C 0.87863 0.89280 1.20790
 C2431 C 0.90498 0.90228 1.20808
 C2432 C 0.91355 0.87925 1.22174
 H2433 H 0.90603 0.93441 1.23671
 H2434 H 0.85755 0.91684 1.23690
 H2435 H 0.92124 0.89206 1.26232
 H2436 H 0.88145 0.85075 1.21751
 H2437 H 0.86625 0.89304 1.19190
 H2438 H 0.92982 0.86798 1.21772
 C2439 C 0.90050 0.41640 0.73196
 C2440 C 0.87407 0.40664 0.73192
 C2441 C 0.88287 0.38362 0.74529
 C2442 C 0.90910 0.39323 0.74567
 C2443 C 0.88746 0.37060 0.72093
 C2444 C 0.87886 0.39377 0.70725
 C2445 C 0.90515 0.40341 0.70754
 C2446 C 0.91386 0.38033 0.72102
 H2447 H 0.90605 0.43533 0.73631
 H2448 H 0.85761 0.41746 0.73644
 H2449 H 0.92139 0.39295 0.76174
 H2450 H 0.88187 0.35168 0.71657
 H2451 H 0.86655 0.39404 0.69120
 H2452 H 0.93018 0.36914 0.71698
 C2453 C 0.39979 0.91882 0.73166
 C2454 C 0.37361 0.90845 0.73117
 C2455 C 0.38269 0.88561 0.74468
 C2456 C 0.40867 0.89584 0.74549
 C2457 C 0.38798 0.87277 0.72037
 C2458 C 0.37909 0.89574 0.70657
 C2459 C 0.40514 0.90597 0.70731
 C2460 C 0.41415 0.88308 0.72093
 H2461 H 0.40482 0.93788 0.73610
 H2462 H 0.35683 0.91883 0.73553
 H2463 H 0.42071 0.89586 0.76175
 H2464 H 0.38292 0.85372 0.71591
 H2465 H 0.36703 0.89579 0.69033
 H2466 H 0.43078 0.87225 0.71722
 C2467 C 0.39952 0.41813 1.23294
 C2468 C 0.37302 0.40855 1.23297
 C2469 C 0.38172 0.38541 1.24622
 C2470 C 0.40801 0.39484 1.24653
 C2471 C 0.38612 0.37247 1.22178
 C2472 C 0.37765 0.39575 1.20821
 C2473 C 0.40401 0.40520 1.20843
 C2474 C 0.41259 0.38201 1.22182
 H2475 H 0.40519 0.43701 1.23736
 H2476 H 0.35665 0.41944 1.23760
 H2477 H 0.42037 0.39442 1.26254
 H2478 H 0.38041 0.35360 1.21734
 H2479 H 0.36526 0.39618 1.19222
 H2480 H 0.42880 0.37069 1.21771
 C2481 C 0.90011 1.08385 0.76911
 C2482 C 0.87359 1.09339 0.76898
 C2483 C 0.88223 1.11651 0.75568
 C2484 C 0.90856 1.10711 0.75551
 C2485 C 0.88651 1.12949 0.78012
 C2486 C 0.87806 1.10625 0.79371
 C2487 C 0.90445 1.09684 0.79359
 C2488 C 0.91301 1.12000 0.78019
 H2489 H 0.90587 1.06496 0.76474
 H2490 H 0.85727 1.08250 0.76428
 H2491 H 0.92094 1.10753 0.73951
 H2492 H 0.88069 1.14836 0.78448
 H2493 H 0.86564 1.10582 0.80967
 H2494 H 0.92916 1.13135 0.78435
 C2495 C 0.89995 0.58324 0.26931
 C2496 C 0.87354 0.59310 0.26931
 C2497 C 0.88234 0.61596 0.25566
 C2498 C 0.90856 0.60623 0.25536
 C2499 C 0.88701 0.62916 0.27990
 C2500 C 0.87840 0.60618 0.29384
 C2501 C 0.90466 0.59645 0.29358
 C2502 C 0.91340 0.61935 0.27985
 H2503 H 0.90555 0.56423 0.26529
 H2504 H 0.85710 0.58224 0.26495
 H2505 H 0.92084 0.60624 0.23928
 H2506 H 0.88144 0.64815 0.28406
 H2507 H 0.86615 0.60613 0.30996
 H2508 H 0.92972 0.63054 0.28376
 C2509 C 0.37825 1.10599 0.29242
 C2510 C 0.38744 1.12844 0.27800
 C2511 C 0.38157 1.11519 0.25405
 C2512 C 0.37219 1.09288 0.26818
 C2513 C 0.40733 1.10437 0.25315
 C2514 C 0.41337 1.11753 0.27734
 C2515 C 0.40408 1.09517 0.29158
 C2516 C 0.39816 1.08190 0.26759
 H2517 H 0.36639 1.10661 0.30881
 H2518 H 0.38282 1.14770 0.28209
 H2519 H 0.35513 1.08282 0.26429
 H2520 H 0.41914 1.10379 0.23673
 H2521 H 0.43027 1.12805 0.28062
 H2522 H 0.40273 1.06263 0.26350
 C2523 C 0.41619 0.60072 0.76896
 C2524 C 0.39301 0.59208 0.75547
 C2525 C 0.38326 0.61831 0.75594
 C2526 C 0.40630 0.62714 0.76913
 C2527 C 0.37050 0.61361 0.78042
 C2528 C 0.38035 0.58720 0.78022
 C2529 C 0.40345 0.59597 0.79351
 C2530 C 0.39367 0.62226 0.79391
 H2531 H 0.43509 0.59527 0.76436
 H2532 H 0.39260 0.57982 0.73938
 H2533 H 0.41693 0.64369 0.76449
 H2534 H 0.35158 0.61909 0.78493
 H2535 H 0.36929 0.57081 0.78431
 H2536 H 0.39399 0.63460 0.80994
 C2537 C 1.08426 0.90239 0.76719
 C2538 C 1.10813 0.91034 0.75442
 C2539 C 1.11669 0.88368 0.75444
 C2540 C 1.09297 0.87556 0.76692
 C2541 C 1.12907 0.88714 0.77933
 C2542 C 1.12040 0.91397 0.77957
 C2543 C 1.09663 0.90589 0.79212
 C2544 C 1.10523 0.87919 0.79208
 H2545 H 1.06573 0.90883 0.76238
 H2546 H 1.10943 0.92303 0.73868
 H2547 H 1.08172 0.85964 0.76165
 H2548 H 1.14760 0.88071 0.78418
 H2549 H 1.13207 0.92972 0.78439
 H2550 H 1.10396 0.86650 0.80782
 C2551 C 1.12125 0.39419 0.29230
 C2552 C 1.11165 0.37203 0.27777
 C2553 C 1.11795 0.38527 0.25388
 C2554 C 1.12774 0.40729 0.26812
 C2555 C 1.09244 0.39668 0.25288
 C2556 C 1.08597 0.38352 0.27702
 C2557 C 1.09568 0.40560 0.29137
 C2558 C 1.10202 0.41886 0.26744
 H2559 H 1.13301 0.39321 0.30874
 H2560 H 1.11578 0.35264 0.28183
 H2561 H 1.14503 0.41701 0.26435
 H2562 H 1.08072 0.39762 0.23642
 H2563 H 1.06881 0.37338 0.28017
 H2564 H 1.09791 0.43824 0.26337
 C2565 C 0.62038 0.89341 0.29318
 C2566 C 0.61141 0.87089 0.27881
 C2567 C 0.61724 0.88421 0.25484
 C2568 C 0.62639 0.90660 0.26893
 C2569 C 0.59138 0.89480 0.25385
 C2570 C 0.58538 0.88158 0.27808
 C2571 C 0.59446 0.90401 0.29226
 C2572 C 0.60033 0.91734 0.26825
 H2573 H 0.63219 0.89289 0.30961
 H2574 H 0.61616 0.85167 0.28297
 H2575 H 0.64337 0.91681 0.26504
 H2576 H 0.57960 0.89529 0.23741
 H2577 H 0.56853 0.87099 0.28142
 H2578 H 0.59559 0.93657 0.26409
 C2579 C 0.58253 0.39870 0.76925
 C2580 C 0.60543 0.40787 0.75556
 C2581 C 0.61581 0.38189 0.75611
 C2582 C 0.59305 0.37252 0.76948
 C2583 C 0.62859 0.38692 0.78049
 C2584 C 0.61811 0.41308 0.78020
 C2585 C 0.59531 0.40379 0.79368
 C2586 C 0.60570 0.37774 0.79416
 H2587 H 0.56347 0.40368 0.76478
 H2588 H 0.60542 0.42014 0.73945
 H2589 H 0.58280 0.35572 0.76496
 H2590 H 0.64765 0.38193 0.78493
 H2591 H 0.62884 0.42973 0.78407
 H2592 H 0.60574 0.36544 0.81025
 C2593 C 1.23092 1.09729 1.08379
 C2594 C 1.23098 1.12405 1.09267
 C2595 C 1.24379 1.11588 1.11626
 C2596 C 1.24404 1.08930 1.10753
 C2597 C 1.21921 1.11202 1.12899
 C2598 C 1.20613 1.12002 1.10529
 C2599 C 1.20630 1.09339 1.09652
 C2600 C 1.21918 1.08526 1.12015
 H2601 H 1.23556 1.09107 1.06510
 H2602 H 1.23592 1.14012 1.08141
 H2603 H 1.25988 1.07680 1.10856
 H2604 H 1.21457 1.11825 1.14768
 H2605 H 1.19031 1.13257 1.10431
 H2606 H 1.21471 1.06937 1.13183
 C2607 C 1.22044 0.58643 0.62065
 C2608 C 1.24536 0.59012 0.60804
 C2609 C 1.24537 0.61677 0.61656
 C2610 C 1.22072 0.61325 0.62928
 C2611 C 1.23268 0.62489 0.59289
 C2612 C 1.23238 0.59806 0.58421
 C2613 C 1.20768 0.59449 0.59691
 C2614 C 1.20775 0.62119 0.60548
 H2615 H 1.21582 0.57069 0.63250
 H2616 H 1.26108 0.57746 0.60923
 H2617 H 1.21614 0.61970 0.64792
 H2618 H 1.23782 0.64081 0.58150
 H2619 H 1.23703 0.59162 0.56559
 H2620 H 1.19206 0.63391 0.60437
 C2621 C 0.73137 1.08367 0.59767
 C2622 C 0.74500 1.10692 0.58930
 C2623 C 0.74454 1.11628 0.61571
 C2624 C 0.73123 1.09318 0.62427
 C2625 C 0.72024 1.12933 0.61115
 C2626 C 0.72043 1.11988 0.58456
 C2627 C 0.70703 1.09674 0.59306
 C2628 C 0.70664 1.10610 0.61953
 H2629 H 0.73579 1.06479 0.59195
 H2630 H 0.76107 1.10731 0.57704
 H2631 H 0.73574 1.08224 0.64071
 H2632 H 0.71581 1.14818 0.61695
 H2633 H 0.71642 1.13120 0.56827
 H2634 H 0.69062 1.10567 0.63185
 C2635 C 0.73149 0.58099 1.09921
 C2636 C 0.74528 0.60399 1.09046
 C2637 C 0.74475 0.61389 1.11667
 C2638 C 0.73127 0.59102 1.12563
 C2639 C 0.72053 0.62694 1.11172
 C2640 C 0.72082 0.61698 1.08535
 C2641 C 0.70724 0.59407 1.09423
 C2642 C 0.70676 0.60396 1.12050
 H2643 H 0.73570 0.56198 1.09379
 H2644 H 0.76137 0.60401 1.07822
 H2645 H 0.73564 0.58032 1.14226
 H2646 H 0.71621 0.64595 1.11711
 H2647 H 0.71702 0.62806 1.06884
 H2648 H 0.69065 0.60392 1.13272
 C2649 C 1.20573 0.89478 0.87868
 C2650 C 1.23027 0.90763 0.87365
 C2651 C 1.24368 0.88471 0.88263
 C2652 C 1.21944 0.87173 0.88748
 C2653 C 1.24414 0.89459 0.90885
 C2654 C 1.23041 0.91765 0.90007
 C2655 C 1.20612 0.90466 0.90496
 C2656 C 1.21964 0.88169 0.91387
 H2657 H 1.18970 0.89492 0.86638
 H2658 H 1.23478 0.91826 0.85701
 H2659 H 1.21512 0.85273 0.88209
 H2660 H 1.26019 0.89448 0.92113
 H2661 H 1.23474 0.93665 0.90544
 H2662 H 1.21580 0.87061 0.93036
 C2663 C 1.23109 0.40014 0.41629
 C2664 C 1.23071 0.37399 0.40570
 C2665 C 1.24445 0.38329 0.38307
 C2666 C 1.24516 0.40922 0.39352
 C2667 C 1.22041 0.38870 0.36988
 C2668 C 1.20636 0.37962 0.39265
 C2669 C 1.20698 0.40561 0.40313
 C2670 C 1.22083 0.41483 0.38045
 H2671 H 1.23530 0.40500 0.43549
 H2672 H 1.23480 0.35709 0.41608
 H2673 H 1.26135 0.42128 0.39379
 H2674 H 1.21618 0.38385 0.35068
 H2675 H 1.19016 0.36757 0.39234
 H2676 H 1.21723 0.43159 0.36971
 C2677 C 0.72677 0.89127 0.41763
 C2678 C 0.72439 0.87025 0.39899
 C2679 C 0.74307 0.88306 0.38251
 C2680 C 0.74572 0.90390 0.40099
 C2681 C 0.72273 0.89683 0.36909
 C2682 C 0.70379 0.88419 0.38572
 C2683 C 0.70637 0.90508 0.40423
 C2684 C 0.72512 0.91787 0.38772
 H2685 H 0.72837 0.88912 0.43771
 H2686 H 0.72420 0.85051 0.40344
 H2687 H 0.76324 0.91180 0.40716
 H2688 H 0.72123 0.89900 0.34900
 H2689 H 0.68629 0.87625 0.37953
 H2690 H 0.72560 0.93756 0.38316
 C2691 C 0.70638 0.39340 0.87821
 C2692 C 0.73104 0.40630 0.87391
 C2693 C 0.74425 0.38314 0.88259
 C2694 C 0.71988 0.37011 0.88671
 C2695 C 0.74425 0.39240 0.90904
 C2696 C 0.73074 0.41570 0.90055
 C2697 C 0.70633 0.40267 0.90471
 C2698 C 0.71963 0.37947 0.91333
 H2699 H 0.69055 0.39390 0.86565
 H2700 H 0.73580 0.41731 0.85760
 H2701 H 0.71555 0.35127 0.88081
 H2702 H 0.76009 0.39192 0.92158
 H2703 H 0.73503 0.43455 0.90644
 H2704 H 0.71540 0.36806 0.92951
 C2705 C 0.79409 0.89212 1.12073
 C2706 C 0.76994 0.90544 1.12649
 C2707 C 0.75585 0.88321 1.11700
 C2708 C 0.77972 0.86976 1.11141
 C2709 C 0.75531 0.89397 1.09110
 C2710 C 0.76971 0.91635 1.10040
 C2711 C 0.79363 0.90289 1.09478
 C2712 C 0.77944 0.88062 1.08534
 H2713 H 0.81026 0.89139 1.13284
 H2714 H 0.76595 0.91561 1.14352
 H2715 H 0.78366 0.85048 1.11613
 H2716 H 0.73911 0.89465 1.07905
 H2717 H 0.76575 0.93562 1.09570
 H2718 H 0.78290 0.87009 1.06843
 C2719 C 0.76883 0.41656 0.59990
 C2720 C 0.75531 0.39335 0.59131
 C2721 C 0.75531 0.38390 0.61773
 C2722 C 0.76852 0.40696 0.62650
 C2723 C 0.77968 0.37085 0.61354
 C2724 C 0.77994 0.38039 0.58696
 C2725 C 0.79324 0.40350 0.59567
 C2726 C 0.79318 0.39404 0.62214
 H2727 H 0.76453 0.43546 0.59411
 H2728 H 0.73947 0.39301 0.57877
 H2729 H 0.76372 0.41783 0.64287
 H2730 H 0.78397 0.35195 0.61938
 H2731 H 0.78418 0.36909 0.57074
 H2732 H 0.80900 0.39437 0.63473
 C2733 C 0.26873 0.90195 0.58431
 C2734 C 0.26858 0.87521 0.59330
 C2735 C 0.25584 0.88344 0.61689
 C2736 C 0.25570 0.91002 0.60805
 C2737 C 0.28047 0.88722 0.62953
 C2738 C 0.29349 0.87916 0.60582
 C2739 C 0.29341 0.90578 0.59693
 C2740 C 0.28060 0.91397 0.62058
 H2741 H 0.26403 0.90815 0.56560
 H2742 H 0.26357 0.85914 0.58211
 H2743 H 0.23992 0.92260 0.60908
 H2744 H 0.28515 0.88101 0.64824
 H2745 H 0.30924 0.86653 0.60484
 H2746 H 0.28516 0.92986 0.63219
 C2747 C 0.28101 0.41360 1.12093
 C2748 C 0.25609 0.40960 1.10845
 C2749 C 0.25644 0.38294 1.11702
 C2750 C 0.28109 0.38676 1.12962
 C2751 C 0.26914 0.37501 1.09331
 C2752 C 0.26908 0.40185 1.08458
 C2753 C 0.29378 0.40572 1.09716
 C2754 C 0.29407 0.37901 1.10578
 H2755 H 0.28553 0.42943 1.13265
 H2756 H 0.24020 0.42203 1.10967
 H2757 H 0.28585 0.38038 1.14825
 H2758 H 0.26418 0.35902 1.08199
 H2759 H 0.26429 0.40823 1.06596
 H2760 H 0.30992 0.36653 1.10463
 C2761 C 0.77923 1.11847 0.91393
 C2762 C 0.77981 1.12864 0.88759
 C2763 C 0.75569 1.11560 0.88229
 C2764 C 0.75485 1.10552 0.90845
 C2765 C 0.76933 1.09281 0.87342
 C2766 C 0.79374 1.10572 0.87890
 C2767 C 0.79297 1.09563 0.90513
 C2768 C 0.76881 1.08258 0.89977
 H2769 H 0.78283 1.12938 0.93056
 H2770 H 0.78418 1.14768 0.88238
 H2771 H 0.73860 1.10550 0.92047
 H2772 H 0.76518 1.08232 0.85663
 H2773 H 0.80995 1.10574 0.86683
 H2774 H 0.76443 1.06352 0.90493
 C2775 C 0.77829 0.61838 0.41483
 C2776 C 0.77854 0.62915 0.38873
 C2777 C 0.75456 0.61591 0.38329
 C2778 C 0.75405 0.60523 0.40923
 C2779 C 0.76847 0.59351 0.37381
 C2780 C 0.79273 0.60662 0.37943
 C2781 C 0.79229 0.59594 0.40542
 C2782 C 0.76826 0.58268 0.39994
 H2783 H 0.78184 0.62897 0.43168
 H2784 H 0.78263 0.64836 0.38393
 H2785 H 0.73789 0.60473 0.42136
 H2786 H 0.76435 0.58332 0.35683
 H2787 H 0.80888 0.60714 0.36728
 H2788 H 0.76420 0.56346 0.40472
 C2789 C 0.27924 1.08629 0.38078
 C2790 C 0.25467 1.09086 0.39376
 C2791 C 0.25486 1.11719 0.38423
 C2792 C 0.27918 1.11280 0.37115
 C2793 C 0.26816 1.12589 0.40731
 C2794 C 0.26826 1.09937 0.41698
 C2795 C 0.29262 1.09492 0.40391
 C2796 C 0.29276 1.12132 0.39436
 H2797 H 0.28335 1.07004 0.36949
 H2798 H 0.23874 1.07847 0.39341
 H2799 H 0.28351 1.11851 0.35220
 H2800 H 0.26351 1.14230 0.41817
 H2801 H 0.26392 1.09371 0.43594
 H2802 H 0.30866 1.13376 0.39469
 C2803 C 0.28061 0.61932 0.91494
 C2804 C 0.28050 0.62896 0.88839
 C2805 C 0.25629 0.61576 0.88399
 C2806 C 0.25613 0.60622 0.91036
 C2807 C 0.26975 0.59282 0.87522
 C2808 C 0.29425 0.60589 0.87981
 C2809 C 0.29416 0.59634 0.90624
 C2810 C 0.26991 0.58313 0.90178
 H2811 H 0.28459 0.63059 0.93124
 H2812 H 0.28467 0.64791 0.88269
 H2813 H 0.24019 0.60643 0.92278
 H2814 H 0.26517 0.58199 0.85877
 H2815 H 0.31016 0.60571 0.86733
 H2816 H 0.26571 0.56418 0.90746
 C2817 C 1.08519 1.22024 1.11985
 C2818 C 1.11149 1.22018 1.12989
 C2819 C 1.11634 1.24426 1.11642
 C2820 C 1.09020 1.24458 1.10649
 C2821 C 1.12528 1.23042 1.09373
 C2822 C 1.12027 1.20607 1.10708
 C2823 C 1.09409 1.20633 1.09713
 C2824 C 1.09897 1.23045 1.08366
 H2825 H 1.06870 1.21645 1.13090
 H2826 H 1.11680 1.21613 1.14902
 H2827 H 1.07796 1.26067 1.10631
 H2828 H 1.14187 1.23469 1.08301
 H2829 H 1.13251 1.18998 1.10724
 H2830 H 1.09364 1.23446 1.06453
 C2831 C 1.09974 0.73036 0.58288
 C2832 C 1.09088 0.74435 0.60577
 C2833 C 1.11699 0.74407 0.61574
 C2834 C 1.12603 0.73038 0.59301
 C2835 C 1.11222 0.71992 0.62909
 C2836 C 1.08594 0.71994 0.61901
 C2837 C 1.09492 0.70616 0.59623
 C2838 C 1.12108 0.70595 0.60623
 H2839 H 1.09444 0.73452 0.56378
 H2840 H 1.07861 0.76041 0.60569
 H2841 H 1.14264 0.73478 0.58238
 H2842 H 1.11753 0.71582 0.64820
 H2843 H 1.06948 0.71608 0.63007
 H2844 H 1.13341 0.68992 0.60638
 C2845 C 0.60653 1.20637 0.61938
 C2846 C 0.62964 1.21994 0.61069
 C2847 C 0.61692 1.24430 0.61586
 C2848 C 0.59395 1.23101 0.62474
 C2849 C 0.60697 1.24526 0.58969
 C2850 C 0.61958 1.22063 0.58432
 C2851 C 0.59655 1.20726 0.59315
 C2852 C 0.58385 1.23168 0.59838
 H2853 H 0.60628 1.19013 0.63148
 H2854 H 0.64860 1.21534 0.61593
 H2855 H 0.58346 1.23536 0.64149
 H2856 H 0.60728 1.26153 0.57764
 H2857 H 0.63047 1.21678 0.56772
 H2858 H 0.56490 1.23633 0.59314
 C2859 C 0.60661 0.70653 1.12097
 C2860 C 0.62963 0.72011 1.11206
 C2861 C 0.61668 0.74447 1.11665
 C2862 C 0.59379 0.73118 1.12574
 C2863 C 0.60681 0.74475 1.09042
 C2864 C 0.61966 0.72012 1.08566
 C2865 C 0.59673 0.70674 1.09469
 C2866 C 0.58378 0.73115 1.09933
 H2867 H 0.60646 0.69058 1.13345
 H2868 H 0.64859 0.71573 1.11746
 H2869 H 0.58321 0.73581 1.14235
 H2870 H 0.60701 0.76073 1.07799
 H2871 H 0.63067 0.71604 1.06919
 H2872 H 0.56482 0.73555 1.09394
 C2873 C 0.88035 1.21974 0.91406
 C2874 C 0.89311 1.24443 0.90943
 C2875 C 0.88365 1.24415 0.88305
 C2876 C 0.87079 1.21973 0.88750
 C2877 C 0.90676 1.23094 0.87435
 C2878 C 0.91636 1.23093 0.90091
 C2879 C 0.90351 1.20645 0.90542
 C2880 C 0.89402 1.20623 0.87898
 H2881 H 0.86911 1.21558 0.93035
 H2882 H 0.89263 1.26042 0.92180
 H2883 H 0.85193 1.21533 0.88178
 H2884 H 0.91759 1.23561 0.85790
 H2885 H 0.93521 1.23539 0.90660
 H2886 H 0.89444 1.19029 0.86654
 C2887 C 0.91372 0.72057 0.38183
 C2888 C 0.88755 0.72006 0.37151
 C2889 C 0.88229 0.74433 0.38440
 C2890 C 0.90829 0.74508 0.39462
 C2891 C 0.87325 0.73084 0.40729
 C2892 C 0.87869 0.70629 0.39453
 C2893 C 0.90475 0.70699 0.40476
 C2894 C 0.89945 0.73129 0.41765
 H2895 H 0.93035 0.71686 0.37098
 H2896 H 0.88249 0.71553 0.35244
 H2897 H 0.92036 0.76128 0.39459
 H2898 H 0.85649 0.73517 0.41772
 H2899 H 0.86661 0.69010 0.39459
 H2900 H 0.90453 0.73574 0.43673
 C2901 C 0.39915 1.23072 0.41533
 C2902 C 0.40799 1.24461 0.39236
 C2903 C 0.38192 1.24419 0.38230
 C2904 C 0.37289 1.23060 0.40514
 C2905 C 0.38685 1.21999 0.36918
 C2906 C 0.41311 1.22014 0.37934
 C2907 C 0.40413 1.20646 0.40222
 C2908 C 0.37800 1.20611 0.39214
 H2909 H 0.40438 1.23494 0.43442
 H2910 H 0.42019 1.26070 0.39239
 H2911 H 0.35625 1.23498 0.41573
 H2912 H 0.38161 1.21577 0.35009
 H2913 H 0.42962 1.21630 0.36837
 H2914 H 0.36577 1.19003 0.39212
 C2915 C 0.41395 0.72133 0.87993
 C2916 C 0.38752 0.72107 0.87024
 C2917 C 0.38280 0.74543 0.88316
 C2918 C 0.40906 0.74596 0.89275
 C2919 C 0.37419 0.73212 0.90632
 C2920 C 0.37907 0.70746 0.89353
 C2921 C 0.40539 0.70792 0.90313
 C2922 C 0.40064 0.73234 0.91604
 H2923 H 0.43030 0.71738 0.86875
 H2924 H 0.38197 0.71670 0.85127
 H2925 H 0.42125 0.76205 0.89236
 H2926 H 0.35777 0.73672 0.91715
 H2927 H 0.36679 0.69143 0.89391
 H2928 H 0.40622 0.73684 0.93496
 C2929 C 1.08682 0.77990 0.87953
 C2930 C 1.11342 0.77975 0.87030
 C2931 C 1.11750 0.75529 0.88333
 C2932 C 1.09108 0.75517 0.89245
 C2933 C 1.12593 0.76842 0.90661
 C2934 C 1.12167 0.79317 0.89371
 C2935 C 1.09519 0.79311 0.90286
 C2936 C 1.09932 0.76860 0.91587
 H2937 H 1.07076 0.78420 0.86805
 H2938 H 1.11940 0.78412 0.85145
 H2939 H 1.07864 0.73927 0.89181
 H2940 H 1.14214 0.76359 0.91768
 H2941 H 1.13414 0.80906 0.89429
 H2942 H 1.09333 0.76418 0.93472
 C2943 C 1.11833 0.28061 0.41282
 C2944 C 1.10529 0.25617 0.40786
 C2945 C 1.11539 0.25640 0.38172
 C2946 C 1.12853 0.28060 0.38651
 C2947 C 1.09271 0.27000 0.37248
 C2948 C 1.08246 0.27008 0.39882
 C2949 C 1.09561 0.29432 0.40366
 C2950 C 1.10572 0.29450 0.37745
 H2951 H 1.12924 0.28449 0.42940
 H2952 H 1.10522 0.24015 0.42025
 H2953 H 1.14759 0.28477 0.38130
 H2954 H 1.08224 0.26552 0.35576
 H2955 H 1.06341 0.26590 0.40404
 H2956 H 1.10581 0.31051 0.36506
 C2957 C 0.61847 0.77990 0.41426
 C2958 C 0.60571 0.75536 0.40899
 C2959 C 0.61603 0.75592 0.38295
 C2960 C 0.62889 0.78020 0.38803
 C2961 C 0.59329 0.76937 0.37362
 C2962 C 0.58283 0.76911 0.39986
 C2963 C 0.59568 0.79345 0.40500
 C2964 C 0.60602 0.79394 0.37889
 H2965 H 0.62919 0.78374 0.43096
 H2966 H 0.60573 0.73921 0.42121
 H2967 H 0.64796 0.78453 0.38300
 H2968 H 0.58301 0.76494 0.35678
 H2969 H 0.56377 0.76471 0.40488
 H2970 H 0.60608 0.81003 0.36659
 C2971 C 0.60459 0.26922 0.91761
 C2972 C 0.59323 0.25226 0.89815
 C2973 C 0.61655 0.25449 0.88286
 C2974 C 0.62809 0.27118 0.90216
 C2975 C 0.60610 0.27661 0.86918
 C2976 C 0.58260 0.27463 0.88462
 C2977 C 0.59410 0.29140 0.90395
 C2978 C 0.61746 0.29357 0.88864
 H2979 H 0.60393 0.26628 0.93765
 H2980 H 0.58344 0.23500 0.90199
 H2981 H 0.64696 0.26971 0.90919
 H2982 H 0.60677 0.27951 0.84914
 H2983 H 0.56378 0.27563 0.87739
 H2984 H 0.62730 0.31079 0.88475
 C2985 C 0.91286 0.77881 1.11932
 C2986 C 0.88635 0.77920 1.12878
 C2987 C 0.88177 0.75479 1.11596
 C2988 C 0.90809 0.75414 1.10659
 C2989 C 0.87332 0.76796 1.09267
 C2990 C 0.87810 0.79269 1.10536
 C2991 C 0.90449 0.79212 1.09598
 C2992 C 0.89985 0.76763 1.08315
 H2993 H 0.92909 0.78276 1.13065
 H2994 H 0.88059 0.78368 1.14767
 H2995 H 0.92020 0.73796 1.10725
 H2996 H 0.85694 0.76331 1.08181
 H2997 H 0.86581 0.80874 1.10480
 H2998 H 0.90559 0.76299 1.06430
 C2999 C 0.91393 0.27994 0.61950
 C3000 C 0.88747 0.28014 0.62910
 C3001 C 0.88294 0.25575 0.61620
 C3002 C 0.90923 0.25528 0.60671
 C3003 C 0.87433 0.26900 0.59301
 C3004 C 0.87904 0.29369 0.60577
 C3005 C 0.90539 0.29328 0.59625
 C3006 C 0.90081 0.26883 0.58336
 H3007 H 0.93018 0.28402 0.63077
 H3008 H 0.88180 0.28456 0.64803
 H3009 H 0.92152 0.23923 0.60720
 H3010 H 0.85792 0.26434 0.58219
 H3011 H 0.86669 0.30969 0.60534
 H3012 H 0.90646 0.26435 0.56444
 C3013 C 0.41429 0.78130 0.61942
 C3014 C 0.38774 0.78101 0.62879
 C3015 C 0.38374 0.75661 0.61572
 C3016 C 0.41012 0.75663 0.60647
 C3017 C 0.37510 0.76982 0.59252
 C3018 C 0.37928 0.79451 0.60546
 C3019 C 0.40570 0.79459 0.59617
 C3020 C 0.40166 0.77014 0.58312
 H3021 H 0.43037 0.78563 0.63083
 H3022 H 0.38185 0.78529 0.64768
 H3023 H 0.42268 0.74079 0.60700
 H3024 H 0.35887 0.76497 0.58153
 H3025 H 0.36672 0.81035 0.60497
 H3026 H 0.40758 0.76588 0.56423
 C3027 C 0.41304 0.28009 1.11961
 C3028 C 0.38658 0.28002 1.12920
 C3029 C 0.38220 0.25577 1.11598
 C3030 C 0.40849 0.25557 1.10649
 C3031 C 0.37350 0.26926 1.09295
 C3032 C 0.37807 0.29380 1.10605
 C3033 C 0.40440 0.29367 1.09654
 C3034 C 0.39998 0.26937 1.08332
 H3035 H 0.42929 0.28410 1.13090
 H3036 H 0.38086 0.28423 1.14816
 H3037 H 0.42083 0.23956 1.10677
 H3038 H 0.35714 0.26473 1.08202
 H3039 H 0.36572 0.30981 1.10578
 H3040 H 0.40572 0.26521 1.06435
 C3041 C 1.08324 1.10130 0.76867
 C3042 C 1.09306 1.12775 0.76841
 C3043 C 1.11602 1.11874 0.75511
 C3044 C 1.10633 1.09250 0.75504
 C3045 C 1.12901 1.11436 0.77954
 C3046 C 1.10591 1.12315 0.79315
 C3047 C 1.09621 1.09684 0.79315
 C3048 C 1.11922 1.08794 0.77974
 H3049 H 1.06430 1.09579 0.76437
 H3050 H 1.08226 1.14420 0.76376
 H3051 H 1.10654 1.07998 0.73916
 H3052 H 1.14793 1.11989 0.78391
 H3053 H 1.10566 1.13565 0.80905
 H3054 H 1.13039 1.07162 0.78390
 C3055 C 1.08627 0.62041 0.27926
 C3056 C 1.11274 0.62998 0.27952
 C3057 C 1.11731 0.61715 0.25506
 C3058 C 1.09103 0.60772 0.25449
 C3059 C 1.12592 0.59394 0.26824
 C3060 C 1.12115 0.60663 0.29300
 C3061 C 1.09482 0.59716 0.29254
 C3062 C 1.09944 0.58436 0.26801
 H3063 H 1.06998 0.63161 0.28339
 H3064 H 1.11842 0.64883 0.28406
 H3065 H 1.07881 0.60826 0.23837
 H3066 H 1.14233 0.58308 0.26366
 H3067 H 1.13338 0.60608 0.30911
 H3068 H 1.09376 0.56550 0.26349
 C3069 C 0.58294 1.10061 0.26695
 C3070 C 0.59338 1.12681 0.26735
 C3071 C 0.61616 1.11758 0.25393
 C3072 C 0.60587 1.09159 0.25318
 C3073 C 0.62898 1.11231 0.27827
 C3074 C 0.60605 1.12133 0.29200
 C3075 C 0.59574 1.09527 0.29135
 C3076 C 0.61857 1.08613 0.27780
 H3077 H 0.56390 1.09565 0.26244
 H3078 H 0.58302 1.14363 0.26303
 H3079 H 0.60588 1.07948 0.23698
 H3080 H 0.64801 1.11728 0.28280
 H3081 H 0.60605 1.13346 0.30819
 H3082 H 0.62931 1.06944 0.28161
 C3083 C 0.61927 0.58631 0.77993
 C3084 C 0.60660 0.59078 0.75511
 C3085 C 0.61566 0.61725 0.75550
 C3086 C 0.62843 0.61294 0.78007
 C3087 C 0.59235 0.62560 0.76854
 C3088 C 0.58314 0.59894 0.76845
 C3089 C 0.59591 0.59459 0.79306
 C3090 C 0.60498 0.62111 0.79340
 H3091 H 0.63070 0.57019 0.78420
 H3092 H 0.60736 0.57846 0.73908
 H3093 H 0.64715 0.61891 0.78468
 H3094 H 0.58135 0.64188 0.76375
 H3095 H 0.56441 0.59300 0.76385
 H3096 H 0.60424 0.63346 0.80940
 C3097 C 0.88152 0.91463 0.77849
 C3098 C 0.89438 0.90931 0.75395
 C3099 C 0.88442 0.88318 0.75472
 C3100 C 0.87147 0.88832 0.77901
 C3101 C 0.90725 0.87427 0.76825
 C3102 C 0.91736 0.90059 0.76779
 C3103 C 0.90440 0.90578 0.79212
 C3104 C 0.89443 0.87959 0.79283
 H3105 H 0.87058 0.93119 0.78225
 H3106 H 0.89428 0.92139 0.73768
 H3107 H 0.85248 0.88307 0.78345
 H3108 H 0.91777 0.85755 0.76393
 H3109 H 0.93635 0.90579 0.76334
 H3110 H 0.89451 0.86746 0.80906
 C3111 C 0.89715 0.37820 0.29126
 C3112 C 0.87252 0.38501 0.27934
 C3113 C 0.88454 0.38335 0.25409
 C3114 C 0.90904 0.37632 0.26569
 C3115 C 0.89125 0.41051 0.25494
 C3116 C 0.87935 0.41234 0.28047
 C3117 C 0.90390 0.40541 0.29219
 C3118 C 0.91590 0.40367 0.26687
 H3119 H 0.89963 0.36497 0.30641
 H3120 H 0.85461 0.37710 0.28430
 H3121 H 0.92127 0.36144 0.25954
 H3122 H 0.88874 0.42371 0.23977
 H3123 H 0.86668 0.42699 0.28623
 H3124 H 0.93382 0.41154 0.26190
 C3125 C 0.39401 0.87781 0.29255
 C3126 C 0.37110 0.88666 0.27865
 C3127 C 0.38424 0.88181 0.25440
 C3128 C 0.40700 0.87274 0.26798
 C3129 C 0.39418 0.90795 0.25395
 C3130 C 0.38116 0.91298 0.27848
 C3131 C 0.40397 0.90401 0.29219
 C3132 C 0.41708 0.89909 0.26787
 H3133 H 0.39399 0.86552 0.30865
 H3134 H 0.35210 0.88137 0.28295
 H3135 H 0.41760 0.85610 0.26360
 H3136 H 0.39418 0.92023 0.23783
 H3137 H 0.37016 0.92948 0.28234
 H3138 H 0.43610 0.90437 0.26360
 C3139 C 0.38096 0.41366 0.78000
 C3140 C 0.39395 0.40851 0.75549
 C3141 C 0.38409 0.38234 0.75609
 C3142 C 0.37100 0.38731 0.78035
 C3143 C 0.40690 0.37346 0.76968
 C3144 C 0.41690 0.39982 0.76938
 C3145 C 0.40381 0.40484 0.79368
 C3146 C 0.39395 0.37861 0.79423
 H3147 H 0.36997 0.43018 0.78381
 H3148 H 0.39387 0.42066 0.73927
 H3149 H 0.35203 0.38198 0.78471
 H3150 H 0.41750 0.35680 0.76533
 H3151 H 0.43589 0.40509 0.76503
 H3152 H 0.39404 0.36641 0.81040
 C3153 C 1.10735 0.87783 1.20736
 C3154 C 1.12912 0.88780 1.22219
 C3155 C 1.11578 0.88106 1.24589
 C3156 C 1.09414 0.87090 1.23133
 C3157 C 1.10385 0.90635 1.24691
 C3158 C 1.11710 0.91328 1.22298
 C3159 C 1.09542 0.90319 1.20832
 C3160 C 1.08206 0.89640 1.23205
 H3161 H 1.10869 0.86621 1.19084
 H3162 H 1.14859 0.88412 1.21828
 H3163 H 1.08478 0.85334 1.23484
 H3164 H 1.10247 0.91795 1.26344
 H3165 H 1.12684 0.93073 1.22008
 H3166 H 1.06258 0.90004 1.23591
 C3167 C 1.10728 0.37893 0.70776
 C3168 C 1.12912 0.38872 0.72263
 C3169 C 1.11566 0.38216 0.74630
 C3170 C 1.09395 0.37219 0.73172
 C3171 C 1.10398 0.40758 0.74724
 C3172 C 1.11735 0.41431 0.72332
 C3173 C 1.09560 0.40441 0.70863
 C3174 C 1.08213 0.39781 0.73235
 H3175 H 1.10856 0.36726 0.69127
 H3176 H 1.14856 0.38481 0.71880
 H3177 H 1.08439 0.35473 0.73523
 H3178 H 1.10270 0.41920 0.76376
 H3179 H 1.12729 0.43165 0.72041
 H3180 H 1.06267 0.40167 0.73617
 C3181 C 0.60599 0.88092 0.70622
 C3182 C 0.62893 0.88966 0.72003
 C3183 C 0.61595 0.88461 0.74432
 C3184 C 0.59314 0.87569 0.73081
 C3185 C 0.60597 0.91075 0.74495
 C3186 C 0.61886 0.91598 0.72039
 C3187 C 0.59600 0.90712 0.70677
 C3188 C 0.58301 0.90203 0.73112
 H3189 H 0.60592 0.86878 0.69005
 H3190 H 0.64793 0.88438 0.71564
 H3191 H 0.58262 0.85900 0.73520
 H3192 H 0.60605 0.92285 0.76116
 H3193 H 0.62980 0.93252 0.71658
 H3194 H 0.56400 0.90728 0.73551
 C3195 C 0.61015 0.37964 1.20546
 C3196 C 0.63063 0.39044 1.22155
 C3197 C 0.61711 0.38140 1.24437
 C3198 C 0.59680 0.37039 1.22857
 C3199 C 0.60321 0.40561 1.24632
 C3200 C 0.61659 0.41483 1.22324
 C3201 C 0.59624 0.40392 1.20732
 C3202 C 0.58274 0.39482 1.23020
 H3203 H 0.61296 0.36914 1.18839
 H3204 H 0.65044 0.38853 1.21813
 H3205 H 0.58876 0.35198 1.23074
 H3206 H 0.60039 0.41610 1.26339
 H3207 H 0.62485 0.43319 1.22153
 H3208 H 0.56293 0.39672 1.23360
 C3209 C 0.91671 1.09906 1.23221
 C3210 C 0.90705 1.12557 1.23168
 C3211 C 0.88404 1.11714 1.24520
 C3212 C 0.89355 1.09081 1.24603
 C3213 C 0.87105 1.11218 1.22088
 C3214 C 0.89419 1.12044 1.20708
 C3215 C 0.90371 1.09406 1.20786
 C3216 C 0.88066 1.08569 1.22147
 H3217 H 0.93559 1.09349 1.23672
 H3218 H 0.91786 1.14209 1.23596
 H3219 H 0.89323 1.07877 1.26231
 H3220 H 0.85218 1.11780 1.21636
 H3221 H 0.89452 1.13252 1.19082
 H3222 H 0.86946 1.06933 1.21768
 C3223 C 0.90031 0.58326 0.73210
 C3224 C 0.90850 0.60706 0.74485
 C3225 C 0.88206 0.61610 0.74446
 C3226 C 0.87368 0.59246 0.73200
 C3227 C 0.88605 0.62836 0.71957
 C3228 C 0.91268 0.61921 0.71970
 C3229 C 0.90437 0.59551 0.70716
 C3230 C 0.87787 0.60459 0.70683
 H3231 H 0.90631 0.56460 0.73711
 H3232 H 0.92096 0.60819 0.76073
 H3233 H 0.85751 0.58152 0.73717
 H3234 H 0.88004 0.64702 0.71459
 H3235 H 0.92864 0.63068 0.71510
 H3236 H 0.86534 0.60352 0.69099
 C3237 C 0.37921 1.10732 0.70574
 C3238 C 0.37435 1.09428 0.73033
 C3239 C 0.38307 1.11719 0.74386
 C3240 C 0.38776 1.13035 0.71955
 C3241 C 0.40930 1.10751 0.74426
 C3242 C 0.40075 1.08446 0.73044
 C3243 C 0.40548 1.09760 0.70609
 C3244 C 0.41416 1.12055 0.71968
 H3245 H 0.36694 1.10718 0.68966
 H3246 H 0.35786 1.08352 0.73478
 H3247 H 0.38229 1.14934 0.71522
 H3248 H 0.42158 1.10769 0.76033
 H3249 H 0.40626 1.06548 0.73477
 H3250 H 0.43052 1.13169 0.71571
 C3251 C 0.38187 0.58859 1.22074
 C3252 C 0.39447 0.59283 1.24561
 C3253 C 0.38547 0.61933 1.24531
 C3254 C 0.37278 0.61527 1.22068
 C3255 C 0.40885 0.62767 1.23238
 C3256 C 0.41800 0.60097 1.23237
 C3257 C 0.40530 0.59684 1.20770
 C3258 C 0.39630 0.62341 1.20744
 H3259 H 0.37034 0.57260 1.21644
 H3260 H 0.39364 0.58037 1.26156
 H3261 H 0.35409 0.62135 1.21601
 H3262 H 0.41988 0.64387 1.23726
 H3263 H 0.43670 0.59490 1.23700
 H3264 H 0.39711 0.63586 1.19148
 C3265 C 1.11953 1.21967 0.91460
 C3266 C 1.12951 1.21926 0.88819
 C3267 C 1.11695 1.24379 0.88334
 C3268 C 1.10709 1.24448 0.90957
 C3269 C 1.09383 1.23083 0.87438
 C3270 C 1.10624 1.20599 0.87944
 C3271 C 1.09636 1.20659 0.90574
 C3272 C 1.08382 1.23119 0.90082
 H3273 H 1.13049 1.21552 0.93110
 H3274 H 1.14840 1.21451 0.88280
 H3275 H 1.10756 1.26056 0.92185
 H3276 H 1.08326 1.23544 0.85774
 H3277 H 1.10579 1.18992 0.86716
 H3278 H 1.06492 1.23590 0.90619
 C3279 C 1.08346 0.73070 0.40100
 C3280 C 1.10654 0.74426 0.40987
 C3281 C 1.11655 0.74364 0.38371
 C3282 C 1.09362 0.73043 0.37462
 C3283 C 1.12934 0.71925 0.38865
 C3284 C 1.11922 0.71958 0.41500
 C3285 C 1.09624 0.70625 0.40600
 C3286 C 1.10628 0.70574 0.37977
 H3287 H 1.06450 0.73523 0.40629
 H3288 H 1.10678 0.76037 0.42211
 H3289 H 1.08310 0.73491 0.35791
 H3290 H 1.14831 0.71470 0.38337
 H3291 H 1.13012 0.71561 0.43158
 H3292 H 1.10608 0.68963 0.36753
 C3293 C 0.62125 1.20753 0.39252
 C3294 C 0.61300 1.22123 0.36922
 C3295 C 0.61729 1.24553 0.38240
 C3296 C 0.62573 1.23212 0.40557
 C3297 C 0.59089 1.24582 0.39161
 C3298 C 0.58643 1.22123 0.37856
 C3299 C 0.59481 1.20774 0.40176
 C3300 C 0.59914 1.23209 0.41492
 H3301 H 0.63361 1.19154 0.39297
 H3302 H 0.61881 1.21684 0.35032
 H3303 H 0.64198 1.23661 0.41669
 H3304 H 0.57845 1.26176 0.39116
 H3305 H 0.57029 1.21711 0.36715
 H3306 H 0.59326 1.23637 0.43381
 C3307 C 0.61995 0.71980 0.91245
 C3308 C 0.62989 0.71984 0.88603
 C3309 C 0.61713 0.74434 0.88151
 C3310 C 0.60727 0.74454 0.90775
 C3311 C 0.59412 0.73124 0.87242
 C3312 C 0.60676 0.70646 0.87713
 C3313 C 0.59690 0.70660 0.90343
 C3314 C 0.58413 0.73114 0.89886
 H3315 H 0.63097 0.71559 0.92888
 H3316 H 0.64881 0.71533 0.88057
 H3317 H 0.60758 0.76047 0.92021
 H3318 H 0.58356 0.73604 0.85583
 H3319 H 0.60643 0.69054 0.86465
 H3320 H 0.56519 0.73563 0.90428
 C3321 C 0.89969 1.23045 1.08359
 C3322 C 0.87365 1.23063 1.09435
 C3323 C 0.88322 1.24454 1.11672
 C3324 C 0.90908 1.24465 1.10610
 C3325 C 0.88830 1.22051 1.13020
 C3326 C 0.87890 1.20631 1.10769
 C3327 C 0.90482 1.20637 1.09706
 C3328 C 0.91433 1.22036 1.11948
 H3329 H 0.90451 1.23435 1.06430
 H3330 H 0.85679 1.23496 1.08406
 H3331 H 0.92141 1.26064 1.10555
 H3332 H 0.88349 1.21658 1.14948
 H3333 H 0.86658 1.19032 1.10827
 H3334 H 0.93105 1.21662 1.13018
 C3335 C 0.87803 0.70617 0.60608
 C3336 C 0.88638 0.71959 0.62945
 C3337 C 0.88212 0.74407 0.61650
 C3338 C 0.87360 0.73093 0.59325
 C3339 C 0.90849 0.74428 0.60720
 C3340 C 0.91292 0.71955 0.62005
 C3341 C 0.90445 0.70633 0.59676
 C3342 C 0.90015 0.73085 0.58381
 H3343 H 0.86559 0.69027 0.60555
 H3344 H 0.88056 0.71510 0.64832
 H3345 H 0.85731 0.73570 0.58227
 H3346 H 0.92092 0.76018 0.60774
 H3347 H 0.92904 0.71529 0.63146
 H3348 H 0.90596 0.73532 0.56493
 C3349 C 0.41630 1.23210 0.59961
 C3350 C 0.39317 1.24583 0.59105
 C3351 C 0.38344 1.24510 0.61733
 C3352 C 0.40643 1.23170 0.62610
 C3353 C 0.37054 1.22080 0.61242
 C3354 C 0.38039 1.22124 0.58595
 C3355 C 0.40342 1.20773 0.59463
 C3356 C 0.39366 1.20710 0.62098
 H3357 H 0.43522 1.23663 0.59420
 H3358 H 0.39287 1.26200 0.57888
 H3359 H 0.41711 1.23604 0.64271
 H3360 H 0.35161 1.21627 0.61782
 H3361 H 0.36936 1.21739 0.56946
 H3362 H 0.39396 1.19094 0.63318
 C3363 C 0.37970 0.70767 1.10617
 C3364 C 0.38790 0.72105 1.12964
 C3365 C 0.38348 0.74552 1.11676
 C3366 C 0.37508 0.73244 1.09343
 C3367 C 0.40986 0.74603 1.10752
 C3368 C 0.41446 0.72127 1.12027
 C3369 C 0.40613 0.70809 1.09690
 C3370 C 0.40166 0.73263 1.08405
 H3371 H 0.36742 0.69164 1.10556
 H3372 H 0.38209 0.71640 1.14848
 H3373 H 0.35879 0.73705 1.08239
 H3374 H 0.42217 0.76203 1.10814
 H3375 H 0.43060 0.71709 1.13168
 H3376 H 0.40749 0.73721 1.06521
 C3377 C 0.91900 0.76849 0.89758
 C3378 C 0.89687 0.75400 0.90737
 C3379 C 0.88551 0.75468 0.88176
 C3380 C 0.90749 0.76885 0.87176
 C3381 C 0.87224 0.77857 0.88778
 C3382 C 0.88367 0.77812 0.91355
 C3383 C 0.90569 0.79241 0.90364
 C3384 C 0.89434 0.79302 0.87796
 H3385 H 0.93835 0.76451 0.90176
 H3386 H 0.89782 0.73770 0.91934
 H3387 H 0.91723 0.76493 0.85445
 H3388 H 0.85289 0.78256 0.88358
 H3389 H 0.87348 0.78137 0.93072
 H3390 H 0.89337 0.80931 0.86596
 C3391 C 0.90192 0.26926 0.41670
 C3392 C 0.87539 0.26917 0.40722
 C3393 C 0.88401 0.25606 0.38397
 C3394 C 0.91035 0.25585 0.39330
 C3395 C 0.88820 0.28054 0.37104
 C3396 C 0.87976 0.29393 0.39441
 C3397 C 0.90615 0.29380 0.40378
 C3398 C 0.91472 0.28061 0.38048
 H3399 H 0.90772 0.26476 0.43557
 H3400 H 0.85911 0.26438 0.41818
 H3401 H 0.92281 0.23995 0.39273
 H3402 H 0.88241 0.28499 0.35215
 H3403 H 0.86725 0.30981 0.39490
 H3404 H 0.93085 0.28487 0.36910
 C3405 C 0.39917 0.76883 0.41828
 C3406 C 0.37296 0.76896 0.40787
 C3407 C 0.38221 0.75535 0.38517
 C3408 C 0.40820 0.75488 0.39542
 C3409 C 0.38721 0.77951 0.37196
 C3410 C 0.37818 0.79345 0.39480
 C3411 C 0.40424 0.79306 0.40509
 C3412 C 0.41338 0.77932 0.38233
 H3413 H 0.40425 0.76458 0.43742
 H3414 H 0.35622 0.76468 0.41835
 H3415 H 0.42043 0.73878 0.39556
 H3416 H 0.38216 0.78374 0.35280
 H3417 H 0.36595 0.80955 0.39459
 H3418 H 0.42996 0.78309 0.37142
 C3419 C 0.39310 0.29312 0.87893
 C3420 C 0.40595 0.26846 0.87420
 C3421 C 0.38302 0.25513 0.88314
 C3422 C 0.37004 0.27950 0.88768
 C3423 C 0.39274 0.25486 0.90943
 C3424 C 0.41581 0.26849 0.90068
 C3425 C 0.40282 0.29290 0.90528
 C3426 C 0.37984 0.27948 0.91415
 H3427 H 0.39332 0.30909 0.86648
 H3428 H 0.41664 0.26386 0.85765
 H3429 H 0.35111 0.28387 0.88213
 H3430 H 0.39251 0.23886 0.92183
 H3431 H 0.43475 0.26412 0.90618
 H3432 H 0.36873 0.28355 0.93054
 C3433 C 1.10631 0.79181 1.12152
 C3434 C 1.09360 0.76721 1.12689
 C3435 C 1.11643 0.75381 1.11778
 C3436 C 1.12929 0.77810 1.11262
 C3437 C 1.10631 0.75312 1.09166
 C3438 C 1.08332 0.76686 1.10056
 C3439 C 1.09616 0.79123 1.09534
 C3440 C 1.11904 0.77770 1.08632
 H3441 H 1.10625 0.80792 1.13374
 H3442 H 1.08315 0.76288 1.14367
 H3443 H 1.14831 0.78257 1.11771
 H3444 H 1.10645 0.73698 1.07948
 H3445 H 1.06433 0.76233 1.09545
 H3446 H 1.12981 0.78158 1.06965
 C3447 C 1.10580 0.29352 0.62123
 C3448 C 1.09276 0.26897 0.62595
 C3449 C 1.11567 0.25549 0.61716
 C3450 C 1.12885 0.27973 0.61265
 C3451 C 1.10613 0.25527 0.59081
 C3452 C 1.08308 0.26909 0.59940
 C3453 C 1.09624 0.29339 0.59481
 C3454 C 1.11920 0.27980 0.58612
 H3455 H 1.10562 0.30949 0.63363
 H3456 H 1.08191 0.26448 0.64243
 H3457 H 1.14777 0.28395 0.61831
 H3458 H 1.10632 0.23930 0.57841
 H3459 H 1.06416 0.26488 0.59377
 H3460 H 1.13042 0.28383 0.56978
 C3461 C 0.62116 0.79373 0.60616
 C3462 C 0.61230 0.77984 0.62911
 C3463 C 0.61701 0.75563 0.61589
 C3464 C 0.62605 0.76924 0.59307
 C3465 C 0.59089 0.75545 0.60594
 C3466 C 0.58601 0.77992 0.61906
 C3467 C 0.59499 0.79361 0.59619
 C3468 C 0.59974 0.76935 0.58297
 H3469 H 0.63352 0.80970 0.60619
 H3470 H 0.61762 0.78399 0.64819
 H3471 H 0.64264 0.76474 0.58244
 H3472 H 0.57856 0.73946 0.60593
 H3473 H 0.56956 0.78385 0.63010
 H3474 H 0.59443 0.76520 0.56389
 C3475 C 0.59851 0.26833 1.08391
 C3476 C 0.62512 0.26859 1.09316
 C3477 C 0.61686 0.25555 1.11659
 C3478 C 0.59044 0.25499 1.10750
 C3479 C 0.61246 0.28005 1.12934
 C3480 C 0.62053 0.29337 1.10578
 C3481 C 0.59406 0.29288 1.09666
 C3482 C 0.58586 0.27976 1.12014
 H3483 H 0.59259 0.26369 1.06512
 H3484 H 0.64139 0.26388 1.08213
 H3485 H 0.57820 0.23895 1.10830
 H3486 H 0.61836 0.28471 1.14813
 H3487 H 0.63279 0.30941 1.10501
 H3488 H 0.56975 0.28396 1.13158
 C3489 C 1.23068 1.08326 0.90100
 C3490 C 1.23055 1.09329 0.87457
 C3491 C 1.24388 1.11621 0.88351
 C3492 C 1.24430 1.10634 0.90975
 C3493 C 1.21958 1.12918 0.88826
 C3494 C 1.20596 1.10612 0.87950
 C3495 C 1.20632 1.09622 0.90580
 C3496 C 1.21973 1.11920 0.91469
 H3497 H 1.23511 1.06427 0.90638
 H3498 H 1.23510 1.08271 0.85793
 H3499 H 1.26031 1.10654 0.92208
 H3500 H 1.21519 1.14818 0.88285
 H3501 H 1.18998 1.10598 0.86713
 H3502 H 1.21572 1.13021 0.93116
 C3503 C 1.20615 0.60710 0.37806
 C3504 C 1.21974 0.63008 0.38708
 C3505 C 1.24405 0.61722 0.38211
 C3506 C 1.23077 0.59438 0.37292
 C3507 C 1.24456 0.60703 0.40823
 C3508 C 1.21999 0.61979 0.41338
 C3509 C 1.20660 0.59689 0.40425
 C3510 C 1.23097 0.58404 0.39923
 H3511 H 1.19014 0.60710 0.36572
 H3512 H 1.21536 0.64914 0.38191
 H3513 H 1.23535 0.58399 0.35617
 H3514 H 1.26061 0.60708 0.42052
 H3515 H 1.21604 0.63064 0.42998
 H3516 H 1.23540 0.56499 0.40442
 C3517 C 0.73060 1.09965 0.41534
 C3518 C 0.74443 1.09127 0.39219
 C3519 C 0.74415 1.11764 0.38278
 C3520 C 0.73062 1.12621 0.40579
 C3521 C 0.71997 1.11321 0.36949
 C3522 C 0.71998 1.08666 0.37901
 C3523 C 0.70638 1.09517 0.40206
 C3524 C 0.70616 1.12160 0.39263
 H3525 H 0.73481 1.09389 0.43431
 H3526 H 0.76045 1.07895 0.39192
 H3527 H 0.73509 1.14258 0.41676
 H3528 H 0.71579 1.11900 0.35053
 H3529 H 0.71597 1.07042 0.36768
 H3530 H 0.69017 1.13396 0.39287
 C3531 C 0.73115 0.59877 0.91713
 C3532 C 0.74475 0.59055 0.89378
 C3533 C 0.74440 0.61699 0.88456
 C3534 C 0.73110 0.62540 0.90775
 C3535 C 0.72009 0.61264 0.87146
 C3536 C 0.72019 0.58603 0.88080
 C3537 C 0.70680 0.59437 0.90403
 C3538 C 0.70650 0.62087 0.89478
 H3539 H 0.73553 0.59288 0.93600
 H3540 H 0.76076 0.57822 0.89327
 H3541 H 0.73569 0.64172 0.91875
 H3542 H 0.71571 0.61854 0.85258
 H3543 H 0.71609 0.56987 0.86938
 H3544 H 0.69051 0.63323 0.89524
 C3545 C 1.20624 0.89285 1.12203
 C3546 C 1.21993 0.86975 1.11339
 C3547 C 1.24419 0.88293 1.11761
 C3548 C 1.23079 0.90590 1.12642
 C3549 C 1.24415 0.89244 1.09122
 C3550 C 1.21962 0.87936 1.08683
 C3551 C 1.20614 0.90238 1.09558
 C3552 C 1.23045 0.91555 1.09985
 H3553 H 1.19040 0.89307 1.13459
 H3554 H 1.21579 0.85082 1.11916
 H3555 H 1.23546 0.91678 1.14282
 H3556 H 1.26002 0.89217 1.07870
 H3557 H 1.21547 0.86808 1.07057
 H3558 H 1.23464 0.93448 1.09410
 C3559 C 1.20713 0.39358 0.62133
 C3560 C 1.22071 0.37053 0.61240
 C3561 C 1.24503 0.38346 0.61700
 C3562 C 1.23174 0.40638 0.62611
 C3563 C 1.24525 0.39341 0.59078
 C3564 C 1.22066 0.38059 0.58600
 C3565 C 1.20729 0.40357 0.59506
 C3566 C 1.23167 0.41648 0.59971
 H3567 H 1.19122 0.39370 0.63381
 H3568 H 1.21638 0.35152 0.61778
 H3569 H 1.23640 0.41690 0.64274
 H3570 H 1.26119 0.39320 0.57834
 H3571 H 1.21655 0.36961 0.56954
 H3572 H 1.23605 0.43548 0.59433
 C3573 C 0.70625 0.89532 0.62165
 C3574 C 0.71951 0.87197 0.61300
 C3575 C 0.74401 0.88465 0.61731
 C3576 C 0.73105 0.90786 0.62615
 C3577 C 0.74424 0.89423 0.59095
 C3578 C 0.71949 0.88165 0.58647
 C3579 C 0.70642 0.90491 0.59524
 C3580 C 0.73098 0.91759 0.59960
 H3581 H 0.69040 0.89583 0.63420
 H3582 H 0.71497 0.85310 0.61867
 H3583 H 0.73592 0.91857 0.64260
 H3584 H 0.76011 0.89367 0.57844
 H3585 H 0.71524 0.87045 0.57019
 H3586 H 0.73554 0.93646 0.59393
 C3587 C 0.71908 0.37881 1.08749
 C3588 C 0.74369 0.39164 1.09208
 C3589 C 0.74323 0.38248 1.11859
 C3590 C 0.71887 0.36955 1.11417
 C3591 C 0.73000 0.40574 1.12690
 C3592 C 0.73017 0.41503 1.10020
 C3593 C 0.70577 0.40210 1.09574
 C3594 C 0.70535 0.39293 1.12230
 H3595 H 0.71502 0.36739 1.07131
 H3596 H 0.75974 0.39102 1.07981
 H3597 H 0.71438 0.35075 1.12014
 H3598 H 0.73454 0.41677 1.14323
 H3599 H 0.73466 0.43384 1.09425
 H3600 H 0.68931 0.39354 1.13459
 C3601 C 0.76932 1.09861 1.08420
 C3602 C 0.75557 1.08992 1.10730
 C3603 C 0.75598 1.11612 1.11711
 C3604 C 0.76944 1.12500 1.09416
 C3605 C 0.78021 1.11132 1.13021
 C3606 C 0.78007 1.08494 1.12029
 C3607 C 0.79361 1.09376 1.09728
 C3608 C 0.79396 1.12002 1.10712
 H3609 H 0.76497 1.09326 1.06518
 H3610 H 0.73953 1.07766 1.10747
 H3611 H 0.76496 1.14159 1.08348
 H3612 H 0.78451 1.11671 1.14924
 H3613 H 0.78402 1.06849 1.13140
 H3614 H 0.80995 1.13234 1.10700
 C3615 C 0.76922 0.58302 0.60100
 C3616 C 0.76935 0.59308 0.62739
 C3617 C 0.75622 0.61613 0.61830
 C3618 C 0.75579 0.60621 0.59211
 C3619 C 0.78063 0.62885 0.61357
 C3620 C 0.79406 0.60567 0.62246
 C3621 C 0.79368 0.59574 0.59620
 C3622 C 0.78044 0.61885 0.58720
 H3623 H 0.76468 0.56407 0.59567
 H3624 H 0.76470 0.58256 0.64405
 H3625 H 0.73981 0.60656 0.57975
 H3626 H 0.78515 0.64781 0.61891
 H3627 H 0.81003 0.60538 0.63485
 H3628 H 0.78447 0.62988 0.57071
 C3629 C 0.26807 1.10086 0.58304
 C3630 C 0.25467 1.09200 0.60629
 C3631 C 0.25466 1.11822 0.61604
 C3632 C 0.26777 1.12728 0.59293
 C3633 C 0.27910 1.11392 0.62892
 C3634 C 0.27936 1.08752 0.61908
 C3635 C 0.29257 1.09651 0.59592
 C3636 C 0.29250 1.12280 0.60568
 H3637 H 0.26365 1.09533 0.56408
 H3638 H 0.23883 1.07949 0.60666
 H3639 H 0.26292 1.14374 0.58219
 H3640 H 0.28344 1.11948 0.64789
 H3641 H 0.28361 1.07119 0.63025
 H3642 H 0.30829 1.13538 0.60537
 C3643 C 0.29432 0.60704 1.12151
 C3644 C 0.28058 0.63005 1.11264
 C3645 C 0.25635 0.61684 1.11698
 C3646 C 0.26980 0.59396 1.12603
 C3647 C 0.25643 0.60714 1.09069
 C3648 C 0.28092 0.62025 1.08618
 C3649 C 0.29445 0.59732 1.09518
 C3650 C 0.27017 0.58413 1.09956
 H3651 H 0.31014 0.60694 1.13409
 H3652 H 0.28474 0.64905 1.11815
 H3653 H 0.26515 0.58318 1.14253
 H3654 H 0.24064 0.60725 1.07807
 H3655 H 0.28505 0.63141 1.06981
 H3656 H 0.26607 0.56513 1.09402
 C3657 C 0.76957 0.91653 0.90029
 C3658 C 0.76926 0.90713 0.87366
 C3659 C 0.75627 0.88389 0.88239
 C3660 C 0.75630 0.89315 0.90883
 C3661 C 0.78076 0.87101 0.88638
 C3662 C 0.79404 0.89438 0.87784
 C3663 C 0.79412 0.90367 0.90434
 C3664 C 0.78104 0.88037 0.91300
 H3665 H 0.76511 0.93536 0.90615
 H3666 H 0.76433 0.91806 0.85734
 H3667 H 0.74053 0.89251 0.92146
 H3668 H 0.78519 0.85218 0.88049
 H3669 H 0.80980 0.89494 0.86518
 H3670 H 0.78542 0.86894 0.92913
 C3671 C 0.76900 0.41724 0.40013
 C3672 C 0.76888 0.40719 0.37372
 C3673 C 0.75545 0.38436 0.38285
 C3674 C 0.75527 0.39426 0.40906
 C3675 C 0.77970 0.37124 0.38749
 C3676 C 0.79342 0.39419 0.37855
 C3677 C 0.79331 0.40411 0.40482
 C3678 C 0.77977 0.38123 0.41387
 H3679 H 0.76474 0.43627 0.40547
 H3680 H 0.76429 0.41779 0.35708
 H3681 H 0.73928 0.39419 0.42143
 H3682 H 0.78384 0.35220 0.38209
 H3683 H 0.80933 0.39419 0.36607
 H3684 H 0.78378 0.37017 0.43035
 C3685 C 0.29316 0.87774 0.39472
 C3686 C 0.26861 0.87309 0.40776
 C3687 C 0.25519 0.88160 0.38464
 C3688 C 0.27945 0.88607 0.37147
 C3689 C 0.25482 0.90798 0.39396
 C3690 C 0.26853 0.89966 0.41722
 C3691 C 0.29285 0.90418 0.40406
 C3692 C 0.27934 0.91263 0.38089
 H3693 H 0.30915 0.86538 0.39509
 H3694 H 0.26407 0.85670 0.41873
 H3695 H 0.28373 0.88027 0.35255
 H3696 H 0.23878 0.92026 0.39352
 H3697 H 0.26418 0.90541 0.43614
 H3698 H 0.28331 0.92885 0.36948
 C3699 C 0.29335 0.37851 0.89468
 C3700 C 0.26894 0.37332 0.90776
 C3701 C 0.25528 0.38217 0.88491
 C3702 C 0.27942 0.38718 0.87169
 C3703 C 0.25471 0.40835 0.89479
 C3704 C 0.26865 0.39968 0.91779
 C3705 C 0.29283 0.40474 0.90458
 C3706 C 0.27909 0.41353 0.88168
 H3707 H 0.30949 0.36633 0.89468
 H3708 H 0.26471 0.35667 0.91845
 H3709 H 0.28368 0.38184 0.85264
 H3710 H 0.23855 0.42048 0.89475
 H3711 H 0.26436 0.40498 0.93685
 H3712 H 0.28284 0.43003 0.87060
   
