data_POSCAR
  _audit_creation_date              2014-09-24
  _audit_creation_method            'ToBaCCo'
  _symmetry_space_group_name_H-M    'P1'
  _symmetry_Int_Tables_number       1
  _symmetry_cell_setting            triclinic
  loop_
  _symmetry_equiv_pos_as_xyz
 x,y,z
_cell_length_a 43.5850
_cell_length_b 43.3881
_cell_length_c 43.5549
_cell_angle_alpha 89.960000
_cell_angle_beta 90.141100
_cell_angle_gamma 89.936500
loop_
  _atom_site_label
  _atom_site_type_symbol
  _atom_site_fract_x
  _atom_site_fract_y
  _atom_site_fract_z
N1 N 0.31573 1.32299 0.31815
 N2 N 0.31515 0.82119 0.81731
 N3 N 0.83300 1.34128 0.83472
 N4 N 0.81833 0.82412 0.32182
 N5 N 0.65836 0.66560 0.33974
 N6 N 0.66524 0.16838 0.83840
 N7 N 1.16499 0.66936 0.83537
 N8 N 1.16541 0.16905 0.33750
 N9 N 0.67935 1.32086 0.68318
 N10 N 0.65651 0.84850 1.15918
 N11 N 1.16289 1.34172 1.16592
 N12 N 1.14983 0.85278 0.65449
 N13 N 0.34971 0.65232 0.65021
 N14 N 0.35233 0.15030 1.15141
 N15 N 0.83790 0.66389 1.16099
 N16 N 0.85094 0.15171 0.65023
 N17 N 1.34675 0.34789 0.65308
 N18 N 1.35856 0.86145 1.14113
 N19 N 0.82148 0.32728 1.17859
 N20 N 0.84813 0.85327 0.65393
 N21 N 0.64575 0.65051 0.65043
 N22 N 0.65659 1.15606 1.15807
 N23 N 0.16199 0.66399 1.16603
 N24 N 0.15910 1.15944 0.65822
 N25 N 1.35458 0.64556 0.36019
 N26 N 1.33142 1.16886 0.83561
 N27 N 0.83326 0.66452 0.83957
 N28 N 0.84710 1.15434 0.35007
 N29 N 0.66161 0.34000 0.33778
 N30 N 0.66424 0.84169 0.83883
 N31 N 0.16310 0.34108 0.83712
 N32 N 0.15869 0.84192 0.34238
 O33 O 1.11278 1.03414 1.15426
 O34 O 1.14873 1.03405 1.18997
 C35 C 1.12407 1.04509 1.17886
 C36 C 1.10890 1.07158 1.19407
 C37 C 1.12235 1.08556 1.21992
 H38 H 1.14342 1.07646 1.22960
 O39 O 0.88788 0.97211 1.15443
 O40 O 0.85132 0.97200 1.18932
 C41 C 0.87588 0.96065 1.17846
 C42 C 0.88997 0.93310 1.19313
 C43 C 0.87434 0.91698 1.21637
 H44 H 0.85244 0.92535 1.22465
 O45 O 1.02936 1.15744 1.11298
 O46 O 1.02945 1.19319 1.14895
 C47 C 1.03986 1.18242 1.12390
 C48 C 1.06540 1.19828 1.10804
 C49 C 1.07731 1.22595 1.11970
 H50 H 1.06665 1.23684 1.13936
 O51 O 0.97187 0.85004 1.11318
 O52 O 0.97212 0.81384 1.14876
 C53 C 0.96157 0.82485 1.12383
 C54 C 0.93607 0.80912 1.10775
 C55 C 0.92243 0.78265 1.12038
 H56 H 0.93123 0.77292 1.14156
 O57 O 1.15359 1.11496 1.03259
 O58 O 1.18975 1.15046 1.03242
 C59 C 1.17878 1.12552 1.04292
 C60 C 1.19491 1.10902 1.06796
 C61 C 1.22265 1.12034 1.07999
 H62 H 1.23286 1.14100 1.07049
 O63 O 0.84941 0.89231 1.03146
 O64 O 0.81324 0.85683 1.03154
 C65 C 0.82460 0.88151 1.04228
 C66 C 0.80911 0.89752 1.06795
 C67 C 0.78361 0.88410 1.08248
 H68 H 0.77603 0.86147 1.07533
 O69 O 0.97117 1.11398 1.15586
 O70 O 0.97158 1.14921 1.19233
 C71 C 0.96127 1.12414 1.18132
 C72 C 0.93671 1.10718 1.19763
 C73 C 0.92644 1.11701 1.22655
 H74 H 0.93784 1.13600 1.23798
 O75 O 1.02931 0.89408 1.15647
 O76 O 1.02969 0.85814 1.19229
 C77 C 1.03985 0.88336 1.18149
 C78 C 1.06532 0.89951 1.19722
 C79 C 1.07802 0.88731 1.22428
 H80 H 1.06820 0.86691 1.23472
 O81 O 1.15407 0.97312 1.11270
 O82 O 1.19023 0.97306 1.14821
 C83 C 1.17943 0.96295 1.12305
 C84 C 1.19633 0.93905 1.10564
 C85 C 1.22629 0.93052 1.11411
 H86 H 1.23749 0.94162 1.13340
 O87 O 0.84891 1.03573 1.11380
 O88 O 0.81275 1.03603 1.14914
 C89 C 0.82434 1.04703 1.12477
 C90 C 0.80955 1.07367 1.10943
 C91 C 0.78317 1.08735 1.12203
 H92 H 0.77288 1.07804 1.14267
 O93 O 0.89058 1.15948 1.03220
 O94 O 0.85405 1.19470 1.03248
 C95 C 0.87883 1.18378 1.04342
 C96 C 0.89309 1.19832 1.07068
 C97 C 0.87766 1.22193 1.08640
 H98 H 0.85609 1.23079 1.07763
 O99 O 1.11346 0.85169 1.03318
 O100 O 1.14939 0.81589 1.03362
 C101 C 1.12483 0.82722 1.04455
 C102 C 1.10990 0.81234 1.07134
 C103 C 1.12317 0.78615 1.08502
 H104 H 1.14388 0.77611 1.07557
 O105 O 0.89096 1.03263 1.15557
 O106 O 0.85486 1.03267 1.19096
 C107 C 0.88008 1.04296 1.18054
 C108 C 0.89652 1.06789 1.19697
 C109 C 0.88578 1.07894 1.22527
 H110 H 0.86537 1.06901 1.23540
 O111 O 1.11155 0.97380 1.15477
 O112 O 1.14754 0.97354 1.19043
 C113 C 1.12233 0.96336 1.17981
 C114 C 1.10590 0.93846 1.19620
 C115 C 1.11813 0.92597 1.22333
 H116 H 1.13898 0.93533 1.23319
 O117 O 1.03195 0.85167 1.11479
 O118 O 1.03233 0.81564 1.15051
 C119 C 1.04323 0.82705 1.12597
 C120 C 1.06998 0.81213 1.11093
 C121 C 1.08360 0.78581 1.12404
 H122 H 1.07400 0.77555 1.14457
 O123 O 0.96935 1.15723 1.11458
 O124 O 0.96932 1.19248 1.15103
 C125 C 0.95845 1.18179 1.12615
 C126 C 0.93198 1.19726 1.11126
 C127 C 0.91645 1.22126 1.12634
 H128 H 0.92491 1.22988 1.14812
 O129 O 0.84940 1.11712 1.03201
 O130 O 0.81296 1.15247 1.03178
 C131 C 0.82447 1.12787 1.04263
 C132 C 0.80937 1.11261 1.06883
 C133 C 0.78282 1.12561 1.08154
 H134 H 0.77237 1.14581 1.07122
 O135 O 1.15551 0.89373 1.03021
 O136 O 1.19166 0.85813 1.03003
 C137 C 1.18090 0.88337 1.04022
 C138 C 1.19731 0.90039 1.06476
 C139 C 1.22719 0.89203 1.07370
 H140 H 1.23904 0.87354 1.06194
 O141 O 0.96913 0.89142 1.15553
 O142 O 0.96937 0.85521 1.19108
 C143 C 0.95790 0.87966 1.17978
 C144 C 0.93024 0.89365 1.19398
 C145 C 0.91425 0.87798 1.21728
 H146 H 0.92291 0.85627 1.22609
 O147 O 1.03107 1.11525 1.15474
 O148 O 1.03139 1.15096 1.19075
 C149 C 1.04219 1.12629 1.17938
 C150 C 1.06871 1.11106 1.19437
 C151 C 1.08238 1.12443 1.22036
 H152 H 1.07283 1.14519 1.23037
 O153 O 0.84786 0.97574 1.11044
 O154 O 0.81126 0.97605 1.14532
 C155 C 0.82233 0.96584 1.12031
 C156 C 0.80658 0.94048 1.10392
 C157 C 0.77886 0.92880 1.11522
 H158 H 0.76639 0.94203 1.13214
 O159 O 1.15422 1.03279 1.11208
 O160 O 1.19025 1.03264 1.14776
 C161 C 1.17939 1.04300 1.12270
 C162 C 1.19551 1.06806 1.10643
 C163 C 1.22376 1.07897 1.11737
 H164 H 1.23503 1.06752 1.13644
 O165 O 0.89177 0.85080 1.03189
 O166 O 0.85565 0.81518 1.03217
 C167 C 0.88087 0.82581 1.04236
 C168 C 0.89699 0.80951 1.06743
 C169 C 0.88473 0.78226 1.07944
 H170 H 0.86479 0.77182 1.06878
 O171 O 1.11103 1.15662 1.03339
 O172 O 1.14708 1.19225 1.03348
 C173 C 1.12213 1.18145 1.04407
 C174 C 1.10615 1.19745 1.06950
 C175 C 1.11804 1.22484 1.08189
 H176 H 1.13888 1.23473 1.07263
 Cu177 Cu 1.12945 1.00331 1.12997
 Cu178 Cu 1.17268 1.00313 1.17284
 Cu179 Cu 0.87260 1.00405 1.13015
 Cu180 Cu 0.82896 1.00415 1.17226
 Cu181 Cu 1.00010 1.13245 1.13089
 Cu182 Cu 1.00040 1.17506 1.17436
 Cu183 Cu 1.00056 0.87542 1.13147
 Cu184 Cu 1.00102 0.83213 1.17426
 C185 C 1.08197 1.08446 1.18154
 H186 H 1.07179 1.07427 1.16123
 C187 C 1.10918 1.11195 1.23294
 C188 C 0.91797 0.92127 1.18223
 H189 H 0.92983 0.93317 1.16390
 C190 C 0.88609 0.88921 1.22816
 C191 C 1.07969 1.18448 1.08261
 H192 H 1.07080 1.16297 1.07367
 C193 C 1.10350 1.23939 1.10669
 C194 C 0.92309 0.82243 1.08128
 H195 H 0.93257 0.84359 1.07214
 C196 C 0.89638 0.76956 1.10663
 C197 C 1.18154 1.08286 1.08137
 H198 H 1.15964 1.07460 1.07294
 C199 C 1.23692 1.10566 1.10497
 C200 C 0.82098 0.92529 1.07946
 H201 H 0.84200 0.93458 1.07002
 C202 C 0.76830 0.89942 1.10649
 C203 C 0.92207 1.08213 1.18340
 H204 H 0.92987 1.07442 1.16109
 C205 C 0.90113 1.10287 1.24067
 C206 C 1.07923 0.92533 1.18353
 H207 H 1.07004 0.93441 1.16223
 C208 C 1.10456 0.90019 1.23706
 C209 C 1.18225 0.92416 1.08069
 H210 H 1.15904 0.93042 1.07426
 C211 C 1.24187 0.90728 1.09806
 C212 C 0.82249 1.08648 1.08276
 H213 H 0.84318 1.07654 1.07321
 C214 C 0.76993 1.11330 1.10813
 C215 C 0.92030 1.18620 1.08324
 H216 H 0.93182 1.16734 1.07175
 C217 C 0.88885 1.23302 1.11448
 C218 C 1.08323 0.82511 1.08444
 H219 H 1.07314 0.84560 1.07437
 C220 C 1.11020 0.77298 1.11132
 O221 O 1.10752 0.97327 0.84913
 O222 O 1.14242 0.97382 0.81254
 C223 C 1.11772 0.96317 0.82377
 C224 C 1.10144 0.93787 0.80786
 C225 C 1.11240 0.92647 0.77980
 H226 H 1.13196 0.93715 0.76878
 O227 O 0.89178 1.03570 0.84878
 O228 O 0.85592 1.03591 0.81297
 C229 C 0.88084 1.04643 0.82390
 C230 C 0.89681 1.07196 0.80802
 C231 C 0.88527 1.08385 0.78031
 H232 H 0.86488 1.07389 0.77007
 O233 O 0.96899 1.16038 0.89103
 O234 O 0.96925 1.19607 0.85496
 C235 C 0.95819 1.18505 0.87957
 C236 C 0.93188 1.20035 0.89457
 C237 C 0.91738 1.22578 0.88079
 H238 H 0.92602 1.23520 0.85945
 O239 O 1.02889 0.84928 0.89297
 O240 O 1.02906 0.81336 0.85717
 C241 C 1.03966 0.82442 0.88207
 C242 C 1.06552 0.80881 0.89785
 C243 C 1.07820 0.78187 0.88539
 H244 H 1.06815 0.77156 0.86507
 O245 O 1.15373 0.89112 0.97007
 O246 O 1.18918 0.85480 0.96977
 C247 C 1.17776 0.87928 0.95848
 C248 C 1.19152 0.89332 0.93068
 C249 C 1.21399 0.87744 0.91374
 H250 H 1.22261 0.85541 0.92175
 O251 O 0.84934 1.11679 0.97205
 O252 O 0.81296 1.15216 0.97204
 C253 C 0.82422 1.12729 0.96153
 C254 C 0.80856 1.11112 0.93601
 C255 C 0.78095 1.12271 0.92399
 H256 H 0.77018 1.14267 0.93436
 O257 O 1.03108 1.11916 0.85189
 O258 O 1.03194 1.15506 0.81601
 C259 C 1.04258 1.13037 0.82756
 C260 C 1.06859 1.11451 0.81267
 C261 C 1.08339 1.12784 0.78726
 H262 H 1.07660 1.15063 0.77977
 O263 O 0.96864 0.89091 0.85087
 O264 O 0.96871 0.85516 0.81489
 C265 C 0.95828 0.88023 0.82579
 C266 C 0.93342 0.89683 0.80953
 C267 C 0.92116 0.88507 0.78212
 H268 H 0.93034 0.86408 0.77227
 O269 O 1.15068 1.03223 0.89180
 O270 O 1.18567 1.03276 0.85534
 C271 C 1.17527 1.04307 0.88059
 C272 C 1.19118 1.06887 0.89629
 C273 C 1.21745 1.08208 0.88314
 H274 H 1.22711 1.07253 0.86230
 O275 O 0.85031 0.97503 0.89071
 O276 O 0.81452 0.97525 0.85483
 C277 C 0.82565 0.96421 0.87950
 C278 C 0.81048 0.93757 0.89436
 C279 C 0.78462 0.92412 0.88058
 H280 H 0.77483 0.93409 0.85994
 O281 O 1.11085 1.15802 0.97357
 O282 O 1.14695 1.19359 0.97356
 C283 C 1.12178 1.18310 0.96324
 C284 C 1.10575 1.19957 0.93810
 C285 C 1.11895 1.22590 0.92484
 H286 H 1.14012 1.23529 0.93396
 O287 O 0.89163 0.84848 0.97311
 O288 O 0.85554 0.81287 0.97350
 C289 C 0.88104 0.82289 0.96372
 C290 C 0.89752 0.80559 0.93975
 C291 C 0.88632 0.77715 0.92954
 H292 H 0.86863 0.76549 0.94255
 O293 O 0.89151 0.97542 0.84832
 O294 O 0.85572 0.97573 0.81243
 C295 C 0.88047 0.96484 0.82344
 C296 C 0.89578 0.93864 0.80803
 C297 C 0.88403 0.92668 0.78045
 H298 H 0.86470 0.93773 0.76924
 O299 O 1.10825 1.03334 0.84982
 O300 O 1.14331 1.03361 0.81339
 C301 C 1.11868 1.04417 0.82481
 C302 C 1.10340 1.07069 0.80983
 C303 C 1.11488 1.08232 0.78213
 H304 H 1.13112 1.06855 0.76933
 O305 O 0.96904 0.84735 0.89142
 O306 O 0.96890 0.81143 0.85563
 C307 C 0.95847 0.82233 0.88054
 C308 C 0.93347 0.80638 0.89705
 C309 C 0.91922 0.77992 0.88493
 H310 H 0.92633 0.77105 0.86282
 O311 O 1.02878 1.16061 0.89389
 O312 O 1.02932 1.19658 0.85808
 C313 C 1.03951 1.18556 0.88317
 C314 C 1.06531 1.20092 0.89908
 C315 C 1.07901 1.22708 0.88607
 H316 H 1.06963 1.23722 0.86532
 O317 O 0.85032 0.89205 0.97071
 O318 O 0.81434 0.85639 0.97065
 C319 C 0.82567 0.88103 0.95964
 C320 C 0.81063 0.89659 0.93312
 C321 C 0.78487 0.88339 0.91871
 H322 H 0.77508 0.86222 0.92754
 O323 O 1.15161 1.11439 0.97260
 O324 O 1.18773 1.14994 0.97233
 C325 C 1.17641 1.12511 0.96172
 C326 C 1.19161 1.10914 0.93575
 C327 C 1.21779 1.12200 0.92206
 H328 H 1.22766 1.14307 0.93106
 O329 O 1.02810 0.89068 0.85011
 O330 O 1.02833 0.85489 0.81416
 C331 C 1.03843 0.88010 0.82499
 C332 C 1.06294 0.89693 0.80868
 C333 C 1.07440 0.88574 0.78074
 H334 H 1.06477 0.86514 0.77049
 O335 O 0.97132 1.11760 0.84958
 O336 O 0.97200 1.15315 0.81338
 C337 C 0.96158 1.12801 0.82409
 C338 C 0.93688 1.11135 0.80761
 C339 C 0.92569 1.12218 0.77929
 H340 H 0.93670 1.14152 0.76808
 O341 O 0.84975 1.03545 0.89076
 O342 O 0.81386 1.03564 0.85499
 C343 C 0.82484 1.04615 0.87991
 C344 C 0.80901 1.07171 0.89589
 C345 C 0.78169 1.08405 0.88391
 H346 H 0.77167 1.07447 0.86322
 O347 O 1.15106 0.97163 0.88944
 O348 O 1.18587 0.97219 0.85278
 C349 C 1.17530 0.96072 0.87739
 C350 C 1.19037 0.93338 0.89113
 C351 C 1.21299 0.91728 0.87469
 H352 H 1.22074 0.92578 0.85263
 O353 O 1.11131 0.84998 0.97302
 O354 O 1.14678 0.81370 0.97328
 C355 C 1.12184 0.82472 0.96274
 C356 C 1.10569 0.80886 0.93726
 C357 C 1.11823 0.78212 0.92411
 H358 H 1.13916 0.77222 0.93331
 O359 O 0.88993 1.16036 0.97194
 O360 O 0.85354 1.19571 0.97214
 C361 C 0.87837 1.18507 0.96130
 C362 C 0.89309 1.20064 0.93500
 C363 C 0.87908 1.22624 0.92107
 H364 H 0.85823 1.23595 0.93055
 Cu365 Cu 1.12596 1.00259 0.87380
 Cu366 Cu 1.16792 1.00324 0.82995
 Cu367 Cu 0.87444 1.00547 0.87324
 Cu368 Cu 0.83136 1.00573 0.83026
 Cu369 Cu 1.12819 1.13241 1.00306
 Cu370 Cu 1.17152 1.17510 1.00292
 Cu371 Cu 1.12999 0.87525 1.00169
 Cu372 Cu 1.17280 0.83199 1.00184
 Cu373 Cu 0.87357 1.13496 1.00192
 Cu374 Cu 0.82978 1.17738 1.00201
 Cu375 Cu 0.87415 0.87478 1.00159
 Cu376 Cu 0.83077 0.83198 1.00192
 Cu377 Cu 0.99984 1.13585 0.87521
 Cu378 Cu 1.00060 1.17888 0.83201
 Cu379 Cu 0.99860 0.87306 0.87502
 Cu380 Cu 0.99882 0.83004 0.83190
 C381 C 1.07642 0.92318 0.82194
 H382 H 1.06815 0.93151 0.84385
 C383 C 1.09927 0.90019 0.76650
 C384 C 0.92261 1.08587 0.82147
 H385 H 0.93100 1.07746 0.84336
 C386 C 0.89933 1.10913 0.76598
 C387 C 0.91970 1.18812 0.92181
 H388 H 0.93035 1.16810 0.93222
 C389 C 0.89100 1.23862 0.89394
 C390 C 1.07916 0.82192 0.92407
 H391 H 1.06978 0.84298 0.93354
 C392 C 1.10444 0.76846 0.89837
 C393 C 1.18000 0.92136 0.91921
 H394 H 1.16216 0.93337 0.93169
 C395 C 1.22445 0.88915 0.88558
 C396 C 0.82218 1.08530 0.92209
 H397 H 0.84365 1.07640 0.93105
 C398 C 0.76738 1.10926 0.89805
 C399 C 1.07949 1.08642 0.82446
 H400 H 1.06976 1.07707 0.84534
 C401 C 1.10689 1.11200 0.77173
 C402 C 0.92072 0.92374 0.82220
 H403 H 0.92964 0.93256 0.84369
 C404 C 0.89631 0.89968 0.76773
 C405 C 1.17860 1.08239 0.92283
 H406 H 1.15797 1.07276 0.93276
 C407 C 1.23043 1.10883 0.89561
 C408 C 0.82319 0.92379 0.92076
 H409 H 0.84343 0.93381 0.93121
 C410 C 0.77199 0.89695 0.89233
 C411 C 1.07867 1.18748 0.92530
 H412 H 1.06874 1.16676 0.93496
 C413 C 1.10602 1.23923 0.89852
 C414 C 0.92194 0.81935 0.92416
 H415 H 0.93111 0.84101 0.93246
 C416 C 0.89485 0.76564 0.90071
 O417 O 0.96726 0.39293 0.34848
 O418 O 0.96720 0.35680 0.31288
 C419 C 0.95614 0.38145 0.32404
 C420 C 0.92914 0.39607 0.30934
 C421 C 0.91334 0.38082 0.28564
 H422 H 0.92163 0.35886 0.27718
 O423 O 1.02680 0.61644 0.35106
 O424 O 1.02643 0.65259 0.31542
 C425 C 1.03731 0.62770 0.32627
 C426 C 1.06272 0.61205 0.31008
 C427 C 1.07354 0.62372 0.28206
 H428 H 1.06303 0.64395 0.27187
 O429 O 0.84439 0.47335 0.39161
 O430 O 0.80845 0.47339 0.35586
 C431 C 0.81947 0.46275 0.38077
 C432 C 0.80380 0.43705 0.39668
 C433 C 0.77769 0.42337 0.38360
 H434 H 0.76810 0.43232 0.36240
 O435 O 1.15167 0.53476 0.39039
 O436 O 1.18694 0.53546 0.35420
 C437 C 1.17635 0.54568 0.37940
 C438 C 1.19218 0.57115 0.39574
 C439 C 1.22099 0.58193 0.38597
 H440 H 1.23259 0.57095 0.36691
 O441 O 0.88620 0.35117 0.47072
 O442 O 0.85095 0.31473 0.47038
 C443 C 0.87555 0.32621 0.45976
 C444 C 0.89172 0.31057 0.43421
 C445 C 0.88108 0.28216 0.42297
 H446 H 0.86129 0.27121 0.43329
 O447 O 1.10779 0.65723 0.47238
 O448 O 1.14316 0.69354 0.47200
 C449 C 1.11811 0.68245 0.46188
 C450 C 1.10112 0.69862 0.43720
 C451 C 1.11217 0.72649 0.42519
 H452 H 1.13302 0.73661 0.43429
 O453 O 0.88590 0.53356 0.34942
 O454 O 0.85007 0.53392 0.31359
 C455 C 0.87502 0.54437 0.32455
 C456 C 0.89138 0.56972 0.30874
 C457 C 0.87932 0.58323 0.28191
 H458 H 0.85770 0.57516 0.27262
 O459 O 1.10825 0.47570 0.34812
 O460 O 1.14309 0.47657 0.31149
 C461 C 1.11838 0.46579 0.32266
 C462 C 1.10209 0.44051 0.30657
 C463 C 1.11433 0.42802 0.27951
 H464 H 1.13482 0.43784 0.26943
 O465 O 1.02858 0.35178 0.38996
 O466 O 1.02878 0.31591 0.35413
 C467 C 1.03943 0.32694 0.37897
 C468 C 1.06535 0.31128 0.39462
 C469 C 1.07755 0.28385 0.38259
 H470 H 1.06724 0.27331 0.36252
 O471 O 0.96419 0.65669 0.39140
 O472 O 0.96373 0.69243 0.35538
 C473 C 0.95284 0.68117 0.37996
 C474 C 0.92603 0.69609 0.39474
 C475 C 0.91042 0.72024 0.37986
 H476 H 0.91849 0.72879 0.35794
 O477 O 0.84305 0.61420 0.47286
 O478 O 0.80681 0.64972 0.47328
 C479 C 0.81804 0.62501 0.46235
 C480 C 0.80266 0.60931 0.43634
 C481 C 0.77629 0.62212 0.42270
 H482 H 0.76627 0.64303 0.43188
 O483 O 1.15367 0.39297 0.46952
 O484 O 1.18929 0.35684 0.46894
 C485 C 1.17801 0.38161 0.45814
 C486 C 1.19226 0.39627 0.43091
 C487 C 1.21538 0.38075 0.41462
 H488 H 1.22433 0.35901 0.42306
 O489 O 0.96739 0.61356 0.35009
 O490 O 0.96728 0.64936 0.31411
 C491 C 0.95760 0.62383 0.32459
 C492 C 0.93333 0.60697 0.30785
 C493 C 0.92265 0.61802 0.27954
 H494 H 0.93489 0.63639 0.26799
 O495 O 1.02734 0.39423 0.34783
 O496 O 1.02742 0.35842 0.31195
 C497 C 1.03774 0.38359 0.32275
 C498 C 1.06291 0.40002 0.30670
 C499 C 1.07587 0.38768 0.27984
 H500 H 1.06687 0.36658 0.27004
 O501 O 1.15166 0.47412 0.38873
 O502 O 1.18649 0.47462 0.35211
 C503 C 1.17591 0.46318 0.37677
 C504 C 1.19104 0.43594 0.39087
 C505 C 1.21396 0.41981 0.37482
 H506 H 1.22170 0.42803 0.35265
 O507 O 0.84420 0.53338 0.39173
 O508 O 0.80831 0.53343 0.35594
 C509 C 0.81919 0.54388 0.38092
 C510 C 0.80321 0.56936 0.39676
 C511 C 0.77655 0.58214 0.38389
 H512 H 0.76656 0.57224 0.36333
 O513 O 0.88419 0.65677 0.47265
 O514 O 0.84799 0.69232 0.47306
 C515 C 0.87265 0.68145 0.46194
 C516 C 0.88711 0.69664 0.43517
 C517 C 0.87203 0.72098 0.42003
 H518 H 0.85057 0.72993 0.42885
 O519 O 1.11115 0.35180 0.47026
 O520 O 1.14675 0.31562 0.46977
 C521 C 1.12181 0.32685 0.45943
 C522 C 1.10564 0.31130 0.43386
 C523 C 1.11761 0.28409 0.42124
 H524 H 1.13830 0.27390 0.43070
 O525 O 1.10893 0.53565 0.34894
 O526 O 1.14399 0.53659 0.31253
 C527 C 1.11919 0.54675 0.32399
 C528 C 1.10253 0.57230 0.30869
 C529 C 1.11283 0.58420 0.28051
 H530 H 1.13263 0.57419 0.26925
 O531 O 0.88596 0.47331 0.34930
 O532 O 0.84999 0.47354 0.31360
 C533 C 0.87478 0.46266 0.32452
 C534 C 0.88972 0.43619 0.30922
 C535 C 0.87483 0.42108 0.28491
 H536 H 0.85361 0.43027 0.27562
 O537 O 1.02442 0.65785 0.39380
 O538 O 1.02394 0.69396 0.35814
 C539 C 1.03448 0.68312 0.38315
 C540 C 1.05971 0.69929 0.39921
 C541 C 1.07082 0.72743 0.38791
 H542 H 1.05970 0.73840 0.36848
 O543 O 0.96843 0.35105 0.39044
 O544 O 0.96872 0.31491 0.35485
 C545 C 0.95799 0.32595 0.37964
 C546 C 0.93234 0.31010 0.39545
 C547 C 0.92133 0.28165 0.38464
 H548 H 0.93228 0.27045 0.36532
 O549 O 1.15064 0.61584 0.47154
 O550 O 1.18620 0.65196 0.47155
 C551 C 1.17543 0.62693 0.46095
 C552 C 1.19153 0.61090 0.43565
 C553 C 1.22031 0.62122 0.42561
 H554 H 1.23144 0.64043 0.43696
 O555 O 0.84405 0.39320 0.47343
 O556 O 0.80877 0.35682 0.47321
 C557 C 0.81923 0.38212 0.46290
 C558 C 0.80339 0.39789 0.43719
 C559 C 0.77720 0.38469 0.42379
 H560 H 0.76722 0.36397 0.43343
 Cu561 Cu 0.99799 0.37609 0.37274
 Cu562 Cu 0.99817 0.33294 0.32985
 Cu563 Cu 0.99570 0.63264 0.37532
 Cu564 Cu 0.99526 0.67583 0.33230
 Cu565 Cu 0.86878 0.50344 0.37405
 Cu566 Cu 0.82561 0.50363 0.33113
 Cu567 Cu 1.12677 0.50505 0.37280
 Cu568 Cu 1.16873 0.50594 0.32902
 C569 C 0.91711 0.42376 0.32100
 H570 H 0.92851 0.43507 0.34003
 C571 C 0.88586 0.39285 0.27385
 C572 C 1.07718 0.58617 0.32310
 H573 H 1.06926 0.57738 0.34497
 C574 C 1.09838 0.60984 0.26720
 C575 C 0.81632 0.42431 0.42366
 H576 H 0.83693 0.43424 0.43345
 C577 C 0.76466 0.39707 0.39683
 C578 C 1.17778 0.58569 0.42075
 H579 H 1.15543 0.57784 0.42821
 C580 C 1.23519 0.60669 0.40109
 C581 C 0.91751 0.32424 0.42043
 H582 H 0.92561 0.34632 0.42871
 C583 C 0.89594 0.26753 0.39848
 C584 C 1.07469 0.68533 0.42423
 H585 H 1.06648 0.66342 0.43284
 C586 C 1.09695 0.74113 0.40081
 C587 C 0.91816 0.58214 0.32178
 H588 H 0.92656 0.57327 0.34349
 C589 C 0.89449 0.60796 0.26761
 C590 C 1.07608 0.42662 0.31975
 H591 H 1.06686 0.43578 0.34094
 C592 C 1.10176 0.40134 0.26652
 C593 C 1.07934 0.32463 0.42053
 H594 H 1.07033 0.34598 0.42973
 C595 C 1.10352 0.27014 0.39589
 C596 C 0.91428 0.68460 0.42251
 H597 H 0.92571 0.66547 0.43373
 C598 C 0.88333 0.73246 0.39223
 C599 C 0.81588 0.58283 0.42323
 H600 H 0.83671 0.57330 0.43300
 C601 C 0.76355 0.60888 0.39623
 C602 C 1.18043 0.42400 0.41897
 H603 H 1.16215 0.43576 0.43105
 C604 C 1.22572 0.39197 0.38628
 O605 O 1.03031 0.39084 0.65138
 O606 O 1.03042 0.35497 0.68728
 C607 C 1.04078 0.38008 0.67643
 C608 C 1.06590 0.39641 0.69257
 C609 C 1.07756 0.38489 0.72037
 H610 H 1.06727 0.36476 0.73087
 O611 O 0.96882 0.61444 0.65478
 O612 O 0.96896 0.65030 0.69064
 C613 C 0.95835 0.62534 0.67971
 C614 C 0.93252 0.60972 0.69529
 C615 C 0.91969 0.62247 0.72197
 H616 H 0.93001 0.64258 0.73251
 O617 O 0.84451 0.53157 0.61223
 O618 O 0.80951 0.53099 0.64869
 C619 C 0.81954 0.54159 0.62341
 C620 C 0.80287 0.56674 0.60743
 C621 C 0.77476 0.57785 0.61872
 H622 H 0.76417 0.56708 0.63848
 O623 O 1.15291 0.47317 0.61141
 O624 O 1.18859 0.47309 0.64741
 C625 C 1.17786 0.46263 0.62236
 C626 C 1.19408 0.43739 0.60628
 C627 C 1.22164 0.42542 0.61809
 H628 H 1.23184 0.43526 0.63858
 O629 O 1.11263 0.35043 0.53007
 O630 O 1.14837 0.31443 0.52967
 C631 C 1.12346 0.32519 0.54031
 C632 C 1.10723 0.30867 0.56530
 C633 C 1.11842 0.28046 0.57667
 H634 H 1.13875 0.27009 0.56678
 O635 O 0.88529 0.65615 0.53275
 O636 O 0.84935 0.69195 0.53331
 C637 C 0.87450 0.68109 0.54350
 C638 C 0.89106 0.69713 0.56861
 C639 C 0.88071 0.72574 0.57958
 H640 H 0.86093 0.73679 0.56920
 O641 O 0.89053 0.47405 0.65385
 O642 O 0.85592 0.47368 0.69070
 C643 C 0.88075 0.46352 0.67917
 C644 C 0.89702 0.43765 0.69429
 C645 C 0.88448 0.42425 0.72070
 H646 H 0.86499 0.43493 0.73188
 O647 O 1.11065 0.53356 0.65311
 O648 O 1.14655 0.53369 0.68886
 C649 C 1.12173 0.54444 0.67784
 C650 C 1.10633 0.57069 0.69324
 C651 C 1.11988 0.58465 0.71903
 H652 H 1.14090 0.57542 0.72870
 O653 O 0.97064 0.34815 0.60958
 O654 O 0.97095 0.31193 0.64514
 C655 C 0.96033 0.32296 0.62027
 C656 C 0.93540 0.30675 0.60377
 C657 C 0.92508 0.27772 0.61360
 H658 H 0.93523 0.26706 0.63371
 O659 O 1.02789 0.65740 0.61244
 O660 O 1.02791 0.69337 0.64820
 C661 C 1.03832 0.68251 0.62324
 C662 C 1.06351 0.69864 0.60711
 C663 C 1.07449 0.72710 0.61787
 H664 H 1.06381 0.73811 0.63745
 O665 O 0.84546 0.39013 0.53387
 O666 O 0.81051 0.35343 0.53391
 C667 C 0.82158 0.37795 0.54538
 C668 C 0.80756 0.39167 0.57328
 C669 C 0.78482 0.37566 0.58973
 H670 H 0.77598 0.35402 0.58104
 O671 O 1.15109 0.61543 0.53157
 O672 O 1.18658 0.65162 0.53163
 C673 C 1.17597 0.62645 0.54207
 C674 C 1.19234 0.60988 0.56694
 C675 C 1.22103 0.62010 0.57754
 H676 H 1.23128 0.64060 0.56774
 O677 O 1.02890 0.61458 0.65377
 O678 O 1.02911 0.65051 0.68955
 C679 C 1.03989 0.62569 0.67841
 C680 C 1.06633 0.61037 0.69353
 C681 C 1.08030 0.62392 0.71928
 H682 H 1.07100 0.64491 0.72905
 O683 O 0.97049 0.39080 0.65107
 O684 O 0.97046 0.35465 0.68670
 C685 C 0.95988 0.37972 0.67585
 C686 C 0.93443 0.39564 0.69180
 C687 C 0.92025 0.38171 0.71720
 H688 H 0.92814 0.35948 0.72541
 O689 O 1.15233 0.53312 0.61087
 O690 O 1.18838 0.53300 0.64651
 C691 C 1.17744 0.54346 0.62150
 C692 C 1.19344 0.56860 0.60511
 C693 C 1.22271 0.57827 0.61445
 H694 H 1.23451 0.56608 0.63272
 O695 O 0.84614 0.47093 0.61474
 O696 O 0.81156 0.47036 0.65161
 C697 C 0.82240 0.45916 0.62699
 C698 C 0.80817 0.43129 0.61329
 C699 C 0.78571 0.41471 0.62953
 H700 H 0.77778 0.42297 0.65160
 O701 O 1.10897 0.65742 0.53207
 O702 O 1.14427 0.69380 0.53184
 C703 C 1.11957 0.68261 0.54248
 C704 C 1.10335 0.69860 0.56769
 C705 C 1.11399 0.72705 0.57876
 H706 H 1.13375 0.73798 0.56835
 O707 O 0.88859 0.34933 0.53021
 O708 O 0.85369 0.31254 0.52974
 C709 C 0.87882 0.32350 0.53975
 C710 C 0.89626 0.30665 0.56358
 C711 C 0.88728 0.27701 0.57271
 H712 H 0.86868 0.26553 0.56078
 O713 O 1.11032 0.47309 0.65270
 O714 O 1.14592 0.47310 0.68876
 C715 C 1.12117 0.46236 0.67759
 C716 C 1.10535 0.43648 0.69307
 C717 C 1.11701 0.42422 0.72058
 H718 H 1.13732 0.43411 0.73103
 O719 O 0.88693 0.53405 0.65420
 O720 O 0.85190 0.53371 0.69065
 C721 C 0.87625 0.54480 0.67915
 C722 C 0.89183 0.57095 0.69453
 C723 C 0.87894 0.58456 0.72081
 H724 H 0.85781 0.57559 0.73032
 O725 O 0.96788 0.65644 0.61258
 O726 O 0.96800 0.69239 0.64836
 C727 C 0.95722 0.68137 0.62354
 C728 C 0.93152 0.69723 0.60772
 C729 C 0.92075 0.72580 0.61836
 H730 H 0.93181 0.73696 0.63768
 O731 O 1.03058 0.34854 0.60937
 O732 O 1.03085 0.31253 0.64512
 C733 C 1.04126 0.32352 0.62019
 C734 C 1.06673 0.30768 0.60413
 C735 C 1.07808 0.27934 0.61494
 H736 H 1.06752 0.26819 0.63451
 O737 O 1.15423 0.39328 0.52981
 O738 O 1.19010 0.35741 0.52941
 C739 C 1.17922 0.38234 0.54019
 C740 C 1.19497 0.39821 0.56589
 C741 C 1.22259 0.38663 0.57802
 H742 H 1.23340 0.36662 0.56781
 O743 O 0.84331 0.61372 0.53271
 O744 O 0.80714 0.64929 0.53330
 C745 C 0.81827 0.62416 0.54339
 C746 C 0.80246 0.60733 0.56837
 C747 C 0.77437 0.61804 0.57994
 H748 H 0.76349 0.63817 0.56995
 Cu749 Cu 1.00050 0.37315 0.62673
 Cu750 Cu 1.00072 0.32994 0.66969
 Cu751 Cu 0.99836 0.63211 0.62981
 Cu752 Cu 0.99848 0.67517 0.67284
 Cu753 Cu 0.86941 0.37477 0.50208
 Cu754 Cu 0.82724 0.33091 0.50177
 Cu755 Cu 1.12945 0.37580 0.50013
 Cu756 Cu 1.17230 0.33254 0.49950
 Cu757 Cu 0.86761 0.63169 0.50281
 Cu758 Cu 0.82423 0.67444 0.50346
 Cu759 Cu 1.12613 0.63280 0.50191
 Cu760 Cu 1.16864 0.67636 0.50170
 Cu761 Cu 0.87036 0.50286 0.62997
 Cu762 Cu 0.82871 0.50221 0.67404
 Cu763 Cu 1.12790 0.50323 0.62850
 Cu764 Cu 1.17085 0.50324 0.67160
 C765 C 1.07964 0.42252 0.67934
 H766 H 1.07095 0.43137 0.65775
 C767 C 1.10298 0.39872 0.73451
 C768 C 0.91865 0.58370 0.68197
 H769 H 0.92822 0.57392 0.66121
 C770 C 0.89247 0.61058 0.73428
 C771 C 0.81632 0.58147 0.58204
 H772 H 0.83826 0.57344 0.57355
 C773 C 0.76060 0.60358 0.60517
 C774 C 1.18111 0.42382 0.58000
 H775 H 1.15957 0.43259 0.57111
 C776 C 1.23580 0.40005 0.60417
 C777 C 1.08121 0.32191 0.57903
 H778 H 1.07279 0.34392 0.57081
 C779 C 1.10383 0.26570 0.60130
 C780 C 0.91668 0.68321 0.58265
 H781 H 0.92460 0.66098 0.57458
 C782 C 0.89563 0.74022 0.60421
 C783 C 0.92247 0.42354 0.68030
 H784 H 0.93222 0.43363 0.65978
 C785 C 0.89482 0.39553 0.73121
 C786 C 1.07940 0.58361 0.68079
 H787 H 1.06915 0.57339 0.66054
 C788 C 1.10723 0.61145 0.73175
 C789 C 0.92084 0.32099 0.57871
 H790 H 0.92795 0.34383 0.57166
 C791 C 0.90158 0.26228 0.59765
 C792 C 1.07790 0.68475 0.58181
 H793 H 1.06984 0.66260 0.57366
 C794 C 1.09949 0.74147 0.60361
 C795 C 0.81889 0.41957 0.58520
 H796 H 0.83672 0.43182 0.57295
 C797 C 0.77432 0.38668 0.61819
 C798 C 1.17876 0.58410 0.58088
 H799 H 1.15623 0.57662 0.57345
 C800 C 1.23682 0.60384 0.60063
 O801 O 0.46952 0.89005 0.34950
 O802 O 0.46984 0.85369 0.31413
 C803 C 0.45983 0.87928 0.32418
 C804 C 0.43542 0.89589 0.30728
 C805 C 0.42707 0.88737 0.27735
 H806 H 0.44262 0.87272 0.26476
 O807 O 0.52978 1.11635 0.35189
 O808 O 0.53067 1.15165 0.31543
 C809 C 0.54138 1.12721 0.32743
 C810 C 0.56741 1.11117 0.31268
 C811 C 0.58182 1.12402 0.28680
 H812 H 0.57493 1.14666 0.27890
 O813 O 0.34762 0.97064 0.39058
 O814 O 0.31194 0.97061 0.35457
 C815 C 0.32278 0.96006 0.37960
 C816 C 0.30705 0.93445 0.39554
 C817 C 0.28109 0.92058 0.38240
 H818 H 0.27205 0.92912 0.36081
 O819 O 0.65149 1.03167 0.39062
 O820 O 0.68654 1.03198 0.35419
 C821 C 0.67600 1.04260 0.37922
 C822 C 0.69173 1.06862 0.39473
 C823 C 0.71904 1.08089 0.38271
 H824 H 0.72968 1.07039 0.36283
 O825 O 0.38775 0.84869 0.47344
 O826 O 0.35230 0.81246 0.47408
 C827 C 0.37714 0.82332 0.46343
 C828 C 0.39368 0.80671 0.43878
 C829 C 0.38468 0.77697 0.42977
 H830 H 0.36580 0.76557 0.44127
 O831 O 0.60971 1.15561 0.47225
 O832 O 0.64562 1.19138 0.47173
 C833 C 0.62052 1.18052 0.46147
 C834 C 0.60440 1.19643 0.43598
 C835 C 0.61822 1.22164 0.42132
 H836 H 0.64030 1.22999 0.42920
 O837 O 0.39043 1.02967 0.34811
 O838 O 0.35513 1.02975 0.31176
 C839 C 0.38005 1.04014 0.32291
 C840 C 0.39692 1.06506 0.30683
 C841 C 0.38736 1.07544 0.27777
 H842 H 0.36729 1.06538 0.26703
 O843 O 0.60984 0.97027 0.34985
 O844 O 0.64479 0.97055 0.31331
 C845 C 0.62048 0.95947 0.32491
 C846 C 0.60496 0.93308 0.30993
 C847 C 0.61704 0.91985 0.28309
 H848 H 0.63729 0.92951 0.27239
 O849 O 0.52787 0.84831 0.39390
 O850 O 0.52825 0.81163 0.35885
 C851 C 0.53858 0.82313 0.38364
 C852 C 0.56393 0.80761 0.40019
 C853 C 0.57579 0.77963 0.38929
 H854 H 0.56603 0.76902 0.36898
 O855 O 0.46586 1.15735 0.38857
 O856 O 0.46602 1.19213 0.35164
 C857 C 0.45438 1.18120 0.37598
 C858 C 0.42632 1.19514 0.38914
 C859 C 0.40953 1.21765 0.37296
 H860 H 0.41815 1.22663 0.35142
 O861 O 0.34644 1.11060 0.47090
 O862 O 0.30978 1.14568 0.47142
 C863 C 0.32093 1.12071 0.46102
 C864 C 0.30524 1.10462 0.43553
 C865 C 0.27899 1.11766 0.42213
 H866 H 0.26812 1.13746 0.43268
 O867 O 0.65332 0.89164 0.47229
 O868 O 0.68884 0.85542 0.47275
 C869 C 0.67792 0.88015 0.46157
 C870 C 0.69304 0.89497 0.43490
 C871 C 0.71722 0.88011 0.41948
 H872 H 0.72623 0.85848 0.42811
 O873 O 0.47019 1.11249 0.34983
 O874 O 0.47112 1.14709 0.31272
 C875 C 0.46097 1.12196 0.32381
 C876 C 0.43727 1.10425 0.30692
 C877 C 0.42834 1.11318 0.27724
 H878 H 0.44036 1.13176 0.26581
 O879 O 0.52891 0.88921 0.35114
 O880 O 0.52924 0.85260 0.31600
 C881 C 0.53976 0.87771 0.32666
 C882 C 0.56542 0.89317 0.31089
 C883 C 0.57763 0.88049 0.28396
 H884 H 0.56764 0.85996 0.27392
 O885 O 0.65199 0.97141 0.39155
 O886 O 0.68689 0.97161 0.35496
 C887 C 0.67658 0.96085 0.38002
 C888 C 0.69234 0.93461 0.39497
 C889 C 0.71629 0.91929 0.37978
 H890 H 0.72442 0.92767 0.35781
 O891 O 0.34768 1.03052 0.38937
 O892 O 0.31221 1.03087 0.35316
 C893 C 0.32301 1.04136 0.37816
 C894 C 0.30724 1.06701 0.39387
 C895 C 0.28205 1.08156 0.37990
 H896 H 0.27381 1.07371 0.35776
 O897 O 0.38550 1.15504 0.46693
 O898 O 0.34864 1.18993 0.46732
 C899 C 0.37300 1.17908 0.45572
 C900 C 0.38626 1.19375 0.42816
 C901 C 0.36959 1.21600 0.41160
 H902 H 0.34731 1.22350 0.41970
 O903 O 0.61001 0.85075 0.47401
 O904 O 0.64550 0.81447 0.47473
 C905 C 0.62043 0.82525 0.46426
 C906 C 0.60374 0.80848 0.43982
 C907 C 0.61474 0.78007 0.42906
 H908 H 0.63465 0.76954 0.43971
 O909 O 0.60764 1.03054 0.35029
 O910 O 0.64260 1.03069 0.31376
 C911 C 0.61781 1.04107 0.32511
 C912 C 0.60211 1.06720 0.30990
 C913 C 0.61320 1.07838 0.28189
 H914 H 0.62935 1.06450 0.26909
 O915 O 0.38826 0.96925 0.34810
 O916 O 0.35275 0.96925 0.31194
 C917 C 0.37716 0.95818 0.32346
 C918 C 0.39301 0.93222 0.30824
 C919 C 0.38201 0.91973 0.28057
 H920 H 0.36019 0.92784 0.27196
 O921 O 0.52593 1.15801 0.39401
 O922 O 0.52644 1.19323 0.35748
 C923 C 0.53653 1.18284 0.38291
 C924 C 0.56250 1.19844 0.39848
 C925 C 0.57608 1.22448 0.38507
 H926 H 0.56550 1.23528 0.36525
 O927 O 0.46801 0.84805 0.39239
 O928 O 0.46830 0.81141 0.35734
 C929 C 0.45776 0.82268 0.38207
 C930 C 0.43310 0.80642 0.39891
 C931 C 0.42388 0.77661 0.39031
 H932 H 0.43507 0.76498 0.37137
 O933 O 0.65191 1.11359 0.47130
 O934 O 0.68781 1.14935 0.47078
 C935 C 0.67658 1.12450 0.46024
 C936 C 0.69183 1.10872 0.43423
 C937 C 0.71887 1.12084 0.42159
 H938 H 0.72921 1.14128 0.43144
 O939 O 0.34645 0.89172 0.47327
 O940 O 0.31083 0.85566 0.47340
 C941 C 0.32161 0.88068 0.46274
 C942 C 0.30597 0.89626 0.43681
 C943 C 0.27913 0.88372 0.42415
 H944 H 0.26817 0.86419 0.43508
 Cu945 Cu 0.49832 0.87254 0.37531
 Cu946 Cu 0.49876 0.82857 0.33308
 Cu947 Cu 0.49784 1.13271 0.37487
 Cu948 Cu 0.49856 1.17467 0.33077
 Cu949 Cu 0.37216 1.00010 0.37256
 Cu950 Cu 0.32941 1.00028 0.32922
 Cu951 Cu 0.62675 1.00096 0.37424
 Cu952 Cu 0.66872 1.00136 0.33039
 C953 C 0.41905 0.91930 0.32195
 H954 H 0.42627 0.92708 0.34446
 C955 C 0.39908 0.89740 0.26418
 C956 C 0.57844 1.08321 0.32470
 H957 H 0.56902 1.07422 0.34588
 C958 C 0.60505 1.10787 0.27120
 C959 C 0.31942 0.92204 0.42270
 H960 H 0.34019 0.93180 0.43230
 C961 C 0.26730 0.89493 0.39630
 C962 C 0.67850 1.08254 0.42069
 H963 H 0.65729 1.07346 0.42991
 C964 C 0.73241 1.10727 0.39573
 C965 C 0.41808 0.82109 0.42339
 H966 H 0.42489 0.84416 0.42998
 C967 C 0.39992 0.76170 0.40585
 C968 C 0.57653 1.18492 0.42436
 H969 H 0.56643 1.16461 0.43467
 C970 C 0.60452 1.23538 0.39556
 C971 C 0.42194 1.07964 0.32120
 H972 H 0.42877 1.07255 0.34407
 C973 C 0.40346 1.09891 0.26242
 C974 C 0.57901 0.91964 0.32356
 H975 H 0.56986 0.92928 0.34457
 C976 C 0.60340 0.89362 0.27021
 C977 C 0.57793 0.82179 0.42562
 H978 H 0.56945 0.84384 0.43362
 C979 C 0.60087 0.76554 0.40385
 C980 C 0.41459 1.18364 0.41683
 H981 H 0.42720 1.16606 0.42926
 C982 C 0.38084 1.22773 0.38380
 C983 C 0.31882 1.07879 0.42163
 H984 H 0.33920 1.06866 0.43174
 C985 C 0.26830 1.10730 0.39356
 C986 C 0.68109 0.92245 0.42264
 H987 H 0.66204 0.93371 0.43399
 C988 C 0.72832 0.89177 0.39153
 O989 O 0.52874 0.89378 0.65703
 O990 O 0.52950 0.85765 0.69266
 C991 C 0.53932 0.88309 0.68204
 C992 C 0.56406 0.89987 0.69825
 C993 C 0.57670 0.88798 0.72549
 H994 H 0.56771 0.86697 0.73546
 O995 O 0.46891 1.11626 0.65356
 O996 O 0.46797 1.15301 0.68846
 C997 C 0.45777 1.12766 0.67800
 C998 C 0.43191 1.11188 0.69364
 C999 C 0.41742 1.12553 0.71909
 H1000 H 0.42618 1.14687 0.72857
 O1001 O 0.34808 1.03233 0.61371
 O1002 O 0.31210 1.03332 0.64922
 C1003 C 0.32347 1.04372 0.62446
 C1004 C 0.30866 1.07016 0.60872
 C1005 C 0.28235 1.08408 0.62127
 H1006 H 0.27194 1.07487 0.64190
 O1007 O 0.65103 0.97402 0.61478
 O1008 O 0.68684 0.97405 0.65063
 C1009 C 0.67592 0.96338 0.62574
 C1010 C 0.69216 0.93829 0.60938
 C1011 C 0.72076 0.92754 0.61983
 H1012 H 0.73093 0.93727 0.64037
 O1013 O 0.61144 0.85136 0.53372
 O1014 O 0.64713 0.81528 0.53439
 C1015 C 0.62219 0.82638 0.54461
 C1016 C 0.60574 0.81032 0.56968
 C1017 C 0.61520 0.78092 0.57942
 H1018 H 0.63422 0.76949 0.56818
 O1019 O 0.39043 1.15591 0.52686
 O1020 O 0.35417 1.19141 0.52698
 C1021 C 0.37977 1.18125 0.53674
 C1022 C 0.39665 1.19838 0.56077
 C1023 C 0.38691 1.22784 0.56972
 H1024 H 0.36808 1.23893 0.55773
 O1025 O 0.38903 0.97206 0.65708
 O1026 O 0.35275 0.97254 0.69227
 C1027 C 0.37755 0.96145 0.68170
 C1028 C 0.39222 0.93474 0.69708
 C1029 C 0.37679 0.91881 0.72051
 H1030 H 0.35487 0.92713 0.72880
 O1031 O 0.60960 1.03553 0.65533
 O1032 O 0.64544 1.03583 0.69116
 C1033 C 0.62068 1.04656 0.67997
 C1034 C 0.60543 1.07310 0.69490
 C1035 C 0.61902 1.08734 0.72042
 H1036 H 0.63932 1.07736 0.73086
 O1037 O 0.47016 0.85059 0.61435
 O1038 O 0.47076 0.81427 0.64981
 C1039 C 0.45998 0.82535 0.62500
 C1040 C 0.43458 0.80938 0.60897
 C1041 C 0.42284 0.78158 0.62056
 H1042 H 0.43311 0.77097 0.64064
 O1043 O 0.52943 1.15790 0.61155
 O1044 O 0.52880 1.19447 0.64670
 C1045 C 0.54003 1.18294 0.62238
 C1046 C 0.56692 1.19772 0.60769
 C1047 C 0.58235 1.22184 0.62269
 H1048 H 0.57330 1.23122 0.64387
 O1049 O 0.34608 0.89137 0.53313
 O1050 O 0.31013 0.85564 0.53338
 C1051 C 0.32112 0.88069 0.54371
 C1052 C 0.30535 0.89710 0.56895
 C1053 C 0.27660 0.88714 0.57955
 H1054 H 0.26498 0.86827 0.56814
 O1055 O 0.65311 1.11348 0.53147
 O1056 O 0.68925 1.14901 0.53084
 C1057 C 0.67830 1.12415 0.54166
 C1058 C 0.69432 1.10800 0.56706
 C1059 C 0.72308 1.11816 0.57765
 H1060 H 0.73445 1.13733 0.56651
 O1061 O 0.52910 1.11654 0.65389
 O1062 O 0.52850 1.15313 0.68900
 C1063 C 0.53973 1.12827 0.67840
 C1064 C 0.56628 1.11352 0.69384
 C1065 C 0.58103 1.12813 0.71859
 H1066 H 0.57239 1.14989 0.72718
 O1067 O 0.46900 0.89161 0.65722
 O1068 O 0.46958 0.85529 0.69267
 C1069 C 0.45839 0.88004 0.68181
 C1070 C 0.43177 0.89469 0.69699
 C1071 C 0.41592 0.87905 0.72034
 H1072 H 0.42403 0.85686 0.72844
 O1073 O 0.65199 1.03415 0.61384
 O1074 O 0.68790 1.03415 0.64962
 C1075 C 0.67715 1.04444 0.62448
 C1076 C 0.69360 1.06912 0.60777
 C1077 C 0.72231 1.07964 0.61805
 H1078 H 0.73317 1.06908 0.63785
 O1079 O 0.34761 0.97188 0.61439
 O1080 O 0.31136 0.97294 0.64961
 C1081 C 0.32248 0.96174 0.62510
 C1082 C 0.30641 0.93625 0.60924
 C1083 C 0.27825 0.92517 0.62025
 H1084 H 0.26812 0.93526 0.64061
 O1085 O 0.61127 1.15588 0.53226
 O1086 O 0.64739 1.19142 0.53193
 C1087 C 0.62267 1.18060 0.54293
 C1088 C 0.60778 1.19615 0.56927
 C1089 C 0.62317 1.21981 0.58508
 H1090 H 0.64551 1.22751 0.57738
 O1091 O 0.38895 0.85007 0.53325
 O1092 O 0.35317 0.81417 0.53393
 C1093 C 0.37823 0.82518 0.54412
 C1094 C 0.39456 0.80938 0.56947
 C1095 C 0.38333 0.78151 0.58129
 H1096 H 0.36339 0.77068 0.57105
 O1097 O 0.60879 0.97549 0.65663
 O1098 O 0.64448 0.97568 0.69260
 C1099 C 0.61939 0.96533 0.68186
 C1100 C 0.60311 0.94035 0.69821
 C1101 C 0.61522 0.92824 0.72555
 H1102 H 0.63579 0.93805 0.73559
 O1103 O 0.39010 1.03248 0.65534
 O1104 O 0.35411 1.03306 0.69084
 C1105 C 0.37884 1.04377 0.67972
 C1106 C 0.39354 1.07073 0.69441
 C1107 C 0.37923 1.08502 0.71944
 H1108 H 0.35831 1.07544 0.72885
 O1109 O 0.46962 1.15736 0.60999
 O1110 O 0.46894 1.19431 0.64472
 C1111 C 0.45911 1.18283 0.61972
 C1112 C 0.43485 1.19887 0.60197
 C1113 C 0.42424 1.22804 0.61107
 H1114 H 0.43390 1.23910 0.63119
 O1115 O 0.53011 0.85119 0.61517
 O1116 O 0.53068 0.81489 0.65063
 C1117 C 0.54095 0.82614 0.62577
 C1118 C 0.56607 0.81019 0.60930
 C1119 C 0.57596 0.78084 0.61876
 H1120 H 0.56495 0.76944 0.63793
 O1121 O 0.65271 0.89426 0.53232
 O1122 O 0.68859 0.85838 0.53292
 C1123 C 0.67769 0.88363 0.54296
 C1124 C 0.69353 0.90018 0.56809
 C1125 C 0.72266 0.89067 0.57808
 H1126 H 0.73449 0.87231 0.56609
 O1127 O 0.34861 1.11354 0.53071
 O1128 O 0.31237 1.14905 0.53109
 C1129 C 0.32407 1.12457 0.54196
 C1130 C 0.30922 1.10951 0.56846
 C1131 C 0.28281 1.12275 0.58120
 H1132 H 0.27270 1.14323 0.57109
 Cu1133 Cu 0.49953 0.87542 0.63239
 Cu1134 Cu 0.50034 0.83189 0.67503
 Cu1135 Cu 0.49916 1.13330 0.62882
 Cu1136 Cu 0.49825 1.17733 0.67081
 Cu1137 Cu 0.37086 0.87408 0.50320
 Cu1138 Cu 0.32799 0.83089 0.50373
 Cu1139 Cu 0.62839 0.87569 0.50301
 Cu1140 Cu 0.67117 0.83234 0.50381
 Cu1141 Cu 0.37150 1.13030 0.49886
 Cu1142 Cu 0.32754 1.17252 0.49945
 Cu1143 Cu 0.62794 1.13104 0.50190
 Cu1144 Cu 0.67108 1.17391 0.50124
 Cu1145 Cu 0.37233 1.00199 0.63159
 Cu1146 Cu 0.32902 1.00302 0.67410
 Cu1147 Cu 0.62678 1.00474 0.63154
 Cu1148 Cu 0.66971 1.00488 0.67467
 C1149 C 0.57718 0.92633 0.68500
 H1150 H 0.56811 0.93515 0.66355
 C1151 C 0.60239 0.90190 0.73889
 C1152 C 0.41994 1.08424 0.68169
 H1153 H 0.43055 1.07379 0.66179
 C1154 C 0.39066 1.11256 0.73160
 C1155 C 0.32193 1.08306 0.58220
 H1156 H 0.34255 1.07296 0.57266
 C1157 C 0.26959 1.11036 0.60756
 C1158 C 0.67876 0.92446 0.58346
 H1159 H 0.65632 0.93199 0.57577
 C1160 C 0.73655 0.90434 0.60380
 C1161 C 0.58094 0.82463 0.58456
 H1162 H 0.57367 0.84740 0.57735
 C1163 C 0.60018 0.76596 0.60364
 C1164 C 0.42107 1.18435 0.57661
 H1165 H 0.42852 1.16148 0.56997
 C1166 C 0.40060 1.24283 0.59477
 C1167 C 0.41991 0.92267 0.68576
 H1168 H 0.43158 0.93439 0.66719
 C1169 C 0.38819 0.89068 0.73167
 C1170 C 0.57877 1.08606 0.68208
 H1171 H 0.56825 1.07526 0.66227
 C1172 C 0.60767 1.11540 0.73166
 C1173 C 0.42040 0.82299 0.58327
 H1174 H 0.42891 0.84476 0.57458
 C1175 C 0.39709 0.76783 0.60702
 C1176 C 0.57963 1.18530 0.58074
 H1177 H 0.56818 1.16634 0.56933
 C1178 C 0.61095 1.23214 0.61215
 C1179 C 0.31975 0.92207 0.58356
 H1180 H 0.34186 0.92995 0.57543
 C1181 C 0.26271 0.90131 0.60498
 C1182 C 0.67998 1.08324 0.58209
 H1183 H 0.65764 1.07554 0.57433
 C1184 C 0.73724 1.10387 0.60292
 O1185 O 0.47178 0.39246 0.84697
 O1186 O 0.47187 0.35628 0.81143
 C1187 C 0.46202 0.38187 0.82161
 C1188 C 0.43754 0.39853 0.80488
 C1189 C 0.42685 0.38771 0.77646
 H1190 H 0.43900 0.36927 0.76491
 O1191 O 0.52726 0.61578 0.84972
 O1192 O 0.52726 0.65110 0.81327
 C1193 C 0.53777 0.62619 0.82459
 C1194 C 0.56287 0.60948 0.80871
 C1195 C 0.57255 0.61877 0.77938
 H1196 H 0.56080 0.63745 0.76773
 O1197 O 0.34855 0.47214 0.88968
 O1198 O 0.31275 0.47163 0.85379
 C1199 C 0.32356 0.46158 0.87903
 C1200 C 0.30761 0.43639 0.89535
 C1201 C 0.28124 0.42316 0.88245
 H1202 H 0.27098 0.43319 0.86207
 O1203 O 0.64956 0.53144 0.89243
 O1204 O 0.68569 0.53218 0.85708
 C1205 C 0.67486 0.54181 0.88237
 C1206 C 0.69135 0.56626 0.89935
 C1207 C 0.71960 0.57694 0.88835
 H1208 H 0.73036 0.56580 0.86888
 O1209 O 0.38861 0.35059 0.97220
 O1210 O 0.35238 0.31514 0.97223
 C1211 C 0.37710 0.32605 0.96124
 C1212 C 0.39182 0.31082 0.93461
 C1213 C 0.37874 0.28424 0.92166
 H1214 H 0.35868 0.27383 0.93202
 O1215 O 0.60830 0.65764 0.97047
 O1216 O 0.64450 0.69310 0.96997
 C1217 C 0.61955 0.68224 0.95940
 C1218 C 0.60384 0.69797 0.93354
 C1219 C 0.61645 0.72473 0.92059
 H1220 H 0.63742 0.73440 0.92988
 O1221 O 0.38993 0.53168 0.84657
 O1222 O 0.35446 0.53095 0.81036
 C1223 C 0.37921 0.54181 0.82137
 C1224 C 0.39528 0.56706 0.80526
 C1225 C 0.38525 0.57724 0.77631
 H1226 H 0.36606 0.56605 0.76506
 O1227 O 0.60893 0.47201 0.84774
 O1228 O 0.64534 0.47275 0.81269
 C1229 C 0.62083 0.46122 0.82337
 C1230 C 0.60717 0.43370 0.80858
 C1231 C 0.62300 0.41797 0.78522
 H1232 H 0.64429 0.42715 0.77627
 O1233 O 0.52809 0.34860 0.89213
 O1234 O 0.52777 0.31196 0.85706
 C1235 C 0.53808 0.32306 0.88204
 C1236 C 0.56314 0.30699 0.89856
 C1237 C 0.57603 0.28006 0.88624
 H1238 H 0.56648 0.26982 0.86565
 O1239 O 0.46540 0.65750 0.88960
 O1240 O 0.46491 0.69272 0.85310
 C1241 C 0.45369 0.68152 0.87762
 C1242 C 0.42569 0.69535 0.89143
 C1243 C 0.40897 0.71816 0.87562
 H1244 H 0.41746 0.72722 0.85407
 O1245 O 0.34380 0.61048 0.97055
 O1246 O 0.30642 0.64479 0.97112
 C1247 C 0.31828 0.62034 0.96040
 C1248 C 0.30337 0.60459 0.93432
 C1249 C 0.27736 0.61766 0.92047
 H1250 H 0.26618 0.63735 0.93092
 O1251 O 0.65129 0.39093 0.97264
 O1252 O 0.68762 0.35553 0.97260
 C1253 C 0.67623 0.38028 0.96192
 C1254 C 0.69146 0.39627 0.93603
 C1255 C 0.71879 0.38458 0.92350
 H1256 H 0.72968 0.36450 0.93357
 O1257 O 0.46784 0.61517 0.84798
 O1258 O 0.46791 0.65043 0.81146
 C1259 C 0.45787 0.62527 0.82244
 C1260 C 0.43380 0.60795 0.80583
 C1261 C 0.42358 0.61771 0.77683
 H1262 H 0.43402 0.63750 0.76586
 O1263 O 0.53131 0.38940 0.84893
 O1264 O 0.53151 0.35271 0.81390
 C1265 C 0.54250 0.37753 0.82474
 C1266 C 0.56920 0.39226 0.80977
 C1267 C 0.58541 0.37682 0.78655
 H1268 H 0.57778 0.35443 0.77861
 O1269 O 0.64929 0.47172 0.89091
 O1270 O 0.68563 0.47264 0.85573
 C1271 C 0.67441 0.46149 0.88025
 C1272 C 0.69033 0.43580 0.89598
 C1273 C 0.71745 0.42358 0.88367
 H1274 H 0.72718 0.43332 0.86295
 O1275 O 0.34765 0.53187 0.88803
 O1276 O 0.31212 0.53146 0.85185
 C1277 C 0.32278 0.54220 0.87678
 C1278 C 0.30651 0.56751 0.89239
 C1279 C 0.28148 0.58195 0.87805
 H1280 H 0.27374 0.57424 0.85568
 O1281 O 0.38386 0.65420 0.96870
 O1282 O 0.34637 0.68838 0.96869
 C1283 C 0.37134 0.67821 0.95754
 C1284 C 0.38526 0.69354 0.93044
 C1285 C 0.36894 0.71635 0.91422
 H1286 H 0.34664 0.72389 0.92225
 O1287 O 0.60894 0.34912 0.97322
 O1288 O 0.64515 0.31357 0.97280
 C1289 C 0.61987 0.32416 0.96265
 C1290 C 0.60360 0.30787 0.93761
 C1291 C 0.61629 0.28112 0.92470
 H1292 H 0.63753 0.27166 0.93367
 O1293 O 0.60787 0.53296 0.84944
 O1294 O 0.64392 0.53361 0.81404
 C1295 C 0.61897 0.54412 0.82490
 C1296 C 0.60290 0.56985 0.80911
 C1297 C 0.61298 0.58037 0.78033
 H1298 H 0.63283 0.56985 0.76965
 O1299 O 0.38979 0.47162 0.84682
 O1300 O 0.35402 0.47091 0.81091
 C1301 C 0.37904 0.46076 0.82194
 C1302 C 0.39561 0.43579 0.80599
 C1303 C 0.38389 0.42307 0.77875
 H1304 H 0.36246 0.43157 0.76933
 O1305 O 0.52609 0.65894 0.89068
 O1306 O 0.52601 0.69452 0.85454
 C1307 C 0.53678 0.68373 0.87947
 C1308 C 0.56301 0.69917 0.89484
 C1309 C 0.57588 0.72614 0.88241
 H1310 H 0.56558 0.73692 0.86244
 O1311 O 0.46813 0.35063 0.88939
 O1312 O 0.46772 0.31434 0.85397
 C1313 C 0.45681 0.32601 0.87837
 C1314 C 0.43035 0.31114 0.89378
 C1315 C 0.41666 0.28475 0.88105
 H1316 H 0.42566 0.27480 0.86011
 O1317 O 0.64986 0.61491 0.97227
 O1318 O 0.68618 0.65025 0.97178
 C1319 C 0.67510 0.62505 0.96185
 C1320 C 0.69120 0.60776 0.93734
 C1321 C 0.71877 0.61900 0.92487
 H1322 H 0.72873 0.64020 0.93343
 O1323 O 0.34703 0.39264 0.97278
 O1324 O 0.31079 0.35720 0.97299
 C1325 C 0.32220 0.38176 0.96199
 C1326 C 0.30726 0.39690 0.93540
 C1327 C 0.28186 0.38305 0.92108
 H1328 H 0.27256 0.36175 0.93010
 Cu1329 Cu 0.49980 0.37389 0.87291
 Cu1330 Cu 0.49962 0.33009 0.83061
 Cu1331 Cu 0.49666 0.63354 0.87332
 Cu1332 Cu 0.49662 0.67602 0.82969
 Cu1333 Cu 0.37265 0.50186 0.87135
 Cu1334 Cu 0.32971 0.50111 0.82811
 Cu1335 Cu 0.62505 0.50211 0.87345
 Cu1336 Cu 0.66864 0.50314 0.83120
 C1337 C 0.42231 0.42321 0.81900
 H1338 H 0.43055 0.43183 0.84084
 C1339 C 0.39909 0.39867 0.76409
 C1340 C 0.57781 0.58459 0.82311
 H1341 H 0.57034 0.57714 0.84562
 C1342 C 0.59735 0.60413 0.76486
 C1343 C 0.32015 0.42349 0.92221
 H1344 H 0.34059 0.43351 0.93224
 C1345 C 0.26915 0.39571 0.89427
 C1346 C 0.67764 0.58133 0.92436
 H1347 H 0.65570 0.57331 0.93280
 C1348 C 0.73260 0.60402 0.89996
 C1349 C 0.41781 0.32394 0.92065
 H1350 H 0.42787 0.34459 0.93032
 C1351 C 0.39114 0.27104 0.89508
 C1352 C 0.57698 0.68551 0.92065
 H1353 H 0.56747 0.66452 0.93016
 C1354 C 0.60241 0.73911 0.89536
 C1355 C 0.41978 0.58236 0.81967
 H1356 H 0.42729 0.57496 0.84223
 C1357 C 0.39955 0.60230 0.76190
 C1358 C 0.58013 0.42077 0.82043
 H1359 H 0.56813 0.43244 0.83882
 C1360 C 0.61252 0.38931 0.77458
 C1361 C 0.57680 0.32047 0.92459
 H1362 H 0.56740 0.34163 0.93383
 C1363 C 0.60287 0.26754 0.89884
 C1364 C 0.41368 0.68338 0.91894
 H1365 H 0.42604 0.66534 0.93094
 C1366 C 0.38039 0.72834 0.88662
 C1367 C 0.31742 0.57904 0.92048
 H1368 H 0.33763 0.56891 0.93095
 C1369 C 0.26730 0.60744 0.89165
 C1370 C 0.67761 0.42214 0.92230
 H1371 H 0.65635 0.43110 0.93156
 C1372 C 0.73193 0.39828 0.89747
 O1373 O 0.52959 0.39040 1.15385
 O1374 O 0.53043 0.35449 1.18969
 C1375 C 0.54041 0.37975 1.17874
 C1376 C 0.56529 0.39665 1.19463
 C1377 C 0.57792 0.38515 1.22200
 H1378 H 0.56911 0.36408 1.23202
 O1379 O 0.46690 0.61961 1.15326
 O1380 O 0.46647 0.65590 1.18866
 C1381 C 0.45626 0.63064 1.17811
 C1382 C 0.43209 0.61344 1.19475
 C1383 C 0.41896 0.62482 1.22205
 H1384 H 0.42522 0.64766 1.22967
 O1385 O 0.35231 0.53319 1.11622
 O1386 O 0.31699 0.53386 1.15237
 C1387 C 0.32785 0.54443 1.12745
 C1388 C 0.31157 0.56981 1.11137
 C1389 C 0.28551 0.58332 1.12465
 H1390 H 0.27978 0.57729 1.14802
 O1391 O 0.65002 0.47320 1.11295
 O1392 O 0.68516 0.47357 1.14946
 C1393 C 0.67445 0.46231 1.12474
 C1394 C 0.68979 0.43546 1.11026
 C1395 C 0.71393 0.42013 1.12544
 H1396 H 0.72215 0.42850 1.14740
 O1397 O 0.61048 0.34803 1.03282
 O1398 O 0.64642 0.31220 1.03244
 C1399 C 0.62141 0.32282 1.04298
 C1400 C 0.60515 0.30622 1.06779
 C1401 C 0.61583 0.27760 1.07861
 H1402 H 0.63585 0.26694 1.06839
 O1403 O 0.38530 0.65526 1.02886
 O1404 O 0.34822 0.68988 1.02894
 C1405 C 0.37377 0.68010 1.03910
 C1406 C 0.38988 0.69730 1.06361
 C1407 C 0.37928 0.72632 1.07306
 H1408 H 0.35976 0.73693 1.06175
 O1409 O 0.39282 0.47145 1.15810
 O1410 O 0.35694 0.47191 1.19374
 C1411 C 0.38145 0.46069 1.18272
 C1412 C 0.39568 0.43358 1.19759
 C1413 C 0.38020 0.41815 1.22124
 H1414 H 0.35900 0.42745 1.23032
 O1415 O 0.60763 0.53523 1.15239
 O1416 O 0.64327 0.53609 1.18840
 C1417 C 0.61865 0.54680 1.17684
 C1418 C 0.60339 0.57361 1.19149
 C1419 C 0.61682 0.58774 1.21722
 H1420 H 0.63806 0.57872 1.22660
 O1421 O 0.47000 0.34786 1.11239
 O1422 O 0.47058 0.31145 1.14778
 C1423 C 0.45977 0.32266 1.12301
 C1424 C 0.43450 0.30681 1.10675
 C1425 C 0.42395 0.27799 1.11677
 H1426 H 0.43490 0.26657 1.13604
 O1427 O 0.52642 0.66111 1.11033
 O1428 O 0.52627 0.69758 1.14555
 C1429 C 0.53687 0.68635 1.12083
 C1430 C 0.56229 0.70212 1.10459
 C1431 C 0.57411 0.73014 1.11563
 H1432 H 0.56406 0.74105 1.13559
 O1433 O 0.34790 0.39285 1.03310
 O1434 O 0.31177 0.35733 1.03338
 C1435 C 0.32315 0.38208 1.04407
 C1436 C 0.30837 0.39758 1.07058
 C1437 C 0.28223 0.38467 1.08433
 H1438 H 0.27127 0.36478 1.07402
 O1439 O 0.64938 0.61658 1.03203
 O1440 O 0.68562 0.65200 1.03170
 C1441 C 0.67443 0.62726 1.04254
 C1442 C 0.69031 0.61096 1.06793
 C1443 C 0.71804 0.62229 1.07998
 H1444 H 0.72831 0.64292 1.07048
 O1445 O 0.52663 0.61782 1.15131
 O1446 O 0.52665 0.65404 1.18680
 C1447 C 0.53726 0.62889 1.17608
 C1448 C 0.56316 0.61309 1.19173
 C1449 C 0.57616 0.62581 1.21839
 H1450 H 0.56566 0.64575 1.22905
 O1451 O 0.46990 0.38827 1.15581
 O1452 O 0.47044 0.35198 1.19131
 C1453 C 0.45950 0.37687 1.18058
 C1454 C 0.43348 0.39204 1.19618
 C1455 C 0.41723 0.37653 1.21937
 H1456 H 0.42448 0.35383 1.22686
 O1457 O 0.65025 0.53359 1.11128
 O1458 O 0.68588 0.53390 1.14732
 C1459 C 0.67513 0.54423 1.12221
 C1460 C 0.69094 0.56985 1.10637
 C1461 C 0.71882 0.58128 1.11781
 H1462 H 0.72978 0.57027 1.13731
 O1463 O 0.35115 0.47256 1.11582
 O1464 O 0.31549 0.47325 1.15164
 C1465 C 0.32625 0.46220 1.12687
 C1466 C 0.31032 0.43622 1.11149
 C1467 C 0.28490 0.42214 1.12546
 H1468 H 0.27635 0.43081 1.14715
 O1469 O 0.60770 0.65931 1.03041
 O1470 O 0.64378 0.69489 1.03003
 C1471 C 0.61859 0.68452 1.04044
 C1472 C 0.60225 0.70130 1.06515
 C1473 C 0.61356 0.72945 1.07641
 H1474 H 0.63378 0.73980 1.06632
 O1475 O 0.38882 0.34927 1.03226
 O1476 O 0.35275 0.31367 1.03227
 C1477 C 0.37792 0.32417 1.04260
 C1478 C 0.39433 0.30758 1.06744
 C1479 C 0.38402 0.27873 1.07785
 H1480 H 0.36439 0.26782 1.06712
 O1481 O 0.60750 0.47462 1.15427
 O1482 O 0.64273 0.47564 1.19068
 C1483 C 0.61816 0.46454 1.17954
 C1484 C 0.60279 0.43858 1.19534
 C1485 C 0.61482 0.42688 1.22292
 H1486 H 0.63432 0.43796 1.23374
 O1487 O 0.39475 0.53152 1.15808
 O1488 O 0.35942 0.53166 1.19428
 C1489 C 0.38440 0.54185 1.18328
 C1490 C 0.40012 0.56773 1.19871
 C1491 C 0.39105 0.57707 1.22806
 H1492 H 0.37767 0.56119 1.24163
 O1493 O 0.46650 0.65937 1.10916
 O1494 O 0.46606 0.69597 1.14428
 C1495 C 0.45559 0.68438 1.11955
 C1496 C 0.42991 0.69947 1.10305
 C1497 C 0.41893 0.72846 1.11223
 H1498 H 0.42989 0.74070 1.13096
 O1499 O 0.52967 0.34691 1.11303
 O1500 O 0.53036 0.31079 1.14869
 C1501 C 0.54035 0.32177 1.12363
 C1502 C 0.56522 0.30567 1.10710
 C1503 C 0.57604 0.27699 1.11743
 H1504 H 0.56553 0.26585 1.13704
 O1505 O 0.65108 0.39168 1.03281
 O1506 O 0.68703 0.35588 1.03295
 C1507 C 0.67588 0.38074 1.04363
 C1508 C 0.69091 0.39608 1.07006
 C1509 C 0.71565 0.38177 1.08506
 H1510 H 0.72539 0.36073 1.07586
 O1511 O 0.34546 0.61086 1.03036
 O1512 O 0.30820 0.64528 1.03086
 C1513 C 0.32035 0.62077 1.04134
 C1514 C 0.30614 0.60473 1.06780
 C1515 C 0.27776 0.61472 1.07947
 H1516 H 0.26455 0.63128 1.06639
 Cu1517 Cu 0.49978 0.37199 1.13023
 Cu1518 Cu 0.50063 0.32857 1.17300
 Cu1519 Cu 0.49658 0.63590 1.12750
 Cu1520 Cu 0.49640 0.67955 1.16984
 Cu1521 Cu 0.37167 0.37492 1.00273
 Cu1522 Cu 0.32823 0.33235 1.00285
 Cu1523 Cu 0.62692 0.37358 1.00292
 Cu1524 Cu 0.67030 0.33084 1.00263
 Cu1525 Cu 0.36839 0.62930 0.99967
 Cu1526 Cu 0.32358 0.67057 1.00010
 Cu1527 Cu 0.62518 0.63359 1.00137
 Cu1528 Cu 0.66862 0.67615 1.00083
 Cu1529 Cu 0.37631 0.50218 1.13342
 Cu1530 Cu 0.33356 0.50289 1.17653
 Cu1531 Cu 0.62530 0.50407 1.12910
 Cu1532 Cu 0.66776 0.50491 1.17262
 C1533 C 0.57773 0.42355 1.18158
 H1534 H 0.56859 0.43219 1.16009
 C1535 C 0.60244 0.40032 1.23634
 C1536 C 0.42157 0.58541 1.18275
 H1537 H 0.42954 0.57763 1.16052
 C1538 C 0.39799 0.60679 1.23919
 C1539 C 0.32213 0.58115 1.08315
 H1540 H 0.34336 0.57235 1.07368
 C1541 C 0.26710 0.60445 1.10827
 C1542 C 0.67844 0.42320 1.08258
 H1543 H 0.65911 0.43417 1.07133
 C1544 C 0.72643 0.39292 1.11331
 C1545 C 0.57961 0.31986 1.08199
 H1546 H 0.57158 0.34217 1.07419
 C1547 C 0.60121 0.26294 1.10326
 C1548 C 0.41537 0.68420 1.07854
 H1549 H 0.42341 0.66165 1.07157
 C1550 C 0.39389 0.74199 1.09708
 C1551 C 0.42260 0.42062 1.18556
 H1552 H 0.43437 0.43217 1.16694
 C1553 C 0.39021 0.38917 1.23136
 C1554 C 0.57665 0.58662 1.17874
 H1555 H 0.56683 0.57663 1.15817
 C1556 C 0.60363 0.61402 1.23056
 C1557 C 0.41976 0.32125 1.08185
 H1558 H 0.42755 0.34368 1.07424
 C1559 C 0.39899 0.26377 1.10222
 C1560 C 0.57633 0.68809 1.07913
 H1561 H 0.56775 0.66618 1.07088
 C1562 C 0.59958 0.74384 1.10157
 C1563 C 0.32197 0.42367 1.08410
 H1564 H 0.34225 0.43366 1.07380
 C1565 C 0.27102 0.39611 1.11230
 C1566 C 0.67708 0.58458 1.08115
 H1567 H 0.65540 0.57605 1.07243
 C1568 C 0.73254 0.60733 1.10467
 C1569 C 1.16323 1.16204 1.28078
 C1570 C 1.15169 1.15580 1.31045
 C1571 C 1.12624 1.13646 1.31387
 C1572 C 1.11289 1.12229 1.28850
 C1573 C 1.12428 1.12758 1.25897
 C1574 C 1.14916 1.14813 1.25472
 C1575 C 1.18799 1.18243 1.27643
 C1576 C 1.19816 1.18962 1.24694
 C1577 C 1.18400 1.17653 1.22139
 C1578 C 1.15995 1.15567 1.22513
 H1579 H 1.19929 1.19332 1.29566
 H1580 H 1.21703 1.20552 1.24389
 H1581 H 1.19193 1.18229 1.19857
 H1582 H 1.14970 1.14583 1.20472
 H1583 H 1.11712 1.13190 1.33652
 H1584 H 1.09354 1.10702 1.29189
 C1585 C 1.16578 0.65680 0.77942
 C1586 C 1.15081 0.65657 0.80825
 C1587 C 1.12192 0.64275 0.81092
 C1588 C 1.10815 0.62844 0.78586
 C1589 C 1.12290 0.62740 0.75738
 C1590 C 1.15179 0.64202 0.75376
 C1591 C 1.19401 0.67209 0.77538
 C1592 C 1.20848 0.67234 0.74686
 C1593 C 1.19493 0.65778 0.72180
 C1594 C 1.16676 0.64294 0.72504
 H1595 H 1.20490 0.68437 0.79396
 H1596 H 1.23017 0.68414 0.74412
 H1597 H 1.20617 0.65825 0.69967
 H1598 H 1.15676 0.63255 0.70480
 H1599 H 1.11027 0.64252 0.83285
 H1600 H 1.08595 0.61763 0.78881
 C1601 C 0.67013 1.14999 0.78374
 C1602 C 0.65211 1.15684 0.81004
 C1603 C 0.62020 1.15288 0.80847
 C1604 C 0.60634 1.13991 0.78285
 C1605 C 0.62368 1.13139 0.75725
 C1606 C 0.65569 1.13768 0.75695
 C1607 C 0.70186 1.15640 0.78279
 C1608 C 0.71895 1.15095 0.75635
 C1609 C 0.70479 1.13951 0.73012
 C1610 C 0.67348 1.13317 0.73022
 H1611 H 0.71371 1.16667 0.80188
 H1612 H 0.74321 1.15624 0.75601
 H1613 H 0.71806 1.13595 0.70944
 H1614 H 0.66331 1.12558 0.70887
 H1615 H 0.60598 1.15856 0.82802
 H1616 H 0.58184 1.13574 0.78337
 C1617 C 0.63769 0.67391 1.28630
 C1618 C 0.64544 0.65417 1.31125
 C1619 C 0.64128 0.62234 1.30804
 C1620 C 0.62750 0.61005 1.28203
 C1621 C 0.61874 0.62893 1.25741
 C1622 C 0.62501 0.66108 1.25887
 C1623 C 0.64403 0.70582 1.28718
 C1624 C 0.63812 0.72463 1.26191
 C1625 C 0.62648 0.71203 1.23498
 C1626 C 0.62032 0.68057 1.23324
 H1627 H 0.65476 0.71649 1.30674
 H1628 H 0.64336 0.74900 1.26296
 H1629 H 0.62268 0.72662 1.21515
 H1630 H 0.61268 0.67175 1.21134
 H1631 H 0.64759 0.60694 1.32660
 H1632 H 0.62335 0.58545 1.28129
 C1633 C 0.82184 0.84324 1.26750
 C1634 C 0.83478 0.83943 1.29721
 C1635 C 0.86432 0.85108 1.30292
 C1636 C 0.88059 0.86685 1.28031
 C1637 C 0.86819 0.87113 1.25096
 C1638 C 0.83904 0.85833 1.24400
 C1639 C 0.79251 0.83161 1.26031
 C1640 C 0.78118 0.83306 1.23035
 C1641 C 0.79857 0.84638 1.20718
 C1642 C 0.82703 0.85933 1.21388
 H1643 H 0.77842 0.82073 1.27748
 H1644 H 0.75903 0.82337 1.22487
 H1645 H 0.78995 0.84665 1.18386
 H1646 H 0.83977 0.86942 1.19511
 H1647 H 0.87464 0.84865 1.32540
 H1648 H 0.90297 0.87616 1.28591
 C1649 C 0.82989 0.36300 0.78091
 C1650 C 0.84709 0.35360 0.80716
 C1651 C 0.87926 0.35577 0.80626
 C1652 C 0.89428 0.36891 0.78144
 C1653 C 0.87786 0.37927 0.75587
 C1654 C 0.84560 0.37487 0.75471
 C1655 C 0.79765 0.36019 0.77946
 C1656 C 0.78148 0.36896 0.75315
 C1657 C 0.79696 0.37884 0.72718
 C1658 C 0.82872 0.38133 0.72768
 H1659 H 0.78450 0.35092 0.79814
 H1660 H 0.75679 0.36776 0.75256
 H1661 H 0.78429 0.38449 0.70650
 H1662 H 0.83981 0.38807 0.70655
 H1663 H 0.89294 0.34856 0.82574
 H1664 H 0.91896 0.37167 0.78254
 C1665 C 0.32256 0.84189 0.76391
 C1666 C 0.33329 0.83714 0.79440
 C1667 C 0.36209 0.84897 0.80285
 C1668 C 0.37961 0.86611 0.78231
 C1669 C 0.36920 0.87156 0.75241
 C1670 C 0.34107 0.85845 0.74258
 C1671 C 0.29439 0.82964 0.75371
 C1672 C 0.28574 0.83166 0.72288
 C1673 C 0.30409 0.84723 0.70199
 C1674 C 0.33138 0.86077 0.71166
 H1675 H 0.27931 0.81760 0.76910
 H1676 H 0.26498 0.82066 0.71491
 H1677 H 0.29723 0.84867 0.67811
 H1678 H 0.34512 0.87228 0.69449
 H1679 H 0.37067 0.84566 0.82596
 H1680 H 0.40133 0.87556 0.78992
 C1681 C 0.32174 0.34602 1.26571
 C1682 C 0.33393 0.33840 1.29499
 C1683 C 0.36435 0.34647 1.30195
 C1684 C 0.38235 0.36248 1.28097
 C1685 C 0.37063 0.37079 1.25223
 C1686 C 0.34041 0.36181 1.24397
 C1687 C 0.29172 0.33749 1.25716
 C1688 C 0.28050 0.34383 1.22778
 C1689 C 0.29884 0.35883 1.20646
 C1690 C 0.32857 0.36756 1.21425
 H1691 H 0.27694 0.32535 1.27279
 H1692 H 0.25764 0.33673 1.22125
 H1693 H 0.29009 0.36356 1.18368
 H1694 H 0.34221 0.37833 1.19656
 H1695 H 0.37400 0.34098 1.32422
 H1696 H 0.40548 0.36897 1.28744
 C1697 C 0.86394 1.16328 0.70539
 C1698 C 0.86116 1.14234 0.68048
 C1699 C 0.86884 1.11134 0.68501
 C1700 C 0.88125 1.10127 0.71269
 C1701 C 0.88603 1.12175 0.73710
 C1702 C 0.87688 1.15305 0.73379
 C1703 C 0.85292 1.19380 0.70325
 C1704 C 0.85656 1.21444 0.72746
 C1705 C 0.87012 1.20481 0.75471
 C1706 C 0.87929 1.17425 0.75833
 H1707 H 0.84060 1.20187 0.68339
 H1708 H 0.84838 1.23790 0.72523
 H1709 H 0.87297 1.22095 0.77341
 H1710 H 0.88787 1.16758 0.78064
 H1711 H 0.86619 1.09502 0.66639
 H1712 H 0.88767 1.07724 0.71491
 C1713 C 0.86053 0.67022 0.21414
 C1714 C 0.85131 0.65137 0.18895
 C1715 C 0.85636 0.61948 0.19068
 C1716 C 0.87015 0.60611 0.21623
 C1717 C 0.88011 0.62409 0.24100
 C1718 C 0.87564 0.65663 0.23999
 C1719 C 0.85444 0.70220 0.21481
 C1720 C 0.86654 0.72096 0.23769
 C1721 C 0.88230 0.70795 0.26216
 C1722 C 0.88511 0.67608 0.26434
 H1723 H 0.83984 0.71322 0.19830
 H1724 H 0.86248 0.74558 0.23715
 H1725 H 0.89061 0.72250 0.28058
 H1726 H 0.89441 0.66731 0.28555
 H1727 H 0.84990 0.60469 0.17173
 H1728 H 0.87360 0.58138 0.21642
 C1729 C 0.37244 1.10371 0.17959
 C1730 C 0.36757 1.13605 0.17745
 C1731 C 0.37745 1.15499 0.20156
 C1732 C 0.38909 1.14250 0.22853
 C1733 C 0.39276 1.11058 0.23201
 C1734 C 0.38564 1.09095 0.20686
 C1735 C 0.36588 1.08390 0.15474
 C1736 C 0.37178 1.05238 0.15667
 C1737 C 0.38505 1.04004 0.18300
 C1738 C 0.39232 1.05908 0.20771
 H1739 H 0.35722 1.09251 0.13321
 H1740 H 0.36666 1.03756 0.13734
 H1741 H 0.39020 1.01565 0.18409
 H1742 H 0.40386 1.04862 0.22708
 H1743 H 0.37435 1.17972 0.20020
 H1744 H 0.39451 1.15802 0.24724
 C1745 C 0.37607 0.60870 0.67719
 C1746 C 0.36316 0.63872 0.67735
 C1747 C 0.36360 0.65598 0.70451
 C1748 C 0.37591 0.64386 0.73136
 C1749 C 0.38788 0.61394 0.73213
 C1750 C 0.38839 0.59612 0.70486
 C1751 C 0.37787 0.59126 0.64996
 C1752 C 0.39082 0.56187 0.65004
 C1753 C 0.40265 0.54949 0.67708
 C1754 C 0.40173 0.56645 0.70423
 H1755 H 0.36983 0.60024 0.62831
 H1756 H 0.39198 0.54875 0.62895
 H1757 H 0.41294 0.52677 0.67693
 H1758 H 0.41192 0.55627 0.72451
 H1759 H 0.35400 0.67900 0.70495
 H1760 H 0.37578 0.65783 0.75192
 C1761 C 1.15541 0.86137 0.71130
 C1762 C 1.13793 0.86281 0.68378
 C1763 C 1.10748 0.87314 0.68501
 C1764 C 1.09534 0.88518 0.71195
 C1765 C 1.11301 0.88641 0.73875
 C1766 C 1.14289 0.87351 0.73898
 C1767 C 1.18421 0.84659 0.71244
 C1768 C 1.20049 0.84441 0.73998
 C1769 C 1.18867 0.85699 0.76678
 C1770 C 1.16006 0.87124 0.76647
 H1771 H 1.19384 0.83547 0.69257
 H1772 H 1.22210 0.83236 0.74085
 H1773 H 1.20145 0.85511 0.78803
 H1774 H 1.15129 0.87962 0.78811
 H1775 H 1.09347 0.87301 0.66444
 H1776 H 1.07210 0.89407 0.71178
 C1777 C 1.16134 0.35495 0.22168
 C1778 C 1.14816 0.35596 0.19196
 C1779 C 1.11992 0.37087 0.18763
 C1780 C 1.10504 0.38529 0.21201
 C1781 C 1.11817 0.38552 0.24136
 C1782 C 1.14651 0.37026 0.24647
 C1783 C 1.18845 0.33820 0.22754
 C1784 C 1.20130 0.33749 0.25686
 C1785 C 1.18758 0.35360 0.28072
 C1786 C 1.16018 0.36934 0.27589
 H1787 H 1.19968 0.32517 0.20979
 H1788 H 1.22189 0.32427 0.26121
 H1789 H 1.19804 0.35368 0.30315
 H1790 H 1.14982 0.38049 0.29550
 H1791 H 1.10951 0.37150 0.16504
 H1792 H 1.08329 0.39669 0.20791
 C1793 C 0.65543 0.84779 0.21660
 C1794 C 0.64244 0.85645 0.18794
 C1795 C 0.61581 0.87454 0.18731
 C1796 C 0.60317 0.88591 0.21428
 C1797 C 0.61661 0.87919 0.24266
 C1798 C 0.64231 0.85928 0.24423
 C1799 C 0.68196 0.82924 0.21833
 C1800 C 0.69425 0.82084 0.24674
 C1801 C 0.68114 0.83170 0.27374
 C1802 C 0.65553 0.85093 0.27264
 H1803 H 0.69356 0.82140 0.19786
 H1804 H 0.71409 0.80589 0.24791
 H1805 H 0.69100 0.82539 0.29563
 H1806 H 0.64613 0.85904 0.29415
 H1807 H 0.60546 0.88097 0.16565
 H1808 H 0.58318 0.90072 0.21298
 C1809 C 0.67600 0.34101 0.73697
 C1810 C 0.66290 0.33653 0.70747
 C1811 C 0.63373 0.34874 0.70121
 C1812 C 0.61792 0.36576 0.72317
 C1813 C 0.63076 0.37133 0.75212
 C1814 C 0.65989 0.35860 0.75945
 C1815 C 0.70424 0.32733 0.74503
 C1816 C 0.71588 0.32997 0.77477
 C1817 C 0.70064 0.34777 0.79647
 C1818 C 0.67296 0.36209 0.78898
 H1819 H 0.71712 0.31379 0.72875
 H1820 H 0.73714 0.31856 0.78085
 H1821 H 0.71006 0.35011 0.81936
 H1822 H 0.66148 0.37492 0.80686
 H1823 H 0.62341 0.34561 0.67880
 H1824 H 0.59554 0.37502 0.71740
 C1825 C 1.29674 1.13821 1.16125
 C1826 C 1.32229 1.14048 1.14119
 C1827 C 1.31840 1.13369 1.11000
 C1828 C 1.29060 1.12276 1.09880
 C1829 C 1.26553 1.11849 1.11836
 C1830 C 1.26825 1.12667 1.14986
 C1831 C 1.29837 1.14833 1.19199
 C1832 C 1.27348 1.14502 1.21171
 C1833 C 1.24609 1.13274 1.20094
 C1834 C 1.24306 1.12458 1.17016
 H1835 H 1.31838 1.15962 1.20102
 H1836 H 1.27532 1.15245 1.23537
 H1837 H 1.22689 1.13009 1.21638
 H1838 H 1.22069 1.11703 1.16259
 H1839 H 1.33754 1.13605 1.09436
 H1840 H 1.28882 1.11695 1.07467
 C1841 C 1.31992 0.63376 0.60416
 C1842 C 1.32270 0.63859 0.63635
 C1843 C 1.29861 0.62946 0.65555
 C1844 C 1.27125 0.61835 0.64352
 C1845 C 1.26729 0.61460 0.61181
 C1846 C 1.29218 0.62127 0.59186
 C1847 C 1.34460 0.63951 0.58405
 C1848 C 1.34198 0.63382 0.55267
 C1849 C 1.31510 0.62145 0.54076
 C1850 C 1.29061 0.61471 0.56010
 H1851 H 1.36652 0.64731 0.59226
 H1852 H 1.36118 0.63838 0.53763
 H1853 H 1.31340 0.61656 0.51646
 H1854 H 1.27083 0.60371 0.54991
 H1855 H 1.30051 0.63235 0.68017
 H1856 H 1.25271 0.61318 0.65923
 C1857 C 0.82289 1.12313 0.60893
 C1858 C 0.82333 1.13801 0.63790
 C1859 C 0.79614 1.14022 0.65484
 C1860 C 0.76861 1.12881 0.64323
 C1861 C 0.76737 1.11490 0.61424
 C1862 C 0.79468 1.11162 0.59692
 C1863 C 0.85004 1.11872 0.59196
 C1864 C 0.84940 1.10392 0.56356
 C1865 C 0.82184 1.09288 0.55172
 C1866 C 0.79471 1.09645 0.56824
 H1867 H 0.87201 1.12614 0.60059
 H1868 H 0.87044 1.10076 0.55080
 H1869 H 0.82153 1.08121 0.52977
 H1870 H 0.77395 1.08692 0.55849
 H1871 H 0.79620 1.15149 0.67702
 H1872 H 0.74794 1.13129 0.65676
 C1873 C 0.81501 0.63653 1.11534
 C1874 C 0.81317 0.64722 1.14613
 C1875 C 0.78643 0.64155 1.16297
 C1876 C 0.76078 0.62846 1.14918
 C1877 C 0.76115 0.61997 1.11816
 C1878 C 0.78864 0.62323 1.10111
 C1879 C 0.84278 0.63737 1.09883
 C1880 C 0.84425 0.62694 1.06861
 C1881 C 0.81834 0.61473 1.05447
 C1882 C 0.79086 0.61247 1.07059
 H1883 H 0.86385 0.64492 1.10929
 H1884 H 0.86576 0.62785 1.05626
 H1885 H 0.81972 0.60634 1.03112
 H1886 H 0.77168 0.60167 1.05909
 H1887 H 0.78505 0.64872 1.18675
 H1888 H 0.74014 0.62558 1.16270
 C1889 C 1.26075 0.82634 0.83531
 C1890 C 1.29088 0.83832 0.83233
 C1891 C 1.29773 0.86699 0.84561
 C1892 C 1.27593 0.88309 0.86256
 C1893 C 1.24637 0.87128 0.86659
 C1894 C 1.23820 0.84318 0.85212
 C1895 C 1.25227 0.79836 0.82129
 C1896 C 1.22200 0.78799 0.82232
 C1897 C 1.19995 0.80453 0.83845
 C1898 C 1.20789 0.83178 0.85341
 H1899 H 1.26876 0.78447 0.80909
 H1900 H 1.21571 0.76679 0.81084
 H1901 H 1.17656 0.79624 0.83934
 H1902 H 1.18996 0.84409 0.86541
 H1903 H 1.32056 0.87656 0.84373
 H1904 H 1.28232 0.90478 0.87308
 C1905 C 1.26201 0.32763 0.33789
 C1906 C 1.29163 0.34025 0.33325
 C1907 C 1.29821 0.36967 0.34488
 C1908 C 1.27652 0.38609 0.36168
 C1909 C 1.24756 0.37359 0.36766
 C1910 C 1.23986 0.34427 0.35538
 C1911 C 1.25356 0.29930 0.32453
 C1912 C 1.22381 0.28793 0.32762
 C1913 C 1.20245 0.30363 0.34541
 C1914 C 1.21029 0.33150 0.35927
 H1915 H 1.26956 0.28611 0.31094
 H1916 H 1.21743 0.26656 0.31650
 H1917 H 1.17953 0.29444 0.34806
 H1918 H 1.19259 0.34338 0.37198
 H1919 H 1.32071 0.37968 0.34161
 H1920 H 1.28260 0.40856 0.37066
 C1921 C 0.76512 0.82738 0.34385
 C1922 C 0.79419 0.84084 0.33756
 C1923 C 0.80025 0.87070 0.34837
 C1924 C 0.77877 0.88675 0.36581
 C1925 C 0.75028 0.87369 0.37278
 C1926 C 0.74281 0.84420 0.36094
 C1927 C 0.75727 0.79791 0.33281
 C1928 C 0.72821 0.78550 0.33767
 C1929 C 0.70619 0.80236 0.35340
 C1930 C 0.71325 0.83142 0.36492
 H1931 H 0.77301 0.78448 0.31966
 H1932 H 0.72254 0.76299 0.32858
 H1933 H 0.68331 0.79321 0.35608
 H1934 H 0.69510 0.84391 0.37633
 H1935 H 0.82227 0.88134 0.34406
 H1936 H 0.78457 0.90949 0.37427
 C1937 C 0.81196 0.38752 0.86242
 C1938 C 0.80888 0.35694 0.85123
 C1939 C 0.78208 0.34040 0.85774
 C1940 C 0.75775 0.35404 0.87313
 C1941 C 0.75953 0.38463 0.88306
 C1942 C 0.78696 0.40154 0.87828
 C1943 C 0.83963 0.40406 0.85942
 C1944 C 0.84232 0.43400 0.87070
 C1945 C 0.81782 0.44781 0.88578
 C1946 C 0.79049 0.43173 0.88989
 H1947 H 0.85971 0.39398 0.84919
 H1948 H 0.86372 0.44638 0.86814
 H1949 H 0.82019 0.47093 0.89481
 H1950 H 0.77246 0.44298 0.90271
 H1951 H 0.77969 0.31682 0.85001
 H1952 H 0.73703 0.34076 0.87676
 C1953 C 0.70337 0.88436 1.16409
 C1954 C 0.68385 0.86397 1.14678
 C1955 C 0.69348 0.85633 1.11683
 C1956 C 0.72024 0.86814 1.10420
 C1957 C 0.74097 0.88519 1.12193
 C1958 C 0.73366 0.89050 1.15327
 C1959 C 0.69438 0.89970 1.19129
 C1960 C 0.71598 0.91312 1.21078
 C1961 C 0.74683 0.91282 1.20294
 C1962 C 0.75564 0.90206 1.17420
 H1963 H 0.67079 0.90316 1.19735
 H1964 H 0.70872 0.92373 1.23205
 H1965 H 0.76378 0.92226 1.21851
 H1966 H 0.77975 0.90299 1.16847
 H1967 H 0.67994 0.84153 1.10223
 H1968 H 0.72460 0.86361 1.08017
 C1969 C 0.73290 0.32187 0.66215
 C1970 C 0.70471 0.33685 0.66868
 C1971 C 0.70085 0.36769 0.65973
 C1972 C 0.72371 0.38334 0.64380
 C1973 C 0.75146 0.36888 0.63638
 C1974 C 0.75663 0.33811 0.64638
 C1975 C 0.73830 0.29126 0.67164
 C1976 C 0.76647 0.27704 0.66619
 C1977 C 0.78984 0.29305 0.65147
 C1978 C 0.78514 0.32333 0.64175
 H1979 H 0.72110 0.27824 0.68376
 H1980 H 0.77031 0.25358 0.67378
 H1981 H 0.81180 0.28202 0.64773
 H1982 H 0.80419 0.33507 0.63105
 H1983 H 0.67947 0.37953 0.66427
 H1984 H 0.71944 0.40688 0.63663
 C1985 C 0.17977 0.89852 0.63507
 C1986 C 0.17719 0.86640 0.64128
 C1987 C 0.20165 0.84693 0.63348
 C1988 C 0.22893 0.85864 0.62185
 C1989 C 0.23247 0.89025 0.61636
 C1990 C 0.20738 0.91039 0.62199
 C1991 C 0.15502 0.91895 0.63994
 C1992 C 0.15734 0.95011 0.63257
 C1993 C 0.18400 0.96152 0.61942
 C1994 C 0.20863 0.94190 0.61374
 H1995 H 0.13324 0.91114 0.64830
 H1996 H 0.13803 0.96533 0.63641
 H1997 H 0.18541 0.98560 0.61308
 H1998 H 0.22827 0.95164 0.60218
 H1999 H 0.19995 0.82235 0.63747
 H2000 H 0.24767 0.84283 0.61748
 C2001 C 0.21730 0.33510 1.14731
 C2002 C 0.19160 0.35405 1.15443
 C2003 C 0.19403 0.38600 1.15023
 C2004 C 0.21985 0.39903 1.13680
 C2005 C 0.24484 0.38077 1.12804
 C2006 C 0.24427 0.34865 1.13452
 C2007 C 0.21750 0.30325 1.15399
 C2008 C 0.24332 0.28520 1.14829
 C2009 C 0.26970 0.29849 1.13634
 C2010 C 0.27038 0.32989 1.12975
 H2011 H 0.19836 0.29204 1.16476
 H2012 H 0.24307 0.26087 1.15380
 H2013 H 0.28991 0.28447 1.13258
 H2014 H 0.29187 0.33932 1.12179
 H2015 H 0.17497 0.40091 1.15604
 H2016 H 0.22001 0.42364 1.13259
 C2017 C 0.68673 1.12120 0.86429
 C2018 C 0.68943 1.15233 0.85456
 C2019 C 0.71610 1.16878 0.86177
 C2020 C 0.74085 1.15446 0.87598
 C2021 C 0.73954 1.12329 0.88424
 C2022 C 0.71207 1.10651 0.87910
 C2023 C 0.65903 1.10475 0.86097
 C2024 C 0.65662 1.07430 0.87088
 C2025 C 0.68144 1.05985 0.88495
 C2026 C 0.70881 1.07581 0.88940
 H2027 H 0.63870 1.11533 0.85167
 H2028 H 0.63519 1.06201 0.86810
 H2029 H 0.67928 1.03633 0.89297
 H2030 H 0.72706 1.06402 0.90151
 H2031 H 0.71806 1.19279 0.85525
 H2032 H 0.76150 1.16774 0.88006
 C2033 C 0.71393 0.65088 0.33666
 C2034 C 0.68557 0.65149 0.35259
 C2035 C 0.68386 0.63883 0.38215
 C2036 C 0.70939 0.62545 0.39595
 C2037 C 0.73741 0.62387 0.38046
 C2038 C 0.73996 0.63655 0.35051
 C2039 C 0.71731 0.66495 0.30765
 C2040 C 0.74500 0.66337 0.29182
 C2041 C 0.77010 0.64854 0.30488
 C2042 C 0.76799 0.63593 0.33423
 H2043 H 0.69890 0.67754 0.29698
 H2044 H 0.74704 0.67387 0.26936
 H2045 H 0.79142 0.64707 0.29231
 H2046 H 0.78853 0.62587 0.34392
 H2047 H 0.66238 0.63929 0.39459
 H2048 H 0.70719 0.61586 0.41882
 C2049 C 0.21878 1.17239 0.36005
 C2050 C 0.19283 1.15500 0.35027
 C2051 C 0.19384 1.12272 0.35266
 C2052 C 0.21840 1.10778 0.36649
 C2053 C 0.24369 1.12437 0.37720
 C2054 C 0.24482 1.15673 0.37253
 C2055 C 0.22012 1.20475 0.35694
 C2056 C 0.24625 1.22109 0.36581
 C2057 C 0.27211 1.20564 0.37627
 C2058 C 0.27167 1.17376 0.37921
 H2059 H 0.20150 1.21785 0.34730
 H2060 H 0.24681 1.24586 0.36420
 H2061 H 0.29267 1.21842 0.38203
 H2062 H 0.29273 1.16271 0.38638
 H2063 H 0.17460 1.10890 0.34513
 H2064 H 0.21735 1.08300 0.36939
 C2065 C 0.21849 0.67244 0.85732
 C2066 C 0.19249 0.65512 0.84764
 C2067 C 0.19341 0.62285 0.84981
 C2068 C 0.21783 0.60787 0.86385
 C2069 C 0.24297 0.62447 0.87495
 C2070 C 0.24429 0.65681 0.87019
 C2071 C 0.22013 0.70471 0.85343
 C2072 C 0.24631 0.72104 0.86211
 C2073 C 0.27186 0.70564 0.87341
 C2074 C 0.27113 0.67381 0.87706
 H2075 H 0.20180 0.71762 0.84299
 H2076 H 0.24713 0.74575 0.85960
 H2077 H 0.29244 0.71838 0.87914
 H2078 H 0.29198 0.66276 0.88481
 H2079 H 0.17411 0.60920 0.84205
 H2080 H 0.21674 0.58309 0.86671
 C2081 C 1.13728 1.32027 1.11874
 C2082 C 1.14641 1.31765 1.14995
 C2083 C 1.13865 1.29107 1.16642
 C2084 C 1.12462 1.26623 1.15203
 C2085 C 1.11708 1.26738 1.12077
 C2086 C 1.12266 1.29484 1.10397
 C2087 C 1.14104 1.34799 1.10225
 C2088 C 1.13175 1.35033 1.07169
 C2089 C 1.11789 1.32542 1.05717
 C2090 C 1.11300 1.29804 1.07315
 H2091 H 1.15017 1.36839 1.11289
 H2092 H 1.13486 1.37177 1.05937
 H2093 H 1.11035 1.32753 1.03356
 H2094 H 1.10105 1.27975 1.06128
 H2095 H 1.14474 1.28915 1.19047
 H2096 H 1.12018 1.24560 1.16533
 C2097 C 1.12320 0.82622 0.61091
 C2098 C 1.13643 0.82567 0.64070
 C2099 C 1.13626 0.79816 0.65755
 C2100 C 1.12393 0.77131 0.64525
 C2101 C 1.11141 0.77105 0.61563
 C2102 C 1.11067 0.79867 0.59823
 C2103 C 1.12131 0.85374 0.59378
 C2104 C 1.10798 0.85407 0.56465
 C2105 C 1.09588 0.82717 0.55221
 C2106 C 1.09697 0.79971 0.56882
 H2107 H 1.12960 0.87528 0.60279
 H2108 H 1.10675 0.87540 0.55179
 H2109 H 1.08525 0.82764 0.52973
 H2110 H 1.08665 0.77953 0.55857
 H2111 H 1.14614 0.79747 0.68037
 H2112 H 1.12454 0.75037 0.65882
 C2113 C 0.65575 1.26825 0.67899
 C2114 C 0.66340 1.29722 0.66587
 C2115 C 0.65454 1.30345 0.63548
 C2116 C 0.63780 1.28212 0.61843
 C2117 C 0.62948 1.25368 0.63106
 C2118 C 0.63919 1.24614 0.66129
 C2119 C 0.66505 1.26031 0.70901
 C2120 C 0.65868 1.23125 0.72115
 C2121 C 0.64292 1.20959 0.70375
 C2122 C 0.63348 1.21673 0.67405
 H2123 H 0.67781 1.27613 0.72309
 H2124 H 0.66635 1.22520 0.74398
 H2125 H 0.63816 1.18706 0.71321
 H2126 H 0.62218 1.19873 0.66116
 H2127 H 0.66000 1.32545 0.62511
 H2128 H 0.63085 1.28804 0.59526
 C2129 C 0.62259 0.82756 1.11757
 C2130 C 0.64212 0.82299 1.14329
 C2131 C 0.64654 0.79304 1.15456
 C2132 C 0.63244 0.76788 1.14076
 C2133 C 0.61348 0.77175 1.11514
 C2134 C 0.60832 0.80169 1.10324
 C2135 C 0.61710 0.85728 1.10567
 C2136 C 0.59805 0.86145 1.08022
 C2137 C 0.58412 0.83620 1.06624
 C2138 C 0.58912 0.80653 1.07758
 H2139 H 0.62771 0.87742 1.11573
 H2140 H 0.59410 0.88440 1.07126
 H2141 H 0.56936 0.83961 1.04650
 H2142 H 0.57782 0.78749 1.06617
 H2143 H 0.66093 0.78891 1.17431
 H2144 H 0.63644 0.74507 1.15013
 C2145 C 0.84095 1.28455 0.83815
 C2146 C 0.84645 1.31467 0.84922
 C2147 C 0.86510 1.31897 0.87508
 C2148 C 0.87932 1.29403 0.88931
 C2149 C 0.87482 1.26408 0.87835
 C2150 C 0.85496 1.25894 0.85306
 C2151 C 0.82120 1.27935 0.81302
 C2152 C 0.81481 1.24942 0.80323
 C2153 C 0.82806 1.22430 0.81816
 C2154 C 0.84825 1.22890 0.84264
 H2155 H 0.81022 1.29825 0.80111
 H2156 H 0.79940 1.24569 0.78406
 H2157 H 0.82292 1.20113 0.81052
 H2158 H 0.85819 1.20879 0.85353
 H2159 H 0.86907 1.34197 0.88384
 H2160 H 0.89413 1.29810 0.90890
 C2161 C 0.83528 0.76927 0.32845
 C2162 C 0.83415 0.80021 0.33889
 C2163 C 0.84811 0.80773 0.36701
 C2164 C 0.86384 0.78558 0.38412
 C2165 C 0.86510 0.75496 0.37424
 C2166 C 0.84947 0.74628 0.34707
 C2167 C 0.82166 0.76036 0.30048
 C2168 C 0.81846 0.72929 0.29300
 C2169 C 0.83083 0.70672 0.31209
 C2170 C 0.84692 0.71504 0.33845
 H2171 H 0.81229 0.77717 0.28480
 H2172 H 0.80677 0.72270 0.27206
 H2173 H 0.82899 0.68270 0.30590
 H2174 H 0.85666 0.69677 0.35232
 H2175 H 0.84742 0.83120 0.37539
 H2176 H 0.87525 0.79241 0.40517
 C2177 C 0.33625 1.26900 0.31939
 C2178 C 0.32944 1.29721 0.33436
 C2179 C 0.33813 1.30099 0.36517
 C2180 C 0.35434 1.27812 0.38070
 C2181 C 0.36229 1.25048 0.36615
 C2182 C 0.35236 1.24528 0.33550
 C2183 C 0.32681 1.26360 0.28888
 C2184 C 0.33267 1.23545 0.27463
 C2185 C 0.34779 1.21208 0.29051
 C2186 C 0.35745 1.21678 0.32069
 H2187 H 0.31437 1.28078 0.27598
 H2188 H 0.32511 1.23160 0.25124
 H2189 H 0.35189 1.19013 0.27944
 H2190 H 0.36849 1.19773 0.33234
 H2191 H 0.33336 1.32239 0.37698
 H2192 H 0.36141 1.28235 0.40419
 C2193 C 0.33513 0.76698 0.82124
 C2194 C 0.32968 0.79639 0.83443
 C2195 C 0.33959 0.80187 0.86466
 C2196 C 0.35550 0.77950 0.88128
 C2197 C 0.36177 0.75062 0.86847
 C2198 C 0.35055 0.74372 0.83866
 C2199 C 0.32500 0.75987 0.79134
 C2200 C 0.32869 0.73035 0.77927
 C2201 C 0.34260 0.70737 0.79672
 C2202 C 0.35365 0.71391 0.82604
 H2203 H 0.31371 0.77675 0.77722
 H2204 H 0.32036 0.72517 0.75641
 H2205 H 0.34471 0.68431 0.78758
 H2206 H 0.36406 0.69527 0.83889
 H2207 H 0.33588 0.82413 0.87521
 H2208 H 0.36356 0.78500 0.90417
 C2209 C 1.13776 0.68814 0.88267
 C2210 C 1.14838 0.69269 0.85218
 C2211 C 1.14214 0.72060 0.83730
 C2212 C 1.12787 0.74468 0.85265
 C2213 C 1.11883 0.74151 0.88332
 C2214 C 1.12319 0.71291 0.89849
 C2215 C 1.13994 0.65923 0.89732
 C2216 C 1.12940 0.65511 0.92723
 C2217 C 1.11579 0.67945 0.94289
 C2218 C 1.11233 0.70800 0.92863
 H2219 H 1.14875 0.63926 0.88567
 H2220 H 1.13134 0.63276 0.93813
 H2221 H 1.10732 0.67601 0.96598
 H2222 H 1.10056 0.72589 0.94126
 H2223 H 1.14945 0.72403 0.81379
 H2224 H 1.12427 0.76625 0.84060
 C2225 C 1.13730 0.18938 0.38362
 C2226 C 1.14841 0.19288 0.35319
 C2227 C 1.14200 0.22013 0.33712
 C2228 C 1.12706 0.24457 0.35121
 C2229 C 1.11748 0.24245 0.38177
 C2230 C 1.12193 0.21450 0.39812
 C2231 C 1.13988 0.16118 0.39955
 C2232 C 1.12876 0.15810 0.42938
 C2233 C 1.11425 0.18274 0.44369
 C2234 C 1.11050 0.21060 0.42819
 H2235 H 1.14956 0.14099 0.38903
 H2236 H 1.13101 0.13630 0.44128
 H2237 H 1.10534 0.18008 0.46672
 H2238 H 1.09809 0.22875 0.43979
 H2239 H 1.14966 0.22286 0.31366
 H2240 H 1.12358 0.26568 0.33834
 C2241 C 0.61196 0.68569 0.36767
 C2242 C 0.64290 0.68870 0.35792
 C2243 C 0.65977 0.71457 0.36702
 C2244 C 0.64597 0.73851 0.38291
 C2245 C 0.61479 0.73745 0.39041
 C2246 C 0.59769 0.71045 0.38377
 C2247 C 0.59530 0.65823 0.36309
 C2248 C 0.56494 0.65567 0.37275
 C2249 C 0.55084 0.68003 0.38790
 C2250 C 0.56708 0.70703 0.39381
 H2251 H 0.60565 0.63812 0.35307
 H2252 H 0.55246 0.63445 0.36894
 H2253 H 0.52741 0.67774 0.39569
 H2254 H 0.55564 0.72480 0.40690
 H2255 H 0.68369 0.71666 0.36064
 H2256 H 0.65959 0.75853 0.38864
 C2257 C 0.65123 0.22405 0.84013
 C2258 C 0.65103 0.19428 0.85341
 C2259 C 0.63596 0.18948 0.88137
 C2260 C 0.62045 0.21345 0.89584
 C2261 C 0.61932 0.24277 0.88253
 C2262 C 0.63489 0.24843 0.85457
 C2263 C 0.66809 0.23034 0.81327
 C2264 C 0.66805 0.25976 0.80038
 C2265 C 0.65110 0.28327 0.81381
 C2266 C 0.63508 0.27797 0.84090
 H2267 H 0.68179 0.21284 0.80233
 H2268 H 0.68134 0.26444 0.77997
 H2269 H 0.65053 0.30580 0.80339
 H2270 H 0.62312 0.29729 0.85101
 H2271 H 0.63585 0.16679 0.89175
 H2272 H 0.60891 0.20904 0.91741
 C2273 C 0.83345 0.71773 1.13994
 C2274 C 0.85111 0.69089 1.14654
 C2275 C 0.88290 0.69151 1.14169
 C2276 C 0.89707 0.71705 1.12877
 C2277 C 0.88017 0.74347 1.12142
 C2278 C 0.84829 0.74449 1.12815
 C2279 C 0.80196 0.71955 1.14735
 C2280 C 0.78543 0.74671 1.14297
 C2281 C 0.79999 0.77291 1.13197
 C2282 C 0.83114 0.77205 1.12499
 H2283 H 0.78992 0.70070 1.15779
 H2284 H 0.76135 0.74765 1.14896
 H2285 H 0.78724 0.79419 1.12940
 H2286 H 0.84165 0.79346 1.11801
 H2287 H 0.89677 0.67160 1.14747
 H2288 H 0.92150 0.71611 1.12429
 C2289 C 0.89708 0.17950 0.62922
 C2290 C 0.86494 0.17751 0.63441
 C2291 C 0.84599 0.20161 0.62437
 C2292 C 0.85830 0.22852 0.61240
 C2293 C 0.89004 0.23189 0.60853
 C2294 C 0.90964 0.20667 0.61565
 C2295 C 0.91688 0.15460 0.63584
 C2296 C 0.94817 0.15636 0.62957
 C2297 C 0.96030 0.18260 0.61591
 C2298 C 0.94128 0.20738 0.60863
 H2299 H 0.90842 0.13311 0.64481
 H2300 H 0.96297 0.13697 0.63470
 H2301 H 0.98451 0.18356 0.61047
 H2302 H 0.95155 0.22669 0.59682
 H2303 H 0.82140 0.20034 0.62766
 H2304 H 0.84281 0.24729 0.60691
 C2305 C 0.34213 0.70931 0.64301
 C2306 C 0.36056 0.68238 0.64096
 C2307 C 0.39104 0.68500 0.63121
 C2308 C 0.40251 0.71288 0.62059
 C2309 C 0.38408 0.73928 0.62017
 C2310 C 0.35395 0.73799 0.63234
 C2311 C 0.31289 0.70878 0.65681
 C2312 C 0.29531 0.73554 0.65918
 C2313 C 0.30667 0.76344 0.64837
 C2314 C 0.33578 0.76483 0.63527
 H2315 H 0.30371 0.68812 0.66688
 H2316 H 0.27296 0.73471 0.66992
 H2317 H 0.29308 0.78422 0.65063
 H2318 H 0.34408 0.78719 0.62818
 H2319 H 0.40570 0.66482 0.63084
 H2320 H 0.42583 0.71375 0.61205
 C2321 C 0.39390 0.17822 1.12334
 C2322 C 0.36489 0.17796 1.13798
 C2323 C 0.34763 0.20518 1.13938
 C2324 C 0.35886 0.23257 1.12722
 C2325 C 0.38780 0.23364 1.11342
 C2326 C 0.40555 0.20633 1.11110
 C2327 C 0.41125 0.15101 1.11987
 C2328 C 0.43973 0.15155 1.10536
 C2329 C 0.45125 0.17904 1.09366
 C2330 C 0.43431 0.20619 1.09623
 H2331 H 0.40290 0.12906 1.12786
 H2332 H 0.45281 0.13047 1.10295
 H2333 H 0.47328 0.17926 1.08223
 H2334 H 0.44380 0.22688 1.08618
 H2335 H 0.32539 0.20521 1.15042
 H2336 H 0.34509 0.25329 1.12908
 C2337 C 1.16288 1.12349 0.70506
 C2338 C 1.14637 1.14490 0.68593
 C2339 C 1.11730 1.15454 0.69639
 C2340 C 1.10483 1.14363 0.72366
 C2341 C 1.12224 1.12571 0.74406
 C2342 C 1.15297 1.11866 0.73585
 C2343 C 1.18837 1.10592 0.69520
 C2344 C 1.20789 1.09168 0.71632
 C2345 C 1.20162 1.09346 0.74753
 C2346 C 1.17411 1.10645 0.75730
 H2347 H 1.19307 1.10180 0.67136
 H2348 H 1.22802 1.07941 0.70841
 H2349 H 1.21729 1.08340 0.76405
 H2350 H 1.16929 1.10644 0.78166
 H2351 H 1.10326 1.17018 0.68314
 H2352 H 1.08125 1.14954 0.72863
 C2353 C 1.12557 0.62355 0.18479
 C2354 C 1.14246 0.65111 0.18938
 C2355 C 1.14137 0.66585 0.21793
 C2356 C 1.12602 0.65255 0.24250
 C2357 C 1.11125 0.62412 0.23926
 C2358 C 1.11020 0.60968 0.21010
 C2359 C 1.12471 0.60891 0.15593
 C2360 C 1.10896 0.58122 0.15206
 C2361 C 1.09382 0.56770 0.17677
 C2362 C 1.09434 0.58174 0.20557
 H2363 H 1.13637 0.61860 0.13627
 H2364 H 1.10854 0.57016 0.12980
 H2365 H 1.08160 0.54623 0.17358
 H2366 H 1.08215 0.57063 0.22415
 H2367 H 1.15371 0.68717 0.22153
 H2368 H 1.12668 0.66397 0.26461
 C2369 C 0.66082 1.11966 0.20432
 C2370 C 0.64380 1.14045 0.18508
 C2371 C 0.61408 1.14866 0.19488
 C2372 C 0.60193 1.13784 0.22231
 C2373 C 0.61997 1.12109 0.24313
 C2374 C 0.65088 1.11462 0.23505
 C2375 C 0.68689 1.10296 0.19452
 C2376 C 0.70656 1.08901 0.21569
 C2377 C 0.70001 1.09041 0.24686
 C2378 C 0.67222 1.10286 0.25657
 H2379 H 0.69198 1.09941 0.17064
 H2380 H 0.72706 1.07734 0.20786
 H2381 H 0.71581 1.08063 0.26342
 H2382 H 0.66739 1.10285 0.28093
 H2383 H 0.59949 1.16329 0.18106
 H2384 H 0.57812 1.14292 0.22716
 C2385 C 0.62515 0.60567 0.68093
 C2386 C 0.63169 0.63764 0.67780
 C2387 C 0.62395 0.65756 0.70194
 C2388 C 0.61284 0.64628 0.72965
 C2389 C 0.60774 0.61470 0.73400
 C2390 C 0.61272 0.59421 0.70905
 C2391 C 0.62908 0.58504 0.65624
 C2392 C 0.62161 0.55396 0.65912
 C2393 C 0.60928 0.54288 0.68635
 C2394 C 0.60444 0.56277 0.71095
 H2395 H 0.63670 0.59271 0.63409
 H2396 H 0.62472 0.53854 0.63985
 H2397 H 0.60288 0.51886 0.68823
 H2398 H 0.59345 0.55332 0.73107
 H2399 H 0.62784 0.68210 0.69976
 H2400 H 0.60876 0.66244 0.74816
 C2401 C 0.84019 0.86362 0.71017
 C2402 C 0.85917 0.86300 0.68371
 C2403 C 0.89004 0.87150 0.68640
 C2404 C 0.90159 0.88322 0.71377
 C2405 C 0.88279 0.88618 0.73960
 C2406 C 0.85204 0.87554 0.73830
 C2407 C 0.81025 0.85134 0.70977
 C2408 C 0.79200 0.85183 0.73600
 C2409 C 0.80337 0.86386 0.76332
 C2410 C 0.83319 0.87534 0.76467
 H2411 H 0.80097 0.84027 0.68971
 H2412 H 0.76909 0.84233 0.73524
 H2413 H 0.78921 0.86377 0.78373
 H2414 H 0.84141 0.88341 0.78667
 H2415 H 0.90498 0.87014 0.66661
 H2416 H 0.92532 0.89059 0.71466
 C2417 C 0.82136 0.34994 0.23143
 C2418 C 0.83679 0.34280 0.20369
 C2419 C 0.86754 0.35152 0.20016
 C2420 C 0.88291 0.36750 0.22316
 C2421 C 0.86816 0.37524 0.25060
 C2422 C 0.83723 0.36593 0.25525
 C2423 C 0.79075 0.34064 0.23640
 C2424 C 0.77592 0.34722 0.26395
 C2425 C 0.79144 0.36258 0.28727
 C2426 C 0.82190 0.37142 0.28330
 H2427 H 0.77813 0.32781 0.21936
 H2428 H 0.75240 0.34001 0.26737
 H2429 H 0.77987 0.36749 0.30866
 H2430 H 0.83325 0.38221 0.30257
 H2431 H 0.87959 0.34646 0.17905
 H2432 H 0.90651 0.37430 0.21932
 C2433 C 0.39487 0.85375 0.18695
 C2434 C 0.37216 0.87122 0.17057
 C2435 C 0.36038 0.89741 0.18560
 C2436 C 0.37013 0.90591 0.21479
 C2437 C 0.38851 0.88633 0.23289
 C2438 C 0.39828 0.85811 0.21927
 C2439 C 0.41457 0.83216 0.17282
 C2440 C 0.43029 0.81027 0.19029
 C2441 C 0.42713 0.81003 0.22206
 C2442 C 0.41122 0.83379 0.23656
 H2443 H 0.41835 0.83209 0.14838
 H2444 H 0.44430 0.79302 0.17909
 H2445 H 0.43797 0.79210 0.23556
 H2446 H 0.40931 0.83306 0.26130
 H2447 H 0.34367 0.91225 0.17483
 H2448 H 0.36252 0.92811 0.22298
 C2449 C 0.37068 0.33875 0.70536
 C2450 C 0.36022 0.35884 0.68158
 C2451 C 0.36217 0.39077 0.68608
 C2452 C 0.37496 0.40306 0.71262
 C2453 C 0.38519 0.38395 0.73647
 C2454 C 0.38198 0.35150 0.73345
 C2455 C 0.36936 0.30633 0.70262
 C2456 C 0.37960 0.28723 0.72617
 C2457 C 0.38849 0.29959 0.75413
 C2458 C 0.38886 0.33136 0.75811
 H2459 H 0.36023 0.29496 0.68279
 H2460 H 0.37998 0.26263 0.72292
 H2461 H 0.39491 0.28449 0.77288
 H2462 H 0.39443 0.33973 0.78078
 H2463 H 0.35447 0.40642 0.66828
 H2464 H 0.37706 0.42787 0.71445
 C2465 C 1.16097 0.85406 1.28633
 C2466 C 1.14601 0.85593 1.31513
 C2467 C 1.11799 0.87157 1.31741
 C2468 C 1.10494 0.88581 1.29191
 C2469 C 1.11961 0.88493 1.26340
 C2470 C 1.14774 0.86879 1.26025
 C2471 C 1.18832 0.83709 1.28266
 C2472 C 1.20277 0.83532 1.25419
 C2473 C 1.19004 0.85000 1.22877
 C2474 C 1.16263 0.86630 1.23156
 H2475 H 1.19859 0.82472 1.30147
 H2476 H 1.22382 0.82230 1.25179
 H2477 H 1.20133 0.84856 1.20672
 H2478 H 1.15319 0.87664 1.21101
 H2479 H 1.10634 0.87294 1.33930
 H2480 H 1.08328 0.89783 1.29444
 C2481 C 1.13568 0.38741 0.81569
 C2482 C 1.14612 0.35651 0.81307
 C2483 C 1.13931 0.33981 0.78644
 C2484 C 1.12508 0.35382 0.76151
 C2485 C 1.11639 0.38488 0.76264
 C2486 C 1.12087 0.40178 0.79016
 C2487 C 1.13830 0.40391 0.84345
 C2488 C 1.12776 0.43416 0.84574
 C2489 C 1.11373 0.44833 0.82073
 C2490 C 1.10993 0.43228 0.79329
 H2491 H 1.14747 0.39347 0.86392
 H2492 H 1.13000 0.44649 0.86723
 H2493 H 1.10522 0.47168 0.82279
 H2494 H 1.09780 0.44381 0.77489
 H2495 H 1.14639 0.31595 0.78455
 H2496 H 1.12147 0.34044 0.74082
 C2497 C 0.66136 0.85394 0.78267
 C2498 C 0.64959 0.85646 0.81293
 C2499 C 0.62249 0.87312 0.81791
 C2500 C 0.60737 0.88773 0.79373
 C2501 C 0.61895 0.88604 0.76387
 C2502 C 0.64593 0.86886 0.75797
 C2503 C 0.68757 0.83616 0.77615
 C2504 C 0.69857 0.83327 0.74628
 C2505 C 0.68367 0.84807 0.72219
 C2506 C 0.65751 0.86561 0.72782
 H2507 H 0.69951 0.82391 0.79376
 H2508 H 0.71856 0.81918 0.74179
 H2509 H 0.69222 0.84567 0.69899
 H2510 H 0.64632 0.87622 0.70829
 H2511 H 0.61313 0.87492 0.84084
 H2512 H 0.58657 0.90060 0.79833
 C2513 C 0.61515 0.36758 1.31715
 C2514 C 0.64591 0.35719 1.31406
 C2515 C 0.66211 0.36411 1.28722
 C2516 C 0.64774 0.37850 1.26258
 C2517 C 0.61678 0.38696 1.26416
 C2518 C 0.60034 0.38224 1.29181
 C2519 C 0.59918 0.36501 1.34515
 C2520 C 0.56897 0.37523 1.34778
 C2521 C 0.55430 0.38888 1.32285
 C2522 C 0.56985 0.39274 1.29520
 H2523 H 0.61001 0.35617 1.36555
 H2524 H 0.55705 0.37301 1.36944
 H2525 H 0.53095 0.39709 1.32513
 H2526 H 0.55794 0.40453 1.27682
 H2527 H 0.68585 0.35708 1.28497
 H2528 H 0.66072 0.38235 1.24174
 C2529 C 0.86803 1.10781 1.32242
 C2530 C 0.86221 1.14005 1.32406
 C2531 C 0.87185 1.15895 1.29981
 C2532 C 0.88454 1.14651 1.27335
 C2533 C 0.88935 1.11471 1.27050
 C2534 C 0.88222 1.09517 1.29569
 C2535 C 0.86155 1.08800 1.34729
 C2536 C 0.86848 1.05668 1.34591
 C2537 C 0.88273 1.04451 1.32013
 C2538 C 0.88994 1.06352 1.29541
 H2539 H 0.85220 1.09644 1.36849
 H2540 H 0.86343 1.04191 1.36529
 H2541 H 0.88870 1.02029 1.31948
 H2542 H 0.90225 1.05322 1.27651
 H2543 H 0.86813 1.18361 1.30082
 H2544 H 0.89004 1.16193 1.25458
 C2545 C 0.85357 0.67060 0.78609
 C2546 C 0.84859 0.65232 0.81270
 C2547 C 0.85802 0.62145 0.81277
 C2548 C 0.87229 0.60853 0.78730
 C2549 C 0.87741 0.62595 0.76072
 C2550 C 0.86759 0.65719 0.75972
 C2551 C 0.84327 0.70145 0.78452
 C2552 C 0.84691 0.71876 0.75781
 C2553 C 0.86024 0.70559 0.73198
 C2554 C 0.87020 0.67507 0.73270
 H2555 H 0.83154 0.71228 0.80345
 H2556 H 0.83881 0.74234 0.75697
 H2557 H 0.86248 0.71898 0.71113
 H2558 H 0.87938 0.66562 0.71169
 H2559 H 0.85445 0.60729 0.83293
 H2560 H 0.87949 0.58464 0.78834
 C2561 C 0.34998 1.17331 0.78111
 C2562 C 0.34449 1.15562 0.80803
 C2563 C 0.35125 1.12401 0.80765
 C2564 C 0.36663 1.11073 0.78307
 C2565 C 0.37379 1.12802 0.75690
 C2566 C 0.36352 1.15899 0.75493
 C2567 C 0.34037 1.20427 0.77878
 C2568 C 0.34174 1.21992 0.75090
 C2569 C 0.35360 1.20546 0.72502
 C2570 C 0.36481 1.17548 0.72700
 H2571 H 0.32999 1.21617 0.79777
 H2572 H 0.33294 1.24320 0.74926
 H2573 H 0.35395 1.21745 0.70322
 H2574 H 0.37326 1.16503 0.70614
 H2575 H 0.34604 1.10980 0.82741
 H2576 H 0.37318 1.08668 0.78459
 C2577 C 0.35047 0.60973 1.31353
 C2578 C 0.36573 0.63348 1.33059
 C2579 C 0.39114 0.64761 1.31627
 C2580 C 0.40145 0.63854 1.28743
 C2581 C 0.38451 0.61806 1.26914
 C2582 C 0.35653 0.60653 1.28151
 C2583 C 0.32954 0.58871 1.32670
 C2584 C 0.30966 0.57157 1.30829
 C2585 C 0.31088 0.57450 1.27653
 C2586 C 0.33420 0.59180 1.26312
 H2587 H 0.32856 0.58481 1.35109
 H2588 H 0.29289 0.55648 1.31874
 H2589 H 0.29455 0.56234 1.26223
 H2590 H 0.33492 0.59317 1.23832
 H2591 H 0.40407 0.66559 1.32740
 H2592 H 0.42296 0.64808 1.27965
 C2593 C 1.16437 1.28546 0.85193
 C2594 C 1.14940 1.31447 0.85139
 C2595 C 1.12082 1.31782 0.86559
 C2596 C 1.10723 1.29323 0.88083
 C2597 C 1.12189 1.26457 0.88243
 C2598 C 1.15056 1.26028 0.86766
 C2599 C 1.19236 1.28069 0.83646
 C2600 C 1.20686 1.25203 0.83708
 C2601 C 1.19352 1.22749 0.85264
 C2602 C 1.16548 1.23132 0.86748
 H2603 H 1.20307 1.29878 0.82339
 H2604 H 1.22841 1.24877 0.82520
 H2605 H 1.20482 1.20528 0.85300
 H2606 H 1.15561 1.21134 0.87850
 H2607 H 1.10921 1.33989 0.86522
 H2608 H 1.08516 1.29663 0.89173
 C2609 C 1.13133 0.82160 0.38896
 C2610 C 1.14069 0.81874 0.35788
 C2611 C 1.13229 0.79246 0.34125
 C2612 C 1.11760 0.76797 0.35545
 C2613 C 1.11019 0.76916 0.38669
 C2614 C 1.11621 0.79644 0.40358
 C2615 C 1.13545 0.84923 0.40547
 C2616 C 1.12619 0.85164 0.43599
 C2617 C 1.11199 0.82690 0.45043
 C2618 C 1.10665 0.79965 0.43438
 H2619 H 1.14482 0.86954 0.39485
 H2620 H 1.12960 0.87301 0.44834
 H2621 H 1.10452 0.82905 0.47401
 H2622 H 1.09445 0.78148 0.44615
 H2623 H 1.13863 0.79037 0.31731
 H2624 H 1.11286 0.74743 0.34212
 C2625 C 0.63999 1.28644 0.33277
 C2626 C 0.64871 1.31222 0.35092
 C2627 C 0.64498 1.31080 0.38286
 C2628 C 0.63059 1.28590 0.39666
 C2629 C 0.62053 1.26076 0.37925
 C2630 C 0.62638 1.26024 0.34715
 C2631 C 0.64590 1.28534 0.30093
 C2632 C 0.63861 1.25933 0.28366
 C2633 C 0.62595 1.23360 0.29776
 C2634 C 0.62020 1.23380 0.32920
 H2635 H 0.65722 1.30390 0.28914
 H2636 H 0.64349 1.25888 0.25930
 H2637 H 0.62099 1.21319 0.28435
 H2638 H 0.61160 1.21275 0.33925
 H2639 H 0.65200 1.32997 0.39713
 H2640 H 0.62684 1.28650 0.42124
 C2641 C 0.63630 0.82003 0.88465
 C2642 C 0.64773 0.81722 0.85420
 C2643 C 0.64134 0.79034 0.83757
 C2644 C 0.62626 0.76558 0.85109
 C2645 C 0.61653 0.76700 0.88166
 C2646 C 0.62091 0.79459 0.89856
 C2647 C 0.63842 0.84789 0.90116
 C2648 C 0.62711 0.85033 0.93096
 C2649 C 0.61272 0.82534 0.94472
 C2650 C 0.60924 0.79783 0.92864
 H2651 H 0.64772 0.86837 0.89108
 H2652 H 0.62904 0.87192 0.94325
 H2653 H 0.60363 0.82749 0.96773
 H2654 H 0.59678 0.77945 0.93982
 H2655 H 0.64891 0.78830 0.81399
 H2656 H 0.62270 0.74482 0.83774
 C2657 C 0.84353 1.27398 1.17805
 C2658 C 0.83738 1.30244 1.16318
 C2659 C 0.84754 1.30696 1.13302
 C2660 C 0.86413 1.28426 1.11777
 C2661 C 0.87079 1.25607 1.13200
 C2662 C 0.85972 1.25034 1.16212
 C2663 C 0.83286 1.26808 1.20805
 C2664 C 0.83750 1.23946 1.22187
 C2665 C 0.85257 1.21611 1.20606
 C2666 C 0.86347 1.22132 1.17644
 H2667 H 0.82020 1.28515 1.22080
 H2668 H 0.82893 1.23521 1.24480
 H2669 H 0.85559 1.19375 1.21669
 H2670 H 0.87431 1.20221 1.16481
 H2671 H 0.84319 1.32863 1.12146
 H2672 H 0.87214 1.28886 1.09469
 C2673 C 0.87473 0.82576 0.61109
 C2674 C 0.86123 0.82575 0.64067
 C2675 C 0.86025 0.79828 0.65756
 C2676 C 0.87169 0.77094 0.64543
 C2677 C 0.88436 0.77016 0.61594
 C2678 C 0.88625 0.79771 0.59854
 C2679 C 0.87783 0.85321 0.59404
 C2680 C 0.89131 0.85299 0.56504
 C2681 C 0.90233 0.82558 0.55267
 C2682 C 0.90008 0.79818 0.56925
 H2683 H 0.87038 0.87509 0.60303
 H2684 H 0.89347 0.87425 0.55222
 H2685 H 0.91299 0.82560 0.53025
 H2686 H 0.90956 0.77755 0.55905
 H2687 H 0.85007 0.79800 0.68022
 H2688 H 0.87027 0.75006 0.65901
 C2689 C 0.39230 1.32518 0.62599
 C2690 C 0.36087 1.32442 0.63430
 C2691 C 0.34296 1.29905 0.62566
 C2692 C 0.35618 1.27336 0.61216
 C2693 C 0.38770 1.27237 0.60604
 C2694 C 0.40589 1.29887 0.61182
 C2695 C 0.41026 1.35180 0.63051
 C2696 C 0.44112 1.35225 0.62217
 C2697 C 0.45447 1.32651 0.60860
 C2698 C 0.43704 1.30014 0.60314
 H2699 H 0.40053 1.37276 0.63959
 H2700 H 0.45462 1.37286 0.62580
 H2701 H 0.47834 1.32716 0.60181
 H2702 H 0.44806 1.28111 0.59153
 H2703 H 0.31883 1.29828 0.63145
 H2704 H 0.34183 1.25348 0.60767
 C2705 C 0.38071 0.82901 1.09913
 C2706 C 0.36552 0.83170 1.12778
 C2707 C 0.35818 0.80487 1.14424
 C2708 C 0.36721 0.77599 1.13374
 C2709 C 0.38328 0.77296 1.10616
 C2710 C 0.38976 0.79942 1.08829
 C2711 C 0.38815 0.85518 1.08155
 C2712 C 0.40377 0.85239 1.05380
 C2713 C 0.41260 0.82349 1.04319
 C2714 C 0.40587 0.79718 1.06027
 H2715 H 0.38214 0.87794 1.08904
 H2716 H 0.40921 0.87277 1.04055
 H2717 H 0.42490 0.82145 1.02172
 H2718 H 0.41352 0.77522 1.05138
 H2719 H 0.34654 0.80659 1.16611
 H2720 H 0.36207 0.75583 1.14750
 C2721 C 0.82943 0.71413 0.86971
 C2722 C 0.84712 0.68999 0.85633
 C2723 C 0.87921 0.69121 0.85872
 C2724 C 0.89392 0.71560 0.87326
 C2725 C 0.87726 0.73990 0.88625
 C2726 C 0.84453 0.73921 0.88476
 C2727 C 0.79704 0.71467 0.86768
 C2728 C 0.77986 0.73672 0.88315
 C2729 C 0.79444 0.76080 0.89807
 C2730 C 0.82623 0.76324 0.89702
 H2731 H 0.78431 0.69864 0.85400
 H2732 H 0.75504 0.73593 0.88232
 H2733 H 0.78096 0.77878 0.90878
 H2734 H 0.83575 0.78444 0.90560
 H2735 H 0.89318 0.67296 0.84916
 H2736 H 0.91875 0.71537 0.87450
 C2737 C 0.88910 0.18182 0.37818
 C2738 C 0.86001 0.18188 0.36353
 C2739 C 0.84337 0.20946 0.36159
 C2740 C 0.85532 0.23685 0.37317
 C2741 C 0.88438 0.23757 0.38696
 C2742 C 0.90146 0.20989 0.38986
 C2743 C 0.90584 0.15429 0.38226
 C2744 C 0.93433 0.15443 0.39687
 C2745 C 0.94650 0.18184 0.40807
 C2746 C 0.93022 0.20934 0.40486
 H2747 H 0.89696 0.13241 0.37474
 H2748 H 0.94690 0.13309 0.39978
 H2749 H 0.96853 0.18176 0.41961
 H2750 H 0.94024 0.22997 0.41452
 H2751 H 0.82109 0.20978 0.35053
 H2752 H 0.84195 0.25781 0.37100
 C2753 C 0.39704 0.67550 0.38589
 C2754 C 0.36721 0.67391 0.37268
 C2755 C 0.34928 0.70078 0.37143
 C2756 C 0.36011 0.72865 0.38279
 C2757 C 0.38940 0.73085 0.39571
 C2758 C 0.40806 0.70412 0.39775
 C2759 C 0.41635 0.64941 0.38717
 C2760 C 0.44532 0.65114 0.40072
 C2761 C 0.45564 0.67880 0.41314
 C2762 C 0.43732 0.70512 0.41165
 H2763 H 0.40926 0.62752 0.37765
 H2764 H 0.45979 0.63087 0.40168
 H2765 H 0.47798 0.67990 0.42398
 H2766 H 0.44619 0.72612 0.42168
 H2767 H 0.32670 0.70034 0.36108
 H2768 H 0.34564 0.74891 0.38097
 C2769 C 0.37761 0.18953 0.86370
 C2770 C 0.34720 0.19299 0.85227
 C2771 C 0.33145 0.22057 0.85784
 C2772 C 0.34598 0.24542 0.87186
 C2773 C 0.37666 0.24336 0.88131
 C2774 C 0.39259 0.21506 0.87790
 C2775 C 0.39299 0.16095 0.86277
 C2776 C 0.42282 0.15786 0.87395
 C2777 C 0.43770 0.18296 0.88704
 C2778 C 0.42269 0.21121 0.88942
 H2779 H 0.38190 0.14043 0.85466
 H2780 H 0.43425 0.13572 0.87296
 H2781 H 0.46073 0.18033 0.89603
 H2782 H 0.43471 0.22969 0.90092
 H2783 H 0.30790 0.22313 0.85026
 H2784 H 0.33332 0.26671 0.87486
 C2785 C 1.16360 0.72116 1.15870
 C2786 C 1.15040 0.69204 1.15228
 C2787 C 1.12456 0.69038 1.13315
 C2788 C 1.11190 0.71684 1.12019
 C2789 C 1.12475 0.74580 1.12584
 C2790 C 1.15083 0.74825 1.14520
 C2791 C 1.18920 0.72384 1.17834
 C2792 C 1.20217 0.75260 1.18434
 C2793 C 1.18984 0.77907 1.17103
 C2794 C 1.16432 0.77706 1.15173
 H2795 H 1.19939 0.70378 1.18908
 H2796 H 1.22190 0.75437 1.19938
 H2797 H 1.20010 0.80127 1.17568
 H2798 H 1.15528 0.79819 1.14205
 H2799 H 1.11400 0.66838 1.12832
 H2800 H 1.09190 0.71471 1.10552
 C2801 C 1.11758 0.18156 0.62486
 C2802 C 1.14409 0.18530 0.64343
 C2803 C 1.15696 0.21472 0.64659
 C2804 C 1.14377 0.24025 0.63241
 C2805 C 1.11715 0.23729 0.61468
 C2806 C 1.10377 0.20781 0.61068
 C2807 C 1.10445 0.15225 0.62023
 C2808 C 1.07808 0.14889 0.60232
 C2809 C 1.06448 0.17453 0.58863
 C2810 C 1.07718 0.20377 0.59261
 H2811 H 1.11435 0.13182 0.63053
 H2812 H 1.06814 0.12628 0.59906
 H2813 H 1.04402 0.17174 0.57476
 H2814 H 1.06611 0.22307 0.58137
 H2815 H 1.17744 0.21807 0.66016
 H2816 H 1.15426 0.26266 0.63558
 C2817 C 0.60345 0.68007 0.62479
 C2818 C 0.63359 0.67850 0.63703
 C2819 C 0.65203 0.70496 0.63663
 C2820 C 0.64087 0.73281 0.62540
 C2821 C 0.61087 0.73525 0.61414
 C2822 C 0.59195 0.70866 0.61331
 C2823 C 0.58477 0.65364 0.62289
 C2824 C 0.55526 0.65535 0.61058
 C2825 C 0.54398 0.68324 0.59949
 C2826 C 0.56214 0.70965 0.60057
 H2827 H 0.59286 0.63137 0.63036
 H2828 H 0.54119 0.63484 0.60933
 H2829 H 0.52116 0.68434 0.58968
 H2830 H 0.55274 0.73063 0.59096
 H2831 H 0.67515 0.70421 0.64567
 H2832 H 0.65565 0.75287 0.62602
 C2833 C 0.61679 0.17830 1.12293
 C2834 C 0.64115 0.18210 1.14421
 C2835 C 0.65124 0.21186 1.15146
 C2836 C 0.63781 0.23759 1.13799
 C2837 C 0.61423 0.23445 1.11647
 C2838 C 0.60326 0.20472 1.10886
 C2839 C 0.60544 0.14882 1.11560
 C2840 C 0.58142 0.14540 1.09465
 C2841 C 0.56832 0.17119 1.08072
 C2842 C 0.57908 0.20066 1.08768
 H2843 H 0.61484 0.12830 1.12619
 H2844 H 0.57286 0.12263 1.08924
 H2845 H 0.54968 0.16836 1.06450
 H2846 H 0.56831 0.22016 1.07647
 H2847 H 0.66963 0.21535 1.16770
 H2848 H 0.64572 0.26028 1.14454
 C2849 C 1.27570 1.15450 0.83579
 C2850 C 1.30515 1.15445 0.84982
 C2851 C 1.30899 1.14024 0.87848
 C2852 C 1.28457 1.12562 0.89299
 C2853 C 1.25553 1.12477 0.87929
 C2854 C 1.25069 1.13961 0.85068
 C2855 C 1.27024 1.16984 0.80779
 C2856 C 1.24105 1.17047 0.79465
 C2857 C 1.21666 1.15599 0.80917
 C2858 C 1.22127 1.14073 0.83695
 H2859 H 1.28815 1.18189 0.79600
 H2860 H 1.23724 1.18262 0.77330
 H2861 H 1.19395 1.15703 0.79912
 H2862 H 1.20147 1.13041 0.84775
 H2863 H 1.33127 1.14022 0.88952
 H2864 H 1.28841 1.11464 0.91502
 C2865 C 1.32182 0.62095 0.40057
 C2866 C 1.32479 0.63713 0.37239
 C2867 C 1.29829 0.64392 0.35524
 C2868 C 1.26952 0.63377 0.36477
 C2869 C 1.26624 0.61696 0.39200
 C2870 C 1.29239 0.61058 0.41030
 C2871 C 1.34761 0.61383 0.41878
 C2872 C 1.34464 0.59708 0.44593
 C2873 C 1.31596 0.58676 0.45531
 C2874 C 1.29001 0.59335 0.43773
 H2875 H 1.37023 0.62093 0.41224
 H2876 H 1.36474 0.59185 0.45963
 H2877 H 1.31382 0.57346 0.47622
 H2878 H 1.26822 0.58456 0.44570
 H2879 H 1.30021 0.65634 0.33376
 H2880 H 1.24962 0.63894 0.35071
 C2881 C 0.79114 1.14342 0.34063
 C2882 C 0.81714 1.14437 0.36034
 C2883 C 0.81379 1.13592 0.39117
 C2884 C 0.78629 1.12395 0.40202
 C2885 C 0.76082 1.12080 0.38261
 C2886 C 0.76278 1.13142 0.35181
 C2887 C 0.79221 1.15550 0.31058
 C2888 C 0.76642 1.15492 0.29161
 C2889 C 0.73886 1.14305 0.30239
 C2890 C 0.73685 1.13164 0.33224
 H2891 H 0.81245 1.16651 0.30174
 H2892 H 0.76770 1.16430 0.26862
 H2893 H 0.71877 1.14327 0.28775
 H2894 H 0.71466 1.12372 0.33993
 H2895 H 0.83320 1.13748 0.40667
 H2896 H 0.78502 1.11661 0.42576
 C2897 C 0.78040 0.64193 0.83677
 C2898 C 0.80833 0.64703 0.85298
 C2899 C 0.81068 0.63753 0.88368
 C2900 C 0.78608 0.62352 0.89853
 C2901 C 0.75823 0.61875 0.88321
 C2902 C 0.75500 0.62833 0.85219
 C2903 C 0.77635 0.65210 0.80624
 C2904 C 0.74851 0.64829 0.79105
 C2905 C 0.72363 0.63545 0.80614
 C2906 C 0.72657 0.62600 0.83654
 H2907 H 0.79413 0.66366 0.79378
 H2908 H 0.74613 0.65595 0.76761
 H2909 H 0.70181 0.63325 0.79442
 H2910 H 0.70613 0.61746 0.84759
 H2911 H 0.83174 0.64142 0.89634
 H2912 H 0.78872 0.61647 0.92226
 C2913 C 1.32797 0.90473 1.11721
 C2914 C 1.32983 0.87483 1.13051
 C2915 C 1.30293 0.85719 1.13292
 C2916 C 1.27501 0.86802 1.12191
 C2917 C 1.27266 0.89713 1.10843
 C2918 C 1.29919 0.91589 1.10600
 C2919 C 1.35397 0.92396 1.11517
 C2920 C 1.35186 0.95319 1.10201
 C2921 C 1.32393 0.96380 1.09056
 C2922 C 1.29779 0.94539 1.09242
 H2923 H 1.37603 0.91670 1.12406
 H2924 H 1.37201 0.96769 1.10067
 H2925 H 1.32250 0.98646 1.08023
 H2926 H 1.27658 0.95445 1.08312
 H2927 H 1.30346 0.83468 1.14352
 H2928 H 1.25485 0.85361 1.12426
 C2929 C 1.29014 0.35570 0.65738
 C2930 C 1.31836 0.36118 0.64227
 C2931 C 1.31872 0.37863 0.61523
 C2932 C 1.29177 0.39106 0.60324
 C2933 C 1.26368 0.38644 0.61803
 C2934 C 1.26257 0.36860 0.64529
 C2935 C 1.28858 0.33676 0.68364
 C2936 C 1.26062 0.33114 0.69806
 C2937 C 1.23373 0.34414 0.68658
 C2938 C 1.23454 0.36258 0.66035
 H2939 H 1.30872 0.32573 0.69298
 H2940 H 1.25979 0.31646 0.71814
 H2941 H 1.21208 0.33965 0.69786
 H2942 H 1.21304 0.37172 0.65185
 H2943 H 1.34018 0.38255 0.60337
 H2944 H 1.29280 0.40447 0.58228
 C2945 C 0.81933 0.89983 0.63457
 C2946 C 0.82155 0.86751 0.63970
 C2947 C 0.79720 0.84854 0.63054
 C2948 C 0.77014 0.86093 0.61904
 C2949 C 0.76673 0.89278 0.61498
 C2950 C 0.79188 0.91249 0.62171
 C2951 C 0.84427 0.91972 0.64042
 C2952 C 0.84221 0.95118 0.63430
 C2953 C 0.81563 0.96342 0.62149
 C2954 C 0.79083 0.94432 0.61484
 H2955 H 0.86598 0.91125 0.64862
 H2956 H 0.86163 0.96604 0.63887
 H2957 H 0.81441 0.98777 0.61617
 H2958 H 0.77124 0.95471 0.60364
 H2959 H 0.79864 0.82382 0.63375
 H2960 H 0.75139 0.84541 0.61380
 C2961 C 0.76883 0.32762 1.15544
 C2962 C 0.79664 0.34291 1.16282
 C2963 C 0.80019 0.37398 1.15465
 C2964 C 0.77717 0.38977 1.13895
 C2965 C 0.74968 0.37512 1.13099
 C2966 C 0.74500 0.34393 1.13985
 C2967 C 0.76375 0.29673 1.16421
 C2968 C 0.73610 0.28208 1.15758
 C2969 C 0.71274 0.29808 1.14274
 C2970 C 0.71683 0.32877 1.13435
 H2971 H 0.78072 0.28373 1.17671
 H2972 H 0.73261 0.25833 1.16440
 H2973 H 0.69121 0.28676 1.13793
 H2974 H 0.69751 0.34045 1.12396
 H2975 H 0.82131 0.38596 1.16000
 H2976 H 0.78103 0.41357 1.13252
 C2977 C 0.71401 1.15637 1.16025
 C2978 C 0.68609 1.14901 1.14508
 C2979 C 0.68686 1.13302 1.11720
 C2980 C 0.71438 1.12224 1.10536
 C2981 C 0.74197 1.12737 1.12092
 C2982 C 0.74224 1.14535 1.14805
 C2983 C 0.71432 1.17312 1.18798
 C2984 C 0.74194 1.17982 1.20277
 C2985 C 0.76963 1.16962 1.19048
 C2986 C 0.76989 1.15240 1.16344
 H2987 H 0.69330 1.18073 1.19869
 H2988 H 0.74185 1.19287 1.22393
 H2989 H 0.79098 1.17491 1.20208
 H2990 H 0.79183 1.14477 1.15467
 H2991 H 0.66582 1.12768 1.10516
 H2992 H 0.71407 1.10898 1.08428
 C2993 C 0.70237 0.64288 0.65814
 C2994 C 0.67542 0.63981 0.64005
 C2995 C 0.67781 0.62770 0.61035
 C2996 C 0.70543 0.61574 0.59966
 C2997 C 0.73183 0.61633 0.61802
 C2998 C 0.73074 0.63073 0.64721
 C2999 C 0.70220 0.65955 0.68589
 C3000 C 0.72905 0.66379 0.70272
 C3001 C 0.75654 0.65106 0.69265
 C3002 C 0.75752 0.63475 0.66511
 H3003 H 0.68182 0.67080 0.69411
 H3004 H 0.72853 0.67764 0.72332
 H3005 H 0.77733 0.65448 0.70587
 H3006 H 0.77958 0.62620 0.65761
 H3007 H 0.65774 0.62678 0.59566
 H3008 H 0.70621 0.60577 0.57687
 C3009 C 0.21647 1.15738 0.65921
 C3010 C 0.18797 1.15077 0.64482
 C3011 C 0.18743 1.13360 0.61764
 C3012 C 0.21420 1.12099 0.60581
 C3013 C 0.24230 1.12538 0.62072
 C3014 C 0.24390 1.14437 0.64712
 C3015 C 0.21808 1.17540 0.68608
 C3016 C 0.24625 1.18127 0.70017
 C3017 C 0.27314 1.16888 0.68815
 C3018 C 0.27209 1.15049 0.66191
 H3019 H 0.19763 1.18484 0.69651
 H3020 H 0.24724 1.19550 0.72053
 H3021 H 0.29490 1.17345 0.69927
 H3022 H 0.29347 1.14123 0.65329
 H3023 H 0.16586 1.12882 0.60626
 H3024 H 0.21292 1.10703 0.58523
 C3025 C 0.20012 0.61889 1.16389
 C3026 C 0.18996 0.64894 1.15454
 C3027 C 0.20651 0.66329 1.13074
 C3028 C 0.23123 0.64894 1.11653
 C3029 C 0.23856 0.61798 1.12249
 C3030 C 0.22047 0.60203 1.14452
 C3031 C 0.19162 0.60484 1.19189
 C3032 C 0.19597 0.57335 1.19662
 C3033 C 0.20974 0.55552 1.17400
 C3034 C 0.22213 0.56971 1.14815
 H3035 H 0.18242 0.61787 1.21076
 H3036 H 0.18827 0.56272 1.21773
 H3037 H 0.21202 0.53087 1.17710
 H3038 H 0.23337 0.55531 1.13131
 H3039 H 0.20092 0.68632 1.12312
 H3040 H 0.24454 0.66259 1.10065
 C3041 C 0.71994 0.83728 0.85381
 C3042 C 0.69232 0.85459 0.85131
 C3043 C 0.69291 0.88603 0.85897
 C3044 C 0.71864 0.89928 0.87255
 C3045 C 0.74566 0.88228 0.87640
 C3046 C 0.74721 0.85200 0.86448
 C3047 C 0.72185 0.80641 0.84390
 C3048 C 0.75026 0.79222 0.83995
 C3049 C 0.77710 0.80776 0.84761
 C3050 C 0.77563 0.83681 0.86108
 H3051 H 0.70184 0.79363 0.83703
 H3052 H 0.75147 0.76922 0.83040
 H3053 H 0.79914 0.79694 0.84375
 H3054 H 0.79700 0.84784 0.86735
 H3055 H 0.67264 0.90014 0.85575
 H3056 H 0.71744 0.92302 0.88016
 C3057 C 0.71732 0.33856 0.35137
 C3058 C 0.68846 0.35362 0.35158
 C3059 C 0.68559 0.38242 0.36577
 C3060 C 0.71054 0.39612 0.38027
 C3061 C 0.73904 0.38131 0.38118
 C3062 C 0.74280 0.35238 0.36651
 C3063 C 0.72161 0.31049 0.33567
 C3064 C 0.75018 0.29600 0.33539
 C3065 C 0.77503 0.30928 0.35049
 C3066 C 0.77154 0.33727 0.36581
 H3067 H 0.70320 0.29974 0.32309
 H3068 H 0.75312 0.27448 0.32319
 H3069 H 0.79721 0.29805 0.35000
 H3070 H 0.79166 0.34713 0.37655
 H3071 H 0.66365 0.39415 0.36591
 H3072 H 0.70754 0.41836 0.39117
 C3073 C 0.21210 0.83420 0.36334
 C3074 C 0.18708 0.85366 0.35514
 C3075 C 0.19006 0.88560 0.35880
 C3076 C 0.21600 0.89831 0.37224
 C3077 C 0.24066 0.87972 0.38134
 C3078 C 0.23940 0.84745 0.37575
 C3079 C 0.21136 0.80210 0.35797
 C3080 C 0.23666 0.78356 0.36452
 C3081 C 0.26350 0.79658 0.37581
 C3082 C 0.26511 0.82821 0.38101
 H3083 H 0.19189 0.79099 0.34761
 H3084 H 0.23568 0.75903 0.36008
 H3085 H 0.28336 0.78218 0.38010
 H3086 H 0.28695 0.83733 0.38844
 H3087 H 0.17142 0.90079 0.35228
 H3088 H 0.21665 0.92300 0.37592
 C3089 C 0.21701 0.36121 0.83188
 C3090 C 0.19095 0.35386 0.85005
 C3091 C 0.19247 0.35808 0.88194
 C3092 C 0.21789 0.37149 0.89569
 C3093 C 0.24346 0.37994 0.87828
 C3094 C 0.24378 0.37351 0.84627
 C3095 C 0.21776 0.35518 0.80003
 C3096 C 0.24399 0.36106 0.78280
 C3097 C 0.27035 0.37211 0.79696
 C3098 C 0.27049 0.37789 0.82841
 H3099 H 0.19871 0.34492 0.78815
 H3100 H 0.24407 0.35632 0.75843
 H3101 H 0.29093 0.37581 0.78359
 H3102 H 0.29196 0.38513 0.83853
 H3103 H 0.17307 0.35209 0.89622
 H3104 H 0.21734 0.37579 0.92018
   
