data_POSCAR
  _audit_creation_date              2014-09-24
  _audit_creation_method            'ToBaCCo'
  _symmetry_space_group_name_H-M    'P1'
  _symmetry_Int_Tables_number       1
  _symmetry_cell_setting            triclinic
  loop_
  _symmetry_equiv_pos_as_xyz
 x,y,z
_cell_length_a 42.6271
_cell_length_b 44.4292
_cell_length_c 44.7256
_cell_angle_alpha 90.093800
_cell_angle_beta 90.132700
_cell_angle_gamma 90.258800
loop_
  _atom_site_label
  _atom_site_type_symbol
  _atom_site_fract_x
  _atom_site_fract_y
  _atom_site_fract_z
C1 C 0.31222 0.31158 -0.01578
 C2 C 0.31163 0.31110 0.01472
 C3 C 0.29039 0.33092 0.03215
 C4 C 0.33370 0.29208 0.03206
 C5 C 0.33265 0.29087 -0.03309
 C6 C 0.29409 0.33400 -0.03329
 C7 C 0.30279 0.34940 0.05472
 C8 C 0.28358 0.36964 0.06989
 C9 C 0.25155 0.37225 0.06263
 C10 C 0.23884 0.35236 0.04114
 C11 C 0.25808 0.33191 0.02612
 C12 C 0.36621 0.29547 0.02861
 C13 C 0.38687 0.27724 0.04461
 C14 C 0.37554 0.25486 0.06414
 C15 C 0.34286 0.25267 0.06860
 C16 C 0.32221 0.27101 0.05261
 C17 C 0.33160 0.25966 -0.02852
 C18 C 0.35258 0.24071 -0.04331
 C19 C 0.37556 0.25257 -0.06288
 C20 C 0.37440 0.28375 -0.06917
 C21 C 0.35358 0.30260 -0.05419
 C22 C 0.27344 0.32430 -0.05576
 C23 C 0.25672 0.34517 -0.07277
 C24 C 0.26102 0.37635 -0.06833
 C25 C 0.28108 0.38586 -0.04503
 C26 C 0.29784 0.36496 -0.02809
 H27 H 0.32756 0.34871 0.06012
 H28 H 0.29394 0.38377 0.08705
 H29 H 0.21414 0.35211 0.03583
 H30 H 0.24781 0.31707 0.00951
 H31 H 0.37557 0.31235 0.01359
 H32 H 0.41181 0.28088 0.04183
 H33 H 0.29719 0.26866 0.05614
 H34 H 0.31463 0.24998 -0.01328
 H35 H 0.35040 0.21679 -0.03941
 H36 H 0.38994 0.29377 -0.08552
 H37 H 0.35424 0.32655 -0.05870
 H38 H 0.26998 0.30048 -0.05987
 H39 H 0.24023 0.33673 -0.08920
 H40 H 0.28385 0.40947 -0.03970
 H41 H 0.31373 0.37295 -0.01087
 H42 H 0.33306 0.23723 0.08474
 C43 C 0.68992 0.69003 -0.01405
 C44 C 0.68848 0.68919 0.01640
 C45 C 0.70648 0.66685 0.03401
 C46 C 0.66721 0.70929 0.03354
 C47 C 0.66808 0.70902 -0.03157
 C48 C 0.71153 0.67039 -0.03131
 C49 C 0.70323 0.63593 0.02842
 C50 C 0.72010 0.61511 0.04529
 C51 C 0.73969 0.62465 0.06893
 C52 C 0.74337 0.65581 0.07388
 C53 C 0.72658 0.67662 0.05689
 C54 C 0.64604 0.69685 0.05408
 C55 C 0.62476 0.71517 0.06915
 C56 C 0.62364 0.74635 0.06362
 C57 C 0.64630 0.75895 0.04437
 C58 C 0.66778 0.74060 0.02947
 C59 C 0.67980 0.73100 -0.05103
 C60 C 0.65928 0.74951 -0.06693
 C61 C 0.62654 0.74656 -0.06345
 C62 C 0.61506 0.72320 -0.04515
 C63 C 0.63558 0.70484 -0.02921
 C64 C 0.74370 0.66915 -0.02463
 C65 C 0.76316 0.64869 -0.03940
 C66 C 0.75083 0.62909 -0.06135
 C67 C 0.71898 0.63195 -0.06923
 C68 C 0.69956 0.65217 -0.05430
 H69 H 0.68771 0.62792 0.01090
 H70 H 0.71777 0.59150 0.03973
 H71 H 0.75950 0.66436 0.09056
 H72 H 0.72962 0.70044 0.06129
 H73 H 0.64559 0.67282 0.05807
 H74 H 0.60887 0.70481 0.08498
 H75 H 0.68477 0.75082 0.01460
 H76 H 0.70488 0.73396 -0.05369
 H77 H 0.66922 0.76577 -0.08219
 H78 H 0.59013 0.71893 -0.04327
 H79 H 0.62613 0.68726 -0.01504
 H80 H 0.75366 0.68376 -0.00764
 H81 H 0.78769 0.64866 -0.03347
 H82 H 0.70891 0.61797 -0.08667
 H83 H 0.67492 0.65300 -0.06018
 H84 H 0.64787 0.78296 0.04089
 C85 C 0.69437 0.30900 1.01410
 C86 C 0.69526 0.30783 0.98367
 C87 C 0.71634 0.32775 0.96606
 C88 C 0.67308 0.28839 0.96668
 C89 C 0.67353 0.28883 1.03153
 C90 C 0.71235 0.33172 1.03158
 C91 C 0.70377 0.34576 0.94335
 C92 C 0.72258 0.36674 0.92861
 C93 C 0.75436 0.37061 0.93646
 C94 C 0.76736 0.35105 0.95792
 C95 C 0.74853 0.32982 0.97248
 C96 C 0.64064 0.29266 0.96923
 C97 C 0.61977 0.27427 0.95344
 C98 C 0.63077 0.25079 0.93508
 C99 C 0.66347 0.24756 0.93160
 C100 C 0.68436 0.26614 0.94732
 C101 C 0.67636 0.25744 1.02979
 C102 C 0.65636 0.23879 1.04631
 C103 C 0.63331 0.25128 1.06514
 C104 C 0.63035 0.28283 1.06615
 C105 C 0.65047 0.30135 1.04989
 C106 C 0.73242 0.32235 1.05455
 C107 C 0.74856 0.34345 1.07200
 C108 C 0.74416 0.37465 1.06764
 C109 C 0.72492 0.38373 1.04353
 C110 C 0.70874 0.36257 1.02618
 H111 H 0.67909 0.34428 0.93766
 H112 H 0.71205 0.38062 0.91145
 H113 H 0.79194 0.35177 0.96367
 H114 H 0.75896 0.31538 0.98923
 H115 H 0.63151 0.31041 0.98333
 H116 H 0.59489 0.27855 0.95550
 H117 H 0.70938 0.26309 0.94451
 H118 H 0.69401 0.24741 1.01558
 H119 H 0.65890 0.21479 1.04371
 H120 H 0.61233 0.29321 1.07967
 H121 H 0.64771 0.32555 1.05124
 H122 H 0.73585 0.29859 1.05875
 H123 H 0.76472 0.33504 1.08863
 H124 H 0.72224 0.40727 1.03794
 H125 H 0.69333 0.37030 1.00853
 H126 H 0.67316 0.23116 0.91640
 C127 C 0.30578 0.68934 1.01459
 C128 C 0.30736 0.69001 0.98418
 C129 C 0.28818 0.66936 0.96547
 C130 C 0.32966 0.70986 0.96790
 C131 C 0.32506 0.70980 1.03347
 C132 C 0.28623 0.66669 1.03050
 C133 C 0.30320 0.64882 0.94663
 C134 C 0.28571 0.62857 0.92950
 C135 C 0.25268 0.62899 0.93000
 C136 C 0.23770 0.64946 0.94936
 C137 C 0.25531 0.66961 0.96673
 C138 C 0.36200 0.70880 0.97364
 C139 C 0.38279 0.72643 0.95699
 C140 C 0.37191 0.74470 0.93344
 C141 C 0.33929 0.74638 0.92853
 C142 C 0.31851 0.72886 0.94531
 C143 C 0.32347 0.74115 1.03034
 C144 C 0.34300 0.75996 1.04736
 C145 C 0.36416 0.74780 1.06848
 C146 C 0.36577 0.71615 1.07092
 C147 C 0.34614 0.69751 1.05407
 C148 C 0.26370 0.67606 1.05121
 C149 C 0.24543 0.65495 1.06654
 C150 C 0.24885 0.62377 1.06117
 C151 C 0.27283 0.61465 1.04139
 C152 C 0.29104 0.63581 1.02612
 H153 H 0.32858 0.64802 0.94572
 H154 H 0.29813 0.61234 0.91593
 H155 H 0.21251 0.64970 0.95176
 H156 H 0.24335 0.68520 0.98139
 H157 H 0.37120 0.69408 0.99079
 H158 H 0.40753 0.72552 0.96242
 H159 H 0.29358 0.73019 0.94072
 H160 H 0.30748 0.75104 1.01430
 H161 H 0.34186 0.78384 1.04309
 H162 H 0.38264 0.70562 1.08567
 H163 H 0.34811 0.67333 1.05644
 H164 H 0.26033 0.69982 1.05559
 H165 H 0.22915 0.66330 1.08306
 H166 H 0.27806 0.59108 1.03803
 H167 H 0.30928 0.62808 1.01119
 H168 H 0.32952 0.76136 0.91199
 C169 C -0.01834 0.31639 0.31600
 C170 C 0.01362 0.31580 0.31602
 C171 C 0.03159 0.29728 0.33765
 C172 C 0.03231 0.33492 0.29539
 C173 C -0.03607 0.33800 0.29724
 C174 C -0.03726 0.29652 0.33575
 C175 C 0.02657 0.30002 0.36851
 C176 C 0.04378 0.28265 0.38864
 C177 C 0.06734 0.26299 0.37849
 C178 C 0.07176 0.25993 0.34741
 C179 C 0.05437 0.27719 0.32729
 C180 C 0.05377 0.35576 0.30716
 C181 C 0.07058 0.37482 0.28825
 C182 C 0.06713 0.37289 0.25696
 C183 C 0.04530 0.35199 0.24527
 C184 C 0.02831 0.33304 0.26430
 C185 C -0.05889 0.32741 0.27722
 C186 C -0.07606 0.34751 0.25973
 C187 C -0.07157 0.37893 0.26258
 C188 C -0.04765 0.38918 0.28206
 C189 C -0.03063 0.36904 0.29958
 C190 C -0.03374 0.26517 0.33519
 C191 C -0.05121 0.24692 0.35450
 C192 C -0.07341 0.25954 0.37428
 C193 C -0.07601 0.29121 0.37509
 C194 C -0.05863 0.30934 0.35573
 H195 H 0.00925 0.31556 0.37703
 H196 H 0.03851 0.28462 0.41221
 H197 H 0.08825 0.24391 0.33841
 H198 H 0.05836 0.27455 0.30352
 H199 H 0.05688 0.35783 0.33113
 H200 H 0.08616 0.39137 0.29818
 H201 H 0.01169 0.31715 0.25481
 H202 H -0.06305 0.30346 0.27480
 H203 H -0.09239 0.33810 0.24370
 H204 H -0.04195 0.41289 0.28383
 H205 H -0.01311 0.37769 0.31497
 H206 H -0.01714 0.25485 0.32006
 H207 H -0.04660 0.22302 0.35417
 H208 H -0.09118 0.30223 0.39105
 H209 H -0.06126 0.33355 0.35691
 H210 H 0.04058 0.35056 0.22159
 C211 C -0.01703 0.68290 0.68277
 C212 C 0.01490 0.68184 0.68133
 C213 C 0.03270 0.69978 0.65906
 C214 C 0.03353 0.66193 0.70114
 C215 C -0.03515 0.66192 0.70197
 C216 C -0.03538 0.70406 0.66395
 C217 C 0.02631 0.69698 0.62841
 C218 C 0.04224 0.71485 0.60770
 C219 C 0.06471 0.73619 0.61722
 C220 C 0.07244 0.73735 0.64786
 C221 C 0.05644 0.71950 0.66855
 C222 C 0.05340 0.64039 0.68850
 C223 C 0.07041 0.62089 0.70671
 C224 C 0.06883 0.62307 0.73811
 C225 C 0.04840 0.64451 0.75067
 C226 C 0.03118 0.66391 0.73236
 C227 C -0.05662 0.67323 0.72274
 C228 C -0.07375 0.65369 0.74099
 C229 C -0.07053 0.62217 0.73824
 C230 C -0.04811 0.61117 0.71778
 C231 C -0.03121 0.63073 0.69947
 C232 C -0.02900 0.73504 0.66426
 C233 C -0.04427 0.75430 0.64436
 C234 C -0.06610 0.74292 0.62329
 C235 C -0.07436 0.71216 0.62519
 C236 C -0.05896 0.69296 0.64501
 H237 H 0.00891 0.68097 0.62054
 H238 H 0.03703 0.71156 0.58426
 H239 H 0.09087 0.75212 0.65592
 H240 H 0.06229 0.72138 0.69207
 H241 H 0.05517 0.63822 0.66443
 H242 H 0.08472 0.60386 0.69615
 H243 H 0.01578 0.68030 0.74252
 H244 H -0.05964 0.69730 0.72525
 H245 H -0.08891 0.66362 0.75760
 H246 H -0.04337 0.58732 0.71594
 H247 H -0.01482 0.62150 0.68346
 H248 H -0.01179 0.74425 0.67965
 H249 H -0.03880 0.77800 0.64586
 H250 H -0.09235 0.70269 0.61081
 H251 H -0.06485 0.66922 0.64495
 H252 H 0.04504 0.64611 0.77454
 C253 C 1.01895 0.68549 0.31237
 C254 C 0.98701 0.68600 0.31338
 C255 C 0.96986 0.70529 0.33497
 C256 C 0.96754 0.66625 0.29392
 C257 C 1.03621 0.66327 0.29388
 C258 C 1.03830 0.70597 0.33119
 C259 C 0.97573 0.70335 0.36577
 C260 C 0.95922 0.72138 0.38585
 C261 C 0.93556 0.74098 0.37575
 C262 C 0.93032 0.74326 0.34470
 C263 C 0.94702 0.72534 0.32463
 C264 C 0.94618 0.64619 0.30697
 C265 C 0.92837 0.62674 0.28917
 C266 C 0.93069 0.62754 0.25776
 C267 C 0.95256 0.64752 0.24481
 C268 C 0.97052 0.66689 0.26270
 C269 C 1.05867 0.67319 0.27330
 C270 C 1.07550 0.65254 0.25613
 C271 C 1.07107 0.62122 0.25986
 C272 C 1.04754 0.61160 0.27995
 C273 C 1.03083 0.63230 0.29713
 C274 C 1.03473 0.73729 0.32976
 C275 C 1.05175 0.75613 0.34901
 C276 C 1.07340 0.74407 0.36971
 C277 C 1.07641 0.71244 0.37101
 C278 C 1.05952 0.69375 0.35170
 H279 H 0.99309 0.68782 0.37429
 H280 H 0.96484 0.71981 0.40941
 H281 H 0.91376 0.75912 0.33557
 H282 H 0.94240 0.72738 0.30089
 H283 H 0.94388 0.64505 0.33105
 H284 H 0.91301 0.61075 0.30011
 H285 H 0.98705 0.68214 0.25223
 H286 H 1.06282 0.69706 0.27019
 H287 H 1.09154 0.66141 0.23964
 H288 H 1.04178 0.58799 0.28240
 H289 H 1.01362 0.62413 0.31297
 H290 H 1.01822 0.74711 0.31418
 H291 H 1.04693 0.77995 0.34802
 H292 H 1.09151 0.70196 0.38744
 H293 H 1.06221 0.66959 0.35348
 H294 H 0.95647 0.64790 0.22096
 C295 C 1.01321 0.31277 0.68553
 C296 C 0.98133 0.31436 0.68659
 C297 C 0.96126 0.29483 0.66749
 C298 C 0.96516 0.33694 0.70546
 C299 C 1.03341 0.33179 0.70500
 C300 C 1.02945 0.29340 0.66347
 C301 C 0.94064 0.30798 0.64695
 C302 C 0.92341 0.29004 0.62717
 C303 C 0.92560 0.25842 0.62805
 C304 C 0.94644 0.24537 0.64880
 C305 C 0.96378 0.26338 0.66852
 C306 C 0.97135 0.36775 0.70195
 C307 C 0.95655 0.38888 0.72017
 C308 C 0.93544 0.37964 0.74261
 C309 C 0.92802 0.34877 0.74476
 C310 C 0.94288 0.32766 0.72651
 C311 C 1.03066 0.33092 0.73623
 C312 C 1.04883 0.35009 0.75414
 C313 C 1.07066 0.37010 0.74117
 C314 C 1.07291 0.37097 0.70976
 C315 C 1.05490 0.35172 0.69195
 C316 C 1.05118 0.27200 0.67319
 C317 C 1.06664 0.25371 0.65256
 C318 C 1.06031 0.25601 0.62162
 C319 C 1.03970 0.27891 0.61209
 C320 C 1.02428 0.29713 0.63276
 H321 H 0.93876 0.33224 0.64550
 H322 H 0.90880 0.30105 0.61070
 H323 H 0.95024 0.22136 0.64939
 H324 H 0.97978 0.25284 0.68413
 H325 H 0.98755 0.37544 0.68495
 H326 H 0.96139 0.41242 0.71615
 H327 H 0.93718 0.30401 0.72898
 H328 H 1.01401 0.31578 0.74669
 H329 H 1.04502 0.34964 0.77801
 H330 H 1.08825 0.38697 0.69882
 H331 H 1.05700 0.35303 0.66786
 H332 H 1.05619 0.26947 0.69681
 H333 H 1.08392 0.23810 0.66100
 H334 H 1.03580 0.28338 0.58861
 H335 H 1.00859 0.31447 0.62478
 H336 H 0.91060 0.34089 0.76050
 C337 C 0.31159 -0.01298 0.31316
 C338 C 0.31203 0.01766 0.31421
 C339 C 0.33224 0.03567 0.29400
 C340 C 0.29375 0.03483 0.33664
 C341 C 0.29104 -0.03103 0.33313
 C342 C 0.33315 -0.02989 0.29335
 C343 C 0.35505 0.05482 0.30626
 C344 C 0.37481 0.07143 0.28771
 C345 C 0.37163 0.07006 0.25638
 C346 C 0.34885 0.05044 0.24416
 C347 C 0.32920 0.03360 0.26283
 C348 C 0.29776 0.02973 0.36734
 C349 C 0.28070 0.04633 0.38821
 C350 C 0.26004 0.06919 0.37890
 C351 C 0.25554 0.07352 0.34798
 C352 C 0.27258 0.05687 0.32714
 C353 C 0.25865 -0.02577 0.33463
 C354 C 0.24009 -0.04124 0.35531
 C355 C 0.25359 -0.06231 0.37501
 C356 C 0.28570 -0.06890 0.37184
 C357 C 0.30423 -0.05330 0.35133
 C358 C 0.32111 -0.05058 0.27262
 C359 C 0.34126 -0.06659 0.25388
 C360 C 0.37406 -0.06189 0.25509
 C361 C 0.38590 -0.04233 0.27740
 C362 C 0.36570 -0.02633 0.29603
 H363 H 0.35801 0.05640 0.33028
 H364 H 0.39286 0.08526 0.29794
 H365 H 0.34644 0.04739 0.22032
 H366 H 0.31179 0.01875 0.25299
 H367 H 0.31404 0.01280 0.37513
 H368 H 0.28363 0.04101 0.41163
 H369 H 0.26893 0.06087 0.30350
 H370 H 0.24781 -0.00941 0.32001
 H371 H 0.21525 -0.03665 0.35540
 H372 H 0.29663 -0.08587 0.38568
 H373 H 0.32909 -0.05811 0.35019
 H374 H 0.29604 -0.05432 0.27094
 H375 H 0.33093 -0.08297 0.23886
 H376 H 0.41088 -0.03956 0.28089
 H377 H 0.37549 -0.01141 0.31283
 H378 H 0.23864 0.08960 0.33974
 C379 C 0.68997 -0.01669 0.68725
 C380 C 0.68943 0.01403 0.68726
 C381 C 0.66731 0.03127 0.70632
 C382 C 0.70980 0.03194 0.66694
 C383 C 0.70883 -0.03366 0.66505
 C384 C 0.67045 -0.03471 0.70821
 C385 C 0.63490 0.02581 0.70500
 C386 C 0.61437 0.04231 0.72288
 C387 C 0.62558 0.06550 0.74167
 C388 C 0.65824 0.07040 0.74328
 C389 C 0.67877 0.05374 0.72551
 C390 C 0.69632 0.05335 0.64793
 C391 C 0.71480 0.06897 0.62739
 C392 C 0.74717 0.06324 0.62496
 C393 C 0.76089 0.04301 0.64537
 C394 C 0.74238 0.02756 0.66612
 C395 C 0.73136 -0.05435 0.67472
 C396 C 0.74988 -0.06969 0.65398
 C397 C 0.74650 -0.06438 0.62307
 C398 C 0.72252 -0.04484 0.61356
 C399 C 0.70407 -0.02951 0.63430
 C400 C 0.67124 -0.02938 0.73912
 C401 C 0.65066 -0.04459 0.75821
 C402 C 0.62851 -0.06543 0.74677
 C403 C 0.62997 -0.07247 0.71599
 C404 C 0.65038 -0.05710 0.69697
 H405 H 0.62550 0.00869 0.69018
 H406 H 0.58960 0.03693 0.72192
 H407 H 0.66827 0.08669 0.75854
 H408 H 0.70376 0.05807 0.72705
 H409 H 0.67131 0.05751 0.64853
 H410 H 0.70364 0.08529 0.61295
 H411 H 0.75343 0.01193 0.68138
 H412 H 0.73479 -0.05842 0.69837
 H413 H 0.76651 -0.08596 0.66230
 H414 H 0.71775 -0.04154 0.59003
 H415 H 0.68599 -0.01442 0.62639
 H416 H 0.68754 -0.01309 0.74843
 H417 H 0.65259 -0.03991 0.78184
 H418 H 0.61474 -0.08953 0.70641
 H419 H 0.64989 -0.06213 0.67327
 H420 H 0.78585 0.03910 0.64581
 C421 C 0.30377 1.01539 0.69193
 C422 C 0.30571 0.98478 0.69129
 C423 C 0.32892 0.96834 0.70980
 C424 C 0.28623 0.96641 0.67054
 C425 C 0.28459 1.03192 0.66971
 C426 C 0.32299 1.03379 0.71298
 C427 C 0.36108 0.97460 0.70729
 C428 C 0.38276 0.95952 0.72521
 C429 C 0.37274 0.93807 0.74637
 C430 C 0.34055 0.93077 0.74751
 C431 C 0.31888 0.94587 0.72955
 C432 C 0.30089 0.94781 0.64954
 C433 C 0.28305 0.93126 0.62909
 C434 C 0.25001 0.93210 0.62969
 C435 C 0.23542 0.95113 0.65070
 C436 C 0.25337 0.96793 0.67103
 C437 C 0.26140 1.05196 0.67924
 C438 C 0.24360 1.06792 0.65836
 C439 C 0.24847 1.06391 0.62743
 C440 C 0.27285 1.04474 0.61819
 C441 C 0.29052 1.02877 0.63905
 C442 C 0.32328 1.02776 0.74378
 C443 C 0.34418 1.04291 0.76274
 C444 C 0.36523 1.06455 0.75126
 C445 C 0.36280 1.07225 0.72081
 C446 C 0.34217 1.05689 0.70187
 H447 H 0.36938 0.99109 0.69132
 H448 H 0.40737 0.96443 0.72198
 H449 H 0.33205 0.91316 0.76213
 H450 H 0.29421 0.94020 0.73122
 H451 H 0.32624 0.94667 0.64852
 H452 H 0.29518 0.91781 0.61258
 H453 H 0.24166 0.98237 0.68698
 H454 H 0.25715 1.05529 0.70288
 H455 H 0.22657 1.08380 0.66665
 H456 H 0.27862 1.04236 0.59476
 H457 H 0.30917 1.01425 0.63132
 H458 H 0.30778 1.01080 0.75303
 H459 H 0.34356 1.03745 0.78623
 H460 H 0.37764 1.08967 0.71143
 H461 H 0.34198 1.06236 0.67828
 H462 H 0.21027 0.95376 0.65125
 C463 C 0.69253 1.01272 0.31047
 C464 C 0.69214 0.98205 0.30918
 C465 C 0.66972 0.96541 0.28969
 C466 C 0.71271 0.96365 0.32882
 C467 C 0.71170 1.02922 0.33296
 C468 C 0.67238 1.03136 0.29078
 C469 C 0.63736 0.97064 0.29150
 C470 C 0.61647 0.95446 0.27349
 C471 C 0.62725 0.93172 0.25412
 C472 C 0.65986 0.92706 0.25197
 C473 C 0.68078 0.94350 0.26981
 C474 C 0.69939 0.94177 0.34748
 C475 C 0.71796 0.92631 0.36806
 C476 C 0.75023 0.93271 0.37086
 C477 C 0.76385 0.95310 0.35048
 C478 C 0.74526 0.96842 0.32974
 C479 C 0.73320 1.05118 0.32367
 C480 C 0.75129 1.06692 0.34463
 C481 C 0.74875 1.06068 0.37550
 C482 C 0.72573 1.03963 0.38460
 C483 C 0.70767 1.02397 0.36360
 C484 C 0.67417 1.02923 0.25953
 C485 C 0.65436 1.04647 0.24143
 C486 C 0.63268 1.06658 0.25426
 C487 C 0.63075 1.06804 0.28567
 C488 C 0.65069 1.05105 0.30365
 H489 H 0.62822 0.98718 0.30696
 H490 H 0.59171 0.95956 0.27497
 H491 H 0.66956 0.91110 0.23632
 H492 H 0.70571 0.93932 0.26793
 H493 H 0.67440 0.93728 0.34676
 H494 H 0.70690 0.90974 0.38234
 H495 H 0.75619 0.98442 0.31473
 H496 H 0.73592 1.05619 0.30012
 H497 H 0.76677 1.08439 0.33644
 H498 H 0.72107 1.03557 0.40802
 H499 H 0.69022 1.00797 0.37126
 H500 H 0.69067 1.01397 0.24919
 H501 H 0.65575 1.04335 0.21752
 H502 H 0.61353 1.08222 0.29642
 H503 H 0.64864 1.05269 0.32774
 H504 H 0.78879 0.95738 0.35022
 O505 O 0.84054 0.87910 0.52818
 O506 O 0.88412 0.83596 0.47133
 O507 O 0.84303 0.87919 0.46995
 O508 O 0.88330 0.83731 0.52934
 O509 O 0.84601 0.80268 0.52830
 O510 O 0.80488 0.84542 0.46958
 O511 O 0.84589 0.80227 0.47027
 O512 O 0.80320 0.84452 0.52763
 Cu513 Cu 0.86650 0.86137 0.49980
 Cu514 Cu 0.82120 0.82031 0.49891
 C515 C 0.81436 0.86911 0.53756
 C516 C 0.87234 0.81167 0.46116
 C517 C 0.81707 0.86958 0.45967
 C518 C 0.87181 0.81268 0.53871
 O519 O 0.15995 0.12320 0.52987
 O520 O 0.11950 0.16623 0.47122
 O521 O 0.16165 0.12358 0.47176
 O522 O 0.11818 0.16575 0.52908
 O523 O 0.15588 0.19999 0.53023
 O524 O 0.19930 0.15786 0.47317
 O525 O 0.15732 0.20033 0.47242
 O526 O 0.19768 0.15741 0.53109
 Cu527 Cu 0.13605 0.14120 0.50031
 Cu528 Cu 0.18136 0.18231 0.50183
 C529 C 0.18579 0.13290 0.54040
 C530 C 0.13130 0.19085 0.46213
 C531 C 0.18805 0.13344 0.46288
 C532 C 0.12950 0.19024 0.53921
 O533 O 0.12001 0.83221 0.52669
 O534 O 0.16064 0.87871 0.47092
 O535 O 0.12128 0.83387 0.46867
 O536 O 0.16071 0.87632 0.52920
 O537 O 0.19908 0.84312 0.52907
 O538 O 0.16105 0.80223 0.46753
 O539 O 0.20026 0.84687 0.47093
 O540 O 0.15862 0.79927 0.52538
 Cu541 Cu 0.13676 0.85859 0.49900
 Cu542 Cu 0.18372 0.81968 0.49821
 C543 C 0.13212 0.80763 0.53526
 C544 C 0.18735 0.87071 0.46135
 C545 C 0.13464 0.81086 0.45768
 C546 C 0.18656 0.86670 0.53963
 O547 O 0.87752 0.16783 0.52803
 O548 O 0.83784 0.12265 0.46981
 O549 O 0.87757 0.16766 0.46968
 O550 O 0.83918 0.12221 0.52794
 O551 O 0.79909 0.15352 0.52803
 O552 O 0.83770 0.19919 0.47013
 O553 O 0.79817 0.15441 0.47021
 O554 O 0.83740 0.19906 0.52850
 Cu555 Cu 0.86209 0.14196 0.49875
 Cu556 Cu 0.81417 0.17979 0.49922
 C557 C 0.86399 0.19101 0.53842
 C558 C 0.81107 0.13075 0.46027
 C559 C 0.86419 0.19118 0.45995
 C560 C 0.81255 0.13006 0.53786
 O561 O 0.53031 0.83899 0.87955
 O562 O 0.46987 0.88090 0.83802
 O563 O 0.46953 0.83958 0.87973
 O564 O 0.53083 0.88149 0.83944
 O565 O 0.53086 0.84678 0.80406
 O566 O 0.46955 0.80476 0.84445
 O567 O 0.47013 0.84596 0.80288
 O568 O 0.53022 0.80420 0.84424
 Cu569 Cu 0.50008 0.86377 0.86271
 Cu570 Cu 0.50020 0.82195 0.82036
 C571 C 0.54028 0.81421 0.86908
 C572 C 0.45996 0.87069 0.81315
 C573 C 0.45940 0.81481 0.86921
 C574 C 0.54116 0.87143 0.81479
 O575 O 0.53288 0.16184 0.12199
 O576 O 0.47130 0.12225 0.16451
 O577 O 0.47191 0.16293 0.12233
 O578 O 0.53240 0.12125 0.16418
 O579 O 0.53312 0.15716 0.19835
 O580 O 0.47373 0.19919 0.15612
 O581 O 0.47202 0.15868 0.19813
 O582 O 0.53439 0.19731 0.15661
 Cu583 Cu 0.50197 0.13841 0.13984
 Cu584 Cu 0.50334 0.18163 0.18077
 C585 C 0.54420 0.18631 0.13217
 C586 C 0.46111 0.13382 0.18857
 C587 C 0.46284 0.18840 0.13190
 C588 C 0.54315 0.13221 0.18841
 O589 O 0.52975 0.11677 0.83877
 O590 O 0.47109 0.15794 0.88313
 O591 O 0.46879 0.11660 0.84192
 O592 O 0.53196 0.15832 0.88033
 O593 O 0.52966 0.19382 0.84592
 O594 O 0.46745 0.15153 0.80688
 O595 O 0.46911 0.19297 0.84822
 O596 O 0.52833 0.15244 0.80449
 Cu597 Cu 0.50066 0.13384 0.86450
 Cu598 Cu 0.49846 0.17617 0.82286
 C599 C 0.53892 0.12754 0.81397
 C600 C 0.46019 0.18260 0.87328
 C601 C 0.45745 0.12691 0.81775
 C602 C 0.54120 0.18345 0.86997
 O603 O 0.46407 0.83871 0.12042
 O604 O 0.52620 0.88027 0.16094
 O605 O 0.52520 0.83962 0.11867
 O606 O 0.46551 0.88023 0.16190
 O607 O 0.46735 0.84526 0.19689
 O608 O 0.52538 0.80351 0.15252
 O609 O 0.52787 0.84400 0.19461
 O610 O 0.46444 0.80396 0.15564
 Cu611 Cu 0.49513 0.86322 0.13694
 Cu612 Cu 0.49636 0.82055 0.17829
 C613 C 0.45350 0.81429 0.13134
 C614 C 0.53742 0.86923 0.18487
 C615 C 0.53534 0.81454 0.12811
 C616 C 0.45672 0.87001 0.18705
 O617 O 0.88320 0.53137 0.83721
 O618 O 0.84494 0.47246 0.88224
 O619 O 0.88357 0.47332 0.83733
 O620 O 0.84439 0.53149 0.88232
 O621 O 0.80422 0.53065 0.85108
 O622 O 0.84355 0.47291 0.80587
 O623 O 0.80494 0.47202 0.85080
 O624 O 0.84290 0.53100 0.80609
 Cu625 Cu 0.86795 0.50226 0.86310
 Cu626 Cu 0.81978 0.50163 0.82543
 C627 C 0.86978 0.54082 0.81366
 C628 C 0.81853 0.46198 0.87399
 C629 C 0.87043 0.46351 0.81370
 C630 C 0.81763 0.54106 0.87430
 O631 O 0.11878 0.52770 0.16411
 O632 O 0.15795 0.46921 0.11959
 O633 O 0.11866 0.46927 0.16415
 O634 O 0.15926 0.52789 0.12023
 O635 O 0.19826 0.52774 0.15278
 O636 O 0.15846 0.46853 0.19581
 O637 O 0.19763 0.46939 0.15143
 O638 O 0.15789 0.52702 0.19654
 Cu639 Cu 0.13473 0.49861 0.13875
 Cu640 Cu 0.18199 0.49819 0.17737
 C641 C 0.13146 0.53708 0.18812
 C642 C 0.18451 0.45938 0.12787
 C643 C 0.13177 0.45884 0.18746
 C644 C 0.18579 0.53773 0.12901
 O645 O 0.87758 0.47176 0.16750
 O646 O 0.83539 0.52930 0.12410
 O647 O 0.87685 0.53022 0.16710
 O648 O 0.83639 0.47086 0.12406
 O649 O 0.79823 0.47033 0.15735
 O650 O 0.83839 0.52988 0.20009
 O651 O 0.79721 0.52862 0.15739
 O652 O 0.83925 0.47144 0.20064
 Cu653 Cu 0.86042 0.50055 0.14234
 Cu654 Cu 0.81445 0.49995 0.18222
 C655 C 0.86566 0.46200 0.19164
 C656 C 0.80901 0.53866 0.13335
 C657 C 0.86448 0.54021 0.19092
 C658 C 0.81026 0.46066 0.13324
 O659 O 0.16380 0.52882 0.87329
 O660 O 0.12358 0.46866 0.83107
 O661 O 0.16492 0.47030 0.87433
 O662 O 0.12267 0.52728 0.83007
 O663 O 0.16096 0.52714 0.79692
 O664 O 0.20331 0.47087 0.84128
 O665 O 0.16219 0.46857 0.79826
 O666 O 0.20171 0.52923 0.83973
 Cu667 Cu 0.13986 0.49870 0.85552
 Cu668 Cu 0.18585 0.49889 0.81571
 C669 C 0.18954 0.53943 0.86354
 C670 C 0.13609 0.45833 0.80746
 C671 C 0.19147 0.46106 0.86542
 C672 C 0.13475 0.53705 0.80600
 C673 C 0.23193 0.39571 0.07893
 C674 C 0.24781 0.42695 0.07997
 C675 C 0.23187 0.44782 0.09612
 C676 C 0.20118 0.43597 0.10962
 C677 C 0.18272 0.42330 0.08276
 C678 C 0.19875 0.40238 0.06663
 C679 C 0.22663 0.38725 0.11187
 C680 C 0.21057 0.40818 0.12783
 H681 H 0.26939 0.43243 0.06830
 H682 H 0.23994 0.47094 0.09833
 H683 H 0.15955 0.43091 0.07620
 H684 H 0.18900 0.39323 0.04616
 H685 H 0.23455 0.36629 0.12171
 H686 H 0.20479 0.40509 0.15126
 C687 C 0.75816 0.60169 0.08698
 C688 C 0.78877 0.59271 0.07127
 C689 C 0.80597 0.57189 0.08633
 C690 C 0.79102 0.56173 0.11591
 C691 C 0.78568 0.59090 0.13357
 C692 C 0.76834 0.61170 0.11865
 C693 C 0.74070 0.57172 0.09247
 C694 C 0.75799 0.55084 0.10730
 H695 H 0.79629 0.60202 0.05002
 H696 H 0.82810 0.56350 0.07783
 H697 H 0.79376 0.59441 0.15636
 H698 H 0.76110 0.63243 0.12938
 H699 H 0.71641 0.56756 0.08638
 H700 H 0.74860 0.52889 0.11322
 C701 C 0.77329 0.39522 0.92098
 C702 C 0.77911 0.38781 0.88787
 C703 C 0.79447 0.40980 0.87260
 C704 C 0.80269 0.43752 0.89163
 C705 C 0.77150 0.44770 0.90523
 C706 C 0.75626 0.42577 0.92069
 C707 C 0.80613 0.40299 0.93368
 C708 C 0.82146 0.42500 0.91823
 H709 H 0.77208 0.36676 0.87741
 H710 H 0.80052 0.40752 0.84914
 H711 H 0.76254 0.47048 0.90353
 H712 H 0.73439 0.43001 0.93232
 H713 H 0.81614 0.39369 0.95389
 H714 H 0.84431 0.43341 0.92511
 C715 C 0.23451 0.60590 0.91157
 C716 C 0.19941 0.61220 0.90567
 C717 C 0.18459 0.59021 0.88963
 C718 C 0.20599 0.56396 0.88073
 C719 C 0.23337 0.57903 0.86402
 C720 C 0.24804 0.60104 0.87999
 C721 C 0.23511 0.57463 0.92622
 C722 C 0.22023 0.55280 0.91017
 H723 H 0.18749 0.63287 0.91151
 H724 H 0.16026 0.59206 0.88266
 H725 H 0.23993 0.57381 0.84117
 H726 H 0.26679 0.61455 0.87048
 H727 H 0.24626 0.57009 0.94758
 H728 H 0.21878 0.52962 0.91775
 C729 C 0.08548 0.24375 0.40071
 C730 C 0.09266 0.25941 0.43079
 C731 C 0.10734 0.24151 0.45105
 C732 C 0.11420 0.20966 0.43950
 C733 C 0.08216 0.19728 0.42932
 C734 C 0.06724 0.21509 0.40913
 C735 C 0.11792 0.23247 0.39031
 C736 C 0.13273 0.21452 0.41052
 H737 H 0.08780 0.28290 0.43548
 H738 H 0.11430 0.24961 0.47302
 H739 H 0.07195 0.17634 0.43723
 H740 H 0.04442 0.20929 0.39990
 H741 H 0.12934 0.23928 0.36975
 H742 H 0.15605 0.20559 0.40670
 C743 C 0.08227 0.75587 0.59490
 C744 C 0.06497 0.76224 0.56521
 C745 C 0.08191 0.77895 0.54549
 C746 C 0.11442 0.78835 0.55712
 C747 C 0.10794 0.80436 0.58689
 C748 C 0.09096 0.78756 0.60654
 C749 C 0.11364 0.74182 0.58558
 C750 C 0.13044 0.75869 0.56589
 H751 H 0.04082 0.75602 0.56059
 H752 H 0.07242 0.78604 0.52410
 H753 H 0.11531 0.82728 0.59178
 H754 H 0.08344 0.79657 0.62791
 H755 H 0.12193 0.72029 0.59381
 H756 H 0.15303 0.75146 0.55742
 C757 C 0.91769 0.76015 0.39826
 C758 C 0.88620 0.77356 0.38760
 C759 C 0.87172 0.79101 0.40840
 C760 C 0.88952 0.79337 0.43817
 C761 C 0.89443 0.76062 0.44799
 C762 C 0.90883 0.74322 0.42713
 C763 C 0.93707 0.78742 0.40895
 C764 C 0.92242 0.80479 0.42973
 H765 H 0.87486 0.76839 0.36649
 H766 H 0.84895 0.80116 0.40446
 H767 H 0.88649 0.75166 0.46925
 H768 H 0.91268 0.71935 0.43061
 H769 H 0.96042 0.79264 0.40075
 H770 H 0.93337 0.82474 0.43922
 C771 C 0.90821 0.23954 0.60481
 C772 C 0.87504 0.25103 0.59728
 C773 C 0.86031 0.23526 0.57521
 C774 C 0.87976 0.20897 0.56275
 C775 C 0.91082 0.22328 0.55285
 C776 C 0.92563 0.23921 0.57475
 C777 C 0.90278 0.20603 0.61245
 C778 C 0.88805 0.19013 0.59040
 H779 H 0.86351 0.26922 0.60909
 H780 H 0.83656 0.24043 0.56818
 H781 H 0.92036 0.22111 0.53047
 H782 H 0.94790 0.25056 0.57105
 H783 H 0.90786 0.19589 0.63394
 H784 H 0.88149 0.16664 0.59302
 C785 C 0.39447 0.08779 0.23698
 C786 C 0.40078 0.12000 0.24848
 C787 C 0.42281 0.13535 0.23264
 C788 C 0.43643 0.11743 0.20626
 C789 C 0.44870 0.08821 0.22011
 C790 C 0.42687 0.07280 0.23612
 C791 C 0.38556 0.09251 0.20380
 C792 C 0.40759 0.10793 0.18782
 H793 H 0.38816 0.13031 0.26687
 H794 H 0.42896 0.15851 0.23783
 H795 H 0.47255 0.08022 0.21744
 H796 H 0.43213 0.05161 0.24707
 H797 H 0.36321 0.08635 0.19392
 H798 H 0.40410 0.11405 0.16456
 C799 C 0.60269 0.08308 0.76110
 C800 C 0.59324 0.06541 0.78923
 C801 C 0.57223 0.07983 0.80702
 C802 C 0.56231 0.11083 0.79514
 C803 C 0.59314 0.12822 0.79082
 C804 C 0.61418 0.11393 0.77292
 C805 C 0.57140 0.09053 0.74545
 C806 C 0.55030 0.10474 0.76329
 H807 H 0.60241 0.04333 0.79470
 H808 H 0.56353 0.06994 0.82758
 H809 H 0.59753 0.15048 0.80002
 H810 H 0.63592 0.12481 0.76643
 H811 H 0.56654 0.08599 0.72204
 H812 H 0.52748 0.11180 0.75517
 C813 C 0.39633 0.92062 0.76512
 C814 C 0.42762 0.93699 0.77178
 C815 C 0.44861 0.92012 0.78735
 C816 C 0.43652 0.88858 0.79544
 C817 C 0.40560 0.89412 0.81205
 C818 C 0.38467 0.91102 0.79636
 C819 C 0.40579 0.89113 0.74970
 C820 C 0.42670 0.87441 0.76542
 H821 H 0.43240 0.96036 0.76642
 H822 H 0.47128 0.92891 0.79435
 H823 H 0.40093 0.88619 0.83456
 H824 H 0.36243 0.91786 0.80591
 H825 H 0.39673 0.88400 0.72810
 H826 H 0.43534 0.85304 0.75710
 C827 C 0.60372 0.91402 0.23523
 C828 C 0.61502 0.88381 0.22197
 C829 C 0.59312 0.86943 0.20485
 C830 C 0.56177 0.88611 0.20263
 C831 C 0.55169 0.89109 0.23520
 C832 C 0.57362 0.90532 0.25227
 C833 C 0.59218 0.93217 0.20812
 C834 C 0.57034 0.91766 0.19107
 H835 H 0.63732 0.87333 0.22695
 H836 H 0.59733 0.84755 0.19481
 H837 H 0.52944 0.88342 0.24426
 H838 H 0.57010 0.90925 0.27598
 H839 H 0.60062 0.95461 0.20275
 H840 H 0.56018 0.92780 0.17125
 C841 C 0.39796 0.23349 0.92168
 C842 C 0.42896 0.24748 0.91770
 C843 C 0.45032 0.22947 0.90087
 C844 C 0.43714 0.20059 0.89153
 C845 C 0.42649 0.18630 0.91918
 C846 C 0.40509 0.20450 0.93596
 C847 C 0.38710 0.22585 0.89156
 C848 C 0.40859 0.20773 0.87502
 H849 H 0.43660 0.26801 0.92882
 H850 H 0.47474 0.23585 0.89780
 H851 H 0.43597 0.16551 0.92807
 H852 H 0.39911 0.19869 0.95881
 H853 H 0.36455 0.23259 0.88243
 H854 H 0.40353 0.19969 0.85257
 C855 C 0.60375 0.76581 0.91871
 C856 C 0.61592 0.79698 0.90860
 C857 C 0.59498 0.81276 0.89179
 C858 C 0.56365 0.79634 0.88682
 C859 C 0.57259 0.76580 0.87309
 C860 C 0.59345 0.74996 0.88975
 C861 C 0.57292 0.77315 0.93515
 C862 C 0.55194 0.78879 0.91838
 H863 H 0.63818 0.80675 0.91536
 H864 H 0.59984 0.83536 0.88377
 H865 H 0.56341 0.75724 0.85206
 H866 H 0.60199 0.72802 0.88288
 H867 H 0.56835 0.76760 0.95836
 H868 H 0.52943 0.79596 0.92713
 C869 C 0.38606 0.76627 0.08524
 C870 C 0.39081 0.75583 0.11785
 C871 C 0.41309 0.77157 0.13312
 C872 C 0.42849 0.79692 0.11484
 C873 C 0.44104 0.78149 0.08667
 C874 C 0.41902 0.76554 0.07128
 C875 C 0.37852 0.80018 0.08867
 C876 C 0.40081 0.81608 0.10402
 H877 H 0.37686 0.73843 0.12855
 H878 H 0.41808 0.76721 0.15652
 H879 H 0.46528 0.78302 0.07938
 H880 H 0.42454 0.75356 0.05078
 H881 H 0.35667 0.81065 0.08205
 H882 H 0.39807 0.83975 0.10943
 C883 C 0.61057 0.23221 0.08335
 C884 C 0.57712 0.23348 0.07046
 C885 C 0.55540 0.21822 0.08676
 C886 C 0.56882 0.20292 0.11465
 C887 C 0.59557 0.18302 0.10307
 C888 C 0.61746 0.19823 0.08672
 C889 C 0.60741 0.24329 0.11586
 C890 C 0.58554 0.22821 0.13210
 H891 H 0.57109 0.24528 0.05002
 H892 H 0.53085 0.21711 0.08032
 H893 H 0.59781 0.15928 0.10832
 H894 H 0.63842 0.18706 0.07887
 H895 H 0.62187 0.26096 0.12559
 H896 H 0.58143 0.23323 0.15552
 C897 C 0.23051 0.08221 0.60433
 C898 C 0.22379 0.06539 0.57478
 C899 C 0.20944 0.08249 0.55361
 C900 C 0.20245 0.11476 0.56385
 C901 C 0.18347 0.11103 0.59274
 C902 C 0.19794 0.09388 0.61385
 C903 C 0.24890 0.11051 0.59509
 C904 C 0.23434 0.12751 0.57403
 H905 H 0.22881 0.04175 0.57107
 H906 H 0.20284 0.07357 0.53186
 H907 H 0.16009 0.12010 0.59588
 H908 H 0.18621 0.08788 0.63449
 H909 H 0.27156 0.11668 0.60444
 H910 H 0.24471 0.14812 0.56549
 C911 C 0.76594 0.07825 0.39739
 C912 C 0.77359 0.06184 0.42698
 C913 C 0.78812 0.07950 0.44777
 C914 C 0.79440 0.11182 0.43721
 C915 C 0.81288 0.10821 0.40803
 C916 C 0.79828 0.09048 0.38731
 C917 C 0.74740 0.10627 0.40682
 C918 C 0.76213 0.12375 0.42750
 H919 H 0.76959 0.03802 0.43085
 H920 H 0.79562 0.07088 0.46932
 H921 H 0.83611 0.11765 0.40447
 H922 H 0.80979 0.08438 0.36657
 H923 H 0.72446 0.11195 0.39790
 H924 H 0.75162 0.14422 0.43606
 C925 C 0.76575 0.91822 0.60021
 C926 C 0.77278 0.93536 0.57096
 C927 C 0.78850 0.91884 0.55021
 C928 C 0.79637 0.88680 0.56051
 C929 C 0.81425 0.89111 0.59005
 C930 C 0.79845 0.90767 0.61074
 C931 C 0.74878 0.88935 0.59021
 C932 C 0.76464 0.87295 0.56957
 H933 H 0.76713 0.95885 0.56724
 H934 H 0.79558 0.92808 0.52878
 H935 H 0.83783 0.88282 0.59395
 H936 H 0.80918 0.91396 0.63186
 H937 H 0.72606 0.88237 0.59874
 H938 H 0.75530 0.85203 0.56060
 C939 C 0.23452 0.92090 0.39849
 C940 C 0.25117 0.91886 0.42909
 C941 C 0.23538 0.90229 0.44978
 C942 C 0.20410 0.88945 0.43838
 C943 C 0.18598 0.91707 0.42703
 C944 C 0.20186 0.93360 0.40634
 C945 C 0.22827 0.88805 0.38931
 C946 C 0.21238 0.87169 0.41006
 H947 H 0.27310 0.93022 0.43434
 H948 H 0.24393 0.89939 0.47248
 H949 H 0.16326 0.92395 0.43548
 H950 H 0.19253 0.95473 0.39828
 H951 H 0.23548 0.87856 0.36805
 H952 H 0.20604 0.84826 0.40650
 C953 C 0.08908 0.39279 0.75987
 C954 C 0.09428 0.38497 0.79316
 C955 C 0.11001 0.40665 0.80884
 C956 C 0.11938 0.43412 0.79000
 C957 C 0.13821 0.42083 0.76383
 C958 C 0.12252 0.39913 0.74830
 C959 C 0.07294 0.42365 0.76023
 C960 C 0.08870 0.44515 0.77593
 H961 H 0.08821 0.36358 0.80330
 H962 H 0.11649 0.40386 0.83216
 H963 H 0.16227 0.42695 0.75864
 H964 H 0.13353 0.38672 0.73026
 H965 H 0.05079 0.42815 0.74910
 H966 H 0.08006 0.46799 0.77814
 C967 C 0.08764 0.59960 0.24158
 C968 C 0.12016 0.60959 0.22977
 C969 C 0.13421 0.58903 0.21165
 C970 C 0.11508 0.56002 0.20723
 C971 C 0.10866 0.54862 0.23902
 C972 C 0.09469 0.56927 0.25707
 C973 C 0.06877 0.59110 0.21343
 C974 C 0.08300 0.57053 0.19553
 H975 H 0.13235 0.62999 0.23653
 H976 H 0.15752 0.59250 0.20251
 H977 H 0.11557 0.52655 0.24700
 H978 H 0.09052 0.56473 0.28057
 H979 H 0.04601 0.60055 0.20800
 H980 H 0.07227 0.56256 0.17494
 C981 C 0.91127 0.40013 0.24433
 C982 C 0.90359 0.43018 0.26010
 C983 C 0.88911 0.45063 0.24225
 C984 C 0.88281 0.43931 0.21035
 C985 C 0.91506 0.42960 0.19854
 C986 C 0.92984 0.40921 0.21627
 C987 C 0.87894 0.38951 0.23238
 C988 C 0.86437 0.40988 0.21446
 H989 H 0.90789 0.43468 0.28362
 H990 H 0.88182 0.47254 0.25042
 H991 H 0.92548 0.43794 0.17803
 H992 H 0.95279 0.40027 0.21076
 H993 H 0.86714 0.36891 0.23901
 H994 H 0.84108 0.40600 0.20531
 C995 C 0.91295 0.60154 0.75769
 C996 C 0.93317 0.59257 0.78476
 C997 C 0.91915 0.57264 0.80357
 C998 C 0.88594 0.56322 0.79376
 C999 C 0.86793 0.59283 0.79031
 C1000 C 0.88176 0.61279 0.77132
 C1001 C 0.90349 0.57142 0.74280
 C1002 C 0.88981 0.55140 0.76172
 H1003 H 0.95665 0.60128 0.78885
 H1004 H 0.93075 0.56446 0.82357
 H1005 H 0.84541 0.59714 0.80075
 H1006 H 0.87009 0.63352 0.76514
 H1007 H 0.90602 0.56658 0.71913
 H1008 H 0.88146 0.52951 0.75427
 C1009 C 0.77052 0.60547 0.92264
 C1010 C 0.77576 0.61348 0.88958
 C1011 C 0.79172 0.59230 0.87384
 C1012 C 0.80111 0.56473 0.89238
 C1013 C 0.81968 0.57772 0.91901
 C1014 C 0.80374 0.59891 0.93492
 C1015 C 0.75458 0.57425 0.92202
 C1016 C 0.77042 0.55313 0.90611
 H1017 H 0.76790 0.63434 0.87949
 H1018 H 0.79746 0.59509 0.85036
 H1019 H 0.84291 0.57023 0.92553
 H1020 H 0.81369 0.60846 0.95512
 H1021 H 0.73296 0.56899 0.93373
 H1022 H 0.76223 0.53004 0.90412
 C1023 C 0.24263 0.39920 0.91329
 C1024 C 0.23396 0.38911 0.88125
 C1025 C 0.21653 0.40948 0.86582
 C1026 C 0.20959 0.43839 0.88338
 C1027 C 0.19389 0.42762 0.91240
 C1028 C 0.21116 0.40721 0.92795
 C1029 C 0.25931 0.42972 0.90853
 C1030 C 0.24193 0.45018 0.89317
 H1031 H 0.24211 0.36854 0.87082
 H1032 H 0.20932 0.40579 0.84280
 H1033 H 0.17119 0.43531 0.92017
 H1034 H 0.20315 0.39758 0.94889
 H1035 H 0.28327 0.43456 0.91530
 H1036 H 0.25084 0.47241 0.88762
 C1037 C 0.23145 0.60165 0.07824
 C1038 C 0.22427 0.57185 0.06161
 C1039 C 0.20959 0.55073 0.07869
 C1040 C 0.20267 0.56118 0.11073
 C1041 C 0.23466 0.57119 0.12335
 C1042 C 0.24956 0.59220 0.10644
 C1043 C 0.19883 0.61148 0.08977
 C1044 C 0.18408 0.59043 0.10691
 H1045 H 0.22888 0.56803 0.03805
 H1046 H 0.20248 0.52897 0.06984
 H1047 H 0.24487 0.56260 0.14387
 H1048 H 0.27233 0.60137 0.11266
 H1049 H 0.18720 0.63221 0.08354
 H1050 H 0.16065 0.59376 0.11576
 C1051 C 0.76095 0.39675 0.08541
 C1052 C 0.77036 0.38690 0.11738
 C1053 C 0.78721 0.40794 0.13280
 C1054 C 0.79279 0.43721 0.11542
 C1055 C 0.80853 0.42735 0.08613
 C1056 C 0.79193 0.40631 0.07054
 C1057 C 0.74312 0.42648 0.09080
 C1058 C 0.75989 0.44759 0.10614
 H1059 H 0.76275 0.36621 0.12802
 H1060 H 0.79453 0.40460 0.15582
 H1061 H 0.83083 0.43608 0.07820
 H1062 H 0.80016 0.39722 0.04943
 H1063 H 0.71885 0.43026 0.08451
 H1064 H 0.75011 0.46928 0.11217
 C1065 C 0.91890 0.76189 0.60123
 C1066 C 0.91526 0.74687 0.57020
 C1067 C 0.89957 0.76383 0.54983
 C1068 C 0.88923 0.79460 0.56177
 C1069 C 0.86994 0.78767 0.58985
 C1070 C 0.88535 0.77060 0.61037
 C1071 C 0.93530 0.79214 0.59389
 C1072 C 0.91965 0.80922 0.57353
 H1073 H 0.92525 0.72523 0.56430
 H1074 H 0.89593 0.75647 0.52692
 H1075 H 0.84621 0.79568 0.59339
 H1076 H 0.87468 0.76409 0.63143
 H1077 H 0.95839 0.79882 0.60168
 H1078 H 0.92917 0.83034 0.56535
 C1079 C 0.90950 0.24125 0.39557
 C1080 C 0.92647 0.23998 0.42593
 C1081 C 0.91125 0.22357 0.44707
 C1082 C 0.88024 0.20969 0.43628
 C1083 C 0.86108 0.23636 0.42430
 C1084 C 0.87615 0.25262 0.40290
 C1085 C 0.90384 0.20794 0.38686
 C1086 C 0.88877 0.19154 0.40822
 H1087 H 0.94874 0.25109 0.43042
 H1088 H 0.92046 0.22077 0.46955
 H1089 H 0.83716 0.24126 0.43091
 H1090 H 0.86456 0.27085 0.39119
 H1091 H 0.90888 0.19837 0.36508
 H1092 H 0.88196 0.16822 0.40475
 C1093 C 0.07756 0.23818 0.60022
 C1094 C 0.06082 0.23232 0.57003
 C1095 C 0.07843 0.21688 0.54989
 C1096 C 0.11095 0.20797 0.56164
 C1097 C 0.12620 0.23770 0.57181
 C1098 C 0.10880 0.25337 0.59186
 C1099 C 0.08668 0.20621 0.61069
 C1100 C 0.10434 0.19065 0.59062
 H1101 H 0.03657 0.23798 0.56532
 H1102 H 0.06945 0.21037 0.52807
 H1103 H 0.14876 0.24587 0.56399
 H1104 H 0.11662 0.27479 0.60101
 H1105 H 0.07865 0.19591 0.63129
 H1106 H 0.11182 0.16766 0.59453
 C1107 C 0.08984 0.76256 0.39137
 C1108 C 0.09313 0.79661 0.38461
 C1109 C 0.10805 0.81255 0.40657
 C1110 C 0.11866 0.79329 0.43318
 C1111 C 0.08893 0.77714 0.44391
 C1112 C 0.07393 0.76115 0.42220
 C1113 C 0.12403 0.75270 0.39708
 C1114 C 0.13889 0.76848 0.41902
 H1115 H 0.08691 0.80720 0.36362
 H1116 H 0.11342 0.83635 0.40437
 H1117 H 0.08034 0.77821 0.46671
 H1118 H 0.05245 0.74870 0.42656
 H1119 H 0.13608 0.73564 0.38409
 H1120 H 0.16329 0.76447 0.42469
 C1121 C 0.60581 0.91934 0.76552
 C1122 C 0.57289 0.91671 0.75116
 C1123 C 0.55185 0.90079 0.76766
 C1124 C 0.56505 0.88918 0.79739
 C1125 C 0.59426 0.87105 0.78896
 C1126 C 0.61544 0.88671 0.77233
 C1127 C 0.59893 0.93340 0.79652
 C1128 C 0.57787 0.91751 0.81314
 H1129 H 0.56625 0.92745 0.73031
 H1130 H 0.52761 0.89776 0.76071
 H1131 H 0.59810 0.84789 0.79572
 H1132 H 0.63735 0.87682 0.76494
 H1133 H 0.60749 0.95509 0.80419
 H1134 H 0.56989 0.92540 0.83479
 C1135 C 0.39521 0.92083 0.23660
 C1136 C 0.42613 0.93708 0.22829
 C1137 C 0.44644 0.91984 0.21238
 C1138 C 0.43408 0.88808 0.20543
 C1139 C 0.42574 0.87462 0.23605
 C1140 C 0.40552 0.89169 0.25223
 C1141 C 0.38219 0.91047 0.20590
 C1142 C 0.40243 0.89317 0.18987
 H1143 H 0.43113 0.96059 0.23303
 H1144 H 0.46877 0.92847 0.20440
 H1145 H 0.43484 0.85346 0.24442
 H1146 H 0.39751 0.88499 0.27428
 H1147 H 0.35992 0.91753 0.19653
 H1148 H 0.39693 0.88502 0.16756
 C1149 C 0.60971 0.08477 0.23546
 C1150 C 0.60435 0.11693 0.24734
 C1151 C 0.58231 0.13269 0.23198
 C1152 C 0.56772 0.11520 0.20564
 C1153 C 0.59597 0.10554 0.18669
 C1154 C 0.61799 0.08971 0.20220
 C1155 C 0.57694 0.07017 0.23495
 C1156 C 0.55511 0.08599 0.21940
 H1157 H 0.61762 0.12696 0.26558
 H1158 H 0.57681 0.15587 0.23748
 H1159 H 0.59909 0.11181 0.16343
 H1160 H 0.63998 0.08335 0.19192
 H1161 H 0.57146 0.04895 0.24579
 H1162 H 0.53103 0.07830 0.21701
 C1163 C 0.38997 0.08021 0.77054
 C1164 C 0.42236 0.08184 0.75531
 C1165 C 0.44440 0.09733 0.77115
 C1166 C 0.43253 0.10957 0.80112
 C1167 C 0.40358 0.12840 0.79326
 C1168 C 0.38145 0.11312 0.77726
 C1169 C 0.39726 0.06635 0.80146
 C1170 C 0.41936 0.08178 0.81741
 H1171 H 0.42779 0.07098 0.73420
 H1172 H 0.46840 0.09983 0.76345
 H1173 H 0.40060 0.15172 0.79994
 H1174 H 0.35958 0.12343 0.77029
 H1175 H 0.38773 0.04532 0.80972
 H1176 H 0.42751 0.07413 0.83910
 C1177 C 0.59958 0.76564 0.07988
 C1178 C 0.59231 0.79669 0.06606
 C1179 C 0.57126 0.81319 0.08196
 C1180 C 0.55897 0.79721 0.11014
 C1181 C 0.54592 0.76710 0.09863
 C1182 C 0.56696 0.75072 0.08266
 C1183 C 0.60964 0.77254 0.11220
 C1184 C 0.58853 0.78905 0.12795
 H1185 H 0.60105 0.80449 0.04468
 H1186 H 0.56315 0.83499 0.07434
 H1187 H 0.52183 0.75977 0.10183
 H1188 H 0.56049 0.72961 0.07201
 H1189 H 0.63175 0.76527 0.12181
 H1190 H 0.59262 0.79586 0.15096
 C1191 C 0.39856 0.23591 0.08212
 C1192 C 0.38602 0.20569 0.09444
 C1193 C 0.40726 0.19024 0.11121
 C1194 C 0.43926 0.20599 0.11401
 C1195 C 0.44966 0.21145 0.08161
 C1196 C 0.42837 0.22680 0.06488
 C1197 C 0.41067 0.25300 0.10973
 C1198 C 0.43184 0.23749 0.12638
 H1199 H 0.36323 0.19615 0.08911
 H1200 H 0.40215 0.16825 0.12062
 H1201 H 0.47146 0.20309 0.07232
 H1202 H 0.43200 0.23099 0.04124
 H1203 H 0.40312 0.27551 0.11573
 H1204 H 0.44226 0.24693 0.14649
 C1205 C 0.60733 0.23155 0.91763
 C1206 C 0.61914 0.20100 0.90560
 C1207 C 0.59730 0.18536 0.88947
 C1208 C 0.56552 0.20127 0.88696
 C1209 C 0.55583 0.20751 0.91942
 C1210 C 0.57770 0.22301 0.93551
 C1211 C 0.59497 0.24814 0.88991
 C1212 C 0.57323 0.23243 0.87390
 H1213 H 0.64184 0.19136 0.91066
 H1214 H 0.60186 0.16315 0.88034
 H1215 H 0.53394 0.19974 0.92916
 H1216 H 0.57451 0.22794 0.95908
 H1217 H 0.60281 0.27046 0.88338
 H1218 H 0.56260 0.24150 0.85379
 C1219 C 0.39505 0.76346 0.91526
 C1220 C 0.40448 0.79259 0.93161
 C1221 C 0.42563 0.80988 0.91660
 C1222 C 0.43571 0.79655 0.88636
 C1223 C 0.44758 0.76485 0.89383
 C1224 C 0.42634 0.74749 0.90864
 C1225 C 0.38380 0.77387 0.88408
 C1226 C 0.40497 0.79129 0.86918
 H1227 H 0.39517 0.79911 0.95323
 H1228 H 0.43427 0.83108 0.92554
 H1229 H 0.47048 0.75650 0.88734
 H1230 H 0.43113 0.72420 0.91421
 H1231 H 0.36208 0.76677 0.87351
 H1232 H 0.40074 0.79949 0.84668
 C1233 C 0.76935 0.91675 0.39491
 C1234 C 0.80175 0.93043 0.40272
 C1235 C 0.81782 0.91484 0.42394
 C1236 C 0.80013 0.88708 0.43586
 C1237 C 0.76858 0.89945 0.44665
 C1238 C 0.75261 0.91509 0.42542
 C1239 C 0.77618 0.88383 0.38663
 C1240 C 0.79228 0.86838 0.40793
 H1241 H 0.81072 0.95159 0.39421
 H1242 H 0.84038 0.92249 0.43237
 H1243 H 0.75998 0.89696 0.46935
 H1244 H 0.73052 0.92612 0.43025
 H1245 H 0.76918 0.87361 0.36557
 H1246 H 0.79900 0.84502 0.40505
 C1247 C 0.23154 0.91411 0.60646
 C1248 C 0.23316 0.92880 0.57539
 C1249 C 0.21821 0.91302 0.55347
 C1250 C 0.20287 0.88375 0.56433
 C1251 C 0.22945 0.86628 0.57976
 C1252 C 0.24418 0.88199 0.60183
 C1253 C 0.19614 0.90909 0.61214
 C1254 C 0.18125 0.89329 0.59006
 H1255 H 0.24500 0.95004 0.57105
 H1256 H 0.21737 0.92070 0.53045
 H1257 H 0.23544 0.84311 0.57469
 H1258 H 0.26246 0.87200 0.61548
 H1259 H 0.18394 0.91533 0.63244
 H1260 H 0.15668 0.88694 0.59150
 C1261 C 0.24106 0.08705 0.40160
 C1262 C 0.25702 0.09175 0.43228
 C1263 C 0.23901 0.10664 0.45249
 C1264 C 0.20682 0.11607 0.44034
 C1265 C 0.21416 0.13425 0.41204
 C1266 C 0.23223 0.11927 0.39191
 C1267 C 0.20960 0.07164 0.40875
 C1268 C 0.19170 0.08673 0.42893
 H1269 H 0.28098 0.08540 0.43740
 H1270 H 0.24739 0.11217 0.47479
 H1271 H 0.20671 0.15732 0.40859
 H1272 H 0.24065 0.13010 0.37173
 H1273 H 0.20205 0.05054 0.39871
 H1274 H 0.16892 0.07842 0.43602
 C1275 C 0.76619 0.08003 0.60141
 C1276 C 0.77111 0.11328 0.60982
 C1277 C 0.78683 0.12962 0.58893
 C1278 C 0.79625 0.11142 0.56121
 C1279 C 0.81514 0.08473 0.57357
 C1280 C 0.79945 0.06823 0.59444
 C1281 C 0.75007 0.08073 0.57051
 C1282 C 0.76565 0.09726 0.54967
 H1283 H 0.76318 0.12308 0.63072
 H1284 H 0.79230 0.15332 0.59199
 H1285 H 0.83829 0.07847 0.56573
 H1286 H 0.80940 0.04770 0.60330
 H1287 H 0.72867 0.06850 0.56518
 H1288 H 0.75742 0.09927 0.52676
 C1289 C 0.91206 0.60502 0.23900
 C1290 C 0.92798 0.57406 0.23836
 C1291 C 0.91201 0.55278 0.22254
 C1292 C 0.88137 0.56413 0.20862
 C1293 C 0.86271 0.57731 0.23494
 C1294 C 0.87861 0.59879 0.25062
 C1295 C 0.90681 0.61314 0.20580
 C1296 C 0.89089 0.59170 0.18999
 H1297 H 0.95008 0.56930 0.24947
 H1298 H 0.92041 0.52985 0.22022
 H1299 H 0.83864 0.57128 0.24015
 H1300 H 0.86773 0.61111 0.26879
 H1301 H 0.91297 0.63458 0.19582
 H1302 H 0.88433 0.59475 0.16672
 C1303 C 0.91862 0.40247 0.76225
 C1304 C 0.88629 0.41066 0.74944
 C1305 C 0.87003 0.43075 0.76627
 C1306 C 0.88750 0.44103 0.79465
 C1307 C 0.89552 0.41183 0.81123
 C1308 C 0.91197 0.39176 0.79444
 C1309 C 0.93559 0.43293 0.76679
 C1310 C 0.91917 0.45305 0.78345
 H1311 H 0.87697 0.40140 0.72876
 H1312 H 0.84686 0.43849 0.75985
 H1313 H 0.88951 0.40761 0.83443
 H1314 H 0.92037 0.37071 0.80368
 H1315 H 0.95925 0.43786 0.75935
 H1316 H 0.92851 0.47509 0.78923
 C1317 C 0.08716 0.60088 0.75728
 C1318 C 0.09276 0.60960 0.79034
 C1319 C 0.10860 0.58843 0.80634
 C1320 C 0.11769 0.56051 0.78806
 C1321 C 0.08681 0.54893 0.77457
 C1322 C 0.07094 0.56993 0.75852
 C1323 C 0.12044 0.59440 0.74553
 C1324 C 0.13624 0.57322 0.76139
 H1325 H 0.08696 0.63121 0.80009
 H1326 H 0.11538 0.59190 0.82951
 H1327 H 0.07813 0.52611 0.77743
 H1328 H 0.04864 0.56502 0.74774
 H1329 H 0.13122 0.60630 0.72700
 H1330 H 0.16018 0.56704 0.75601
 C1331 C 0.08503 0.39495 0.23716
 C1332 C 0.08770 0.38712 0.20357
 C1333 C 0.10333 0.40825 0.18720
 C1334 C 0.11511 0.43523 0.20565
 C1335 C 0.08590 0.44741 0.22145
 C1336 C 0.07027 0.42645 0.23786
 C1337 C 0.11939 0.39992 0.24691
 C1338 C 0.13498 0.42106 0.23067
 H1339 H 0.08015 0.36607 0.19358
 H1340 H 0.10819 0.40529 0.16356
 H1341 H 0.07820 0.47062 0.21991
 H1342 H 0.04912 0.43179 0.25023
 H1343 H 0.13089 0.38714 0.26441
 H1344 H 0.15954 0.42627 0.23465
   
