data_POSCAR
  _audit_creation_date              2014-09-24
  _audit_creation_method            'ToBaCCo'
  _symmetry_space_group_name_H-M    'P1'
  _symmetry_Int_Tables_number       1
  _symmetry_cell_setting            triclinic
  loop_
  _symmetry_equiv_pos_as_xyz
 x,y,z
_cell_length_a 63.4960
_cell_length_b 62.7746
_cell_length_c 65.1849
_cell_angle_alpha 89.803900
_cell_angle_beta 89.786700
_cell_angle_gamma 89.694100
loop_
  _atom_site_label
  _atom_site_type_symbol
  _atom_site_fract_x
  _atom_site_fract_y
  _atom_site_fract_z
N1 N 0.38197 0.32104 0.34100
 N2 N 0.38151 0.33608 0.32697
 C3 C 0.39409 0.33044 0.31122
 C4 C 0.40300 0.31075 0.31569
 C5 C 0.39507 0.30541 0.33482
 H6 H 0.39595 0.33973 0.29736
 H7 H 0.39791 0.29077 0.34318
 Cu8 Cu 0.36299 0.36058 0.32980
 Cu9 Cu 0.36427 0.32207 0.36541
 Cu10 Cu 0.32605 0.36212 0.36660
 N11 N 0.33864 0.37918 0.32756
 N12 N 0.32420 0.37986 0.34202
 C13 C 0.30868 0.39324 0.33617
 C14 C 0.31347 0.40106 0.31681
 C15 C 0.33273 0.39186 0.31191
 H16 H 0.29453 0.39639 0.34496
 H17 H 0.34166 0.39373 0.29789
 N18 N 0.32696 0.33826 0.38644
 N19 N 0.34124 0.32292 0.38569
 C20 C 0.33588 0.30748 0.39907
 C21 C 0.31725 0.31327 0.40869
 C22 C 0.31226 0.33304 0.40049
 H23 H 0.34436 0.29263 0.40080
 H24 H 0.29808 0.34216 0.40343
 H25 H 0.34036 0.33802 0.35016
 H26 H 0.35763 0.35423 0.36693
 N27 N 0.38081 0.82355 -0.15922
 N28 N 0.38013 0.83885 -0.17299
 C29 C 0.39240 0.83348 -0.18906
 C30 C 0.40133 0.81363 -0.18512
 C31 C 0.39375 0.80799 -0.16588
 H32 H 0.39400 0.84310 -0.20275
 H33 H 0.39674 0.79321 -0.15777
 Cu34 Cu 0.36168 0.86331 -0.16942
 Cu35 Cu 0.36361 0.82426 -0.13447
 Cu36 Cu 0.32522 0.86416 -0.13220
 N37 N 0.33724 0.88190 -0.17113
 N38 N 0.32295 0.88225 -0.15651
 C39 C 0.30720 0.89549 -0.16206
 C40 C 0.31164 0.90359 -0.18143
 C41 C 0.33101 0.89466 -0.18661
 H42 H 0.29307 0.89829 -0.15311
 H43 H 0.33974 0.89659 -0.20074
 N44 N 0.32650 0.83998 -0.11279
 N45 N 0.34087 0.82474 -0.11388
 C46 C 0.33575 0.80909 -0.10065
 C47 C 0.31717 0.81462 -0.09082
 C48 C 0.31197 0.83446 -0.09870
 H49 H 0.34435 0.79429 -0.09915
 H50 H 0.29779 0.84346 -0.09547
 H51 H 0.33932 0.84028 -0.14921
 H52 H 0.35670 0.85625 -0.13237
 N53 N 0.88374 0.32815 -0.16208
 N54 N 0.88260 0.34396 -0.17529
 C55 C 0.89487 0.33952 -0.19163
 C56 C 0.90430 0.31981 -0.18846
 C57 C 0.89710 0.31327 -0.16937
 H58 H 0.89613 0.34957 -0.20507
 H59 H 0.90041 0.29821 -0.16190
 Cu60 Cu 0.86345 0.36766 -0.17083
 Cu61 Cu 0.86611 0.32705 -0.13754
 Cu62 Cu 0.82512 0.36412 -0.13560
 N63 N 0.83836 0.38528 -0.17243
 N64 N 0.82292 0.38312 -0.15914
 C65 C 0.80644 0.39517 -0.16512
 C66 C 0.81179 0.40526 -0.18337
 C67 C 0.83235 0.39888 -0.18730
 H68 H 0.79159 0.39603 -0.15699
 H69 H 0.84181 0.40292 -0.20058
 N70 N 0.82731 0.33969 -0.11670
 N71 N 0.84263 0.32543 -0.11765
 C72 C 0.83819 0.30934 -0.10465
 C73 C 0.81911 0.31364 -0.09511
 C74 C 0.81287 0.33317 -0.10293
 H75 H 0.84773 0.29515 -0.10297
 H76 H 0.79818 0.34132 -0.09977
 H77 H 0.84180 0.34211 -0.15274
 H78 H 0.85711 0.35846 -0.13440
 N79 N 0.88029 0.82354 0.33831
 N80 N 0.88270 0.84024 0.32635
 C81 C 0.89708 0.83568 0.31177
 C82 C 0.90396 0.81492 0.31467
 C83 C 0.89301 0.80776 0.33176
 H84 H 0.90116 0.84611 0.29913
 H85 H 0.89321 0.79192 0.33826
 Cu86 Cu 0.86420 0.86474 0.32887
 Cu87 Cu 0.85910 0.82249 0.35994
 Cu88 Cu 0.82619 0.86660 0.36466
 N89 N 0.83987 0.88330 0.32582
 N90 N 0.82511 0.88425 0.33997
 C91 C 0.80976 0.89755 0.33361
 C92 C 0.81487 0.90486 0.31410
 C93 C 0.83431 0.89565 0.30980
 H94 H 0.79543 0.90082 0.34209
 H95 H 0.84360 0.89730 0.29596
 N96 N 0.82449 0.84157 0.38302
 N97 N 0.83680 0.82471 0.38093
 C98 C 0.83033 0.80942 0.39396
 C99 C 0.81294 0.81683 0.40471
 C100 C 0.80983 0.83739 0.39749
 H101 H 0.83727 0.79373 0.39478
 H102 H 0.79700 0.84798 0.40155
 H103 H 0.83792 0.84326 0.34620
 H104 H 0.85696 0.85459 0.36480
 N105 N 0.61897 0.67540 0.34080
 N106 N 0.61960 0.65996 0.32724
 C107 C 0.60707 0.66512 0.31133
 C108 C 0.59806 0.68489 0.31517
 C109 C 0.60576 0.69073 0.33418
 H110 H 0.60512 0.65542 0.29779
 H111 H 0.60268 0.70550 0.34217
 Cu112 Cu 0.63797 0.63547 0.33115
 Cu113 Cu 0.63676 0.67542 0.36507
 Cu114 Cu 0.67620 0.63671 0.36645
 N115 N 0.66219 0.61658 0.32951
 N116 N 0.67753 0.61775 0.34291
 C117 C 0.69344 0.60490 0.33697
 C118 C 0.68782 0.59526 0.31871
 C119 C 0.66774 0.60287 0.31460
 H120 H 0.70820 0.60329 0.34504
 H121 H 0.65840 0.59959 0.30115
 N122 N 0.67509 0.66103 0.38545
 N123 N 0.66028 0.67584 0.38475
 C124 C 0.66534 0.69162 0.39774
 C125 C 0.68430 0.68653 0.40707
 C126 C 0.68984 0.66689 0.39907
 H127 H 0.65635 0.70616 0.39944
 H128 H 0.70431 0.65825 0.40197
 H129 H 0.66046 0.65962 0.34964
 H130 H 0.64435 0.64350 0.36776
 N131 N 0.62276 0.18035 -0.16206
 N132 N 0.61837 0.16302 -0.17239
 C133 C 0.60272 0.16729 -0.18569
 C134 C 0.59707 0.18853 -0.18369
 C135 C 0.61013 0.19629 -0.16846
 H136 H 0.59695 0.15627 -0.19706
 H137 H 0.61146 0.21259 -0.16337
 Cu138 Cu 0.63602 0.13780 -0.17003
 Cu139 Cu 0.64665 0.18182 -0.14345
 Cu140 Cu 0.67381 0.13469 -0.13432
 N141 N 0.65939 0.11788 -0.17257
 N142 N 0.67406 0.11633 -0.15844
 C143 C 0.68880 0.10226 -0.16470
 C144 C 0.68336 0.09499 -0.18406
 C145 C 0.66438 0.10512 -0.18837
 H146 H 0.70303 0.09849 -0.15633
 H147 H 0.65505 0.10393 -0.20214
 N148 N 0.67762 0.16045 -0.11757
 N149 N 0.66760 0.17850 -0.12138
 C150 C 0.67496 0.19365 -0.10881
 C151 C 0.69052 0.18482 -0.09654
 C152 C 0.69171 0.16369 -0.10250
 H153 H 0.66999 0.21011 -0.10932
 H154 H 0.70285 0.15189 -0.09707
 H155 H 0.66506 0.15705 -0.15470
 H156 H 0.64435 0.15048 -0.13540
 N157 N 0.11972 0.67830 -0.15794
 N158 N 0.12024 0.66315 -0.17177
 C159 C 0.10766 0.66860 -0.18752
 C160 C 0.09866 0.68829 -0.18329
 C161 C 0.10654 0.69382 -0.16427
 H162 H 0.10593 0.65921 -0.20126
 H163 H 0.10367 0.70855 -0.15613
 Cu164 Cu 0.13893 0.63883 -0.16877
 Cu165 Cu 0.13766 0.67755 -0.13376
 Cu166 Cu 0.17668 0.63814 -0.13316
 N167 N 0.16317 0.62013 -0.17131
 N168 N 0.17799 0.61982 -0.15730
 C169 C 0.19347 0.60648 -0.16337
 C170 C 0.18825 0.59830 -0.18241
 C171 C 0.16879 0.60726 -0.18687
 H172 H 0.20790 0.60363 -0.15501
 H173 H 0.15955 0.60513 -0.20059
 N174 N 0.17578 0.66216 -0.11364
 N175 N 0.16114 0.67717 -0.11406
 C176 C 0.16633 0.69258 -0.10072
 C177 C 0.18522 0.68713 -0.09152
 C178 C 0.19057 0.66758 -0.09990
 H179 H 0.15754 0.70721 -0.09865
 H180 H 0.20486 0.65861 -0.09710
 H181 H 0.16149 0.66190 -0.14931
 H182 H 0.14499 0.64548 -0.13183
 N183 N 0.11853 0.17705 0.34220
 N184 N 0.11903 0.16189 0.32837
 C185 C 0.10632 0.16730 0.31270
 C186 C 0.09729 0.18698 0.31696
 C187 C 0.10526 0.19252 0.33595
 H188 H 0.10454 0.15789 0.29898
 H189 H 0.10241 0.20725 0.34409
 Cu190 Cu 0.13789 0.13767 0.33115
 Cu191 Cu 0.13662 0.17634 0.36629
 Cu192 Cu 0.17576 0.13715 0.36677
 N193 N 0.16241 0.11936 0.32849
 N194 N 0.17729 0.11919 0.34242
 C195 C 0.19291 0.10606 0.33626
 C196 C 0.18770 0.09788 0.31723
 C197 C 0.16809 0.10657 0.31288
 H198 H 0.20738 0.10333 0.34458
 H199 H 0.15876 0.10424 0.29926
 N200 N 0.17474 0.16103 0.38643
 N201 N 0.16004 0.17599 0.38606
 C202 C 0.16518 0.19138 0.39945
 C203 C 0.18412 0.18600 0.40861
 C204 C 0.18953 0.16649 0.40016
 H205 H 0.15634 0.20596 0.40155
 H206 H 0.20388 0.15759 0.40289
 H207 H 0.16053 0.16078 0.35060
 H208 H 0.14406 0.14426 0.36805
 N209 N 0.61955 0.32610 0.66068
 N210 N 0.61911 0.34185 0.67389
 C211 C 0.60546 0.33723 0.68911
 C212 C 0.59679 0.31744 0.68519
 C213 C 0.60590 0.31105 0.66685
 H214 H 0.60297 0.34706 0.70248
 H215 H 0.60385 0.29583 0.65942
 Cu216 Cu 0.63852 0.36539 0.67137
 Cu217 Cu 0.64042 0.32451 0.63866
 Cu218 Cu 0.67536 0.36687 0.63454
 N219 N 0.66306 0.38339 0.67378
 N220 N 0.67742 0.38420 0.65924
 C221 C 0.69295 0.39731 0.66515
 C222 C 0.68824 0.40479 0.68462
 C223 C 0.66904 0.39568 0.68954
 H224 H 0.70706 0.40051 0.65632
 H225 H 0.66017 0.39738 0.70362
 N226 N 0.67572 0.34232 0.61570
 N227 N 0.66269 0.32609 0.61748
 C228 C 0.66877 0.31067 0.60440
 C229 C 0.68658 0.31741 0.59394
 C230 C 0.69037 0.33764 0.60139
 H231 H 0.66149 0.29521 0.60356
 H232 H 0.70380 0.34752 0.59776
 H233 H 0.66308 0.34329 0.65246
 H234 H 0.64410 0.35662 0.63486
 N235 N 0.62056 0.82377 1.16174
 N236 N 0.61885 0.83979 1.17454
 C237 C 0.60531 0.83453 1.18965
 C238 C 0.59832 0.81396 1.18624
 C239 C 0.60828 0.80770 1.16826
 H240 H 0.60152 0.84457 1.20260
 H241 H 0.60720 0.79249 1.16065
 Cu242 Cu 0.63648 0.86478 1.17149
 Cu243 Cu 0.63913 0.82469 1.13796
 Cu244 Cu 0.67568 0.86584 1.13677
 N245 N 0.66046 0.88348 1.17468
 N246 N 0.67568 0.88401 1.16097
 C247 C 0.69076 0.89732 1.16747
 C248 C 0.68498 0.90513 1.18654
 C249 C 0.66551 0.89613 1.19053
 H250 H 0.70542 0.90023 1.15945
 H251 H 0.65595 0.89801 1.20417
 N252 N 0.67659 0.84140 1.11774
 N253 N 0.66294 0.82564 1.11855
 C254 C 0.66915 0.81022 1.10556
 C255 C 0.68765 0.81650 1.09602
 C256 C 0.69170 0.83651 1.10394
 H257 H 0.66119 0.79518 1.10385
 H258 H 0.70530 0.84626 1.10071
 H259 H 0.66146 0.84218 1.15362
 H260 H 0.64465 0.85703 1.13510
 N261 N 0.11945 0.32423 1.15840
 N262 N 0.12035 0.33863 1.17294
 C263 C 0.10804 0.33260 1.18873
 C264 C 0.09883 0.31328 1.18386
 C265 C 0.10627 0.30862 1.16435
 H266 H 0.10640 0.34149 1.20282
 H267 H 0.10296 0.29448 1.15551
 Cu268 Cu 0.13878 0.36305 1.17053
 Cu269 Cu 0.13668 0.32634 1.13360
 Cu270 Cu 0.17698 0.36396 1.13520
 N271 N 0.16302 0.38138 1.17354
 N272 N 0.17802 0.38170 1.15963
 C273 C 0.19347 0.39470 1.16594
 C274 C 0.18804 0.40264 1.18506
 C275 C 0.16850 0.39389 1.18935
 H276 H 0.20799 0.39752 1.15765
 H277 H 0.15920 0.39577 1.20314
 N278 N 0.17574 0.34104 1.11465
 N279 N 0.16025 0.32713 1.11372
 C280 C 0.16509 0.31238 1.09950
 C281 C 0.18476 0.31690 1.09142
 C282 C 0.19090 0.33536 1.10123
 H283 H 0.15578 0.29839 1.09638
 H284 H 0.20578 0.34345 1.09957
 H285 H 0.16081 0.33985 1.15007
 H286 H 0.14522 0.35800 1.13337
 N287 N 0.12007 0.82517 0.65787
 N288 N 0.12095 0.83978 0.67222
 C289 C 0.10836 0.83410 0.68793
 C290 C 0.09904 0.81479 0.68320
 C291 C 0.10668 0.80977 0.66386
 H292 H 0.10674 0.84313 0.70193
 H293 H 0.10348 0.79546 0.65523
 Cu294 Cu 0.13979 0.86397 0.66989
 Cu295 Cu 0.13778 0.82658 0.63340
 Cu296 Cu 0.18164 0.85891 0.63887
 N297 N 0.16416 0.88222 0.67278
 N298 N 0.18078 0.87971 0.66096
 C299 C 0.19637 0.89231 0.66770
 C300 C 0.18914 0.90329 0.68476
 C301 C 0.16855 0.89659 0.68741
 H302 H 0.21204 0.89259 0.66120
 H303 H 0.15808 0.90084 0.69989
 N304 N 0.17927 0.83709 0.61737
 N305 N 0.16246 0.82507 0.61500
 C306 C 0.16640 0.81066 0.60019
 C307 C 0.18673 0.81360 0.59302
 C308 C 0.19430 0.83066 0.60416
 H309 H 0.15582 0.79802 0.59587
 H310 H 0.20993 0.83728 0.60351
 H311 H 0.16087 0.83752 0.65213
 H312 H 0.14985 0.85752 0.63388
 N313 N 0.38070 0.67605 0.65767
 N314 N 0.38022 0.66131 0.67200
 C315 C 0.39269 0.66718 0.68761
 C316 C 0.40159 0.68669 0.68276
 C317 C 0.39376 0.69170 0.66352
 H318 H 0.39441 0.65820 0.70167
 H319 H 0.39659 0.70616 0.65489
 Cu320 Cu 0.36172 0.63698 0.66980
 Cu321 Cu 0.36295 0.67455 0.63342
 Cu322 Cu 0.32438 0.63512 0.63383
 N323 N 0.33750 0.61854 0.67282
 N324 N 0.32286 0.61779 0.65871
 C325 C 0.30740 0.60470 0.66510
 C326 C 0.31248 0.59716 0.68448
 C327 C 0.33183 0.60620 0.68881
 H328 H 0.29311 0.60158 0.65669
 H329 H 0.34096 0.60449 0.70266
 N330 N 0.32530 0.65843 0.61344
 N331 N 0.33974 0.67349 0.61347
 C332 C 0.33436 0.68858 0.59971
 C333 C 0.31553 0.68289 0.59068
 C334 C 0.31045 0.66351 0.59956
 H335 H 0.34287 0.70326 0.59735
 H336 H 0.29623 0.65449 0.59710
 H337 H 0.33906 0.65937 0.64931
 H338 H 0.35595 0.64241 0.63261
 N339 N 0.37831 0.17781 1.15931
 N340 N 0.38016 0.16150 1.17185
 C341 C 0.39453 0.16609 1.18629
 C342 C 0.40189 0.18656 1.18275
 C343 C 0.39140 0.19334 1.16530
 H344 H 0.39845 0.15579 1.19907
 H345 H 0.39255 0.20878 1.15799
 Cu346 Cu 0.36137 0.13731 1.16979
 Cu347 Cu 0.35746 0.17864 1.13752
 Cu348 Cu 0.32414 0.13509 1.13353
 N349 N 0.33702 0.11891 1.17275
 N350 N 0.32257 0.11783 1.15842
 C351 C 0.30725 0.10454 1.16468
 C352 C 0.31214 0.09720 1.18416
 C353 C 0.33127 0.10661 1.18873
 H354 H 0.29314 0.10113 1.15606
 H355 H 0.34019 0.10518 1.20276
 N356 N 0.32311 0.15966 1.11458
 N357 N 0.33549 0.17636 1.11643
 C358 C 0.32927 0.19152 1.10313
 C359 C 0.31201 0.18415 1.09243
 C360 C 0.30872 0.16377 1.09993
 H361 H 0.33620 0.20714 1.10215
 H362 H 0.29586 0.15334 1.09601
 H363 H 0.33563 0.15865 1.15149
 H364 H 0.35495 0.14635 1.13349
 N365 N 0.88129 0.67426 1.16071
 N366 N 0.88038 0.65939 1.17491
 C367 C 0.89293 0.66480 1.19065
 C368 C 0.90237 0.68409 1.18596
 C369 C 0.89479 0.68943 1.16670
 H370 H 0.89451 0.65565 1.20464
 H371 H 0.89806 0.70386 1.15818
 Cu372 Cu 0.86163 0.63533 1.17196
 Cu373 Cu 0.86332 0.67384 1.13651
 Cu374 Cu 0.82433 0.63491 1.13581
 N375 N 0.83745 0.61674 1.17421
 N376 N 0.82283 0.61657 1.16000
 C377 C 0.80732 0.60332 1.16590
 C378 C 0.81232 0.59501 1.18500
 C379 C 0.83168 0.60383 1.18973
 H380 H 0.79297 0.60067 1.15740
 H381 H 0.84066 0.60170 1.20363
 N382 N 0.82531 0.65891 1.11616
 N383 N 0.83989 0.67381 1.11666
 C384 C 0.83464 0.68942 1.10339
 C385 C 0.81577 0.68418 1.09410
 C386 C 0.81051 0.66459 1.10240
 H387 H 0.84339 0.70400 1.10155
 H388 H 0.79615 0.65589 1.09965
 H389 H 0.83928 0.65861 1.15201
 H390 H 0.85601 0.64194 1.13490
 N391 N 0.87908 0.17388 0.66137
 N392 N 0.87388 0.16399 0.67852
 C393 C 0.88637 0.17070 0.69375
 C394 C 0.90007 0.18580 0.68598
 C395 C 0.89503 0.18736 0.66532
 H396 H 0.88479 0.16568 0.70953
 H397 H 0.90164 0.19844 0.65434
 Cu398 Cu 0.85023 0.14407 0.68082
 Cu399 Cu 0.86273 0.17070 0.63582
 Cu400 Cu 0.82371 0.13475 0.63767
 N401 N 0.83136 0.12007 0.67823
 N402 N 0.82064 0.11629 0.66146
 C403 C 0.80677 0.10056 0.66523
 C404 C 0.80904 0.09412 0.68549
 C405 C 0.82478 0.10696 0.69320
 H406 H 0.79488 0.09529 0.65458
 H407 H 0.82999 0.10796 0.70892
 N408 N 0.82315 0.15837 0.61834
 N409 N 0.83872 0.17204 0.61709
 C410 C 0.83385 0.18702 0.60303
 C411 C 0.81392 0.18284 0.59543
 C412 C 0.80772 0.16437 0.60542
 H413 H 0.84350 0.20071 0.59953
 H414 H 0.79287 0.15619 0.60402
 H415 H 0.84061 0.16329 0.65657
 H416 H 0.85931 0.14106 0.65100
 N417 N 0.32637 0.38436 0.66062
 N418 N 0.34168 0.38324 0.67411
 C419 C 0.33668 0.39546 0.69039
 C420 C 0.31719 0.40484 0.68683
 C421 C 0.31132 0.39762 0.66764
 H422 H 0.34626 0.39681 0.70400
 H423 H 0.29659 0.40087 0.65992
 Cu424 Cu 0.36573 0.36453 0.66962
 Cu425 Cu 0.32595 0.36669 0.63611
 Cu426 Cu 0.36419 0.32681 0.63347
 N427 N 0.38430 0.33990 0.67069
 N428 N 0.38317 0.32482 0.65683
 C429 C 0.39588 0.30855 0.66232
 C430 C 0.40538 0.31365 0.68076
 C431 C 0.39785 0.33383 0.68544
 H432 H 0.39745 0.29387 0.65382
 H433 H 0.40108 0.34285 0.69918
 N434 N 0.33987 0.32838 0.61481
 N435 N 0.32510 0.34320 0.61612
 C436 C 0.30905 0.33798 0.60369
 C437 C 0.31397 0.31896 0.59405
 C438 C 0.33375 0.31355 0.60126
 H439 H 0.29440 0.34673 0.60275
 H440 H 0.34225 0.29895 0.59808
 H441 H 0.34169 0.34218 0.65085
 H442 H 0.35744 0.35886 0.63295
 N443 N 0.32777 0.88432 0.16105
 N444 N 0.34282 0.88326 0.17482
 C445 C 0.33762 0.89575 0.19085
 C446 C 0.31828 0.90526 0.18682
 C447 C 0.31274 0.89785 0.16761
 H448 H 0.34687 0.89711 0.20466
 H449 H 0.29815 0.90104 0.15961
 Cu450 Cu 0.36661 0.86401 0.17118
 Cu451 Cu 0.32743 0.86612 0.13695
 Cu452 Cu 0.36468 0.82523 0.13606
 N453 N 0.38467 0.83902 0.17312
 N454 N 0.38331 0.82351 0.15972
 C455 C 0.39578 0.80723 0.16571
 C456 C 0.40541 0.81282 0.18397
 C457 C 0.39812 0.83322 0.18806
 H458 H 0.39713 0.79227 0.15764
 H459 H 0.40150 0.84265 0.20149
 N460 N 0.34073 0.82688 0.11692
 N461 N 0.32636 0.84214 0.11756
 C462 C 0.31049 0.83712 0.10484
 C463 C 0.31506 0.81774 0.09573
 C464 C 0.33451 0.81192 0.10354
 H465 H 0.29620 0.84638 0.10324
 H466 H 0.34268 0.79703 0.10081
 H467 H 0.34235 0.84177 0.15263
 H468 H 0.35884 0.85750 0.13452
 N469 N 0.82346 0.37909 0.16096
 N470 N 0.83933 0.38083 0.17369
 C471 C 0.83394 0.39422 0.18893
 C472 C 0.81347 0.40114 0.18566
 C473 C 0.80740 0.39133 0.16761
 H474 H 0.84379 0.39797 0.20192
 H475 H 0.79235 0.39252 0.16001
 Cu476 Cu 0.86443 0.36352 0.17027
 Cu477 Cu 0.82452 0.36043 0.13717
 Cu478 Cu 0.86683 0.32508 0.13464
 N479 N 0.88394 0.33983 0.17276
 N480 N 0.88499 0.32489 0.15872
 C481 C 0.89864 0.30973 0.16490
 C482 C 0.90614 0.31519 0.18411
 C483 C 0.89663 0.33457 0.18849
 H484 H 0.90199 0.29523 0.15655
 H485 H 0.89816 0.34383 0.20235
 N486 N 0.84250 0.32381 0.11589
 N487 N 0.82627 0.33697 0.11721
 C488 C 0.81114 0.33046 0.10431
 C489 C 0.81809 0.31226 0.09435
 C490 C 0.83814 0.30866 0.10196
 H491 H 0.79583 0.33790 0.10312
 H492 H 0.84823 0.29520 0.09848
 H493 H 0.84301 0.33812 0.15205
 H494 H 0.85656 0.35632 0.13380
 N495 N 0.82339 0.88048 0.66202
 N496 N 0.83863 0.88095 0.67560
 C497 C 0.83274 0.89338 0.69141
 C498 C 0.81258 0.90094 0.68765
 C499 C 0.80730 0.89266 0.66868
 H500 H 0.84217 0.89624 0.70490
 H501 H 0.79270 0.89494 0.66045
 Cu502 Cu 0.86379 0.86377 0.67201
 Cu503 Cu 0.82519 0.86329 0.63725
 Cu504 Cu 0.86449 0.82449 0.63729
 N505 N 0.88334 0.84011 0.67425
 N506 N 0.88347 0.82466 0.66071
 C507 C 0.89710 0.80946 0.66681
 C508 C 0.90566 0.81552 0.68542
 C509 C 0.89671 0.83521 0.68954
 H510 H 0.89984 0.79465 0.65877
 H511 H 0.89904 0.84487 0.70304
 N512 N 0.84072 0.82446 0.61786
 N513 N 0.82611 0.83950 0.61759
 C514 C 0.81116 0.83415 0.60401
 C515 C 0.81634 0.81460 0.59555
 C516 C 0.83534 0.80908 0.60454
 H517 H 0.79691 0.84323 0.60135
 H518 H 0.84405 0.79443 0.60231
 H519 H 0.84101 0.84000 0.65335
 H520 H 0.85703 0.85629 0.63534
 N521 N 0.67521 0.62087 0.66131
 N522 N 0.65970 0.61986 0.67466
 C523 C 0.66527 0.60683 0.69018
 C524 C 0.68551 0.59945 0.68646
 C525 C 0.69119 0.60848 0.66782
 H526 H 0.65561 0.60355 0.70351
 H527 H 0.70599 0.60660 0.65976
 Cu528 Cu 0.63479 0.63743 0.67141
 Cu529 Cu 0.67388 0.63894 0.63698
 Cu530 Cu 0.63393 0.67715 0.63692
 N531 N 0.61523 0.66102 0.67402
 N532 N 0.61484 0.67650 0.66041
 C533 C 0.60111 0.69153 0.66665
 C534 C 0.59284 0.68541 0.68546
 C535 C 0.60206 0.66582 0.68957
 H536 H 0.59826 0.70643 0.65872
 H537 H 0.60007 0.65612 0.70316
 N538 N 0.65808 0.67784 0.61777
 N539 N 0.67298 0.66310 0.61759
 C540 C 0.68810 0.66892 0.60422
 C541 C 0.68270 0.68846 0.59578
 C542 C 0.66342 0.69349 0.60457
 H543 H 0.70255 0.66014 0.60165
 H544 H 0.65445 0.70798 0.60228
 H545 H 0.65742 0.66176 0.65303
 H546 H 0.64199 0.64540 0.63480
 N547 N 0.67742 0.11859 0.15744
 N548 N 0.66264 0.11802 0.17158
 C549 C 0.66895 0.10533 0.18704
 C550 C 0.68895 0.09777 0.18254
 C551 C 0.69374 0.10633 0.16346
 H552 H 0.66004 0.10250 0.20096
 H553 H 0.70812 0.10424 0.15475
 Cu554 Cu 0.63767 0.13577 0.16955
 Cu555 Cu 0.67434 0.13587 0.13272
 Cu556 Cu 0.63886 0.17790 0.13772
 N557 N 0.61822 0.15938 0.17281
 N558 N 0.61836 0.17557 0.15999
 C559 C 0.60462 0.19040 0.16664
 C560 C 0.59581 0.18341 0.18492
 C561 C 0.60472 0.16352 0.18828
 H562 H 0.60224 0.20580 0.15951
 H563 H 0.60242 0.15323 0.20141
 N564 N 0.66083 0.17684 0.11621
 N565 N 0.67375 0.16047 0.11391
 C566 C 0.68799 0.16516 0.09928
 C567 C 0.68420 0.18564 0.09227
 C568 C 0.66670 0.19248 0.10322
 H569 H 0.70131 0.15518 0.09528
 H570 H 0.65955 0.20811 0.10275
 H571 H 0.66167 0.15884 0.15111
 H572 H 0.64281 0.14596 0.13329
 N573 N 0.17314 0.61444 0.16056
 N574 N 0.15806 0.61556 0.17437
 C575 C 0.16319 0.60314 0.19052
 C576 C 0.18253 0.59361 0.18651
 C577 C 0.18815 0.60093 0.16720
 H578 H 0.15391 0.60190 0.20440
 H579 H 0.20274 0.59768 0.15915
 Cu580 Cu 0.13433 0.63481 0.17065
 Cu581 Cu 0.17359 0.63255 0.13625
 Cu582 Cu 0.13538 0.67250 0.13416
 N583 N 0.11625 0.65976 0.17222
 N584 N 0.11702 0.67467 0.15806
 C585 C 0.10434 0.69092 0.16357
 C586 C 0.09533 0.68606 0.18238
 C587 C 0.10306 0.66599 0.18727
 H588 H 0.10235 0.70544 0.15479
 H589 H 0.09994 0.65696 0.20110
 N590 N 0.15961 0.67106 0.11520
 N591 N 0.17435 0.65621 0.11630
 C592 C 0.19040 0.66157 0.10377
 C593 C 0.18557 0.68079 0.09437
 C594 C 0.16578 0.68611 0.10174
 H595 H 0.20498 0.65272 0.10261
 H596 H 0.15733 0.70079 0.09877
 H597 H 0.15805 0.65704 0.15120
 H598 H 0.14207 0.64031 0.13372
 N599 N 0.17280 0.11569 0.66205
 N600 N 0.15720 0.11664 0.67531
 C601 C 0.16192 0.10438 0.69169
 C602 C 0.18157 0.09520 0.68843
 C603 C 0.18779 0.10252 0.66930
 H604 H 0.15204 0.10279 0.70514
 H605 H 0.20263 0.09933 0.66168
 Cu606 Cu 0.13318 0.13529 0.67048
 Cu607 Cu 0.17367 0.13327 0.63741
 Cu608 Cu 0.13481 0.17240 0.63345
 N609 N 0.11456 0.15993 0.67101
 N610 N 0.11579 0.17475 0.65680
 C611 C 0.10306 0.19112 0.66186
 C612 C 0.09344 0.18641 0.68042
 C613 C 0.10092 0.16632 0.68562
 H614 H 0.10157 0.20563 0.65300
 H615 H 0.09760 0.15760 0.69960
 N616 N 0.15954 0.17097 0.61516
 N617 N 0.17456 0.15647 0.61697
 C618 C 0.19077 0.16183 0.60463
 C619 C 0.18570 0.18064 0.59458
 C620 C 0.16568 0.18575 0.60145
 H621 H 0.20559 0.15334 0.60403
 H622 H 0.15699 0.20017 0.59793
 H623 H 0.15719 0.15769 0.65145
 H624 H 0.14214 0.14034 0.63375
 N625 N 0.32694 0.61489 0.33929
 N626 N 0.34169 0.61603 0.32515
 C627 C 0.33635 0.60361 0.30920
 C628 C 0.31722 0.59406 0.31370
 C629 C 0.31192 0.60142 0.33304
 H630 H 0.34538 0.60235 0.29517
 H631 H 0.29753 0.59817 0.34139
 Cu632 Cu 0.36537 0.63511 0.32836
 Cu633 Cu 0.32695 0.63289 0.36355
 Cu634 Cu 0.36489 0.67278 0.36470
 N635 N 0.38350 0.65978 0.32648
 N636 N 0.38330 0.67451 0.34074
 C637 C 0.39633 0.69034 0.33512
 C638 C 0.40488 0.68547 0.31612
 C639 C 0.39645 0.66581 0.31118
 H640 H 0.39867 0.70481 0.34376
 H641 H 0.39898 0.65676 0.29732
 N642 N 0.34074 0.67167 0.38382
 N643 N 0.32621 0.65673 0.38313
 C644 C 0.31024 0.66212 0.39576
 C645 C 0.31487 0.68144 0.40485
 C646 C 0.33448 0.68683 0.39711
 H647 H 0.29581 0.65321 0.39719
 H648 H 0.34276 0.70157 0.39978
 H649 H 0.34190 0.65746 0.34810
 H650 H 0.35843 0.64072 0.36536
 N651 N 0.32578 0.11737 0.83934
 N652 N 0.34003 0.11808 0.82470
 C653 C 0.33408 0.10531 0.80923
 C654 C 0.31504 0.09601 0.81454
 C655 C 0.31045 0.10384 0.83389
 H656 H 0.34267 0.10357 0.79498
 H657 H 0.29635 0.10084 0.84279
 Cu658 Cu 0.36409 0.13689 0.82671
 Cu659 Cu 0.32691 0.13584 0.86327
 Cu660 Cu 0.36443 0.17603 0.86157
 N661 N 0.38270 0.16113 0.82387
 N662 N 0.38285 0.17636 0.83765
 C663 C 0.39614 0.19173 0.83147
 C664 C 0.40449 0.18605 0.81260
 C665 C 0.39566 0.16641 0.80831
 H666 H 0.39877 0.20647 0.83958
 H667 H 0.39786 0.15694 0.79466
 N668 N 0.34084 0.17577 0.88128
 N669 N 0.32674 0.16042 0.88203
 C670 C 0.31146 0.16593 0.89538
 C671 C 0.31598 0.18586 0.90324
 C672 C 0.33489 0.19146 0.89413
 H673 H 0.29751 0.15662 0.89834
 H674 H 0.34310 0.20637 0.89589
 H675 H 0.34103 0.15967 0.84636
 H676 H 0.35841 0.14385 0.86368
 N677 N 0.82513 0.62081 0.83783
 N678 N 0.84044 0.62017 0.82423
 C679 C 0.83484 0.60740 0.80865
 C680 C 0.81481 0.59976 0.81260
 C681 C 0.80928 0.60838 0.83143
 H682 H 0.84438 0.60437 0.79518
 H683 H 0.79467 0.60616 0.83971
 Cu684 Cu 0.86527 0.63761 0.82745
 Cu685 Cu 0.82661 0.63837 0.86239
 Cu686 Cu 0.86610 0.67665 0.86241
 N687 N 0.88456 0.66128 0.82493
 N688 N 0.88491 0.67652 0.83868
 C689 C 0.89852 0.69162 0.83252
 C690 C 0.90677 0.68578 0.81363
 C691 C 0.89766 0.66629 0.80939
 H692 H 0.90133 0.70635 0.84060
 H693 H 0.89970 0.65677 0.79573
 N694 N 0.84223 0.67690 0.88192
 N695 N 0.82745 0.66219 0.88205
 C696 C 0.81246 0.66775 0.89569
 C697 C 0.81782 0.68706 0.90441
 C698 C 0.83694 0.69224 0.89544
 H699 H 0.79813 0.65891 0.89829
 H700 H 0.84581 0.70668 0.89782
 H701 H 0.84254 0.66157 0.84635
 H702 H 0.85842 0.64488 0.86419
 N703 N 0.82436 0.11980 0.34051
 N704 N 0.83942 0.11878 0.32666
 C705 C 0.83346 0.10576 0.31143
 C706 C 0.81341 0.09838 0.31580
 C707 C 0.80826 0.10741 0.33456
 H708 H 0.84273 0.10249 0.29783
 H709 H 0.79370 0.10555 0.34302
 Cu710 Cu 0.86431 0.13636 0.32873
 Cu711 Cu 0.82654 0.13793 0.36466
 Cu712 Cu 0.86673 0.17552 0.36328
 N713 N 0.88369 0.15988 0.32526
 N714 N 0.88482 0.17504 0.33904
 C715 C 0.89851 0.18989 0.33251
 C716 C 0.90597 0.18402 0.31333
 C717 C 0.89628 0.16475 0.30927
 H718 H 0.90191 0.20451 0.34056
 H719 H 0.89760 0.15532 0.29549
 N720 N 0.84346 0.17631 0.38341
 N721 N 0.82849 0.16181 0.38422
 C722 C 0.81401 0.16784 0.39820
 C723 C 0.81982 0.18731 0.40627
 C724 C 0.83873 0.19205 0.39667
 H725 H 0.79949 0.15947 0.40126
 H726 H 0.84786 0.20640 0.39840
 H727 H 0.84236 0.16072 0.34802
 H728 H 0.85839 0.14385 0.36556
 N729 N 0.67323 0.38067 0.33996
 N730 N 0.65854 0.37978 0.32586
 C731 C 0.66412 0.39211 0.30982
 C732 C 0.68336 0.40137 0.31416
 C733 C 0.68848 0.39397 0.33358
 H734 H 0.65510 0.39365 0.29586
 H735 H 0.70277 0.39720 0.34198
 Cu736 Cu 0.63441 0.36120 0.32896
 Cu737 Cu 0.67243 0.36289 0.36455
 Cu738 Cu 0.63654 0.32124 0.36290
 N739 N 0.61631 0.33660 0.32640
 N740 N 0.61781 0.32060 0.33936
 C741 C 0.60529 0.30472 0.33308
 C742 C 0.59552 0.31101 0.31504
 C743 C 0.60273 0.33148 0.31141
 H744 H 0.60386 0.28957 0.34087
 H745 H 0.59919 0.34144 0.29829
 N746 N 0.65979 0.32242 0.38277
 N747 N 0.67315 0.33842 0.38370
 C748 C 0.68819 0.33364 0.39751
 C749 C 0.68432 0.31352 0.40545
 C750 C 0.66604 0.30702 0.39586
 H751 H 0.70178 0.34342 0.40056
 H752 H 0.65834 0.29182 0.39758
 H753 H 0.65922 0.33907 0.34754
 H754 H 0.64151 0.35357 0.36555
 N755 N 0.67237 0.87888 0.84033
 N756 N 0.65704 0.87949 0.82685
 C757 C 0.66262 0.89222 0.81112
 C758 C 0.68267 0.89983 0.81481
 C759 C 0.68822 0.89126 0.83368
 H760 H 0.65310 0.89517 0.79767
 H761 H 0.70286 0.89347 0.84180
 Cu762 Cu 0.63230 0.86183 0.83008
 Cu763 Cu 0.67091 0.86130 0.86499
 Cu764 Cu 0.63376 0.82095 0.86329
 N765 N 0.61367 0.83768 0.82724
 N766 N 0.61486 0.82136 0.83986
 C767 C 0.60211 0.80585 0.83320
 C768 C 0.59259 0.81269 0.81523
 C769 C 0.60011 0.83312 0.81207
 H770 H 0.60042 0.79052 0.84061
 H771 H 0.59684 0.84342 0.79913
 N772 N 0.65712 0.82123 0.88310
 N773 N 0.67076 0.83696 0.88423
 C774 C 0.68556 0.83187 0.89816
 C775 C 0.68134 0.81175 0.90588
 C776 C 0.66304 0.80559 0.89608
 H777 H 0.69929 0.84138 0.90138
 H778 H 0.65512 0.79047 0.89753
 H779 H 0.65637 0.83837 0.84799
 H780 H 0.63937 0.85311 0.86648
 N781 N 0.17217 0.38212 0.83850
 N782 N 0.15763 0.38189 0.82421
 C783 C 0.16348 0.39484 0.80871
 C784 C 0.18275 0.40376 0.81361
 C785 C 0.18758 0.39554 0.83279
 H786 H 0.15463 0.39696 0.79472
 H787 H 0.20186 0.39819 0.84139
 Cu788 Cu 0.13338 0.36338 0.82662
 Cu789 Cu 0.17118 0.36319 0.86227
 Cu790 Cu 0.13300 0.32355 0.86096
 N791 N 0.11467 0.33929 0.82364
 N792 N 0.11459 0.32373 0.83715
 C793 C 0.10145 0.30840 0.83077
 C794 C 0.09314 0.31447 0.81203
 C795 C 0.10180 0.33431 0.80804
 H796 H 0.09895 0.29341 0.83861
 H797 H 0.09964 0.34409 0.79454
 N798 N 0.15670 0.32330 0.88039
 N799 N 0.17112 0.33836 0.88094
 C800 C 0.18631 0.33248 0.89418
 C801 C 0.18139 0.31265 0.90218
 C802 C 0.16235 0.30747 0.89326
 H803 H 0.20044 0.34152 0.89703
 H804 H 0.15379 0.29276 0.89524
 H805 H 0.15643 0.33984 0.84549
 H806 H 0.13961 0.35556 0.86338
 N807 N 0.17216 0.88347 0.33838
 N808 N 0.15756 0.88257 0.32419
 C809 C 0.16308 0.89528 0.30838
 C810 C 0.18218 0.90473 0.31302
 C811 C 0.18725 0.89705 0.33232
 H812 H 0.15424 0.89676 0.29432
 H813 H 0.20157 0.90010 0.34073
 Cu814 Cu 0.13394 0.86323 0.32696
 Cu815 Cu 0.17190 0.86513 0.36249
 Cu816 Cu 0.13538 0.82399 0.36196
 N817 N 0.11626 0.83826 0.32446
 N818 N 0.11741 0.82262 0.33787
 C819 C 0.10510 0.80652 0.33166
 C820 C 0.09585 0.81230 0.31323
 C821 C 0.10311 0.83269 0.30928
 H822 H 0.10342 0.79157 0.33978
 H823 H 0.09973 0.84237 0.29592
 N824 N 0.15874 0.82542 0.38172
 N825 N 0.17278 0.84084 0.38170
 C826 C 0.18830 0.83577 0.39489
 C827 C 0.18389 0.81615 0.40361
 C828 C 0.16484 0.81026 0.39512
 H829 H 0.20232 0.84515 0.39711
 H830 H 0.15675 0.79534 0.39752
 H831 H 0.15796 0.84091 0.34615
 H832 H 0.14055 0.85628 0.36380
 C833 C 0.24941 1.05710 0.25068
 C834 C 0.26045 1.04637 0.23512
 C835 C 0.26037 1.02396 0.23516
 C836 C 0.25027 1.01224 0.25090
 C837 C 0.23979 1.02372 0.26656
 C838 C 0.23867 1.04611 0.26626
 C839 C 0.25059 0.98817 0.25094
 C840 C 0.23561 0.97641 0.26233
 C841 C 0.23665 0.95407 0.26358
 C842 C 0.25085 0.94329 0.25070
 C843 C 0.26493 0.95432 0.23794
 C844 C 0.26574 0.97664 0.23945
 H845 H 0.24919 1.07435 0.25075
 H846 H 0.26841 1.01572 0.22302
 H847 H 0.23249 1.01526 0.27898
 H848 H 0.22283 0.98443 0.27005
 H849 H 0.25088 0.92605 0.25050
 H850 H 0.27843 0.98484 0.23185
 C851 C 0.25038 0.55712 0.75140
 C852 C 0.26140 0.54621 0.73595
 C853 C 0.26102 0.52380 0.73605
 C854 C 0.25079 0.51224 0.75182
 C855 C 0.24032 0.52392 0.76738
 C856 C 0.23953 0.54633 0.76704
 C857 C 0.25099 0.48814 0.75198
 C858 C 0.23605 0.47647 0.76352
 C859 C 0.23699 0.45411 0.76480
 C860 C 0.25111 0.44324 0.75192
 C861 C 0.26509 0.45416 0.73897
 C862 C 0.26601 0.47648 0.74042
 H863 H 0.25029 0.57438 0.75128
 H864 H 0.26883 0.51541 0.72388
 H865 H 0.23267 0.51561 0.77969
 H866 H 0.22334 0.48458 0.77124
 H867 H 0.25112 0.42600 0.75186
 H868 H 0.27867 0.48456 0.73269
 C869 C 0.74974 -0.05570 0.25116
 C870 C 0.76362 -0.04490 0.26411
 C871 C 0.76482 -0.02261 0.26250
 C872 C 0.75029 -0.01082 0.25054
 C873 C 0.73560 -0.02235 0.23872
 C874 C 0.73630 -0.04472 0.23773
 C875 C 0.75055 0.01327 0.25035
 C876 C 0.73991 0.02502 0.23499
 C877 C 0.73878 0.04738 0.23558
 C878 C 0.75133 0.05815 0.24979
 C879 C 0.76318 0.04714 0.26456
 C880 C 0.76141 0.02483 0.26558
 H881 H 0.74949 -0.07294 0.25143
 H882 H 0.77740 -0.01464 0.27031
 H883 H 0.72333 -0.01413 0.23051
 H884 H 0.73276 0.01694 0.22230
 H885 H 0.75183 0.07540 0.24944
 H886 H 0.76821 0.01658 0.27841
 C887 C 0.75121 0.44479 0.74990
 C888 C 0.76301 0.45570 0.76462
 C889 C 0.76164 0.47802 0.76517
 C890 C 0.75107 0.48959 0.74968
 C891 C 0.74087 0.47802 0.73407
 C892 C 0.74023 0.45564 0.73440
 C893 C 0.75065 0.51359 0.74988
 C894 C 0.73501 0.52511 0.73914
 C895 C 0.73553 0.54744 0.73785
 C896 C 0.75016 0.55837 0.74990
 C897 C 0.76496 0.54753 0.76204
 C898 C 0.76597 0.52520 0.76074
 H899 H 0.75071 0.42755 0.75049
 H900 H 0.76829 0.48631 0.77800
 H901 H 0.73306 0.48643 0.72190
 H902 H 0.72237 0.51671 0.73195
 H903 H 0.75003 0.57564 0.74983
 H904 H 0.77881 0.51689 0.76791
 C905 C 0.25057 0.44199 0.25154
 C906 C 0.26153 0.45290 0.26687
 C907 C 0.26072 0.47530 0.26694
 C908 C 0.25011 0.48687 0.25139
 C909 C 0.23981 0.47519 0.23591
 C910 C 0.23962 0.45279 0.23599
 C911 C 0.24984 0.51096 0.25127
 C912 C 0.23478 0.52252 0.23972
 C913 C 0.23558 0.54485 0.23813
 C914 C 0.24948 0.55586 0.25091
 C915 C 0.26357 0.54504 0.26384
 C916 C 0.26471 0.52271 0.26262
 H917 H 0.25064 0.42474 0.25174
 H918 H 0.26842 0.48368 0.27907
 H919 H 0.23173 0.48343 0.22382
 H920 H 0.22216 0.51439 0.23211
 H921 H 0.24941 0.57309 0.25071
 H922 H 0.27748 0.51471 0.27032
 C923 C 0.74302 1.05481 0.74905
 C924 C 0.75397 1.04410 0.73342
 C925 C 0.75410 1.02172 0.73355
 C926 C 0.74430 1.01002 0.74945
 C927 C 0.73377 1.02144 0.76511
 C928 C 0.73248 1.04380 0.76474
 C929 C 0.74530 0.98603 0.74992
 C930 C 0.73020 0.97416 0.76096
 C931 C 0.73190 0.95191 0.76288
 C932 C 0.74717 0.94127 0.75111
 C933 C 0.76164 0.95239 0.73883
 C934 C 0.76133 0.97479 0.73940
 H935 H 0.74290 1.07205 0.74926
 H936 H 0.76225 1.01351 0.72142
 H937 H 0.72672 1.01293 0.77765
 H938 H 0.71697 0.98222 0.76775
 H939 H 0.74777 0.92401 0.75145
 H940 H 0.77357 0.98349 0.73177
 C941 C 0.74872 0.55511 0.25066
 C942 C 0.75967 0.54432 0.23510
 C943 C 0.75908 0.52192 0.23488
 C944 C 0.74885 0.51025 0.25061
 C945 C 0.73802 0.52184 0.26597
 C946 C 0.73666 0.54419 0.26531
 C947 C 0.74962 0.48619 0.25114
 C948 C 0.73476 0.47442 0.26269
 C949 C 0.73579 0.45208 0.26390
 C950 C 0.75001 0.44133 0.25106
 C951 C 0.76493 0.45230 0.23921
 C952 C 0.76506 0.47469 0.24000
 H953 H 0.74945 0.57232 0.25136
 H954 H 0.76702 0.51368 0.22269
 H955 H 0.73122 0.51364 0.27887
 H956 H 0.72191 0.48247 0.27024
 H957 H 0.74947 0.42410 0.25029
 H958 H 0.77694 0.48312 0.23159
 C959 C 0.24685 -0.05732 0.75547
 C960 C 0.25760 -0.04647 0.77098
 C961 C 0.25613 -0.02409 0.77157
 C962 C 0.24522 -0.01248 0.75622
 C963 C 0.23458 -0.02417 0.74095
 C964 C 0.23413 -0.04654 0.74127
 C965 C 0.24535 0.01161 0.75578
 C966 C 0.23054 0.02322 0.74396
 C967 C 0.23189 0.04547 0.74177
 C968 C 0.24618 0.05647 0.75413
 C969 C 0.26001 0.04570 0.76735
 C970 C 0.26049 0.02331 0.76685
 H971 H 0.24853 -0.07445 0.75433
 H972 H 0.26401 -0.01577 0.78364
 H973 H 0.22726 -0.01608 0.72823
 H974 H 0.21777 0.01510 0.73661
 H975 H 0.24666 0.07369 0.75330
 H976 H 0.27304 0.01521 0.77476
 C977 C 0.24550 0.24704 1.05184
 C978 C 0.23300 0.26189 1.04135
 C979 C 0.23423 0.26256 1.01984
 C980 C 0.24560 0.24696 1.00873
 C981 C 0.25649 0.23103 1.01993
 C982 C 0.25728 0.23148 1.04147
 C983 C 0.24646 0.24761 0.98562
 C984 C 0.26284 0.23730 0.97473
 C985 C 0.26310 0.23677 0.95317
 C986 C 0.24806 0.24892 0.94252
 C987 C 0.23239 0.26063 0.95282
 C988 C 0.23096 0.25868 0.97426
 H989 H 0.24618 0.24772 1.06844
 H990 H 0.22697 0.27570 1.01189
 H991 H 0.26474 0.21861 1.01193
 H992 H 0.27539 0.22979 0.98303
 H993 H 0.24855 0.24929 0.92590
 H994 H 0.21766 0.26550 0.98208
 C995 C 0.24796 0.74588 0.55145
 C996 C 0.23271 0.75819 0.54134
 C997 C 0.23239 0.75804 0.51978
 C998 C 0.24804 0.74714 0.50831
 C999 C 0.26345 0.73538 0.51922
 C1000 C 0.26278 0.73364 0.54069
 C1001 C 0.24856 0.74825 0.48515
 C1002 C 0.26049 0.73344 0.47357
 C1003 C 0.26250 0.73537 0.45219
 C1004 C 0.24951 0.75005 0.44198
 C1005 C 0.23625 0.76404 0.45277
 C1006 C 0.23718 0.76407 0.47431
 H1007 H 0.24850 0.74598 0.56807
 H1008 H 0.22024 0.76683 0.51206
 H1009 H 0.27639 0.72815 0.51118
 H1010 H 0.26807 0.72008 0.48094
 H1011 H 0.24943 0.75047 0.42538
 H1012 H 0.22926 0.77661 0.48247
 C1013 C 0.25079 0.75068 -0.05113
 C1014 C 0.26515 0.76350 -0.04065
 C1015 C 0.26585 0.76213 -0.01914
 C1016 C 0.25048 0.75065 -0.00797
 C1017 C 0.23516 0.73933 -0.01918
 C1018 C 0.23614 0.73800 -0.04068
 C1019 C 0.25044 0.75045 0.01520
 C1020 C 0.23893 0.73501 0.02631
 C1021 C 0.23736 0.73575 0.04780
 C1022 C 0.25032 0.74996 0.05842
 C1023 C 0.26337 0.76439 0.04800
 C1024 C 0.26195 0.76561 0.02651
 H1025 H 0.25098 0.75060 -0.06775
 H1026 H 0.27864 0.76965 -0.01126
 H1027 H 0.22229 0.73180 -0.01133
 H1028 H 0.23137 0.72211 0.01846
 H1029 H 0.25027 0.74976 0.07501
 H1030 H 0.26963 0.77863 0.01880
 C1031 C 0.24985 0.25007 0.44834
 C1032 C 0.26416 0.26304 0.45874
 C1033 C 0.26488 0.26179 0.48025
 C1034 C 0.24957 0.25033 0.49150
 C1035 C 0.23429 0.23887 0.48037
 C1036 C 0.23523 0.23741 0.45888
 C1037 C 0.24958 0.25027 0.51467
 C1038 C 0.23815 0.23487 0.52592
 C1039 C 0.23671 0.23573 0.54741
 C1040 C 0.24965 0.25005 0.55789
 C1041 C 0.26259 0.26445 0.54733
 C1042 C 0.26107 0.26554 0.52584
 H1043 H 0.25008 0.24981 0.43172
 H1044 H 0.27768 0.26939 0.48805
 H1045 H 0.22146 0.23135 0.48831
 H1046 H 0.23052 0.22193 0.51818
 H1047 H 0.24967 0.24998 0.57448
 H1048 H 0.26871 0.27854 0.51805
 C1049 C 0.75220 0.75171 1.05467
 C1050 C 0.74020 0.76709 1.04425
 C1051 C 0.74093 0.76741 1.02267
 C1052 C 0.75191 0.75152 1.01149
 C1053 C 0.76276 0.73556 1.02269
 C1054 C 0.76350 0.73582 1.04425
 C1055 C 0.75192 0.75145 0.98830
 C1056 C 0.76749 0.74014 0.97708
 C1057 C 0.76652 0.73846 0.95559
 C1058 C 0.75128 0.75051 0.94513
 C1059 C 0.73666 0.76336 0.95556
 C1060 C 0.73621 0.76250 0.97711
 H1061 H 0.75251 0.75201 1.07128
 H1062 H 0.73305 0.78005 1.01461
 H1063 H 0.77080 0.72301 1.01468
 H1064 H 0.78045 0.73283 0.98500
 H1065 H 0.75080 0.74982 0.92853
 H1066 H 0.72328 0.77000 0.98503
 C1067 C 0.75327 0.25270 0.55514
 C1068 C 0.74196 0.26856 0.54466
 C1069 C 0.74327 0.26919 0.52312
 C1070 C 0.75456 0.25350 0.51198
 C1071 C 0.76587 0.23791 0.52327
 C1072 C 0.76637 0.23821 0.54483
 C1073 C 0.75425 0.25319 0.48877
 C1074 C 0.76946 0.24151 0.47748
 C1075 C 0.76834 0.23989 0.45600
 C1076 C 0.75370 0.25269 0.44557
 C1077 C 0.73901 0.26537 0.45607
 C1078 C 0.73858 0.26437 0.47763
 H1079 H 0.75192 0.25162 0.57168
 H1080 H 0.73506 0.28164 0.51510
 H1081 H 0.77366 0.22500 0.51547
 H1082 H 0.78242 0.23394 0.48523
 H1083 H 0.75355 0.25259 0.42895
 H1084 H 0.72575 0.27193 0.48559
 C1085 C 0.75874 0.24433 -0.05527
 C1086 C 0.77029 0.25963 -0.04459
 C1087 C 0.76939 0.25951 -0.02304
 C1088 C 0.75848 0.24346 -0.01211
 C1089 C 0.74756 0.22791 -0.02355
 C1090 C 0.74688 0.22874 -0.04511
 C1091 C 0.75799 0.24340 0.01107
 C1092 C 0.74194 0.23265 0.02200
 C1093 C 0.74139 0.23249 0.04355
 C1094 C 0.75541 0.24564 0.05412
 C1095 C 0.77157 0.25661 0.04397
 C1096 C 0.77324 0.25459 0.02253
 H1097 H 0.75860 0.24491 -0.07189
 H1098 H 0.77695 0.27208 -0.01484
 H1099 H 0.73926 0.21542 -0.01575
 H1100 H 0.72935 0.22501 0.01390
 H1101 H 0.75373 0.24734 0.07058
 H1102 H 0.78614 0.26213 0.01476
 C1103 C 0.74689 0.75402 0.44612
 C1104 C 0.75891 0.76931 0.45636
 C1105 C 0.75887 0.76923 0.47795
 C1106 C 0.74802 0.75341 0.48928
 C1107 C 0.73680 0.73779 0.47824
 C1108 C 0.73573 0.73822 0.45671
 C1109 C 0.74853 0.75300 0.51246
 C1110 C 0.73302 0.74193 0.52383
 C1111 C 0.73423 0.74003 0.54529
 C1112 C 0.74944 0.75197 0.55563
 C1113 C 0.76427 0.76437 0.54504
 C1114 C 0.76449 0.76361 0.52346
 H1115 H 0.74653 0.75420 0.42951
 H1116 H 0.76748 0.78135 0.48583
 H1117 H 0.72886 0.72529 0.48636
 H1118 H 0.71977 0.73512 0.51610
 H1119 H 0.74972 0.75167 0.57225
 H1120 H 0.77720 0.77102 0.51530
 C1121 C 1.05828 0.25000 0.24972
 C1122 C 1.04746 0.23914 0.26535
 C1123 C 1.02530 0.23955 0.26526
 C1124 C 1.01390 0.24983 0.24943
 C1125 C 1.02550 0.26020 0.23376
 C1126 C 1.04764 0.26101 0.23410
 C1127 C 0.99007 0.24977 0.24925
 C1128 C 0.97864 0.26474 0.23737
 C1129 C 0.95660 0.26372 0.23570
 C1130 C 0.94570 0.24949 0.24845
 C1131 C 0.95631 0.23570 0.26190
 C1132 C 0.97845 0.23484 0.26096
 H1133 H 1.07534 0.24995 0.24969
 H1134 H 1.01703 0.23162 0.27744
 H1135 H 1.01733 0.26772 0.22130
 H1136 H 0.98675 0.27748 0.22972
 H1137 H 0.92865 0.24923 0.24793
 H1138 H 0.98639 0.22224 0.26911
 C1139 C 0.55737 0.25102 0.74954
 C1140 C 0.54655 0.23573 0.76115
 C1141 C 0.52448 0.23487 0.75954
 C1142 C 0.51306 0.24996 0.74773
 C1143 C 0.52474 0.26495 0.73615
 C1144 C 0.54687 0.26455 0.73579
 C1145 C 0.48920 0.25023 0.74771
 C1146 C 0.47779 0.26162 0.73258
 C1147 C 0.45566 0.26260 0.73292
 C1148 C 0.44482 0.24966 0.74692
 C1149 C 0.45538 0.23835 0.76237
 C1150 C 0.47751 0.23918 0.76289
 H1151 H 0.57429 0.25225 0.75110
 H1152 H 0.51632 0.22270 0.76785
 H1153 H 0.51689 0.27747 0.72780
 H1154 H 0.48590 0.26924 0.72008
 H1155 H 0.42781 0.24870 0.74596
 H1156 H 0.48547 0.23086 0.77498
 C1157 C -0.05847 0.25569 0.74413
 C1158 C -0.04736 0.26915 0.75728
 C1159 C -0.02528 0.26935 0.75593
 C1160 C -0.01411 0.25387 0.74443
 C1161 C -0.02602 0.23936 0.73269
 C1162 C -0.04806 0.24114 0.73128
 C1163 C 0.00968 0.25255 0.74510
 C1164 C 0.02116 0.24070 0.73035
 C1165 C 0.04321 0.23887 0.73130
 C1166 C 0.05403 0.25136 0.74553
 C1167 C 0.04335 0.26296 0.76071
 C1168 C 0.02121 0.26308 0.76056
 H1169 H -0.07552 0.25616 0.74429
 H1170 H -0.01702 0.28178 0.76377
 H1171 H -0.01840 0.22624 0.72506
 H1172 H 0.01319 0.23342 0.71768
 H1173 H 0.07107 0.25179 0.74490
 H1174 H 0.01312 0.27181 0.77234
 C1175 C 0.44281 0.24665 0.24994
 C1176 C 0.45333 0.25776 0.26542
 C1177 C 0.47547 0.25737 0.26551
 C1178 C 0.48716 0.24714 0.24982
 C1179 C 0.47585 0.23638 0.23437
 C1180 C 0.45376 0.23506 0.23492
 C1181 C 0.51097 0.24774 0.24955
 C1182 C 0.52283 0.23300 0.23781
 C1183 C 0.54492 0.23388 0.23699
 C1184 C 0.55530 0.24754 0.25051
 C1185 C 0.54425 0.26231 0.26257
 C1186 C 0.52215 0.26295 0.26116
 H1187 H 0.42576 0.24701 0.24947
 H1188 H 0.48348 0.26544 0.27764
 H1189 H 0.48414 0.22950 0.22163
 H1190 H 0.51511 0.22041 0.22964
 H1191 H 0.57232 0.24693 0.25147
 H1192 H 0.51373 0.27520 0.26917
 C1193 C 1.05949 0.75142 0.74963
 C1194 C 1.04878 0.74061 0.76535
 C1195 C 1.02663 0.74112 0.76547
 C1196 C 1.01511 0.75148 0.74978
 C1197 C 1.02657 0.76183 0.73401
 C1198 C 1.04872 0.76239 0.73405
 C1199 C 0.99130 0.75149 0.74987
 C1200 C 0.97974 0.76652 0.73815
 C1201 C 0.95768 0.76553 0.73678
 C1202 C 0.94695 0.75121 0.74955
 C1203 C 0.95770 0.73733 0.76277
 C1204 C 0.97980 0.73652 0.76165
 H1205 H 1.07654 0.75134 0.74950
 H1206 H 1.01846 0.73323 0.77775
 H1207 H 1.01833 0.76959 0.72173
 H1208 H 0.98778 0.77921 0.73038
 H1209 H 0.92989 0.75094 0.74920
 H1210 H 0.98784 0.72387 0.76962
 C1211 C 0.55744 0.75016 0.25113
 C1212 C 0.54671 0.73612 0.26418
 C1213 C 0.52460 0.73588 0.26354
 C1214 C 0.51310 0.75138 0.25236
 C1215 C 0.52464 0.76658 0.24089
 C1216 C 0.54676 0.76561 0.23952
 C1217 C 0.48927 0.75159 0.25255
 C1218 C 0.47770 0.76266 0.23732
 C1219 C 0.45557 0.76345 0.23775
 C1220 C 0.44493 0.75049 0.25187
 C1221 C 0.45568 0.73925 0.26727
 C1222 C 0.47779 0.74054 0.26787
 H1223 H 0.57448 0.74921 0.25024
 H1224 H 0.51651 0.72320 0.27130
 H1225 H 0.51646 0.77895 0.23277
 H1226 H 0.48568 0.77019 0.22467
 H1227 H 0.42794 0.74925 0.25097
 H1228 H 0.48599 0.73255 0.28004
 C1229 C -0.05752 0.75150 0.24792
 C1230 C -0.04668 0.76688 0.25924
 C1231 C -0.02458 0.76725 0.25804
 C1232 C -0.01319 0.75186 0.24665
 C1233 C -0.02483 0.73676 0.23534
 C1234 C -0.04696 0.73740 0.23478
 C1235 C 0.01064 0.75145 0.24674
 C1236 C 0.02211 0.74014 0.23163
 C1237 C 0.04417 0.73838 0.23247
 C1238 C 0.05500 0.75072 0.24683
 C1239 C 0.04431 0.76334 0.26121
 C1240 C 0.02221 0.76231 0.26196
 H1241 H -0.07448 0.75054 0.24927
 H1242 H -0.01633 0.77924 0.26644
 H1243 H -0.01689 0.72397 0.22747
 H1244 H 0.01399 0.73297 0.21903
 H1245 H 0.07208 0.75039 0.24687
 H1246 H 0.01419 0.76960 0.27466
 C1247 C 0.43972 0.75096 0.74847
 C1248 C 0.45029 0.76189 0.76406
 C1249 C 0.47243 0.76165 0.76402
 C1250 C 0.48409 0.75132 0.74840
 C1251 C 0.47279 0.74082 0.73280
 C1252 C 0.45066 0.74015 0.73289
 C1253 C 0.50789 0.75137 0.74849
 C1254 C 0.51958 0.73622 0.73710
 C1255 C 0.54168 0.73685 0.73628
 C1256 C 0.55219 0.75060 0.74961
 C1257 C 0.54124 0.76523 0.76190
 C1258 C 0.51920 0.76642 0.76013
 H1259 H 0.42268 0.75085 0.74845
 H1260 H 0.48046 0.76969 0.77616
 H1261 H 0.48113 0.73298 0.72063
 H1262 H 0.51169 0.72355 0.72923
 H1263 H 0.56923 0.74999 0.75040
 H1264 H 0.51096 0.77911 0.76771
 C1265 C 0.41679 0.29683 0.30233
 C1266 C 0.40760 0.27449 0.29919
 C1267 C 0.42002 0.26137 0.28774
 C1268 C 0.44049 0.27179 0.27995
 C1269 C 0.43324 0.29224 0.26897
 C1270 C 0.42094 0.30529 0.28055
 C1271 C 0.43876 0.29279 0.31136
 C1272 C 0.45116 0.27966 0.29980
 H1273 H 0.39285 0.26920 0.30591
 H1274 H 0.41592 0.24485 0.28504
 H1275 H 0.43755 0.29618 0.25328
 H1276 H 0.41485 0.32019 0.27451
 H1277 H 0.44383 0.29902 0.32605
 H1278 H 0.46642 0.27441 0.30529
 C1279 C 0.41417 0.80059 0.80181
 C1280 C 0.40472 0.77839 0.79825
 C1281 C 0.41697 0.76535 0.78652
 C1282 C 0.43753 0.77569 0.77888
 C1283 C 0.43051 0.79642 0.76829
 C1284 C 0.41839 0.80940 0.78011
 C1285 C 0.43615 0.79609 0.81068
 C1286 C 0.44834 0.78302 0.79885
 H1287 H 0.38995 0.77309 0.80493
 H1288 H 0.41268 0.74893 0.78359
 H1289 H 0.43483 0.80058 0.75265
 H1290 H 0.41252 0.82446 0.77423
 H1291 H 0.44136 0.80187 0.82549
 H1292 H 0.46351 0.77740 0.80423
 C1293 C -0.08249 0.30678 0.79684
 C1294 C -0.08201 0.31467 0.77445
 C1295 C -0.07011 0.30233 0.76173
 C1296 C -0.05960 0.28316 0.77232
 C1297 C -0.04727 0.29281 0.79044
 C1298 C -0.05926 0.30517 0.80313
 C1299 C -0.08986 0.28357 0.79545
 C1300 C -0.07783 0.27122 0.78294
 H1301 H -0.09045 0.32856 0.76885
 H1302 H -0.06835 0.30585 0.74550
 H1303 H -0.03094 0.28936 0.79396
 H1304 H -0.05295 0.31248 0.81685
 H1305 H -0.10313 0.27718 0.80398
 H1306 H -0.08075 0.25430 0.78118
 C1307 C -0.08235 0.80222 0.30017
 C1308 C -0.09197 0.80061 0.27866
 C1309 C -0.07984 0.78970 0.26501
 C1310 C -0.05915 0.78090 0.27407
 C1311 C -0.04832 0.80088 0.28288
 C1312 C -0.06046 0.81188 0.29658
 C1313 C -0.07794 0.77905 0.30665
 C1314 C -0.06592 0.76802 0.29304
 H1315 H -0.10687 0.80791 0.27437
 H1316 H -0.08433 0.78802 0.24904
 H1317 H -0.03319 0.80695 0.27796
 H1318 H -0.05529 0.82664 0.30353
 H1319 H -0.08324 0.77185 0.32086
 H1320 H -0.06124 0.75159 0.29574
 C1321 C 0.58410 0.69817 0.30139
 C1322 C 0.58929 0.72204 0.30196
 C1323 C 0.57642 0.73431 0.29018
 C1324 C 0.55962 0.72173 0.27833
 C1325 C 0.57212 0.70467 0.26651
 C1326 C 0.58491 0.69241 0.27847
 C1327 C 0.56071 0.69698 0.30726
 C1328 C 0.54787 0.70927 0.29534
 H1329 H 0.60187 0.72883 0.31103
 H1330 H 0.57795 0.75152 0.28954
 H1331 H 0.57121 0.70263 0.25000
 H1332 H 0.59497 0.68012 0.27201
 H1333 H 0.55481 0.68782 0.32020
 H1334 H 0.53124 0.71072 0.29880
 C1335 C 0.58294 0.20100 0.80202
 C1336 C 0.56069 0.19181 0.79992
 C1337 C 0.54820 0.20261 0.78637
 C1338 C 0.55911 0.22195 0.77615
 C1339 C 0.56699 0.23532 0.79427
 C1340 C 0.57935 0.22448 0.80774
 C1341 C 0.59163 0.20157 0.78001
 C1342 C 0.57918 0.21230 0.76652
 H1343 H 0.55541 0.17759 0.80790
 H1344 H 0.53261 0.19688 0.78275
 H1345 H 0.56268 0.25190 0.79659
 H1346 H 0.58527 0.23196 0.82150
 H1347 H 0.60619 0.19383 0.77533
 H1348 H 0.58309 0.21344 0.75033
 C1349 C 1.08496 0.70205 0.80311
 C1350 C 1.06287 0.70612 0.81199
 C1351 C 1.05056 0.71909 0.80015
 C1352 C 1.06146 0.72679 0.78022
 C1353 C 1.08180 0.73736 0.78794
 C1354 C 1.09411 0.72440 0.79966
 C1355 C 1.08108 0.69336 0.78145
 C1356 C 1.06889 0.70625 0.76961
 H1357 H 1.05765 0.70002 0.82675
 H1358 H 1.03522 0.72433 0.80550
 H1359 H 1.08586 0.75387 0.78503
 H1360 H 1.10874 0.72981 0.80640
 H1361 H 1.08719 0.67838 0.77568
 H1362 H 1.06470 0.70209 0.75400
 C1363 C 1.08357 0.20074 0.30334
 C1364 C 1.09256 0.22319 0.30007
 C1365 C 1.08025 0.23609 0.28828
 C1366 C 1.06009 0.22538 0.28032
 C1367 C 1.06781 0.20496 0.26969
 C1368 C 1.07999 0.19213 0.28159
 C1369 C 1.06135 0.20458 0.31202
 C1370 C 1.04906 0.21750 0.30011
 H1371 H 1.10708 0.22870 0.30695
 H1372 H 1.08420 0.25265 0.28545
 H1373 H 1.06390 0.20087 0.25400
 H1374 H 1.08638 0.17729 0.27578
 H1375 H 1.05605 0.19842 0.32673
 H1376 H 1.03362 0.22260 0.30532
 C1377 C 0.58311 0.30386 0.69893
 C1378 C 0.57964 0.31206 0.72093
 C1379 C 0.56747 0.29909 0.73277
 C1380 C 0.55970 0.27905 0.72174
 C1381 C 0.54862 0.28747 0.70224
 C1382 C 0.56086 0.30047 0.69043
 C1383 C 0.59211 0.28128 0.70172
 C1384 C 0.57983 0.26829 0.71331
 H1385 H 0.58627 0.32663 0.72694
 H1386 H 0.56371 0.30273 0.74864
 H1387 H 0.53299 0.28285 0.69738
 H1388 H 0.55543 0.30713 0.67599
 H1389 H 0.60667 0.27575 0.69471
 H1390 H 0.58387 0.25165 0.71571
 C1391 C 0.58416 0.80108 0.20017
 C1392 C 0.58151 0.77755 0.19429
 C1393 C 0.56878 0.76647 0.20723
 C1394 C 0.55967 0.77965 0.22505
 C1395 C 0.57903 0.78955 0.23546
 C1396 C 0.59186 0.80051 0.22248
 C1397 C 0.56160 0.80990 0.20149
 C1398 C 0.54876 0.79884 0.21449
 H1399 H 0.58883 0.77001 0.18113
 H1400 H 0.56530 0.74974 0.20488
 H1401 H 0.58225 0.78823 0.25176
 H1402 H 0.60612 0.80823 0.22771
 H1403 H 0.55630 0.82398 0.19325
 H1404 H 0.53278 0.80415 0.21729
 C1405 C 1.08483 0.29943 0.19711
 C1406 C 1.06217 0.29784 0.18913
 C1407 C 1.04945 0.28505 0.20068
 C1408 C 1.06054 0.27494 0.21946
 C1409 C 1.07977 0.26341 0.21009
 C1410 C 1.09249 0.27621 0.19861
 C1411 C 1.08249 0.30668 0.21951
 C1412 C 1.06987 0.29397 0.23104
 H1413 H 1.05678 0.30554 0.17515
 H1414 H 1.03353 0.28176 0.19581
 H1415 H 1.08296 0.24653 0.21208
 H1416 H 1.10658 0.27024 0.19104
 H1417 H 1.09031 0.32032 0.22609
 H1418 H 1.06696 0.29705 0.24719
 C1419 C 1.08521 0.80096 0.69661
 C1420 C 1.08203 0.80891 0.71869
 C1421 C 1.06969 0.79609 0.73038
 C1422 C 1.06142 0.77628 0.71925
 C1423 C 1.05038 0.78522 0.69991
 C1424 C 1.06284 0.79814 0.68821
 C1425 C 1.09375 0.77813 0.69903
 C1426 C 1.08129 0.76523 0.71064
 H1427 H 1.08888 0.82327 0.72489
 H1428 H 1.06611 0.79972 0.74630
 H1429 H 1.03478 0.78088 0.69479
 H1430 H 1.05751 0.80501 0.67383
 H1431 H 1.10814 0.77243 0.69183
 H1432 H 1.08498 0.74850 0.71303
 C1433 C 0.41510 0.70078 0.69599
 C1434 C 0.40578 0.72324 0.69869
 C1435 C 0.41791 0.73646 0.71011
 C1436 C 0.43824 0.72603 0.71830
 C1437 C 0.43086 0.70579 0.72948
 C1438 C 0.41887 0.69265 0.71795
 C1439 C 0.43724 0.70454 0.68717
 C1440 C 0.44936 0.71776 0.69870
 H1441 H 0.39118 0.72854 0.69165
 H1442 H 0.41371 0.75306 0.71251
 H1443 H 0.43495 0.70201 0.74525
 H1444 H 0.41280 0.67786 0.72414
 H1445 H 0.44261 0.69808 0.67262
 H1446 H 0.46471 0.72280 0.69331
 C1447 C 0.41610 0.19953 0.19638
 C1448 C 0.43962 0.19611 0.19189
 C1449 C 0.45266 0.20755 0.20421
 C1450 C 0.44093 0.22161 0.22006
 C1451 C 0.42576 0.23524 0.20712
 C1452 C 0.41277 0.22380 0.19488
 C1453 C 0.41360 0.19448 0.21933
 C1454 C 0.42661 0.20582 0.23160
 H1455 H 0.44553 0.18532 0.18021
 H1456 H 0.46957 0.20594 0.20279
 H1457 H 0.42515 0.25252 0.20772
 H1458 H 0.40095 0.23146 0.18537
 H1459 H 0.40253 0.18300 0.22551
 H1460 H 0.42672 0.20373 0.24814
 C1461 C -0.08377 0.69780 0.19925
 C1462 C -0.06102 0.69937 0.19133
 C1463 C -0.04852 0.71239 0.20267
 C1464 C -0.05988 0.72267 0.22119
 C1465 C -0.07902 0.73397 0.21140
 C1466 C -0.09156 0.72097 0.20025
 C1467 C -0.08168 0.69086 0.22182
 C1468 C -0.06925 0.70386 0.23321
 H1469 H -0.05542 0.69150 0.17753
 H1470 H -0.03249 0.71582 0.19800
 H1471 H -0.08223 0.75092 0.21272
 H1472 H -0.10552 0.72683 0.19244
 H1473 H -0.08937 0.67711 0.22850
 H1474 H -0.06634 0.70102 0.24940
 C1475 C -0.08546 0.20018 0.69793
 C1476 C -0.06268 0.20077 0.68992
 C1477 C -0.04995 0.21438 0.70042
 C1478 C -0.06116 0.22610 0.71824
 C1479 C -0.08010 0.23704 0.70776
 C1480 C -0.09281 0.22351 0.69738
 C1481 C -0.08335 0.19478 0.72091
 C1482 C -0.07077 0.20831 0.73140
 H1483 H -0.05724 0.19192 0.67662
 H1484 H -0.03388 0.21730 0.69554
 H1485 H -0.08294 0.25411 0.70792
 H1486 H -0.10654 0.22903 0.68898
 H1487 H -0.09045 0.18116 0.72841
 H1488 H -0.06751 0.20622 0.74762
 C1489 C 0.29973 0.41528 0.30366
 C1490 C 0.29808 0.43824 0.31158
 C1491 C 0.28539 0.45116 0.30009
 C1492 C 0.27541 0.43992 0.28144
 C1493 C 0.29424 0.43032 0.26973
 C1494 C 0.30686 0.41751 0.28120
 C1495 C 0.27680 0.40768 0.30239
 C1496 C 0.26409 0.42060 0.29101
 H1497 H 0.30570 0.44369 0.32548
 H1498 H 0.28210 0.46733 0.30487
 H1499 H 0.29733 0.43332 0.25358
 H1500 H 0.32043 0.40956 0.27454
 H1501 H 0.27092 0.39358 0.31017
 H1502 H 0.24737 0.41758 0.28932
 C1503 C 0.29803 -0.08321 0.80636
 C1504 C 0.29423 -0.06100 0.81559
 C1505 C 0.28073 -0.04849 0.80454
 C1506 C 0.27222 -0.05927 0.78499
 C1507 C 0.29203 -0.06642 0.77322
 C1508 C 0.30546 -0.07884 0.78422
 C1509 C 0.27585 -0.09262 0.80398
 C1510 C 0.26238 -0.08009 0.79306
 H1511 H 0.30093 -0.05584 0.83003
 H1512 H 0.27578 -0.03306 0.81022
 H1513 H 0.29521 -0.06203 0.75738
 H1514 H 0.31986 -0.08492 0.77743
 H1515 H 0.27099 -0.10770 0.81064
 H1516 H 0.24605 -0.08446 0.79072
 C1517 C 0.79892 0.41837 0.80369
 C1518 C 0.80418 0.44213 0.80539
 C1519 C 0.79267 0.45492 0.79272
 C1520 C 0.77661 0.44280 0.77941
 C1521 C 0.79019 0.42609 0.76816
 C1522 C 0.80155 0.41321 0.78076
 C1523 C 0.77498 0.41713 0.80747
 C1524 C 0.76343 0.42988 0.79482
 H1525 H 0.81639 0.44834 0.81530
 H1526 H 0.79583 0.47182 0.79174
 H1527 H 0.79091 0.42457 0.75159
 H1528 H 0.81157 0.40059 0.77482
 H1529 H 0.76752 0.40677 0.81863
 H1530 H 0.74635 0.43047 0.79548
 C1531 C 0.80198 -0.08206 0.30112
 C1532 C 0.80146 -0.05859 0.30774
 C1533 C 0.78883 -0.04593 0.29595
 C1534 C 0.77781 -0.05786 0.27833
 C1535 C 0.79572 -0.06889 0.26650
 C1536 C 0.80830 -0.08151 0.27826
 C1537 C 0.77872 -0.08882 0.30100
 C1538 C 0.76612 -0.07608 0.28939
 H1539 H 0.80969 -0.05257 0.32108
 H1540 H 0.78606 -0.02939 0.29988
 H1541 H 0.79809 -0.06718 0.25007
 H1542 H 0.82111 -0.09063 0.27156
 H1543 H 0.77254 -0.10225 0.30962
 H1544 H 0.74923 -0.07855 0.28851
 C1545 C 0.29896 0.58325 0.69810
 C1546 C 0.27618 0.59139 0.70017
 C1547 C 0.26364 0.57873 0.71195
 C1548 C 0.27497 0.55909 0.72104
 C1549 C 0.28425 0.54773 0.70199
 C1550 C 0.29680 0.56038 0.69014
 C1551 C 0.30669 0.58075 0.72030
 C1552 C 0.29423 0.56819 0.73214
 H1553 H 0.27030 0.60568 0.69265
 H1554 H 0.24702 0.58217 0.71422
 H1555 H 0.28044 0.53174 0.69714
 H1556 H 0.30384 0.55485 0.67591
 H1557 H 0.32053 0.58837 0.72652
 H1558 H 0.29768 0.56511 0.74819
 C1559 C 0.29849 1.08330 0.19766
 C1560 C 0.30670 1.07958 0.21954
 C1561 C 0.29400 1.06715 0.23127
 C1562 C 0.27408 1.05934 0.22036
 C1563 C 0.26335 1.07977 0.21223
 C1564 C 0.27614 1.09232 0.20060
 C1565 C 0.29513 1.06086 0.18898
 C1566 C 0.28232 1.04834 0.20070
 H1567 H 0.32120 1.08606 0.22555
 H1568 H 0.29782 1.06316 0.24705
 H1569 H 0.24692 1.08377 0.21492
 H1570 H 0.27065 1.10709 0.19369
 H1571 H 0.30153 1.05558 0.17438
 H1572 H 0.27752 1.03277 0.19540
 C1573 C 0.79845 0.58108 0.19824
 C1574 C 0.77623 0.59040 0.20124
 C1575 C 0.76324 0.57788 0.21267
 C1576 C 0.77363 0.55718 0.22056
 C1577 C 0.78177 0.54632 0.20078
 C1578 C 0.79478 0.55883 0.18924
 C1579 C 0.80655 0.57691 0.22009
 C1580 C 0.79364 0.56451 0.23163
 H1581 H 0.77096 0.60532 0.19449
 H1582 H 0.74685 0.58209 0.21534
 H1583 H 0.77683 0.53086 0.19532
 H1584 H 0.80118 0.55365 0.17461
 H1585 H 0.82114 0.58304 0.22622
 H1586 H 0.79739 0.56018 0.24734
 C1587 C 0.79436 1.08010 0.69770
 C1588 C 0.80228 1.07447 0.71931
 C1589 C 0.78869 1.06250 0.73043
 C1590 C 0.76828 1.05685 0.71919
 C1591 C 0.75903 1.07838 0.71207
 C1592 C 0.77270 1.09054 0.70105
 C1593 C 0.78946 1.05849 0.68785
 C1594 C 0.77573 1.04632 0.69898
 H1595 H 0.81762 1.07865 0.72526
 H1596 H 0.79242 1.05694 0.74579
 H1597 H 0.74280 1.08325 0.71457
 H1598 H 0.76817 1.10581 0.69451
 H1599 H 0.79549 1.05358 0.67299
 H1600 H 0.76979 1.03142 0.69306
 C1601 C 0.70110 0.58133 0.30489
 C1602 C 0.72493 0.58138 0.30917
 C1603 C 0.73635 0.56874 0.29630
 C1604 C 0.72312 0.55708 0.28020
 C1605 C 0.70620 0.54506 0.29275
 C1606 C 0.69483 0.55777 0.30565
 C1607 C 0.69929 0.58758 0.28216
 C1608 C 0.71050 0.57484 0.26931
 H1609 H 0.73239 0.59080 0.32097
 H1610 H 0.75336 0.56733 0.29732
 H1611 H 0.70240 0.52836 0.29102
 H1612 H 0.68200 0.55172 0.31502
 H1613 H 0.68981 0.60080 0.27656
 H1614 H 0.71024 0.57710 0.25279
 C1615 C 0.69579 1.08149 0.80290
 C1616 C 0.69675 1.05825 0.81032
 C1617 C 0.70888 1.04525 0.79834
 C1618 C 0.71909 1.05670 0.77978
 C1619 C 0.70048 1.06723 0.76857
 C1620 C 0.68840 1.08014 0.78046
 C1621 C 0.71899 1.08835 0.80135
 C1622 C 0.73113 1.07534 0.78950
 H1623 H 0.68899 1.05257 0.82415
 H1624 H 0.71142 1.02877 0.80262
 H1625 H 0.69716 1.06483 0.75241
 H1626 H 0.67515 1.08877 0.77403
 H1627 H 0.72544 1.10210 0.80914
 H1628 H 0.74791 1.07791 0.78746
 C1629 C 0.20181 0.58406 0.80425
 C1630 C 0.22466 0.59180 0.80227
 C1631 C 0.23722 0.57887 0.79073
 C1632 C 0.22584 0.55941 0.78174
 C1633 C 0.21631 0.54826 0.80080
 C1634 C 0.20376 0.56118 0.81244
 C1635 C 0.19424 0.58160 0.78202
 C1636 C 0.20673 0.56880 0.77039
 H1637 H 0.23061 0.60600 0.80968
 H1638 H 0.25387 0.58199 0.78854
 H1639 H 0.21981 0.53215 0.80574
 H1640 H 0.19646 0.55580 0.82661
 H1641 H 0.18047 0.58940 0.77563
 H1642 H 0.20332 0.56564 0.75437
 C1643 C 0.20123 1.08369 0.30383
 C1644 C 0.20241 1.06056 0.31145
 C1645 C 0.21480 1.04760 0.29968
 C1646 C 0.22501 1.05902 0.28109
 C1647 C 0.20635 1.06924 0.26967
 C1648 C 0.19402 1.08207 0.28140
 C1649 C 0.22431 1.09085 0.30244
 C1650 C 0.23672 1.07790 0.29077
 H1651 H 0.19462 1.05496 0.32529
 H1652 H 0.21758 1.03122 0.30416
 H1653 H 0.20317 1.06665 0.25351
 H1654 H 0.18065 1.09052 0.27497
 H1655 H 0.23049 1.10469 0.31027
 H1656 H 0.25349 1.08064 0.28889
 C1657 C 0.70197 0.41869 0.69779
 C1658 C 0.70453 0.44136 0.68929
 C1659 C 0.71731 0.45399 0.70074
 C1660 C 0.72641 0.44278 0.71995
 C1661 C 0.70702 0.43426 0.73145
 C1662 C 0.69431 0.42174 0.72001
 C1663 C 0.72460 0.41017 0.69985
 C1664 C 0.73739 0.42279 0.71122
 H1665 H 0.69756 0.44677 0.67500
 H1666 H 0.72141 0.46982 0.69550
 H1667 H 0.70357 0.43783 0.74741
 H1668 H 0.68026 0.41464 0.72650
 H1669 H 0.73023 0.39568 0.69257
 H1670 H 0.75396 0.41911 0.71341
 C1671 C 0.69829 -0.08118 0.20036
 C1672 C 0.72121 -0.08899 0.20166
 C1673 C 0.73372 -0.07655 0.21343
 C1674 C 0.72224 -0.05749 0.22341
 C1675 C 0.71245 -0.04558 0.20494
 C1676 C 0.69992 -0.05799 0.19301
 C1677 C 0.69089 -0.07965 0.22283
 C1678 C 0.70341 -0.06734 0.23478
 H1679 H 0.72726 -0.10287 0.19363
 H1680 H 0.75047 -0.07969 0.21497
 H1681 H 0.71590 -0.02926 0.20065
 H1682 H 0.69249 -0.05206 0.17914
 H1683 H 0.67725 -0.08774 0.22908
 H1684 H 0.70020 -0.06479 0.25095
 C1685 C 0.20164 0.41635 0.19858
 C1686 C 0.22375 0.40692 0.20190
 C1687 C 0.23654 0.41929 0.21352
 C1688 C 0.22603 0.43996 0.22129
 C1689 C 0.21839 0.45100 0.20140
 C1690 C 0.20559 0.43866 0.18967
 C1691 C 0.19304 0.42035 0.22031
 C1692 C 0.20575 0.43259 0.23206
 H1693 H 0.22911 0.39202 0.19522
 H1694 H 0.25284 0.41499 0.21643
 H1695 H 0.22359 0.46644 0.19599
 H1696 H 0.19956 0.44399 0.17495
 H1697 H 0.17833 0.41414 0.22622
 H1698 H 0.20172 0.43670 0.24776
 C1699 C 0.20139 -0.08290 0.69936
 C1700 C 0.20120 -0.09185 0.72129
 C1701 C 0.21144 -0.07953 0.73509
 C1702 C 0.22152 -0.05937 0.72578
 C1703 C 0.23529 -0.06753 0.70803
 C1704 C 0.22487 -0.07976 0.69423
 C1705 C 0.19244 -0.06023 0.70142
 C1706 C 0.20282 -0.04793 0.71527
 H1707 H 0.19321 -0.10641 0.72573
 H1708 H 0.21179 -0.08354 0.75130
 H1709 H 0.25187 -0.06375 0.70635
 H1710 H 0.23277 -0.08628 0.68089
 H1711 H 0.17860 -0.05460 0.69327
 H1712 H 0.19728 -0.03206 0.71907
 C1713 C 0.30343 0.29980 0.42244
 C1714 C 0.28002 0.30098 0.41662
 C1715 C 0.26724 0.28944 0.42910
 C1716 C 0.27887 0.27717 0.44620
 C1717 C 0.29585 0.26410 0.43501
 C1718 C 0.30863 0.27581 0.42262
 C1719 C 0.30400 0.30646 0.44508
 C1720 C 0.29116 0.29475 0.45754
 H1721 H 0.27389 0.31040 0.40397
 H1722 H 0.25026 0.28938 0.42718
 H1723 H 0.29761 0.24697 0.43664
 H1724 H 0.32104 0.26841 0.41364
 H1725 H 0.31314 0.31977 0.45071
 H1726 H 0.28927 0.29870 0.47361
 C1727 C 0.30363 0.80088 -0.07710
 C1728 C 0.28004 0.80258 -0.08206
 C1729 C 0.26757 0.79080 -0.06949
 C1730 C 0.27967 0.77780 -0.05320
 C1731 C 0.29602 0.76489 -0.06544
 C1732 C 0.30848 0.77685 -0.07791
 C1733 C 0.30516 0.80674 -0.05432
 C1734 C 0.29265 0.79479 -0.04177
 H1735 H 0.27358 0.81234 -0.09431
 H1736 H 0.25054 0.79086 -0.07092
 H1737 H 0.29746 0.74767 -0.06457
 H1738 H 0.32026 0.76960 -0.08778
 H1739 H 0.31469 0.81974 -0.04863
 H1740 H 0.29143 0.79827 -0.02555
 C1741 C 0.80632 0.29932 -0.08125
 C1742 C 0.78275 0.29907 -0.08658
 C1743 C 0.77095 0.28669 -0.07388
 C1744 C 0.78367 0.27515 -0.05708
 C1745 C 0.80123 0.26324 -0.06874
 C1746 C 0.81297 0.27574 -0.08135
 C1747 C 0.80702 0.30589 -0.05861
 C1748 C 0.79526 0.29335 -0.04590
 H1749 H 0.77584 0.30795 -0.09922
 H1750 H 0.75401 0.28531 -0.07559
 H1751 H 0.80407 0.24623 -0.06730
 H1752 H 0.82551 0.26915 -0.09074
 H1753 H 0.81582 0.31948 -0.05306
 H1754 H 0.79419 0.29684 -0.02970
 C1755 C 0.79867 0.80448 0.41904
 C1756 C 0.77556 0.80457 0.41211
 C1757 C 0.76237 0.79380 0.42491
 C1758 C 0.77338 0.78344 0.44349
 C1759 C 0.79125 0.76994 0.43421
 C1760 C 0.80436 0.78076 0.42152
 C1761 C 0.79794 0.81317 0.44104
 C1762 C 0.78474 0.80226 0.45387
 H1763 H 0.76995 0.81284 0.39852
 H1764 H 0.74551 0.79314 0.42230
 H1765 H 0.79344 0.75308 0.43743
 H1766 H 0.81748 0.77281 0.41408
 H1767 H 0.80646 0.82721 0.44591
 H1768 H 0.78192 0.80767 0.46940
 C1769 C 0.70104 0.30455 0.58022
 C1770 C 0.70408 0.31413 0.55870
 C1771 C 0.71771 0.30291 0.54653
 C1772 C 0.72708 0.28286 0.55700
 C1773 C 0.73703 0.29159 0.57677
 C1774 C 0.72343 0.30267 0.58891
 C1775 C 0.69423 0.28144 0.57635
 C1776 C 0.70778 0.27024 0.56431
 H1777 H 0.69670 0.32888 0.55370
 H1778 H 0.72208 0.30877 0.53147
 H1779 H 0.75353 0.28963 0.58070
 H1780 H 0.72831 0.30986 0.60324
 H1781 H 0.67986 0.27434 0.58211
 H1782 H 0.70485 0.25381 0.56006
 C1783 C 0.70158 0.80359 1.08177
 C1784 C 0.72517 0.80497 1.08683
 C1785 C 0.73780 0.79366 1.07387
 C1786 C 0.72587 0.78156 1.05704
 C1787 C 0.70943 0.76823 1.06871
 C1788 C 0.69690 0.77958 1.08161
 C1789 C 0.70008 0.81049 1.05920
 C1790 C 0.71269 0.79906 1.04621
 H1791 H 0.73147 0.81423 1.09940
 H1792 H 0.75483 0.79352 1.07532
 H1793 H 0.70785 0.75111 1.06703
 H1794 H 0.68502 0.77185 1.09096
 H1795 H 0.69003 0.82340 1.05388
 H1796 H 0.71318 0.80276 1.03000
 C1797 C 0.19776 0.30260 1.07769
 C1798 C 0.19145 0.30392 1.05502
 C1799 C 0.20269 0.29065 1.04253
 C1800 C 0.21948 0.27721 1.05388
 C1801 C 0.23289 0.29354 1.06542
 C1802 C 0.22163 0.30675 1.07784
 C1803 C 0.19573 0.27889 1.08328
 C1804 C 0.20680 0.26568 1.07076
 H1805 H 0.17870 0.31389 1.04937
 H1806 H 0.19888 0.28924 1.02641
 H1807 H 0.24992 0.29436 1.06420
 H1808 H 0.22929 0.31857 1.08729
 H1809 H 0.18631 0.27291 1.09595
 H1810 H 0.20649 0.24850 1.07268
 C1811 C 0.19875 0.79910 0.57864
 C1812 C 0.22206 0.80479 0.57542
 C1813 C 0.23252 0.79128 0.56276
 C1814 C 0.21906 0.77311 0.55423
 C1815 C 0.20942 0.76228 0.57329
 C1816 C 0.19903 0.77585 0.58607
 C1817 C 0.18957 0.79808 0.55690
 C1818 C 0.20008 0.78448 0.54409
 H1819 H 0.22990 0.81832 0.58219
 H1820 H 0.24904 0.79345 0.55895
 H1821 H 0.21032 0.74528 0.57629
 H1822 H 0.19133 0.77041 0.60002
 H1823 H 0.17556 0.80676 0.55219
 H1824 H 0.19437 0.78147 0.52874
 C1825 C 0.30172 0.69641 0.57695
 C1826 C 0.30500 0.69199 0.55401
 C1827 C 0.29245 0.70391 0.54144
 C1828 C 0.27766 0.71945 0.55303
 C1829 C 0.26554 0.70494 0.56802
 C1830 C 0.27801 0.69314 0.58059
 C1831 C 0.30486 0.72057 0.57921
 C1832 C 0.29241 0.73252 0.56670
 H1833 H 0.31587 0.68003 0.54816
 H1834 H 0.29267 0.70148 0.52501
 H1835 H 0.24848 0.70405 0.56871
 H1836 H 0.27144 0.68256 0.59212
 H1837 H 0.31563 0.72783 0.58998
 H1838 H 0.29285 0.74981 0.56667
 C1839 C 0.29769 0.19653 1.07823
 C1840 C 0.29678 0.18762 1.05633
 C1841 C 0.28340 0.19848 1.04364
 C1842 C 0.27208 0.21748 1.05408
 C1843 C 0.26131 0.20740 1.07294
 C1844 C 0.27468 0.19669 1.08559
 C1845 C 0.30331 0.22016 1.07542
 C1846 C 0.29002 0.23096 1.06287
 H1847 H 0.30553 0.17366 1.05136
 H1848 H 0.28071 0.19314 1.02811
 H1849 H 0.24450 0.20829 1.07590
 H1850 H 0.26926 0.18869 1.09941
 H1851 H 0.31661 0.22801 1.08240
 H1852 H 0.29221 0.24772 1.05931
 C1853 C 0.80205 0.69782 1.08034
 C1854 C 0.80946 0.72090 1.07731
 C1855 C 0.79670 0.73276 1.06506
 C1856 C 0.77749 0.72079 1.05675
 C1857 C 0.78692 0.70087 1.04616
 C1858 C 0.79975 0.68899 1.05852
 C1859 C 0.77932 0.69992 1.08831
 C1860 C 0.76649 0.71166 1.07595
 H1861 H 0.82341 0.72765 1.08418
 H1862 H 0.79997 0.74935 1.06158
 H1863 H 0.78303 0.69551 1.03087
 H1864 H 0.80695 0.67418 1.05345
 H1865 H 0.77364 0.69241 1.10228
 H1866 H 0.74986 0.71384 1.07933
 C1867 C 0.80109 0.19713 0.58148
 C1868 C 0.80887 0.19730 0.55914
 C1869 C 0.79782 0.21072 0.54659
 C1870 C 0.77975 0.22282 0.55754
 C1871 C 0.76643 0.20531 0.56763
 C1872 C 0.77747 0.19191 0.58008
 C1873 C 0.80172 0.22057 0.58808
 C1874 C 0.79087 0.23395 0.57553
 H1875 H 0.82233 0.18812 0.55378
 H1876 H 0.80246 0.21310 0.53074
 H1877 H 0.74963 0.20356 0.56512
 H1878 H 0.76985 0.17894 0.58817
 H1879 H 0.81032 0.22628 0.60132
 H1880 H 0.79055 0.25104 0.57802
 C1881 C 0.69774 0.70022 0.42077
 C1882 C 0.69962 0.69165 0.44278
 C1883 C 0.71222 0.70356 0.45514
 C1884 C 0.72186 0.72322 0.44433
 C1885 C 0.73320 0.71372 0.42550
 C1886 C 0.72060 0.70197 0.41314
 C1887 C 0.69027 0.72341 0.42322
 C1888 C 0.70281 0.73530 0.43547
 H1889 H 0.69223 0.67705 0.44801
 H1890 H 0.71568 0.69840 0.47063
 H1891 H 0.74988 0.71571 0.42235
 H1892 H 0.72652 0.69429 0.39937
 H1893 H 0.67645 0.73021 0.41596
 H1894 H 0.69946 0.75195 0.43862
 C1895 C 0.70529 0.19616 -0.08216
 C1896 C 0.70641 0.18647 -0.06050
 C1897 C 0.72025 0.19646 -0.04777
 C1898 C 0.73172 0.21549 -0.05789
 C1899 C 0.74196 0.20577 -0.07720
 C1900 C 0.72817 0.19588 -0.08988
 C1901 C 0.70012 0.21981 -0.07859
 C1902 C 0.71385 0.22977 -0.06603
 H1903 H 0.69757 0.17252 -0.05577
 H1904 H 0.72325 0.19040 -0.03248
 H1905 H 0.75874 0.20623 -0.08041
 H1906 H 0.73320 0.18813 -0.10395
 H1907 H 0.68651 0.22811 -0.08470
 H1908 H 0.71185 0.24638 -0.06177
 C1909 C 0.19856 0.70069 -0.07759
 C1910 C 0.19447 0.72481 -0.07934
 C1911 C 0.20652 0.73674 -0.06664
 C1912 C 0.22183 0.72373 -0.05331
 C1913 C 0.20774 0.70743 -0.04198
 C1914 C 0.19558 0.69551 -0.05474
 C1915 C 0.22235 0.69819 -0.08139
 C1916 C 0.23443 0.70998 -0.06863
 H1917 H 0.18334 0.73207 -0.08987
 H1918 H 0.20544 0.75401 -0.06627
 H1919 H 0.20787 0.70440 -0.02562
 H1920 H 0.18535 0.68297 -0.04909
 H1921 H 0.22923 0.68795 -0.09303
 H1922 H 0.25152 0.70944 -0.06928
 C1923 C 0.19752 0.19969 0.42239
 C1924 C 0.19333 0.22379 0.42055
 C1925 C 0.20544 0.23585 0.43309
 C1926 C 0.22089 0.22298 0.44639
 C1927 C 0.20694 0.20669 0.45790
 C1928 C 0.19474 0.19464 0.44529
 C1929 C 0.22130 0.19727 0.41845
 C1930 C 0.23343 0.20919 0.43106
 H1931 H 0.18208 0.23095 0.41008
 H1932 H 0.20425 0.25311 0.43340
 H1933 H 0.20716 0.20377 0.47427
 H1934 H 0.18458 0.18211 0.45108
 H1935 H 0.22814 0.18697 0.40684
 H1936 H 0.25052 0.20872 0.43029
 C1937 C 0.30378 0.41826 0.70104
 C1938 C 0.28102 0.41021 0.70249
 C1939 C 0.26826 0.42242 0.71445
 C1940 C 0.27938 0.44149 0.72453
 C1941 C 0.29843 0.43169 0.73564
 C1942 C 0.31118 0.41961 0.72345
 C1943 C 0.30165 0.44151 0.69393
 C1944 C 0.28889 0.45366 0.70608
 H1945 H 0.27522 0.39641 0.69432
 H1946 H 0.25156 0.41912 0.71601
 H1947 H 0.30157 0.43404 0.75184
 H1948 H 0.32503 0.41161 0.72944
 H1949 H 0.30890 0.44768 0.68003
 H1950 H 0.28506 0.46999 0.70202
 C1951 C 0.30453 0.91864 0.20073
 C1952 C 0.30247 0.94189 0.19360
 C1953 C 0.28940 0.95398 0.20550
 C1954 C 0.27954 0.94175 0.22373
 C1955 C 0.26871 0.92265 0.21342
 C1956 C 0.28177 0.91051 0.20172
 C1957 C 0.31144 0.92001 0.22329
 C1958 C 0.29839 0.93203 0.23523
 H1959 H 0.31005 0.94813 0.17990
 H1960 H 0.28564 0.97031 0.20140
 H1961 H 0.25200 0.91926 0.21466
 H1962 H 0.27619 0.89669 0.19342
 H1963 H 0.32523 0.91213 0.22955
 H1964 H 0.30120 0.93442 0.25148
 C1965 C 0.80056 0.41513 0.19974
 C1966 C 0.80060 0.40734 0.22211
 C1967 C 0.78954 0.42008 0.23517
 C1968 C 0.77901 0.43945 0.22475
 C1969 C 0.79751 0.45085 0.21388
 C1970 C 0.80864 0.43810 0.20082
 C1971 C 0.77714 0.41730 0.19420
 C1972 C 0.76601 0.42996 0.20719
 H1973 H 0.80898 0.39322 0.22733
 H1974 H 0.78874 0.41690 0.25154
 H1975 H 0.80263 0.46695 0.21688
 H1976 H 0.82250 0.44364 0.19264
 H1977 H 0.76964 0.40944 0.18140
 H1978 H 0.74926 0.43289 0.20522
 C1979 C 0.79922 0.91486 0.70138
 C1980 C 0.77542 0.91295 0.69770
 C1981 C 0.76353 0.92587 0.70979
 C1982 C 0.77626 0.93955 0.72484
 C1983 C 0.79003 0.92344 0.73667
 C1984 C 0.80190 0.91050 0.72446
 C1985 C 0.80397 0.93865 0.69879
 C1986 C 0.79205 0.95161 0.71094
 H1987 H 0.76834 0.90208 0.68686
 H1988 H 0.74646 0.92611 0.70893
 H1989 H 0.79042 0.92234 0.75329
 H1990 H 0.81220 0.89827 0.73071
 H1991 H 0.81582 0.94480 0.68832
 H1992 H 0.79422 0.96868 0.71043
 C1993 C 0.69870 0.58533 0.70013
 C1994 C 0.72258 0.58762 0.69693
 C1995 C 0.73429 0.57456 0.70905
 C1996 C 0.72130 0.56041 0.72366
 C1997 C 0.70702 0.57605 0.73545
 C1998 C 0.69533 0.58911 0.72321
 C1999 C 0.69436 0.56155 0.69705
 C2000 C 0.70614 0.54845 0.70921
 H2001 H 0.72982 0.59869 0.68625
 H2002 H 0.75138 0.57439 0.70838
 H2003 H 0.70622 0.57680 0.75207
 H2004 H 0.68474 0.60107 0.72947
 H2005 H 0.68329 0.55547 0.68588
 H2006 H 0.70489 0.53134 0.70780
 C2007 C 0.70253 0.08416 0.19634
 C2008 C 0.69575 0.06075 0.19676
 C2009 C 0.70732 0.04825 0.20964
 C2010 C 0.72497 0.06028 0.22096
 C2011 C 0.73780 0.07113 0.20388
 C2012 C 0.72615 0.08358 0.19103
 C2013 C 0.70168 0.09119 0.21888
 C2014 C 0.71314 0.07864 0.23173
 H2015 H 0.68235 0.05470 0.18831
 H2016 H 0.70311 0.03178 0.21235
 H2017 H 0.75474 0.06936 0.20221
 H2018 H 0.73331 0.09248 0.17858
 H2019 H 0.69254 0.10468 0.22439
 H2020 H 0.71338 0.08132 0.24817
 C2021 C 0.19620 0.58031 0.20055
 C2022 C 0.21878 0.58885 0.20191
 C2023 C 0.23180 0.57679 0.21373
 C2024 C 0.22108 0.55738 0.22380
 C2025 C 0.20180 0.56661 0.23506
 C2026 C 0.18881 0.57853 0.22300
 C2027 C 0.19883 0.55718 0.19334
 C2028 C 0.21186 0.54520 0.20536
 H2029 H 0.22428 0.60290 0.19378
 H2030 H 0.24840 0.58046 0.21521
 H2031 H 0.19867 0.56400 0.25126
 H2032 H 0.17472 0.58604 0.22909
 H2033 H 0.19158 0.55094 0.17957
 H2034 H 0.21598 0.52897 0.20127
 C2035 C 0.19462 0.08171 0.70287
 C2036 C 0.19468 0.05798 0.69728
 C2037 C 0.20691 0.04562 0.70974
 C2038 C 0.21799 0.05811 0.72696
 C2039 C 0.23019 0.07553 0.71524
 C2040 C 0.21799 0.08797 0.70296
 C2041 C 0.18796 0.08240 0.72557
 C2042 C 0.20016 0.07011 0.73808
 H2043 H 0.18644 0.05156 0.68413
 H2044 H 0.20932 0.02885 0.70655
 H2045 H 0.24711 0.07770 0.71621
 H2046 H 0.22453 0.10090 0.69390
 H2047 H 0.17508 0.09200 0.73150
 H2048 H 0.19750 0.06917 0.75452
 C2049 C 0.30341 0.58067 0.30013
 C2050 C 0.28097 0.58976 0.29849
 C2051 C 0.26776 0.57771 0.28708
 C2052 C 0.27818 0.55772 0.27771
 C2053 C 0.29759 0.56606 0.26613
 C2054 C 0.31078 0.57798 0.27777
 C2055 C 0.30043 0.55786 0.30815
 C2056 C 0.28720 0.54586 0.29657
 H2057 H 0.27567 0.60412 0.30622
 H2058 H 0.25118 0.58169 0.28562
 H2059 H 0.30075 0.56269 0.25009
 H2060 H 0.32508 0.58476 0.27146
 H2061 H 0.30762 0.55185 0.32212
 H2062 H 0.28286 0.52985 0.30118
 C2063 C 0.30080 0.08226 0.80172
 C2064 C 0.27815 0.09092 0.80093
 C2065 C 0.26469 0.07851 0.79018
 C2066 C 0.27504 0.05859 0.78058
 C2067 C 0.29378 0.06717 0.76814
 C2068 C 0.30723 0.07948 0.77909
 C2069 C 0.29858 0.05947 0.81008
 C2070 C 0.28509 0.04710 0.79915
 H2071 H 0.27297 0.10530 0.80870
 H2072 H 0.24802 0.08227 0.78915
 H2073 H 0.29622 0.06382 0.75197
 H2074 H 0.32100 0.08661 0.77207
 H2075 H 0.30632 0.05381 0.82390
 H2076 H 0.28114 0.03113 0.80420
 C2077 C 0.80168 0.58558 0.79912
 C2078 C 0.77780 0.58835 0.80209
 C2079 C 0.76608 0.57523 0.79023
 C2080 C 0.77908 0.56059 0.77605
 C2081 C 0.79353 0.57577 0.76398
 C2082 C 0.80523 0.58885 0.77597
 C2083 C 0.80583 0.56179 0.80282
 C2084 C 0.79404 0.54866 0.79090
 H2085 H 0.77058 0.59969 0.81252
 H2086 H 0.74898 0.57531 0.79084
 H2087 H 0.79439 0.57623 0.74734
 H2088 H 0.81587 0.60056 0.76948
 H2089 H 0.81667 0.55575 0.81432
 H2090 H 0.79497 0.53156 0.79288
 C2091 C 0.79992 0.08448 0.30237
 C2092 C 0.77604 0.08729 0.30541
 C2093 C 0.76422 0.07449 0.29326
 C2094 C 0.77714 0.05998 0.27894
 C2095 C 0.79176 0.07526 0.26711
 C2096 C 0.80344 0.08813 0.27927
 C2097 C 0.80404 0.06061 0.30560
 C2098 C 0.79228 0.04775 0.29339
 H2099 H 0.76893 0.09865 0.31589
 H2100 H 0.74712 0.07486 0.29358
 H2101 H 0.79290 0.07584 0.25050
 H2102 H 0.81423 0.09979 0.27292
 H2103 H 0.81579 0.05434 0.31610
 H2104 H 0.79474 0.03067 0.29351
 C2105 C 0.69695 0.41512 0.30050
 C2106 C 0.72008 0.40787 0.30016
 C2107 C 0.73283 0.42047 0.28860
 C2108 C 0.72134 0.43911 0.27786
 C2109 C 0.70332 0.42862 0.26601
 C2110 C 0.69059 0.41612 0.27775
 C2111 C 0.69768 0.43844 0.30744
 C2112 C 0.71043 0.45100 0.29573
 H2113 H 0.72606 0.39421 0.30861
 H2114 H 0.74966 0.41757 0.28750
 H2115 H 0.70099 0.43063 0.24962
 H2116 H 0.67757 0.40743 0.27116
 H2117 H 0.68948 0.44439 0.32091
 H2118 H 0.71328 0.46745 0.29982
 C2119 C 0.69572 0.91390 0.80099
 C2120 C 0.69103 0.93767 0.80400
 C2121 C 0.70264 0.95076 0.79174
 C2122 C 0.71799 0.93881 0.77723
 C2123 C 0.73118 0.92480 0.79184
 C2124 C 0.71962 0.91174 0.80409
 C2125 C 0.69247 0.91000 0.77794
 C2126 C 0.70401 0.92303 0.76559
 H2127 H 0.67998 0.94374 0.81533
 H2128 H 0.70135 0.96787 0.79329
 H2129 H 0.74826 0.92508 0.79244
 H2130 H 0.72699 0.90078 0.81482
 H2131 H 0.68212 0.89792 0.77178
 H2132 H 0.70328 0.92220 0.74897
 C2133 C 0.19688 0.41753 0.80046
 C2134 C 0.19834 0.44064 0.80798
 C2135 C 0.21157 0.45307 0.79663
 C2136 C 0.22218 0.44129 0.77852
 C2137 C 0.23300 0.42202 0.78888
 C2138 C 0.21979 0.40955 0.80004
 C2139 C 0.19066 0.41938 0.77772
 C2140 C 0.20385 0.43175 0.76636
 H2141 H 0.19025 0.44652 0.82155
 H2142 H 0.21496 0.46932 0.80107
 H2143 H 0.24979 0.41879 0.78807
 H2144 H 0.22532 0.39559 0.80833
 H2145 H 0.17722 0.41156 0.77091
 H2146 H 0.20148 0.43448 0.75008
 C2147 C 0.19623 0.91822 0.29958
 C2148 C 0.18919 0.92110 0.27718
 C2149 C 0.20256 0.93312 0.26565
 C2150 C 0.22182 0.94134 0.27736
 C2151 C 0.21254 0.95305 0.29617
 C2152 C 0.19913 0.94097 0.30766
 C2153 C 0.21869 0.90912 0.29807
 C2154 C 0.23207 0.92125 0.28678
 H2155 H 0.17499 0.91438 0.27076
 H2156 H 0.19964 0.93659 0.24958
 H2157 H 0.21687 0.96900 0.30084
 H2158 H 0.19179 0.94685 0.32162
 H2159 H 0.22385 0.89469 0.30583
 H2160 H 0.24867 0.91727 0.28542
 C2161 C 0.41909 0.29980 0.69428
 C2162 C 0.41972 0.27597 0.68881
 C2163 C 0.43213 0.26404 0.70142
 C2164 C 0.44293 0.27679 0.71845
 C2165 C 0.45472 0.29482 0.70709
 C2166 C 0.44224 0.30671 0.69445
 C2167 C 0.41227 0.30030 0.71691
 C2168 C 0.42480 0.28857 0.72951
 H2169 H 0.41086 0.26884 0.67645
 H2170 H 0.43392 0.24694 0.69960
 H2171 H 0.47106 0.29897 0.70952
 H2172 H 0.44816 0.32033 0.68595
 H2173 H 0.39891 0.30937 0.72266
 H2174 H 0.42221 0.28801 0.74598
 C2175 C 0.41913 0.79936 0.19785
 C2176 C 0.42124 0.77567 0.19211
 C2177 C 0.43353 0.76415 0.20519
 C2178 C 0.44277 0.77716 0.22290
 C2179 C 0.45425 0.79591 0.21236
 C2180 C 0.44189 0.80737 0.19924
 C2181 C 0.41117 0.79919 0.22012
 C2182 C 0.42357 0.78790 0.23319
 H2183 H 0.41374 0.76838 0.17900
 H2184 H 0.43643 0.74724 0.20312
 H2185 H 0.47024 0.80073 0.21567
 H2186 H 0.44759 0.82135 0.19115
 H2187 H 0.39723 0.80771 0.22533
 H2188 H 0.42027 0.78717 0.24953
 C2189 C 0.91987 0.30171 0.19793
 C2190 C 0.91488 0.27781 0.19689
 C2191 C 0.92752 0.26545 0.20884
 C2192 C 0.94392 0.27799 0.22125
 C2193 C 0.95600 0.29079 0.20471
 C2194 C 0.94338 0.30318 0.19265
 C2195 C 0.91844 0.30711 0.22091
 C2196 C 0.93098 0.29477 0.23299
 H2197 H 0.90252 0.27109 0.18750
 H2198 H 0.92607 0.24823 0.20928
 H2199 H 0.97273 0.28953 0.20164
 H2200 H 0.94953 0.31263 0.18002
 H2201 H 0.90808 0.31916 0.22734
 H2202 H 0.93141 0.29656 0.24955
 C2203 C 0.91985 0.80243 0.69913
 C2204 C 0.91610 0.77832 0.69761
 C2205 C 0.92916 0.76643 0.70953
 C2206 C 0.94471 0.77955 0.72240
 C2207 C 0.95638 0.79329 0.70628
 C2208 C 0.94333 0.80523 0.69424
 C2209 C 0.91778 0.80732 0.72216
 C2210 C 0.93078 0.79545 0.73423
 H2211 H 0.90414 0.77110 0.68807
 H2212 H 0.92846 0.74915 0.70981
 H2213 H 0.97322 0.79317 0.70358
 H2214 H 0.94917 0.81530 0.68193
 H2215 H 0.90677 0.81876 0.72861
 H2216 H 0.93097 0.79704 0.75081
 C2217 C 0.58145 0.29808 0.30128
 C2218 C 0.55824 0.30495 0.30226
 C2219 C 0.54535 0.29366 0.28968
 C2220 C 0.55692 0.27633 0.27705
 C2221 C 0.57452 0.28857 0.26584
 C2222 C 0.58739 0.29972 0.27846
 C2223 C 0.58124 0.27403 0.30581
 C2224 C 0.56844 0.26278 0.29325
 H2225 H 0.55243 0.31770 0.31200
 H2226 H 0.52871 0.29737 0.28892
 H2227 H 0.57661 0.28852 0.24930
 H2228 H 0.60053 0.30898 0.27265
 H2229 H 0.59054 0.26623 0.31758
 H2230 H 0.56680 0.24562 0.29462
 C2231 C 0.57856 0.80014 0.80115
 C2232 C 0.55509 0.80543 0.80385
 C2233 C 0.54215 0.79430 0.79120
 C2234 C 0.55394 0.77879 0.77670
 C2235 C 0.57013 0.79285 0.76552
 C2236 C 0.58305 0.80385 0.77822
 C2237 C 0.58002 0.77585 0.80392
 C2238 C 0.56712 0.76479 0.79131
 H2239 H 0.54911 0.81663 0.81514
 H2240 H 0.52524 0.79624 0.79224
 H2241 H 0.57133 0.79403 0.74893
 H2242 H 0.59533 0.81422 0.77241
 H2243 H 0.59046 0.76782 0.81459
 H2244 H 0.56647 0.74751 0.79160
 C2245 C 0.07949 0.30098 0.79838
 C2246 C 0.07568 0.30985 0.77669
 C2247 C 0.06353 0.29717 0.76481
 C2248 C 0.05606 0.27665 0.77544
 C2249 C 0.07639 0.26581 0.78320
 C2250 C 0.08867 0.27856 0.79493
 C2251 C 0.05739 0.29707 0.80721
 C2252 C 0.04513 0.28430 0.79535
 H2253 H 0.08201 0.32470 0.77090
 H2254 H 0.05956 0.30137 0.74911
 H2255 H 0.08047 0.24927 0.78031
 H2256 H 0.10330 0.27293 0.80167
 H2257 H 0.05216 0.30302 0.82200
 H2258 H 0.02982 0.27906 0.80069
 C2259 C 0.08185 0.79911 0.29964
 C2260 C 0.08676 0.80174 0.27668
 C2261 C 0.07385 0.79045 0.26425
 C2262 C 0.05727 0.77704 0.27573
 C2263 C 0.07003 0.76348 0.29098
 C2264 C 0.08287 0.77492 0.30341
 C2265 C 0.05844 0.80493 0.30170
 C2266 C 0.04555 0.79353 0.28923
 H2267 H 0.09920 0.81178 0.27064
 H2268 H 0.07519 0.79119 0.24765
 H2269 H 0.06919 0.74623 0.29177
 H2270 H 0.09307 0.76725 0.31454
 H2271 H 0.05257 0.81749 0.31164
 H2272 H 0.02886 0.79709 0.28849
 C2273 C 0.57888 0.69870 0.69920
 C2274 C 0.57795 0.69171 0.72185
 C2275 C 0.56533 0.70420 0.73374
 C2276 C 0.55465 0.72261 0.72213
 C2277 C 0.57287 0.73465 0.71162
 C2278 C 0.58560 0.72216 0.69992
 C2279 C 0.55584 0.69938 0.69221
 C2280 C 0.54314 0.71189 0.70407
 H2281 H 0.58673 0.67843 0.72825
 H2282 H 0.56325 0.70135 0.75006
 H2283 H 0.57538 0.75168 0.71297
 H2284 H 0.59905 0.72854 0.69166
 H2285 H 0.55014 0.69129 0.67864
 H2286 H 0.52681 0.71465 0.70002
 C2287 C 0.58194 0.19639 0.19904
 C2288 C 0.58002 0.18817 0.22125
 C2289 C 0.56753 0.20050 0.23345
 C2290 C 0.55796 0.21998 0.22254
 C2291 C 0.57696 0.23180 0.21318
 C2292 C 0.58956 0.21945 0.20123
 C2293 C 0.55916 0.19846 0.19146
 C2294 C 0.54661 0.21081 0.20362
 H2295 H 0.58800 0.17413 0.22713
 H2296 H 0.56483 0.19682 0.24953
 H2297 H 0.58006 0.24863 0.21536
 H2298 H 0.60350 0.22572 0.19370
 H2299 H 0.55356 0.19138 0.17733
 H2300 H 0.53052 0.21451 0.19934
 C2301 C 0.08141 0.70007 0.19551
 C2302 C 0.08519 0.69734 0.21864
 C2303 C 0.07234 0.70953 0.23054
 C2304 C 0.05696 0.72382 0.21841
 C2305 C 0.07101 0.73645 0.20352
 C2306 C 0.08381 0.72413 0.19165
 C2307 C 0.05786 0.69567 0.19269
 C2308 C 0.04502 0.70795 0.20463
 H2309 H 0.09686 0.68666 0.22521
 H2310 H 0.07298 0.70893 0.24718
 H2311 H 0.07105 0.75373 0.20259
 H2312 H 0.09488 0.73104 0.18083
 H2313 H 0.05181 0.68331 0.18274
 H2314 H 0.02818 0.70539 0.20483
 C2315 C 0.07973 0.20063 0.69356
 C2316 C 0.08597 0.20001 0.71629
 C2317 C 0.07345 0.21208 0.72859
 C2318 C 0.05590 0.22432 0.71714
 C2319 C 0.06743 0.23675 0.70019
 C2320 C 0.07985 0.22447 0.68789
 C2321 C 0.05641 0.19434 0.69340
 C2322 C 0.04392 0.20660 0.70571
 H2323 H 0.09900 0.19066 0.72231
 H2324 H 0.07572 0.21263 0.74508
 H2325 H 0.06600 0.25387 0.69814
 H2326 H 0.08911 0.23134 0.67555
 H2327 H 0.05036 0.18089 0.68485
 H2328 H 0.02738 0.20299 0.70780
 C2329 C 0.41884 0.69962 0.30320
 C2330 C 0.41047 0.72256 0.30142
 C2331 C 0.42311 0.73572 0.29031
 C2332 C 0.44294 0.72480 0.28147
 C2333 C 0.45382 0.71514 0.30057
 C2334 C 0.44118 0.70198 0.31182
 C2335 C 0.42208 0.69235 0.28091
 C2336 C 0.43461 0.70544 0.26968
 H2337 H 0.39608 0.72815 0.30871
 H2338 H 0.41953 0.75254 0.28836
 H2339 H 0.46948 0.71901 0.30582
 H2340 H 0.44640 0.69453 0.32598
 H2341 H 0.41507 0.67830 0.27423
 H2342 H 0.43829 0.70229 0.25369
 C2343 C 0.41847 0.19968 0.79923
 C2344 C 0.40971 0.22234 0.79628
 C2345 C 0.42229 0.23522 0.78483
 C2346 C 0.44251 0.22430 0.77684
 C2347 C 0.45316 0.21582 0.79657
 C2348 C 0.44057 0.20293 0.80814
 C2349 C 0.42232 0.19141 0.77735
 C2350 C 0.43481 0.20423 0.76577
 H2351 H 0.39510 0.22799 0.80312
 H2352 H 0.41846 0.25188 0.78221
 H2353 H 0.46855 0.22046 0.80201
 H2354 H 0.44557 0.19641 0.82279
 H2355 H 0.41585 0.17681 0.77125
 H2356 H 0.43897 0.20039 0.75003
 C2357 C 0.92070 0.69916 0.79996
 C2358 C 0.91407 0.72272 0.79949
 C2359 C 0.92677 0.73521 0.78780
 C2360 C 0.94486 0.72309 0.77704
 C2361 C 0.95649 0.71191 0.79490
 C2362 C 0.94382 0.69941 0.80678
 C2363 C 0.92144 0.69253 0.77725
 C2364 C 0.93403 0.70499 0.76538
 H2365 H 0.90073 0.72917 0.80793
 H2366 H 0.92433 0.75231 0.78663
 H2367 H 0.97286 0.71438 0.79883
 H2368 H 0.94958 0.69106 0.82027
 H2369 H 0.91260 0.67944 0.77081
 H2370 H 0.93601 0.70232 0.74903
 C2371 C 0.91973 0.19734 0.29940
 C2372 C 0.92153 0.18980 0.27701
 C2373 C 0.93387 0.20243 0.26500
 C2374 C 0.94346 0.22150 0.27624
 C2375 C 0.92449 0.23315 0.28602
 C2376 C 0.91204 0.22051 0.29783
 C2377 C 0.94258 0.19901 0.30685
 C2378 C 0.95500 0.21165 0.29487
 H2379 H 0.91365 0.17595 0.27087
 H2380 H 0.93651 0.19919 0.24884
 H2381 H 0.92136 0.25007 0.28428
 H2382 H 0.89822 0.22664 0.30574
 H2383 H 0.94829 0.19152 0.32081
 H2384 H 0.97108 0.21518 0.29918
 C2385 C 0.29999 0.30490 0.58127
 C2386 C 0.29876 0.28213 0.58986
 C2387 C 0.28699 0.26873 0.57836
 C2388 C 0.27687 0.27930 0.55938
 C2389 C 0.26488 0.29871 0.56783
 C2390 C 0.27688 0.31210 0.57920
 C2391 C 0.30784 0.30215 0.55914
 C2392 C 0.29588 0.28874 0.54769
 H2393 H 0.30696 0.27678 0.60354
 H2394 H 0.28568 0.25193 0.58213
 H2395 H 0.24826 0.30166 0.56508
 H2396 H 0.27027 0.32633 0.58611
 H2397 H 0.32206 0.30950 0.55319
 H2398 H 0.30043 0.28443 0.53219
 C2399 C 0.30102 0.80396 0.08271
 C2400 C 0.27785 0.81110 0.08110
 C2401 C 0.26578 0.79805 0.06943
 C2402 C 0.27774 0.77898 0.06026
 C2403 C 0.29659 0.78890 0.04867
 C2404 C 0.30863 0.80197 0.06041
 C2405 C 0.29996 0.78090 0.09060
 C2406 C 0.28813 0.76784 0.07880
 H2407 H 0.27125 0.82499 0.08864
 H2408 H 0.24911 0.80099 0.06699
 H2409 H 0.30096 0.78520 0.03299
 H2410 H 0.32271 0.80963 0.05453
 H2411 H 0.30822 0.77516 0.10409
 H2412 H 0.28682 0.75094 0.08212
 C2413 C 0.80584 0.29768 0.08040
 C2414 C 0.78277 0.30420 0.07666
 C2415 C 0.77216 0.29066 0.06429
 C2416 C 0.78525 0.27162 0.05656
 C2417 C 0.80477 0.28189 0.04633
 C2418 C 0.81540 0.29549 0.05883
 C2419 C 0.80467 0.27474 0.08859
 C2420 C 0.79414 0.26114 0.07613
 H2421 H 0.77522 0.31827 0.08291
 H2422 H 0.75581 0.29338 0.06014
 H2423 H 0.81057 0.27839 0.03108
 H2424 H 0.82964 0.30358 0.05394
 H2425 H 0.81184 0.26954 0.10286
 H2426 H 0.79254 0.24433 0.07975
 C2427 C 0.80275 0.80113 0.58175
 C2428 C 0.80562 0.77694 0.58452
 C2429 C 0.79338 0.76507 0.57188
 C2430 C 0.77910 0.77826 0.55759
 C2431 C 0.76674 0.79317 0.57206
 C2432 C 0.77899 0.80489 0.58472
 C2433 C 0.80669 0.80519 0.55884
 C2434 C 0.79438 0.79336 0.54616
 H2435 H 0.81608 0.76966 0.59567
 H2436 H 0.79363 0.74778 0.57220
 H2437 H 0.74967 0.79429 0.57243
 H2438 H 0.77222 0.81566 0.59597
 H2439 H 0.81796 0.81671 0.55306
 H2440 H 0.79536 0.79540 0.52970
 C2441 C 0.30072 0.69548 0.41775
 C2442 C 0.27778 0.68799 0.42015
 C2443 C 0.26553 0.70121 0.43166
 C2444 C 0.27707 0.72080 0.43988
 C2445 C 0.29638 0.71168 0.45135
 C2446 C 0.30862 0.69841 0.43979
 C2447 C 0.29889 0.71823 0.40914
 C2448 C 0.28683 0.73148 0.42076
 H2449 H 0.27146 0.67365 0.41339
 H2450 H 0.24900 0.69802 0.43463
 H2451 H 0.30079 0.71604 0.46684
 H2452 H 0.32302 0.69125 0.44559
 H2453 H 0.30702 0.72370 0.39545
 H2454 H 0.28518 0.74827 0.41704
 C2455 C 0.30214 0.19951 0.91685
 C2456 C 0.27853 0.19448 0.91537
 C2457 C 0.26620 0.20652 0.92788
 C2458 C 0.27829 0.22288 0.94077
 C2459 C 0.29499 0.20934 0.95227
 C2460 C 0.30735 0.19722 0.93970
 C2461 C 0.30351 0.22357 0.91249
 C2462 C 0.29120 0.23572 0.92503
 H2463 H 0.27187 0.18269 0.90518
 H2464 H 0.24921 0.20466 0.92846
 H2465 H 0.29743 0.20905 0.96868
 H2466 H 0.31982 0.18699 0.94552
 H2467 H 0.31325 0.23055 0.90055
 H2468 H 0.29070 0.25297 0.92387
 C2469 C 0.80439 0.70074 0.91847
 C2470 C 0.80712 0.72487 0.91534
 C2471 C 0.79508 0.73700 0.92811
 C2472 C 0.78112 0.72414 0.94293
 C2473 C 0.76855 0.70908 0.92901
 C2474 C 0.78059 0.69709 0.91618
 C2475 C 0.80878 0.69699 0.94134
 C2476 C 0.79666 0.70910 0.95419
 H2477 H 0.81751 0.73193 0.90398
 H2478 H 0.79545 0.75429 0.92773
 H2479 H 0.75149 0.70796 0.92922
 H2480 H 0.77361 0.68615 0.90534
 H2481 H 0.82011 0.68538 0.94699
 H2482 H 0.79780 0.70721 0.97066
 C2483 C 0.80648 0.20148 0.41989
 C2484 C 0.78295 0.20086 0.41446
 C2485 C 0.77057 0.21295 0.42687
 C2486 C 0.78268 0.22523 0.44349
 C2487 C 0.79490 0.20754 0.45504
 C2488 C 0.80733 0.19525 0.44267
 C2489 C 0.81206 0.22531 0.41937
 C2490 C 0.79966 0.23762 0.43166
 H2491 H 0.77646 0.19158 0.40199
 H2492 H 0.75358 0.21356 0.42508
 H2493 H 0.79321 0.20395 0.47123
 H2494 H 0.81638 0.18182 0.44848
 H2495 H 0.82439 0.23216 0.40992
 H2496 H 0.80163 0.25475 0.43274
 C2497 C 0.69860 0.30061 0.41933
 C2498 C 0.69522 0.27635 0.41871
 C2499 C 0.70827 0.26514 0.43129
 C2500 C 0.72373 0.27894 0.44345
 C2501 C 0.73516 0.29239 0.42706
 C2502 C 0.72210 0.30346 0.41440
 C2503 C 0.69650 0.30652 0.44208
 C2504 C 0.70960 0.29531 0.45473
 H2505 H 0.68391 0.26844 0.40896
 H2506 H 0.70781 0.24788 0.43232
 H2507 H 0.75217 0.29325 0.42561
 H2508 H 0.72806 0.31343 0.40207
 H2509 H 0.68598 0.31889 0.44771
 H2510 H 0.71027 0.29883 0.47097
 C2511 C 0.69562 0.79863 0.91954
 C2512 C 0.69073 0.77465 0.92073
 C2513 C 0.70413 0.76341 0.93295
 C2514 C 0.72131 0.77691 0.94304
 C2515 C 0.73216 0.78860 0.92508
 C2516 C 0.71879 0.79964 0.91275
 C2517 C 0.69574 0.80608 0.94195
 C2518 C 0.70917 0.79486 0.95426
 H2519 H 0.67803 0.76695 0.91259
 H2520 H 0.70267 0.74634 0.93522
 H2521 H 0.74906 0.78858 0.92249
 H2522 H 0.72432 0.80865 0.89957
 H2523 H 0.68657 0.81953 0.94751
 H2524 H 0.71158 0.79937 0.97011
 C2525 C 0.19482 0.29879 0.91595
 C2526 C 0.21859 0.30306 0.91425
 C2527 C 0.23053 0.29082 0.92695
 C2528 C 0.21789 0.27500 0.94018
 C2529 C 0.20169 0.28928 0.95152
 C2530 C 0.18969 0.30157 0.93879
 C2531 C 0.19273 0.27473 0.91206
 C2532 C 0.20466 0.26238 0.92474
 H2533 H 0.22560 0.31459 0.90388
 H2534 H 0.24755 0.29226 0.92753
 H2535 H 0.19994 0.29057 0.96799
 H2536 H 0.17791 0.31268 0.94452
 H2537 H 0.18286 0.26789 0.90026
 H2538 H 0.20471 0.24511 0.92384
 C2539 C 0.19793 0.80256 0.41707
 C2540 C 0.22153 0.80797 0.41603
 C2541 C 0.23380 0.79552 0.42828
 C2542 C 0.22162 0.77861 0.44053
 C2543 C 0.20447 0.79131 0.45225
 C2544 C 0.19221 0.80382 0.43993
 C2545 C 0.19697 0.77870 0.41196
 C2546 C 0.20907 0.76625 0.42430
 H2547 H 0.22822 0.82021 0.40625
 H2548 H 0.25077 0.79740 0.42905
 H2549 H 0.20116 0.78995 0.46850
 H2550 H 0.17911 0.81315 0.44586
 H2551 H 0.18746 0.77202 0.39980
 H2552 H 0.20950 0.74903 0.42277
 C2553 C 0.69620 0.70226 0.58201
 C2554 C 0.71999 0.69904 0.58518
 C2555 C 0.73217 0.71104 0.57252
 C2556 C 0.71970 0.72571 0.55791
 C2557 C 0.70499 0.71023 0.54644
 C2558 C 0.69274 0.69811 0.55909
 C2559 C 0.69274 0.72638 0.58460
 C2560 C 0.70492 0.73854 0.57201
 H2561 H 0.72683 0.68828 0.59642
 H2562 H 0.74925 0.71014 0.57287
 H2563 H 0.70475 0.70784 0.53000
 H2564 H 0.68206 0.68612 0.55329
 H2565 H 0.68186 0.73342 0.59555
 H2566 H 0.70423 0.75583 0.57217
 C2567 C 0.69882 0.19844 0.07876
 C2568 C 0.70067 0.18988 0.05678
 C2569 C 0.71466 0.20072 0.04478
 C2570 C 0.72553 0.21941 0.05583
 C2571 C 0.70734 0.23309 0.06423
 C2572 C 0.69338 0.22222 0.07616
 C2573 C 0.72147 0.19817 0.08692
 C2574 C 0.73540 0.20881 0.07491
 H2575 H 0.69222 0.17603 0.05132
 H2576 H 0.71827 0.19552 0.02932
 H2577 H 0.70548 0.24995 0.06089
 H2578 H 0.67973 0.22999 0.08285
 H2579 H 0.72628 0.18988 0.10079
 H2580 H 0.75208 0.20922 0.07848
 C2581 C 0.19965 0.69501 0.08165
 C2582 C 0.19208 0.69780 0.05946
 C2583 C 0.20413 0.71130 0.04802
 C2584 C 0.22297 0.72078 0.05978
 C2585 C 0.21256 0.73126 0.07865
 C2586 C 0.20068 0.71779 0.09013
 C2587 C 0.22282 0.68793 0.07973
 C2588 C 0.23491 0.70139 0.06835
 H2589 H 0.17798 0.69039 0.05346
 H2590 H 0.19976 0.71563 0.03249
 H2591 H 0.21381 0.74805 0.08235
 H2592 H 0.19226 0.72309 0.10373
 H2593 H 0.22939 0.67372 0.08674
 H2594 H 0.25157 0.69851 0.06568
 C2595 C 0.19962 0.19480 0.58168
 C2596 C 0.22274 0.18771 0.57933
 C2597 C 0.23464 0.20126 0.56784
 C2598 C 0.22253 0.22070 0.55956
 C2599 C 0.20352 0.21126 0.54806
 C2600 C 0.19167 0.19769 0.55962
 C2601 C 0.20078 0.21752 0.59026
 C2602 C 0.21243 0.23107 0.57865
 H2603 H 0.22938 0.17335 0.58599
 H2604 H 0.25122 0.19833 0.56477
 H2605 H 0.19892 0.21561 0.53259
 H2606 H 0.17752 0.19023 0.55381
 H2607 H 0.19257 0.22273 0.60401
 H2608 H 0.21365 0.24785 0.58239
   
