data_POSCAR
  _audit_creation_date              2014-09-24
  _audit_creation_method            'ToBaCCo'
  _symmetry_space_group_name_H-M    'P1'
  _symmetry_Int_Tables_number       1
  _symmetry_cell_setting            triclinic
  loop_
  _symmetry_equiv_pos_as_xyz
 x,y,z
_cell_length_a 46.9175
_cell_length_b 47.3026
_cell_length_c 46.0103
_cell_angle_alpha 87.781800
_cell_angle_beta 92.326200
_cell_angle_gamma 92.941800
loop_
  _atom_site_label
  _atom_site_type_symbol
  _atom_site_fract_x
  _atom_site_fract_y
  _atom_site_fract_z
C1 C 0.40172 0.01330 0.29203
 C2 C 0.38867 0.04146 0.28291
 C3 C 0.36815 0.03942 0.26135
 C4 C 0.36232 0.00938 0.25072
 C5 C 0.37629 -0.00710 0.29940
 C6 C 0.35590 -0.00934 0.27774
 C7 C 0.41241 0.00270 0.26318
 C8 C 0.39170 0.00083 0.24148
 H9 H 0.39675 0.06164 0.29105
 H10 H 0.34492 0.00763 0.23372
 H11 H 0.37664 -0.02166 0.31817
 H12 H 0.43460 0.00044 0.25884
 C13 C 0.11698 -0.00822 0.76436
 C14 C 0.13932 -0.02761 0.75375
 C15 C 0.15755 -0.01481 0.73463
 C16 C 0.15137 0.01606 0.72698
 C17 C 0.13424 0.01764 0.77585
 C18 C 0.15210 0.03020 0.75640
 C19 C 0.10237 0.00218 0.73757
 C20 C 0.12143 0.01521 0.71639
 H21 H 0.14038 -0.04976 0.76045
 H22 H 0.16720 0.02691 0.71265
 H23 H 0.13106 0.02641 0.79683
 H24 H 0.08043 -0.00405 0.73188
 C25 C 0.59454 0.50319 0.27520
 C26 C 0.60957 0.47591 0.28329
 C27 C 0.63181 0.47088 0.26654
 C28 C 0.63866 0.49526 0.24430
 C29 C 0.61856 0.52609 0.27831
 C30 C 0.64174 0.52233 0.26219
 C31 C 0.58765 0.50218 0.24258
 C32 C 0.61062 0.49841 0.22618
 H33 H 0.60406 0.46221 0.30176
 H34 H 0.65739 0.49187 0.23126
 H35 H 0.61653 0.54452 0.29108
 H36 H 0.56612 0.50386 0.23352
 C37 C 0.90772 0.50906 0.79101
 C38 C 0.89123 0.53580 0.78396
 C39 C 0.86938 0.53210 0.76414
 C40 C 0.86578 0.50226 0.75262
 C41 C 0.88496 0.48618 0.79971
 C42 C 0.86323 0.48268 0.77966
 C43 C 0.91717 0.50036 0.76081
 C44 C 0.89506 0.49697 0.74063
 H45 H 0.89721 0.55628 0.79278
 H46 H 0.84735 0.49925 0.73696
 H47 H 0.88735 0.47212 0.81871
 H48 H 0.93919 0.50029 0.75478
 C49 C 0.28677 0.37948 1.00907
 C50 C 0.27431 0.35692 1.03060
 C51 C 0.24700 0.34767 1.02351
 C52 C 0.23441 0.36168 0.99561
 C53 C 0.28322 0.36573 0.97971
 C54 C 0.25610 0.35664 0.97222
 C55 C 0.26528 0.40272 1.00771
 C56 C 0.23774 0.39368 1.00153
 H57 H 0.28459 0.35034 1.05099
 H58 H 0.21225 0.35379 0.99011
 H59 H 0.30133 0.36184 0.96680
 H60 H 0.27154 0.42434 1.01292
 C61 C 0.76408 0.09887 1.00619
 C62 C 0.76345 0.11589 0.97706
 C63 C 0.74223 0.13460 0.97415
 C64 C 0.72320 0.13416 1.00055
 C65 C 0.76586 0.12206 1.02884
 C66 C 0.74476 0.14095 1.02584
 C67 C 0.73597 0.08553 1.00830
 C68 C 0.71323 0.10459 1.00551
 H69 H 0.78064 0.11620 0.96203
 H70 H 0.70595 0.14914 0.99690
 H71 H 0.78322 0.12392 1.04485
 H72 H 0.73284 0.06332 1.01463
 C73 C 0.27527 0.60445 0.50232
 C74 C 0.27548 0.62014 0.47271
 C75 C 0.25575 0.64017 0.46879
 C76 C 0.23647 0.64188 0.49467
 C77 C 0.27726 0.62777 0.52477
 C78 C 0.25776 0.64807 0.52033
 C79 C 0.24494 0.59197 0.50496
 C80 C 0.22437 0.61128 0.50102
 H81 H 0.29194 0.61750 0.45732
 H82 H 0.21991 0.65749 0.49040
 H83 H 0.29157 0.62703 0.54374
 H84 H 0.24050 0.57033 0.51260
 C85 C 0.77018 0.88752 0.52154
 C86 C 0.76341 0.86035 0.53985
 C87 C 0.73823 0.84664 0.53189
 C88 C 0.72184 0.86106 0.50634
 C89 C 0.76882 0.87744 0.49039
 C90 C 0.74387 0.86378 0.48230
 C91 C 0.74409 0.90514 0.52373
 C92 C 0.71872 0.89142 0.51648
 H93 H 0.77738 0.85169 0.55680
 H94 H 0.70142 0.84963 0.49992
 H95 H 0.78691 0.87936 0.47637
 H96 H 0.74557 0.92617 0.53238
 C97 C -0.01105 0.28786 0.38479
 C98 C 0.01907 0.29364 0.37356
 C99 C 0.02819 0.27285 0.35708
 C100 C 0.00604 0.24802 0.35315
 C101 C -0.02916 0.28194 0.35910
 C102 C -0.01992 0.26045 0.34157
 C103 C -0.00958 0.25863 0.40127
 C104 C -0.00050 0.23741 0.38464
 H105 H 0.03244 0.31210 0.37930
 H106 H 0.01400 0.23249 0.33852
 H107 H -0.05118 0.28793 0.35708
 H108 H -0.01617 0.25513 0.42341
 C109 C -0.01470 0.78154 0.10136
 C110 C -0.03542 0.77338 0.12593
 C111 C -0.02720 0.75146 0.14382
 C112 C 0.00122 0.73946 0.13591
 C113 C 0.01389 0.78740 0.11776
 C114 C 0.02221 0.76591 0.13635
 C115 C -0.01129 0.75396 0.08596
 C116 C -0.00336 0.73177 0.10354
 H117 H -0.05517 0.78335 0.12917
 H118 H 0.00766 0.72148 0.15052
 H119 H 0.02546 0.80778 0.11623
 H120 H -0.01780 0.75143 0.06329
 C121 C 0.48162 0.27851 0.60584
 C122 C 0.45818 0.26852 0.62680
 C123 C 0.46177 0.24276 0.63991
 C124 C 0.48825 0.22833 0.63041
 C125 C 0.50964 0.27604 0.62396
 C126 C 0.51325 0.25000 0.63696
 C127 C 0.48127 0.25445 0.58420
 C128 C 0.48468 0.22820 0.59689
 H129 H 0.43827 0.27875 0.62852
 H130 H 0.49066 0.20703 0.64097
 H131 H 0.52542 0.29346 0.62594
 H132 H 0.47705 0.25771 0.56103
 C133 C 0.48679 0.76527 0.90343
 C134 C 0.51508 0.77628 0.89036
 C135 C 0.52519 0.75909 0.87030
 C136 C 0.50538 0.73260 0.86473
 C137 C 0.46667 0.76139 0.87635
 C138 C 0.47613 0.74403 0.85653
 C139 C 0.49217 0.73671 0.91451
 C140 C 0.50214 0.71838 0.89330
 H141 H 0.52609 0.79589 0.89666
 H142 H 0.51338 0.71954 0.84774
 H143 H 0.44615 0.77052 0.87284
 H144 H 0.48687 0.72949 0.93634
 C145 C -0.22521 0.65298 0.98838
 C146 C -0.20072 0.63248 0.99111
 C147 C -0.20382 0.61222 1.01257
 C148 C -0.23054 0.61437 1.03017
 C149 C -0.25247 0.63374 0.98564
 C150 C -0.25528 0.61383 1.00752
 C151 C -0.22605 0.66505 1.01894
 C152 C -0.22895 0.64483 1.04064
 H153 H -0.18226 0.63358 0.97774
 H154 H -0.23289 0.59782 1.04784
 H155 H -0.26940 0.63743 0.96941
 H156 H -0.22343 0.68742 1.02314
 C157 C -0.26162 0.33721 0.46744
 C158 C -0.28802 0.35539 0.46636
 C159 C -0.28676 0.37548 0.48673
 C160 C -0.25924 0.37590 0.50596
 C161 C -0.23627 0.35903 0.46458
 C162 C -0.23451 0.37869 0.48525
 C163 C -0.25931 0.32604 0.49745
 C164 C -0.25784 0.34732 0.51912
 H165 H -0.30735 0.35124 0.45338
 H166 H -0.25785 0.39403 0.52041
 H167 H -0.21838 0.35594 0.45105
 H168 H -0.25983 0.30352 0.50257
 C169 C 0.22620 -0.15704 -0.04152
 C170 C 0.19846 -0.14134 -0.03916
 C171 C 0.20049 -0.12081 -0.01919
 C172 C 0.22975 -0.11812 -0.00309
 C173 C 0.24922 -0.13356 -0.04735
 C174 C 0.25124 -0.11335 -0.02722
 C175 C 0.23262 -0.16779 -0.01193
 C176 C 0.23474 -0.14647 0.00955
 H177 H 0.17851 -0.14709 -0.05059
 H178 H 0.23157 -0.10031 0.01188
 H179 H 0.26477 -0.13470 -0.06402
 H180 H 0.23210 -0.19020 -0.00621
 C181 C 0.26772 1.15224 0.47905
 C182 C 0.28760 1.12817 0.48647
 C183 C 0.27832 1.10973 0.50766
 C184 C 0.25002 1.11698 0.52024
 C185 C 0.23824 1.13770 0.47260
 C186 C 0.22908 1.11941 0.49407
 C187 C 0.26428 1.16624 0.50840
 C188 C 0.25475 1.14775 0.52989
 H189 H 0.30734 1.12575 0.47558
 H190 H 0.24231 1.10152 0.53729
 H191 H 0.22430 1.14423 0.45448
 H192 H 0.26833 1.18849 0.51209
 C193 C 0.16240 0.51728 0.27080
 C194 C 0.14061 0.51590 0.24500
 C195 C 0.12000 0.49491 0.24784
 C196 C 0.12272 0.47708 0.27598
 C197 C 0.14434 0.51877 0.29798
 C198 C 0.12292 0.49839 0.30034
 C199 C 0.17404 0.48756 0.27361
 C200 C 0.15318 0.46648 0.27598
 H201 H 0.14210 0.52962 0.22565
 H202 H 0.10618 0.45966 0.27781
 H203 H 0.14800 0.53522 0.31349
 H204 H 0.19631 0.48337 0.27174
 C205 C -0.13615 1.03787 0.22959
 C206 C -0.11757 1.03167 0.25711
 C207 C -0.10513 1.00641 0.25763
 C208 C -0.11268 0.98915 0.23053
 C209 C -0.11672 1.03421 0.20428
 C210 C -0.10419 1.00895 0.20439
 C211 C -0.15687 1.01382 0.22778
 C212 C -0.14405 0.98673 0.22857
 H213 H -0.11349 1.04671 0.27416
 H214 H -0.10168 0.96897 0.23104
 H215 H -0.11584 1.04942 0.18609
 H216 H -0.17968 1.01560 0.22815
 C217 C 0.37082 0.54963 -0.26081
 C218 C 0.39089 0.54435 -0.23415
 C219 C 0.40197 0.51827 -0.23269
 C220 C 0.39197 0.49952 -0.25786
 C221 C 0.38827 0.54312 -0.28686
 C222 C 0.40022 0.51753 -0.28514
 C223 C 0.34813 0.52513 -0.25928
 C224 C 0.35906 0.49890 -0.25766
 H225 H 0.39714 0.56051 -0.21875
 H226 H 0.40119 0.47835 -0.25614
 H227 H 0.39132 0.55814 -0.30498
 H228 H 0.32543 0.52780 -0.25965
 C229 C 0.64183 0.01756 -0.24315
 C230 C 0.61471 0.01679 -0.26304
 C231 C 0.59672 -0.00614 -0.25787
 C232 C 0.60707 -0.02616 -0.23333
 C233 C 0.63098 0.01501 -0.21201
 C234 C 0.61278 -0.00763 -0.20712
 C235 C 0.65489 -0.01118 -0.24754
 C236 C 0.63667 -0.03419 -0.24249
 H237 H 0.61159 0.03138 -0.28149
 H238 H 0.59147 -0.04391 -0.22851
 H239 H 0.63767 0.02953 -0.19511
 H240 H 0.67591 -0.01325 -0.25540
 C241 C 0.02728 0.26938 0.85830
 C242 C 0.02135 0.29186 0.88036
 C243 C 0.00003 0.28444 0.89855
 C244 C -0.01437 0.25524 0.89245
 C245 C 0.03154 0.24215 0.87663
 C246 C 0.00999 0.23448 0.89453
 C247 C -0.00015 0.26441 0.84258
 C248 C -0.02367 0.25736 0.86146
 H249 H 0.03127 0.31307 0.87957
 H250 H -0.03090 0.24858 0.90812
 H251 H 0.04975 0.22931 0.87442
 H252 H -0.00338 0.27031 0.81980
 C253 C 0.52317 0.22856 0.12958
 C254 C 0.51870 0.20287 0.11019
 C255 C 0.49472 0.20328 0.09263
 C256 C 0.47740 0.22971 0.09545
 C257 C 0.52281 0.25399 0.10757
 C258 C 0.49879 0.25485 0.09010
 C259 C 0.49517 0.22974 0.14569
 C260 C 0.47112 0.23055 0.12803
 H261 H 0.53275 0.18537 0.11091
 H262 H 0.45835 0.22986 0.08038
 H263 H 0.53871 0.27134 0.10720
 H264 H 0.49490 0.23193 0.16901
 C265 C 0.02227 0.75682 0.64449
 C266 C 0.02392 0.73213 0.62423
 C267 C 0.00054 0.72754 0.60634
 C268 C -0.02239 0.74929 0.60943
 C269 C 0.01623 0.78250 0.62419
 C270 C -0.00687 0.77866 0.60574
 C271 C -0.00598 0.75082 0.66017
 C272 C -0.02955 0.74672 0.64199
 H273 H 0.03992 0.71645 0.62764
 H274 H -0.04081 0.74661 0.59376
 H275 H 0.02595 0.80346 0.62719
 H276 H -0.00681 0.74921 0.68364
 C277 C 0.53778 0.76800 0.35644
 C278 C 0.53835 0.78793 0.38215
 C279 C 0.51497 0.78550 0.39873
 C280 C 0.49260 0.76289 0.38809
 C281 C 0.53308 0.73846 0.37134
 C282 C 0.50944 0.73576 0.38780
 C283 C 0.50963 0.77328 0.33939
 C284 C 0.48593 0.77063 0.35564
 H285 H 0.55671 0.80166 0.38796
 H286 H 0.47357 0.76047 0.40171
 H287 H 0.54747 0.72146 0.36983
 H288 H 0.50874 0.77907 0.31638
 B289 B -0.02702 0.00531 0.99690
 B290 B -0.05099 0.00039 0.96890
 B291 B -0.02455 0.02597 0.96631
 B292 B 0.00532 0.01372 0.98330
 B293 B -0.00310 -0.01982 0.99629
 B294 B -0.03819 -0.02760 0.98738
 B295 B -0.00999 -0.01952 0.93690
 B296 B 0.01409 -0.01440 0.96498
 B297 B -0.01248 -0.04003 0.96756
 B298 B -0.04218 -0.02779 0.95054
 B299 B -0.03382 0.00591 0.93767
 B300 B 0.00114 0.01379 0.94619
 B301 B 0.50494 0.51972 0.52789
 B302 B 0.47625 0.52254 0.50488
 B303 B 0.50691 0.54104 0.49750
 B304 B 0.53460 0.52094 0.50820
 B305 B 0.52040 0.48950 0.52164
 B306 B 0.48406 0.49085 0.51956
 B307 B 0.50276 0.49492 0.46443
 B308 B 0.53166 0.49244 0.48728
 B309 B 0.50115 0.47361 0.49466
 B310 B 0.47328 0.49358 0.48406
 B311 B 0.48720 0.52514 0.47063
 B312 B 0.52364 0.52414 0.47244
 B313 B 0.49883 0.96582 0.55178
 B314 B 0.51551 0.97026 0.51974
 B315 B 0.48245 0.95424 0.52094
 B316 B 0.46370 0.97061 0.54542
 B317 B 0.48570 0.99724 0.55927
 B318 B 0.51779 0.99631 0.54365
 B319 B 0.47763 1.00871 0.50107
 B320 B 0.46112 1.00440 0.53310
 B321 B 0.49417 1.02035 0.53174
 B322 B 0.51282 1.00395 0.50736
 B323 B 0.49080 0.97744 0.49343
 B324 B 0.45871 0.97824 0.50911
 B325 B 0.02582 0.47673 1.04798
 B326 B 0.03931 0.47997 1.01437
 B327 B 0.00782 0.46201 1.01938
 B328 B -0.01007 0.47841 1.04436
 B329 B 0.01086 0.50734 1.05472
 B330 B 0.04171 0.50772 1.03647
 B331 B -0.00243 0.51456 0.99663
 B332 B -0.01629 0.51094 1.03016
 B333 B 0.01536 0.52923 1.02528
 B334 B 0.03338 0.51265 1.00035
 B335 B 0.01236 0.48392 0.98992
 B336 B -0.01846 0.48326 1.00808
 B337 B 0.01017 0.51173 0.48681
 B338 B 0.02798 0.50521 0.51863
 B339 B 0.00249 0.52932 0.51658
 B340 B -0.02405 0.51758 0.49371
 B341 B -0.01523 0.48566 0.48198
 B342 B 0.01724 0.47814 0.49711
 B343 B -0.01968 0.48055 0.54101
 B344 B -0.03772 0.48707 0.50927
 B345 B -0.01238 0.46311 0.51124
 B346 B 0.01457 0.47491 0.53388
 B347 B 0.00543 0.50672 0.54595
 B348 B -0.02732 0.51410 0.53051
 B349 B 0.50186 -0.01614 -0.01605
 B350 B 0.52275 -0.01351 0.01443
 B351 B 0.49445 0.00705 0.00903
 B352 B 0.46763 -0.01220 -0.00771
 B353 B 0.47964 -0.04503 -0.01250
 B354 B 0.51379 -0.04564 0.00125
 B355 B 0.48010 -0.03658 0.04616
 B356 B 0.45908 -0.03958 0.01575
 B357 B 0.48735 -0.05981 0.02092
 B358 B 0.51418 -0.04044 0.03766
 B359 B 0.50206 -0.00758 0.04241
 B360 B 0.46766 -0.00741 0.02875
 B361 B 0.51031 0.47032 -0.04585
 B362 B 0.48877 0.47476 -0.01818
 B363 B 0.51440 0.45099 -0.01469
 B364 B 0.54347 0.46444 -0.03208
 B365 B 0.53550 0.49706 -0.04592
 B366 B 0.50126 0.50310 -0.03766
 B367 B 0.53289 0.49801 0.01319
 B368 B 0.55457 0.49414 -0.01450
 B369 B 0.52879 0.51757 -0.01806
 B370 B 0.49979 0.50407 -0.00086
 B371 B 0.50806 0.47156 0.01338
 B372 B 0.54222 0.46526 0.00483
 B373 B -0.01635 0.98930 0.46298
 B374 B -0.03634 0.99471 0.49161
 B375 B -0.01071 0.97088 0.49456
 B376 B 0.01728 0.98372 0.47528
 B377 B 0.00879 1.01596 0.46079
 B378 B -0.02478 1.02250 0.47061
 B379 B 0.00944 1.01885 0.52006
 B380 B 0.02946 1.01385 0.49123
 B381 B 0.00361 1.03742 0.48853
 B382 B -0.02436 1.02450 0.50757
 B383 B -0.01550 0.99233 0.52231
 B384 B 0.01806 0.98574 0.51225
 B385 B 0.76976 0.25814 0.20105
 B386 B 0.76457 0.23098 0.22520
 B387 B 0.78898 0.25763 0.23283
 B388 B 0.77604 0.28825 0.21927
 B389 B 0.74346 0.28069 0.20359
 B390 B 0.73639 0.24493 0.20718
 B391 B 0.74117 0.26574 0.26159
 B392 B 0.74649 0.29317 0.23755
 B393 B 0.72208 0.26685 0.22956
 B394 B 0.73477 0.23596 0.24327
 B395 B 0.76773 0.24345 0.25899
 B396 B 0.77461 0.27929 0.25553
 B397 B 0.72487 0.74941 0.72267
 B398 B 0.73409 0.77392 0.74755
 B399 B 0.71085 0.74648 0.75592
 B400 B 0.72125 0.71729 0.73998
 B401 B 0.75154 0.72687 0.72201
 B402 B 0.75917 0.76218 0.72647
 B403 B 0.76267 0.73504 0.77981
 B404 B 0.75354 0.71070 0.75511
 B405 B 0.77680 0.73799 0.74680
 B406 B 0.76641 0.76702 0.76268
 B407 B 0.73626 0.75766 0.78059
 B408 B 0.72844 0.72248 0.77612
 B409 B 0.26022 0.27920 0.76633
 B410 B 0.26241 0.29618 0.73331
 B411 B 0.27625 0.26409 0.73902
 B412 B 0.25479 0.24410 0.76104
 B413 B 0.22716 0.26397 0.76869
 B414 B 0.23229 0.29667 0.75196
 B415 B 0.22497 0.25737 0.71013
 B416 B 0.22276 0.24033 0.74274
 B417 B 0.20894 0.27256 0.73750
 B418 B 0.23050 0.29249 0.71531
 B419 B 0.25812 0.27217 0.70736
 B420 B 0.25307 0.23982 0.72456
 B421 B 0.24014 0.75226 0.27637
 B422 B 0.24244 0.72684 0.25192
 B423 B 0.21994 0.75331 0.24451
 B424 B 0.23557 0.78350 0.25844
 B425 B 0.26821 0.77492 0.27303
 B426 B 0.27226 0.73967 0.26874
 B427 B 0.26779 0.76556 0.21481
 B428 B 0.26593 0.79033 0.24003
 B429 B 0.28784 0.76359 0.24609
 B430 B 0.27216 0.73363 0.23252
 B431 B 0.23987 0.74223 0.21792
 B432 B 0.23577 0.77763 0.22230
 B433 B 0.28268 0.76853 0.69405
 B434 B 0.27286 0.74250 0.71822
 B435 B 0.29899 0.76683 0.72749
 B436 B 0.29063 0.79850 0.71229
 B437 B 0.25887 0.79379 0.69375
 B438 B 0.24775 0.75873 0.69741
 B439 B 0.24996 0.78082 0.75104
 B440 B 0.26055 0.80686 0.72744
 B441 B 0.23413 0.78290 0.71772
 B442 B 0.24224 0.75103 0.73312
 B443 B 0.27420 0.75561 0.75179
 B444 B 0.28514 0.79037 0.74833
 B445 B 0.23386 0.26326 0.22246
 B446 B 0.24256 0.27350 0.25652
 B447 B 0.21731 0.24749 0.25125
 B448 B 0.22674 0.22775 0.22378
 B449 B 0.25869 0.24174 0.21207
 B450 B 0.26837 0.27059 0.23234
 B451 B 0.26649 0.22380 0.26901
 B452 B 0.25736 0.21316 0.23506
 B453 B 0.28293 0.23933 0.24021
 B454 B 0.27344 0.25918 0.26749
 B455 B 0.24155 0.24506 0.27928
 B456 B 0.23178 0.21643 0.25935
 B457 B 0.78130 0.76146 0.29689
 B458 B 0.78344 0.77696 0.26353
 B459 B 0.80144 0.74707 0.27167
 B460 B 0.78108 0.72596 0.29413
 B461 B 0.75012 0.74259 0.29867
 B462 B 0.75166 0.77407 0.27953
 B463 B 0.75300 0.73226 0.24085
 B464 B 0.75112 0.71684 0.27464
 B465 B 0.73309 0.74596 0.26569
 B466 B 0.75321 0.76786 0.24369
 B467 B 0.78400 0.75151 0.23904
 B468 B 0.78217 0.71952 0.25828
 B469 B 0.72532 0.25130 0.78612
 B470 B 0.72340 0.22724 0.75975
 B471 B 0.70701 0.25806 0.75422
 B472 B 0.72761 0.28410 0.77014
 B473 B 0.75712 0.26896 0.78465
 B474 B 0.75438 0.23341 0.77850
 B475 B 0.75665 0.26231 0.72616
 B476 B 0.75876 0.28610 0.75251
 B477 B 0.77491 0.25532 0.75777
 B478 B 0.75438 0.22943 0.74195
 B479 B 0.72480 0.24468 0.72705
 B480 B 0.72754 0.28010 0.73355
 C481 C 0.41411 1.02910 0.34282
 C482 C 0.43195 1.03076 0.36790
 C483 C 0.45929 1.01956 0.36809
 C484 C 0.46850 1.00749 0.34300
 C485 C 0.45044 1.00558 0.31819
 C486 C 0.42294 1.01628 0.31777
 C487 C 0.47632 1.01918 0.39381
 C488 C 0.46565 1.02842 0.41966
 C489 C 0.43868 1.04035 0.41929
 C490 C 0.42228 1.04217 0.39320
 C491 C 0.42777 1.04847 0.44541
 C492 C 0.44176 1.04161 0.47193
 C493 C 0.46727 1.02715 0.47284
 C494 C 0.48034 1.02328 0.44626
 H495 H 0.39284 1.03703 0.34303
 H496 H 0.48934 0.99863 0.34288
 H497 H 0.45805 0.99496 0.29992
 H498 H 0.49700 1.00988 0.39415
 H499 H 0.40128 1.05078 0.39303
 H500 H 0.40740 1.05828 0.44551
 H501 H 0.43158 1.04657 0.49142
 H502 H 0.50051 1.01311 0.44611
 C503 C -0.07718 0.52639 0.84093
 C504 C -0.05797 0.52870 0.86497
 C505 C -0.03079 0.51738 0.86384
 C506 C -0.02303 0.50477 0.83841
 C507 C -0.04232 0.50256 0.81453
 C508 C -0.06968 0.51329 0.81542
 C509 C -0.01236 0.51760 0.88859
 C510 C -0.02121 0.52811 0.91471
 C511 C -0.04784 0.54049 0.91558
 C512 C -0.06595 0.54112 0.89052
 C513 C -0.05638 0.55078 0.94191
 C514 C -0.04021 0.54590 0.96772
 C515 C -0.01539 0.53048 0.96774
 C516 C -0.00476 0.52428 0.94048
 H517 H -0.09843 0.53407 0.84237
 H518 H -0.00232 0.49582 0.83731
 H519 H -0.03590 0.49156 0.79593
 H520 H 0.00817 0.50813 0.88798
 H521 H -0.08675 0.55001 0.89133
 H522 H -0.07631 0.56125 0.94285
 H523 H -0.04799 0.55326 0.98756
 H524 H 0.01518 0.51386 0.93935
 C525 C 0.07022 -0.01958 0.79118
 C526 C 0.05661 -0.02909 0.81674
 C527 C 0.07257 -0.04209 0.83989
 C528 C 0.10149 -0.04627 0.83685
 C529 C 0.11496 -0.03619 0.81188
 C530 C 0.09976 -0.02252 0.78873
 C531 C 0.06000 -0.04885 0.86653
 C532 C 0.03217 -0.04116 0.87100
 C533 C 0.01575 -0.02931 0.84761
 C534 C 0.02779 -0.02405 0.82037
 C535 C -0.01180 -0.02112 0.85248
 C536 C -0.02136 -0.02113 0.88080
 C537 C -0.00365 -0.02960 0.90485
 C538 C 0.02165 -0.04254 0.89915
 H539 H 0.05813 -0.00839 0.77428
 H540 H 0.11409 -0.05599 0.85442
 H541 H 0.13783 -0.03810 0.81120
 H542 H 0.07266 -0.05793 0.88448
 H543 H 0.01538 -0.01418 0.80272
 H544 H -0.02514 -0.01275 0.83473
 H545 H -0.04198 -0.01264 0.88377
 H546 H 0.03467 -0.05117 0.91670
 C547 C 0.55352 0.48501 0.30681
 C548 C 0.53549 0.49001 0.32930
 C549 C 0.53010 0.51821 0.33557
 C550 C 0.54055 0.54060 0.31759
 C551 C 0.55958 0.53544 0.29617
 C552 C 0.56840 0.50784 0.29258
 C553 C 0.51657 0.52371 0.36105
 C554 C 0.51032 0.50153 0.38116
 C555 C 0.51358 0.47318 0.37401
 C556 C 0.52533 0.46749 0.34747
 C557 C 0.50708 0.45131 0.39451
 C558 C 0.50077 0.45775 0.42291
 C559 C 0.50147 0.48602 0.43123
 C560 C 0.50374 0.50764 0.40937
 H561 H 0.55759 0.46336 0.30221
 H562 H 0.53574 0.56227 0.32149
 H563 H 0.56874 0.55327 0.28368
 H564 H 0.51362 0.54544 0.36655
 H565 H 0.52917 0.44582 0.34245
 H566 H 0.50835 0.42935 0.38907
 H567 H 0.49621 0.44058 0.43825
 H568 H 0.50303 0.52971 0.41469
 C569 C 0.58749 0.51304 0.17841
 C570 C 0.58350 0.51073 0.14831
 C571 C 0.60148 0.49384 0.13315
 C572 C 0.62323 0.47962 0.14849
 C573 C 0.62649 0.48134 0.17871
 C574 C 0.60841 0.49775 0.19400
 C575 C 0.59678 0.49068 0.10315
 C576 C 0.57353 0.50317 0.08848
 C577 C 0.55551 0.51992 0.10374
 C578 C 0.56104 0.52418 0.13340
 C579 C 0.53148 0.53108 0.08941
 C580 C 0.52473 0.52487 0.06049
 C581 C 0.54266 0.50856 0.04480
 C582 C 0.56724 0.49799 0.05912
 H583 H 0.57388 0.52643 0.18971
 H584 H 0.63714 0.46648 0.13724
 H585 H 0.64258 0.46907 0.19010
 H586 H 0.61045 0.47759 0.09150
 H587 H 0.54709 0.53691 0.14514
 H588 H 0.51727 0.54372 0.10089
 H589 H 0.50524 0.53273 0.05053
 H590 H 0.58095 0.48469 0.04781
 C591 C 0.08413 1.02613 0.67841
 C592 C 0.07570 1.02970 0.64874
 C593 C 0.09607 1.02758 0.62725
 C594 C 0.12470 1.02471 0.63551
 C595 C 0.13311 1.02237 0.66478
 C596 C 0.11295 1.02158 0.68690
 C597 C 0.08754 1.02768 0.59776
 C598 C 0.05889 1.03070 0.58924
 C599 C 0.03883 1.03566 0.61027
 C600 C 0.04725 1.03479 0.64003
 C601 C 0.01050 1.04016 0.60111
 C602 C 0.00185 1.03783 0.57176
 C603 C 0.02118 1.03031 0.55097
 C604 C 0.04987 1.02737 0.56014
 H605 H 0.06822 1.02712 0.69470
 H606 H 0.14066 1.02370 0.61924
 H607 H 0.15547 1.01942 0.66922
 H608 H 0.10312 1.02475 0.58147
 H609 H 0.03159 1.03730 0.65632
 H610 H -0.00520 1.04445 0.61678
 H611 H -0.02049 1.04008 0.56579
 H612 H 0.06506 1.02023 0.54545
 C613 C -0.07922 0.47707 0.69924
 C614 C -0.07547 0.47482 0.66918
 C615 C -0.09385 0.48885 0.64887
 C616 C -0.11615 0.50394 0.65873
 C617 C -0.11979 0.50599 0.68843
 C618 C -0.10119 0.49308 0.70909
 C619 C -0.08909 0.48851 0.61903
 C620 C -0.06573 0.47492 0.60911
 C621 C -0.04803 0.45980 0.62911
 C622 C -0.05320 0.45953 0.65903
 C623 C -0.02450 0.44658 0.61896
 C624 C -0.01706 0.45055 0.58989
 C625 C -0.03329 0.46743 0.57024
 C626 C -0.05861 0.47811 0.57981
 H627 H -0.06500 0.46662 0.71487
 H628 H -0.13047 0.51473 0.64345
 H629 H -0.13686 0.51851 0.69501
 H630 H -0.10279 0.49999 0.60365
 H631 H -0.03917 0.44853 0.67445
 H632 H -0.01080 0.43463 0.63386
 H633 H 0.00261 0.44204 0.58354
 H634 H -0.07151 0.49116 0.56516
 C635 C 0.41920 -0.02230 0.20356
 C636 C 0.42475 -0.02632 0.17421
 C637 C 0.40785 -0.01294 0.15209
 C638 C 0.38609 0.00425 0.15938
 C639 C 0.38125 0.00870 0.18837
 C640 C 0.39749 -0.00458 0.21081
 C641 C 0.41354 -0.01596 0.12291
 C642 C 0.43677 -0.03108 0.11536
 C643 C 0.45382 -0.04469 0.13706
 C644 C 0.44734 -0.04271 0.16650
 C645 C 0.47762 -0.05897 0.12882
 C646 C 0.48533 -0.05814 0.09961
 C647 C 0.46901 -0.04350 0.07817
 C648 C 0.44405 -0.03114 0.08634
 H649 H 0.43185 -0.03272 0.22062
 H650 H 0.37328 0.01492 0.14260
 H651 H 0.36514 0.02327 0.19300
 H652 H 0.40066 -0.00540 0.10607
 H653 H 0.46048 -0.05291 0.18335
 H654 H 0.49094 -0.06970 0.14509
 H655 H 0.50460 -0.06800 0.09403
 H656 H 0.43078 -0.02006 0.07029
 C657 C 0.32875 0.41040 -0.00671
 C658 C 0.35686 0.42138 -0.00380
 C659 C 0.37365 0.41419 0.02130
 C660 C 0.36194 0.39609 0.04301
 C661 C 0.33398 0.38472 0.03966
 C662 C 0.31710 0.39149 0.01456
 C663 C 0.40197 0.42485 0.02407
 C664 C 0.41387 0.44189 0.00161
 C665 C 0.39709 0.44898 -0.02355
 C666 C 0.36854 0.43899 -0.02593
 C667 C 0.40926 0.46578 -0.04598
 C668 C 0.43810 0.47452 -0.04399
 C669 C 0.45540 0.46639 -0.01967
 C670 C 0.44252 0.45141 0.00370
 H671 H 0.31591 0.41608 -0.02599
 H672 H 0.37453 0.39043 0.06243
 H673 H 0.32606 0.37077 0.05690
 H674 H 0.41495 0.41927 0.04329
 H675 H 0.35562 0.44441 -0.04525
 H676 H 0.39662 0.47175 -0.06527
 H677 H 0.44694 0.48715 -0.06189
 H678 H 0.45457 0.44707 0.02367
 C679 C -0.19312 0.92577 0.50842
 C680 C -0.16610 0.93928 0.51148
 C681 C -0.14842 0.93290 0.53620
 C682 C -0.15850 0.91364 0.55776
 C683 C -0.18514 0.89941 0.55397
 C684 C -0.20222 0.90445 0.52859
 C685 C -0.12064 0.94505 0.53839
 C686 C -0.10997 0.96230 0.51545
 C687 C -0.12778 0.96887 0.49088
 C688 C -0.15600 0.95787 0.48937
 C689 C -0.11679 0.98564 0.46781
 C690 C -0.08798 0.99447 0.46838
 C691 C -0.06965 0.98665 0.49201
 C692 C -0.08137 0.97205 0.51620
 H693 H -0.20655 0.93065 0.48932
 H694 H -0.14541 0.90890 0.57711
 H695 H -0.19190 0.88450 0.57096
 H696 H -0.10688 0.93992 0.55718
 H697 H -0.16960 0.96264 0.47036
 H698 H -0.13023 0.99117 0.44895
 H699 H -0.07996 1.00673 0.44983
 H700 H -0.06833 0.96779 0.53555
 C701 C -0.20237 0.06470 0.98546
 C702 C -0.17804 0.04868 0.98810
 C703 C -0.16402 0.04472 1.01562
 C704 C -0.17586 0.05497 1.04032
 C705 C -0.20002 0.07100 1.03748
 C706 C -0.21236 0.07780 1.00978
 C707 C -0.13797 0.03143 1.01785
 C708 C -0.12553 0.02259 0.99276
 C709 C -0.14043 0.02498 0.96553
 C710 C -0.16675 0.03774 0.96340
 C711 C -0.12818 0.01564 0.94066
 C712 C -0.10054 0.00609 0.94234
 C713 C -0.08436 0.00599 0.96891
 C714 C -0.09782 0.01273 0.99430
 H715 H -0.21280 0.06786 0.96423
 H716 H -0.16598 0.05128 1.06174
 H717 H -0.20854 0.07863 1.05704
 H718 H -0.12677 0.02920 1.03885
 H719 H -0.17772 0.04038 0.94233
 H720 H -0.13952 0.01678 0.91969
 H721 H -0.09139 0.00017 0.92236
 H722 H -0.08673 0.01156 1.01518
 C723 C 0.32623 0.59255 0.51568
 C724 C 0.34916 0.57494 0.51523
 C725 C 0.34534 0.54795 0.50319
 C726 C 0.31810 0.53874 0.49264
 C727 C 0.29513 0.55645 0.49340
 C728 C 0.29886 0.58352 0.50517
 C729 C 0.36903 0.53126 0.50085
 C730 C 0.39640 0.54160 0.51011
 C731 C 0.39970 0.56825 0.52305
 C732 C 0.37612 0.58462 0.52569
 C733 C 0.42674 0.57876 0.53218
 C734 C 0.45061 0.56374 0.52731
 C735 C 0.44821 0.53770 0.51345
 C736 C 0.42069 0.52634 0.50565
 H737 H 0.33032 0.61387 0.52307
 H738 H 0.31472 0.51821 0.48307
 H739 H 0.27468 0.54928 0.48389
 H740 H 0.36632 0.51079 0.49100
 H741 H 0.37891 0.60532 0.53509
 H742 H 0.42959 0.59915 0.54215
 H743 H 0.47100 0.57362 0.53318
 H744 H 0.41810 0.50622 0.49516
 C745 C 0.18341 0.57553 0.50171
 C746 C 0.15611 0.56635 0.51015
 C747 C 0.13828 0.58547 0.52247
 C748 C 0.14838 0.61358 0.52622
 C749 C 0.17608 0.62240 0.51842
 C750 C 0.19399 0.60335 0.50645
 C751 C 0.11071 0.57615 0.53056
 C752 C 0.10081 0.54805 0.52604
 C753 C 0.11906 0.52900 0.51414
 C754 C 0.14659 0.53819 0.50650
 C755 C 0.10919 0.50123 0.50906
 C756 C 0.08072 0.49305 0.51305
 C757 C 0.06154 0.51242 0.52254
 C758 C 0.07243 0.53913 0.53146
 H759 H 0.19657 0.56073 0.49174
 H760 H 0.13507 0.62860 0.53564
 H761 H 0.18365 0.64384 0.52265
 H762 H 0.09677 0.59087 0.53958
 H763 H 0.16041 0.52354 0.49714
 H764 H 0.12311 0.48623 0.50050
 H765 H 0.07357 0.47184 0.50718
 H766 H 0.05844 0.55393 0.54002
 C767 C 0.67584 0.06703 0.00303
 C768 C 0.64830 0.05625 0.00871
 C769 C 0.62887 0.07336 0.02156
 C770 C 0.63709 0.10162 0.02710
 C771 C 0.66451 0.11255 0.02059
 C772 C 0.68459 0.09510 0.00936
 C773 C 0.60156 0.06197 0.02824
 C774 C 0.59313 0.03418 0.02068
 C775 C 0.61232 0.01776 0.00649
 C776 C 0.63995 0.02859 0.00131
 C777 C 0.60345 -0.00909 -0.00289
 C778 C 0.57533 -0.01905 0.00023
 C779 C 0.55558 -0.00276 0.01363
 C780 C 0.56544 0.02294 0.02583
 H781 H 0.69019 0.05353 -0.00717
 H782 H 0.62239 0.11524 0.03662
 H783 H 0.67023 0.13414 0.02605
 H784 H 0.58665 0.07493 0.03840
 H785 H 0.65475 0.01570 -0.00912
 H786 H 0.61798 -0.02201 -0.01360
 H787 H 0.56927 -0.03958 -0.00824
 H788 H 0.55114 0.03498 0.03782
 C789 C 0.66724 0.90137 0.50421
 C790 C 0.64221 0.91493 0.51040
 C791 C 0.64137 0.93019 0.53621
 C792 C 0.66498 0.93105 0.55572
 C793 C 0.68960 0.91770 0.54943
 C794 C 0.69130 0.90332 0.52340
 C795 C 0.61705 0.94454 0.54218
 C796 C 0.59323 0.94369 0.52289
 C797 C 0.59359 0.92804 0.49738
 C798 C 0.61815 0.91387 0.49116
 C799 C 0.56933 0.92693 0.47857
 C800 C 0.54482 0.94056 0.48537
 C801 C 0.54388 0.95537 0.51131
 C802 C 0.56888 0.95794 0.52912
 H803 H 0.66833 0.89017 0.48421
 H804 H 0.66452 0.94231 0.57576
 H805 H 0.70752 0.91877 0.56501
 H806 H 0.61662 0.95630 0.56193
 H807 H 0.61854 0.90208 0.47143
 H808 H 0.56917 0.91523 0.45877
 H809 H 0.52635 0.93889 0.47053
 H810 H 0.56912 0.97007 0.54864
 C811 C 0.18712 0.40758 0.99061
 C812 C 0.16404 0.42431 0.99586
 C813 C 0.16751 0.44603 1.01620
 C814 C 0.19375 0.45046 1.03118
 C815 C 0.21631 0.43344 1.02634
 C816 C 0.21347 0.41197 1.00583
 C817 C 0.14456 0.46258 1.02182
 C818 C 0.11778 0.45714 1.00809
 C819 C 0.11415 0.43527 0.98797
 C820 C 0.13738 0.41933 0.98158
 C821 C 0.08716 0.42932 0.97499
 C822 C 0.06376 0.44393 0.98287
 C823 C 0.06674 0.46491 1.00390
 C824 C 0.09431 0.47249 1.01509
 H825 H 0.18450 0.39121 0.97475
 H826 H 0.19668 0.46672 1.04714
 H827 H 0.23580 0.43685 1.03937
 H828 H 0.14732 0.47913 1.03753
 H829 H 0.13452 0.40257 0.96612
 H830 H 0.08398 0.41290 0.95923
 H831 H 0.04324 0.43844 0.97250
 H832 H 0.09726 0.48906 1.03071
 C833 C -0.01210 0.31747 0.43085
 C834 C -0.01893 0.34243 0.44461
 C835 C -0.03509 0.36280 0.42892
 C836 C -0.04355 0.35853 0.39999
 C837 C -0.03573 0.33466 0.38626
 C838 C -0.02070 0.31311 0.40144
 C839 C -0.04122 0.38807 0.44165
 C840 C -0.02994 0.39438 0.46935
 C841 C -0.01371 0.37437 0.48537
 C842 C -0.00890 0.34813 0.47322
 C843 C -0.00132 0.38174 0.51251
 C844 C -0.00297 0.40932 0.52235
 C845 C -0.01786 0.42985 0.50572
 C846 C -0.03273 0.42141 0.48005
 H847 H 0.00069 0.30205 0.44261
 H848 H -0.05523 0.37436 0.38746
 H849 H -0.04105 0.33373 0.36322
 H850 H -0.05335 0.40366 0.42921
 H851 H 0.00380 0.33287 0.48538
 H852 H 0.01117 0.36674 0.52528
 H853 H 0.00891 0.41491 0.54209
 H854 H -0.04452 0.43665 0.46685
 C855 C 0.49499 -0.20469 -0.05149
 C856 C 0.48637 -0.18383 -0.03307
 C857 C 0.45851 -0.17390 -0.03670
 C858 C 0.43882 -0.18713 -0.05595
 C859 C 0.44726 -0.20823 -0.07353
 C860 C 0.47604 -0.21571 -0.07341
 C861 C 0.45102 -0.15019 -0.02198
 C862 C 0.47109 -0.13618 -0.00357
 C863 C 0.49781 -0.14786 0.00280
 C864 C 0.50540 -0.17168 -0.01206
 C865 C 0.51715 -0.13423 0.02234
 C866 C 0.51148 -0.10764 0.03252
 C867 C 0.48670 -0.09385 0.02274
 C868 C 0.46576 -0.10938 0.00630
 H869 H 0.51677 -0.21137 -0.04974
 H870 H 0.41696 -0.18072 -0.05791
 H871 H 0.43087 -0.21810 -0.08734
 H872 H 0.43014 -0.14170 -0.02616
 H873 H 0.52654 -0.17971 -0.00847
 H874 H 0.53748 -0.14319 0.02818
 H875 H 0.52804 -0.09669 0.04548
 H876 H 0.44677 -0.09946 -0.00216
 C877 C -0.00309 -0.18310 1.05978
 C878 C -0.01036 -0.16148 1.03933
 C879 C -0.03829 -0.15157 1.03833
 C880 C -0.05861 -0.16393 1.05694
 C881 C -0.05127 -0.18536 1.07711
 C882 C -0.02318 -0.19473 1.07960
 C883 C -0.04541 -0.12902 1.01922
 C884 C -0.02467 -0.11551 1.00172
 C885 C 0.00298 -0.12588 1.00179
 C886 C 0.00991 -0.14913 1.02030
 C887 C 0.02348 -0.11193 0.98427
 C888 C 0.01759 -0.08623 0.96960
 C889 C -0.00875 -0.07382 0.97228
 C890 C -0.03064 -0.09043 0.98597
 H891 H 0.01832 -0.19075 1.06052
 H892 H -0.08028 -0.15693 1.05601
 H893 H -0.06811 -0.19459 1.09019
 H894 H -0.06670 -0.12108 1.01905
 H895 H 0.03133 -0.15677 1.02080
 H896 H 0.04461 -0.11997 0.98324
 H897 H 0.03445 -0.07563 0.95771
 H898 H -0.05184 -0.08256 0.98703
 C899 C 0.49342 0.31732 0.56705
 C900 C 0.48963 0.34437 0.55382
 C901 C 0.46983 0.36216 0.56520
 C902 C 0.45555 0.35359 0.59030
 C903 C 0.46027 0.32740 0.60391
 C904 C 0.47812 0.30814 0.59184
 C905 C 0.46532 0.38880 0.55209
 C906 C 0.48170 0.39894 0.52883
 C907 C 0.50236 0.38193 0.51795
 C908 C 0.50565 0.35433 0.52991
 C909 C 0.52002 0.39336 0.49610
 C910 C 0.51852 0.42185 0.48678
 C911 C 0.49847 0.43934 0.49806
 C912 C 0.47893 0.42670 0.51781
 H913 H 0.50834 0.30348 0.55822
 H914 H 0.44117 0.36749 0.59990
 H915 H 0.44995 0.32282 0.62419
 H916 H 0.44998 0.40223 0.56094
 H917 H 0.52133 0.34111 0.52141
 H918 H 0.53600 0.38071 0.48729
 H919 H 0.53357 0.43008 0.47109
 H920 H 0.46273 0.43901 0.52665
 C921 C 0.50109 1.18048 0.58502
 C922 C 0.49751 1.15483 0.57055
 C923 C 0.47368 1.15006 0.55125
 C924 C 0.45427 1.17153 0.54623
 C925 C 0.45820 1.19716 0.56056
 C926 C 0.48145 1.20174 0.58037
 C927 C 0.46952 1.12384 0.53771
 C928 C 0.48886 1.10231 0.54343
 C929 C 0.51295 1.10758 0.56222
 C930 C 0.51723 1.13375 0.57548
 C931 C 0.53213 1.08630 0.56819
 C932 C 0.52676 1.05947 0.55712
 C933 C 0.50210 1.05302 0.53949
 C934 C 0.48400 1.07526 0.53162
 H935 H 0.51929 1.18391 0.59976
 H936 H 0.43589 1.16838 0.53148
 H937 H 0.44265 1.21317 0.55673
 H938 H 0.45098 1.12000 0.52330
 H939 H 0.53559 1.13746 0.59018
 H940 H 0.55090 1.09009 0.58228
 H941 H 0.54183 1.04360 0.56345
 H942 H 0.46522 1.07125 0.51789
 C943 C 0.01604 0.68539 1.08928
 C944 C 0.01210 0.65955 1.07467
 C945 C -0.01549 0.65065 1.06392
 C946 C -0.03860 0.66747 1.06803
 C947 C -0.03445 0.69314 1.08198
 C948 C -0.00723 0.70249 1.09270
 C949 C -0.01961 0.62520 1.04905
 C950 C 0.00343 0.60810 1.04503
 C951 C 0.03098 0.61693 1.05570
 C952 C 0.03523 0.64264 1.07020
 C953 C 0.05378 0.59958 1.05211
 C954 C 0.04903 0.57290 1.04017
 C955 C 0.02135 0.56280 1.03105
 C956 C -0.00087 0.58176 1.03163
 H957 H 0.03720 0.69268 1.09695
 H958 H -0.05987 0.66106 1.05991
 H959 H -0.05253 0.70623 1.08375
 H960 H -0.04085 0.61845 1.04106
 H961 H 0.05645 0.64928 1.07831
 H962 H 0.07519 0.60612 1.05967
 H963 H 0.06717 0.55979 1.03927
 H964 H -0.02194 0.57559 1.02324
 C965 C 0.51376 0.67883 -0.07238
 C966 C 0.51938 0.65011 -0.06700
 C967 C 0.51821 0.63154 -0.09039
 C968 C 0.51159 0.64179 -0.11858
 C969 C 0.50612 0.67020 -0.12380
 C970 C 0.50729 0.68939 -0.10095
 C971 C 0.52302 0.60282 -0.08527
 C972 C 0.52848 0.59214 -0.05691
 C973 C 0.53016 0.61054 -0.03344
 C974 C 0.52591 0.63955 -0.03863
 C975 C 0.53518 0.59934 -0.00514
 C976 C 0.53668 0.57005 -0.00004
 C977 C 0.53363 0.55133 -0.02311
 C978 C 0.53085 0.56303 -0.05170
 H979 H 0.51533 0.69292 -0.05433
 H980 H 0.51017 0.62768 -0.13665
 H981 H 0.49966 0.67643 -0.14582
 H982 H 0.52170 0.58860 -0.10329
 H983 H 0.52692 0.65368 -0.02057
 H984 H 0.53693 0.61311 0.01320
 H985 H 0.53962 0.56238 0.02207
 H986 H 0.52864 0.54939 -0.07012
 C987 C 0.00300 1.19798 0.42443
 C988 C 0.00592 1.16906 0.43270
 C989 C 0.00869 1.14921 0.41092
 C990 C 0.00774 1.15798 0.38169
 C991 C 0.00411 1.18616 0.37369
 C992 C 0.00214 1.20694 0.39464
 C993 C 0.01167 1.12059 0.41840
 C994 C 0.01076 1.11094 0.44742
 C995 C 0.00756 1.13023 0.46954
 C996 C 0.00568 1.15939 0.46213
 C997 C 0.00542 1.11973 0.49844
 C998 C 0.00525 1.09043 0.50495
 C999 C 0.00806 1.07109 0.48284
 C1000 C 0.01169 1.08192 0.45423
 H1001 H 0.00150 1.21324 0.44115
 H1002 H 0.00928 1.14284 0.36479
 H1003 H 0.00228 1.19093 0.35066
 H1004 H 0.01377 1.10560 0.40143
 H1005 H 0.00326 1.17431 0.47905
 H1006 H 0.00288 1.13407 0.51584
 H1007 H 0.00218 1.08294 0.52716
 H1008 H 0.01379 1.06773 0.43663
 C1009 C 0.79156 0.67130 0.93844
 C1010 C 0.78882 0.68953 0.91385
 C1011 C 0.77003 0.71191 0.91396
 C1012 C 0.75522 0.71639 0.93905
 C1013 C 0.75793 0.69804 0.96339
 C1014 C 0.77599 0.67515 0.96348
 C1015 C 0.76502 0.72834 0.88845
 C1016 C 0.77782 0.72199 0.86263
 C1017 C 0.79763 0.70049 0.86282
 C1018 C 0.80335 0.68465 0.88857
 C1019 C 0.81008 0.69411 0.83685
 C1020 C 0.80103 0.70706 0.81052
 C1021 C 0.77945 0.72672 0.80969
 C1022 C 0.76938 0.73534 0.83623
 H1023 H 0.80449 0.65323 0.93695
 H1024 H 0.74060 0.73337 0.93945
 H1025 H 0.74496 0.70112 0.98182
 H1026 H 0.74987 0.74493 0.88829
 H1027 H 0.81791 0.66756 0.88852
 H1028 H 0.82558 0.67792 0.83663
 H1029 H 0.80963 0.70012 0.79070
 H1030 H 0.75317 0.75081 0.83643
 C1031 C 0.28079 0.15647 0.42670
 C1032 C 0.28637 0.17188 0.40086
 C1033 C 0.28951 0.20171 0.40109
 C1034 C 0.28816 0.21544 0.42743
 C1035 C 0.28209 0.19990 0.45310
 C1036 C 0.27761 0.17024 0.45290
 C1037 C 0.29223 0.21737 0.37479
 C1038 C 0.29023 0.20355 0.34828
 C1039 C 0.28816 0.17369 0.34815
 C1040 C 0.28705 0.15797 0.37453
 C1041 C 0.28512 0.16014 0.32159
 C1042 C 0.28091 0.17598 0.29566
 C1043 C 0.28046 0.20567 0.29567
 C1044 C 0.28754 0.21923 0.32201
 H1045 H 0.27744 0.13363 0.42622
 H1046 H 0.29069 0.23831 0.42798
 H1047 H 0.28019 0.21150 0.47258
 H1048 H 0.29379 0.24033 0.37485
 H1049 H 0.28467 0.13504 0.37443
 H1050 H 0.28397 0.13723 0.32105
 H1051 H 0.27653 0.16457 0.27619
 H1052 H 0.28797 0.24211 0.32278
 C1053 C 0.71831 0.30944 0.42311
 C1054 C 0.72411 0.29453 0.39838
 C1055 C 0.75168 0.28450 0.39552
 C1056 C 0.77174 0.28631 0.41874
 C1057 C 0.76571 0.30080 0.44334
 C1058 C 0.73991 0.31460 0.44481
 C1059 C 0.75931 0.27434 0.36895
 C1060 C 0.73962 0.27390 0.34528
 C1061 C 0.71108 0.28060 0.34902
 C1062 C 0.70344 0.29107 0.37562
 C1063 C 0.69110 0.27767 0.32567
 C1064 C 0.69994 0.27050 0.29832
 C1065 C 0.72912 0.26820 0.29341
 C1066 C 0.74848 0.26819 0.31761
 H1067 H 0.69761 0.31816 0.42415
 H1068 H 0.79266 0.27788 0.41725
 H1069 H 0.78229 0.30336 0.46025
 H1070 H 0.78098 0.26816 0.36626
 H1071 H 0.68194 0.29780 0.37807
 H1072 H 0.66882 0.28156 0.32837
 H1073 H 0.68406 0.26845 0.28078
 H1074 H 0.77087 0.26477 0.31493
 C1075 C 0.21110 0.82645 0.90813
 C1076 C 0.21654 0.81138 0.88351
 C1077 C 0.23720 0.79062 0.88535
 C1078 C 0.25109 0.78438 0.91214
 C1079 C 0.24599 0.79988 0.93644
 C1080 C 0.22613 0.82135 0.93479
 C1081 C 0.24505 0.77787 0.86005
 C1082 C 0.23318 0.78642 0.83284
 C1083 C 0.21162 0.80628 0.83123
 C1084 C 0.20309 0.81829 0.85661
 C1085 C 0.20010 0.81508 0.80408
 C1086 C 0.21112 0.80579 0.77866
 C1087 C 0.23374 0.78725 0.77979
 C1088 C 0.24383 0.77679 0.80716
 H1089 H 0.19680 0.84370 0.90573
 H1090 H 0.26714 0.76865 0.91392
 H1091 H 0.25895 0.79609 0.95606
 H1092 H 0.26155 0.76258 0.86134
 H1093 H 0.18716 0.83417 0.85520
 H1094 H 0.18356 0.83029 0.80244
 H1095 H 0.20306 0.81488 0.75829
 H1096 H 0.26116 0.76246 0.80869
 C1097 C 0.25321 0.82235 0.04988
 C1098 C 0.25885 0.81695 0.07988
 C1099 C 0.25164 0.83714 0.09981
 C1100 C 0.23921 0.86205 0.08990
 C1101 C 0.23349 0.86715 0.06040
 C1102 C 0.24043 0.84765 0.03966
 C1103 C 0.25603 0.83190 0.12959
 C1104 C 0.26680 0.80633 0.14008
 C1105 C 0.27475 0.78605 0.12077
 C1106 C 0.27106 0.79163 0.09049
 C1107 C 0.28491 0.76024 0.13234
 C1108 C 0.28539 0.75415 0.16263
 C1109 C 0.27619 0.77397 0.18182
 C1110 C 0.26774 0.80030 0.16987
 H1111 H 0.25940 0.80705 0.03474
 H1112 H 0.23322 0.87743 0.10512
 H1113 H 0.22236 0.88606 0.05452
 H1114 H 0.24999 0.84738 0.14474
 H1115 H 0.27670 0.77599 0.07538
 H1116 H 0.29119 0.74428 0.11795
 H1117 H 0.29144 0.73346 0.17081
 H1118 H 0.25936 0.81575 0.18351
 C1119 C 0.75516 0.31513 0.56094
 C1120 C 0.75988 0.31029 0.59112
 C1121 C 0.75590 0.33235 0.61014
 C1122 C 0.74749 0.35855 0.59916
 C1123 C 0.74259 0.36314 0.56952
 C1124 C 0.74636 0.34174 0.54955
 C1125 C 0.75931 0.32780 0.64011
 C1126 C 0.76561 0.30107 0.65167
 C1127 C 0.77038 0.27886 0.63320
 C1128 C 0.76795 0.28372 0.60280
 C1129 C 0.77591 0.25197 0.64565
 C1130 C 0.77445 0.24686 0.67587
 C1131 C 0.76802 0.26872 0.69412
 C1132 C 0.76487 0.29600 0.68158
 H1133 H 0.75892 0.29819 0.54668
 H1134 H 0.74405 0.37549 0.61365
 H1135 H 0.73493 0.38360 0.56320
 H1136 H 0.75567 0.34477 0.65454
 H1137 H 0.77111 0.26663 0.58840
 H1138 H 0.77975 0.23456 0.63194
 H1139 H 0.77662 0.22549 0.68466
 H1140 H 0.75905 0.31313 0.69472
 C1141 C 0.23488 0.18273 0.56268
 C1142 C 0.22728 0.19052 0.59041
 C1143 C 0.23150 0.17157 0.61455
 C1144 C 0.24307 0.14534 0.61071
 C1145 C 0.25097 0.13800 0.58325
 C1146 C 0.24707 0.15652 0.55901
 C1147 C 0.22525 0.17955 0.64242
 C1148 C 0.21639 0.20682 0.64681
 C1149 C 0.21165 0.22577 0.62288
 C1150 C 0.21641 0.21721 0.59460
 C1151 C 0.20420 0.25351 0.62797
 C1152 C 0.20464 0.26317 0.65646
 C1153 C 0.21164 0.24495 0.68031
 C1154 C 0.21512 0.21618 0.67508
 H1155 H 0.23129 0.19701 0.54406
 H1156 H 0.24659 0.13073 0.62907
 H1157 H 0.26061 0.11791 0.58112
 H1158 H 0.22904 0.16514 0.66095
 H1159 H 0.21324 0.23184 0.57616
 H1160 H 0.20022 0.26834 0.60991
 H1161 H 0.20173 0.28539 0.65957
 H1162 H 0.22063 0.20155 0.69285
 C1163 C 0.75180 0.67026 0.08191
 C1164 C 0.75217 0.67611 0.11168
 C1165 C 0.77246 0.66327 0.13086
 C1166 C 0.79098 0.64402 0.12050
 C1167 C 0.78997 0.63787 0.09116
 C1168 C 0.77091 0.65128 0.07163
 C1169 C 0.77440 0.67020 0.16007
 C1170 C 0.75628 0.68967 0.17060
 C1171 C 0.73491 0.70151 0.15225
 C1172 C 0.73299 0.69471 0.12266
 C1173 C 0.71668 0.72062 0.16377
 C1174 C 0.72066 0.72887 0.19276
 C1175 C 0.74295 0.71820 0.21067
 C1176 C 0.76032 0.69829 0.19910
 H1177 H 0.73668 0.68019 0.06682
 H1178 H 0.80641 0.63388 0.13506
 H1179 H 0.80457 0.62304 0.08355
 H1180 H 0.79052 0.66088 0.17451
 H1181 H 0.71711 0.70427 0.10816
 H1182 H 0.70000 0.72988 0.15011
 H1183 H 0.70725 0.74466 0.20065
 H1184 H 0.77826 0.69011 0.21170
 C1185 C 0.17534 0.56906 0.27403
 C1186 C 0.19314 0.59315 0.27022
 C1187 C 0.21936 0.59191 0.25652
 C1188 C 0.22771 0.56537 0.24810
 C1189 C 0.21012 0.54076 0.25330
 C1190 C 0.18378 0.54237 0.26684
 C1191 C 0.23595 0.61731 0.25101
 C1192 C 0.22637 0.64348 0.25963
 C1193 C 0.20069 0.64337 0.27481
 C1194 C 0.18437 0.61856 0.27977
 C1195 C 0.19054 0.66829 0.28393
 C1196 C 0.20456 0.69358 0.27686
 C1197 C 0.22971 0.69543 0.26107
 C1198 C 0.24106 0.66983 0.25292
 H1199 H 0.15433 0.57144 0.28227
 H1200 H 0.24762 0.56366 0.23732
 H1201 H 0.21682 0.52081 0.24595
 H1202 H 0.25573 0.61675 0.23972
 H1203 H 0.16435 0.61913 0.29076
 H1204 H 0.17069 0.66845 0.29522
 H1205 H 0.19337 0.71183 0.28136
 H1206 H 0.26035 0.67042 0.24071
 C1207 C 0.64989 0.07023 0.75953
 C1208 C 0.66675 0.09542 0.75804
 C1209 C 0.69466 0.09552 0.74766
 C1210 C 0.70511 0.07013 0.73883
 C1211 C 0.68835 0.04483 0.74101
 C1212 C 0.66064 0.04445 0.75197
 C1213 C 0.71158 0.12094 0.74642
 C1214 C 0.70085 0.14612 0.75576
 C1215 C 0.67297 0.14558 0.76640
 C1216 C 0.65610 0.12040 0.76733
 C1217 C 0.66211 0.17032 0.77576
 C1218 C 0.67837 0.19558 0.77414
 C1219 C 0.70600 0.19715 0.76327
 C1220 C 0.71727 0.17189 0.75439
 H1221 H 0.62845 0.07047 0.76746
 H1222 H 0.72637 0.06975 0.73053
 H1223 H 0.69754 0.02597 0.73398
 H1224 H 0.73296 0.12110 0.73829
 H1225 H 0.63468 0.12024 0.77543
 H1226 H 0.64070 0.17032 0.78380
 H1227 H 0.66820 0.21405 0.78007
 H1228 H 0.73851 0.17222 0.74597
 C1229 C 0.82526 0.07558 0.22517
 C1230 C 0.81849 0.10431 0.22282
 C1231 C 0.84069 0.12573 0.22353
 C1232 C 0.86904 0.11838 0.22715
 C1233 C 0.87555 0.09008 0.22984
 C1234 C 0.85400 0.06817 0.22863
 C1235 C 0.83432 0.15428 0.22098
 C1236 C 0.80593 0.16196 0.21882
 C1237 C 0.78357 0.14083 0.21848
 C1238 C 0.78996 0.11207 0.21998
 C1239 C 0.75524 0.14894 0.21729
 C1240 C 0.74929 0.17758 0.21810
 C1241 C 0.77154 0.19882 0.21953
 C1242 C 0.79972 0.19059 0.21823
 H1243 H 0.80813 0.05948 0.22411
 H1244 H 0.88627 0.13453 0.22790
 H1245 H 0.89783 0.08514 0.23236
 H1246 H 0.85147 0.17057 0.22156
 H1247 H 0.77278 0.09582 0.21962
 H1248 H 0.73770 0.13314 0.21676
 H1249 H 0.72715 0.18294 0.21832
 H1250 H 0.81715 0.20613 0.21757
 C1251 C 0.33258 0.58731 0.73390
 C1252 C 0.32561 0.61562 0.72827
 C1253 C 0.34771 0.63683 0.72491
 C1254 C 0.37622 0.62977 0.72824
 C1255 C 0.38295 0.60180 0.73414
 C1256 C 0.36142 0.58002 0.73643
 C1257 C 0.34105 0.66489 0.71850
 C1258 C 0.31257 0.67237 0.71663
 C1259 C 0.29034 0.65158 0.72076
 C1260 C 0.29694 0.62313 0.72596
 C1261 C 0.26203 0.65986 0.72035
 C1262 C 0.25617 0.68864 0.71783
 C1263 C 0.27844 0.70960 0.71478
 C1264 C 0.30626 0.70075 0.71224
 H1265 H 0.31540 0.57140 0.73582
 H1266 H 0.39337 0.64586 0.72605
 H1267 H 0.40527 0.59690 0.73604
 H1268 H 0.35810 0.68107 0.71586
 H1269 H 0.27989 0.60703 0.72888
 H1270 H 0.24457 0.64426 0.72327
 H1271 H 0.23425 0.69440 0.71921
 H1272 H 0.32365 0.71584 0.70857
 C1273 C 0.34728 0.44792 0.73114
 C1274 C 0.32900 0.42343 0.73280
 C1275 C 0.30380 0.42367 0.74864
 C1276 C 0.29745 0.44811 0.76278
 C1277 C 0.31567 0.47228 0.76102
 C1278 C 0.34059 0.47259 0.74497
 C1279 C 0.28534 0.39947 0.75023
 C1280 C 0.29186 0.37482 0.73651
 C1281 C 0.31710 0.37436 0.72084
 C1282 C 0.33543 0.39875 0.71886
 C1283 C 0.32368 0.34940 0.70766
 C1284 C 0.30598 0.32487 0.71086
 C1285 C 0.28132 0.32478 0.72730
 C1286 C 0.27382 0.35036 0.73895
 H1287 H 0.36630 0.44793 0.71858
 H1288 H 0.27836 0.44856 0.77522
 H1289 H 0.31030 0.49075 0.77243
 H1290 H 0.26606 0.39973 0.76245
 H1291 H 0.35477 0.39844 0.70677
 H1292 H 0.34278 0.34869 0.69530
 H1293 H 0.31189 0.30591 0.70067
 H1294 H 0.25472 0.35101 0.75132
 C1295 C 0.85105 0.93614 0.24161
 C1296 C 0.83565 0.90999 0.24113
 C1297 C 0.80915 0.90723 0.22557
 C1298 C 0.79794 0.93147 0.21179
 C1299 C 0.81288 0.95792 0.21346
 C1300 C 0.84002 0.96051 0.22782
 C1301 C 0.79422 0.88048 0.22476
 C1302 C 0.80484 0.85700 0.24083
 C1303 C 0.83060 0.86085 0.25763
 C1304 C 0.84616 0.88680 0.25696
 C1305 C 0.83995 0.83909 0.27613
 C1306 C 0.82418 0.81366 0.27810
 C1307 C 0.79993 0.80776 0.26003
 C1308 C 0.79000 0.83005 0.24145
 H1309 H 0.87098 0.93760 0.25432
 H1310 H 0.77750 0.93005 0.19997
 H1311 H 0.80363 0.97604 0.20234
 H1312 H 0.77409 0.87819 0.21245
 H1313 H 0.86610 0.88920 0.26964
 H1314 H 0.85885 0.84217 0.29024
 H1315 H 0.83059 0.79923 0.29510
 H1316 H 0.77051 0.82679 0.22830
 C1317 C 0.67267 0.92852 0.75269
 C1318 C 0.67929 0.90028 0.74955
 C1319 C 0.65705 0.87902 0.74835
 C1320 C 0.62863 0.88645 0.74814
 C1321 C 0.62218 0.91469 0.74994
 C1322 C 0.64400 0.93604 0.75326
 C1323 C 0.66352 0.85061 0.74746
 C1324 C 0.69195 0.84324 0.74668
 C1325 C 0.71416 0.86445 0.74575
 C1326 C 0.70778 0.89292 0.74775
 C1327 C 0.74232 0.85665 0.74321
 C1328 C 0.74833 0.82805 0.74232
 C1329 C 0.72643 0.80659 0.74487
 C1330 C 0.69833 0.81479 0.74709
 H1331 H 0.69002 0.94427 0.75522
 H1332 H 0.61134 0.87044 0.74638
 H1333 H 0.59990 0.91939 0.74852
 H1334 H 0.64643 0.83425 0.74740
 H1335 H 0.72487 0.90926 0.74793
 H1336 H 0.75968 0.87261 0.74205
 H1337 H 0.77036 0.82282 0.74044
 H1338 H 0.68097 0.79946 0.74953
 C1339 C 0.18381 0.42493 0.28557
 C1340 C 0.18944 0.39658 0.28136
 C1341 C 0.16931 0.37938 0.26541
 C1342 C 0.14402 0.39055 0.25412
 C1343 C 0.13888 0.41879 0.25788
 C1344 C 0.15864 0.43625 0.27356
 C1345 C 0.17514 0.35154 0.26000
 C1346 C 0.20123 0.34083 0.26945
 C1347 C 0.22138 0.35758 0.28566
 C1348 C 0.21517 0.38536 0.29196
 C1349 C 0.24775 0.34654 0.29421
 C1350 C 0.25439 0.31962 0.28569
 C1351 C 0.23467 0.30322 0.26869
 C1352 C 0.20786 0.31398 0.26146
 H1353 H 0.19912 0.43822 0.29777
 H1354 H 0.12857 0.37766 0.24163
 H1355 H 0.11976 0.42707 0.24759
 H1356 H 0.15979 0.33853 0.24747
 H1357 H 0.23070 0.39848 0.30412
 H1358 H 0.26350 0.35900 0.30675
 H1359 H 0.27522 0.31203 0.29190
 H1360 H 0.19268 0.30256 0.24744
 C1361 C 0.05792 0.27451 0.81174
 C1362 C 0.08513 0.28005 0.79964
 C1363 C 0.10843 0.28918 0.81808
 C1364 C 0.10474 0.29277 0.84753
 C1365 C 0.07844 0.28658 0.85931
 C1366 C 0.05445 0.27765 0.84196
 C1367 C 0.13570 0.29331 0.80741
 C1368 C 0.14078 0.28734 0.77873
 C1369 C 0.11810 0.27914 0.75944
 C1370 C 0.09006 0.27581 0.76994
 C1371 C 0.12440 0.27383 0.73046
 C1372 C 0.15304 0.27425 0.72185
 C1373 C 0.17575 0.27882 0.74237
 C1374 C 0.16884 0.28783 0.76998
 H1375 H 0.04015 0.26683 0.79801
 H1376 H 0.12257 0.29943 0.86184
 H1377 H 0.07701 0.28826 0.88261
 H1378 H 0.15341 0.29974 0.82203
 H1379 H 0.07248 0.26897 0.75543
 H1380 H 0.10735 0.26842 0.71478
 H1381 H 0.15734 0.26932 0.69972
 H1382 H 0.18547 0.29376 0.78592
 C1383 C 0.57606 0.75052 0.32330
 C1384 C 0.60177 0.75535 0.30845
 C1385 C 0.61565 0.78260 0.30820
 C1386 C 0.60240 0.80505 0.32006
 C1387 C 0.57658 0.80032 0.33381
 C1388 C 0.56402 0.77274 0.33760
 C1389 C 0.64275 0.78698 0.29653
 C1390 C 0.65610 0.76456 0.28451
 C1391 C 0.64123 0.73798 0.28214
 C1392 C 0.61423 0.73340 0.29436
 C1393 C 0.65412 0.71628 0.26835
 C1394 C 0.68234 0.72006 0.25950
 C1395 C 0.69868 0.74514 0.26542
 C1396 C 0.68460 0.76798 0.27617
 H1397 H 0.56582 0.72949 0.32401
 H1398 H 0.61218 0.82631 0.31901
 H1399 H 0.56688 0.81841 0.34227
 H1400 H 0.65380 0.80766 0.29757
 H1401 H 0.60334 0.71264 0.29363
 H1402 H 0.64276 0.69602 0.26530
 H1403 H 0.69175 0.70263 0.24955
 H1404 H 0.69620 0.78798 0.27990
 C1405 C 0.56504 0.25257 0.15838
 C1406 C 0.58976 0.25143 0.17650
 C1407 C 0.59813 0.22522 0.18888
 C1408 C 0.58108 0.20065 0.18338
 C1409 C 0.55685 0.20187 0.16464
 C1410 C 0.54918 0.22764 0.15076
 C1411 C 0.62370 0.22398 0.20589
 C1412 C 0.64169 0.24846 0.20930
 C1413 C 0.63307 0.27458 0.19682
 C1414 C 0.60682 0.27607 0.18136
 C1415 C 0.65170 0.29851 0.19808
 C1416 C 0.67934 0.29628 0.20976
 C1417 C 0.68853 0.27065 0.22275
 C1418 C 0.66897 0.24690 0.22312
 H1419 H 0.55855 0.27306 0.15019
 H1420 H 0.58677 0.18038 0.19311
 H1421 H 0.54419 0.18249 0.16090
 H1422 H 0.63027 0.20380 0.21515
 H1423 H 0.60051 0.29616 0.17160
 H1424 H 0.64567 0.31853 0.18800
 H1425 H 0.69394 0.31442 0.20667
 H1426 H 0.67571 0.22663 0.23192
 C1427 C 0.07095 0.77994 0.66046
 C1428 C 0.09681 0.77923 0.67689
 C1429 C 0.10112 0.75731 0.69809
 C1430 C 0.07894 0.73694 0.70314
 C1431 C 0.05325 0.73770 0.68659
 C1432 C 0.04886 0.75906 0.66485
 C1433 C 0.12790 0.75547 0.71290
 C1434 C 0.15059 0.77492 0.70612
 C1435 C 0.14573 0.79723 0.68545
 C1436 C 0.11890 0.79948 0.67134
 C1437 C 0.16820 0.81616 0.67790
 C1438 C 0.19565 0.81219 0.68926
 C1439 C 0.20146 0.78989 0.70945
 C1440 C 0.17837 0.77166 0.71839
 H1441 H 0.06904 0.79603 0.64331
 H1442 H 0.08177 0.71988 0.71923
 H1443 H 0.03704 0.72093 0.69013
 H1444 H 0.13140 0.73827 0.72871
 H1445 H 0.11558 0.81634 0.65507
 H1446 H 0.16488 0.83321 0.66188
 H1447 H 0.21244 0.82576 0.68050
 H1448 H 0.18219 0.75409 0.73361
 C1449 C 0.93279 0.74731 0.68006
 C1450 C 0.90477 0.74109 0.68921
 C1451 C 0.88451 0.72733 0.67030
 C1452 C 0.89287 0.71900 0.64317
 C1453 C 0.92082 0.72477 0.63446
 C1454 C 0.94106 0.73952 0.65240
 C1455 C 0.85615 0.72240 0.67864
 C1456 C 0.84774 0.73089 0.70579
 C1457 C 0.86820 0.74362 0.72519
 C1458 C 0.89656 0.74872 0.71678
 C1459 C 0.85973 0.75184 0.75235
 C1460 C 0.83112 0.74849 0.75980
 C1461 C 0.81021 0.73653 0.74046
 C1462 C 0.81898 0.72770 0.71339
 H1463 H 0.94783 0.75877 0.69429
 H1464 H 0.87774 0.70799 0.62860
 H1465 H 0.92646 0.71735 0.61363
 H1466 H 0.84054 0.71235 0.66382
 H1467 H 0.91210 0.75903 0.73149
 H1468 H 0.87511 0.76167 0.76753
 H1469 H 0.82526 0.75639 0.78038
 H1470 H 0.80334 0.71952 0.69750
 C1471 C 0.43430 0.22603 0.16710
 C1472 C 0.40721 0.23155 0.17720
 C1473 C 0.38787 0.24649 0.15878
 C1474 C 0.39572 0.25557 0.13080
 C1475 C 0.42252 0.25005 0.12098
 C1476 C 0.44224 0.23531 0.13886
 C1477 C 0.36089 0.25212 0.16848
 C1478 C 0.35271 0.24282 0.19634
 C1479 C 0.37183 0.22791 0.21495
 C1480 C 0.39906 0.22241 0.20531
 C1481 C 0.36318 0.21859 0.24272
 C1482 C 0.33559 0.22320 0.25158
 C1483 C 0.31599 0.23720 0.23283
 C1484 C 0.32532 0.24769 0.20550
 H1485 H 0.44900 0.21434 0.18112
 H1486 H 0.38115 0.26714 0.11648
 H1487 H 0.42788 0.25808 0.09948
 H1488 H 0.34611 0.26352 0.15419
 H1489 H 0.41377 0.21090 0.21955
 H1490 H 0.37759 0.20726 0.25743
 H1491 H 0.32966 0.21516 0.27284
 H1492 H 0.31091 0.25885 0.19065
 C1493 C 0.44751 0.76653 0.31522
 C1494 C 0.41943 0.77100 0.30424
 C1495 C 0.40067 0.78518 0.32132
 C1496 C 0.40988 0.79418 0.34892
 C1497 C 0.43734 0.78903 0.35984
 C1498 C 0.45659 0.77538 0.34329
 C1499 C 0.37270 0.78958 0.31098
 C1500 C 0.36257 0.77892 0.28429
 C1501 C 0.38089 0.76447 0.26711
 C1502 C 0.40948 0.76105 0.27692
 C1503 C 0.36988 0.75291 0.24098
 C1504 C 0.34069 0.75415 0.23301
 C1505 C 0.32207 0.76762 0.25061
 C1506 C 0.33381 0.78117 0.27550
 H1507 H 0.46197 0.75559 0.30230
 H1508 H 0.39567 0.80494 0.36230
 H1509 H 0.44357 0.79616 0.38123
 H1510 H 0.35842 0.80040 0.32429
 H1511 H 0.42363 0.74991 0.26381
 H1512 H 0.38357 0.74180 0.22737
 H1513 H 0.33249 0.74358 0.21372
 H1514 H 0.32031 0.79217 0.28937
 C1515 C 0.93759 0.25386 0.82267
 C1516 C 0.90823 0.25467 0.81422
 C1517 C 0.88837 0.26014 0.83535
 C1518 C 0.89758 0.26450 0.86403
 C1519 C 0.92625 0.26341 0.87226
 C1520 C 0.94702 0.25789 0.85207
 C1521 C 0.85939 0.26134 0.82772
 C1522 C 0.84945 0.25686 0.79919
 C1523 C 0.86859 0.25099 0.77768
 C1524 C 0.89811 0.25004 0.78528
 C1525 C 0.85758 0.24607 0.74925
 C1526 C 0.82803 0.24711 0.74247
 C1527 C 0.80899 0.25358 0.76386
 C1528 C 0.82033 0.25812 0.79225
 H1529 H 0.95274 0.24936 0.80654
 H1530 H 0.88253 0.26910 0.88027
 H1531 H 0.93172 0.26848 0.89451
 H1532 H 0.84443 0.26571 0.84418
 H1533 H 0.91303 0.24563 0.76885
 H1534 H 0.87178 0.24132 0.73230
 H1535 H 0.82016 0.24309 0.72052
 H1536 H 0.80658 0.26250 0.80967
 C1537 C 0.57793 0.96601 0.70044
 C1538 C 0.55659 0.95970 0.67913
 C1539 C 0.52996 0.97235 0.67997
 C1540 C 0.52497 0.99057 0.70240
 C1541 C 0.54670 0.99741 0.72296
 C1542 C 0.57329 0.98552 0.72174
 C1543 C 0.50950 0.96817 0.65735
 C1544 C 0.51628 0.95356 0.63280
 C1545 C 0.54251 0.94034 0.63221
 C1546 C 0.56212 0.94254 0.65596
 C1547 C 0.54957 0.92721 0.60685
 C1548 C 0.53305 0.93113 0.58112
 C1549 C 0.50903 0.94776 0.58052
 C1550 C 0.49877 0.95516 0.60752
 H1551 H 0.59863 0.95692 0.69967
 H1552 H 0.50469 1.00042 0.70332
 H1553 H 0.54295 1.01227 0.73956
 H1554 H 0.48941 0.97853 0.65760
 H1555 H 0.58259 0.93296 0.65525
 H1556 H 0.56918 0.91615 0.60618
 H1557 H 0.54058 0.92282 0.56165
 H1558 H 0.47917 0.96621 0.60830
 C1559 C 0.10650 0.47487 1.19994
 C1560 C 0.08641 0.46969 1.17713
 C1561 C 0.05808 0.47810 1.17938
 C1562 C 0.05004 0.49030 1.20494
 C1563 C 0.07020 0.49527 1.22758
 C1564 C 0.09855 0.48824 1.22479
 C1565 C 0.03865 0.47535 1.15559
 C1566 C 0.04751 0.46529 1.12930
 C1567 C 0.07532 0.45560 1.12755
 C1568 C 0.09448 0.45736 1.15168
 C1569 C 0.08398 0.44580 1.10115
 C1570 C 0.06663 0.44890 1.07596
 C1571 C 0.04025 0.46169 1.07661
 C1572 C 0.02981 0.46714 1.10411
 H1573 H 0.12842 0.46908 1.19819
 H1574 H 0.02838 0.49664 1.20712
 H1575 H 0.06390 0.50525 1.24695
 H1576 H 0.01722 0.48266 1.15697
 H1577 H 0.11611 0.45064 1.15007
 H1578 H 0.10484 0.43726 1.09959
 H1579 H 0.07439 0.44175 1.05604
 H1580 H 0.00902 0.47584 1.10566
 C1581 C -0.07538 0.02149 1.16033
 C1582 C -0.06553 0.01455 1.13328
 C1583 C -0.06692 -0.01405 1.12538
 C1584 C -0.07793 -0.03514 1.14470
 C1585 C -0.08895 -0.02786 1.17102
 C1586 C -0.08842 0.00057 1.17888
 C1587 C -0.05820 -0.02101 1.09793
 C1588 C -0.04912 0.00036 1.07788
 C1589 C -0.04781 0.02898 1.08556
 C1590 C -0.05555 0.03589 1.11350
 C1591 C -0.03924 0.05012 1.06497
 C1592 C -0.03251 0.04298 1.03684
 C1593 C -0.03412 0.01456 1.02885
 C1594 C -0.04195 -0.00659 1.04997
 H1595 H -0.07390 0.04345 1.16633
 H1596 H -0.07917 -0.05716 1.13889
 H1597 H -0.09904 -0.04446 1.18444
 H1598 H -0.05935 -0.04298 1.09182
 H1599 H -0.05471 0.05788 1.11948
 H1600 H -0.03803 0.07221 1.07052
 H1601 H -0.02607 0.05974 1.02150
 H1602 H -0.04299 -0.02876 1.04476
 C1603 C 0.43889 0.53127 0.68014
 C1604 C 0.45653 0.52482 0.65774
 C1605 C 0.45788 0.49634 0.64995
 C1606 C 0.44228 0.47485 0.66515
 C1607 C 0.42405 0.48162 0.68681
 C1608 C 0.42151 0.50992 0.69391
 C1609 C 0.47344 0.48995 0.62602
 C1610 C 0.48607 0.51181 0.60873
 C1611 C 0.48567 0.54020 0.61683
 C1612 C 0.47152 0.54651 0.64193
 C1613 C 0.49798 0.56173 0.59866
 C1614 C 0.50742 0.55538 0.57117
 C1615 C 0.50436 0.52754 0.56156
 C1616 C 0.49662 0.50570 0.58198
 H1617 H 0.43807 0.55312 0.68615
 H1618 H 0.44322 0.45292 0.65942
 H1619 H 0.41118 0.46479 0.69713
 H1620 H 0.47384 0.46816 0.61957
 H1621 H 0.47050 0.56837 0.64795
 H1622 H 0.49863 0.58361 0.60488
 H1623 H 0.51515 0.57248 0.55684
 H1624 H 0.49598 0.48370 0.57615
 C1625 C 0.42330 0.48698 -0.19317
 C1626 C 0.44518 0.48180 -0.17204
 C1627 C 0.46984 0.50035 -0.17093
 C1628 C 0.47246 0.52336 -0.19089
 C1629 C 0.45030 0.52885 -0.21100
 C1630 C 0.42549 0.51106 -0.21201
 C1631 C 0.49084 0.49670 -0.14891
 C1632 C 0.48675 0.47598 -0.12673
 C1633 C 0.46265 0.45690 -0.12787
 C1634 C 0.44229 0.45942 -0.15107
 C1635 C 0.45852 0.43701 -0.10472
 C1636 C 0.47609 0.43845 -0.07932
 C1637 C 0.49820 0.45959 -0.07691
 C1638 C 0.50499 0.47621 -0.10200
 H1639 H 0.40410 0.47323 -0.19407
 H1640 H 0.49124 0.53768 -0.19028
 H1641 H 0.45242 0.54718 -0.22577
 H1642 H 0.50935 0.51141 -0.14780
 H1643 H 0.42341 0.44521 -0.15172
 H1644 H 0.44039 0.42187 -0.10528
 H1645 H 0.47055 0.42487 -0.06072
 H1646 H 0.52255 0.49196 -0.10140
 C1647 C -0.09001 0.98153 0.30460
 C1648 C -0.07096 0.98026 0.32913
 C1649 C -0.04492 0.99677 0.32888
 C1650 C -0.03762 1.01291 0.30384
 C1651 C -0.05672 1.01430 0.27988
 C1652 C -0.08326 0.99932 0.28033
 C1653 C -0.02726 0.99823 0.35413
 C1654 C -0.03547 0.98394 0.37995
 C1655 C -0.06046 0.96604 0.38000
 C1656 C -0.07804 0.96412 0.35447
 C1657 C -0.06794 0.95140 0.40598
 C1658 C -0.05222 0.95642 0.43206
 C1659 C -0.02918 0.97668 0.43281
 C1660 C -0.01992 0.98883 0.40610
 H1661 H -0.11068 0.97020 0.30504
 H1662 H -0.01769 1.02551 0.30329
 H1663 H -0.05139 1.02819 0.26141
 H1664 H -0.00785 1.01173 0.35409
 H1665 H -0.09777 0.95115 0.35472
 H1666 H -0.08665 0.93701 0.40641
 H1667 H -0.05932 0.94577 0.45191
 H1668 H -0.00160 1.00369 0.40558
 C1669 C 0.10468 0.51406 0.34795
 C1670 C 0.08296 0.51509 0.36792
 C1671 C 0.05680 0.49956 0.36300
 C1672 C 0.05230 0.48443 0.33756
 C1673 C 0.07361 0.48432 0.31730
 C1674 C 0.10035 0.49862 0.32235
 C1675 C 0.03573 0.49905 0.38375
 C1676 C 0.04047 0.51397 0.40938
 C1677 C 0.06592 0.53080 0.41358
 C1678 C 0.08708 0.53123 0.39286
 C1679 C 0.07011 0.54619 0.43891
 C1680 C 0.05050 0.54290 0.46096
 C1681 C 0.02658 0.52383 0.45851
 C1682 C 0.02083 0.51099 0.43157
 H1683 H 0.12496 0.52510 0.35281
 H1684 H 0.03215 0.47283 0.33320
 H1685 H 0.06859 0.47327 0.29751
 H1686 H 0.01600 0.48642 0.38033
 H1687 H 0.10694 0.54359 0.39645
 H1688 H 0.08911 0.55987 0.44221
 H1689 H 0.05491 0.55451 0.48040
 H1690 H 0.00217 0.49686 0.42838
 C1691 C 0.58291 0.00459 -0.16618
 C1692 C 0.56973 -0.00288 -0.13992
 C1693 C 0.57483 -0.02942 -0.12592
 C1694 C 0.59231 -0.04825 -0.13865
 C1695 C 0.60461 -0.04097 -0.16514
 C1696 C 0.60022 -0.01452 -0.17885
 C1697 C 0.56221 -0.03687 -0.09952
 C1698 C 0.54407 -0.01846 -0.08715
 C1699 C 0.53814 0.00766 -0.10140
 C1700 C 0.55126 0.01546 -0.12764
 C1701 C 0.51904 0.02531 -0.08917
 C1702 C 0.50660 0.01745 -0.06269
 C1703 C 0.51374 -0.00773 -0.04750
 C1704 C 0.53183 -0.02595 -0.06061
 H1705 H 0.57919 0.02484 -0.17716
 H1706 H 0.59622 -0.06872 -0.12827
 H1707 H 0.61778 -0.05591 -0.17490
 H1708 H 0.56643 -0.05708 -0.08865
 H1709 H 0.54698 0.03563 -0.13854
 H1710 H 0.51372 0.04517 -0.10006
 H1711 H 0.49168 0.03131 -0.05399
 H1712 H 0.53676 -0.04612 -0.05023
 C1713 C 0.70857 0.57549 -0.00519
 C1714 C 0.68135 0.56224 -0.00210
 C1715 C 0.66287 0.57229 0.01835
 C1716 C 0.67237 0.59442 0.03628
 C1717 C 0.69963 0.60712 0.03339
 C1718 C 0.71752 0.59811 0.01232
 C1719 C 0.63504 0.56046 0.02020
 C1720 C 0.62553 0.53840 0.00223
 C1721 C 0.64430 0.52735 -0.01717
 C1722 C 0.67209 0.53948 -0.01940
 C1723 C 0.63471 0.50469 -0.03436
 C1724 C 0.60662 0.49349 -0.03274
 C1725 C 0.58743 0.50496 -0.01416
 C1726 C 0.59728 0.52757 0.00312
 H1727 H 0.72261 0.56859 -0.02137
 H1728 H 0.65857 0.60219 0.05220
 H1729 H 0.70646 0.62464 0.04694
 H1730 H 0.62069 0.56861 0.03541
 H1731 H 0.68635 0.53147 -0.03478
 H1732 H 0.64882 0.49582 -0.04929
 H1733 H 0.59983 0.47628 -0.04666
 H1734 H 0.58300 0.53739 0.01699
 C1735 C 0.18946 1.08262 0.48987
 C1736 C 0.16041 1.07433 0.49165
 C1737 C 0.14087 1.09405 0.50010
 C1738 C 0.15064 1.12168 0.50652
 C1739 C 0.17949 1.12979 0.50441
 C1740 C 0.19889 1.11037 0.49601
 C1741 C 0.11187 1.08593 0.50187
 C1742 C 0.10202 1.05845 0.49502
 C1743 C 0.12143 1.03874 0.48652
 C1744 C 0.15055 1.04675 0.48498
 C1745 C 0.11136 1.01131 0.47978
 C1746 C 0.08234 1.00352 0.48129
 C1747 C 0.06269 1.02299 0.48959
 C1748 C 0.07299 1.05043 0.49662
 H1749 H 0.20466 1.06771 0.48350
 H1750 H 0.13599 1.13702 0.51305
 H1751 H 0.18677 1.15123 0.50940
 H1752 H 0.09693 1.10106 0.50838
 H1753 H 0.16547 1.03162 0.47849
 H1754 H 0.12593 0.99586 0.47332
 H1755 H 0.07544 0.98208 0.47604
 H1756 H 0.05876 1.06546 0.50429
 C1757 C 0.16505 -0.08450 0.96764
 C1758 C 0.14033 -0.07048 0.97347
 C1759 C 0.12618 -0.07706 0.99966
 C1760 C 0.13779 -0.09646 1.02014
 C1761 C 0.16265 -0.10995 1.01434
 C1762 C 0.17599 -0.10451 0.98787
 C1763 C 0.10028 -0.06480 1.00455
 C1764 C 0.08827 -0.04614 0.98356
 C1765 C 0.10316 -0.03840 0.95814
 C1766 C 0.12913 -0.05057 0.95326
 C1767 C 0.09130 -0.01931 0.93756
 C1768 C 0.06390 -0.00993 0.94088
 C1769 C 0.04747 -0.02021 0.96432
 C1770 C 0.06088 -0.03635 0.98685
 H1771 H 0.17558 -0.08022 0.94727
 H1772 H 0.12736 -0.10159 1.04039
 H1773 H 0.17096 -0.12536 1.03008
 H1774 H 0.08898 -0.07054 1.02420
 H1775 H 0.14015 -0.04521 0.93336
 H1776 H 0.10271 -0.01254 0.91829
 H1777 H 0.05489 0.00381 0.92393
 H1778 H 0.04922 -0.04336 1.00588
 C1779 C 0.67304 0.40654 0.47181
 C1780 C 0.64900 0.42112 0.47877
 C1781 C 0.63993 0.41993 0.50779
 C1782 C 0.65511 0.40455 0.52933
 C1783 C 0.67905 0.39039 0.52227
 C1784 C 0.68823 0.39128 0.49361
 C1785 C 0.61575 0.43397 0.51486
 C1786 C 0.60055 0.44942 0.49339
 C1787 C 0.60972 0.45106 0.46447
 C1788 C 0.63387 0.43681 0.45729
 C1789 C 0.59452 0.46693 0.44328
 C1790 C 0.57023 0.48062 0.45056
 C1791 C 0.56035 0.47834 0.47908
 C1792 C 0.57613 0.46309 0.50048
 H1793 H 0.68009 0.40718 0.44963
 H1794 H 0.64835 0.40330 0.55161
 H1795 H 0.68996 0.37807 0.53914
 H1796 H 0.60873 0.43281 0.53707
 H1797 H 0.64084 0.43791 0.43506
 H1798 H 0.60138 0.46872 0.42105
 H1799 H 0.55922 0.49289 0.43371
 H1800 H 0.56924 0.46127 0.52269
 C1801 C -0.19538 0.41657 0.48443
 C1802 C -0.16764 0.42640 0.49300
 C1803 C -0.15083 0.40960 0.51247
 C1804 C -0.16212 0.38355 0.52339
 C1805 C -0.18957 0.37394 0.51469
 C1806 C -0.20624 0.39026 0.49512
 C1807 C -0.12284 0.41879 0.52032
 C1808 C -0.11125 0.44448 0.50881
 C1809 C -0.12812 0.46152 0.48976
 C1810 C -0.15625 0.45245 0.48206
 C1811 C -0.11638 0.48716 0.47834
 C1812 C -0.08802 0.49552 0.48511
 C1813 C -0.07074 0.47843 0.50352
 C1814 C -0.08282 0.45306 0.51562
 H1815 H -0.20830 0.42905 0.46923
 H1816 H -0.14956 0.37041 0.53828
 H1817 H -0.19762 0.35342 0.52285
 H1818 H -0.10992 0.40573 0.53499
 H1819 H -0.16907 0.46541 0.46721
 H1820 H -0.12900 0.50058 0.46380
 H1821 H -0.07965 0.51526 0.47541
 H1822 H -0.07001 0.43959 0.52987
 C1823 C 0.29612 -0.09794 -0.00136
 C1824 C 0.32286 -0.08340 -0.00106
 C1825 C 0.32967 -0.06349 -0.02378
 C1826 C 0.30944 -0.05860 -0.04651
 C1827 C 0.28327 -0.07419 -0.04730
 C1828 C 0.27663 -0.09399 -0.02480
 C1829 C 0.35693 -0.04975 -0.02396
 C1830 C 0.37780 -0.05671 -0.00248
 C1831 C 0.37091 -0.07703 0.01983
 C1832 C 0.34337 -0.08970 0.02081
 C1833 C 0.39197 -0.08520 0.04030
 C1834 C 0.41972 -0.07364 0.03862
 C1835 C 0.42699 -0.05275 0.01714
 C1836 C 0.40567 -0.04439 -0.00341
 H1837 H 0.29118 -0.11372 0.01567
 H1838 H 0.31429 -0.04357 -0.06421
 H1839 H 0.26841 -0.07124 -0.06567
 H1840 H 0.36220 -0.03448 -0.04136
 H1841 H 0.33823 -0.10532 0.03794
 H1842 H 0.38719 -0.10117 0.05717
 H1843 H 0.43558 -0.08179 0.05395
 H1844 H 0.41080 -0.02879 -0.02051
 C1845 C 0.31835 1.08765 0.53509
 C1846 C 0.33879 1.06695 0.53663
 C1847 C 0.33482 1.04293 0.51923
 C1848 C 0.30959 1.03913 0.50208
 C1849 C 0.28958 1.06007 0.50038
 C1850 C 0.29436 1.08474 0.51611
 C1851 C 0.35683 1.02410 0.51782
 C1852 C 0.38296 1.02939 0.53304
 C1853 C 0.38623 1.05244 0.55176
 C1854 C 0.36401 1.07091 0.55369
 C1855 C 0.41214 1.05730 0.56736
 C1856 C 0.43530 1.04090 0.56275
 C1857 C 0.43334 1.01996 0.54175
 C1858 C 0.40637 1.01298 0.52857
 H1859 H 0.32214 1.10700 0.54685
 H1860 H 0.30612 1.02080 0.48874
 H1861 H 0.27127 1.05788 0.48536
 H1862 H 0.35420 1.00627 0.50366
 H1863 H 0.36694 1.08915 0.56728
 H1864 H 0.41479 1.07434 0.58246
 H1865 H 0.45509 1.04545 0.57495
 H1866 H 0.40396 0.99607 0.51331
 C1867 C -0.16157 0.58972 1.03627
 C1868 C -0.14024 0.56999 1.03562
 C1869 C -0.14230 0.54897 1.01443
 C1870 C -0.16617 0.54728 0.99513
 C1871 C -0.18703 0.56720 0.99571
 C1872 C -0.18452 0.58877 1.01582
 C1873 C -0.11983 0.53095 1.01184
 C1874 C -0.09498 0.53417 1.02959
 C1875 C -0.09339 0.55429 1.05160
 C1876 C -0.11619 0.57186 1.05472
 C1877 C -0.06850 0.55725 1.06931
 C1878 C -0.04462 0.54218 1.06369
 C1879 C -0.04493 0.52444 1.03976
 C1880 C -0.07105 0.51879 1.02443
 H1881 H -0.15949 0.60672 1.05146
 H1882 H -0.16812 0.53128 0.97884
 H1883 H -0.20465 0.56646 0.97974
 H1884 H -0.12107 0.51543 0.99502
 H1885 H -0.11464 0.58783 1.07109
 H1886 H -0.06708 0.57209 1.08673
 H1887 H -0.02535 0.54584 1.07704
 H1888 H -0.07225 0.50415 1.00683
 C1889 C 0.00001 0.68960 0.56936
 C1890 C -0.00079 0.66048 0.56346
 C1891 C -0.00732 0.64021 0.58598
 C1892 C -0.01479 0.64915 0.61318
 C1893 C -0.01441 0.67791 0.61865
 C1894 C -0.00623 0.69828 0.59721
 C1895 C -0.00585 0.61128 0.58124
 C1896 C 0.00091 0.60205 0.55391
 C1897 C 0.00557 0.62193 0.53074
 C1898 C 0.00532 0.65114 0.53577
 C1899 C 0.00969 0.61210 0.50287
 C1900 C 0.00889 0.58293 0.49809
 C1901 C 0.00603 0.56292 0.52138
 C1902 C 0.00215 0.57304 0.54934
 H1903 H 0.00652 0.70531 0.55285
 H1904 H -0.02018 0.63387 0.63050
 H1905 H -0.01900 0.68429 0.64027
 H1906 H -0.01020 0.59590 0.59881
 H1907 H 0.00964 0.66649 0.51819
 H1908 H 0.01243 0.62694 0.48456
 H1909 H 0.00972 0.57624 0.47600
 H1910 H -0.00126 0.55832 0.56763
 C1911 C 0.50343 0.16597 0.05706
 C1912 C 0.49512 0.14024 0.04404
 C1913 C 0.46810 0.12707 0.04988
 C1914 C 0.44908 0.14077 0.06668
 C1915 C 0.45734 0.16653 0.07910
 C1916 C 0.48482 0.17878 0.07526
 C1917 C 0.46101 0.09985 0.04003
 C1918 C 0.48064 0.08552 0.02458
 C1919 C 0.50658 0.09947 0.01653
 C1920 C 0.51373 0.12685 0.02632
 C1921 C 0.52533 0.08521 -0.00012
 C1922 C 0.51984 0.05652 -0.00593
 C1923 C 0.49620 0.04128 0.00585
 C1924 C 0.47547 0.05681 0.01884
 H1925 H 0.52459 0.17560 0.05382
 H1926 H 0.42819 0.13108 0.07104
 H1927 H 0.44278 0.17613 0.09304
 H1928 H 0.44080 0.08927 0.04566
 H1929 H 0.53420 0.13716 0.02122
 H1930 H 0.54490 0.09582 -0.00747
 H1931 H 0.53530 0.04589 -0.01779
 H1932 H 0.45602 0.04633 0.02657
 C1933 C -0.01440 0.19036 0.91664
 C1934 C -0.01281 0.16346 0.93085
 C1935 C 0.01383 0.15435 0.94213
 C1936 C 0.03815 0.17265 0.94009
 C1937 C 0.03646 0.19910 0.92574
 C1938 C 0.01042 0.20799 0.91315
 C1939 C 0.01599 0.12677 0.95431
 C1940 C -0.00806 0.10785 0.95485
 C1941 C -0.03484 0.11726 0.94453
 C1942 C -0.03714 0.14504 0.93289
 C1943 C -0.05871 0.09834 0.94484
 C1944 C -0.05587 0.06996 0.95348
 C1945 C -0.02919 0.05963 0.96261
 C1946 C -0.00548 0.07929 0.96413
 H1947 H -0.03459 0.19686 0.90696
 H1948 H 0.05869 0.16619 0.94889
 H1949 H 0.05580 0.21248 0.92399
 H1950 H 0.03659 0.11970 0.96232
 H1951 H -0.05765 0.15192 0.92440
 H1952 H -0.07948 0.10517 0.93715
 H1953 H -0.07467 0.05626 0.95149
 H1954 H 0.01540 0.07212 0.97093
 C1955 C 0.52089 0.69590 0.42352
 C1956 C 0.51282 0.67060 0.43893
 C1957 C 0.48485 0.65845 0.43467
 C1958 C 0.46511 0.67242 0.41623
 C1959 C 0.47312 0.69784 0.40156
 C1960 C 0.50113 0.70946 0.40455
 C1961 C 0.47722 0.63227 0.44838
 C1962 C 0.49716 0.61799 0.46633
 C1963 C 0.52460 0.63074 0.47189
 C1964 C 0.53229 0.65700 0.45817
 C1965 C 0.54424 0.61640 0.49014
 C1966 C 0.53755 0.58886 0.50097
 C1967 C 0.51101 0.57505 0.49394
 C1968 C 0.49053 0.59048 0.47748
 H1969 H 0.54243 0.70510 0.42630
 H1970 H 0.44352 0.66353 0.41293
 H1971 H 0.45761 0.70809 0.38720
 H1972 H 0.45601 0.62262 0.44440
 H1973 H 0.55363 0.66644 0.46183
 H1974 H 0.56530 0.62597 0.49494
 H1975 H 0.55389 0.57783 0.51345
 H1976 H 0.46998 0.58043 0.47148
 C1977 C 0.48879 0.81521 0.43239
 C1978 C 0.48940 0.83449 0.45506
 C1979 C 0.51493 0.83948 0.47193
 C1980 C 0.53890 0.82421 0.46677
 C1981 C 0.53825 0.80559 0.44391
 C1982 C 0.51356 0.80160 0.42581
 C1983 C 0.51658 0.86064 0.49261
 C1984 C 0.49342 0.87775 0.49583
 C1985 C 0.46757 0.87208 0.47985
 C1986 C 0.46549 0.85012 0.46000
 C1987 C 0.44476 0.88959 0.48277
 C1988 C 0.44856 0.91417 0.49870
 C1989 C 0.47521 0.92172 0.51239
 C1990 C 0.49654 0.90181 0.51292
 H1991 H 0.46966 0.81235 0.41881
 H1992 H 0.55854 0.82750 0.47968
 H1993 H 0.55743 0.79482 0.43986
 H1994 H 0.53649 0.86497 0.50484
 H1995 H 0.44584 0.84633 0.44719
 H1996 H 0.42451 0.88529 0.47120
 H1997 H 0.43097 0.92810 0.49860
 H1998 H 0.51668 0.90614 0.52421
 C1999 C 0.00168 0.31289 0.94333
 C2000 C -0.00449 0.33801 0.95681
 C2001 C -0.02415 0.35641 0.94304
 C2002 C -0.03861 0.34855 0.91707
 C2003 C -0.03231 0.32362 0.90384
 C2004 C -0.01168 0.30602 0.91645
 C2005 C -0.02798 0.38296 0.95460
 C2006 C -0.01228 0.39148 0.97968
 C2007 C 0.00599 0.37243 0.99445
 C2008 C 0.00975 0.34578 0.98299
 C2009 C 0.02098 0.38080 1.01989
 C2010 C 0.01956 0.40840 1.02943
 C2011 C 0.00361 0.42854 1.01354
 C2012 C -0.01345 0.41924 0.98935
 H2013 H 0.01800 0.29956 0.95282
 H2014 H -0.05382 0.36232 0.90628
 H2015 H -0.04228 0.31895 0.88281
 H2016 H -0.04230 0.39743 0.94341
 H2017 H 0.02455 0.33158 0.99384
 H2018 H 0.03459 0.36627 1.03195
 H2019 H 0.03192 0.41393 1.04866
 H2020 H -0.02637 0.43404 0.97682
 C2021 C 0.50048 0.29110 0.04866
 C2022 C 0.49690 0.31923 0.03836
 C2023 C 0.48360 0.33809 0.05608
 C2024 C 0.47268 0.32836 0.08272
 C2025 C 0.47630 0.30058 0.09268
 C2026 C 0.49066 0.28197 0.07614
 C2027 C 0.48254 0.36673 0.04766
 C2028 C 0.49462 0.37700 0.02176
 C2029 C 0.50627 0.35820 0.00294
 C2030 C 0.50740 0.32928 0.01137
 C2031 C 0.51762 0.36903 -0.02328
 C2032 C 0.51856 0.39830 -0.02999
 C2033 C 0.50842 0.41733 -0.01048
 C2034 C 0.49637 0.40611 0.01530
 H2035 H 0.51186 0.27677 0.03605
 H2036 H 0.46235 0.34257 0.09642
 H2037 H 0.46917 0.29399 0.11410
 H2038 H 0.47317 0.38126 0.06181
 H2039 H 0.51726 0.31488 -0.00252
 H2040 H 0.52649 0.35498 -0.03821
 H2041 H 0.52830 0.40611 -0.04987
 H2042 H 0.48991 0.41992 0.03166
 C2043 C -0.01222 0.81263 0.56267
 C2044 C -0.01884 0.83993 0.55172
 C2045 C -0.03284 0.85812 0.56959
 C2046 C -0.04184 0.84816 0.59698
 C2047 C -0.03531 0.82111 0.60755
 C2048 C -0.01972 0.80354 0.59099
 C2049 C -0.03637 0.88641 0.56049
 C2050 C -0.02620 0.89689 0.53371
 C2051 C -0.01421 0.87840 0.51479
 C2052 C -0.01050 0.84996 0.52392
 C2053 C -0.00496 0.88911 0.48766
 C2054 C -0.00605 0.91810 0.48016
 C2055 C -0.01606 0.93713 0.49976
 C2056 C -0.02651 0.92595 0.52637
 H2057 H 0.00008 0.79917 0.54996
 H2058 H -0.05283 0.86175 0.61077
 H2059 H -0.04098 0.81447 0.62947
 H2060 H -0.04610 0.90055 0.57477
 H2061 H -0.00021 0.83601 0.50990
 H2062 H 0.00401 0.87523 0.47262
 H2063 H 0.00235 0.92580 0.45959
 H2064 H -0.03310 0.93986 0.54259
 C2065 C 0.22520 0.34331 0.07123
 C2066 C 0.21640 0.32637 0.09506
 C2067 C 0.21058 0.29697 0.09206
 C2068 C 0.21219 0.28545 0.06448
 C2069 C 0.22220 0.30243 0.04098
 C2070 C 0.22981 0.33114 0.04475
 C2071 C 0.20581 0.27945 0.11704
 C2072 C 0.20949 0.29076 0.14489
 C2073 C 0.21485 0.32030 0.14733
 C2074 C 0.21662 0.33802 0.12245
 C2075 C 0.22204 0.33143 0.17435
 C2076 C 0.22693 0.31338 0.19825
 C2077 C 0.22124 0.28386 0.19699
 C2078 C 0.21118 0.27288 0.17011
 H2079 H 0.23116 0.36556 0.07396
 H2080 H 0.20772 0.26302 0.06160
 H2081 H 0.22566 0.29285 0.02049
 H2082 H 0.20214 0.25679 0.11492
 H2083 H 0.22148 0.36055 0.12460
 H2084 H 0.22720 0.35390 0.17634
 H2085 H 0.23776 0.32288 0.21675
 H2086 H 0.20793 0.25019 0.16803
 C2087 C 0.70809 0.82074 0.56806
 C2088 C 0.70663 0.79939 0.59011
 C2089 C 0.72543 0.77690 0.59010
 C2090 C 0.74354 0.77480 0.56689
 C2091 C 0.74551 0.79658 0.54569
 C2092 C 0.72883 0.82019 0.54702
 C2093 C 0.72796 0.75857 0.61455
 C2094 C 0.71308 0.76337 0.63953
 C2095 C 0.69252 0.78417 0.63874
 C2096 C 0.68892 0.80174 0.61370
 C2097 C 0.67749 0.78832 0.66379
 C2098 C 0.68531 0.77458 0.69016
 C2099 C 0.70860 0.75700 0.69212
 C2100 C 0.72060 0.74964 0.66599
 H2101 H 0.69551 0.83925 0.56917
 H2102 H 0.75786 0.75757 0.56644
 H2103 H 0.76164 0.79611 0.52954
 H2104 H 0.74346 0.74229 0.61511
 H2105 H 0.67420 0.81869 0.61360
 H2106 H 0.66080 0.80336 0.66340
 H2107 H 0.67375 0.77883 0.70899
 H2108 H 0.73776 0.73517 0.66629
 C2109 C 0.28324 0.68259 0.55409
 C2110 C 0.28308 0.70518 0.57285
 C2111 C 0.25816 0.72052 0.57416
 C2112 C 0.23408 0.71330 0.55655
 C2113 C 0.23400 0.68998 0.53894
 C2114 C 0.25828 0.67387 0.53794
 C2115 C 0.25702 0.74166 0.59436
 C2116 C 0.27952 0.74591 0.61490
 C2117 C 0.30469 0.73107 0.61348
 C2118 C 0.30680 0.71150 0.59161
 C2119 C 0.32629 0.73459 0.63528
 C2120 C 0.32127 0.74964 0.66008
 C2121 C 0.29482 0.76162 0.66312
 C2122 C 0.27563 0.76234 0.63872
 H2123 H 0.30271 0.67148 0.55284
 H2124 H 0.21482 0.72491 0.55737
 H2125 H 0.21448 0.68439 0.52688
 H2126 H 0.23761 0.75298 0.59576
 H2127 H 0.32589 0.69961 0.59074
 H2128 H 0.34612 0.72398 0.63423
 H2129 H 0.33749 0.75030 0.67732
 H2130 H 0.25561 0.77266 0.63961
 C2131 C 0.76971 0.17717 0.05805
 C2132 C 0.76888 0.19919 0.07735
 C2133 C 0.74306 0.21268 0.08035
 C2134 C 0.71870 0.20416 0.06376
 C2135 C 0.71933 0.18115 0.04579
 C2136 C 0.74461 0.16683 0.04326
 C2137 C 0.74144 0.23305 0.10132
 C2138 C 0.76445 0.23800 0.12112
 C2139 C 0.79040 0.22479 0.11806
 C2140 C 0.79290 0.20643 0.09525
 C2141 C 0.81240 0.22821 0.13937
 C2142 C 0.80737 0.24157 0.16513
 C2143 C 0.78071 0.25271 0.16938
 C2144 C 0.76055 0.25324 0.14584
 H2145 H 0.78989 0.16766 0.05555
 H2146 H 0.69872 0.21430 0.06584
 H2147 H 0.69962 0.17427 0.03479
 H2148 H 0.72141 0.24297 0.10400
 H2149 H 0.81263 0.19582 0.09315
 H2150 H 0.83258 0.21846 0.13726
 H2151 H 0.82379 0.24134 0.18213
 H2152 H 0.74003 0.26229 0.14811
 C2153 C 0.71947 0.16774 0.93675
 C2154 C 0.72234 0.18934 0.91489
 C2155 C 0.74978 0.20210 0.90999
 C2156 C 0.77337 0.19442 0.92747
 C2157 C 0.77041 0.17293 0.94862
 C2158 C 0.74381 0.15871 0.95280
 C2159 C 0.75377 0.22126 0.88665
 C2160 C 0.73103 0.22717 0.86727
 C2161 C 0.70316 0.21643 0.87275
 C2162 C 0.69880 0.19764 0.89694
 C2163 C 0.68074 0.22402 0.85313
 C2164 C 0.68670 0.23899 0.82677
 C2165 C 0.71513 0.24496 0.81906
 C2166 C 0.73661 0.24169 0.84116
 H2167 H 0.69881 0.15714 0.94034
 H2168 H 0.79435 0.20442 0.92415
 H2169 H 0.78915 0.16713 0.96158
 H2170 H 0.77508 0.23009 0.88242
 H2171 H 0.67761 0.18841 0.90082
 H2172 H 0.65883 0.21753 0.85761
 H2173 H 0.66920 0.24494 0.81223
 H2174 H 0.75869 0.24792 0.83734
 C2175 C 0.23478 0.67412 0.43081
 C2176 C 0.23872 0.69429 0.40770
 C2177 C 0.26688 0.70338 0.40051
 C2178 C 0.29029 0.69373 0.41700
 C2179 C 0.28623 0.67378 0.43949
 C2180 C 0.25868 0.66296 0.44597
 C2181 C 0.27154 0.72087 0.37600
 C2182 C 0.24859 0.72878 0.35780
 C2183 C 0.22030 0.72194 0.36557
 C2184 C 0.21540 0.70473 0.39083
 C2185 C 0.19783 0.73167 0.34715
 C2186 C 0.20363 0.74491 0.31987
 C2187 C 0.23172 0.74668 0.31002
 C2188 C 0.25400 0.74150 0.33074
 H2189 H 0.21344 0.66625 0.43609
 H2190 H 0.31188 0.70100 0.41196
 H2191 H 0.30487 0.66655 0.45170
 H2192 H 0.29325 0.72680 0.37002
 H2193 H 0.19373 0.69841 0.39648
 H2194 H 0.17585 0.72793 0.35320
 H2195 H 0.18603 0.75128 0.30555
 H2196 H 0.27614 0.74532 0.32531
 C2197 C 0.75981 0.82894 0.44832
 C2198 C 0.76403 0.82152 0.41962
 C2199 C 0.74952 0.83594 0.39643
 C2200 C 0.72993 0.85624 0.40236
 C2201 C 0.72583 0.86338 0.43102
 C2202 C 0.74130 0.85038 0.45400
 C2203 C 0.75501 0.83005 0.36768
 C2204 C 0.77363 0.80890 0.36177
 C2205 C 0.78721 0.79354 0.38478
 C2206 C 0.78293 0.80047 0.41367
 C2207 C 0.80388 0.77085 0.37836
 C2208 C 0.80481 0.76193 0.34967
 C2209 C 0.79034 0.77651 0.32681
 C2210 C 0.77704 0.80156 0.33308
 H2211 H 0.77207 0.81922 0.46617
 H2212 H 0.71850 0.86726 0.38478
 H2213 H 0.71203 0.88035 0.43512
 H2214 H 0.74409 0.84133 0.34988
 H2215 H 0.79370 0.78908 0.43147
 H2216 H 0.81454 0.75881 0.39572
 H2217 H 0.81539 0.74272 0.34568
 H2218 H 0.76652 0.81392 0.31589
 C2219 C 0.26562 0.34905 0.92037
 C2220 C 0.26460 0.33189 0.89627
 C2221 C 0.24702 0.30674 0.89635
 C2222 C 0.23035 0.29957 0.92051
 C2223 C 0.23192 0.31665 0.94480
 C2224 C 0.25010 0.34113 0.94516
 C2225 C 0.24649 0.28929 0.87232
 C2226 C 0.26280 0.29712 0.84805
 C2227 C 0.28018 0.32235 0.84807
 C2228 C 0.28127 0.33941 0.87230
 C2229 C 0.29551 0.33058 0.82344
 C2230 C 0.29172 0.31536 0.79810
 C2231 C 0.27323 0.29098 0.79691
 C2232 C 0.26063 0.28098 0.82307
 H2233 H 0.27927 0.36826 0.92021
 H2234 H 0.21663 0.28043 0.92089
 H2235 H 0.21996 0.31004 0.96373
 H2236 H 0.23289 0.27004 0.87222
 H2237 H 0.29469 0.35878 0.87231
 H2238 H 0.30929 0.34969 0.82324
 H2239 H 0.30283 0.32354 0.77938
 H2240 H 0.24693 0.26184 0.82349
 C2241 C 0.84711 0.43534 0.76332
 C2242 C 0.82828 0.41146 0.76398
 C2243 C 0.80430 0.41067 0.78173
 C2244 C 0.79998 0.43385 0.79897
 C2245 C 0.81933 0.45742 0.79863
 C2246 C 0.84282 0.45819 0.78071
 C2247 C 0.78534 0.38665 0.78211
 C2248 C 0.79058 0.36322 0.76556
 C2249 C 0.81503 0.36405 0.74848
 C2250 C 0.83342 0.38823 0.74746
 C2251 C 0.82113 0.34046 0.73303
 C2252 C 0.80334 0.31613 0.73445
 C2253 C 0.77831 0.31492 0.75049
 C2254 C 0.77217 0.33876 0.76617
 H2255 H 0.86544 0.43606 0.74961
 H2256 H 0.78183 0.43365 0.81281
 H2257 H 0.81589 0.47511 0.81211
 H2258 H 0.76684 0.38604 0.79555
 H2259 H 0.85204 0.38878 0.73415
 H2260 H 0.83999 0.34063 0.72015
 H2261 H 0.80943 0.29826 0.72268
 H2262 H 0.75347 0.33819 0.77928
 C2263 C 0.33957 0.94579 0.25543
 C2264 C 0.32217 0.92095 0.25451
 C2265 C 0.29962 0.91648 0.27391
 C2266 C 0.29534 0.93705 0.29435
 C2267 C 0.31359 0.96143 0.29580
 C2268 C 0.33567 0.96589 0.27624
 C2269 C 0.28242 0.89122 0.27301
 C2270 C 0.28852 0.86994 0.25396
 C2271 C 0.31173 0.87442 0.23537
 C2272 C 0.32783 0.90009 0.23518
 C2273 C 0.31946 0.85269 0.21811
 C2274 C 0.30481 0.82648 0.21958
 C2275 C 0.28072 0.82167 0.23681
 C2276 C 0.27268 0.84381 0.25400
 H2277 H 0.35696 0.94901 0.24064
 H2278 H 0.27834 0.93398 0.30957
 H2279 H 0.31048 0.97682 0.31207
 H2280 H 0.26503 0.88774 0.28776
 H2281 H 0.34553 0.90340 0.22074
 H2282 H 0.33767 0.85557 0.20435
 H2283 H 0.31302 0.80980 0.20745
 H2284 H 0.25502 0.84035 0.26839
 C2285 C 0.19969 0.95686 0.74316
 C2286 C 0.21631 0.93536 0.73436
 C2287 C 0.21526 0.92790 0.70484
 C2288 C 0.19855 0.94321 0.68440
 C2289 C 0.18095 0.96378 0.69369
 C2290 C 0.18081 0.96992 0.72324
 C2291 C 0.22874 0.90375 0.69682
 C2292 C 0.24113 0.88595 0.71836
 C2293 C 0.24290 0.89412 0.74765
 C2294 C 0.23151 0.91935 0.75527
 C2295 C 0.25435 0.87602 0.76924
 C2296 C 0.26116 0.84889 0.76242
 C2297 C 0.25680 0.83935 0.73383
 C2298 C 0.24963 0.85911 0.71150
 H2299 H 0.19930 0.96157 0.76603
 H2300 H 0.19737 0.93776 0.66171
 H2301 H 0.16593 0.97311 0.67821
 H2302 H 0.22723 0.89746 0.67436
 H2303 H 0.23222 0.92514 0.77789
 H2304 H 0.25651 0.88220 0.79169
 H2305 H 0.26883 0.83508 0.78001
 H2306 H 0.24945 0.85337 0.68898
 C2307 C 0.67295 0.43958 0.25919
 C2308 C 0.68417 0.41250 0.25979
 C2309 C 0.66725 0.38872 0.26979
 C2310 C 0.63956 0.39207 0.27848
 C2311 C 0.62837 0.41866 0.27707
 C2312 C 0.64489 0.44286 0.26786
 C2313 C 0.67778 0.36169 0.27011
 C2314 C 0.70461 0.35768 0.25939
 C2315 C 0.72171 0.38106 0.24912
 C2316 C 0.71164 0.40853 0.24992
 C2317 C 0.74804 0.37627 0.23729
 C2318 C 0.75647 0.34855 0.23439
 C2319 C 0.73895 0.32506 0.24374
 C2320 C 0.71369 0.33026 0.25736
 H2321 H 0.68597 0.45787 0.25196
 H2322 H 0.62623 0.37396 0.28570
 H2323 H 0.60632 0.41995 0.28270
 H2324 H 0.66459 0.34356 0.27767
 H2325 H 0.72466 0.42657 0.24195
 H2326 H 0.76164 0.39387 0.22937
 H2327 H 0.77643 0.34566 0.22419
 H2328 H 0.69952 0.31297 0.26408
 C2329 C 0.67101 0.56336 0.28255
 C2330 C 0.68889 0.58765 0.27848
 C2331 C 0.70344 0.59204 0.25229
 C2332 C 0.69980 0.57191 0.23067
 C2333 C 0.68060 0.54852 0.23425
 C2334 C 0.66545 0.54434 0.25995
 C2335 C 0.72040 0.61700 0.24773
 C2336 C 0.72160 0.63822 0.26835
 C2337 C 0.70664 0.63393 0.29429
 C2338 C 0.69106 0.60834 0.29958
 C2339 C 0.70685 0.65563 0.31414
 C2340 C 0.72105 0.68168 0.30798
 C2341 C 0.73588 0.68645 0.28206
 C2342 C 0.73674 0.66405 0.26293
 H2343 H 0.66046 0.56007 0.30299
 H2344 H 0.71073 0.57498 0.21040
 H2345 H 0.67675 0.53456 0.21629
 H2346 H 0.73157 0.62046 0.22761
 H2347 H 0.67952 0.60509 0.31950
 H2348 H 0.69543 0.65272 0.33413
 H2349 H 0.72002 0.69814 0.32353
 H2350 H 0.74871 0.66659 0.24356
 C2351 C 0.15578 0.08195 0.74916
 C2352 C 0.16951 0.10837 0.75380
 C2353 C 0.19532 0.11035 0.77080
 C2354 C 0.20649 0.08559 0.78350
 C2355 C 0.19236 0.05923 0.77903
 C2356 C 0.16718 0.05745 0.76160
 C2357 C 0.20962 0.13692 0.77431
 C2358 C 0.19850 0.16133 0.76074
 C2359 C 0.17230 0.15907 0.74446
 C2360 C 0.15792 0.13275 0.74128
 C2361 C 0.16140 0.18299 0.73040
 C2362 C 0.17689 0.20872 0.73110
 C2363 C 0.20329 0.21167 0.74653
 C2364 C 0.21363 0.18775 0.76204
 H2365 H 0.13614 0.08034 0.73590
 H2366 H 0.22615 0.08660 0.79670
 H2367 H 0.20116 0.04024 0.78885
 H2368 H 0.22965 0.13847 0.78690
 H2369 H 0.13806 0.13113 0.72837
 H2370 H 0.14155 0.18152 0.71751
 H2371 H 0.16897 0.22552 0.71740
 H2372 H 0.23407 0.18920 0.77385
 C2373 C 0.32761 0.06774 0.24256
 C2374 C 0.31728 0.09345 0.23137
 C2375 C 0.33681 0.11552 0.22214
 C2376 C 0.36614 0.11124 0.22343
 C2377 C 0.37622 0.08607 0.23560
 C2378 C 0.35709 0.06456 0.24590
 C2379 C 0.32695 0.14215 0.21380
 C2380 C 0.29822 0.14764 0.21681
 C2381 C 0.27851 0.12549 0.22507
 C2382 C 0.28801 0.09821 0.23131
 C2383 C 0.25007 0.13157 0.22913
 C2384 C 0.24236 0.15971 0.22911
 C2385 C 0.26289 0.18212 0.22441
 C2386 C 0.28966 0.17555 0.21478
 H2387 H 0.31292 0.05102 0.25048
 H2388 H 0.38135 0.12786 0.21634
 H2389 H 0.39905 0.08354 0.23753
 H2390 H 0.34207 0.15925 0.20761
 H2391 H 0.27303 0.08137 0.23842
 H2392 H 0.23443 0.11482 0.23480
 H2393 H 0.22093 0.16382 0.23512
 H2394 H 0.30489 0.19199 0.20806
 C2395 C 0.83088 0.56471 0.77023
 C2396 C 0.81670 0.58916 0.76175
 C2397 C 0.82400 0.60436 0.73576
 C2398 C 0.84505 0.59449 0.71846
 C2399 C 0.85938 0.57033 0.72737
 C2400 C 0.85243 0.55556 0.75329
 C2401 C 0.81097 0.62970 0.72810
 C2402 C 0.79139 0.64040 0.74652
 C2403 C 0.78377 0.62494 0.77220
 C2404 C 0.79617 0.59921 0.77945
 C2405 C 0.76452 0.63589 0.79071
 C2406 C 0.75400 0.66256 0.78462
 C2407 C 0.76249 0.67880 0.75982
 C2408 C 0.78022 0.66691 0.74024
 H2409 H 0.82592 0.55329 0.79044
 H2410 H 0.85103 0.60593 0.69860
 H2411 H 0.87655 0.56371 0.71457
 H2412 H 0.81689 0.64161 0.70844
 H2413 H 0.79061 0.58755 0.79936
 H2414 H 0.75831 0.62426 0.81039
 H2415 H 0.74008 0.67080 0.80009
 H2416 H 0.78612 0.67851 0.72056
 C2417 C 0.94867 0.75020 0.19191
 C2418 C 0.92454 0.74154 0.20809
 C2419 C 0.90459 0.72114 0.19641
 C2420 C 0.91029 0.70766 0.17086
 C2421 C 0.93439 0.71595 0.15540
 C2422 C 0.95298 0.73803 0.16497
 C2423 C 0.87837 0.71571 0.20935
 C2424 C 0.87177 0.73013 0.23401
 C2425 C 0.89257 0.74778 0.24804
 C2426 C 0.91901 0.75375 0.23479
 C2427 C 0.88592 0.75939 0.27457
 C2428 C 0.85798 0.75600 0.28500
 C2429 C 0.83568 0.74350 0.26771
 C2430 C 0.84393 0.72831 0.24362
 H2431 H 0.96305 0.76733 0.19931
 H2432 H 0.89536 0.69166 0.16204
 H2433 H 0.93740 0.70647 0.13481
 H2434 H 0.86248 0.70130 0.19929
 H2435 H 0.93462 0.76859 0.24453
 H2436 H 0.90214 0.77135 0.28703
 H2437 H 0.85397 0.76375 0.30614
 H2438 H 0.82837 0.71621 0.23056
 C2439 C 0.43203 0.24333 0.68306
 C2440 C 0.40470 0.23914 0.69427
 C2441 C 0.38426 0.22076 0.68025
 C2442 C 0.39231 0.20506 0.65688
 C2443 C 0.41952 0.20963 0.64567
 C2444 C 0.43898 0.22974 0.65785
 C2445 C 0.35573 0.21990 0.68849
 C2446 C 0.34741 0.23744 0.71029
 C2447 C 0.36824 0.25410 0.72575
 C2448 C 0.39683 0.25476 0.71776
 C2449 C 0.35987 0.27071 0.74817
 C2450 C 0.33097 0.27232 0.75390
 C2451 C 0.30967 0.25810 0.73689
 C2452 C 0.31843 0.23964 0.71583
 H2453 H 0.44698 0.25918 0.69218
 H2454 H 0.37699 0.19068 0.64607
 H2455 H 0.42444 0.19939 0.62594
 H2456 H 0.33978 0.20673 0.67692
 H2457 H 0.41262 0.26852 0.72882
 H2458 H 0.37564 0.28306 0.76082
 H2459 H 0.32561 0.28536 0.77114
 H2460 H 0.30276 0.22781 0.70260
 C2461 C 0.45009 0.75024 0.80888
 C2462 C 0.42454 0.74531 0.79247
 C2463 C 0.40514 0.72291 0.80101
 C2464 C 0.41287 0.70422 0.82406
 C2465 C 0.43829 0.70935 0.84030
 C2466 C 0.45630 0.73309 0.83360
 C2467 C 0.37765 0.72079 0.78777
 C2468 C 0.36932 0.74095 0.76632
 C2469 C 0.38958 0.76172 0.75606
 C2470 C 0.41711 0.76373 0.76912
 C2471 C 0.38155 0.78114 0.73392
 C2472 C 0.35327 0.78127 0.72337
 C2473 C 0.33222 0.76212 0.73486
 C2474 C 0.34072 0.74161 0.75610
 H2475 H 0.46387 0.76879 0.80401
 H2476 H 0.39844 0.68675 0.83069
 H2477 H 0.44270 0.69620 0.85960
 H2478 H 0.36233 0.70442 0.79523
 H2479 H 0.43218 0.78057 0.76217
 H2480 H 0.39692 0.79692 0.72545
 H2481 H 0.34783 0.79722 0.70687
 H2482 H 0.32497 0.72673 0.76540
 C2483 C 0.94783 0.26383 0.29953
 C2484 C 0.92182 0.25506 0.28582
 C2485 C 0.90704 0.23004 0.29591
 C2486 C 0.92025 0.21253 0.31719
 C2487 C 0.94669 0.22099 0.33014
 C2488 C 0.96000 0.24739 0.32241
 C2489 C 0.87879 0.22392 0.28577
 C2490 C 0.86555 0.24228 0.26523
 C2491 C 0.88168 0.26544 0.25286
 C2492 C 0.90959 0.27186 0.26341
 C2493 C 0.86921 0.28265 0.23103
 C2494 C 0.84046 0.27829 0.22288
 C2495 C 0.82317 0.25701 0.23684
 C2496 C 0.83623 0.23870 0.25777
 H2497 H 0.95790 0.28427 0.29351
 H2498 H 0.90943 0.19307 0.32497
 H2499 H 0.95494 0.20834 0.34831
 H2500 H 0.86682 0.20558 0.29465
 H2501 H 0.92133 0.29058 0.25502
 H2502 H 0.88147 0.30010 0.22086
 H2503 H 0.83158 0.29262 0.20642
 H2504 H 0.82347 0.22221 0.26888
 C2505 C 0.06369 0.26399 0.31914
 C2506 C 0.09211 0.26304 0.31046
 C2507 C 0.11481 0.27022 0.33043
 C2508 C 0.10890 0.27887 0.35823
 C2509 C 0.08074 0.28017 0.36646
 C2510 C 0.05789 0.27258 0.34720
 C2511 C 0.14315 0.26851 0.32246
 C2512 C 0.14927 0.26005 0.29464
 C2513 C 0.12684 0.25368 0.27421
 C2514 C 0.09830 0.25502 0.28231
 C2515 C 0.13347 0.24603 0.24613
 C2516 C 0.16202 0.24445 0.23854
 C2517 C 0.18448 0.25014 0.25898
 C2518 C 0.17766 0.25787 0.28708
 H2519 H 0.04615 0.25832 0.30408
 H2520 H 0.12608 0.28448 0.37372
 H2521 H 0.07682 0.28647 0.38826
 H2522 H 0.16047 0.27372 0.33798
 H2523 H 0.08100 0.24980 0.26679
 H2524 H 0.11659 0.24126 0.23004
 H2525 H 0.16646 0.23857 0.21673
 H2526 H 0.19447 0.26269 0.30323
 C2527 C 0.55918 0.75413 0.82975
 C2528 C 0.58691 0.75663 0.81896
 C2529 C 0.60933 0.76967 0.83591
 C2530 C 0.60374 0.78019 0.86300
 C2531 C 0.57635 0.77722 0.87373
 C2532 C 0.55376 0.76398 0.85746
 C2533 C 0.63716 0.77145 0.82588
 C2534 C 0.64313 0.75991 0.79934
 C2535 C 0.62088 0.74713 0.78208
 C2536 C 0.59278 0.74578 0.79187
 C2537 C 0.62735 0.73540 0.75568
 C2538 C 0.65564 0.73576 0.74687
 C2539 C 0.67801 0.74827 0.76402
 C2540 C 0.67127 0.76039 0.79029
 H2541 H 0.54200 0.74437 0.81661
 H2542 H 0.62075 0.79014 0.87626
 H2543 H 0.57317 0.78454 0.89530
 H2544 H 0.65433 0.78127 0.83910
 H2545 H 0.57567 0.73574 0.77878
 H2546 H 0.61060 0.72543 0.74212
 H2547 H 0.66005 0.72586 0.72681
 H2548 H 0.68792 0.77013 0.80410
 C2549 C 0.55212 0.26288 0.67467
 C2550 C 0.57774 0.25680 0.69028
 C2551 C 0.59073 0.23111 0.68566
 C2552 C 0.57723 0.21133 0.66714
 C2553 C 0.55157 0.21724 0.65239
 C2554 C 0.53913 0.24327 0.65518
 C2555 C 0.61730 0.22573 0.69910
 C2556 C 0.63104 0.24548 0.71754
 C2557 C 0.61749 0.27030 0.72390
 C2558 C 0.59091 0.27598 0.71003
 C2559 C 0.63131 0.28931 0.74329
 C2560 C 0.65882 0.28438 0.75506
 C2561 C 0.67320 0.26049 0.74745
 C2562 C 0.65868 0.24109 0.72877
 H2563 H 0.54237 0.28281 0.67757
 H2564 H 0.58674 0.19138 0.66374
 H2565 H 0.54201 0.20170 0.63803
 H2566 H 0.62757 0.20638 0.69475
 H2567 H 0.58081 0.29547 0.71414
 H2568 H 0.62120 0.30840 0.74870
 H2569 H 0.66932 0.30000 0.76896
 H2570 H 0.66930 0.22289 0.72176
 C2571 C 0.06386 0.74778 0.16641
 C2572 C 0.08792 0.75237 0.18527
 C2573 C 0.09446 0.77942 0.19661
 C2574 C 0.07618 0.80134 0.18935
 C2575 C 0.05251 0.79675 0.17027
 C2576 C 0.04640 0.77009 0.15807
 C2577 C 0.11957 0.78428 0.21414
 C2578 C 0.13884 0.76263 0.21946
 C2579 C 0.13174 0.73567 0.20808
 C2580 C 0.10623 0.73053 0.19186
 C2581 C 0.15119 0.71457 0.21103
 C2582 C 0.17810 0.72033 0.22338
 C2583 C 0.18615 0.74657 0.23610
 C2584 C 0.16578 0.76772 0.23421
 H2585 H 0.05947 0.72717 0.15722
 H2586 H 0.08050 0.82220 0.19794
 H2587 H 0.03896 0.81423 0.16505
 H2588 H 0.12469 0.80515 0.22244
 H2589 H 0.10138 0.70982 0.18299
 H2590 H 0.14645 0.69410 0.20165
 H2591 H 0.19308 0.70419 0.22090
 H2592 H 0.17161 0.78858 0.24213
   
