data_POSCAR
  _audit_creation_date              2014-09-24
  _audit_creation_method            'ToBaCCo'
  _symmetry_space_group_name_H-M    'P1'
  _symmetry_Int_Tables_number       1
  _symmetry_cell_setting            triclinic
  loop_
  _symmetry_equiv_pos_as_xyz
 x,y,z
_cell_length_a 82.2657
_cell_length_b 82.1965
_cell_length_c 82.3967
_cell_angle_alpha 90.725700
_cell_angle_beta 90.874400
_cell_angle_gamma 89.408400
loop_
  _atom_site_label
  _atom_site_type_symbol
  _atom_site_fract_x
  _atom_site_fract_y
  _atom_site_fract_z
C1 C 0.09996 0.01102 0.23008
 H2 H 0.09760 0.02009 0.23940
 C3 C 0.09147 0.01160 0.21524
 H4 H 0.08248 0.02113 0.21329
 C5 C 0.11503 -0.01200 0.22108
 H6 H 0.12456 -0.02090 0.22313
 C7 C 0.10694 -0.01181 0.20611
 H8 H 0.11019 -0.02084 0.19701
 N9 N 0.11144 -0.00073 0.23274
 C10 C 0.12032 -0.00131 0.28503
 H11 H 0.13345 -0.00107 0.28458
 C12 C 0.11266 -0.00201 0.29993
 H13 H 0.12007 -0.00228 0.31090
 C14 C 0.09493 -0.00149 0.27105
 H15 H 0.08813 -0.00151 0.25972
 C16 C 0.08671 -0.00233 0.28579
 H17 H 0.07356 -0.00279 0.28567
 Zn18 Zn 0.12418 -0.00047 0.25210
 N19 N 0.11145 -0.00086 0.27100
 C20 C 0.13341 0.03063 0.26327
 N21 N 0.13674 0.01873 0.25216
 C22 C 0.14787 0.02099 0.24038
 C23 C 0.15627 0.03567 0.23956
 C24 C 0.14143 0.04547 0.26285
 C25 C 0.12844 -0.03347 0.25340
 C26 C 0.13625 -0.04854 0.25410
 C27 C 0.16208 -0.03474 0.25448
 C28 C 0.15367 -0.01986 0.25362
 N29 N 0.13714 -0.01956 0.25292
 H30 H 0.12417 0.02887 0.27222
 H31 H 0.15002 0.01147 0.23145
 H32 H 0.16497 0.03730 0.23000
 H33 H 0.13842 0.05478 0.27175
 H34 H 0.11530 -0.03282 0.25309
 H35 H 0.12878 -0.05930 0.25429
 H36 H 0.17524 -0.03461 0.25496
 H37 H 0.16034 -0.00860 0.25359
 C38 C 0.09563 -0.00252 0.30049
 C39 C 0.09505 0.00016 0.20295
 C40 C 0.15338 -0.04948 0.25462
 C41 C 0.15296 0.04821 0.25082
 C42 C 0.39976 0.00965 0.77065
 H43 H 0.40192 0.01860 0.76144
 C44 C 0.40790 0.01072 0.78567
 H45 H 0.41643 0.02047 0.78786
 C46 C 0.38545 -0.01349 0.77924
 H47 H 0.37635 -0.02264 0.77695
 C48 C 0.39320 -0.01283 0.79437
 H49 H 0.39013 -0.02174 0.80336
 N50 N 0.38882 -0.00238 0.76771
 C51 C 0.38082 -0.00468 0.71534
 H52 H 0.36769 -0.00519 0.71565
 C53 C 0.38866 -0.00482 0.70051
 H54 H 0.38140 -0.00550 0.68945
 C55 C 0.40601 -0.00313 0.72959
 H56 H 0.41267 -0.00253 0.74098
 C57 C 0.41442 -0.00335 0.71492
 H58 H 0.42757 -0.00280 0.71516
 Zn59 Zn 0.37643 -0.00272 0.74814
 N60 N 0.38948 -0.00352 0.72947
 C61 C 0.36688 0.02792 0.73645
 N62 N 0.36352 0.01651 0.74769
 C63 C 0.35213 0.01933 0.75922
 C64 C 0.34347 0.03408 0.75960
 C65 C 0.35861 0.04278 0.73642
 C66 C 0.37270 -0.03582 0.74664
 C67 C 0.36503 -0.05083 0.74595
 C68 C 0.33906 -0.03681 0.74570
 C69 C 0.34728 -0.02197 0.74652
 N70 N 0.36382 -0.02180 0.74717
 H71 H 0.37633 0.02576 0.72772
 H72 H 0.34996 0.01022 0.76828
 H73 H 0.33455 0.03618 0.76894
 H74 H 0.36165 0.05167 0.72741
 H75 H 0.38583 -0.03529 0.74693
 H76 H 0.37244 -0.06179 0.74570
 H77 H 0.32590 -0.03678 0.74532
 H78 H 0.34047 -0.01066 0.74659
 C79 C 0.40568 -0.00399 0.70012
 C80 C 0.40451 -0.00054 0.79783
 C81 C 0.34799 -0.05150 0.74555
 C82 C 0.34679 0.04610 0.74815
 C83 C 0.90004 0.50908 0.26978
 H84 H 0.90239 0.51795 0.26053
 C85 C 0.90832 0.50996 0.28474
 H86 H 0.91713 0.51950 0.28673
 C87 C 0.88522 0.48633 0.27847
 H88 H 0.87588 0.47741 0.27622
 C89 C 0.89304 0.48682 0.29357
 H90 H 0.88971 0.47796 0.30251
 N91 N 0.88881 0.49732 0.26691
 C92 C 0.88076 0.49548 0.21452
 H93 H 0.86762 0.49530 0.21477
 C94 C 0.88866 0.49521 0.19971
 H95 H 0.88144 0.49477 0.18863
 C96 C 0.90594 0.49628 0.22885
 H97 H 0.91258 0.49660 0.24027
 C98 C 0.91441 0.49591 0.21422
 H99 H 0.92757 0.49609 0.21451
 Zn100 Zn 0.87637 0.49719 0.24737
 N101 N 0.88940 0.49633 0.22868
 C102 C 0.86703 0.52802 0.23593
 N103 N 0.86364 0.51654 0.24708
 C104 C 0.85233 0.51934 0.25869
 C105 C 0.84378 0.53415 0.25924
 C106 C 0.85887 0.54295 0.23608
 C107 C 0.87231 0.46413 0.24584
 C108 C 0.86450 0.44919 0.24519
 C109 C 0.83866 0.46346 0.24501
 C110 C 0.84703 0.47822 0.24577
 N111 N 0.86357 0.47823 0.24637
 H112 H 0.87643 0.52587 0.22714
 H113 H 0.85014 0.51016 0.26768
 H114 H 0.83492 0.53621 0.26865
 H115 H 0.86194 0.55191 0.22714
 H116 H 0.88545 0.46453 0.24609
 H117 H 0.87180 0.43816 0.24494
 H118 H 0.82550 0.46362 0.24469
 H119 H 0.84032 0.48959 0.24585
 C120 C 0.90571 0.49557 0.19939
 C121 C 0.90473 0.49882 0.29701
 C122 C 0.84744 0.44868 0.24486
 C123 C 0.84714 0.54624 0.24790
 C124 C 0.60000 0.51512 0.73011
 H125 H 0.59775 0.52432 0.73933
 C126 C 0.59143 0.51557 0.71531
 H127 H 0.58251 0.52514 0.71328
 C128 C 0.61483 0.49186 0.72133
 H129 H 0.62428 0.48290 0.72347
 C130 C 0.60666 0.49191 0.70640
 H131 H 0.60977 0.48273 0.69741
 N132 N 0.61139 0.50331 0.73287
 C133 C 0.62020 0.50313 0.78520
 H134 H 0.63334 0.50331 0.78481
 C135 C 0.61247 0.50266 0.80008
 H136 H 0.61982 0.50249 0.81109
 C137 C 0.59487 0.50289 0.77111
 H138 H 0.58812 0.50278 0.75976
 C139 C 0.58658 0.50227 0.78583
 H140 H 0.57343 0.50187 0.78566
 Zn141 Zn 0.62416 0.50368 0.75223
 N142 N 0.61139 0.50345 0.77112
 C143 C 0.63349 0.53481 0.76326
 N144 N 0.63676 0.52286 0.75218
 C145 C 0.64795 0.52503 0.74043
 C146 C 0.65651 0.53962 0.73966
 C147 C 0.64166 0.54956 0.76289
 C148 C 0.62843 0.47063 0.75386
 C149 C 0.63630 0.45559 0.75454
 C150 C 0.66209 0.46941 0.75440
 C151 C 0.65366 0.48429 0.75361
 N152 N 0.63711 0.48457 0.75316
 H153 H 0.62420 0.53314 0.77218
 H154 H 0.65006 0.51549 0.73151
 H155 H 0.66529 0.54116 0.73016
 H156 H 0.63871 0.55889 0.77178
 H157 H 0.61529 0.47125 0.75374
 H158 H 0.62904 0.44469 0.75494
 H159 H 0.67525 0.46935 0.75462
 H160 H 0.66032 0.49554 0.75340
 C161 C 0.59543 0.50224 0.80057
 C162 C 0.59484 0.50393 0.70315
 C163 C 0.65336 0.45479 0.75474
 C164 C 0.65330 0.55218 0.75094
 C165 C 0.26905 0.10232 0.98564
 H166 H 0.25970 0.09998 0.97656
 C167 C 0.28391 0.09390 0.98497
 H168 H 0.28585 0.08499 0.97538
 C169 C 0.27810 0.11724 1.00878
 H170 H 0.27604 0.12666 1.01778
 C171 C 0.29310 0.10923 1.00851
 H172 H 0.30223 0.11243 1.01757
 N173 N 0.26640 0.11366 0.99750
 C174 C 0.21396 0.12175 0.99816
 H175 H 0.21424 0.13491 0.99811
 C176 C 0.19914 0.11380 0.99864
 H177 H 0.18806 0.12100 0.99894
 C178 C 0.22830 0.09659 0.99807
 H179 H 0.23972 0.08999 0.99806
 C180 C 0.21365 0.08808 0.99868
 H181 H 0.21394 0.07491 0.99894
 Zn182 Zn 0.24692 0.12618 0.99743
 N183 N 0.22813 0.11314 0.99767
 C184 C 0.23560 0.13543 0.96649
 N185 N 0.24668 0.13891 0.97841
 C186 C 0.25836 0.15025 0.97624
 C187 C 0.25911 0.15868 0.96161
 C188 C 0.23595 0.14347 0.95171
 C189 C 0.24569 0.13006 1.03041
 C190 C 0.24498 0.13768 1.04555
 C191 C 0.24446 0.16370 1.03217
 C192 C 0.24532 0.15547 1.01720
 N193 N 0.24608 0.13894 1.01666
 H194 H 0.22674 0.12603 0.96817
 H195 H 0.26728 0.15252 0.98576
 H196 H 0.26860 0.16752 0.96004
 H197 H 0.22710 0.14030 0.94238
 H198 H 0.24606 0.11691 1.02957
 H199 H 0.24485 0.13006 1.05617
 H200 H 0.24393 0.17687 1.03224
 H201 H 0.24529 0.16229 1.00607
 C202 C 0.19881 0.09673 0.99889
 C203 C 0.29623 0.09744 0.99645
 C204 C 0.24439 0.15481 1.04675
 C205 C 0.24789 0.15517 0.94904
 C206 C 0.73100 0.39860 0.99267
 H207 H 0.74024 0.40081 0.98378
 C208 C 0.71611 0.40697 0.99181
 H209 H 0.71404 0.41571 0.98225
 C210 C 0.72226 0.38403 1.01552
 H211 H 0.72445 0.37476 1.02447
 C212 C 0.70724 0.39200 1.01504
 H213 H 0.69823 0.38892 1.02391
 N214 N 0.73382 0.38746 1.00448
 C215 C 0.78625 0.37945 1.00662
 H216 H 0.78594 0.36630 1.00687
 C217 C 0.80111 0.38737 1.00693
 H218 H 0.81218 0.38015 1.00748
 C219 C 0.77200 0.40463 1.00557
 H220 H 0.76060 0.41126 1.00513
 C221 C 0.78669 0.41312 1.00598
 H222 H 0.78645 0.42628 1.00570
 Zn223 Zn 0.75334 0.37500 1.00467
 N224 N 0.77210 0.38808 1.00563
 C225 C 0.74202 0.35088 0.98242
 N226 N 0.75364 0.36226 0.98534
 C227 C 0.76484 0.36574 0.97396
 C228 C 0.76471 0.35765 0.95901
 C229 C 0.74149 0.34239 0.96758
 C230 C 0.75476 0.37102 1.03763
 C231 C 0.75541 0.36329 1.05255
 C232 C 0.75577 0.33736 1.03834
 C233 C 0.75496 0.34570 1.02362
 N234 N 0.75428 0.36223 1.02358
 H235 H 0.73301 0.34860 0.99152
 H236 H 0.77365 0.37518 0.97620
 H237 H 0.77368 0.36081 0.95013
 H238 H 0.73206 0.33350 0.96541
 H239 H 0.75446 0.38417 1.03720
 H240 H 0.75558 0.37082 1.06343
 H241 H 0.75621 0.32419 1.03799
 H242 H 0.75494 0.33896 1.01227
 C243 C 0.80151 0.40442 1.00646
 C244 C 0.70394 0.40359 1.00303
 C245 C 0.75586 0.34614 1.05321
 C246 C 0.75286 0.34587 0.95558
 C247 C 0.23063 0.89857 0.49021
 H248 H 0.23984 0.90079 0.48129
 C249 C 0.21566 0.90678 0.48927
 H250 H 0.21349 0.91541 0.47963
 C251 C 0.22203 0.88411 0.51318
 H252 H 0.22431 0.87494 0.52222
 C253 C 0.20693 0.89192 0.51263
 H254 H 0.19794 0.88882 0.52151
 N255 N 0.23355 0.88753 0.50210
 C256 C 0.28604 0.87970 0.50409
 H257 H 0.28578 0.86654 0.50427
 C258 C 0.30087 0.88768 0.50452
 H259 H 0.31197 0.88051 0.50507
 C260 C 0.27168 0.90482 0.50319
 H261 H 0.26025 0.91141 0.50278
 C262 C 0.28634 0.91337 0.50373
 H263 H 0.28604 0.92654 0.50357
 Zn264 Zn 0.25312 0.87514 0.50225
 N265 N 0.27186 0.88827 0.50315
 C266 C 0.24166 0.85102 0.48016
 N267 N 0.25335 0.86234 0.48296
 C268 C 0.26459 0.86563 0.47155
 C269 C 0.26443 0.85733 0.45670
 C270 C 0.24111 0.84234 0.46544
 C271 C 0.25475 0.87104 0.53525
 C272 C 0.25550 0.86318 0.55010
 C273 C 0.25562 0.83737 0.53573
 C274 C 0.25477 0.84578 0.52106
 N275 N 0.25415 0.86233 0.52114
 H276 H 0.23262 0.84891 0.48928
 H277 H 0.27346 0.87502 0.47371
 H278 H 0.27345 0.86031 0.44780
 H279 H 0.23164 0.83346 0.46337
 H280 H 0.25449 0.88420 0.53492
 H281 H 0.25581 0.87046 0.56115
 H282 H 0.25598 0.82420 0.53550
 H283 H 0.25464 0.83910 0.50968
 C284 C 0.30120 0.90475 0.50423
 C285 C 0.20350 0.90334 0.50050
 C286 C 0.25587 0.84611 0.55052
 C287 C 0.25254 0.84557 0.45342
 C288 C 0.76971 0.60138 0.48667
 H289 H 0.76031 0.59925 0.47759
 C290 C 0.78447 0.59278 0.48589
 H291 H 0.78627 0.58395 0.47620
 C292 C 0.77902 0.61598 0.50992
 H293 H 0.77711 0.62536 0.51900
 C294 C 0.79391 0.60778 0.50953
 H295 H 0.80311 0.61079 0.51859
 N296 N 0.76725 0.61268 0.49862
 C297 C 0.71495 0.62186 0.49945
 H298 H 0.71548 0.63500 0.49944
 C299 C 0.69995 0.61420 0.49988
 H300 H 0.68901 0.62163 0.50020
 C301 C 0.72876 0.59642 0.49923
 H302 H 0.74006 0.58959 0.49916
 C303 C 0.71394 0.58820 0.49980
 H304 H 0.71397 0.57504 0.49999
 Zn305 Zn 0.74802 0.62559 0.49857
 N306 N 0.72894 0.61296 0.49891
 C307 C 0.73674 0.63504 0.46766
 N308 N 0.74799 0.63825 0.47950
 C309 C 0.75992 0.64930 0.47723
 C310 C 0.76073 0.65774 0.46262
 C311 C 0.73715 0.64308 0.45289
 C312 C 0.74690 0.62981 0.53160
 C313 C 0.74655 0.63766 0.54665
 C314 C 0.74686 0.66348 0.53296
 C315 C 0.74732 0.65507 0.51807
 N316 N 0.74753 0.63851 0.51772
 H317 H 0.72767 0.62585 0.46941
 H318 H 0.76897 0.65134 0.48668
 H319 H 0.77041 0.66637 0.46098
 H320 H 0.72814 0.64015 0.44363
 H321 H 0.74683 0.61665 0.53093
 H322 H 0.74619 0.63038 0.55749
 H323 H 0.74682 0.67666 0.53307
 H324 H 0.74747 0.66175 0.50687
 C325 C 0.69927 0.59715 0.50003
 C326 C 0.79687 0.59608 0.49735
 C327 C 0.74660 0.65473 0.54751
 C328 C 0.74932 0.65453 0.45015
 C329 C 0.00754 0.23008 0.09962
 H330 H 0.01656 0.23927 0.09750
 C331 C 0.00820 0.21523 0.09113
 H332 H 0.01771 0.21314 0.08239
 C333 C -0.01540 0.22139 0.11409
 H334 H -0.02430 0.22357 0.12338
 C335 C -0.01515 0.20642 0.10599
 H336 H -0.02413 0.19745 0.10899
 N337 N -0.00419 0.23289 0.11080
 C338 C -0.00553 0.28525 0.11961
 H339 H -0.00552 0.28476 0.13273
 C340 C -0.00587 0.30023 0.11196
 H341 H -0.00613 0.31115 0.11945
 C342 C -0.00519 0.27132 0.09427
 H343 H -0.00502 0.25998 0.08749
 C344 C -0.00566 0.28613 0.08603
 H345 H -0.00573 0.28594 0.07289
 Zn346 Zn -0.00404 0.25226 0.12351
 N347 N -0.00490 0.27121 0.11078
 C348 C 0.02693 0.26342 0.13275
 N349 N 0.01541 0.25227 0.13613
 C350 C 0.01823 0.24055 0.14738
 C351 C 0.03308 0.23991 0.15589
 C352 C 0.04190 0.26318 0.14086
 C353 C -0.03700 0.25397 0.12763
 C354 C -0.05187 0.25449 0.13543
 C355 C -0.03749 0.25403 0.16122
 C356 C -0.02279 0.25340 0.15286
 N357 N -0.02287 0.25315 0.13635
 H358 H 0.02477 0.27230 0.12340
 H359 H 0.00902 0.23157 0.14956
 H360 H 0.03515 0.23043 0.16471
 H361 H 0.05088 0.27213 0.13781
 H362 H -0.03666 0.25400 0.11451
 H363 H -0.06293 0.25495 0.12815
 H364 H -0.03726 0.25405 0.17436
 H365 H -0.01139 0.25311 0.15955
 C366 C -0.00582 0.30092 0.09490
 C367 C -0.00318 0.20310 0.09441
 C368 C -0.05229 0.25442 0.15245
 C369 C 0.04520 0.25127 0.15256
 C370 C -0.00979 0.77772 0.38403
 H371 H -0.01873 0.77565 0.37453
 C372 C -0.00942 0.79279 0.39194
 H373 H -0.01836 0.80195 0.38859
 C374 C 0.01316 0.76863 0.39922
 H375 H 0.02215 0.75925 0.40169
 C376 C 0.01393 0.78358 0.40754
 H377 H 0.02349 0.78554 0.41651
 N378 N 0.00136 0.76597 0.38777
 C379 C 0.00036 0.71347 0.37932
 H380 H 0.00048 0.71385 0.36620
 C381 C -0.00034 0.69857 0.38709
 H382 H -0.00072 0.68754 0.37977
 C383 C 0.00046 0.72760 0.40457
 H384 H 0.00057 0.73899 0.41128
 C385 C -0.00036 0.71287 0.41289
 H386 H -0.00070 0.71305 0.42602
 Zn387 Zn 0.00136 0.74647 0.37521
 N388 N 0.00094 0.72758 0.38807
 C389 C 0.03230 0.73511 0.36593
 N390 N 0.02044 0.74626 0.36258
 C391 C 0.02266 0.75800 0.35135
 C392 C 0.03725 0.75872 0.34289
 C393 C 0.04706 0.73544 0.35786
 C394 C -0.03171 0.74543 0.37106
 C395 C -0.04683 0.74498 0.36330
 C396 C -0.03325 0.74444 0.33748
 C397 C -0.01830 0.74506 0.34584
 N398 N -0.01786 0.74573 0.36234
 H399 H 0.03058 0.72619 0.37524
 H400 H 0.01318 0.76697 0.34918
 H401 H 0.03885 0.76825 0.33412
 H402 H 0.05634 0.72651 0.36090
 H403 H -0.03095 0.74573 0.38418
 H404 H -0.05754 0.74495 0.37080
 H405 H -0.03322 0.74400 0.32434
 H406 H -0.00710 0.74495 0.33914
 C407 C -0.00070 0.69808 0.40410
 C408 C 0.00261 0.79596 0.40380
 C409 C -0.04792 0.74454 0.34620
 C410 C 0.04976 0.74742 0.34623
 C411 C 0.51305 0.26915 0.89917
 H412 H 0.52216 0.25987 0.90156
 C413 C 0.51358 0.28401 0.90765
 H414 H 0.52310 0.28602 0.91664
 C415 C 0.48995 0.27803 0.88408
 H416 H 0.48103 0.27591 0.87457
 C417 C 0.49009 0.29302 0.89215
 H418 H 0.48100 0.30208 0.88889
 N419 N 0.50129 0.26642 0.88770
 C420 C 0.50083 0.21393 0.87923
 H421 H 0.50114 0.21423 0.86611
 C422 C 0.50008 0.19907 0.88707
 H423 H 0.49985 0.18799 0.87983
 C424 C 0.50047 0.22821 0.90439
 H425 H 0.50039 0.23963 0.91103
 C426 C 0.49958 0.21353 0.91278
 H427 H 0.49902 0.21380 0.92590
 Zn428 Zn 0.50159 0.24699 0.87505
 N429 N 0.50120 0.22809 0.88790
 C430 C 0.52301 0.25889 0.85154
 N431 N 0.52078 0.24701 0.86261
 C432 C 0.53269 0.23588 0.86592
 C433 C 0.54749 0.23639 0.85794
 C434 C 0.53765 0.25978 0.84317
 C435 C 0.46857 0.24547 0.87057
 C436 C 0.45354 0.24497 0.86262
 C437 C 0.46737 0.24517 0.83696
 C438 C 0.48225 0.24578 0.84547
 N439 N 0.48251 0.24613 0.86199
 H440 H 0.51350 0.26783 0.84940
 H441 H 0.53094 0.22685 0.87512
 H442 H 0.55680 0.22747 0.86094
 H443 H 0.53924 0.26941 0.83451
 H444 H 0.46918 0.24552 0.88369
 H445 H 0.44264 0.24462 0.86981
 H446 H 0.46732 0.24505 0.82382
 H447 H 0.49350 0.24596 0.83888
 C448 C 0.49943 0.19869 0.90408
 C449 C 0.50206 0.29625 0.90405
 C450 C 0.45276 0.24492 0.84560
 C451 C 0.55019 0.24850 0.84646
 C452 C 0.50859 0.73133 0.60039
 H453 H 0.51925 0.73885 0.60020
 C454 C 0.50813 0.71708 0.59098
 H455 H 0.51855 0.71378 0.58373
 C456 C 0.48224 0.72633 0.61022
 H457 H 0.47204 0.73003 0.61752
 C458 C 0.48133 0.71191 0.60114
 H459 H 0.47048 0.70461 0.60177
 N460 N 0.49596 0.73544 0.61014
 C461 C 0.50341 0.78662 0.62128
 H462 H 0.50698 0.78574 0.63394
 C463 C 0.50379 0.80159 0.61358
 H464 H 0.50770 0.81220 0.62046
 C465 C 0.49391 0.77370 0.59712
 H466 H 0.49002 0.76275 0.59083
 C467 C 0.49406 0.78849 0.58891
 H468 H 0.49030 0.78878 0.57627
 Zn469 Zn 0.49813 0.75349 0.62469
 N470 N 0.49844 0.77310 0.61304
 C471 C 0.53174 0.75587 0.62782
 N472 N 0.51825 0.75176 0.63611
 C473 C 0.51930 0.74727 0.65194
 C474 C 0.53443 0.74648 0.65990
 C475 C 0.54704 0.75530 0.63528
 C476 C 0.47093 0.76775 0.64015
 C477 C 0.45704 0.76807 0.64966
 C478 C 0.46274 0.74028 0.65722
 C479 C 0.47677 0.74062 0.64789
 N480 N 0.48040 0.75410 0.63928
 H481 H 0.53059 0.75989 0.61541
 H482 H 0.50845 0.74433 0.65845
 H483 H 0.53502 0.74285 0.67248
 H484 H 0.55754 0.75867 0.62836
 H485 H 0.47384 0.77831 0.63316
 H486 H 0.44947 0.77893 0.64988
 H487 H 0.45974 0.72928 0.66357
 H488 H 0.48442 0.72988 0.64695
 C489 C 0.49900 0.80271 0.59719
 C490 C 0.49455 0.70693 0.59165
 C491 C 0.45261 0.75410 0.65803
 C492 C 0.54857 0.75053 0.65154
 C493 C 0.87989 1.00187 0.71456
 H494 H 0.86674 1.00179 0.71481
 C495 C 0.88751 1.00225 0.70041
 H496 H 0.88029 1.00250 0.68931
 C497 C 0.90482 1.00188 0.72978
 H498 H 0.91143 1.00199 0.74121
 C499 C 0.91381 1.00243 0.71437
 H500 H 0.92697 1.00266 0.71493
 N501 N 0.88899 1.00143 0.72956
 C502 C 0.88488 1.01271 0.78023
 H503 H 0.87574 1.02200 0.77810
 C504 C 0.89233 1.01197 0.79472
 H505 H 0.88919 1.02089 0.80395
 C506 C 0.89920 0.98938 0.77020
 H507 H 0.90133 0.98032 0.76082
 C508 C 0.90799 0.98824 0.78594
 H509 H 0.91672 0.97843 0.78759
 Zn510 Zn 0.87600 1.00117 0.74828
 N511 N 0.88856 1.00095 0.76773
 C512 C 0.86632 0.97031 0.73683
 N513 N 0.86310 0.98221 0.74797
 C514 C 0.85190 0.98004 0.75971
 C515 C 0.84337 0.96543 0.76049
 C516 C 0.85817 0.95555 0.73721
 C517 C 0.87230 1.03433 0.74732
 C518 C 0.86466 1.04949 0.74661
 C519 C 0.83868 1.03603 0.74587
 C520 C 0.84687 1.02102 0.74670
 N521 N 0.86340 1.02051 0.74756
 H522 H 0.87562 0.97199 0.72792
 H523 H 0.84985 0.98955 0.76867
 H524 H 0.83466 0.96386 0.77005
 H525 H 0.86114 0.94621 0.72832
 H526 H 0.88543 1.03352 0.74778
 H527 H 0.87208 1.06029 0.74654
 H528 H 0.82552 1.03626 0.74526
 H529 H 0.84005 1.00986 0.74656
 C530 C 0.90459 0.99894 0.79800
 C531 C 0.90557 1.00251 0.70007
 C532 C 0.84762 1.05053 0.74591
 C533 C 0.84662 0.95287 0.74924
 C534 C 0.40386 0.49841 0.22968
 H535 H 0.41046 0.49846 0.24113
 C536 C 0.41236 0.49906 0.21509
 H537 H 0.42551 0.49942 0.21544
 C538 C 0.37872 0.49831 0.21526
 H539 H 0.36557 0.49819 0.21547
 C540 C 0.38666 0.49883 0.20049
 H541 H 0.37945 0.49907 0.18940
 N542 N 0.38733 0.49792 0.22945
 C543 C 0.38325 0.50959 0.27918
 H544 H 0.37392 0.51864 0.27689
 C545 C 0.39113 0.50942 0.29427
 H546 H 0.38793 0.51860 0.30323
 C547 C 0.39804 0.48622 0.27062
 H548 H 0.40037 0.47700 0.26143
 C549 C 0.40632 0.48565 0.28558
 H550 H 0.41511 0.47600 0.28775
 Zn551 Zn 0.37430 0.49782 0.24817
 N552 N 0.38680 0.49812 0.26770
 C553 C 0.36496 0.46669 0.23716
 N554 N 0.36156 0.47872 0.24811
 C555 C 0.35027 0.47662 0.25979
 C556 C 0.34182 0.46196 0.26067
 C557 C 0.35690 0.45189 0.23765
 C558 C 0.37045 0.53087 0.24630
 C559 C 0.36281 0.54601 0.24538
 C560 C 0.33682 0.53259 0.24538
 C561 C 0.34502 0.51759 0.24640
 N562 N 0.36155 0.51707 0.24702
 H563 H 0.37432 0.46833 0.22830
 H564 H 0.34806 0.48622 0.26861
 H565 H 0.33301 0.46045 0.27015
 H566 H 0.36000 0.44247 0.22889
 H567 H 0.38358 0.53005 0.24658
 H568 H 0.37025 0.55679 0.24496
 H569 H 0.32366 0.53284 0.24501
 H570 H 0.33819 0.50644 0.24665
 C571 C 0.40276 0.49728 0.29770
 C572 C 0.40371 0.49921 0.20023
 C573 C 0.34577 0.54707 0.24497
 C574 C 0.34523 0.44928 0.24958
 C575 C 0.59522 1.00238 0.27164
 H576 H 0.58832 1.00236 0.26037
 C577 C 0.58747 1.00352 0.28584
 H578 H 0.57433 1.00429 0.28581
 C579 C 0.62128 1.00192 0.28476
 H580 H 0.63440 1.00149 0.28422
 C581 C 0.61334 1.00293 0.30060
 H582 H 0.62103 1.00307 0.31138
 N583 N 0.61268 1.00140 0.27139
 C584 C 0.61510 1.01144 0.22152
 H585 H 0.62464 1.02022 0.22336
 C586 C 0.60654 1.01113 0.20681
 H587 H 0.60946 1.01996 0.19769
 C588 C 0.60040 0.98884 0.23083
 H589 H 0.59835 0.97999 0.24017
 C590 C 0.59144 0.98814 0.21625
 H591 H 0.58243 0.97875 0.21451
 Zn592 Zn 0.62509 1.00043 0.25228
 N593 N 0.61190 1.00045 0.23321
 C594 C 0.64881 0.97837 0.24014
 N595 N 0.63774 0.98102 0.25202
 C596 C 0.63453 0.96935 0.26304
 C597 C 0.64260 0.95438 0.26245
 C598 C 0.65727 0.96353 0.23916
 C599 C 0.62916 1.03345 0.25355
 C600 C 0.63690 1.04842 0.25404
 C601 C 0.66280 1.03426 0.25383
 C602 C 0.65447 1.01947 0.25320
 N603 N 0.63794 1.01939 0.25288
 H604 H 0.65086 0.98769 0.23127
 H605 H 0.62532 0.97141 0.27206
 H606 H 0.63967 0.94527 0.27129
 H607 H 0.66593 0.96159 0.22954
 H608 H 0.61602 1.03299 0.25353
 H609 H 0.62944 1.05935 0.25438
 H610 H 0.67596 1.03404 0.25400
 H611 H 0.66122 1.00812 0.25303
 C612 C 0.59459 0.99933 0.20395
 C613 C 0.59699 1.00371 0.30138
 C614 C 0.65399 1.04908 0.25414
 C615 C 0.65408 0.95124 0.25035
 C616 C 0.09562 0.50157 0.77004
 H617 H 0.08870 0.50141 0.75879
 C618 C 0.08755 0.50249 0.78487
 H619 H 0.07439 0.50285 0.78489
 C620 C 0.12117 0.50163 0.78373
 H621 H 0.13430 0.50139 0.78314
 C622 C 0.11365 0.50242 0.79873
 H623 H 0.12116 0.50279 0.80964
 N624 N 0.11215 0.50097 0.76979
 C625 C 0.11422 0.51120 0.72004
 H626 H 0.12354 0.52020 0.72194
 C627 C 0.10567 0.51079 0.70532
 H628 H 0.10838 0.51976 0.69626
 C629 C 0.10008 0.48816 0.72916
 H630 H 0.09827 0.47917 0.73843
 C631 C 0.09115 0.48735 0.71458
 H632 H 0.08239 0.47774 0.71277
 Zn633 Zn 0.12452 0.50002 0.75067
 N634 N 0.11131 0.50002 0.73163
 C635 C 0.14800 0.47791 0.73833
 N636 N 0.13714 0.48063 0.75038
 C637 C 0.13416 0.46906 0.76157
 C638 C 0.14227 0.45411 0.76098
 C639 C 0.15651 0.46311 0.73734
 C640 C 0.12887 0.53306 0.75209
 C641 C 0.13682 0.54792 0.75256
 C642 C 0.16252 0.53342 0.75200
 C643 C 0.15401 0.51875 0.75141
 N644 N 0.13747 0.51888 0.75126
 H645 H 0.14986 0.48716 0.72934
 H646 H 0.12512 0.47118 0.77074
 H647 H 0.13954 0.44508 0.76996
 H648 H 0.16500 0.46111 0.72759
 H649 H 0.11572 0.53277 0.75222
 H650 H 0.12963 0.55901 0.75307
 H651 H 0.17568 0.53315 0.75198
 H652 H 0.16062 0.50732 0.75112
 C653 C 0.09403 0.49870 0.70236
 C654 C 0.09662 0.50281 0.79948
 C655 C 0.15387 0.54827 0.75244
 C656 C 0.15355 0.45091 0.74870
 C657 C 0.77080 0.89897 -0.00998
 H658 H 0.76132 0.90090 -0.01902
 C659 C 0.78537 0.90755 -0.01080
 H660 H 0.78694 0.91617 -0.02047
 C661 C 0.78050 0.88485 0.01316
 H662 H 0.77881 0.87566 0.02221
 C663 C 0.79523 0.89305 0.01274
 H664 H 0.80454 0.89022 0.02173
 N665 N 0.76863 0.88791 0.00192
 C666 C 0.71654 0.87886 0.00272
 H667 H 0.71731 0.86571 0.00255
 C668 C 0.70141 0.88657 0.00321
 H669 H 0.69060 0.87918 0.00342
 C670 C 0.72991 0.90426 0.00281
 H671 H 0.74109 0.91106 0.00281
 C672 C 0.71494 0.91253 0.00342
 H673 H 0.71474 0.92570 0.00373
 Zn674 Zn 0.74966 0.87502 0.00172
 N675 N 0.73038 0.88771 0.00229
 C676 C 0.74904 0.84564 0.02052
 N677 N 0.74935 0.86218 0.02059
 C678 C 0.74867 0.87091 0.03468
 C679 C 0.74804 0.86307 0.04952
 C680 C 0.74829 0.83724 0.03518
 C681 C 0.73856 0.86560 -0.02941
 C682 C 0.73918 0.85761 -0.04441
 C683 C 0.76293 0.84280 -0.03500
 C684 C 0.76192 0.85118 -0.02014
 N685 N 0.74982 0.86230 -0.01762
 H686 H 0.74922 0.83894 0.00915
 H687 H 0.74866 0.88406 0.03434
 H688 H 0.74758 0.87036 0.06054
 H689 H 0.74809 0.82407 0.03496
 H690 H 0.72936 0.87483 -0.02744
 H691 H 0.73016 0.86064 -0.05362
 H692 H 0.77275 0.83413 -0.03685
 H693 H 0.77097 0.84906 -0.01072
 C694 C 0.70043 0.90363 0.00351
 C695 C 0.79790 0.90448 0.00057
 C696 C 0.75155 0.84613 -0.04744
 C697 C 0.74786 0.84600 0.04995
 C698 C 0.26937 0.40340 0.49900
 H699 H 0.25794 0.41001 0.49889
 C700 C 0.28402 0.41190 0.49835
 H701 H 0.28373 0.42506 0.49793
 C702 C 0.28368 0.37824 0.49923
 H703 H 0.28341 0.36509 0.49940
 C704 C 0.29852 0.38618 0.49870
 H705 H 0.30960 0.37897 0.49851
 N706 N 0.26952 0.38686 0.49955
 C707 C 0.21970 0.38308 0.48777
 H708 H 0.22187 0.37374 0.47870
 C709 C 0.20471 0.39112 0.48790
 H710 H 0.19570 0.38803 0.47869
 C711 C 0.22844 0.39774 0.51119
 H712 H 0.23767 0.39997 0.52043
 C713 C 0.21359 0.40619 0.51173
 H714 H 0.21154 0.41499 0.52138
 Zn715 Zn 0.25066 0.37388 0.49965
 N716 N 0.23123 0.38649 0.49928
 C717 C 0.26163 0.36458 0.53073
 N718 N 0.25060 0.36122 0.51872
 C719 C 0.23881 0.34998 0.52077
 C720 C 0.23791 0.34147 0.53534
 C721 C 0.26112 0.35647 0.54546
 C722 C 0.25247 0.36969 0.46668
 C723 C 0.25341 0.36185 0.45165
 C724 C 0.25335 0.33601 0.46532
 C725 C 0.25230 0.34441 0.48019
 N726 N 0.25171 0.36096 0.48053
 H727 H 0.27058 0.37390 0.52913
 H728 H 0.22994 0.34781 0.51118
 H729 H 0.22836 0.33267 0.53680
 H730 H 0.26995 0.35950 0.55486
 H731 H 0.25223 0.38284 0.46735
 H732 H 0.25388 0.36915 0.44083
 H733 H 0.25371 0.32284 0.46521
 H734 H 0.25205 0.33772 0.49138
 C735 C 0.20142 0.40278 0.50005
 C736 C 0.29887 0.40324 0.49825
 C737 C 0.25381 0.34479 0.45079
 C738 C 0.24909 0.34481 0.54799
 C739 C 0.23095 0.59604 -0.00307
 H740 H 0.24226 0.58924 -0.00274
 C741 C 0.21616 0.58777 -0.00422
 H742 H 0.21633 0.57460 -0.00461
 C743 C 0.21708 0.62143 -0.00330
 H744 H 0.21759 0.63458 -0.00304
 C745 C 0.20211 0.61375 -0.00432
 H746 H 0.19122 0.62125 -0.00480
 N747 N 0.23108 0.61258 -0.00245
 C748 C 0.27181 0.60113 0.01092
 H749 H 0.26238 0.59897 0.01962
 C750 C 0.28658 0.59257 0.01199
 H751 H 0.28837 0.58373 0.02150
 C752 C 0.28117 0.61580 -0.01161
 H753 H 0.27928 0.62518 -0.02050
 C754 C 0.29609 0.60764 -0.01092
 H755 H 0.30531 0.61069 -0.01957
 Zn756 Zn 0.25010 0.62528 -0.00115
 N757 N 0.26937 0.61244 -0.00081
 C758 C 0.23859 0.63471 0.02956
 N759 N 0.24991 0.63796 0.01821
 C760 C 0.26175 0.64909 0.02116
 C761 C 0.26240 0.65759 0.03598
 C762 C 0.23885 0.64282 0.04451
 C763 C 0.24912 0.62943 -0.03409
 C764 C 0.24878 0.63725 -0.04896
 C765 C 0.24888 0.66311 -0.03466
 C766 C 0.24933 0.65472 -0.01996
 N767 N 0.24964 0.63816 -0.01999
 H768 H 0.22960 0.62546 0.02727
 H769 H 0.27085 0.65116 0.01210
 H770 H 0.27200 0.66630 0.03817
 H771 H 0.22978 0.63986 0.05336
 H772 H 0.24912 0.61627 -0.03372
 H773 H 0.24851 0.62995 -0.05999
 H774 H 0.24876 0.67628 -0.03447
 H775 H 0.24939 0.66143 -0.00859
 C776 C 0.29902 0.59593 0.00105
 C777 C 0.20139 0.59665 -0.00474
 C778 C 0.24873 0.65432 -0.04943
 C779 C 0.25091 0.65437 0.04795
 C780 C 0.73095 0.09755 0.49899
 H781 H 0.74219 0.09064 0.49916
 C782 C 0.71606 0.08945 0.49799
 H783 H 0.71599 0.07628 0.49759
 C784 C 0.71732 0.12309 0.49895
 H785 H 0.71796 0.13623 0.49921
 C786 C 0.70226 0.11555 0.49807
 H787 H 0.69138 0.12305 0.49766
 N788 N 0.73125 0.11409 0.49962
 C789 C 0.78112 0.11682 0.48943
 H790 H 0.77916 0.12631 0.48066
 C791 C 0.79587 0.10836 0.48960
 H792 H 0.80490 0.11131 0.48070
 C793 C 0.77211 0.10213 0.51208
 H794 H 0.76288 0.10004 0.52101
 C795 C 0.78673 0.09326 0.51265
 H796 H 0.78861 0.08428 0.52201
 Zn797 Zn 0.75040 0.12661 0.50060
 N798 N 0.76955 0.11357 0.50051
 C799 C 0.73950 0.13609 0.53149
 N800 N 0.75065 0.13929 0.51997
 C801 C 0.76253 0.15043 0.52271
 C802 C 0.76337 0.15902 0.53748
 C803 C 0.73995 0.14427 0.54639
 C804 C 0.74880 0.13071 0.46770
 C805 C 0.74826 0.13848 0.45280
 C806 C 0.74889 0.16438 0.46701
 C807 C 0.74954 0.15604 0.48174
 N808 N 0.74968 0.13948 0.48176
 H809 H 0.73048 0.12683 0.52936
 H810 H 0.77149 0.15248 0.51350
 H811 H 0.77297 0.16775 0.53949
 H812 H 0.73099 0.14137 0.55537
 H813 H 0.74868 0.11756 0.46811
 H814 H 0.74771 0.13115 0.44181
 H815 H 0.74891 0.17755 0.46715
 H816 H 0.74988 0.16278 0.49308
 C817 C 0.79891 0.09645 0.50136
 C818 C 0.70145 0.09850 0.49762
 C819 C 0.74838 0.15554 0.45228
 C820 C 0.75203 0.15586 0.54961
 C821 C 1.00491 0.72918 0.90461
 H822 H 1.00490 0.74049 0.91145
 C823 C 1.00611 0.71497 0.91241
 H824 H 1.00691 0.71502 0.92554
 C825 C 1.00443 0.71599 0.87864
 H826 H 1.00394 0.71651 0.86553
 C827 C 1.00551 0.70013 0.88664
 H828 H 1.00565 0.68930 0.87901
 N829 N 1.00387 0.72939 0.88718
 C830 C 1.01389 0.78023 0.88447
 H831 H 1.02278 0.77841 0.87509
 C832 C 1.01323 0.79447 0.89241
 H833 H 1.02183 0.80381 0.88941
 C834 C 0.99143 0.76973 0.89886
 H835 H 0.98266 0.76027 0.90086
 C836 C 0.99038 0.78520 0.90816
 H837 H 0.98093 0.78659 0.91710
 Zn838 Zn 1.00265 0.74857 0.87479
 N839 N 1.00255 0.76761 0.88794
 C840 C 0.98045 0.76081 0.85134
 N841 N 0.98321 0.74872 0.86220
 C842 C 0.97165 0.73750 0.86522
 C843 C 0.95664 0.73812 0.85717
 C844 C 0.96559 0.76182 0.84290
 C845 C 1.03563 0.74787 0.87048
 C846 C 1.05044 0.74758 0.86255
 C847 C 1.03584 0.74754 0.83687
 C848 C 1.02121 0.74796 0.84536
 N849 N 1.02142 0.74829 0.86187
 H850 H 0.98970 0.76982 0.84945
 H851 H 0.97381 0.72830 0.87427
 H852 H 0.94760 0.72913 0.85994
 H853 H 0.96356 0.77162 0.83442
 H854 H 1.03540 0.74789 0.88361
 H855 H 1.06156 0.74737 0.86975
 H856 H 1.03551 0.74736 0.82373
 H857 H 1.00976 0.74793 0.83875
 C858 C 1.00070 0.79737 0.90497
 C859 C 1.00629 0.69938 0.90297
 C860 C 1.05072 0.74746 0.84552
 C861 C 0.95339 0.75046 0.84591
 C862 C 0.49110 0.22904 0.39952
 H863 H 0.48131 0.23760 0.40180
 C864 C 0.49212 0.21463 0.40835
 H865 H 0.48322 0.21232 0.41757
 C866 C 0.51398 0.22108 0.38409
 H867 H 0.52234 0.22343 0.37444
 C868 C 0.51524 0.20644 0.39237
 H869 H 0.52471 0.19780 0.38912
 N870 N 0.50198 0.23202 0.38764
 C871 C 0.49973 0.28429 0.37789
 H872 H 0.50148 0.28369 0.36494
 C873 C 0.49888 0.29942 0.38564
 H874 H 0.49964 0.31029 0.37842
 C875 C 0.49747 0.27083 0.40296
 H876 H 0.49733 0.25972 0.40977
 C877 C 0.49648 0.28577 0.41125
 H878 H 0.49537 0.28590 0.42433
 Zn879 Zn 0.50001 0.25065 0.37418
 N880 N 0.49874 0.27035 0.38650
 C881 C 0.47799 0.26003 0.34903
 N882 N 0.48110 0.24876 0.36067
 C883 C 0.47049 0.23652 0.36330
 C884 C 0.45574 0.23580 0.35474
 C885 C 0.46342 0.25971 0.34009
 C886 C 0.53259 0.25652 0.36975
 C887 C 0.54742 0.25701 0.36186
 C888 C 0.53391 0.24782 0.33721
 C889 C 0.51925 0.24759 0.34560
 N890 N 0.51893 0.25181 0.36160
 H891 H 0.48672 0.26938 0.34672
 H892 H 0.47321 0.22742 0.37228
 H893 H 0.44734 0.22616 0.35735
 H894 H 0.46106 0.26902 0.33116
 H895 H 0.53197 0.25968 0.38251
 H896 H 0.55815 0.26065 0.36871
 H897 H 0.53401 0.24423 0.32452
 H898 H 0.50823 0.24371 0.33943
 C899 C 0.49711 0.30033 0.40254
 C900 C 0.50416 0.20302 0.40459
 C901 C 0.54828 0.25249 0.34540
 C902 C 0.45191 0.24768 0.34316
 C903 C 0.98467 0.27295 0.60237
 H904 H 0.97371 0.26590 0.60343
 C905 C 0.98454 0.28689 0.59280
 H906 H 0.97340 0.29034 0.58652
 C907 C 1.01224 0.27718 0.60970
 H908 H 1.02296 0.27366 0.61655
 C909 C 1.01284 0.29084 0.59987
 H910 H 1.02412 0.29747 0.59937
 N911 N 0.99828 0.26860 0.61093
 C912 C 1.00052 0.21716 0.62248
 H913 H 1.00486 0.21820 0.63489
 C914 C 1.00000 0.20190 0.61495
 H915 H 1.00371 0.19133 0.62184
 C916 C 0.99113 0.22982 0.59839
 H917 H 0.98784 0.24075 0.59193
 C918 C 0.99037 0.21472 0.59036
 H919 H 0.98644 0.21423 0.57777
 Zn920 Zn 0.99791 0.25085 0.62564
 N921 N 0.99605 0.23074 0.61422
 C922 C 0.97685 0.24062 0.65016
 N923 N 0.98015 0.25316 0.64013
 C924 C 0.97046 0.26668 0.63979
 C925 C 0.95626 0.26743 0.64886
 C926 C 0.96285 0.24093 0.65955
 C927 C 1.03103 0.24449 0.62945
 C928 C 1.04630 0.24447 0.63701
 C929 C 1.03407 0.25616 0.66103
 C930 C 1.01897 0.25591 0.65297
 N931 N 1.01780 0.25030 0.63741
 H932 H 0.98482 0.23013 0.65057
 H933 H 0.97352 0.27682 0.63228
 H934 H 0.94849 0.27811 0.64802
 H935 H 0.96022 0.23057 0.66702
 H936 H 1.02974 0.24013 0.61706
 H937 H 1.05660 0.23993 0.63022
 H938 H 1.03471 0.26090 0.67334
 H939 H 1.00825 0.26050 0.65902
 C940 C 0.99488 0.20050 0.59867
 C941 C 0.99875 0.29619 0.59154
 C942 C 1.04809 0.25053 0.65299
 C943 C 0.95210 0.25427 0.65863
 C944 C 0.48445 0.77268 0.10278
 H945 H 0.47373 0.76522 0.10348
 C946 C 0.48409 0.78667 0.09328
 H947 H 0.47309 0.78985 0.08661
 C948 C 0.51159 0.77802 0.11107
 H949 H 0.52220 0.77493 0.11830
 C950 C 0.51190 0.79182 0.10142
 H951 H 0.52278 0.79912 0.10133
 N952 N 0.49797 0.76879 0.11172
 C953 C 0.50069 0.71724 0.12304
 H954 H 0.50506 0.71831 0.13543
 C955 C 0.50003 0.70195 0.11559
 H956 H 0.50369 0.69138 0.12251
 C957 C 0.49125 0.72984 0.09894
 H958 H 0.48798 0.74074 0.09244
 C959 C 0.49036 0.71471 0.09098
 H960 H 0.48634 0.71419 0.07842
 Zn961 Zn 0.49784 0.75090 0.12627
 N962 N 0.49621 0.73081 0.11475
 C963 C 0.47694 0.74035 0.15081
 N964 N 0.48002 0.75289 0.14071
 C965 C 0.47002 0.76617 0.14019
 C966 C 0.45573 0.76666 0.14913
 C967 C 0.46286 0.74040 0.16008
 C968 C 0.53108 0.74523 0.12992
 C969 C 0.54634 0.74523 0.13750
 C970 C 0.53389 0.75587 0.16186
 C971 C 0.51880 0.75562 0.15379
 N972 N 0.51774 0.75049 0.13805
 H973 H 0.48516 0.73006 0.15136
 H974 H 0.47287 0.77632 0.13259
 H975 H 0.44771 0.77714 0.14812
 H976 H 0.46041 0.73002 0.16760
 H977 H 0.52987 0.74125 0.11740
 H978 H 0.55678 0.74115 0.13068
 H979 H 0.53454 0.76018 0.17432
 H980 H 0.50800 0.75978 0.15997
 C981 C 0.49476 0.70049 0.09935
 C982 C 0.49793 0.79647 0.09262
 C983 C 0.54794 0.75074 0.15365
 C984 C 0.45180 0.75347 0.15895
 O985 O 0.03426 1.03097 0.99733
 O986 O 0.02142 1.03339 0.97224
 O987 O -0.00489 1.03578 1.03121
 O988 O -0.02780 1.02305 1.03687
 O989 O 0.03075 0.99654 1.03614
 O990 O 0.03448 0.97123 1.02250
 O991 O -0.04715 0.99088 0.98930
 O992 O -0.04818 1.01715 0.99904
 O993 O -0.01065 0.98821 0.95460
 O994 O 0.01775 0.99621 0.95373
 O995 O -0.01148 0.95356 0.99124
 O996 O -0.00350 0.95282 1.01944
 O997 O -0.03687 0.96857 1.00215
 O998 O -0.02216 0.96522 1.02906
 O999 O 0.00119 0.96308 0.96900
 O1000 O 0.02763 0.97739 0.96561
 O1001 O -0.03317 1.00097 0.96444
 O1002 O -0.03340 1.02858 0.97707
 O1003 O 0.04484 1.00829 1.00933
 O1004 O 0.04519 0.97987 1.00165
 O1005 O 0.00839 1.00949 1.04609
 O1006 O -0.02021 0.99997 1.04551
 O1007 O 0.00819 1.04540 1.00922
 O1008 O -0.00251 1.04441 0.98097
 Zr1009 Zr 0.00969 1.02520 0.99330
 O1010 O -0.00483 1.01080 0.97767
 Zr1011 Zr -0.00787 1.01084 1.02614
 O1012 O -0.02353 0.99630 1.01181
 Zr1013 Zr 0.02498 0.99244 1.01147
 O1014 O 0.01075 0.97669 0.99689
 Zr1015 Zr -0.02712 1.00647 0.98877
 O1016 O -0.01323 1.02224 1.00390
 Zr1017 Zr 0.00574 0.98768 0.97447
 O1018 O 0.02138 1.00276 0.98847
 Zr1019 Zr -0.01223 0.97372 1.00722
 O1020 O 0.00289 0.98769 1.02299
 O1021 O 0.01456 1.01514 1.01592
 O1022 O -0.01694 0.98350 0.98441
 C1023 C 0.04612 1.02263 1.00339
 C1024 C 0.00169 1.04724 1.02321
 C1025 C 0.02267 1.00320 1.04772
 C1026 C -0.04851 0.97658 0.99524
 C1027 C -0.02514 0.99401 0.95301
 C1028 C -0.00558 0.95175 0.97698
 H1029 H -0.00646 1.01648 0.96725
 H1030 H 0.01660 0.96620 0.99559
 H1031 H 0.02152 1.02219 1.02287
 H1032 H -0.03399 0.99516 1.01742
 H1033 H -0.04473 1.02749 1.00425
 H1034 H -0.03740 1.02080 1.02987
 H1035 H 0.03059 0.96803 0.97252
 H1036 H 0.04687 0.98436 0.99072
 H1037 H -0.04420 1.02721 0.97175
 H1038 H 0.00390 1.05451 0.98237
 H1039 H 0.00750 0.95034 1.01538
 H1040 H 0.02583 0.96712 1.02956
 H1041 H 0.02810 1.02418 0.96815
 H1042 H 0.01284 1.00684 0.95085
 H1043 H -0.01410 0.98993 1.04833
 H1044 H -0.03181 0.97202 1.03156
 O1045 O 0.49476 0.53835 0.53195
 O1046 O 0.47018 0.52565 0.53496
 O1047 O 0.52967 0.49886 0.53668
 O1048 O 0.53522 0.47535 0.52417
 O1049 O 0.53367 0.53334 0.49753
 O1050 O 0.51971 0.53655 0.47230
 O1051 O 0.48796 0.45581 0.49245
 O1052 O 0.49766 0.45547 0.51869
 O1053 O 0.45231 0.49295 0.49019
 O1054 O 0.45138 0.52166 0.49785
 O1055 O 0.48877 0.49076 0.45502
 O1056 O 0.51710 0.49840 0.45423
 O1057 O 0.49981 0.46559 0.46980
 O1058 O 0.52668 0.47946 0.46624
 O1059 O 0.46632 0.50373 0.46470
 O1060 O 0.46284 0.53068 0.47882
 O1061 O 0.46282 0.47030 0.50215
 O1062 O 0.47535 0.47073 0.52985
 O1063 O 0.50698 0.54803 0.50943
 O1064 O 0.49880 0.54789 0.48120
 O1065 O 0.54414 0.51094 0.50999
 O1066 O 0.54368 0.48210 0.50103
 O1067 O 0.50758 0.51247 0.54645
 O1068 O 0.47941 0.50188 0.54572
 Zr1069 Zr 0.49132 0.51357 0.52646
 O1070 O 0.47568 0.49889 0.51223
 Zr1071 Zr 0.52427 0.49515 0.51189
 O1072 O 0.50995 0.47935 0.49750
 Zr1073 Zr 0.50901 0.52778 0.49360
 O1074 O 0.49437 0.51340 0.47802
 Zr1075 Zr 0.48704 0.47633 0.50784
 O1076 O 0.50218 0.49040 0.52345
 Zr1077 Zr 0.47208 0.50896 0.48917
 O1078 O 0.48612 0.52476 0.50408
 Zr1079 Zr 0.50496 0.49019 0.47501
 O1080 O 0.52075 0.50540 0.48881
 O1081 O 0.51383 0.51785 0.51623
 O1082 O 0.48229 0.48603 0.48495
 C1083 C 0.50083 0.54986 0.52361
 C1084 C 0.52171 0.50586 0.54817
 C1085 C 0.54550 0.52513 0.50382
 C1086 C 0.49340 0.45414 0.47798
 C1087 C 0.45108 0.47844 0.49562
 C1088 C 0.47434 0.49665 0.45332
 H1089 H 0.46533 0.49753 0.51798
 H1090 H 0.49289 0.51901 0.46756
 H1091 H 0.52080 0.52492 0.52316
 H1092 H 0.51567 0.46877 0.49632
 H1093 H 0.50281 0.45919 0.52901
 H1094 H 0.52835 0.46578 0.52188
 H1095 H 0.46966 0.53329 0.46944
 H1096 H 0.48785 0.54977 0.48574
 H1097 H 0.47016 0.45995 0.52846
 H1098 H 0.48095 0.50841 0.55583
 H1099 H 0.51260 0.50925 0.45154
 H1100 H 0.52692 0.52774 0.46824
 H1101 H 0.46571 0.53202 0.52577
 H1102 H 0.44856 0.51698 0.50843
 H1103 H 0.54610 0.48764 0.49076
 H1104 H 0.52934 0.46994 0.47305
 O1105 O 0.50452 -0.03267 0.53179
 O1106 O 0.52963 -0.02031 0.53450
 O1107 O 0.47003 0.00646 0.53581
 O1108 O 0.46458 0.02995 0.52341
 O1109 O 0.46538 -0.02887 0.49695
 O1110 O 0.47867 -0.03276 0.47173
 O1111 O 0.51063 0.04865 0.49210
 O1112 O 0.50193 0.04960 0.51824
 O1113 O 0.54653 0.01131 0.49010
 O1114 O 0.54758 -0.01717 0.49766
 O1115 O 0.50909 0.01222 0.45438
 O1116 O 0.48083 0.00516 0.45352
 O1117 O 0.49892 0.03818 0.46906
 O1118 O 0.47162 0.02439 0.46556
 O1119 O 0.53205 0.00026 0.46452
 O1120 O 0.53565 -0.02660 0.47846
 O1121 O 0.53628 0.03440 0.50170
 O1122 O 0.52445 0.03464 0.52943
 O1123 O 0.49240 -0.04316 0.50895
 O1124 O 0.49988 -0.04375 0.48071
 O1125 O 0.45513 -0.00604 0.50906
 O1126 O 0.45537 0.02253 0.50010
 O1127 O 0.49272 -0.00613 0.54592
 O1128 O 0.52094 0.00386 0.54527
 Zr1129 Zr 0.50836 -0.00820 0.52600
 O1130 O 0.52367 0.00606 0.51186
 Zr1131 Zr 0.47505 0.00979 0.51112
 O1132 O 0.48906 0.02520 0.49682
 Zr1133 Zr 0.48992 -0.02335 0.49304
 O1134 O 0.50417 -0.00938 0.47753
 Zr1135 Zr 0.51220 0.02849 0.50736
 O1136 O 0.49740 0.01486 0.52286
 Zr1137 Zr 0.52671 -0.00464 0.48885
 O1138 O 0.51304 -0.02005 0.50369
 Zr1139 Zr 0.49354 0.01377 0.47437
 O1140 O 0.47806 -0.00109 0.48808
 O1141 O 0.48562 -0.01276 0.51559
 O1142 O 0.51643 0.01819 0.48451
 C1143 C 0.49843 -0.04446 0.52339
 C1144 C 0.47845 0.00014 0.54744
 C1145 C 0.45369 -0.02047 0.50308
 C1146 C 0.50518 0.04990 0.47747
 C1147 C 0.54787 0.02600 0.49537
 C1148 C 0.52364 0.00665 0.45295
 H1149 H 0.53417 0.00757 0.51768
 H1150 H 0.50540 -0.01528 0.46709
 H1151 H 0.47880 -0.01959 0.52251
 H1152 H 0.48331 0.03574 0.49557
 H1153 H 0.49691 0.04610 0.52845
 H1154 H 0.47120 0.03951 0.52083
 H1155 H 0.52876 -0.02926 0.46886
 H1156 H 0.51094 -0.04546 0.48530
 H1157 H 0.52971 0.04532 0.52803
 H1158 H 0.51971 -0.00245 0.55536
 H1159 H 0.48479 -0.00602 0.45122
 H1160 H 0.47118 -0.02415 0.46771
 H1161 H 0.53354 -0.02727 0.52545
 H1162 H 0.55044 -0.01246 0.50842
 H1163 H 0.45281 0.01680 0.48975
 H1164 H 0.46940 0.03431 0.47210
 O1165 O 0.00480 0.46502 1.03121
 O1166 O 0.03023 0.47690 1.03394
 O1167 O -0.02893 0.50468 1.03548
 O1168 O -0.03407 0.52830 1.02326
 O1169 O -0.03407 0.46965 0.99643
 O1170 O -0.02090 0.46588 0.97108
 O1171 O 0.01255 0.54650 0.99199
 O1172 O 0.00357 0.54744 1.01819
 O1173 O 0.04767 0.50869 0.98983
 O1174 O 0.04835 0.48022 0.99714
 O1175 O 0.01024 0.51052 0.95418
 O1176 O -0.01811 0.50377 0.95320
 O1177 O 0.00030 0.53642 0.96906
 O1178 O -0.02711 0.52299 0.96539
 O1179 O 0.03299 0.49803 0.96416
 O1180 O 0.03617 0.47099 0.97798
 O1181 O 0.03773 0.53185 1.00156
 O1182 O 0.02592 0.53207 1.02931
 O1183 O -0.00717 0.45488 1.00814
 O1184 O 0.00009 0.45443 0.97991
 O1185 O -0.04399 0.49255 1.00869
 O1186 O -0.04333 0.52120 0.99989
 O1187 O -0.00645 0.49167 1.04553
 O1188 O 0.02195 0.50114 1.04496
 Zr1189 Zr 0.00916 0.48946 1.02558
 O1190 O 0.02470 0.50362 1.01156
 Zr1191 Zr -0.02386 0.50809 1.01083
 O1192 O -0.00962 0.52340 0.99666
 Zr1193 Zr -0.00948 0.47488 0.99248
 O1194 O 0.00500 0.48874 0.97710
 Zr1195 Zr 0.01358 0.52625 1.00721
 O1196 O -0.00143 0.51272 1.02261
 Zr1197 Zr 0.02760 0.49305 0.98847
 O1198 O 0.01369 0.47773 1.00317
 Zr1199 Zr -0.00532 0.51205 0.97414
 O1200 O -0.02103 0.49733 0.98772
 O1201 O -0.01363 0.48534 1.01511
 O1202 O 0.01764 0.51604 0.98430
 C1203 C -0.00134 0.45337 1.02262
 C1204 C -0.02063 0.49815 1.04708
 C1205 C -0.04564 0.47817 1.00265
 C1206 C 0.00696 0.54795 0.97743
 C1207 C 0.04920 0.52335 0.99515
 C1208 C 0.02468 0.50470 0.95267
 H1209 H 0.03522 0.50493 1.01738
 H1210 H 0.00615 0.48291 0.96661
 H1211 H -0.02056 0.47856 1.02198
 H1212 H -0.01520 0.53404 0.99549
 H1213 H -0.00144 0.54396 1.02842
 H1214 H -0.02726 0.53777 1.02081
 H1215 H 0.02935 0.46858 0.96826
 H1216 H 0.01117 0.45253 0.98438
 H1217 H 0.03131 0.54270 1.02799
 H1218 H 0.02063 0.49474 1.05498
 H1219 H -0.01428 0.49256 0.95081
 H1220 H -0.02832 0.47461 0.96721
 H1221 H 0.03395 0.46988 1.02486
 H1222 H 0.05112 0.48465 1.00804
 H1223 H -0.04605 0.51551 0.98956
 H1224 H -0.02925 0.53285 0.97205
 O1225 O 0.00827 0.45122 0.50747
 O1226 O -0.00061 0.45086 0.48062
 O1227 O 0.04414 0.48853 0.50992
 O1228 O 0.04576 0.51493 0.50475
 O1229 O 0.00629 0.48688 0.54565
 O1230 O -0.02136 0.49541 0.54563
 O1231 O 0.00097 0.53308 0.46839
 O1232 O 0.02631 0.52111 0.46668
 O1233 O -0.03316 0.49576 0.46334
 O1234 O -0.03762 0.46994 0.47642
 O1235 O -0.03734 0.52966 0.50183
 O1236 O -0.02423 0.53376 0.52761
 O1237 O -0.01143 0.54328 0.49092
 O1238 O -0.00312 0.54310 0.52064
 O1239 O -0.04743 0.50748 0.48852
 O1240 O -0.04788 0.47815 0.49684
 O1241 O -0.01088 0.50874 0.45419
 O1242 O 0.01674 0.49611 0.45467
 O1243 O -0.00597 0.46083 0.52915
 O1244 O -0.03103 0.47561 0.53316
 O1245 O 0.02868 0.49977 0.53657
 O1246 O 0.03130 0.52630 0.52286
 O1247 O 0.03426 0.46612 0.49680
 O1248 O 0.02037 0.46491 0.46998
 Zr1249 Zr 0.00951 0.47157 0.49235
 O1250 O -0.00534 0.48583 0.47697
 Zr1251 Zr 0.02383 0.50413 0.51186
 O1252 O 0.01009 0.51976 0.49682
 Zr1253 Zr -0.00921 0.48596 0.52508
 O1254 O -0.02448 0.50124 0.51109
 Zr1255 Zr 0.00536 0.50865 0.47418
 O1256 O 0.02113 0.49388 0.48841
 Zr1257 Zr -0.02775 0.49091 0.48785
 O1258 O -0.01374 0.47484 0.50239
 Zr1259 Zr -0.01295 0.52349 0.50691
 O1260 O 0.00138 0.50904 0.52290
 O1261 O 0.01357 0.48151 0.51539
 O1262 O -0.01745 0.51354 0.48394
 C1263 C 0.00110 0.44935 0.52107
 C1264 C 0.04583 0.47429 0.50351
 C1265 C 0.02043 0.49313 0.54778
 C1266 C -0.00561 0.54472 0.47661
 C1267 C -0.02517 0.50284 0.45222
 C1268 C -0.04887 0.52186 0.49463
 H1269 H -0.00668 0.48017 0.46638
 H1270 H -0.03491 0.50282 0.51672
 H1271 H 0.02046 0.47438 0.52230
 H1272 H 0.01602 0.53005 0.49554
 H1273 H 0.03574 0.51394 0.46918
 H1274 H 0.04325 0.52111 0.49480
 H1275 H -0.05201 0.48423 0.50639
 H1276 H -0.03495 0.46833 0.52432
 H1277 H 0.01629 0.50325 0.44505
 H1278 H 0.02656 0.45459 0.47143
 H1279 H -0.03159 0.52548 0.53192
 H1280 H -0.01713 0.50652 0.54753
 H1281 H -0.01192 0.44998 0.48443
 H1282 H -0.02964 0.46590 0.46842
 H1283 H 0.02350 0.52886 0.53158
 H1284 H 0.00645 0.54713 0.51483
 O1285 O 0.50769 0.95296 0.00982
 O1286 O 0.49905 0.95237 -0.01705
 O1287 O 0.54370 0.99064 0.01149
 O1288 O 0.54513 1.01707 0.00688
 O1289 O 0.50578 0.98902 0.04771
 O1290 O 0.47809 0.99751 0.04758
 O1291 O 0.50037 1.03439 -0.03006
 O1292 O 0.52576 1.02248 -0.03160
 O1293 O 0.46632 0.99704 -0.03473
 O1294 O 0.46202 0.97121 -0.02135
 O1295 O 0.46205 1.03125 0.00336
 O1296 O 0.47499 1.03572 0.02903
 O1297 O 0.48795 1.04482 -0.00764
 O1298 O 0.49628 1.04487 0.02218
 O1299 O 0.45204 1.00890 -0.00970
 O1300 O 0.45159 0.97972 -0.00111
 O1301 O 0.48863 1.00990 -0.04400
 O1302 O 0.51626 0.99733 -0.04337
 O1303 O 0.49365 0.96280 0.03155
 O1304 O 0.46848 0.97752 0.03528
 O1305 O 0.52821 1.00171 0.03847
 O1306 O 0.53053 1.02833 0.02456
 O1307 O 0.53375 0.96775 -0.00069
 O1308 O 0.52007 0.96639 -0.02767
 Zr1309 Zr 0.50906 0.97319 -0.00542
 O1310 O 0.49418 0.98725 -0.02099
 Zr1311 Zr 0.52325 1.00601 0.01375
 O1312 O 0.50950 1.02143 -0.00148
 Zr1313 Zr 0.49028 0.98787 0.02715
 O1314 O 0.47499 1.00295 0.01297
 Zr1315 Zr 0.50484 1.01005 -0.02400
 O1316 O 0.52062 0.99549 -0.00959
 Zr1317 Zr 0.47175 0.99238 -0.01018
 O1318 O 0.48579 0.97650 0.00456
 Zr1319 Zr 0.48645 1.02519 0.00856
 O1320 O 0.50079 1.01096 0.02474
 O1321 O 0.51309 0.98338 0.01750
 O1322 O 0.48200 1.01498 -0.01431
 C1323 C 0.50064 0.95124 0.02350
 C1324 C 0.54537 0.97621 0.00555
 C1325 C 0.51996 0.99520 0.04975
 C1326 C 0.49377 1.04611 -0.02197
 C1327 C 0.47432 1.00401 -0.04591
 C1328 C 0.45056 1.02335 -0.00378
 H1329 H 0.49287 0.98147 -0.03152
 H1330 H 0.46455 1.00457 0.01857
 H1331 H 0.52001 0.97633 0.02446
 H1332 H 0.51542 1.03172 -0.00286
 H1333 H 0.53521 1.01536 -0.02904
 H1334 H 0.54281 1.02260 -0.00349
 H1335 H 0.44754 0.98581 0.00846
 H1336 H 0.46463 0.97011 0.02651
 H1337 H 0.51581 1.00437 -0.05306
 H1338 H 0.52630 0.95611 -0.02610
 H1339 H 0.46787 1.02737 0.03359
 H1340 H 0.48233 1.00862 0.04941
 H1341 H 0.48769 0.95155 -0.01337
 H1342 H 0.46987 0.96729 -0.02953
 H1343 H 0.52286 1.03077 0.03343
 H1344 H 0.50574 1.04898 0.01627
 O1345 O 0.49796 0.46314 -0.03122
 O1346 O 0.47281 0.47561 -0.03395
 O1347 O 0.53178 0.50251 -0.03449
 O1348 O 0.53714 0.52576 -0.02141
 O1349 O 0.53703 0.46729 0.00414
 O1350 O 0.52342 0.46341 0.02895
 O1351 O 0.48991 0.54476 0.01003
 O1352 O 0.49940 0.54569 -0.01598
 O1353 O 0.45518 0.50792 0.01130
 O1354 O 0.45445 0.47939 0.00285
 O1355 O 0.49232 0.50882 0.04688
 O1356 O 0.52070 0.50153 0.04779
 O1357 O 0.50245 0.53461 0.03263
 O1358 O 0.52975 0.52054 0.03614
 O1359 O 0.46974 0.49656 0.03649
 O1360 O 0.46650 0.46981 0.02184
 O1361 O 0.46498 0.53056 -0.00060
 O1362 O 0.47731 0.53069 -0.02798
 O1363 O 0.51053 0.45290 -0.00864
 O1364 O 0.50251 0.45248 0.01946
 O1365 O 0.54684 0.48969 -0.00818
 O1366 O 0.54618 0.51830 0.00175
 O1367 O 0.50950 0.48970 -0.04495
 O1368 O 0.48104 0.49967 -0.04421
 Zr1369 Zr 0.49381 0.48774 -0.02510
 O1370 O 0.47819 0.50220 -0.01079
 Zr1371 Zr 0.52674 0.50572 -0.00971
 O1372 O 0.51241 0.52131 0.00478
 Zr1373 Zr 0.51231 0.47280 0.00770
 O1374 O 0.49774 0.48695 0.02337
 Zr1375 Zr 0.48927 0.52461 -0.00583
 O1376 O 0.50437 0.51079 -0.02148
 Zr1377 Zr 0.47517 0.49171 0.01203
 O1378 O 0.48918 0.47613 -0.00301
 Zr1379 Zr 0.50800 0.51006 0.02700
 O1380 O 0.52379 0.49502 0.01311
 O1381 O 0.51657 0.48317 -0.01467
 O1382 O 0.48509 0.51451 0.01682
 C1383 C 0.50441 0.45143 -0.02305
 C1384 C 0.52358 0.49614 -0.04630
 C1385 C 0.54856 0.47544 -0.00210
 C1386 C 0.49560 0.54619 0.02458
 C1387 C 0.45357 0.52245 0.00589
 C1388 C 0.47793 0.50311 0.04819
 H1389 H 0.46770 0.50372 -0.01663
 H1390 H 0.49655 0.48112 0.03370
 H1391 H 0.52354 0.47629 -0.02170
 H1392 H 0.51796 0.53185 0.00625
 H1393 H 0.50456 0.54218 -0.02624
 H1394 H 0.53031 0.53536 -0.01878
 H1395 H 0.47351 0.46702 0.03128
 H1396 H 0.49159 0.45070 0.01459
 H1397 H 0.47194 0.54145 -0.02650
 H1398 H 0.48248 0.49332 -0.05442
 H1399 H 0.51673 0.49047 0.05001
 H1400 H 0.53059 0.47206 0.03334
 H1401 H 0.46875 0.46903 -0.02491
 H1402 H 0.45146 0.48423 -0.00773
 H1403 H 0.54893 0.51239 0.01184
 H1404 H 0.53203 0.53026 0.02963
 O1405 O -0.00951 0.04458 0.50947
 O1406 O -0.00108 0.04506 0.48283
 O1407 O -0.04542 0.00700 0.50995
 O1408 O -0.04687 -0.01942 0.50383
 O1409 O -0.00710 0.00800 0.54679
 O1410 O 0.02076 0.00049 0.54692
 O1411 O -0.00221 -0.03710 0.46818
 O1412 O -0.02762 -0.02540 0.46629
 O1413 O 0.03171 0.00020 0.46509
 O1414 O 0.03579 0.02642 0.47898
 O1415 O 0.03642 -0.03342 0.50272
 O1416 O 0.02300 -0.03759 0.52832
 O1417 O 0.01089 -0.04713 0.49052
 O1418 O 0.00256 -0.04768 0.51975
 O1419 O 0.04623 -0.01108 0.49034
 O1420 O 0.04654 0.01807 0.49924
 O1421 O 0.00914 -0.01227 0.45487
 O1422 O -0.01861 -0.00017 0.45532
 O1423 O 0.00371 0.03464 0.53182
 O1424 O 0.02966 0.02080 0.53514
 O1425 O -0.02990 -0.00411 0.53663
 O1426 O -0.03217 -0.03072 0.52229
 O1427 O -0.03566 0.02961 0.49793
 O1428 O -0.02207 0.03096 0.47137
 Zr1429 Zr -0.01097 0.02426 0.49378
 O1430 O 0.00383 0.01016 0.47830
 Zr1431 Zr -0.02501 -0.00851 0.51195
 O1432 O -0.01120 -0.02396 0.49681
 Zr1433 Zr 0.00802 0.00979 0.52653
 O1434 O 0.02334 -0.00523 0.51243
 Zr1435 Zr -0.00677 -0.01271 0.47460
 O1436 O -0.02251 0.00191 0.48889
 Zr1437 Zr 0.02636 0.00523 0.48955
 O1438 O 0.01235 0.02110 0.50430
 Zr1439 Zr 0.01196 -0.02754 0.50730
 O1440 O -0.00243 -0.01333 0.52336
 O1441 O -0.01485 0.01414 0.51639
 O1442 O 0.01618 -0.01745 0.48472
 C1443 C -0.00309 0.04622 0.52371
 C1444 C -0.04717 0.02133 0.50406
 C1445 C -0.02139 0.00210 0.54831
 C1446 C 0.00484 -0.04862 0.47609
 C1447 C 0.02352 -0.00655 0.45349
 C1448 C 0.04784 -0.02547 0.49606
 H1449 H 0.00503 0.01589 0.46791
 H1450 H 0.03381 -0.00674 0.51827
 H1451 H -0.02177 0.02112 0.52338
 H1452 H -0.01702 -0.03432 0.49506
 H1453 H -0.03713 -0.01843 0.46893
 H1454 H -0.04420 -0.02607 0.49413
 H1455 H 0.05033 0.01241 0.50914
 H1456 H 0.03299 0.02849 0.52669
 H1457 H -0.01821 -0.00722 0.44546
 H1458 H -0.02835 0.04122 0.47301
 H1459 H 0.03121 -0.02977 0.53240
 H1460 H 0.01697 -0.01079 0.54828
 H1461 H 0.01033 0.04586 0.48672
 H1462 H 0.02803 0.02999 0.47042
 H1463 H -0.02412 -0.03331 0.53095
 H1464 H -0.00722 -0.05146 0.51375
 O1465 O 0.70314 0.24011 0.25937
 O1466 O 0.70223 0.24801 0.23264
 O1467 O 0.74123 0.20331 0.26008
 O1468 O 0.76763 0.20159 0.25517
 O1469 O 0.74030 0.24189 0.29715
 O1470 O 0.74776 0.26959 0.29722
 O1471 O 0.78397 0.24610 0.21891
 O1472 O 0.77254 0.22063 0.21715
 O1473 O 0.74681 0.28047 0.21541
 O1474 O 0.72058 0.28481 0.22871
 O1475 O 0.78086 0.28457 0.25285
 O1476 O 0.78542 0.27157 0.27885
 O1477 O 0.79446 0.25857 0.24153
 O1478 O 0.79534 0.25069 0.27090
 O1479 O 0.75795 0.29487 0.24091
 O1480 O 0.72889 0.29539 0.24917
 O1481 O 0.75896 0.25756 0.20538
 O1482 O 0.74703 0.22997 0.20582
 O1483 O 0.71341 0.25320 0.28176
 O1484 O 0.72727 0.27884 0.28523
 O1485 O 0.75235 0.21886 0.28727
 O1486 O 0.77888 0.21628 0.27321
 O1487 O 0.71800 0.21347 0.24859
 O1488 O 0.71637 0.22674 0.22167
 Zr1489 Zr 0.72325 0.23802 0.24402
 O1490 O 0.73695 0.25261 0.22858
 Zr1491 Zr 0.75642 0.22363 0.26262
 O1492 O 0.77149 0.23715 0.24753
 Zr1493 Zr 0.73815 0.25697 0.27679
 O1494 O 0.75281 0.27204 0.26275
 Zr1495 Zr 0.75981 0.24168 0.22519
 O1496 O 0.74559 0.22616 0.23944
 Zr1497 Zr 0.74191 0.27512 0.23976
 O1498 O 0.72642 0.26136 0.25441
 Zr1499 Zr 0.77509 0.26031 0.25794
 O1500 O 0.76127 0.24618 0.27396
 O1501 O 0.73377 0.23410 0.26678
 O1502 O 0.76455 0.26460 0.23524
 C1503 C 0.70170 0.24671 0.27351
 C1504 C 0.72667 0.20179 0.25445
 C1505 C 0.74629 0.22751 0.29884
 C1506 C 0.79566 0.25273 0.22704
 C1507 C 0.75339 0.27213 0.20392
 C1508 C 0.77258 0.29619 0.24637
 H1509 H 0.73105 0.25386 0.21812
 H1510 H 0.75434 0.28253 0.26854
 H1511 H 0.72693 0.22731 0.27372
 H1512 H 0.78183 0.23116 0.24593
 H1513 H 0.76564 0.21121 0.21966
 H1514 H 0.77333 0.20387 0.24500
 H1515 H 0.73463 0.29918 0.25913
 H1516 H 0.71936 0.28228 0.27674
 H1517 H 0.75392 0.23022 0.19605
 H1518 H 0.70623 0.22055 0.22325
 H1519 H 0.77763 0.27995 0.28271
 H1520 H 0.75913 0.26573 0.29860
 H1521 H 0.70160 0.25958 0.23608
 H1522 H 0.71712 0.27718 0.21997
 H1523 H 0.78137 0.22414 0.28209
 H1524 H 0.79906 0.24075 0.26511
 O1525 O 0.75299 0.72024 0.71354
 O1526 O 0.77819 0.71702 0.72606
 O1527 O 0.71936 0.71699 0.75287
 O1528 O 0.71401 0.73009 0.77597
 O1529 O 0.71475 0.75587 0.71778
 O1530 O 0.72850 0.78088 0.71456
 O1531 O 0.76221 0.76057 0.79543
 O1532 O 0.75219 0.73462 0.79605
 O1533 O 0.79672 0.76189 0.75874
 O1534 O 0.79734 0.75370 0.73031
 O1535 O 0.76044 0.79781 0.76038
 O1536 O 0.73228 0.79956 0.75283
 O1537 O 0.74962 0.78331 0.78565
 O1538 O 0.72249 0.78744 0.77117
 O1539 O 0.78252 0.78743 0.74745
 O1540 O 0.78546 0.77275 0.72072
 O1541 O 0.78685 0.74971 0.78113
 O1542 O 0.77401 0.72245 0.78093
 O1543 O 0.74130 0.74334 0.70345
 O1544 O 0.74929 0.77153 0.70354
 O1545 O 0.70471 0.74377 0.74014
 O1546 O 0.70567 0.75339 0.76890
 O1547 O 0.74115 0.70642 0.73954
 O1548 O 0.76960 0.70653 0.74990
 Zr1549 Zr 0.75735 0.72606 0.73813
 O1550 O 0.77331 0.74002 0.75273
 Zr1551 Zr 0.72480 0.74175 0.75619
 O1552 O 0.73946 0.75585 0.77195
 Zr1553 Zr 0.73947 0.75937 0.72356
 O1554 O 0.75436 0.77471 0.73791
 Zr1555 Zr 0.76242 0.74489 0.77514
 O1556 O 0.74695 0.72957 0.76116
 Zr1557 Zr 0.77672 0.76298 0.74254
 O1558 O 0.76239 0.74826 0.72680
 Zr1559 Zr 0.74424 0.77819 0.76100
 O1560 O 0.72815 0.76470 0.74578
 O1561 O 0.73480 0.73691 0.73365
 O1562 O 0.76698 0.76765 0.76534
 C1563 C 0.74697 0.72876 0.70188
 C1564 C 0.72716 0.70516 0.74611
 C1565 C 0.70311 0.74978 0.72588
 C1566 C 0.75649 0.77509 0.79708
 C1567 C 0.79832 0.75623 0.77315
 C1568 C 0.77469 0.79910 0.75442
 H1569 H 0.78369 0.73401 0.75419
 H1570 H 0.75573 0.78512 0.73223
 H1571 H 0.72771 0.73003 0.72666
 H1572 H 0.73395 0.75725 0.78246
 H1573 H 0.74687 0.72442 0.79245
 H1574 H 0.72123 0.73197 0.78549
 H1575 H 0.77874 0.78243 0.71807
 H1576 H 0.76015 0.76663 0.70166
 H1577 H 0.77943 0.72372 0.79170
 H1578 H 0.76797 0.69642 0.74339
 H1579 H 0.73592 0.80154 0.74165
 H1580 H 0.72138 0.78514 0.72325
 H1581 H 0.78238 0.72607 0.71956
 H1582 H 0.80002 0.74292 0.73490
 H1583 H 0.70288 0.76346 0.76296
 H1584 H 0.72011 0.78094 0.78085
 O1585 O 0.24777 0.21711 0.78315
 O1586 O 0.22269 0.21442 0.77038
 O1587 O 0.28161 0.21254 0.74380
 O1588 O 0.28675 0.22519 0.72074
 O1589 O 0.28670 0.25150 0.77943
 O1590 O 0.27309 0.27686 0.78333
 O1591 O 0.23908 0.25739 0.70209
 O1592 O 0.24881 0.23109 0.70086
 O1593 O 0.20456 0.25951 0.73904
 O1594 O 0.20418 0.25158 0.76743
 O1595 O 0.24120 0.29455 0.73794
 O1596 O 0.26956 0.29538 0.74570
 O1597 O 0.25190 0.27975 0.71242
 O1598 O 0.27898 0.28319 0.72682
 O1599 O 0.21902 0.28483 0.75062
 O1600 O 0.21601 0.27059 0.77706
 O1601 O 0.21434 0.24735 0.71619
 O1602 O 0.22684 0.21968 0.71571
 O1603 O 0.26025 0.23963 0.79362
 O1604 O 0.25228 0.26799 0.79427
 O1605 O 0.29656 0.23912 0.75672
 O1606 O 0.29557 0.24833 0.72821
 O1607 O 0.25970 0.20278 0.75697
 O1608 O 0.23133 0.20361 0.74637
 Zr1609 Zr 0.24367 0.22285 0.75863
 O1610 O 0.22784 0.23723 0.74436
 Zr1611 Zr 0.27634 0.23744 0.74081
 O1612 O 0.26180 0.25199 0.72542
 Zr1613 Zr 0.26197 0.25562 0.77389
 O1614 O 0.24716 0.27137 0.75995
 Zr1615 Zr 0.23872 0.24173 0.72202
 O1616 O 0.25404 0.22596 0.73564
 Zr1617 Zr 0.22468 0.26029 0.75512
 O1618 O 0.23892 0.24522 0.77049
 Zr1619 Zr 0.25726 0.27449 0.73692
 O1620 O 0.27326 0.26052 0.75175
 O1621 O 0.26636 0.23300 0.76328
 O1622 O 0.23440 0.26463 0.73240
 C1623 C 0.25415 0.22536 0.79494
 C1624 C 0.27370 0.20103 0.75042
 C1625 C 0.29828 0.24516 0.77109
 C1626 C 0.24494 0.27174 0.70079
 C1627 C 0.20290 0.25400 0.72445
 C1628 C 0.22693 0.29623 0.74386
 H1629 H 0.21740 0.23151 0.74280
 H1630 H 0.24589 0.28183 0.76586
 H1631 H 0.27342 0.22598 0.77013
 H1632 H 0.26730 0.25320 0.71493
 H1633 H 0.25399 0.22071 0.70422
 H1634 H 0.27972 0.22760 0.71122
 H1635 H 0.22299 0.27994 0.77999
 H1636 H 0.24137 0.26342 0.79601
 H1637 H 0.22143 0.22111 0.70498
 H1638 H 0.23287 0.19348 0.75265
 H1639 H 0.26554 0.29783 0.75672
 H1640 H 0.28013 0.28095 0.77468
 H1641 H 0.21859 0.22356 0.77715
 H1642 H 0.20118 0.24100 0.76244
 H1643 H 0.29833 0.25850 0.73417
 H1644 H 0.28140 0.27646 0.71710
 O1645 O 0.21504 0.74667 0.28249
 O1646 O 0.22774 0.72155 0.28473
 O1647 O 0.25461 0.78051 0.28723
 O1648 O 0.27757 0.78590 0.27454
 O1649 O 0.21855 0.78597 0.24871
 O1650 O 0.21436 0.77271 0.22325
 O1651 O 0.29589 0.73875 0.24178
 O1652 O 0.29727 0.74783 0.26819
 O1653 O 0.25855 0.70392 0.23937
 O1654 O 0.23028 0.70344 0.24719
 O1655 O 0.25982 0.74103 0.20490
 O1656 O 0.25212 0.76918 0.20424
 O1657 O 0.28549 0.75202 0.21978
 O1658 O 0.27069 0.77897 0.21677
 O1659 O 0.24699 0.71874 0.21427
 O1660 O 0.22049 0.71565 0.22858
 O1661 O 0.28172 0.71365 0.25117
 O1662 O 0.28241 0.72561 0.27909
 O1663 O 0.20439 0.75937 0.26025
 O1664 O 0.20350 0.75167 0.23179
 O1665 O 0.24147 0.79578 0.26096
 O1666 O 0.27000 0.79491 0.25169
 O1667 O 0.24145 0.75846 0.29679
 O1668 O 0.25195 0.73006 0.29544
 Zr1669 Zr 0.23952 0.74264 0.27654
 O1670 O 0.25360 0.72698 0.26185
 Zr1671 Zr 0.25734 0.77554 0.26232
 O1672 O 0.27259 0.76118 0.24755
 Zr1673 Zr 0.22401 0.76130 0.24419
 O1674 O 0.23781 0.74675 0.22817
 Zr1675 Zr 0.27599 0.73793 0.25739
 O1676 O 0.26256 0.75308 0.27342
 Zr1677 Zr 0.24263 0.72412 0.23886
 O1678 O 0.22743 0.73812 0.25422
 Zr1679 Zr 0.26090 0.75692 0.22509
 O1680 O 0.24618 0.77272 0.23932
 O1681 O 0.23484 0.76546 0.26675
 O1682 O 0.26541 0.73391 0.23454
 C1683 C 0.20318 0.75312 0.27442
 C1684 C 0.24808 0.77246 0.29866
 C1685 C 0.22701 0.79752 0.25508
 C1686 C 0.29719 0.74504 0.22766
 C1687 C 0.27326 0.70223 0.24457
 C1688 C 0.25380 0.72677 0.20302
 H1689 H 0.25516 0.71646 0.26738
 H1690 H 0.23182 0.74560 0.21774
 H1691 H 0.22808 0.77244 0.27390
 H1692 H 0.28309 0.76676 0.24640
 H1693 H 0.29398 0.75285 0.27864
 H1694 H 0.28698 0.77870 0.27230
 H1695 H 0.21764 0.72262 0.21924
 H1696 H 0.20171 0.74073 0.23630
 H1697 H 0.29310 0.72019 0.27748
 H1698 H 0.24578 0.73148 0.30563
 H1699 H 0.24087 0.76552 0.20211
 H1700 H 0.22304 0.77978 0.21918
 H1701 H 0.22082 0.71756 0.27562
 H1702 H 0.23513 0.70047 0.25782
 H1703 H 0.26389 0.79793 0.24172
 H1704 H 0.28055 0.78135 0.22338
 O1705 O 0.24269 0.70256 0.75954
 O1706 O 0.26944 0.70170 0.75138
 O1707 O 0.24220 0.74121 0.79565
 O1708 O 0.24736 0.76768 0.79695
 O1709 O 0.20478 0.73953 0.75746
 O1710 O 0.20447 0.74646 0.72966
 O1711 O 0.28283 0.78375 0.75225
 O1712 O 0.28505 0.77243 0.77768
 O1713 O 0.28652 0.74502 0.71857
 O1714 O 0.27264 0.71930 0.71432
 O1715 O 0.24872 0.77961 0.71398
 O1716 O 0.22259 0.78405 0.72708
 O1717 O 0.26009 0.79382 0.73967
 O1718 O 0.23085 0.79463 0.74750
 O1719 O 0.26088 0.75670 0.70399
 O1720 O 0.25225 0.72761 0.70379
 O1721 O 0.29622 0.75907 0.74056
 O1722 O 0.29653 0.74711 0.76820
 O1723 O 0.22007 0.71252 0.74661
 O1724 O 0.21642 0.72579 0.72074
 O1725 O 0.21490 0.75199 0.78020
 O1726 O 0.22891 0.77860 0.78238
 O1727 O 0.25381 0.71795 0.78575
 O1728 O 0.28060 0.71628 0.77234
 Zr1729 Zr 0.25808 0.72281 0.76116
 O1730 O 0.27335 0.73640 0.74631
 Zr1731 Zr 0.23953 0.75611 0.77520
 O1732 O 0.25442 0.77110 0.76135
 Zr1733 Zr 0.22504 0.73719 0.74230
 O1734 O 0.23893 0.75167 0.72693
 Zr1735 Zr 0.27677 0.75952 0.75680
 O1736 O 0.26274 0.74541 0.77261
 Zr1737 Zr 0.26195 0.74085 0.72385
 O1738 O 0.24742 0.72550 0.73791
 Zr1739 Zr 0.24377 0.77421 0.73826
 O1740 O 0.22793 0.76052 0.75272
 O1741 O 0.23531 0.73327 0.76510
 O1742 O 0.26649 0.76376 0.73393
 C1743 C 0.22841 0.70096 0.75320
 C1744 C 0.24796 0.72673 0.79733
 C1745 C 0.20324 0.74574 0.77174
 C1746 C 0.27460 0.79526 0.74550
 C1747 C 0.29786 0.75246 0.72647
 C1748 C 0.25529 0.77126 0.70250
 H1749 H 0.28383 0.73054 0.74509
 H1750 H 0.23305 0.75300 0.71648
 H1751 H 0.22844 0.72650 0.77204
 H1752 H 0.25603 0.78156 0.76718
 H1753 H 0.28271 0.76554 0.78712
 H1754 H 0.25739 0.77357 0.79442
 H1755 H 0.24233 0.73337 0.69996
 H1756 H 0.22496 0.71793 0.71735
 H1757 H 0.30623 0.75414 0.76767
 H1758 H 0.27912 0.70621 0.77864
 H1759 H 0.21892 0.77625 0.71858
 H1760 H 0.20311 0.75790 0.73332
 H1761 H 0.26547 0.70053 0.74003
 H1762 H 0.28105 0.71559 0.72218
 H1763 H 0.22003 0.78098 0.77449
 H1764 H 0.23652 0.79837 0.75752
 O1765 O 0.24997 0.21772 0.21198
 O1766 O 0.27532 0.21417 0.22416
 O1767 O 0.21681 0.21394 0.25166
 O1768 O 0.21164 0.22681 0.27493
 O1769 O 0.21202 0.25365 0.21726
 O1770 O 0.22602 0.27852 0.21423
 O1771 O 0.25998 0.25643 0.29454
 O1772 O 0.25002 0.23056 0.29468
 O1773 O 0.29442 0.25821 0.25752
 O1774 O 0.29471 0.25054 0.22890
 O1775 O 0.25840 0.29446 0.25995
 O1776 O 0.23008 0.29638 0.25275
 O1777 O 0.24801 0.27964 0.28509
 O1778 O 0.22063 0.28414 0.27120
 O1779 O 0.28035 0.28411 0.24679
 O1780 O 0.28300 0.26992 0.21983
 O1781 O 0.28466 0.24574 0.27980
 O1782 O 0.27162 0.21859 0.27919
 O1783 O 0.23841 0.24108 0.20238
 O1784 O 0.24657 0.26918 0.20287
 O1785 O 0.20218 0.24087 0.23933
 O1786 O 0.20339 0.25027 0.26817
 O1787 O 0.23839 0.20352 0.23789
 O1788 O 0.26693 0.20328 0.24788
 Zr1789 Zr 0.25465 0.22309 0.23661
 O1790 O 0.27081 0.23668 0.25132
 Zr1791 Zr 0.22236 0.23865 0.25522
 O1792 O 0.23725 0.25240 0.27108
 Zr1793 Zr 0.23686 0.25677 0.22278
 O1794 O 0.25200 0.27175 0.23725
 Zr1795 Zr 0.26014 0.24120 0.27391
 O1796 O 0.24447 0.22624 0.25978
 Zr1797 Zr 0.27430 0.25979 0.24151
 O1798 O 0.25973 0.24546 0.22563
 Zr1799 Zr 0.24212 0.27490 0.26049
 O1800 O 0.22579 0.26177 0.24519
 O1801 O 0.23213 0.23415 0.23251
 O1802 O 0.26481 0.26411 0.26447
 C1803 C 0.24393 0.22648 0.20052
 C1804 C 0.22450 0.20219 0.24464
 C1805 C 0.20045 0.24731 0.22528
 C1806 C 0.25466 0.27108 0.29640
 C1807 C 0.29611 0.25227 0.27180
 C1808 C 0.27263 0.29574 0.25395
 H1809 H 0.28116 0.23056 0.25259
 H1810 H 0.25339 0.28225 0.23174
 H1811 H 0.22494 0.22742 0.22547
 H1812 H 0.23183 0.25367 0.28166
 H1813 H 0.24454 0.22050 0.29090
 H1814 H 0.21890 0.22857 0.28444
 H1815 H 0.27625 0.27963 0.21735
 H1816 H 0.25741 0.26430 0.20086
 H1817 H 0.27715 0.21962 0.28993
 H1818 H 0.26518 0.19329 0.24120
 H1819 H 0.23381 0.29869 0.24167
 H1820 H 0.21906 0.28273 0.22307
 H1821 H 0.27945 0.22330 0.21773
 H1822 H 0.29738 0.23969 0.23330
 H1823 H 0.20069 0.26047 0.26241
 H1824 H 0.21834 0.27746 0.28079
 O1825 O 0.74850 0.71733 0.28466
 O1826 O 0.72344 0.71449 0.27197
 O1827 O 0.78231 0.71291 0.24528
 O1828 O 0.78739 0.72559 0.22222
 O1829 O 0.78721 0.75187 0.28091
 O1830 O 0.77350 0.77723 0.28474
 O1831 O 0.73981 0.75722 0.20347
 O1832 O 0.74933 0.73099 0.20244
 O1833 O 0.70502 0.75946 0.24049
 O1834 O 0.70468 0.75156 0.26892
 O1835 O 0.74147 0.79472 0.23942
 O1836 O 0.76980 0.79569 0.24700
 O1837 O 0.75196 0.77994 0.21386
 O1838 O 0.77922 0.78346 0.22810
 O1839 O 0.71933 0.78490 0.25209
 O1840 O 0.71640 0.77064 0.27851
 O1841 O 0.71489 0.74740 0.21763
 O1842 O 0.72740 0.71969 0.21732
 O1843 O 0.76084 0.73994 0.29511
 O1844 O 0.75271 0.76828 0.29571
 O1845 O 0.79713 0.73962 0.25816
 O1846 O 0.79604 0.74877 0.22965
 O1847 O 0.76046 0.70303 0.25846
 O1848 O 0.73205 0.70372 0.24795
 Zr1849 Zr 0.74433 0.72302 0.26015
 O1850 O 0.72840 0.73730 0.24588
 Zr1851 Zr 0.77691 0.73778 0.24229
 O1852 O 0.76226 0.75220 0.22689
 Zr1853 Zr 0.76246 0.75592 0.27535
 O1854 O 0.74756 0.77156 0.26139
 Zr1855 Zr 0.73925 0.74178 0.22353
 O1856 O 0.75468 0.72614 0.23716
 Zr1857 Zr 0.72513 0.76037 0.25658
 O1858 O 0.73946 0.74539 0.27197
 Zr1859 Zr 0.75759 0.77471 0.23833
 O1860 O 0.77369 0.76086 0.25318
 O1861 O 0.76696 0.73331 0.26477
 O1862 O 0.73480 0.76469 0.23384
 C1863 C 0.75484 0.72562 0.29644
 C1864 C 0.77445 0.70136 0.25189
 C1865 C 0.79882 0.74562 0.27256
 C1866 C 0.74532 0.77171 0.20218
 C1867 C 0.70340 0.75398 0.22589
 C1868 C 0.72719 0.79634 0.24535
 H1869 H 0.71799 0.73152 0.24434
 H1870 H 0.74624 0.78203 0.26728
 H1871 H 0.77407 0.72632 0.27161
 H1872 H 0.76776 0.75343 0.21640
 H1873 H 0.75458 0.72067 0.20588
 H1874 H 0.78029 0.72787 0.21272
 H1875 H 0.72336 0.78000 0.28146
 H1876 H 0.74184 0.76364 0.29747
 H1877 H 0.72194 0.72108 0.20660
 H1878 H 0.73367 0.69359 0.25423
 H1879 H 0.76595 0.79802 0.25811
 H1880 H 0.78058 0.78129 0.27609
 H1881 H 0.71926 0.72365 0.27868
 H1882 H 0.70173 0.74097 0.26393
 H1883 H 0.79871 0.75899 0.23555
 H1884 H 0.78153 0.77683 0.21828
 O1885 O 0.71566 0.24932 0.78333
 O1886 O 0.72850 0.22426 0.78556
 O1887 O 0.75500 0.28339 0.78830
 O1888 O 0.77797 0.28894 0.77568
 O1889 O 0.71908 0.28873 0.74954
 O1890 O 0.71502 0.27542 0.72411
 O1891 O 0.79667 0.24193 0.74286
 O1892 O 0.79794 0.25107 0.76928
 O1893 O 0.75960 0.20692 0.74033
 O1894 O 0.73127 0.20626 0.74809
 O1895 O 0.76072 0.24405 0.70588
 O1896 O 0.75275 0.27228 0.70534
 O1897 O 0.78626 0.25517 0.72084
 O1898 O 0.77141 0.28200 0.71778
 O1899 O 0.74803 0.22167 0.71523
 O1900 O 0.72152 0.21836 0.72940
 O1901 O 0.78266 0.21678 0.75224
 O1902 O 0.78320 0.22875 0.78016
 O1903 O 0.70500 0.26201 0.76108
 O1904 O 0.70424 0.25433 0.73263
 O1905 O 0.74184 0.29863 0.76202
 O1906 O 0.77038 0.29798 0.75282
 O1907 O 0.74194 0.26123 0.79774
 O1908 O 0.75260 0.23292 0.79639
 Zr1909 Zr 0.74018 0.24545 0.77745
 O1910 O 0.75442 0.22991 0.76281
 Zr1911 Zr 0.75784 0.27849 0.76337
 O1912 O 0.77322 0.26426 0.74861
 Zr1913 Zr 0.72466 0.26408 0.74509
 O1914 O 0.73860 0.24961 0.72910
 Zr1915 Zr 0.77675 0.24102 0.75843
 O1916 O 0.76316 0.25605 0.77445
 Zr1917 Zr 0.74354 0.22700 0.73979
 O1918 O 0.72819 0.24090 0.75510
 Zr1919 Zr 0.76164 0.25994 0.72610
 O1920 O 0.74679 0.27563 0.74032
 O1921 O 0.73539 0.26826 0.76770
 O1922 O 0.76626 0.23695 0.73555
 C1923 C 0.70379 0.25572 0.77523
 C1924 C 0.74848 0.27526 0.79968
 C1925 C 0.72743 0.30031 0.75600
 C1926 C 0.79797 0.24821 0.72874
 C1927 C 0.77430 0.20532 0.74559
 C1928 C 0.75481 0.22974 0.70399
 H1929 H 0.75603 0.21939 0.76834
 H1930 H 0.73266 0.24843 0.71865
 H1931 H 0.72856 0.27519 0.77483
 H1932 H 0.78369 0.26990 0.74750
 H1933 H 0.79458 0.25606 0.77972
 H1934 H 0.78746 0.28188 0.77335
 H1935 H 0.71862 0.22537 0.72010
 H1936 H 0.70253 0.24337 0.73709
 H1937 H 0.79393 0.22341 0.77858
 H1938 H 0.74637 0.23427 0.80655
 H1939 H 0.74166 0.26830 0.70296
 H1940 H 0.72369 0.28249 0.72003
 H1941 H 0.72162 0.22026 0.77642
 H1942 H 0.73617 0.20326 0.75869
 H1943 H 0.76431 0.30092 0.74279
 H1944 H 0.78114 0.28450 0.72452
 C1945 C 0.07281 1.00227 1.15680
 N1946 N 0.08559 0.99211 1.15966
 N1947 N 0.09252 0.99142 1.17433
 C1948 C 0.08699 1.00087 1.18676
 N1949 N 0.07417 1.01106 1.18388
 N1950 N 0.06718 1.01172 1.16918
 C1951 C 0.06533 1.00294 1.14051
 N1952 N 0.05170 1.01198 1.13763
 N1953 N 0.04497 1.01238 1.12281
 C1954 C 0.05167 1.00381 1.11034
 N1955 N 0.06531 0.99483 1.11323
 N1956 N 0.07200 0.99439 1.12804
 C1957 C 0.04424 1.00401 1.09402
 N1958 N 0.05163 0.99623 1.08146
 N1959 N 0.04483 0.99612 1.06669
 C1960 C 0.03035 1.00374 1.06393
 N1961 N 0.02296 1.01155 1.07648
 N1962 N 0.02980 1.01171 1.09125
 C1963 C 0.57223 0.50553 0.65713
 N1964 N 0.58491 0.49525 0.66006
 N1965 N 0.59195 0.49472 0.67469
 C1966 C 0.58666 0.50446 0.68700
 N1967 N 0.57395 0.51477 0.68405
 N1968 N 0.56684 0.51527 0.66940
 C1969 C 0.56464 0.50603 0.64088
 N1970 N 0.55115 0.51525 0.63794
 N1971 N 0.54433 0.51552 0.62315
 C1972 C 0.55080 0.50664 0.61078
 N1973 N 0.56431 0.49746 0.61374
 N1974 N 0.57108 0.49715 0.62851
 C1975 C 0.54331 0.50674 0.59448
 N1976 N 0.55052 0.49865 0.58200
 N1977 N 0.54369 0.49849 0.56724
 C1978 C 0.52938 0.50638 0.56440
 N1979 N 0.52217 0.51450 0.57687
 N1980 N 0.52902 0.51470 0.59163
 C1981 C 0.42871 -0.00249 0.65507
 N1982 N 0.43759 -0.00497 0.66887
 N1983 N 0.43035 -0.00543 0.68324
 C1984 C 0.41396 -0.00352 0.68430
 N1985 N 0.40517 -0.00106 0.67045
 N1986 N 0.41238 -0.00053 0.65614
 C1987 C 0.43645 -0.00193 0.63915
 N1988 N 0.42749 0.00197 0.62577
 N1989 N 0.43431 0.00242 0.61124
 C1990 C 0.45035 -0.00110 0.60953
 N1991 N 0.45934 -0.00502 0.62291
 N1992 N 0.45252 -0.00540 0.63748
 C1993 C 0.45773 -0.00071 0.59344
 N1994 N 0.47336 -0.00565 0.59131
 N1995 N 0.47995 -0.00541 0.57664
 C1996 C 0.47117 -0.00016 0.56359
 N1997 N 0.45556 0.00482 0.56574
 N1998 N 0.44895 0.00451 0.58039
 C1999 C -0.07097 0.49640 1.15445
 N2000 N -0.06223 0.49374 1.16831
 N2001 N -0.06957 0.49348 1.18263
 C2002 C -0.08592 0.49580 1.18361
 N2003 N -0.09457 0.49845 1.16971
 N2004 N -0.08726 0.49877 1.15543
 C2005 C -0.06312 0.49674 1.13858
 N2006 N -0.07192 0.50083 1.12515
 N2007 N -0.06500 0.50112 1.11066
 C2008 C -0.04903 0.49725 1.10904
 N2009 N -0.04020 0.49314 1.12247
 N2010 N -0.04712 0.49292 1.13700
 C2011 C -0.04155 0.49751 1.09299
 N2012 N -0.02601 0.49228 1.09091
 N2013 N -0.01934 0.49245 1.07627
 C2014 C -0.02796 0.49790 1.06320
 N2015 N -0.04349 0.50316 1.06530
 N2016 N -0.05017 0.50294 1.07992
 C2017 C -0.07400 0.50180 0.34266
 N2018 N -0.08553 0.49056 0.33919
 N2019 N -0.09223 0.48955 0.32443
 C2020 C -0.08778 0.49977 0.31248
 N2021 N -0.07618 0.51104 0.31599
 N2022 N -0.06939 0.51200 0.33078
 C2023 C -0.06684 0.50282 0.35907
 N2024 N -0.05397 0.51258 0.36245
 N2025 N -0.04749 0.51321 0.37739
 C2026 C -0.05373 0.50418 0.38947
 N2027 N -0.06663 0.49451 0.38607
 N2028 N -0.07304 0.49382 0.37116
 C2029 C -0.04652 0.50449 0.40589
 N2030 N -0.05376 0.49644 0.41806
 N2031 N -0.04707 0.49617 0.43287
 C2032 C -0.03286 0.50390 0.43606
 N2033 N -0.02564 0.51203 0.42390
 N2034 N -0.03237 0.51235 0.40908
 C2035 C 0.42555 1.00298 -0.15551
 N2036 N 0.41305 0.99272 -0.15864
 N2037 N 0.40650 0.99159 -0.17347
 C2038 C 0.41213 1.00069 -0.18579
 N2039 N 0.42465 1.01100 -0.18264
 N2040 N 0.43126 1.01209 -0.16779
 C2041 C 0.43265 1.00404 -0.13907
 N2042 N 0.44613 1.01301 -0.13590
 N2043 N 0.45259 1.01363 -0.12096
 C2044 C 0.44575 1.00538 -0.10867
 N2045 N 0.43223 0.99650 -0.11185
 N2046 N 0.42582 0.99583 -0.12677
 C2047 C 0.45296 1.00564 -0.09225
 N2048 N 0.44549 0.99800 -0.07996
 N2049 N 0.45219 0.99771 -0.06515
 C2050 C 0.46665 1.00502 -0.06209
 N2051 N 0.47411 1.01274 -0.07436
 N2052 N 0.46737 1.01307 -0.08918
 C2053 C 0.57265 0.50032 -0.15423
 N2054 N 0.56393 0.49777 -0.16815
 N2055 N 0.57108 0.49847 -0.18255
 C2056 C 0.58721 0.50169 -0.18356
 N2057 N 0.59584 0.50425 -0.16959
 N2058 N 0.58872 0.50361 -0.15524
 C2059 C 0.56504 0.49951 -0.13825
 N2060 N 0.57380 0.50322 -0.12464
 N2061 N 0.56711 0.50247 -0.11006
 C2062 C 0.55141 0.49790 -0.10853
 N2063 N 0.54262 0.49415 -0.12214
 N2064 N 0.54931 0.49496 -0.13675
 C2065 C 0.54415 0.49717 -0.09238
 N2066 N 0.52883 0.49159 -0.09048
 N2067 N 0.52231 0.49111 -0.07579
 C2068 C 0.53086 0.49622 -0.06247
 N2069 N 0.54618 0.50178 -0.06439
 N2070 N 0.55271 0.50222 -0.07906
 C2071 C 0.07309 -0.00508 0.34577
 N2072 N 0.06425 -0.00720 0.33185
 N2073 N 0.07132 -0.00633 0.31742
 C2074 C 0.08750 -0.00333 0.31639
 N2075 N 0.09625 -0.00121 0.33035
 N2076 N 0.08920 -0.00203 0.34473
 C2077 C 0.06553 -0.00596 0.36176
 N2078 N 0.07443 -0.00262 0.37538
 N2079 N 0.06775 -0.00327 0.38996
 C2080 C 0.05192 -0.00736 0.39150
 N2081 N 0.04300 -0.01077 0.37788
 N2082 N 0.04968 -0.01006 0.36327
 C2083 C 0.04461 -0.00772 0.40763
 N2084 N 0.02907 -0.01267 0.40953
 N2085 N 0.02241 -0.01257 0.42419
 C2086 C 0.03105 -0.00747 0.43745
 N2087 N 0.04660 -0.00258 0.43554
 N2088 N 0.05326 -0.00274 0.42091
 C2089 C 0.15378 1.07325 1.00062
 N2090 N 0.15461 1.08942 0.99773
 N2091 N 0.16892 1.09677 0.99716
 C2092 C 0.18300 1.08827 0.99940
 N2093 N 0.18217 1.07204 1.00223
 N2094 N 0.16782 1.06467 1.00286
 C2095 C 0.13786 1.06539 1.00131
 N2096 N 0.13653 1.04950 1.00536
 N2097 N 0.12196 1.04257 1.00601
 C2098 C 0.10823 1.05130 1.00260
 N2099 N 0.10960 1.06716 0.99854
 N2100 N 0.12413 1.07408 0.99794
 C2101 C 0.09213 1.04380 1.00311
 N2102 N 0.07871 1.05236 0.99839
 N2103 N 0.06407 1.04563 0.99860
 C2104 C 0.06227 1.03009 1.00359
 N2105 N 0.07568 1.02152 1.00838
 N2106 N 0.09035 1.02825 1.00813
 C2107 C 0.65378 0.57452 0.50145
 N2108 N 0.65493 0.59066 0.49854
 N2109 N 0.66938 0.59775 0.49808
 C2110 C 0.68329 0.58900 0.50044
 N2111 N 0.68214 0.57280 0.50329
 N2112 N 0.66765 0.56569 0.50381
 C2113 C 0.63772 0.56692 0.50202
 N2114 N 0.63612 0.55109 0.50619
 N2115 N 0.62144 0.54439 0.50676
 C2116 C 0.60787 0.55326 0.50314
 N2117 N 0.60950 0.56907 0.49896
 N2118 N 0.62414 0.57577 0.49844
 C2119 C 0.59167 0.54596 0.50358
 N2120 N 0.57836 0.55456 0.49862
 N2121 N 0.56365 0.54796 0.49879
 C2122 C 0.56168 0.53252 0.50401
 N2123 N 0.57498 0.52392 0.50905
 N2124 N 0.58971 0.53052 0.50883
 C2125 C 0.65774 0.42568 0.00024
 N2126 N 0.66066 0.41302 0.01030
 N2127 N 0.67535 0.40613 0.01121
 C2128 C 0.68772 0.41157 0.00206
 N2129 N 0.68478 0.42425 -0.00804
 N2130 N 0.67007 0.43121 -0.00890
 C2131 C 0.64145 0.43312 -0.00064
 N2132 N 0.63852 0.44667 -0.00953
 N2133 N 0.62370 0.45338 -0.01010
 C2134 C 0.61127 0.44674 -0.00187
 N2135 N 0.61421 0.43317 0.00696
 N2136 N 0.62902 0.42651 0.00758
 C2137 C 0.59494 0.45412 -0.00228
 N2138 N 0.58242 0.44672 0.00512
 N2139 N 0.56763 0.45346 0.00504
 C2140 C 0.56481 0.46788 -0.00239
 N2141 N 0.57732 0.47528 -0.00982
 N2142 N 0.59212 0.46851 -0.00979
 C2143 C 0.15700 -0.07525 0.49730
 N2144 N 0.16003 -0.08784 0.50741
 N2145 N 0.17481 -0.09451 0.50845
 C2146 C 0.18717 -0.08891 0.49939
 N2147 N 0.18412 -0.07630 0.48923
 N2148 N 0.16932 -0.06956 0.48823
 C2149 C 0.14062 -0.06800 0.49631
 N2150 N 0.13761 -0.05444 0.48745
 N2151 N 0.12274 -0.04785 0.48685
 C2152 C 0.11034 -0.05461 0.49503
 N2153 N 0.11336 -0.06819 0.50382
 N2154 N 0.12822 -0.07474 0.50446
 C2155 C 0.09400 -0.04724 0.49475
 N2156 N 0.08154 -0.05464 0.50223
 N2157 N 0.06679 -0.04781 0.50244
 C2158 C 0.06395 -0.03329 0.49520
 N2159 N 0.07640 -0.02591 0.48765
 N2160 N 0.09115 -0.03277 0.48740
 C2161 C 0.34623 -0.07166 0.50418
 N2162 N 0.33229 -0.06297 0.50643
 N2163 N 0.31794 -0.07039 0.50644
 C2164 C 0.31701 -0.08678 0.50425
 N2165 N 0.33099 -0.09539 0.50201
 N2166 N 0.34529 -0.08799 0.50195
 C2167 C 0.36213 -0.06372 0.50408
 N2168 N 0.37568 -0.07252 0.50047
 N2169 N 0.39019 -0.06551 0.50037
 C2170 C 0.39172 -0.04943 0.50395
 N2171 N 0.37818 -0.04060 0.50759
 N2172 N 0.36363 -0.04762 0.50763
 C2173 C 0.40779 -0.04183 0.50381
 N2174 N 0.40975 -0.02611 0.50862
 N2175 N 0.42439 -0.01931 0.50847
 C2176 C 0.43757 -0.02797 0.50344
 N2177 N 0.43559 -0.04369 0.49862
 N2178 N 0.42098 -0.05050 0.49883
 C2179 C -0.15338 0.42778 1.00553
 N2180 N -0.15441 0.41143 1.00349
 N2181 N -0.16874 0.40411 1.00386
 C2182 C -0.18264 0.41281 1.00622
 N2183 N -0.18161 0.42922 1.00822
 N2184 N -0.16723 0.43656 1.00792
 C2185 C -0.13745 0.43563 1.00508
 N2186 N -0.13581 0.45175 1.00849
 N2187 N -0.12123 0.45868 1.00813
 C2188 C -0.10781 0.44974 1.00430
 N2189 N -0.10948 0.43366 1.00085
 N2190 N -0.12402 0.42674 1.00127
 C2191 C -0.09170 0.45723 1.00387
 N2192 N -0.07865 0.44846 0.99871
 N2193 N -0.06399 0.45515 0.99830
 C2194 C -0.06182 0.47084 1.00311
 N2195 N -0.07487 0.47962 1.00829
 N2196 N -0.08956 0.47294 1.00864
 C2197 C -0.15717 0.57354 0.49467
 N2198 N -0.16972 0.56807 0.48527
 N2199 N -0.18435 0.57516 0.48610
 C2200 C -0.18700 0.58792 0.49643
 N2201 N -0.17441 0.59329 0.50583
 N2202 N -0.15980 0.58627 0.50496
 C2203 C -0.14095 0.56593 0.49387
 N2204 N -0.12833 0.57248 0.50239
 N2205 N -0.11360 0.56564 0.50191
 C2206 C -0.11094 0.55196 0.49291
 N2207 N -0.12356 0.54539 0.48435
 N2208 N -0.13830 0.55228 0.48479
 C2209 C -0.09472 0.54431 0.49280
 N2210 N -0.09217 0.52977 0.48518
 N2211 N -0.07752 0.52268 0.48559
 C2212 C -0.06489 0.52990 0.49358
 N2213 N -0.06744 0.54447 0.50109
 N2214 N -0.08208 0.55153 0.50072
 C2215 C 0.34230 1.07507 -0.00557
 N2216 N 0.32983 1.06941 -0.01497
 N2217 N 0.31517 1.07646 -0.01437
 C2218 C 0.31241 1.08938 -0.00428
 N2219 N 0.32492 1.09496 0.00511
 N2220 N 0.33956 1.08797 0.00447
 C2221 C 0.35852 1.06747 -0.00610
 N2222 N 0.37106 1.07415 0.00245
 N2223 N 0.38579 1.06729 0.00224
 C2224 C 0.38853 1.05345 -0.00649
 N2225 N 0.37600 1.04675 -0.01507
 N2226 N 0.36126 1.05366 -0.01491
 C2227 C 0.40474 1.04578 -0.00630
 N2228 N 0.40735 1.03114 -0.01368
 N2229 N 0.42199 1.02404 -0.01303
 C2230 C 0.43455 1.03136 -0.00503
 N2231 N 0.43194 1.04604 0.00225
 N2232 N 0.41731 1.05310 0.00164
 C2233 C -0.00082 1.15686 1.07226
 N2234 N 0.00862 1.16910 1.06694
 N2235 N 0.00787 1.18383 1.07389
 C2236 C -0.00240 1.18689 1.08637
 N2237 N -0.01184 1.17461 1.09159
 N2238 N -0.01105 1.15990 1.08470
 C2239 C -0.00002 1.14053 1.06487
 N2240 N -0.00855 1.12819 1.07130
 N2241 N -0.00795 1.11332 1.06472
 C2242 C 0.00117 1.11024 1.05143
 N2243 N 0.00972 1.12258 1.04497
 N2244 N 0.00916 1.13746 1.05159
 C2245 C 0.00160 1.09384 1.04416
 N2246 N 0.00949 1.09087 1.03006
 N2247 N 0.00959 1.07600 1.02341
 C2248 C 0.00185 1.06357 1.03064
 N2249 N -0.00597 1.06654 1.04477
 N2250 N -0.00611 1.08141 1.05140
 C2251 C 0.49546 0.66076 0.56935
 N2252 N 0.48398 0.66466 0.58043
 N2253 N 0.48349 0.67944 0.58722
 C2254 C 0.49450 0.69089 0.58326
 N2255 N 0.50593 0.68698 0.57210
 N2256 N 0.50637 0.67221 0.56523
 C2257 C 0.49633 0.64426 0.56237
 N2258 N 0.50666 0.64066 0.55010
 N2259 N 0.50759 0.62560 0.54399
 C2260 C 0.49832 0.61357 0.55001
 N2261 N 0.48802 0.61717 0.56228
 N2262 N 0.48702 0.63225 0.56833
 C2263 C 0.49933 0.59695 0.54333
 N2264 N 0.49155 0.58460 0.55064
 N2265 N 0.49224 0.56955 0.54448
 C2266 C 0.50068 0.56631 0.53076
 N2267 N 0.50847 0.57867 0.52346
 N2268 N 0.50786 0.59371 0.52967
 C2269 C -0.00320 0.65280 0.42695
 N2270 N -0.00024 0.65377 0.41085
 N2271 N 0.00057 0.66815 0.40371
 C2272 C -0.00148 0.68218 0.41234
 N2273 N -0.00438 0.68122 0.42851
 N2274 N -0.00525 0.66679 0.43568
 C2275 C -0.00409 0.63678 0.43460
 N2276 N -0.00815 0.63532 0.45043
 N2277 N -0.00891 0.62067 0.45717
 C2278 C -0.00560 0.60700 0.44832
 N2279 N -0.00154 0.60851 0.43252
 N2280 N -0.00083 0.62311 0.42578
 C2281 C -0.00608 0.59082 0.45566
 N2282 N -0.00126 0.57749 0.44704
 N2283 N -0.00129 0.56281 0.45367
 C2284 C -0.00622 0.56088 0.46917
 N2285 N -0.01114 0.57419 0.47778
 N2286 N -0.01106 0.58891 0.47115
 C2287 C 0.49655 1.15361 -0.07275
 N2288 N 0.49967 1.15443 -0.08882
 N2289 N 0.50060 1.16875 -0.09608
 C2290 C 0.49852 1.18286 -0.08757
 N2291 N 0.49545 1.18203 -0.07143
 N2292 N 0.49447 1.16767 -0.06415
 C2293 C 0.49554 1.13768 -0.06496
 N2294 N 0.49139 1.13638 -0.04914
 N2295 N 0.49055 1.12182 -0.04226
 C2296 C 0.49386 1.10805 -0.05095
 N2297 N 0.49800 1.10938 -0.06675
 N2298 N 0.49880 1.12391 -0.07363
 C2299 C 0.49332 1.09195 -0.04344
 N2300 N 0.49814 1.07853 -0.05191
 N2301 N 0.49810 1.06392 -0.04511
 C2302 C 0.49315 1.06217 -0.02959
 N2303 N 0.48822 1.07559 -0.02113
 N2304 N 0.48832 1.09022 -0.02793
 C2305 C 0.50390 0.34242 -0.07360
 N2306 N 0.51335 0.33003 -0.06793
 N2307 N 0.51278 0.31533 -0.07496
 C2308 C 0.50268 0.31246 -0.08787
 N2309 N 0.49323 0.32489 -0.09346
 N2310 N 0.49384 0.33956 -0.08649
 C2311 C 0.50447 0.35870 -0.06606
 N2312 N 0.49595 0.37121 -0.07278
 N2313 N 0.49631 0.38601 -0.06603
 C2314 C 0.50516 0.38885 -0.05227
 N2315 N 0.51369 0.37634 -0.04553
 N2316 N 0.51338 0.36153 -0.05232
 C2317 C 0.50529 0.40516 -0.04477
 N2318 N 0.51283 0.40783 -0.03022
 N2319 N 0.51263 0.42259 -0.02333
 C2320 C 0.50494 0.43523 -0.03077
 N2321 N 0.49747 0.43256 -0.04535
 N2322 N 0.49762 0.41780 -0.05221
 C2323 C 0.00511 -0.15764 0.42560
 N2324 N -0.00500 -0.16052 0.41276
 N2325 N -0.00581 -0.17526 0.40597
 C2326 C 0.00349 -0.18775 0.41168
 N2327 N 0.01365 -0.18485 0.42455
 N2328 N 0.01441 -0.17008 0.43140
 C2329 C 0.00583 -0.14129 0.43299
 N2330 N 0.01476 -0.13840 0.44670
 N2331 N 0.01512 -0.12355 0.45341
 C2332 C 0.00661 -0.11106 0.44660
 N2333 N -0.00224 -0.11396 0.43286
 N2334 N -0.00264 -0.12879 0.42620
 C2335 C 0.00665 -0.09474 0.45408
 N2336 N -0.00121 -0.08219 0.44670
 N2337 N -0.00160 -0.06746 0.45361
 C2338 C 0.00583 -0.06473 0.46820
 N2339 N 0.01375 -0.07727 0.47557
 N2340 N 0.01419 -0.09200 0.46862
 C2341 C 0.49883 -0.15197 0.57426
 N2342 N 0.49349 -0.16543 0.56618
 N2343 N 0.49360 -0.17985 0.57340
 C2344 C 0.49905 -0.18136 0.58897
 N2345 N 0.50440 -0.16785 0.59699
 N2346 N 0.50431 -0.15345 0.58978
 C2347 C 0.49865 -0.13600 0.56648
 N2348 N 0.50422 -0.12272 0.57469
 N2349 N 0.50405 -0.10817 0.56776
 C2350 C 0.49828 -0.10636 0.55237
 N2351 N 0.49270 -0.11965 0.54413
 N2352 N 0.49288 -0.13421 0.55107
 C2353 C 0.49817 -0.09029 0.54481
 N2354 N 0.49224 -0.08827 0.52949
 N2355 N 0.49225 -0.07365 0.52267
 C2356 C 0.49820 -0.06055 0.53092
 N2357 N 0.50410 -0.06258 0.54624
 N2358 N 0.50408 -0.07718 0.55306
 C2359 C -0.00521 0.34551 1.07245
 N2360 N -0.00601 0.33157 1.06345
 N2361 N -0.00624 0.31713 1.07065
 C2362 C -0.00577 0.31607 1.08712
 N2363 N -0.00505 0.33010 1.09601
 N2364 N -0.00474 0.34449 1.08885
 C2365 C -0.00469 0.36149 1.06474
 N2366 N -0.00195 0.37504 1.07392
 N2367 N -0.00140 0.38962 1.06711
 C2368 C -0.00365 0.39120 1.05086
 N2369 N -0.00643 0.37765 1.04165
 N2370 N -0.00690 0.36304 1.04847
 C2371 C -0.00305 0.40732 1.04346
 N2372 N -0.00709 0.40935 1.02757
 N2373 N -0.00660 0.42404 1.02095
 C2374 C -0.00197 0.43720 1.02994
 N2375 N 0.00211 0.43516 1.04581
 N2376 N 0.00153 0.42049 1.05246
 C2377 C 0.75677 0.32351 0.09697
 N2378 N 0.75602 0.33995 0.09612
 N2379 N 0.75583 0.34727 0.08182
 C2380 C 0.75629 0.33852 0.06770
 N2381 N 0.75706 0.32200 0.06863
 N2382 N 0.75732 0.31464 0.08298
 C2383 C 0.75674 0.31562 0.11286
 N2384 N 0.75909 0.29931 0.11422
 N2385 N 0.75894 0.29232 0.12873
 C2386 C 0.75634 0.30137 0.14237
 N2387 N 0.75398 0.31765 0.14099
 N2388 N 0.75422 0.32465 0.12652
 C2389 C 0.75586 0.29375 0.15838
 N2390 N 0.75122 0.30257 0.17159
 N2391 N 0.75051 0.29569 0.18610
 C2392 C 0.75450 0.27976 0.18797
 N2393 N 0.75922 0.27094 0.17477
 N2394 N 0.75986 0.27781 0.16022
 C2395 C 0.25716 0.82273 0.59554
 N2396 N 0.25466 0.83902 0.59463
 N2397 N 0.25431 0.84636 0.58033
 C2398 C 0.25638 0.83773 0.56634
 N2399 N 0.25887 0.82138 0.56726
 N2400 N 0.25927 0.81402 0.58160
 C2401 C 0.25741 0.81482 0.61143
 N2402 N 0.26097 0.79873 0.61285
 N2403 N 0.26106 0.79171 0.62736
 C2404 C 0.25755 0.80054 0.64093
 N2405 N 0.25399 0.81661 0.63948
 N2406 N 0.25396 0.82362 0.62501
 C2407 C 0.25732 0.79290 0.65694
 N2408 N 0.25228 0.80155 0.67011
 N2409 N 0.25175 0.79467 0.68462
 C2410 C 0.25630 0.77889 0.68654
 N2411 N 0.26143 0.77024 0.67339
 N2412 N 0.26191 0.77712 0.65884
 C2413 C 0.74620 0.67798 0.59318
 N2414 N 0.74857 0.66168 0.59184
 N2415 N 0.74868 0.65439 0.57734
 C2416 C 0.74646 0.66309 0.56356
 N2417 N 0.74414 0.67945 0.56490
 N2418 N 0.74398 0.68676 0.57945
 C2419 C 0.74610 0.68582 0.60930
 N2420 N 0.74254 0.70191 0.61112
 N2421 N 0.74244 0.70883 0.62584
 C2422 C 0.74594 0.69993 0.63925
 N2423 N 0.74951 0.68387 0.63741
 N2424 N 0.74956 0.67694 0.62272
 C2425 C 0.74600 0.70746 0.65551
 N2426 N 0.75080 0.69872 0.66864
 N2427 N 0.75105 0.70549 0.68341
 C2428 C 0.74642 0.72125 0.68561
 N2429 N 0.74155 0.72999 0.67249
 N2430 N 0.74136 0.72322 0.65771
 C2431 C 0.24291 0.17702 0.09126
 N2432 N 0.24383 0.16060 0.08985
 N2433 N 0.24423 0.15342 0.07530
 C2434 C 0.24382 0.16231 0.06148
 N2435 N 0.24289 0.17882 0.06296
 N2436 N 0.24242 0.18603 0.07755
 C2437 C 0.24266 0.18471 0.10744
 N2438 N 0.24023 0.20099 0.10933
 N2439 N 0.24009 0.20776 0.12413
 C2440 C 0.24244 0.19851 0.13753
 N2441 N 0.24488 0.18225 0.13560
 N2442 N 0.24495 0.17548 0.12084
 C2443 C 0.24256 0.20584 0.15387
 N2444 N 0.24680 0.19674 0.16693
 N2445 N 0.24716 0.20331 0.18178
 C2446 C 0.24320 0.21922 0.18415
 N2447 N 0.23888 0.22833 0.17110
 N2448 N 0.23860 0.22177 0.15622
 C2449 C 0.25091 0.17691 0.90333
 N2450 N 0.24074 0.16432 0.90573
 N2451 N 0.23973 0.15757 0.92027
 C2452 C 0.24888 0.16309 0.93301
 N2453 N 0.25907 0.17572 0.93059
 N2454 N 0.26004 0.18253 0.91603
 C2455 C 0.25197 0.18414 0.88717
 N2456 N 0.26100 0.19761 0.88472
 N2457 N 0.26176 0.20411 0.87000
 C2458 C 0.25359 0.19733 0.85721
 N2459 N 0.24462 0.18384 0.85967
 N2460 N 0.24381 0.17739 0.87437
 C2461 C 0.25417 0.20449 0.84098
 N2462 N 0.24680 0.19696 0.82814
 N2463 N 0.24697 0.20353 0.81345
 C2464 C 0.25448 0.21791 0.81106
 N2465 N 0.26190 0.22544 0.82390
 N2466 N 0.26177 0.21883 0.83859
 C2467 C 0.75223 0.67654 0.40456
 N2468 N 0.74200 0.66400 0.40694
 N2469 N 0.74104 0.65715 0.42144
 C2470 C 0.75030 0.66252 0.43416
 N2471 N 0.76057 0.67509 0.43177
 N2472 N 0.76149 0.68200 0.41725
 C2473 C 0.75321 0.68390 0.38845
 N2474 N 0.76223 0.69738 0.38605
 N2475 N 0.76290 0.70400 0.37138
 C2476 C 0.75464 0.69731 0.35859
 N2477 N 0.74568 0.68381 0.36101
 N2478 N 0.74496 0.67725 0.37566
 C2479 C 0.75512 0.70458 0.34241
 N2480 N 0.74772 0.69708 0.32956
 N2481 N 0.74781 0.70372 0.31491
 C2482 C 0.75525 0.71814 0.31255
 N2483 N 0.76268 0.72565 0.32539
 N2484 N 0.76265 0.71897 0.34005
 C2485 C 0.25061 0.82258 0.40763
 N2486 N 0.24106 0.81740 0.41980
 N2487 N 0.24167 0.82462 0.43438
 C2488 C 0.25190 0.83724 0.43736
 N2489 N 0.26146 0.84232 0.42516
 N2490 N 0.26081 0.83516 0.41059
 C2491 C 0.24994 0.81491 0.39144
 N2492 N 0.25858 0.82119 0.37915
 N2493 N 0.25805 0.81440 0.36440
 C2494 C 0.24890 0.80103 0.36140
 N2495 N 0.24026 0.79470 0.37370
 N2496 N 0.24074 0.80155 0.38846
 C2497 C 0.24848 0.79359 0.34510
 N2498 N 0.24051 0.77945 0.34218
 N2499 N 0.24034 0.77271 0.32737
 C2500 C 0.24810 0.77989 0.31496
 N2501 N 0.25602 0.79406 0.31789
 N2502 N 0.25623 0.80076 0.33269
 C2503 C 0.75082 0.32379 0.90936
 N2504 N 0.76099 0.33634 0.91253
 N2505 N 0.76167 0.34321 0.92723
 C2506 C 0.75219 0.33785 0.93937
 N2507 N 0.74199 0.32525 0.93618
 N2508 N 0.74135 0.31833 0.92146
 C2509 C 0.75012 0.31644 0.89302
 N2510 N 0.74098 0.30308 0.88981
 N2511 N 0.74049 0.29651 0.87494
 C2512 C 0.74907 0.30311 0.86274
 N2513 N 0.75817 0.31647 0.86596
 N2514 N 0.75870 0.32300 0.88082
 C2515 C 0.74868 0.29592 0.84633
 N2516 N 0.75640 0.30328 0.83401
 N2517 N 0.75624 0.29675 0.81913
 C2518 C 0.74840 0.28257 0.81603
 N2519 N 0.74066 0.27520 0.82835
 N2520 N 0.74078 0.28177 0.84323
 C2521 C 0.82422 0.40342 0.24397
 N2522 N 0.84051 0.40444 0.24644
 N2523 N 0.84780 0.41881 0.24667
 C2524 C 0.83912 0.43278 0.24449
 N2525 N 0.82277 0.43176 0.24204
 N2526 N 0.81546 0.41734 0.24176
 C2527 C 0.81635 0.38746 0.24385
 N2528 N 0.80025 0.38598 0.24031
 N2529 N 0.79326 0.37141 0.24031
 C2530 C 0.80210 0.35784 0.24390
 N2531 N 0.81818 0.35936 0.24744
 N2532 N 0.82517 0.37389 0.24739
 C2533 C 0.79445 0.34179 0.24420
 N2534 N 0.80307 0.32858 0.24926
 N2535 N 0.79613 0.31403 0.24985
 C2536 C 0.78033 0.31215 0.24532
 N2537 N 0.77172 0.32535 0.24017
 N2538 N 0.77864 0.33991 0.23965
 C2539 C 0.32523 0.90301 0.74429
 N2540 N 0.34146 0.90419 0.74702
 N2541 N 0.34861 0.91863 0.74737
 C2542 C 0.33982 0.93252 0.74507
 N2543 N 0.32353 0.93133 0.74237
 N2544 N 0.31636 0.91684 0.74196
 C2545 C 0.31753 0.88697 0.74400
 N2546 N 0.30152 0.88532 0.74013
 N2547 N 0.29467 0.87068 0.73996
 C2548 C 0.30359 0.85720 0.74369
 N2549 N 0.31957 0.85887 0.74756
 N2550 N 0.32642 0.87348 0.74767
 C2551 C 0.29609 0.84107 0.74380
 N2552 N 0.30473 0.82794 0.74904
 N2553 N 0.29792 0.81333 0.74947
 C2554 C 0.28223 0.81129 0.74460
 N2555 N 0.27361 0.82440 0.73926
 N2556 N 0.28041 0.83904 0.73890
 C2557 C 0.17615 0.90624 0.25608
 N2558 N 0.18497 0.92011 0.25655
 N2559 N 0.17758 0.93463 0.25608
 C2560 C 0.16106 0.93587 0.25519
 N2561 N 0.15236 0.92187 0.25481
 N2562 N 0.15972 0.90740 0.25520
 C2563 C 0.18404 0.89014 0.25632
 N2564 N 0.17501 0.87658 0.25391
 N2565 N 0.18198 0.86189 0.25397
 C2566 C 0.19823 0.86020 0.25652
 N2567 N 0.20729 0.87376 0.25899
 N2568 N 0.20032 0.88849 0.25886
 C2569 C 0.20577 0.84394 0.25639
 N2570 N 0.22166 0.84180 0.26061
 N2571 N 0.22842 0.82698 0.26034
 C2572 C 0.21954 0.81381 0.25578
 N2573 N 0.20366 0.81597 0.25156
 N2574 N 0.19690 0.83075 0.25191
 C2575 C 0.67663 0.40910 0.75601
 N2576 N 0.68536 0.42291 0.75825
 N2577 N 0.67804 0.43747 0.75782
 C2578 C 0.66172 0.43874 0.75520
 N2579 N 0.65307 0.42488 0.75299
 N2580 N 0.66037 0.41038 0.75336
 C2581 C 0.68446 0.39297 0.75637
 N2582 N 0.67564 0.37949 0.75281
 N2583 N 0.68256 0.36479 0.75303
 C2584 C 0.69856 0.36299 0.75689
 N2585 N 0.70741 0.37646 0.76050
 N2586 N 0.70049 0.39120 0.76022
 C2587 C 0.70609 0.34671 0.75695
 N2588 N 0.72177 0.34452 0.76191
 N2589 N 0.72854 0.32971 0.76176
 C2590 C 0.71989 0.31658 0.75661
 N2591 N 0.70422 0.31880 0.75167
 N2592 N 0.69744 0.33358 0.75188
 C2593 C 0.67615 0.59754 0.74846
 N2594 N 0.66362 0.59525 0.75866
 N2595 N 0.65650 0.58083 0.75947
 C2596 C 0.66156 0.56810 0.75009
 N2597 N 0.67411 0.57042 0.73985
 N2598 N 0.68130 0.58485 0.73908
 C2599 C 0.68384 0.61356 0.74765
 N2600 N 0.69719 0.61588 0.73848
 N2601 N 0.70409 0.63047 0.73793
 C2602 C 0.69786 0.64327 0.74647
 N2603 N 0.68450 0.64094 0.75558
 N2604 N 0.67764 0.62636 0.75618
 C2605 C 0.70542 0.65937 0.74606
 N2606 N 0.69842 0.67224 0.75382
 N2607 N 0.70529 0.68683 0.75371
 C2608 C 0.71947 0.68910 0.74587
 N2609 N 0.72648 0.67623 0.73808
 N2610 N 0.71957 0.66163 0.73814
 C2611 C 0.17494 0.09396 0.24785
 N2612 N 0.18021 0.08132 0.23847
 N2613 N 0.17331 0.06675 0.23942
 C2614 C 0.16094 0.06426 0.24984
 N2615 N 0.15577 0.07694 0.25923
 N2616 N 0.16261 0.09148 0.25824
 C2617 C 0.18231 0.11011 0.24683
 N2618 N 0.17601 0.12285 0.25538
 N2619 N 0.18259 0.13754 0.25460
 C2620 C 0.19576 0.14005 0.24527
 N2621 N 0.20209 0.12732 0.23670
 N2622 N 0.19546 0.11261 0.23744
 C2623 C 0.20309 0.15625 0.24470
 N2624 N 0.21708 0.15866 0.23657
 N2625 N 0.22385 0.17333 0.23643
 C2626 C 0.21684 0.18612 0.24436
 N2627 N 0.20281 0.18370 0.25241
 N2628 N 0.19608 0.16905 0.25259
 C2629 C 0.32400 0.09203 0.74954
 N2630 N 0.33660 0.08900 0.73950
 N2631 N 0.34370 0.07439 0.73903
 C2632 C 0.33853 0.06221 0.74861
 N2633 N 0.32589 0.06526 0.75868
 N2634 N 0.31874 0.07989 0.75912
 C2635 C 0.31639 0.10826 0.75000
 N2636 N 0.30300 0.11131 0.75904
 N2637 N 0.29618 0.12610 0.75930
 C2638 C 0.30254 0.13836 0.75059
 N2639 N 0.31594 0.13530 0.74160
 N2640 N 0.32271 0.12053 0.74130
 C2641 C 0.29508 0.15466 0.75074
 N2642 N 0.30220 0.16708 0.74289
 N2643 N 0.29543 0.18186 0.74286
 C2644 C 0.28125 0.18478 0.75065
 N2645 N 0.27412 0.17236 0.75851
 N2646 N 0.28093 0.15758 0.75858
 C2647 C 0.82462 0.59230 0.24989
 N2648 N 0.83718 0.58931 0.23977
 N2649 N 0.84419 0.57466 0.23910
 C2650 C 0.83898 0.56240 0.24856
 N2651 N 0.82639 0.56541 0.25871
 N2652 N 0.81932 0.58008 0.25934
 C2653 C 0.81708 0.60856 0.25056
 N2654 N 0.80373 0.61155 0.25967
 N2655 N 0.79696 0.62635 0.26012
 C2656 C 0.80334 0.63870 0.25154
 N2657 N 0.81670 0.63570 0.24248
 N2658 N 0.82342 0.62090 0.24198
 C2659 C 0.79590 0.65501 0.25188
 N2660 N 0.80300 0.66749 0.24411
 N2661 N 0.79622 0.68227 0.24421
 C2662 C 0.78206 0.68512 0.25204
 N2663 N 0.77496 0.67264 0.25983
 N2664 N 0.78177 0.65786 0.25977
 C2665 C 0.90260 0.25483 0.17560
 N2666 N 0.90356 0.25243 0.15934
 N2667 N 0.91788 0.25235 0.15207
 C2668 C 0.93186 0.25461 0.16076
 N2669 N 0.93090 0.25698 0.17708
 N2670 N 0.91653 0.25711 0.18436
 C2671 C 0.88669 0.25484 0.18344
 N2672 N 0.88525 0.25848 0.19947
 N2673 N 0.87073 0.25845 0.20643
 C2674 C 0.85716 0.25472 0.19762
 N2675 N 0.85862 0.25106 0.18160
 N2676 N 0.87311 0.25115 0.17464
 C2677 C 0.84115 0.25446 0.20524
 N2678 N 0.82791 0.24924 0.19670
 N2679 N 0.81340 0.24877 0.20361
 C2680 C 0.81158 0.25357 0.21931
 N2681 N 0.82481 0.25886 0.22783
 N2682 N 0.83934 0.25927 0.22093
 C2683 C 0.40743 0.75333 0.68075
 N2684 N 0.41429 0.73937 0.67498
 N2685 N 0.42887 0.73955 0.66815
 C2686 C 0.43705 0.75371 0.66671
 N2687 N 0.43018 0.76766 0.67255
 N2688 N 0.41568 0.76745 0.67953
 C2689 C 0.39111 0.75325 0.68769
 N2690 N 0.38562 0.76614 0.69657
 N2691 N 0.37069 0.76619 0.70261
 C2692 C 0.36063 0.75344 0.69980
 N2693 N 0.36609 0.74057 0.69087
 N2694 N 0.38108 0.74045 0.68497
 C2695 C 0.34417 0.75350 0.70641
 N2696 N 0.33286 0.74289 0.70065
 N2697 N 0.31799 0.74278 0.70682
 C2698 C 0.31393 0.75318 0.71907
 N2699 N 0.32525 0.76378 0.72483
 N2700 N 0.34006 0.76401 0.71854
 C2701 C 0.40709 0.24445 0.82212
 N2702 N 0.40840 0.24699 0.83837
 N2703 N 0.42290 0.24710 0.84573
 C2704 C 0.43672 0.24473 0.83716
 N2705 N 0.43541 0.24223 0.82084
 N2706 N 0.42086 0.24207 0.81346
 C2707 C 0.39097 0.24437 0.81421
 N2708 N 0.38914 0.24058 0.79820
 N2709 N 0.37440 0.24049 0.79123
 C2710 C 0.36100 0.24424 0.80001
 N2711 N 0.36286 0.24804 0.81599
 N2712 N 0.37756 0.24807 0.82296
 C2713 C 0.34472 0.24430 0.79244
 N2714 N 0.33164 0.24941 0.80104
 N2715 N 0.31685 0.24963 0.79424
 C2716 C 0.31457 0.24468 0.77861
 N2717 N 0.32765 0.23951 0.77001
 N2718 N 0.34246 0.23935 0.77679
 C2719 C 0.90766 0.74407 0.32354
 N2720 N 0.92146 0.74333 0.31471
 N2721 N 0.93602 0.74348 0.32207
 C2722 C 0.93737 0.74429 0.33856
 N2723 N 0.92345 0.74494 0.34727
 N2724 N 0.90894 0.74488 0.33994
 C2725 C 0.89152 0.74414 0.31565
 N2726 N 0.87804 0.74679 0.32464
 N2727 N 0.86334 0.74694 0.31767
 C2728 C 0.86155 0.74435 0.30145
 N2729 N 0.87502 0.74165 0.29244
 N2730 N 0.88976 0.74158 0.29941
 C2731 C 0.84527 0.74458 0.29388
 N2732 N 0.84307 0.74026 0.27805
 N2733 N 0.82826 0.74050 0.27127
 C2734 C 0.81512 0.74514 0.28006
 N2735 N 0.81734 0.74948 0.29588
 N2736 N 0.83213 0.74916 0.30267
 C2737 C 0.09528 0.75015 0.32404
 N2738 N 0.08259 0.75941 0.31864
 N2739 N 0.06810 0.75853 0.32560
 C2740 C 0.06573 0.74832 0.33818
 N2741 N 0.07845 0.73905 0.34349
 N2742 N 0.09293 0.73996 0.33658
 C2743 C 0.11136 0.75111 0.31661
 N2744 N 0.12418 0.74280 0.32311
 N2745 N 0.13881 0.74353 0.31648
 C2746 C 0.14118 0.75256 0.30306
 N2747 N 0.12836 0.76087 0.29652
 N2748 N 0.11371 0.76019 0.30320
 C2749 C 0.15733 0.75309 0.29571
 N2750 N 0.15959 0.76080 0.28145
 N2751 N 0.17422 0.76093 0.27470
 C2752 C 0.18712 0.75340 0.28200
 N2753 N 0.18485 0.74577 0.29629
 N2754 N 0.17023 0.74560 0.30300
 C2755 C 0.59577 0.25172 0.82448
 N2756 N 0.58304 0.26092 0.81909
 N2757 N 0.56853 0.25989 0.82600
 C2758 C 0.56618 0.24957 0.83849
 N2759 N 0.57895 0.24036 0.84379
 N2760 N 0.59345 0.24142 0.83695
 C2761 C 0.61187 0.25283 0.81711
 N2762 N 0.62473 0.24459 0.82361
 N2763 N 0.63937 0.24547 0.81703
 C2764 C 0.64171 0.25459 0.80367
 N2765 N 0.62885 0.26284 0.79714
 N2766 N 0.61419 0.26201 0.80376
 C2767 C 0.65788 0.25528 0.79637
 N2768 N 0.66013 0.26306 0.78215
 N2769 N 0.67477 0.26332 0.77545
 C2770 C 0.68770 0.25587 0.78276
 N2771 N 0.68544 0.24817 0.79702
 N2772 N 0.67081 0.24786 0.80368
 C2773 C 0.59460 0.74937 0.67425
 N2774 N 0.58126 0.74458 0.68235
 N2775 N 0.56662 0.74492 0.67517
 C2776 C 0.56478 0.75004 0.65962
 N2777 N 0.57819 0.75478 0.65157
 N2778 N 0.59279 0.75447 0.65873
 C2779 C 0.61076 0.74916 0.68206
 N2780 N 0.62389 0.75445 0.67393
 N2781 N 0.63857 0.75440 0.68094
 C2782 C 0.64069 0.74903 0.69634
 N2783 N 0.62758 0.74371 0.70449
 N2784 N 0.61287 0.74378 0.69747
 C2785 C 0.65691 0.74910 0.70404
 N2786 N 0.65924 0.74342 0.71930
 N2787 N 0.67397 0.74359 0.72626
 C2788 C 0.68690 0.74947 0.71820
 N2789 N 0.68456 0.75514 0.70293
 N2790 N 0.66984 0.75495 0.69598
 C2791 C 0.09128 0.24924 0.17511
 N2792 N 0.08831 0.25931 0.16248
 N2793 N 0.07366 0.25997 0.15545
 C2794 C 0.06137 0.25057 0.16071
 N2795 N 0.06436 0.24046 0.17337
 N2796 N 0.07904 0.23984 0.18046
 C2797 C 0.10754 0.24860 0.18269
 N2798 N 0.11052 0.23960 0.19614
 N2799 N 0.12533 0.23919 0.20295
 C2800 C 0.13768 0.24772 0.19650
 N2801 N 0.13469 0.25667 0.18304
 N2802 N 0.11989 0.25712 0.17628
 C2803 C 0.15400 0.24741 0.20395
 N2804 N 0.16649 0.25505 0.19675
 N2805 N 0.18130 0.25494 0.20351
 C2806 C 0.18416 0.24724 0.21775
 N2807 N 0.17167 0.23959 0.22497
 N2808 N 0.15687 0.23965 0.21817
 C2809 C -0.07442 0.99563 0.84368
 N2810 N -0.06972 0.98532 0.83159
 N2811 N -0.07642 0.98637 0.81680
 C2812 C -0.08801 0.99784 0.81347
 N2813 N -0.09257 1.00817 0.82561
 N2814 N -0.08595 1.00708 0.84040
 C2815 C -0.06729 0.99451 0.86008
 N2816 N -0.07356 1.00357 0.87241
 N2817 N -0.06714 1.00278 0.88731
 C2818 C -0.05415 0.99294 0.89043
 N2819 N -0.04785 0.98386 0.87811
 N2820 N -0.05434 0.98459 0.86320
 C2821 C -0.04687 0.99253 0.90681
 N2822 N -0.03258 0.98460 0.90969
 N2823 N -0.02573 0.98485 0.92446
 C2824 C -0.03299 0.99297 0.93690
 N2825 N -0.04736 1.00076 0.93404
 N2826 N -0.05415 1.00057 0.91927
 C2827 C 0.42441 0.49531 0.34416
 N2828 N 0.41168 0.50548 0.34109
 N2829 N 0.40494 0.50613 0.32633
 C2830 C 0.41060 0.49660 0.31402
 N2831 N 0.42334 0.48638 0.31711
 N2832 N 0.43015 0.48577 0.33189
 C2833 C 0.43173 0.49475 0.36052
 N2834 N 0.44538 0.48581 0.36358
 N2835 N 0.45202 0.48559 0.37845
 C2836 C 0.44520 0.49424 0.39079
 N2837 N 0.43152 0.50311 0.38772
 N2838 N 0.42492 0.50337 0.37287
 C2839 C 0.45260 0.49435 0.40714
 N2840 N 0.44513 0.50230 0.41954
 N2841 N 0.45196 0.50283 0.43430
 C2842 C 0.46655 0.49547 0.43719
 N2843 N 0.47400 0.48746 0.42480
 N2844 N 0.46713 0.48688 0.41004
 C2845 C 0.57436 0.00625 0.34572
 N2846 N 0.56546 0.00681 0.33172
 N2847 N 0.57274 0.00599 0.31737
 C2848 C 0.58920 0.00463 0.31646
 N2849 N 0.59801 0.00414 0.33056
 N2850 N 0.59075 0.00489 0.34486
 C2851 C 0.56655 0.00689 0.36163
 N2852 N 0.57559 0.00456 0.37534
 N2853 N 0.56868 0.00494 0.38984
 C2854 C 0.55248 0.00774 0.39120
 N2855 N 0.54341 0.01014 0.37750
 N2856 N 0.55032 0.00969 0.36296
 C2857 C 0.54496 0.00785 0.40725
 N2858 N 0.52908 0.01207 0.40905
 N2859 N 0.52231 0.01189 0.42364
 C2860 C 0.53116 0.00741 0.43694
 N2861 N 0.54704 0.00322 0.43512
 N2862 N 0.55382 0.00348 0.42056
 C2863 C 0.07428 0.50466 0.84494
 N2864 N 0.06530 0.50682 0.83115
 N2865 N 0.07233 0.50621 0.81667
 C2866 C 0.08860 0.50347 0.81546
 N2867 N 0.09750 0.50133 0.82930
 N2868 N 0.09049 0.50188 0.84374
 C2869 C 0.06673 0.50518 0.86097
 N2870 N 0.07572 0.50167 0.87444
 N2871 N 0.06902 0.50199 0.88904
 C2872 C 0.05306 0.50590 0.89073
 N2873 N 0.04405 0.50947 0.87727
 N2874 N 0.05075 0.50909 0.86263
 C2875 C 0.04572 0.50598 0.90686
 N2876 N 0.03008 0.51091 0.90890
 N2877 N 0.02342 0.51069 0.92354
 C2878 C 0.03215 0.50549 0.93664
 N2879 N 0.04780 0.50059 0.93458
 N2880 N 0.05447 0.50087 0.91997
 C2881 C 0.07066 0.49580 0.65677
 N2882 N 0.06562 0.48646 0.66918
 N2883 N 0.07295 0.48739 0.68371
 C2884 C 0.08553 0.49773 0.68639
 N2885 N 0.09046 0.50707 0.67395
 N2886 N 0.08320 0.50611 0.65944
 C2887 C 0.06294 0.49480 0.64061
 N2888 N 0.06926 0.50316 0.62813
 N2889 N 0.06245 0.50242 0.61340
 C2890 C 0.04900 0.49333 0.61057
 N2891 N 0.04262 0.48496 0.62304
 N2892 N 0.04950 0.48565 0.63780
 C2893 C 0.04157 0.49282 0.59426
 N2894 N 0.02726 0.48514 0.59133
 N2895 N 0.02051 0.48510 0.57651
 C2896 C 0.02787 0.49269 0.56409
 N2897 N 0.04221 0.50028 0.56703
 N2898 N 0.04891 0.50036 0.58183
 C2899 C 0.57093 0.99693 0.15846
 N2900 N 0.56577 0.98768 0.17088
 N2901 N 0.57320 0.98843 0.18538
 C2902 C 0.58601 0.99851 0.18800
 N2903 N 0.59106 1.00776 0.17554
 N2904 N 0.58369 1.00698 0.16108
 C2905 C 0.56307 0.99614 0.14234
 N2906 N 0.56943 1.00447 0.12986
 N2907 N 0.56249 1.00391 0.11518
 C2908 C 0.54889 0.99505 0.11240
 N2909 N 0.54247 0.98671 0.12488
 N2910 N 0.54947 0.98722 0.13959
 C2911 C 0.54133 0.99470 0.09613
 N2912 N 0.52693 0.98716 0.09328
 N2913 N 0.52010 0.98722 0.07849
 C2914 C 0.52746 0.99476 0.06604
 N2915 N 0.54188 1.00222 0.06891
 N2916 N 0.54867 1.00221 0.08367
 C2917 C 0.42710 0.50136 0.15536
 N2918 N 0.43570 0.50351 0.16942
 N2919 N 0.42836 0.50276 0.18372
 C2920 C 0.41214 0.49986 0.18448
 N2921 N 0.40363 0.49770 0.17037
 N2922 N 0.41095 0.49841 0.15612
 C2923 C 0.43494 0.50214 0.13949
 N2924 N 0.42624 0.49882 0.12574
 N2925 N 0.43315 0.49943 0.11127
 C2926 C 0.44902 0.50346 0.10997
 N2927 N 0.45776 0.50684 0.12371
 N2928 N 0.45084 0.50618 0.13822
 C2929 C 0.45654 0.50384 0.09392
 N2930 N 0.47212 0.50876 0.09219
 N2931 N 0.47891 0.50875 0.07760
 C2932 C 0.47036 0.50381 0.06422
 N2933 N 0.45477 0.49894 0.06596
 N2934 N 0.44798 0.49900 0.08053
 C2935 C -0.07158 0.00325 0.65584
 N2936 N -0.06269 0.00398 0.66985
 N2937 N -0.06999 0.00373 0.68419
 C2938 C -0.08647 0.00282 0.68508
 N2939 N -0.09526 0.00215 0.67099
 N2940 N -0.08798 0.00232 0.65669
 C2941 C -0.06376 0.00331 0.63994
 N2942 N -0.07277 0.00074 0.62624
 N2943 N -0.06587 0.00070 0.61173
 C2944 C -0.04970 0.00332 0.61037
 N2945 N -0.04065 0.00595 0.62407
 N2946 N -0.04756 0.00591 0.63861
 C2947 C -0.04223 0.00316 0.59429
 N2948 N -0.02647 0.00742 0.59244
 N2949 N -0.01982 0.00720 0.57778
 C2950 C -0.02868 0.00263 0.56447
 N2951 N -0.04442 -0.00165 0.56635
 N2952 N -0.05108 -0.00135 0.58098
 C2953 C -0.15653 0.92670 0.99738
 N2954 N -0.15884 0.91423 1.00769
 N2955 N -0.17334 0.90733 1.00875
 C2956 C -0.18613 0.91256 0.99952
 N2957 N -0.18380 0.92507 0.98919
 N2958 N -0.16929 0.93204 0.98817
 C2959 C -0.14042 0.93412 0.99630
 N2960 N -0.13806 0.94755 0.98721
 N2961 N -0.12338 0.95423 0.98648
 C2962 C -0.11054 0.94766 0.99473
 N2963 N -0.11291 0.93421 1.00374
 N2964 N -0.12757 0.92758 1.00452
 C2965 C -0.09436 0.95503 0.99427
 N2966 N -0.08152 0.94768 1.00180
 N2967 N -0.06689 0.95446 1.00187
 C2968 C -0.06455 0.96888 0.99445
 N2969 N -0.07737 0.97622 0.98685
 N2970 N -0.09202 0.96940 0.98673
 C2971 C 0.34389 0.42672 0.49614
 N2972 N 0.32982 0.43531 0.49407
 N2973 N 0.31548 0.42794 0.49481
 C2974 C 0.31468 0.41169 0.49760
 N2975 N 0.32879 0.40319 0.49966
 N2976 N 0.34308 0.41054 0.49898
 C2977 C 0.35979 0.43463 0.49542
 N2978 N 0.37356 0.42594 0.49863
 N2979 N 0.38806 0.43294 0.49812
 C2980 C 0.38936 0.44887 0.49430
 N2981 N 0.37560 0.45758 0.49102
 N2982 N 0.36106 0.45058 0.49158
 C2983 C 0.40542 0.45652 0.49410
 N2984 N 0.40710 0.47221 0.48946
 N2985 N 0.42168 0.47914 0.48968
 C2986 C 0.43510 0.47065 0.49459
 N2987 N 0.43340 0.45497 0.49917
 N2988 N 0.41885 0.44803 0.49889
 C2989 C 0.34503 0.57352 0.00465
 N2990 N 0.34244 0.58641 -0.00520
 N2991 N 0.32782 0.59339 -0.00636
 C2992 C 0.31517 0.58782 0.00231
 N2993 N 0.31777 0.57491 0.01221
 N2994 N 0.33242 0.56786 0.01333
 C2995 C 0.36126 0.56597 0.00575
 N2996 N 0.36391 0.55211 0.01424
 N2997 N 0.37868 0.54527 0.01490
 C2998 C 0.39132 0.55210 0.00716
 N2999 N 0.38866 0.56599 -0.00125
 N3000 N 0.37392 0.57277 -0.00196
 C3001 C 0.40758 0.54454 0.00746
 N3002 N 0.42020 0.55206 0.00037
 N3003 N 0.43487 0.54510 0.00011
 C3004 C 0.43750 0.53033 0.00689
 N3005 N 0.42490 0.52281 0.01406
 N3006 N 0.41020 0.52980 0.01436
 C3007 C -0.15559 0.07284 0.50316
 N3008 N -0.16795 0.06758 0.51242
 N3009 N -0.18245 0.07501 0.51187
 C3010 C -0.18513 0.08792 0.50198
 N3011 N -0.17272 0.09308 0.49273
 N3012 N -0.15826 0.08572 0.49332
 C3013 C -0.13949 0.06494 0.50372
 N3014 N -0.12701 0.07136 0.49542
 N3015 N -0.11236 0.06436 0.49579
 C3016 C -0.10962 0.05063 0.50441
 N3017 N -0.12210 0.04416 0.51272
 N3018 N -0.13678 0.05122 0.51240
 C3019 C -0.09340 0.04298 0.50460
 N3020 N -0.09070 0.02847 0.51192
 N3021 N -0.07596 0.02155 0.51180
 C3022 C -0.06341 0.02892 0.50441
 N3023 N -0.06613 0.04345 0.49716
 N3024 N -0.08085 0.05033 0.49723
 C3025 C 0.65580 0.07612 0.49536
 N3026 N 0.66960 0.06712 0.49346
 N3027 N 0.68414 0.07415 0.49420
 C3028 C 0.68541 0.09046 0.49682
 N3029 N 0.67157 0.09939 0.49870
 N3030 N 0.65707 0.09237 0.49801
 C3031 C 0.63971 0.06855 0.49471
 N3032 N 0.62621 0.07760 0.49788
 N3033 N 0.61156 0.07087 0.49747
 C3034 C 0.60985 0.05483 0.49382
 N3035 N 0.62335 0.04576 0.49058
 N3036 N 0.63802 0.05250 0.49104
 C3037 C 0.59368 0.04742 0.49372
 N3038 N 0.59168 0.03163 0.48918
 N3039 N 0.57704 0.02487 0.48947
 C3040 C 0.56387 0.03365 0.49436
 N3041 N 0.56587 0.04945 0.49884
 N3042 N 0.58050 0.05622 0.49849
 C3043 C 0.15681 0.57403 0.99321
 N3044 N 0.15782 0.59047 0.99412
 N3045 N 0.17221 0.59769 0.99468
 C3046 C 0.18625 0.58882 0.99444
 N3047 N 0.18520 0.57232 0.99351
 N3048 N 0.17077 0.56506 0.99288
 C3049 C 0.14082 0.56626 0.99286
 N3050 N 0.13935 0.54996 0.99049
 N3051 N 0.12475 0.54307 0.99035
 C3052 C 0.11111 0.55223 0.99265
 N3053 N 0.11260 0.56851 0.99501
 N3054 N 0.12718 0.57540 0.99507
 C3055 C 0.09500 0.54472 0.99290
 N3056 N 0.08177 0.55367 0.99726
 N3057 N 0.06717 0.54688 0.99786
 C3058 C 0.06523 0.53090 0.99403
 N3059 N 0.07845 0.52196 0.98956
 N3060 N 0.09308 0.52874 0.98904
 C3061 C 0.15522 0.42491 0.50205
 N3062 N 0.15813 0.41229 0.49170
 N3063 N 0.17282 0.40540 0.49103
 C3064 C 0.18520 0.41080 0.50070
 N3065 N 0.18227 0.42345 0.51108
 N3066 N 0.16756 0.43040 0.51171
 C3067 C 0.13890 0.43232 0.50272
 N3068 N 0.13600 0.44581 0.51197
 N3069 N 0.12115 0.45246 0.51241
 C3070 C 0.10868 0.44583 0.50368
 N3071 N 0.11160 0.43233 0.49449
 N3072 N 0.12643 0.42572 0.49400
 C3073 C 0.09231 0.45315 0.50397
 N3074 N 0.07974 0.44574 0.49610
 N3075 N 0.06492 0.45241 0.49610
 C3076 C 0.06212 0.46678 0.50391
 N3077 N 0.07469 0.47419 0.51180
 N3078 N 0.08951 0.46748 0.51186
 C3079 C 0.65454 0.92643 0.00465
 N3080 N 0.65598 0.91020 0.00185
 N3081 N 0.67056 0.90305 0.00150
 C3082 C 0.68431 0.91183 0.00388
 N3083 N 0.68286 0.92812 0.00663
 N3084 N 0.66824 0.93529 0.00703
 C3085 C 0.63835 0.93410 0.00504
 N3086 N 0.63644 0.95009 0.00902
 N3087 N 0.62164 0.95686 0.00939
 C3088 C 0.60826 0.94791 0.00574
 N3089 N 0.61019 0.93195 0.00175
 N3090 N 0.62495 0.92517 0.00144
 C3091 C 0.59192 0.95528 0.00595
 N3092 N 0.57882 0.94653 0.00097
 N3093 N 0.56399 0.95317 0.00094
 C3094 C 0.56170 0.96881 0.00594
 N3095 N 0.57479 0.97756 0.01099
 N3096 N 0.58964 0.97092 0.01097
 C3097 C -0.00258 0.84252 0.92723
 N3098 N 0.00850 0.83950 0.91554
 N3099 N 0.00960 0.82487 0.90853
 C3100 C -0.00037 0.81263 0.91284
 N3101 N -0.01147 0.81569 0.92462
 N3102 N -0.01252 0.83034 0.93171
 C3103 C -0.00376 0.85881 0.93467
 N3104 N -0.01345 0.86178 0.94760
 N3105 N -0.01429 0.87663 0.95428
 C3106 C -0.00556 0.88903 0.94818
 N3107 N 0.00405 0.88604 0.93523
 N3108 N 0.00495 0.87121 0.92862
 C3109 C -0.00617 0.90539 0.95552
 N3110 N 0.00154 0.91787 0.94836
 N3111 N 0.00148 0.93266 0.95511
 C3112 C -0.00624 0.93555 0.96931
 N3113 N -0.01402 0.92309 0.97647
 N3114 N -0.01402 0.90828 0.96967
 C3115 C 0.49423 0.34599 0.42582
 N3116 N 0.49185 0.33217 0.43430
 N3117 N 0.49279 0.31765 0.42695
 C3118 C 0.49611 0.31639 0.41087
 N3119 N 0.49846 0.33026 0.40246
 N3120 N 0.49757 0.34475 0.40979
 C3121 C 0.49339 0.36207 0.43375
 N3122 N 0.49682 0.37561 0.42525
 N3123 N 0.49629 0.39024 0.43233
 C3124 C 0.49225 0.39190 0.44817
 N3125 N 0.48875 0.37837 0.45669
 N3126 N 0.48933 0.36370 0.44961
 C3127 C 0.49205 0.40808 0.45592
 N3128 N 0.48734 0.41015 0.47154
 N3129 N 0.48755 0.42485 0.47856
 C3130 C 0.49253 0.43800 0.47020
 N3131 N 0.49718 0.43592 0.45458
 N3132 N 0.49691 0.42125 0.44756
 C3133 C -0.00103 0.33972 0.56713
 N3134 N -0.01519 0.33180 0.56946
 N3135 N -0.01524 0.31754 0.57699
 C3136 C -0.00117 0.31075 0.58273
 N3137 N 0.01297 0.31873 0.58028
 N3138 N 0.01305 0.33286 0.57255
 C3139 C -0.00095 0.35574 0.55946
 N3140 N 0.01290 0.36153 0.55301
 N3141 N 0.01317 0.37632 0.54657
 C3142 C -0.00034 0.38594 0.54658
 N3143 N -0.01418 0.38016 0.55307
 N3144 N -0.01451 0.36529 0.55931
 C3145 C 0.00009 0.40242 0.53995
 N3146 N -0.01105 0.41381 0.54453
 N3147 N -0.01058 0.42882 0.53866
 C3148 C 0.00094 0.43294 0.52787
 N3149 N 0.01203 0.42152 0.52323
 N3150 N 0.01169 0.40656 0.52926
 C3151 C 0.49772 0.84121 0.06876
 N3152 N 0.48370 0.83499 0.07443
 N3153 N 0.48368 0.82055 0.08162
 C3154 C 0.49769 0.81186 0.08354
 N3155 N 0.51169 0.81807 0.07779
 N3156 N 0.51169 0.83242 0.07045
 C3157 C 0.49794 0.85743 0.06150
 N3158 N 0.51092 0.86226 0.05286
 N3159 N 0.51134 0.87715 0.04669
 C3160 C 0.49889 0.88783 0.04911
 N3161 N 0.48592 0.88302 0.05777
 N3162 N 0.48542 0.86806 0.06380
 C3163 C 0.49949 0.90436 0.04257
 N3164 N 0.48931 0.91619 0.04815
 N3165 N 0.48985 0.93119 0.04224
 C3166 C 0.50049 0.93486 0.03043
 N3167 N 0.51064 0.92301 0.02482
 N3168 N 0.51022 0.90806 0.03085
 C3169 C 0.49308 0.65439 0.07680
 N3170 N 0.48815 0.66784 0.06861
 N3171 N 0.48864 0.68250 0.07574
 C3172 C 0.49408 0.68425 0.09132
 N3173 N 0.49897 0.67074 0.09946
 N3174 N 0.49849 0.65612 0.09235
 C3175 C 0.49278 0.63821 0.06903
 N3176 N 0.49824 0.62498 0.07726
 N3177 N 0.49822 0.61029 0.07026
 C3178 C 0.49271 0.60826 0.05476
 N3179 N 0.48719 0.62148 0.04653
 N3180 N 0.48723 0.63619 0.05354
 C3181 C 0.49304 0.59207 0.04701
 N3182 N 0.48741 0.58986 0.03157
 N3183 N 0.48807 0.57521 0.02447
 C3184 C 0.49439 0.56224 0.03255
 N3185 N 0.49996 0.56446 0.04800
 N3186 N 0.49928 0.57909 0.05510
 C3187 C -0.00568 0.15457 0.57571
 N3188 N -0.01099 0.16797 0.56765
 N3189 N -0.01086 0.18256 0.57491
 C3190 C -0.00545 0.18431 0.59050
 N3191 N -0.00019 0.17086 0.59851
 N3192 N -0.00029 0.15629 0.59127
 C3193 C -0.00561 0.13844 0.56782
 N3194 N 0.00028 0.12530 0.57591
 N3195 N 0.00052 0.11065 0.56884
 C3196 C -0.00515 0.10857 0.55341
 N3197 N -0.01107 0.12170 0.54530
 N3198 N -0.01129 0.13638 0.55237
 C3199 C -0.00474 0.09238 0.54566
 N3200 N -0.01076 0.09004 0.53038
 N3201 N -0.01028 0.07533 0.52339
 C3202 C -0.00374 0.06243 0.53142
 N3203 N 0.00227 0.06478 0.54669
 N3204 N 0.00177 0.07948 0.55368
 C3205 C 0.50560 0.15761 0.42718
 N3206 N 0.51150 0.15941 0.41204
 N3207 N 0.51118 0.17388 0.40498
 C3208 C 0.50479 0.18711 0.41272
 N3209 N 0.49881 0.18530 0.42787
 N3210 N 0.49929 0.17083 0.43500
 C3211 C 0.50588 0.14158 0.43480
 N3212 N 0.50374 0.14011 0.45102
 N3213 N 0.50403 0.12550 0.45786
 C3214 C 0.50630 0.11184 0.44869
 N3215 N 0.50836 0.11331 0.43247
 N3216 N 0.50824 0.12792 0.42567
 C3217 C 0.50633 0.09572 0.45614
 N3218 N 0.50435 0.08211 0.44684
 N3219 N 0.50404 0.06749 0.45362
 C3220 C 0.50591 0.06594 0.46993
 N3221 N 0.50802 0.07954 0.47921
 N3222 N 0.50816 0.09418 0.47245
 C3223 C 0.00857 0.65503 0.92586
 N3224 N 0.00729 0.65582 0.90947
 N3225 N 0.00664 0.67013 0.90213
 C3226 C 0.00717 0.68429 0.91083
 N3227 N 0.00846 0.68345 0.92728
 N3228 N 0.00918 0.66910 0.93466
 C3229 C 0.00900 0.63913 0.93377
 N3230 N 0.01169 0.63787 0.95002
 N3231 N 0.01189 0.62334 0.95705
 C3232 C 0.00935 0.60958 0.94809
 N3233 N 0.00667 0.61087 0.93187
 N3234 N 0.00654 0.62536 0.92484
 C3235 C 0.00914 0.59356 0.95574
 N3236 N 0.00453 0.58024 0.94698
 N3237 N 0.00396 0.56571 0.95389
 C3238 C 0.00806 0.56393 0.96979
 N3239 N 0.01277 0.57723 0.97854
 N3240 N 0.01327 0.59180 0.97164
 C3241 C 0.24830 0.67741 0.90540
 N3242 N 0.25083 0.66114 0.90648
 N3243 N 0.25094 0.65390 0.92083
 C3244 C 0.24860 0.66263 0.93472
 N3245 N 0.24613 0.67897 0.93364
 N3246 N 0.24595 0.68622 0.91924
 C3247 C 0.24816 0.68515 0.88943
 N3248 N 0.24444 0.70119 0.88778
 N3249 N 0.24426 0.70798 0.87316
 C3250 C 0.24782 0.69898 0.85971
 N3251 N 0.25156 0.68298 0.86140
 N3252 N 0.25169 0.67619 0.87598
 C3253 C 0.24773 0.70631 0.84355
 N3254 N 0.25250 0.69739 0.83045
 N3255 N 0.25253 0.70391 0.81575
 C3256 C 0.24773 0.71959 0.81357
 N3257 N 0.24292 0.72852 0.82665
 N3258 N 0.24294 0.72200 0.84139
 C3259 C 0.74745 0.17844 0.40702
 N3260 N 0.74996 0.16217 0.40813
 N3261 N 0.75024 0.15500 0.42251
 C3262 C 0.74807 0.16379 0.43639
 N3263 N 0.74561 0.18012 0.43528
 N3264 N 0.74527 0.18732 0.42085
 C3265 C 0.74713 0.18611 0.39102
 N3266 N 0.74333 0.20213 0.38933
 N3267 N 0.74300 0.20887 0.37469
 C3268 C 0.74650 0.19983 0.36124
 N3269 N 0.75031 0.18385 0.36296
 N3270 N 0.75059 0.17711 0.37757
 C3271 C 0.74628 0.20711 0.34506
 N3272 N 0.75110 0.19822 0.33197
 N3273 N 0.75105 0.20472 0.31726
 C3274 C 0.74610 0.22035 0.31506
 N3275 N 0.74122 0.22925 0.32814
 N3276 N 0.74132 0.22275 0.34289
 C3277 C 0.25606 0.32163 0.40513
 N3278 N 0.25778 0.31282 0.41891
 N3279 N 0.25706 0.32010 0.43345
 C3280 C 0.25464 0.33646 0.43475
 N3281 N 0.25295 0.34518 0.42093
 N3282 N 0.25361 0.33792 0.40643
 C3283 C 0.25661 0.31384 0.38900
 N3284 N 0.25356 0.32280 0.37555
 N3285 N 0.25382 0.31592 0.36085
 C3286 C 0.25721 0.29982 0.35902
 N3287 N 0.26034 0.29083 0.37246
 N3288 N 0.26002 0.29772 0.38720
 C3289 C 0.25709 0.29233 0.34274
 N3290 N 0.26142 0.27649 0.34047
 N3291 N 0.26089 0.26974 0.32567
 C3292 C 0.25597 0.27859 0.31263
 N3293 N 0.25170 0.29443 0.31493
 N3294 N 0.25229 0.30118 0.32969
 C3295 C 0.75510 0.82452 0.90628
 N3296 N 0.74477 0.83719 0.90898
 N3297 N 0.74361 0.84392 0.92369
 C3298 C 0.75276 0.83828 0.93632
 N3299 N 0.76313 0.82558 0.93361
 N3300 N 0.76424 0.81879 0.91887
 C3301 C 0.75622 0.81726 0.88994
 N3302 N 0.76520 0.80357 0.88718
 N3303 N 0.76589 0.79699 0.87232
 C3304 C 0.75769 0.80393 0.85970
 N3305 N 0.74880 0.81764 0.86248
 N3306 N 0.74805 0.82417 0.87731
 C3307 C 0.75803 0.79661 0.84334
 N3308 N 0.75052 0.80425 0.83074
 N3309 N 0.75028 0.79749 0.81597
 C3310 C 0.75751 0.78281 0.81324
 N3311 N 0.76510 0.77519 0.82583
 N3312 N 0.76539 0.78198 0.84061
 C3313 C 0.74569 0.82280 0.09498
 N3314 N 0.74380 0.81409 0.08097
 N3315 N 0.74454 0.82138 0.06663
 C3316 C 0.74716 0.83765 0.06577
 N3317 N 0.74905 0.84628 0.07983
 N3318 N 0.74836 0.83901 0.09413
 C3319 C 0.74499 0.81499 0.11089
 N3320 N 0.74814 0.82378 0.12461
 N3321 N 0.74766 0.81686 0.13911
 C3322 C 0.74393 0.80090 0.14046
 N3323 N 0.74071 0.79209 0.12674
 N3324 N 0.74125 0.79901 0.11220
 C3325 C 0.74376 0.79334 0.15651
 N3326 N 0.73911 0.77767 0.15825
 N3327 N 0.73936 0.77082 0.17284
 C3328 C 0.74430 0.77939 0.18620
 N3329 N 0.74889 0.79508 0.18444
 N3330 N 0.74858 0.80193 0.16988
 C3331 C 0.24598 0.32243 0.59338
 N3332 N 0.25606 0.33514 0.59120
 N3333 N 0.25708 0.34212 0.57677
 C3334 C 0.24803 0.33671 0.56392
 N3335 N 0.23791 0.32397 0.56611
 N3336 N 0.23693 0.31693 0.58056
 C3337 C 0.24500 0.31490 0.60942
 N3338 N 0.23616 0.30126 0.61165
 N3339 N 0.23556 0.29447 0.62624
 C3340 C 0.24372 0.30112 0.63912
 N3341 N 0.25248 0.31478 0.63687
 N3342 N 0.25313 0.32152 0.62230
 C3343 C 0.24343 0.29361 0.65521
 N3344 N 0.25094 0.30098 0.66806
 N3345 N 0.25119 0.29409 0.68260
 C3346 C 0.24396 0.27954 0.68484
 N3347 N 0.23638 0.27217 0.67201
 N3348 N 0.23609 0.27910 0.65745
 C3349 C 0.75455 0.17868 0.59546
 N3350 N 0.74450 0.16595 0.59264
 N3351 N 0.74369 0.15883 0.57807
 C3352 C 0.75293 0.16409 0.56570
 N3353 N 0.76303 0.17685 0.56854
 N3354 N 0.76380 0.18404 0.58314
 C3355 C 0.75529 0.18636 0.61165
 N3356 N 0.76409 0.20002 0.61451
 N3357 N 0.76448 0.20694 0.62924
 C3358 C 0.75613 0.20039 0.64163
 N3359 N 0.74739 0.18672 0.63875
 N3360 N 0.74696 0.17985 0.62404
 C3361 C 0.75624 0.20797 0.65787
 N3362 N 0.74864 0.20063 0.67027
 N3363 N 0.74836 0.20752 0.68497
 C3364 C 0.75562 0.22204 0.68783
 N3365 N 0.76328 0.22939 0.67545
 N3366 N 0.76361 0.22246 0.66073
 C3367 C 0.25320 0.67668 0.09405
 N3368 N 0.24303 0.66409 0.09100
 N3369 N 0.24228 0.65714 0.07634
 C3370 C 0.25168 0.66245 0.06413
 N3371 N 0.26189 0.67507 0.06719
 N3372 N 0.26260 0.68208 0.08187
 C3373 C 0.25392 0.68417 0.11032
 N3374 N 0.26290 0.69767 0.11338
 N3375 N 0.26331 0.70441 0.12818
 C3376 C 0.25482 0.69784 0.14046
 N3377 N 0.24591 0.68432 0.13740
 N3378 N 0.24545 0.67763 0.12261
 C3379 C 0.25500 0.70527 0.15677
 N3380 N 0.24729 0.69793 0.16911
 N3381 N 0.24708 0.70472 0.18386
 C3382 C 0.25453 0.71913 0.18683
 N3383 N 0.26229 0.72647 0.17450
 N3384 N 0.26254 0.71964 0.15974
 C3385 C 0.17742 0.59334 0.75317
 N3386 N 0.18607 0.57938 0.75554
 N3387 N 0.17866 0.56502 0.75527
 C3388 C 0.16233 0.56410 0.75269
 N3389 N 0.15376 0.57810 0.75034
 N3390 N 0.16115 0.59242 0.75055
 C3391 C 0.18535 0.60927 0.75338
 N3392 N 0.17662 0.62284 0.74963
 N3393 N 0.18361 0.63737 0.74978
 C3394 C 0.19959 0.63889 0.75375
 N3395 N 0.20835 0.62533 0.75755
 N3396 N 0.20136 0.61076 0.75734
 C3397 C 0.20716 0.65499 0.75380
 N3398 N 0.22276 0.65700 0.75898
 N3399 N 0.22953 0.67167 0.75891
 C3400 C 0.22095 0.68482 0.75361
 N3401 N 0.20536 0.68279 0.74843
 N3402 N 0.19858 0.66815 0.74856
 C3403 C 0.67668 0.09366 0.25497
 N3404 N 0.66025 0.09267 0.25422
 N3405 N 0.65301 0.07828 0.25403
 C3406 C 0.66185 0.06422 0.25450
 N3407 N 0.67835 0.06525 0.25522
 N3408 N 0.68563 0.07969 0.25549
 C3409 C 0.68445 0.10967 0.25506
 N3410 N 0.70074 0.11118 0.25748
 N3411 N 0.70759 0.12581 0.25757
 C3412 C 0.69841 0.13944 0.25518
 N3413 N 0.68215 0.13790 0.25274
 N3414 N 0.67530 0.12330 0.25273
 C3415 C 0.70583 0.15561 0.25512
 N3416 N 0.69681 0.16887 0.25093
 N3417 N 0.70345 0.18357 0.25074
 C3418 C 0.71936 0.18557 0.25483
 N3419 N 0.72838 0.17232 0.25909
 N3420 N 0.72175 0.15760 0.25919
 C3421 C 0.82495 0.09650 0.74400
 N3422 N 0.84118 0.09505 0.74679
 N3423 N 0.84829 0.08045 0.74737
 C3424 C 0.83947 0.06669 0.74524
 N3425 N 0.82319 0.06815 0.74247
 N3426 N 0.81606 0.08279 0.74184
 C3427 C 0.81729 0.11271 0.74349
 N3428 N 0.80124 0.11459 0.73976
 N3429 N 0.79443 0.12937 0.73946
 C3430 C 0.80340 0.14280 0.74292
 N3431 N 0.81943 0.14090 0.74663
 N3432 N 0.82624 0.12615 0.74688
 C3433 C 0.79591 0.15910 0.74304
 N3434 N 0.80465 0.17220 0.74806
 N3435 N 0.79781 0.18695 0.74867
 C3436 C 0.78200 0.18917 0.74421
 N3437 N 0.77329 0.17608 0.73907
 N3438 N 0.78011 0.16130 0.73852
 C3439 C 0.32323 0.59310 0.24293
 N3440 N 0.33950 0.59161 0.24544
 N3441 N 0.34656 0.57699 0.24604
 C3442 C 0.33766 0.56324 0.24422
 N3443 N 0.32134 0.56474 0.24174
 N3444 N 0.31425 0.57940 0.24108
 C3445 C 0.31564 0.60935 0.24242
 N3446 N 0.29955 0.61129 0.23892
 N3447 N 0.29282 0.62612 0.23863
 C3448 C 0.30192 0.63951 0.24187
 N3449 N 0.31798 0.63754 0.24535
 N3450 N 0.32472 0.62275 0.24559
 C3451 C 0.29453 0.65586 0.24201
 N3452 N 0.30340 0.66892 0.24688
 N3453 N 0.29667 0.68372 0.24750
 C3454 C 0.28084 0.68602 0.24318
 N3455 N 0.27199 0.67297 0.23818
 N3456 N 0.27871 0.65815 0.23762
 C3457 C 0.32319 0.40357 0.25278
 N3458 N 0.33579 0.40589 0.24267
 N3459 N 0.34265 0.42042 0.24162
 C3460 C 0.33724 0.43325 0.25066
 N3461 N 0.32462 0.43091 0.26082
 N3462 N 0.31769 0.41636 0.26183
 C3463 C 0.31578 0.38743 0.25380
 N3464 N 0.30229 0.38506 0.26275
 N3465 N 0.29557 0.37038 0.26339
 C3466 C 0.30216 0.35754 0.25517
 N3467 N 0.31567 0.35993 0.24631
 N3468 N 0.32234 0.37459 0.24562
 C3469 C 0.29468 0.34139 0.25548
 N3470 N 0.30189 0.32856 0.24782
 N3471 N 0.29498 0.31399 0.24758
 C3472 C 0.28056 0.31167 0.25496
 N3473 N 0.27336 0.32448 0.26269
 N3474 N 0.28031 0.33907 0.26298
 C3475 C 0.82462 0.90716 0.75242
 N3476 N 0.81919 0.91990 0.76156
 N3477 N 0.82609 0.93447 0.76054
 C3478 C 0.83861 0.93685 0.75027
 N3479 N 0.84394 0.92406 0.74112
 N3480 N 0.83710 0.90952 0.74219
 C3481 C 0.81727 0.89100 0.75351
 N3482 N 0.82383 0.87816 0.74532
 N3483 N 0.81724 0.86348 0.74610
 C3484 C 0.80381 0.86106 0.75508
 N3485 N 0.79722 0.87389 0.76330
 N3486 N 0.80386 0.88860 0.76256
 C3487 C 0.79643 0.84488 0.75552
 N3488 N 0.78210 0.84254 0.76306
 N3489 N 0.77524 0.82791 0.76291
 C3490 C 0.78250 0.81508 0.75527
 N3491 N 0.79689 0.81742 0.74785
 N3492 N 0.80371 0.83204 0.74795
 C3493 C 0.67637 0.90512 0.24713
 N3494 N 0.68176 0.91758 0.23804
 N3495 N 0.67475 0.93226 0.23904
 C3496 C 0.66214 0.93505 0.24923
 N3497 N 0.65683 0.92255 0.25831
 N3498 N 0.66378 0.90789 0.25727
 C3499 C 0.68389 0.88885 0.24612
 N3500 N 0.67739 0.87631 0.25430
 N3501 N 0.68415 0.86154 0.25362
 C3502 C 0.69769 0.85874 0.24477
 N3503 N 0.70421 0.87128 0.23657
 N3504 N 0.69741 0.88607 0.23720
 C3505 C 0.70522 0.84246 0.24441
 N3506 N 0.71962 0.83975 0.23695
 N3507 N 0.72658 0.82502 0.23709
 C3508 C 0.71935 0.81247 0.24465
 N3509 N 0.70491 0.81518 0.25202
 N3510 N 0.69799 0.82989 0.25191
 C3511 C 0.17599 0.40489 0.74551
 N3512 N 0.18125 0.41733 0.73631
 N3513 N 0.17419 0.43198 0.73731
 C3514 C 0.16166 0.43476 0.74759
 N3515 N 0.15649 0.42229 0.75679
 N3516 N 0.16349 0.40766 0.75575
 C3517 C 0.18356 0.38866 0.74451
 N3518 N 0.17714 0.37613 0.75276
 N3519 N 0.18392 0.36138 0.75209
 C3520 C 0.19743 0.35859 0.74319
 N3521 N 0.20388 0.37111 0.73491
 N3522 N 0.19704 0.38589 0.73553
 C3523 C 0.20498 0.34233 0.74284
 N3524 N 0.21938 0.33961 0.73537
 N3525 N 0.22634 0.32489 0.73555
 C3526 C 0.21912 0.31236 0.74314
 N3527 N 0.20468 0.31508 0.75051
 N3528 N 0.19776 0.32978 0.75038
 C3529 C 0.09567 0.74681 0.82207
 N3530 N 0.08170 0.74426 0.81344
 N3531 N 0.06737 0.74453 0.82082
 C3532 C 0.06650 0.74729 0.83709
 N3533 N 0.08051 0.74984 0.84563
 N3534 N 0.09479 0.74963 0.83828
 C3535 C 0.11156 0.74654 0.81420
 N3536 N 0.12515 0.75033 0.82293
 N3537 N 0.13966 0.75007 0.81601
 C3538 C 0.14115 0.74596 0.80010
 N3539 N 0.12756 0.74215 0.79133
 N3540 N 0.11301 0.74245 0.79826
 C3541 C 0.15724 0.74575 0.79263
 N3542 N 0.15920 0.74053 0.77707
 N3543 N 0.17387 0.74043 0.77041
 C3544 C 0.18708 0.74557 0.77906
 N3545 N 0.18509 0.75078 0.79460
 N3546 N 0.17045 0.75084 0.80127
 C3547 C 0.59358 0.25118 0.32261
 N3548 N 0.58007 0.24583 0.31460
 N3549 N 0.56562 0.24638 0.32174
 C3550 C 0.56416 0.25230 0.33714
 N3551 N 0.57771 0.25769 0.34505
 N3552 N 0.59211 0.25716 0.33793
 C3553 C 0.60961 0.25037 0.31504
 N3554 N 0.62291 0.25595 0.32323
 N3555 N 0.63754 0.25513 0.31657
 C3556 C 0.63943 0.24867 0.30147
 N3557 N 0.62614 0.24308 0.29325
 N3558 N 0.61148 0.24392 0.29992
 C3559 C 0.65561 0.24787 0.29422
 N3560 N 0.65776 0.24126 0.27921
 N3561 N 0.67247 0.24074 0.27265
 C3562 C 0.68555 0.24683 0.28086
 N3563 N 0.68339 0.25340 0.29587
 N3564 N 0.66870 0.25390 0.30243
 C3565 C 0.59423 0.75298 0.17576
 N3566 N 0.58088 0.75809 0.18394
 N3567 N 0.56615 0.75730 0.17700
 C3568 C 0.56422 0.75137 0.16162
 N3569 N 0.57762 0.74625 0.15351
 N3570 N 0.59232 0.74702 0.16043
 C3571 C 0.61053 0.75383 0.18324
 N3572 N 0.62370 0.74855 0.17488
 N3573 N 0.63852 0.74918 0.18157
 C3574 C 0.64073 0.75513 0.19687
 N3575 N 0.62757 0.76046 0.20524
 N3576 N 0.61273 0.75983 0.19854
 C3577 C 0.65708 0.75543 0.20429
 N3578 N 0.65947 0.76120 0.21965
 N3579 N 0.67427 0.76098 0.22647
 C3580 C 0.68721 0.75499 0.21817
 N3581 N 0.68482 0.74931 0.20279
 N3582 N 0.67004 0.74954 0.19597
 C3583 C 0.09363 0.25283 0.67462
 N3584 N 0.09168 0.24667 0.65938
 N3585 N 0.07697 0.24586 0.65249
 C3586 C 0.06356 0.25116 0.66052
 N3587 N 0.06557 0.25728 0.67583
 N3588 N 0.08031 0.25810 0.68275
 C3589 C 0.10994 0.25373 0.68205
 N3590 N 0.11219 0.25988 0.69729
 N3591 N 0.12704 0.26055 0.70395
 C3592 C 0.14018 0.25513 0.69559
 N3593 N 0.13792 0.24902 0.68036
 N3594 N 0.12308 0.24835 0.67371
 C3595 C 0.15654 0.25545 0.70296
 N3596 N 0.16946 0.24950 0.69464
 N3597 N 0.18426 0.24928 0.70141
 C3598 C 0.18670 0.25503 0.71676
 N3599 N 0.17380 0.26109 0.72506
 N3600 N 0.15898 0.26131 0.71828
 C3601 C 0.90672 0.25282 0.68119
 N3602 N 0.91867 0.24205 0.68530
 N3603 N 0.93317 0.24266 0.67834
 C3604 C 0.93633 0.25413 0.66709
 N3605 N 0.92438 0.26497 0.66313
 N3606 N 0.90987 0.26432 0.67003
 C3607 C 0.89051 0.25182 0.68835
 N3608 N 0.87806 0.26113 0.68256
 N3609 N 0.86327 0.26009 0.68880
 C3610 C 0.86039 0.24973 0.70111
 N3611 N 0.87286 0.24044 0.70695
 N3612 N 0.88764 0.24143 0.70065
 C3613 C 0.84408 0.24880 0.70805
 N3614 N 0.84149 0.24017 0.72171
 N3615 N 0.82675 0.23978 0.72820
 C3616 C 0.81405 0.24789 0.72120
 N3617 N 0.81663 0.25639 0.70748
 N3618 N 0.83137 0.25685 0.70104
 C3619 C 0.40620 0.75105 0.18095
 N3620 N 0.41833 0.74056 0.18523
 N3621 N 0.43290 0.74148 0.17845
 C3622 C 0.43594 0.75299 0.16722
 N3623 N 0.42381 0.76356 0.16310
 N3624 N 0.40923 0.76260 0.16981
 C3625 C 0.38993 0.74972 0.18791
 N3626 N 0.37736 0.75879 0.18196
 N3627 N 0.36253 0.75748 0.18804
 C3628 C 0.35971 0.74710 0.20034
 N3629 N 0.37228 0.73805 0.20634
 N3630 N 0.38712 0.73929 0.20019
 C3631 C 0.34336 0.74593 0.20714
 N3632 N 0.34079 0.73730 0.22080
 N3633 N 0.32602 0.73677 0.22722
 C3634 C 0.31328 0.74475 0.22014
 N3635 N 0.31585 0.75324 0.20641
 N3636 N 0.33061 0.75383 0.20004
 C3637 C 0.40578 0.24899 0.32069
 N3638 N 0.41785 0.25864 0.31542
 N3639 N 0.43256 0.25811 0.32240
 C3640 C 0.43580 0.24784 0.33487
 N3641 N 0.42371 0.23812 0.34003
 N3642 N 0.40900 0.23869 0.33310
 C3643 C 0.38942 0.24983 0.31337
 N3644 N 0.37706 0.24139 0.31987
 N3645 N 0.36214 0.24222 0.31340
 C3646 C 0.35904 0.25148 0.30017
 N3647 N 0.37141 0.25991 0.29364
 N3648 N 0.38632 0.25913 0.30015
 C3649 C 0.34261 0.25217 0.29298
 N3650 N 0.33971 0.25997 0.27879
 N3651 N 0.32485 0.26018 0.27211
 C3652 C 0.31235 0.25267 0.27943
 N3653 N 0.31524 0.24497 0.29368
 N3654 N 0.33010 0.24471 0.30032
 C3655 C 0.90719 0.75399 0.82381
 N3656 N 0.91966 0.76306 0.81841
 N3657 N 0.93437 0.76195 0.82536
 C3658 C 0.93718 0.75166 0.83791
 N3659 N 0.92467 0.74258 0.84322
 N3660 N 0.90998 0.74374 0.83633
 C3661 C 0.89090 0.75514 0.81636
 N3662 N 0.87832 0.74709 0.82293
 N3663 N 0.86352 0.74789 0.81622
 C3664 C 0.86074 0.75674 0.80265
 N3665 N 0.87330 0.76482 0.79605
 N3666 N 0.88812 0.76406 0.80281
 C3667 C 0.84444 0.75720 0.79515
 N3668 N 0.84176 0.76450 0.78065
 N3669 N 0.82702 0.76437 0.77369
 C3670 C 0.81443 0.75699 0.78101
 N3671 N 0.81711 0.74981 0.79556
 N3672 N 0.83184 0.74989 0.80249
   
