data_POSCAR
  _audit_creation_date              2014-09-24
  _audit_creation_method            'ToBaCCo'
  _symmetry_space_group_name_H-M    'P1'
  _symmetry_Int_Tables_number       1
  _symmetry_cell_setting            triclinic
  loop_
  _symmetry_equiv_pos_as_xyz
 x,y,z
_cell_length_a 68.6478
_cell_length_b 68.1724
_cell_length_c 66.7654
_cell_angle_alpha 90.058000
_cell_angle_beta 90.045500
_cell_angle_gamma 89.835500
loop_
  _atom_site_label
  _atom_site_type_symbol
  _atom_site_fract_x
  _atom_site_fract_y
  _atom_site_fract_z
C1 C 0.36031 0.33742 0.33524
 C2 C 0.35129 0.35336 0.32554
 C3 C 0.33352 0.36110 0.33257
 C4 C 0.32461 0.35234 0.34929
 C5 C 0.33358 0.33671 0.35947
 C6 C 0.35166 0.32979 0.35262
 H7 H 0.35799 0.35959 0.31237
 H8 H 0.31035 0.35732 0.35402
 H9 H 0.35905 0.31831 0.36087
 C10 C 0.36093 0.83632 -0.16400
 C11 C 0.35238 0.82883 -0.14640
 C12 C 0.33440 0.83573 -0.13934
 C13 C 0.32518 0.85119 -0.14947
 C14 C 0.33368 0.86007 -0.16643
 C15 C 0.35154 0.85229 -0.17351
 H16 H 0.35992 0.81787 -0.13762
 H17 H 0.31076 0.85547 -0.14465
 H18 H 0.35807 0.85862 -0.18662
 C19 C 0.86167 0.33870 -0.16606
 C20 C 0.85169 0.32947 -0.15038
 C21 C 0.83518 0.33816 -0.14168
 C22 C 0.82826 0.35607 -0.14941
 C23 C 0.83749 0.36539 -0.16575
 C24 C 0.85467 0.35671 -0.17334
 H25 H 0.85645 0.31517 -0.14530
 H26 H 0.81514 0.36217 -0.14303
 H27 H 0.86315 0.36421 -0.18460
 C28 C 0.85837 0.83935 0.33425
 C29 C 0.85065 0.85706 0.32681
 C30 C 0.83413 0.86602 0.33562
 C31 C 0.82631 0.85716 0.35295
 C32 C 0.83337 0.83917 0.36025
 C33 C 0.84932 0.83035 0.35068
 H34 H 0.85730 0.86328 0.31364
 H35 H 0.81496 0.86444 0.36136
 H36 H 0.85440 0.81613 0.35568
 C37 C 0.63874 0.66565 0.33374
 C38 C 0.64673 0.64790 0.32665
 C39 C 0.66270 0.63906 0.33633
 C40 C 0.67011 0.64786 0.35377
 C41 C 0.66298 0.66597 0.36064
 C42 C 0.64730 0.67475 0.35049
 H43 H 0.64066 0.64110 0.31341
 H44 H 0.68165 0.64060 0.36200
 H45 H 0.64215 0.68904 0.35523
 C46 C 0.63595 0.15981 -0.16333
 C47 C 0.64500 0.16962 -0.14738
 C48 C 0.66259 0.16272 -0.13926
 C49 C 0.67126 0.14583 -0.14751
 C50 C 0.66238 0.13536 -0.16333
 C51 C 0.64438 0.14244 -0.17066
 H52 H 0.63849 0.18288 -0.14147
 H53 H 0.68559 0.14173 -0.14227
 H54 H 0.63641 0.13424 -0.18183
 C55 C 0.13869 0.66304 -0.16563
 C56 C 0.14749 0.67261 -0.14938
 C57 C 0.16498 0.66561 -0.14110
 C58 C 0.17386 0.64892 -0.14956
 C59 C 0.16526 0.63873 -0.16576
 C60 C 0.14733 0.64587 -0.17320
 H61 H 0.14081 0.68569 -0.14328
 H62 H 0.18808 0.64470 -0.14410
 H63 H 0.13951 0.63780 -0.18458
 C64 C 0.13525 0.16561 0.33617
 C65 C 0.14455 0.14953 0.32698
 C66 C 0.16207 0.14185 0.33473
 C67 C 0.17046 0.15084 0.35163
 C68 C 0.16119 0.16660 0.36133
 C69 C 0.14332 0.17342 0.35379
 H70 H 0.13828 0.14315 0.31363
 H71 H 0.18458 0.14595 0.35688
 H72 H 0.13569 0.18499 0.36167
 C73 C 0.64027 0.33340 0.66637
 C74 C 0.65044 0.32401 0.65080
 C75 C 0.66699 0.33263 0.64212
 C76 C 0.67375 0.35059 0.64978
 C77 C 0.66409 0.36005 0.66565
 C78 C 0.64704 0.35159 0.67340
 H79 H 0.64582 0.30965 0.64583
 H80 H 0.68674 0.35709 0.64352
 H81 H 0.63898 0.35923 0.68496
 C82 C 0.63811 0.83602 1.16270
 C83 C 0.64748 0.82678 1.14639
 C84 C 0.66525 0.83372 1.13885
 C85 C 0.67384 0.85024 1.14772
 C86 C 0.66473 0.86041 1.16357
 C87 C 0.64668 0.85321 1.17055
 H88 H 0.64149 0.81363 1.13986
 H89 H 0.68825 0.85438 1.14281
 H90 H 0.63858 0.86177 1.18131
 C91 C 0.14005 0.33251 1.16452
 C92 C 0.14904 0.32396 1.14755
 C93 C 0.16467 0.33310 1.13774
 C94 C 0.17144 0.35113 1.14501
 C95 C 0.16380 0.35946 1.16255
 C96 C 0.14797 0.35024 1.17198
 H97 H 0.14478 0.30952 1.14252
 H98 H 0.18289 0.35868 1.13703
 H99 H 0.14178 0.35724 1.18500
 C100 C 0.14013 0.83299 0.66292
 C101 C 0.14813 0.85066 0.67041
 C102 C 0.16378 0.85999 0.66078
 C103 C 0.17117 0.85182 0.64305
 C104 C 0.16430 0.83384 0.63574
 C105 C 0.14883 0.82461 0.64571
 H106 H 0.14214 0.85751 0.68361
 H107 H 0.18253 0.85943 0.63499
 H108 H 0.14449 0.81021 0.64064
 C109 C 0.36116 0.66485 0.66682
 C110 C 0.35427 0.64684 0.67408
 C111 C 0.33732 0.63822 0.66627
 C112 C 0.32803 0.64720 0.64987
 C113 C 0.33503 0.66491 0.64182
 C114 C 0.35136 0.67380 0.65073
 H115 H 0.36215 0.63945 0.68593
 H116 H 0.31518 0.64050 0.64350
 H117 H 0.35611 0.68802 0.64550
 C118 C 0.36236 0.16705 1.17001
 C119 C 0.35426 0.17420 1.15190
 C120 C 0.33852 0.16476 1.14251
 C121 C 0.33117 0.14752 1.15101
 C122 C 0.33809 0.14053 1.16944
 C123 C 0.35367 0.15030 1.17875
 H124 H 0.36024 0.18699 1.14471
 H125 H 0.31978 0.13958 1.14329
 H126 H 0.35810 0.14542 1.19346
 C127 C 0.86063 0.66347 1.17030
 C128 C 0.85205 0.67143 1.15281
 C129 C 0.83657 0.66206 1.14297
 C130 C 0.82945 0.64441 1.15079
 C131 C 0.83664 0.63673 1.16882
 C132 C 0.85237 0.64614 1.17828
 H133 H 0.85654 0.68565 1.14738
 H134 H 0.81807 0.63665 1.14286
 H135 H 0.85821 0.63962 1.19172
 C136 C 0.86276 0.16206 0.67141
 C137 C 0.85472 0.14455 0.67922
 C138 C 0.83856 0.13524 0.67015
 C139 C 0.83121 0.14342 0.65228
 C140 C 0.83826 0.16114 0.64462
 C141 C 0.85389 0.17034 0.65429
 H142 H 0.86098 0.13825 0.69252
 H143 H 0.82016 0.13579 0.64379
 H144 H 0.85832 0.18462 0.64899
 C145 C 0.33813 0.36077 0.66629
 C146 C 0.35568 0.35267 0.67346
 C147 C 0.36448 0.33662 0.66376
 C148 C 0.35588 0.32925 0.64621
 C149 C 0.33795 0.33648 0.63926
 C150 C 0.32918 0.35223 0.64944
 H151 H 0.36233 0.35871 0.68679
 H152 H 0.36312 0.31766 0.63798
 H153 H 0.31503 0.35747 0.64465
 C154 C 0.33418 0.86158 0.16816
 C155 C 0.32511 0.85284 0.15150
 C156 C 0.33374 0.83689 0.14150
 C157 C 0.35167 0.82967 0.14848
 C158 C 0.36044 0.83728 0.16583
 C159 C 0.35175 0.85350 0.17536
 H160 H 0.31097 0.85810 0.14667
 H161 H 0.35884 0.81796 0.14035
 H162 H 0.35853 0.85972 0.18852
 C163 C 0.83553 0.36238 0.16483
 C164 C 0.85330 0.35450 0.17171
 C165 C 0.86229 0.33872 0.16171
 C166 C 0.85361 0.33141 0.14417
 C167 C 0.83549 0.33844 0.13749
 C168 C 0.82657 0.35391 0.14796
 H169 H 0.85998 0.36048 0.18504
 H170 H 0.86095 0.32003 0.13573
 H171 H 0.81228 0.35895 0.14339
 C172 C 0.83859 0.86169 0.66577
 C173 C 0.85628 0.85374 0.67271
 C174 C 0.86517 0.83786 0.66280
 C175 C 0.85647 0.83052 0.64528
 C176 C 0.83842 0.83766 0.63853
 C177 C 0.82961 0.85324 0.64892
 H178 H 0.86295 0.85971 0.68606
 H179 H 0.86372 0.81901 0.63692
 H180 H 0.81536 0.85838 0.64431
 C181 C 0.66177 0.63978 0.66449
 C182 C 0.67103 0.64985 0.64883
 C183 C 0.66265 0.66675 0.64033
 C184 C 0.64510 0.67402 0.64834
 C185 C 0.63580 0.66447 0.66435
 C186 C 0.64393 0.64698 0.67177
 H187 H 0.68516 0.64489 0.64368
 H188 H 0.63881 0.68732 0.64230
 H189 H 0.63635 0.63896 0.68335
 C190 C 0.66210 0.14075 0.16247
 C191 C 0.66953 0.14959 0.14511
 C192 C 0.66265 0.16788 0.13848
 C193 C 0.64714 0.17679 0.14880
 C194 C 0.63854 0.16766 0.16548
 C195 C 0.64631 0.14973 0.17233
 H196 H 0.68090 0.14223 0.13673
 H197 H 0.64216 0.19119 0.14424
 H198 H 0.64021 0.14289 0.18550
 C199 C 0.16107 0.64084 0.16597
 C200 C 0.16991 0.65099 0.15010
 C201 C 0.16115 0.66774 0.14169
 C202 C 0.14368 0.67482 0.15003
 C203 C 0.13479 0.66521 0.16625
 C204 C 0.14332 0.64790 0.17364
 H205 H 0.18397 0.64616 0.14464
 H206 H 0.13708 0.68798 0.14401
 H207 H 0.13604 0.63985 0.18541
 C208 C 0.16368 0.13968 0.66577
 C209 C 0.14582 0.14660 0.67328
 C210 C 0.13732 0.16393 0.66597
 C211 C 0.14628 0.17367 0.64988
 C212 C 0.16384 0.16670 0.64164
 C213 C 0.17260 0.14992 0.65002
 H214 H 0.13847 0.13845 0.68493
 H215 H 0.13968 0.18686 0.64392
 H216 H 0.18672 0.14517 0.64464
 C217 C 0.33634 0.63843 0.32935
 C218 C 0.32941 0.64586 0.34771
 C219 C 0.33880 0.66151 0.35738
 C220 C 0.35588 0.66914 0.34887
 C221 C 0.36273 0.66252 0.33021
 C222 C 0.35285 0.64712 0.32058
 H223 H 0.31646 0.63965 0.35433
 H224 H 0.36381 0.68045 0.35678
 H225 H 0.35758 0.64234 0.30590
 C226 C 0.33586 0.13669 0.83154
 C227 C 0.32898 0.14437 0.84980
 C228 C 0.33833 0.16025 0.85914
 C229 C 0.35529 0.16786 0.85039
 C230 C 0.36206 0.16098 0.83181
 C231 C 0.35223 0.14538 0.82250
 H232 H 0.31611 0.13818 0.85661
 H233 H 0.36321 0.17935 0.85804
 H234 H 0.35690 0.14042 0.80787
 C235 C 0.83803 0.63785 0.83224
 C236 C 0.85394 0.64705 0.82298
 C237 C 0.86187 0.66446 0.83088
 C238 C 0.85333 0.67280 0.84807
 C239 C 0.83774 0.66356 0.85785
 C240 C 0.83070 0.64578 0.85014
 H241 H 0.85997 0.64082 0.80944
 H242 H 0.85841 0.68686 0.85345
 H243 H 0.81925 0.63812 0.85803
 C244 C 0.83440 0.14037 0.33045
 C245 C 0.84981 0.15030 0.32107
 C246 C 0.85867 0.16662 0.33022
 C247 C 0.85133 0.17341 0.34866
 C248 C 0.83570 0.16392 0.35812
 C249 C 0.82792 0.14699 0.34923
 H250 H 0.85452 0.14570 0.30633
 H251 H 0.85767 0.18626 0.35554
 H252 H 0.81664 0.13892 0.35695
 C253 C 0.66537 0.36031 0.34005
 C254 C 0.64740 0.35322 0.33313
 C255 C 0.63940 0.33579 0.34069
 C256 C 0.64896 0.32622 0.35657
 C257 C 0.66667 0.33341 0.36427
 C258 C 0.67491 0.35023 0.35558
 H259 H 0.63962 0.36128 0.32166
 H260 H 0.64276 0.31297 0.36274
 H261 H 0.68913 0.35512 0.36046
 C262 C 0.66425 0.85906 0.83700
 C263 C 0.67353 0.84894 0.85265
 C264 C 0.66506 0.83222 0.86131
 C265 C 0.64739 0.82516 0.85342
 C266 C 0.63808 0.83477 0.83740
 C267 C 0.64633 0.85208 0.82983
 H268 H 0.68773 0.85373 0.85769
 H269 H 0.64102 0.81200 0.85959
 H270 H 0.63876 0.86016 0.81824
 C271 C 0.16688 0.35964 0.83433
 C272 C 0.17629 0.34949 0.84991
 C273 C 0.16789 0.33273 0.85859
 C274 C 0.15015 0.32571 0.85085
 C275 C 0.14070 0.33536 0.83495
 C276 C 0.14891 0.35264 0.82728
 H277 H 0.19049 0.35432 0.85492
 H278 H 0.14379 0.31257 0.85707
 H279 H 0.14123 0.36072 0.81577
 C280 C 0.16481 0.86100 0.33330
 C281 C 0.14681 0.85403 0.32629
 C282 C 0.13867 0.83665 0.33384
 C283 C 0.14828 0.82683 0.34953
 C284 C 0.16608 0.83379 0.35721
 C285 C 0.17436 0.85068 0.34867
 H286 H 0.13903 0.86223 0.31494
 H287 H 0.14199 0.81361 0.35566
 H288 H 0.18859 0.85548 0.35361
 O289 O 0.24651 1.02151 0.27771
 O290 O 0.27447 0.98248 0.25232
 O291 O 0.27527 1.02096 0.25207
 O292 O 0.24625 0.98334 0.27811
 O293 O 0.22559 0.98288 0.25277
 O294 O 0.25347 1.02172 0.22776
 O295 O 0.25387 0.98351 0.22695
 O296 O 0.22515 1.02138 0.25298
 Cu297 Cu 0.26279 1.00209 0.26753
 Cu298 Cu 0.23738 1.00234 0.23765
 C299 C 0.23109 1.02817 0.26961
 C300 C 0.26889 0.97629 0.23530
 C301 C 0.26907 1.02805 0.23565
 C302 C 0.23115 0.97643 0.26970
 O303 O 0.25616 0.51847 0.72641
 O304 O 0.22790 0.48048 0.75242
 O305 O 0.22804 0.51901 0.75253
 O306 O 0.25619 0.48057 0.72669
 O307 O 0.27723 0.48013 0.75172
 O308 O 0.24924 0.51888 0.77737
 O309 O 0.24890 0.48078 0.77746
 O310 O 0.27734 0.51868 0.75131
 Cu311 Cu 0.23986 0.49965 0.73709
 Cu312 Cu 0.26536 0.49963 0.76692
 C313 C 0.27156 0.52509 0.73444
 C314 C 0.23364 0.47399 0.76926
 C315 C 0.23389 0.52565 0.76928
 C316 C 0.27145 0.47369 0.73487
 O317 O 0.72282 0.01977 0.24321
 O318 O 0.75042 -0.01670 0.27237
 O319 O 0.74987 0.02164 0.27042
 O320 O 0.72394 -0.01835 0.24486
 O321 O 0.74626 -0.01845 0.22110
 O322 O 0.77318 0.02035 0.24771
 O323 O 0.77305 -0.01765 0.24892
 O324 O 0.74618 0.02003 0.22051
 Cu325 Cu 0.73450 0.00167 0.26007
 Cu326 Cu 0.76190 0.00096 0.23216
 C327 C 0.72996 0.02638 0.22705
 C328 C 0.76631 -0.02357 0.26557
 C329 C 0.76597 0.02780 0.26350
 C330 C 0.73066 -0.02526 0.22859
 O331 O 0.72432 0.51964 0.74658
 O332 O 0.75324 0.48252 0.77333
 O333 O 0.75236 0.52057 0.77218
 O334 O 0.72499 0.48122 0.74735
 O335 O 0.74578 0.48161 0.72215
 O336 O 0.77433 0.51974 0.74805
 O337 O 0.77408 0.48151 0.74820
 O338 O 0.74587 0.51976 0.72206
 Cu339 Cu 0.73654 0.50095 0.76230
 Cu340 Cu 0.76216 0.50062 0.73262
 C341 C 0.73031 0.52630 0.72994
 C342 C 0.76856 0.47558 0.76531
 C343 C 0.76802 0.52686 0.76441
 C344 C 0.73064 0.47473 0.73048
 O345 O 0.22346 0.51906 0.24528
 O346 O 0.25135 0.48087 0.27158
 O347 O 0.25109 0.51924 0.27127
 O348 O 0.22357 0.48077 0.24469
 O349 O 0.24572 0.48071 0.22073
 O350 O 0.27329 0.51887 0.24735
 O351 O 0.27304 0.48052 0.24720
 O352 O 0.24518 0.51909 0.22092
 Cu353 Cu 0.23518 0.49989 0.26064
 Cu354 Cu 0.26149 0.49986 0.23161
 C355 C 0.22967 0.52583 0.22879
 C356 C 0.26684 0.47403 0.26383
 C357 C 0.26677 0.52576 0.26372
 C358 C 0.23010 0.47404 0.22824
 O359 O 0.77621 0.97834 0.75368
 O360 O 0.74828 1.01702 0.77955
 O361 O 0.74815 0.97887 0.77976
 O362 O 0.77657 1.01672 0.75340
 O363 O 0.75443 1.01738 0.72942
 O364 O 0.72729 0.97821 0.75459
 O365 O 0.72649 1.01653 0.75525
 O366 O 0.75532 0.97934 0.72854
 Cu367 Cu 0.76450 0.99776 0.76906
 Cu368 Cu 0.73870 0.99784 0.73951
 C369 C 0.77054 0.97230 0.73664
 C370 C 0.73257 1.02336 0.77181
 C371 C 0.73302 0.97187 0.77149
 C372 C 0.77016 1.02372 0.73703
 O373 O 0.74786 0.51887 0.27911
 O374 O 0.77421 0.47922 0.25312
 O375 O 0.77532 0.51748 0.25232
 O376 O 0.74716 0.48056 0.28026
 O377 O 0.72584 0.47934 0.25554
 O378 O 0.75196 0.51884 0.22962
 O379 O 0.75287 0.48062 0.22841
 O380 O 0.72454 0.51755 0.25637
 Cu381 Cu 0.76338 0.49904 0.26861
 Cu382 Cu 0.73656 0.49909 0.24009
 C383 C 0.73162 0.52487 0.27228
 C384 C 0.76813 0.47329 0.23620
 C385 C 0.76819 0.52479 0.23641
 C386 C 0.73194 0.47330 0.27241
 O387 O 0.22431 0.01769 0.74591
 O388 O 0.25123 -0.02103 0.77242
 O389 O 0.25129 0.01734 0.77258
 O390 O 0.22400 -0.02054 0.74497
 O391 O 0.24671 -0.02068 0.72157
 O392 O 0.27391 0.01712 0.74908
 O393 O 0.27354 -0.02116 0.74864
 O394 O 0.24649 0.01765 0.72198
 Cu395 Cu 0.23547 -0.00174 0.76136
 Cu396 Cu 0.26240 -0.00172 0.73293
 C397 C 0.23090 0.02448 0.72957
 C398 C 0.26691 -0.02782 0.76503
 C399 C 0.26712 0.02387 0.76539
 C400 C 0.23082 -0.02719 0.72862
 O401 O 0.25037 0.27161 0.98024
 O402 O 0.27805 0.24441 1.01860
 O403 O 0.27736 0.24485 0.97959
 O404 O 0.25077 0.27090 1.01932
 O405 O 0.22736 0.24882 1.01787
 O406 O 0.25599 0.22076 0.98085
 O407 O 0.25462 0.22234 1.01986
 O408 O 0.22901 0.24752 0.97876
 Cu409 Cu 0.26638 0.26028 0.99945
 Cu410 Cu 0.23948 0.23254 0.99933
 C411 C 0.23522 0.26398 0.97260
 C412 C 0.27082 0.22894 1.02610
 C413 C 0.27135 0.22826 0.97357
 C414 C 0.23444 0.26443 1.02528
 O415 O 0.24921 0.77163 0.47799
 O416 O 0.27625 0.74439 0.51684
 O417 O 0.27630 0.74494 0.47776
 O418 O 0.24939 0.77117 0.51701
 O419 O 0.22590 0.74919 0.51546
 O420 O 0.25483 0.72092 0.47871
 O421 O 0.25274 0.72240 0.51783
 O422 O 0.22774 0.74765 0.47636
 Cu423 Cu 0.26506 0.76033 0.49740
 Cu424 Cu 0.23804 0.73271 0.49703
 C425 C 0.23406 0.76408 0.47025
 C426 C 0.26882 0.72902 0.52435
 C427 C 0.27030 0.72839 0.47161
 C428 C 0.23302 0.76478 0.52289
 O429 O 0.22233 0.75162 -0.01914
 O430 O 0.24951 0.77776 0.02032
 O431 O 0.25002 0.77755 -0.01846
 O432 O 0.22166 0.75200 0.02035
 O433 O 0.24317 0.72787 0.02046
 O434 O 0.27152 0.75341 -0.01827
 O435 O 0.27098 0.75360 0.02104
 O436 O 0.24386 0.72752 -0.01826
 Cu437 Cu 0.23362 0.76708 0.00071
 Cu438 Cu 0.25962 0.73826 0.00130
 C439 C 0.22854 0.73517 -0.02552
 C440 C 0.26486 0.77004 0.02749
 C441 C 0.26557 0.76978 -0.02507
 C442 C 0.22764 0.73564 0.02712
 O443 O 0.27198 0.25360 0.48053
 O444 O 0.24497 0.22794 0.52016
 O445 O 0.24440 0.22763 0.48148
 O446 O 0.27283 0.25362 0.51982
 O447 O 0.25137 0.27780 0.51989
 O448 O 0.22281 0.25169 0.48152
 O449 O 0.22349 0.25209 0.52090
 O450 O 0.25045 0.27771 0.48111
 Cu451 Cu 0.26079 0.23836 0.50047
 Cu452 Cu 0.23478 0.26718 0.50089
 C453 C 0.26579 0.26998 0.47397
 C454 C 0.22967 0.23569 0.52737
 C455 C 0.22878 0.23524 0.47489
 C456 C 0.26695 0.27006 0.52650
 O457 O 0.75473 0.72129 0.98088
 O458 O 0.72767 0.74780 1.02001
 O459 O 0.72763 0.74756 0.98081
 O460 O 0.75444 0.72117 1.02008
 O461 O 0.77708 0.74410 1.02012
 O462 O 0.74993 0.77084 0.98098
 O463 O 0.74998 0.77107 1.01990
 O464 O 0.77736 0.74424 0.98110
 Cu465 Cu 0.73888 0.73212 1.00044
 Cu466 Cu 0.76586 0.75988 1.00054
 C467 C 0.77056 0.72831 0.97418
 C468 C 0.73424 0.76393 1.02669
 C469 C 0.73423 0.76363 0.97410
 C470 C 0.77023 0.72816 1.02694
 O471 O 0.75561 0.22106 0.48358
 O472 O 0.72887 0.24907 0.52184
 O473 O 0.72944 0.24812 0.48289
 O474 O 0.75519 0.22158 0.52283
 O475 O 0.77892 0.24335 0.52207
 O476 O 0.75197 0.27117 0.48359
 O477 O 0.75265 0.27079 0.52282
 O478 O 0.77858 0.24366 0.48319
 Cu479 Cu 0.73999 0.23267 0.50286
 Cu480 Cu 0.76783 0.25954 0.50289
 C481 C 0.77146 0.22774 0.47659
 C482 C 0.73632 0.26457 0.52908
 C483 C 0.73630 0.26418 0.47641
 C484 C 0.77145 0.22785 0.52924
 O485 O 0.77255 0.25520 -0.02148
 O486 O 0.74577 0.22912 0.01800
 O487 O 0.74557 0.22819 -0.02097
 O488 O 0.77248 0.25546 0.01753
 O489 O 0.75009 0.27876 0.01707
 O490 O 0.72313 0.25146 -0.02170
 O491 O 0.72289 0.25193 0.01742
 O492 O 0.74972 0.27807 -0.02209
 Cu493 Cu 0.76137 0.23968 -0.00178
 Cu494 Cu 0.73418 0.26739 -0.00230
 C495 C 0.76563 0.27102 -0.02863
 C496 C 0.72986 0.23613 0.02458
 C497 C 0.72982 0.23520 -0.02800
 C498 C 0.76582 0.27162 0.02406
 O499 O 0.77318 0.75540 0.48134
 O500 O 0.74557 0.72785 0.51938
 O501 O 0.74632 0.72874 0.48033
 O502 O 0.77264 0.75435 0.52033
 O503 O 0.75112 0.77844 0.51938
 O504 O 0.72280 0.75083 0.48172
 O505 O 0.72405 0.75192 0.52088
 O506 O 0.74967 0.77754 0.48033
 Cu507 Cu 0.76168 0.73925 0.50033
 Cu508 Cu 0.73462 0.76701 0.50061
 C509 C 0.76587 0.77096 0.47402
 C510 C 0.73034 0.73544 0.52697
 C511 C 0.73005 0.73530 0.47422
 C512 C 0.76653 0.77084 0.52658
 O513 O 0.98055 0.25310 0.22172
 O514 O 1.01740 0.22584 0.25071
 O515 O 0.97963 0.22644 0.24943
 O516 O 1.01872 0.25253 0.22275
 O517 O 1.01887 0.27534 0.24623
 O518 O 0.97855 0.25024 0.27185
 O519 O 1.01675 0.24902 0.27382
 O520 O 0.98103 0.27692 0.24413
 Cu521 Cu 0.99912 0.23719 0.23379
 Cu522 Cu 0.99871 0.26518 0.26135
 C523 C 0.97446 0.26963 0.22798
 C524 C 1.02343 0.23287 0.26720
 C525 C 0.97223 0.23404 0.26505
 C526 C 1.02573 0.26820 0.23012
 O527 O 0.52077 0.27118 0.74803
 O528 O 0.48045 0.24517 0.77244
 O529 O 0.51835 0.24347 0.77462
 O530 O 0.48286 0.27301 0.74607
 O531 O 0.48185 0.24987 0.72294
 O532 O 0.51983 0.22229 0.74964
 O533 O 0.48187 0.22201 0.74936
 O534 O 0.51988 0.25004 0.72299
 Cu535 Cu 0.50059 0.26043 0.76272
 Cu536 Cu 0.50090 0.23383 0.73379
 C537 C 0.52711 0.26518 0.73123
 C538 C 0.47435 0.22908 0.76519
 C539 C 0.52546 0.22804 0.76678
 C540 C 0.47593 0.26619 0.72986
 O541 O -0.01836 0.27546 0.75294
 O542 O 0.01900 0.24632 0.72701
 O543 O -0.01865 0.24651 0.72779
 O544 O 0.01990 0.27497 0.75276
 O545 O 0.01965 0.25420 0.77810
 O546 O -0.01858 0.22554 0.75295
 O547 O 0.01965 0.22551 0.75231
 O548 O -0.01812 0.25455 0.77816
 Cu549 Cu 0.00049 0.26301 0.73767
 Cu550 Cu 0.00070 0.23779 0.76787
 C551 C -0.02481 0.26989 0.76982
 C552 C 0.02575 0.23096 0.73523
 C553 C -0.02527 0.23120 0.73617
 C554 C 0.02639 0.26942 0.76968
 O555 O 0.51940 0.25464 0.27999
 O556 O 0.48254 0.22664 0.25177
 O557 O 0.52070 0.22756 0.25256
 O558 O 0.48141 0.25395 0.27876
 O559 O 0.48261 0.27752 0.25615
 O560 O 0.51943 0.24926 0.22808
 O561 O 0.48138 0.25017 0.22913
 O562 O 0.52058 0.27631 0.25549
 Cu563 Cu 0.50104 0.23840 0.26813
 Cu564 Cu 0.50102 0.26558 0.23983
 C565 C 0.52658 0.27005 0.27233
 C566 C 0.47526 0.23391 0.23591
 C567 C 0.52670 0.23385 0.23576
 C568 C 0.47536 0.27028 0.27200
 O569 O 1.02158 0.77289 0.74678
 O570 O 0.98201 0.74646 0.77227
 O571 O 1.01979 0.74517 0.77340
 O572 O 0.98352 0.77443 0.74559
 O573 O 0.98287 0.75178 0.72193
 O574 O 1.02030 0.72357 0.74875
 O575 O 0.98211 0.72422 0.74821
 O576 O 1.02079 0.75132 0.72214
 Cu577 Cu 1.00172 0.76199 0.76192
 Cu578 Cu 1.00156 0.73548 0.73285
 C579 C 1.02796 0.76661 0.73010
 C580 C 0.97526 0.73086 0.76454
 C581 C 1.02644 0.72951 0.76564
 C582 C 0.97674 0.76787 0.72918
 O583 O 0.51976 0.77498 0.24580
 O584 O 0.48092 0.74780 0.27148
 O585 O 0.51899 0.74730 0.27258
 O586 O 0.48186 0.77569 0.24510
 O587 O 0.48088 0.75252 0.22200
 O588 O 0.52045 0.72604 0.24767
 O589 O 0.48236 0.72463 0.24841
 O590 O 0.51890 0.75367 0.22093
 Cu591 Cu 0.50038 0.76364 0.26119
 Cu592 Cu 0.50069 0.73698 0.23234
 C593 C 0.52585 0.76909 0.22886
 C594 C 0.47501 0.73157 0.26438
 C595 C 0.52640 0.73209 0.26460
 C596 C 0.47470 0.76869 0.22908
 O597 O -0.02134 0.77722 0.25238
 O598 O 0.01636 0.74819 0.22671
 O599 O -0.02129 0.74823 0.22730
 O600 O 0.01701 0.77694 0.25238
 O601 O 0.01684 0.75618 0.27772
 O602 O -0.02128 0.72734 0.25253
 O603 O 0.01696 0.72741 0.25204
 O604 O -0.02097 0.75641 0.27769
 Cu605 Cu -0.00230 0.76483 0.23724
 Cu606 Cu -0.00207 0.73969 0.26749
 C607 C -0.02779 0.77166 0.26927
 C608 C 0.02313 0.73285 0.23498
 C609 C -0.02791 0.73292 0.23569
 C610 C 0.02354 0.77141 0.26928
 O611 O 0.48047 0.77618 0.75357
 O612 O 0.51762 0.74786 0.72590
 O613 O 0.47984 0.74845 0.72657
 O614 O 0.51861 0.77548 0.75277
 O615 O 0.51800 0.75385 0.77734
 O616 O 0.48023 0.72607 0.75045
 O617 O 0.51840 0.72619 0.75043
 O618 O 0.48016 0.75346 0.77709
 Cu619 Cu 0.49912 0.76427 0.73733
 Cu620 Cu 0.49927 0.73763 0.76620
 C621 C 0.47374 0.76945 0.76991
 C622 C 0.52451 0.73229 0.73360
 C623 C 0.47338 0.73265 0.73408
 C624 C 0.52491 0.76931 0.76952
 C625 C 0.41077 0.30937 0.30981
 C626 C 0.40866 0.32978 0.30800
 C627 C 0.39243 0.33905 0.31671
 C628 C 0.37812 0.32795 0.32676
 C629 C 0.38053 0.30743 0.32821
 C630 C 0.39688 0.29813 0.32001
 C631 C 0.42770 0.29952 0.30060
 C632 C 0.42984 0.27912 0.30260
 C633 C 0.44582 0.26978 0.29368
 C634 C 0.45933 0.28059 0.28236
 C635 C 0.45698 0.30105 0.28044
 C636 C 0.44125 0.31063 0.28973
 C637 C 0.39950 0.27775 0.32166
 C638 C 0.41577 0.26842 0.31320
 C639 C 0.42273 0.34047 0.29733
 C640 C 0.43868 0.33104 0.28825
 H641 H 0.38888 0.26893 0.32954
 H642 H 0.41724 0.25266 0.31480
 H643 H 0.42129 0.35622 0.29580
 H644 H 0.44906 0.33980 0.27998
 H645 H 0.39100 0.35484 0.31565
 H646 H 0.36948 0.29855 0.33537
 H647 H 0.44744 0.25401 0.29504
 H648 H 0.46738 0.30945 0.27180
 C649 C 0.41052 0.80897 0.80981
 C650 C 0.40671 0.82877 0.80570
 C651 C 0.39072 0.83801 0.81485
 C652 C 0.37807 0.82752 0.82779
 C653 C 0.38252 0.80754 0.83170
 C654 C 0.39865 0.79833 0.82292
 C655 C 0.42708 0.79908 0.79994
 C656 C 0.43082 0.77925 0.80408
 C657 C 0.44638 0.76982 0.79449
 C658 C 0.45796 0.77997 0.78053
 C659 C 0.45404 0.79988 0.77654
 C660 C 0.43866 0.80956 0.78634
 C661 C 0.40289 0.77849 0.82670
 C662 C 0.41875 0.76914 0.81752
 C663 C 0.41887 0.83890 0.79232
 C664 C 0.43451 0.82944 0.78273
 H665 H 0.39382 0.77010 0.83681
 H666 H 0.42148 0.75381 0.82081
 H667 H 0.41613 0.85422 0.78902
 H668 H 0.44337 0.83774 0.77234
 H669 H 0.38863 0.85350 0.81210
 H670 H 0.37296 0.79856 0.84070
 H671 H 0.44918 0.75446 0.79755
 H672 H 0.46293 0.80782 0.76588
 C673 C -0.08863 0.31079 0.80699
 C674 C -0.10151 0.32168 0.79500
 C675 C -0.11769 0.33072 0.80389
 C676 C -0.12091 0.32926 0.82470
 C677 C -0.10762 0.31849 0.83653
 C678 C -0.09158 0.30906 0.82771
 C679 C -0.07188 0.30081 0.79760
 C680 C -0.05934 0.28939 0.80948
 C681 C -0.04379 0.27942 0.80036
 C682 C -0.04061 0.28109 0.77959
 C683 C -0.05310 0.29294 0.76799
 C684 C -0.06890 0.30265 0.77689
 C685 C -0.07852 0.29779 0.83916
 C686 C -0.06273 0.28804 0.83018
 C687 C -0.09805 0.32318 0.77432
 C688 C -0.08196 0.31390 0.76543
 H689 H -0.08063 0.29633 0.85517
 H690 H -0.05312 0.27933 0.83952
 H691 H -0.10787 0.33158 0.76492
 H692 H -0.07983 0.31540 0.74943
 H693 H -0.12796 0.33859 0.79451
 H694 H -0.10970 0.31746 0.85258
 H695 H -0.03418 0.27038 0.80938
 H696 H -0.05085 0.29415 0.75197
 C697 C -0.09205 0.81177 0.30660
 C698 C -0.10569 0.82167 0.29459
 C699 C -0.12191 0.83054 0.30363
 C700 C -0.12438 0.82993 0.32461
 C701 C -0.11034 0.82013 0.33640
 C702 C -0.09429 0.81085 0.32746
 C703 C -0.07521 0.80201 0.29711
 C704 C -0.06192 0.79156 0.30907
 C705 C -0.04628 0.78178 0.29990
 C706 C -0.04372 0.78272 0.27900
 C707 C -0.05694 0.79362 0.26729
 C708 C -0.07288 0.80309 0.27625
 C709 C -0.08049 0.80056 0.33897
 C710 C -0.06464 0.79098 0.32991
 C711 C -0.10288 0.82239 0.27375
 C712 C -0.08669 0.81335 0.26475
 H713 H -0.08206 0.79974 0.35509
 H714 H -0.05446 0.78303 0.33931
 H715 H -0.11327 0.83001 0.26432
 H716 H -0.08508 0.81425 0.24864
 H717 H -0.13274 0.83761 0.29427
 H718 H -0.11183 0.81979 0.35255
 H719 H -0.03610 0.77348 0.30900
 H720 H -0.05516 0.79424 0.25117
 C721 C 0.59003 0.69303 0.30426
 C722 C 0.60385 0.68277 0.29281
 C723 C 0.61979 0.67395 0.30244
 C724 C 0.62180 0.67499 0.32346
 C725 C 0.60756 0.68515 0.33469
 C726 C 0.59180 0.69437 0.32516
 C727 C 0.57347 0.70269 0.29417
 C728 C 0.55995 0.71343 0.30557
 C729 C 0.54450 0.72301 0.29583
 C730 C 0.54235 0.72155 0.27490
 C731 C 0.55584 0.71042 0.26375
 C732 C 0.57157 0.70115 0.27328
 C733 C 0.57781 0.70499 0.33610
 C734 C 0.56222 0.71445 0.32646
 C735 C 0.60150 0.68162 0.27193
 C736 C 0.58558 0.69057 0.26234
 H737 H 0.57902 0.70614 0.35224
 H738 H 0.55186 0.72264 0.33544
 H739 H 0.61204 0.67372 0.26292
 H740 H 0.58431 0.68931 0.24622
 H741 H 0.63075 0.66656 0.29351
 H742 H 0.60865 0.68581 0.35087
 H743 H 0.53412 0.73148 0.30451
 H744 H 0.55437 0.70939 0.24761
 C745 C 0.58684 0.18655 0.80745
 C746 C 0.60041 0.17584 0.79613
 C747 C 0.61618 0.16690 0.80584
 C748 C 0.61835 0.16830 0.82681
 C749 C 0.60424 0.17870 0.83798
 C750 C 0.58861 0.18808 0.82834
 C751 C 0.57071 0.19672 0.79716
 C752 C 0.55755 0.20810 0.80837
 C753 C 0.54265 0.21831 0.79840
 C754 C 0.54071 0.21687 0.77744
 C755 C 0.55379 0.20506 0.76651
 C756 C 0.56896 0.19515 0.77627
 C757 C 0.57491 0.19924 0.83910
 C758 C 0.55971 0.20917 0.82927
 C759 C 0.59814 0.17456 0.77525
 C760 C 0.58262 0.18397 0.76550
 H761 H 0.57611 0.20054 0.85523
 H762 H 0.54961 0.21782 0.83811
 H763 H 0.60851 0.16629 0.76637
 H764 H 0.58143 0.18267 0.74937
 H765 H 0.62707 0.15936 0.79694
 H766 H 0.60548 0.17966 0.85413
 H767 H 0.53256 0.22730 0.80690
 H768 H 0.55248 0.20402 0.75036
 C769 C 1.08890 0.68902 0.80557
 C770 C 1.10267 0.67875 0.79409
 C771 C 1.11873 0.67016 0.80364
 C772 C 1.12096 0.67141 0.82462
 C773 C 1.10667 0.68138 0.83595
 C774 C 1.09077 0.69045 0.82646
 C775 C 1.07242 0.69881 0.79547
 C776 C 1.05908 0.70978 0.80685
 C777 C 1.04388 0.71971 0.79705
 C778 C 1.04184 0.71837 0.77610
 C779 C 1.05507 0.70690 0.76500
 C780 C 1.07056 0.69731 0.77458
 C781 C 1.07686 0.70117 0.83740
 C782 C 1.06135 0.71078 0.82774
 C783 C 1.10029 0.67754 0.77322
 C784 C 1.08443 0.68656 0.76364
 H785 H 1.07812 0.70239 0.85353
 H786 H 1.05110 0.71912 0.83671
 H787 H 1.11081 0.66961 0.76421
 H788 H 1.08317 0.68534 0.74751
 H789 H 1.12974 0.66296 0.79461
 H790 H 1.10794 0.68222 0.85210
 H791 H 1.03367 0.72844 0.80567
 H792 H 1.05368 0.70597 0.74885
 C793 C 1.08595 0.19369 0.30843
 C794 C 1.09942 0.20494 0.31924
 C795 C 1.11540 0.19563 0.32819
 C796 C 1.11780 0.17508 0.32690
 C797 C 1.10388 0.16399 0.31624
 C798 C 1.08807 0.17327 0.30675
 C799 C 1.06948 0.20357 0.29839
 C800 C 1.05640 0.19246 0.28687
 C801 C 1.04118 0.20207 0.27675
 C802 C 1.03882 0.22253 0.27851
 C803 C 1.05180 0.23335 0.29050
 C804 C 1.06732 0.22398 0.30024
 C805 C 1.07445 0.16259 0.29544
 C806 C 1.05896 0.17204 0.28556
 C807 C 1.09680 0.22533 0.32072
 C808 C 1.08094 0.23468 0.31149
 H809 H 1.07590 0.14682 0.29401
 H810 H 1.04894 0.16328 0.27679
 H811 H 1.10710 0.23415 0.32908
 H812 H 1.07946 0.25045 0.31298
 H813 H 1.12616 0.20452 0.33579
 H814 H 1.10530 0.14819 0.31528
 H815 H 1.03117 0.19367 0.26758
 H816 H 1.05018 0.24913 0.29172
 C817 C 0.59109 0.30524 0.69372
 C818 C 0.60377 0.31645 0.70556
 C819 C 0.61977 0.32561 0.69654
 C820 C 0.62300 0.32391 0.67574
 C821 C 0.60990 0.31280 0.66406
 C822 C 0.59405 0.30327 0.67301
 C823 C 0.57449 0.29520 0.70322
 C824 C 0.56207 0.28356 0.69148
 C825 C 0.54655 0.27371 0.70069
 C826 C 0.54325 0.27576 0.72142
 C827 C 0.55569 0.28773 0.73289
 C828 C 0.57145 0.29733 0.72391
 C829 C 0.58115 0.29172 0.66170
 C830 C 0.56550 0.28195 0.67079
 C831 C 0.60030 0.31817 0.72622
 C832 C 0.58435 0.30885 0.73522
 H833 H 0.58328 0.29008 0.64571
 H834 H 0.55600 0.27306 0.66155
 H835 H 0.60997 0.32681 0.73551
 H836 H 0.58218 0.31056 0.75120
 H837 H 0.62989 0.33374 0.70582
 H838 H 0.61199 0.31159 0.64803
 H839 H 0.53698 0.26460 0.69175
 H840 H 0.55336 0.28926 0.74887
 C841 C 0.58851 0.80990 0.18977
 C842 C 0.60021 0.82268 0.20095
 C843 C 0.61631 0.83156 0.19182
 C844 C 0.62093 0.82793 0.17143
 C845 C 0.60842 0.81536 0.16040
 C846 C 0.59245 0.80620 0.16953
 C847 C 0.57203 0.79992 0.19957
 C848 C 0.56064 0.78668 0.18853
 C849 C 0.54540 0.77672 0.19811
 C850 C 0.54142 0.78011 0.21853
 C851 C 0.55278 0.79374 0.22925
 C852 C 0.56821 0.80354 0.21990
 C853 C 0.58045 0.79318 0.15884
 C854 C 0.56488 0.78352 0.16819
 C855 C 0.59586 0.82602 0.22125
 C856 C 0.58008 0.81667 0.23054
 H857 H 0.58329 0.79021 0.14316
 H858 H 0.55616 0.77341 0.15946
 H859 H 0.60478 0.83588 0.23006
 H860 H 0.57729 0.81959 0.24623
 H861 H 0.62574 0.84038 0.20117
 H862 H 0.61066 0.81286 0.14457
 H863 H 0.53668 0.76634 0.18970
 H864 H 0.54992 0.79637 0.24500
 C865 C 1.09125 0.30543 0.19224
 C866 C 1.09535 0.30148 0.17209
 C867 C 1.11140 0.31052 0.16299
 C868 C 1.12375 0.32334 0.17391
 C869 C 1.11925 0.32684 0.19436
 C870 C 1.10304 0.31810 0.20345
 C871 C 1.07429 0.29607 0.20183
 C872 C 1.07010 0.30018 0.22197
 C873 C 1.05397 0.29127 0.23102
 C874 C 1.04226 0.27805 0.22016
 C875 C 1.04671 0.27403 0.19997
 C876 C 1.06265 0.28312 0.19068
 C877 C 1.09846 0.32174 0.22364
 C878 C 1.08222 0.31300 0.23271
 C879 C 1.08323 0.28861 0.16134
 C880 C 1.06722 0.27952 0.17050
 H881 H 1.10746 0.33150 0.23249
 H882 H 1.07919 0.31625 0.24829
 H883 H 1.08622 0.28544 0.14573
 H884 H 1.05834 0.26961 0.16171
 H885 H 1.11363 0.30799 0.14716
 H886 H 1.12862 0.33571 0.20368
 H887 H 1.05077 0.29433 0.24661
 H888 H 1.03774 0.26393 0.19148
 C889 C 1.09207 0.80536 0.69134
 C890 C 1.09568 0.80181 0.67101
 C891 C 1.11149 0.81105 0.66169
 C892 C 1.12406 0.82369 0.67254
 C893 C 1.12003 0.82685 0.69314
 C894 C 1.10408 0.81788 0.70249
 C895 C 1.07542 0.79571 0.70118
 C896 C 1.07174 0.79936 0.72153
 C897 C 1.05594 0.79009 0.73083
 C898 C 1.04407 0.77700 0.72000
 C899 C 1.04799 0.77351 0.69959
 C900 C 1.06358 0.78293 0.69008
 C901 C 1.09999 0.82110 0.72286
 C902 C 1.08405 0.81206 0.73220
 C903 C 1.08336 0.78911 0.66032
 C904 C 1.06764 0.77976 0.66971
 H905 H 1.10916 0.83073 0.73167
 H906 H 1.08141 0.81497 0.74792
 H907 H 1.08597 0.78626 0.64457
 H908 H 1.05859 0.76997 0.66095
 H909 H 1.11336 0.80881 0.64576
 H910 H 1.12959 0.83560 0.70238
 H911 H 1.05313 0.79276 0.74658
 H912 H 1.03889 0.76353 0.69111
 C913 C 0.40986 0.69306 0.69521
 C914 C 0.40729 0.69501 0.67444
 C915 C 0.39153 0.68557 0.66515
 C916 C 0.37815 0.67457 0.67654
 C917 C 0.38092 0.67302 0.69744
 C918 C 0.39684 0.68203 0.70678
 C919 C 0.42641 0.70289 0.70506
 C920 C 0.42908 0.70071 0.72580
 C921 C 0.44480 0.71011 0.73511
 C922 C 0.45749 0.72201 0.72392
 C923 C 0.45456 0.72412 0.70314
 C924 C 0.43913 0.71441 0.69359
 C925 C 0.39993 0.68028 0.72751
 C926 C 0.41585 0.68937 0.73684
 C927 C 0.42049 0.70642 0.66341
 C928 C 0.43608 0.71605 0.67284
 H929 H 0.38999 0.67177 0.73660
 H930 H 0.41773 0.68763 0.75286
 H931 H 0.41868 0.70806 0.64738
 H932 H 0.44582 0.72484 0.66381
 H933 H 0.38980 0.68670 0.64906
 H934 H 0.37056 0.66505 0.70653
 H935 H 0.44687 0.70859 0.75114
 H936 H 0.46435 0.73319 0.69444
 C937 C 0.41076 0.19519 0.19752
 C938 C 0.40707 0.17539 0.20162
 C939 C 0.39113 0.16615 0.19247
 C940 C 0.37851 0.17656 0.17936
 C941 C 0.38258 0.19665 0.17575
 C942 C 0.39866 0.20589 0.18460
 C943 C 0.42757 0.20494 0.20703
 C944 C 0.43129 0.22475 0.20282
 C945 C 0.44721 0.23399 0.21196
 C946 C 0.45917 0.22367 0.22552
 C947 C 0.45522 0.20379 0.22958
 C948 C 0.43949 0.19432 0.22026
 C949 C 0.40281 0.22573 0.18083
 C950 C 0.41889 0.23497 0.18972
 C951 C 0.41948 0.16516 0.21475
 C952 C 0.43536 0.17448 0.22398
 H953 H 0.39357 0.23419 0.17088
 H954 H 0.42157 0.25028 0.18638
 H955 H 0.41683 0.14984 0.21804
 H956 H 0.44446 0.16609 0.23412
 H957 H 0.38919 0.15063 0.19511
 H958 H 0.37297 0.20559 0.16672
 H959 H 0.45001 0.24933 0.20886
 H960 H 0.46436 0.19571 0.23995
 C961 C -0.09121 0.69181 0.19793
 C962 C -0.09477 0.69462 0.17747
 C963 C -0.11053 0.68506 0.16842
 C964 C -0.12318 0.67286 0.17965
 C965 C -0.11915 0.67034 0.20035
 C966 C -0.10322 0.67965 0.20944
 C967 C -0.07466 0.70192 0.20751
 C968 C -0.07106 0.69907 0.22801
 C969 C -0.05543 0.70888 0.23709
 C970 C -0.04368 0.72174 0.22587
 C971 C -0.04749 0.72436 0.20530
 C972 C -0.06289 0.71440 0.19603
 C973 C -0.09917 0.67718 0.22994
 C974 C -0.08333 0.68666 0.23905
 C975 C -0.08246 0.70698 0.16639
 C976 C -0.06685 0.71677 0.17553
 H977 H -0.10833 0.66783 0.23903
 H978 H -0.08074 0.68436 0.25488
 H979 H -0.08503 0.70925 0.15054
 H980 H -0.05783 0.72631 0.16649
 H981 H -0.11235 0.68673 0.15241
 H982 H -0.12872 0.66188 0.20982
 H983 H -0.05269 0.70688 0.25295
 H984 H -0.03847 0.73415 0.19653
 C985 C -0.08886 0.19027 0.69874
 C986 C -0.09255 0.19314 0.67831
 C987 C -0.10839 0.18361 0.66936
 C988 C -0.12096 0.17139 0.68066
 C989 C -0.11680 0.16884 0.70132
 C990 C -0.10079 0.17811 0.71032
 C991 C -0.07224 0.20035 0.70823
 C992 C -0.06851 0.19746 0.72869
 C993 C -0.05282 0.20723 0.73769
 C994 C -0.04113 0.22010 0.72642
 C995 C -0.04507 0.22278 0.70589
 C996 C -0.06054 0.21285 0.69669
 C997 C -0.09662 0.17559 0.73078
 C998 C -0.08071 0.18504 0.73979
 C999 C -0.08032 0.20552 0.66718
 C1000 C -0.06464 0.21528 0.67623
 H1001 H -0.10573 0.16623 0.73992
 H1002 H -0.07803 0.18270 0.75561
 H1003 H -0.08299 0.20783 0.65135
 H1004 H -0.05568 0.22483 0.66715
 H1005 H -0.11035 0.18533 0.65337
 H1006 H -0.12635 0.16043 0.71087
 H1007 H -0.04998 0.20518 0.75352
 H1008 H -0.03610 0.23258 0.69708
 C1009 C 0.30600 0.41006 0.30326
 C1010 C 0.31639 0.39632 0.29178
 C1011 C 0.32522 0.38027 0.30135
 C1012 C 0.32405 0.37809 0.32234
 C1013 C 0.31374 0.39226 0.33359
 C1014 C 0.30451 0.40811 0.32412
 C1015 C 0.29636 0.42675 0.29322
 C1016 C 0.28548 0.44017 0.30464
 C1017 C 0.27591 0.45571 0.29496
 C1018 C 0.27749 0.45807 0.27407
 C1019 C 0.28878 0.44469 0.26290
 C1020 C 0.29805 0.42884 0.27237
 C1021 C 0.29376 0.42202 0.33508
 C1022 C 0.28431 0.43771 0.32550
 C1023 C 0.31768 0.39886 0.27093
 C1024 C 0.30876 0.41490 0.26141
 H1025 H 0.29250 0.42067 0.35120
 H1026 H 0.27602 0.44800 0.33449
 H1027 H 0.32569 0.38838 0.26190
 H1028 H 0.31013 0.41632 0.24531
 H1029 H 0.33272 0.36938 0.29238
 H1030 H 0.31298 0.39105 0.34975
 H1031 H 0.26731 0.46601 0.30365
 H1032 H 0.28990 0.44631 0.24678
 C1033 C 0.30585 -0.09187 0.80462
 C1034 C 0.31854 -0.10392 0.79367
 C1035 C 0.32755 -0.11988 0.80318
 C1036 C 0.32431 -0.12386 0.82377
 C1037 C 0.31147 -0.11126 0.83441
 C1038 C 0.30216 -0.09546 0.82492
 C1039 C 0.29614 -0.07522 0.79459
 C1040 C 0.28315 -0.06337 0.80547
 C1041 C 0.27368 -0.04779 0.79576
 C1042 C 0.27734 -0.04388 0.77539
 C1043 C 0.29063 -0.05576 0.76479
 C1044 C 0.29994 -0.07156 0.77427
 C1045 C 0.28926 -0.08312 0.83539
 C1046 C 0.27985 -0.06740 0.82581
 C1047 C 0.32189 -0.09986 0.77332
 C1048 C 0.31282 -0.08391 0.76381
 H1049 H 0.28630 -0.08571 0.85110
 H1050 H 0.26990 -0.05834 0.83440
 H1051 H 0.33166 -0.10906 0.76467
 H1052 H 0.31583 -0.08128 0.74812
 H1053 H 0.33640 -0.12951 0.79406
 H1054 H 0.30912 -0.11311 0.85032
 H1055 H 0.26353 -0.03868 0.80405
 H1056 H 0.29342 -0.05297 0.74907
 C1057 C 0.81073 0.41432 0.80594
 C1058 C 0.82369 0.40250 0.79508
 C1059 C 0.83285 0.38667 0.80464
 C1060 C 0.82928 0.38243 0.82512
 C1061 C 0.81656 0.39509 0.83582
 C1062 C 0.80714 0.41080 0.82628
 C1063 C 0.80040 0.43045 0.79569
 C1064 C 0.78700 0.44194 0.80643
 C1065 C 0.77673 0.45682 0.79645
 C1066 C 0.77991 0.46033 0.77592
 C1067 C 0.79370 0.44890 0.76548
 C1068 C 0.80386 0.43383 0.77526
 C1069 C 0.79395 0.42291 0.83665
 C1070 C 0.78399 0.43817 0.82688
 C1071 C 0.82689 0.40642 0.77468
 C1072 C 0.81719 0.42186 0.76495
 H1073 H 0.79108 0.42040 0.85240
 H1074 H 0.77376 0.44699 0.83536
 H1075 H 0.83688 0.39739 0.76611
 H1076 H 0.82000 0.42430 0.74918
 H1077 H 0.84181 0.37710 0.79555
 H1078 H 0.81410 0.39315 0.85169
 H1079 H 0.76624 0.46561 0.80465
 H1080 H 0.79620 0.45143 0.74966
 C1081 C 0.80625 -0.08520 0.30796
 C1082 C 0.82606 -0.08865 0.30429
 C1083 C 0.83545 -0.10434 0.31395
 C1084 C 0.82510 -0.11709 0.32694
 C1085 C 0.80508 -0.11300 0.33038
 C1086 C 0.79573 -0.09714 0.32111
 C1087 C 0.79621 -0.06898 0.29754
 C1088 C 0.77634 -0.06560 0.30121
 C1089 C 0.76678 -0.05038 0.29105
 C1090 C 0.77684 -0.03887 0.27696
 C1091 C 0.79678 -0.04243 0.27347
 C1092 C 0.80658 -0.05740 0.28385
 C1093 C 0.77586 -0.09327 0.32444
 C1094 C 0.76636 -0.07770 0.31474
 C1095 C 0.83607 -0.07645 0.29083
 C1096 C 0.82648 -0.06117 0.28070
 H1097 H 0.76756 -0.10239 0.33458
 H1098 H 0.75102 -0.07526 0.31768
 H1099 H 0.85140 -0.07891 0.28787
 H1100 H 0.83469 -0.05229 0.27025
 H1101 H 0.85091 -0.10615 0.31148
 H1102 H 0.79620 -0.12266 0.33937
 H1103 H 0.75140 -0.04784 0.29372
 H1104 H 0.80465 -0.03356 0.26273
 C1105 C 0.31145 0.58821 0.69493
 C1106 C 0.32146 0.60211 0.70649
 C1107 C 0.32995 0.61827 0.69699
 C1108 C 0.32887 0.62048 0.67599
 C1109 C 0.31909 0.60609 0.66460
 C1110 C 0.31014 0.59007 0.67403
 C1111 C 0.30183 0.57158 0.70497
 C1112 C 0.29115 0.55809 0.69351
 C1113 C 0.28141 0.54274 0.70322
 C1114 C 0.28261 0.54068 0.72419
 C1115 C 0.29378 0.55406 0.73539
 C1116 C 0.30321 0.56971 0.72588
 C1117 C 0.29968 0.57602 0.66303
 C1118 C 0.29025 0.56036 0.67261
 C1119 C 0.32255 0.59973 0.72736
 C1120 C 0.31368 0.58374 0.73688
 H1121 H 0.29855 0.57727 0.64689
 H1122 H 0.28212 0.55000 0.66359
 H1123 H 0.33028 0.61035 0.73643
 H1124 H 0.31482 0.58248 0.75302
 H1125 H 0.33698 0.62937 0.70607
 H1126 H 0.31836 0.60734 0.64845
 H1127 H 0.27290 0.53242 0.69451
 H1128 H 0.29462 0.55264 0.75154
 C1129 C 0.30907 1.09212 0.19782
 C1130 C 0.32927 1.09421 0.20026
 C1131 C 0.33882 1.10992 0.19085
 C1132 C 0.32820 1.12367 0.17937
 C1133 C 0.30785 1.12142 0.17748
 C1134 C 0.29828 1.10559 0.18641
 C1135 C 0.29897 1.07556 0.20744
 C1136 C 0.27882 1.07333 0.20464
 C1137 C 0.26929 1.05752 0.21366
 C1138 C 0.27964 1.04422 0.22581
 C1139 C 0.29982 1.04675 0.22869
 C1140 C 0.30961 1.06232 0.21931
 C1141 C 0.27811 1.10298 0.18413
 C1142 C 0.26856 1.08705 0.19300
 C1143 C 0.33948 1.08055 0.21207
 C1144 C 0.32981 1.06495 0.22152
 H1145 H 0.26965 1.11328 0.17533
 H1146 H 0.25300 1.08551 0.19080
 H1147 H 0.35507 1.08199 0.21411
 H1148 H 0.33822 1.05482 0.23058
 H1149 H 0.35447 1.11130 0.19232
 H1150 H 0.29934 1.13211 0.16922
 H1151 H 0.25372 1.05579 0.21158
 H1152 H 0.30786 1.03651 0.23798
 C1153 C 0.80793 0.58788 0.19666
 C1154 C 0.79699 0.60167 0.18583
 C1155 C 0.80651 0.61751 0.17685
 C1156 C 0.82694 0.61947 0.17818
 C1157 C 0.83772 0.60527 0.18890
 C1158 C 0.82824 0.58957 0.19836
 C1159 C 0.79787 0.57146 0.20659
 C1160 C 0.80869 0.55798 0.21798
 C1161 C 0.79894 0.54267 0.22780
 C1162 C 0.77860 0.54064 0.22588
 C1163 C 0.76806 0.55412 0.21414
 C1164 C 0.77757 0.56970 0.20466
 C1165 C 0.83862 0.57560 0.20962
 C1166 C 0.82900 0.56014 0.21936
 C1167 C 0.77670 0.59946 0.18432
 C1168 C 0.76717 0.58367 0.19348
 H1169 H 0.85430 0.57673 0.21107
 H1170 H 0.83754 0.54980 0.22803
 H1171 H 0.76812 0.61002 0.17596
 H1172 H 0.75150 0.58249 0.19193
 H1173 H 0.79791 0.62850 0.16913
 H1174 H 0.85343 0.60636 0.18985
 H1175 H 0.80715 0.53227 0.23675
 H1176 H 0.75238 0.55275 0.21276
 C1177 C 0.81034 1.08674 0.69755
 C1178 C 0.83006 1.09017 0.70169
 C1179 C 0.83956 1.10589 0.69228
 C1180 C 0.82943 1.11857 0.67899
 C1181 C 0.80947 1.11461 0.67522
 C1182 C 0.80001 1.09877 0.68425
 C1183 C 0.80022 1.07038 0.70751
 C1184 C 0.78049 1.06699 0.70326
 C1185 C 0.77090 1.05151 0.71279
 C1186 C 0.78077 1.03964 0.72677
 C1187 C 0.80055 1.04328 0.73097
 C1188 C 0.81041 1.05858 0.72123
 C1189 C 0.78025 1.09494 0.68043
 C1190 C 0.77067 1.07925 0.68970
 C1191 C 0.83987 1.07784 0.71527
 C1192 C 0.83019 1.06238 0.72494
 H1193 H 0.77210 1.10415 0.67017
 H1194 H 0.75543 1.07680 0.68633
 H1195 H 0.85512 1.08028 0.71860
 H1196 H 0.83826 1.05336 0.73542
 H1197 H 0.85497 1.10767 0.69506
 H1198 H 0.80074 1.12431 0.66605
 H1199 H 0.75563 1.04892 0.70958
 H1200 H 0.80827 1.03415 0.74165
 C1201 C 0.69159 0.58898 0.31051
 C1202 C 0.70246 0.60310 0.32089
 C1203 C 0.69289 0.61932 0.32923
 C1204 C 0.67247 0.62136 0.32774
 C1205 C 0.66175 0.60681 0.31751
 C1206 C 0.67128 0.59072 0.30866
 C1207 C 0.70172 0.57220 0.30116
 C1208 C 0.69096 0.55842 0.29013
 C1209 C 0.70078 0.54284 0.28073
 C1210 C 0.72113 0.54083 0.28269
 C1211 C 0.73161 0.55456 0.29416
 C1212 C 0.72201 0.57042 0.30320
 C1213 C 0.66096 0.57642 0.29782
 C1214 C 0.67064 0.56062 0.28861
 C1215 C 0.72275 0.60085 0.32256
 C1216 C 0.73235 0.58472 0.31397
 H1217 H 0.64529 0.57757 0.29626
 H1218 H 0.66216 0.55006 0.28021
 H1219 H 0.73129 0.61165 0.33059
 H1220 H 0.74801 0.58353 0.31560
 H1221 H 0.70149 0.63056 0.33652
 H1222 H 0.64605 0.60795 0.31641
 H1223 H 0.69263 0.53226 0.27198
 H1224 H 0.74729 0.55321 0.29556
 C1225 C 0.69079 1.08646 0.80995
 C1226 C 0.67709 1.09718 0.79887
 C1227 C 0.66765 1.11319 0.80780
 C1228 C 0.67158 1.11865 0.82791
 C1229 C 0.68529 1.10725 0.83881
 C1230 C 0.69498 1.09136 0.82988
 C1231 C 0.70115 1.06994 0.80039
 C1232 C 0.71520 1.05945 0.81134
 C1233 C 0.72537 1.04408 0.80200
 C1234 C 0.72141 1.03910 0.78192
 C1235 C 0.70704 1.04959 0.77129
 C1236 C 0.69698 1.06512 0.78040
 C1237 C 0.70890 1.08031 0.84048
 C1238 C 0.71889 1.06468 0.83135
 C1239 C 0.67329 1.09189 0.77889
 C1240 C 0.68301 1.07609 0.76984
 H1241 H 0.71225 1.08389 0.85591
 H1242 H 0.72964 1.05667 0.84000
 H1243 H 0.66272 1.10007 0.77016
 H1244 H 0.67969 1.07253 0.75439
 H1245 H 0.65800 1.12185 0.79851
 H1246 H 0.68818 1.11024 0.85445
 H1247 H 0.73635 1.03605 0.81033
 H1248 H 0.70397 1.04596 0.75580
 C1249 C 0.19334 0.58972 0.80725
 C1250 C 0.17999 0.60082 0.79611
 C1251 C 0.17077 0.61695 0.80509
 C1252 C 0.17454 0.62213 0.82533
 C1253 C 0.18801 0.61046 0.83623
 C1254 C 0.19747 0.59442 0.82725
 C1255 C 0.20336 0.57297 0.79770
 C1256 C 0.21703 0.56208 0.80873
 C1257 C 0.22684 0.54646 0.79943
 C1258 C 0.22295 0.54163 0.77928
 C1259 C 0.20896 0.55255 0.76855
 C1260 C 0.19924 0.56833 0.77764
 C1261 C 0.21104 0.58298 0.83790
 C1262 C 0.22069 0.56713 0.82879
 C1263 C 0.17624 0.59572 0.77607
 C1264 C 0.18566 0.57972 0.76701
 H1265 H 0.21435 0.58641 0.85339
 H1266 H 0.23116 0.55881 0.83749
 H1267 H 0.16595 0.60419 0.76729
 H1268 H 0.18236 0.57631 0.75152
 H1269 H 0.16137 0.62585 0.79579
 H1270 H 0.19083 0.61327 0.85191
 H1271 H 0.23753 0.53811 0.80785
 H1272 H 0.20594 0.54904 0.75302
 C1273 C 0.19066 1.09257 0.30698
 C1274 C 0.19153 1.09484 0.32785
 C1275 C 0.18194 1.11078 0.33681
 C1276 C 0.17188 1.12472 0.32504
 C1277 C 0.17133 1.12221 0.30406
 C1278 C 0.18051 1.10607 0.29499
 C1279 C 0.20068 1.07580 0.29749
 C1280 C 0.19957 1.07337 0.27663
 C1281 C 0.20916 1.05743 0.26767
 C1282 C 0.22020 1.04427 0.27937
 C1283 C 0.22125 1.04697 0.30025
 C1284 C 0.21133 1.06261 0.30942
 C1285 C 0.17982 1.10321 0.27416
 C1286 C 0.18910 1.08707 0.26515
 C1287 C 0.20206 1.08117 0.33934
 C1288 C 0.21189 1.06540 0.33027
 H1289 H 0.17202 1.11350 0.26473
 H1290 H 0.18818 1.08540 0.24903
 H1291 H 0.20286 1.08277 0.35547
 H1292 H 0.21999 1.05531 0.33966
 H1293 H 0.18222 1.11222 0.35297
 H1294 H 0.16404 1.13293 0.29470
 H1295 H 0.20847 1.05555 0.25156
 H1296 H 0.22965 1.03685 0.30933
 C1297 C 0.69011 0.41082 0.69281
 C1298 C 0.67991 0.39741 0.70476
 C1299 C 0.67120 0.38107 0.69574
 C1300 C 0.67235 0.37817 0.67484
 C1301 C 0.68223 0.39213 0.66303
 C1302 C 0.69136 0.40832 0.67198
 C1303 C 0.70002 0.42758 0.70235
 C1304 C 0.71087 0.44057 0.69050
 C1305 C 0.72083 0.45608 0.69976
 C1306 C 0.71967 0.45879 0.72065
 C1307 C 0.70838 0.44586 0.73223
 C1308 C 0.69872 0.43007 0.72319
 C1309 C 0.70200 0.42188 0.66056
 C1310 C 0.71168 0.43767 0.66968
 C1311 C 0.67890 0.40043 0.72556
 C1312 C 0.68805 0.41655 0.73460
 H1313 H 0.70307 0.42013 0.64447
 H1314 H 0.71993 0.44764 0.66035
 H1315 H 0.67102 0.39020 0.73493
 H1316 H 0.68697 0.41830 0.75070
 H1317 H 0.66404 0.37033 0.70512
 H1318 H 0.68297 0.39036 0.64693
 H1319 H 0.72941 0.46606 0.69075
 H1320 H 0.70755 0.44777 0.74833
 C1321 C 0.69180 -0.09016 0.19058
 C1322 C 0.69633 -0.09505 0.17073
 C1323 C 0.68715 -0.11118 0.16174
 C1324 C 0.67361 -0.12282 0.17250
 C1325 C 0.66939 -0.11743 0.19257
 C1326 C 0.67831 -0.10117 0.20156
 C1327 C 0.70151 -0.07328 0.20014
 C1328 C 0.69694 -0.06841 0.22002
 C1329 C 0.70630 -0.05246 0.22910
 C1330 C 0.72037 -0.04158 0.21854
 C1331 C 0.72478 -0.04667 0.19859
 C1332 C 0.71530 -0.06246 0.18928
 C1333 C 0.67415 -0.09586 0.22145
 C1334 C 0.68325 -0.07971 0.23050
 C1335 C 0.71000 -0.08370 0.16023
 C1336 C 0.71938 -0.06774 0.16937
 H1337 H 0.66376 -0.10425 0.23011
 H1338 H 0.67963 -0.07613 0.24587
 H1339 H 0.71362 -0.08728 0.14486
 H1340 H 0.72994 -0.05949 0.16078
 H1341 H 0.69025 -0.11412 0.14614
 H1342 H 0.65985 -0.12626 0.20175
 H1343 H 0.70289 -0.04876 0.24450
 H1344 H 0.73552 -0.03835 0.19031
 C1345 C 0.19150 0.40958 0.18943
 C1346 C 0.20272 0.39574 0.17896
 C1347 C 0.19354 0.37951 0.17029
 C1348 C 0.17314 0.37720 0.17150
 C1349 C 0.16206 0.39150 0.18179
 C1350 C 0.17121 0.40757 0.19101
 C1351 C 0.20123 0.42637 0.19911
 C1352 C 0.19014 0.43987 0.21022
 C1353 C 0.19959 0.45552 0.21986
 C1354 C 0.21989 0.45789 0.21795
 C1355 C 0.23069 0.44440 0.20645
 C1356 C 0.22149 0.42846 0.19723
 C1357 C 0.16054 0.42157 0.20195
 C1358 C 0.16986 0.43737 0.21150
 C1359 C 0.22297 0.39828 0.17752
 C1360 C 0.23218 0.41444 0.18639
 H1361 H 0.14488 0.42021 0.20332
 H1362 H 0.16110 0.44771 0.21995
 H1363 H 0.23178 0.38770 0.16944
 H1364 H 0.24783 0.41588 0.18490
 H1365 H 0.20240 0.36848 0.16294
 H1366 H 0.14636 0.39020 0.18264
 H1367 H 0.19121 0.46593 0.22864
 H1368 H 0.24635 0.44602 0.20513
 C1369 C 0.19180 -0.09041 0.68819
 C1370 C 0.17151 -0.09235 0.68981
 C1371 C 0.16225 -0.10820 0.68034
 C1372 C 0.17323 -0.12238 0.66978
 C1373 C 0.19362 -0.12012 0.66846
 C1374 C 0.20292 -0.10410 0.67741
 C1375 C 0.20165 -0.07390 0.69823
 C1376 C 0.22192 -0.07191 0.69640
 C1377 C 0.23125 -0.05628 0.70603
 C1378 C 0.22053 -0.04300 0.71787
 C1379 C 0.20022 -0.04524 0.71968
 C1380 C 0.19065 -0.06059 0.70968
 C1381 C 0.22318 -0.10165 0.67597
 C1382 C 0.23251 -0.08575 0.68520
 C1383 C 0.16094 -0.07851 0.70107
 C1384 C 0.17036 -0.06297 0.71093
 H1385 H 0.23191 -0.11211 0.66765
 H1386 H 0.24817 -0.08438 0.68373
 H1387 H 0.14527 -0.07982 0.70245
 H1388 H 0.16169 -0.05276 0.71963
 H1389 H 0.14655 -0.10947 0.68126
 H1390 H 0.20239 -0.13107 0.66087
 H1391 H 0.24691 -0.05475 0.70475
 H1392 H 0.19190 -0.03499 0.72871
 C1393 C 0.30528 0.30850 0.40907
 C1394 C 0.31645 0.29728 0.39567
 C1395 C 0.32549 0.30657 0.37947
 C1396 C 0.32382 0.32704 0.37677
 C1397 C 0.31265 0.33808 0.39051
 C1398 C 0.30321 0.32884 0.40657
 C1399 C 0.29545 0.29870 0.42594
 C1400 C 0.28385 0.30983 0.43905
 C1401 C 0.27419 0.30036 0.45481
 C1402 C 0.27636 0.27999 0.45767
 C1403 C 0.28830 0.26913 0.44457
 C1404 C 0.29771 0.27838 0.42853
 C1405 C 0.29169 0.33952 0.42017
 C1406 C 0.28210 0.33016 0.43607
 C1407 C 0.31830 0.27696 0.39870
 C1408 C 0.30917 0.26769 0.41491
 H1409 H 0.28997 0.35523 0.41842
 H1410 H 0.27324 0.33892 0.44611
 H1411 H 0.32691 0.26816 0.38847
 H1412 H 0.31099 0.25200 0.41672
 H1413 H 0.33361 0.29778 0.36882
 H1414 H 0.31141 0.35384 0.38882
 H1415 H 0.26508 0.30883 0.46490
 H1416 H 0.28991 0.25343 0.44657
 C1417 C 0.30633 0.80791 -0.08936
 C1418 C 0.31751 0.79659 -0.10265
 C1419 C 0.32659 0.80576 -0.11891
 C1420 C 0.32491 0.82621 -0.12179
 C1421 C 0.31384 0.83736 -0.10806
 C1422 C 0.30436 0.82826 -0.09196
 C1423 C 0.29631 0.79824 -0.07253
 C1424 C 0.28463 0.80947 -0.05959
 C1425 C 0.27467 0.80009 -0.04397
 C1426 C 0.27663 0.77971 -0.04107
 C1427 C 0.28872 0.76875 -0.05395
 C1428 C 0.29842 0.77791 -0.06986
 C1429 C 0.29281 0.83905 -0.07849
 C1430 C 0.28303 0.82980 -0.06264
 C1431 C 0.31924 0.77628 -0.09951
 C1432 C 0.30994 0.76711 -0.08333
 H1433 H 0.29116 0.85476 -0.08033
 H1434 H 0.27411 0.83864 -0.05273
 H1435 H 0.32786 0.76739 -0.10966
 H1436 H 0.31164 0.75141 -0.08146
 H1437 H 0.33469 0.79688 -0.12952
 H1438 H 0.31263 0.85311 -0.10986
 H1439 H 0.26547 0.80863 -0.03404
 H1440 H 0.29016 0.75304 -0.05191
 C1441 C 0.80552 0.30965 -0.09311
 C1442 C 0.82590 0.30843 -0.09437
 C1443 C 0.83551 0.31793 -0.11014
 C1444 C 0.82487 0.32824 -0.12487
 C1445 C 0.80437 0.32900 -0.12346
 C1446 C 0.79466 0.31997 -0.10750
 C1447 C 0.79535 0.29989 -0.07644
 C1448 C 0.77500 0.30146 -0.07497
 C1449 C 0.76541 0.29227 -0.05903
 C1450 C 0.77599 0.28117 -0.04493
 C1451 C 0.79636 0.27956 -0.04673
 C1452 C 0.80616 0.28911 -0.06235
 C1453 C 0.77430 0.32104 -0.10563
 C1454 C 0.76465 0.31205 -0.08957
 C1455 C 0.83624 0.29772 -0.07984
 C1456 C 0.82653 0.28812 -0.06417
 H1457 H 0.76576 0.32898 -0.11662
 H1458 H 0.74894 0.31330 -0.08864
 H1459 H 0.85197 0.29665 -0.08066
 H1460 H 0.83504 0.27991 -0.05336
 H1461 H 0.85127 0.31742 -0.11081
 H1462 H 0.79589 0.33642 -0.13488
 H1463 H 0.74970 0.29338 -0.05782
 H1464 H 0.80456 0.27110 -0.03584
 C1465 C 0.80486 0.81057 0.40949
 C1466 C 0.82514 0.80883 0.40745
 C1467 C 0.83448 0.81841 0.39154
 C1468 C 0.82361 0.82937 0.37747
 C1469 C 0.80321 0.83072 0.37974
 C1470 C 0.79382 0.82156 0.39581
 C1471 C 0.79497 0.80060 0.42622
 C1472 C 0.77472 0.80261 0.42839
 C1473 C 0.76537 0.79315 0.44431
 C1474 C 0.77607 0.78138 0.45774
 C1475 C 0.79635 0.77939 0.45528
 C1476 C 0.80592 0.78916 0.43963
 C1477 C 0.77356 0.82312 0.39840
 C1478 C 0.76419 0.81389 0.41448
 C1479 C 0.83565 0.79746 0.42132
 C1480 C 0.82620 0.78770 0.43707
 H1481 H 0.76489 0.83159 0.38794
 H1482 H 0.74855 0.81550 0.41597
 H1483 H 0.85131 0.79597 0.41991
 H1484 H 0.83483 0.77898 0.44734
 H1485 H 0.85018 0.81743 0.39021
 H1486 H 0.79455 0.83868 0.36885
 H1487 H 0.74973 0.79459 0.44601
 H1488 H 0.80467 0.77043 0.46563
 C1489 C 0.69660 0.30415 0.59333
 C1490 C 0.70746 0.31460 0.60759
 C1491 C 0.69778 0.32365 0.62362
 C1492 C 0.67731 0.32271 0.62525
 C1493 C 0.66667 0.31230 0.61062
 C1494 C 0.67625 0.30283 0.59477
 C1495 C 0.70673 0.29433 0.57661
 C1496 C 0.69591 0.28344 0.56266
 C1497 C 0.70568 0.27375 0.54706
 C1498 C 0.72605 0.27525 0.54517
 C1499 C 0.73663 0.28653 0.55908
 C1500 C 0.72706 0.29591 0.57499
 C1501 C 0.66589 0.29203 0.58036
 C1502 C 0.67557 0.28240 0.56464
 C1503 C 0.72780 0.31574 0.60554
 C1504 C 0.73742 0.30665 0.58945
 H1505 H 0.65018 0.29088 0.58132
 H1506 H 0.66705 0.27409 0.55393
 H1507 H 0.73635 0.32378 0.61642
 H1508 H 0.75312 0.30793 0.58841
 H1509 H 0.70625 0.33122 0.63492
 H1510 H 0.65092 0.31170 0.61142
 H1511 H 0.69744 0.26516 0.53634
 H1512 H 0.75234 0.28758 0.55780
 C1513 C 0.69422 0.80394 1.09045
 C1514 C 0.68391 0.79297 1.10469
 C1515 C 0.67467 0.80271 1.12057
 C1516 C 0.67525 0.82336 1.12205
 C1517 C 0.68552 0.83410 1.10742
 C1518 C 0.69521 0.82446 1.09175
 C1519 C 0.70427 0.79374 1.07391
 C1520 C 0.71506 0.80467 1.05999
 C1521 C 0.72492 0.79483 1.04455
 C1522 C 0.72364 0.77430 1.04275
 C1523 C 0.71249 0.76360 1.05663
 C1524 C 0.70298 0.77323 1.07242
 C1525 C 0.70592 0.83493 1.07738
 C1526 C 0.71578 0.82518 1.06184
 C1527 C 0.68309 0.77246 1.10278
 C1528 C 0.69236 0.76277 1.08685
 H1529 H 0.70681 0.85077 1.07823
 H1530 H 0.72399 0.83379 1.05116
 H1531 H 0.67516 0.76382 1.11366
 H1532 H 0.69132 0.74694 1.08589
 H1533 H 0.66726 0.79415 1.13189
 H1534 H 0.68588 0.84998 1.10814
 H1535 H 0.73341 0.80313 1.03382
 H1536 H 0.71163 0.74777 1.05542
 C1537 C 0.19406 0.30448 1.08887
 C1538 C 0.20478 0.31578 1.10254
 C1539 C 0.19509 0.32498 1.11844
 C1540 C 0.17470 0.32335 1.12058
 C1541 C 0.16416 0.31209 1.10654
 C1542 C 0.17380 0.30247 1.09078
 C1543 C 0.20429 0.29443 1.07236
 C1544 C 0.19368 0.28266 1.05898
 C1545 C 0.20358 0.27280 1.04355
 C1546 C 0.22386 0.27499 1.04128
 C1547 C 0.23420 0.28709 1.05466
 C1548 C 0.22452 0.29666 1.07036
 C1549 C 0.16363 0.29078 1.07694
 C1550 C 0.17341 0.28096 1.06138
 C1551 C 0.22502 0.31758 1.10011
 C1552 C 0.23472 0.30827 1.08422
 H1553 H 0.14799 0.28909 1.07823
 H1554 H 0.16503 0.27198 1.05114
 H1555 H 0.23345 0.32629 1.11056
 H1556 H 0.25034 0.31005 1.08287
 H1557 H 0.20353 0.33314 1.12933
 H1558 H 0.14847 0.31086 1.10780
 H1559 H 0.19553 0.26357 1.03324
 H1560 H 0.24983 0.28871 1.05313
 C1561 C 0.19314 0.80522 0.58655
 C1562 C 0.17289 0.80327 0.58863
 C1563 C 0.16341 0.81294 0.60446
 C1564 C 0.17412 0.82418 0.61840
 C1565 C 0.19448 0.82577 0.61606
 C1566 C 0.20401 0.81652 0.60009
 C1567 C 0.20321 0.79506 0.56999
 C1568 C 0.22343 0.79722 0.56785
 C1569 C 0.23296 0.78754 0.55214
 C1570 C 0.22250 0.77542 0.53888
 C1571 C 0.20223 0.77330 0.54129
 C1572 C 0.19246 0.78327 0.55675
 C1573 C 0.22423 0.81824 0.59750
 C1574 C 0.23377 0.80884 0.58158
 C1575 C 0.16258 0.79157 0.57491
 C1576 C 0.17221 0.78166 0.55931
 H1577 H 0.23277 0.82696 0.60785
 H1578 H 0.24939 0.81056 0.58009
 H1579 H 0.14695 0.78992 0.57635
 H1580 H 0.16373 0.77267 0.54917
 H1581 H 0.14774 0.81175 0.60589
 H1582 H 0.20303 0.83391 0.62687
 H1583 H 0.24859 0.78910 0.55051
 H1584 H 0.19409 0.76405 0.53108
 C1585 C 0.30681 0.69180 0.59120
 C1586 C 0.29556 0.68169 0.60536
 C1587 C 0.30478 0.67317 0.62198
 C1588 C 0.32518 0.67429 0.62432
 C1589 C 0.33621 0.68437 0.60977
 C1590 C 0.32708 0.69332 0.59333
 C1591 C 0.29715 0.70105 0.57384
 C1592 C 0.30833 0.71162 0.55996
 C1593 C 0.29901 0.72075 0.54373
 C1594 C 0.27872 0.71899 0.54113
 C1595 C 0.26779 0.70805 0.55501
 C1596 C 0.27690 0.69925 0.57154
 C1597 C 0.33782 0.70379 0.57898
 C1598 C 0.32859 0.71288 0.56265
 C1599 C 0.27531 0.68033 0.60261
 C1600 C 0.26616 0.68886 0.58593
 H1601 H 0.35349 0.70508 0.58046
 H1602 H 0.33740 0.72094 0.55202
 H1603 H 0.26647 0.67254 0.61341
 H1604 H 0.25051 0.68742 0.58436
 H1605 H 0.29598 0.66588 0.63318
 H1606 H 0.35192 0.68510 0.61109
 H1607 H 0.30751 0.72909 0.53305
 H1608 H 0.25215 0.70680 0.55322
 C1609 C 0.31013 0.19078 1.09154
 C1610 C 0.29909 0.18064 1.10582
 C1611 C 0.30851 0.17219 1.12231
 C1612 C 0.32894 0.17339 1.12446
 C1613 C 0.33982 0.18336 1.10973
 C1614 C 0.33045 0.19230 1.09337
 C1615 C 0.30017 0.20023 1.07448
 C1616 C 0.31110 0.21098 1.06054
 C1617 C 0.30145 0.22039 1.04466
 C1618 C 0.28110 0.21872 1.04250
 C1619 C 0.27044 0.20757 1.05642
 C1620 C 0.27987 0.19851 1.07258
 C1621 C 0.34094 0.20288 1.07892
 C1622 C 0.33142 0.21216 1.06285
 C1623 C 0.27880 0.17930 1.10345
 C1624 C 0.26936 0.18798 1.08704
 H1625 H 0.35662 0.20418 1.08014
 H1626 H 0.34004 0.22034 1.05216
 H1627 H 0.27013 0.17146 1.11437
 H1628 H 0.25369 0.18659 1.08577
 H1629 H 0.29982 0.16504 1.13368
 H1630 H 0.35553 0.18420 1.11093
 H1631 H 0.30974 0.22888 1.03393
 H1632 H 0.25476 0.20639 1.05495
 C1633 C 0.80871 0.68927 1.09238
 C1634 C 0.82892 0.69123 1.09485
 C1635 C 0.83807 0.68198 1.11113
 C1636 C 0.82707 0.67122 1.12518
 C1637 C 0.80675 0.66961 1.12245
 C1638 C 0.79755 0.67839 1.10600
 C1639 C 0.79899 0.69896 1.07534
 C1640 C 0.77881 0.69677 1.07279
 C1641 C 0.76961 0.70603 1.05662
 C1642 C 0.78036 0.71782 1.04334
 C1643 C 0.80058 0.71999 1.04616
 C1644 C 0.81002 0.71039 1.06205
 C1645 C 0.77738 0.67662 1.10300
 C1646 C 0.76818 0.68556 1.08660
 C1647 C 0.83953 0.70252 1.08105
 C1648 C 0.83022 0.71203 1.06501
 H1649 H 0.76862 0.66823 1.11340
 H1650 H 0.75259 0.68381 1.08481
 H1651 H 0.85513 0.70417 1.08278
 H1652 H 0.83891 0.72074 1.05483
 H1653 H 0.85372 0.68316 1.11282
 H1654 H 0.79796 0.66184 1.13331
 H1655 H 0.75401 0.70448 1.05465
 H1656 H 0.80892 0.72899 1.03592
 C1657 C 0.81011 0.18852 0.59431
 C1658 C 0.83037 0.19029 0.59655
 C1659 C 0.83959 0.18105 0.61278
 C1660 C 0.82864 0.17044 0.62697
 C1661 C 0.80827 0.16901 0.62448
 C1662 C 0.79899 0.17782 0.60810
 C1663 C 0.80031 0.19823 0.57733
 C1664 C 0.78008 0.19628 0.57501
 C1665 C 0.77081 0.20562 0.55892
 C1666 C 0.78156 0.21724 0.54549
 C1667 C 0.80184 0.21910 0.54805
 C1668 C 0.81133 0.20946 0.56386
 C1669 C 0.77876 0.17625 0.60533
 C1670 C 0.76948 0.18524 0.58899
 C1671 C 0.84095 0.20139 0.58258
 C1672 C 0.83158 0.21090 0.56658
 H1673 H 0.77003 0.16800 0.61586
 H1674 H 0.75385 0.18366 0.58740
 H1675 H 0.85659 0.20288 0.58413
 H1676 H 0.84026 0.21946 0.55626
 H1677 H 0.85527 0.18208 0.61430
 H1678 H 0.79955 0.16132 0.63546
 H1679 H 0.75517 0.20428 0.55715
 H1680 H 0.81021 0.22796 0.53770
 C1681 C 0.69119 0.69531 0.40971
 C1682 C 0.70228 0.68405 0.39629
 C1683 C 0.69297 0.67468 0.38028
 C1684 C 0.67260 0.67607 0.37780
 C1685 C 0.66167 0.68735 0.39156
 C1686 C 0.67093 0.69714 0.40743
 C1687 C 0.70101 0.70546 0.42640
 C1688 C 0.69003 0.71714 0.43958
 C1689 C 0.69955 0.72701 0.45525
 C1690 C 0.71980 0.72489 0.45793
 C1691 C 0.73050 0.71293 0.44469
 C1692 C 0.72123 0.70335 0.42878
 C1693 C 0.66039 0.70878 0.42106
 C1694 C 0.66978 0.71869 0.43679
 C1695 C 0.72250 0.68242 0.39908
 C1696 C 0.73180 0.69182 0.41513
 H1697 H 0.64475 0.71034 0.41947
 H1698 H 0.66112 0.72760 0.44688
 H1699 H 0.73121 0.67375 0.38882
 H1700 H 0.74742 0.69014 0.41679
 H1701 H 0.70168 0.66652 0.36960
 H1702 H 0.64599 0.68841 0.39001
 H1703 H 0.69122 0.73615 0.46544
 H1704 H 0.74613 0.71138 0.44652
 C1705 C 0.69071 0.19366 -0.09119
 C1706 C 0.69191 0.17312 -0.09200
 C1707 C 0.68250 0.16310 -0.10758
 C1708 C 0.67231 0.17348 -0.12259
 C1709 C 0.67150 0.19415 -0.12159
 C1710 C 0.68045 0.20427 -0.10581
 C1711 C 0.70047 0.20427 -0.07477
 C1712 C 0.69897 0.22480 -0.07377
 C1713 C 0.70825 0.23482 -0.05811
 C1714 C 0.71937 0.22447 -0.04387
 C1715 C 0.72084 0.20390 -0.04516
 C1716 C 0.71121 0.19370 -0.06047
 C1717 C 0.67941 0.22482 -0.10439
 C1718 C 0.68841 0.23490 -0.08857
 C1719 C 0.70256 0.16302 -0.07725
 C1720 C 0.71215 0.17315 -0.06182
 H1721 H 0.67151 0.23317 -0.11557
 H1722 H 0.68721 0.25074 -0.08800
 H1723 H 0.70361 0.14717 -0.07772
 H1724 H 0.72034 0.16482 -0.05085
 H1725 H 0.68301 0.14721 -0.10791
 H1726 H 0.66413 0.20242 -0.13319
 H1727 H 0.70725 0.25067 -0.05728
 H1728 H 0.72931 0.19588 -0.03415
 C1729 C 0.19125 0.69534 -0.09109
 C1730 C 0.19265 0.67484 -0.09251
 C1731 C 0.18394 0.66523 -0.10878
 C1732 C 0.17421 0.67597 -0.12385
 C1733 C 0.17322 0.69661 -0.12223
 C1734 C 0.18151 0.70632 -0.10578
 C1735 C 0.20029 0.70552 -0.07394
 C1736 C 0.19868 0.72601 -0.07237
 C1737 C 0.20742 0.73563 -0.05610
 C1738 C 0.21813 0.72491 -0.04180
 C1739 C 0.21960 0.70437 -0.04361
 C1740 C 0.21054 0.69458 -0.05956
 C1741 C 0.18028 0.72682 -0.10376
 C1742 C 0.18862 0.73648 -0.08728
 C1743 C 0.20276 0.66437 -0.07764
 C1744 C 0.21166 0.67408 -0.06151
 H1745 H 0.17276 0.73546 -0.11498
 H1746 H 0.18732 0.75229 -0.08629
 H1747 H 0.20395 0.64854 -0.07857
 H1748 H 0.21947 0.66547 -0.05047
 H1749 H 0.18459 0.64936 -0.10959
 H1750 H 0.16619 0.70518 -0.13384
 H1751 H 0.20642 0.75146 -0.05489
 H1752 H 0.22775 0.69604 -0.03259
 C1753 C 0.18856 0.19559 0.41110
 C1754 C 0.17757 0.20659 0.39738
 C1755 C 0.16874 0.19703 0.38118
 C1756 C 0.17047 0.17652 0.37879
 C1757 C 0.18136 0.16570 0.39292
 C1758 C 0.19060 0.17519 0.40897
 C1759 C 0.19834 0.20567 0.42786
 C1760 C 0.20987 0.19476 0.44121
 C1761 C 0.21965 0.20451 0.45673
 C1762 C 0.21770 0.22496 0.45911
 C1763 C 0.20572 0.23561 0.44586
 C1764 C 0.19620 0.22606 0.43004
 C1765 C 0.20198 0.16473 0.42286
 C1766 C 0.21153 0.17436 0.43864
 C1767 C 0.17577 0.22697 0.40004
 C1768 C 0.18484 0.23653 0.41616
 H1769 H 0.20367 0.14899 0.42140
 H1770 H 0.22033 0.16578 0.44889
 H1771 H 0.16729 0.23561 0.38956
 H1772 H 0.18311 0.25226 0.41764
 H1773 H 0.16081 0.20567 0.37024
 H1774 H 0.18262 0.14992 0.39149
 H1775 H 0.22878 0.19622 0.46695
 H1776 H 0.20430 0.25137 0.44751
 C1777 C 0.31098 0.40990 0.69561
 C1778 C 0.30986 0.40818 0.67470
 C1779 C 0.31900 0.39227 0.66523
 C1780 C 0.32886 0.37784 0.67653
 C1781 C 0.32972 0.37981 0.69756
 C1782 C 0.32096 0.39590 0.70714
 C1783 C 0.30135 0.42659 0.70564
 C1784 C 0.30262 0.42844 0.72656
 C1785 C 0.29327 0.44425 0.73603
 C1786 C 0.28233 0.45782 0.72476
 C1787 C 0.28121 0.45574 0.70381
 C1788 C 0.29085 0.44024 0.69414
 C1789 C 0.32188 0.39822 0.72805
 C1790 C 0.31295 0.41427 0.73758
 C1791 C 0.29951 0.42233 0.66367
 C1792 C 0.29007 0.43803 0.67324
 H1793 H 0.32957 0.38754 0.73712
 H1794 H 0.31400 0.41549 0.75372
 H1795 H 0.29855 0.42115 0.64751
 H1796 H 0.28208 0.44851 0.66420
 H1797 H 0.31851 0.39121 0.64904
 H1798 H 0.33689 0.36871 0.70654
 H1799 H 0.29403 0.44568 0.75219
 H1800 H 0.27289 0.46621 0.69504
 C1801 C 0.30764 0.91149 0.19680
 C1802 C 0.31758 0.89761 0.20850
 C1803 C 0.32612 0.88127 0.19915
 C1804 C 0.32509 0.87891 0.17816
 C1805 C 0.31525 0.89323 0.16668
 C1806 C 0.30633 0.90940 0.17593
 C1807 C 0.29824 0.92846 0.20660
 C1808 C 0.28779 0.94202 0.19494
 C1809 C 0.27837 0.95779 0.20440
 C1810 C 0.27964 0.96022 0.22531
 C1811 C 0.29055 0.94672 0.23673
 C1812 C 0.29968 0.93066 0.22746
 C1813 C 0.29603 0.92346 0.16473
 C1814 C 0.28683 0.93944 0.17408
 C1815 C 0.31868 0.90029 0.22935
 C1816 C 0.30997 0.91658 0.23865
 H1817 H 0.29492 0.92200 0.14860
 H1818 H 0.27886 0.94983 0.16491
 H1819 H 0.32634 0.88970 0.23856
 H1820 H 0.31115 0.91808 0.25477
 H1821 H 0.33329 0.87027 0.20828
 H1822 H 0.31461 0.89188 0.15052
 H1823 H 0.27007 0.96817 0.19551
 H1824 H 0.29143 0.94839 0.25285
 C1825 C 0.80765 0.41043 0.19530
 C1826 C 0.81808 0.39647 0.20647
 C1827 C 0.82706 0.38074 0.19651
 C1828 C 0.82601 0.37909 0.17546
 C1829 C 0.81569 0.39348 0.16453
 C1830 C 0.80631 0.40902 0.17438
 C1831 C 0.79783 0.42677 0.20574
 C1832 C 0.78694 0.44043 0.19461
 C1833 C 0.77724 0.45566 0.20466
 C1834 C 0.77872 0.45750 0.22562
 C1835 C 0.78998 0.44388 0.23650
 C1836 C 0.79938 0.42834 0.22665
 C1837 C 0.79553 0.42313 0.16373
 C1838 C 0.78591 0.43850 0.17369
 C1839 C 0.81922 0.39847 0.22739
 C1840 C 0.81012 0.41420 0.23730
 H1841 H 0.79437 0.42219 0.14757
 H1842 H 0.77762 0.44897 0.16492
 H1843 H 0.82725 0.38782 0.23618
 H1844 H 0.81139 0.41521 0.25344
 H1845 H 0.83458 0.36966 0.20521
 H1846 H 0.81502 0.39266 0.14833
 H1847 H 0.76868 0.46616 0.19619
 H1848 H 0.79103 0.44511 0.25265
 C1849 C 0.81086 0.90986 0.69606
 C1850 C 0.82106 0.89579 0.70731
 C1851 C 0.83004 0.88003 0.69739
 C1852 C 0.82917 0.87847 0.67633
 C1853 C 0.81910 0.89296 0.66533
 C1854 C 0.80975 0.90853 0.67512
 C1855 C 0.80099 0.92619 0.70644
 C1856 C 0.79028 0.93991 0.69523
 C1857 C 0.78044 0.95507 0.70521
 C1858 C 0.78155 0.95674 0.72620
 C1859 C 0.79268 0.94311 0.73719
 C1860 C 0.80225 0.92763 0.72739
 C1861 C 0.79918 0.92274 0.66438
 C1862 C 0.78952 0.93811 0.67428
 C1863 C 0.82196 0.89770 0.72825
 C1864 C 0.81280 0.91341 0.73811
 H1865 H 0.79822 0.92187 0.64821
 H1866 H 0.78136 0.94864 0.66547
 H1867 H 0.82982 0.88696 0.73709
 H1868 H 0.81384 0.91433 0.75428
 H1869 H 0.83738 0.86886 0.70614
 H1870 H 0.81859 0.89218 0.64912
 H1871 H 0.77197 0.96559 0.69667
 H1872 H 0.79344 0.94424 0.75337
 C1873 C 0.68960 0.59006 0.69195
 C1874 C 0.69148 0.59292 0.67122
 C1875 C 0.68202 0.60892 0.66222
 C1876 C 0.67110 0.62228 0.67386
 C1877 C 0.66950 0.61914 0.69469
 C1878 C 0.67855 0.60298 0.70375
 C1879 C 0.69962 0.57336 0.70153
 C1880 C 0.69761 0.57046 0.72225
 C1881 C 0.70730 0.55469 0.73133
 C1882 C 0.71930 0.54215 0.71994
 C1883 C 0.72118 0.54527 0.69917
 C1884 C 0.71121 0.56078 0.68986
 C1885 C 0.67691 0.59961 0.72444
 C1886 C 0.68620 0.58356 0.73352
 C1887 C 0.70292 0.57981 0.65997
 C1888 C 0.71271 0.56408 0.66914
 H1889 H 0.66838 0.60947 0.73370
 H1890 H 0.68458 0.58149 0.74952
 H1891 H 0.70450 0.58185 0.64396
 H1892 H 0.72155 0.55445 0.65995
 H1893 H 0.68317 0.61093 0.64617
 H1894 H 0.66155 0.62946 0.70396
 H1895 H 0.70594 0.55249 0.74735
 H1896 H 0.73033 0.53562 0.69031
 C1897 C 0.69044 0.09018 0.18786
 C1898 C 0.67017 0.09219 0.18981
 C1899 C 0.66081 0.10841 0.18104
 C1900 C 0.67166 0.12283 0.17082
 C1901 C 0.69205 0.12049 0.16919
 C1902 C 0.70145 0.10413 0.17744
 C1903 C 0.70042 0.07333 0.19723
 C1904 C 0.72069 0.07131 0.19517
 C1905 C 0.73015 0.05547 0.20439
 C1906 C 0.71958 0.04203 0.21607
 C1907 C 0.69924 0.04423 0.21797
 C1908 C 0.68955 0.05978 0.20840
 C1909 C 0.72170 0.10161 0.17568
 C1910 C 0.73114 0.08541 0.18430
 C1911 C 0.65973 0.07808 0.20071
 C1912 C 0.66927 0.06222 0.20996
 H1913 H 0.73033 0.11228 0.16762
 H1914 H 0.74678 0.08404 0.18264
 H1915 H 0.64408 0.07944 0.20235
 H1916 H 0.66070 0.05183 0.21846
 H1917 H 0.64513 0.10977 0.18223
 H1918 H 0.70076 0.13162 0.16190
 H1919 H 0.74583 0.05398 0.20305
 H1920 H 0.69102 0.03388 0.22690
 C1921 C 0.18943 0.59079 0.19232
 C1922 C 0.19102 0.59394 0.17162
 C1923 C 0.18144 0.61008 0.16299
 C1924 C 0.17068 0.62329 0.17499
 C1925 C 0.16942 0.61988 0.19579
 C1926 C 0.17858 0.60358 0.20448
 C1927 C 0.19948 0.57388 0.20150
 C1928 C 0.19768 0.57065 0.22217
 C1929 C 0.20728 0.55461 0.23085
 C1930 C 0.21898 0.54209 0.21910
 C1931 C 0.22074 0.54559 0.19839
 C1932 C 0.21083 0.56138 0.18947
 C1933 C 0.17720 0.59990 0.22513
 C1934 C 0.18651 0.58365 0.23381
 C1935 C 0.20226 0.58095 0.16000
 C1936 C 0.21208 0.56502 0.16879
 H1937 H 0.16884 0.60966 0.23466
 H1938 H 0.18506 0.58133 0.24979
 H1939 H 0.20362 0.58322 0.14401
 H1940 H 0.22073 0.55547 0.15931
 H1941 H 0.18232 0.61227 0.14695
 H1942 H 0.16161 0.63007 0.20533
 H1943 H 0.20602 0.55215 0.24684
 H1944 H 0.22967 0.53597 0.18926
 C1945 C 0.19175 0.08974 0.69254
 C1946 C 0.18084 0.10261 0.70455
 C1947 C 0.17185 0.11891 0.69572
 C1948 C 0.17329 0.12223 0.67492
 C1949 C 0.18416 0.10899 0.66307
 C1950 C 0.19359 0.09283 0.67185
 C1951 C 0.20156 0.07278 0.70187
 C1952 C 0.21295 0.06018 0.68999
 C1953 C 0.22260 0.04430 0.69906
 C1954 C 0.22053 0.04085 0.71975
 C1955 C 0.20882 0.05349 0.73133
 C1956 C 0.19948 0.06960 0.72252
 C1957 C 0.20488 0.07976 0.66040
 C1958 C 0.21448 0.06377 0.66933
 C1959 C 0.17920 0.09900 0.72519
 C1960 C 0.18828 0.08270 0.73401
 H1961 H 0.20643 0.08198 0.64441
 H1962 H 0.22317 0.05414 0.65998
 H1963 H 0.17079 0.10882 0.73459
 H1964 H 0.18663 0.08041 0.74997
 H1965 H 0.16397 0.12915 0.70515
 H1966 H 0.18522 0.11115 0.64703
 H1967 H 0.23155 0.03458 0.69006
 H1968 H 0.20734 0.05105 0.74731
 C1969 C 0.30672 0.59021 0.30111
 C1970 C 0.29592 0.60425 0.31179
 C1971 C 0.30560 0.62019 0.32052
 C1972 C 0.32605 0.62192 0.31919
 C1973 C 0.33662 0.60760 0.30840
 C1974 C 0.32701 0.59184 0.29918
 C1975 C 0.29657 0.57348 0.29178
 C1976 C 0.30729 0.55969 0.28064
 C1977 C 0.29749 0.54402 0.27147
 C1978 C 0.27721 0.54189 0.27380
 C1979 C 0.26676 0.55567 0.28530
 C1980 C 0.27633 0.57165 0.29410
 C1981 C 0.33727 0.57763 0.28812
 C1982 C 0.32757 0.56190 0.27890
 C1983 C 0.27565 0.60203 0.31359
 C1984 C 0.26604 0.58594 0.30501
 H1985 H 0.35293 0.57872 0.28649
 H1986 H 0.33602 0.55134 0.27040
 H1987 H 0.26716 0.61276 0.32182
 H1988 H 0.25041 0.58473 0.30683
 H1989 H 0.29712 0.63127 0.32826
 H1990 H 0.35235 0.60852 0.30743
 H1991 H 0.30561 0.53342 0.26267
 H1992 H 0.25112 0.55423 0.28694
 C1993 C 0.30663 0.08806 0.80367
 C1994 C 0.32691 0.08980 0.80182
 C1995 C 0.33639 0.10563 0.81103
 C1996 C 0.32570 0.11994 0.82169
 C1997 C 0.30526 0.11806 0.82305
 C1998 C 0.29571 0.10204 0.81431
 C1999 C 0.29660 0.07133 0.79422
 C2000 C 0.27635 0.06943 0.79639
 C2001 C 0.26688 0.05350 0.78737
 C2002 C 0.27745 0.03986 0.77583
 C2003 C 0.29774 0.04203 0.77370
 C2004 C 0.30743 0.05764 0.78307
 C2005 C 0.27545 0.09972 0.81601
 C2006 C 0.26594 0.08362 0.80730
 C2007 C 0.33730 0.07566 0.79079
 C2008 C 0.32771 0.05992 0.78147
 H2009 H 0.26687 0.11040 0.82421
 H2010 H 0.25030 0.08236 0.80902
 H2011 H 0.35296 0.07683 0.78923
 H2012 H 0.33625 0.04944 0.77297
 H2013 H 0.35211 0.10665 0.81007
 H2014 H 0.29671 0.12911 0.83072
 H2015 H 0.25123 0.05203 0.78886
 H2016 H 0.30595 0.03152 0.76487
 C2017 C 0.80867 0.58965 0.80379
 C2018 C 0.82899 0.59114 0.80201
 C2019 C 0.83869 0.60661 0.81168
 C2020 C 0.82813 0.62077 0.82269
 C2021 C 0.80769 0.61903 0.82404
 C2022 C 0.79795 0.60342 0.81488
 C2023 C 0.79836 0.57345 0.79371
 C2024 C 0.77808 0.57185 0.79581
 C2025 C 0.76835 0.55639 0.78635
 C2026 C 0.77867 0.54284 0.77447
 C2027 C 0.79899 0.54476 0.77227
 C2028 C 0.80896 0.55995 0.78209
 C2029 C 0.77765 0.60142 0.81648
 C2030 C 0.76789 0.58582 0.80721
 C2031 C 0.83914 0.57720 0.79048
 C2032 C 0.82928 0.56194 0.78059
 H2033 H 0.76924 0.61197 0.82504
 H2034 H 0.75223 0.58476 0.80888
 H2035 H 0.85481 0.57818 0.78894
 H2036 H 0.83765 0.55160 0.77175
 H2037 H 0.85440 0.60756 0.81065
 H2038 H 0.79922 0.63003 0.83192
 H2039 H 0.75269 0.55509 0.78793
 H2040 H 0.80700 0.53429 0.76321
 C2041 C 0.80545 0.09195 0.30200
 C2042 C 0.82561 0.09422 0.29942
 C2043 C 0.83510 0.10998 0.30881
 C2044 C 0.82448 0.12358 0.32047
 C2045 C 0.80417 0.12114 0.32256
 C2046 C 0.79465 0.10526 0.31358
 C2047 C 0.79541 0.07533 0.29233
 C2048 C 0.77529 0.07293 0.29518
 C2049 C 0.76582 0.05710 0.28601
 C2050 C 0.77625 0.04398 0.27372
 C2051 C 0.79642 0.04666 0.27092
 C2052 C 0.80611 0.06224 0.28036
 C2053 C 0.77451 0.10246 0.31595
 C2054 C 0.76501 0.08651 0.30699
 C2055 C 0.83586 0.08069 0.28750
 C2056 C 0.82627 0.06503 0.27805
 H2057 H 0.76603 0.11265 0.32488
 H2058 H 0.74947 0.08485 0.30925
 H2059 H 0.85143 0.08227 0.28537
 H2060 H 0.83470 0.05500 0.26890
 H2061 H 0.85072 0.11151 0.30722
 H2062 H 0.79569 0.13169 0.33103
 H2063 H 0.75027 0.05523 0.28808
 H2064 H 0.80455 0.03656 0.26155
 C2065 C 0.69267 0.40961 0.31165
 C2066 C 0.68152 0.39655 0.30015
 C2067 C 0.67268 0.38052 0.30953
 C2068 C 0.67458 0.37763 0.33037
 C2069 C 0.68564 0.39108 0.34171
 C2070 C 0.69488 0.40698 0.33238
 C2071 C 0.70241 0.42622 0.30173
 C2072 C 0.71405 0.43897 0.31311
 C2073 C 0.72367 0.45446 0.30348
 C2074 C 0.72143 0.45737 0.28272
 C2075 C 0.70944 0.44461 0.27163
 C2076 C 0.70007 0.42889 0.28102
 C2077 C 0.70639 0.42023 0.34332
 C2078 C 0.71589 0.43590 0.33383
 C2079 C 0.67956 0.39968 0.27945
 C2080 C 0.68860 0.41564 0.27006
 H2081 H 0.70821 0.41837 0.35933
 H2082 H 0.72477 0.44566 0.34280
 H2083 H 0.67096 0.38971 0.27043
 H2084 H 0.68672 0.41753 0.25406
 H2085 H 0.66463 0.37011 0.30050
 H2086 H 0.68704 0.38923 0.35776
 H2087 H 0.73282 0.46427 0.31212
 H2088 H 0.70778 0.44664 0.25561
 C2089 C 0.69232 0.90835 0.80942
 C2090 C 0.68130 0.89545 0.79762
 C2091 C 0.67214 0.87943 0.80672
 C2092 C 0.67365 0.87641 0.82757
 C2093 C 0.68455 0.88974 0.83921
 C2094 C 0.69407 0.90561 0.83018
 C2095 C 0.70242 0.92491 0.79981
 C2096 C 0.71393 0.93750 0.81151
 C2097 C 0.72390 0.95293 0.80220
 C2098 C 0.72214 0.95595 0.78141
 C2099 C 0.71027 0.94338 0.76997
 C2100 C 0.70054 0.92771 0.77907
 C2101 C 0.70546 0.91870 0.84145
 C2102 C 0.71530 0.93432 0.83226
 C2103 C 0.67979 0.89870 0.77690
 C2104 C 0.68918 0.91462 0.76779
 H2105 H 0.70694 0.91674 0.85748
 H2106 H 0.72408 0.94396 0.84147
 H2107 H 0.67129 0.88885 0.76764
 H2108 H 0.68765 0.91660 0.75176
 H2109 H 0.66418 0.86913 0.79748
 H2110 H 0.68561 0.88780 0.85528
 H2111 H 0.73294 0.96261 0.81110
 H2112 H 0.70897 0.94552 0.75394
 C2113 C 0.19399 0.40965 0.80697
 C2114 C 0.18302 0.39671 0.79515
 C2115 C 0.17426 0.38042 0.80417
 C2116 C 0.17608 0.37715 0.82496
 C2117 C 0.18695 0.39050 0.83662
 C2118 C 0.19609 0.40665 0.82766
 C2119 C 0.20365 0.42653 0.79745
 C2120 C 0.21513 0.43914 0.80916
 C2121 C 0.22478 0.45482 0.79990
 C2122 C 0.22275 0.45806 0.77917
 C2123 C 0.21085 0.44550 0.76774
 C2124 C 0.20145 0.42958 0.77677
 C2125 C 0.20742 0.41978 0.83894
 C2126 C 0.21685 0.43570 0.82983
 C2127 C 0.18116 0.40023 0.77451
 C2128 C 0.19014 0.41644 0.76549
 H2129 H 0.20916 0.41764 0.85492
 H2130 H 0.22561 0.44535 0.83904
 H2131 H 0.17270 0.39037 0.76523
 H2132 H 0.18836 0.41861 0.74951
 H2133 H 0.16633 0.37012 0.79490
 H2134 H 0.18826 0.38838 0.85264
 H2135 H 0.23385 0.46447 0.80880
 H2136 H 0.20936 0.44779 0.75175
 C2137 C 0.19162 0.91153 0.30661
 C2138 C 0.19379 0.90824 0.32724
 C2139 C 0.18473 0.89192 0.33598
 C2140 C 0.17387 0.87870 0.32416
 C2141 C 0.17197 0.88227 0.30343
 C2142 C 0.18066 0.89872 0.29463
 C2143 C 0.20123 0.92857 0.29731
 C2144 C 0.19899 0.93188 0.27668
 C2145 C 0.20836 0.94794 0.26785
 C2146 C 0.22025 0.96038 0.27942
 C2147 C 0.22230 0.95687 0.30011
 C2148 C 0.21269 0.94105 0.30916
 C2149 C 0.17875 0.90252 0.27404
 C2150 C 0.18769 0.91887 0.26523
 C2151 C 0.20510 0.92125 0.33869
 C2152 C 0.21447 0.93732 0.32979
 H2153 H 0.17030 0.89276 0.26464
 H2154 H 0.18588 0.92125 0.24929
 H2155 H 0.20688 0.91889 0.35463
 H2156 H 0.22322 0.94687 0.33912
 H2157 H 0.18610 0.88958 0.35197
 H2158 H 0.16403 0.87208 0.29403
 H2159 H 0.20685 0.95042 0.25189
 H2160 H 0.23137 0.96642 0.30914
 C2161 C 0.41357 0.30718 0.69031
 C2162 C 0.41197 0.32763 0.69217
 C2163 C 0.39625 0.33736 0.68301
 C2164 C 0.38191 0.32669 0.67250
 C2165 C 0.38381 0.30611 0.67097
 C2166 C 0.39967 0.29635 0.67960
 C2167 C 0.42992 0.29683 0.70003
 C2168 C 0.43154 0.27639 0.69798
 C2169 C 0.44698 0.26658 0.70737
 C2170 C 0.46044 0.27698 0.71918
 C2171 C 0.45860 0.29748 0.72117
 C2172 C 0.44344 0.30752 0.71141
 C2173 C 0.40177 0.27591 0.67793
 C2174 C 0.41751 0.26611 0.68686
 C2175 C 0.42601 0.33789 0.70335
 C2176 C 0.44140 0.32799 0.71291
 H2177 H 0.39114 0.26741 0.66966
 H2178 H 0.41859 0.25032 0.68522
 H2179 H 0.42496 0.35368 0.70492
 H2180 H 0.45177 0.33643 0.72158
 H2181 H 0.39521 0.35318 0.68413
 H2182 H 0.37271 0.29755 0.66347
 H2183 H 0.44821 0.25078 0.70596
 H2184 H 0.46899 0.30556 0.73019
 C2185 C 0.41044 0.80852 0.19147
 C2186 C 0.40865 0.82897 0.19322
 C2187 C 0.39256 0.83845 0.18446
 C2188 C 0.37807 0.82754 0.17442
 C2189 C 0.38014 0.80697 0.17307
 C2190 C 0.39636 0.79745 0.18130
 C2191 C 0.42724 0.79844 0.20068
 C2192 C 0.42908 0.77801 0.19870
 C2193 C 0.44499 0.76847 0.20758
 C2194 C 0.45870 0.77914 0.21884
 C2195 C 0.45661 0.79962 0.22077
 C2196 C 0.44098 0.80939 0.21151
 C2197 C 0.39867 0.77702 0.17970
 C2198 C 0.41483 0.76748 0.18815
 C2199 C 0.42290 0.83948 0.20385
 C2200 C 0.43872 0.82984 0.21295
 H2201 H 0.38790 0.76833 0.17184
 H2202 H 0.41606 0.75170 0.18657
 H2203 H 0.42171 0.85526 0.20534
 H2204 H 0.44926 0.83848 0.22119
 H2205 H 0.39140 0.85427 0.18545
 H2206 H 0.36895 0.79823 0.16593
 H2207 H 0.44641 0.75268 0.20623
 H2208 H 0.46717 0.80791 0.22936
 C2209 C 0.91208 0.30987 0.18760
 C2210 C 0.89833 0.29889 0.17687
 C2211 C 0.88225 0.30846 0.16839
 C2212 C 0.87999 0.32899 0.17013
 C2213 C 0.89423 0.33982 0.18062
 C2214 C 0.91016 0.33029 0.18961
 C2215 C 0.92859 0.29971 0.19727
 C2216 C 0.94192 0.31055 0.20874
 C2217 C 0.95712 0.30068 0.21860
 C2218 C 0.95919 0.28019 0.21671
 C2219 C 0.94598 0.26964 0.20472
 C2220 C 0.93049 0.27929 0.19520
 C2221 C 0.92406 0.34070 0.20081
 C2222 C 0.93960 0.33099 0.21032
 C2223 C 0.90074 0.27849 0.17509
 C2224 C 0.91662 0.26887 0.18399
 H2225 H 0.92277 0.35646 0.20249
 H2226 H 0.94983 0.33954 0.21905
 H2227 H 0.89023 0.26987 0.16679
 H2228 H 0.91790 0.25311 0.18232
 H2229 H 0.87126 0.29978 0.16087
 H2230 H 0.89292 0.35561 0.18190
 H2231 H 0.96730 0.30889 0.22775
 H2232 H 0.94737 0.25385 0.20338
 C2233 C 0.91438 0.80865 0.68939
 C2234 C 0.91265 0.82909 0.69129
 C2235 C 0.89695 0.83875 0.68204
 C2236 C 0.88272 0.82802 0.67141
 C2237 C 0.88479 0.80747 0.66978
 C2238 C 0.90065 0.79778 0.67851
 C2239 C 0.93069 0.79837 0.69925
 C2240 C 0.93244 0.77795 0.69716
 C2241 C 0.94786 0.76821 0.70665
 C2242 C 0.96118 0.77865 0.71860
 C2243 C 0.95919 0.79912 0.72068
 C2244 C 0.94405 0.80911 0.71082
 C2245 C 0.90287 0.77736 0.67680
 C2246 C 0.91858 0.76762 0.68586
 C2247 C 0.92652 0.83940 0.70265
 C2248 C 0.94188 0.82956 0.71235
 H2249 H 0.89237 0.76882 0.66840
 H2250 H 0.91977 0.75185 0.68419
 H2251 H 0.92537 0.85517 0.70426
 H2252 H 0.95212 0.83804 0.72114
 H2253 H 0.89579 0.85456 0.68323
 H2254 H 0.87379 0.79886 0.66217
 H2255 H 0.94920 0.75242 0.70517
 H2256 H 0.96947 0.80722 0.72981
 C2257 C 0.58983 0.30928 0.31214
 C2258 C 0.59209 0.30743 0.33295
 C2259 C 0.60798 0.31653 0.34239
 C2260 C 0.62182 0.32705 0.33107
 C2261 C 0.61924 0.32861 0.31015
 C2262 C 0.60322 0.31996 0.30067
 C2263 C 0.57329 0.29961 0.30209
 C2264 C 0.57102 0.30160 0.28128
 C2265 C 0.55540 0.29226 0.27176
 C2266 C 0.54237 0.28060 0.28280
 C2267 C 0.54487 0.27869 0.30366
 C2268 C 0.56024 0.28834 0.31342
 C2269 C 0.60047 0.32160 0.27988
 C2270 C 0.58458 0.31267 0.27037
 C2271 C 0.57852 0.29633 0.34385
 C2272 C 0.56293 0.28685 0.33424
 H2273 H 0.61071 0.32984 0.27088
 H2274 H 0.58300 0.31427 0.25430
 H2275 H 0.58008 0.29476 0.35992
 H2276 H 0.55293 0.27827 0.34318
 H2277 H 0.60955 0.31539 0.35849
 H2278 H 0.62994 0.33616 0.30109
 H2279 H 0.55368 0.29365 0.25568
 H2280 H 0.53484 0.26980 0.31225
 C2281 C 0.58824 0.80869 0.80896
 C2282 C 0.60176 0.81913 0.79742
 C2283 C 0.61786 0.82768 0.80685
 C2284 C 0.62040 0.82624 0.82779
 C2285 C 0.60641 0.81601 0.83918
 C2286 C 0.59044 0.80700 0.82980
 C2287 C 0.57165 0.79906 0.79898
 C2288 C 0.55850 0.78800 0.81040
 C2289 C 0.54312 0.77833 0.80071
 C2290 C 0.54068 0.78001 0.77983
 C2291 C 0.55376 0.79151 0.76868
 C2292 C 0.56943 0.80087 0.77814
 C2293 C 0.57676 0.79613 0.84079
 C2294 C 0.56113 0.78670 0.83124
 C2295 C 0.59905 0.82061 0.77661
 C2296 C 0.58309 0.81172 0.76715
 H2297 H 0.57828 0.79470 0.85687
 H2298 H 0.55105 0.77827 0.84024
 H2299 H 0.60938 0.82867 0.76756
 H2300 H 0.58156 0.81319 0.75107
 H2301 H 0.62866 0.83505 0.79776
 H2302 H 0.60793 0.81499 0.85529
 H2303 H 0.53303 0.76957 0.80939
 H2304 H 0.55207 0.79272 0.75258
 C2305 C 0.09020 0.30950 0.80756
 C2306 C 0.09269 0.30805 0.82838
 C2307 C 0.10887 0.31700 0.83740
 C2308 C 0.12279 0.32696 0.82567
 C2309 C 0.11994 0.32824 0.80477
 C2310 C 0.10362 0.31970 0.79568
 C2311 C 0.07341 0.29984 0.79795
 C2312 C 0.07092 0.30133 0.77712
 C2313 C 0.05513 0.29184 0.76801
 C2314 C 0.04219 0.28051 0.77953
 C2315 C 0.04486 0.27923 0.80041
 C2316 C 0.06038 0.28900 0.80973
 C2317 C 0.10062 0.32092 0.77489
 C2318 C 0.08449 0.31198 0.76578
 C2319 C 0.07909 0.29743 0.83972
 C2320 C 0.06327 0.28798 0.83054
 H2321 H 0.11087 0.32879 0.76557
 H2322 H 0.08276 0.31321 0.74970
 H2323 H 0.08083 0.29619 0.85580
 H2324 H 0.05327 0.27973 0.83981
 H2325 H 0.11063 0.31614 0.85350
 H2326 H 0.13066 0.33544 0.79544
 H2327 H 0.05325 0.29275 0.75191
 H2328 H 0.03489 0.27062 0.80938
 C2329 C 0.08777 0.81118 0.30681
 C2330 C 0.09052 0.80950 0.32758
 C2331 C 0.10684 0.81832 0.33648
 C2332 C 0.12063 0.82837 0.32469
 C2333 C 0.11752 0.82989 0.30384
 C2334 C 0.10107 0.82147 0.29487
 C2335 C 0.07084 0.80165 0.29732
 C2336 C 0.06811 0.80334 0.27654
 C2337 C 0.05220 0.79394 0.26752
 C2338 C 0.03938 0.78250 0.27908
 C2339 C 0.04229 0.78104 0.29992
 C2340 C 0.05793 0.79071 0.30914
 C2341 C 0.09782 0.82291 0.27414
 C2342 C 0.08156 0.81408 0.26514
 C2343 C 0.07704 0.79879 0.33898
 C2344 C 0.06108 0.78947 0.32991
 H2345 H 0.10796 0.83086 0.26477
 H2346 H 0.07964 0.81547 0.24910
 H2347 H 0.07897 0.79739 0.35502
 H2348 H 0.05118 0.78114 0.33921
 H2349 H 0.10879 0.81728 0.35254
 H2350 H 0.12813 0.83718 0.29445
 H2351 H 0.05015 0.79500 0.25146
 H2352 H 0.03243 0.77234 0.30892
 C2353 C 0.58670 0.69155 0.69336
 C2354 C 0.58869 0.69323 0.67251
 C2355 C 0.60438 0.68387 0.66294
 C2356 C 0.61832 0.67328 0.67415
 C2357 C 0.61598 0.67182 0.69510
 C2358 C 0.60015 0.68074 0.70473
 C2359 C 0.57042 0.70158 0.70355
 C2360 C 0.56842 0.69979 0.72440
 C2361 C 0.55305 0.70950 0.73406
 C2362 C 0.54003 0.72134 0.72308
 C2363 C 0.54226 0.72302 0.70218
 C2364 C 0.55735 0.71300 0.69230
 C2365 C 0.59766 0.67929 0.72556
 C2366 C 0.58200 0.68856 0.73522
 C2367 C 0.57509 0.70447 0.66170
 C2368 C 0.55975 0.71428 0.67144
 H2369 H 0.60794 0.67094 0.73449
 H2370 H 0.58063 0.68710 0.75131
 H2371 H 0.57644 0.70590 0.64560
 H2372 H 0.54972 0.72298 0.66257
 H2373 H 0.60573 0.68491 0.64681
 H2374 H 0.62675 0.66417 0.70406
 H2375 H 0.55152 0.70828 0.75017
 H2376 H 0.53222 0.73203 0.69363
 C2377 C 0.59012 0.19509 0.19544
 C2378 C 0.59188 0.19674 0.17457
 C2379 C 0.60757 0.18756 0.16488
 C2380 C 0.62174 0.17711 0.17593
 C2381 C 0.61976 0.17579 0.19693
 C2382 C 0.60389 0.18458 0.20671
 C2383 C 0.57361 0.20468 0.20570
 C2384 C 0.57171 0.20281 0.22654
 C2385 C 0.55602 0.21199 0.23623
 C2386 C 0.54257 0.22336 0.22527
 C2387 C 0.54473 0.22515 0.20438
 C2388 C 0.56014 0.21566 0.19448
 C2389 C 0.60155 0.18312 0.22757
 C2390 C 0.58568 0.19199 0.23730
 C2391 C 0.57795 0.20761 0.16381
 C2392 C 0.56241 0.21700 0.17361
 H2393 H 0.61206 0.17502 0.23644
 H2394 H 0.58440 0.19048 0.25340
 H2395 H 0.57915 0.20900 0.14770
 H2396 H 0.55209 0.22538 0.16478
 H2397 H 0.60864 0.18844 0.14872
 H2398 H 0.63067 0.16820 0.20574
 H2399 H 0.55454 0.21071 0.25235
 H2400 H 0.53439 0.23381 0.19584
 C2401 C 0.08530 0.69161 0.19523
 C2402 C 0.08709 0.69293 0.17432
 C2403 C 0.10290 0.68374 0.16481
 C2404 C 0.11717 0.67370 0.17610
 C2405 C 0.11500 0.67251 0.19709
 C2406 C 0.09905 0.68129 0.20669
 C2407 C 0.06893 0.70157 0.20535
 C2408 C 0.06714 0.70024 0.22627
 C2409 C 0.05174 0.71003 0.23586
 C2410 C 0.03853 0.72148 0.22472
 C2411 C 0.04050 0.72260 0.20374
 C2412 C 0.05560 0.71254 0.19396
 C2413 C 0.09674 0.68023 0.22758
 C2414 C 0.08100 0.68945 0.23719
 C2415 C 0.07320 0.70367 0.16339
 C2416 C 0.05778 0.71340 0.17306
 H2417 H 0.10724 0.67226 0.23659
 H2418 H 0.07981 0.68833 0.25333
 H2419 H 0.07440 0.70480 0.14726
 H2420 H 0.04754 0.72174 0.16409
 H2421 H 0.10412 0.68452 0.14866
 H2422 H 0.12599 0.66522 0.20608
 H2423 H 0.05039 0.70923 0.25202
 H2424 H 0.03030 0.73130 0.19506
 C2425 C 0.08780 0.18999 0.69512
 C2426 C 0.10160 0.17966 0.70651
 C2427 C 0.11757 0.17101 0.69684
 C2428 C 0.11970 0.17233 0.67585
 C2429 C 0.10541 0.18240 0.66463
 C2430 C 0.08957 0.19146 0.67422
 C2431 C 0.07142 0.19983 0.70533
 C2432 C 0.05805 0.21083 0.69403
 C2433 C 0.04296 0.22080 0.70390
 C2434 C 0.04105 0.21959 0.72487
 C2435 C 0.05429 0.20808 0.73592
 C2436 C 0.06968 0.19837 0.72624
 C2437 C 0.07563 0.20222 0.66338
 C2438 C 0.06019 0.21183 0.67312
 C2439 C 0.09933 0.17845 0.72739
 C2440 C 0.08358 0.18757 0.73708
 H2441 H 0.07681 0.20346 0.64725
 H2442 H 0.04991 0.22020 0.66423
 H2443 H 0.10987 0.17047 0.73633
 H2444 H 0.08242 0.18635 0.75321
 H2445 H 0.12859 0.16371 0.70577
 H2446 H 0.10662 0.18329 0.64849
 H2447 H 0.03274 0.22954 0.69529
 H2448 H 0.05299 0.20722 0.75208
 C2449 C 0.41127 0.69155 0.30245
 C2450 C 0.40889 0.67128 0.29963
 C2451 C 0.39313 0.66175 0.30883
 C2452 C 0.37962 0.67243 0.32051
 C2453 C 0.38219 0.69284 0.32283
 C2454 C 0.39806 0.70240 0.31406
 C2455 C 0.42785 0.70165 0.29295
 C2456 C 0.43032 0.72186 0.29603
 C2457 C 0.44607 0.73141 0.28699
 C2458 C 0.45907 0.72100 0.27458
 C2459 C 0.45633 0.70073 0.27155
 C2460 C 0.44082 0.69093 0.28088
 C2461 C 0.40095 0.72264 0.31668
 C2462 C 0.41687 0.73219 0.30790
 C2463 C 0.42230 0.66100 0.28764
 C2464 C 0.43793 0.67067 0.27835
 H2465 H 0.39085 0.73116 0.32564
 H2466 H 0.41859 0.74780 0.31033
 H2467 H 0.42065 0.64536 0.28532
 H2468 H 0.44785 0.66220 0.26912
 H2469 H 0.39151 0.64604 0.30704
 H2470 H 0.37171 0.70141 0.33127
 H2471 H 0.44794 0.74705 0.28923
 H2472 H 0.46631 0.69261 0.26206
 C2473 C 0.41030 0.18973 0.80330
 C2474 C 0.39704 0.20075 0.81470
 C2475 C 0.38125 0.19128 0.82370
 C2476 C 0.37883 0.17080 0.82184
 C2477 C 0.39236 0.15996 0.81036
 C2478 C 0.40804 0.16939 0.80093
 C2479 C 0.42683 0.19971 0.79362
 C2480 C 0.43988 0.18880 0.78182
 C2481 C 0.45543 0.19846 0.77242
 C2482 C 0.45813 0.21877 0.77513
 C2483 C 0.44501 0.22940 0.78720
 C2484 C 0.42922 0.21999 0.79630
 C2485 C 0.42151 0.15893 0.78917
 C2486 C 0.43710 0.16848 0.77969
 C2487 C 0.39981 0.22105 0.81688
 C2488 C 0.41570 0.23049 0.80793
 H2489 H 0.41994 0.14324 0.78719
 H2490 H 0.44709 0.15988 0.77068
 H2491 H 0.38967 0.22969 0.82567
 H2492 H 0.41736 0.24616 0.81005
 H2493 H 0.37073 0.19994 0.83199
 H2494 H 0.39084 0.14421 0.80893
 H2495 H 0.46553 0.19018 0.76320
 H2496 H 0.44687 0.24507 0.78920
 C2497 C 0.91073 0.69236 0.80256
 C2498 C 0.90883 0.69320 0.82347
 C2499 C 0.89297 0.68390 0.83262
 C2500 C 0.87876 0.67417 0.82100
 C2501 C 0.88085 0.67375 0.79997
 C2502 C 0.89691 0.68260 0.79072
 C2503 C 0.92747 0.70197 0.79287
 C2504 C 0.92956 0.70081 0.77198
 C2505 C 0.94554 0.70992 0.76285
 C2506 C 0.95904 0.72055 0.77441
 C2507 C 0.95666 0.72170 0.79532
 C2508 C 0.94100 0.71222 0.80467
 C2509 C 0.89941 0.68190 0.76984
 C2510 C 0.91553 0.69075 0.76064
 C2511 C 0.92281 0.70336 0.83480
 C2512 C 0.93856 0.71281 0.82555
 H2513 H 0.88886 0.67438 0.76053
 H2514 H 0.91694 0.68981 0.74451
 H2515 H 0.92150 0.70412 0.85096
 H2516 H 0.94893 0.72062 0.83483
 H2517 H 0.89182 0.68409 0.84880
 H2518 H 0.86991 0.66676 0.79073
 H2519 H 0.94720 0.70917 0.74672
 H2520 H 0.96708 0.72979 0.80429
 C2521 C 0.90736 0.19544 0.30255
 C2522 C 0.89362 0.20663 0.31316
 C2523 C 0.87757 0.19723 0.32185
 C2524 C 0.87540 0.17668 0.32040
 C2525 C 0.88947 0.16573 0.30975
 C2526 C 0.90535 0.17505 0.30065
 C2527 C 0.92418 0.20529 0.29323
 C2528 C 0.93768 0.19416 0.28222
 C2529 C 0.95343 0.20365 0.27305
 C2530 C 0.95591 0.22405 0.27518
 C2531 C 0.94241 0.23494 0.28656
 C2532 C 0.92637 0.22566 0.29542
 C2533 C 0.91929 0.16437 0.28971
 C2534 C 0.93512 0.17378 0.28056
 C2535 C 0.89622 0.22700 0.31490
 C2536 C 0.91237 0.23634 0.30627
 H2537 H 0.91790 0.14862 0.28812
 H2538 H 0.94547 0.16502 0.27215
 H2539 H 0.88572 0.23580 0.32307
 H2540 H 0.91385 0.25207 0.30802
 H2541 H 0.86672 0.20596 0.32957
 H2542 H 0.88823 0.14991 0.30875
 H2543 H 0.96383 0.19517 0.26439
 H2544 H 0.94413 0.25067 0.28810
 C2545 C 0.30870 0.30850 0.59003
 C2546 C 0.30700 0.32889 0.59245
 C2547 C 0.31685 0.33807 0.60831
 C2548 C 0.32801 0.32693 0.62197
 C2549 C 0.32936 0.30643 0.61931
 C2550 C 0.31992 0.29719 0.60328
 C2551 C 0.29834 0.29875 0.57344
 C2552 C 0.30020 0.27837 0.57094
 C2553 C 0.29025 0.26915 0.55522
 C2554 C 0.27814 0.28009 0.54236
 C2555 C 0.27639 0.30051 0.54509
 C2556 C 0.28661 0.30995 0.56052
 C2557 C 0.32139 0.27683 0.60034
 C2558 C 0.31178 0.26759 0.58438
 C2559 C 0.29538 0.33966 0.57903
 C2560 C 0.28528 0.33034 0.56340
 H2561 H 0.33004 0.26795 0.61047
 H2562 H 0.31328 0.25185 0.58264
 H2563 H 0.29394 0.35540 0.58072
 H2564 H 0.27633 0.33916 0.55350
 H2565 H 0.31586 0.35385 0.60997
 H2566 H 0.33747 0.29755 0.62989
 H2567 H 0.29153 0.25340 0.55331
 H2568 H 0.26716 0.30903 0.53517
 C2569 C 0.30490 0.80865 0.09214
 C2570 C 0.31589 0.79740 0.10564
 C2571 C 0.32510 0.80671 0.12176
 C2572 C 0.32378 0.82723 0.12428
 C2573 C 0.31278 0.83830 0.11043
 C2574 C 0.30316 0.82906 0.09445
 C2575 C 0.29489 0.79885 0.07534
 C2576 C 0.28345 0.81001 0.06212
 C2577 C 0.27364 0.80053 0.04642
 C2578 C 0.27553 0.78011 0.04373
 C2579 C 0.28731 0.76921 0.05695
 C2580 C 0.29685 0.77847 0.07292
 C2581 C 0.29180 0.83977 0.08075
 C2582 C 0.28203 0.83040 0.06493
 C2583 C 0.31741 0.77703 0.10279
 C2584 C 0.30814 0.76774 0.08665
 H2585 H 0.29032 0.85553 0.08236
 H2586 H 0.27330 0.83920 0.05480
 H2587 H 0.32589 0.76819 0.11311
 H2588 H 0.30971 0.75200 0.08497
 H2589 H 0.33307 0.79788 0.13250
 H2590 H 0.31181 0.85410 0.11197
 H2591 H 0.26466 0.80902 0.03624
 H2592 H 0.28869 0.75347 0.05508
 C2593 C 0.80623 0.31039 0.08832
 C2594 C 0.81774 0.29917 0.10140
 C2595 C 0.82714 0.30843 0.11741
 C2596 C 0.82550 0.32889 0.12023
 C2597 C 0.81401 0.33994 0.10679
 C2598 C 0.80419 0.33072 0.09092
 C2599 C 0.79599 0.30060 0.07167
 C2600 C 0.78404 0.31169 0.05885
 C2601 C 0.77406 0.30219 0.04325
 C2602 C 0.77634 0.28186 0.04027
 C2603 C 0.78858 0.27105 0.05313
 C2604 C 0.79827 0.28030 0.06897
 C2605 C 0.79230 0.34139 0.07764
 C2606 C 0.78232 0.33202 0.06195
 C2607 C 0.81955 0.27887 0.09829
 C2608 C 0.81006 0.26960 0.08227
 H2609 H 0.79059 0.35709 0.07949
 H2610 H 0.77320 0.34077 0.05215
 H2611 H 0.82842 0.27007 0.10828
 H2612 H 0.81188 0.25392 0.08036
 H2613 H 0.83548 0.29961 0.12786
 H2614 H 0.81277 0.35569 0.10859
 H2615 H 0.76471 0.31060 0.03335
 H2616 H 0.79025 0.25536 0.05105
 C2617 C 0.80843 0.80956 0.58987
 C2618 C 0.81992 0.79831 0.60293
 C2619 C 0.82966 0.80759 0.61873
 C2620 C 0.82832 0.82809 0.62136
 C2621 C 0.81689 0.83919 0.60790
 C2622 C 0.80676 0.82996 0.59225
 C2623 C 0.79780 0.79976 0.57349
 C2624 C 0.78587 0.81091 0.56071
 C2625 C 0.77552 0.80141 0.54537
 C2626 C 0.77738 0.78100 0.54262
 C2627 C 0.78959 0.77012 0.55545
 C2628 C 0.79967 0.77939 0.57103
 C2629 C 0.79489 0.84067 0.57900
 C2630 C 0.78455 0.83130 0.56356
 C2631 C 0.82134 0.77794 0.60005
 C2632 C 0.81147 0.76865 0.58430
 H2633 H 0.79346 0.85642 0.58067
 H2634 H 0.77546 0.84009 0.55377
 H2635 H 0.83019 0.76910 0.61003
 H2636 H 0.81298 0.75291 0.58256
 H2637 H 0.83797 0.79876 0.62918
 H2638 H 0.81589 0.85497 0.60955
 H2639 H 0.76622 0.80989 0.53548
 H2640 H 0.79096 0.75438 0.55355
 C2641 C 0.31155 0.68938 0.40797
 C2642 C 0.32222 0.70067 0.39430
 C2643 C 0.33126 0.69140 0.37804
 C2644 C 0.33008 0.67087 0.37551
 C2645 C 0.31968 0.65972 0.38973
 C2646 C 0.31016 0.66895 0.40582
 C2647 C 0.30133 0.69921 0.42463
 C2648 C 0.29001 0.68806 0.43790
 C2649 C 0.27982 0.69761 0.45334
 C2650 C 0.28125 0.71810 0.45571
 C2651 C 0.29296 0.72897 0.44247
 C2652 C 0.30283 0.71964 0.42676
 C2653 C 0.29903 0.65821 0.41965
 C2654 C 0.28904 0.66761 0.43534
 C2655 C 0.32338 0.72108 0.39694
 C2656 C 0.31394 0.73039 0.41297
 H2657 H 0.29783 0.64243 0.41818
 H2658 H 0.28044 0.65881 0.44551
 H2659 H 0.33161 0.72993 0.38649
 H2660 H 0.31518 0.74617 0.41445
 H2661 H 0.33874 0.70031 0.36706
 H2662 H 0.31884 0.64393 0.38824
 H2663 H 0.27090 0.68915 0.46355
 H2664 H 0.29399 0.74476 0.44408
 C2665 C 0.31166 0.18869 0.90970
 C2666 C 0.31034 0.16822 0.90787
 C2667 C 0.31961 0.15883 0.89174
 C2668 C 0.32973 0.16984 0.87719
 C2669 C 0.33082 0.19040 0.87939
 C2670 C 0.32202 0.19985 0.89567
 C2671 C 0.30172 0.19870 0.92642
 C2672 C 0.30317 0.21917 0.92826
 C2673 C 0.29355 0.22865 0.94404
 C2674 C 0.28214 0.21788 0.95763
 C2675 C 0.28077 0.19736 0.95556
 C2676 C 0.29071 0.18766 0.94006
 C2677 C 0.32313 0.22030 0.89800
 C2678 C 0.31396 0.22979 0.91410
 C2679 C 0.29952 0.15762 0.92205
 C2680 C 0.28979 0.16718 0.93780
 H2681 H 0.33113 0.22906 0.88728
 H2682 H 0.31515 0.24559 0.91534
 H2683 H 0.29837 0.14182 0.92082
 H2684 H 0.28142 0.15847 0.94827
 H2685 H 0.31884 0.14301 0.89049
 H2686 H 0.33807 0.19920 0.86815
 H2687 H 0.29452 0.24446 0.94543
 H2688 H 0.27208 0.18899 0.96605
 C2689 C 0.80952 0.69044 0.90840
 C2690 C 0.82971 0.69264 0.90602
 C2691 C 0.83898 0.68363 0.88967
 C2692 C 0.82812 0.67283 0.87551
 C2693 C 0.80779 0.67108 0.87810
 C2694 C 0.79848 0.67962 0.89461
 C2695 C 0.79968 0.69981 0.92557
 C2696 C 0.77952 0.69737 0.92804
 C2697 C 0.77021 0.70633 0.94433
 C2698 C 0.78082 0.71808 0.95779
 C2699 C 0.80103 0.72047 0.95507
 C2700 C 0.81058 0.71117 0.93906
 C2701 C 0.77832 0.67761 0.89752
 C2702 C 0.76901 0.68623 0.91403
 C2703 C 0.84019 0.70387 0.92001
 C2704 C 0.83077 0.71307 0.93618
 H2705 H 0.76967 0.66925 0.88697
 H2706 H 0.75344 0.68431 0.91574
 H2707 H 0.85577 0.70570 0.91835
 H2708 H 0.83936 0.72175 0.94651
 H2709 H 0.85463 0.68494 0.88805
 H2710 H 0.79909 0.66331 0.86713
 H2711 H 0.75462 0.70462 0.94621
 H2712 H 0.80927 0.72945 0.96544
 C2713 C 0.80893 0.18920 0.41036
 C2714 C 0.79746 0.17911 0.39636
 C2715 C 0.80635 0.17087 0.37946
 C2716 C 0.82668 0.17220 0.37663
 C2717 C 0.83802 0.18206 0.39112
 C2718 C 0.82916 0.19082 0.40786
 C2719 C 0.79949 0.19855 0.42777
 C2720 C 0.81082 0.20936 0.44137
 C2721 C 0.80163 0.21884 0.45749
 C2722 C 0.78136 0.21716 0.46021
 C2723 C 0.77032 0.20588 0.44670
 C2724 C 0.77927 0.19678 0.43028
 C2725 C 0.84008 0.20139 0.42203
 C2726 C 0.83105 0.21061 0.43842
 C2727 C 0.77726 0.17767 0.39938
 C2728 C 0.76833 0.18625 0.41613
 H2729 H 0.85571 0.20277 0.42029
 H2730 H 0.83997 0.21883 0.44885
 H2731 H 0.76827 0.16987 0.38868
 H2732 H 0.75271 0.18483 0.41789
 H2733 H 0.79729 0.16383 0.36830
 H2734 H 0.85367 0.18300 0.38940
 H2735 H 0.81020 0.22745 0.46791
 H2736 H 0.75468 0.20473 0.44860
 C2737 C 0.69630 0.30390 0.41242
 C2738 C 0.68580 0.29285 0.39835
 C2739 C 0.67631 0.30250 0.38256
 C2740 C 0.67686 0.32314 0.38100
 C2741 C 0.68732 0.33396 0.39548
 C2742 C 0.69724 0.32441 0.41106
 C2743 C 0.70654 0.29379 0.42889
 C2744 C 0.71746 0.30479 0.44270
 C2745 C 0.72739 0.29504 0.45817
 C2746 C 0.72602 0.27453 0.46011
 C2747 C 0.71483 0.26377 0.44626
 C2748 C 0.70525 0.27330 0.43047
 C2749 C 0.70811 0.33495 0.42528
 C2750 C 0.71815 0.32529 0.44076
 C2751 C 0.68502 0.27235 0.40032
 C2752 C 0.69448 0.26275 0.41619
 H2753 H 0.70897 0.35079 0.42438
 H2754 H 0.72645 0.33397 0.45134
 H2755 H 0.67695 0.26365 0.38957
 H2756 H 0.69344 0.24693 0.41722
 H2757 H 0.66874 0.29388 0.37138
 H2758 H 0.68764 0.34983 0.39475
 H2759 H 0.73591 0.30339 0.46886
 H2760 H 0.71389 0.24795 0.44757
 C2761 C 0.69399 0.80295 0.91003
 C2762 C 0.69500 0.82345 0.90853
 C2763 C 0.68526 0.83291 0.89279
 C2764 C 0.67494 0.82202 0.87827
 C2765 C 0.67426 0.80140 0.88000
 C2766 C 0.68357 0.79183 0.89596
 C2767 C 0.70414 0.79293 0.92662
 C2768 C 0.70284 0.77245 0.92832
 C2769 C 0.71244 0.76300 0.94416
 C2770 C 0.72367 0.77384 0.95790
 C2771 C 0.72497 0.79435 0.95588
 C2772 C 0.71503 0.80401 0.94038
 C2773 C 0.68274 0.77134 0.89808
 C2774 C 0.69211 0.76183 0.91406
 C2775 C 0.70580 0.83407 0.92274
 C2776 C 0.71575 0.82450 0.93833
 H2777 H 0.67472 0.76259 0.88733
 H2778 H 0.69105 0.74601 0.91518
 H2779 H 0.70670 0.84990 0.92173
 H2780 H 0.72403 0.83322 0.94888
 H2781 H 0.68564 0.84878 0.89194
 H2782 H 0.66676 0.79273 0.86881
 H2783 H 0.71155 0.74718 0.94554
 H2784 H 0.73351 0.80276 0.96650
 C2785 C 0.19633 0.30336 0.90761
 C2786 C 0.18607 0.29227 0.89338
 C2787 C 0.17702 0.30187 0.87727
 C2788 C 0.17780 0.32249 0.87553
 C2789 C 0.18805 0.33334 0.89014
 C2790 C 0.19750 0.32384 0.90605
 C2791 C 0.20610 0.29331 0.92443
 C2792 C 0.21677 0.30435 0.93838
 C2793 C 0.22633 0.29468 0.95414
 C2794 C 0.22490 0.27418 0.95619
 C2795 C 0.21389 0.26337 0.94223
 C2796 C 0.20464 0.27284 0.92617
 C2797 C 0.20811 0.33443 0.92045
 C2798 C 0.21767 0.32484 0.93627
 C2799 C 0.18507 0.27179 0.89555
 C2800 C 0.19411 0.26225 0.91172
 H2801 H 0.20913 0.35025 0.91941
 H2802 H 0.22581 0.33354 0.94697
 H2803 H 0.17717 0.26306 0.88469
 H2804 H 0.19293 0.24645 0.91287
 H2805 H 0.16959 0.29322 0.86602
 H2806 H 0.18852 0.34920 0.88927
 H2807 H 0.23471 0.30309 0.96489
 H2808 H 0.21288 0.24756 0.94362
 C2809 C 0.19498 0.80397 0.40568
 C2810 C 0.19611 0.82447 0.40431
 C2811 C 0.18651 0.83411 0.38858
 C2812 C 0.17614 0.82338 0.37396
 C2813 C 0.17540 0.80275 0.37551
 C2814 C 0.18460 0.79300 0.39144
 C2815 C 0.20488 0.79377 0.42233
 C2816 C 0.20342 0.77329 0.42391
 C2817 C 0.21275 0.76369 0.43984
 C2818 C 0.22383 0.77438 0.45385
 C2819 C 0.22527 0.79490 0.45193
 C2820 C 0.21564 0.80470 0.43631
 C2821 C 0.18363 0.77251 0.39343
 C2822 C 0.19279 0.76283 0.40945
 C2823 C 0.20683 0.83492 0.41872
 C2824 C 0.21652 0.82520 0.43437
 H2825 H 0.17564 0.76387 0.38256
 H2826 H 0.19161 0.74702 0.41046
 H2827 H 0.20784 0.85076 0.41782
 H2828 H 0.22473 0.83381 0.44509
 H2829 H 0.18696 0.84997 0.38787
 H2830 H 0.16787 0.79420 0.36424
 H2831 H 0.21171 0.74787 0.44113
 H2832 H 0.23369 0.80323 0.46272
 C2833 C 0.69114 0.69606 0.59149
 C2834 C 0.68104 0.70719 0.60583
 C2835 C 0.67194 0.69760 0.62186
 C2836 C 0.67249 0.67696 0.62339
 C2837 C 0.68254 0.66606 0.60865
 C2838 C 0.69207 0.67554 0.59283
 C2839 C 0.70101 0.70610 0.57479
 C2840 C 0.71155 0.69500 0.56073
 C2841 C 0.72122 0.70467 0.54509
 C2842 C 0.72000 0.72521 0.54326
 C2843 C 0.70912 0.73607 0.55732
 C2844 C 0.69978 0.72660 0.57327
 C2845 C 0.70254 0.66491 0.57833
 C2846 C 0.71222 0.67449 0.56262
 C2847 C 0.68028 0.72770 0.60389
 C2848 C 0.68939 0.73723 0.58781
 H2849 H 0.70338 0.64906 0.57920
 H2850 H 0.72024 0.66575 0.55184
 H2851 H 0.67250 0.73646 0.61484
 H2852 H 0.68840 0.75307 0.58684
 H2853 H 0.66466 0.70628 0.63323
 H2854 H 0.68284 0.65019 0.60937
 H2855 H 0.72950 0.69624 0.53425
 H2856 H 0.70828 0.75190 0.55610
 C2857 C 0.69097 0.19692 0.08942
 C2858 C 0.67078 0.19913 0.09187
 C2859 C 0.66148 0.18947 0.10777
 C2860 C 0.67231 0.17795 0.12138
 C2861 C 0.69264 0.17622 0.11876
 C2862 C 0.70198 0.18545 0.10271
 C2863 C 0.70082 0.20689 0.07266
 C2864 C 0.72098 0.20439 0.07009
 C2865 C 0.73027 0.21377 0.05410
 C2866 C 0.71965 0.22593 0.04098
 C2867 C 0.69947 0.22845 0.04387
 C2868 C 0.68993 0.21877 0.05961
 C2869 C 0.72215 0.18344 0.09974
 C2870 C 0.73147 0.19267 0.08363
 C2871 C 0.66032 0.21097 0.07837
 C2872 C 0.66975 0.22070 0.06258
 H2873 H 0.73079 0.17460 0.10991
 H2874 H 0.74704 0.19069 0.08182
 H2875 H 0.64473 0.21282 0.08008
 H2876 H 0.66115 0.22978 0.05259
 H2877 H 0.64583 0.19080 0.10942
 H2878 H 0.70130 0.16787 0.12933
 H2879 H 0.74584 0.21192 0.05209
 H2880 H 0.69120 0.23773 0.03377
 C2881 C 0.18821 0.69679 0.09181
 C2882 C 0.18934 0.67629 0.09338
 C2883 C 0.18024 0.66692 0.10952
 C2884 C 0.17043 0.67789 0.12437
 C2885 C 0.16960 0.69851 0.12256
 C2886 C 0.17829 0.70800 0.10621
 C2887 C 0.19778 0.70672 0.07485
 C2888 C 0.19648 0.72722 0.07314
 C2889 C 0.20577 0.73660 0.05708
 C2890 C 0.21671 0.72564 0.04315
 C2891 C 0.21786 0.70510 0.04510
 C2892 C 0.20825 0.69554 0.06082
 C2893 C 0.17734 0.72849 0.10403
 C2894 C 0.18619 0.73792 0.08771
 C2895 C 0.19965 0.66558 0.07883
 C2896 C 0.20905 0.67505 0.06289
 H2897 H 0.16969 0.73731 0.11502
 H2898 H 0.18512 0.75374 0.08661
 H2899 H 0.20062 0.64975 0.07988
 H2900 H 0.21702 0.66626 0.05212
 H2901 H 0.18071 0.65106 0.11042
 H2902 H 0.16247 0.70725 0.13398
 H2903 H 0.20500 0.75243 0.05575
 H2904 H 0.22618 0.69659 0.03436
 C2905 C 0.19103 0.19624 0.59218
 C2906 C 0.18105 0.20730 0.60667
 C2907 C 0.17236 0.19765 0.62290
 C2908 C 0.17322 0.17702 0.62451
 C2909 C 0.18312 0.16619 0.60960
 C2910 C 0.19222 0.17573 0.59357
 C2911 C 0.20054 0.20634 0.57530
 C2912 C 0.21100 0.19530 0.56114
 C2913 C 0.22044 0.20501 0.54542
 C2914 C 0.21914 0.22555 0.54360
 C2915 C 0.20827 0.23637 0.55769
 C2916 C 0.19913 0.22684 0.57374
 C2917 C 0.20256 0.16517 0.57893
 C2918 C 0.21189 0.17480 0.56305
 C2919 C 0.18004 0.22780 0.60466
 C2920 C 0.18883 0.23739 0.58842
 H2921 H 0.20358 0.14933 0.57984
 H2922 H 0.21986 0.16612 0.55218
 H2923 H 0.17235 0.23651 0.61572
 H2924 H 0.18768 0.25322 0.58743
 H2925 H 0.16516 0.20626 0.63437
 H2926 H 0.18363 0.15033 0.61037
 H2927 H 0.22870 0.19661 0.53454
 H2928 H 0.20737 0.25220 0.55645
   
