data_POSCAR
  _audit_creation_date              2014-09-24
  _audit_creation_method            'ToBaCCo'
  _symmetry_space_group_name_H-M    'P1'
  _symmetry_Int_Tables_number       1
  _symmetry_cell_setting            triclinic
  loop_
  _symmetry_equiv_pos_as_xyz
 x,y,z
_cell_length_a 52.7613
_cell_length_b 56.5983
_cell_length_c 55.8228
_cell_angle_alpha 89.629400
_cell_angle_beta 90.059500
_cell_angle_gamma 90.404700
loop_
  _atom_site_label
  _atom_site_type_symbol
  _atom_site_fract_x
  _atom_site_fract_y
  _atom_site_fract_z
O1 O 0.33761 0.36508 0.01482
 O2 O 0.36521 0.31999 -0.02409
 O3 O 0.33156 0.35348 -0.02926
 O4 O 0.36955 0.33084 0.02142
 O5 O 0.33877 0.30573 0.03051
 O6 O 0.30067 0.32870 -0.01958
 O7 O 0.33435 0.29510 -0.01466
 O8 O 0.30684 0.34031 0.02499
 Cu9 Cu 0.35421 0.34466 -0.00530
 Cu10 Cu 0.31711 0.31492 0.00622
 C11 C 0.31746 0.36052 0.02634
 C12 C 0.35456 0.29992 -0.02610
 C13 C 0.30931 0.34534 -0.03263
 C14 C 0.36053 0.31449 0.03466
 O15 O 0.62413 0.66075 -0.01476
 O16 O 0.66203 0.63647 0.03496
 O17 O 0.62530 0.66647 0.03146
 O18 O 0.65966 0.62939 -0.01104
 O19 O 0.68874 0.65730 -0.01556
 O20 O 0.65326 0.69524 0.02595
 O21 O 0.69019 0.66518 0.03016
 O22 O 0.65299 0.68875 -0.02006
 Cu23 Cu 0.63993 0.64540 0.01066
 Cu24 Cu 0.67415 0.67949 0.00457
 C25 C 0.63217 0.67896 -0.02585
 C26 C 0.68252 0.64676 0.04105
 C27 C 0.63327 0.68718 0.03583
 C28 C 0.68014 0.63682 -0.02036
 O29 O 0.69743 0.33721 0.98229
 O30 O 0.64796 0.30886 1.01902
 O31 O 0.68651 0.33704 1.02711
 O32 O 0.65912 0.30963 0.97360
 O33 O 0.68237 0.27783 0.97963
 O34 O 0.71155 0.30637 1.03242
 O35 O 0.67304 0.27841 1.02559
 O36 O 0.72151 0.30566 0.98634
 Cu37 Cu 0.67021 0.32623 1.00001
 Cu38 Cu 0.69961 0.28892 1.00650
 C39 C 0.71784 0.32628 0.97799
 C40 C 0.65218 0.28898 1.02881
 C41 C 0.70397 0.32667 1.03870
 C42 C 0.66589 0.28906 0.96756
 O43 O 0.29508 0.66974 0.96850
 O44 O 0.33687 0.70251 1.00898
 O45 O 0.30191 0.66992 1.01492
 O46 O 0.32863 0.70275 0.96351
 O47 O 0.29965 0.73037 0.96785
 O48 O 0.27213 0.69685 1.01842
 O49 O 0.30758 0.72977 1.01373
 O50 O 0.26563 0.69702 0.97195
 Cu51 Cu 0.31847 0.68340 0.98874
 Cu52 Cu 0.28322 0.71617 0.99359
 C53 C 0.27354 0.67791 0.96285
 C54 C 0.32972 0.72193 1.01779
 C55 C 0.28221 0.67766 1.02527
 C56 C 0.31882 0.72223 0.95705
 O57 O -0.02610 0.34676 0.31192
 O58 O 0.02667 0.32930 0.35086
 O59 O 0.01970 0.36181 0.31840
 O60 O -0.01955 0.31442 0.34460
 O61 O -0.00690 0.28983 0.31659
 O62 O 0.03368 0.33707 0.29104
 O63 O 0.03937 0.30407 0.32340
 O64 O -0.01267 0.32271 0.28373
 Cu65 Cu -0.00117 0.34051 0.33424
 Cu66 Cu 0.01468 0.31093 0.30086
 C67 C -0.02817 0.33808 0.29109
 C68 C 0.04181 0.31346 0.34389
 C69 C 0.03337 0.35754 0.30028
 C70 C -0.01990 0.29402 0.33521
 O71 O 0.01906 0.67305 0.64222
 O72 O -0.02901 0.63799 0.67294
 O73 O -0.03027 0.67288 0.64177
 O74 O 0.01953 0.64374 0.67838
 O75 O 0.01536 0.67173 0.70548
 O76 O -0.03654 0.69793 0.67130
 O77 O -0.03201 0.66454 0.70162
 O78 O 0.01435 0.70199 0.66812
 Cu79 Cu -0.00482 0.65424 0.65609
 Cu80 Cu -0.00948 0.68720 0.68872
 C81 C 0.02481 0.69346 0.64954
 C82 C -0.03820 0.64465 0.69267
 C83 C -0.04221 0.69026 0.65071
 C84 C 0.02577 0.65294 0.69835
 O85 O 1.02861 0.64576 0.31773
 O86 O 0.97961 0.66855 0.35824
 O87 O 0.98104 0.63567 0.32617
 O88 O 1.02683 0.67870 0.35014
 O89 O 1.01582 0.70451 0.32230
 O90 O 0.96917 0.66156 0.29867
 O91 O 0.96841 0.69475 0.33077
 O92 O 1.01674 0.67119 0.28981
 Cu93 Cu 1.00525 0.65456 0.34077
 Cu94 Cu 0.99146 0.68558 0.30754
 C95 C 1.03092 0.65449 0.29682
 C96 C 0.96577 0.68559 0.35147
 C97 C 0.96711 0.64133 0.30854
 C98 C 1.02899 0.69903 0.34055
 O99 O 0.97388 0.33430 0.63809
 O100 O 1.02622 0.36372 0.66913
 O101 O 1.02261 0.32748 0.64151
 O102 O 0.97760 0.36914 0.66860
 O103 O 0.97175 0.34420 0.69871
 O104 O 1.01809 0.30359 0.67267
 O105 O 1.02105 0.34019 0.70052
 O106 O 0.96965 0.30895 0.66809
 Cu107 Cu 1.00040 0.35105 0.65122
 Cu108 Cu 0.99446 0.32186 0.68814
 C109 C 0.96332 0.31629 0.64735
 C110 C 1.03256 0.35716 0.69001
 C111 C 1.02823 0.30853 0.65266
 C112 C 0.96720 0.36379 0.68844
 O113 O 0.33453 0.02347 0.31277
 O114 O 0.30228 -0.02830 0.34020
 O115 O 0.33270 -0.02138 0.30408
 O116 O 0.30655 0.01632 0.35059
 O117 O 0.27281 0.02303 0.32816
 O118 O 0.29888 -0.01603 0.28139
 O119 O 0.26861 -0.02150 0.31770
 O120 O 0.30107 0.02913 0.28967
 Cu121 Cu 0.32234 -0.00310 0.32920
 Cu122 Cu 0.28195 0.00442 0.30198
 C123 C 0.32331 0.03482 0.29617
 C124 C 0.27986 -0.03360 0.33359
 C125 C 0.32054 -0.02514 0.28485
 C126 C 0.28525 0.02600 0.34747
 O127 O 0.68800 -0.03322 0.65441
 O128 O 0.65938 0.02038 0.68059
 O129 O 0.68715 0.01293 0.64393
 O130 O 0.65153 -0.02313 0.68649
 O131 O 0.68384 -0.02282 0.71168
 O132 O 0.72003 0.01431 0.66844
 O133 O 0.69231 0.02340 0.70491
 O134 O 0.72046 -0.02960 0.67915
 Cu135 Cu 0.66889 -0.00670 0.66359
 Cu136 Cu 0.70673 -0.00393 0.69385
 C137 C 0.70941 -0.04028 0.66220
 C138 C 0.67110 0.03088 0.69748
 C139 C 0.70941 0.01993 0.64870
 C140 C 0.66115 -0.02870 0.70646
 O141 O 0.32118 1.02093 0.64646
 O142 O 0.34570 0.97399 0.68547
 O143 O 0.31109 0.97636 0.65268
 O144 O 0.35502 1.01860 0.68045
 O145 O 0.32578 1.02782 0.70704
 O146 O 0.28212 0.98443 0.67991
 O147 O 0.31727 0.98260 0.71301
 O148 O 0.29162 1.02913 0.67308
 Cu149 Cu 0.33613 0.99669 0.66353
 Cu150 Cu 0.30129 1.00687 0.69602
 C151 C 0.30210 1.03281 0.65288
 C152 C 0.33589 0.97034 0.70592
 C153 C 0.28917 0.97312 0.66155
 C154 C 0.34794 1.03034 0.69849
 O155 O 0.70149 1.02188 0.34456
 O156 O 0.65521 0.98452 0.31299
 O157 O 0.69284 0.97671 0.34229
 O158 O 0.66397 1.02939 0.31458
 O159 O 0.68897 1.02539 0.28316
 O160 O 0.72040 0.97513 0.31262
 O161 O 0.68211 0.98019 0.28306
 O162 O 0.72663 1.02126 0.31301
 Cu163 Cu 0.67584 1.00341 0.33174
 Cu164 Cu 0.70732 1.00014 0.29499
 C165 C 0.72179 1.02828 0.33408
 C166 C 0.66067 0.97608 0.29265
 C167 C 0.71177 0.96715 0.33231
 C168 C 0.67105 1.03586 0.29377
 C169 C 0.88009 0.77904 0.50406
 C170 C 0.87853 0.77978 0.47958
 C171 C 0.85422 0.78710 0.47398
 N172 N 0.84097 0.79112 0.49427
 C173 C 0.85679 0.78632 0.51273
 C174 C 0.84414 0.78858 0.45052
 C175 C 0.82147 0.80063 0.44509
 C176 C 0.80859 0.79915 0.42347
 C177 C 0.78858 0.81454 0.42476
 C178 C 0.78980 0.82502 0.44711
 N179 N 0.80990 0.81646 0.45939
 C180 C 0.77330 0.84283 0.45522
 C181 C 0.77030 0.84834 0.47971
 C182 C 0.75608 0.86699 0.48825
 C183 C 0.75679 0.86549 0.51272
 C184 C 0.77154 0.84606 0.51842
 N185 N 0.77970 0.83552 0.49820
 C186 C 0.77629 0.83803 0.54204
 C187 C 0.79470 0.82080 0.54792
 C188 C 0.79743 0.81027 0.57025
 C189 C 0.81829 0.79586 0.56902
 C190 C 0.82755 0.79754 0.54579
 N191 N 0.81321 0.81304 0.53321
 C192 C 0.84985 0.78650 0.53722
 H193 H 0.89656 0.77358 0.51417
 H194 H 0.89364 0.77533 0.46735
 H195 H 0.81747 0.81991 0.51640
 H196 H 0.81316 0.78819 0.40828
 H197 H 0.77472 0.81762 0.41081
 H198 H 0.74622 0.88035 0.47798
 H199 H 0.74762 0.87751 0.52492
 H200 H 0.82590 0.78576 0.58383
 H201 H 0.81694 0.82305 0.47543
 H202 H 0.78588 0.81298 0.58599
 C203 C 0.19085 0.10608 0.52362
 C204 C 0.18896 0.10225 0.49942
 C205 C 0.18429 0.12402 0.48891
 N206 N 0.18328 0.14099 0.50582
 C207 C 0.18727 0.13007 0.52707
 C208 C 0.18241 0.12829 0.46403
 C209 C 0.17433 0.15003 0.45433
 C210 C 0.17793 0.15710 0.43073
 C211 C 0.16588 0.17837 0.42801
 C212 C 0.15517 0.18366 0.45000
 N213 N 0.16046 0.16631 0.46597
 C214 C 0.13932 0.20313 0.45428
 C215 C 0.13252 0.21027 0.47758
 C216 C 0.11303 0.22563 0.48301
 C217 C 0.11384 0.22895 0.50729
 C218 C 0.13362 0.21532 0.51592
 N219 N 0.14505 0.20394 0.49774
 C220 C 0.14174 0.21468 0.53999
 C221 C 0.15878 0.19758 0.54893
 C222 C 0.17182 0.19919 0.57043
 C223 C 0.18522 0.17854 0.57305
 C224 C 0.18002 0.16490 0.55305
 N225 N 0.16383 0.17663 0.53848
 C226 C 0.18912 0.14176 0.54934
 H227 H 0.19435 0.09268 0.53711
 H228 H 0.19082 0.08538 0.49060
 H229 H 0.15462 0.16972 0.52358
 H230 H 0.18804 0.14782 0.41684
 H231 H 0.16487 0.18862 0.41160
 H232 H 0.09949 0.23351 0.47085
 H233 H 0.10116 0.24002 0.51744
 H234 H 0.19735 0.17409 0.58803
 H235 H 0.15245 0.16422 0.48286
 H236 H 0.17170 0.21369 0.58296
 C237 C 0.10227 0.78905 0.49054
 C238 C 0.10031 0.79365 0.51454
 C239 C 0.12314 0.80379 0.52144
 N240 N 0.13887 0.80579 0.50240
 C241 C 0.12613 0.79677 0.48348
 C242 C 0.12998 0.80901 0.54534
 C243 C 0.15216 0.82167 0.55143
 C244 C 0.16289 0.82208 0.57410
 C245 C 0.18401 0.83636 0.57265
 C246 C 0.18543 0.84451 0.54919
 N247 N 0.16587 0.83553 0.53638
 C248 C 0.20398 0.86045 0.54038
 C249 C 0.20848 0.86421 0.51574
 C250 C 0.22381 0.88203 0.50647
 C251 C 0.22485 0.87862 0.48225
 C252 C 0.21019 0.85876 0.47748
 N253 N 0.20016 0.84996 0.49799
 C254 C 0.20788 0.84820 0.45474
 C255 C 0.19079 0.82952 0.44984
 C256 C 0.19231 0.81471 0.43023
 C257 C 0.17225 0.79911 0.43193
 C258 C 0.15886 0.80499 0.45241
 N259 N 0.17024 0.82365 0.46313
 C260 C 0.13639 0.79361 0.46037
 H261 H 0.08782 0.78082 0.47956
 H262 H 0.08408 0.78960 0.52571
 H263 H 0.16316 0.83318 0.47748
 H264 H 0.15642 0.81278 0.58998
 H265 H 0.19692 0.84012 0.58723
 H266 H 0.23336 0.89601 0.51616
 H267 H 0.23541 0.88944 0.46964
 H268 H 0.16819 0.78496 0.41954
 H269 H 0.16083 0.84030 0.51901
 H270 H 0.20660 0.81488 0.41634
 C271 C 0.82488 0.08668 0.48320
 C272 C 0.82516 0.08539 0.50771
 C273 C 0.83239 0.10750 0.51581
 N274 N 0.83670 0.12222 0.49703
 C275 C 0.83228 0.10951 0.47699
 C276 C 0.83336 0.11414 0.54018
 C277 C 0.84385 0.13572 0.54816
 C278 C 0.84064 0.14475 0.57101
 C279 C 0.85458 0.16528 0.57207
 C280 C 0.86590 0.16829 0.54984
 N281 N 0.85938 0.15013 0.53540
 C282 C 0.88271 0.18693 0.54392
 C283 C 0.88971 0.19252 0.52010
 C284 C 0.90884 0.20819 0.51364
 C285 C 0.90840 0.20977 0.48914
 C286 C 0.88920 0.19480 0.48137
 N287 N 0.87775 0.18431 0.50033
 C288 C 0.88184 0.19214 0.45717
 C289 C 0.86544 0.17394 0.44898
 C290 C 0.85510 0.17284 0.42618
 C291 C 0.84164 0.15200 0.42490
 C292 C 0.84340 0.14110 0.44720
 N293 N 0.85838 0.15446 0.46158
 C294 C 0.83274 0.11871 0.45330
 H295 H 0.81951 0.07238 0.47144
 H296 H 0.82032 0.06995 0.51833
 H297 H 0.86547 0.14947 0.47817
 H298 H 0.82941 0.13733 0.58546
 H299 H 0.85615 0.17671 0.58748
 H300 H 0.92182 0.21754 0.52530
 H301 H 0.92094 0.22060 0.47827
 H302 H 0.83215 0.14567 0.40902
 H303 H 0.86725 0.14644 0.51880
 H304 H 0.85725 0.18552 0.41173
 C305 C 0.49607 0.87983 0.77086
 C306 C 0.52182 0.88002 0.77407
 C307 C 0.52754 0.86066 0.78839
 N308 N 0.50608 0.84840 0.79358
 C309 C 0.48679 0.86016 0.78300
 C310 C 0.55237 0.85355 0.79480
 C311 C 0.55747 0.83378 0.80959
 C312 C 0.58108 0.82339 0.81218
 C313 C 0.57861 0.80610 0.82941
 C314 C 0.55362 0.80647 0.83702
 N315 N 0.54088 0.82342 0.82490
 C316 C 0.54369 0.79236 0.85579
 C317 C 0.51743 0.79003 0.86025
 C318 C 0.50685 0.77991 0.88064
 C319 C 0.48117 0.77937 0.87705
 C320 C 0.47687 0.78952 0.85477
 N321 N 0.49904 0.79600 0.84450
 C322 C 0.45294 0.79112 0.84368
 C323 C 0.44820 0.80558 0.82346
 C324 C 0.42670 0.80425 0.80923
 C325 C 0.42898 0.82175 0.79214
 C326 C 0.45184 0.83327 0.79635
 N327 N 0.46337 0.82339 0.81557
 C328 C 0.46113 0.85271 0.78283
 H329 H 0.48550 0.89256 0.76041
 H330 H 0.53472 0.89277 0.76617
 H331 H 0.47943 0.82985 0.82419
 H332 H 0.59845 0.82792 0.80290
 H333 H 0.59364 0.79475 0.83579
 H334 H 0.51655 0.77353 0.89646
 H335 H 0.46723 0.77240 0.88948
 H336 H 0.41543 0.82538 0.77804
 H337 H 0.52286 0.82948 0.82896
 H338 H 0.41104 0.79191 0.81089
 C339 C 0.48586 0.23842 0.14308
 C340 C 0.51177 0.23780 0.14337
 C341 C 0.51854 0.21881 0.15771
 N342 N 0.49750 0.20820 0.16669
 C343 C 0.47740 0.22027 0.15795
 C344 C 0.54370 0.21078 0.16108
 C345 C 0.55066 0.19387 0.17867
 C346 C 0.57445 0.18374 0.18040
 C347 C 0.57412 0.16927 0.20021
 C348 C 0.54996 0.17047 0.20994
 N349 N 0.53595 0.18588 0.19690
 C350 C 0.54194 0.15845 0.23104
 C351 C 0.51644 0.15724 0.23879
 C352 C 0.50848 0.14679 0.26005
 C353 C 0.48252 0.14711 0.25984
 C354 C 0.47532 0.15779 0.23846
 N355 N 0.49612 0.16379 0.22559
 C356 C 0.44997 0.15980 0.23036
 C357 C 0.44276 0.17249 0.20941
 C358 C 0.41849 0.17278 0.19979
 C359 C 0.41906 0.18780 0.18036
 C360 C 0.44360 0.19660 0.17861
 N361 N 0.45778 0.18744 0.19661
 C362 C 0.45164 0.21389 0.16168
 H363 H 0.47489 0.25083 0.13269
 H364 H 0.52411 0.24995 0.13383
 H365 H 0.47584 0.19300 0.20136
 H366 H 0.59059 0.18658 0.16876
 H367 H 0.59016 0.15931 0.20668
 H368 H 0.52007 0.13915 0.27405
 H369 H 0.47044 0.13976 0.27368
 H370 H 0.40296 0.19212 0.16919
 H371 H 0.51833 0.19238 0.20156
 H372 H 0.40178 0.16362 0.20627
 C373 C 0.50768 0.22707 0.87290
 C374 C 0.53286 0.22131 0.87332
 C375 C 0.53560 0.20157 0.85894
 N376 N 0.51274 0.19486 0.85022
 C377 C 0.49565 0.21053 0.85856
 C378 C 0.55842 0.18886 0.85590
 C379 C 0.56087 0.16961 0.84008
 C380 C 0.58063 0.15355 0.84043
 C381 C 0.57700 0.13870 0.82127
 C382 C 0.55534 0.14628 0.80954
 N383 N 0.54565 0.16513 0.82113
 C384 C 0.54531 0.13647 0.78825
 C385 C 0.52007 0.14041 0.78100
 C386 C 0.51011 0.13437 0.75887
 C387 C 0.48461 0.13863 0.76000
 C388 C 0.47982 0.14703 0.78281
 N389 N 0.50154 0.14823 0.79559
 C390 C 0.45543 0.15123 0.79224
 C391 C 0.45125 0.16601 0.81216
 C392 C 0.42794 0.16960 0.82294
 C393 C 0.43167 0.18626 0.84046
 C394 C 0.45729 0.19198 0.84035
 N395 N 0.46894 0.17986 0.82276
 C396 C 0.46909 0.20892 0.85531
 H397 H 0.49913 0.24136 0.88276
 H398 H 0.54722 0.23040 0.88364
 H399 H 0.48734 0.18269 0.81673
 H400 H 0.59610 0.15261 0.85313
 H401 H 0.58896 0.12397 0.81665
 H402 H 0.52010 0.12737 0.74358
 H403 H 0.47106 0.13561 0.74575
 H404 H 0.41700 0.19325 0.85183
 H405 H 0.53109 0.17588 0.81495
 H406 H 0.40997 0.16144 0.81846
 C407 C 0.49849 0.79372 0.10785
 C408 C 0.47265 0.79616 0.10865
 C409 C 0.46797 0.81817 0.11838
 N410 N 0.49010 0.82895 0.12409
 C411 C 0.50880 0.81400 0.11784
 C412 C 0.44390 0.82889 0.12040
 C413 C 0.44018 0.84938 0.13419
 C414 C 0.41952 0.86427 0.13225
 C415 C 0.42231 0.88113 0.14973
 C416 C 0.44437 0.87581 0.16211
 N417 N 0.45528 0.85658 0.15236
 C418 C 0.45322 0.88743 0.18288
 C419 C 0.47849 0.88547 0.19086
 C420 C 0.48714 0.89187 0.21337
 C421 C 0.51293 0.88900 0.21317
 C422 C 0.51921 0.88134 0.19041
 N423 N 0.49808 0.87901 0.17687
 C424 C 0.54408 0.87799 0.18173
 C425 C 0.54883 0.86471 0.16089
 C426 C 0.57175 0.86409 0.14879
 C427 C 0.56910 0.84758 0.13095
 C428 C 0.54458 0.83867 0.13256
 N429 N 0.53239 0.84919 0.15086
 C430 C 0.53494 0.81953 0.11918
 H431 H 0.50834 0.77872 0.10057
 H432 H 0.45900 0.78318 0.10255
 H433 H 0.51503 0.84388 0.15797
 H434 H 0.40407 0.86313 0.11953
 H435 H 0.40943 0.89555 0.15296
 H436 H 0.47603 0.89786 0.22841
 H437 H 0.52554 0.89219 0.22811
 H438 H 0.58380 0.84239 0.11859
 H439 H 0.47054 0.84732 0.15950
 H440 H 0.58877 0.87416 0.15262
 C441 C 0.78703 0.50841 0.90690
 C442 C 0.78957 0.48434 0.90760
 C443 C 0.80754 0.47864 0.89050
 N444 N 0.81599 0.49846 0.87937
 C445 C 0.80328 0.51668 0.88919
 C446 C 0.81695 0.45566 0.88653
 C447 C 0.83295 0.45011 0.86705
 C448 C 0.84754 0.42990 0.86540
 C449 C 0.85902 0.43053 0.84327
 C450 C 0.85127 0.45120 0.83207
 N451 N 0.83540 0.46303 0.84669
 C452 C 0.85765 0.45804 0.80841
 C453 C 0.85429 0.48144 0.80006
 C454 C 0.85409 0.48857 0.77626
 C455 C 0.85299 0.51280 0.77623
 C456 C 0.85237 0.51962 0.80001
 N457 N 0.85300 0.50043 0.81454
 C458 C 0.85299 0.54317 0.80823
 C459 C 0.84467 0.54930 0.83139
 C460 C 0.84784 0.57131 0.84183
 C461 C 0.83481 0.57071 0.86315
 C462 C 0.82440 0.54823 0.86533
 N463 N 0.83045 0.53533 0.84589
 C464 C 0.80782 0.54079 0.88372
 H465 H 0.77498 0.51852 0.91859
 H466 H 0.77946 0.47250 0.91957
 H467 H 0.82260 0.51904 0.84138
 H468 H 0.84973 0.41610 0.87873
 H469 H 0.87166 0.41727 0.83629
 H470 H 0.85471 0.47750 0.76054
 H471 H 0.85261 0.52410 0.76052
 H472 H 0.83304 0.58529 0.87545
 H473 H 0.82472 0.47773 0.84194
 H474 H 0.85802 0.58644 0.83469
 C475 C 0.25633 0.52189 0.13537
 C476 C 0.25529 0.49768 0.13436
 C477 C 0.23243 0.49088 0.14457
 N478 N 0.21973 0.51011 0.15216
 C479 C 0.23436 0.52911 0.14672
 C480 C 0.22281 0.46749 0.14563
 C481 C 0.20157 0.46115 0.15973
 C482 C 0.18777 0.44035 0.15727
 C483 C 0.17014 0.43994 0.17536
 C484 C 0.17367 0.46046 0.18844
 N485 N 0.19284 0.47334 0.17875
 C486 C 0.16053 0.46595 0.20971
 C487 C 0.16070 0.48887 0.21964
 C488 C 0.15237 0.49458 0.24240
 C489 C 0.15394 0.51871 0.24414
 C490 C 0.16365 0.52695 0.22254
 N491 N 0.16760 0.50868 0.20757
 C492 C 0.16676 0.55104 0.21627
 C493 C 0.18062 0.55890 0.19593
 C494 C 0.18225 0.58215 0.18807
 C495 C 0.19933 0.58269 0.16947
 C496 C 0.20775 0.55974 0.16629
 N497 N 0.19642 0.54547 0.18272
 C498 C 0.22726 0.55290 0.15029
 H499 H 0.27167 0.53280 0.12860
 H500 H 0.26979 0.48649 0.12693
 H501 H 0.20144 0.52819 0.18657
 H502 H 0.19024 0.42678 0.14393
 H503 H 0.15644 0.42596 0.17861
 H504 H 0.14581 0.48268 0.25635
 H505 H 0.14849 0.52893 0.25959
 H506 H 0.20550 0.59852 0.16017
 H507 H 0.20154 0.48800 0.18641
 H508 H 0.17292 0.59741 0.19547
 C509 C 0.87677 0.48655 0.22250
 C510 C 0.87518 0.51070 0.22197
 C511 C 0.85119 0.51608 0.21344
 N512 N 0.83833 0.49599 0.20822
 C513 C 0.85399 0.47795 0.21365
 C514 C 0.84080 0.53903 0.21192
 C515 C 0.81751 0.54353 0.20036
 C516 C 0.80296 0.56352 0.20372
 C517 C 0.78233 0.56145 0.18876
 C518 C 0.78506 0.54042 0.17642
 N519 N 0.80657 0.52961 0.18362
 C520 C 0.76880 0.53250 0.15793
 C521 C 0.76964 0.50955 0.14821
 C522 C 0.75750 0.50274 0.12731
 C523 C 0.76228 0.47919 0.12444
 C524 C 0.77710 0.47228 0.14376
 N525 N 0.78139 0.49086 0.15838
 C526 C 0.78464 0.44879 0.14854
 C527 C 0.80010 0.44257 0.16828
 C528 C 0.80277 0.42001 0.17774
 C529 C 0.81993 0.42167 0.19622
 C530 C 0.82811 0.44500 0.19696
 N531 N 0.81588 0.45758 0.17989
 C532 C 0.84768 0.45378 0.21189
 H533 H 0.89300 0.47643 0.22835
 H534 H 0.89007 0.52280 0.22731
 H535 H 0.82019 0.47477 0.17461
 H536 H 0.80673 0.57801 0.21580
 H537 H 0.76719 0.57415 0.18704
 H538 H 0.74639 0.51362 0.11529
 H539 H 0.75516 0.46835 0.10998
 H540 H 0.82602 0.40710 0.20741
 H541 H 0.81484 0.51502 0.17567
 H542 H 0.79354 0.40389 0.17213
 C543 C 0.11283 0.50354 0.78420
 C544 C 0.11382 0.47967 0.78828
 C545 C 0.13729 0.47518 0.79847
 N546 N 0.15053 0.49555 0.80105
 C547 C 0.13558 0.51291 0.79232
 C548 C 0.14703 0.45240 0.80312
 C549 C 0.16961 0.44852 0.81604
 C550 C 0.18324 0.42768 0.81581
 C551 C 0.20366 0.43093 0.83077
 C552 C 0.20173 0.45355 0.84003
 N553 N 0.18087 0.46414 0.83094
 C554 C 0.21843 0.46353 0.85711
 C555 C 0.21931 0.48797 0.86202
 C556 C 0.23257 0.49800 0.88089
 C557 C 0.23005 0.52197 0.87855
 C558 C 0.21543 0.52586 0.85826
 N559 N 0.20885 0.50504 0.84816
 C560 C 0.21017 0.54839 0.84847
 C561 C 0.19360 0.55201 0.82892
 C562 C 0.19339 0.57202 0.81448
 C563 C 0.17466 0.56862 0.79765
 C564 C 0.16366 0.54676 0.80248
 N565 N 0.17531 0.53680 0.82165
 C566 C 0.14290 0.53683 0.78986
 H567 H 0.09717 0.51293 0.77611
 H568 H 0.09907 0.46704 0.78387
 H569 H 0.16969 0.52149 0.83064
 H570 H 0.17909 0.41189 0.80565
 H571 H 0.21830 0.41807 0.83428
 H572 H 0.24303 0.48900 0.89487
 H573 H 0.23831 0.53504 0.89034
 H574 H 0.16988 0.58085 0.78340
 H575 H 0.17334 0.48018 0.83633
 H576 H 0.20576 0.58731 0.81568
 C577 C 0.30629 0.37937 0.04079
 C578 C 0.28690 0.37532 0.05723
 C579 C 0.27533 0.39490 0.07045
 N580 N 0.26205 0.39052 0.09081
 N581 N 0.25162 0.40818 0.10292
 C582 C 0.25385 0.43084 0.09495
 N583 N 0.26685 0.43517 0.07443
 N584 N 0.27749 0.41755 0.06245
 C585 C 0.24244 0.45053 0.10810
 C586 C 0.23520 0.44825 0.13201
 H587 H 0.28053 0.35743 0.06095
 H588 H 0.24011 0.46725 0.09885
 H589 H 0.31378 0.39711 0.03844
 H590 H 0.23696 0.43118 0.14073
 C591 C 0.69801 0.63721 0.06064
 C592 C 0.69038 0.61755 0.07398
 C593 C 0.70707 0.60633 0.09170
 N594 N 0.69906 0.58671 0.10360
 N595 N 0.71446 0.57551 0.11870
 C596 C 0.73845 0.58354 0.12248
 N597 N 0.74638 0.60332 0.11078
 N598 N 0.73096 0.61453 0.09567
 C599 C 0.75624 0.57030 0.13764
 C600 C 0.74951 0.54872 0.14800
 H601 H 0.67201 0.60953 0.07068
 H602 H 0.77563 0.57660 0.13899
 H603 H 0.71618 0.64551 0.06418
 H604 H 0.73048 0.54186 0.14551
 C605 C 0.73739 0.33776 0.96313
 C606 C 0.73926 0.36229 0.96219
 C607 C 0.75693 0.37505 0.94638
 N608 N 0.76257 0.39797 0.95100
 N609 N 0.77712 0.41048 0.93608
 C610 C 0.78639 0.40062 0.91581
 N611 N 0.78072 0.37767 0.91113
 N612 N 0.76636 0.36504 0.92623
 C613 C 0.80044 0.41515 0.89827
 C614 C 0.81025 0.43721 0.90453
 H615 H 0.72739 0.37273 0.97383
 H616 H 0.80111 0.40934 0.87984
 H617 H 0.75079 0.32696 0.95350
 H618 H 0.80954 0.44241 0.92316
 C619 C 0.25772 0.66509 0.94540
 C620 C 0.26792 0.64675 0.93199
 C621 C 0.25337 0.63261 0.91472
 N622 N 0.26546 0.61569 0.90212
 N623 N 0.25274 0.60186 0.88708
 C624 C 0.22738 0.60440 0.88400
 N625 N 0.21525 0.62149 0.89645
 N626 N 0.22802 0.63539 0.91153
 C627 C 0.21299 0.58790 0.86874
 C628 C 0.22478 0.56866 0.85810
 H629 H 0.28772 0.64231 0.93429
 H630 H 0.19258 0.58958 0.86764
 H631 H 0.23823 0.67039 0.94272
 H632 H 0.24505 0.56648 0.86017
 C633 C 0.06182 0.30553 0.36026
 C634 C 0.07505 0.28473 0.35627
 C635 C 0.09080 0.27389 0.37496
 N636 N 0.09726 0.25083 0.37320
 N637 N 0.10976 0.24016 0.39089
 C638 C 0.11640 0.25221 0.41092
 N639 N 0.11041 0.27541 0.41247
 N640 N 0.09774 0.28605 0.39485
 C641 C 0.12862 0.24024 0.43122
 C642 C 0.12886 0.21569 0.43312
 H643 H 0.07163 0.27479 0.34005
 H644 H 0.13618 0.25090 0.44564
 H645 H 0.06434 0.31494 0.37694
 H646 H 0.12207 0.20515 0.41827
 C647 C 0.04385 0.70661 0.63565
 C648 C 0.04834 0.73083 0.63730
 C649 C 0.06541 0.74263 0.61994
 N650 N 0.06798 0.76653 0.61948
 N651 N 0.08248 0.77708 0.60293
 C652 C 0.09487 0.76407 0.58627
 N653 N 0.09244 0.74026 0.58690
 N654 N 0.07802 0.72976 0.60338
 C655 C 0.11012 0.77503 0.56716
 C656 C 0.11430 0.79926 0.56517
 H657 H 0.03824 0.74127 0.65032
 H658 H 0.11830 0.76349 0.55387
 H659 H 0.05365 0.69664 0.62203
 H660 H 0.10806 0.81095 0.57924
 C661 C 0.94667 0.69468 0.36813
 C662 C 0.93251 0.71484 0.36318
 C663 C 0.91462 0.72462 0.38067
 N664 N 0.90381 0.74596 0.37656
 N665 N 0.88825 0.75536 0.39264
 C666 C 0.88283 0.74369 0.41337
 N667 N 0.89343 0.72226 0.41736
 N668 N 0.90905 0.71291 0.40133
 C669 C 0.86672 0.75420 0.43189
 C670 C 0.85798 0.77736 0.43043
 H671 H 0.93532 0.72427 0.34643
 H672 H 0.86274 0.74381 0.44784
 H673 H 0.94433 0.68563 0.38515
 H674 H 0.86056 0.78737 0.41399
 C675 C 0.94423 0.30364 0.63311
 C676 C 0.93833 0.27992 0.63711
 C677 C 0.92455 0.26592 0.61909
 N678 N 0.92382 0.24201 0.62090
 N679 N 0.91307 0.22905 0.60376
 C680 C 0.90262 0.23955 0.58418
 N681 N 0.90303 0.26346 0.58254
 N682 N 0.91384 0.27640 0.59963
 C683 C 0.89177 0.22554 0.56453
 C684 C 0.89333 0.20099 0.56399
 H685 H 0.94628 0.27082 0.65247
 H686 H 0.88294 0.23482 0.54972
 H687 H 0.93721 0.31238 0.61713
 H688 H 0.90086 0.19157 0.57935
 C689 C 0.33623 0.05430 0.28347
 C690 C 0.35853 0.06471 0.29181
 C691 C 0.37277 0.08204 0.27723
 N692 N 0.39033 0.09633 0.28760
 N693 N 0.40394 0.11145 0.27438
 C694 C 0.40068 0.11266 0.25025
 N695 N 0.38324 0.09826 0.23987
 N696 N 0.36944 0.08334 0.25312
 C697 C 0.41661 0.12819 0.23522
 C698 C 0.43025 0.14717 0.24461
 H699 H 0.36576 0.06002 0.30936
 H700 H 0.41815 0.12422 0.21632
 H701 H 0.32806 0.06038 0.26674
 H702 H 0.42888 0.15091 0.26356
 C703 C 0.65989 0.05153 0.70923
 C704 C 0.63408 0.05633 0.70762
 C705 C 0.62173 0.07419 0.72263
 N706 N 0.59613 0.07408 0.72470
 N707 N 0.58458 0.08943 0.73891
 C708 C 0.59817 0.10559 0.75155
 N709 N 0.62379 0.10593 0.74925
 N710 N 0.63538 0.09043 0.73514
 C711 C 0.58542 0.12247 0.76747
 C712 C 0.56011 0.11924 0.77403
 H713 H 0.62210 0.04526 0.69653
 H714 H 0.59599 0.13758 0.77400
 H715 H 0.67168 0.06169 0.72134
 H716 H 0.54992 0.10413 0.76695
 C717 C 0.34652 0.95194 0.72171
 C718 C 0.36648 0.93782 0.71406
 C719 C 0.37967 0.92087 0.72968
 N720 N 0.39966 0.90878 0.72087
 N721 N 0.41268 0.89405 0.73482
 C722 C 0.40619 0.89082 0.75814
 N723 N 0.38602 0.90276 0.76693
 N724 N 0.37299 0.91754 0.75296
 C725 C 0.42127 0.87542 0.77395
 C726 C 0.44370 0.86509 0.76615
 H727 H 0.37350 0.93981 0.69592
 H728 H 0.41550 0.87327 0.79246
 H729 H 0.33909 0.94996 0.73970
 H730 H 0.45013 0.86831 0.74799
 C731 C 0.64118 0.96232 0.27996
 C732 C 0.64604 0.94973 0.25912
 C733 C 0.62520 0.93928 0.24508
 N734 N 0.62967 0.92141 0.22957
 N735 N 0.61082 0.91217 0.21663
 C736 C 0.58691 0.92074 0.21850
 N737 N 0.58254 0.93878 0.23378
 N738 N 0.60129 0.94781 0.24690
 C739 C 0.56578 0.91099 0.20442
 C740 C 0.56619 0.88836 0.19469
 H741 H 0.66534 0.94757 0.25297
 H742 H 0.54889 0.92162 0.20265
 H743 H 0.62204 0.96277 0.28694
 H744 H 0.58347 0.87819 0.19583
 C745 C 0.36586 0.28185 0.95840
 C746 C 0.38608 0.28721 0.94317
 C747 C 0.39869 0.26942 0.92830
 N748 N 0.41616 0.27646 0.91188
 N749 N 0.42826 0.26068 0.89859
 C750 C 0.42346 0.23721 0.90129
 N751 N 0.40603 0.23013 0.91777
 N752 N 0.39381 0.24595 0.93100
 C753 C 0.43720 0.21959 0.88706
 C754 C 0.45315 0.22617 0.86822
 H755 H 0.39299 0.30525 0.94198
 H756 H 0.43499 0.20106 0.89164
 H757 H 0.35811 0.26409 0.95895
 H758 H 0.45616 0.24474 0.86426
 C759 C 0.61686 0.68890 0.95460
 C760 C 0.62337 0.71025 0.94357
 C761 C 0.60714 0.72157 0.92552
 N762 N 0.61260 0.74384 0.91792
 N763 N 0.59761 0.75472 0.90220
 C764 C 0.57668 0.74368 0.89343
 N765 N 0.57136 0.72131 0.90083
 N766 N 0.58630 0.71046 0.91663
 C767 C 0.55943 0.75578 0.87682
 C768 C 0.56198 0.77976 0.87143
 H769 H 0.64035 0.71960 0.94912
 H770 H 0.54370 0.74583 0.86939
 H771 H 0.59958 0.67976 0.94953
 H772 H 0.57841 0.78943 0.87782
 C773 C 0.34824 0.73555 0.03183
 C774 C 0.34257 0.75633 0.04388
 C775 C 0.36302 0.77075 0.05444
 N776 N 0.35826 0.78563 0.07285
 N777 N 0.37695 0.79838 0.08256
 C778 C 0.40099 0.79695 0.07393
 N779 N 0.40560 0.78240 0.05528
 N780 N 0.38701 0.76948 0.04578
 C781 C 0.42215 0.81016 0.08474
 C782 C 0.42137 0.81850 0.10816
 H783 H 0.32309 0.76196 0.04567
 H784 H 0.43958 0.81168 0.07460
 H785 H 0.36761 0.72932 0.03184
 H786 H 0.40357 0.81791 0.11783
 C787 C 0.63243 0.27816 0.04389
 C788 C 0.63810 0.26147 0.06150
 C789 C 0.61828 0.25098 0.07678
 N790 N 0.62431 0.24201 0.09864
 N791 N 0.60642 0.23270 0.11272
 C792 C 0.58191 0.23175 0.10529
 N793 N 0.57596 0.24040 0.08329
 N794 N 0.59379 0.24997 0.06934
 C795 C 0.56189 0.22166 0.12059
 C796 C 0.56424 0.22040 0.14545
 H797 H 0.65768 0.25694 0.06504
 H798 H 0.54434 0.21616 0.11215
 H799 H 0.61316 0.28437 0.04192
 H800 H 0.58204 0.22550 0.15370
 C801 C 0.29211 0.05063 0.63618
 C802 C 0.26963 0.06276 0.64024
 C803 C 0.25851 0.07830 0.62181
 N804 N 0.23572 0.08861 0.62559
 N805 N 0.22503 0.10187 0.60858
 C806 C 0.23678 0.10531 0.58718
 N807 N 0.25963 0.09514 0.58348
 N808 N 0.27029 0.08189 0.60046
 C809 C 0.22491 0.11893 0.56772
 C810 C 0.20119 0.12938 0.56989
 H811 H 0.25934 0.05998 0.65682
 H812 H 0.23488 0.12025 0.55080
 H813 H 0.30220 0.05333 0.61949
 H814 H 0.19183 0.12964 0.58714
 C815 C 0.73900 0.04316 0.34569
 C816 C 0.73737 0.04762 0.37020
 C817 C 0.75509 0.06359 0.38244
 N818 N 0.76455 0.05751 0.40421
 N819 N 0.77959 0.07235 0.41613
 C820 C 0.78529 0.09399 0.40691
 N821 N 0.77558 0.10021 0.38526
 N822 N 0.76093 0.08517 0.37311
 C823 C 0.80024 0.11098 0.42093
 C824 C 0.82110 0.10376 0.43437
 H825 H 0.72388 0.03788 0.38113
 H826 H 0.79394 0.12913 0.42152
 H827 H 0.75473 0.05056 0.33560
 H828 H 0.82690 0.08548 0.43319
 C829 C 0.72230 0.93945 0.65136
 C830 C 0.71213 0.92654 0.63243
 C831 C 0.72695 0.90837 0.61992
 N832 N 0.71617 0.89574 0.60197
 N833 N 0.72973 0.88015 0.58969
 C834 C 0.75461 0.87662 0.59486
 N835 N 0.76534 0.88916 0.61291
 N836 N 0.75176 0.90469 0.62523
 C837 C 0.77032 0.86085 0.58019
 C838 C 0.76014 0.84806 0.56118
 H839 H 0.69320 0.93038 0.62605
 H840 H 0.79063 0.86084 0.58309
 H841 H 0.74103 0.93518 0.65799
 H842 H 0.73993 0.84884 0.55788
 C843 C 0.26616 0.94633 0.34443
 C844 C 0.27656 0.93209 0.36229
 C845 C 0.26142 0.91379 0.37470
 N846 N 0.27169 0.90139 0.39313
 N847 N 0.25774 0.88582 0.40544
 C848 C 0.23299 0.88201 0.39976
 N849 N 0.22282 0.89418 0.38112
 N850 N 0.23677 0.90976 0.36881
 C851 C 0.21672 0.86661 0.41464
 C852 C 0.22557 0.85651 0.43583
 H853 H 0.29590 0.93511 0.36810
 H854 H 0.19672 0.86541 0.41036
 H855 H 0.24684 0.94319 0.33861
 H856 H 0.24536 0.85864 0.44060
 C857 C 0.05341 0.36995 0.70164
 C858 C 0.06042 0.36661 0.72548
 C859 C 0.07970 0.38200 0.73658
 N860 N 0.08420 0.38089 0.76051
 N861 N 0.10054 0.39583 0.77073
 C862 C 0.11301 0.41235 0.75734
 N863 N 0.10874 0.41323 0.73343
 N864 N 0.09244 0.39834 0.72324
 C865 C 0.12946 0.43031 0.76826
 C866 C 0.13378 0.43165 0.79280
 H867 H 0.05074 0.35351 0.73642
 H868 H 0.13712 0.44406 0.75670
 H869 H 0.06290 0.38345 0.69104
 H870 H 0.12799 0.41731 0.80457
 C871 C 0.04991 0.64500 0.28022
 C872 C 0.06836 0.62906 0.28775
 C873 C 0.08611 0.61787 0.27103
 N874 N 0.10521 0.60434 0.27969
 N875 N 0.12080 0.59323 0.26483
 C876 C 0.11782 0.59517 0.24072
 N877 N 0.09874 0.60875 0.23206
 N878 N 0.08321 0.61995 0.24692
 C879 C 0.13386 0.58178 0.22413
 C880 C 0.15455 0.56865 0.23200
 H881 H 0.06971 0.62437 0.30655
 H882 H 0.12846 0.58117 0.20541
 H883 H 0.04923 0.65060 0.26164
 H884 H 0.15959 0.56872 0.25080
 C885 C 0.95182 0.34657 0.27495
 C886 C 0.93464 0.36352 0.28249
 C887 C 0.91793 0.37629 0.26596
 N888 N 0.90328 0.39387 0.27454
 N889 N 0.88919 0.40682 0.25978
 C890 C 0.88924 0.40272 0.23584
 N891 N 0.90367 0.38493 0.22724
 N892 N 0.91784 0.37196 0.24204
 C893 C 0.87440 0.41762 0.21945
 C894 C 0.86170 0.43742 0.22778
 H895 H 0.93460 0.36895 0.30107
 H896 H 0.87401 0.41343 0.20054
 H897 H 0.95174 0.34067 0.25653
 H898 H 0.86386 0.44254 0.24635
 C899 C 0.94477 0.62819 0.70521
 C900 C 0.93259 0.63318 0.72666
 C901 C 0.91950 0.61419 0.73999
 N902 N 0.90220 0.61926 0.75715
 N903 N 0.89073 0.60192 0.76939
 C904 C 0.89636 0.57893 0.76503
 N905 N 0.91381 0.57393 0.74807
 N906 N 0.92507 0.59120 0.73571
 C907 C 0.88477 0.55953 0.77882
 C908 C 0.86289 0.56234 0.79241
 H909 H 0.93303 0.65089 0.73387
 H910 H 0.89400 0.54251 0.77839
 H911 H 0.94266 0.61072 0.69757
 H912 H 0.85412 0.57957 0.79309
 C913 C 0.69306 0.62197 0.96417
 C914 C 0.71689 0.62742 0.95474
 C915 C 0.73034 0.61059 0.93944
 N916 N 0.75565 0.61299 0.93575
 N917 N 0.76809 0.59734 0.92254
 C918 C 0.75561 0.57885 0.91242
 N919 N 0.73027 0.57665 0.91584
 N920 N 0.71787 0.59218 0.92918
 C921 C 0.76894 0.56111 0.89821
 C922 C 0.79523 0.55923 0.89807
 H923 H 0.72649 0.64365 0.95970
 H924 H 0.75768 0.54844 0.88826
 H925 H 0.68443 0.60503 0.96007
 H926 H 0.80676 0.57211 0.90742
 C927 C 0.29363 0.35508 0.94983
 C928 C 0.30081 0.37464 0.93597
 C929 C 0.28266 0.38750 0.92074
 N930 N 0.29026 0.40731 0.90888
 N931 N 0.27380 0.41987 0.89603
 C932 C 0.24908 0.41313 0.89460
 N933 N 0.24151 0.39322 0.90632
 N934 N 0.25798 0.38066 0.91918
 C935 C 0.23052 0.42724 0.88106
 C936 C 0.23724 0.44827 0.86948
 H937 H 0.31987 0.38176 0.93743
 H938 H 0.21097 0.42128 0.88069
 H939 H 0.27460 0.34797 0.94801
 H940 H 0.25650 0.45485 0.87110
 C941 C 0.27099 0.66499 0.04402
 C942 C 0.28139 0.64433 0.05354
 C943 C 0.26794 0.62987 0.07157
 N944 N 0.28054 0.61291 0.08398
 N945 N 0.26837 0.59911 0.09969
 C946 C 0.24309 0.60162 0.10342
 N947 N 0.23048 0.61850 0.09094
 N948 N 0.24269 0.63244 0.07538
 C949 C 0.22912 0.58575 0.11979
 C950 C 0.24129 0.57130 0.13646
 H951 H 0.29986 0.63849 0.04764
 H952 H 0.20865 0.58507 0.11836
 H953 H 0.25333 0.67147 0.05130
 H954 H 0.26178 0.57173 0.13758
 C955 C 0.71522 0.33776 0.05831
 C956 C 0.71063 0.36147 0.06336
 C957 C 0.72378 0.37415 0.08258
 N958 N 0.72932 0.39740 0.07962
 N959 N 0.74098 0.40942 0.09686
 C960 C 0.74717 0.39873 0.11787
 N961 N 0.74128 0.37553 0.12104
 N962 N 0.72997 0.36336 0.10359
 C963 C 0.75942 0.41237 0.13701
 C964 C 0.77638 0.43049 0.13129
 H965 H 0.69887 0.37184 0.05140
 H966 H 0.75417 0.40883 0.15543
 H967 H 0.72899 0.32815 0.06892
 H968 H 0.78102 0.43353 0.11261
 C969 C 0.93831 0.70142 0.63822
 C970 C 0.93371 0.69818 0.61388
 C971 C 0.91431 0.71231 0.60156
 N972 N 0.91941 0.72241 0.57998
 N973 N 0.90231 0.73608 0.56920
 C974 C 0.87937 0.73988 0.57946
 N975 N 0.87408 0.72941 0.60082
 N976 N 0.89136 0.71609 0.61182
 C977 C 0.86028 0.75450 0.56730
 C978 C 0.86731 0.77456 0.55426
 H979 H 0.94635 0.68747 0.60329
 H980 H 0.84057 0.74912 0.56825
 H981 H 0.92736 0.71460 0.64762
 H982 H 0.88712 0.77970 0.55400
 C983 C 0.96575 0.27585 0.34559
 C984 C 0.95118 0.27939 0.36612
 C985 C 0.93811 0.26010 0.37900
 N986 N 0.92422 0.26517 0.39870
 N987 N 0.91308 0.24800 0.41133
 C988 C 0.91543 0.22505 0.40479
 N989 N 0.92922 0.21995 0.38498
 N990 N 0.94036 0.23717 0.37230
 C991 C 0.90401 0.20594 0.41934
 C992 C 0.89061 0.21079 0.44023
 H993 H 0.94982 0.29694 0.37365
 H994 H 0.90708 0.18777 0.41415
 H995 H 0.96652 0.25841 0.33774
 H996 H 0.88881 0.22897 0.44593
 C997 C 0.04550 0.29270 0.64304
 C998 C 0.05817 0.29695 0.62151
 C999 C 0.07526 0.27950 0.61087
 N1000 N 0.08797 0.28494 0.59046
 N1001 N 0.10276 0.26905 0.58006
 C1002 C 0.10540 0.24709 0.58968
 N1003 N 0.09280 0.24167 0.61018
 N1004 N 0.07804 0.25760 0.62062
 C1005 C 0.12027 0.22890 0.57739
 C1006 C 0.13256 0.23370 0.55582
 H1007 H 0.05532 0.31343 0.61192
 H1008 H 0.11982 0.21100 0.58436
 H1009 H 0.04908 0.27644 0.65280
 H1010 H 0.13206 0.25148 0.54852
 C1011 C 0.04557 0.71574 0.35031
 C1012 C 0.05969 0.71101 0.37096
 C1013 C 0.07502 0.72900 0.38334
 N1014 N 0.08610 0.72342 0.40454
 N1015 N 0.09928 0.73954 0.41664
 C1016 C 0.10195 0.76191 0.40800
 N1017 N 0.09108 0.76747 0.38666
 N1018 N 0.07780 0.75133 0.37455
 C1019 C 0.11591 0.77996 0.42175
 C1020 C 0.12407 0.77548 0.44510
 H1021 H 0.05862 0.69365 0.37922
 H1022 H 0.11900 0.79726 0.41382
 H1023 H 0.04671 0.73310 0.34207
 H1024 H 0.11927 0.75872 0.45348
 C1025 C 0.64498 0.95880 0.72372
 C1026 C 0.65390 0.94205 0.73991
 C1027 C 0.63566 0.92888 0.75481
 N1028 N 0.63847 0.90535 0.75869
 N1029 N 0.62053 0.89299 0.77012
 C1030 C 0.59932 0.90379 0.77829
 N1031 N 0.59688 0.92740 0.77497
 N1032 N 0.61462 0.93969 0.76328
 C1033 C 0.57863 0.89034 0.78960
 C1034 C 0.57443 0.86656 0.78467
 H1035 H 0.67361 0.93683 0.73961
 H1036 H 0.56502 0.89980 0.80036
 H1037 H 0.62472 0.96147 0.72217
 H1038 H 0.58793 0.85701 0.77388
 C1039 C 0.33202 0.96001 0.26636
 C1040 C 0.35804 0.95602 0.26668
 C1041 C 0.37121 0.94146 0.24912
 N1042 N 0.39678 0.94306 0.24756
 N1043 N 0.40947 0.92960 0.23235
 C1044 C 0.39709 0.91385 0.21824
 N1045 N 0.37147 0.91209 0.21988
 N1046 N 0.35870 0.92575 0.23501
 C1047 C 0.41133 0.89852 0.20200
 C1048 C 0.43654 0.90360 0.19636
 H1049 H 0.36965 0.96466 0.28010
 H1050 H 0.40215 0.88281 0.19508
 H1051 H 0.32034 0.95306 0.25205
 H1052 H 0.44524 0.91928 0.20388
 C1053 C 0.65788 0.05498 0.28105
 C1054 C 0.63866 0.06812 0.29154
 C1055 C 0.62257 0.08398 0.27720
 N1056 N 0.60693 0.09947 0.28815
 N1057 N 0.59153 0.11318 0.27528
 C1058 C 0.59106 0.11169 0.25100
 N1059 N 0.60661 0.09614 0.24008
 N1060 N 0.62214 0.08259 0.25292
 C1061 C 0.57361 0.12599 0.23649
 C1062 C 0.56096 0.14550 0.24559
 H1063 H 0.63477 0.06621 0.31050
 H1064 H 0.57073 0.12113 0.21794
 H1065 H 0.66258 0.05793 0.26238
 H1066 H 0.56316 0.15007 0.26429
 C1067 C 0.36623 0.04636 0.70982
 C1068 C 0.35932 0.06322 0.72662
 C1069 C 0.37875 0.07694 0.73942
 N1070 N 0.37287 0.09768 0.75012
 N1071 N 0.39060 0.11003 0.76174
 C1072 C 0.41471 0.10186 0.76330
 N1073 N 0.42044 0.08103 0.75286
 N1074 N 0.40283 0.06885 0.74106
 C1075 C 0.43474 0.11487 0.77587
 C1076 C 0.43337 0.13885 0.78127
 H1077 H 0.33950 0.06646 0.73032
 H1078 H 0.45204 0.10540 0.77981
 H1079 H 0.38598 0.04464 0.70484
 H1080 H 0.41590 0.14834 0.77823
 C1081 C 0.61879 0.70174 0.05251
 C1082 C 0.62274 0.72599 0.05452
 C1083 C 0.60655 0.74055 0.06982
 N1084 N 0.60666 0.76439 0.06720
 N1085 N 0.59132 0.77769 0.08033
 C1086 C 0.57545 0.76762 0.09666
 N1087 N 0.57561 0.74382 0.09952
 N1088 N 0.59082 0.73052 0.08629
 C1089 C 0.55785 0.78192 0.11074
 C1090 C 0.55314 0.80547 0.10517
 H1091 H 0.63697 0.73471 0.04357
 H1092 H 0.54749 0.77348 0.12523
 H1093 H 0.60361 0.69329 0.06251
 H1094 H 0.56386 0.81428 0.09115
 C1095 C 0.37553 0.30573 0.05507
 C1096 C 0.36892 0.28499 0.06727
 C1097 C 0.38380 0.27573 0.08751
 N1098 N 0.38085 0.25286 0.09445
 N1099 N 0.39447 0.24403 0.11247
 C1100 C 0.41132 0.25784 0.12444
 N1101 N 0.41399 0.28083 0.11775
 N1102 N 0.40054 0.28961 0.09957
 C1103 C 0.42742 0.24804 0.14356
 C1104 C 0.43209 0.22389 0.14538
 H1105 H 0.35290 0.27458 0.06113
 H1106 H 0.43775 0.26018 0.15496
 H1107 H 0.39247 0.31540 0.06016
 H1108 H 0.42139 0.21170 0.13435
 C1109 C 0.65411 0.27855 0.94628
 C1110 C 0.65501 0.25446 0.94139
 C1111 C 0.64038 0.24434 0.92143
 N1112 N 0.63495 0.22086 0.92104
 N1113 N 0.62020 0.21188 0.90391
 C1114 C 0.61056 0.22603 0.88643
 N1115 N 0.61644 0.24939 0.88656
 N1116 N 0.63102 0.25838 0.90375
 C1117 C 0.59252 0.21701 0.86858
 C1118 C 0.58053 0.19514 0.87102
 H1119 H 0.66488 0.24264 0.95349
 H1120 H 0.58626 0.22897 0.85457
 H1121 H 0.64283 0.29002 0.93497
 H1122 H 0.58675 0.18267 0.88455
 C1123 C 0.33006 0.73594 0.93722
 C1124 C 0.35029 0.72728 0.92398
 C1125 C 0.36434 0.74178 0.90648
 N1126 N 0.38447 0.73237 0.89499
 N1127 N 0.39855 0.74556 0.88026
 C1128 C 0.39307 0.76869 0.87644
 N1129 N 0.37272 0.77806 0.88770
 N1130 N 0.35860 0.76485 0.90246
 C1131 C 0.40985 0.78380 0.86176
 C1132 C 0.43275 0.77530 0.85305
 H1133 H 0.35697 0.70951 0.92735
 H1134 H 0.40534 0.80233 0.85960
 H1135 H 0.32288 0.75348 0.93360
 H1136 H 0.43781 0.75707 0.85653
 C1137 C 0.72431 0.94685 0.34373
 C1138 C 0.71461 0.93604 0.36431
 C1139 C 0.72813 0.91719 0.37722
 N1140 N 0.71718 0.90668 0.39655
 N1141 N 0.72955 0.89032 0.40912
 C1142 C 0.75338 0.88387 0.40285
 N1143 N 0.76429 0.89430 0.38344
 N1144 N 0.75189 0.91062 0.37082
 C1145 C 0.76785 0.86692 0.41747
 C1146 C 0.75744 0.85589 0.43763
 H1147 H 0.69672 0.94191 0.37158
 H1148 H 0.78763 0.86422 0.41318
 H1149 H 0.74179 0.94055 0.33596
 H1150 H 0.73786 0.85928 0.44222
 C1151 C 0.27154 0.95635 0.65025
 C1152 C 0.27912 0.94249 0.63106
 C1153 C 0.26160 0.92714 0.61780
 N1154 N 0.27059 0.91396 0.59954
 N1155 N 0.25498 0.90056 0.58663
 C1156 C 0.22977 0.89986 0.59145
 N1157 N 0.22076 0.91297 0.60981
 N1158 N 0.23640 0.92638 0.62277
 C1159 C 0.21235 0.88576 0.57664
 C1160 C 0.22117 0.87265 0.55737
 H1161 H 0.29862 0.94330 0.62503
 H1162 H 0.19222 0.88637 0.58035
 H1163 H 0.25225 0.95525 0.65681
 H1164 H 0.24119 0.87309 0.55309
 C1165 C 0.27528 0.04050 0.36696
 C1166 C 0.25057 0.04889 0.36740
 C1167 C 0.24088 0.06192 0.38817
 N1168 N 0.21653 0.06944 0.38847
 N1169 N 0.20766 0.08131 0.40718
 C1170 C 0.22279 0.08603 0.42630
 N1171 N 0.24710 0.07844 0.42603
 N1172 N 0.25596 0.06658 0.40734
 C1173 C 0.21368 0.10007 0.44658
 C1174 C 0.18948 0.10966 0.44684
 H1175 H 0.23792 0.04542 0.35252
 H1176 H 0.22689 0.10440 0.46079
 H1177 H 0.28767 0.04369 0.38210
 H1178 H 0.17682 0.10644 0.43190
 C1179 C 0.72260 0.03447 0.63071
 C1180 C 0.74804 0.04093 0.63253
 C1181 C 0.76081 0.05408 0.61310
 N1182 N 0.78578 0.05971 0.61487
 N1183 N 0.79747 0.07143 0.59722
 C1184 C 0.78460 0.07790 0.57714
 N1185 N 0.75966 0.07225 0.57538
 N1186 N 0.74800 0.06056 0.59300
 C1187 C 0.79696 0.09111 0.55759
 C1188 C 0.82226 0.09818 0.55862
 H1189 H 0.75892 0.03578 0.64815
 H1190 H 0.78558 0.09618 0.54226
 H1191 H 0.71194 0.03947 0.61490
 H1192 H 0.83328 0.09448 0.57458
 C1193 C 0.94840 0.62401 0.29985
 C1194 C 0.93299 0.62819 0.27998
 C1195 C 0.91452 0.61048 0.27148
 N1196 N 0.90220 0.61385 0.25039
 N1197 N 0.88594 0.59765 0.24224
 C1198 C 0.88127 0.57755 0.25498
 N1199 N 0.89339 0.57431 0.27617
 N1200 N 0.90972 0.59045 0.28427
 C1201 C 0.86448 0.55885 0.24572
 C1202 C 0.85455 0.55944 0.22257
 H1203 H 0.93489 0.64462 0.27006
 H1204 H 0.86118 0.54341 0.25689
 H1205 H 0.94687 0.60734 0.30939
 H1206 H 0.85630 0.57546 0.21196
 C1207 C 0.95047 0.38101 0.69994
 C1208 C 0.93656 0.37544 0.72047
 C1209 C 0.92323 0.39353 0.73434
 N1210 N 0.90686 0.38698 0.75195
 N1211 N 0.89556 0.40319 0.76539
 C1212 C 0.90043 0.42655 0.76184
 N1213 N 0.91685 0.43309 0.74428
 N1214 N 0.92799 0.41690 0.73073
 C1215 C 0.88887 0.44469 0.77699
 C1216 C 0.86858 0.43986 0.79233
 H1217 H 0.93595 0.35737 0.72698
 H1218 H 0.89674 0.46240 0.77606
 H1219 H 0.94991 0.39877 0.69262
 H1220 H 0.86159 0.42187 0.79385
 C1221 C 0.04477 0.64184 0.71403
 C1222 C 0.05594 0.62018 0.70904
 C1223 C 0.07298 0.60841 0.72629
 N1224 N 0.08313 0.58713 0.72094
 N1225 N 0.09794 0.57597 0.73665
 C1226 C 0.10316 0.58565 0.75834
 N1227 N 0.09309 0.60697 0.76366
 N1228 N 0.07829 0.61814 0.74794
 C1229 C 0.11893 0.57317 0.77615
 C1230 C 0.12916 0.55102 0.77155
 H1231 H 0.05150 0.61126 0.69244
 H1232 H 0.12186 0.58120 0.79351
 H1233 H 0.04929 0.65068 0.73067
 H1234 H 0.12492 0.54260 0.75462
 C1235 C 0.04851 0.37690 0.28987
 C1236 C 0.06706 0.37317 0.27259
 C1237 C 0.08132 0.39292 0.26173
 N1238 N 0.10278 0.38869 0.24915
 N1239 N 0.11580 0.40645 0.23918
 C1240 C 0.10769 0.42908 0.24125
 N1241 N 0.08610 0.43328 0.25363
 N1242 N 0.07320 0.41555 0.26376
 C1243 C 0.12173 0.44887 0.23022
 C1244 C 0.14643 0.44641 0.22180
 H1245 H 0.07162 0.35533 0.26725
 H1246 H 0.11244 0.46584 0.22891
 H1247 H 0.04507 0.39464 0.29622
 H1248 H 0.15516 0.42916 0.22245
   
