data_POSCAR
  _audit_creation_date              2014-09-24
  _audit_creation_method            'ToBaCCo'
  _symmetry_space_group_name_H-M    'P1'
  _symmetry_Int_Tables_number       1
  _symmetry_cell_setting            triclinic
  loop_
  _symmetry_equiv_pos_as_xyz
 x,y,z
_cell_length_a 47.7445
_cell_length_b 49.0381
_cell_length_c 46.7774
_cell_angle_alpha 88.943600
_cell_angle_beta 89.072100
_cell_angle_gamma 89.841800
loop_
  _atom_site_label
  _atom_site_type_symbol
  _atom_site_fract_x
  _atom_site_fract_y
  _atom_site_fract_z
C1 C 0.38582 0.34835 0.32891
 N2 N 0.37180 0.36858 0.31542
 C3 C 0.34627 0.37670 0.32497
 N4 N 0.33433 0.36416 0.34839
 C5 C 0.34837 0.34357 0.36209
 N6 N 0.37397 0.33574 0.35214
 C7 C 0.37345 0.84873 -0.17011
 N8 N 0.36460 0.83539 -0.14602
 C9 C 0.34242 0.84442 -0.13052
 N10 N 0.32877 0.86757 -0.13907
 C11 C 0.33788 0.88147 -0.16307
 N12 N 0.36008 0.87182 -0.17844
 C13 C 0.87515 0.33055 -0.16907
 N14 N 0.86000 0.35254 -0.17819
 C15 C 0.83731 0.36117 -0.16259
 N16 N 0.82994 0.34759 -0.13813
 C17 C 0.84497 0.32576 -0.12893
 N18 N 0.86745 0.31738 -0.14440
 C19 C 0.85959 0.83063 0.32784
 N20 N 0.84378 0.82160 0.35043
 C21 C 0.82004 0.83520 0.35824
 N22 N 0.81207 0.85780 0.34319
 C23 C 0.82772 0.86685 0.32046
 N24 N 0.85132 0.85323 0.31296
 C25 C 0.62059 0.66610 0.32754
 N26 N 0.63512 0.67206 0.35137
 C27 C 0.65826 0.65740 0.35842
 N28 N 0.66677 0.63678 0.34146
 C29 C 0.65254 0.63066 0.31750
 N30 N 0.62945 0.64545 0.31052
 C31 C 0.64069 0.15996 -0.18610
 N32 N 0.65556 0.13679 -0.19142
 C33 C 0.67721 0.12929 -0.17423
 N34 N 0.68380 0.14504 -0.15181
 C35 C 0.66904 0.16800 -0.14613
 N36 N 0.64758 0.17535 -0.16329
 C37 C 0.12166 0.67956 -0.16106
 N38 N 0.13151 0.65753 -0.17535
 C39 C 0.15227 0.64170 -0.16407
 N40 N 0.16356 0.64851 -0.13848
 C41 C 0.15351 0.67058 -0.12421
 N42 N 0.13258 0.68568 -0.13554
 C43 C 0.12884 0.18438 0.34023
 N44 N 0.14528 0.19435 0.36092
 C45 C 0.16872 0.18070 0.36913
 N46 N 0.17587 0.15694 0.35626
 C47 C 0.15948 0.14673 0.33545
 N48 N 0.13606 0.16052 0.32769
 C49 C 0.65130 0.34184 0.64969
 N50 N 0.66695 0.36374 0.65640
 C51 C 0.68788 0.37274 0.63873
 N52 N 0.69311 0.35964 0.61407
 C53 C 0.67796 0.33743 0.60715
 N54 N 0.65699 0.32830 0.62502
 C55 C 0.63403 0.81392 1.15730
 N56 N 0.64937 0.80447 1.13458
 C57 C 0.67548 0.81446 1.12888
 N58 N 0.68610 0.83363 1.14592
 C59 C 0.67111 0.84361 1.16810
 N60 N 0.64495 0.83380 1.17395
 C61 C 0.13527 0.33373 1.17294
 N62 N 0.14894 0.35684 1.18053
 C63 C 0.17326 0.36426 1.16684
 N64 N 0.18376 0.34846 1.14578
 C65 C 0.17044 0.32548 1.13804
 N66 N 0.14622 0.31817 1.15164
 C67 C 0.14451 0.85778 0.67772
 N68 N 0.15613 0.84491 0.65491
 C69 C 0.18117 0.85329 0.64375
 N70 N 0.19461 0.87470 0.65558
 C71 C 0.18316 0.88768 0.67845
 N72 N 0.15812 0.87901 0.68932
 C73 C 0.35647 0.65969 0.68575
 N74 N 0.33953 0.63829 0.69212
 C75 C 0.31618 0.63387 0.67677
 N76 N 0.30976 0.65124 0.65490
 C77 C 0.32664 0.67290 0.64829
 N78 N 0.34991 0.67709 0.66388
 C79 C 0.37705 0.15437 1.18830
 N80 N 0.36309 0.16909 1.16782
 C81 C 0.33935 0.15853 1.15633
 N82 N 0.32968 0.13394 1.16571
 C83 C 0.34367 0.11926 1.18569
 N84 N 0.36731 0.12951 1.19666
 C85 C 0.87285 0.66676 1.16576
 N86 N 0.86580 0.67905 1.14062
 C87 C 0.84499 0.66912 1.12455
 N88 N 0.83085 0.64657 1.13374
 C89 C 0.83754 0.63392 1.15883
 N90 N 0.85861 0.64411 1.17487
 C91 C 0.87892 0.16248 0.66552
 N92 N 0.87078 0.14023 0.68130
 C93 C 0.84913 0.12456 0.67306
 N94 N 0.83549 0.13125 0.64865
 C95 C 0.84327 0.15345 0.63271
 N96 N 0.86498 0.16915 0.64125
 C97 C 0.33147 0.37178 0.68668
 N98 N 0.35459 0.35590 0.69081
 C99 C 0.36127 0.33585 0.67199
 N100 N 0.34467 0.33183 0.64915
 C101 C 0.32173 0.34774 0.64475
 N102 N 0.31522 0.36751 0.66361
 C103 C 0.31782 0.87106 0.17878
 N104 N 0.34236 0.85767 0.18353
 C105 C 0.35066 0.83711 0.16625
 N106 N 0.33431 0.83008 0.14424
 C107 C 0.30972 0.84314 0.13918
 N108 N 0.30141 0.86364 0.15662
 C109 C 0.82591 0.36997 0.15427
 N110 N 0.81763 0.35322 0.13315
 C111 C 0.83307 0.33072 0.12668
 N112 N 0.85657 0.32503 0.14153
 C113 C 0.86482 0.34138 0.16291
 N114 N 0.84941 0.36379 0.16921
 C115 C 0.83357 0.87317 0.64582
 N116 N 0.85656 0.86018 0.65629
 C117 C 0.86574 0.83668 0.64405
 N118 N 0.85153 0.82610 0.62186
 C119 C 0.82861 0.83910 0.61147
 N120 N 0.81996 0.86262 0.62341
 C121 C 0.66318 0.62930 0.68143
 N122 N 0.64150 0.64548 0.68956
 C123 C 0.63394 0.66735 0.67308
 N124 N 0.64830 0.67306 0.64849
 C125 C 0.66999 0.65697 0.64007
 N126 N 0.67736 0.63516 0.65660
 C127 C 0.64518 0.12091 0.14949
 N128 N 0.65595 0.12676 0.12295
 C129 C 0.64512 0.14791 0.10733
 N130 N 0.62416 0.16333 0.11843
 C131 C 0.61395 0.15801 0.14504
 N132 N 0.62449 0.13676 0.16041
 C133 C 0.16630 0.63775 0.17113
 N134 N 0.17675 0.64762 0.14570
 C135 C 0.16365 0.66901 0.13241
 N136 N 0.14039 0.68019 0.14464
 C137 C 0.13016 0.67037 0.17000
 N138 N 0.14327 0.64931 0.18307
 C139 C 0.18240 0.13717 0.67050
 N140 N 0.15870 0.14921 0.68079
 C141 C 0.14761 0.17133 0.66705
 N142 N 0.16053 0.18142 0.64303
 C143 C 0.18423 0.16947 0.63259
 N144 N 0.19504 0.14740 0.64644
 C145 C 0.31062 0.64263 0.32015
 N146 N 0.33572 0.65463 0.31377
 C147 C 0.34633 0.67354 0.33175
 N148 N 0.33179 0.67995 0.35609
 C149 C 0.30678 0.66781 0.36236
 N150 N 0.29635 0.64955 0.34414
 C151 C 0.34829 0.14031 0.83472
 N152 N 0.37033 0.14961 0.81861
 C153 C 0.38493 0.17183 0.82646
 N154 N 0.37742 0.18484 0.85067
 C155 C 0.35559 0.17588 0.86711
 N156 N 0.34080 0.15354 0.85911
 C157 C 0.83919 0.64007 0.79653
 N158 N 0.82856 0.64443 0.82319
 C159 C 0.83428 0.66795 0.83691
 N160 N 0.85103 0.68707 0.82386
 C161 C 0.86134 0.68269 0.79702
 N162 N 0.85509 0.65943 0.78349
 C163 C 0.82308 0.11396 0.32061
 N164 N 0.81852 0.12320 0.34730
 C165 C 0.83336 0.14429 0.35737
 N166 N 0.85340 0.15641 0.34045
 C167 C 0.85856 0.14693 0.31357
 N168 N 0.84322 0.12577 0.30374
 C169 C 0.67830 0.36882 0.33928
 N170 N 0.68645 0.35667 0.36394
 C171 C 0.67544 0.33253 0.37280
 N172 N 0.65553 0.32040 0.35695
 C173 C 0.64670 0.33270 0.33230
 N174 N 0.65835 0.35681 0.32338
 C175 C 0.65813 0.86637 0.82989
 N176 N 0.63245 0.85828 0.82144
 C177 C 0.62016 0.83589 0.83327
 N178 N 0.63377 0.82134 0.85356
 C179 C 0.65936 0.82905 0.86236
 N180 N 0.67185 0.85163 0.85042
 C181 C 0.17003 0.35901 0.85574
 N182 N 0.14805 0.35072 0.83995
 C183 C 0.13527 0.32653 0.84606
 N184 N 0.14468 0.31058 0.86804
 C185 C 0.16666 0.31861 0.88382
 N186 N 0.17929 0.34282 0.87747
 C187 C 0.14311 0.87985 0.34459
 N188 N 0.15862 0.87099 0.36697
 C189 C 0.15449 0.84581 0.37863
 N190 N 0.13472 0.82915 0.36752
 C191 C 0.11917 0.83789 0.34496
 N192 N 0.12356 0.86326 0.33368
 O193 O 0.26558 0.97419 0.25118
 O194 O 0.24870 1.03325 0.29627
 O195 O 0.24201 0.98076 0.30118
 O196 O 0.27225 1.02644 0.24644
 O197 O 0.23123 1.03100 0.22571
 O198 O 0.20099 0.98432 0.28025
 O199 O 0.20756 1.03706 0.27566
 O200 O 0.22469 0.97848 0.23014
 Cu201 Cu 0.26126 1.00327 0.27586
 Cu202 Cu 0.21191 1.00807 0.25095
 C203 C 0.24810 0.96642 0.23280
 C204 C 0.22527 1.04528 0.29358
 C205 C 0.21634 0.97455 0.29989
 C206 C 0.25710 1.03658 0.22687
 O207 O 0.23857 0.52194 0.81079
 O208 O 0.26903 0.46956 0.76326
 O209 O 0.27736 0.52123 0.77106
 O210 O 0.22898 0.46976 0.80173
 O211 O 0.19767 0.48108 0.76936
 O212 O 0.24628 0.53214 0.73828
 O213 O 0.23763 0.48054 0.73084
 O214 O 0.20775 0.53322 0.77794
 Cu215 Cu 0.25644 0.49455 0.79015
 Cu216 Cu 0.21909 0.50777 0.75097
 C217 C 0.21852 0.53695 0.80224
 C218 C 0.25844 0.46625 0.73881
 C219 C 0.27010 0.53537 0.74941
 C220 C 0.20527 0.46626 0.79038
 O221 O 0.72339 -0.04422 0.20834
 O222 O 0.77449 0.00879 0.22542
 O223 O 0.76351 -0.04011 0.24443
 O224 O 0.73450 0.00529 0.18864
 O225 O 0.70523 0.02220 0.22077
 O226 O 0.73233 -0.02503 0.27579
 O227 O 0.74494 0.02409 0.25825
 O228 O 0.69244 -0.02719 0.23876
 Cu229 Cu 0.75185 -0.01923 0.21340
 Cu230 Cu 0.71567 0.00029 0.25148
 C231 C 0.69950 -0.04508 0.22074
 C232 C 0.76853 0.02525 0.24522
 C233 C 0.75273 -0.04054 0.26946
 C234 C 0.71524 0.02194 0.19543
 O235 O 0.77185 0.46440 0.77452
 O236 O 0.73026 0.52106 0.74133
 O237 O 0.72573 0.46785 0.74503
 O238 O 0.76565 0.51651 0.78393
 O239 O 0.79577 0.52120 0.74782
 O240 O 0.75606 0.46897 0.70884
 O241 O 0.76093 0.52150 0.70546
 O242 O 0.80220 0.46851 0.73862
 Cu243 Cu 0.74567 0.49223 0.76441
 Cu244 Cu 0.78177 0.49525 0.72202
 C245 C 0.79444 0.45704 0.76173
 C246 C 0.73894 0.53061 0.71713
 C247 C 0.73356 0.45991 0.72069
 C248 C 0.78696 0.52772 0.77275
 O249 O 0.23847 0.46784 0.21713
 O250 O 0.29040 0.51850 0.23993
 O251 O 0.27697 0.46880 0.25571
 O252 O 0.25229 0.51753 0.20097
 O253 O 0.22116 0.53243 0.23244
 O254 O 0.24641 0.48424 0.28743
 O255 O 0.25895 0.53408 0.27071
 O256 O 0.20778 0.48289 0.24897
 Cu257 Cu 0.26760 0.49144 0.22532
 Cu258 Cu 0.23045 0.50995 0.26301
 C259 C 0.21448 0.46649 0.22935
 C260 C 0.28307 0.53544 0.25885
 C261 C 0.26606 0.46803 0.28069
 C262 C 0.23268 0.53377 0.20775
 O263 O 0.79985 0.97349 0.75508
 O264 O 0.74735 1.02402 0.77994
 O265 O 0.76024 0.97326 0.79438
 O266 O 0.78868 1.02448 0.74311
 O267 O 0.75861 1.01155 0.71065
 O268 O 0.73061 0.96005 0.76169
 O269 O 0.71779 1.01018 0.74743
 O270 O 0.76993 0.96102 0.72234
 Cu271 Cu 0.77691 1.00012 0.77154
 Cu272 Cu 0.74126 0.98417 0.73240
 C273 C 0.79373 0.95893 0.73389
 C274 C 0.72387 1.02599 0.76747
 C275 C 0.74064 0.95778 0.78666
 C276 C 0.77845 1.02686 0.71827
 O277 O 0.77049 0.53234 0.21846
 O278 O 0.72078 0.47876 0.24068
 O279 O 0.72645 0.53127 0.25475
 O280 O 0.76862 0.47985 0.21539
 O281 O 0.79478 0.47459 0.25366
 O282 O 0.75276 0.52393 0.29253
 O283 O 0.74497 0.47178 0.27997
 O284 O 0.79452 0.52629 0.25804
 Cu285 Cu 0.74385 0.50687 0.22914
 Cu286 Cu 0.77346 0.49784 0.27486
 C287 C 0.79085 0.53859 0.23419
 C288 C 0.72456 0.46584 0.26399
 C289 C 0.73278 0.53633 0.28051
 C290 C 0.78909 0.46853 0.22823
 O291 O 0.19547 0.04074 0.78963
 O292 O 0.23201 -0.01291 0.83074
 O293 O 0.23402 0.04070 0.82856
 O294 O 0.19667 -0.01246 0.78890
 O295 O 0.23057 -0.01273 0.75623
 O296 O 0.26762 0.04023 0.79563
 O297 O 0.26567 -0.01331 0.79786
 O298 O 0.22908 0.04031 0.75666
 Cu299 Cu 0.21122 0.01406 0.81275
 Cu300 Cu 0.25171 0.01370 0.77346
 C301 C 0.20590 0.04959 0.76616
 C302 C 0.25481 -0.02263 0.82105
 C303 C 0.25719 0.04972 0.81855
 C304 C 0.20732 -0.02171 0.76591
 O305 O 0.27737 0.28478 0.98031
 O306 O 0.31851 0.25013 1.03457
 O307 O 0.30589 0.23870 0.98058
 O308 O 0.27924 0.28689 1.03493
 O309 O 0.24313 0.25952 1.04252
 O310 O 0.27016 0.21155 0.99064
 O311 O 0.28322 0.22254 1.04499
 O312 O 0.24159 0.25692 0.98780
 Cu313 Cu 0.29885 0.26718 1.00647
 Cu314 Cu 0.25667 0.23464 1.01760
 C315 C 0.25274 0.27740 0.97474
 C316 C 0.30798 0.23107 1.04969
 C317 C 0.29203 0.21699 0.97613
 C318 C 0.25605 0.28134 1.04765
 O319 O 0.22404 0.77839 0.48264
 O320 O 0.26465 0.74033 0.53856
 O321 O 0.27171 0.75113 0.48344
 O322 O 0.22763 0.78008 0.53871
 O323 O 0.19822 0.74555 0.53724
 O324 O 0.24280 0.71648 0.47881
 O325 O 0.23533 0.70607 0.53351
 O326 O 0.19540 0.74316 0.48127
 Cu327 Cu 0.24967 0.76564 0.51110
 Cu328 Cu 0.21533 0.72474 0.50751
 C329 C 0.20247 0.76665 0.47258
 C330 C 0.25630 0.71624 0.54531
 C331 C 0.26514 0.72932 0.47137
 C332 C 0.20576 0.76816 0.54791
 O333 O 0.26666 0.71016 0.02184
 O334 O 0.28614 0.76273 -0.03318
 O335 O 0.29718 0.75334 0.02124
 O336 O 0.26699 0.71163 -0.03383
 O337 O 0.22612 0.73212 -0.02793
 O338 O 0.25727 0.77541 0.02776
 O339 O 0.24474 0.78215 -0.02747
 O340 O 0.22594 0.73105 0.02707
 Cu341 Cu 0.28301 0.73293 -0.00705
 Cu342 Cu 0.23509 0.75738 0.00062
 C343 C 0.24263 0.71199 0.03400
 C344 C 0.26861 0.78151 -0.03955
 C345 C 0.28284 0.77117 0.03410
 C346 C 0.24147 0.71424 -0.04015
 O347 O 0.20581 0.28166 0.47473
 O348 O 0.25405 0.30703 0.52966
 O349 O 0.24397 0.31833 0.47421
 O350 O 0.20709 0.27815 0.52913
 O351 O 0.23657 0.24378 0.52342
 O352 O 0.27349 0.28438 0.46653
 O353 O 0.28262 0.27270 0.52061
 O354 O 0.23464 0.24707 0.46768
 Cu355 Cu 0.22573 0.29981 0.50314
 Cu356 Cu 0.25970 0.25868 0.49385
 C357 C 0.21217 0.25968 0.46199
 C358 C 0.27654 0.29377 0.53458
 C359 C 0.26452 0.30834 0.46054
 C360 C 0.21518 0.25431 0.53575
 O361 O 0.76089 0.78486 0.96835
 O362 O 0.78816 0.73232 1.01723
 O363 O 0.79844 0.74683 0.96376
 O364 O 0.74639 0.76659 1.01927
 O365 O 0.71645 0.73673 1.00274
 O366 O 0.76859 0.71623 0.94857
 O367 O 0.75779 0.70221 1.00204
 O368 O 0.73106 0.75483 0.95195
 Cu369 Cu 0.77649 0.76050 0.99385
 Cu370 Cu 0.74059 0.72451 0.97461
 C371 C 0.74137 0.77879 0.95166
 C372 C 0.77755 0.70862 1.01848
 C373 C 0.79210 0.72818 0.94647
 C374 C 0.72251 0.75499 1.02041
 O375 O 0.74554 0.26479 0.46457
 O376 O 0.79624 0.24475 0.51927
 O377 O 0.79593 0.24480 0.46320
 O378 O 0.74604 0.26584 0.51927
 O379 O 0.72735 0.22469 0.52150
 O380 O 0.77778 0.20344 0.46542
 O381 O 0.77751 0.20364 0.52145
 O382 O 0.72709 0.22353 0.46579
 Cu383 Cu 0.77292 0.25912 0.49145
 Cu384 Cu 0.75077 0.20958 0.49371
 C385 C 0.72753 0.24785 0.45604
 C386 C 0.79526 0.22082 0.53000
 C387 C 0.79511 0.22049 0.45448
 C388 C 0.72797 0.24925 0.52960
 O389 O 0.78298 0.25700 -0.02691
 O390 O 0.75887 0.20435 0.02419
 O391 O 0.76007 0.20941 -0.03146
 O392 O 0.77808 0.25413 0.02820
 O393 O 0.73532 0.27137 0.02762
 O394 O 0.71811 0.22841 -0.03310
 O395 O 0.71615 0.22154 0.02184
 O396 O 0.74086 0.27574 -0.02766
 Cu397 Cu 0.77424 0.22939 -0.00128
 Cu398 Cu 0.72332 0.25105 -0.00268
 C399 C 0.76629 0.27527 -0.03598
 C400 C 0.73318 0.20362 0.03123
 C401 C 0.73606 0.21163 -0.04268
 C402 C 0.75976 0.27065 0.03780
 O403 O 0.77473 0.73293 0.46313
 O404 O 0.72919 0.70854 0.52249
 O405 O 0.72608 0.70896 0.46646
 O406 O 0.77754 0.73285 0.51852
 O407 O 0.75612 0.77280 0.51897
 O408 O 0.70469 0.74892 0.46759
 O409 O 0.70785 0.74854 0.52314
 O410 O 0.75312 0.77281 0.46383
 Cu411 Cu 0.75389 0.71670 0.49255
 Cu412 Cu 0.72825 0.76474 0.49349
 C413 C 0.77176 0.75711 0.45350
 C414 C 0.71097 0.72452 0.53312
 C415 C 0.70679 0.72498 0.45799
 C416 C 0.77563 0.75709 0.52743
 O417 O 1.01815 0.20333 0.24169
 O418 O 0.96859 0.24161 0.19863
 O419 O 1.02179 0.23923 0.20207
 O420 O 0.96320 0.21153 0.24662
 O421 O 0.96723 0.24619 0.27562
 O422 O 1.02449 0.27442 0.23064
 O423 O 0.96961 0.27611 0.22834
 O424 O 1.02160 0.23756 0.27153
 Cu425 Cu 0.99188 0.22054 0.22013
 Cu426 Cu 0.99593 0.26201 0.25450
 C427 C 1.02885 0.21380 0.26346
 C428 C 0.96056 0.26515 0.20576
 C429 C 1.03325 0.26155 0.20897
 C430 C 0.95543 0.22415 0.26896
 O431 O 0.47991 0.27175 0.71429
 O432 O 0.53753 0.23047 0.74790
 O433 O 0.48354 0.23508 0.75467
 O434 O 0.53294 0.26006 0.70012
 O435 O 0.54465 0.29428 0.72742
 O436 O 0.49255 0.27015 0.78193
 O437 O 0.54640 0.26590 0.77475
 O438 O 0.49245 0.30652 0.74049
 Cu439 Cu 0.50770 0.24612 0.72632
 Cu440 Cu 0.51998 0.28762 0.75861
 C441 C 0.47625 0.29625 0.72253
 C442 C 0.55129 0.24154 0.76782
 C443 C 0.47929 0.24815 0.77742
 C444 C 0.54770 0.28090 0.70445
 O445 O -0.01863 0.25796 0.77584
 O446 O 0.03852 0.22010 0.73966
 O447 O -0.01662 0.21937 0.73792
 O448 O 0.03605 0.25651 0.77997
 O449 O 0.03351 0.22399 0.81321
 O450 O -0.01791 0.18740 0.77179
 O451 O 0.03643 0.18810 0.77344
 O452 O -0.02051 0.22565 0.80933
 Cu453 Cu 0.01008 0.24170 0.75488
 Cu454 Cu 0.00762 0.20310 0.79522
 C455 C -0.02926 0.24812 0.79885
 C456 C 0.04734 0.19779 0.75052
 C457 C -0.02625 0.19696 0.74808
 C458 C 0.04366 0.24631 0.80386
 O459 O 0.53577 0.23196 0.23322
 O460 O 0.48899 0.27522 0.27703
 O461 O 0.54290 0.26940 0.27278
 O462 O 0.48368 0.24990 0.22940
 O463 O 0.47637 0.21385 0.25749
 O464 O 0.53563 0.23472 0.30271
 O465 O 0.48190 0.23998 0.30632
 O466 O 0.52889 0.19820 0.26444
 Cu467 Cu 0.51390 0.25961 0.25021
 Cu468 Cu 0.50458 0.21832 0.28520
 C469 C 0.54025 0.20750 0.24179
 C470 C 0.47741 0.26455 0.29932
 C471 C 0.54941 0.25598 0.29511
 C472 C 0.46998 0.22854 0.23565
 O473 O 1.03636 0.79772 0.73129
 O474 O 0.98152 0.77062 0.77936
 O475 O 1.03293 0.75671 0.76775
 O476 O 0.98273 0.80764 0.73909
 O477 O 0.97232 0.77891 0.70509
 O478 O 1.02092 0.72807 0.73422
 O479 O 0.96918 0.74258 0.74537
 O480 O 1.02556 0.76858 0.69782
 Cu481 Cu 1.00979 0.78612 0.75757
 Cu482 Cu 0.99586 0.75164 0.71731
 C483 C 1.04064 0.78784 0.70672
 C484 C 0.96555 0.75230 0.77023
 C485 C 1.03525 0.73360 0.75589
 C486 C 0.96858 0.80154 0.71730
 O487 O 0.45888 0.73700 0.27670
 O488 O 0.51738 0.78189 0.25227
 O489 O 0.46267 0.78639 0.25523
 O490 O 0.51374 0.73367 0.27577
 O491 O 0.51206 0.71616 0.23269
 O492 O 0.46071 0.76917 0.21204
 O493 O 0.51570 0.76439 0.20920
 O494 O 0.45739 0.71980 0.23348
 Cu495 Cu 0.48831 0.76148 0.26926
 Cu496 Cu 0.48619 0.74073 0.21753
 C497 C 0.44810 0.72076 0.25904
 C498 C 0.52685 0.78040 0.22675
 C499 C 0.45271 0.78662 0.23028
 C500 C 0.52194 0.71621 0.25774
 O501 O -0.02953 0.81202 0.22645
 O502 O 0.02645 0.77661 0.18814
 O503 O -0.02779 0.77331 0.18944
 O504 O 0.02460 0.81125 0.22953
 O505 O 0.02428 0.77900 0.26313
 O506 O -0.02835 0.74100 0.22297
 O507 O 0.02629 0.74406 0.22142
 O508 O -0.03048 0.77992 0.26023
 Cu509 Cu -0.00152 0.79649 0.20510
 Cu510 Cu -0.00203 0.75774 0.24532
 C511 C -0.03967 0.80222 0.24958
 C512 C 0.03592 0.75434 0.19807
 C513 C -0.03706 0.75073 0.19940
 C514 C 0.03331 0.80164 0.25320
 O515 O 0.46420 0.70632 0.75576
 O516 O 0.51641 0.73213 0.80613
 O517 O 0.46280 0.73668 0.80059
 O518 O 0.51671 0.69591 0.76615
 O519 O 0.52686 0.73002 0.73626
 O520 O 0.47114 0.77128 0.77072
 O521 O 0.52455 0.76639 0.77584
 O522 O 0.47428 0.74043 0.72587
 Cu523 Cu 0.48911 0.71426 0.78502
 Cu524 Cu 0.50011 0.75536 0.74908
 C525 C 0.46035 0.71927 0.73227
 C526 C 0.52905 0.75420 0.79943
 C527 C 0.45784 0.76078 0.79202
 C528 C 0.53126 0.70587 0.74574
 C529 C 0.41243 0.33894 0.31643
 C530 C 0.42571 0.31699 0.32649
 C531 C 0.44892 0.30487 0.31016
 C532 C 0.45797 0.28003 0.31730
 H533 H 0.41789 0.30646 0.34558
 H534 H 0.45694 0.31517 0.29102
 H535 H 0.42008 0.34907 0.29704
 H536 H 0.44925 0.26973 0.33613
 C537 C 0.39529 0.83824 0.81312
 C538 C 0.40745 0.81443 0.81985
 C539 C 0.42879 0.80157 0.80155
 C540 C 0.43656 0.77607 0.80791
 H541 H 0.40086 0.80330 0.83905
 H542 H 0.43768 0.81248 0.78321
 H543 H 0.40169 0.84915 0.79375
 H544 H 0.42693 0.76559 0.82617
 C545 C -0.10093 0.32019 0.81371
 C546 C -0.08700 0.29765 0.82190
 C547 C -0.06390 0.28562 0.80495
 C548 C -0.05203 0.26234 0.81413
 H549 H -0.09305 0.28722 0.84167
 H550 H -0.05695 0.29541 0.78513
 H551 H -0.09518 0.33070 0.79391
 H552 H -0.05956 0.25287 0.83393
 C553 C -0.11645 0.81619 0.31949
 C554 C -0.10052 0.82439 0.29717
 C555 C -0.07649 0.80844 0.28666
 C556 C -0.06254 0.81731 0.26336
 H557 H -0.10566 0.84307 0.28559
 H558 H -0.07087 0.78936 0.29716
 H559 H -0.11105 0.79763 0.33111
 H560 H -0.06877 0.83636 0.25311
 C561 C 0.59581 0.68266 0.32038
 C562 C 0.58099 0.67920 0.29671
 C563 C 0.55736 0.69752 0.29018
 C564 C 0.54374 0.69620 0.26549
 H565 H 0.58673 0.66342 0.28177
 H566 H 0.55173 0.71307 0.30545
 H567 H 0.58994 0.69873 0.33494
 H568 H 0.54970 0.68099 0.24999
 C569 C 0.61905 0.16820 0.79557
 C570 C 0.60489 0.19157 0.79945
 C571 C 0.58300 0.20205 0.77996
 C572 C 0.57306 0.22719 0.78431
 H573 H 0.60999 0.20415 0.81746
 H574 H 0.57551 0.18986 0.76259
 H575 H 0.61421 0.15567 0.77746
 H576 H 0.58164 0.23874 0.80169
 C577 C 1.10019 0.69799 0.82716
 C578 C 1.08836 0.69499 0.80178
 C579 C 1.06840 0.71575 0.79133
 C580 C 1.05483 0.71279 0.76688
 H581 H 1.09366 0.67767 0.78865
 H582 H 1.06481 0.73384 0.80389
 H583 H 1.09439 0.71542 0.83994
 H584 H 1.05802 0.69448 0.75460
 C585 C 1.10537 0.19922 0.33144
 C586 C 1.08852 0.19043 0.31101
 C587 C 1.06541 0.20723 0.29985
 C588 C 1.05026 0.19780 0.27847
 H589 H 1.09233 0.17077 0.30140
 H590 H 1.06165 0.22746 0.30805
 H591 H 1.10117 0.21877 0.34112
 H592 H 1.05466 0.17760 0.27044
 C593 C 0.62880 0.33354 0.66992
 C594 C 0.60988 0.31431 0.66493
 C595 C 0.58793 0.30804 0.68666
 C596 C 0.56879 0.28881 0.68249
 H597 H 0.61051 0.30336 0.64501
 H598 H 0.58775 0.31898 0.70660
 H599 H 0.62750 0.34441 0.68989
 H600 H 0.56927 0.27762 0.66271
 C601 C 0.60781 0.80218 0.16366
 C602 C 0.59197 0.80843 0.18667
 C603 C 0.56566 0.79345 0.19340
 C604 C 0.55151 0.79706 0.21807
 H605 H 0.59888 0.82381 0.20133
 H606 H 0.55851 0.77838 0.17852
 H607 H 0.60053 0.78641 0.14963
 H608 H 0.55916 0.81167 0.23318
 C609 C 1.11061 0.32589 0.18756
 C610 C 1.09621 0.30331 0.18130
 C611 C 1.07114 0.29475 0.19808
 C612 C 1.05724 0.27198 0.19171
 H613 H 1.10319 0.29050 0.16390
 H614 H 1.06444 0.30681 0.21615
 H615 H 1.10317 0.33852 0.20490
 H616 H 1.06416 0.26005 0.17363
 C617 C 1.11928 0.84922 0.69015
 C618 C 1.10432 0.82832 0.68069
 C619 C 1.07926 0.81934 0.69683
 C620 C 1.06382 0.79831 0.68862
 H621 H 1.11094 0.81728 0.66186
 H622 H 1.07394 0.82965 0.71651
 H623 H 1.11186 0.85993 0.70893
 H624 H 1.06884 0.78808 0.66884
 C625 C 0.38097 0.66421 0.70356
 C626 C 0.39917 0.68416 0.69788
 C627 C 0.42201 0.68973 0.71752
 C628 C 0.43918 0.71058 0.71210
 H629 H 0.39666 0.69718 0.67910
 H630 H 0.42401 0.67758 0.73699
 H631 H 0.38372 0.65113 0.72226
 H632 H 0.43679 0.72267 0.69263
 C633 C 0.40035 0.16407 0.20260
 C634 C 0.41126 0.18904 0.19978
 C635 C 0.43440 0.19667 0.21872
 C636 C 0.44667 0.22104 0.21698
 H637 H 0.40285 0.20376 0.18460
 H638 H 0.44162 0.18187 0.23450
 H639 H 0.40946 0.15025 0.21832
 H640 H 0.44001 0.23571 0.20084
 C641 C -0.10594 0.67771 0.18243
 C642 C -0.09200 0.70039 0.17426
 C643 C -0.07041 0.71294 0.19192
 C644 C -0.05822 0.73621 0.18298
 H645 H -0.09682 0.71049 0.15410
 H646 H -0.06484 0.70350 0.21219
 H647 H -0.10101 0.66776 0.20262
 H648 H -0.06428 0.74541 0.16274
 C649 C -0.09774 0.17964 0.67508
 C650 C -0.08292 0.17256 0.69809
 C651 C -0.06048 0.18967 0.70946
 C652 C -0.04754 0.18127 0.73319
 H653 H -0.08778 0.15364 0.70945
 H654 H -0.05520 0.20902 0.69922
 H655 H -0.09295 0.19838 0.66338
 H656 H -0.05356 0.16193 0.74309
 C657 C 0.33190 0.39760 0.30785
 C658 C 0.30847 0.41058 0.31553
 C659 C 0.29697 0.43084 0.29527
 C660 C 0.27621 0.44795 0.30198
 H661 H 0.29840 0.40661 0.33610
 H662 H 0.30633 0.43203 0.27399
 H663 H 0.34177 0.40281 0.28741
 H664 H 0.26673 0.44727 0.32319
 C665 C 0.32499 -0.09469 0.82701
 C666 C 0.30298 -0.08265 0.83957
 C667 C 0.29084 -0.05806 0.82593
 C668 C 0.26819 -0.04554 0.83654
 H669 H 0.29370 -0.09100 0.85913
 H670 H 0.30024 -0.05053 0.80605
 H671 H 0.33358 -0.08554 0.80747
 H672 H 0.25848 -0.05306 0.85625
 C673 C 0.82075 0.38323 0.82872
 C674 C 0.82574 0.39797 0.80494
 C675 C 0.80682 0.42044 0.79649
 C676 C 0.81234 0.43493 0.77273
 H677 H 0.84370 0.39335 0.79135
 H678 H 0.78833 0.42487 0.80936
 H679 H 0.80274 0.38839 0.84202
 H680 H 0.83097 0.43014 0.76021
 C681 C 0.81880 -0.10991 0.30249
 C682 C 0.79554 -0.09553 0.30762
 C683 C 0.78638 -0.07464 0.28679
 C684 C 0.76344 -0.05960 0.29138
 H685 H 0.78273 -0.09983 0.32651
 H686 H 0.79818 -0.07212 0.26692
 H687 H 0.83143 -0.10516 0.28357
 H688 H 0.75188 -0.06176 0.31143
 C689 C 0.29730 0.61109 0.68453
 C690 C 0.30318 0.59368 0.70598
 C691 C 0.28349 0.57221 0.71539
 C692 C 0.28964 0.55595 0.73769
 H693 H 0.32257 0.59571 0.71748
 H694 H 0.26368 0.57023 0.70464
 H695 H 0.27796 0.60903 0.67296
 H696 H 0.30951 0.55824 0.74828
 C697 C 0.33328 1.09473 0.19669
 C698 C 0.30831 1.08478 0.18980
 C699 C 0.29669 1.06178 0.20644
 C700 C 0.26949 1.05576 0.20585
 H701 H 0.29538 1.09502 0.17402
 H702 H 0.31021 1.05120 0.22144
 H703 H 0.34534 1.08436 0.21311
 H704 H 0.25582 1.06643 0.19109
 C705 C 0.82196 0.61115 0.16779
 C706 C 0.82602 0.59736 0.19237
 C707 C 0.80743 0.57442 0.20055
 C708 C 0.81037 0.56051 0.22518
 H709 H 0.84249 0.60322 0.20669
 H710 H 0.79062 0.56920 0.18634
 H711 H 0.80527 0.60467 0.15400
 H712 H 0.82714 0.56571 0.23942
 C713 C 0.84080 1.10241 0.69034
 C714 C 0.81938 1.08612 0.68409
 C715 C 0.81039 1.06421 0.70412
 C716 C 0.78910 1.04780 0.69797
 H717 H 0.80790 1.08924 0.66447
 H718 H 0.82093 1.06188 0.72439
 H719 H 0.85205 1.09868 0.71000
 H720 H 0.77876 1.05011 0.67760
 C721 C 0.66263 0.60869 0.29873
 C722 C 0.68426 0.59291 0.30627
 C723 C 0.69624 0.57181 0.28765
 C724 C 0.71771 0.55690 0.29722
 H725 H 0.69394 0.59586 0.32679
 H726 H 0.68816 0.56893 0.26640
 H727 H 0.65251 0.60573 0.27846
 H728 H 0.72523 0.56025 0.31864
 C729 C 0.69353 1.10617 0.82072
 C730 C 0.68891 1.08866 0.79978
 C731 C 0.70845 1.06580 0.79500
 C732 C 0.70347 1.04729 0.77519
 H733 H 0.67117 1.09139 0.78581
 H734 H 0.72756 1.06462 0.80719
 H735 H 0.71115 1.10248 0.83466
 H736 H 0.68428 1.04855 0.76315
 C737 C 0.16146 0.61888 0.82069
 C738 C 0.18092 0.60109 0.82987
 C739 C 0.18935 0.57769 0.81199
 C740 C 0.20840 0.55930 0.82066
 H741 H 0.19073 0.60370 0.85038
 H742 H 0.18017 0.57583 0.79107
 H743 H 0.15186 0.61541 0.80021
 H744 H 0.21773 0.56132 0.84148
 C745 C 0.16627 1.12269 0.32126
 C746 C 0.18944 1.10789 0.32595
 C747 C 0.19515 1.08339 0.30887
 C748 C 0.21893 1.06912 0.31143
 H749 H 0.20440 1.11403 0.34177
 H750 H 0.17976 1.07723 0.29347
 H751 H 0.15195 1.11605 0.30502
 H752 H 0.23444 1.07539 0.32663
 C753 C 0.70587 0.39557 0.64679
 C754 C 0.70169 0.40830 0.67141
 C755 C 0.72080 0.42934 0.68151
 C756 C 0.71580 0.43980 0.70715
 H757 H 0.68411 0.40244 0.68514
 H758 H 0.73887 0.43561 0.66872
 H759 H 0.72337 0.40124 0.63290
 H760 H 0.69751 0.43305 0.71940
 C761 C 0.68481 -0.13583 0.18539
 C762 C 0.67218 -0.11372 0.19579
 C763 C 0.69005 -0.09124 0.20534
 C764 C 0.68003 -0.06738 0.21435
 H765 H 0.64967 -0.11122 0.19459
 H766 H 0.71259 -0.09395 0.20380
 H767 H 0.70751 -0.13693 0.18565
 H768 H 0.65770 -0.06439 0.21739
 C769 C 0.18848 0.38731 0.17408
 C770 C 0.18116 0.40468 0.19461
 C771 C 0.20024 0.42728 0.20115
 C772 C 0.19428 0.44534 0.22139
 H773 H 0.16186 0.40197 0.20685
 H774 H 0.22004 0.42873 0.18954
 H775 H 0.20792 0.39095 0.16228
 H776 H 0.17450 0.44407 0.23304
 C777 C 0.19735 -0.09063 0.69088
 C778 C 0.18714 -0.07748 0.71378
 C779 C 0.20268 -0.05529 0.72732
 C780 C 0.19234 -0.04327 0.75078
 H781 H 0.16707 -0.08333 0.72317
 H782 H 0.22280 -0.04908 0.71837
 H783 H 0.21745 -0.08455 0.68176
 H784 H 0.17229 -0.04984 0.75963
 C785 C 0.33603 0.32823 0.38657
 C786 C 0.31159 0.33455 0.39903
 C787 C 0.30022 0.31743 0.42277
 C788 C 0.27728 0.32499 0.43726
 H789 H 0.29989 0.35224 0.39169
 H790 H 0.31069 0.29847 0.42839
 H791 H 0.34765 0.31071 0.39453
 H792 H 0.26726 0.34423 0.43182
 C793 C 0.33409 0.82805 -0.10512
 C794 C 0.30822 0.82710 -0.09393
 C795 C 0.30157 0.80636 -0.07151
 C796 C 0.27561 0.80290 -0.06111
 H797 H 0.29188 0.84018 -0.10239
 H798 H 0.31822 0.79318 -0.06383
 H799 H 0.34968 0.81390 -0.09698
 H800 H 0.25898 0.81629 -0.06838
 C801 C 0.83638 0.31007 -0.10331
 C802 C 0.81172 0.31400 -0.09017
 C803 C 0.80259 0.29544 -0.06697
 C804 C 0.77631 0.29589 -0.05682
 H805 H 0.79755 0.32982 -0.09760
 H806 H 0.81723 0.28019 -0.05917
 H807 H 0.84997 0.29364 -0.09617
 H808 H 0.76157 0.31091 -0.06487
 C809 C 0.80239 0.82539 0.38231
 C810 C 0.80653 0.80124 0.39525
 C811 C 0.78780 0.79187 0.41862
 C812 C 0.79034 0.76688 0.43015
 H813 H 0.82350 0.78807 0.38828
 H814 H 0.77156 0.80554 0.42630
 H815 H 0.78498 0.83812 0.38903
 H816 H 0.80643 0.75318 0.42224
 C817 C 0.68564 0.32377 0.58056
 C818 C 0.68615 0.29672 0.57785
 C819 C 0.70212 0.28530 0.55364
 C820 C 0.70776 0.25873 0.55142
 H821 H 0.67789 0.28344 0.59472
 H822 H 0.71133 0.29946 0.53807
 H823 H 0.69561 0.33645 0.56411
 H824 H 0.69814 0.24404 0.56608
 C825 C 0.69344 0.80527 1.10501
 C826 C 0.68631 0.78719 1.08544
 C827 C 0.70693 0.78029 1.06275
 C828 C 0.70148 0.76230 1.04251
 H829 H 0.66583 0.77772 1.08616
 H830 H 0.72726 0.79009 1.06279
 H831 H 0.71412 0.81437 1.10349
 H832 H 0.68127 0.75230 1.04240
 C833 C 0.18253 0.30808 1.11568
 C834 C 0.20712 0.31377 1.10273
 C835 C 0.21916 0.29535 1.08135
 C836 C 0.24399 0.30032 1.06858
 H837 H 0.21871 0.33187 1.10820
 H838 H 0.20750 0.27719 1.07620
 H839 H 0.17119 0.28985 1.11013
 H840 H 0.25562 0.31852 1.07360
 C841 C 0.19422 0.83925 0.61926
 C842 C 0.18341 0.81691 0.60748
 C843 C 0.19823 0.80385 0.58339
 C844 C 0.18942 0.78074 0.57143
 H845 H 0.16403 0.80814 0.61571
 H846 H 0.21735 0.81344 0.57548
 H847 H 0.21380 0.84748 0.61085
 H848 H 0.17048 0.77083 0.57926
 C849 C 0.31955 0.69232 0.62499
 C850 C 0.29885 0.68722 0.60707
 C851 C 0.29012 0.70661 0.58438
 C852 C 0.26972 0.69900 0.56714
 H853 H 0.28755 0.66812 0.60938
 H854 H 0.29934 0.72674 0.58242
 H855 H 0.33144 0.71104 0.62260
 H856 H 0.26102 0.67868 0.56995
 C857 C 0.32275 0.17294 1.13448
 C858 C 0.33285 0.19183 1.11629
 C859 C 0.31495 0.20248 1.09307
 C860 C 0.32512 0.21950 1.07294
 H861 H 0.35442 0.19847 1.11772
 H862 H 0.29323 0.19616 1.09234
 H863 H 0.30146 0.16585 1.13179
 H864 H 0.34677 0.22598 1.07397
 C865 C 0.83738 0.68408 1.09827
 C866 C 0.81672 0.67657 1.08119
 C867 C 0.80869 0.69459 1.05716
 C868 C 0.78759 0.68864 1.03992
 H869 H 0.80506 0.65799 1.08560
 H870 H 0.81960 0.71385 1.05435
 H871 H 0.84875 0.70276 1.09339
 H872 H 0.77669 0.66937 1.04246
 C873 C 0.82735 0.16028 0.60686
 C874 C 0.83132 0.18315 0.59140
 C875 C 0.81320 0.18943 0.56695
 C876 C 0.81474 0.21338 0.55296
 H877 H 0.84723 0.19764 0.59730
 H878 H 0.79766 0.17457 0.56100
 H879 H 0.81100 0.14625 0.60092
 H880 H 0.82999 0.22838 0.55924
 C881 C 0.67500 0.66395 0.38355
 C882 C 0.67028 0.68593 0.39940
 C883 C 0.68927 0.69273 0.42274
 C884 C 0.68671 0.71630 0.43642
 H885 H 0.65306 0.69958 0.39443
 H886 H 0.70622 0.67883 0.42795
 H887 H 0.69263 0.65076 0.38842
 H888 H 0.67003 0.73033 0.43070
 C889 C 0.67618 0.18507 -0.12169
 C890 C 0.69883 0.18032 -0.10582
 C891 C 0.70538 0.19773 -0.08152
 C892 C 0.72913 0.19442 -0.06704
 H893 H 0.71281 0.16357 -0.11084
 H894 H 0.69063 0.21357 -0.07556
 H895 H 0.66259 0.20217 -0.11683
 H896 H 0.74406 0.17889 -0.07341
 C897 C 0.16499 0.67963 -0.09703
 C898 C 0.19212 0.67836 -0.09087
 C899 C 0.20277 0.69434 -0.06691
 C900 C 0.23014 0.69640 -0.06217
 H901 H 0.20665 0.66785 -0.10495
 H902 H 0.18803 0.70564 -0.05376
 H903 H 0.15113 0.69157 -0.08354
 H904 H 0.24485 0.68479 -0.07501
 C905 C 0.18664 0.19168 0.39152
 C906 C 0.18053 0.21492 0.40492
 C907 C 0.19914 0.22557 0.42683
 C908 C 0.19333 0.24881 0.44034
 H909 H 0.16178 0.22633 0.39962
 H910 H 0.21800 0.21421 0.43184
 H911 H 0.20542 0.18041 0.39703
 H912 H 0.17443 0.26012 0.43537
 C913 C 0.32358 0.39305 0.70749
 C914 C 0.30117 0.40922 0.70360
 C915 C 0.29209 0.42985 0.72451
 C916 C 0.26972 0.44562 0.71908
 H917 H 0.28882 0.40709 0.68453
 H918 H 0.30339 0.43194 0.74425
 H919 H 0.33612 0.39519 0.72641
 H920 H 0.25888 0.44326 0.69909
 C921 C 0.30970 0.89346 0.19788
 C922 C 0.28556 0.90721 0.19580
 C923 C 0.27905 0.92970 0.21540
 C924 C 0.25481 0.94338 0.21400
 H925 H 0.27062 0.90199 0.17958
 H926 H 0.29443 0.93527 0.23104
 H927 H 0.32431 0.89883 0.21436
 H928 H 0.23946 0.93771 0.19836
 C929 C 0.80889 0.39413 0.16158
 C930 C 0.81695 0.41137 0.18165
 C931 C 0.79918 0.43411 0.19138
 C932 C 0.80671 0.44788 0.21438
 H933 H 0.83674 0.40801 0.19223
 H934 H 0.77950 0.43848 0.18100
 H935 H 0.78915 0.39736 0.15090
 H936 H 0.82599 0.44237 0.22504
 C937 C 0.82175 0.89784 0.65865
 C938 C 0.82818 0.90712 0.68439
 C939 C 0.81076 0.92911 0.69636
 C940 C 0.81421 0.93920 0.72242
 H941 H 0.84445 0.89754 0.69700
 H942 H 0.79352 0.93663 0.68356
 H943 H 0.80492 0.90763 0.64695
 H944 H 0.83176 0.93278 0.73532
 C945 C 0.67160 0.60609 0.70001
 C946 C 0.69220 0.58924 0.69217
 C947 C 0.70263 0.56688 0.71072
 C948 C 0.72445 0.55240 0.70126
 H949 H 0.70236 0.59237 0.67147
 H950 H 0.69340 0.56290 0.73169
 H951 H 0.66110 0.60315 0.72054
 H952 H 0.73327 0.55737 0.68026
 C953 C 0.65597 0.09859 0.16763
 C954 C 0.67578 0.08094 0.15956
 C955 C 0.68532 0.06003 0.18027
 C956 C 0.70488 0.04153 0.17373
 H957 H 0.68500 0.08209 0.13825
 H958 H 0.67636 0.06015 0.20172
 H959 H 0.64703 0.09678 0.18906
 H960 H 0.71400 0.04125 0.15237
 C961 C 0.17938 0.61541 0.18727
 C962 C 0.19757 0.59746 0.17660
 C963 C 0.20703 0.57520 0.19565
 C964 C 0.22371 0.55496 0.18710
 H965 H 0.20455 0.59874 0.15445
 H966 H 0.19994 0.57548 0.21780
 H967 H 0.17227 0.61289 0.20931
 H968 H 0.23153 0.55451 0.16524
 C969 C 0.19537 0.11381 0.68551
 C970 C 0.18529 0.10339 0.71018
 C971 C 0.20020 0.08112 0.72509
 C972 C 0.19080 0.07104 0.75018
 H973 H 0.16635 0.11169 0.71977
 H974 H 0.21939 0.07321 0.71565
 H975 H 0.21439 0.10536 0.67625
 H976 H 0.17157 0.07898 0.75950
 C977 C 0.29700 0.62338 0.30124
 C978 C 0.30986 0.60234 0.28889
 C979 C 0.29223 0.58054 0.27742
 C980 C 0.30243 0.55729 0.26697
 H981 H 0.33240 0.59998 0.28982
 H982 H 0.26966 0.58317 0.27876
 H983 H 0.27428 0.62420 0.30131
 H984 H 0.32481 0.55444 0.26417
 C985 C 0.33296 0.11634 0.82451
 C986 C 0.30973 0.10589 0.83675
 C987 C 0.29568 0.08265 0.82324
 C988 C 0.27176 0.07180 0.83352
 H989 H 0.30088 0.11469 0.85598
 H990 H 0.30495 0.07460 0.80381
 H991 H 0.34112 0.10718 0.80514
 H992 H 0.26225 0.07977 0.85284
 C993 C 0.83339 0.61505 0.78098
 C994 C 0.82228 0.59305 0.79366
 C995 C 0.81490 0.56920 0.77683
 C996 C 0.80045 0.54894 0.78918
 H997 H 0.81747 0.59306 0.81641
 H998 H 0.81909 0.56926 0.75397
 H999 H 0.83855 0.61477 0.75833
 H1000 H 0.79526 0.54982 0.81181
 C1001 C 0.80484 0.09215 0.31057
 C1002 C 0.80717 0.08078 0.28494
 C1003 C 0.78648 0.06021 0.27679
 C1004 C 0.78937 0.04581 0.25300
 H1005 H 0.82388 0.08670 0.27016
 H1006 H 0.76853 0.05659 0.29085
 H1007 H 0.78819 0.08545 0.32509
 H1008 H 0.80769 0.04868 0.23930
 C1009 C 0.69249 0.39422 0.33027
 C1010 C 0.68928 0.40670 0.30494
 C1011 C 0.70708 0.43036 0.29733
 C1012 C 0.70531 0.44345 0.27215
 H1013 H 0.67459 0.39896 0.28965
 H1014 H 0.72256 0.43678 0.31252
 H1015 H 0.70756 0.40231 0.34500
 H1016 H 0.68970 0.43735 0.25698
 C1017 C 0.67089 0.88975 0.81448
 C1018 C 0.69571 0.90067 0.82021
 C1019 C 0.70668 0.92258 0.80114
 C1020 C 0.72970 0.93676 0.80687
 H1021 H 0.70785 0.89327 0.83814
 H1022 H 0.69550 0.92717 0.78163
 H1023 H 0.65911 0.89807 0.79667
 H1024 H 0.74067 0.93291 0.82665
 C1025 C 0.18501 0.38463 0.84895
 C1026 C 0.17685 0.40239 0.82869
 C1027 C 0.19414 0.42645 0.82129
 C1028 C 0.18661 0.44418 0.80073
 H1029 H 0.15791 0.39875 0.81689
 H1030 H 0.21394 0.42900 0.83195
 H1031 H 0.20387 0.38869 0.86073
 H1032 H 0.16687 0.44149 0.79001
 C1033 C 0.14881 0.90621 0.33037
 C1034 C 0.17082 0.92133 0.33706
 C1035 C 0.17938 0.94447 0.31871
 C1036 C 0.20488 0.95508 0.32108
 H1037 H 0.18416 0.91516 0.35459
 H1038 H 0.16581 0.95117 0.30158
 H1039 H 0.13603 0.91212 0.31231
 H1040 H 0.21863 0.94767 0.33775
 C1041 C 0.38577 0.31770 0.67625
 C1042 C 0.40683 0.32383 0.69347
 C1043 C 0.43092 0.30515 0.69793
 C1044 C 0.45281 0.31363 0.71281
 H1045 H 0.40635 0.34305 0.70457
 H1046 H 0.43026 0.28448 0.69016
 H1047 H 0.38677 0.29900 0.66427
 H1048 H 0.45270 0.33443 0.72033
 C1049 C 0.37658 0.82148 0.17122
 C1050 C 0.39273 0.82474 0.19395
 C1051 C 0.41672 0.80633 0.19889
 C1052 C 0.43106 0.80699 0.22315
 H1053 H 0.38752 0.84007 0.20959
 H1054 H 0.42175 0.79106 0.18312
 H1055 H 0.38187 0.80573 0.15606
 H1056 H 0.42558 0.82194 0.23912
 C1057 C 0.88928 0.33405 0.18036
 C1058 C 0.90500 0.31225 0.17441
 C1059 C 0.92728 0.30229 0.19339
 C1060 C 0.94026 0.27895 0.18719
 H1061 H 0.90052 0.30050 0.15561
 H1062 H 0.93199 0.31304 0.21277
 H1063 H 0.89367 0.34601 0.19902
 H1064 H 0.93474 0.26843 0.16787
 C1065 C 0.89049 0.82190 0.65458
 C1066 C 0.90672 0.83065 0.67556
 C1067 C 0.93039 0.81360 0.68506
 C1068 C 0.94690 0.82050 0.70661
 H1069 H 0.90230 0.84980 0.68594
 H1070 H 0.93379 0.79429 0.67458
 H1071 H 0.89546 0.80270 0.64450
 H1072 H 0.94358 0.83964 0.71739
 C1073 C 0.62450 0.32050 0.31510
 C1074 C 0.61073 0.29770 0.32291
 C1075 C 0.58788 0.28748 0.30517
 C1076 C 0.57294 0.26526 0.31258
 H1077 H 0.61589 0.28689 0.34256
 H1078 H 0.58292 0.29874 0.28573
 H1079 H 0.61887 0.33112 0.29548
 H1080 H 0.57782 0.25392 0.33198
 C1081 C 0.59357 0.82622 0.82203
 C1082 C 0.58252 0.80218 0.83000
 C1083 C 0.55901 0.79120 0.81418
 C1084 C 0.54951 0.76586 0.81883
 H1085 H 0.59208 0.78972 0.84656
 H1086 H 0.55043 0.80365 0.79701
 H1087 H 0.58400 0.83822 0.80509
 H1088 H 0.55749 0.75338 0.83626
 C1089 C 0.11219 0.31726 0.82802
 C1090 C 0.09897 0.29369 0.83341
 C1091 C 0.07710 0.28323 0.81465
 C1092 C 0.06468 0.25958 0.82147
 H1093 H 0.10475 0.28138 0.85190
 H1094 H 0.07161 0.29439 0.79531
 H1095 H 0.10638 0.32973 0.80967
 H1096 H 0.07050 0.24892 0.84102
 C1097 C 0.09849 0.81967 0.33194
 C1098 C 0.08544 0.82700 0.30781
 C1099 C 0.06512 0.80933 0.29369
 C1100 C 0.05399 0.81752 0.26886
 H1101 H 0.09000 0.84663 0.29778
 H1102 H 0.05935 0.78988 0.30344
 H1103 H 0.09439 0.79992 0.34187
 H1104 H 0.06026 0.83698 0.25942
 C1105 C 0.61064 0.68521 0.68169
 C1106 C 0.59374 0.67875 0.70371
 C1107 C 0.57083 0.69686 0.71273
 C1108 C 0.55361 0.68876 0.73387
 H1109 H 0.59685 0.65974 0.71546
 H1110 H 0.56835 0.71675 0.70256
 H1111 H 0.60719 0.70392 0.66954
 H1112 H 0.55640 0.66870 0.74360
 C1113 C 0.59343 0.17674 0.15783
 C1114 C 0.58545 0.17397 0.18513
 C1115 C 0.56705 0.19388 0.19904
 C1116 C 0.55875 0.18920 0.22596
 H1117 H 0.59315 0.15692 0.19788
 H1118 H 0.56030 0.21204 0.18747
 H1119 H 0.58586 0.19381 0.14506
 H1120 H 0.56509 0.17049 0.23683
 C1121 C 0.10566 0.68255 0.18425
 C1122 C 0.09308 0.70503 0.17442
 C1123 C 0.06982 0.71728 0.19069
 C1124 C 0.05843 0.74076 0.18196
 H1125 H 0.10044 0.71488 0.15477
 H1126 H 0.06236 0.70732 0.21024
 H1127 H 0.09831 0.67312 0.20413
 H1128 H 0.06609 0.75063 0.16244
 C1129 C 0.12233 0.18515 0.67832
 C1130 C 0.10852 0.17644 0.70186
 C1131 C 0.08417 0.19157 0.71335
 C1132 C 0.07074 0.18277 0.73707
 H1133 H 0.11550 0.15821 0.71316
 H1134 H 0.07759 0.21028 0.70270
 H1135 H 0.11515 0.20334 0.66710
 H1136 H 0.07755 0.16404 0.74754
 C1137 C 0.37270 0.68833 0.32486
 C1138 C 0.38662 0.68636 0.29985
 C1139 C 0.41157 0.70348 0.29327
 C1140 C 0.42429 0.70290 0.26753
 H1141 H 0.37908 0.67274 0.28371
 H1142 H 0.41906 0.71722 0.30933
 H1143 H 0.38025 0.70235 0.34062
 H1144 H 0.41643 0.68927 0.25154
 C1145 C 0.40814 0.18202 0.80818
 C1146 C 0.42253 0.20460 0.81403
 C1147 C 0.44446 0.21466 0.79412
 C1148 C 0.45850 0.23779 0.79854
 H1149 H 0.41774 0.21603 0.83312
 H1150 H 0.44876 0.20306 0.77502
 H1151 H 0.41309 0.17092 0.78890
 H1152 H 0.45428 0.24948 0.81758
 C1153 C 0.87950 0.70218 0.78182
 C1154 C 0.89830 0.71740 0.79481
 C1155 C 0.92034 0.73048 0.77721
 C1156 C 0.94245 0.74235 0.78862
 H1157 H 0.89914 0.71778 0.81794
 H1158 H 0.91923 0.72902 0.75413
 H1159 H 0.88016 0.70093 0.75868
 H1160 H 0.94357 0.74481 0.81155
 C1161 C 0.88066 0.15884 0.29475
 C1162 C 0.89595 0.18054 0.30156
 C1163 C 0.91818 0.19093 0.28187
 C1164 C 0.93269 0.21339 0.28774
 H1165 H 0.89218 0.19062 0.32169
 H1166 H 0.92275 0.18002 0.26239
 H1167 H 0.88449 0.14921 0.27438
 H1168 H 0.92780 0.22436 0.30711
 C1169 C 0.30335 0.34359 0.62018
 C1170 C 0.30933 0.32566 0.59981
 C1171 C 0.28993 0.32090 0.57622
 C1172 C 0.29593 0.30191 0.55697
 H1173 H 0.32852 0.31384 0.60083
 H1174 H 0.27033 0.33207 0.57526
 H1175 H 0.28424 0.35551 0.61896
 H1176 H 0.31541 0.29060 0.55861
 C1177 C 0.29202 0.83444 0.11531
 C1178 C 0.30169 0.81619 0.09659
 C1179 C 0.28484 0.80472 0.07354
 C1180 C 0.29691 0.78624 0.05661
 H1181 H 0.32297 0.80872 0.09862
 H1182 H 0.26308 0.81048 0.07103
 H1183 H 0.27101 0.84260 0.11340
 H1184 H 0.31872 0.78096 0.05991
 C1185 C 0.82485 0.31191 0.10416
 C1186 C 0.79945 0.31184 0.09263
 C1187 C 0.79259 0.29168 0.07084
 C1188 C 0.76675 0.28975 0.06055
 H1189 H 0.78363 0.32630 0.09954
 H1190 H 0.80902 0.27834 0.06297
 H1191 H 0.84012 0.29675 0.09761
 H1192 H 0.75037 0.30315 0.06842
 C1193 C 0.81212 0.82798 0.58814
 C1194 C 0.81517 0.80268 0.57840
 C1195 C 0.79574 0.79273 0.55682
 C1196 C 0.79623 0.76697 0.54795
 H1197 H 0.83106 0.78917 0.58704
 H1198 H 0.78013 0.80676 0.54852
 H1199 H 0.79561 0.84087 0.57964
 H1200 H 0.81180 0.75284 0.55609
 C1201 C 0.28988 0.67431 0.38802
 C1202 C 0.29705 0.69291 0.40696
 C1203 C 0.27799 0.69944 0.43110
 C1204 C 0.28403 0.71979 0.44841
 H1205 H 0.31658 0.70395 0.40418
 H1206 H 0.25852 0.68834 0.43402
 H1207 H 0.27016 0.66362 0.39099
 H1208 H 0.30333 0.73103 0.44483
 C1209 C 0.34840 0.19153 0.89274
 C1210 C 0.32771 0.18515 0.91109
 C1211 C 0.32152 0.20326 0.93523
 C1212 C 0.30048 0.19799 0.95354
 H1213 H 0.31506 0.16715 0.90798
 H1214 H 0.33377 0.22167 0.93746
 H1215 H 0.36077 0.20962 0.89640
 H1216 H 0.28809 0.17971 0.95108
 C1217 C 0.82044 0.67288 0.86477
 C1218 C 0.82496 0.69494 0.88046
 C1219 C 0.80734 0.70005 0.90605
 C1220 C 0.81190 0.72112 0.92315
 H1221 H 0.84069 0.70975 0.87382
 H1222 H 0.78955 0.68681 0.91031
 H1223 H 0.80491 0.65812 0.87207
 H1224 H 0.82998 0.73408 0.91932
 C1225 C 0.82634 0.15334 0.38637
 C1226 C 0.82968 0.17873 0.39548
 C1227 C 0.81551 0.18659 0.42237
 C1228 C 0.81383 0.21245 0.43067
 H1229 H 0.84016 0.19394 0.38208
 H1230 H 0.80430 0.17098 0.43463
 H1231 H 0.81459 0.13897 0.39976
 H1232 H 0.82510 0.22823 0.41878
 C1233 C 0.68642 0.32012 0.39907
 C1234 C 0.68602 0.29341 0.40509
 C1235 C 0.70300 0.28317 0.42899
 C1236 C 0.70716 0.25665 0.43439
 H1237 H 0.67550 0.27934 0.39128
 H1238 H 0.71379 0.29802 0.44171
 H1239 H 0.69817 0.33350 0.41264
 H1240 H 0.69607 0.24142 0.42250
 C1241 C 0.67314 0.81104 0.88323
 C1242 C 0.69748 0.81603 0.89559
 C1243 C 0.70874 0.79528 0.91548
 C1244 C 0.73082 0.79988 0.93173
 H1245 H 0.70869 0.83488 0.89123
 H1246 H 0.69829 0.77568 0.91713
 H1247 H 0.66224 0.79221 0.88869
 H1248 H 0.74111 0.81956 0.93071
 C1249 C 0.17721 0.30053 0.90693
 C1250 C 0.20071 0.30624 0.92073
 C1251 C 0.21264 0.28789 0.94280
 C1252 C 0.23787 0.29364 0.95300
 H1253 H 0.21207 0.32474 0.91510
 H1254 H 0.20132 0.26992 0.95022
 H1255 H 0.16597 0.28185 0.91202
 H1256 H 0.24879 0.31154 0.94467
 C1257 C 0.17257 0.83683 0.40231
 C1258 C 0.17002 0.81245 0.41506
 C1259 C 0.18901 0.80341 0.43800
 C1260 C 0.18484 0.77907 0.45039
 H1261 H 0.15376 0.79869 0.40831
 H1262 H 0.20625 0.81617 0.44436
 H1263 H 0.18872 0.85065 0.40917
 H1264 H 0.16733 0.76687 0.44352
 C1265 C 0.68596 0.66328 0.61357
 C1266 C 0.68043 0.68531 0.59737
 C1267 C 0.69749 0.69219 0.57179
 C1268 C 0.69331 0.71568 0.55756
 H1269 H 0.66355 0.69898 0.60341
 H1270 H 0.71408 0.67843 0.56515
 H1271 H 0.70305 0.64982 0.60762
 H1272 H 0.67702 0.72952 0.56478
 C1273 C 0.65725 0.15659 0.07979
 C1274 C 0.68486 0.15750 0.07528
 C1275 C 0.69605 0.17545 0.05240
 C1276 C 0.72314 0.18189 0.05078
 H1277 H 0.69897 0.14832 0.09066
 H1278 H 0.68147 0.18546 0.03804
 H1279 H 0.64355 0.16752 0.06524
 H1280 H 0.73805 0.17159 0.06450
 C1281 C 0.17416 0.68130 0.10538
 C1282 C 0.19946 0.67665 0.09369
 C1283 C 0.20833 0.69322 0.06847
 C1284 C 0.23414 0.69228 0.05685
 H1285 H 0.21378 0.66216 0.10340
 H1286 H 0.19334 0.70776 0.05992
 H1287 H 0.16069 0.69649 0.09548
 H1288 H 0.24939 0.67778 0.06491
 C1289 C 0.19911 0.18069 0.60711
 C1290 C 0.19065 0.20337 0.59352
 C1291 C 0.20701 0.21551 0.56950
 C1292 C 0.19920 0.23949 0.55822
 H1293 H 0.17183 0.21375 0.60080
 H1294 H 0.22582 0.20542 0.56179
 H1295 H 0.21806 0.17050 0.59995
 H1296 H 0.18055 0.24943 0.56660
   
