data_POSCAR
  _audit_creation_date              2014-09-24
  _audit_creation_method            'ToBaCCo'
  _symmetry_space_group_name_H-M    'P1'
  _symmetry_Int_Tables_number       1
  _symmetry_cell_setting            triclinic
  loop_
  _symmetry_equiv_pos_as_xyz
 x,y,z
_cell_length_a 58.0973
_cell_length_b 57.9328
_cell_length_c 57.0477
_cell_angle_alpha 88.478400
_cell_angle_beta 88.188500
_cell_angle_gamma 88.155300
loop_
  _atom_site_label
  _atom_site_type_symbol
  _atom_site_fract_x
  _atom_site_fract_y
  _atom_site_fract_z
C1 C 0.10396 0.01565 0.23492
 C2 C 0.12223 0.03381 0.23257
 C3 C 0.13805 0.03300 0.25087
 C4 C 0.13366 0.01340 0.26907
 C5 C 0.11723 -0.00734 0.23663
 C6 C 0.13321 -0.00885 0.25500
 C7 C 0.09269 0.01887 0.25918
 C8 C 0.10857 0.01740 0.27775
 H9 H 0.12234 0.04704 0.21876
 H10 H 0.14618 0.01216 0.28339
 H11 H 0.11522 -0.02061 0.22396
 H12 H 0.07422 0.02076 0.26163
 C13 C 0.37884 0.00678 0.72963
 C14 C 0.36255 -0.01316 0.72998
 C15 C 0.34579 -0.01290 0.74866
 C16 C 0.34762 0.00842 0.76416
 C17 C 0.36330 0.02829 0.72872
 C18 C 0.34679 0.02976 0.74734
 C19 C 0.38905 0.00629 0.75249
 C20 C 0.37279 0.00692 0.77199
 H21 H 0.36338 -0.02553 0.71611
 H22 H 0.33460 0.00899 0.77883
 H23 H 0.36629 0.04242 0.71625
 H24 H 0.40753 0.00555 0.75414
 C25 C 0.88709 0.49519 0.22150
 C26 C 0.86888 0.47703 0.22073
 C27 C 0.85132 0.47886 0.23854
 C28 C 0.85475 0.49921 0.25483
 C29 C 0.87398 0.51834 0.22070
 C30 C 0.85671 0.52094 0.23880
 C31 C 0.89636 0.49295 0.24617
 C32 C 0.87907 0.49523 0.26431
 H33 H 0.87104 0.46277 0.20896
 H34 H 0.84110 0.50088 0.26884
 H35 H 0.87945 0.53206 0.20881
 H36 H 0.91452 0.49010 0.24906
 C37 C 0.61709 0.50183 0.71485
 C38 C 0.63538 0.51987 0.71372
 C39 C 0.64572 0.52338 0.73537
 C40 C 0.63690 0.50711 0.75540
 C41 C 0.62931 0.48005 0.72401
 C42 C 0.63990 0.48250 0.74589
 C43 C 0.60022 0.50900 0.73451
 C44 C 0.61047 0.51128 0.75653
 H45 H 0.63919 0.53015 0.69800
 H46 H 0.64569 0.50915 0.77211
 H47 H 0.63101 0.46462 0.71374
 H48 H 0.58174 0.51012 0.73233
 C49 C 0.22478 0.11881 1.00803
 C50 C 0.23020 0.12854 1.03159
 C51 C 0.25106 0.14048 1.03205
 C52 C 0.26419 0.14094 1.00838
 C53 C 0.22628 0.13897 0.99060
 C54 C 0.24720 0.15090 0.99053
 C55 C 0.24499 0.10258 1.00190
 C56 C 0.26830 0.11336 1.00173
 H57 H 0.21792 0.12779 1.04621
 H58 H 0.28052 0.15041 1.00861
 H59 H 0.21313 0.14211 0.97781
 H60 H 0.24304 0.08448 0.99840
 C61 C 0.72873 0.39554 0.99218
 C62 C 0.72952 0.38057 0.97222
 C63 C 0.74793 0.36391 0.97165
 C64 C 0.76374 0.36570 0.99223
 C65 C 0.72927 0.38087 1.01318
 C66 C 0.74792 0.36435 1.01398
 C67 C 0.75160 0.40788 0.99116
 C68 C 0.77209 0.39320 0.99128
 H69 H 0.71786 0.38324 0.95788
 H70 H 0.77838 0.35285 0.99219
 H71 H 0.71712 0.38362 1.02767
 H72 H 0.75262 0.42653 0.99112
 C73 C 0.23310 0.89901 0.50234
 C74 C 0.23747 0.88616 0.47975
 C75 C 0.25680 0.87063 0.47968
 C76 C 0.26976 0.87035 0.50263
 C77 C 0.23243 0.88062 0.52186
 C78 C 0.25192 0.86518 0.52219
 C79 C 0.25479 0.91211 0.50587
 C80 C 0.27657 0.89763 0.50640
 H81 H 0.22540 0.88780 0.46572
 H82 H 0.28505 0.85829 0.50266
 H83 H 0.21892 0.88099 0.53531
 H84 H 0.25475 0.93062 0.50813
 C85 C 0.72005 0.61046 0.51007
 C86 C 0.72118 0.62484 0.53174
 C87 C 0.73946 0.64033 0.53122
 C88 C 0.75410 0.63978 0.50809
 C89 C 0.71856 0.62779 0.48980
 C90 C 0.73695 0.64314 0.48799
 C91 C 0.74389 0.59868 0.50744
 C92 C 0.76237 0.61441 0.50659
 H93 H 0.71031 0.62178 0.54724
 H94 H 0.76826 0.65218 0.50732
 H95 H 0.70583 0.62675 0.47640
 H96 H 0.74604 0.58012 0.50679
 C97 C 0.01164 0.22542 0.11574
 C98 C 0.03080 0.22084 0.13290
 C99 C 0.03257 0.23804 0.14977
 C100 C 0.01392 0.25751 0.14763
 C101 C -0.01024 0.22805 0.13090
 C102 C -0.00935 0.24528 0.14822
 C103 C 0.01567 0.24953 0.10531
 C104 C 0.01677 0.26701 0.12233
 H105 H 0.04292 0.20628 0.13146
 H106 H 0.01471 0.27093 0.16109
 H107 H -0.02526 0.21840 0.12731
 H108 H 0.01589 0.25282 0.08658
 C109 C 0.01826 0.72057 0.38563
 C110 C -0.00190 0.72154 0.37150
 C111 C -0.00592 0.74246 0.35842
 C112 C 0.01281 0.76005 0.36162
 C113 C 0.03839 0.72620 0.36902
 C114 C 0.03563 0.74723 0.35591
 C115 C 0.01592 0.74070 0.40210
 C116 C 0.01293 0.76401 0.39034
 H117 H -0.01218 0.70645 0.37015
 H118 H 0.01029 0.77644 0.35129
 H119 H 0.05423 0.71591 0.36926
 H120 H 0.01682 0.73861 0.42098
 C121 C 0.49051 0.23086 0.89192
 C122 C 0.47013 0.23161 0.87597
 C123 C 0.46943 0.25049 0.85975
 C124 C 0.48932 0.26690 0.86211
 C125 C 0.51179 0.23280 0.87595
 C126 C 0.51122 0.25167 0.85960
 C127 C 0.48876 0.25318 0.90511
 C128 C 0.48844 0.27470 0.89003
 H129 H 0.45648 0.21938 0.87819
 H130 H 0.48879 0.28188 0.84952
 H131 H 0.52668 0.22144 0.87849
 H132 H 0.48899 0.25378 0.92406
 C133 C 0.49429 0.73113 0.61347
 C134 C 0.51626 0.73133 0.62726
 C135 C 0.51755 0.75049 0.64223
 C136 C 0.49609 0.76683 0.64122
 C137 C 0.47468 0.73222 0.63171
 C138 C 0.47524 0.75146 0.64672
 C139 C 0.49309 0.75434 0.60048
 C140 C 0.49424 0.77361 0.61501
 H141 H 0.52903 0.71739 0.62615
 H142 H 0.49678 0.78167 0.65304
 H143 H 0.46072 0.72038 0.63135
 H144 H 0.49190 0.75603 0.58158
 C145 C 0.87110 1.00243 0.78385
 C146 C 0.85461 1.02116 0.77967
 C147 C 0.84040 1.01860 0.76001
 C148 C 0.84564 0.99580 0.74745
 C149 C 0.85695 0.98071 0.78629
 C150 C 0.84348 0.97672 0.76652
 C151 C 0.88521 0.99987 0.76089
 C152 C 0.87149 0.99619 0.74112
 H153 H 0.85506 1.03687 0.78941
 H154 H 0.83465 0.99328 0.73216
 H155 H 0.85697 0.96997 0.80207
 H156 H 0.90376 1.00093 0.76016
 C157 C 0.37845 0.50504 0.26536
 C158 C 0.36113 0.52515 0.26389
 C159 C 0.34497 0.52350 0.24590
 C160 C 0.34865 0.50135 0.23173
 C161 C 0.36420 0.48359 0.26787
 C162 C 0.34835 0.48106 0.24975
 C163 C 0.38984 0.50390 0.24091
 C164 C 0.37384 0.50188 0.22262
 H165 H 0.36334 0.54057 0.27375
 H166 H 0.33602 0.49981 0.21765
 H167 H 0.36606 0.47190 0.28280
 H168 H 0.40825 0.50513 0.23814
 C169 C 0.61440 1.00799 0.26612
 C170 C 0.62862 0.98559 0.26418
 C171 C 0.64020 0.98234 0.24222
 C172 C 0.63669 1.00290 0.22515
 C173 C 0.62993 1.02621 0.26032
 C174 C 0.64259 1.02438 0.23868
 C175 C 0.59747 1.00795 0.24635
 C176 C 0.60836 1.00473 0.22221
 H177 H 0.63048 0.97383 0.27909
 H178 H 0.64645 1.00106 0.20819
 H179 H 0.62968 1.04170 0.27057
 H180 H 0.57897 1.00907 0.24929
 C181 C 0.11609 0.50012 0.75439
 C182 C 0.13860 0.48617 0.75247
 C183 C 0.15204 0.49097 0.73182
 C184 C 0.14097 0.50989 0.71607
 C185 C 0.12260 0.52525 0.75219
 C186 C 0.13673 0.53069 0.73220
 C187 C 0.10365 0.49569 0.73194
 C188 C 0.11689 0.50097 0.71110
 H189 H 0.14218 0.47173 0.76438
 H190 H 0.15154 0.51400 0.70000
 H191 H 0.11544 0.53788 0.76422
 H192 H 0.08629 0.48954 0.73233
 C193 C 0.78198 0.88865 -0.00460
 C194 C 0.78029 0.87325 0.01738
 C195 C 0.76159 0.85783 0.01766
 C196 C 0.74705 0.86038 -0.00448
 C197 C 0.78309 0.87222 -0.02493
 C198 C 0.76453 0.85702 -0.02519
 C199 C 0.75858 0.90103 -0.00601
 C200 C 0.73971 0.88620 -0.00579
 H201 H 0.79166 0.87524 0.03176
 H202 H 0.73261 0.84836 -0.00416
 H203 H 0.79686 0.87227 -0.03821
 H204 H 0.75645 0.91969 -0.00630
 C205 C 0.26886 0.40031 0.50174
 C206 C 0.26691 0.38352 0.52265
 C207 C 0.24791 0.36861 0.52184
 C208 C 0.23336 0.37303 0.49996
 C209 C 0.26951 0.38540 0.48027
 C210 C 0.25074 0.37067 0.47908
 C211 C 0.24579 0.41336 0.50118
 C212 C 0.22659 0.39900 0.50056
 H213 H 0.27830 0.38425 0.53721
 H214 H 0.21876 0.36130 0.49929
 H215 H 0.28341 0.38577 0.46715
 H216 H 0.24409 0.43199 0.50234
 C217 C 0.26508 0.60627 0.01090
 C218 C 0.26805 0.62041 -0.01170
 C219 C 0.25000 0.63674 -0.01589
 C220 C 0.23157 0.63746 0.00419
 C221 C 0.26252 0.62370 0.03016
 C222 C 0.24497 0.64085 0.02664
 C223 C 0.24143 0.59578 0.00975
 C224 C 0.22326 0.61255 0.00608
 H225 H 0.28175 0.61672 -0.02455
 H226 H 0.21754 0.65065 0.00172
 H227 H 0.27185 0.62158 0.04625
 H228 H 0.23908 0.57742 0.01199
 C229 C 0.77457 0.10635 0.50015
 C230 C 0.77234 0.12035 0.47875
 C231 C 0.75189 0.13447 0.47725
 C232 C 0.73588 0.13148 0.49873
 C233 C 0.77145 0.12217 0.51939
 C234 C 0.75084 0.13605 0.51949
 C235 C 0.75508 0.09136 0.50130
 C236 C 0.73158 0.10339 0.50006
 H237 H 0.78472 0.11871 0.46429
 H238 H 0.71975 0.14230 0.49818
 H239 H 0.78344 0.12234 0.53351
 H240 H 0.75692 0.07267 0.50155
 C241 C 0.98721 0.76881 0.89607
 C242 C 1.00784 0.76670 0.87916
 C243 C 1.00711 0.74793 0.86364
 C244 C 0.98557 0.73328 0.86800
 C245 C 0.96633 0.76974 0.88084
 C246 C 0.96498 0.75080 0.86590
 C247 C 0.98639 0.74565 0.90913
 C248 C 0.98610 0.72639 0.89436
 H249 H 1.02255 0.77746 0.88073
 H250 H 0.98489 0.71866 0.85594
 H251 H 0.95335 0.78359 0.88165
 H252 H 0.98760 0.74394 0.92802
 C253 C 0.50605 0.27455 0.39182
 C254 C 0.52517 0.27576 0.37326
 C255 C 0.52753 0.25611 0.35912
 C256 C 0.50876 0.23814 0.36463
 C257 C 0.48438 0.27120 0.37845
 C258 C 0.48528 0.25162 0.36390
 C259 C 0.51037 0.25179 0.40523
 C260 C 0.51140 0.23206 0.39095
 H261 H 0.53772 0.28924 0.37289
 H262 H 0.50983 0.22323 0.35285
 H263 H 0.47022 0.28377 0.37911
 H264 H 0.51140 0.25065 0.42416
 C265 C 1.00314 0.25855 0.60776
 C266 C 0.98237 0.25828 0.62459
 C267 C 0.98305 0.24022 0.64188
 C268 C 1.00484 0.22455 0.63949
 C269 C 1.02398 0.25895 0.62298
 C270 C 1.02500 0.24109 0.64039
 C271 C 1.00422 0.23481 0.59702
 C272 C 1.00487 0.21627 0.61403
 H273 H 0.96744 0.26942 0.62146
 H274 H 1.00560 0.21031 0.65292
 H275 H 1.03776 0.27075 0.61916
 H276 H 1.00383 0.23282 0.57828
 C277 C 0.52602 0.76184 0.10625
 C278 C 0.50318 0.76187 0.11993
 C279 C 0.50185 0.74475 0.13816
 C280 C 0.52430 0.73014 0.14029
 C281 C 0.54423 0.76436 0.12441
 C282 C 0.54355 0.74741 0.14279
 C283 C 0.52956 0.73729 0.09755
 C284 C 0.52854 0.72004 0.11587
 H285 H 0.48958 0.77426 0.11568
 H286 H 0.52362 0.71685 0.15470
 H287 H 0.55809 0.77625 0.12158
 H288 H 0.53114 0.73373 0.07907
 O289 O 0.05431 0.99348 1.04737
 O290 O 0.06287 0.95991 1.02503
 O291 O 0.05446 1.04724 0.99369
 O292 O 0.03404 1.05798 0.96289
 O293 O -0.00109 1.04383 1.04814
 O294 O -0.03421 1.02077 1.05279
 O295 O -0.00301 0.98975 0.93183
 O296 O 0.03287 1.00703 0.92997
 O297 O 0.00165 0.93492 0.97999
 O298 O 0.01473 0.93067 1.02121
 O299 O -0.05444 0.98138 0.98544
 O300 O -0.05970 1.02118 1.00025
 O301 O -0.03691 1.00215 0.94893
 O302 O -0.04645 1.03728 0.97163
 O303 O -0.03554 0.94918 0.99947
 O304 O -0.01520 0.94184 1.03603
 O305 O 0.01655 0.95407 0.94798
 O306 O 0.05215 0.97675 0.94431
 O307 O 0.02080 1.00647 1.06491
 O308 O -0.01725 0.99091 1.06595
 O309 O 0.01506 1.06330 1.01694
 O310 O 0.00005 1.06614 0.97684
 O311 O 0.07221 1.01487 1.00897
 O312 O 0.07680 0.97662 0.99557
 Zr313 Zr 0.04645 0.99048 1.01193
 O314 O 0.02910 0.96904 0.98975
 Zr315 Zr 0.01975 1.03799 0.99097
 O316 O 0.00128 1.01844 0.96755
 Zr317 Zr -0.00238 1.00961 1.03729
 O318 O -0.02211 0.98915 1.01608
 Zr319 Zr 0.01997 0.98794 0.95936
 O320 O 0.03970 1.00878 0.98035
 Zr321 Zr -0.00233 0.95992 1.00590
 O322 O 0.01641 0.97901 1.02946
 Zr323 Zr -0.02921 1.00696 0.98438
 O324 O -0.01190 1.02870 1.00702
 O325 O 0.02846 1.02048 1.02180
 O326 O -0.01103 0.97701 0.97466
 C327 C 0.04212 0.99983 1.06535
 C328 C 0.07235 1.03567 1.00078
 C329 C 0.00623 1.06229 1.03792
 C330 C -0.02449 0.99536 0.93119
 C331 C 0.00904 0.93587 0.95854
 C332 C -0.05350 0.95988 0.99175
 H333 H 0.03898 0.95531 0.98617
 H334 H -0.03636 0.98494 1.02486
 H335 H 0.03755 1.03009 1.03197
 H336 H -0.00185 1.02776 0.95317
 H337 H 0.04449 1.01742 0.93584
 H338 H 0.02940 1.05107 0.94816
 H339 H -0.02862 0.95083 1.04242
 H340 H -0.00872 0.97586 1.06691
 H341 H 0.05722 0.96226 0.95244
 H342 H 0.07798 0.98404 0.97976
 H343 H -0.06325 1.01181 1.01458
 H344 H -0.04133 1.03189 1.04149
 H345 H 0.05146 0.95219 1.03555
 H346 H 0.02915 0.92760 1.01198
 H347 H -0.01466 1.06700 0.98606
 H348 H -0.03663 1.04417 0.95900
 O349 O 0.53517 0.50388 0.54565
 O350 O 0.54749 0.47117 0.52281
 O351 O 0.53478 0.55880 0.49365
 O352 O 0.51641 0.56856 0.46118
 O353 O 0.47706 0.55039 0.54394
 O354 O 0.44516 0.52529 0.54540
 O355 O 0.48591 0.49911 0.42586
 O356 O 0.52081 0.51840 0.42697
 O357 O 0.49145 0.44320 0.47343
 O358 O 0.50185 0.43884 0.51505
 O359 O 0.43234 0.48641 0.47634
 O360 O 0.42302 0.52466 0.49081
 O361 O 0.45066 0.50954 0.44128
 O362 O 0.43767 0.54340 0.46502
 O363 O 0.45212 0.45492 0.49076
 O364 O 0.47086 0.44810 0.52855
 O365 O 0.50694 0.46388 0.44276
 O366 O 0.54067 0.48878 0.44150
 O367 O 0.49979 0.51398 0.56113
 O368 O 0.46307 0.49612 0.55917
 O369 O 0.49396 0.57131 0.51419
 O370 O 0.48106 0.57427 0.47297
 O371 O 0.55380 0.52753 0.50961
 O372 O 0.56227 0.49012 0.49481
 Zr373 Zr 0.53002 0.50107 0.50951
 O374 O 0.51566 0.47903 0.48564
 Zr375 Zr 0.50159 0.54710 0.48778
 O376 O 0.48620 0.52699 0.46264
 Zr377 Zr 0.47854 0.51640 0.53202
 O378 O 0.46185 0.49521 0.50902
 Zr379 Zr 0.50721 0.49782 0.45495
 O380 O 0.52408 0.51948 0.47779
 Zr381 Zr 0.48407 0.46749 0.49946
 O382 O 0.49985 0.48724 0.52473
 Zr383 Zr 0.45571 0.51337 0.47733
 O384 O 0.46981 0.53566 0.50163
 O385 O 0.50936 0.52949 0.51880
 O386 O 0.47619 0.48468 0.46797
 C387 C 0.52135 0.50896 0.56293
 C388 C 0.55272 0.54867 0.50229
 C389 C 0.48419 0.56937 0.53468
 C390 C 0.46435 0.50406 0.42403
 C391 C 0.50019 0.44497 0.45254
 C392 C 0.43403 0.46493 0.48248
 H393 H 0.52662 0.46602 0.48244
 H394 H 0.44744 0.48993 0.51678
 H395 H 0.51701 0.53938 0.52989
 H396 H 0.48339 0.53651 0.44832
 H397 H 0.53131 0.52928 0.43393
 H398 H 0.51325 0.56171 0.44597
 H399 H 0.45626 0.45576 0.53395
 H400 H 0.47242 0.48157 0.56033
 H401 H 0.54655 0.47504 0.45036
 H402 H 0.56379 0.49805 0.47928
 H403 H 0.42003 0.51601 0.50572
 H404 H 0.43842 0.53676 0.53419
 H405 H 0.53621 0.46283 0.53297
 H406 H 0.51736 0.43757 0.50746
 H407 H 0.46612 0.57455 0.48181
 H408 H 0.44735 0.55080 0.45257
 O409 O 0.46373 -0.05179 0.50608
 O410 O 0.48479 -0.05913 0.47064
 O411 O 0.51859 -0.04113 0.55375
 O412 O 0.54829 -0.01781 0.55498
 O413 O 0.45943 0.00479 0.55353
 O414 O 0.44681 0.03591 0.52919
 O415 O 0.56508 0.02280 0.48039
 O416 O 0.57410 -0.01298 0.49874
 O417 O 0.51278 0.00782 0.43268
 O418 O 0.47564 -0.00936 0.43608
 O419 O 0.50637 0.06494 0.47599
 O420 O 0.49349 0.07026 0.51714
 O421 O 0.54451 0.05393 0.49412
 O422 O 0.52316 0.06058 0.53203
 O423 O 0.49155 0.04369 0.44751
 O424 O 0.45738 0.01733 0.44959
 O425 O 0.54809 -0.00126 0.44711
 O426 O 0.56102 -0.03362 0.47104
 O427 O 0.44272 -0.02071 0.51939
 O428 O 0.43437 0.01700 0.50199
 O429 O 0.49424 -0.00455 0.56898
 O430 O 0.53095 0.01517 0.56369
 O431 O 0.50341 -0.06270 0.52565
 O432 O 0.51688 -0.06693 0.48506
 Zr433 Zr 0.49642 -0.03891 0.49794
 O434 O 0.51215 -0.01876 0.47116
 Zr435 Zr 0.51690 -0.00726 0.53955
 O436 O 0.53432 0.01380 0.51455
 Zr437 Zr 0.46592 0.00666 0.51717
 O438 O 0.48096 0.02901 0.49175
 Zr439 Zr 0.54200 -0.00443 0.48374
 O440 O 0.52748 -0.02665 0.51007
 Zr441 Zr 0.49078 0.00991 0.46223
 O442 O 0.47360 -0.01208 0.48672
 Zr443 Zr 0.51205 0.04113 0.50383
 O444 O 0.49530 0.02131 0.53064
 O445 O 0.48684 -0.02108 0.52797
 O446 O 0.52124 0.02376 0.47324
 C447 C 0.44497 -0.04209 0.51385
 C448 C 0.51207 -0.06037 0.54591
 C449 C 0.47259 0.00045 0.57090
 C450 C 0.56302 0.04419 0.48574
 C451 C 0.53438 0.00319 0.43017
 C452 C 0.49852 0.06273 0.45539
 H453 H 0.51552 -0.02860 0.45751
 H454 H 0.46999 0.04181 0.48783
 H455 H 0.47897 -0.03094 0.53997
 H456 H 0.54847 0.01931 0.52147
 H457 H 0.57132 -0.02536 0.51071
 H458 H 0.56086 -0.01064 0.54556
 H459 H 0.45170 0.03218 0.45612
 H460 H 0.43325 0.00802 0.48757
 H461 H 0.55054 -0.04299 0.46218
 H462 H 0.53213 -0.06606 0.49221
 H463 H 0.47827 0.07112 0.50981
 H464 H 0.45794 0.04580 0.53661
 H465 H 0.47226 -0.04995 0.46311
 H466 H 0.48487 -0.02389 0.43435
 H467 H 0.51987 0.02839 0.56554
 H468 H 0.53817 0.05384 0.53694
 O469 O -0.04547 0.49043 1.03507
 O470 O -0.05368 0.52378 1.01182
 O471 O -0.03979 0.43730 0.98348
 O472 O -0.01879 0.42925 0.95200
 O473 O 0.01087 0.44010 1.03737
 O474 O 0.04305 0.46422 1.04218
 O475 O 0.02004 0.50105 0.92063
 O476 O -0.01488 0.48146 0.91784
 O477 O 0.01058 0.55248 0.96715
 O478 O -0.00517 0.55435 1.00878
 O479 O 0.06740 0.50509 0.97318
 O480 O 0.07300 0.46712 0.98823
 O481 O 0.05212 0.48538 0.93742
 O482 O 0.05955 0.44911 0.96258
 O483 O 0.04757 0.53760 0.98829
 O484 O 0.02431 0.54372 1.02336
 O485 O -0.00315 0.53418 0.93597
 O486 O -0.03667 0.51032 0.93190
 O487 O -0.01323 0.47742 1.05355
 O488 O 0.02469 0.49320 1.05457
 O489 O -0.00164 0.42218 1.00534
 O490 O 0.01524 0.42159 0.96499
 O491 O -0.05975 0.46841 0.99816
 O492 O -0.06463 0.50732 0.98232
 Zr493 Zr -0.03519 0.49419 0.99971
 O494 O -0.01668 0.51706 0.97762
 Zr495 Zr -0.00592 0.44837 0.97954
 O496 O 0.01336 0.46908 0.95583
 Zr497 Zr 0.01211 0.47516 1.02613
 O498 O 0.03285 0.49672 1.00444
 Zr499 Zr -0.00524 0.49967 0.94746
 O500 O -0.02595 0.47740 0.96838
 Zr501 Zr 0.01364 0.52629 0.99362
 O502 O -0.00652 0.50579 1.01727
 Zr503 Zr 0.04227 0.48008 0.97304
 O504 O 0.02416 0.45738 0.99615
 O505 O -0.01717 0.46430 1.01026
 O506 O 0.02467 0.51042 0.96274
 C507 C -0.03461 0.48404 1.05346
 C508 C -0.05835 0.44754 0.99100
 C509 C 0.00544 0.42200 1.02643
 C510 C 0.04124 0.49431 0.91994
 C511 C 0.00345 0.55224 0.94601
 C512 C 0.06752 0.52705 0.98020
 H513 H -0.02666 0.53071 0.97392
 H514 H 0.04653 0.50081 1.01312
 H515 H -0.02650 0.45410 1.02073
 H516 H 0.01759 0.46039 0.94156
 H517 H -0.02681 0.47060 0.92339
 H518 H -0.01347 0.43668 0.93709
 H519 H 0.03624 0.53384 1.03099
 H520 H 0.01565 0.50795 1.05537
 H521 H -0.04370 0.52314 0.94104
 H522 H -0.06528 0.49892 0.96748
 H523 H 0.07358 0.47354 1.00408
 H524 H 0.05099 0.45326 1.03138
 H525 H -0.04304 0.53208 1.02160
 H526 H -0.01869 0.55795 0.99906
 H527 H 0.02885 0.41953 0.97493
 H528 H 0.05271 0.44421 0.94791
 O529 O -0.06361 0.53348 0.50376
 O530 O -0.04451 0.53282 0.54093
 O531 O -0.00584 0.54595 0.45579
 O532 O 0.02737 0.52874 0.44555
 O533 O -0.05449 0.49201 0.44209
 O534 O -0.05942 0.45385 0.45865
 O535 O 0.05287 0.47212 0.50742
 O536 O 0.05422 0.51283 0.49647
 O537 O 0.00049 0.46700 0.55828
 O538 O -0.04143 0.47908 0.55977
 O539 O 0.00373 0.42303 0.49960
 O540 O -0.00801 0.42848 0.45812
 O541 O 0.03923 0.44397 0.48508
 O542 O 0.02081 0.44438 0.44732
 O543 O -0.01432 0.43355 0.53376
 O544 O -0.05127 0.45170 0.54276
 O545 O 0.03246 0.48559 0.54523
 O546 O 0.03804 0.52331 0.53020
 O547 O -0.07648 0.50445 0.48199
 O548 O -0.07684 0.46392 0.48940
 O549 O -0.02306 0.51210 0.43006
 O550 O 0.01690 0.49798 0.42821
 O551 O -0.02581 0.55584 0.48916
 O552 O -0.01596 0.55103 0.52893
 Zr553 Zr -0.02839 0.52459 0.50832
 O554 O -0.00731 0.50167 0.52805
 Zr555 Zr -0.00108 0.50988 0.45867
 O556 O 0.02092 0.48601 0.47623
 Zr557 Zr -0.04773 0.48217 0.47712
 O558 O -0.02795 0.45732 0.49585
 Zr559 Zr 0.02491 0.49619 0.51082
 O560 O 0.00493 0.52165 0.49252
 Zr561 Zr -0.02182 0.46900 0.52963
 O562 O -0.04434 0.49255 0.51193
 Zr563 Zr 0.00489 0.45401 0.47965
 O564 O -0.01578 0.47712 0.45943
 O565 O -0.03366 0.51470 0.47420
 O566 O 0.01073 0.46364 0.51395
 C567 C -0.07951 0.52327 0.49316
 C568 C -0.01576 0.56080 0.46943
 C569 C -0.04268 0.50343 0.42656
 C570 C 0.05512 0.45295 0.49654
 C571 C 0.02070 0.47473 0.56115
 C572 C -0.00447 0.41856 0.52029
 H573 H -0.00582 0.50797 0.54384
 H574 H -0.03602 0.44254 0.49641
 H575 H -0.04336 0.52609 0.46541
 H576 H 0.03599 0.48480 0.46772
 H577 H 0.04865 0.52761 0.48922
 H578 H 0.04148 0.52108 0.45167
 H579 H -0.05710 0.44268 0.52986
 H580 H -0.07937 0.46780 0.50610
 H581 H 0.02569 0.52881 0.54119
 H582 H -0.00011 0.55399 0.52297
 H583 H -0.02192 0.42220 0.46608
 H584 H -0.04712 0.44977 0.44695
 H585 H -0.05567 0.52060 0.54468
 H586 H -0.03371 0.49214 0.56669
 H587 H 0.00935 0.48383 0.42348
 H588 H 0.03305 0.45544 0.44341
 O589 O 0.50812 0.92621 0.00742
 O590 O 0.49186 0.92589 -0.03092
 O591 O 0.56716 0.96827 -0.00344
 O592 O 0.57372 1.00333 -0.01856
 O593 O 0.52029 0.98104 0.05516
 O594 O 0.48236 0.99895 0.05868
 O595 O 0.50970 1.03837 -0.06144
 O596 O 0.54294 1.01399 -0.06714
 O597 O 0.45373 0.99464 -0.05622
 O598 O 0.44561 0.95914 -0.03065
 O599 O 0.46105 1.04622 -0.00552
 O600 O 0.48551 1.04874 0.02890
 O601 O 0.49704 1.05720 -0.02882
 O602 O 0.51352 1.05863 0.01036
 O603 O 0.43953 1.01584 -0.01867
 O604 O 0.43354 0.97762 -0.00330
 O605 O 0.48660 1.00555 -0.07557
 O606 O 0.52321 0.98568 -0.08071
 O607 O 0.49648 0.94543 0.04022
 O608 O 0.46420 0.97109 0.04747
 O609 O 0.55292 0.99059 0.03449
 O610 O 0.55980 1.02496 0.01068
 O611 O 0.54567 0.93769 -0.01642
 O612 O 0.52219 0.93536 -0.04974
 Zr613 Zr 0.51216 0.95236 -0.01851
 O614 O 0.49255 0.97470 -0.04030
 Zr615 Zr 0.54260 0.99555 -0.00019
 O616 O 0.52424 1.01985 -0.02104
 Zr617 Zr 0.49496 0.98036 0.02932
 O618 O 0.47433 1.00378 0.00953
 Zr619 Zr 0.51187 1.00357 -0.05027
 O620 O 0.53265 0.97971 -0.03092
 Zr621 Zr 0.46398 0.98832 -0.02122
 O622 O 0.48224 0.96386 0.00011
 Zr623 Zr 0.49438 1.03141 -0.00249
 O624 O 0.51434 1.00926 0.01952
 O625 O 0.52402 0.96725 0.01138
 O626 O 0.48246 1.01693 -0.03270
 C627 C 0.50191 0.92690 0.02922
 C628 C 0.56609 0.94600 -0.01020
 C629 C 0.54185 0.98563 0.05367
 C630 C 0.50336 1.05671 -0.05056
 C631 C 0.46511 1.00118 -0.07482
 C632 C 0.44066 1.03809 -0.01192
 H633 H 0.48778 0.96612 -0.05397
 H634 H 0.46097 1.00910 0.01934
 H635 H 0.53339 0.95635 0.02108
 H636 H 0.53430 1.03268 -0.02588
 H637 H 0.55515 1.00270 -0.06228
 H638 H 0.57032 1.01621 -0.02977
 H639 H 0.43311 0.98458 0.01235
 H640 H 0.45598 0.96104 0.03697
 H641 H 0.51389 0.97181 -0.08192
 H642 H 0.53404 0.94489 -0.05780
 H643 H 0.47158 1.04163 0.03596
 H644 H 0.49136 1.01315 0.05899
 H645 H 0.47704 0.92664 -0.02187
 H646 H 0.45270 0.95317 -0.04536
 H647 H 0.54994 1.03224 0.02306
 H648 H 0.52764 1.06006 0.00035
 O649 O 0.43596 0.52415 0.00837
 O650 O 0.43145 0.48767 -0.00705
 O651 O 0.48651 0.51038 0.06064
 O652 O 0.52236 0.49831 0.06290
 O653 O 0.49226 0.56987 0.01291
 O654 O 0.50425 0.57501 -0.02625
 O655 O 0.54455 0.45362 -0.00972
 O656 O 0.52609 0.44604 0.02580
 O657 O 0.49428 0.46406 -0.05941
 O658 O 0.46144 0.48792 -0.06429
 O659 O 0.54848 0.50981 -0.05584
 O660 O 0.55687 0.54183 -0.03247
 O661 O 0.56348 0.48585 -0.02154
 O662 O 0.56681 0.52505 -0.00300
 O663 O 0.51602 0.50021 -0.07404
 O664 O 0.47496 0.51894 -0.07224
 O665 O 0.50783 0.44224 -0.02882
 O666 O 0.49250 0.43754 0.01246
 O667 O 0.45354 0.55634 -0.00587
 O668 O 0.47547 0.56333 -0.04252
 O669 O 0.50748 0.54940 0.04361
 O670 O 0.54253 0.52272 0.04457
 O671 O 0.45333 0.49974 0.04439
 O672 O 0.44668 0.46710 0.01900
 Zr673 Zr 0.46197 0.49838 0.00805
 O674 O 0.48027 0.47783 -0.01660
 Zr675 Zr 0.50974 0.51489 0.03224
 O676 O 0.53002 0.49346 0.01001
 Zr677 Zr 0.48795 0.54524 -0.01258
 O678 O 0.50868 0.52650 -0.03680
 Zr679 Zr 0.51108 0.46589 -0.00170
 O680 O 0.49199 0.48505 0.02382
 Zr681 Zr 0.49084 0.49752 -0.04638
 O682 O 0.46912 0.51727 -0.02341
 Zr683 Zr 0.53829 0.51272 -0.02060
 O684 O 0.51940 0.53475 0.00242
 O685 O 0.47904 0.52729 0.01827
 O686 O 0.52117 0.48422 -0.03206
 C687 C 0.43583 0.54555 0.00203
 C688 C 0.46547 0.50436 0.06209
 C689 C 0.50074 0.56838 0.03336
 C690 C 0.56265 0.46410 -0.01682
 C691 C 0.50092 0.44477 -0.04997
 C692 C 0.53754 0.50498 -0.07409
 H693 H 0.47051 0.46506 -0.02095
 H694 H 0.51259 0.53663 -0.05046
 H695 H 0.46983 0.53682 0.02951
 H696 H 0.54382 0.48770 0.01834
 H697 H 0.51889 0.45169 0.04061
 H698 H 0.52925 0.48328 0.05808
 H699 H 0.48595 0.53092 -0.07729
 H700 H 0.46259 0.55444 -0.04825
 H701 H 0.47903 0.43536 0.00267
 H702 H 0.45688 0.45966 0.03075
 H703 H 0.54677 0.55125 -0.04288
 H704 H 0.52043 0.57369 -0.02130
 H705 H 0.43087 0.49527 -0.02277
 H706 H 0.45202 0.47856 -0.05313
 H707 H 0.54739 0.53702 0.03619
 H708 H 0.57176 0.51303 0.00858
 O709 O 0.04480 -0.05836 0.50250
 O710 O 0.02959 -0.06904 0.53976
 O711 O -0.01587 -0.05421 0.46088
 O712 O -0.04908 -0.03459 0.46055
 O713 O 0.03419 -0.00072 0.45486
 O714 O 0.04208 0.03122 0.47787
 O715 O -0.06741 -0.00019 0.53742
 O716 O -0.07094 -0.03564 0.52043
 O717 O -0.00979 -0.00662 0.57995
 O718 O 0.02986 -0.01948 0.57428
 O719 O -0.01674 0.05054 0.53473
 O720 O -0.01106 0.05854 0.49392
 O721 O -0.05495 0.03386 0.52179
 O722 O -0.03871 0.04412 0.48121
 O723 O 0.00512 0.03152 0.56181
 O724 O 0.04264 0.00853 0.55806
 O725 O -0.04375 -0.02036 0.56845
 O726 O -0.04992 -0.05581 0.54539
 O727 O 0.05838 -0.02427 0.48796
 O728 O 0.06042 0.01381 0.50385
 O729 O 0.00036 -0.01439 0.44285
 O730 O -0.03966 0.00019 0.45144
 O731 O 0.00552 -0.07434 0.48770
 O732 O -0.00230 -0.08073 0.52958
 Zr733 Zr 0.01096 -0.05023 0.51395
 O734 O -0.00617 -0.03325 0.54198
 Zr735 Zr -0.01910 -0.02080 0.47404
 O736 O -0.03850 -0.00344 0.50035
 Zr737 Zr 0.03020 -0.00064 0.49162
 O738 O 0.01293 0.01858 0.51798
 Zr739 Zr -0.03945 -0.02320 0.53180
 O740 O -0.02307 -0.04216 0.50438
 Zr741 Zr 0.00972 -0.00208 0.54862
 O742 O 0.02895 -0.02079 0.52285
 Zr743 Zr -0.02125 0.02642 0.50868
 O744 O -0.00283 0.01014 0.48071
 O745 O 0.01423 -0.03070 0.48300
 O746 O -0.02398 0.00744 0.54010
 C747 C 0.06079 -0.04586 0.49349
 C748 C -0.00555 -0.07268 0.46851
 C749 C 0.02048 -0.00630 0.43885
 C750 C -0.07029 0.02129 0.53207
 C751 C -0.03027 -0.01359 0.58416
 C752 C -0.00562 0.04965 0.55382
 H753 H -0.00643 -0.04358 0.55602
 H754 H 0.02159 0.03266 0.52051
 H755 H 0.02277 -0.03917 0.47044
 H756 H -0.05420 0.00007 0.49477
 H757 H -0.06701 -0.04661 0.50778
 H758 H -0.06191 -0.03107 0.47181
 H759 H 0.04551 0.02353 0.54998
 H760 H 0.06497 0.00448 0.51784
 H761 H -0.03922 -0.06111 0.55770
 H762 H -0.01831 -0.08175 0.52433
 H763 H 0.00552 0.05996 0.49683
 H764 H 0.02877 0.03914 0.47035
 H765 H 0.04005 -0.05801 0.54653
 H766 H 0.02396 -0.03521 0.57660
 H767 H -0.03116 0.01447 0.44789
 H768 H -0.05319 0.03610 0.47876
 O769 O 0.74866 0.18066 0.24796
 O770 O 0.78790 0.18451 0.23853
 O771 O 0.73981 0.22466 0.30805
 O772 O 0.74109 0.26110 0.31627
 O773 O 0.68978 0.22715 0.25223
 O774 O 0.68949 0.24462 0.21467
 O775 O 0.79434 0.29951 0.25381
 O776 O 0.79795 0.27853 0.28902
 O777 O 0.80539 0.25619 0.19942
 O778 O 0.79071 0.21975 0.18760
 O779 O 0.74748 0.30082 0.20060
 O780 O 0.71068 0.30174 0.21964
 O781 O 0.76098 0.31514 0.23972
 O782 O 0.71880 0.30965 0.25267
 O783 O 0.76811 0.27280 0.18131
 O784 O 0.76089 0.23125 0.17463
 O785 O 0.81812 0.26679 0.23474
 O786 O 0.81701 0.24854 0.27462
 O787 O 0.71604 0.19463 0.23084
 O788 O 0.71079 0.22076 0.19685
 O789 O 0.70008 0.24041 0.28744
 O790 O 0.71651 0.27940 0.29601
 O791 O 0.76066 0.19634 0.28940
 O792 O 0.79816 0.19760 0.26994
 Zr793 Zr 0.76695 0.20999 0.25536
 O794 O 0.78736 0.23428 0.23724
 Zr795 Zr 0.73477 0.25041 0.28200
 O796 O 0.75506 0.27661 0.26624
 Zr797 Zr 0.71944 0.23094 0.23071
 O798 O 0.73754 0.25728 0.21272
 Zr799 Zr 0.78850 0.26406 0.25721
 O800 O 0.76946 0.23894 0.27656
 Zr801 Zr 0.77161 0.24552 0.20614
 O802 O 0.75299 0.21839 0.22246
 Zr803 Zr 0.74071 0.28618 0.23398
 O804 O 0.71931 0.26118 0.25061
 O805 O 0.73302 0.22062 0.26273
 O806 O 0.77445 0.27521 0.22555
 C807 C 0.72943 0.17798 0.23813
 C808 C 0.75040 0.20487 0.30760
 C809 C 0.68536 0.23211 0.27371
 C810 C 0.78163 0.31672 0.24693
 C811 C 0.82109 0.26307 0.21268
 C812 C 0.75803 0.29282 0.18235
 H813 H 0.80283 0.22721 0.23417
 H814 H 0.72953 0.26142 0.19810
 H815 H 0.72406 0.20846 0.27101
 H816 H 0.75571 0.28981 0.27682
 H817 H 0.79100 0.26893 0.30181
 H818 H 0.75476 0.27083 0.31498
 H819 H 0.74632 0.23929 0.17022
 H820 H 0.72368 0.21068 0.19098
 H821 H 0.82382 0.23626 0.26461
 H822 H 0.80093 0.20735 0.28351
 H823 H 0.70528 0.29123 0.20774
 H824 H 0.68561 0.25944 0.22232
 H825 H 0.78392 0.18528 0.22178
 H826 H 0.80253 0.21312 0.19814
 H827 H 0.70300 0.28254 0.28614
 H828 H 0.72721 0.31489 0.26627
 O829 O 0.70031 0.75766 0.70370
 O830 O 0.72191 0.79243 0.70179
 O831 O 0.75421 0.70529 0.70050
 O832 O 0.78330 0.69271 0.72155
 O833 O 0.69756 0.70064 0.75433
 O834 O 0.68905 0.72021 0.78935
 O835 O 0.80975 0.75310 0.77112
 O836 O 0.81381 0.74311 0.73197
 O837 O 0.76051 0.81015 0.76966
 O838 O 0.72148 0.81532 0.75503
 O839 O 0.75324 0.75650 0.82055
 O840 O 0.73931 0.71709 0.81994
 O841 O 0.79075 0.73648 0.80231
 O842 O 0.76704 0.70174 0.80559
 O843 O 0.73870 0.79026 0.80509
 O844 O 0.70499 0.80017 0.78197
 O845 O 0.79376 0.79270 0.75616
 O846 O 0.80100 0.77593 0.71740
 O847 O 0.68100 0.74086 0.73464
 O848 O 0.67703 0.75150 0.77508
 O849 O 0.73007 0.68385 0.73828
 O850 O 0.76846 0.67994 0.75368
 O851 O 0.73956 0.73933 0.68569
 O852 O 0.75208 0.77755 0.68730
 Zr853 Zr 0.73430 0.76007 0.71499
 O854 O 0.75421 0.77909 0.73733
 Zr855 Zr 0.75440 0.71015 0.73715
 O856 O 0.77531 0.72709 0.76043
 Zr857 Zr 0.70657 0.73489 0.75982
 O858 O 0.72543 0.75266 0.78425
 Zr859 Zr 0.78393 0.75971 0.74657
 O860 O 0.76534 0.74165 0.72191
 Zr861 Zr 0.73601 0.78420 0.76918
 O862 O 0.71484 0.76759 0.74568
 Zr863 Zr 0.75640 0.73443 0.79160
 O864 O 0.73614 0.71520 0.76922
 O865 O 0.72419 0.72800 0.72831
 O866 O 0.76654 0.76655 0.77836
 C867 C 0.68190 0.75009 0.71388
 C868 C 0.74817 0.71886 0.68334
 C869 C 0.70925 0.68313 0.74657
 C870 C 0.80915 0.74366 0.79176
 C871 C 0.78212 0.81014 0.76412
 C872 C 0.74555 0.77748 0.82235
 H873 H 0.75798 0.79394 0.72945
 H874 H 0.71568 0.75493 0.79856
 H875 H 0.71516 0.71931 0.71725
 H876 H 0.78922 0.71726 0.76326
 H877 H 0.80893 0.73473 0.71815
 H878 H 0.79721 0.69940 0.72783
 H879 H 0.69775 0.78938 0.79351
 H880 H 0.67616 0.76733 0.76812
 H881 H 0.79236 0.79033 0.71315
 H882 H 0.76803 0.77099 0.68694
 H883 H 0.72458 0.72559 0.82328
 H884 H 0.70015 0.70924 0.79685
 H885 H 0.70992 0.79804 0.71317
 H886 H 0.73032 0.81933 0.74047
 H887 H 0.75912 0.67712 0.76823
 H888 H 0.78062 0.69622 0.79618
 O889 O 0.28179 0.20242 0.76061
 O890 O 0.29072 0.21779 0.72189
 O891 O 0.29271 0.26174 0.80292
 O892 O 0.27736 0.29618 0.80869
 O893 O 0.23040 0.22008 0.81271
 O894 O 0.19561 0.21901 0.79160
 O895 O 0.23973 0.32511 0.73668
 O896 O 0.27713 0.32116 0.75202
 O897 O 0.23397 0.27138 0.69011
 O898 O 0.24029 0.23143 0.69083
 O899 O 0.18178 0.28282 0.74116
 O900 O 0.17746 0.27431 0.78340
 O901 O 0.20565 0.31687 0.75525
 O902 O 0.19539 0.30047 0.79401
 O903 O 0.19477 0.25974 0.71164
 O904 O 0.21342 0.21952 0.71024
 O905 O 0.25522 0.30057 0.70287
 O906 O 0.29128 0.30100 0.72272
 O907 O 0.24687 0.19440 0.77753
 O908 O 0.20848 0.19915 0.76413
 O909 O 0.25265 0.24868 0.82510
 O910 O 0.24269 0.29036 0.82111
 O911 O 0.30638 0.23924 0.77317
 O912 O 0.30966 0.24533 0.73190
 Zr913 Zr 0.27860 0.23781 0.75044
 O914 O 0.26262 0.26010 0.72560
 Zr915 Zr 0.25830 0.26953 0.79471
 O916 O 0.24171 0.29325 0.77171
 Zr917 Zr 0.22837 0.22605 0.77634
 O918 O 0.21025 0.24778 0.75272
 Zr919 Zr 0.25880 0.29362 0.73878
 O920 O 0.27720 0.27194 0.76259
 Zr921 Zr 0.22874 0.25018 0.72050
 O922 O 0.24571 0.22607 0.74331
 Zr923 Zr 0.20869 0.28169 0.76500
 O924 O 0.22436 0.25925 0.79018
 O925 O 0.26164 0.23589 0.78300
 O926 O 0.22532 0.28403 0.73211
 C927 C 0.26734 0.18850 0.77052
 C928 C 0.30882 0.25009 0.79226
 C929 C 0.24068 0.23058 0.82871
 C930 C 0.21942 0.33079 0.74455
 C931 C 0.24513 0.29009 0.68679
 C932 C 0.17914 0.27234 0.72195
 H933 H 0.27180 0.25985 0.71073
 H934 H 0.19481 0.24145 0.75104
 H935 H 0.26997 0.22555 0.79418
 H936 H 0.24120 0.30876 0.77856
 H937 H 0.28877 0.31419 0.76261
 H938 H 0.27412 0.31040 0.79924
 H939 H 0.19870 0.21808 0.71931
 H940 H 0.21577 0.19426 0.74907
 H941 H 0.29534 0.28888 0.71129
 H942 H 0.31338 0.26129 0.73587
 H943 H 0.17158 0.25996 0.77711
 H944 H 0.19096 0.23249 0.80117
 H945 H 0.27767 0.20845 0.71732
 H946 H 0.25730 0.23145 0.69037
 H947 H 0.22736 0.28403 0.82498
 H948 H 0.20742 0.31097 0.79870
 O949 O 0.21762 0.76259 0.29861
 O950 O 0.23652 0.72633 0.30288
 O951 O 0.27563 0.80806 0.29684
 O952 O 0.30656 0.81427 0.27450
 O953 O 0.21947 0.81794 0.24870
 O954 O 0.21174 0.80056 0.21271
 O955 O 0.32705 0.74593 0.22712
 O956 O 0.33227 0.75839 0.26443
 O957 O 0.27296 0.69943 0.23157
 O958 O 0.23493 0.69963 0.24654
 O959 O 0.27218 0.75327 0.18010
 O960 O 0.26224 0.79363 0.17952
 O961 O 0.31012 0.76623 0.19561
 O962 O 0.29061 0.80569 0.19369
 O963 O 0.25406 0.72223 0.19629
 O964 O 0.21802 0.71957 0.22316
 O965 O 0.30666 0.71131 0.24566
 O966 O 0.31505 0.72980 0.28288
 O967 O 0.20030 0.78072 0.26767
 O968 O 0.19644 0.77098 0.22720
 O969 O 0.25443 0.83087 0.26215
 O970 O 0.29277 0.82789 0.24174
 O971 O 0.25759 0.77763 0.31451
 O972 O 0.26834 0.73661 0.31355
 Zr973 Zr 0.25157 0.75558 0.28651
 O974 O 0.26907 0.73246 0.26376
 Zr975 Zr 0.27626 0.80106 0.26106
 O976 O 0.29586 0.77976 0.23806
 Zr977 Zr 0.22675 0.78304 0.24170
 O978 O 0.24406 0.76185 0.21698
 Zr979 Zr 0.30063 0.74646 0.25292
 O980 O 0.28407 0.76876 0.27743
 Zr981 Zr 0.25127 0.72928 0.23250
 O982 O 0.23193 0.74981 0.25682
 Zr983 Zr 0.27662 0.77497 0.20820
 O984 O 0.25777 0.79808 0.23030
 O985 O 0.24458 0.78823 0.27201
 O986 O 0.28339 0.74178 0.22193
 C987 C 0.20002 0.77179 0.28853
 C988 C 0.26756 0.79714 0.31496
 C989 C 0.23206 0.83521 0.25658
 C990 C 0.32859 0.75488 0.20491
 C991 C 0.29383 0.69579 0.23783
 C992 C 0.26277 0.73369 0.17873
 H993 H 0.27108 0.71735 0.27200
 H994 H 0.23441 0.76082 0.20312
 H995 H 0.23598 0.79834 0.28319
 H996 H 0.31083 0.78678 0.23415
 H997 H 0.32848 0.76896 0.27745
 H998 H 0.31979 0.80560 0.26733
 H999 H 0.21380 0.72860 0.20888
 H1000 H 0.19362 0.75566 0.23464
 H1001 H 0.30495 0.71717 0.28821
 H1002 H 0.28383 0.74308 0.31467
 H1003 H 0.24598 0.78928 0.17866
 H1004 H 0.22360 0.81082 0.20578
 H1005 H 0.22548 0.72060 0.29169
 H1006 H 0.24040 0.69695 0.26265
 H1007 H 0.28240 0.83301 0.22905
 H1008 H 0.30547 0.80801 0.20115
 O1009 O 0.22671 0.69258 0.77153
 O1010 O 0.26623 0.68950 0.76155
 O1011 O 0.22616 0.74653 0.82331
 O1012 O 0.23341 0.78305 0.82503
 O1013 O 0.17510 0.74582 0.76944
 O1014 O 0.17558 0.75892 0.72977
 O1015 O 0.28828 0.80420 0.75893
 O1016 O 0.29087 0.78641 0.79593
 O1017 O 0.29250 0.75085 0.71075
 O1018 O 0.27235 0.71634 0.70478
 O1019 O 0.24122 0.80336 0.70531
 O1020 O 0.20587 0.81220 0.72288
 O1021 O 0.25676 0.82172 0.74277
 O1022 O 0.21401 0.82298 0.75503
 O1023 O 0.25728 0.77037 0.69040
 O1024 O 0.24341 0.72944 0.69112
 O1025 O 0.30727 0.76700 0.74267
 O1026 O 0.30624 0.75365 0.78408
 O1027 O 0.19675 0.70803 0.75098
 O1028 O 0.19240 0.73050 0.71498
 O1029 O 0.18866 0.76385 0.80089
 O1030 O 0.21024 0.80083 0.80302
 O1031 O 0.24161 0.71262 0.80987
 O1032 O 0.27915 0.70607 0.79018
 Zr1033 Zr 0.24935 0.71989 0.77390
 O1034 O 0.27242 0.73818 0.75163
 Zr1035 Zr 0.22414 0.76804 0.79345
 O1036 O 0.24726 0.78843 0.77344
 Zr1037 Zr 0.20427 0.74338 0.74662
 O1038 O 0.22537 0.76388 0.72433
 Zr1039 Zr 0.27849 0.77019 0.76625
 O1040 O 0.25677 0.75110 0.78970
 Zr1041 Zr 0.25746 0.74678 0.71932
 O1042 O 0.23572 0.72529 0.74022
 Zr1043 Zr 0.23317 0.79487 0.74043
 O1044 O 0.20900 0.77595 0.76118
 O1045 O 0.21740 0.73620 0.77958
 O1046 O 0.26506 0.77840 0.73347
 C1047 C 0.20760 0.69101 0.76110
 C1048 C 0.23309 0.72549 0.82629
 C1049 C 0.17241 0.75502 0.78963
 C1050 C 0.27736 0.82191 0.75037
 C1051 C 0.30923 0.75876 0.72194
 C1052 C 0.25008 0.79154 0.68844
 H1053 H 0.28674 0.72874 0.74943
 H1054 H 0.21755 0.76688 0.70936
 H1055 H 0.20710 0.72665 0.78972
 H1056 H 0.24986 0.80276 0.78189
 H1057 H 0.28359 0.77878 0.80990
 H1058 H 0.24839 0.79031 0.82183
 H1059 H 0.23077 0.73933 0.68476
 H1060 H 0.20399 0.71875 0.70961
 H1061 H 0.31046 0.73907 0.77616
 H1062 H 0.28363 0.71753 0.80162
 H1063 H 0.19681 0.80020 0.71576
 H1064 H 0.17333 0.77456 0.73621
 H1065 H 0.26166 0.68801 0.74510
 H1066 H 0.28227 0.70889 0.71675
 H1067 H 0.19681 0.80427 0.79310
 H1068 H 0.22291 0.82893 0.76796
 O1069 O 0.25971 0.19685 0.21988
 O1070 O 0.29281 0.19151 0.24338
 O1071 O 0.20510 0.20113 0.27260
 O1072 O 0.19424 0.22366 0.30160
 O1073 O 0.20743 0.25176 0.21374
 O1074 O 0.23058 0.28397 0.20485
 O1075 O 0.25851 0.26685 0.32888
 O1076 O 0.24452 0.22962 0.33399
 O1077 O 0.31670 0.25687 0.28073
 O1078 O 0.32128 0.24232 0.24182
 O1079 O 0.26730 0.31282 0.26992
 O1080 O 0.22877 0.31558 0.25489
 O1081 O 0.24509 0.29823 0.30814
 O1082 O 0.21146 0.30392 0.28298
 O1083 O 0.30042 0.29376 0.25851
 O1084 O 0.30843 0.26913 0.22363
 O1085 O 0.29714 0.24638 0.31426
 O1086 O 0.27613 0.21182 0.32293
 O1087 O 0.24658 0.22821 0.19883
 O1088 O 0.26037 0.26648 0.19388
 O1089 O 0.18848 0.23843 0.24660
 O1090 O 0.18513 0.25612 0.28510
 O1091 O 0.23773 0.18236 0.25932
 O1092 O 0.27557 0.18026 0.27395
 Zr1093 Zr 0.26170 0.20855 0.25427
 O1094 O 0.28234 0.22909 0.27437
 Zr1095 Zr 0.21379 0.23614 0.27231
 O1096 O 0.23238 0.25768 0.29351
 Zr1097 Zr 0.24185 0.25415 0.22391
 O1098 O 0.26142 0.27676 0.24300
 Zr1099 Zr 0.26329 0.24110 0.30374
 O1100 O 0.24327 0.21828 0.28501
 Zr1101 Zr 0.29105 0.25921 0.25533
 O1102 O 0.27274 0.23720 0.23396
 Zr1103 Zr 0.24298 0.28673 0.27357
 O1104 O 0.22224 0.26631 0.25294
 O1105 O 0.23153 0.22463 0.24243
 O1106 O 0.27347 0.27099 0.28549
 C1107 C 0.25399 0.20709 0.20061
 C1108 C 0.21677 0.18272 0.26718
 C1109 C 0.18904 0.24578 0.22513
 C1110 C 0.25081 0.28786 0.32735
 C1111 C 0.31570 0.25161 0.30275
 C1112 C 0.28877 0.31220 0.26380
 H1113 H 0.29621 0.21988 0.27880
 H1114 H 0.26529 0.29023 0.23281
 H1115 H 0.22220 0.21442 0.23312
 H1116 H 0.22251 0.26191 0.30727
 H1117 H 0.23502 0.21678 0.32916
 H1118 H 0.20116 0.22957 0.31578
 H1119 H 0.29993 0.28260 0.21675
 H1120 H 0.27584 0.25883 0.19420
 H1121 H 0.28874 0.20439 0.31353
 H1122 H 0.26774 0.18061 0.28961
 H1123 H 0.23762 0.31730 0.23989
 H1124 H 0.21957 0.29245 0.21535
 H1125 H 0.30008 0.20161 0.23119
 H1126 H 0.32288 0.22719 0.25014
 H1127 H 0.18353 0.26987 0.27452
 H1128 H 0.20475 0.29571 0.29687
 O1129 O 0.80729 0.70432 0.25614
 O1130 O 0.81432 0.72196 0.21905
 O1131 O 0.81610 0.76298 0.30152
 O1132 O 0.80048 0.79835 0.30493
 O1133 O 0.76057 0.71783 0.31460
 O1134 O 0.72366 0.71448 0.29676
 O1135 O 0.75464 0.82332 0.23721
 O1136 O 0.79301 0.82300 0.25041
 O1137 O 0.75099 0.76874 0.19162
 O1138 O 0.76160 0.72658 0.19475
 O1139 O 0.70102 0.77632 0.24652
 O1140 O 0.69993 0.76811 0.28842
 O1141 O 0.72220 0.81185 0.25690
 O1142 O 0.71723 0.79563 0.29808
 O1143 O 0.71402 0.75525 0.21547
 O1144 O 0.73298 0.71727 0.21192
 O1145 O 0.77020 0.79998 0.20293
 O1146 O 0.80710 0.80371 0.22017
 O1147 O 0.77524 0.69335 0.27692
 O1148 O 0.73561 0.69514 0.26830
 O1149 O 0.77867 0.75002 0.32517
 O1150 O 0.76646 0.79035 0.32131
 O1151 O 0.83005 0.74223 0.27053
 O1152 O 0.83081 0.75085 0.22910
 Zr1153 Zr 0.80150 0.73989 0.24875
 O1154 O 0.78210 0.76046 0.22505
 Zr1155 Zr 0.78153 0.77012 0.29412
 O1156 O 0.76156 0.79224 0.27237
 Zr1157 Zr 0.75438 0.72369 0.27848
 O1158 O 0.73303 0.74367 0.25601
 Zr1159 Zr 0.77651 0.79368 0.23846
 O1160 O 0.79820 0.77389 0.26095
 Zr1161 Zr 0.74892 0.74749 0.22249
 O1162 O 0.76924 0.72521 0.24426
 Zr1163 Zr 0.72942 0.77758 0.26813
 O1164 O 0.74845 0.75676 0.29220
 O1165 O 0.78692 0.73657 0.28235
 O1166 O 0.74368 0.78106 0.23425
 C1167 C 0.79485 0.68901 0.26671
 C1168 C 0.83232 0.75211 0.29024
 C1169 C 0.76992 0.73032 0.32982
 C1170 C 0.73395 0.82688 0.24515
 C1171 C 0.76030 0.78840 0.18752
 C1172 C 0.69818 0.76658 0.22697
 H1173 H 0.79035 0.76083 0.20964
 H1174 H 0.71801 0.73620 0.25536
 H1175 H 0.79653 0.72656 0.29273
 H1176 H 0.76007 0.80781 0.27905
 H1177 H 0.80611 0.81720 0.25984
 H1178 H 0.79392 0.81251 0.29732
 H1179 H 0.72091 0.71345 0.22388
 H1180 H 0.74093 0.69169 0.25207
 H1181 H 0.81198 0.79130 0.20936
 H1182 H 0.83390 0.76662 0.23423
 H1183 H 0.69575 0.75254 0.28365
 H1184 H 0.71918 0.72753 0.30697
 H1185 H 0.80138 0.71308 0.21349
 H1186 H 0.77575 0.73354 0.18804
 H1187 H 0.75129 0.78382 0.32548
 H1188 H 0.72699 0.80912 0.29980
 O1189 O 0.69253 0.23596 0.79244
 O1190 O 0.71491 0.20108 0.79371
 O1191 O 0.74544 0.28566 0.80333
 O1192 O 0.77606 0.29928 0.78485
 O1193 O 0.69360 0.29722 0.75007
 O1194 O 0.69069 0.28335 0.71115
 O1195 O 0.80876 0.23863 0.73148
 O1196 O 0.80900 0.24752 0.77078
 O1197 O 0.76044 0.18708 0.72514
 O1198 O 0.72074 0.18250 0.73615
 O1199 O 0.75835 0.24627 0.67978
 O1200 O 0.74403 0.28537 0.68298
 O1201 O 0.79285 0.26123 0.70096
 O1202 O 0.76922 0.29836 0.70160
 O1203 O 0.74285 0.21192 0.69061
 O1204 O 0.70569 0.20232 0.71172
 O1205 O 0.79124 0.20081 0.74339
 O1206 O 0.79374 0.21507 0.78380
 O1207 O 0.67653 0.25715 0.76264
 O1208 O 0.67723 0.25112 0.72098
 O1209 O 0.72408 0.31137 0.76855
 O1210 O 0.76450 0.31469 0.75294
 O1211 O 0.72847 0.25206 0.81448
 O1212 O 0.74356 0.21316 0.80998
 Zr1213 Zr 0.72785 0.23359 0.78331
 O1214 O 0.75011 0.21543 0.76010
 Zr1215 Zr 0.74937 0.28422 0.76670
 O1216 O 0.77324 0.26799 0.74328
 Zr1217 Zr 0.70465 0.26415 0.73967
 O1218 O 0.72637 0.24779 0.71452
 Zr1219 Zr 0.78043 0.23380 0.75447
 O1220 O 0.75914 0.25097 0.77967
 Zr1221 Zr 0.73570 0.21443 0.72686
 O1222 O 0.71190 0.22992 0.75105
 Zr1223 Zr 0.75771 0.26492 0.71083
 O1224 O 0.73456 0.28326 0.73360
 O1225 O 0.71876 0.26706 0.77243
 O1226 O 0.76681 0.23117 0.72129
 C1227 C 0.67526 0.24563 0.78218
 C1228 C 0.73679 0.27168 0.81885
 C1229 C 0.70351 0.31316 0.76079
 C1230 C 0.81135 0.25034 0.71070
 C1231 C 0.78096 0.18498 0.73287
 C1232 C 0.75155 0.22607 0.67531
 H1233 H 0.75310 0.19974 0.76674
 H1234 H 0.71829 0.24751 0.69955
 H1235 H 0.70826 0.27482 0.78398
 H1236 H 0.78751 0.27685 0.74192
 H1237 H 0.80288 0.25541 0.78496
 H1238 H 0.79071 0.29186 0.77927
 H1239 H 0.70099 0.21355 0.69927
 H1240 H 0.67582 0.23474 0.72605
 H1241 H 0.78511 0.20071 0.78616
 H1242 H 0.75835 0.22033 0.81310
 H1243 H 0.72859 0.27967 0.67991
 H1244 H 0.70167 0.29565 0.70702
 H1245 H 0.70525 0.19624 0.78083
 H1246 H 0.72667 0.17741 0.75157
 H1247 H 0.75513 0.32027 0.73962
 H1248 H 0.78267 0.30134 0.71116
 C1249 C 0.08747 1.01670 1.21507
 C1250 C 0.09593 1.01500 1.19199
 C1251 C 0.08166 1.01443 1.17105
 C1252 C 0.09283 1.01653 1.14899
 C1253 C 0.08059 1.01496 1.12852
 C1254 C 0.05685 1.01097 1.12967
 C1255 C 0.04546 1.00952 1.15168
 C1256 C 0.05776 1.01107 1.17226
 C1257 C 0.04370 1.00859 1.10817
 C1258 C 0.05405 1.00018 1.08758
 H1259 H 0.11448 1.01403 1.18913
 H1260 H 0.11118 1.01933 1.14755
 H1261 H 0.08980 1.01708 1.11186
 H1262 H 0.02713 1.00665 1.15296
 H1263 H 0.04850 1.00912 1.18888
 H1264 H 0.02544 1.01305 1.10872
 H1265 H 0.06918 1.01824 1.21901
 H1266 H 0.07185 0.99406 1.08747
 C1267 C 0.60610 0.49861 0.69177
 C1268 C 0.59378 0.51649 0.68060
 C1269 C 0.58390 0.51390 0.65738
 C1270 C 0.56423 0.52716 0.65150
 C1271 C 0.55430 0.52480 0.62977
 C1272 C 0.56406 0.50922 0.61347
 C1273 C 0.58422 0.49661 0.61901
 C1274 C 0.59405 0.49885 0.64079
 C1275 C 0.55412 0.50634 0.59032
 C1276 C 0.53075 0.51009 0.58639
 H1277 H 0.59058 0.53256 0.68963
 H1278 H 0.55642 0.53920 0.66385
 H1279 H 0.53927 0.53548 0.62567
 H1280 H 0.59229 0.48488 0.60651
 H1281 H 0.60976 0.48904 0.64440
 H1282 H 0.56547 0.50043 0.57612
 H1283 H 0.60801 0.48194 0.68366
 H1284 H 0.51896 0.51442 0.60079
 C1285 C 0.39574 0.00588 0.70904
 C1286 C 0.38735 0.00678 0.68634
 C1287 C 0.40155 0.00540 0.66452
 C1288 C 0.42547 0.00851 0.66369
 C1289 C 0.43783 0.00782 0.64226
 C1290 C 0.42644 0.00399 0.62136
 C1291 C 0.40260 0.00098 0.62231
 C1292 C 0.39031 0.00166 0.64363
 C1293 C 0.43837 0.00388 0.59814
 C1294 C 0.46211 0.00074 0.59466
 H1295 H 0.36882 0.00800 0.68454
 H1296 H 0.43465 0.01202 0.67933
 H1297 H 0.45608 0.01090 0.64216
 H1298 H 0.39340 -0.00186 0.60647
 H1299 H 0.37187 -0.00065 0.64378
 H1300 H 0.42768 0.00554 0.58292
 H1301 H 0.41397 0.00360 0.71201
 H1302 H 0.47321 -0.00233 0.60936
 C1303 C -0.09459 0.49274 1.20228
 C1304 C -0.10064 0.49234 1.17882
 C1305 C -0.08417 0.48806 1.15897
 C1306 C -0.09278 0.47991 1.13818
 C1307 C -0.07829 0.47653 1.11854
 C1308 C -0.05482 0.48172 1.11906
 C1309 C -0.04597 0.48916 1.14009
 C1310 C -0.06051 0.49243 1.15989
 C1311 C -0.03966 0.48012 1.09771
 C1312 C -0.04845 0.48421 1.07546
 H1313 H -0.11879 0.49386 1.17497
 H1314 H -0.11086 0.47614 1.13710
 H1315 H -0.08559 0.46988 1.10296
 H1316 H -0.02793 0.49315 1.14097
 H1317 H -0.05330 0.49901 1.17554
 H1318 H -0.02125 0.47748 1.09958
 H1319 H -0.07676 0.49031 1.20697
 H1320 H -0.06652 0.48898 1.07392
 C1321 C -0.11680 0.49506 0.28845
 C1322 C -0.09473 0.49295 0.29764
 C1323 C -0.08964 0.49417 0.32287
 C1324 C -0.06685 0.49798 0.32879
 C1325 C -0.06075 0.49884 0.35218
 C1326 C -0.07739 0.49596 0.37037
 C1327 C -0.10016 0.49179 0.36455
 C1328 C -0.10631 0.49097 0.34102
 C1329 C -0.07108 0.49590 0.39536
 C1330 C -0.05166 0.50684 0.40288
 H1331 H -0.07990 0.49142 0.28585
 H1332 H -0.05357 0.50018 0.31521
 H1333 H -0.04283 0.50114 0.35582
 H1334 H -0.11321 0.48909 0.37825
 H1335 H -0.12394 0.48737 0.33728
 H1336 H -0.08181 0.48666 0.40808
 H1337 H -0.13153 0.49751 0.30027
 H1338 H -0.04177 0.51745 0.39064
 C1339 C 0.37810 1.00572 -0.20511
 C1340 C 0.40064 1.00302 -0.19713
 C1341 C 0.40696 1.00086 -0.17213
 C1342 C 0.42943 0.99297 -0.16728
 C1343 C 0.43698 0.99160 -0.14434
 C1344 C 0.42233 0.99840 -0.12552
 C1345 C 0.39957 1.00555 -0.13010
 C1346 C 0.39194 1.00697 -0.15324
 C1347 C 0.43092 0.99830 -0.10130
 C1348 C 0.45372 1.00363 -0.09743
 H1349 H 0.41486 1.00146 -0.20968
 H1350 H 0.44133 0.98791 -0.18137
 H1351 H 0.45439 0.98518 -0.14140
 H1352 H 0.38791 1.01071 -0.11585
 H1353 H 0.37456 1.01339 -0.15615
 H1354 H 0.41927 0.99460 -0.08658
 H1355 H 0.36396 1.00622 -0.19234
 H1356 H 0.46440 1.00934 -0.11224
 C1357 C 0.59637 0.51372 -0.22323
 C1358 C 0.60401 0.51112 -0.20031
 C1359 C 0.58789 0.50967 -0.17960
 C1360 C 0.59532 0.49786 -0.15929
 C1361 C 0.58062 0.49562 -0.13956
 C1362 C 0.55813 0.50540 -0.13957
 C1363 C 0.55058 0.51710 -0.15987
 C1364 C 0.56534 0.51946 -0.17962
 C1365 C 0.54264 0.50405 -0.11843
 C1366 C 0.55146 0.50493 -0.09607
 H1367 H 0.62205 0.50751 -0.19732
 H1368 H 0.61250 0.49005 -0.15878
 H1369 H 0.58685 0.48602 -0.12438
 H1370 H 0.53341 0.52495 -0.16023
 H1371 H 0.55909 0.52929 -0.19461
 H1372 H 0.52416 0.50427 -0.12049
 H1373 H 0.57804 0.51574 -0.22578
 H1374 H 0.56979 0.50705 -0.09445
 C1375 C 0.10256 0.01748 0.30177
 C1376 C 0.07989 0.02021 0.31061
 C1377 C 0.07274 0.01712 0.33570
 C1378 C 0.04911 0.01581 0.34132
 C1379 C 0.04129 0.01215 0.36447
 C1380 C 0.05701 0.00962 0.38266
 C1381 C 0.08060 0.01159 0.37722
 C1382 C 0.08846 0.01525 0.35401
 C1383 C 0.04939 0.00566 0.40745
 C1384 C 0.02812 -0.00347 0.41412
 H1385 H 0.06615 0.02369 0.29859
 H1386 H 0.03657 0.01748 0.32767
 H1387 H 0.02292 0.01165 0.36796
 H1388 H 0.09304 0.01010 0.39097
 H1389 H 0.10676 0.01669 0.35075
 H1390 H 0.06129 0.00954 0.42096
 H1391 H 0.11639 0.01440 0.31377
 H1392 H 0.01655 -0.00880 0.40095
 C1393 C 0.20145 1.10815 1.00848
 C1394 C 0.19280 1.09764 0.98908
 C1395 C 0.16849 1.09108 0.98866
 C1396 C 0.16291 1.07045 0.97827
 C1397 C 0.14014 1.06334 0.97894
 C1398 C 0.12252 1.07706 0.98957
 C1399 C 0.12789 1.09837 0.99867
 C1400 C 0.15074 1.10525 0.99844
 C1401 C 0.09878 1.06881 0.99203
 C1402 C 0.09505 1.04606 0.99910
 H1403 H 0.20421 1.09367 0.97424
 H1404 H 0.17627 1.05950 0.97029
 H1405 H 0.13629 1.04705 0.97129
 H1406 H 0.11451 1.10929 1.00667
 H1407 H 0.15453 1.12164 1.00592
 H1408 H 0.08435 1.08092 0.98989
 H1409 H 0.19011 1.11076 1.02370
 H1410 H 0.10978 1.03493 1.00335
 C1411 C 0.70020 0.59439 0.51112
 C1412 C 0.67785 0.60325 0.51537
 C1413 C 0.65673 0.58976 0.51508
 C1414 C 0.63544 0.60190 0.51497
 C1415 C 0.61491 0.59017 0.51433
 C1416 C 0.61525 0.56593 0.51371
 C1417 C 0.63647 0.55372 0.51458
 C1418 C 0.65707 0.56548 0.51522
 C1419 C 0.59391 0.55288 0.51252
 C1420 C 0.57334 0.56243 0.50399
 H1421 H 0.67570 0.62164 0.51818
 H1422 H 0.63469 0.62060 0.51528
 H1423 H 0.59890 0.60020 0.51462
 H1424 H 0.63713 0.53501 0.51454
 H1425 H 0.67303 0.55543 0.51599
 H1426 H 0.59479 0.53468 0.51745
 H1427 H 0.70333 0.57649 0.50680
 H1428 H 0.57236 0.58017 0.49762
 C1429 C 0.70922 0.41116 -0.00811
 C1430 C 0.68687 0.40300 -0.00773
 C1431 C 0.66658 0.41814 -0.01185
 C1432 C 0.64783 0.40905 -0.02291
 C1433 C 0.62811 0.42272 -0.02681
 C1434 C 0.62670 0.44561 -0.01925
 C1435 C 0.64564 0.45488 -0.00866
 C1436 C 0.66544 0.44121 -0.00482
 C1437 C 0.60538 0.45980 -0.02127
 C1438 C 0.58384 0.44999 -0.01913
 H1439 H 0.68448 0.38450 -0.00667
 H1440 H 0.64853 0.39137 -0.02867
 H1441 H 0.61403 0.41533 -0.03571
 H1442 H 0.64483 0.47248 -0.00266
 H1443 H 0.67950 0.44853 0.00419
 H1444 H 0.60659 0.47843 -0.02151
 H1445 H 0.71181 0.42946 -0.01103
 H1446 H 0.58251 0.43147 -0.01673
 C1447 C 0.21164 -0.08574 0.50160
 C1448 C 0.19036 -0.09522 0.49777
 C1449 C 0.16887 -0.08150 0.49396
 C1450 C 0.15071 -0.09219 0.48335
 C1451 C 0.12972 -0.08036 0.48016
 C1452 C 0.12636 -0.05763 0.48786
 C1453 C 0.14473 -0.04662 0.49776
 C1454 C 0.16579 -0.05847 0.50096
 C1455 C 0.10363 -0.04553 0.48684
 C1456 C 0.08327 -0.05752 0.48957
 H1457 H 0.18980 -0.11379 0.49606
 H1458 H 0.15273 -0.10983 0.47758
 H1459 H 0.11614 -0.08912 0.47177
 H1460 H 0.14252 -0.02909 0.50381
 H1461 H 0.17924 -0.04972 0.50953
 H1462 H 0.10292 -0.02682 0.48703
 H1463 H 0.21327 -0.06722 0.50210
 H1464 H 0.08399 -0.07615 0.49172
 C1465 C 0.29977 -0.09087 0.51033
 C1466 C 0.32128 -0.10163 0.51260
 C1467 C 0.34193 -0.08798 0.51616
 C1468 C 0.36330 -0.09943 0.51919
 C1469 C 0.38319 -0.08689 0.52184
 C1470 C 0.38210 -0.06255 0.52124
 C1471 C 0.36061 -0.05115 0.51893
 C1472 C 0.34074 -0.06366 0.51634
 C1473 C 0.40288 -0.04848 0.52242
 C1474 C 0.42492 -0.05690 0.51620
 H1475 H 0.32308 -0.12031 0.51175
 H1476 H 0.36464 -0.11813 0.51942
 H1477 H 0.39925 -0.09640 0.52443
 H1478 H 0.35924 -0.03244 0.51859
 H1479 H 0.32453 -0.05422 0.51419
 H1480 H 0.40047 -0.03032 0.52623
 H1481 H 0.28907 -0.10080 0.50793
 H1482 H 0.42753 -0.07465 0.51107
 C1483 C -0.20497 0.40381 0.99190
 C1484 C -0.18372 0.39256 0.99421
 C1485 C -0.16260 0.40568 0.99610
 C1486 C -0.14153 0.39362 0.99881
 C1487 C -0.12121 0.40557 1.00034
 C1488 C -0.12164 0.42986 0.99897
 C1489 C -0.14278 0.44194 0.99695
 C1490 C -0.16310 0.42999 0.99541
 C1491 C -0.10043 0.44307 0.99948
 C1492 C -0.07920 0.43402 0.99159
 H1493 H -0.18245 0.37379 0.99513
 H1494 H -0.14079 0.37490 0.99974
 H1495 H -0.10530 0.39572 1.00280
 H1496 H -0.14352 0.46065 0.99611
 H1497 H -0.17911 0.43985 0.99355
 H1498 H -0.10188 0.46094 1.00464
 H1499 H -0.21492 0.39326 0.99126
 H1500 H -0.07776 0.41671 0.98491
 C1501 C -0.21406 0.60818 0.50568
 C1502 C -0.20557 0.58529 0.50599
 C1503 C -0.18078 0.57809 0.50599
 C1504 C -0.17523 0.55437 0.50521
 C1505 C -0.15236 0.54632 0.50503
 C1506 C -0.13429 0.56187 0.50541
 C1507 C -0.13971 0.58557 0.50688
 C1508 C -0.16271 0.59368 0.50708
 C1509 C -0.10987 0.55361 0.50455
 C1510 C -0.10307 0.53328 0.49335
 H1511 H -0.21759 0.57146 0.50637
 H1512 H -0.18870 0.54188 0.50477
 H1513 H -0.14897 0.52786 0.50490
 H1514 H -0.12609 0.59786 0.50756
 H1515 H -0.16600 0.61207 0.50812
 H1516 H -0.09699 0.56403 0.51211
 H1517 H -0.20214 0.62211 0.50514
 H1518 H -0.11568 0.52396 0.48409
 C1519 C 0.29097 1.09909 -0.00335
 C1520 C 0.31316 1.10741 -0.00297
 C1521 C 0.33395 1.09228 -0.00689
 C1522 C 0.35584 1.10145 -0.00480
 C1523 C 0.37579 1.08748 -0.00769
 C1524 C 0.37426 1.06395 -0.01280
 C1525 C 0.35237 1.05485 -0.01522
 C1526 C 0.33242 1.06881 -0.01228
 C1527 C 0.39505 1.04850 -0.01515
 C1528 C 0.41703 1.05600 -0.01103
 H1529 H 0.31546 1.12540 0.00095
 H1530 H 0.35754 1.11944 -0.00067
 H1531 H 0.39236 1.09510 -0.00572
 H1532 H 0.35068 1.03679 -0.01913
 H1533 H 0.31582 1.06116 -0.01404
 H1534 H 0.39294 1.03055 -0.01933
 H1535 H 0.28025 1.10951 -0.00024
 H1536 H 0.42826 1.04674 -0.01167
 C1537 C 0.01076 1.20694 1.09762
 C1538 C 0.00687 1.18400 1.10435
 C1539 C 0.00847 1.16426 1.08828
 C1540 C 0.01064 1.14191 1.09818
 C1541 C 0.01208 1.12261 1.08401
 C1542 C 0.01101 1.12516 1.05947
 C1543 C 0.00917 1.14753 1.04946
 C1544 C 0.00776 1.16692 1.06369
 C1545 C 0.01203 1.10484 1.04410
 C1546 C 0.00467 1.08321 1.05202
 H1547 H 0.00380 1.18016 1.12287
 H1548 H 0.01144 1.13934 1.11702
 H1549 H 0.01437 1.10578 1.09241
 H1550 H 0.00843 1.14997 1.03060
 H1551 H 0.00575 1.18380 1.05534
 H1552 H 0.01789 1.10714 1.02599
 H1553 H 0.01521 1.21139 1.07955
 H1554 H -0.00288 1.08132 1.06952
 C1555 C 0.49321 0.71124 0.59711
 C1556 C 0.49527 0.68828 0.60494
 C1557 C 0.49451 0.66855 0.58903
 C1558 C 0.48899 0.64675 0.59845
 C1559 C 0.48820 0.62770 0.58399
 C1560 C 0.49298 0.63009 0.55970
 C1561 C 0.49904 0.65177 0.55039
 C1562 C 0.49982 0.67081 0.56484
 C1563 C 0.49291 0.61029 0.54378
 C1564 C 0.48167 0.58985 0.54932
 H1565 H 0.49678 0.68471 0.62359
 H1566 H 0.48525 0.64445 0.61708
 H1567 H 0.48434 0.61114 0.59210
 H1568 H 0.50326 0.65399 0.53185
 H1569 H 0.50506 0.68708 0.55699
 H1570 H 0.50215 0.61188 0.52704
 H1571 H 0.48968 0.71508 0.57889
 H1572 H 0.47153 0.58819 0.56546
 C1573 C 0.02148 0.69756 0.39819
 C1574 C 0.00409 0.68872 0.41292
 C1575 C 0.00336 0.66435 0.42122
 C1576 C -0.01423 0.65806 0.43731
 C1577 C -0.01670 0.63501 0.44443
 C1578 C -0.00143 0.61774 0.43565
 C1579 C 0.01611 0.62401 0.41952
 C1580 C 0.01852 0.64702 0.41233
 C1581 C -0.00342 0.59306 0.44240
 C1582 C -0.01569 0.58529 0.46230
 H1583 H -0.01062 0.69999 0.41722
 H1584 H -0.02637 0.67098 0.44412
 H1585 H -0.03090 0.63093 0.45634
 H1586 H 0.02795 0.61101 0.41233
 H1587 H 0.03195 0.65082 0.39942
 H1588 H 0.00622 0.58055 0.43189
 H1589 H 0.03704 0.68742 0.39446
 H1590 H -0.02442 0.59741 0.47389
 C1591 C 0.49130 1.20945 -0.09265
 C1592 C 0.49271 1.18777 -0.10280
 C1593 C 0.49356 1.16544 -0.08971
 C1594 C 0.49456 1.14514 -0.10264
 C1595 C 0.49537 1.12353 -0.09131
 C1596 C 0.49537 1.12179 -0.06669
 C1597 C 0.49415 1.14204 -0.05373
 C1598 C 0.49332 1.16369 -0.06507
 C1599 C 0.49600 1.09931 -0.05390
 C1600 C 0.50334 1.07859 -0.06406
 H1601 H 0.49314 1.18725 -0.12180
 H1602 H 0.49457 1.14599 -0.12164
 H1603 H 0.49558 1.10838 -0.10197
 H1604 H 0.49396 1.14113 -0.03474
 H1605 H 0.49250 1.17876 -0.05432
 H1606 H 0.49102 1.09924 -0.03542
 H1607 H 0.49083 1.21128 -0.07385
 H1608 H 0.50948 1.07821 -0.08213
 C1609 C 0.48929 0.29848 -0.09840
 C1610 C 0.49235 0.31983 -0.10945
 C1611 C 0.49516 0.34079 -0.09566
 C1612 C 0.49951 0.36185 -0.10740
 C1613 C 0.50260 0.38184 -0.09478
 C1614 C 0.50120 0.38116 -0.07008
 C1615 C 0.49716 0.36003 -0.05837
 C1616 C 0.49408 0.34007 -0.07096
 C1617 C 0.50399 0.40193 -0.05595
 C1618 C 0.50012 0.42438 -0.06470
 H1619 H 0.49367 0.32110 -0.12846
 H1620 H 0.50071 0.36280 -0.12639
 H1621 H 0.50642 0.39760 -0.10450
 H1622 H 0.49617 0.35899 -0.03937
 H1623 H 0.49089 0.32411 -0.06128
 H1624 H 0.50764 0.39939 -0.03753
 H1625 H 0.48848 0.28744 -0.10858
 H1626 H 0.49485 0.42724 -0.08258
 C1627 C 0.01111 -0.21383 0.40500
 C1628 C 0.00874 -0.19124 0.39653
 C1629 C 0.00785 -0.17155 0.41258
 C1630 C 0.00449 -0.14907 0.40335
 C1631 C 0.00365 -0.13014 0.41807
 C1632 C 0.00609 -0.13336 0.44244
 C1633 C 0.00984 -0.15580 0.45162
 C1634 C 0.01058 -0.17474 0.43691
 C1635 C 0.00551 -0.11370 0.45853
 C1636 C -0.00615 -0.09285 0.45348
 H1637 H 0.00759 -0.18785 0.37779
 H1638 H 0.00263 -0.14612 0.38466
 H1639 H 0.00156 -0.11304 0.41021
 H1640 H 0.01202 -0.15870 0.47027
 H1641 H 0.01339 -0.19182 0.44464
 H1642 H 0.01400 -0.11595 0.47511
 H1643 H 0.01171 -0.22382 0.39376
 H1644 H -0.01598 -0.09095 0.43770
 C1645 C 0.49383 -0.20417 0.60481
 C1646 C 0.49755 -0.18371 0.61629
 C1647 C 0.49758 -0.16148 0.60279
 C1648 C 0.51379 -0.14486 0.60731
 C1649 C 0.51545 -0.12487 0.59301
 C1650 C 0.50062 -0.12107 0.57410
 C1651 C 0.48387 -0.13735 0.57026
 C1652 C 0.48224 -0.15721 0.58449
 C1653 C 0.50210 -0.10088 0.55761
 C1654 C 0.51373 -0.08077 0.56186
 H1655 H 0.50276 -0.18407 0.63433
 H1656 H 0.52575 -0.14777 0.62135
 H1657 H 0.52876 -0.11292 0.59647
 H1658 H 0.47205 -0.13478 0.55604
 H1659 H 0.46908 -0.16937 0.58097
 H1660 H 0.49235 -0.10142 0.54176
 H1661 H 0.49146 -0.20297 0.58604
 H1662 H 0.52252 -0.07900 0.57810
 C1663 C 0.01867 0.29076 1.11712
 C1664 C 0.02223 0.29976 1.09429
 C1665 C 0.02167 0.32469 1.08738
 C1666 C 0.02835 0.33065 1.06421
 C1667 C 0.02642 0.35345 1.05587
 C1668 C 0.01756 0.37098 1.07047
 C1669 C 0.01178 0.36535 1.09397
 C1670 C 0.01361 0.34236 1.10236
 C1671 C 0.01402 0.39495 1.06114
 C1672 C 0.00743 0.39906 1.03804
 H1673 H 0.02572 0.28796 1.08018
 H1674 H 0.03480 0.31752 1.05229
 H1675 H 0.03182 0.35729 1.03789
 H1676 H 0.00511 0.37861 1.10562
 H1677 H 0.00810 0.33858 1.12028
 H1678 H 0.01568 0.40931 1.07269
 H1679 H 0.01736 0.30241 1.13162
 H1680 H 0.00369 0.38445 1.02748
 C1681 C 0.75299 0.34952 0.03300
 C1682 C 0.73899 0.34783 0.05328
 C1683 C 0.74560 0.33478 0.07477
 C1684 C 0.73348 0.33986 0.09573
 C1685 C 0.73912 0.32848 0.11666
 C1686 C 0.75716 0.31173 0.11713
 C1687 C 0.76893 0.30614 0.09610
 C1688 C 0.76328 0.31757 0.07507
 C1689 C 0.76298 0.29890 0.13897
 C1690 C 0.75755 0.30752 0.16111
 H1691 H 0.72280 0.35748 0.05432
 H1692 H 0.71956 0.35277 0.09594
 H1693 H 0.72889 0.33255 0.13226
 H1694 H 0.78253 0.29289 0.09596
 H1695 H 0.77258 0.31255 0.05922
 H1696 H 0.77102 0.28183 0.13753
 H1697 H 0.76901 0.33955 0.03185
 H1698 H 0.75082 0.32505 0.16287
 C1699 C 0.25602 0.84820 0.53973
 C1700 C 0.23970 0.84252 0.55736
 C1701 C 0.24461 0.82838 0.57877
 C1702 C 0.22855 0.82977 0.59761
 C1703 C 0.23261 0.81805 0.61877
 C1704 C 0.25286 0.80451 0.62166
 C1705 C 0.26850 0.80212 0.60256
 C1706 C 0.26454 0.81411 0.58129
 C1707 C 0.25746 0.79280 0.64447
 C1708 C 0.25087 0.80342 0.66539
 H1709 H 0.22244 0.84992 0.55645
 H1710 H 0.21291 0.84034 0.59612
 H1711 H 0.21979 0.81957 0.63289
 H1712 H 0.28401 0.79142 0.60429
 H1713 H 0.27707 0.81206 0.56704
 H1714 H 0.26589 0.77585 0.64479
 H1715 H 0.27288 0.83976 0.53973
 H1716 H 0.24432 0.82115 0.66470
 C1717 C 0.74443 0.65098 0.55209
 C1718 C 0.76342 0.66421 0.55617
 C1719 C 0.76714 0.67096 0.58056
 C1720 C 0.76916 0.69422 0.58599
 C1721 C 0.76849 0.70087 0.60946
 C1722 C 0.76607 0.68425 0.62782
 C1723 C 0.76590 0.66084 0.62230
 C1724 C 0.76622 0.65426 0.59890
 C1725 C 0.76307 0.69085 0.65269
 C1726 C 0.75124 0.71117 0.65901
 H1727 H 0.77458 0.67039 0.54198
 H1728 H 0.77006 0.70733 0.57211
 H1729 H 0.76952 0.71902 0.61318
 H1730 H 0.76444 0.64770 0.63609
 H1731 H 0.76498 0.63613 0.59508
 H1732 H 0.76880 0.67877 0.66628
 H1733 H 0.73283 0.64772 0.56702
 H1734 H 0.74428 0.72248 0.64538
 C1735 C 0.25843 0.15174 0.05184
 C1736 C 0.24856 0.14770 0.07424
 C1737 C 0.25239 0.16149 0.09511
 C1738 C 0.24596 0.15206 0.11716
 C1739 C 0.24675 0.16511 0.13727
 C1740 C 0.25406 0.18800 0.13583
 C1741 C 0.26062 0.19748 0.11379
 C1742 C 0.25991 0.18433 0.09356
 C1743 C 0.25379 0.20254 0.15682
 C1744 C 0.25566 0.19311 0.17948
 H1745 H 0.23747 0.13319 0.07707
 H1746 H 0.23973 0.13464 0.11878
 H1747 H 0.24079 0.15739 0.15374
 H1748 H 0.26605 0.21519 0.11220
 H1749 H 0.26443 0.19233 0.07677
 H1750 H 0.25257 0.22115 0.15433
 H1751 H 0.27252 0.16346 0.04968
 H1752 H 0.25923 0.17478 0.18198
 C1753 C 0.25282 0.16871 0.97437
 C1754 C 0.23640 0.17950 0.95993
 C1755 C 0.24145 0.19384 0.93859
 C1756 C 0.22268 0.20184 0.92541
 C1757 C 0.22613 0.21303 0.90374
 C1758 C 0.24851 0.21662 0.89473
 C1759 C 0.26737 0.20988 0.90837
 C1760 C 0.26393 0.19834 0.93006
 C1761 C 0.25221 0.22671 0.87091
 C1762 C 0.23824 0.22090 0.85265
 H1763 H 0.21837 0.17655 0.96374
 H1764 H 0.20517 0.19879 0.93155
 H1765 H 0.21124 0.21865 0.89389
 H1766 H 0.28478 0.21269 0.90179
 H1767 H 0.27890 0.19254 0.93961
 H1768 H 0.26690 0.23745 0.86734
 H1769 H 0.27050 0.17397 0.97318
 H1770 H 0.22526 0.20808 0.85586
 C1771 C 0.73962 0.65629 0.46719
 C1772 C 0.75963 0.66703 0.45914
 C1773 C 0.76186 0.67520 0.43425
 C1774 C 0.77446 0.69482 0.42816
 C1775 C 0.77567 0.70314 0.40483
 C1776 C 0.76436 0.69181 0.38705
 C1777 C 0.75272 0.67158 0.39310
 C1778 C 0.75154 0.66332 0.41631
 C1779 C 0.76413 0.70019 0.36213
 C1780 C 0.77125 0.72195 0.35442
 H1781 H 0.77384 0.66909 0.47064
 H1782 H 0.78300 0.70398 0.44155
 H1783 H 0.78549 0.71836 0.40100
 H1784 H 0.74425 0.66218 0.37983
 H1785 H 0.74257 0.64750 0.42011
 H1786 H 0.75715 0.68900 0.34938
 H1787 H 0.72539 0.65641 0.45533
 H1788 H 0.77785 0.73375 0.36673
 C1789 C 0.26299 0.85623 0.46092
 C1790 C 0.25324 0.85919 0.43886
 C1791 C 0.25716 0.84361 0.41895
 C1792 C 0.25230 0.85245 0.39648
 C1793 C 0.25399 0.83832 0.37713
 C1794 C 0.26059 0.81488 0.37974
 C1795 C 0.26512 0.80579 0.40225
 C1796 C 0.26361 0.82010 0.42177
 C1797 C 0.26206 0.79996 0.35905
 C1798 C 0.26935 0.80892 0.33725
 H1799 H 0.24277 0.87452 0.43519
 H1800 H 0.24688 0.87038 0.39389
 H1801 H 0.24957 0.84572 0.36018
 H1802 H 0.26989 0.78768 0.40470
 H1803 H 0.26684 0.81263 0.43898
 H1804 H 0.25734 0.78206 0.36095
 H1805 H 0.27620 0.84288 0.46352
 H1806 H 0.27619 0.82612 0.33625
 C1807 C 0.75188 0.34803 0.95387
 C1808 C 0.73522 0.34349 0.93766
 C1809 C 0.73983 0.32933 0.91692
 C1810 C 0.72140 0.31837 0.90713
 C1811 C 0.72449 0.30685 0.88608
 C1812 C 0.74610 0.30635 0.87430
 C1813 C 0.76462 0.31716 0.88417
 C1814 C 0.76159 0.32844 0.90544
 C1815 C 0.74917 0.29648 0.85085
 C1816 C 0.73574 0.27881 0.84329
 H1817 H 0.71767 0.34990 0.94048
 H1818 H 0.70442 0.31916 0.91555
 H1819 H 0.70969 0.29928 0.87860
 H1820 H 0.78133 0.31724 0.87518
 H1821 H 0.77597 0.33730 0.91227
 H1822 H 0.76239 0.30346 0.83910
 H1823 H 0.76816 0.33840 0.95323
 H1824 H 0.72434 0.26984 0.85557
 C1825 C 0.83418 0.46237 0.24262
 C1826 C 0.83098 0.44427 0.22725
 C1827 C 0.81752 0.42339 0.23271
 C1828 C 0.82433 0.40304 0.22123
 C1829 C 0.81244 0.38274 0.22525
 C1830 C 0.79311 0.38231 0.24063
 C1831 C 0.78579 0.40277 0.25174
 C1832 C 0.79809 0.42315 0.24807
 C1833 C 0.78048 0.36062 0.24456
 C1834 C 0.79244 0.33939 0.24646
 H1835 H 0.84025 0.44412 0.21056
 H1836 H 0.83910 0.40279 0.20914
 H1837 H 0.81817 0.36742 0.21598
 H1838 H 0.77076 0.40288 0.26347
 H1839 H 0.79214 0.43868 0.25682
 H1840 H 0.76186 0.36139 0.24630
 H1841 H 0.82378 0.46332 0.25866
 H1842 H 0.81105 0.33932 0.24741
 C1843 C 0.33054 0.96892 0.75332
 C1844 C 0.33359 0.94761 0.74217
 C1845 C 0.31897 0.92714 0.74489
 C1846 C 0.32775 0.90645 0.73533
 C1847 C 0.31486 0.88661 0.73617
 C1848 C 0.29274 0.88678 0.74676
 C1849 C 0.28361 0.90754 0.75603
 C1850 C 0.29667 0.92760 0.75524
 C1851 C 0.27911 0.86552 0.74781
 C1852 C 0.28984 0.84361 0.74937
 H1853 H 0.34884 0.94472 0.73125
 H1854 H 0.34473 0.90560 0.72690
 H1855 H 0.32219 0.87125 0.72808
 H1856 H 0.26645 0.90816 0.76403
 H1857 H 0.28919 0.94335 0.76236
 H1858 H 0.26048 0.86713 0.74850
 H1859 H 0.31713 0.97108 0.76674
 H1860 H 0.30828 0.84219 0.75155
 C1861 C 0.14683 0.97131 0.26027
 C1862 C 0.14271 0.94982 0.25078
 C1863 C 0.15669 0.92838 0.25477
 C1864 C 0.18007 0.92833 0.26053
 C1865 C 0.19301 0.90746 0.26167
 C1866 C 0.18270 0.88642 0.25715
 C1867 C 0.15927 0.88659 0.25203
 C1868 C 0.14647 0.90730 0.25074
 C1869 C 0.19568 0.86407 0.25672
 C1870 C 0.21930 0.86170 0.25956
 H1871 H 0.12748 0.94790 0.24072
 H1872 H 0.18855 0.94433 0.26330
 H1873 H 0.21110 0.90785 0.26562
 H1874 H 0.15091 0.87066 0.24847
 H1875 H 0.12853 0.90686 0.24617
 H1876 H 0.18626 0.84875 0.25315
 H1877 H 0.16011 0.97253 0.27302
 H1878 H 0.22621 0.84896 0.25834
 C1879 C 0.65120 0.46404 0.75775
 C1880 C 0.64695 0.44112 0.75241
 C1881 C 0.65954 0.42025 0.76120
 C1882 C 0.64845 0.39921 0.76033
 C1883 C 0.66038 0.37834 0.76435
 C1884 C 0.68410 0.37782 0.76891
 C1885 C 0.69495 0.39904 0.77106
 C1886 C 0.68278 0.42013 0.76728
 C1887 C 0.69815 0.35577 0.76994
 C1888 C 0.68944 0.33440 0.76442
 H1889 H 0.63263 0.43783 0.74142
 H1890 H 0.63052 0.39885 0.75566
 H1891 H 0.65073 0.36289 0.76307
 H1892 H 0.71310 0.39929 0.77476
 H1893 H 0.69185 0.43612 0.76784
 H1894 H 0.71639 0.35667 0.77311
 H1895 H 0.66217 0.46756 0.77214
 H1896 H 0.67150 0.33294 0.76065
 C1897 C 0.66107 0.54134 0.73690
 C1898 C 0.66740 0.55135 0.75760
 C1899 C 0.67994 0.57324 0.75618
 C1900 C 0.67221 0.59196 0.76973
 C1901 C 0.68185 0.61369 0.76616
 C1902 C 0.69963 0.61695 0.74914
 C1903 C 0.70825 0.59785 0.73663
 C1904 C 0.69840 0.57626 0.73996
 C1905 C 0.70997 0.63976 0.74453
 C1906 C 0.69792 0.66070 0.74806
 H1907 H 0.65993 0.54568 0.77431
 H1908 H 0.65813 0.58998 0.78246
 H1909 H 0.67537 0.62783 0.77676
 H1910 H 0.72225 0.59979 0.72380
 H1911 H 0.70497 0.56197 0.72959
 H1912 H 0.72759 0.64003 0.73773
 H1913 H 0.66651 0.54977 0.72054
 H1914 H 0.67995 0.66066 0.75369
 C1915 C 0.15470 0.04979 0.25161
 C1916 C 0.16705 0.05467 0.27133
 C1917 C 0.18140 0.07524 0.27075
 C1918 C 0.17845 0.09160 0.28835
 C1919 C 0.18961 0.11265 0.28625
 C1920 C 0.20424 0.11737 0.26670
 C1921 C 0.20823 0.10039 0.24987
 C1922 C 0.19671 0.07960 0.25172
 C1923 C 0.21565 0.13970 0.26349
 C1924 C 0.20520 0.16057 0.27041
 H1925 H 0.16341 0.04604 0.28802
 H1926 H 0.16679 0.08849 0.30321
 H1927 H 0.18674 0.12519 0.29985
 H1928 H 0.21970 0.10353 0.23486
 H1929 H 0.19944 0.06705 0.23808
 H1930 H 0.23207 0.13987 0.25394
 H1931 H 0.15665 0.06122 0.23634
 H1932 H 0.18797 0.16075 0.27824
 C1933 C 0.33494 0.05089 0.75043
 C1934 C 0.32336 0.05817 0.77082
 C1935 C 0.31704 0.08308 0.77306
 C1936 C 0.29600 0.09012 0.78370
 C1937 C 0.28919 0.11359 0.78369
 C1938 C 0.30348 0.13046 0.77311
 C1939 C 0.32511 0.12339 0.76385
 C1940 C 0.33185 0.10007 0.76388
 C1941 C 0.29662 0.15538 0.77085
 C1942 C 0.27417 0.16402 0.77455
 H1943 H 0.31923 0.04613 0.78503
 H1944 H 0.28452 0.07741 0.79133
 H1945 H 0.27272 0.11822 0.79184
 H1946 H 0.33670 0.13593 0.75604
 H1947 H 0.34865 0.09531 0.75639
 H1948 H 0.30965 0.16731 0.76478
 H1949 H 0.33673 0.06360 0.73624
 H1950 H 0.26068 0.15260 0.78035
 C1951 C 0.84505 0.54199 0.24402
 C1952 C 0.84720 0.56214 0.22996
 C1953 C 0.83927 0.58589 0.23648
 C1954 C 0.82733 0.59113 0.25767
 C1955 C 0.82115 0.61413 0.26288
 C1956 C 0.82685 0.63231 0.24707
 C1957 C 0.83884 0.62698 0.22610
 C1958 C 0.84482 0.60415 0.22083
 C1959 C 0.82088 0.65699 0.25148
 C1960 C 0.80310 0.66461 0.26674
 H1961 H 0.85597 0.56091 0.21306
 H1962 H 0.82284 0.57772 0.27035
 H1963 H 0.81230 0.61755 0.27945
 H1964 H 0.84350 0.64057 0.21360
 H1965 H 0.85410 0.60079 0.20444
 H1966 H 0.82950 0.66978 0.24046
 H1967 H 0.83465 0.54254 0.26004
 H1968 H 0.79321 0.65220 0.27696
 C1969 C 0.97191 0.25191 0.16321
 C1970 C 0.95076 0.24079 0.16378
 C1971 C 0.92932 0.24836 0.17671
 C1972 C 0.90862 0.23893 0.17008
 C1973 C 0.88780 0.24472 0.18156
 C1974 C 0.88696 0.26020 0.20014
 C1975 C 0.90767 0.26941 0.20721
 C1976 C 0.92870 0.26374 0.19546
 C1977 C 0.86472 0.26560 0.21279
 C1978 C 0.84392 0.26578 0.20110
 H1979 H 0.94902 0.22576 0.15331
 H1980 H 0.90852 0.22684 0.15591
 H1981 H 0.87242 0.23653 0.17615
 H1982 H 0.90755 0.28107 0.22175
 H1983 H 0.94433 0.27104 0.20139
 H1984 H 0.86464 0.26807 0.23155
 H1985 H 0.97394 0.26657 0.17422
 H1986 H 0.84455 0.26490 0.18215
 C1987 C 0.45752 0.75744 0.66317
 C1988 C 0.43902 0.74303 0.66878
 C1989 C 0.41765 0.74938 0.68254
 C1990 C 0.39979 0.73357 0.68325
 C1991 C 0.37884 0.73855 0.69494
 C1992 C 0.37505 0.75959 0.70635
 C1993 C 0.39308 0.77521 0.70640
 C1994 C 0.41416 0.77029 0.69443
 C1995 C 0.35251 0.76501 0.71842
 C1996 C 0.33198 0.75724 0.70973
 H1997 H 0.43959 0.72575 0.66211
 H1998 H 0.40193 0.71724 0.67448
 H1999 H 0.36569 0.72573 0.69517
 H2000 H 0.39069 0.79142 0.71532
 H2001 H 0.42748 0.78287 0.69456
 H2002 H 0.35205 0.77540 0.73394
 H2003 H 0.45822 0.77402 0.67130
 H2004 H 0.33260 0.74883 0.69297
 C2005 C 0.45211 0.25378 0.84331
 C2006 C 0.43835 0.23564 0.83707
 C2007 C 0.41739 0.23840 0.82321
 C2008 C 0.40293 0.25824 0.82458
 C2009 C 0.38135 0.25873 0.81427
 C2010 C 0.37405 0.23945 0.80230
 C2011 C 0.38904 0.22018 0.79995
 C2012 C 0.41036 0.21952 0.81060
 C2013 C 0.35097 0.23889 0.79222
 C2014 C 0.33166 0.24976 0.80270
 H2015 H 0.44334 0.21809 0.84217
 H2016 H 0.40780 0.27293 0.83445
 H2017 H 0.37037 0.27410 0.81583
 H2018 H 0.38387 0.20524 0.79062
 H2019 H 0.42122 0.20401 0.80942
 H2020 H 0.34890 0.22851 0.77696
 H2021 H 0.45005 0.27047 0.83450
 H2022 H 0.33338 0.25883 0.81888
 C2023 C 0.97584 0.74676 0.34467
 C2024 C 0.95741 0.73179 0.34358
 C2025 C 0.93682 0.73634 0.32950
 C2026 C 0.91610 0.72675 0.33758
 C2027 C 0.89623 0.72974 0.32471
 C2028 C 0.89669 0.74219 0.30327
 C2029 C 0.91753 0.75131 0.29474
 C2030 C 0.93748 0.74862 0.30790
 C2031 C 0.87542 0.74559 0.28997
 C2032 C 0.85450 0.75023 0.30174
 H2033 H 0.95654 0.71675 0.35510
 H2034 H 0.91525 0.71692 0.35399
 H2035 H 0.88053 0.72203 0.33142
 H2036 H 0.91825 0.76076 0.27811
 H2037 H 0.95340 0.75566 0.30096
 H2038 H 0.87633 0.74542 0.27098
 H2039 H 0.97495 0.76298 0.33483
 H2040 H 0.85439 0.75323 0.32042
 C2041 C 0.05262 0.75642 0.34069
 C2042 C 0.07227 0.74350 0.33366
 C2043 C 0.09328 0.75306 0.32241
 C2044 C 0.11362 0.73948 0.32367
 C2045 C 0.13426 0.74746 0.31408
 C2046 C 0.13508 0.76929 0.30285
 C2047 C 0.11465 0.78270 0.30085
 C2048 C 0.09386 0.77477 0.31077
 C2049 C 0.15696 0.77740 0.29217
 C2050 C 0.17804 0.77100 0.30186
 H2051 H 0.07321 0.72520 0.33782
 H2052 H 0.11362 0.72259 0.33230
 H2053 H 0.14949 0.73627 0.31511
 H2054 H 0.11484 0.79937 0.29179
 H2055 H 0.07841 0.78550 0.30900
 H2056 H 0.15648 0.78744 0.27589
 H2057 H 0.05040 0.77419 0.33468
 H2058 H 0.17823 0.76271 0.31911
 C2059 C 0.52904 0.25646 0.84317
 C2060 C 0.54731 0.24067 0.83862
 C2061 C 0.56809 0.24516 0.82370
 C2062 C 0.58366 0.22654 0.81977
 C2063 C 0.60448 0.22978 0.80757
 C2064 C 0.61031 0.25183 0.79901
 C2065 C 0.59443 0.27038 0.80200
 C2066 C 0.57353 0.26716 0.81445
 C2067 C 0.63291 0.25562 0.78717
 C2068 C 0.65263 0.24309 0.79395
 H2069 H 0.54653 0.22344 0.84627
 H2070 H 0.57989 0.20936 0.82651
 H2071 H 0.61600 0.21497 0.80487
 H2072 H 0.59852 0.28749 0.79534
 H2073 H 0.56211 0.28200 0.81718
 H2074 H 0.63429 0.26924 0.77386
 H2075 H 0.52805 0.27267 0.83338
 H2076 H 0.65162 0.23122 0.80891
 C2077 C 0.53654 0.75462 0.65616
 C2078 C 0.55760 0.74217 0.65396
 C2079 C 0.57807 0.74559 0.66823
 C2080 C 0.59979 0.73868 0.65891
 C2081 C 0.61953 0.73997 0.67210
 C2082 C 0.61804 0.74803 0.69512
 C2083 C 0.59630 0.75481 0.70460
 C2084 C 0.57648 0.75381 0.69122
 C2085 C 0.63872 0.74833 0.70977
 C2086 C 0.66083 0.75150 0.70007
 H2087 H 0.56013 0.73002 0.64000
 H2088 H 0.60148 0.73196 0.64137
 H2089 H 0.63583 0.73391 0.66443
 H2090 H 0.59465 0.76081 0.72242
 H2091 H 0.55994 0.75874 0.69915
 H2092 H 0.63641 0.74657 0.72865
 H2093 H 0.53507 0.76873 0.66821
 H2094 H 0.66288 0.75572 0.68153
 C2095 C 0.05095 0.23673 0.16510
 C2096 C 0.05887 0.25515 0.17754
 C2097 C 0.08065 0.25231 0.19030
 C2098 C 0.09770 0.26884 0.18731
 C2099 C 0.11919 0.26525 0.19755
 C2100 C 0.12379 0.24525 0.21139
 C2101 C 0.10634 0.22926 0.21520
 C2102 C 0.08508 0.23260 0.20454
 C2103 C 0.14619 0.24107 0.22278
 C2104 C 0.16714 0.24810 0.21268
 H2105 H 0.05133 0.27233 0.17504
 H2106 H 0.09462 0.28421 0.17648
 H2107 H 0.13207 0.27823 0.19485
 H2108 H 0.10933 0.21392 0.22609
 H2109 H 0.07209 0.21974 0.20738
 H2110 H 0.14623 0.23139 0.23930
 H2111 H 0.06122 0.22076 0.16554
 H2112 H 0.16745 0.25609 0.19530
 C2113 C -0.11461 1.00648 0.80493
 C2114 C -0.10104 0.98909 0.81543
 C2115 C -0.08997 0.99205 0.83813
 C2116 C -0.07093 0.97781 0.84394
 C2117 C -0.06045 0.97984 0.86548
 C2118 C -0.06896 0.99614 0.88174
 C2119 C -0.08839 1.00991 0.87621
 C2120 C -0.09879 1.00797 0.85463
 C2121 C -0.05837 0.99874 0.90474
 C2122 C -0.03517 0.99343 0.90835
 H2123 H -0.09875 0.97266 0.80687
 H2124 H -0.06413 0.96508 0.83175
 H2125 H -0.04602 0.96830 0.86948
 H2126 H -0.09551 1.02230 0.88859
 H2127 H -0.11401 1.01861 0.85123
 H2128 H -0.06889 1.00598 0.91893
 H2129 H -0.11475 1.02365 0.81199
 H2130 H -0.02416 0.98772 0.89384
 C2131 C 0.39459 0.50694 0.28540
 C2132 C 0.38534 0.50909 0.30822
 C2133 C 0.39852 0.50954 0.32999
 C2134 C 0.38603 0.51245 0.35122
 C2135 C 0.39724 0.51259 0.37244
 C2136 C 0.42126 0.50971 0.37308
 C2137 C 0.43393 0.50700 0.35180
 C2138 C 0.42266 0.50687 0.33045
 C2139 C 0.43205 0.51004 0.39627
 C2140 C 0.45490 0.50341 0.40042
 H2141 H 0.36672 0.51018 0.31026
 H2142 H 0.36743 0.51456 0.35143
 H2143 H 0.38702 0.51483 0.38849
 H2144 H 0.45250 0.50520 0.35138
 H2145 H 0.43296 0.50461 0.31453
 H2146 H 0.42114 0.51533 0.41105
 H2147 H 0.41297 0.50557 0.28197
 H2148 H 0.46627 0.49752 0.38631
 C2149 C 0.60342 0.01061 0.29022
 C2150 C 0.59045 -0.00664 0.30106
 C2151 C 0.58466 -0.00640 0.32639
 C2152 C 0.56398 -0.01574 0.33477
 C2153 C 0.55794 -0.01509 0.35862
 C2154 C 0.57270 -0.00534 0.37450
 C2155 C 0.59396 0.00282 0.36632
 C2156 C 0.59987 0.00245 0.34241
 C2157 C 0.56586 -0.00319 0.39946
 C2158 C 0.54316 0.00247 0.40588
 H2159 H 0.58486 -0.02081 0.29083
 H2160 H 0.55229 -0.02311 0.32279
 H2161 H 0.54172 -0.02221 0.36463
 H2162 H 0.60572 0.01003 0.37833
 H2163 H 0.61640 0.00893 0.33653
 H2164 H 0.57887 -0.00481 0.41265
 H2165 H 0.60710 0.02567 0.30018
 H2166 H 0.53083 0.00602 0.39228
 C2167 C 0.10300 0.49449 0.77690
 C2168 C 0.11178 0.50076 0.79823
 C2169 C 0.10069 0.49541 0.82113
 C2170 C 0.10126 0.51180 0.83870
 C2171 C 0.09126 0.50727 0.86079
 C2172 C 0.08112 0.48599 0.86583
 C2173 C 0.08120 0.46922 0.84855
 C2174 C 0.09067 0.47402 0.82615
 C2175 C 0.06975 0.48168 0.88882
 C2176 C 0.05373 0.49780 0.89760
 H2177 H 0.12688 0.51128 0.79807
 H2178 H 0.10917 0.52827 0.83519
 H2179 H 0.09153 0.52033 0.87401
 H2180 H 0.07347 0.45270 0.85223
 H2181 H 0.09053 0.46093 0.81296
 H2182 H 0.07232 0.46513 0.89780
 H2183 H 0.08755 0.48454 0.77656
 H2184 H 0.04886 0.51273 0.88679
 C2185 C 0.10953 0.49821 0.68812
 C2186 C 0.08828 0.48904 0.68278
 C2187 C 0.07996 0.48640 0.65862
 C2188 C 0.06076 0.47276 0.65557
 C2189 C 0.05157 0.47045 0.63339
 C2190 C 0.06133 0.48194 0.61364
 C2191 C 0.08073 0.49533 0.61665
 C2192 C 0.08990 0.49765 0.63883
 C2193 C 0.05174 0.48109 0.58980
 C2194 C 0.03068 0.47156 0.58458
 H2195 H 0.07703 0.48287 0.69684
 H2196 H 0.05271 0.46389 0.67048
 H2197 H 0.03684 0.45972 0.63203
 H2198 H 0.08861 0.50444 0.60180
 H2199 H 0.10438 0.50871 0.64030
 H2200 H 0.06129 0.48975 0.57570
 H2201 H 0.12135 0.50306 0.67399
 H2202 H 0.02041 0.46294 0.59806
 C2203 C 0.59379 1.00220 0.20008
 C2204 C 0.60262 0.99607 0.17813
 C2205 C 0.58769 0.99253 0.15806
 C2206 C 0.59758 0.98337 0.13745
 C2207 C 0.58417 0.98002 0.11802
 C2208 C 0.56050 0.98613 0.11860
 C2209 C 0.55045 0.99472 0.13945
 C2210 C 0.56389 0.99797 0.15899
 C2211 C 0.54612 0.98407 0.09773
 C2212 C 0.55554 0.98522 0.07494
 H2213 H 0.62104 0.99286 0.17572
 H2214 H 0.61580 0.97873 0.13639
 H2215 H 0.59244 0.97247 0.10267
 H2216 H 0.53224 0.99938 0.14046
 H2217 H 0.55568 1.00497 0.17468
 H2218 H 0.52758 0.98356 0.10027
 H2219 H 0.60431 1.00334 0.21045
 H2220 H 0.57381 0.98774 0.07229
 C2221 C 0.37962 0.50040 0.19858
 C2222 C 0.40229 0.49902 0.18954
 C2223 C 0.40869 0.49759 0.16419
 C2224 C 0.43102 0.48956 0.15796
 C2225 C 0.43854 0.48914 0.13450
 C2226 C 0.42398 0.49711 0.11658
 C2227 C 0.40134 0.50441 0.12263
 C2228 C 0.39376 0.50481 0.14623
 C2229 C 0.43239 0.49839 0.09172
 C2230 C 0.45537 0.50292 0.08605
 H2231 H 0.41638 0.49798 0.20148
 H2232 H 0.44282 0.48368 0.17136
 H2233 H 0.45581 0.48255 0.13048
 H2234 H 0.38975 0.51050 0.10914
 H2235 H 0.37652 0.51144 0.15026
 H2236 H 0.42019 0.49721 0.07786
 H2237 H 0.36559 0.49960 0.18665
 H2238 H 0.46688 0.50619 0.10008
 C2239 C -0.12027 -0.00678 0.71799
 C2240 C -0.09694 -0.00689 0.71101
 C2241 C -0.08847 -0.00984 0.68639
 C2242 C -0.06513 -0.01588 0.68222
 C2243 C -0.05621 -0.01842 0.65934
 C2244 C -0.07046 -0.01472 0.64003
 C2245 C -0.09383 -0.00890 0.64416
 C2246 C -0.10274 -0.00627 0.66704
 C2247 C -0.06159 -0.01678 0.61549
 C2248 C -0.03859 -0.01340 0.60881
 H2249 H -0.08401 -0.00550 0.72406
 H2250 H -0.05373 -0.01878 0.69675
 H2251 H -0.03824 -0.02355 0.65695
 H2252 H -0.10516 -0.00592 0.62959
 H2253 H -0.12066 -0.00098 0.66927
 H2254 H -0.07391 -0.01938 0.60201
 H2255 H -0.13300 -0.00953 0.70504
 H2256 H -0.02642 -0.00896 0.62180
 C2257 C -0.19842 0.90512 0.99495
 C2258 C -0.17548 0.89723 0.99509
 C2259 C -0.15565 0.91266 0.99241
 C2260 C -0.13433 0.90324 0.98459
 C2261 C -0.11507 0.91700 0.98207
 C2262 C -0.11661 0.94051 0.98773
 C2263 C -0.13801 0.95008 0.99514
 C2264 C -0.15734 0.93630 0.99764
 C2265 C -0.09613 0.95518 0.98657
 C2266 C -0.07408 0.94594 0.99042
 H2267 H -0.17199 0.87874 0.99569
 H2268 H -0.13260 0.88516 0.98027
 H2269 H -0.09905 0.90916 0.97556
 H2270 H -0.13965 0.96813 0.99959
 H2271 H -0.17331 0.94415 1.00420
 H2272 H -0.09867 0.97375 0.98478
 H2273 H -0.20241 0.92341 0.99290
 H2274 H -0.07184 0.92764 0.99436
 C2275 C 0.28905 0.41584 0.50208
 C2276 C 0.31152 0.40665 0.50142
 C2277 C 0.33179 0.42074 0.49595
 C2278 C 0.35149 0.41003 0.48572
 C2279 C 0.37086 0.42280 0.47974
 C2280 C 0.37099 0.44654 0.48424
 C2281 C 0.35123 0.45731 0.49427
 C2282 C 0.33185 0.44453 0.50026
 C2283 C 0.39163 0.46032 0.47953
 C2284 C 0.41382 0.45064 0.48098
 H2285 H 0.31400 0.38802 0.50224
 H2286 H 0.35177 0.39177 0.48205
 H2287 H 0.38557 0.41406 0.47145
 H2288 H 0.35100 0.47555 0.49802
 H2289 H 0.31719 0.45328 0.50861
 H2290 H 0.38938 0.47894 0.47803
 H2291 H 0.28592 0.43424 0.49966
 H2292 H 0.41627 0.43229 0.48446
 C2293 C 0.28494 0.58943 0.01441
 C2294 C 0.30668 0.59804 0.01812
 C2295 C 0.32854 0.58442 0.01800
 C2296 C 0.34896 0.59647 0.01967
 C2297 C 0.37029 0.58490 0.01828
 C2298 C 0.37161 0.56096 0.01506
 C2299 C 0.35123 0.54870 0.01432
 C2300 C 0.32980 0.56031 0.01569
 C2301 C 0.39391 0.54832 0.01269
 C2302 C 0.41401 0.55875 0.00435
 H2303 H 0.30786 0.61655 0.01990
 H2304 H 0.34845 0.61501 0.02180
 H2305 H 0.38562 0.59478 0.01988
 H2306 H 0.35189 0.53016 0.01221
 H2307 H 0.31452 0.55030 0.01471
 H2308 H 0.39422 0.52990 0.01656
 H2309 H 0.28257 0.57133 0.01150
 H2310 H 0.41376 0.57677 -0.00112
 C2311 C -0.20364 0.09393 0.50062
 C2312 C -0.19527 0.08288 0.52087
 C2313 C -0.17081 0.07552 0.52295
 C2314 C -0.16465 0.05921 0.54041
 C2315 C -0.14160 0.05220 0.54298
 C2316 C -0.12428 0.06146 0.52804
 C2317 C -0.13037 0.07850 0.51130
 C2318 C -0.15335 0.08552 0.50877
 C2319 C -0.09991 0.05338 0.52872
 C2320 C -0.09321 0.03156 0.53733
 H2321 H -0.20674 0.08071 0.53607
 H2322 H -0.17773 0.05177 0.55200
 H2323 H -0.13754 0.03966 0.55672
 H2324 H -0.11733 0.08619 0.49985
 H2325 H -0.15721 0.09901 0.49589
 H2326 H -0.08719 0.06374 0.51941
 H2327 H -0.19294 0.09323 0.48474
 H2328 H -0.10575 0.02040 0.54571
 C2329 C 0.70883 0.09024 0.49822
 C2330 C 0.68752 0.10080 0.49388
 C2331 C 0.66680 0.08737 0.49016
 C2332 C 0.64634 0.09911 0.48382
 C2333 C 0.62644 0.08697 0.48007
 C2334 C 0.62655 0.06275 0.48283
 C2335 C 0.64716 0.05098 0.48870
 C2336 C 0.66708 0.06313 0.49241
 C2337 C 0.60559 0.04924 0.48025
 C2338 C 0.58330 0.05869 0.48314
 H2339 H 0.68614 0.11948 0.49210
 H2340 H 0.64577 0.11775 0.48168
 H2341 H 0.61116 0.09667 0.47484
 H2342 H 0.64776 0.03234 0.49082
 H2343 H 0.68260 0.05351 0.49714
 H2344 H 0.60779 0.03070 0.47854
 H2345 H 0.71988 0.09979 0.49920
 H2346 H 0.58068 0.07688 0.48648
 C2347 C 0.20009 0.60757 1.00329
 C2348 C 0.19223 0.58517 1.00150
 C2349 C 0.16796 0.58008 0.99740
 C2350 C 0.16331 0.55970 0.98601
 C2351 C 0.14068 0.55358 0.98263
 C2352 C 0.12208 0.56760 0.99093
 C2353 C 0.12671 0.58813 1.00216
 C2354 C 0.14946 0.59438 1.00536
 C2355 C 0.09800 0.56033 0.98932
 C2356 C 0.09328 0.53969 0.97898
 H2357 H 0.20438 0.57066 1.00126
 H2358 H 0.17727 0.54837 0.97979
 H2359 H 0.13785 0.53757 0.97394
 H2360 H 0.11271 0.59911 1.00890
 H2361 H 0.15246 0.60996 1.01470
 H2362 H 0.08417 0.57028 0.99788
 H2363 H 0.18798 0.62201 1.00117
 H2364 H 0.07989 0.53507 0.98016
 C2365 C 0.20435 0.40892 0.50194
 C2366 C 0.18406 0.39671 0.50430
 C2367 C 0.16127 0.40874 0.50718
 C2368 C 0.14154 0.39788 0.50010
 C2369 C 0.11996 0.40924 0.50158
 C2370 C 0.11770 0.43185 0.51013
 C2371 C 0.13725 0.44217 0.51840
 C2372 C 0.15879 0.43077 0.51704
 C2373 C 0.09541 0.44512 0.51070
 C2374 C 0.07719 0.43986 0.49668
 H2375 H 0.18448 0.37810 0.50325
 H2376 H 0.14287 0.38069 0.49304
 H2377 H 0.10522 0.40010 0.49609
 H2378 H 0.13594 0.45928 0.52564
 H2379 H 0.17335 0.43928 0.52387
 H2380 H 0.09371 0.46015 0.52160
 H2381 H 0.20302 0.42760 0.50153
 H2382 H 0.07891 0.42550 0.48498
 C2383 C 0.71727 0.89578 -0.00543
 C2384 C 0.69696 0.88349 -0.00455
 C2385 C 0.67423 0.89585 -0.00244
 C2386 C 0.65502 0.88738 -0.01337
 C2387 C 0.63387 0.89979 -0.01268
 C2388 C 0.63159 0.92080 -0.00078
 C2389 C 0.65056 0.92869 0.01088
 C2390 C 0.67157 0.91634 0.01022
 C2391 C 0.61005 0.93516 -0.00044
 C2392 C 0.58997 0.92846 -0.01059
 H2393 H 0.69740 0.86498 -0.00661
 H2394 H 0.65656 0.87148 -0.02295
 H2395 H 0.61949 0.89312 -0.02173
 H2396 H 0.64918 0.94462 0.02043
 H2397 H 0.68571 0.92292 0.01970
 H2398 H 0.61004 0.95172 0.00811
 H2399 H 0.71565 0.91448 -0.00583
 H2400 H 0.57842 0.93732 -0.01030
 C2401 C -0.01178 0.78910 0.91181
 C2402 C -0.00949 0.81138 0.90231
 C2403 C -0.00712 0.83229 0.91624
 C2404 C -0.00707 0.85381 0.90437
 C2405 C -0.00448 0.87407 0.91655
 C2406 C -0.00175 0.87317 0.94095
 C2407 C -0.00200 0.85173 0.95289
 C2408 C -0.00449 0.83144 0.94070
 C2409 C 0.00051 0.89421 0.95458
 C2410 C 0.00857 0.91485 0.94483
 H2411 H -0.00922 0.81351 0.88336
 H2412 H -0.00916 0.85497 0.88556
 H2413 H -0.00507 0.89035 0.90682
 H2414 H -0.00005 0.85065 0.97171
 H2415 H -0.00410 0.81532 0.95064
 H2416 H -0.00389 0.89320 0.97318
 H2417 H -0.01310 0.78603 0.93054
 H2418 H 0.01457 0.91581 0.92669
 C2419 C 0.50459 0.29539 0.40705
 C2420 C 0.50036 0.31737 0.39720
 C2421 C 0.49933 0.33891 0.41057
 C2422 C 0.50063 0.36004 0.39810
 C2423 C 0.49952 0.38089 0.40986
 C2424 C 0.49710 0.38099 0.43446
 C2425 C 0.49537 0.35987 0.44690
 C2426 C 0.49647 0.33901 0.43513
 C2427 C 0.49549 0.40261 0.44770
 C2428 C 0.50260 0.42396 0.43868
 H2429 H 0.49846 0.31888 0.37836
 H2430 H 0.50248 0.36044 0.37913
 H2431 H 0.50014 0.39676 0.39950
 H2432 H 0.49313 0.35949 0.46583
 H2433 H 0.49468 0.32318 0.44539
 H2434 H 0.48888 0.40149 0.46566
 H2435 H 0.50799 0.29313 0.42550
 H2436 H 0.51037 0.42548 0.42126
 C2437 C 0.00195 0.27884 0.59083
 C2438 C 0.00142 0.30101 0.59988
 C2439 C -0.00221 0.32263 0.58621
 C2440 C 0.00112 0.32421 0.56172
 C2441 C -0.00203 0.34548 0.54987
 C2442 C -0.00849 0.36538 0.56242
 C2443 C -0.01207 0.36358 0.58677
 C2444 C -0.00881 0.34248 0.59855
 C2445 C -0.01177 0.38834 0.55109
 C2446 C -0.00227 0.39465 0.52922
 H2447 H 0.00246 0.30247 0.61874
 H2448 H 0.00648 0.30928 0.55170
 H2449 H 0.00042 0.34613 0.53101
 H2450 H -0.01712 0.37864 0.59680
 H2451 H -0.01148 0.34168 0.61744
 H2452 H -0.02096 0.40142 0.56129
 H2453 H -0.00030 0.27610 0.57238
 H2454 H 0.00757 0.38228 0.51878
 C2455 C 0.52653 0.78057 0.08746
 C2456 C 0.52445 0.80362 0.09398
 C2457 C 0.52186 0.82376 0.07777
 C2458 C 0.52229 0.84578 0.08734
 C2459 C 0.51877 0.86553 0.07334
 C2460 C 0.51447 0.86370 0.04938
 C2461 C 0.51459 0.84174 0.03958
 C2462 C 0.51810 0.82187 0.05366
 C2463 C 0.51069 0.88446 0.03425
 C2464 C 0.50196 0.90527 0.04313
 H2465 H 0.52415 0.80708 0.11258
 H2466 H 0.52532 0.84774 0.10582
 H2467 H 0.51974 0.88216 0.08136
 H2468 H 0.51157 0.83997 0.02107
 H2469 H 0.51744 0.80525 0.04559
 H2470 H 0.51505 0.88334 0.01570
 H2471 H 0.52711 0.77588 0.06925
 H2472 H 0.49603 0.90615 0.06128
 C2473 C 0.52935 0.69612 0.11259
 C2474 C 0.53373 0.68616 0.09078
 C2475 C 0.53065 0.66148 0.08569
 C2476 C 0.53311 0.65497 0.06222
 C2477 C 0.52851 0.63261 0.05579
 C2478 C 0.52133 0.61611 0.07272
 C2479 C 0.52003 0.62206 0.09639
 C2480 C 0.52446 0.64463 0.10287
 C2481 C 0.51501 0.59289 0.06555
 C2482 C 0.50316 0.59041 0.04496
 H2483 H 0.53876 0.69711 0.07601
 H2484 H 0.53814 0.66740 0.04863
 H2485 H 0.53045 0.62827 0.03748
 H2486 H 0.51485 0.60946 0.10973
 H2487 H 0.52264 0.64866 0.12122
 H2488 H 0.51972 0.57790 0.07631
 H2489 H 0.52593 0.68520 0.12785
 H2490 H 0.49700 0.60581 0.03561
 C2491 C 0.00370 0.19277 0.60891
 C2492 C 0.00151 0.18479 0.58617
 C2493 C -0.00279 0.16054 0.58058
 C2494 C 0.00347 0.14163 0.59529
 C2495 C -0.00056 0.11900 0.58865
 C2496 C -0.01091 0.11498 0.56720
 C2497 C -0.01733 0.13395 0.55280
 C2498 C -0.01316 0.15639 0.55931
 C2499 C -0.01505 0.09162 0.55865
 C2500 C -0.00438 0.07116 0.56694
 H2501 H 0.00115 0.19694 0.57151
 H2502 H 0.01185 0.14414 0.61164
 H2503 H 0.00441 0.10487 0.60036
 H2504 H -0.02531 0.13140 0.53619
 H2505 H -0.01813 0.17063 0.54764
 H2506 H -0.02567 0.09079 0.54343
 H2507 H 0.00324 0.18053 0.62355
 H2508 H 0.00656 0.07113 0.58192
 C2509 C 0.51338 0.20994 0.40137
 C2510 C 0.51093 0.18918 0.38986
 C2511 C 0.51133 0.16670 0.40300
 C2512 C 0.49737 0.14888 0.39614
 C2513 C 0.49626 0.12815 0.40937
 C2514 C 0.50940 0.12477 0.42959
 C2515 C 0.52392 0.14234 0.43588
 C2516 C 0.52500 0.16297 0.42273
 C2517 C 0.50825 0.10373 0.44503
 C2518 C 0.49784 0.08323 0.43943
 H2519 H 0.50626 0.18934 0.37166
 H2520 H 0.48676 0.15127 0.38094
 H2521 H 0.48469 0.11522 0.40393
 H2522 H 0.53443 0.14017 0.45119
 H2523 H 0.53656 0.17599 0.42809
 H2524 H 0.51677 0.10425 0.46163
 H2525 H 0.51556 0.20906 0.42016
 H2526 H 0.49010 0.08153 0.42261
 C2527 C -0.01166 0.70410 0.90432
 C2528 C -0.00768 0.68383 0.89189
 C2529 C -0.00300 0.66120 0.90404
 C2530 C -0.00757 0.64075 0.89270
 C2531 C -0.00393 0.61920 0.90393
 C2532 C 0.00455 0.61761 0.92686
 C2533 C 0.00986 0.63809 0.93781
 C2534 C 0.00629 0.65958 0.92656
 C2535 C 0.00779 0.59532 0.94020
 C2536 C 0.00212 0.57387 0.93185
 H2537 H -0.00822 0.68421 0.87296
 H2538 H -0.01432 0.64145 0.87521
 H2539 H -0.00799 0.60408 0.89443
 H2540 H 0.01673 0.63750 0.95525
 H2541 H 0.01112 0.67478 0.93557
 H2542 H 0.01430 0.59594 0.95776
 H2543 H -0.01229 0.70280 0.92328
 H2544 H -0.00436 0.57252 0.91444
 C2545 C 0.24902 0.64772 0.96205
 C2546 C 0.23004 0.66010 0.95333
 C2547 C 0.22971 0.66774 0.92831
 C2548 C 0.21754 0.68807 0.92187
 C2549 C 0.21820 0.69622 0.89855
 C2550 C 0.23110 0.68411 0.88118
 C2551 C 0.24207 0.66307 0.88743
 C2552 C 0.24137 0.65492 0.91069
 C2553 C 0.23356 0.69286 0.85656
 C2554 C 0.23058 0.71616 0.85041
 H2555 H 0.21541 0.66457 0.96468
 H2556 H 0.20794 0.69793 0.93499
 H2557 H 0.20853 0.71195 0.89432
 H2558 H 0.25161 0.65310 0.87435
 H2559 H 0.24999 0.63853 0.91477
 H2560 H 0.23908 0.68085 0.84311
 H2561 H 0.26388 0.64519 0.95033
 H2562 H 0.22608 0.72851 0.86381
 C2563 C 0.74606 0.14867 0.45793
 C2564 C 0.76144 0.15294 0.43907
 C2565 C 0.75552 0.16514 0.41686
 C2566 C 0.77188 0.16419 0.39826
 C2567 C 0.76736 0.17484 0.37668
 C2568 C 0.74627 0.18673 0.37315
 C2569 C 0.73005 0.18825 0.39184
 C2570 C 0.73453 0.17743 0.41352
 C2571 C 0.74145 0.19854 0.35052
 C2572 C 0.75143 0.19099 0.32941
 H2573 H 0.77906 0.14655 0.44003
 H2574 H 0.78830 0.15509 0.40039
 H2575 H 0.78065 0.17409 0.36298
 H2576 H 0.71384 0.19769 0.38958
 H2577 H 0.72159 0.17899 0.42745
 H2578 H 0.72997 0.21366 0.35054
 H2579 H 0.72888 0.15637 0.45793
 H2580 H 0.76125 0.17479 0.32898
 C2581 C 0.25031 0.35525 0.46070
 C2582 C 0.23199 0.34161 0.45540
 C2583 C 0.23477 0.32657 0.43497
 C2584 C 0.22020 0.32960 0.41594
 C2585 C 0.22517 0.31797 0.39506
 C2586 C 0.24456 0.30284 0.39316
 C2587 C 0.25827 0.29884 0.41272
 C2588 C 0.25362 0.31083 0.43334
 C2589 C 0.25066 0.29075 0.37122
 C2590 C 0.24711 0.30082 0.34908
 H2591 H 0.21529 0.34375 0.46414
 H2592 H 0.20561 0.34170 0.41687
 H2593 H 0.21390 0.32086 0.38045
 H2594 H 0.27309 0.28703 0.41176
 H2595 H 0.26503 0.30824 0.44789
 H2596 H 0.25901 0.27379 0.37259
 H2597 H 0.26541 0.35436 0.44900
 H2598 H 0.24023 0.31838 0.34765
 C2599 C 0.76376 0.84103 0.95689
 C2600 C 0.74505 0.82754 0.95230
 C2601 C 0.74595 0.81279 0.93144
 C2602 C 0.72734 0.81321 0.91637
 C2603 C 0.72907 0.80152 0.89518
 C2604 C 0.74930 0.78880 0.88896
 C2605 C 0.76733 0.78720 0.90475
 C2606 C 0.76579 0.79929 0.92569
 C2607 C 0.75204 0.77744 0.86603
 C2608 C 0.74363 0.78795 0.84561
 H2609 H 0.72881 0.82998 0.96185
 H2610 H 0.71182 0.82334 0.92055
 H2611 H 0.71463 0.80253 0.88361
 H2612 H 0.78294 0.77726 0.90049
 H2613 H 0.78023 0.79834 0.93727
 H2614 H 0.76228 0.76152 0.86491
 H2615 H 0.77851 0.84000 0.94477
 H2616 H 0.73530 0.80491 0.84663
 C2617 C 0.75608 0.84241 0.03640
 C2618 C 0.77030 0.83843 0.05562
 C2619 C 0.76483 0.82409 0.07698
 C2620 C 0.78226 0.82057 0.09331
 C2621 C 0.77799 0.80894 0.11463
 C2622 C 0.75607 0.80054 0.12037
 C2623 C 0.73878 0.80303 0.10372
 C2624 C 0.74302 0.81490 0.08225
 C2625 C 0.75128 0.78979 0.14390
 C2626 C 0.76087 0.79885 0.16368
 H2627 H 0.78699 0.84614 0.05524
 H2628 H 0.79927 0.82721 0.08976
 H2629 H 0.79192 0.80669 0.12674
 H2630 H 0.72179 0.79653 0.10768
 H2631 H 0.72906 0.81728 0.07025
 H2632 H 0.73989 0.77538 0.14571
 H2633 H 0.74033 0.83308 0.03551
 H2634 H 0.77028 0.81466 0.16148
 C2635 C 0.24217 0.35203 0.53934
 C2636 C 0.25659 0.34605 0.55793
 C2637 C 0.25068 0.33047 0.57818
 C2638 C 0.26848 0.32342 0.59308
 C2639 C 0.26385 0.31085 0.61377
 C2640 C 0.24119 0.30509 0.62024
 C2641 C 0.22342 0.31101 0.60485
 C2642 C 0.22806 0.32379 0.58405
 C2643 C 0.23607 0.29390 0.64343
 C2644 C 0.24761 0.30057 0.66311
 H2645 H 0.27369 0.35286 0.55779
 H2646 H 0.28609 0.32810 0.58898
 H2647 H 0.27804 0.30593 0.62491
 H2648 H 0.20584 0.30661 0.60943
 H2649 H 0.21381 0.32903 0.57318
 H2650 H 0.22246 0.28158 0.64528
 H2651 H 0.22614 0.34327 0.53790
 H2652 H 0.25935 0.31471 0.66116
 C2653 C 0.74452 0.15168 0.53704
 C2654 C 0.76040 0.15919 0.55287
 C2655 C 0.75425 0.17196 0.57430
 C2656 C 0.77143 0.18437 0.58460
 C2657 C 0.76750 0.19424 0.60644
 C2658 C 0.74623 0.19178 0.61851
 C2659 C 0.72888 0.17962 0.60810
 C2660 C 0.73277 0.16988 0.58608
 C2661 C 0.74239 0.20030 0.64254
 C2662 C 0.75415 0.21885 0.65091
 H2663 H 0.77861 0.15591 0.54940
 H2664 H 0.78824 0.18588 0.57602
 H2665 H 0.78152 0.20288 0.61419
 H2666 H 0.71244 0.17730 0.61722
 H2667 H 0.71937 0.15991 0.57886
 H2668 H 0.72966 0.19195 0.65386
 H2669 H 0.72698 0.15855 0.53788
 H2670 H 0.76498 0.22897 0.63907
 C2671 C 0.24015 0.65828 0.04288
 C2672 C 0.25691 0.66425 0.05858
 C2673 C 0.25305 0.67769 0.08003
 C2674 C 0.27243 0.68665 0.09015
 C2675 C 0.27078 0.69637 0.11220
 C2676 C 0.24959 0.69747 0.12475
 C2677 C 0.23004 0.68871 0.11460
 C2678 C 0.23169 0.67900 0.09229
 C2679 C 0.24805 0.70692 0.14866
 C2680 C 0.26259 0.72418 0.15515
 H2681 H 0.27457 0.65844 0.05509
 H2682 H 0.28917 0.68544 0.08126
 H2683 H 0.28638 0.70220 0.11969
 H2684 H 0.21357 0.68918 0.12405
 H2685 H 0.21657 0.67169 0.08515
 H2686 H 0.23490 0.70081 0.16099
 H2687 H 0.22373 0.66765 0.04268
 H2688 H 0.27375 0.73215 0.14192
 C2689 C 0.14681 0.55236 0.72839
 C2690 C 0.14690 0.56874 0.74615
 C2691 C 0.15727 0.59178 0.74444
 C2692 C 0.16177 0.60258 0.76549
 C2693 C 0.17027 0.62480 0.76539
 C2694 C 0.17450 0.63693 0.74414
 C2695 C 0.16975 0.62634 0.72299
 C2696 C 0.16134 0.60385 0.72308
 C2697 C 0.18337 0.66068 0.74391
 C2698 C 0.19772 0.66796 0.76130
 H2699 H 0.14032 0.56404 0.76347
 H2700 H 0.15850 0.59383 0.78224
 H2701 H 0.17299 0.63261 0.78206
 H2702 H 0.17263 0.63546 0.70638
 H2703 H 0.15756 0.59625 0.70657
 H2704 H 0.17976 0.67215 0.72908
 H2705 H 0.15601 0.55571 0.71193
 H2706 H 0.20370 0.65562 0.77451
 C2707 C 0.65726 0.04057 0.23055
 C2708 C 0.66570 0.05703 0.24541
 C2709 C 0.67756 0.07827 0.23803
 C2710 C 0.69134 0.08827 0.25446
 C2711 C 0.69983 0.11024 0.25043
 C2712 C 0.69479 0.12286 0.22974
 C2713 C 0.68125 0.11277 0.21302
 C2714 C 0.67281 0.09050 0.21703
 C2715 C 0.70246 0.14694 0.22638
 C2716 C 0.72263 0.15390 0.23635
 H2717 H 0.66409 0.05407 0.26421
 H2718 H 0.69487 0.07938 0.27098
 H2719 H 0.70948 0.11765 0.26414
 H2720 H 0.67691 0.12227 0.19707
 H2721 H 0.66170 0.08339 0.20434
 H2722 H 0.69197 0.15928 0.21650
 H2723 H 0.66337 0.04030 0.21243
 H2724 H 0.73408 0.14089 0.24407
 C2725 C 0.82567 0.03515 0.75168
 C2726 C 0.82012 0.05544 0.76378
 C2727 C 0.80988 0.07693 0.75342
 C2728 C 0.81259 0.09736 0.76554
 C2729 C 0.80408 0.11843 0.75673
 C2730 C 0.79244 0.11968 0.73552
 C2731 C 0.78906 0.09924 0.72356
 C2732 C 0.79795 0.07798 0.73228
 C2733 C 0.78264 0.14209 0.72688
 C2734 C 0.79349 0.16266 0.73111
 H2735 H 0.82484 0.05659 0.78186
 H2736 H 0.82154 0.09709 0.78193
 H2737 H 0.80623 0.13370 0.76688
 H2738 H 0.77972 0.09977 0.70741
 H2739 H 0.79518 0.06255 0.72263
 H2740 H 0.76583 0.14251 0.71917
 H2741 H 0.81840 0.03274 0.73474
 H2742 H 0.81100 0.16182 0.73716
 C2743 C 0.32954 0.54172 0.23969
 C2744 C 0.32504 0.56044 0.25445
 C2745 C 0.31541 0.58353 0.24743
 C2746 C 0.31795 0.60158 0.26300
 C2747 C 0.31053 0.62405 0.25726
 C2748 C 0.30013 0.62915 0.23578
 C2749 C 0.29679 0.61106 0.22041
 C2750 C 0.30462 0.58842 0.22602
 C2751 C 0.29199 0.65307 0.23000
 C2752 C 0.30381 0.67211 0.23734
 H2753 H 0.33040 0.55881 0.27242
 H2754 H 0.32606 0.59837 0.27967
 H2755 H 0.31267 0.63740 0.26987
 H2756 H 0.28847 0.61454 0.20390
 H2757 H 0.30211 0.57496 0.21368
 H2758 H 0.27624 0.65570 0.22047
 H2759 H 0.32158 0.54135 0.22284
 H2760 H 0.32061 0.66929 0.24482
 C2761 C 0.33498 0.46140 0.24752
 C2762 C 0.33828 0.44132 0.26153
 C2763 C 0.32565 0.41964 0.26004
 C2764 C 0.33533 0.39964 0.27072
 C2765 C 0.32394 0.37884 0.27108
 C2766 C 0.30244 0.37747 0.26073
 C2767 C 0.29252 0.39749 0.25023
 C2768 C 0.30407 0.41842 0.24974
 C2769 C 0.28985 0.35560 0.26153
 C2770 C 0.30116 0.33395 0.26265
 H2771 H 0.35210 0.44044 0.27373
 H2772 H 0.35179 0.40013 0.27909
 H2773 H 0.33179 0.36405 0.28005
 H2774 H 0.27581 0.39691 0.24240
 H2775 H 0.29585 0.43359 0.24182
 H2776 H 0.27127 0.35655 0.26027
 H2777 H 0.32274 0.46147 0.23362
 H2778 H 0.31979 0.33274 0.26129
 C2779 C 0.83040 0.95708 0.76373
 C2780 C 0.83132 0.93781 0.77907
 C2781 C 0.81891 0.91635 0.77556
 C2782 C 0.82805 0.89554 0.78501
 C2783 C 0.81675 0.87488 0.78261
 C2784 C 0.79587 0.87465 0.77087
 C2785 C 0.78642 0.89553 0.76184
 C2786 C 0.79791 0.91622 0.76399
 C2787 C 0.78335 0.85305 0.76851
 C2788 C 0.79464 0.83148 0.76697
 H2789 H 0.84311 0.93730 0.79335
 H2790 H 0.84405 0.89525 0.79429
 H2791 H 0.82416 0.85922 0.79041
 H2792 H 0.77018 0.89580 0.75300
 H2793 H 0.79007 0.93206 0.75707
 H2794 H 0.76485 0.85430 0.76653
 H2795 H 0.82029 0.95638 0.74817
 H2796 H 0.81328 0.83030 0.76632
 C2797 C 0.65251 0.96191 0.23632
 C2798 C 0.64990 0.94138 0.24958
 C2799 C 0.66251 0.91927 0.24535
 C2800 C 0.68467 0.91792 0.23474
 C2801 C 0.69693 0.89665 0.23392
 C2802 C 0.68712 0.87647 0.24368
 C2803 C 0.66466 0.87790 0.25338
 C2804 C 0.65261 0.89902 0.25435
 C2805 C 0.69944 0.85369 0.24499
 C2806 C 0.72301 0.84980 0.24054
 H2807 H 0.63667 0.94073 0.26331
 H2808 H 0.69285 0.93332 0.22790
 H2809 H 0.71405 0.89626 0.22597
 H2810 H 0.65659 0.86269 0.26090
 H2811 H 0.63556 0.89958 0.26264
 H2812 H 0.68943 0.83915 0.25118
 H2813 H 0.66294 0.96169 0.22027
 H2814 H 0.73375 0.86356 0.23392
 C2815 C 0.17151 0.47738 0.72519
 C2816 C 0.18295 0.46319 0.74166
 C2817 C 0.19620 0.44149 0.73668
 C2818 C 0.20344 0.42799 0.75605
 C2819 C 0.21244 0.40565 0.75317
 C2820 C 0.21475 0.39633 0.73077
 C2821 C 0.20908 0.41021 0.71112
 C2822 C 0.19957 0.43260 0.71403
 C2823 C 0.22193 0.37180 0.72836
 C2824 C 0.21131 0.35502 0.74255
 H2825 H 0.18002 0.46687 0.76005
 H2826 H 0.20114 0.43433 0.77370
 H2827 H 0.21710 0.39539 0.76856
 H2828 H 0.21091 0.40332 0.69367
 H2829 H 0.19419 0.44244 0.69868
 H2830 H 0.23504 0.36695 0.71534
 H2831 H 0.17724 0.47761 0.70697
 H2832 H 0.19655 0.36016 0.75354
 C2833 C 0.02484 0.74270 0.84699
 C2834 C 0.04204 0.75849 0.84091
 C2835 C 0.06361 0.75386 0.82689
 C2836 C 0.07816 0.77249 0.82243
 C2837 C 0.09967 0.76925 0.81130
 C2838 C 0.10729 0.74724 0.80424
 C2839 C 0.09247 0.72865 0.80768
 C2840 C 0.07085 0.73184 0.81916
 C2841 C 0.13062 0.74376 0.79337
 C2842 C 0.14930 0.75589 0.80100
 H2843 H 0.03982 0.77598 0.84692
 H2844 H 0.07305 0.78968 0.82798
 H2845 H 0.11036 0.78407 0.80823
 H2846 H 0.09793 0.71155 0.80213
 H2847 H 0.06023 0.71704 0.82234
 H2848 H 0.13325 0.73112 0.77981
 H2849 H 0.02475 0.72627 0.83846
 H2850 H 0.14692 0.76656 0.81625
 C2851 C 0.54805 0.25335 0.34572
 C2852 C 0.55745 0.23274 0.33692
 C2853 C 0.58223 0.23145 0.32927
 C2854 C 0.58967 0.21822 0.31005
 C2855 C 0.61285 0.21820 0.30211
 C2856 C 0.62909 0.23128 0.31347
 C2857 C 0.62177 0.24344 0.33342
 C2858 C 0.59873 0.24354 0.34123
 C2859 C 0.65363 0.23298 0.30525
 C2860 C 0.66165 0.22773 0.28261
 H2861 H 0.54721 0.21751 0.33624
 H2862 H 0.57745 0.20835 0.30083
 H2863 H 0.61784 0.20789 0.28717
 H2864 H 0.63387 0.25329 0.34284
 H2865 H 0.59385 0.25316 0.35672
 H2866 H 0.66556 0.24033 0.31701
 H2867 H 0.55882 0.26830 0.34411
 H2868 H 0.64988 0.22124 0.27023
 C2869 C 0.56061 0.74487 0.15960
 C2870 C 0.57608 0.76235 0.16330
 C2871 C 0.59811 0.75908 0.17535
 C2872 C 0.60919 0.77880 0.18235
 C2873 C 0.63130 0.77705 0.19119
 C2874 C 0.64289 0.75546 0.19319
 C2875 C 0.63183 0.73566 0.18625
 C2876 C 0.60956 0.73740 0.17750
 C2877 C 0.66669 0.75338 0.20172
 C2878 C 0.67497 0.76879 0.21757
 H2879 H 0.57217 0.77963 0.15656
 H2880 H 0.60092 0.79575 0.18044
 H2881 H 0.63951 0.79278 0.19566
 H2882 H 0.64052 0.71886 0.18742
 H2883 H 0.60176 0.72194 0.17165
 H2884 H 0.67747 0.73866 0.19651
 H2885 H 0.56182 0.72888 0.16980
 H2886 H 0.66343 0.78194 0.22493
 C2887 C 0.04294 0.23886 0.65630
 C2888 C 0.05702 0.25750 0.66029
 C2889 C 0.07917 0.25627 0.67233
 C2890 C 0.08866 0.27713 0.67860
 C2891 C 0.11081 0.27752 0.68724
 C2892 C 0.12404 0.25695 0.68989
 C2893 C 0.11449 0.23600 0.68387
 C2894 C 0.09219 0.23560 0.67522
 C2895 C 0.14797 0.25693 0.69810
 C2896 C 0.15624 0.27433 0.71178
 H2897 H 0.05156 0.27456 0.65406
 H2898 H 0.07912 0.29336 0.67618
 H2899 H 0.11771 0.29409 0.69102
 H2900 H 0.12441 0.21992 0.68560
 H2901 H 0.08561 0.21930 0.67004
 H2902 H 0.15901 0.24190 0.69460
 H2903 H 0.04533 0.22278 0.66614
 H2904 H 0.14480 0.28825 0.71765
 C2905 C 0.96476 0.23599 0.65799
 C2906 C 0.94668 0.25229 0.66153
 C2907 C 0.92402 0.24783 0.67302
 C2908 C 0.90600 0.26395 0.66870
 C2909 C 0.88404 0.26084 0.67849
 C2910 C 0.87954 0.24157 0.69317
 C2911 C 0.89756 0.22546 0.69778
 C2912 C 0.91964 0.22845 0.68767
 C2913 C 0.85641 0.23850 0.70419
 C2914 C 0.83748 0.25186 0.69696
 H2915 H 0.94852 0.26958 0.65425
 H2916 H 0.90886 0.27904 0.65747
 H2917 H 0.87068 0.27373 0.67469
 H2918 H 0.89454 0.21053 0.70916
 H2919 H 0.93314 0.21579 0.69158
 H2920 H 0.85423 0.22576 0.71828
 H2921 H 0.96469 0.21958 0.66745
 H2922 H 0.82479 0.25093 0.70390
 C2923 C 0.48183 0.74035 0.15185
 C2924 C 0.46058 0.75163 0.14762
 C2925 C 0.43857 0.74723 0.16045
 C2926 C 0.41821 0.75554 0.15014
 C2927 C 0.39697 0.75340 0.16182
 C2928 C 0.39554 0.74300 0.18433
 C2929 C 0.41581 0.73421 0.19455
 C2930 C 0.43721 0.73630 0.18274
 C2931 C 0.37335 0.74231 0.19774
 C2932 C 0.35340 0.75252 0.18877
 H2933 H 0.45923 0.76392 0.13319
 H2934 H 0.41875 0.76406 0.13301
 H2935 H 0.38175 0.76036 0.15334
 H2936 H 0.41514 0.72620 0.21192
 H2937 H 0.45254 0.73001 0.19140
 H2938 H 0.37296 0.73499 0.21543
 H2939 H 0.48282 0.72693 0.16534
 H2940 H 0.34141 0.75348 0.19698
 C2941 C 0.46617 0.24495 0.35123
 C2942 C 0.44379 0.25373 0.35664
 C2943 C 0.42253 0.25066 0.34341
 C2944 C 0.40146 0.25761 0.35422
 C2945 C 0.38093 0.25751 0.34219
 C2946 C 0.38079 0.25027 0.31889
 C2947 C 0.40185 0.24312 0.30801
 C2948 C 0.42257 0.24323 0.32015
 C2949 C 0.35921 0.25097 0.30539
 C2950 C 0.33712 0.25117 0.31606
 H2951 H 0.44110 0.26332 0.37253
 H2952 H 0.40089 0.26374 0.37202
 H2953 H 0.36541 0.26389 0.35110
 H2954 H 0.40231 0.23765 0.28999
 H2955 H 0.43852 0.23817 0.31113
 H2956 H 0.36077 0.25056 0.28643
 H2957 H 0.46869 0.23197 0.33802
 H2958 H 0.33522 0.24939 0.33493
 C2959 C 0.94620 0.75005 0.85120
 C2960 C 0.93948 0.73105 0.83892
 C2961 C 0.91794 0.73323 0.82566
 C2962 C 0.90016 0.71771 0.82997
 C2963 C 0.87864 0.72168 0.81982
 C2964 C 0.87475 0.74107 0.80486
 C2965 C 0.89297 0.75585 0.79968
 C2966 C 0.91425 0.75214 0.81016
 C2967 C 0.85229 0.74604 0.79379
 C2968 C 0.83108 0.73990 0.80401
 H2969 H 0.94789 0.71427 0.84147
 H2970 H 0.90265 0.70302 0.84187
 H2971 H 0.86516 0.70955 0.82362
 H2972 H 0.89056 0.77068 0.78795
 H2973 H 0.92778 0.76427 0.80643
 H2974 H 0.85245 0.75579 0.77731
 H2975 H 0.93491 0.76533 0.85046
 H2976 H 0.83052 0.73151 0.82119
   
