data_POSCAR
  _audit_creation_date              2014-09-24
  _audit_creation_method            'ToBaCCo'
  _symmetry_space_group_name_H-M    'P1'
  _symmetry_Int_Tables_number       1
  _symmetry_cell_setting            triclinic
  loop_
  _symmetry_equiv_pos_as_xyz
 x,y,z
_cell_length_a 52.1270
_cell_length_b 52.9063
_cell_length_c 56.8196
_cell_angle_alpha 90.062000
_cell_angle_beta 89.882300
_cell_angle_gamma 89.679200
loop_
  _atom_site_label
  _atom_site_type_symbol
  _atom_site_fract_x
  _atom_site_fract_y
  _atom_site_fract_z
C1 C 0.40111 -0.03359 0.24996
 C2 C 0.41195 -0.01077 0.24234
 C3 C 0.42367 -0.00945 0.22030
 C4 C 0.42507 -0.03071 0.20568
 C5 C 0.41402 -0.05353 0.21333
 C6 C 0.40146 -0.05541 0.23548
 C7 C 0.41197 0.01176 0.25770
 C8 C 0.42448 0.01077 0.27943
 C9 C 0.42627 0.03233 0.29400
 C10 C 0.41419 0.05488 0.28617
 C11 C 0.40113 0.05603 0.26446
 C12 C 0.40051 0.03437 0.25020
 H13 H 0.39132 -0.03349 0.26675
 H14 H 0.43253 0.00811 0.21489
 H15 H 0.43233 -0.00725 0.28490
 H16 H 0.39055 0.03479 0.23349
 H17 H 0.41585 -0.06982 0.20196
 H18 H 0.41584 0.07212 0.29626
 C19 C 0.09854 -0.03212 0.75130
 C20 C 0.08765 -0.00910 0.75869
 C21 C 0.07653 -0.00726 0.78105
 C22 C 0.07593 -0.02818 0.79619
 C23 C 0.08709 -0.05115 0.78868
 C24 C 0.09872 -0.05328 0.76629
 C25 C 0.08708 0.01300 0.74284
 C26 C 0.07511 0.01109 0.72091
 C27 C 0.07297 0.03213 0.70575
 C28 C 0.08378 0.05528 0.71338
 C29 C 0.09627 0.05737 0.73531
 C30 C 0.09746 0.03611 0.75003
 H31 H 0.10753 -0.03322 0.73412
 H32 H 0.06759 0.01040 0.78634
 H33 H 0.06613 -0.00670 0.71661
 H34 H 0.10710 0.03725 0.76687
 H35 H 0.08689 -0.06732 0.80035
 H36 H 0.08334 0.07169 0.70207
 C37 C 0.59965 0.46544 0.25116
 C38 C 0.58901 0.48858 0.25852
 C39 C 0.57718 0.49037 0.28057
 C40 C 0.57556 0.46924 0.29540
 C41 C 0.58648 0.44615 0.28793
 C42 C 0.59884 0.44408 0.26586
 C43 C 0.58912 0.51076 0.24277
 C44 C 0.57740 0.50912 0.22072
 C45 C 0.57610 0.53018 0.20578
 C46 C 0.58723 0.55308 0.21316
 C47 C 0.59949 0.55501 0.23523
 C48 C 0.59997 0.53370 0.25004
 H49 H 0.60913 0.46435 0.23420
 H50 H 0.56841 0.50813 0.28579
 H51 H 0.56847 0.49151 0.21558
 H52 H 0.60940 0.53465 0.26699
 H53 H 0.58549 0.42982 0.29936
 H54 H 0.58647 0.56936 0.20164
 C55 C 0.90149 0.46285 0.74942
 C56 C 0.91188 0.48597 0.74208
 C57 C 0.92380 0.48770 0.72009
 C58 C 0.92571 0.46656 0.70525
 C59 C 0.91507 0.44347 0.71269
 C60 C 0.90264 0.44144 0.73471
 C61 C 0.91129 0.50829 0.75770
 C62 C 0.92305 0.50700 0.77977
 C63 C 0.92441 0.52835 0.79464
 C64 C 0.91296 0.55114 0.78661
 C65 C 0.90065 0.55260 0.76455
 C66 C 0.90029 0.53108 0.75009
 H67 H 0.89190 0.46183 0.76632
 H68 H 0.93236 0.50547 0.71489
 H69 H 0.93255 0.48947 0.78439
 H70 H 0.89090 0.53177 0.73311
 H71 H 0.91631 0.42713 0.70125
 H72 H 0.91279 0.56775 0.79769
 C73 C 0.25917 0.34636 1.02772
 C74 C 0.25950 0.36318 1.00858
 C75 C 0.28096 0.37867 1.00494
 C76 C 0.30212 0.37743 1.02026
 C77 C 0.30135 0.36056 1.03935
 C78 C 0.28013 0.34462 1.04346
 C79 C 0.23785 0.36336 0.99167
 C80 C 0.21634 0.37910 0.99536
 C81 C 0.19529 0.37840 0.97980
 C82 C 0.19628 0.36182 0.96044
 C83 C 0.21753 0.34587 0.95653
 C84 C 0.23830 0.34683 0.97230
 H85 H 0.24284 0.33397 1.02947
 H86 H 0.28132 0.39131 0.98995
 H87 H 0.21587 0.39150 1.01054
 H88 H 0.25471 0.33446 0.96977
 H89 H 0.31701 0.36115 1.05178
 H90 H 0.18066 0.36187 0.94790
 C91 C 0.74002 0.15387 1.02818
 C92 C 0.73998 0.13731 1.00882
 C93 C 0.71859 0.12185 1.00478
 C94 C 0.69721 0.12289 1.01993
 C95 C 0.69764 0.13955 1.03921
 C96 C 0.71879 0.15543 1.04373
 C97 C 0.76200 0.13707 0.99225
 C98 C 0.78356 0.12163 0.99653
 C99 C 0.80486 0.12204 0.98119
 C100 C 0.80411 0.13807 0.96146
 C101 C 0.78281 0.15375 0.95695
 C102 C 0.76176 0.15304 0.97250
 H103 H 0.75635 0.16619 1.03029
 H104 H 0.71850 0.10934 0.98968
 H105 H 0.78385 0.10963 1.01197
 H106 H 0.74527 0.16517 0.96951
 H107 H 0.68180 0.13879 1.05149
 H108 H 0.81995 0.13777 0.94909
 C109 C 0.23804 0.65445 0.52799
 C110 C 0.23799 0.63769 0.50880
 C111 C 0.21683 0.62171 0.50531
 C112 C 0.19571 0.62242 0.52087
 C113 C 0.19631 0.63921 0.54010
 C114 C 0.21725 0.65538 0.54382
 C115 C 0.25973 0.63780 0.49193
 C116 C 0.28114 0.62190 0.49536
 C117 C 0.30236 0.62292 0.47994
 C118 C 0.30160 0.63992 0.46092
 C119 C 0.28042 0.65602 0.45727
 C120 C 0.25952 0.65478 0.47295
 H121 H 0.25420 0.66699 0.53035
 H122 H 0.21667 0.60915 0.49025
 H123 H 0.28144 0.60919 0.51029
 H124 H 0.24318 0.66728 0.47065
 H125 H 0.18067 0.63916 0.55267
 H126 H 0.31734 0.64011 0.44846
 C127 C 0.76239 0.84574 0.52647
 C128 C 0.76256 0.86313 0.50788
 C129 C 0.78361 0.87943 0.50505
 C130 C 0.80481 0.87853 0.52068
 C131 C 0.80371 0.86100 0.53946
 C132 C 0.78288 0.84453 0.54244
 C133 C 0.74117 0.86316 0.49071
 C134 C 0.71975 0.87915 0.49388
 C135 C 0.69878 0.87810 0.47825
 C136 C 0.69982 0.86104 0.45926
 C137 C 0.72101 0.84486 0.45586
 C138 C 0.74163 0.84609 0.47176
 H139 H 0.74634 0.83296 0.52830
 H140 H 0.78365 0.89186 0.48995
 H141 H 0.71922 0.89191 0.50880
 H142 H 0.75795 0.83351 0.46966
 H143 H 0.81838 0.86092 0.55287
 H144 H 0.68429 0.86083 0.44664
 C145 C -0.03547 0.24333 0.32614
 C146 C -0.01201 0.24017 0.33747
 C147 C -0.00817 0.22015 0.35300
 C148 C -0.02801 0.20316 0.35799
 C149 C -0.05135 0.20599 0.34584
 C150 C -0.05555 0.22619 0.33010
 C151 C 0.00729 0.25995 0.33649
 C152 C 0.00466 0.28052 0.35173
 C153 C 0.02517 0.29697 0.35530
 C154 C 0.04785 0.29348 0.34249
 C155 C 0.05055 0.27293 0.32708
 C156 C 0.03018 0.25606 0.32418
 H157 H -0.03772 0.25914 0.31424
 H158 H 0.01036 0.21836 0.36144
 H159 H -0.01283 0.28273 0.36191
 H160 H 0.03242 0.23948 0.31313
 H161 H -0.06743 0.19440 0.35091
 H162 H 0.06415 0.30557 0.34593
 C163 C -0.03422 0.75400 0.17123
 C164 C -0.00988 0.75953 0.16232
 C165 C -0.00622 0.78081 0.14828
 C166 C -0.02696 0.79633 0.14247
 C167 C -0.05117 0.79120 0.15185
 C168 C -0.05538 0.76968 0.16590
 C169 C 0.01023 0.74025 0.16226
 C170 C 0.00822 0.72051 0.14606
 C171 C 0.02934 0.70477 0.14100
 C172 C 0.05194 0.70818 0.15411
 C173 C 0.05394 0.72785 0.17056
 C174 C 0.03306 0.74406 0.17443
 H175 H -0.03677 0.73630 0.18048
 H176 H 0.01233 0.78386 0.14011
 H177 H -0.00985 0.71817 0.13697
 H178 H 0.03478 0.76003 0.18628
 H179 H -0.06664 0.80429 0.14803
 H180 H 0.06904 0.69733 0.15004
 C181 C 0.46426 0.25147 0.66979
 C182 C 0.48814 0.25773 0.66029
 C183 C 0.49059 0.27887 0.64576
 C184 C 0.46908 0.29357 0.64019
 C185 C 0.44532 0.28759 0.65011
 C186 C 0.44273 0.26639 0.66465
 C187 C 0.50916 0.23948 0.66078
 C188 C 0.50867 0.21959 0.64464
 C189 C 0.53044 0.20456 0.64103
 C190 C 0.55228 0.20866 0.65471
 C191 C 0.55285 0.22849 0.67111
 C192 C 0.53126 0.24411 0.67394
 H193 H 0.46224 0.23431 0.68003
 H194 H 0.50884 0.28256 0.63728
 H195 H 0.49171 0.21676 0.63395
 H196 H 0.53183 0.26015 0.68581
 H197 H 0.42868 0.29917 0.64609
 H198 H 0.56946 0.19754 0.65146
 C199 C 0.46746 0.74352 0.82871
 C200 C 0.48883 0.74053 0.84313
 C201 C 0.48904 0.72223 0.86080
 C202 C 0.46765 0.70669 0.86467
 C203 C 0.44634 0.70964 0.84973
 C204 C 0.44607 0.72810 0.83203
 C205 C 0.50975 0.75863 0.84233
 C206 C 0.51053 0.77747 0.85951
 C207 C 0.53220 0.79269 0.86184
 C208 C 0.55280 0.78938 0.84633
 C209 C 0.55215 0.77042 0.82907
 C210 C 0.53047 0.75503 0.82706
 H211 H 0.46715 0.75836 0.81557
 H212 H 0.50622 0.72030 0.87133
 H213 H 0.49450 0.77969 0.87155
 H214 H 0.53012 0.73974 0.81435
 H215 H 0.42888 0.69924 0.85301
 H216 H 0.57004 0.80045 0.84870
 C217 C -0.28776 0.65509 0.99931
 C218 C -0.26481 0.66624 1.00690
 C219 C -0.26385 0.67830 1.02874
 C220 C -0.28573 0.67993 1.04302
 C221 C -0.30862 0.66855 1.03536
 C222 C -0.31008 0.65552 1.01356
 C223 C -0.24192 0.66621 0.99151
 C224 C -0.24333 0.67777 0.96943
 C225 C -0.22174 0.67919 0.95446
 C226 C -0.19849 0.66814 0.96249
 C227 C -0.19687 0.65604 0.98460
 C228 C -0.21871 0.65556 0.99911
 H229 H -0.28737 0.64507 0.98272
 H230 H -0.24599 0.68667 1.03448
 H231 H -0.26123 0.68694 0.96481
 H232 H -0.21798 0.64624 1.01606
 H233 H -0.32553 0.67105 1.04617
 H234 H -0.18166 0.66807 0.95135
 C235 C -0.28475 0.34501 0.50006
 C236 C -0.26179 0.33381 0.49226
 C237 C -0.26090 0.32162 0.47050
 C238 C -0.28279 0.32012 0.45635
 C239 C -0.30577 0.33156 0.46418
 C240 C -0.30719 0.34457 0.48606
 C241 C -0.23872 0.33395 0.50727
 C242 C -0.23932 0.32173 0.52907
 C243 C -0.21738 0.32057 0.54330
 C244 C -0.19481 0.33262 0.53561
 C245 C -0.19397 0.34541 0.51382
 C246 C -0.21605 0.34556 0.49960
 H247 H -0.28428 0.35511 0.51660
 H248 H -0.24319 0.31253 0.46498
 H249 H -0.25700 0.31301 0.53487
 H250 H -0.21596 0.35536 0.48287
 H251 H -0.32254 0.32971 0.45319
 H252 H -0.17775 0.33165 0.54641
 C253 C 0.22039 -0.15449 0.00087
 C254 C 0.24257 -0.16704 -0.00690
 C255 C 0.24274 -0.17922 -0.02876
 C256 C 0.22075 -0.17951 -0.04325
 C257 C 0.19865 -0.16635 -0.03513
 C258 C 0.19835 -0.15365 -0.01326
 C259 C 0.26569 -0.16799 0.00804
 C260 C 0.26470 -0.18037 0.02976
 C261 C 0.28657 -0.18235 0.04429
 C262 C 0.30948 -0.17078 0.03632
 C263 C 0.31062 -0.15783 0.01465
 C264 C 0.28861 -0.15693 0.00046
 H265 H 0.22066 -0.14475 0.01765
 H266 H 0.26055 -0.18786 -0.03446
 H267 H 0.24638 -0.18777 0.03534
 H268 H 0.28896 -0.14693 -0.01616
 H269 H 0.18105 -0.16677 -0.04515
 H270 H 0.32698 -0.17261 0.04635
 C271 C 0.21669 1.15459 0.49912
 C272 C 0.23928 1.16645 0.50660
 C273 C 0.23993 1.17849 0.52851
 C274 C 0.21821 1.17904 0.54314
 C275 C 0.19568 1.16689 0.53556
 C276 C 0.19477 1.15433 0.51363
 C277 C 0.26226 1.16699 0.49140
 C278 C 0.26126 1.17942 0.46970
 C279 C 0.28319 1.18140 0.45518
 C280 C 0.30615 1.16967 0.46309
 C281 C 0.30731 1.15666 0.48473
 C282 C 0.28525 1.15581 0.49892
 H283 H 0.21655 1.14493 0.48230
 H284 H 0.25730 1.18809 0.53383
 H285 H 0.24292 1.18700 0.46419
 H286 H 0.28564 1.14585 0.51556
 H287 H 0.17892 1.16703 0.54685
 H288 H 0.32369 1.17148 0.45308
 C289 C 0.09872 0.51297 0.22079
 C290 C 0.11488 0.51265 0.24060
 C291 C 0.13181 0.53289 0.24446
 C292 C 0.13273 0.55337 0.22863
 C293 C 0.11616 0.55342 0.20915
 C294 C 0.09933 0.53329 0.20481
 C295 C 0.11401 0.49109 0.25724
 C296 C 0.12990 0.46979 0.25381
 C297 C 0.12873 0.44903 0.26932
 C298 C 0.11153 0.45009 0.28842
 C299 C 0.09544 0.47116 0.29212
 C300 C 0.09686 0.49164 0.27636
 H301 H 0.08605 0.49716 0.21768
 H302 H 0.14446 0.53246 0.25956
 H303 H 0.14285 0.46931 0.23888
 H304 H 0.08448 0.50796 0.27877
 H305 H 0.11610 0.56953 0.19741
 H306 H 0.11128 0.43470 0.30097
 C307 C -0.09735 0.98793 0.22343
 C308 C -0.11501 0.98755 0.24209
 C309 C -0.13123 0.96662 0.24496
 C310 C -0.13001 0.94574 0.22936
 C311 C -0.11224 0.94698 0.21052
 C312 C -0.09555 0.96768 0.20725
 C313 C -0.11537 1.00865 0.25937
 C314 C -0.13202 1.02945 0.25637
 C315 C -0.13152 1.05038 0.27203
 C316 C -0.11400 1.04927 0.29102
 C317 C -0.09716 1.02871 0.29420
 C318 C -0.09800 1.00846 0.27820
 H319 H -0.08442 1.00381 0.22233
 H320 H -0.14385 0.96645 0.26009
 H321 H -0.14439 1.02950 0.24111
 H322 H -0.08493 0.99261 0.28017
 H323 H -0.11298 0.93265 0.19702
 H324 H -0.11423 1.06378 0.30442
 C325 C 0.40049 0.48961 -0.27751
 C326 C 0.38357 0.48924 -0.25820
 C327 C 0.36772 0.46818 -0.25464
 C328 C 0.36868 0.44746 -0.27020
 C329 C 0.38565 0.44827 -0.28946
 C330 C 0.40198 0.46910 -0.29351
 C331 C 0.38349 0.51051 -0.24113
 C332 C 0.36756 0.53177 -0.24466
 C333 C 0.36819 0.55274 -0.22907
 C334 C 0.38514 0.55130 -0.20969
 C335 C 0.40126 0.53030 -0.20599
 C336 C 0.40024 0.50993 -0.22184
 H337 H 0.41314 0.50564 -0.27921
 H338 H 0.35501 0.46779 -0.23954
 H339 H 0.35558 0.53207 -0.26018
 H340 H 0.41272 0.49369 -0.21939
 H341 H 0.38484 0.43297 -0.30205
 H342 H 0.38495 0.56590 -0.19637
 C343 C 0.59822 0.00994 -0.27932
 C344 C 0.61464 0.01016 -0.25971
 C345 C 0.63011 0.03134 -0.25548
 C346 C 0.62929 0.05231 -0.27069
 C347 C 0.61279 0.05169 -0.29021
 C348 C 0.59682 0.03078 -0.29491
 C349 C 0.61469 -0.01145 -0.24308
 C350 C 0.63018 -0.03286 -0.24736
 C351 C 0.62965 -0.05370 -0.23191
 C352 C 0.61344 -0.05267 -0.21211
 C353 C 0.59771 -0.03154 -0.20760
 C354 C 0.59857 -0.01091 -0.22322
 H355 H 0.58584 -0.00623 -0.28156
 H356 H 0.64250 0.03158 -0.24019
 H357 H 0.64233 -0.03336 -0.26284
 H358 H 0.58642 0.00547 -0.22017
 H359 H 0.61375 0.06724 -0.30251
 H360 H 0.61367 -0.06818 -0.19968
 C361 C -0.00699 0.21982 0.92814
 C362 C -0.01181 0.24158 0.91496
 C363 C -0.03106 0.24169 0.89793
 C364 C -0.04517 0.21985 0.89341
 C365 C -0.04090 0.19828 0.90707
 C366 C -0.02172 0.19811 0.92437
 C367 C 0.00612 0.26259 0.91511
 C368 C 0.02777 0.26084 0.90067
 C369 C 0.04190 0.28244 0.89521
 C370 C 0.03489 0.30561 0.90525
 C371 C 0.01323 0.30746 0.91981
 C372 C -0.00113 0.28583 0.92480
 H373 H 0.00865 0.21957 0.94068
 H374 H -0.03399 0.25843 0.88724
 H375 H 0.03216 0.24305 0.89200
 H376 H -0.01872 0.28732 0.93493
 H377 H -0.05123 0.18107 0.90313
 H378 H 0.04592 0.32237 0.90120
 C379 C 0.50011 0.21502 0.07447
 C380 C 0.50765 0.23839 0.08358
 C381 C 0.52943 0.23999 0.09780
 C382 C 0.54326 0.21820 0.10373
 C383 C 0.53594 0.19494 0.09426
 C384 C 0.51425 0.19320 0.07982
 C385 C 0.49004 0.25996 0.08326
 C386 C 0.46780 0.25855 0.09695
 C387 C 0.45386 0.28044 0.10244
 C388 C 0.46155 0.30359 0.09301
 C389 C 0.48370 0.30513 0.07906
 C390 C 0.49794 0.28321 0.07418
 H391 H 0.48253 0.21367 0.06440
 H392 H 0.53409 0.25787 0.10606
 H393 H 0.46284 0.24077 0.10523
 H394 H 0.51586 0.28443 0.06454
 H395 H 0.54680 0.17805 0.09862
 H396 H 0.45066 0.32056 0.09707
 C397 C 0.00394 0.71605 0.57408
 C398 C 0.01080 0.73953 0.58339
 C399 C 0.03271 0.74166 0.59737
 C400 C 0.04728 0.72024 0.60295
 C401 C 0.04071 0.69689 0.59320
 C402 C 0.01887 0.69462 0.57903
 C403 C -0.00784 0.76025 0.58415
 C404 C -0.02917 0.75754 0.59886
 C405 C -0.04388 0.77867 0.60576
 C406 C -0.03768 0.80229 0.59600
 C407 C -0.01643 0.80506 0.58110
 C408 C -0.00148 0.78395 0.57523
 H409 H -0.01385 0.71421 0.56440
 H410 H 0.03674 0.75952 0.60594
 H411 H -0.03208 0.73930 0.60704
 H412 H 0.01585 0.78614 0.56486
 H413 H 0.05208 0.68029 0.59740
 H414 H -0.04942 0.81875 0.59976
 C415 C 0.49932 0.71668 0.42610
 C416 C 0.49219 0.74024 0.41703
 C417 C 0.47035 0.74248 0.40293
 C418 C 0.45604 0.72111 0.39712
 C419 C 0.46290 0.69767 0.40660
 C420 C 0.48468 0.69529 0.42086
 C421 C 0.51019 0.76130 0.41732
 C422 C 0.53245 0.75917 0.40367
 C423 C 0.54668 0.78066 0.39803
 C424 C 0.53935 0.80408 0.40733
 C425 C 0.51714 0.80635 0.42111
 C426 C 0.50260 0.78486 0.42617
 H427 H 0.51695 0.71480 0.43604
 H428 H 0.46601 0.76047 0.39467
 H429 H 0.53713 0.74120 0.39548
 H430 H 0.48462 0.78666 0.43568
 H431 H 0.45166 0.68112 0.40233
 H432 H 0.55047 0.82074 0.40314
 Zr433 Zr 0.01992 -0.04055 1.03880
 O434 O 0.04763 -0.03023 1.06418
 O435 O 0.01011 -0.07678 1.04972
 O436 O 0.00315 -0.03834 1.07288
 O437 O 0.06368 -0.05776 0.99553
 O438 O -0.03227 -0.01332 1.06758
 O439 O 0.05437 -0.06197 1.03465
 O440 O -0.02246 -0.08794 1.02498
 O441 O -0.01980 -0.04125 1.03306
 O442 O 0.01421 -0.05864 1.00649
 O443 O 0.00765 -0.00260 1.03941
 O444 O 0.04100 -0.01947 1.01397
 Zr445 Zr -0.01810 0.00030 0.97458
 Zr446 Zr -0.03170 -0.00347 1.03179
 Zr447 Zr 0.03317 -0.03674 0.98151
 Zr448 Zr -0.02505 -0.05820 1.00032
 O449 O 0.06846 -0.02095 0.97060
 O450 O -0.06237 -0.06482 1.01382
 O451 O -0.00613 -0.03788 0.97371
 O452 O -0.03880 -0.02097 0.99939
 O453 O -0.01265 0.01856 1.00690
 O454 O 0.02147 0.00098 0.98052
 C455 C -0.00763 -0.09163 1.04271
 C456 C 0.06845 -0.06610 1.01626
 C457 C -0.01731 -0.02697 1.08031
 O458 O -0.06838 -0.01778 1.04035
 O459 O -0.06027 0.02076 1.01812
 O460 O -0.05151 0.02286 0.97877
 C461 C -0.06494 0.02857 0.99713
 O462 O 0.05594 0.01880 1.03933
 Zr463 Zr 0.02678 0.01775 1.01326
 O464 O -0.00934 0.03748 0.96500
 O465 O -0.03218 0.03007 1.05210
 O466 O 0.01801 0.04822 1.03625
 O467 O 0.06206 0.02769 0.99717
 O468 O 0.01956 0.05005 0.99279
 C469 C 0.00495 0.05397 0.97500
 O470 O -0.04674 -0.00919 0.94976
 O471 O 0.03524 -0.07163 0.96331
 O472 O -0.00306 -0.00406 0.94008
 O473 O 0.03107 -0.03078 0.94507
 O474 O -0.01521 -0.09124 0.98106
 O475 O -0.04997 -0.06199 0.97098
 C476 C 0.01596 -0.01738 0.93231
 H477 H 0.02074 -0.07624 1.00630
 H478 H -0.05733 -0.02106 0.99562
 H479 H 0.03089 0.01039 0.96822
 H480 H 0.01097 0.00518 1.05496
 H481 H -0.06617 -0.08298 1.01150
 H482 H -0.07632 -0.00568 1.05157
 H483 H -0.04902 0.03072 1.06021
 H484 H 0.03004 0.06213 1.03261
 H485 H -0.02769 -0.10450 0.98544
 H486 H 0.05205 -0.07214 0.95514
 H487 H 0.07642 -0.03315 0.95949
 H488 H 0.06510 0.04579 1.00063
 H489 H -0.05967 -0.07796 0.97236
 H490 H -0.04884 0.00553 0.93910
 H491 H 0.04986 -0.04495 1.07481
 H492 H 0.06351 0.03591 1.03987
 Zr493 Zr 0.51444 0.45692 0.53670
 O494 O 0.54247 0.46643 0.56206
 O495 O 0.50319 0.42121 0.54795
 O496 O 0.49777 0.46022 0.57073
 O497 O 0.55752 0.43752 0.49364
 O498 O 0.46347 0.48664 0.56518
 O499 O 0.54819 0.43435 0.53284
 O500 O 0.47022 0.41096 0.52331
 O501 O 0.47472 0.45771 0.53095
 O502 O 0.50800 0.43861 0.50461
 O503 O 0.50372 0.49532 0.53688
 O504 O 0.53632 0.47681 0.51163
 Zr505 Zr 0.47811 0.49843 0.47199
 Zr506 Zr 0.46437 0.49593 0.52925
 Zr507 Zr 0.52779 0.45940 0.47937
 Zr508 Zr 0.46878 0.44055 0.49841
 O509 O 0.56376 0.47347 0.46823
 O510 O 0.43126 0.43558 0.51208
 O511 O 0.48848 0.45977 0.47155
 O512 O 0.45660 0.47829 0.49705
 O513 O 0.48428 0.51696 0.50408
 O514 O 0.51767 0.49749 0.47802
 C515 C 0.48494 0.40689 0.54106
 C516 C 0.56210 0.42948 0.51450
 C517 C 0.47783 0.47254 0.57805
 O518 O 0.42719 0.48310 0.53807
 O519 O 0.43659 0.52081 0.51528
 O520 O 0.44554 0.52226 0.47593
 C521 C 0.43219 0.52850 0.49420
 O522 O 0.55241 0.51519 0.53698
 Zr523 Zr 0.52366 0.51454 0.51051
 O524 O 0.48885 0.53489 0.46169
 O525 O 0.46519 0.52978 0.54907
 O526 O 0.51547 0.54593 0.53258
 O527 O 0.55978 0.52234 0.49495
 O528 O 0.51882 0.54640 0.48892
 C529 C 0.50455 0.55061 0.47097
 O530 O 0.44912 0.48981 0.44724
 O531 O 0.52826 0.42421 0.46160
 O532 O 0.49307 0.49313 0.43758
 O533 O 0.52607 0.46513 0.44288
 O534 O 0.47728 0.40698 0.47943
 O535 O 0.44359 0.43738 0.46920
 C536 C 0.51163 0.47909 0.42998
 H537 H 0.51386 0.42077 0.50463
 H538 H 0.43808 0.47885 0.49327
 H539 H 0.52762 0.50625 0.46564
 H540 H 0.50735 0.50318 0.55233
 H541 H 0.42670 0.41757 0.50995
 H542 H 0.41974 0.49564 0.54916
 H543 H 0.44839 0.53118 0.55717
 H544 H 0.52801 0.55934 0.52877
 H545 H 0.46429 0.39425 0.48393
 H546 H 0.54504 0.42285 0.45346
 H547 H 0.57116 0.46080 0.45725
 H548 H 0.56373 0.54032 0.49815
 H549 H 0.43329 0.42180 0.47076
 H550 H 0.44768 0.50445 0.43640
 H551 H 0.54411 0.45176 0.57283
 H552 H 0.56025 0.53219 0.53758
 Zr553 Zr 0.48790 1.04584 0.53419
 O554 O 0.45968 1.03722 0.55975
 O555 O 0.50026 1.08128 0.54540
 O556 O 0.50430 1.04211 0.56818
 O557 O 0.44508 1.06569 0.49129
 O558 O 0.53802 1.01493 0.56257
 O559 O 0.45444 1.06883 0.53045
 O560 O 0.53363 1.09044 0.52074
 O561 O 0.52759 1.04412 0.52826
 O562 O 0.49472 1.06392 0.50206
 O563 O 0.49773 1.00721 0.53436
 O564 O 0.46561 1.02631 0.50921
 Zr565 Zr 0.52331 1.00325 0.46939
 Zr566 Zr 0.53706 1.00571 0.52660
 Zr567 Zr 0.47451 1.04341 0.47691
 Zr568 Zr 0.53391 1.06102 0.49566
 O569 O 0.43830 1.03008 0.46574
 O570 O 0.57172 1.06519 0.50877
 O571 O 0.51379 1.04212 0.46892
 O572 O 0.54524 1.02304 0.49435
 O573 O 0.51672 0.98500 0.50154
 O574 O 0.48378 1.00509 0.47556
 C575 C 0.51910 1.09492 0.53858
 C576 C 0.44051 1.07373 0.51219
 C577 C 0.52388 1.02930 0.57548
 O578 O 0.57443 1.01792 0.53543
 O579 O 0.56446 0.98037 0.51258
 O580 O 0.55550 0.97891 0.47326
 C581 C 0.56877 0.97257 0.49149
 O582 O 0.44857 0.98847 0.53462
 Zr583 Zr 0.47739 0.98831 0.50809
 O584 O 0.51182 0.96696 0.45926
 O585 O 0.53555 0.97185 0.54633
 O586 O 0.48476 0.95686 0.53023
 O587 O 0.44114 0.98125 0.49259
 O588 O 0.48157 0.95623 0.48660
 C589 C 0.49579 0.95161 0.46865
 O590 O 0.55243 1.01110 0.44445
 O591 O 0.47480 1.07862 0.45926
 O592 O 0.50845 1.00874 0.43503
 O593 O 0.47618 1.03757 0.44044
 O594 O 0.52601 1.09485 0.47696
 O595 O 0.55884 1.06351 0.46611
 C596 C 0.49025 1.02322 0.42749
 H597 H 0.48923 1.08186 0.50216
 H598 H 0.56375 1.02210 0.49050
 H599 H 0.47365 0.99650 0.46323
 H600 H 0.49390 0.99946 0.54982
 H601 H 0.57672 1.08306 0.50645
 H602 H 0.58163 1.00526 0.54648
 H603 H 0.55228 0.97016 0.55444
 H604 H 0.47188 0.94375 0.52651
 H605 H 0.53937 1.10724 0.48135
 H606 H 0.45807 1.08030 0.45113
 H607 H 0.43120 1.04290 0.45479
 H608 H 0.43677 0.96338 0.49584
 H609 H 0.56937 1.07896 0.46742
 H610 H 0.55354 0.99636 0.43366
 H611 H 0.45841 1.05200 0.57047
 H612 H 0.44027 0.97170 0.53523
 Zr613 Zr -0.01563 0.54671 1.03536
 O614 O -0.04362 0.53825 1.06118
 O615 O -0.00363 0.58247 1.04592
 O616 O 0.00112 0.54387 1.06934
 O617 O -0.05872 0.56554 0.99224
 O618 O 0.03493 0.51675 1.06394
 O619 O -0.04931 0.56936 1.03134
 O620 O 0.02962 0.59145 1.02107
 O621 O 0.02404 0.54515 1.02932
 O622 O -0.00905 0.56426 1.00293
 O623 O -0.00551 0.50815 1.03608
 O624 O -0.03784 0.52658 1.01072
 Zr625 Zr 0.01990 0.50327 0.97111
 Zr626 Zr 0.03381 0.50678 1.02819
 Zr627 Zr -0.02918 0.54320 0.97813
 Zr628 Zr 0.03014 0.56156 0.99646
 O629 O -0.06533 0.52944 0.96725
 O630 O 0.06792 0.56625 1.00948
 O631 O 0.01009 0.54206 0.97006
 O632 O 0.04177 0.52364 0.99568
 O633 O 0.01353 0.48549 1.00352
 O634 O -0.01963 0.50493 0.97735
 C635 C 0.01507 0.59615 1.03885
 C636 C -0.06329 0.57389 1.01303
 C637 C 0.02090 0.53137 1.07668
 O638 O 0.07116 0.51932 1.03664
 O639 O 0.06127 0.48130 1.01449
 O640 O 0.05219 0.47913 0.97524
 C641 C 0.06554 0.47314 0.99352
 O642 O -0.05447 0.48899 1.03679
 Zr643 Zr -0.02579 0.48865 1.01015
 O644 O 0.00856 0.46679 0.96149
 O645 O 0.03256 0.47333 1.04852
 O646 O -0.01802 0.45762 1.03268
 O647 O -0.06208 0.48110 0.99493
 O648 O -0.02154 0.45627 0.98904
 C649 C -0.00736 0.45150 0.97108
 O650 O 0.04894 0.51088 0.94602
 O651 O -0.02914 0.57809 0.95995
 O652 O 0.00497 0.50808 0.93672
 O653 O -0.02756 0.53671 0.94172
 O654 O 0.02194 0.59498 0.97724
 O655 O 0.05500 0.56372 0.96685
 C656 C -0.01336 0.52226 0.92899
 H657 H -0.01468 0.58216 1.00276
 H658 H 0.06027 0.52274 0.99180
 H659 H -0.02974 0.49607 0.96517
 H660 H -0.00919 0.50066 1.05168
 H661 H 0.07277 0.58412 1.00689
 H662 H 0.07848 0.50692 1.04787
 H663 H 0.04935 0.47187 1.05658
 H664 H -0.03078 0.44432 1.02917
 H665 H 0.03521 0.60755 0.98141
 H666 H -0.04590 0.57952 0.95183
 H667 H -0.07254 0.54202 0.95613
 H668 H -0.06631 0.46326 0.99845
 H669 H 0.06543 0.57927 0.96792
 H670 H 0.05012 0.49599 0.93543
 H671 H -0.04497 0.55321 1.07166
 H672 H -0.06258 0.47214 1.03772
 Zr673 Zr -0.01518 0.45713 0.46361
 O674 O -0.04349 0.46725 0.43863
 O675 O -0.00393 0.42150 0.45171
 O676 O 0.00107 0.46078 0.42947
 O677 O -0.05779 0.43758 0.50678
 O678 O 0.03543 0.48675 0.43509
 O679 O -0.04893 0.43492 0.46745
 O680 O 0.02945 0.41070 0.47578
 O681 O 0.02460 0.45749 0.46899
 O682 O -0.00834 0.43827 0.49535
 O683 O -0.00454 0.49543 0.46390
 O684 O -0.03680 0.47685 0.48919
 Zr685 Zr 0.02182 0.49735 0.52856
 Zr686 Zr 0.03491 0.49557 0.47115
 Zr687 Zr -0.02787 0.45887 0.52109
 Zr688 Zr 0.03096 0.43978 0.50121
 O689 O -0.06369 0.47311 0.53287
 O690 O 0.06840 0.43472 0.48723
 O691 O 0.01153 0.45878 0.52853
 O692 O 0.04309 0.47739 0.50301
 O693 O 0.01524 0.51638 0.49681
 O694 O -0.01781 0.49687 0.52293
 C695 C 0.01455 0.40702 0.45812
 C696 C -0.06266 0.42996 0.48584
 C697 C 0.02092 0.47300 0.42215
 O698 O 0.07203 0.48257 0.46183
 O699 O 0.06273 0.52009 0.48521
 O700 O 0.05425 0.52099 0.52466
 C701 C 0.06733 0.52746 0.50635
 O702 O -0.05336 0.51565 0.46466
 Zr703 Zr -0.02421 0.51444 0.49075
 O704 O 0.01125 0.53379 0.53945
 O705 O 0.03378 0.52968 0.45178
 O706 O -0.01649 0.54602 0.46894
 O707 O -0.06006 0.52243 0.50692
 O708 O -0.01894 0.54603 0.51260
 C709 C -0.00442 0.54987 0.53043
 O710 O 0.05113 0.48808 0.55288
 O711 O -0.02808 0.42339 0.53826
 O712 O 0.00728 0.49166 0.56303
 O713 O -0.02567 0.46398 0.55763
 O714 O 0.02270 0.40595 0.51964
 O715 O 0.05637 0.43594 0.53021
 C716 C -0.01113 0.47762 0.57060
 H717 H -0.01418 0.42050 0.49509
 H718 H 0.06166 0.47775 0.50662
 H719 H -0.02759 0.50556 0.53554
 H720 H -0.00835 0.50356 0.44860
 H721 H 0.07302 0.41663 0.48907
 H722 H 0.07933 0.49519 0.45085
 H723 H 0.05049 0.53105 0.44353
 H724 H -0.02902 0.55948 0.47307
 H725 H 0.03569 0.39320 0.51482
 H726 H -0.04476 0.42207 0.54657
 H727 H -0.07094 0.46033 0.54372
 H728 H -0.06405 0.54050 0.50403
 H729 H 0.06667 0.42027 0.52835
 H730 H 0.05268 0.50254 0.56392
 H731 H -0.04522 0.45275 0.42767
 H732 H -0.06134 0.53268 0.46445
 Zr733 Zr 0.48985 -0.04665 -0.03466
 O734 O 0.46180 -0.03871 -0.06055
 O735 O 0.50294 -0.08227 -0.04510
 O736 O 0.50654 -0.04339 -0.06864
 O737 O 0.44675 -0.06584 0.00822
 O738 O 0.53975 -0.01597 -0.06323
 O739 O 0.45674 -0.06971 -0.03080
 O740 O 0.53592 -0.09097 -0.01987
 O741 O 0.52943 -0.04468 -0.02849
 O742 O 0.49651 -0.06405 -0.00217
 O743 O 0.49904 -0.00797 -0.03538
 O744 O 0.46693 -0.02670 -0.01017
 Zr745 Zr 0.52375 -0.00269 0.02968
 Zr746 Zr 0.53825 -0.00619 -0.02740
 Zr747 Zr 0.47563 -0.04316 0.02247
 Zr748 Zr 0.53556 -0.06088 0.00448
 O749 O 0.43908 -0.02975 0.03315
 O750 O 0.57354 -0.06522 -0.00844
 O751 O 0.51479 -0.04157 0.03073
 O752 O 0.54629 -0.02285 0.00521
 O753 O 0.51729 0.01493 -0.00281
 O754 O 0.48431 -0.00479 0.02328
 C755 C 0.52173 -0.09584 -0.03775
 C756 C 0.44263 -0.07432 -0.01258
 C757 C 0.52596 -0.03057 -0.07602
 O758 O 0.57589 -0.01847 -0.03576
 O759 O 0.56505 0.01952 -0.01365
 O760 O 0.55558 0.02175 0.02557
 C761 C 0.56896 0.02777 0.00731
 O762 O 0.44966 0.01071 -0.03630
 Zr763 Zr 0.47810 0.01137 -0.00956
 O764 O 0.51153 0.03370 0.03920
 O765 O 0.53652 0.02728 -0.04769
 O766 O 0.48539 0.04244 -0.03212
 O767 O 0.44152 0.01853 0.00553
 O768 O 0.48147 0.04386 0.01149
 C769 C 0.49538 0.04883 0.02950
 O770 O 0.55270 -0.00989 0.05493
 O771 O 0.47619 -0.07803 0.04070
 O772 O 0.50856 -0.00768 0.06403
 O773 O 0.47674 -0.03668 0.05887
 O774 O 0.52795 -0.09425 0.02388
 O775 O 0.56027 -0.06261 0.03416
 C776 C 0.49046 -0.02207 0.07167
 H777 H 0.49129 -0.08201 -0.00198
 H778 H 0.56474 -0.02175 0.00915
 H779 H 0.47390 0.00399 0.03541
 H780 H 0.49529 -0.00052 -0.05098
 H781 H 0.57880 -0.08301 -0.00574
 H782 H 0.58306 -0.00601 -0.04697
 H783 H 0.55334 0.02889 -0.05570
 H784 H 0.47231 0.05561 -0.02869
 H785 H 0.54155 -0.10670 0.01987
 H786 H 0.45936 -0.07962 0.04870
 H787 H 0.43201 -0.04239 0.04423
 H788 H 0.43693 0.03633 0.00202
 H789 H 0.57106 -0.07803 0.03318
 H790 H 0.55341 0.00505 0.06548
 H791 H 0.46093 -0.05369 -0.07103
 H792 H 0.44117 0.02747 -0.03725
 Zr793 Zr 0.51123 0.54479 -0.03446
 O794 O 0.53900 0.53652 -0.06064
 O795 O 0.49858 0.58064 -0.04460
 O796 O 0.49424 0.54174 -0.06828
 O797 O 0.55494 0.56339 0.00801
 O798 O 0.46074 0.51472 -0.06259
 O799 O 0.54460 0.56752 -0.03086
 O800 O 0.46611 0.58982 -0.01883
 O801 O 0.47167 0.54334 -0.02788
 O802 O 0.50508 0.56218 -0.00182
 O803 O 0.50153 0.50623 -0.03517
 O804 O 0.53410 0.52451 -0.01028
 Zr805 Zr 0.47728 0.50116 0.03012
 Zr806 Zr 0.46237 0.50495 -0.02680
 Zr807 Zr 0.52590 0.54101 0.02251
 Zr808 Zr 0.46604 0.55953 0.00523
 O809 O 0.56235 0.52704 0.03270
 O810 O 0.42810 0.56441 -0.00746
 O811 O 0.48678 0.53991 0.03119
 O812 O 0.45481 0.52164 0.00595
 O813 O 0.48325 0.48352 -0.00249
 O814 O 0.51669 0.50276 0.02332
 C815 C 0.48021 0.59456 -0.03684
 C816 C 0.55891 0.57195 -0.01278
 C817 C 0.47463 0.52913 -0.07551
 O818 O 0.42484 0.51774 -0.03475
 O819 O 0.43533 0.47958 -0.01286
 O820 O 0.44509 0.47713 0.02626
 C821 C 0.43147 0.47132 0.00811
 O822 O 0.55068 0.48694 -0.03667
 Zr823 Zr 0.52243 0.48659 -0.00964
 O824 O 0.48912 0.46462 0.03941
 O825 O 0.46349 0.47146 -0.04717
 O826 O 0.51460 0.45565 -0.03224
 O827 O 0.55902 0.47893 0.00507
 O828 O 0.51877 0.45410 0.01132
 C829 C 0.50496 0.44929 0.02947
 O830 O 0.44861 0.50865 0.05569
 O831 O 0.52603 0.57584 0.04088
 O832 O 0.49276 0.50602 0.06435
 O833 O 0.52497 0.53455 0.05891
 O834 O 0.47418 0.59267 0.02483
 O835 O 0.44150 0.56148 0.03510
 C836 C 0.51110 0.52019 0.07184
 H837 H 0.51053 0.58008 -0.00159
 H838 H 0.43637 0.52079 0.01008
 H839 H 0.52708 0.49384 0.03532
 H840 H 0.50507 0.49875 -0.05083
 H841 H 0.42311 0.58227 -0.00466
 H842 H 0.41742 0.50539 -0.04592
 H843 H 0.44659 0.47008 -0.05502
 H844 H 0.52755 0.44233 -0.02899
 H845 H 0.46070 0.60530 0.02105
 H846 H 0.54296 0.57719 0.04868
 H847 H 0.56970 0.53955 0.04376
 H848 H 0.56335 0.46108 0.00146
 H849 H 0.43078 0.57696 0.03419
 H850 H 0.44780 0.49370 0.06620
 H851 H 0.53999 0.55150 -0.07109
 H852 H 0.55899 0.47010 -0.03773
 Zr853 Zr 0.01577 1.04271 0.46437
 O854 O 0.04385 1.03221 0.43918
 O855 O 0.00518 1.07860 0.45280
 O856 O -0.00069 1.03947 0.43030
 O857 O 0.05880 1.06144 0.50741
 O858 O -0.03544 1.01402 0.43603
 O859 O 0.04984 1.06442 0.46815
 O860 O -0.02783 1.08991 0.47724
 O861 O -0.02400 1.04299 0.47000
 O862 O 0.00934 1.06150 0.49629
 O863 O 0.00450 1.00458 0.46453
 O864 O 0.03713 1.02252 0.48972
 Zr865 Zr -0.02174 1.00282 0.52934
 Zr866 Zr -0.03492 1.00507 0.47202
 Zr867 Zr 0.02861 1.04049 0.52179
 Zr868 Zr -0.02995 1.06063 0.50238
 O869 O 0.06423 1.02558 0.53320
 O870 O -0.06727 1.06642 0.48853
 O871 O -0.01077 1.04120 0.52947
 O872 O -0.04274 1.02323 0.50403
 O873 O -0.01555 0.98382 0.49744
 O874 O 0.01789 1.00267 0.52348
 C875 C -0.01291 1.09343 0.45952
 C876 C 0.06368 1.06913 0.48649
 C877 C -0.02076 1.02758 0.42305
 O878 O -0.07186 1.01872 0.46305
 O879 O -0.06306 0.98088 0.48605
 O880 O -0.05451 0.97963 0.52544
 C881 C -0.06770 0.97344 0.50716
 O882 O 0.05295 0.98350 0.46489
 Zr883 Zr 0.02391 0.98513 0.49116
 O884 O -0.01170 0.96622 0.54006
 O885 O -0.03442 0.97105 0.45241
 O886 O 0.01554 0.95376 0.46926
 O887 O 0.05968 0.97650 0.50704
 O888 O 0.01819 0.95359 0.51294
 C889 C 0.00370 0.94993 0.53089
 O890 O -0.05090 1.01243 0.55382
 O891 O 0.02950 1.07586 0.53921
 O892 O -0.00710 1.00822 0.56377
 O893 O 0.02641 1.03526 0.55833
 O894 O -0.02113 1.09417 0.52109
 O895 O -0.05531 1.06473 0.53149
 C896 C 0.01158 1.02190 0.57132
 H897 H 0.01547 1.07918 0.49613
 H898 H -0.06130 1.02315 0.50774
 H899 H 0.02756 0.99378 0.53599
 H900 H 0.00813 0.99646 0.44916
 H901 H -0.07157 1.08457 0.49049
 H902 H -0.07941 1.00629 0.45203
 H903 H -0.05117 0.96998 0.44428
 H904 H 0.02783 0.94007 0.47326
 H905 H -0.03390 1.10718 0.51644
 H906 H 0.04623 1.07685 0.54741
 H907 H 0.07173 1.03816 0.54409
 H908 H 0.06334 0.95837 0.50404
 H909 H -0.06540 1.08054 0.52974
 H910 H -0.05266 0.99796 0.56479
 H911 H 0.04579 1.04672 0.42829
 H912 H 0.06060 0.96633 0.46452
 Zr913 Zr 0.70346 0.26166 0.21544
 O914 O 0.71489 0.28962 0.19100
 O915 O 0.66726 0.25213 0.20287
 O916 O 0.70736 0.24628 0.18108
 O917 O 0.68439 0.30367 0.25909
 O918 O 0.73246 0.21117 0.18641
 O919 O 0.68204 0.29581 0.21960
 O920 O 0.65524 0.21897 0.22608
 O921 O 0.70256 0.22238 0.22023
 O922 O 0.68364 0.25515 0.24689
 O923 O 0.74198 0.24954 0.21587
 O924 O 0.72375 0.28165 0.24151
 Zr925 Zr 0.74219 0.22236 0.28015
 Zr926 Zr 0.74082 0.21056 0.22255
 Zr927 Zr 0.70481 0.27303 0.27312
 Zr928 Zr 0.68392 0.21629 0.25218
 O929 O 0.72013 0.30753 0.28552
 O930 O 0.67784 0.17967 0.23811
 O931 O 0.70339 0.23411 0.27998
 O932 O 0.72167 0.20270 0.25412
 O933 O 0.76209 0.22863 0.24864
 O934 O 0.74304 0.26150 0.27508
 C935 C 0.65221 0.23407 0.20857
 C936 C 0.67723 0.30924 0.23814
 C937 C 0.71927 0.22638 0.17357
 O938 O 0.72656 0.17475 0.21259
 O939 O 0.76479 0.18199 0.23641
 O940 O 0.76527 0.18953 0.27600
 C941 C 0.77185 0.17681 0.25755
 O942 O 0.76359 0.29705 0.21777
 Zr943 Zr 0.76146 0.26765 0.24314
 O944 O 0.77951 0.23065 0.29121
 O945 O 0.77573 0.21055 0.20350
 O946 O 0.79339 0.25950 0.22115
 O947 O 0.77082 0.30204 0.26022
 O948 O 0.79322 0.26016 0.26474
 C949 C 0.79652 0.24524 0.28225
 O950 O 0.73134 0.19361 0.30401
 O951 O 0.66861 0.27430 0.29003
 O952 O 0.73685 0.23658 0.31476
 O953 O 0.70967 0.27015 0.30967
 O954 O 0.64936 0.22568 0.26998
 O955 O 0.67874 0.19126 0.28102
 C956 C 0.72315 0.25522 0.32250
 H957 H 0.66580 0.26165 0.24648
 H958 H 0.72144 0.18434 0.25747
 H959 H 0.75210 0.27051 0.28785
 H960 H 0.75056 0.25327 0.20071
 H961 H 0.65933 0.17587 0.23975
 H962 H 0.73930 0.16721 0.20164
 H963 H 0.77670 0.19421 0.19499
 H964 H 0.80734 0.27122 0.22557
 H965 H 0.63617 0.21347 0.26479
 H966 H 0.66764 0.29062 0.29858
 H967 H 0.70723 0.31501 0.29636
 H968 H 0.78931 0.30516 0.25740
 H969 H 0.66242 0.18200 0.27908
 H970 H 0.74581 0.19118 0.31511
 H971 H 0.70039 0.29211 0.17994
 H972 H 0.78105 0.30433 0.21780
 Zr973 Zr 0.79447 0.73338 0.71274
 O974 O 0.78434 0.70582 0.68742
 O975 O 0.83123 0.74320 0.70175
 O976 O 0.79218 0.74939 0.67853
 O977 O 0.81151 0.69061 0.75628
 O978 O 0.76672 0.78431 0.68362
 O979 O 0.81591 0.69930 0.71709
 O980 O 0.84213 0.77584 0.72608
 O981 O 0.79504 0.77257 0.71827
 O982 O 0.81270 0.73936 0.74503
 O983 O 0.75593 0.74537 0.71200
 O984 O 0.77301 0.71286 0.73768
 Zr985 Zr 0.75251 0.77141 0.77668
 Zr986 Zr 0.75667 0.78422 0.71941
 Zr987 Zr 0.79035 0.72095 0.77012
 Zr988 Zr 0.81208 0.77812 0.75099
 O989 O 0.77439 0.68631 0.78142
 O990 O 0.81872 0.81494 0.73766
 O991 O 0.79132 0.75975 0.77768
 O992 O 0.77424 0.79157 0.75179
 O993 O 0.73421 0.76564 0.74435
 O994 O 0.75201 0.73236 0.77096
 C995 C 0.84602 0.76108 0.70842
 C996 C 0.81984 0.68554 0.73554
 C997 C 0.78055 0.76940 0.67097
 O998 O 0.77129 0.82023 0.71059
 O999 O 0.73205 0.81253 0.73284
 O1000 O 0.72966 0.80431 0.77224
 C1001 C 0.72400 0.81736 0.75378
 O1002 O 0.73447 0.69770 0.71234
 Zr1003 Zr 0.73521 0.72673 0.73821
 O1004 O 0.71465 0.76283 0.78609
 O1005 O 0.72268 0.78448 0.69913
 O1006 O 0.70440 0.73498 0.71508
 O1007 O 0.72515 0.69212 0.75453
 O1008 O 0.70227 0.73393 0.75848
 C1009 C 0.69806 0.74853 0.77611
 O1010 O 0.76187 0.79984 0.80143
 O1011 O 0.82576 0.71922 0.78823
 O1012 O 0.75672 0.75687 0.81126
 O1013 O 0.78415 0.72341 0.80654
 O1014 O 0.84570 0.76852 0.77004
 O1015 O 0.81577 0.80273 0.78037
 C1016 C 0.77032 0.73829 0.81918
 H1017 H 0.83057 0.73292 0.74519
 H1018 H 0.77427 0.80987 0.75546
 H1019 H 0.74240 0.72318 0.78329
 H1020 H 0.74810 0.74191 0.69648
 H1021 H 0.83712 0.81877 0.74003
 H1022 H 0.75906 0.82794 0.69931
 H1023 H 0.72206 0.80096 0.69086
 H1024 H 0.69033 0.72307 0.71872
 H1025 H 0.85911 0.78083 0.76558
 H1026 H 0.82631 0.70275 0.79651
 H1027 H 0.78678 0.67863 0.79256
 H1028 H 0.70683 0.68899 0.75102
 H1029 H 0.83209 0.81214 0.77912
 H1030 H 0.74684 0.80196 0.81202
 H1031 H 0.79936 0.70357 0.67686
 H1032 H 0.71715 0.69014 0.71181
 Zr1033 Zr 0.20289 0.23763 0.78479
 O1034 O 0.21354 0.20966 0.80959
 O1035 O 0.16671 0.24831 0.79699
 O1036 O 0.20661 0.25339 0.81901
 O1037 O 0.18333 0.19580 0.74143
 O1038 O 0.23260 0.28754 0.81346
 O1039 O 0.18088 0.20407 0.78085
 O1040 O 0.15554 0.28155 0.77340
 O1041 O 0.20288 0.27687 0.77963
 O1042 O 0.18349 0.24444 0.75320
 O1043 O 0.24166 0.24848 0.78441
 O1044 O 0.22297 0.21676 0.75896
 Zr1045 Zr 0.24310 0.27501 0.71988
 Zr1046 Zr 0.24140 0.28739 0.77737
 Zr1047 Zr 0.20449 0.22566 0.72720
 Zr1048 Zr 0.18467 0.28323 0.74756
 O1049 O 0.21910 0.19055 0.71510
 O1050 O 0.17924 0.32008 0.76149
 O1051 O 0.20403 0.26453 0.72000
 O1052 O 0.22273 0.29555 0.74565
 O1053 O 0.26262 0.26843 0.75150
 O1054 O 0.24295 0.23592 0.72532
 C1055 C 0.15201 0.26667 0.79099
 C1056 C 0.17594 0.19063 0.76240
 C1057 C 0.21885 0.27301 0.82638
 O1058 O 0.22784 0.32375 0.78696
 O1059 O 0.26594 0.31516 0.76343
 O1060 O 0.26682 0.30717 0.72392
 C1061 C 0.27331 0.31996 0.74230
 O1062 O 0.26266 0.20067 0.78334
 Zr1063 Zr 0.26100 0.22950 0.75736
 O1064 O 0.28009 0.26491 0.70871
 O1065 O 0.27611 0.28648 0.79659
 O1066 O 0.29313 0.23743 0.77893
 O1067 O 0.26931 0.19427 0.74112
 O1068 O 0.29278 0.23488 0.73520
 C1069 C 0.29647 0.24932 0.71742
 O1070 O 0.23329 0.30396 0.69576
 O1071 O 0.16840 0.22542 0.71020
 O1072 O 0.23752 0.26076 0.68536
 O1073 O 0.20969 0.22803 0.69064
 O1074 O 0.15020 0.27479 0.72949
 O1075 O 0.18032 0.30830 0.71862
 C1076 C 0.22352 0.24247 0.67773
 H1077 H 0.16552 0.23850 0.75356
 H1078 H 0.22290 0.31387 0.74215
 H1079 H 0.25179 0.22639 0.71265
 H1080 H 0.25001 0.24467 0.79965
 H1081 H 0.16083 0.32446 0.75975
 H1082 H 0.24060 0.33099 0.79794
 H1083 H 0.27735 0.30288 0.80495
 H1084 H 0.30690 0.22526 0.77467
 H1085 H 0.13717 0.28740 0.73453
 H1086 H 0.16711 0.20905 0.70181
 H1087 H 0.20611 0.18341 0.70428
 H1088 H 0.28767 0.19044 0.74397
 H1089 H 0.16420 0.31810 0.72046
 H1090 H 0.24791 0.30571 0.68468
 H1091 H 0.19888 0.20773 0.82060
 H1092 H 0.28010 0.19316 0.78360
 Zr1093 Zr 0.29483 0.76571 0.28638
 O1094 O 0.28315 0.79371 0.31084
 O1095 O 0.33118 0.75616 0.29880
 O1096 O 0.29137 0.75022 0.32072
 O1097 O 0.31343 0.80762 0.24273
 O1098 O 0.26655 0.71519 0.31535
 O1099 O 0.31615 0.79967 0.28218
 O1100 O 0.34352 0.72306 0.27541
 O1101 O 0.29609 0.72642 0.28151
 O1102 O 0.31458 0.75912 0.25484
 O1103 O 0.25642 0.75369 0.28601
 O1104 O 0.27425 0.78572 0.26039
 Zr1105 Zr 0.25626 0.72641 0.22169
 Zr1106 Zr 0.25794 0.71471 0.27928
 Zr1107 Zr 0.29316 0.77705 0.22871
 Zr1108 Zr 0.31467 0.72026 0.24951
 O1109 O 0.27736 0.81150 0.21638
 O1110 O 0.32112 0.68371 0.26368
 O1111 O 0.29494 0.73812 0.22182
 O1112 O 0.27705 0.70675 0.24765
 O1113 O 0.23640 0.73276 0.25326
 O1114 O 0.25504 0.76556 0.22676
 C1115 C 0.34645 0.73815 0.29294
 C1116 C 0.32082 0.81305 0.26364
 C1117 C 0.27973 0.73028 0.32819
 O1118 O 0.27248 0.67882 0.28911
 O1119 O 0.23419 0.68618 0.26552
 O1120 O 0.23354 0.69362 0.22593
 C1121 C 0.22716 0.68094 0.24440
 O1122 O 0.23425 0.80124 0.28416
 Zr1123 Zr 0.23667 0.77178 0.25878
 O1124 O 0.21885 0.73479 0.21067
 O1125 O 0.22313 0.71488 0.29848
 O1126 O 0.20489 0.76376 0.28086
 O1127 O 0.22697 0.80614 0.24168
 O1128 O 0.20487 0.76424 0.23729
 C1129 C 0.20167 0.74933 0.21974
 O1130 O 0.26717 0.69750 0.19783
 O1131 O 0.32931 0.77842 0.21173
 O1132 O 0.26178 0.74029 0.18704
 O1133 O 0.28850 0.77393 0.19217
 O1134 O 0.34902 0.72951 0.23148
 O1135 O 0.31998 0.69510 0.22070
 C1136 C 0.27543 0.75879 0.17931
 H1137 H 0.33237 0.76556 0.25517
 H1138 H 0.27745 0.68839 0.24429
 H1139 H 0.24590 0.77452 0.21396
 H1140 H 0.24788 0.75742 0.30121
 H1141 H 0.33967 0.67986 0.26200
 H1142 H 0.25986 0.67135 0.30012
 H1143 H 0.22232 0.69855 0.30698
 H1144 H 0.19080 0.77548 0.27647
 H1145 H 0.36236 0.71730 0.23662
 H1146 H 0.33002 0.79472 0.20318
 H1147 H 0.29012 0.81895 0.20550
 H1148 H 0.20845 0.80928 0.24446
 H1149 H 0.33633 0.68573 0.22266
 H1150 H 0.25267 0.69510 0.18677
 H1151 H 0.29765 0.79619 0.32188
 H1152 H 0.21675 0.80862 0.28406
 Zr1153 Zr 0.20471 0.76527 0.71518
 O1154 O 0.21566 0.79284 0.69019
 O1155 O 0.16813 0.75581 0.70361
 O1156 O 0.20742 0.74933 0.68092
 O1157 O 0.18710 0.80794 0.75877
 O1158 O 0.23239 0.71412 0.68612
 O1159 O 0.18345 0.79949 0.71947
 O1160 O 0.15663 0.72289 0.72735
 O1161 O 0.20368 0.72607 0.72048
 O1162 O 0.18576 0.75930 0.74717
 O1163 O 0.24314 0.75290 0.71483
 O1164 O 0.22587 0.78548 0.74051
 Zr1165 Zr 0.24502 0.72656 0.77941
 Zr1166 Zr 0.24189 0.71403 0.72200
 Zr1167 Zr 0.20780 0.77739 0.77266
 Zr1168 Zr 0.18592 0.72051 0.75292
 O1169 O 0.22381 0.81190 0.78429
 O1170 O 0.17923 0.68369 0.73955
 O1171 O 0.20631 0.73858 0.77999
 O1172 O 0.22362 0.70670 0.75412
 O1173 O 0.26403 0.73229 0.74735
 O1174 O 0.24601 0.76562 0.77390
 C1175 C 0.15324 0.73779 0.70974
 C1176 C 0.17922 0.81318 0.73797
 C1177 C 0.21891 0.72919 0.67340
 O1178 O 0.22716 0.67816 0.71284
 O1179 O 0.26605 0.68548 0.73556
 O1180 O 0.26769 0.69348 0.77505
 C1181 C 0.27363 0.68049 0.75658
 O1182 O 0.26506 0.80036 0.71574
 Zr1183 Zr 0.26352 0.77123 0.74142
 O1184 O 0.28275 0.73472 0.78939
 O1185 O 0.27623 0.71359 0.70209
 O1186 O 0.29470 0.76274 0.71865
 O1187 O 0.27365 0.80567 0.75803
 O1188 O 0.29595 0.76363 0.76213
 C1189 C 0.29966 0.74892 0.77974
 O1190 O 0.23482 0.69814 0.80386
 O1191 O 0.17209 0.77928 0.79040
 O1192 O 0.24044 0.74108 0.81401
 O1193 O 0.21344 0.77482 0.80912
 O1194 O 0.15186 0.73041 0.77131
 O1195 O 0.18136 0.69602 0.78224
 C1196 C 0.22695 0.75982 0.82185
 H1197 H 0.16795 0.76588 0.74712
 H1198 H 0.22335 0.68839 0.75769
 H1199 H 0.25547 0.77468 0.78638
 H1200 H 0.25129 0.75635 0.69942
 H1201 H 0.16074 0.68004 0.74167
 H1202 H 0.23953 0.67040 0.70166
 H1203 H 0.27685 0.69715 0.69373
 H1204 H 0.30884 0.77446 0.72257
 H1205 H 0.13847 0.71821 0.76654
 H1206 H 0.17153 0.79571 0.79879
 H1207 H 0.21129 0.81962 0.79534
 H1208 H 0.29207 0.80863 0.75474
 H1209 H 0.16493 0.68685 0.78082
 H1210 H 0.24961 0.69579 0.81462
 H1211 H 0.20088 0.79529 0.67944
 H1212 H 0.28250 0.80767 0.71540
 Zr1213 Zr 0.29326 0.23624 0.21383
 O1214 O 0.28216 0.20824 0.18930
 O1215 O 0.32944 0.24610 0.20130
 O1216 O 0.28953 0.25173 0.17954
 O1217 O 0.31244 0.19432 0.25732
 O1218 O 0.26410 0.28660 0.18498
 O1219 O 0.31502 0.20232 0.21788
 O1220 O 0.34101 0.27938 0.22459
 O1221 O 0.29380 0.27552 0.21877
 O1222 O 0.31286 0.24287 0.24532
 O1223 O 0.25465 0.24803 0.21428
 O1224 O 0.27301 0.21604 0.23982
 Zr1225 Zr 0.25385 0.27513 0.27867
 Zr1226 Zr 0.25545 0.28700 0.22109
 Zr1227 Zr 0.29169 0.22477 0.27147
 Zr1228 Zr 0.31222 0.28172 0.25074
 O1229 O 0.27655 0.19017 0.28380
 O1230 O 0.31804 0.31843 0.23683
 O1231 O 0.29275 0.26369 0.27845
 O1232 O 0.27435 0.29498 0.25271
 O1233 O 0.23419 0.26873 0.24712
 O1234 O 0.25336 0.23599 0.27349
 C1235 C 0.34425 0.26433 0.20703
 C1236 C 0.31983 0.18890 0.23637
 C1237 C 0.27756 0.27159 0.17210
 O1238 O 0.26942 0.32297 0.21129
 O1239 O 0.23119 0.31535 0.23501
 O1240 O 0.23059 0.30781 0.27459
 C1241 C 0.22403 0.32050 0.25616
 O1242 O 0.23341 0.20032 0.21605
 Zr1243 Zr 0.23518 0.22973 0.24150
 O1244 O 0.21652 0.26653 0.28966
 O1245 O 0.22066 0.28671 0.20199
 O1246 O 0.20331 0.23757 0.21948
 O1247 O 0.22605 0.19527 0.25854
 O1248 O 0.20320 0.23700 0.26302
 C1249 C 0.19965 0.25190 0.28056
 O1250 O 0.26427 0.30398 0.30262
 O1251 O 0.32784 0.22366 0.28835
 O1252 O 0.25936 0.26105 0.31327
 O1253 O 0.28680 0.22769 0.30802
 O1254 O 0.34679 0.27257 0.26849
 O1255 O 0.31708 0.30672 0.27968
 C1256 C 0.27329 0.24259 0.32093
 H1257 H 0.33076 0.23653 0.24489
 H1258 H 0.27442 0.31334 0.25612
 H1259 H 0.24433 0.22692 0.28626
 H1260 H 0.24619 0.24427 0.19910
 H1261 H 0.33651 0.32238 0.23847
 H1262 H 0.25668 0.33041 0.20034
 H1263 H 0.21959 0.30306 0.19354
 H1264 H 0.18944 0.22571 0.22385
 H1265 H 0.35990 0.28488 0.26332
 H1266 H 0.32887 0.20734 0.29685
 H1267 H 0.28946 0.18278 0.29461
 H1268 H 0.20760 0.19201 0.25576
 H1269 H 0.33333 0.31611 0.27778
 H1270 H 0.24971 0.30626 0.31371
 H1271 H 0.29672 0.20588 0.17822
 H1272 H 0.21606 0.19280 0.21616
 Zr1273 Zr 0.70652 0.73509 0.28516
 O1274 O 0.71816 0.70697 0.30942
 O1275 O 0.67048 0.74508 0.29817
 O1276 O 0.71059 0.75054 0.31946
 O1277 O 0.68662 0.69360 0.24163
 O1278 O 0.73595 0.78515 0.31385
 O1279 O 0.68484 0.70131 0.28118
 O1280 O 0.65845 0.77858 0.27527
 O1281 O 0.70586 0.77440 0.28046
 O1282 O 0.68637 0.74208 0.25401
 O1283 O 0.74511 0.74653 0.28424
 O1284 O 0.72636 0.71486 0.25876
 Zr1285 Zr 0.74480 0.77396 0.22002
 Zr1286 Zr 0.74416 0.78554 0.27766
 Zr1287 Zr 0.70710 0.72394 0.22744
 Zr1288 Zr 0.68687 0.78096 0.24882
 O1289 O 0.72200 0.68922 0.21467
 O1290 O 0.68124 0.81758 0.26320
 O1291 O 0.70591 0.76290 0.22071
 O1292 O 0.72470 0.79387 0.24638
 O1293 O 0.76508 0.76722 0.25121
 O1294 O 0.74535 0.73479 0.22499
 C1295 C 0.65550 0.76342 0.29273
 C1296 C 0.67968 0.68806 0.26265
 C1297 C 0.72261 0.77030 0.32682
 O1298 O 0.73034 0.82162 0.28785
 O1299 O 0.76809 0.81379 0.26364
 O1300 O 0.76819 0.80637 0.22403
 C1301 C 0.77495 0.81897 0.24244
 O1302 O 0.76669 0.69896 0.28217
 Zr1303 Zr 0.76415 0.72819 0.25663
 O1304 O 0.78170 0.76460 0.20812
 O1305 O 0.77922 0.78479 0.29634
 O1306 O 0.79658 0.73611 0.27783
 O1307 O 0.77272 0.69339 0.23970
 O1308 O 0.79545 0.73451 0.23411
 C1309 C 0.79854 0.74926 0.21644
 O1310 O 0.73403 0.80312 0.19647
 O1311 O 0.67068 0.72337 0.21106
 O1312 O 0.73868 0.76017 0.18542
 O1313 O 0.71146 0.72697 0.19086
 O1314 O 0.65208 0.77228 0.23138
 O1315 O 0.68149 0.80626 0.22020
 C1316 C 0.72474 0.74181 0.17786
 H1317 H 0.66849 0.73590 0.25462
 H1318 H 0.72455 0.81224 0.24310
 H1319 H 0.75407 0.72559 0.21204
 H1320 H 0.75382 0.74265 0.29929
 H1321 H 0.66273 0.82171 0.26187
 H1322 H 0.74322 0.82887 0.29871
 H1323 H 0.78040 0.80109 0.30487
 H1324 H 0.81041 0.72418 0.27318
 H1325 H 0.63902 0.78466 0.23684
 H1326 H 0.66950 0.70712 0.20244
 H1327 H 0.70893 0.68206 0.20396
 H1328 H 0.79120 0.68981 0.24219
 H1329 H 0.66530 0.81584 0.22246
 H1330 H 0.74839 0.80527 0.18516
 H1331 H 0.70377 0.70466 0.32066
 H1332 H 0.78418 0.69156 0.28195
 Zr1333 Zr 0.79667 0.26082 0.78437
 O1334 O 0.78733 0.28832 0.81014
 O1335 O 0.83321 0.24943 0.79499
 O1336 O 0.79395 0.24449 0.81842
 O1337 O 0.81440 0.30376 0.74131
 O1338 O 0.76773 0.21048 0.81307
 O1339 O 0.81874 0.29432 0.78034
 O1340 O 0.84331 0.21686 0.77012
 O1341 O 0.79636 0.22172 0.77832
 O1342 O 0.81470 0.25475 0.75191
 O1343 O 0.75786 0.25009 0.78515
 O1344 O 0.77555 0.28237 0.75983
 Zr1345 Zr 0.75376 0.22509 0.72016
 Zr1346 Zr 0.75775 0.21135 0.77729
 Zr1347 Zr 0.79268 0.27424 0.72721
 Zr1348 Zr 0.81318 0.21611 0.74540
 O1349 O 0.77743 0.30953 0.71641
 O1350 O 0.81907 0.17884 0.75809
 O1351 O 0.79279 0.23556 0.71909
 O1352 O 0.77507 0.20390 0.74469
 O1353 O 0.73562 0.23095 0.75266
 O1354 O 0.75411 0.26406 0.72639
 C1355 C 0.84755 0.23115 0.78798
 C1356 C 0.82284 0.30829 0.76207
 C1357 C 0.78185 0.22480 0.82584
 O1358 O 0.77170 0.17481 0.78565
 O1359 O 0.73263 0.18395 0.76365
 O1360 O 0.73028 0.19280 0.72436
 C1361 C 0.72447 0.17963 0.74270
 O1362 O 0.73729 0.29835 0.78555
 Zr1363 Zr 0.73745 0.26973 0.75928
 O1364 O 0.71614 0.23508 0.71097
 O1365 O 0.72374 0.21184 0.79767
 O1366 O 0.70649 0.26201 0.78241
 O1367 O 0.72818 0.30493 0.74353
 O1368 O 0.70437 0.26397 0.73896
 C1369 C 0.69987 0.24978 0.72114
 O1370 O 0.76242 0.19674 0.69498
 O1371 O 0.82811 0.27516 0.70898
 O1372 O 0.75828 0.24001 0.68572
 O1373 O 0.78641 0.27251 0.69083
 O1374 O 0.84695 0.22500 0.72631
 O1375 O 0.81619 0.19191 0.71563
 C1376 C 0.77228 0.25829 0.67802
 H1377 H 0.83269 0.26063 0.75174
 H1378 H 0.77472 0.18566 0.74080
 H1379 H 0.74470 0.27374 0.71422
 H1380 H 0.75011 0.25359 0.80075
 H1381 H 0.83735 0.17443 0.75543
 H1382 H 0.75932 0.16731 0.79688
 H1383 H 0.72279 0.19528 0.80575
 H1384 H 0.69265 0.27438 0.77897
 H1385 H 0.86009 0.21216 0.73045
 H1386 H 0.82898 0.29173 0.70089
 H1387 H 0.78995 0.31697 0.70528
 H1388 H 0.70992 0.30859 0.74715
 H1389 H 0.83236 0.18205 0.71654
 H1390 H 0.74732 0.19528 0.68447
 H1391 H 0.80245 0.28990 0.82061
 H1392 H 0.72010 0.30637 0.78631
 C1393 C 0.46501 1.02745 0.35990
 C1394 C 0.44607 1.04585 0.35629
 C1395 C 0.43361 1.04780 0.33458
 C1396 C 0.43970 1.03117 0.31585
 C1397 C 0.45937 1.01302 0.31977
 C1398 C 0.47177 1.01119 0.34153
 C1399 C 0.47631 1.02471 0.38291
 C1400 C 0.48399 1.02330 0.40289
 H1401 H 0.44047 1.05842 0.37049
 H1402 H 0.41829 1.06156 0.33321
 H1403 H 0.46597 1.00052 0.30594
 H1404 H 0.48653 0.99695 0.34405
 C1405 C -0.03759 0.52355 0.86090
 C1406 C -0.04798 0.50196 0.85059
 C1407 C -0.06042 0.50351 0.82887
 C1408 C -0.06288 0.52684 0.81681
 C1409 C -0.05214 0.54847 0.82759
 C1410 C -0.03967 0.54677 0.84933
 C1411 C -0.02690 0.52226 0.88426
 C1412 C -0.01955 0.52172 0.90438
 H1413 H -0.04702 0.48395 0.85963
 H1414 H -0.06914 0.48641 0.82232
 H1415 H -0.05246 0.56672 0.81906
 H1416 H -0.03183 0.56370 0.85723
 C1417 C 0.03932 -0.02029 0.86390
 C1418 C 0.03592 -0.04239 0.85067
 C1419 C 0.04792 -0.04510 0.82871
 C1420 C 0.06354 -0.02575 0.81973
 C1421 C 0.06681 -0.00364 0.83320
 C1422 C 0.05481 -0.00097 0.85509
 C1423 C 0.02887 -0.01831 0.88737
 C1424 C 0.02177 -0.01726 0.90758
 H1425 H 0.02423 -0.05762 0.85742
 H1426 H 0.04478 -0.06221 0.81868
 H1427 H 0.07900 0.01145 0.82697
 H1428 H 0.05796 0.01602 0.86532
 C1429 C 0.53659 0.47660 0.36205
 C1430 C 0.53328 0.45483 0.34836
 C1431 C 0.54600 0.45230 0.32673
 C1432 C 0.56228 0.47153 0.31854
 C1433 C 0.56542 0.49335 0.33244
 C1434 C 0.55269 0.49583 0.35400
 C1435 C 0.52547 0.47831 0.38527
 C1436 C 0.51789 0.47921 0.40535
 H1437 H 0.52111 0.43967 0.35453
 H1438 H 0.54293 0.43543 0.31634
 H1439 H 0.57809 0.50834 0.32683
 H1440 H 0.55579 0.51257 0.36460
 C1441 C 0.53695 0.52271 0.13940
 C1442 C 0.55304 0.50337 0.14750
 C1443 C 0.56591 0.50593 0.16893
 C1444 C 0.56292 0.52795 0.18264
 C1445 C 0.54672 0.54734 0.17436
 C1446 C 0.53385 0.54473 0.15286
 C1447 C 0.52556 0.52083 0.11634
 C1448 C 0.51770 0.51989 0.09638
 H1449 H 0.55599 0.48644 0.13707
 H1450 H 0.57853 0.49081 0.17460
 H1451 H 0.54377 0.56439 0.18460
 H1452 H 0.52170 0.55999 0.14664
 C1453 C 0.03507 1.02523 0.63958
 C1454 C 0.04608 1.00406 0.65026
 C1455 C 0.05847 1.00630 0.67195
 C1456 C 0.06023 1.02992 0.68363
 C1457 C 0.04884 1.05111 0.67251
 C1458 C 0.03644 1.04873 0.65078
 C1459 C 0.02455 1.02325 0.61619
 C1460 C 0.01741 1.02210 0.59602
 H1461 H 0.04570 0.98586 0.64151
 H1462 H 0.06770 0.98950 0.67876
 H1463 H 0.04862 1.06954 0.68072
 H1464 H 0.02811 1.06534 0.64260
 C1465 C -0.03557 0.47433 0.63860
 C1466 C -0.05202 0.49341 0.64675
 C1467 C -0.06469 0.49076 0.66829
 C1468 C -0.06113 0.46893 0.68209
 C1469 C -0.04453 0.44982 0.67378
 C1470 C -0.03187 0.45251 0.65216
 C1471 C -0.02454 0.47625 0.61538
 C1472 C -0.01711 0.47740 0.59528
 H1473 H -0.05543 0.51017 0.63624
 H1474 H -0.07763 0.50565 0.67398
 H1475 H -0.04117 0.43293 0.68409
 H1476 H -0.01944 0.43745 0.64590
 C1477 C 0.46456 -0.02402 0.13929
 C1478 C 0.44795 -0.00485 0.14698
 C1479 C 0.43499 -0.00718 0.16842
 C1480 C 0.43840 -0.02879 0.18256
 C1481 C 0.45513 -0.04800 0.17470
 C1482 C 0.46809 -0.04562 0.15319
 C1483 C 0.47603 -0.02243 0.11622
 C1484 C 0.48389 -0.02166 0.09624
 H1485 H 0.44468 0.01174 0.13621
 H1486 H 0.42198 0.00779 0.17379
 H1487 H 0.45841 -0.06470 0.18530
 H1488 H 0.48065 -0.06075 0.14729
 C1489 C 0.36883 0.42515 0.01406
 C1490 C 0.37155 0.39949 0.01951
 C1491 C 0.34996 0.38394 0.02091
 C1492 C 0.32514 0.39376 0.01692
 C1493 C 0.32261 0.41947 0.01095
 C1494 C 0.34429 0.43503 0.00957
 C1495 C 0.39122 0.44121 0.01279
 C1496 C 0.40982 0.45475 0.01122
 H1497 H 0.39039 0.39149 0.02279
 H1498 H 0.35267 0.36417 0.02518
 H1499 H 0.30382 0.42769 0.00798
 H1500 H 0.34187 0.45483 0.00521
 C1501 C -0.13018 0.92713 0.51406
 C1502 C -0.12795 0.90384 0.52543
 C1503 C -0.14913 0.88783 0.52733
 C1504 C -0.17341 0.89467 0.51796
 C1505 C -0.17512 0.91815 0.50609
 C1506 C -0.15380 0.93414 0.50428
 C1507 C -0.10810 0.94354 0.51218
 C1508 C -0.08958 0.95713 0.51030
 H1509 H -0.10971 0.89791 0.53274
 H1510 H -0.14588 0.86965 0.53550
 H1511 H -0.19310 0.92495 0.49900
 H1512 H -0.15584 0.95214 0.49538
 C1513 C -0.12829 0.07430 0.99011
 C1514 C -0.12562 0.09953 0.98320
 C1515 C -0.14726 0.11511 0.98083
 C1516 C -0.17206 0.10575 0.98529
 C1517 C -0.17455 0.08048 0.99267
 C1518 C -0.15283 0.06489 0.99502
 C1519 C -0.10586 0.05816 0.99218
 C1520 C -0.08710 0.04472 0.99412
 H1521 H -0.10679 0.10716 0.97951
 H1522 H -0.14457 0.13456 0.97548
 H1523 H -0.19332 0.07259 0.99604
 H1524 H -0.15522 0.04542 1.00045
 C1525 C 0.36917 0.57473 0.48725
 C1526 C 0.37186 0.60019 0.48109
 C1527 C 0.35023 0.61586 0.47916
 C1528 C 0.32541 0.60638 0.48332
 C1529 C 0.32290 0.58085 0.48988
 C1530 C 0.34461 0.56517 0.49179
 C1531 C 0.39161 0.55855 0.48910
 C1532 C 0.41029 0.54498 0.49102
 H1533 H 0.39071 0.60794 0.47772
 H1534 H 0.35295 0.63550 0.47446
 H1535 H 0.30412 0.57286 0.49300
 H1536 H 0.34220 0.54553 0.49665
 C1537 C 0.12973 0.57383 0.51341
 C1538 C 0.12662 0.59919 0.51994
 C1539 C 0.14797 0.61500 0.52192
 C1540 C 0.17294 0.60575 0.51745
 C1541 C 0.17586 0.58033 0.51053
 C1542 C 0.15443 0.56452 0.50857
 C1543 C 0.10757 0.55753 0.51150
 C1544 C 0.08908 0.54391 0.50955
 H1545 H 0.10766 0.60676 0.52355
 H1546 H 0.14492 0.63455 0.52690
 H1547 H 0.19476 0.57252 0.50717
 H1548 H 0.15717 0.54496 0.50343
 C1549 C 0.63103 0.07463 0.01313
 C1550 C 0.62800 0.10026 0.01865
 C1551 C 0.64944 0.11600 0.02019
 C1552 C 0.67437 0.10640 0.01630
 C1553 C 0.67722 0.08074 0.01025
 C1554 C 0.65571 0.06498 0.00872
 C1555 C 0.60884 0.05834 0.01183
 C1556 C 0.59041 0.04460 0.01029
 H1557 H 0.60907 0.10808 0.02189
 H1558 H 0.64650 0.13574 0.02454
 H1559 H 0.69610 0.07269 0.00735
 H1560 H 0.65835 0.04521 0.00433
 C1561 C 0.63175 0.92619 0.48482
 C1562 C 0.65622 0.93582 0.48960
 C1563 C 0.67800 0.92017 0.48795
 C1564 C 0.67564 0.89462 0.48141
 C1565 C 0.65091 0.88506 0.47701
 C1566 C 0.62921 0.90070 0.47869
 C1567 C 0.60925 0.94233 0.48647
 C1568 C 0.59057 0.95593 0.48829
 H1569 H 0.65851 0.95548 0.49446
 H1570 H 0.69670 0.92821 0.49124
 H1571 H 0.64830 0.86540 0.47233
 H1572 H 0.61044 0.89289 0.47515
 C1573 C 0.12840 0.42654 0.98709
 C1574 C 0.15289 0.43600 0.99206
 C1575 C 0.17462 0.42031 0.99024
 C1576 C 0.17219 0.39487 0.98333
 C1577 C 0.14743 0.38546 0.97880
 C1578 C 0.12578 0.40115 0.98065
 C1579 C 0.10597 0.44278 0.98875
 C1580 C 0.08733 0.45644 0.99049
 H1581 H 0.15524 0.45559 0.99715
 H1582 H 0.19335 0.42824 0.99364
 H1583 H 0.14477 0.36589 0.97382
 H1584 H 0.10700 0.39346 0.97695
 C1585 C 0.02402 0.35039 0.41149
 C1586 C 0.01447 0.32611 0.41511
 C1587 C 0.01461 0.30877 0.39666
 C1588 C 0.02418 0.31570 0.37443
 C1589 C 0.03389 0.34011 0.37102
 C1590 C 0.03374 0.35742 0.38951
 C1591 C 0.02187 0.36891 0.42961
 C1592 C 0.01908 0.38563 0.44360
 H1593 H 0.00672 0.32068 0.43206
 H1594 H 0.00753 0.28987 0.39982
 H1595 H 0.04131 0.34582 0.35403
 H1596 H 0.04083 0.37638 0.38657
 C1597 C 0.53479 -0.15397 -0.08198
 C1598 C 0.52602 -0.17842 -0.07770
 C1599 C 0.52568 -0.19602 -0.09594
 C1600 C 0.53393 -0.18915 -0.11862
 C1601 C 0.54348 -0.16477 -0.12255
 C1602 C 0.54384 -0.14722 -0.10428
 C1603 C 0.53155 -0.13483 -0.06456
 C1604 C 0.52759 -0.11763 -0.05134
 H1605 H 0.51878 -0.18365 -0.06050
 H1606 H 0.51871 -0.21489 -0.09241
 H1607 H 0.54982 -0.15905 -0.13991
 H1608 H 0.55030 -0.12814 -0.10773
 C1609 C -0.01723 -0.14933 1.08794
 C1610 C -0.03876 -0.16488 1.08794
 C1611 C -0.04213 -0.18230 1.10601
 C1612 C -0.02402 -0.18416 1.12426
 C1613 C -0.00246 -0.16839 1.12412
 C1614 C 0.00087 -0.15098 1.10601
 C1615 C -0.01436 -0.13047 1.07028
 C1616 C -0.01157 -0.11344 1.05670
 H1617 H -0.05291 -0.16350 1.07405
 H1618 H -0.05864 -0.19462 1.10551
 H1619 H 0.01167 -0.16948 1.13802
 H1620 H 0.01743 -0.13869 1.10619
 C1621 C 0.47563 0.34903 0.58619
 C1622 C 0.45468 0.33272 0.58632
 C1623 C 0.45234 0.31487 0.60419
 C1624 C 0.47092 0.31333 0.62207
 C1625 C 0.49184 0.32989 0.62180
 C1626 C 0.49415 0.34770 0.60393
 C1627 C 0.47781 0.36806 0.56859
 C1628 C 0.48052 0.38515 0.55505
 H1629 H 0.44024 0.33380 0.57267
 H1630 H 0.43628 0.30197 0.60381
 H1631 H 0.50630 0.32910 0.63546
 H1632 H 0.51029 0.36053 0.60399
 C1633 C 0.53137 1.15176 0.58431
 C1634 C 0.54169 1.14485 0.60610
 C1635 C 0.54168 1.16214 0.62462
 C1636 C 0.53115 1.18636 0.62145
 C1637 C 0.52143 1.19332 0.59930
 C1638 C 0.52147 1.17603 0.58082
 C1639 C 0.52835 1.13302 0.56652
 C1640 C 0.52464 1.11624 0.55282
 H1641 H 0.54907 1.12591 0.60894
 H1642 H 0.54923 1.15640 0.64155
 H1643 H 0.51371 1.21209 0.59633
 H1644 H 0.51326 1.18137 0.56403
 C1645 C 0.02718 0.65347 1.08403
 C1646 C 0.04334 0.64868 1.10307
 C1647 C 0.04413 0.66552 1.12192
 C1648 C 0.02854 0.68744 1.12207
 C1649 C 0.01257 0.69203 1.10240
 C1650 C 0.01191 0.67514 1.08362
 C1651 C 0.02408 0.63468 1.06630
 C1652 C 0.02044 0.61775 1.05276
 H1653 H 0.05479 0.63152 1.10368
 H1654 H 0.05609 0.66054 1.13676
 H1655 H 0.00111 0.70904 1.10088
 H1656 H -0.00077 0.67884 1.06892
 C1657 C 0.46776 0.65401 -0.07957
 C1658 C 0.45256 0.64973 -0.09933
 C1659 C 0.45215 0.66724 -0.11760
 C1660 C 0.46719 0.68935 -0.11645
 C1661 C 0.48184 0.69361 -0.09590
 C1662 C 0.48214 0.67602 -0.07770
 C1663 C 0.47103 0.63433 -0.06274
 C1664 C 0.47478 0.61671 -0.05000
 H1665 H 0.44177 0.63237 -0.10104
 H1666 H 0.44120 0.66249 -0.13311
 H1667 H 0.49273 0.71074 -0.09342
 H1668 H 0.49403 0.67936 -0.06239
 C1669 C -0.02263 1.15044 0.41349
 C1670 C -0.03832 1.14536 0.39423
 C1671 C -0.03979 1.16248 0.37570
 C1672 C -0.02549 1.18508 0.37613
 C1673 C -0.00947 1.18966 0.39574
 C1674 C -0.00811 1.17245 0.41423
 C1675 C -0.01992 1.13188 0.43147
 C1676 C -0.01708 1.11503 0.44526
 H1677 H -0.04911 1.12793 0.39333
 H1678 H -0.05150 1.15740 0.36074
 H1679 H 0.00122 1.20701 0.39756
 H1680 H 0.00426 1.17632 0.42909
 C1681 C 0.77246 0.71568 0.88769
 C1682 C 0.75075 0.70543 0.89836
 C1683 C 0.75263 0.69348 0.92022
 C1684 C 0.77644 0.69140 0.93211
 C1685 C 0.79821 0.70197 0.92098
 C1686 C 0.79617 0.71393 0.89907
 C1687 C 0.77081 0.72584 0.86418
 C1688 C 0.76998 0.73273 0.84393
 H1689 H 0.73237 0.70610 0.88949
 H1690 H 0.73540 0.68484 0.92701
 H1691 H 0.81683 0.70187 0.92931
 H1692 H 0.81321 0.72165 0.89090
 C1693 C 0.27815 0.21913 0.38899
 C1694 C 0.26142 0.22566 0.40724
 C1695 C 0.26332 0.21363 0.42911
 C1696 C 0.28200 0.19454 0.43326
 C1697 C 0.29910 0.18869 0.41463
 C1698 C 0.29710 0.20079 0.39284
 C1699 C 0.27525 0.22989 0.36581
 C1700 C 0.27367 0.23705 0.34569
 H1701 H 0.24674 0.23994 0.40454
 H1702 H 0.25042 0.22001 0.44282
 H1703 H 0.31327 0.17380 0.41615
 H1704 H 0.31001 0.19534 0.37873
 C1705 C 0.72207 0.28009 0.39033
 C1706 C 0.74195 0.29600 0.39747
 C1707 C 0.74026 0.30903 0.41883
 C1708 C 0.71860 0.30641 0.43346
 C1709 C 0.69872 0.29029 0.42620
 C1710 C 0.70044 0.27727 0.40476
 C1711 C 0.72296 0.26875 0.36723
 C1712 C 0.72343 0.26118 0.34718
 H1713 H 0.75857 0.29871 0.38630
 H1714 H 0.75574 0.32155 0.42371
 H1715 H 0.68195 0.28761 0.43718
 H1716 H 0.68477 0.26525 0.39930
 C1717 C 0.22366 0.78348 0.89002
 C1718 C 0.23972 0.77554 0.90823
 C1719 C 0.23846 0.78734 0.93027
 C1720 C 0.22114 0.80760 0.93465
 C1721 C 0.20463 0.81487 0.91608
 C1722 C 0.20599 0.80300 0.89410
 C1723 C 0.22594 0.77275 0.86674
 C1724 C 0.22707 0.76553 0.84659
 H1725 H 0.25336 0.76032 0.90537
 H1726 H 0.25075 0.77988 0.94392
 H1727 H 0.19149 0.83064 0.91782
 H1728 H 0.19359 0.80950 0.88004
 C1729 C 0.28104 0.78109 0.11097
 C1730 C 0.29995 0.79922 0.10694
 C1731 C 0.30217 0.81089 0.08497
 C1732 C 0.28530 0.80481 0.06635
 C1733 C 0.26669 0.78589 0.07067
 C1734 C 0.26458 0.77429 0.09272
 C1735 C 0.27788 0.77080 0.13429
 C1736 C 0.27606 0.76401 0.15451
 H1737 H 0.31267 0.80486 0.12105
 H1738 H 0.31628 0.82567 0.08330
 H1739 H 0.25398 0.77935 0.05698
 H1740 H 0.24994 0.76015 0.09555
 C1741 C 0.77682 0.28320 0.61044
 C1742 C 0.76560 0.27242 0.59050
 C1743 C 0.76797 0.28426 0.56857
 C1744 C 0.78155 0.30712 0.56629
 C1745 C 0.79315 0.31752 0.58638
 C1746 C 0.79077 0.30565 0.60825
 C1747 C 0.77376 0.27195 0.63339
 C1748 C 0.77222 0.26436 0.65338
 H1749 H 0.75485 0.25502 0.59192
 H1750 H 0.75913 0.27556 0.55338
 H1751 H 0.80344 0.33520 0.58532
 H1752 H 0.79950 0.31422 0.62358
 C1753 C 0.22244 0.21784 0.60978
 C1754 C 0.20026 0.21985 0.59600
 C1755 C 0.19874 0.20718 0.57437
 C1756 C 0.21940 0.19226 0.56627
 C1757 C 0.24159 0.19041 0.58029
 C1758 C 0.24306 0.20309 0.60183
 C1759 C 0.22332 0.22892 0.63299
 C1760 C 0.22379 0.23641 0.65306
 H1761 H 0.18403 0.23096 0.60209
 H1762 H 0.18152 0.20922 0.56391
 H1763 H 0.25767 0.17878 0.57478
 H1764 H 0.26015 0.20100 0.61250
 C1765 C 0.71964 0.71761 0.11009
 C1766 C 0.70540 0.69537 0.10782
 C1767 C 0.70330 0.68337 0.08599
 C1768 C 0.71548 0.69342 0.06601
 C1769 C 0.72944 0.71603 0.06836
 C1770 C 0.73154 0.72802 0.09027
 C1771 C 0.72257 0.72882 0.13307
 C1772 C 0.72420 0.73619 0.15312
 H1773 H 0.69621 0.68705 0.12306
 H1774 H 0.69271 0.66586 0.08488
 H1775 H 0.73875 0.72446 0.05326
 H1776 H 0.74260 0.74521 0.09178
 C1777 C 0.18244 0.61784 0.23704
 C1778 C 0.17909 0.60674 0.21491
 C1779 C 0.16350 0.58546 0.21237
 C1780 C 0.15085 0.57486 0.23194
 C1781 C 0.15478 0.58576 0.25424
 C1782 C 0.17041 0.60713 0.25674
 C1783 C 0.19808 0.64026 0.23939
 C1784 C 0.21123 0.65894 0.24139
 H1785 H 0.18838 0.61464 0.19953
 H1786 H 0.16126 0.57731 0.19501
 H1787 H 0.14521 0.57822 0.26961
 H1788 H 0.17287 0.61547 0.27400
 C1789 C 0.67779 0.11780 0.73676
 C1790 C 0.68760 0.09356 0.74138
 C1791 C 0.67176 0.07228 0.73964
 C1792 C 0.64583 0.07491 0.73315
 C1793 C 0.63606 0.09941 0.72906
 C1794 C 0.65189 0.12062 0.73082
 C1795 C 0.69417 0.13977 0.73821
 C1796 C 0.70788 0.15810 0.73980
 H1797 H 0.70759 0.09108 0.74610
 H1798 H 0.67996 0.05373 0.74270
 H1799 H 0.61611 0.10218 0.72438
 H1800 H 0.64394 0.13922 0.72740
 C1801 C 0.81885 0.11470 0.26464
 C1802 C 0.81207 0.09142 0.25476
 C1803 C 0.82840 0.07032 0.25684
 C1804 C 0.85200 0.07192 0.26908
 C1805 C 0.85858 0.09584 0.27857
 C1806 C 0.84224 0.11679 0.27640
 C1807 C 0.80209 0.13656 0.26253
 C1808 C 0.78828 0.15495 0.26058
 H1809 H 0.79400 0.08947 0.24557
 H1810 H 0.82175 0.05263 0.24964
 H1811 H 0.87684 0.09899 0.28704
 H1812 H 0.84801 0.13476 0.28381
 C1813 C 0.31992 0.61788 0.76316
 C1814 C 0.31281 0.59477 0.75314
 C1815 C 0.32878 0.57341 0.75524
 C1816 C 0.35227 0.57459 0.76767
 C1817 C 0.35926 0.59838 0.77717
 C1818 C 0.34330 0.61960 0.77498
 C1819 C 0.30346 0.63995 0.76122
 C1820 C 0.28986 0.65850 0.75944
 H1821 H 0.29475 0.59314 0.74389
 H1822 H 0.32189 0.55583 0.74797
 H1823 H 0.37752 0.60119 0.78574
 H1824 H 0.34931 0.63745 0.78247
 C1825 C 0.31983 0.38198 0.73624
 C1826 C 0.31006 0.40621 0.74109
 C1827 C 0.32598 0.42748 0.73958
 C1828 C 0.35195 0.42486 0.73311
 C1829 C 0.36165 0.40037 0.72871
 C1830 C 0.34575 0.37918 0.73024
 C1831 C 0.30344 0.35998 0.73766
 C1832 C 0.28979 0.34159 0.73928
 H1833 H 0.29007 0.40869 0.74586
 H1834 H 0.31782 0.44601 0.74288
 H1835 H 0.38162 0.39758 0.72405
 H1836 H 0.35368 0.36060 0.72666
 C1837 C 0.82129 0.88113 0.23580
 C1838 C 0.84506 0.87917 0.22455
 C1839 C 0.86111 0.90020 0.22274
 C1840 C 0.85383 0.92409 0.23207
 C1841 C 0.82989 0.92554 0.24386
 C1842 C 0.81386 0.90436 0.24558
 C1843 C 0.80483 0.85918 0.23757
 C1844 C 0.79123 0.84076 0.23936
 H1845 H 0.85134 0.86123 0.21725
 H1846 H 0.87967 0.89718 0.21465
 H1847 H 0.82275 0.94320 0.25095
 H1848 H 0.79550 0.90620 0.25441
 C1849 C 0.67779 0.88008 0.75993
 C1850 C 0.65208 0.87767 0.76667
 C1851 C 0.63636 0.89910 0.76872
 C1852 C 0.64605 0.92343 0.76411
 C1853 C 0.67178 0.92564 0.75685
 C1854 C 0.68752 0.90413 0.75482
 C1855 C 0.69408 0.85786 0.75824
 C1856 C 0.70766 0.83929 0.75657
 H1857 H 0.64420 0.85921 0.77049
 H1858 H 0.61655 0.89663 0.77398
 H1859 H 0.67992 0.94405 0.75338
 H1860 H 0.70736 0.90630 0.74951
 C1861 C 0.17757 0.38304 0.26259
 C1862 C 0.18731 0.40716 0.25779
 C1863 C 0.17141 0.42859 0.25948
 C1864 C 0.14547 0.42624 0.26608
 C1865 C 0.13581 0.40186 0.27050
 C1866 C 0.15171 0.38050 0.26879
 C1867 C 0.19397 0.36088 0.26094
 C1868 C 0.20762 0.34236 0.25918
 H1869 H 0.20726 0.40943 0.25290
 H1870 H 0.17955 0.44703 0.25619
 H1871 H 0.11587 0.39927 0.27525
 H1872 H 0.14381 0.36200 0.27236
 C1873 C 0.09620 0.27665 0.83927
 C1874 C 0.07920 0.29712 0.84000
 C1875 C 0.06196 0.29942 0.85867
 C1876 C 0.06170 0.28125 0.87674
 C1877 C 0.07914 0.26096 0.87599
 C1878 C 0.09634 0.25871 0.85733
 C1879 C 0.11429 0.27421 0.82054
 C1880 C 0.13073 0.27125 0.80604
 H1881 H 0.07916 0.31113 0.82611
 H1882 H 0.04837 0.31498 0.85865
 H1883 H 0.07933 0.24683 0.88977
 H1884 H 0.10972 0.24296 0.85694
 C1885 C 0.60082 0.77364 0.34211
 C1886 C 0.60120 0.75621 0.36059
 C1887 C 0.58412 0.75891 0.37932
 C1888 C 0.56660 0.77914 0.37968
 C1889 C 0.56670 0.79683 0.36121
 C1890 C 0.58379 0.79408 0.34249
 C1891 C 0.61858 0.77075 0.32318
 C1892 C 0.63465 0.76774 0.30835
 H1893 H 0.61460 0.74048 0.36045
 H1894 H 0.58440 0.74512 0.39339
 H1895 H 0.55302 0.81232 0.36087
 H1896 H 0.58356 0.80770 0.32827
 C1897 C 0.59720 0.22444 0.15968
 C1898 C 0.59774 0.24179 0.14114
 C1899 C 0.58070 0.23934 0.12245
 C1900 C 0.56303 0.21942 0.12215
 C1901 C 0.56295 0.20179 0.14067
 C1902 C 0.58002 0.20430 0.15937
 C1903 C 0.61503 0.22708 0.17851
 C1904 C 0.63121 0.22995 0.19319
 H1905 H 0.61127 0.25728 0.14120
 H1906 H 0.58116 0.25306 0.10832
 H1907 H 0.54918 0.18654 0.14104
 H1908 H 0.57966 0.19072 0.17362
 C1909 C 0.09901 0.72741 0.66046
 C1910 C 0.08257 0.70671 0.65941
 C1911 C 0.06633 0.70387 0.64015
 C1912 C 0.06653 0.72171 0.62180
 C1913 C 0.08349 0.74218 0.62283
 C1914 C 0.09970 0.74497 0.64209
 C1915 C 0.11623 0.73027 0.67972
 C1916 C 0.13217 0.73336 0.69455
 H1917 H 0.08216 0.69294 0.67350
 H1918 H 0.05305 0.68819 0.63996
 H1919 H 0.08398 0.75609 0.60887
 H1920 H 0.11271 0.76086 0.64271
 C1921 C 0.90310 0.77103 0.66156
 C1922 C 0.90773 0.75073 0.64642
 C1923 C 0.92465 0.75338 0.62763
 C1924 C 0.93735 0.77650 0.62364
 C1925 C 0.93191 0.79700 0.63892
 C1926 C 0.91495 0.79420 0.65771
 C1927 C 0.88463 0.76834 0.67990
 C1928 C 0.86780 0.76538 0.69398
 H1929 H 0.89799 0.73289 0.64899
 H1930 H 0.92708 0.73739 0.61594
 H1931 H 0.94162 0.81493 0.63733
 H1932 H 0.91118 0.81008 0.66930
 C1933 C 0.39917 0.27454 0.15796
 C1934 C 0.41634 0.29469 0.15772
 C1935 C 0.43359 0.29716 0.13909
 C1936 C 0.43369 0.27946 0.12059
 C1937 C 0.41596 0.25960 0.12076
 C1938 C 0.39874 0.25719 0.13938
 C1939 C 0.38135 0.27177 0.17685
 C1940 C 0.36521 0.26872 0.19159
 H1941 H 0.41660 0.30827 0.17201
 H1942 H 0.44739 0.31237 0.13955
 H1943 H 0.41566 0.24583 0.10665
 H1944 H 0.38523 0.24170 0.13939
 C1945 C 0.40202 0.72845 0.34133
 C1946 C 0.41888 0.70786 0.34166
 C1947 C 0.43600 0.70506 0.36028
 C1948 C 0.43628 0.72283 0.37871
 C1949 C 0.41898 0.74324 0.37837
 C1950 C 0.40188 0.74600 0.35975
 C1951 C 0.38399 0.73123 0.32267
 C1952 C 0.36763 0.73410 0.30815
 H1953 H 0.41890 0.69413 0.32750
 H1954 H 0.44950 0.68942 0.35994
 H1955 H 0.41883 0.75709 0.39243
 H1956 H 0.38859 0.76182 0.35967
 C1957 C 0.90436 0.21878 0.83448
 C1958 C 0.89666 0.20786 0.85575
 C1959 C 0.91323 0.20783 0.87496
 C1960 C 0.93753 0.21891 0.87300
 C1961 C 0.94537 0.22915 0.85133
 C1962 C 0.92878 0.22916 0.83216
 C1963 C 0.88601 0.22200 0.81615
 C1964 C 0.86924 0.22577 0.80221
 H1965 H 0.87758 0.20011 0.85770
 H1966 H 0.90682 0.19988 0.89150
 H1967 H 0.96425 0.23731 0.84928
 H1968 H 0.93472 0.23784 0.81578
 C1969 C 0.55123 1.03113 0.64275
 C1970 C 0.55760 1.05382 0.65379
 C1971 C 0.57185 1.05369 0.67464
 C1972 C 0.58041 1.03076 0.68496
 C1973 C 0.57276 1.00796 0.67403
 C1974 C 0.55852 1.00822 0.65313
 C1975 C 0.53947 1.03135 0.61973
 C1976 C 0.53124 1.03098 0.59984
 H1977 H 0.55197 1.07172 0.64605
 H1978 H 0.57568 1.07180 0.68269
 H1979 H 0.57901 0.98977 0.68055
 H1980 H 0.55395 0.99047 0.64461
 C1981 C 0.05288 0.53533 1.14193
 C1982 C 0.04250 0.52599 1.16297
 C1983 C 0.05751 0.52514 1.18348
 C1984 C 0.08311 0.53357 1.18317
 C1985 C 0.09327 0.54273 1.16186
 C1986 C 0.07830 0.54364 1.14153
 C1987 C 0.03862 0.53488 1.12013
 C1988 C 0.02900 0.53390 1.10079
 H1989 H 0.02294 0.51922 1.16349
 H1990 H 0.04903 0.51814 1.19960
 H1991 H 0.11302 0.54887 1.16078
 H1992 H 0.08674 0.55050 1.12532
 C1993 C -0.04653 -0.03113 1.14690
 C1994 C -0.05399 -0.00852 1.15780
 C1995 C -0.06938 -0.00880 1.17807
 C1996 C -0.07805 -0.03185 1.18783
 C1997 C -0.06932 -0.05452 1.17705
 C1998 C -0.05391 -0.05411 1.15684
 C1999 C -0.03377 -0.03063 1.12427
 C2000 C -0.02494 -0.02956 1.10458
 H2001 H -0.04870 0.00946 1.15013
 H2002 H -0.07569 0.00925 1.18495
 H2003 H -0.07396 -0.07285 1.18426
 H2004 H -0.04823 -0.07179 1.14866
 C2005 C 0.44923 0.46963 0.64497
 C2006 C 0.44194 0.49237 0.65573
 C2007 C 0.42712 0.49231 0.67635
 C2008 C 0.41887 0.46937 0.68662
 C2009 C 0.42740 0.44658 0.67591
 C2010 C 0.44223 0.44677 0.65535
 C2011 C 0.46157 0.46981 0.62214
 C2012 C 0.47020 0.47051 0.60236
 H2013 H 0.44696 0.51025 0.64772
 H2014 H 0.42092 0.51043 0.68317
 H2015 H 0.42309 0.42834 0.68346
 H2016 H 0.44782 0.42900 0.64730
 C2017 C 0.44687 0.53018 -0.14268
 C2018 C 0.43508 0.50791 -0.15041
 C2019 C 0.42105 0.50763 -0.17141
 C2020 C 0.41845 0.52971 -0.18500
 C2021 C 0.43114 0.55177 -0.17750
 C2022 C 0.44514 0.55201 -0.15649
 C2023 C 0.45870 0.53099 -0.11968
 C2024 C 0.46705 0.53087 -0.09983
 H2025 H 0.43607 0.49092 -0.13981
 H2026 H 0.41135 0.49043 -0.17650
 H2027 H 0.42986 0.56900 -0.18771
 H2028 H 0.45406 0.56939 -0.15073
 C2029 C -0.04929 1.02885 0.35618
 C2030 C -0.06054 1.00636 0.34834
 C2031 C -0.07537 1.00607 0.32780
 C2032 C -0.07932 1.02836 0.31477
 C2033 C -0.06720 1.05069 0.32236
 C2034 C -0.05241 1.05094 0.34293
 C2035 C -0.03684 1.02957 0.37892
 C2036 C -0.02821 1.02935 0.39868
 H2037 H -0.05854 0.98917 0.35854
 H2038 H -0.08459 0.98863 0.32267
 H2039 H -0.06950 1.06810 0.31257
 H2040 H -0.04397 1.06851 0.34880
 C2041 C 0.04870 0.47172 0.35492
 C2042 C 0.05081 0.44973 0.34133
 C2043 C 0.06522 0.44978 0.32047
 C2044 C 0.07793 0.47181 0.31295
 C2045 C 0.07496 0.49404 0.32634
 C2046 C 0.06052 0.49395 0.34716
 C2047 C 0.03662 0.47111 0.37786
 C2048 C 0.02824 0.47134 0.39773
 H2049 H 0.04190 0.43236 0.34714
 H2050 H 0.06675 0.43244 0.31042
 H2051 H 0.08468 0.51123 0.32126
 H2052 H 0.05928 0.51105 0.35761
 C2053 C 0.55328 -0.03166 -0.14343
 C2054 C 0.55474 -0.05344 -0.15738
 C2055 C 0.56842 -0.05315 -0.17862
 C2056 C 0.58105 -0.03109 -0.18620
 C2057 C 0.57878 -0.00908 -0.17242
 C2058 C 0.56506 -0.00941 -0.15120
 C2059 C 0.54164 -0.03247 -0.12032
 C2060 C 0.53342 -0.03232 -0.10040
 H2061 H 0.54581 -0.07081 -0.15159
 H2062 H 0.56943 -0.07032 -0.18897
 H2063 H 0.58846 0.00811 -0.17755
 H2064 H 0.56428 0.00754 -0.14049
 C2065 C 0.62208 0.61612 -0.00699
 C2066 C 0.62673 0.62172 0.01665
 C2067 C 0.64872 0.63487 0.02333
 C2068 C 0.66695 0.64292 0.00646
 C2069 C 0.66171 0.63735 -0.01750
 C2070 C 0.63957 0.62408 -0.02409
 C2071 C 0.59980 0.60120 -0.01287
 C2072 C 0.58098 0.58808 -0.01484
 H2073 H 0.61352 0.61539 0.03014
 H2074 H 0.65176 0.63737 0.04199
 H2075 H 0.67415 0.64372 -0.03149
 H2076 H 0.63620 0.61998 -0.04250
 C2077 C 0.12778 1.11200 0.49283
 C2078 C 0.13613 1.11198 0.51626
 C2079 C 0.15766 1.12585 0.52296
 C2080 C 0.17138 1.14013 0.50634
 C2081 C 0.16289 1.14012 0.48277
 C2082 C 0.14121 1.12618 0.47608
 C2083 C 0.10528 1.09745 0.48677
 C2084 C 0.08622 1.08468 0.48461
 H2085 H 0.12598 1.10108 0.52942
 H2086 H 0.16385 1.12499 0.54112
 H2087 H 0.17285 1.15107 0.46956
 H2088 H 0.13495 1.12649 0.45792
 C2089 C 0.13223 -0.10991 1.00880
 C2090 C 0.14577 -0.12440 1.02529
 C2091 C 0.16717 -0.13880 1.01820
 C2092 C 0.17526 -0.13895 0.99447
 C2093 C 0.16143 -0.12435 0.97812
 C2094 C 0.14017 -0.11002 0.98523
 C2095 C 0.10995 -0.09496 1.01528
 C2096 C 0.09099 -0.08191 1.01777
 H2097 H 0.13981 -0.12462 1.04356
 H2098 H 0.17722 -0.15000 1.03121
 H2099 H 0.16731 -0.12364 0.95985
 H2100 H 0.12991 -0.09890 0.97226
 C2101 C 0.62526 0.38474 0.50766
 C2102 C 0.64290 0.37640 0.52447
 C2103 C 0.66487 0.36282 0.51752
 C2104 C 0.66985 0.35731 0.49346
 C2105 C 0.65142 0.36563 0.47688
 C2106 C 0.62957 0.37911 0.48393
 C2107 C 0.60313 0.39997 0.51394
 C2108 C 0.58433 0.41328 0.51626
 H2109 H 0.63976 0.38046 0.54294
 H2110 H 0.67743 0.35618 0.53132
 H2111 H 0.65420 0.36310 0.45818
 H2112 H 0.61621 0.38567 0.47065
 C2113 C -0.12663 0.38701 0.49252
 C2114 C -0.13453 0.38668 0.51610
 C2115 C -0.15616 0.37302 0.52296
 C2116 C -0.17043 0.35930 0.50635
 C2117 C -0.16235 0.35962 0.48262
 C2118 C -0.14058 0.37336 0.47577
 C2119 C -0.10415 0.40151 0.48627
 C2120 C -0.08511 0.41430 0.48401
 H2121 H -0.12399 0.39718 0.52927
 H2122 H -0.16201 0.37362 0.54125
 H2123 H -0.17272 0.34908 0.46940
 H2124 H -0.13468 0.37334 0.45748
 C2125 C 0.37897 -0.11767 -0.00622
 C2126 C 0.37106 -0.11808 0.01735
 C2127 C 0.34910 -0.13130 0.02405
 C2128 C 0.33453 -0.14450 0.00730
 C2129 C 0.34265 -0.14413 -0.01641
 C2130 C 0.36473 -0.13081 -0.02312
 C2131 C 0.40155 -0.10328 -0.01234
 C2132 C 0.42052 -0.09040 -0.01449
 H2133 H 0.38180 -0.10792 0.03061
 H2134 H 0.34324 -0.13073 0.04234
 H2135 H 0.33202 -0.15427 -0.02974
 H2136 H 0.37061 -0.13070 -0.04141
 C2137 C 0.37607 1.11664 0.50578
 C2138 C 0.36828 1.11697 0.48220
 C2139 C 0.34619 1.13014 0.47543
 C2140 C 0.33134 1.14335 0.49213
 C2141 C 0.33933 1.14307 0.51586
 C2142 C 0.36156 1.12981 0.52262
 C2143 C 0.39886 1.10238 0.51196
 C2144 C 0.41806 1.08962 0.51414
 H2145 H 0.37924 1.10679 0.46897
 H2146 H 0.34045 1.12952 0.45714
 H2147 H 0.32850 1.15323 0.52915
 H2148 H 0.36734 1.12978 0.54092
 C2149 C -0.12798 0.61642 1.00604
 C2150 C -0.13636 0.61556 0.98264
 C2151 C -0.15848 0.62861 0.97570
 C2152 C -0.17276 0.64289 0.99206
 C2153 C -0.16419 0.64378 1.01559
 C2154 C -0.14194 0.63065 1.02252
 C2155 C -0.10510 0.60236 1.01240
 C2156 C -0.08583 0.58972 1.01477
 H2157 H -0.12583 0.60457 0.96968
 H2158 H -0.16470 0.62704 0.95760
 H2159 H -0.17460 0.65475 1.02861
 H2160 H -0.13570 0.63156 1.04067
 C2161 C -0.00185 0.62079 0.55638
 C2162 C 0.00472 0.62494 0.57986
 C2163 C 0.01080 0.64920 0.58737
 C2164 C 0.01049 0.66945 0.57138
 C2165 C 0.00285 0.66531 0.54803
 C2166 C -0.00320 0.64097 0.54053
 C2167 C -0.00438 0.59555 0.54800
 C2168 C -0.00505 0.57446 0.54041
 H2169 H 0.00589 0.60934 0.59216
 H2170 H 0.01614 0.65211 0.60559
 H2171 H 0.00251 0.68069 0.53547
 H2172 H -0.00806 0.63775 0.52224
 C2173 C 0.49425 0.11980 0.05556
 C2174 C 0.49958 0.12365 0.07936
 C2175 C 0.50519 0.14783 0.08743
 C2176 C 0.50563 0.16828 0.07169
 C2177 C 0.49902 0.16448 0.04802
 C2178 C 0.49346 0.14022 0.03996
 C2179 C 0.49283 0.09464 0.04672
 C2180 C 0.49329 0.07355 0.03909
 H2181 H 0.50034 0.10786 0.09147
 H2182 H 0.50979 0.15047 0.10585
 H2183 H 0.49931 0.18002 0.03563
 H2184 H 0.48958 0.13724 0.02143
 C2185 C -0.00439 0.12591 0.95309
 C2186 C 0.01556 0.14131 0.94526
 C2187 C 0.01007 0.16551 0.93690
 C2188 C -0.01543 0.17427 0.93631
 C2189 C -0.03518 0.15898 0.94502
 C2190 C -0.02966 0.13487 0.95340
 C2191 C 0.00061 0.10055 0.96021
 C2192 C 0.00340 0.07914 0.96652
 H2193 H 0.03516 0.13440 0.94504
 H2194 H 0.02552 0.17689 0.92995
 H2195 H -0.05492 0.16548 0.94480
 H2196 H -0.04514 0.12300 0.95960
 C2197 C 0.50396 0.62136 0.44457
 C2198 C 0.49819 0.62537 0.42089
 C2199 C 0.49275 0.64968 0.41300
 C2200 C 0.49291 0.67012 0.42882
 C2201 C 0.49986 0.66611 0.45237
 C2202 C 0.50527 0.64172 0.46025
 C2203 C 0.50568 0.59618 0.45327
 C2204 C 0.50572 0.57515 0.46100
 H2205 H 0.49707 0.60962 0.40872
 H2206 H 0.48789 0.65248 0.39465
 H2207 H 0.50003 0.68164 0.46481
 H2208 H 0.50953 0.63861 0.47868
 C2209 C 0.49609 0.88046 0.44317
 C2210 C 0.49469 0.86044 0.45918
 C2211 C 0.50063 0.83595 0.45182
 C2212 C 0.50823 0.83152 0.42848
 C2213 C 0.50839 0.85158 0.41228
 C2214 C 0.50240 0.87599 0.41965
 C2215 C 0.49425 0.90581 0.45146
 C2216 C 0.49430 0.92697 0.45891
 H2217 H 0.49003 0.86391 0.47750
 H2218 H 0.50042 0.82070 0.46453
 H2219 H 0.51374 0.84844 0.39408
 H2220 H 0.50363 0.89147 0.40723
 C2221 C -0.00713 0.38072 0.94469
 C2222 C -0.00780 0.36018 0.96016
 C2223 C -0.00203 0.33598 0.95191
 C2224 C 0.00468 0.33237 0.92821
 C2225 C 0.00419 0.35297 0.91263
 C2226 C -0.00164 0.37708 0.92088
 C2227 C -0.00896 0.40580 0.95368
 C2228 C -0.00890 0.42684 0.96140
 H2229 H -0.01181 0.36302 0.97870
 H2230 H -0.00171 0.32032 0.96417
 H2231 H 0.00885 0.35046 0.89418
 H2232 H -0.00098 0.39297 0.90888
 C2233 C 0.50508 0.37829 0.05530
 C2234 C 0.49898 0.37453 0.07896
 C2235 C 0.49289 0.35043 0.08689
 C2236 C 0.49276 0.32995 0.07113
 C2237 C 0.50015 0.33364 0.04762
 C2238 C 0.50617 0.35783 0.03970
 C2239 C 0.50693 0.40343 0.04652
 C2240 C 0.50677 0.42453 0.03895
 H2241 H 0.49796 0.39035 0.09107
 H2242 H 0.48769 0.34786 0.10519
 H2243 H 0.50012 0.31807 0.03523
 H2244 H 0.51065 0.36074 0.02127
 C2245 C 0.00152 0.87918 0.55725
 C2246 C -0.00419 0.87514 0.58096
 C2247 C -0.00940 0.85082 0.58884
 C2248 C -0.00907 0.83039 0.57299
 C2249 C -0.00240 0.83448 0.54937
 C2250 C 0.00279 0.85888 0.54150
 C2251 C 0.00364 0.90437 0.54865
 C2252 C 0.00420 0.92540 0.54094
 H2253 H -0.00529 0.89085 0.59318
 H2254 H -0.01405 0.84798 0.60723
 H2255 H -0.00210 0.81899 0.53689
 H2256 H 0.00701 0.86200 0.52306
 C2257 C 0.27981 0.29810 0.10476
 C2258 C 0.30296 0.30462 0.09404
 C2259 C 0.30307 0.31917 0.07350
 C2260 C 0.27990 0.32787 0.06317
 C2261 C 0.25664 0.32002 0.07371
 C2262 C 0.25667 0.30549 0.09432
 C2263 C 0.27979 0.28635 0.12771
 C2264 C 0.27928 0.27836 0.14762
 H2265 H 0.32104 0.29895 0.10186
 H2266 H 0.32153 0.32318 0.06569
 H2267 H 0.23825 0.32636 0.06716
 H2268 H 0.23857 0.30083 0.10261
 C2269 C 0.78271 0.79693 0.60404
 C2270 C 0.80520 0.79979 0.59084
 C2271 C 0.80506 0.81450 0.57034
 C2272 C 0.78243 0.82676 0.56282
 C2273 C 0.75974 0.82305 0.57579
 C2274 C 0.75992 0.80830 0.59624
 C2275 C 0.78332 0.78474 0.62678
 C2276 C 0.78283 0.77642 0.64659
 H2277 H 0.82300 0.79125 0.59671
 H2278 H 0.82278 0.81664 0.56059
 H2279 H 0.74208 0.83240 0.57070
 H2280 H 0.74243 0.80650 0.60642
 C2281 C 0.21703 0.70185 0.60631
 C2282 C 0.19460 0.69919 0.59305
 C2283 C 0.19484 0.68477 0.57234
 C2284 C 0.21750 0.67261 0.56465
 C2285 C 0.24010 0.67605 0.57774
 C2286 C 0.23983 0.69050 0.59840
 C2287 C 0.21638 0.71393 0.62914
 C2288 C 0.21680 0.72220 0.64898
 H2289 H 0.17679 0.70772 0.59900
 H2290 H 0.17719 0.68286 0.56251
 H2291 H 0.25778 0.66675 0.57255
 H2292 H 0.25726 0.69214 0.60862
 C2293 C 0.71809 0.20086 0.10581
 C2294 C 0.69513 0.19460 0.09470
 C2295 C 0.69537 0.18045 0.07389
 C2296 C 0.71870 0.17188 0.06369
 C2297 C 0.74178 0.17949 0.07463
 C2298 C 0.74140 0.19363 0.09550
 C2299 C 0.71771 0.21219 0.12896
 C2300 C 0.71789 0.21988 0.14900
 H2301 H 0.67692 0.20017 0.10240
 H2302 H 0.67704 0.17662 0.06579
 H2303 H 0.76028 0.17324 0.06818
 H2304 H 0.75936 0.19809 0.10409
 C2305 C 0.78329 0.19793 0.89313
 C2306 C 0.80545 0.19610 0.90691
 C2307 C 0.80508 0.18244 0.92802
 C2308 C 0.78256 0.17022 0.93563
 C2309 C 0.76021 0.17281 0.92199
 C2310 C 0.76061 0.18651 0.90091
 C2311 C 0.78411 0.20953 0.87011
 C2312 C 0.78384 0.21763 0.85021
 H2313 H 0.82315 0.20473 0.90109
 H2314 H 0.82253 0.18118 0.93827
 H2315 H 0.74265 0.16344 0.92712
 H2316 H 0.74338 0.18755 0.89032
 C2317 C 0.28069 0.70313 0.39531
 C2318 C 0.30296 0.70050 0.40883
 C2319 C 0.30266 0.68591 0.42940
 C2320 C 0.28011 0.67354 0.43669
 C2321 C 0.25763 0.67700 0.42338
 C2322 C 0.25796 0.69162 0.40285
 C2323 C 0.28154 0.71524 0.37252
 C2324 C 0.28140 0.72346 0.35267
 H2325 H 0.32071 0.70915 0.40316
 H2326 H 0.32021 0.68400 0.43942
 H2327 H 0.24004 0.66756 0.42828
 H2328 H 0.24065 0.69324 0.39242
 C2329 C 0.72153 0.79758 0.39395
 C2330 C 0.69909 0.80024 0.40733
 C2331 C 0.69914 0.81487 0.42789
 C2332 C 0.72160 0.82725 0.43533
 C2333 C 0.74425 0.82374 0.42219
 C2334 C 0.74417 0.80908 0.40165
 C2335 C 0.72090 0.78547 0.37115
 C2336 C 0.72109 0.77722 0.35130
 H2337 H 0.68140 0.79160 0.40153
 H2338 H 0.68146 0.81684 0.43779
 H2339 H 0.76178 0.83318 0.42721
 H2340 H 0.76160 0.80743 0.39133
 C2341 C 0.21774 0.30004 0.89365
 C2342 C 0.24037 0.31154 0.90138
 C2343 C 0.24056 0.32574 0.92220
 C2344 C 0.21803 0.32878 0.93561
 C2345 C 0.19557 0.31644 0.92810
 C2346 C 0.19542 0.30227 0.90726
 C2347 C 0.21703 0.28819 0.87072
 C2348 C 0.21722 0.28003 0.85083
 H2349 H 0.25772 0.31021 0.89091
 H2350 H 0.25808 0.33517 0.92727
 H2351 H 0.17799 0.31804 0.93818
 H2352 H 0.17774 0.29360 0.90146
 C2353 C 0.86433 0.37267 0.75544
 C2354 C 0.86377 0.38090 0.73202
 C2355 C 0.87642 0.40299 0.72532
 C2356 C 0.88999 0.41737 0.74193
 C2357 C 0.89062 0.40892 0.76548
 C2358 C 0.87789 0.38671 0.77218
 C2359 C 0.85061 0.34989 0.76159
 C2360 C 0.83828 0.33072 0.76384
 H2361 H 0.85329 0.37030 0.71888
 H2362 H 0.87508 0.40909 0.70718
 H2363 H 0.90108 0.41939 0.77870
 H2364 H 0.87856 0.38057 0.79035
 C2365 C 0.36282 0.87714 0.25670
 C2366 C 0.36759 0.88202 0.23292
 C2367 C 0.38051 0.90388 0.22599
 C2368 C 0.38911 0.92175 0.24273
 C2369 C 0.38437 0.91627 0.26682
 C2370 C 0.37137 0.89428 0.27365
 C2371 C 0.34846 0.85476 0.26293
 C2372 C 0.33597 0.83570 0.26527
 H2373 H 0.36086 0.86905 0.21954
 H2374 H 0.38240 0.90707 0.20729
 H2375 H 0.39125 0.92843 0.28070
 H2376 H 0.36798 0.89069 0.29216
 C2377 C 0.13826 0.87833 0.74506
 C2378 C 0.12348 0.89177 0.72868
 C2379 C 0.11041 0.91388 0.73554
 C2380 C 0.11188 0.92283 0.75891
 C2381 C 0.12671 0.90908 0.77517
 C2382 C 0.13972 0.88709 0.76829
 C2383 C 0.15198 0.85542 0.73878
 C2384 C 0.16416 0.83604 0.73640
 H2385 H 0.12205 0.88519 0.71067
 H2386 H 0.09897 0.92386 0.72262
 H2387 H 0.12869 0.91558 0.79314
 H2388 H 0.15110 0.87693 0.78117
 C2389 C 0.63718 0.37496 0.24488
 C2390 C 0.62336 0.38901 0.22826
 C2391 C 0.61068 0.41138 0.23503
 C2392 C 0.61160 0.41996 0.25854
 C2393 C 0.62548 0.40559 0.27504
 C2394 C 0.63810 0.38335 0.26826
 C2395 C 0.65057 0.35183 0.23870
 C2396 C 0.66248 0.33228 0.23641
 H2397 H 0.62238 0.38273 0.21014
 H2398 H 0.59997 0.42184 0.22192
 H2399 H 0.62703 0.41178 0.29314
 H2400 H 0.64875 0.37272 0.28132
 C2401 C 0.63882 0.62322 0.25604
 C2402 C 0.63962 0.61478 0.23267
 C2403 C 0.62666 0.59287 0.22593
 C2404 C 0.61254 0.57887 0.24247
 C2405 C 0.61172 0.58751 0.26598
 C2406 C 0.62474 0.60954 0.27270
 C2407 C 0.65255 0.64602 0.26219
 C2408 C 0.66471 0.66530 0.26445
 H2409 H 0.65046 0.62512 0.21957
 H2410 H 0.62814 0.58662 0.20783
 H2411 H 0.60083 0.57734 0.27913
 H2412 H 0.62383 0.61586 0.29082
 C2413 C 0.13490 0.12597 0.75592
 C2414 C 0.12081 0.11231 0.77259
 C2415 C 0.10798 0.09016 0.76591
 C2416 C 0.10902 0.08140 0.74245
 C2417 C 0.12314 0.09538 0.72591
 C2418 C 0.13590 0.11742 0.73259
 C2419 C 0.14856 0.14879 0.76204
 C2420 C 0.16076 0.16804 0.76425
 H2421 H 0.11978 0.11872 0.79068
 H2422 H 0.09712 0.07996 0.77906
 H2423 H 0.12480 0.08901 0.70785
 H2424 H 0.14676 0.12774 0.71951
 C2425 C 0.36112 0.12399 0.24313
 C2426 C 0.37472 0.10974 0.22642
 C2427 C 0.38792 0.08773 0.23328
 C2428 C 0.38772 0.07971 0.25697
 C2429 C 0.37403 0.09426 0.27353
 C2430 C 0.36090 0.11614 0.26667
 C2431 C 0.34724 0.14678 0.23689
 C2432 C 0.33496 0.16609 0.23460
 H2433 H 0.37515 0.11561 0.20817
 H2434 H 0.39847 0.07712 0.22010
 H2435 H 0.37306 0.08848 0.29179
 H2436 H 0.35042 0.12693 0.27980
 C2437 C 0.86101 0.62062 0.74285
 C2438 C 0.87559 0.60686 0.72647
 C2439 C 0.88866 0.58483 0.73348
 C2440 C 0.88737 0.57631 0.75698
 C2441 C 0.87268 0.59035 0.77321
 C2442 C 0.85968 0.61225 0.76620
 C2443 C 0.84729 0.64345 0.73645
 C2444 C 0.83505 0.66277 0.73401
 H2445 H 0.87689 0.61313 0.70837
 H2446 H 0.89996 0.57458 0.72057
 H2447 H 0.87083 0.58415 0.79128
 H2448 H 0.84843 0.62265 0.77906
 C2449 C 0.86959 0.75261 0.18849
 C2450 C 0.87331 0.76550 0.16744
 C2451 C 0.89804 0.77079 0.15980
 C2452 C 0.91960 0.76334 0.17324
 C2453 C 0.91540 0.74947 0.19411
 C2454 C 0.89053 0.74431 0.20171
 C2455 C 0.84426 0.75005 0.19756
 C2456 C 0.82313 0.74916 0.20575
 H2457 H 0.85707 0.77186 0.15709
 H2458 H 0.90001 0.78018 0.14300
 H2459 H 0.93109 0.74377 0.20538
 H2460 H 0.88764 0.73456 0.21826
 C2461 C 0.36778 0.24970 0.68973
 C2462 C 0.38866 0.24802 0.70509
 C2463 C 0.41336 0.25263 0.69678
 C2464 C 0.41717 0.25914 0.67311
 C2465 C 0.39618 0.25975 0.65762
 C2466 C 0.37155 0.25511 0.66595
 C2467 C 0.34235 0.24835 0.69881
 C2468 C 0.32116 0.24837 0.70692
 H2469 H 0.38573 0.24400 0.72360
 H2470 H 0.42930 0.25213 0.70897
 H2471 H 0.39881 0.26429 0.63919
 H2472 H 0.35541 0.25649 0.65402
 C2473 C 0.37274 0.74143 0.80202
 C2474 C 0.38305 0.71699 0.80192
 C2475 C 0.40767 0.71279 0.81052
 C2476 C 0.42209 0.73305 0.81928
 C2477 C 0.41202 0.75771 0.81833
 C2478 C 0.38734 0.76187 0.80974
 C2479 C 0.34684 0.74517 0.79484
 C2480 C 0.32509 0.74740 0.78846
 H2481 H 0.37182 0.70113 0.79578
 H2482 H 0.41518 0.69367 0.81105
 H2483 H 0.42270 0.77353 0.82532
 H2484 H 0.37939 0.78084 0.80977
 C2485 C 0.86916 0.23803 0.30552
 C2486 C 0.88540 0.25865 0.30844
 C2487 C 0.91064 0.25480 0.31569
 C2488 C 0.91988 0.23013 0.32035
 C2489 C 0.90333 0.20952 0.31634
 C2490 C 0.87820 0.21350 0.30906
 C2491 C 0.84327 0.24175 0.29836
 C2492 C 0.82165 0.24387 0.29164
 H2493 H 0.87842 0.27773 0.30552
 H2494 H 0.92214 0.27136 0.31899
 H2495 H 0.90978 0.19018 0.31843
 H2496 H 0.86579 0.19741 0.30624
 C2497 C 0.12644 0.25917 0.30260
 C2498 C 0.11539 0.28310 0.29979
 C2499 C 0.09015 0.28733 0.30680
 C2500 C 0.07581 0.26761 0.31665
 C2501 C 0.08678 0.24339 0.31869
 C2502 C 0.11209 0.23920 0.31168
 C2503 C 0.15256 0.25540 0.29605
 C2504 C 0.17436 0.25325 0.28971
 H2505 H 0.12642 0.29857 0.29254
 H2506 H 0.08197 0.30610 0.30501
 H2507 H 0.07617 0.22802 0.32659
 H2508 H 0.12059 0.22060 0.31375
 C2509 C 0.62457 0.75589 0.79759
 C2510 C 0.61010 0.73573 0.80615
 C2511 C 0.58557 0.74021 0.81508
 C2512 C 0.57555 0.76492 0.81555
 C2513 C 0.58974 0.78481 0.80580
 C2514 C 0.61419 0.78028 0.79685
 C2515 C 0.65055 0.75203 0.79057
 C2516 C 0.67243 0.74986 0.78446
 H2517 H 0.61810 0.71680 0.80670
 H2518 H 0.57506 0.72468 0.82282
 H2519 H 0.58226 0.80396 0.80596
 H2520 H 0.62533 0.79593 0.79009
 C2521 C 0.62642 0.24354 0.69977
 C2522 C 0.61169 0.26349 0.69086
 C2523 C 0.58699 0.25886 0.68258
 C2524 C 0.57705 0.23423 0.68311
 C2525 C 0.59165 0.21455 0.69295
 C2526 C 0.61625 0.21922 0.70126
 C2527 C 0.65237 0.24746 0.70666
 C2528 C 0.67423 0.24930 0.71281
 H2529 H 0.61953 0.28237 0.68972
 H2530 H 0.57615 0.27421 0.67477
 H2531 H 0.58424 0.19547 0.69360
 H2532 H 0.62758 0.20374 0.70827
 C2533 C 0.12901 0.74167 0.19660
 C2534 C 0.11420 0.76184 0.18828
 C2535 C 0.08919 0.75755 0.18067
 C2536 C 0.07897 0.73304 0.18135
 C2537 C 0.09377 0.71306 0.19038
 C2538 C 0.11871 0.71738 0.19799
 C2539 C 0.15486 0.74560 0.20375
 C2540 C 0.17648 0.74787 0.21044
 H2541 H 0.12212 0.78070 0.18728
 H2542 H 0.07822 0.77314 0.17343
 H2543 H 0.08616 0.69406 0.19113
 H2544 H 0.13010 0.70175 0.20462
   
