data_POSCAR
  _audit_creation_date              2014-09-24
  _audit_creation_method            'ToBaCCo'
  _symmetry_space_group_name_H-M    'P1'
  _symmetry_Int_Tables_number       1
  _symmetry_cell_setting            triclinic
  loop_
  _symmetry_equiv_pos_as_xyz
 x,y,z
_cell_length_a 77.2764
_cell_length_b 76.9310
_cell_length_c 78.4994
_cell_angle_alpha 90.037800
_cell_angle_beta 89.944900
_cell_angle_gamma 89.888400
loop_
  _atom_site_label
  _atom_site_type_symbol
  _atom_site_fract_x
  _atom_site_fract_y
  _atom_site_fract_z
N1 N 0.37174 0.32355 0.33681
 N2 N 0.37022 0.33441 0.32396
 C3 C 0.38286 0.33113 0.31256
 C4 C 0.39274 0.31758 0.31868
 C5 C 0.38538 0.31299 0.33402
 H6 H 0.38444 0.33770 0.30049
 H7 H 0.38928 0.30240 0.34222
 Cu8 Cu 0.35143 0.35124 0.32270
 Cu9 Cu 0.35516 0.32304 0.35543
 Cu10 Cu 0.32353 0.35489 0.35567
 N11 N 0.33463 0.37005 0.32414
 N12 N 0.32392 0.37157 0.33709
 C13 C 0.31331 0.38519 0.33438
 C14 C 0.31771 0.39256 0.31898
 C15 C 0.33119 0.38269 0.31275
 H16 H 0.30277 0.38905 0.34265
 H17 H 0.33761 0.38426 0.30060
 N18 N 0.32522 0.33681 0.37332
 N19 N 0.33724 0.32459 0.37320
 C20 C 0.33425 0.31349 0.38615
 C21 C 0.31975 0.31911 0.39476
 C22 C 0.31427 0.33382 0.38636
 H23 H 0.34160 0.30180 0.38870
 H24 H 0.30274 0.34131 0.38911
 H25 H 0.33428 0.33411 0.34275
 H26 H 0.34959 0.34936 0.35358
 N27 N 0.37235 0.82392 -0.16342
 N28 N 0.37077 0.83464 -0.17639
 C29 C 0.38342 0.83131 -0.18777
 C30 C 0.39338 0.81790 -0.18148
 C31 C 0.38606 0.81341 -0.16609
 H32 H 0.38492 0.83774 -0.19993
 H33 H 0.38999 0.80291 -0.15780
 Cu34 Cu 0.35184 0.85130 -0.17783
 Cu35 Cu 0.35566 0.82342 -0.14489
 Cu36 Cu 0.32409 0.85532 -0.14475
 N37 N 0.33528 0.87033 -0.17634
 N38 N 0.32467 0.87200 -0.16332
 C39 C 0.31415 0.88571 -0.16601
 C40 C 0.31852 0.89295 -0.18147
 C41 C 0.33187 0.88293 -0.18778
 H42 H 0.30367 0.88966 -0.15771
 H43 H 0.33817 0.88433 -0.20001
 N44 N 0.32563 0.83719 -0.12713
 N45 N 0.33764 0.82495 -0.12720
 C46 C 0.33456 0.81385 -0.11428
 C47 C 0.32001 0.81949 -0.10574
 C48 C 0.31460 0.83421 -0.11417
 H49 H 0.34188 0.80216 -0.11168
 H50 H 0.30307 0.84172 -0.11148
 H51 H 0.33468 0.83447 -0.15757
 H52 H 0.35007 0.84980 -0.14695
 N53 N 0.87171 0.32384 -0.16287
 N54 N 0.87049 0.33465 -0.17578
 C55 C 0.88324 0.33119 -0.18700
 C56 C 0.89289 0.31756 -0.18069
 C57 C 0.88527 0.31312 -0.16543
 H58 H 0.88505 0.33768 -0.19908
 H59 H 0.88893 0.30250 -0.15715
 Cu60 Cu 0.85184 0.35159 -0.17745
 Cu61 Cu 0.85484 0.32361 -0.14448
 Cu62 Cu 0.82346 0.35570 -0.14491
 N63 N 0.83518 0.37055 -0.17639
 N64 N 0.82429 0.37224 -0.16360
 C65 C 0.81381 0.38591 -0.16656
 C66 C 0.81850 0.39311 -0.18194
 C67 C 0.83200 0.38310 -0.18794
 H68 H 0.80315 0.38987 -0.15849
 H69 H 0.83858 0.38450 -0.20003
 N70 N 0.82473 0.33774 -0.12710
 N71 N 0.83667 0.32543 -0.12698
 C72 C 0.83344 0.31447 -0.11397
 C73 C 0.81887 0.32027 -0.10557
 C74 C 0.81360 0.33495 -0.11418
 H75 H 0.84068 0.30277 -0.11121
 H76 H 0.80211 0.34256 -0.11162
 H77 H 0.83423 0.33478 -0.15752
 H78 H 0.84949 0.34999 -0.14657
 N79 N 0.87185 0.82407 0.33680
 N80 N 0.87029 0.83496 0.32397
 C81 C 0.88295 0.83175 0.31257
 C82 C 0.89288 0.81823 0.31867
 C83 C 0.88554 0.81358 0.33399
 H84 H 0.88451 0.83835 0.30051
 H85 H 0.88948 0.80297 0.34216
 Cu86 Cu 0.85151 0.85180 0.32279
 Cu87 Cu 0.85524 0.82334 0.35538
 Cu88 Cu 0.82325 0.85479 0.35553
 N89 N 0.83427 0.87024 0.32411
 N90 N 0.82344 0.87152 0.33699
 C91 C 0.81263 0.88500 0.33428
 C92 C 0.81706 0.89251 0.31896
 C93 C 0.83074 0.88288 0.31275
 H94 H 0.80202 0.88868 0.34253
 H95 H 0.83725 0.88464 0.30068
 N96 N 0.82508 0.83674 0.37319
 N97 N 0.83726 0.82468 0.37310
 C98 C 0.83438 0.81355 0.38605
 C99 C 0.81979 0.81899 0.39464
 C100 C 0.81414 0.83362 0.38620
 H101 H 0.84188 0.80197 0.38863
 H102 H 0.80251 0.84097 0.38892
 H103 H 0.83451 0.83420 0.34253
 H104 H 0.84952 0.84955 0.35364
 N105 N 0.62826 0.67708 0.33845
 N106 N 0.62967 0.66652 0.32534
 C107 C 0.61694 0.67003 0.31415
 C108 C 0.60710 0.68342 0.32069
 C109 C 0.61459 0.68768 0.33605
 H110 H 0.61528 0.66376 0.30193
 H111 H 0.61078 0.69812 0.34450
 Cu112 Cu 0.64856 0.64990 0.32340
 Cu113 Cu 0.64508 0.67729 0.35685
 Cu114 Cu 0.67672 0.64544 0.35594
 N115 N 0.66505 0.63081 0.32437
 N116 N 0.67598 0.62904 0.33709
 C117 C 0.68637 0.61530 0.33402
 C118 C 0.68157 0.60814 0.31864
 C119 C 0.66809 0.61824 0.31279
 H120 H 0.69697 0.61119 0.34206
 H121 H 0.66139 0.61685 0.30078
 N122 N 0.67535 0.66322 0.37395
 N123 N 0.66327 0.67539 0.37429
 C124 C 0.66647 0.68628 0.38736
 C125 C 0.68116 0.68059 0.39558
 C126 C 0.68654 0.66604 0.38680
 H127 H 0.65915 0.69790 0.39025
 H128 H 0.69816 0.65857 0.38917
 H129 H 0.66575 0.66665 0.34371
 H130 H 0.65055 0.65111 0.35429
 N131 N 0.62805 0.17620 -0.16273
 N132 N 0.62985 0.16516 -0.17541
 C133 C 0.61731 0.16812 -0.18698
 C134 C 0.60722 0.18166 -0.18113
 C135 C 0.61435 0.18657 -0.16579
 H136 H 0.61596 0.16137 -0.19899
 H137 H 0.61027 0.19728 -0.15781
 Cu138 Cu 0.64892 0.14864 -0.17636
 Cu139 Cu 0.64445 0.17727 -0.14401
 Cu140 Cu 0.67661 0.14596 -0.14323
 N141 N 0.66584 0.12998 -0.17448
 N142 N 0.67655 0.12890 -0.16151
 C143 C 0.68736 0.11536 -0.16395
 C144 C 0.68304 0.10760 -0.17919
 C145 C 0.66943 0.11714 -0.18562
 H146 H 0.69794 0.11183 -0.15562
 H147 H 0.66305 0.11524 -0.19774
 N148 N 0.67459 0.16433 -0.12586
 N149 N 0.66227 0.17625 -0.12614
 C150 C 0.66495 0.18759 -0.11333
 C151 C 0.67958 0.18249 -0.10466
 C152 C 0.68545 0.16780 -0.11288
 H153 H 0.65731 0.19913 -0.11093
 H154 H 0.69717 0.16065 -0.11006
 H155 H 0.66546 0.16645 -0.15641
 H156 H 0.65034 0.15109 -0.14548
 N157 N 0.12679 0.67583 -0.16244
 N158 N 0.12706 0.66331 -0.17386
 C159 C 0.11440 0.66614 -0.18531
 C160 C 0.10579 0.68112 -0.18069
 C161 C 0.11394 0.68702 -0.16621
 H162 H 0.11197 0.65826 -0.19647
 H163 H 0.11110 0.69885 -0.15929
 Cu164 Cu 0.14451 0.64505 -0.17342
 Cu165 Cu 0.14376 0.67732 -0.14424
 Cu166 Cu 0.17609 0.64616 -0.14379
 N167 N 0.16333 0.62821 -0.17327
 N168 N 0.17561 0.62868 -0.16169
 C169 C 0.18730 0.61613 -0.16504
 C170 C 0.18198 0.60739 -0.17944
 C171 C 0.16682 0.61534 -0.18442
 H172 H 0.19905 0.61387 -0.15789
 H173 H 0.15923 0.61233 -0.19561
 N174 N 0.17445 0.66482 -0.12669
 N175 N 0.16207 0.67668 -0.12683
 C176 C 0.16492 0.68811 -0.11412
 C177 C 0.17972 0.68313 -0.10566
 C178 C 0.18551 0.66841 -0.11390
 H179 H 0.15719 0.69955 -0.11157
 H180 H 0.19722 0.66124 -0.11112
 H181 H 0.16320 0.66504 -0.15784
 H182 H 0.14979 0.65123 -0.14336
 N183 N 0.12723 0.17546 0.33800
 N184 N 0.12664 0.16228 0.32733
 C185 C 0.11410 0.16518 0.31575
 C186 C 0.10646 0.18094 0.31953
 C187 C 0.11506 0.18717 0.33363
 H188 H 0.11109 0.15673 0.30515
 H189 H 0.11296 0.19952 0.33990
 Cu190 Cu 0.14284 0.14305 0.32908
 Cu191 Cu 0.14440 0.17695 0.35610
 Cu192 Cu 0.17652 0.14546 0.35604
 N193 N 0.16234 0.12720 0.32732
 N194 N 0.17547 0.12813 0.33793
 C195 C 0.18736 0.11610 0.33357
 C196 C 0.18126 0.10723 0.31954
 C197 C 0.16542 0.11457 0.31581
 H198 H 0.19968 0.11423 0.33983
 H199 H 0.15700 0.11127 0.30530
 N200 N 0.17522 0.16409 0.37328
 N201 N 0.16295 0.17608 0.37329
 C202 C 0.16596 0.18736 0.38608
 C203 C 0.18073 0.18214 0.39444
 C204 C 0.18635 0.16743 0.38607
 H205 H 0.15831 0.19882 0.38880
 H206 H 0.19796 0.16007 0.38879
 H207 H 0.16268 0.16359 0.34207
 H208 H 0.15033 0.15087 0.35830
 N209 N 0.62801 0.32362 0.66310
 N210 N 0.62989 0.33444 0.67594
 C211 C 0.61735 0.33142 0.68749
 C212 C 0.60715 0.31809 0.68147
 C213 C 0.61423 0.31335 0.66604
 H214 H 0.61604 0.33801 0.69960
 H215 H 0.61006 0.30281 0.65790
 Cu216 Cu 0.64904 0.35080 0.67706
 Cu217 Cu 0.64437 0.32265 0.64431
 Cu218 Cu 0.67664 0.35370 0.64385
 N219 N 0.66604 0.36934 0.67534
 N220 N 0.67668 0.37054 0.66232
 C221 C 0.68746 0.38404 0.66482
 C222 C 0.68324 0.39165 0.68017
 C223 C 0.66968 0.38206 0.68658
 H224 H 0.69795 0.38768 0.65642
 H225 H 0.66332 0.38390 0.69873
 N226 N 0.67456 0.33559 0.62627
 N227 N 0.66218 0.32377 0.62641
 C228 C 0.66485 0.31255 0.61348
 C229 C 0.67953 0.31763 0.60488
 C230 C 0.68544 0.33218 0.61326
 H231 H 0.65718 0.30109 0.61096
 H232 H 0.69721 0.33924 0.61053
 H233 H 0.66538 0.33306 0.65682
 H234 H 0.65031 0.34872 0.64616
 N235 N 0.62799 0.82377 1.16386
 N236 N 0.62996 0.83462 1.17667
 C237 C 0.61745 0.83171 1.18827
 C238 C 0.60718 0.81840 1.18235
 C239 C 0.61418 0.81356 1.16689
 H240 H 0.61623 0.83835 1.20037
 H241 H 0.60993 0.80302 1.15880
 Cu242 Cu 0.64925 0.85074 1.17773
 Cu243 Cu 0.64427 0.82282 1.14496
 Cu244 Cu 0.67637 0.85413 1.14425
 N245 N 0.66572 0.86970 1.17578
 N246 N 0.67632 0.87099 1.16273
 C247 C 0.68695 0.88462 1.16520
 C248 C 0.68265 0.89223 1.18054
 C249 C 0.66921 0.88249 1.18699
 H250 H 0.69743 0.88831 1.15681
 H251 H 0.66289 0.88423 1.19917
 N252 N 0.67428 0.83594 1.12670
 N253 N 0.66201 0.82402 1.12695
 C254 C 0.66469 0.81279 1.11403
 C255 C 0.67925 0.81798 1.10531
 C256 C 0.68509 0.83260 1.11362
 H257 H 0.65711 0.80125 1.11160
 H258 H 0.69677 0.83978 1.11078
 H259 H 0.66550 0.83331 1.15715
 H260 H 0.65018 0.84894 1.14682
 N261 N 0.12799 0.32428 1.16284
 N262 N 0.12978 0.33518 1.17564
 C263 C 0.11722 0.33215 1.18717
 C264 C 0.10712 0.31873 1.18120
 C265 C 0.11426 0.31395 1.16581
 H266 H 0.11586 0.33878 1.19926
 H267 H 0.11019 0.30333 1.15772
 Cu268 Cu 0.14886 0.35160 1.17677
 Cu269 Cu 0.14441 0.32332 1.14410
 Cu270 Cu 0.17652 0.35455 1.14362
 N271 N 0.16578 0.37021 1.17506
 N272 N 0.17644 0.37143 1.16205
 C273 C 0.18718 0.38496 1.16457
 C274 C 0.18292 0.39256 1.17992
 C275 C 0.16937 0.38293 1.18631
 H276 H 0.19769 0.38860 1.15621
 H277 H 0.16302 0.38473 1.19847
 N278 N 0.17457 0.33638 1.12608
 N279 N 0.16228 0.32447 1.12624
 C280 C 0.16506 0.31323 1.11335
 C281 C 0.17971 0.31840 1.10474
 C282 C 0.18550 0.33302 1.11309
 H283 H 0.15748 0.30170 1.11085
 H284 H 0.19721 0.34017 1.11036
 H285 H 0.16537 0.33388 1.15663
 H286 H 0.15024 0.34942 1.14588
 N287 N 0.12703 0.82431 0.66263
 N288 N 0.12752 0.83636 0.67453
 C289 C 0.11482 0.83332 0.68592
 C290 C 0.10597 0.81869 0.68077
 C291 C 0.11401 0.81322 0.66603
 H292 H 0.11253 0.84076 0.69740
 H293 H 0.11102 0.80170 0.65871
 Cu294 Cu 0.14558 0.85392 0.67458
 Cu295 Cu 0.14404 0.82316 0.64430
 Cu296 Cu 0.17621 0.85459 0.64423
 N297 N 0.16360 0.87154 0.67451
 N298 N 0.17556 0.87171 0.66255
 C299 C 0.18690 0.88454 0.66587
 C300 C 0.18170 0.89278 0.68060
 C301 C 0.16697 0.88424 0.68585
 H302 H 0.19838 0.88729 0.65845
 H303 H 0.15964 0.88677 0.69734
 N304 N 0.17462 0.83617 0.62679
 N305 N 0.16237 0.82421 0.62683
 C306 C 0.16530 0.81301 0.61393
 C307 C 0.17999 0.81825 0.60543
 C308 C 0.18564 0.83289 0.61386
 H309 H 0.15771 0.80153 0.61125
 H310 H 0.19726 0.84019 0.61111
 H311 H 0.16401 0.83494 0.65749
 H312 H 0.15004 0.84933 0.64418
 N313 N 0.37212 0.67573 0.66353
 N314 N 0.37036 0.66487 0.67635
 C315 C 0.38288 0.66801 0.68789
 C316 C 0.39294 0.68145 0.68188
 C317 C 0.38580 0.68613 0.66647
 H318 H 0.38426 0.66142 0.69998
 H319 H 0.38986 0.69671 0.65834
 Cu320 Cu 0.35147 0.64821 0.67736
 Cu321 Cu 0.35568 0.67659 0.64482
 Cu322 Cu 0.32356 0.64537 0.64435
 N323 N 0.33435 0.62977 0.67578
 N324 N 0.32367 0.62855 0.66281
 C325 C 0.31290 0.61505 0.66537
 C326 C 0.31717 0.60747 0.68069
 C327 C 0.33074 0.61708 0.68705
 H328 H 0.30238 0.61140 0.65703
 H329 H 0.33711 0.61526 0.69918
 N330 N 0.32555 0.66353 0.62681
 N331 N 0.33784 0.67544 0.62697
 C332 C 0.33510 0.68666 0.61407
 C333 C 0.32049 0.68146 0.60543
 C334 C 0.31468 0.66685 0.61379
 H335 H 0.34270 0.69817 0.61156
 H336 H 0.30300 0.65967 0.61102
 H337 H 0.33464 0.66587 0.65745
 H338 H 0.34971 0.65039 0.64649
 N339 N 0.37201 0.17574 1.16342
 N340 N 0.37022 0.16484 1.17620
 C341 C 0.38278 0.16785 1.18773
 C342 C 0.39290 0.18126 1.18175
 C343 C 0.38576 0.18605 1.16638
 H344 H 0.38416 0.16119 1.19978
 H345 H 0.38989 0.19662 1.15827
 Cu346 Cu 0.35125 0.14828 1.17718
 Cu347 Cu 0.35560 0.17671 1.14470
 Cu348 Cu 0.32345 0.14552 1.14409
 N349 N 0.33413 0.12983 1.17552
 N350 N 0.32347 0.12866 1.16252
 C351 C 0.31270 0.11515 1.16501
 C352 C 0.31694 0.10750 1.18031
 C353 C 0.33051 0.11708 1.18673
 H354 H 0.30221 0.11153 1.15663
 H355 H 0.33688 0.11520 1.19885
 N356 N 0.32551 0.16371 1.12659
 N357 N 0.33778 0.17563 1.12682
 C358 C 0.33508 0.18687 1.11393
 C359 C 0.32051 0.18167 1.10523
 C360 C 0.31468 0.16705 1.11354
 H361 H 0.34268 0.19839 1.11147
 H362 H 0.30303 0.15985 1.11071
 H363 H 0.33452 0.16601 1.15725
 H364 H 0.34961 0.15054 1.14631
 N365 N 0.87162 0.67623 1.16344
 N366 N 0.87008 0.66528 1.17622
 C367 C 0.88267 0.66848 1.18766
 C368 C 0.89254 0.68206 1.18163
 C369 C 0.88521 0.68675 1.16631
 H370 H 0.88426 0.66180 1.19968
 H371 H 0.88913 0.69739 1.15818
 Cu372 Cu 0.85136 0.64841 1.17728
 Cu373 Cu 0.85513 0.67693 1.14479
 Cu374 Cu 0.82344 0.64530 1.14431
 N375 N 0.83433 0.62984 1.17577
 N376 N 0.82365 0.62855 1.16280
 C377 C 0.81290 0.61506 1.16539
 C378 C 0.81717 0.60752 1.18073
 C379 C 0.83074 0.61717 1.18707
 H380 H 0.80237 0.61139 1.15708
 H381 H 0.83711 0.61539 1.19920
 N382 N 0.82527 0.66342 1.12673
 N383 N 0.83729 0.67559 1.12696
 C384 C 0.83433 0.68680 1.11409
 C385 C 0.81984 0.68130 1.10543
 C386 C 0.81436 0.66654 1.11371
 H387 H 0.84166 0.69849 1.11165
 H388 H 0.80283 0.65913 1.11092
 H389 H 0.83429 0.66587 1.15743
 H390 H 0.84957 0.65063 1.14640
 N391 N 0.87221 0.17595 0.66288
 N392 N 0.87212 0.16366 0.67453
 C393 C 0.88485 0.16677 0.68585
 C394 C 0.89330 0.18170 0.68092
 C395 C 0.88501 0.18727 0.66637
 H396 H 0.88745 0.15909 0.69709
 H397 H 0.88778 0.19891 0.65915
 Cu398 Cu 0.85479 0.14534 0.67453
 Cu399 Cu 0.85526 0.17679 0.64458
 Cu400 Cu 0.82345 0.14516 0.64470
 N401 N 0.83630 0.12821 0.67471
 N402 N 0.82407 0.12821 0.66307
 C403 C 0.81258 0.11559 0.66668
 C404 C 0.81796 0.10732 0.68131
 C405 C 0.83298 0.11559 0.68616
 H406 H 0.80093 0.11296 0.65951
 H407 H 0.84057 0.11298 0.69744
 N408 N 0.82494 0.16335 0.62713
 N409 N 0.83703 0.17546 0.62710
 C410 C 0.83394 0.18658 0.61419
 C411 C 0.81931 0.18109 0.60576
 C412 C 0.81385 0.16644 0.61425
 H413 H 0.84134 0.19817 0.61149
 H414 H 0.80228 0.15903 0.61162
 H415 H 0.83595 0.16456 0.65822
 H416 H 0.84972 0.15055 0.64422
 N417 N 0.32367 0.37191 0.66260
 N418 N 0.33546 0.37172 0.67468
 C419 C 0.33192 0.38444 0.68598
 C420 C 0.31724 0.39300 0.68056
 C421 C 0.31225 0.38476 0.66577
 H422 H 0.33910 0.38697 0.69753
 H423 H 0.30089 0.38755 0.65821
 Cu424 Cu 0.35357 0.35413 0.67491
 Cu425 Cu 0.32328 0.35475 0.64431
 Cu426 Cu 0.35565 0.32335 0.64472
 N427 N 0.37170 0.33655 0.67512
 N428 N 0.37245 0.32456 0.66318
 C429 C 0.38554 0.31355 0.66664
 C430 C 0.39335 0.31899 0.68148
 C431 C 0.38429 0.33353 0.68663
 H432 H 0.38876 0.30211 0.65927
 H433 H 0.38636 0.34093 0.69816
 N434 N 0.33749 0.32432 0.62713
 N435 N 0.32517 0.33627 0.62696
 C436 C 0.31423 0.33285 0.61402
 C437 C 0.32004 0.31817 0.60574
 C438 C 0.33470 0.31302 0.61431
 H439 H 0.30257 0.34008 0.61121
 H440 H 0.34235 0.30152 0.61176
 H441 H 0.33538 0.33507 0.65773
 H442 H 0.34939 0.34944 0.64450
 N443 N 0.32405 0.87152 0.16315
 N444 N 0.33490 0.87002 0.17596
 C445 C 0.33156 0.88262 0.18743
 C446 C 0.31798 0.89246 0.18139
 C447 C 0.31342 0.88511 0.16603
 H448 H 0.33813 0.88422 0.19949
 H449 H 0.30282 0.88898 0.15788
 Cu450 Cu 0.35185 0.85133 0.17712
 Cu451 Cu 0.32361 0.85496 0.14443
 Cu452 Cu 0.35547 0.82339 0.14411
 N453 N 0.37059 0.83447 0.17561
 N454 N 0.37209 0.82374 0.16264
 C455 C 0.38570 0.81312 0.16528
 C456 C 0.39307 0.81755 0.18065
 C457 C 0.38322 0.83104 0.18695
 H458 H 0.38956 0.80258 0.15698
 H459 H 0.38482 0.83748 0.19910
 N460 N 0.33751 0.82501 0.12645
 N461 N 0.32528 0.83703 0.12659
 C462 C 0.31427 0.83400 0.11363
 C463 C 0.31994 0.81947 0.10498
 C464 C 0.33460 0.81403 0.11339
 H465 H 0.30259 0.84132 0.11109
 H466 H 0.34211 0.80249 0.11064
 H467 H 0.33465 0.83422 0.15714
 H468 H 0.34974 0.84969 0.14625
 N469 N 0.82428 0.37189 0.16286
 N470 N 0.83487 0.37032 0.17588
 C471 C 0.83146 0.38300 0.18725
 C472 C 0.81812 0.39298 0.18092
 C473 C 0.81377 0.38562 0.16550
 H474 H 0.83775 0.38449 0.19946
 H475 H 0.80332 0.38954 0.15718
 Cu476 Cu 0.85135 0.35128 0.17750
 Cu477 Cu 0.82390 0.35511 0.14432
 Cu478 Cu 0.85568 0.32338 0.14457
 N479 N 0.87041 0.33481 0.17618
 N480 N 0.87216 0.32404 0.16327
 C481 C 0.88590 0.31363 0.16608
 C482 C 0.89308 0.31823 0.18150
 C483 C 0.88298 0.33162 0.18764
 H484 H 0.88998 0.30310 0.15786
 H485 H 0.88436 0.33813 0.19978
 N486 N 0.83778 0.32485 0.12679
 N487 N 0.82562 0.33695 0.12671
 C488 C 0.81467 0.33382 0.11372
 C489 C 0.82031 0.31917 0.10529
 C490 C 0.83489 0.31373 0.11385
 H491 H 0.80306 0.34118 0.11102
 H492 H 0.84236 0.30212 0.11126
 H493 H 0.83463 0.33413 0.15713
 H494 H 0.85000 0.34955 0.14662
 N495 N 0.82329 0.87251 0.66292
 N496 N 0.83433 0.87148 0.67563
 C497 C 0.83081 0.88420 0.68693
 C498 C 0.81693 0.89360 0.68088
 C499 C 0.81238 0.88588 0.66570
 H500 H 0.83746 0.88618 0.69888
 H501 H 0.80162 0.88939 0.65759
 Cu502 Cu 0.85180 0.85326 0.67670
 Cu503 Cu 0.82310 0.85577 0.64437
 Cu504 Cu 0.85504 0.82427 0.64456
 N505 N 0.87020 0.83595 0.67591
 N506 N 0.87156 0.82484 0.66323
 C507 C 0.88502 0.81411 0.66616
 C508 C 0.89243 0.81882 0.68143
 C509 C 0.88276 0.83263 0.68737
 H510 H 0.88878 0.80334 0.65810
 H511 H 0.88446 0.83937 0.69934
 N512 N 0.83719 0.82570 0.62675
 N513 N 0.82497 0.83772 0.62669
 C514 C 0.81404 0.83457 0.61368
 C515 C 0.81975 0.81996 0.60522
 C516 C 0.83436 0.81458 0.61378
 H517 H 0.80238 0.84185 0.61101
 H518 H 0.84186 0.80299 0.61120
 H519 H 0.83444 0.83550 0.65752
 H520 H 0.84932 0.85063 0.64592
 N521 N 0.67650 0.62860 0.66337
 N522 N 0.66570 0.63035 0.67622
 C523 C 0.66877 0.61771 0.68769
 C524 C 0.68213 0.60756 0.68163
 C525 C 0.68683 0.61478 0.66623
 H526 H 0.66220 0.61634 0.69978
 H527 H 0.69735 0.61066 0.65806
 Cu528 Cu 0.64941 0.64959 0.67752
 Cu529 Cu 0.67723 0.64522 0.64469
 Cu530 Cu 0.64556 0.67711 0.64432
 N531 N 0.63030 0.66593 0.67577
 N532 N 0.62879 0.67666 0.66282
 C533 C 0.61504 0.68713 0.66543
 C534 C 0.60760 0.68258 0.68076
 C535 C 0.61754 0.66917 0.68704
 H536 H 0.61114 0.69767 0.65715
 H537 H 0.61597 0.66271 0.69917
 N538 N 0.66371 0.67538 0.62676
 N539 N 0.67582 0.66323 0.62690
 C540 C 0.68692 0.66616 0.61397
 C541 C 0.68143 0.68075 0.60533
 C542 C 0.66678 0.68634 0.61372
 H543 H 0.69852 0.65872 0.61143
 H544 H 0.65938 0.69794 0.61095
 H545 H 0.66640 0.66640 0.65711
 H546 H 0.65108 0.65092 0.64663
 N547 N 0.67692 0.12785 0.16178
 N548 N 0.66513 0.12808 0.17390
 C549 C 0.66864 0.11532 0.18514
 C550 C 0.68328 0.10672 0.17966
 C551 C 0.68828 0.11495 0.16488
 H552 H 0.66148 0.11282 0.19672
 H553 H 0.69963 0.11212 0.15728
 Cu554 Cu 0.64712 0.14580 0.17423
 Cu555 Cu 0.67740 0.14501 0.14356
 Cu556 Cu 0.64524 0.17657 0.14397
 N557 N 0.62900 0.16341 0.17431
 N558 N 0.62837 0.17544 0.16241
 C559 C 0.61530 0.18650 0.16587
 C560 C 0.60737 0.18103 0.18066
 C561 C 0.61633 0.16643 0.18576
 H562 H 0.61216 0.19797 0.15853
 H563 H 0.61415 0.15899 0.19724
 N564 N 0.66347 0.17549 0.12639
 N565 N 0.67570 0.16346 0.12623
 C566 C 0.68671 0.16678 0.11331
 C567 C 0.68105 0.18149 0.10502
 C568 C 0.66639 0.18676 0.11357
 H569 H 0.69834 0.15948 0.11052
 H570 H 0.65884 0.19832 0.11103
 H571 H 0.66531 0.16475 0.15696
 H572 H 0.65121 0.15042 0.14378
 N573 N 0.17672 0.62869 0.16181
 N574 N 0.16598 0.63007 0.17475
 C575 C 0.16941 0.61735 0.18605
 C576 C 0.18294 0.60756 0.17977
 C577 C 0.18735 0.61506 0.16444
 H578 H 0.16298 0.61568 0.19818
 H579 H 0.19791 0.61128 0.15616
 Cu580 Cu 0.14924 0.64893 0.17634
 Cu581 Cu 0.17702 0.64548 0.14333
 Cu582 Cu 0.14515 0.67712 0.14359
 N583 N 0.13029 0.66555 0.17510
 N584 N 0.12866 0.67647 0.16230
 C585 C 0.11498 0.68695 0.16519
 C586 C 0.10770 0.68222 0.18053
 C587 C 0.11767 0.66870 0.18655
 H588 H 0.11100 0.69758 0.15707
 H589 H 0.11616 0.66204 0.19859
 N590 N 0.16307 0.67564 0.12578
 N591 N 0.17527 0.66360 0.12572
 C592 C 0.18626 0.66676 0.11275
 C593 C 0.18060 0.68138 0.10430
 C594 C 0.16596 0.68676 0.11284
 H595 H 0.19793 0.65947 0.11008
 H596 H 0.15847 0.69835 0.11026
 H597 H 0.16599 0.66636 0.15620
 H598 H 0.15078 0.65096 0.14544
 N599 N 0.17652 0.12779 0.66252
 N600 N 0.16491 0.12850 0.67477
 C601 C 0.16829 0.11587 0.68621
 C602 C 0.18269 0.10685 0.68070
 C603 C 0.18765 0.11470 0.66571
 H604 H 0.16119 0.11369 0.69788
 H605 H 0.19882 0.11148 0.65801
 Cu606 Cu 0.14712 0.14647 0.67490
 Cu607 Cu 0.17708 0.14452 0.64393
 Cu608 Cu 0.14525 0.17637 0.64375
 N609 N 0.12915 0.16425 0.67457
 N610 N 0.12848 0.17584 0.66226
 C611 C 0.11540 0.18700 0.66535
 C612 C 0.10750 0.18207 0.68032
 C613 C 0.11649 0.16768 0.68593
 H614 H 0.11223 0.19818 0.65760
 H615 H 0.11427 0.16061 0.69763
 N616 N 0.16338 0.17472 0.62614
 N617 N 0.17551 0.16259 0.62620
 C618 C 0.18658 0.16561 0.61327
 C619 C 0.18106 0.18024 0.60474
 C620 C 0.16642 0.18576 0.61317
 H621 H 0.19820 0.15821 0.61067
 H622 H 0.15903 0.19739 0.61049
 H623 H 0.16529 0.16479 0.65694
 H624 H 0.15091 0.15020 0.64430
 N625 N 0.32349 0.62834 0.33731
 N626 N 0.33428 0.62951 0.32440
 C627 C 0.33073 0.61682 0.31310
 C628 C 0.31707 0.60728 0.31936
 C629 C 0.31269 0.61489 0.33467
 H630 H 0.33721 0.61497 0.30102
 H631 H 0.30209 0.61127 0.34294
 Cu632 Cu 0.35139 0.64794 0.32288
 Cu633 Cu 0.32345 0.64506 0.35586
 Cu634 Cu 0.35571 0.67611 0.35563
 N635 N 0.37049 0.66431 0.32413
 N636 N 0.37219 0.67521 0.33693
 C637 C 0.38590 0.68557 0.33403
 C638 C 0.39314 0.68079 0.31867
 C639 C 0.38310 0.66735 0.31265
 H640 H 0.38989 0.69622 0.34211
 H641 H 0.38452 0.66073 0.30057
 N642 N 0.33782 0.67493 0.37345
 N643 N 0.32549 0.66307 0.37353
 C644 C 0.31461 0.66636 0.38657
 C645 C 0.32047 0.68088 0.39503
 C646 C 0.33511 0.68608 0.38644
 H647 H 0.30288 0.65922 0.38927
 H648 H 0.34274 0.69755 0.38902
 H649 H 0.33476 0.66561 0.34295
 H650 H 0.34975 0.64998 0.35377
 N651 N 0.32407 0.12796 0.83701
 N652 N 0.33496 0.12935 0.82419
 C653 C 0.33171 0.11665 0.81284
 C654 C 0.31815 0.10685 0.81893
 C655 C 0.31351 0.11434 0.83423
 H656 H 0.33833 0.11496 0.80080
 H657 H 0.30289 0.11053 0.84240
 Cu658 Cu 0.35162 0.14820 0.82274
 Cu659 Cu 0.32365 0.14464 0.85563
 Cu660 Cu 0.35574 0.17594 0.85575
 N661 N 0.37081 0.16444 0.82430
 N662 N 0.37244 0.17519 0.83723
 C663 C 0.38618 0.18557 0.83452
 C664 C 0.39350 0.18097 0.81914
 C665 C 0.38348 0.16760 0.81292
 H666 H 0.39012 0.19613 0.84274
 H667 H 0.38493 0.16115 0.80076
 N668 N 0.33767 0.17463 0.87339
 N669 N 0.32541 0.16269 0.87335
 C670 C 0.31439 0.16591 0.88629
 C671 C 0.32008 0.18048 0.89479
 C672 C 0.33477 0.18576 0.88634
 H673 H 0.30269 0.15869 0.88890
 H674 H 0.34229 0.19728 0.88898
 H675 H 0.33476 0.16539 0.84302
 H676 H 0.34985 0.14974 0.85365
 N677 N 0.82352 0.62762 0.83783
 N678 N 0.83518 0.62782 0.82559
 C679 C 0.83159 0.61506 0.81437
 C680 C 0.81703 0.60648 0.82000
 C681 C 0.81216 0.61473 0.83484
 H682 H 0.83866 0.61251 0.80274
 H683 H 0.80091 0.61193 0.84256
 Cu684 Cu 0.85324 0.64540 0.82518
 Cu685 Cu 0.82318 0.64478 0.85610
 Cu686 Cu 0.85539 0.67618 0.85530
 N687 N 0.87130 0.66299 0.82476
 N688 N 0.87209 0.67497 0.83671
 C689 C 0.88514 0.68596 0.83317
 C690 C 0.89289 0.68052 0.81827
 C691 C 0.88384 0.66599 0.81318
 H692 H 0.88837 0.69738 0.84054
 H693 H 0.88591 0.65856 0.80165
 N694 N 0.83738 0.67527 0.87306
 N695 N 0.82513 0.66331 0.87339
 C696 C 0.81424 0.66677 0.88638
 C697 C 0.81999 0.68152 0.89454
 C698 C 0.83459 0.68665 0.88584
 H699 H 0.80261 0.65956 0.88930
 H700 H 0.84216 0.69819 0.88824
 H701 H 0.83500 0.66434 0.84253
 H702 H 0.84919 0.65000 0.85564
 N703 N 0.82432 0.12800 0.33680
 N704 N 0.83546 0.12914 0.32417
 C705 C 0.83211 0.11651 0.31275
 C706 C 0.81824 0.10704 0.31862
 C707 C 0.81351 0.11461 0.33385
 H708 H 0.83891 0.11461 0.30085
 H709 H 0.80272 0.11100 0.34188
 Cu710 Cu 0.85292 0.14729 0.32332
 Cu711 Cu 0.82393 0.14469 0.35541
 Cu712 Cu 0.85592 0.17612 0.35556
 N713 N 0.87130 0.16449 0.32429
 N714 N 0.87262 0.17551 0.33704
 C715 C 0.88613 0.18617 0.33421
 C716 C 0.89362 0.18147 0.31894
 C717 C 0.88394 0.16777 0.31291
 H718 H 0.88987 0.19688 0.34233
 H719 H 0.88569 0.16109 0.30090
 N720 N 0.83786 0.17470 0.37320
 N721 N 0.82564 0.16272 0.37314
 C722 C 0.81458 0.16591 0.38606
 C723 C 0.82022 0.18048 0.39459
 C724 C 0.83491 0.18581 0.38616
 H725 H 0.80290 0.15866 0.38865
 H726 H 0.84240 0.19735 0.38883
 H727 H 0.83536 0.16511 0.34247
 H728 H 0.85011 0.14989 0.35411
 N729 N 0.67598 0.37183 0.33761
 N730 N 0.66410 0.37154 0.32562
 C731 C 0.66743 0.38429 0.31431
 C732 C 0.68207 0.39293 0.31962
 C733 C 0.68725 0.38473 0.33437
 H734 H 0.66014 0.38676 0.30281
 H735 H 0.69865 0.38758 0.34184
 Cu736 Cu 0.64622 0.35378 0.32550
 Cu737 Cu 0.67664 0.35473 0.35592
 Cu738 Cu 0.64471 0.32303 0.35576
 N739 N 0.62831 0.33603 0.32543
 N740 N 0.62782 0.32400 0.33733
 C741 C 0.61488 0.31284 0.33391
 C742 C 0.60687 0.31825 0.31915
 C743 C 0.61566 0.33292 0.31402
 H744 H 0.61190 0.30134 0.34125
 H745 H 0.61336 0.34037 0.30256
 N746 N 0.66295 0.32429 0.37328
 N747 N 0.67511 0.33635 0.37333
 C748 C 0.68620 0.33310 0.38619
 C749 C 0.68067 0.31841 0.39456
 C750 C 0.66600 0.31307 0.38612
 H751 H 0.69781 0.34043 0.38886
 H752 H 0.65854 0.30150 0.38874
 H753 H 0.66461 0.33490 0.34267
 H754 H 0.65046 0.34920 0.35593
 N755 N 0.67610 0.87165 0.83770
 N756 N 0.66542 0.87028 0.82473
 C757 C 0.66885 0.88300 0.81344
 C758 C 0.68232 0.89277 0.81976
 C759 C 0.68670 0.88527 0.83510
 H760 H 0.66244 0.88471 0.80132
 H761 H 0.69719 0.88906 0.84341
 Cu762 Cu 0.64866 0.85152 0.82318
 Cu763 Cu 0.67638 0.85490 0.85620
 Cu764 Cu 0.64474 0.82316 0.85580
 N765 N 0.62994 0.83471 0.82427
 N766 N 0.62837 0.82372 0.83701
 C767 C 0.61479 0.81319 0.83406
 C768 C 0.60751 0.81797 0.81874
 C769 C 0.61737 0.83157 0.81280
 H770 H 0.61086 0.80252 0.84214
 H771 H 0.61579 0.83832 0.80082
 N772 N 0.66251 0.82472 0.87370
 N773 N 0.67461 0.83681 0.87382
 C774 C 0.68559 0.83365 0.88678
 C775 C 0.68004 0.81896 0.89516
 C776 C 0.66547 0.81355 0.88660
 H777 H 0.69722 0.84097 0.88945
 H778 H 0.65809 0.80189 0.88909
 H779 H 0.66557 0.83409 0.84322
 H780 H 0.65024 0.84938 0.85406
 N781 N 0.17653 0.37140 0.83793
 N782 N 0.16585 0.37028 0.82494
 C783 C 0.16939 0.38313 0.81382
 C784 C 0.18293 0.39273 0.82027
 C785 C 0.18724 0.38498 0.83551
 H786 H 0.16302 0.38504 0.80171
 H787 H 0.19777 0.38856 0.84387
 Cu788 Cu 0.14905 0.35158 0.82301
 Cu789 Cu 0.17663 0.35437 0.85622
 Cu790 Cu 0.14469 0.32294 0.85533
 N791 N 0.13014 0.33492 0.82385
 N792 N 0.12838 0.32389 0.83653
 C793 C 0.11474 0.31349 0.83343
 C794 C 0.10763 0.31837 0.81806
 C795 C 0.11766 0.33191 0.81225
 H796 H 0.11066 0.30281 0.84142
 H797 H 0.11627 0.33868 0.80026
 N798 N 0.16241 0.32407 0.87328
 N799 N 0.17465 0.33603 0.87359
 C800 C 0.18548 0.33264 0.88662
 C801 C 0.17968 0.31795 0.89484
 C802 C 0.16513 0.31277 0.88611
 H803 H 0.19712 0.33984 0.88949
 H804 H 0.15757 0.30121 0.88850
 H805 H 0.16568 0.33382 0.84299
 H806 H 0.15043 0.34915 0.85389
 N807 N 0.17618 0.87168 0.33792
 N808 N 0.16436 0.87154 0.32587
 C809 C 0.16777 0.88441 0.31471
 C810 C 0.18240 0.89298 0.32018
 C811 C 0.18748 0.88461 0.33486
 H812 H 0.16054 0.88701 0.30320
 H813 H 0.19884 0.88738 0.34243
 Cu814 Cu 0.14645 0.85378 0.32549
 Cu815 Cu 0.17672 0.85439 0.35607
 Cu816 Cu 0.14465 0.82283 0.35558
 N817 N 0.12851 0.83606 0.32522
 N818 N 0.12789 0.82400 0.33709
 C819 C 0.11491 0.81291 0.33356
 C820 C 0.10702 0.81840 0.31878
 C821 C 0.11591 0.83303 0.31373
 H822 H 0.11181 0.80142 0.34087
 H823 H 0.11370 0.84052 0.30228
 N824 N 0.16280 0.82390 0.37319
 N825 N 0.17506 0.83585 0.37333
 C826 C 0.18604 0.83248 0.38624
 C827 C 0.18031 0.81783 0.39457
 C828 C 0.16565 0.81264 0.38604
 H829 H 0.19768 0.83972 0.38903
 H830 H 0.15804 0.80116 0.38862
 H831 H 0.16464 0.83469 0.34264
 H832 H 0.15050 0.84898 0.35592
 C833 C 0.26091 0.96323 0.23929
 C834 C 0.25066 0.95448 0.25118
 C835 C 0.23994 0.96344 0.26255
 C836 C 0.23943 0.98183 0.26215
 C837 C 0.24979 0.99093 0.25017
 C838 C 0.26056 0.98160 0.23867
 C839 C 0.27033 0.99087 0.22662
 C840 C 0.26980 1.00894 0.22603
 C841 C 0.25946 1.01847 0.23745
 C842 C 0.24924 1.00939 0.24955
 C843 C 0.22894 0.99135 0.27345
 C844 C 0.22823 1.00942 0.27270
 C845 C 0.23828 1.01871 0.26088
 C846 C 0.23745 1.03706 0.25982
 C847 C 0.24755 1.04578 0.24779
 C848 C 0.25870 1.03684 0.23680
 H849 H 0.27836 0.98423 0.21737
 H850 H 0.27742 1.01535 0.21633
 H851 H 0.22111 0.98492 0.28296
 H852 H 0.21963 1.01601 0.28145
 H853 H 0.25091 0.94038 0.25149
 H854 H 0.24702 1.05987 0.24722
 C855 C 0.23981 0.46359 0.76267
 C856 C 0.24990 0.45467 0.75073
 C857 C 0.25996 0.46347 0.73871
 C858 C 0.25989 0.48186 0.73844
 C859 C 0.24984 0.49114 0.75058
 C860 C 0.23981 0.48199 0.76278
 C861 C 0.23034 0.49146 0.77496
 C862 C 0.23032 0.50955 0.77489
 C863 C 0.23977 0.51889 0.76264
 C864 C 0.24982 0.50961 0.75051
 C865 C 0.26932 0.49120 0.72618
 C866 C 0.26931 0.50929 0.72611
 C867 C 0.25986 0.51876 0.73831
 C868 C 0.25991 0.53715 0.73846
 C869 C 0.24982 0.54608 0.75039
 C870 C 0.23971 0.53729 0.76238
 H871 H 0.22294 0.48498 0.78477
 H872 H 0.22291 0.51614 0.78466
 H873 H 0.27672 0.48462 0.71640
 H874 H 0.27668 0.51577 0.71628
 H875 H 0.24994 0.44057 0.75078
 H876 H 0.24982 0.56019 0.75034
 C877 C 0.76086 -0.03735 0.26146
 C878 C 0.75024 -0.04621 0.24999
 C879 C 0.74000 -0.03735 0.23815
 C880 C 0.74026 -0.01897 0.23772
 C881 C 0.75094 -0.00975 0.24932
 C882 C 0.76131 -0.01896 0.26122
 C883 C 0.77174 -0.00955 0.27261
 C884 C 0.77233 0.00852 0.27207
 C885 C 0.76224 0.01792 0.26035
 C886 C 0.75138 0.00871 0.24891
 C887 C 0.73047 -0.00958 0.22576
 C888 C 0.73089 0.00849 0.22536
 C889 C 0.74113 0.01791 0.23691
 C890 C 0.74177 0.03629 0.23649
 C891 C 0.75281 0.04512 0.24761
 C892 C 0.76295 0.03627 0.25952
 H893 H 0.77961 -0.01606 0.28205
 H894 H 0.78086 0.01504 0.28091
 H895 H 0.72250 -0.01613 0.21643
 H896 H 0.72328 0.01500 0.21572
 H897 H 0.75000 -0.06031 0.25021
 H898 H 0.75327 0.05922 0.24722
 C899 C 0.76138 0.46249 0.76055
 C900 C 0.75114 0.45370 0.74869
 C901 C 0.74031 0.46262 0.73743
 C902 C 0.73965 0.48099 0.73790
 C903 C 0.75002 0.49014 0.74983
 C904 C 0.76091 0.48087 0.76122
 C905 C 0.77068 0.49018 0.77324
 C906 C 0.77005 0.50824 0.77387
 C907 C 0.75960 0.51772 0.76253
 C908 C 0.74937 0.50859 0.75049
 C909 C 0.72902 0.49046 0.72673
 C910 C 0.72822 0.50852 0.72751
 C911 C 0.73832 0.51785 0.73924
 C912 C 0.73744 0.53619 0.74028
 C913 C 0.74755 0.54497 0.75225
 C914 C 0.75875 0.53609 0.76320
 H915 H 0.77880 0.48358 0.78241
 H916 H 0.77768 0.51469 0.78354
 H917 H 0.72113 0.48400 0.71728
 H918 H 0.71952 0.51508 0.71884
 H919 H 0.75151 0.43960 0.74831
 H920 H 0.74698 0.55906 0.75280
 C921 C 0.26041 0.46313 0.26124
 C922 C 0.25031 0.45429 0.24929
 C923 C 0.24013 0.46318 0.23742
 C924 C 0.24011 0.48157 0.23729
 C925 C 0.25018 0.49076 0.24943
 C926 C 0.26029 0.48152 0.26151
 C927 C 0.26972 0.49090 0.27374
 C928 C 0.26967 0.50899 0.27380
 C929 C 0.26018 0.51842 0.26163
 C930 C 0.25013 0.50923 0.24948
 C931 C 0.23059 0.49100 0.22515
 C932 C 0.23056 0.50909 0.22518
 C933 C 0.24005 0.51847 0.23737
 C934 C 0.24001 0.53686 0.23758
 C935 C 0.25010 0.54570 0.24953
 C936 C 0.26019 0.53681 0.26146
 H937 H 0.27716 0.48434 0.28349
 H938 H 0.27706 0.51551 0.28359
 H939 H 0.22316 0.48448 0.21538
 H940 H 0.22311 0.51564 0.21544
 H941 H 0.25036 0.44019 0.24924
 H942 H 0.25010 0.55981 0.24955
 C943 C 0.73948 0.96390 0.76283
 C944 C 0.74958 0.95509 0.75082
 C945 C 0.75972 0.96400 0.73896
 C946 C 0.75973 0.98239 0.73891
 C947 C 0.74970 0.99156 0.75114
 C948 C 0.73957 0.98229 0.76319
 C949 C 0.73010 0.99164 0.77545
 C950 C 0.73019 1.00973 0.77564
 C951 C 0.73978 1.01919 0.76358
 C952 C 0.74981 1.01003 0.75135
 C953 C 0.76923 0.99185 0.72679
 C954 C 0.76937 1.00994 0.72701
 C955 C 0.75998 1.01929 0.73933
 C956 C 0.76021 1.03768 0.73979
 C957 C 0.75015 1.04649 0.75184
 C958 C 0.73989 1.03759 0.76362
 H959 H 0.72263 0.98506 0.78515
 H960 H 0.72278 1.01622 0.78546
 H961 H 0.77657 0.98534 0.71691
 H962 H 0.77684 1.01653 0.71731
 H963 H 0.74955 0.94098 0.75071
 H964 H 0.75029 1.06060 0.75205
 C965 C 0.76045 0.46331 0.23871
 C966 C 0.75006 0.45449 0.25043
 C967 C 0.73927 0.46338 0.26178
 C968 C 0.73879 0.48177 0.26152
 C969 C 0.74930 0.49094 0.24973
 C970 C 0.76017 0.48169 0.23827
 C971 C 0.77012 0.49104 0.22642
 C972 C 0.76965 0.50911 0.22598
 C973 C 0.75919 0.51857 0.23736
 C974 C 0.74881 0.50940 0.24927
 C975 C 0.72818 0.49121 0.27277
 C976 C 0.72755 0.50928 0.27218
 C977 C 0.73777 0.51865 0.26057
 C978 C 0.73702 0.53700 0.25970
 C979 C 0.74726 0.54581 0.24785
 C980 C 0.75847 0.53694 0.23687
 H981 H 0.77827 0.48446 0.21722
 H982 H 0.77740 0.51558 0.21642
 H983 H 0.72019 0.48472 0.28212
 H984 H 0.71886 0.51583 0.28090
 H985 H 0.75029 0.44038 0.25064
 H986 H 0.74677 0.55990 0.24741
 C987 C 0.26113 -0.03756 0.76139
 C988 C 0.25032 -0.04640 0.75008
 C989 C 0.23983 -0.03753 0.73847
 C990 C 0.24006 -0.01914 0.73808
 C991 C 0.25089 -0.00994 0.74955
 C992 C 0.26150 -0.01917 0.76124
 C993 C 0.27206 -0.00978 0.77251
 C994 C 0.27254 0.00830 0.77208
 C995 C 0.26221 0.01772 0.76059
 C996 C 0.25125 0.00852 0.74923
 C997 C 0.23008 -0.00974 0.72628
 C998 C 0.23044 0.00835 0.72596
 C999 C 0.24080 0.01775 0.73741
 C1000 C 0.24136 0.03613 0.73707
 C1001 C 0.25247 0.04495 0.74813
 C1002 C 0.26277 0.03608 0.75990
 H1003 H 0.28012 -0.01631 0.78178
 H1004 H 0.28119 0.01481 0.78082
 H1005 H 0.22202 -0.01627 0.71703
 H1006 H 0.22266 0.01487 0.71645
 H1007 H 0.25013 -0.06051 0.75025
 H1008 H 0.25285 0.05905 0.74782
 C1009 C 0.26181 0.23894 0.96369
 C1010 C 0.24976 0.24922 0.95503
 C1011 C 0.23772 0.25950 0.96373
 C1012 C 0.23755 0.25948 0.98176
 C1013 C 0.24985 0.24930 0.99077
 C1014 C 0.26207 0.23904 0.98171
 C1015 C 0.27443 0.22945 0.99090
 C1016 C 0.27453 0.22955 1.00863
 C1017 C 0.26227 0.23925 1.01788
 C1018 C 0.24994 0.24940 1.00887
 C1019 C 0.22522 0.26909 0.99100
 C1020 C 0.22530 0.26917 1.00873
 C1021 C 0.23772 0.25966 1.01792
 C1022 C 0.23805 0.25986 1.03594
 C1023 C 0.25020 0.24970 1.04461
 C1024 C 0.26220 0.23936 1.03591
 H1025 H 0.28427 0.22187 0.98447
 H1026 H 0.28444 0.22205 1.01501
 H1027 H 0.21528 0.27655 0.98461
 H1028 H 0.21541 0.27669 1.01516
 H1029 H 0.24974 0.24921 0.94120
 H1030 H 0.25030 0.24983 1.05843
 C1031 C 0.26238 0.73948 0.46396
 C1032 C 0.25034 0.74975 0.45529
 C1033 C 0.23824 0.75997 0.46399
 C1034 C 0.23801 0.75991 0.48202
 C1035 C 0.25031 0.74973 0.49103
 C1036 C 0.26259 0.73953 0.48198
 C1037 C 0.27494 0.72995 0.49118
 C1038 C 0.27496 0.72996 0.50891
 C1039 C 0.26263 0.73957 0.51815
 C1040 C 0.25033 0.74975 0.50914
 C1041 C 0.22564 0.76946 0.49125
 C1042 C 0.22565 0.76948 0.50899
 C1043 C 0.23805 0.75995 0.51819
 C1044 C 0.23831 0.76006 0.53622
 C1045 C 0.25041 0.74984 0.54488
 C1046 C 0.26246 0.73956 0.53618
 H1047 H 0.28485 0.72244 0.48476
 H1048 H 0.28487 0.72246 0.51529
 H1049 H 0.21570 0.77692 0.48485
 H1050 H 0.21573 0.77697 0.51541
 H1051 H 0.25035 0.74977 0.44146
 H1052 H 0.25045 0.74989 0.55870
 C1053 C 0.26015 0.76358 -0.03643
 C1054 C 0.24808 0.75339 -0.04512
 C1055 C 0.23681 0.74226 -0.03648
 C1056 C 0.23724 0.74157 -0.01846
 C1057 C 0.24939 0.75188 -0.00943
 C1058 C 0.26096 0.76286 -0.01844
 C1059 C 0.27279 0.77304 -0.00922
 C1060 C 0.27333 0.77241 0.00849
 C1061 C 0.26183 0.76185 0.01770
 C1062 C 0.24983 0.75137 0.00866
 C1063 C 0.22556 0.73121 -0.00924
 C1064 C 0.22601 0.73070 0.00848
 C1065 C 0.23816 0.74051 0.01768
 C1066 C 0.23869 0.74010 0.03570
 C1067 C 0.25060 0.75049 0.04439
 C1068 C 0.26207 0.76137 0.03572
 H1069 H 0.28171 0.78168 -0.01560
 H1070 H 0.28287 0.78035 0.01488
 H1071 H 0.21578 0.72357 -0.01562
 H1072 H 0.21658 0.72264 0.01490
 H1073 H 0.24771 0.75385 -0.05893
 H1074 H 0.25085 0.75019 0.05821
 C1075 C 0.26051 0.26259 0.46409
 C1076 C 0.24854 0.25231 0.45539
 C1077 C 0.23742 0.24101 0.46402
 C1078 C 0.23791 0.24024 0.48202
 C1079 C 0.24997 0.25063 0.49106
 C1080 C 0.26140 0.26178 0.48207
 C1081 C 0.27315 0.27204 0.49130
 C1082 C 0.27379 0.27129 0.50901
 C1083 C 0.26244 0.26054 0.51820
 C1084 C 0.25048 0.25002 0.50915
 C1085 C 0.22636 0.22972 0.49122
 C1086 C 0.22683 0.22915 0.50894
 C1087 C 0.23891 0.23903 0.51815
 C1088 C 0.23947 0.23857 0.53615
 C1089 C 0.25137 0.24894 0.54486
 C1090 C 0.26277 0.25991 0.53621
 H1091 H 0.28194 0.28082 0.48494
 H1092 H 0.28327 0.27928 0.51541
 H1093 H 0.21665 0.22199 0.48483
 H1094 H 0.21749 0.22098 0.51534
 H1095 H 0.24812 0.25283 0.44159
 H1096 H 0.25166 0.24858 0.55867
 C1097 C 0.76216 0.73963 0.96402
 C1098 C 0.75059 0.75040 0.95531
 C1099 C 0.73854 0.76071 0.96395
 C1100 C 0.73798 0.76036 0.98197
 C1101 C 0.74972 0.74958 0.99103
 C1102 C 0.76184 0.73914 0.98204
 C1103 C 0.77337 0.72862 0.99129
 C1104 C 0.77276 0.72802 1.00900
 C1105 C 0.76085 0.73820 1.01819
 C1106 C 0.74924 0.74912 1.00913
 C1107 C 0.72574 0.77017 0.99113
 C1108 C 0.72528 0.76973 1.00885
 C1109 C 0.73701 0.75944 1.01812
 C1110 C 0.73656 0.75883 1.03613
 C1111 C 0.74786 0.74775 1.04482
 C1112 C 0.75999 0.73753 1.03618
 H1113 H 0.78297 0.72069 0.98492
 H1114 H 0.78172 0.71941 1.01542
 H1115 H 0.71628 0.77818 0.98468
 H1116 H 0.71545 0.77739 1.01521
 H1117 H 0.75089 0.75067 0.94149
 H1118 H 0.74746 0.74734 1.05863
 C1119 C 0.76203 0.23863 0.46374
 C1120 C 0.75057 0.24947 0.45498
 C1121 C 0.73858 0.25989 0.46358
 C1122 C 0.73795 0.25957 0.48159
 C1123 C 0.74961 0.24874 0.49070
 C1124 C 0.76168 0.23820 0.48176
 C1125 C 0.77314 0.22764 0.49106
 C1126 C 0.77252 0.22712 0.50878
 C1127 C 0.76066 0.23740 0.51790
 C1128 C 0.74910 0.24834 0.50879
 C1129 C 0.72573 0.26944 0.49070
 C1130 C 0.72522 0.26905 0.50842
 C1131 C 0.73691 0.25875 0.51772
 C1132 C 0.73645 0.25821 0.53573
 C1133 C 0.74771 0.24715 0.54448
 C1134 C 0.75980 0.23683 0.53590
 H1135 H 0.78271 0.21963 0.48473
 H1136 H 0.78143 0.21849 0.51524
 H1137 H 0.71631 0.27747 0.48421
 H1138 H 0.71540 0.27675 0.51474
 H1139 H 0.75091 0.24972 0.44116
 H1140 H 0.74730 0.24681 0.55830
 C1141 C 0.76214 0.26155 0.03598
 C1142 C 0.75078 0.25062 0.04474
 C1143 C 0.73880 0.24024 0.03615
 C1144 C 0.73811 0.24066 0.01814
 C1145 C 0.74965 0.25159 0.00903
 C1146 C 0.76168 0.26212 0.01797
 C1147 C 0.77298 0.27282 0.00867
 C1148 C 0.77225 0.27349 -0.00903
 C1149 C 0.76044 0.26321 -0.01816
 C1150 C 0.74904 0.25213 -0.00905
 C1151 C 0.72595 0.23078 0.00905
 C1152 C 0.72536 0.23129 -0.00867
 C1153 C 0.73690 0.24172 -0.01798
 C1154 C 0.73634 0.24238 -0.03599
 C1155 C 0.74743 0.25361 -0.04473
 C1156 C 0.75947 0.26394 -0.03614
 H1157 H 0.78250 0.28084 0.01499
 H1158 H 0.78102 0.28225 -0.01547
 H1159 H 0.71662 0.22266 0.01554
 H1160 H 0.71558 0.22358 -0.01497
 H1161 H 0.75118 0.25028 0.05856
 H1162 H 0.74695 0.25405 -0.05854
 C1163 C 0.73998 0.73847 0.46420
 C1164 C 0.75106 0.74972 0.45548
 C1165 C 0.76211 0.76104 0.46415
 C1166 C 0.76228 0.76110 0.48217
 C1167 C 0.75102 0.74983 0.49122
 C1168 C 0.73978 0.73852 0.48222
 C1169 C 0.72879 0.72744 0.49145
 C1170 C 0.72862 0.72764 0.50918
 C1171 C 0.73971 0.73864 0.51838
 C1172 C 0.75100 0.74988 0.50933
 C1173 C 0.77324 0.77224 0.49136
 C1174 C 0.77336 0.77215 0.50909
 C1175 C 0.76225 0.76119 0.51834
 C1176 C 0.76221 0.76106 0.53636
 C1177 C 0.75094 0.74999 0.54507
 C1178 C 0.73970 0.73887 0.53640
 H1179 H 0.72018 0.71849 0.48508
 H1180 H 0.71968 0.71903 0.51559
 H1181 H 0.78186 0.78115 0.48494
 H1182 H 0.78227 0.78080 0.51547
 H1183 H 0.75106 0.74969 0.44166
 H1184 H 0.75092 0.75003 0.55890
 C1185 C 1.03717 0.23895 0.26096
 C1186 C 1.04591 0.25025 0.25003
 C1187 C 1.03701 0.26153 0.23917
 C1188 C 1.01870 0.26151 0.23906
 C1189 C 1.00961 0.25019 0.25018
 C1190 C 1.01886 0.23891 0.26122
 C1191 C 1.00957 0.22776 0.27205
 C1192 C 0.99156 0.22789 0.27228
 C1193 C 0.98212 0.23887 0.26140
 C1194 C 0.99122 0.25016 0.25025
 C1195 C 1.00926 0.27262 0.22830
 C1196 C 0.99125 0.27242 0.22821
 C1197 C 0.98197 0.26140 0.23916
 C1198 C 0.96367 0.26115 0.23921
 C1199 C 0.95492 0.25008 0.25037
 C1200 C 0.96382 0.23904 0.26146
 H1201 H 1.01612 0.21881 0.28050
 H1202 H 0.98511 0.21923 0.28108
 H1203 H 1.01570 0.28158 0.21979
 H1204 H 0.98469 0.28105 0.21946
 H1205 H 1.05996 0.25028 0.24997
 H1206 H 0.94087 0.25004 0.25042
 C1207 C 0.46328 0.26114 0.73936
 C1208 C 0.45449 0.25001 0.75044
 C1209 C 0.46337 0.23886 0.76145
 C1210 C 0.48167 0.23862 0.76135
 C1211 C 0.49080 0.24997 0.75029
 C1212 C 0.48158 0.26134 0.73931
 C1213 C 0.49090 0.27244 0.72846
 C1214 C 0.50891 0.27257 0.72853
 C1215 C 0.51831 0.26132 0.73919
 C1216 C 0.50918 0.24995 0.75022
 C1217 C 0.49107 0.22748 0.77212
 C1218 C 0.50908 0.22732 0.77190
 C1219 C 0.51840 0.23857 0.76119
 C1220 C 0.53670 0.23861 0.76099
 C1221 C 0.54549 0.24994 0.75010
 C1222 C 0.53662 0.26127 0.73927
 H1223 H 0.48436 0.28120 0.71980
 H1224 H 0.51538 0.28160 0.72011
 H1225 H 0.48461 0.21874 0.78081
 H1226 H 0.51562 0.21827 0.78025
 H1227 H 0.44045 0.25003 0.75050
 H1228 H 0.55953 0.24994 0.75007
 C1229 C -0.03631 0.26024 0.76186
 C1230 C -0.04515 0.24928 0.75066
 C1231 C -0.03637 0.23890 0.73886
 C1232 C -0.01807 0.23925 0.73826
 C1233 C -0.00887 0.25025 0.74961
 C1234 C -0.01802 0.26084 0.76141
 C1235 C -0.00864 0.27163 0.77251
 C1236 C 0.00934 0.27229 0.77183
 C1237 C 0.01868 0.26193 0.76027
 C1238 C 0.00950 0.25078 0.74905
 C1239 C -0.00875 0.22925 0.72639
 C1240 C 0.00925 0.22977 0.72584
 C1241 C 0.01865 0.24031 0.73715
 C1242 C 0.03694 0.24103 0.73662
 C1243 C 0.04575 0.25230 0.74755
 C1244 C 0.03695 0.26264 0.75937
 H1245 H -0.01511 0.27973 0.78182
 H1246 H 0.01584 0.28110 0.78045
 H1247 H -0.01530 0.22101 0.71728
 H1248 H 0.01572 0.22196 0.71629
 H1249 H -0.05919 0.24896 0.75104
 H1250 H 0.05978 0.25275 0.74711
 C1251 C 0.46371 0.26025 0.26144
 C1252 C 0.45492 0.24915 0.25034
 C1253 C 0.46377 0.23813 0.23916
 C1254 C 0.48208 0.23798 0.23911
 C1255 C 0.49122 0.24928 0.25020
 C1256 C 0.48202 0.26054 0.26135
 C1257 C 0.49135 0.27160 0.27222
 C1258 C 0.50936 0.27180 0.27202
 C1259 C 0.51876 0.26066 0.26122
 C1260 C 0.50962 0.24933 0.25015
 C1261 C 0.49147 0.22700 0.22815
 C1262 C 0.50949 0.22690 0.22824
 C1263 C 0.51882 0.23805 0.23903
 C1264 C 0.53713 0.23809 0.23918
 C1265 C 0.54593 0.24938 0.25011
 C1266 C 0.53707 0.26066 0.26103
 H1267 H 0.48482 0.28026 0.28100
 H1268 H 0.51584 0.28080 0.28046
 H1269 H 0.48498 0.21832 0.21940
 H1270 H 0.51601 0.21797 0.21974
 H1271 H 0.44087 0.24909 0.25040
 H1272 H 0.55997 0.24939 0.25010
 C1273 C 1.03613 0.73828 0.76060
 C1274 C 1.04500 0.74958 0.74975
 C1275 C 1.03622 0.76090 0.73884
 C1276 C 1.01790 0.76094 0.73861
 C1277 C 1.00869 0.74959 0.74961
 C1278 C 1.01782 0.73826 0.76069
 C1279 C 1.00842 0.72708 0.77141
 C1280 C 0.99041 0.72722 0.77147
 C1281 C 0.98109 0.73826 0.76055
 C1282 C 0.99030 0.74960 0.74954
 C1283 C 1.00857 0.77214 0.72784
 C1284 C 0.99056 0.77201 0.72764
 C1285 C 0.98116 0.76094 0.73846
 C1286 C 0.96286 0.76075 0.73839
 C1287 C 0.95399 0.74958 0.74938
 C1288 C 0.96278 0.73845 0.76047
 H1289 H 1.01488 0.71810 0.77988
 H1290 H 0.98388 0.71854 0.78018
 H1291 H 1.01510 0.78114 0.71945
 H1292 H 0.98408 0.78072 0.71890
 H1293 H 1.05904 0.74956 0.74981
 H1294 H 0.93995 0.74956 0.74931
 C1295 C 0.46332 0.76008 0.23827
 C1296 C 0.45443 0.74904 0.24936
 C1297 C 0.46317 0.73867 0.26117
 C1298 C 0.48145 0.73921 0.26197
 C1299 C 0.49069 0.75027 0.25071
 C1300 C 0.48160 0.76075 0.23882
 C1301 C 0.49102 0.77154 0.22775
 C1302 C 0.50898 0.77235 0.22860
 C1303 C 0.51826 0.76213 0.24030
 C1304 C 0.50904 0.75097 0.25146
 C1305 C 0.49070 0.72936 0.27399
 C1306 C 0.50868 0.73007 0.27474
 C1307 C 0.51812 0.74066 0.26350
 C1308 C 0.53639 0.74157 0.26425
 C1309 C 0.54524 0.75285 0.25336
 C1310 C 0.53651 0.76301 0.24137
 H1311 H 0.48460 0.77951 0.21833
 H1312 H 0.51550 0.78117 0.22001
 H1313 H 0.48411 0.72110 0.28306
 H1314 H 0.51508 0.72238 0.28441
 H1315 H 0.44041 0.74863 0.24890
 H1316 H 0.55926 0.75343 0.25395
 C1317 C -0.03642 0.73903 0.23869
 C1318 C -0.04524 0.75004 0.24990
 C1319 C -0.03640 0.76104 0.26106
 C1320 C -0.01810 0.76128 0.26096
 C1321 C -0.00893 0.75006 0.24976
 C1322 C -0.01811 0.73880 0.23865
 C1323 C -0.00876 0.72777 0.22770
 C1324 C 0.00925 0.72764 0.22777
 C1325 C 0.01862 0.73883 0.23849
 C1326 C 0.00945 0.75010 0.24965
 C1327 C -0.00873 0.77229 0.27186
 C1328 C 0.00928 0.77249 0.27160
 C1329 C 0.01864 0.76141 0.26071
 C1330 C 0.03694 0.76145 0.26041
 C1331 C 0.04576 0.75023 0.24939
 C1332 C 0.03692 0.73892 0.23853
 H1333 H -0.01528 0.71909 0.21898
 H1334 H 0.01576 0.71868 0.21928
 H1335 H -0.01523 0.78091 0.28069
 H1336 H 0.01578 0.78146 0.28005
 H1337 H -0.05928 0.75005 0.24995
 H1338 H 0.05980 0.75028 0.24928
 C1339 C 0.46346 0.73892 0.73916
 C1340 C 0.45460 0.74990 0.75038
 C1341 C 0.46340 0.76094 0.76153
 C1342 C 0.48170 0.76124 0.76143
 C1343 C 0.49091 0.75007 0.75020
 C1344 C 0.48177 0.73879 0.73908
 C1345 C 0.49116 0.72786 0.72807
 C1346 C 0.50917 0.72784 0.72809
 C1347 C 0.51850 0.73901 0.73886
 C1348 C 0.50929 0.75019 0.75008
 C1349 C 0.49104 0.77224 0.77236
 C1350 C 0.50904 0.77250 0.77210
 C1351 C 0.51843 0.76148 0.76118
 C1352 C 0.53673 0.76159 0.76088
 C1353 C 0.54560 0.75045 0.74982
 C1354 C 0.53681 0.73918 0.73889
 H1355 H 0.48467 0.71918 0.71932
 H1356 H 0.51572 0.71896 0.71953
 H1357 H 0.48451 0.78080 0.78123
 H1358 H 0.51552 0.78145 0.78059
 H1359 H 0.44056 0.74985 0.75044
 H1360 H 0.55964 0.75055 0.74973
 C1361 C 0.43023 0.29096 0.29292
 C1362 C 0.44060 0.29907 0.28062
 C1363 C 0.45199 0.28917 0.27067
 C1364 C 0.40640 0.30863 0.30986
 C1365 C 0.44288 0.26311 0.28552
 C1366 C 0.43153 0.27300 0.29546
 C1367 C 0.41750 0.30079 0.30225
 C1368 C 0.45311 0.27111 0.27301
 H1369 H 0.43959 0.31294 0.27846
 H1370 H 0.45961 0.29548 0.26089
 H1371 H 0.44346 0.24917 0.28734
 H1372 H 0.42350 0.26658 0.30485
 C1373 C 0.43005 0.79160 0.79322
 C1374 C 0.44040 0.79972 0.78091
 C1375 C 0.45173 0.78984 0.77090
 C1376 C 0.40626 0.80932 0.81019
 C1377 C 0.44263 0.76375 0.78570
 C1378 C 0.43134 0.77362 0.79571
 C1379 C 0.41734 0.80143 0.80258
 C1380 C 0.45282 0.77177 0.77317
 H1381 H 0.43941 0.81360 0.77881
 H1382 H 0.45934 0.79617 0.76112
 H1383 H 0.44321 0.74980 0.78748
 H1384 H 0.42333 0.76719 0.80511
 C1385 C -0.06971 0.29064 0.79372
 C1386 C -0.05907 0.29887 0.78174
 C1387 C -0.04772 0.28905 0.77170
 C1388 C -0.09348 0.30841 0.81065
 C1389 C -0.05738 0.26278 0.78584
 C1390 C -0.06871 0.27260 0.79586
 C1391 C -0.08241 0.30047 0.80309
 C1392 C -0.04687 0.27092 0.77364
 H1393 H -0.05986 0.31280 0.77987
 H1394 H -0.03991 0.29548 0.76214
 H1395 H -0.05704 0.24879 0.78733
 H1396 H -0.07697 0.26609 0.80500
 C1397 C -0.06970 0.79168 0.29276
 C1398 C -0.05942 0.79980 0.28040
 C1399 C -0.04810 0.78992 0.27037
 C1400 C -0.09347 0.80932 0.30981
 C1401 C -0.05708 0.76385 0.28527
 C1402 C -0.06837 0.77372 0.29528
 C1403 C -0.08239 0.80149 0.30216
 C1404 C -0.04695 0.77187 0.27270
 H1405 H -0.06046 0.81368 0.27825
 H1406 H -0.04054 0.79625 0.26055
 H1407 H -0.05648 0.74990 0.28708
 H1408 H -0.07634 0.76729 0.30473
 C1409 C 0.56967 0.71066 0.29563
 C1410 C 0.55884 0.70260 0.28372
 C1411 C 0.54751 0.71261 0.27387
 C1412 C 0.59345 0.69262 0.31217
 C1413 C 0.55760 0.73870 0.28806
 C1414 C 0.56889 0.72869 0.29790
 C1415 C 0.58237 0.70066 0.30477
 C1416 C 0.54690 0.73074 0.27591
 H1417 H 0.55945 0.68868 0.28176
 H1418 H 0.53956 0.70631 0.26434
 H1419 H 0.55742 0.75268 0.28965
 H1420 H 0.57731 0.73506 0.30700
 C1421 C 0.57002 0.20722 0.79185
 C1422 C 0.55926 0.21964 0.79953
 C1423 C 0.54795 0.22956 0.78956
 C1424 C 0.59365 0.19038 0.80975
 C1425 C 0.55793 0.21441 0.76427
 C1426 C 0.56920 0.20451 0.77424
 C1427 C 0.58264 0.19793 0.80179
 C1428 C 0.54730 0.22705 0.77185
 H1429 H 0.55990 0.22193 0.81313
 H1430 H 0.54001 0.23944 0.79554
 H1431 H 0.55769 0.21246 0.75061
 H1432 H 0.57755 0.19502 0.76816
 C1433 C 1.06910 0.70675 0.79170
 C1434 C 1.06849 0.70412 0.77406
 C1435 C 1.05734 0.71407 0.76402
 C1436 C 1.09245 0.68986 0.80989
 C1437 C 1.04708 0.72911 0.78925
 C1438 C 1.05825 0.71914 0.79931
 C1439 C 1.08159 0.69743 0.80176
 C1440 C 1.04663 0.72669 0.77153
 H1441 H 1.07690 0.69464 0.76804
 H1442 H 1.05725 0.71216 0.75034
 H1443 H 1.03906 0.73896 0.79520
 H1444 H 1.05871 0.72134 0.81293
 C1445 C 1.07035 0.20719 0.29167
 C1446 C 1.05965 0.21963 0.29940
 C1447 C 1.04844 0.22970 0.28948
 C1448 C 1.09341 0.18985 0.30987
 C1449 C 1.05842 0.21473 0.26411
 C1450 C 1.06961 0.20467 0.27402
 C1451 C 1.08272 0.19761 0.30166
 C1452 C 1.04781 0.22734 0.27176
 H1453 H 1.06021 0.22176 0.31303
 H1454 H 1.04052 0.23956 0.29553
 H1455 H 1.05821 0.21288 0.25042
 H1456 H 1.07790 0.19516 0.26790
 C1457 C 0.56980 0.29268 0.70835
 C1458 C 0.56893 0.29541 0.72597
 C1459 C 0.55769 0.28551 0.73594
 C1460 C 0.59351 0.30941 0.69050
 C1461 C 0.54779 0.27035 0.71068
 C1462 C 0.55908 0.28026 0.70069
 C1463 C 0.58245 0.30190 0.69842
 C1464 C 0.54713 0.27286 0.72839
 H1465 H 0.57723 0.30490 0.73203
 H1466 H 0.55744 0.28747 0.74961
 H1467 H 0.53989 0.26046 0.70470
 H1468 H 0.55974 0.27796 0.68709
 C1469 C 0.56981 0.79351 0.20967
 C1470 C 0.55975 0.78029 0.20246
 C1471 C 0.54845 0.77065 0.21268
 C1472 C 0.59354 0.80985 0.19149
 C1473 C 0.55701 0.78767 0.23727
 C1474 C 0.56827 0.79730 0.22706
 C1475 C 0.58248 0.80251 0.19956
 C1476 C 0.54710 0.77423 0.23017
 H1477 H 0.56093 0.77718 0.18904
 H1478 H 0.54106 0.76016 0.20706
 H1479 H 0.55622 0.79047 0.25078
 H1480 H 0.57606 0.80743 0.23279
 C1481 C 1.07003 0.29308 0.20821
 C1482 C 1.05941 0.28056 0.20057
 C1483 C 1.04819 0.27059 0.21057
 C1484 C 1.09357 0.30997 0.19028
 C1485 C 1.05796 0.28588 0.23581
 C1486 C 1.06914 0.29583 0.22582
 C1487 C 1.08259 0.30239 0.19825
 C1488 C 1.04748 0.27314 0.22827
 H1489 H 1.06010 0.27823 0.18697
 H1490 H 1.04037 0.26063 0.20461
 H1491 H 1.05768 0.28786 0.24947
 H1492 H 1.07738 0.30539 0.23187
 C1493 C 1.06941 0.79256 0.70809
 C1494 C 1.05874 0.78014 0.70037
 C1495 C 1.04751 0.77012 0.71031
 C1496 C 1.09268 0.80974 0.69006
 C1497 C 1.05738 0.78513 0.73566
 C1498 C 1.06858 0.79514 0.72573
 C1499 C 1.08187 0.80202 0.69812
 C1500 C 1.04682 0.77251 0.72803
 H1501 H 1.05937 0.77796 0.68675
 H1502 H 1.03962 0.76026 0.70427
 H1503 H 1.05712 0.78702 0.74933
 H1504 H 1.07684 0.80465 0.73184
 C1505 C 0.43015 0.70804 0.70786
 C1506 C 0.44065 0.69999 0.72008
 C1507 C 0.45199 0.70995 0.72996
 C1508 C 0.40650 0.69031 0.69086
 C1509 C 0.44255 0.73596 0.71519
 C1510 C 0.43126 0.72601 0.70533
 C1511 C 0.41751 0.69815 0.69853
 C1512 C 0.45292 0.72802 0.72764
 H1513 H 0.43981 0.68611 0.72223
 H1514 H 0.45974 0.70367 0.73968
 H1515 H 0.44300 0.74991 0.71337
 H1516 H 0.42312 0.73239 0.69598
 C1517 C 0.43036 0.20748 0.20775
 C1518 C 0.44075 0.19935 0.22002
 C1519 C 0.45214 0.20922 0.22994
 C1520 C 0.40656 0.18998 0.19073
 C1521 C 0.44297 0.23529 0.21511
 C1522 C 0.43164 0.22543 0.20521
 C1523 C 0.41765 0.19770 0.19841
 C1524 C 0.45322 0.22728 0.22760
 H1525 H 0.43977 0.18548 0.22218
 H1526 H 0.45978 0.20289 0.23970
 H1527 H 0.44353 0.24924 0.21328
 H1528 H 0.42359 0.23187 0.19583
 C1529 C -0.06993 0.70850 0.20729
 C1530 C -0.05951 0.70034 0.21951
 C1531 C -0.04810 0.71018 0.22942
 C1532 C -0.09381 0.69093 0.19046
 C1533 C -0.05725 0.73629 0.21464
 C1534 C -0.06863 0.72646 0.20475
 C1535 C -0.08270 0.69873 0.19803
 C1536 C -0.04700 0.72824 0.22710
 H1537 H -0.06051 0.68647 0.22165
 H1538 H -0.04044 0.70383 0.23915
 H1539 H -0.05667 0.75024 0.21283
 H1540 H -0.07669 0.73292 0.19540
 C1541 C -0.06999 0.20844 0.70745
 C1542 C -0.05874 0.20017 0.71888
 C1543 C -0.04730 0.21002 0.72875
 C1544 C -0.09337 0.19069 0.69010
 C1545 C -0.05816 0.23638 0.71562
 C1546 C -0.06957 0.22655 0.70576
 C1547 C -0.08250 0.19857 0.69795
 C1548 C -0.04701 0.22820 0.72723
 H1549 H -0.05907 0.18618 0.72040
 H1550 H -0.03897 0.20355 0.73786
 H1551 H -0.05823 0.25041 0.71444
 H1552 H -0.07829 0.23310 0.69707
 C1553 C 0.29069 0.42972 0.29314
 C1554 C 0.27261 0.42963 0.29431
 C1555 C 0.26279 0.44093 0.28428
 C1556 C 0.30858 0.40612 0.31017
 C1557 C 0.28910 0.45274 0.27210
 C1558 C 0.29893 0.44140 0.28213
 C1559 C 0.30061 0.41711 0.30254
 C1560 C 0.27095 0.45250 0.27305
 H1561 H 0.26610 0.42057 0.30269
 H1562 H 0.24880 0.44045 0.28503
 H1563 H 0.29559 0.46140 0.26330
 H1564 H 0.31291 0.44147 0.28103
 C1565 C 0.29179 -0.07089 0.79301
 C1566 C 0.27381 -0.07019 0.79511
 C1567 C 0.26390 -0.05892 0.78513
 C1568 C 0.30979 -0.09435 0.81011
 C1569 C 0.28994 -0.04876 0.77108
 C1570 C 0.29986 -0.06006 0.78107
 C1571 C 0.30175 -0.08343 0.80243
 C1572 C 0.27188 -0.04818 0.77301
 H1573 H 0.26743 -0.07860 0.80421
 H1574 H 0.24996 -0.05878 0.78662
 H1575 H 0.29627 -0.04076 0.76160
 H1576 H 0.31375 -0.06062 0.77924
 C1577 C 0.79202 0.42920 0.79223
 C1578 C 0.77396 0.42927 0.79371
 C1579 C 0.76405 0.44050 0.78370
 C1580 C 0.80994 0.40581 0.80946
 C1581 C 0.79022 0.45192 0.77087
 C1582 C 0.80015 0.44065 0.78090
 C1583 C 0.80199 0.41672 0.80170
 C1584 C 0.77209 0.45183 0.77216
 H1585 H 0.76754 0.42041 0.80237
 H1586 H 0.75007 0.44017 0.78474
 H1587 H 0.79660 0.46043 0.76187
 H1588 H 0.81411 0.44062 0.77958
 C1589 C 0.79079 -0.07085 0.29360
 C1590 C 0.77279 -0.07001 0.29542
 C1591 C 0.76311 -0.05866 0.28531
 C1592 C 0.80839 -0.09465 0.31066
 C1593 C 0.78945 -0.04864 0.27171
 C1594 C 0.79913 -0.06002 0.28184
 C1595 C 0.80051 -0.08358 0.30304
 C1596 C 0.77136 -0.04796 0.27333
 H1597 H 0.76619 -0.07841 0.30439
 H1598 H 0.74915 -0.05843 0.28657
 H1599 H 0.79598 -0.04067 0.26233
 H1600 H 0.81304 -0.06067 0.28023
 C1601 C 0.29003 0.57030 0.70624
 C1602 C 0.29832 0.55858 0.71719
 C1603 C 0.28854 0.54732 0.72732
 C1604 C 0.30794 0.59391 0.68933
 C1605 C 0.26217 0.55926 0.71532
 C1606 C 0.27195 0.57048 0.70519
 C1607 C 0.29993 0.58290 0.69687
 C1608 C 0.27039 0.54768 0.72652
 H1609 H 0.31231 0.55843 0.71818
 H1610 H 0.29506 0.53865 0.73610
 H1611 H 0.24818 0.55981 0.71467
 H1612 H 0.26541 0.57958 0.69685
 C1613 C 0.28961 1.07010 0.20537
 C1614 C 0.29760 1.05896 0.21710
 C1615 C 0.28759 1.04765 0.22697
 C1616 C 0.30770 1.09386 0.18884
 C1617 C 0.26162 1.05834 0.21314
 C1618 C 0.27163 1.06962 0.20329
 C1619 C 0.29964 1.08279 0.19624
 C1620 C 0.26951 1.04735 0.22513
 H1621 H 0.31149 1.05932 0.21891
 H1622 H 0.29385 1.03947 0.23635
 H1623 H 0.24768 1.05840 0.21169
 H1624 H 0.26530 1.07825 0.19433
 C1625 C 0.78963 0.57032 0.20583
 C1626 C 0.77165 0.56994 0.20368
 C1627 C 0.76156 0.55863 0.21341
 C1628 C 0.80789 0.59397 0.18935
 C1629 C 0.78743 0.54775 0.22727
 C1630 C 0.79753 0.55908 0.21751
 C1631 C 0.79976 0.58296 0.19674
 C1632 C 0.76937 0.54753 0.22534
 H1633 H 0.76540 0.57865 0.19475
 H1634 H 0.74763 0.55875 0.21190
 H1635 H 0.79363 0.53946 0.23660
 H1636 H 0.81141 0.55936 0.21936
 C1637 C 0.79068 1.07115 0.70815
 C1638 C 0.77260 1.07142 0.70704
 C1639 C 0.76271 1.06011 0.71696
 C1640 C 0.80875 1.09419 0.69062
 C1641 C 0.78895 1.04796 0.72902
 C1642 C 0.79885 1.05931 0.71908
 C1643 C 0.80069 1.08349 0.69855
 C1644 C 0.77081 1.04834 0.72807
 H1645 H 0.76613 1.08060 0.69872
 H1646 H 0.74872 1.06069 0.71622
 H1647 H 0.79538 1.03917 0.73774
 H1648 H 0.81283 1.05909 0.72014
 C1649 C 0.70656 0.57058 0.29135
 C1650 C 0.71966 0.56037 0.29860
 C1651 C 0.72927 0.54896 0.28840
 C1652 C 0.69019 0.59445 0.30951
 C1653 C 0.71248 0.55771 0.26376
 C1654 C 0.70288 0.56908 0.27396
 C1655 C 0.69756 0.58333 0.30145
 C1656 C 0.72579 0.54764 0.27090
 H1657 H 0.72270 0.56152 0.31202
 H1658 H 0.73968 0.54148 0.29403
 H1659 H 0.70976 0.55697 0.25025
 H1660 H 0.69286 0.57699 0.26820
 C1661 C 0.70981 1.07102 0.79578
 C1662 C 0.72788 1.07093 0.79700
 C1663 C 0.73764 1.05959 0.78691
 C1664 C 0.69188 1.09476 0.81265
 C1665 C 0.71127 1.04809 0.77459
 C1666 C 0.70151 1.05946 0.78468
 C1667 C 0.69992 1.08371 0.80514
 C1668 C 0.72942 1.04816 0.77557
 H1669 H 0.73444 1.07989 0.80544
 H1670 H 0.75163 1.05994 0.78768
 H1671 H 0.70474 1.03957 0.76569
 H1672 H 0.68754 1.05954 0.78353
 C1673 C 0.20943 0.57076 0.79434
 C1674 C 0.20121 0.55894 0.78347
 C1675 C 0.21105 0.54760 0.77342
 C1676 C 0.19134 0.59411 0.81156
 C1677 C 0.23736 0.55970 0.78530
 C1678 C 0.22752 0.57100 0.79535
 C1679 C 0.19945 0.58327 0.80382
 C1680 C 0.22920 0.54797 0.77421
 H1681 H 0.18722 0.55873 0.78251
 H1682 H 0.20456 0.53883 0.76473
 H1683 H 0.25135 0.56027 0.78593
 H1684 H 0.23402 0.58016 0.80364
 C1685 C 0.20702 1.07074 0.29147
 C1686 C 0.20337 1.06927 0.27407
 C1687 C 0.21298 1.05790 0.26387
 C1688 C 0.19020 1.09408 0.30994
 C1689 C 0.22977 1.04916 0.28851
 C1690 C 0.22015 1.06056 0.29871
 C1691 C 0.19780 1.08328 0.30167
 C1692 C 0.22627 1.04780 0.27101
 H1693 H 0.19332 1.07715 0.26832
 H1694 H 0.21026 1.05716 0.25036
 H1695 H 0.24017 1.04167 0.29416
 H1696 H 0.22315 1.06168 0.31214
 C1697 C 0.71018 0.42916 0.70552
 C1698 C 0.72815 0.43008 0.70343
 C1699 C 0.73789 0.44143 0.71346
 C1700 C 0.69245 0.40530 0.68873
 C1701 C 0.71167 0.45131 0.72747
 C1702 C 0.70193 0.43993 0.71743
 C1703 C 0.70041 0.41640 0.69621
 C1704 C 0.72973 0.45205 0.72561
 H1705 H 0.73468 0.42173 0.69433
 H1706 H 0.75183 0.44171 0.71202
 H1707 H 0.70522 0.45921 0.73699
 H1708 H 0.68805 0.43922 0.71925
 C1709 C 0.70972 -0.07056 0.20614
 C1710 C 0.70147 -0.05914 0.21746
 C1711 C 0.71129 -0.04789 0.22757
 C1712 C 0.69185 -0.09418 0.18918
 C1713 C 0.73758 -0.05922 0.21482
 C1714 C 0.72778 -0.07045 0.20472
 C1715 C 0.69983 -0.08316 0.19674
 C1716 C 0.72942 -0.04795 0.22638
 H1717 H 0.68751 -0.05922 0.21874
 H1718 H 0.70481 -0.03942 0.23660
 H1719 H 0.75157 -0.05953 0.21386
 H1720 H 0.73429 -0.07929 0.19609
 C1721 C 0.21005 0.42983 0.20536
 C1722 C 0.20175 0.44151 0.21638
 C1723 C 0.21152 0.45284 0.22646
 C1724 C 0.19216 0.40614 0.18853
 C1725 C 0.23789 0.44106 0.21426
 C1726 C 0.22813 0.42976 0.20420
 C1727 C 0.20017 0.41717 0.19604
 C1728 C 0.22967 0.45259 0.22553
 H1729 H 0.18777 0.44158 0.21747
 H1730 H 0.20498 0.46147 0.23528
 H1731 H 0.25189 0.44059 0.21353
 H1732 H 0.23469 0.42071 0.19580
 C1733 C 0.20897 -0.07067 0.70692
 C1734 C 0.20091 -0.05924 0.71836
 C1735 C 0.21091 -0.04801 0.72834
 C1736 C 0.19089 -0.09392 0.68969
 C1737 C 0.23699 -0.05944 0.71523
 C1738 C 0.22700 -0.07063 0.70527
 C1739 C 0.19892 -0.08310 0.69746
 C1740 C 0.22903 -0.04812 0.72688
 H1741 H 0.18697 -0.05924 0.71981
 H1742 H 0.20460 -0.03951 0.73743
 H1743 H 0.25095 -0.05979 0.71406
 H1744 H 0.23336 -0.07948 0.69652
 C1745 C 0.29246 0.29330 0.43129
 C1746 C 0.29990 0.28009 0.44116
 C1747 C 0.28961 0.27041 0.45233
 C1748 C 0.31069 0.31013 0.40808
 C1749 C 0.26451 0.28733 0.44398
 C1750 C 0.27479 0.29700 0.43285
 C1751 C 0.30264 0.30250 0.41888
 C1752 C 0.27183 0.27392 0.45373
 H1753 H 0.31354 0.27703 0.43994
 H1754 H 0.29539 0.25992 0.45957
 H1755 H 0.25077 0.29006 0.44478
 H1756 H 0.26888 0.30710 0.42519
 C1757 C 0.29249 0.79397 -0.06917
 C1758 C 0.29980 0.78077 -0.05919
 C1759 C 0.28938 0.77117 -0.04806
 C1760 C 0.31090 0.81057 -0.09241
 C1761 C 0.26442 0.78819 -0.05664
 C1762 C 0.27483 0.79776 -0.06773
 C1763 C 0.30278 0.80304 -0.08158
 C1764 C 0.27160 0.77477 -0.04680
 H1765 H 0.31343 0.77766 -0.06028
 H1766 H 0.29506 0.76069 -0.04073
 H1767 H 0.25070 0.79100 -0.05594
 H1768 H 0.26903 0.80788 -0.07546
 C1769 C 0.79135 0.29474 -0.06899
 C1770 C 0.79883 0.28159 -0.05906
 C1771 C 0.78856 0.27184 -0.04793
 C1772 C 0.80964 0.31147 -0.09224
 C1773 C 0.76338 0.28858 -0.05641
 C1774 C 0.77365 0.29830 -0.06751
 C1775 C 0.80153 0.30393 -0.08141
 C1776 C 0.77074 0.27523 -0.04660
 H1777 H 0.81250 0.27864 -0.06020
 H1778 H 0.79438 0.26142 -0.04063
 H1779 H 0.74963 0.29123 -0.05566
 H1780 H 0.76771 0.30836 -0.07520
 C1781 C 0.79307 0.79273 0.43129
 C1782 C 0.80101 0.78023 0.44167
 C1783 C 0.79102 0.77021 0.45283
 C1784 C 0.81087 0.80992 0.40800
 C1785 C 0.76520 0.78542 0.44350
 C1786 C 0.77518 0.79541 0.43237
 C1787 C 0.80299 0.80216 0.41885
 C1788 C 0.77304 0.77269 0.45373
 H1789 H 0.81483 0.77797 0.44085
 H1790 H 0.79721 0.76028 0.46048
 H1791 H 0.75132 0.78736 0.44393
 H1792 H 0.76889 0.80497 0.42434
 C1793 C 0.70503 0.28968 0.56850
 C1794 C 0.71687 0.29755 0.55741
 C1795 C 0.72671 0.28735 0.54626
 C1796 C 0.68826 0.30818 0.59163
 C1797 C 0.71269 0.26143 0.55707
 C1798 C 0.70286 0.27162 0.56819
 C1799 C 0.69580 0.29993 0.58087
 C1800 C 0.72474 0.26921 0.54608
 H1801 H 0.71878 0.31150 0.55768
 H1802 H 0.73619 0.29352 0.53809
 H1803 H 0.71119 0.24743 0.55724
 H1804 H 0.69384 0.26539 0.57681
 C1805 C 0.70493 0.79013 1.06893
 C1806 C 0.70287 0.77206 1.06863
 C1807 C 0.71279 0.76191 1.05753
 C1808 C 0.68802 0.80856 1.09205
 C1809 C 0.72665 0.78792 1.04671
 C1810 C 0.71673 0.79807 1.05785
 C1811 C 0.69560 0.80034 1.08129
 C1812 C 0.72480 0.76976 1.04654
 H1813 H 0.69388 0.76578 1.07724
 H1814 H 0.71136 0.74791 1.05770
 H1815 H 0.73609 0.79415 1.03854
 H1816 H 0.71854 0.81202 1.05810
 C1817 C 0.20578 0.29069 1.06855
 C1818 C 0.20459 0.27254 1.06884
 C1819 C 0.21474 0.26253 1.05782
 C1820 C 0.18858 0.30900 1.09154
 C1821 C 0.22709 0.28880 1.04591
 C1822 C 0.21694 0.29882 1.05696
 C1823 C 0.19628 0.30082 1.08083
 C1824 C 0.22611 0.27058 1.04634
 H1825 H 0.19610 0.26611 1.07783
 H1826 H 0.21397 0.24848 1.05843
 H1827 H 0.23601 0.29520 1.03731
 H1828 H 0.21806 0.31285 1.05673
 C1829 C 0.20609 0.79078 0.56904
 C1830 C 0.21727 0.79895 0.55750
 C1831 C 0.22738 0.78897 0.54635
 C1832 C 0.18890 0.80897 0.59216
 C1833 C 0.21494 0.76266 0.55807
 C1834 C 0.20484 0.77262 0.56918
 C1835 C 0.19661 0.80086 0.58139
 C1836 C 0.22634 0.77075 0.54664
 H1837 H 0.21846 0.81297 0.55738
 H1838 H 0.23632 0.79541 0.53781
 H1839 H 0.21412 0.74861 0.55859
 H1840 H 0.19633 0.76616 0.57813
 C1841 C 0.29474 0.70896 0.56892
 C1842 C 0.29597 0.72711 0.56905
 C1843 C 0.28586 0.73704 0.55796
 C1844 C 0.31173 0.69079 0.59213
 C1845 C 0.27348 0.71068 0.54625
 C1846 C 0.28361 0.70075 0.55737
 C1847 C 0.30413 0.69891 0.58132
 C1848 C 0.27446 0.72891 0.54656
 H1849 H 0.30446 0.73360 0.57800
 H1850 H 0.28666 0.75109 0.55847
 H1851 H 0.26456 0.70422 0.53771
 H1852 H 0.28246 0.68672 0.55723
 C1853 C 0.29467 0.20904 1.06871
 C1854 C 0.28352 0.20074 1.05724
 C1855 C 0.27333 0.21058 1.04611
 C1856 C 0.31176 0.19101 1.09193
 C1857 C 0.28567 0.23704 1.05764
 C1858 C 0.29584 0.22720 1.06875
 C1859 C 0.30413 0.19908 1.08112
 C1860 C 0.27427 0.22881 1.04631
 H1861 H 0.28241 0.18670 1.05719
 H1862 H 0.26439 0.20405 1.03764
 H1863 H 0.28641 0.25109 1.05809
 H1864 H 0.30433 0.23377 1.07765
 C1865 C 0.79232 0.70725 1.06912
 C1866 C 0.79960 0.72050 1.05920
 C1867 C 0.78919 0.73006 1.04800
 C1868 C 0.81075 0.69042 1.09221
 C1869 C 0.76430 0.71296 1.05644
 C1870 C 0.77469 0.70342 1.06760
 C1871 C 0.80262 0.69809 1.08147
 C1872 C 0.77146 0.72638 1.04662
 H1873 H 0.81320 0.72367 1.06038
 H1874 H 0.79485 0.74056 1.04071
 H1875 H 0.75060 0.71011 1.05567
 H1876 H 0.76890 0.69329 1.07530
 C1877 C 0.79194 0.20659 0.56902
 C1878 C 0.79930 0.21973 0.55902
 C1879 C 0.78895 0.22929 0.54778
 C1880 C 0.81024 0.19002 0.59240
 C1881 C 0.76395 0.21239 0.55633
 C1882 C 0.77429 0.20285 0.56753
 C1883 C 0.80217 0.19755 0.58153
 C1884 C 0.77119 0.22569 0.54641
 H1885 H 0.81291 0.22283 0.56018
 H1886 H 0.79464 0.23976 0.54047
 H1887 H 0.75022 0.20965 0.55562
 H1888 H 0.76845 0.19281 0.57530
 C1889 C 0.70866 0.70668 0.43178
 C1890 C 0.72656 0.70398 0.43263
 C1891 C 0.73667 0.71404 0.44358
 C1892 C 0.69044 0.68949 0.40880
 C1893 C 0.71097 0.72935 0.45314
 C1894 C 0.70085 0.71927 0.44217
 C1895 C 0.69855 0.69720 0.41951
 C1896 C 0.72896 0.72684 0.45384
 H1897 H 0.73274 0.69435 0.42458
 H1898 H 0.75055 0.71207 0.44386
 H1899 H 0.70487 0.73934 0.46082
 H1900 H 0.68703 0.72154 0.44151
 C1901 C 0.70498 0.21065 -0.06847
 C1902 C 0.70263 0.22870 -0.06816
 C1903 C 0.71247 0.23899 -0.05717
 C1904 C 0.68828 0.19200 -0.09147
 C1905 C 0.72684 0.21317 -0.04646
 C1906 C 0.71699 0.20288 -0.05749
 C1907 C 0.69578 0.20032 -0.08076
 C1908 C 0.72471 0.23130 -0.04631
 H1909 H 0.69345 0.23485 -0.07668
 H1910 H 0.71079 0.25297 -0.05733
 H1911 H 0.73642 0.20707 -0.03836
 H1912 H 0.71901 0.18894 -0.05771
 C1913 C 0.20539 0.71105 -0.06942
 C1914 C 0.20322 0.72912 -0.06902
 C1915 C 0.21307 0.73923 -0.05787
 C1916 C 0.18851 0.69262 -0.09249
 C1917 C 0.22710 0.71320 -0.04721
 C1918 C 0.21725 0.70309 -0.05840
 C1919 C 0.19609 0.70086 -0.08177
 C1920 C 0.22513 0.73135 -0.04693
 H1921 H 0.19419 0.73542 -0.07757
 H1922 H 0.21155 0.75323 -0.05797
 H1923 H 0.23657 0.70695 -0.03909
 H1924 H 0.21914 0.68914 -0.05871
 C1925 C 0.20629 0.20970 0.43096
 C1926 C 0.20393 0.22775 0.43148
 C1927 C 0.21367 0.23788 0.44269
 C1928 C 0.18956 0.19140 0.40772
 C1929 C 0.22796 0.21192 0.45318
 C1930 C 0.21821 0.20179 0.44194
 C1931 C 0.19710 0.19954 0.41853
 C1932 C 0.22582 0.23005 0.45356
 H1933 H 0.19484 0.23402 0.42296
 H1934 H 0.21200 0.25186 0.44269
 H1935 H 0.23750 0.20572 0.46127
 H1936 H 0.22023 0.18785 0.44155
 C1937 C 0.29005 0.42993 0.70665
 C1938 C 0.29835 0.44171 0.71752
 C1939 C 0.28857 0.45308 0.72761
 C1940 C 0.30797 0.40640 0.68949
 C1941 C 0.26219 0.44115 0.71571
 C1942 C 0.27196 0.42981 0.70564
 C1943 C 0.29995 0.41733 0.69719
 C1944 C 0.27042 0.45280 0.72683
 H1945 H 0.31233 0.44183 0.71848
 H1946 H 0.29511 0.46180 0.73631
 H1947 H 0.24820 0.44065 0.71509
 H1948 H 0.26541 0.42070 0.69734
 C1949 C 0.29125 0.92972 0.20746
 C1950 C 0.27320 0.92995 0.20601
 C1951 C 0.26338 0.94126 0.21605
 C1952 C 0.30898 0.90605 0.19031
 C1953 C 0.28965 0.95246 0.22883
 C1954 C 0.29948 0.94111 0.21878
 C1955 C 0.30111 0.91708 0.19801
 C1956 C 0.27152 0.95252 0.22759
 H1957 H 0.26670 0.92112 0.19737
 H1958 H 0.24940 0.94105 0.21505
 H1959 H 0.29610 0.96091 0.23784
 H1960 H 0.31344 0.94095 0.22008
 C1961 C 0.79103 0.43004 0.20688
 C1962 C 0.79917 0.44132 0.21836
 C1963 C 0.78926 0.45259 0.22843
 C1964 C 0.80897 0.40653 0.18975
 C1965 C 0.76309 0.44150 0.21534
 C1966 C 0.77300 0.43028 0.20529
 C1967 C 0.80099 0.41750 0.19742
 C1968 C 0.77115 0.45267 0.22703
 H1969 H 0.81312 0.44115 0.21978
 H1970 H 0.79564 0.46095 0.23757
 H1971 H 0.74912 0.44130 0.21424
 H1972 H 0.76656 0.42152 0.19653
 C1973 C 0.78993 0.93074 0.70677
 C1974 C 0.79819 0.94226 0.71793
 C1975 C 0.78838 0.95356 0.72806
 C1976 C 0.80776 0.90716 0.68966
 C1977 C 0.76205 0.94200 0.71569
 C1978 C 0.77186 0.93075 0.70557
 C1979 C 0.79981 0.91816 0.69731
 C1980 C 0.77023 0.95343 0.72705
 H1981 H 0.81216 0.94223 0.71909
 H1982 H 0.79487 0.96207 0.73699
 H1983 H 0.74806 0.94159 0.71492
 H1984 H 0.76534 0.92178 0.69710
 C1985 C 0.70716 0.56990 0.70870
 C1986 C 0.70331 0.56825 0.72605
 C1987 C 0.71285 0.55683 0.73622
 C1988 C 0.69080 0.59384 0.69064
 C1989 C 0.72991 0.54834 0.71163
 C1990 C 0.72037 0.55981 0.70146
 C1991 C 0.69818 0.58269 0.69864
 C1992 C 0.72626 0.54686 0.72909
 H1993 H 0.69320 0.57608 0.73181
 H1994 H 0.71001 0.55597 0.74971
 H1995 H 0.74040 0.54095 0.70600
 H1996 H 0.72354 0.56109 0.68807
 C1997 C 0.71080 0.06976 0.20527
 C1998 C 0.72881 0.06945 0.20333
 C1999 C 0.73884 0.05812 0.21313
 C2000 C 0.69258 0.09330 0.18850
 C2001 C 0.71286 0.04708 0.22663
 C2002 C 0.70282 0.05844 0.21682
 C2003 C 0.70070 0.08235 0.19605
 C2004 C 0.73095 0.04692 0.22491
 H2005 H 0.73512 0.07821 0.19450
 H2006 H 0.75279 0.05829 0.21177
 H2007 H 0.70659 0.03872 0.23585
 H2008 H 0.68890 0.05865 0.21849
 C2009 C 0.20993 0.57027 0.20547
 C2010 C 0.22802 0.57029 0.20434
 C2011 C 0.23778 0.55900 0.21444
 C2012 C 0.19209 0.59395 0.18850
 C2013 C 0.21140 0.54731 0.22659
 C2014 C 0.20163 0.55864 0.21648
 C2015 C 0.20006 0.58292 0.19608
 C2016 C 0.22955 0.54749 0.22569
 H2017 H 0.23458 0.57931 0.19595
 H2018 H 0.25177 0.55943 0.21372
 H2019 H 0.20486 0.53870 0.23540
 H2020 H 0.18765 0.55860 0.21755
 C2021 C 0.21008 0.06971 0.70623
 C2022 C 0.22807 0.06932 0.70406
 C2023 C 0.23820 0.05796 0.71374
 C2024 C 0.19183 0.09335 0.68961
 C2025 C 0.21235 0.04700 0.72755
 C2026 C 0.20222 0.05840 0.71787
 C2027 C 0.19992 0.08236 0.69713
 C2028 C 0.23042 0.04679 0.72561
 H2029 H 0.23430 0.07806 0.69515
 H2030 H 0.25213 0.05809 0.71221
 H2031 H 0.20618 0.03866 0.73685
 H2032 H 0.18833 0.05866 0.71972
 C2033 C 0.29016 0.57003 0.29372
 C2034 C 0.27208 0.57009 0.29483
 C2035 C 0.26235 0.55885 0.28469
 C2036 C 0.30792 0.59369 0.31069
 C2037 C 0.28877 0.54714 0.27251
 C2038 C 0.29851 0.55841 0.28267
 C2039 C 0.29998 0.58266 0.30312
 C2040 C 0.27062 0.54737 0.27339
 H2041 H 0.26550 0.57911 0.30325
 H2042 H 0.24836 0.55931 0.28539
 H2043 H 0.29533 0.53854 0.26367
 H2044 H 0.31249 0.55836 0.28162
 C2045 C 0.29293 0.06944 0.79186
 C2046 C 0.27985 0.05917 0.79902
 C2047 C 0.27033 0.04784 0.78872
 C2048 C 0.30934 0.09318 0.81002
 C2049 C 0.28717 0.05678 0.76417
 C2050 C 0.29667 0.06808 0.77446
 C2051 C 0.30190 0.08211 0.80203
 C2052 C 0.27388 0.04666 0.77121
 H2053 H 0.27676 0.06022 0.81245
 H2054 H 0.25994 0.04029 0.79428
 H2055 H 0.28994 0.05615 0.75065
 H2056 H 0.30669 0.07603 0.76878
 C2057 C 0.78956 0.56950 0.79452
 C2058 C 0.77157 0.56901 0.79662
 C2059 C 0.76159 0.55768 0.78680
 C2060 C 0.80770 0.59306 0.81124
 C2061 C 0.78760 0.54701 0.77295
 C2062 C 0.79757 0.55836 0.78279
 C2063 C 0.79959 0.58212 0.80373
 C2064 C 0.76952 0.54667 0.77483
 H2065 H 0.76523 0.57765 0.80558
 H2066 H 0.74765 0.55771 0.78827
 H2067 H 0.79388 0.53882 0.76357
 H2068 H 0.81147 0.55874 0.78097
 C2069 C 0.79304 0.06970 0.29145
 C2070 C 0.77979 0.05963 0.29856
 C2071 C 0.77030 0.04826 0.28828
 C2072 C 0.80941 0.09344 0.30964
 C2073 C 0.78751 0.05677 0.26383
 C2074 C 0.79699 0.06811 0.27411
 C2075 C 0.80198 0.08238 0.30161
 C2076 C 0.77404 0.04685 0.27083
 H2077 H 0.77656 0.06085 0.31195
 H2078 H 0.75978 0.04087 0.29380
 H2079 H 0.79044 0.05595 0.25036
 H2080 H 0.80715 0.07590 0.26846
 C2081 C 0.70894 0.42993 0.29351
 C2082 C 0.70076 0.44077 0.28165
 C2083 C 0.71056 0.45214 0.27165
 C2084 C 0.69119 0.40635 0.31064
 C2085 C 0.73672 0.44207 0.28558
 C2086 C 0.72692 0.43073 0.29556
 C2087 C 0.69911 0.41730 0.30293
 C2088 C 0.72862 0.45279 0.27350
 H2089 H 0.68687 0.44016 0.27987
 H2090 H 0.70416 0.46013 0.26220
 H2091 H 0.75066 0.44227 0.28702
 H2092 H 0.73339 0.42233 0.30462
 C2093 C 0.70928 0.93026 0.79446
 C2094 C 0.70102 0.94209 0.78361
 C2095 C 0.71083 0.95353 0.77370
 C2096 C 0.69142 0.90643 0.81112
 C2097 C 0.73716 0.94155 0.78574
 C2098 C 0.72736 0.93014 0.79564
 C2099 C 0.69938 0.91752 0.80366
 C2100 C 0.72898 0.95324 0.77462
 H2101 H 0.68704 0.94220 0.78252
 H2102 H 0.70433 0.96229 0.76499
 H2103 H 0.75115 0.94105 0.78647
 H2104 H 0.73388 0.92097 0.80391
 C2105 C 0.20991 0.43019 0.79489
 C2106 C 0.20155 0.44191 0.78397
 C2107 C 0.21126 0.45326 0.77387
 C2108 C 0.19213 0.40640 0.81172
 C2109 C 0.23770 0.44146 0.78582
 C2110 C 0.22800 0.43013 0.79591
 C2111 C 0.20009 0.41748 0.80423
 C2112 C 0.22941 0.45303 0.77465
 H2113 H 0.18756 0.44196 0.78297
 H2114 H 0.20467 0.46191 0.76512
 H2115 H 0.25170 0.44098 0.78643
 H2116 H 0.23461 0.42104 0.80421
 C2117 C 0.20952 0.93007 0.29435
 C2118 C 0.20137 0.94096 0.28250
 C2119 C 0.21121 0.95231 0.27251
 C2120 C 0.19162 0.90645 0.31133
 C2121 C 0.23734 0.94216 0.28642
 C2122 C 0.22750 0.93084 0.29640
 C2123 C 0.19963 0.91742 0.30372
 C2124 C 0.22927 0.95291 0.27434
 H2125 H 0.18749 0.94038 0.28071
 H2126 H 0.20482 0.96031 0.26305
 H2127 H 0.25128 0.94232 0.28785
 H2128 H 0.23396 0.92241 0.30546
 C2129 C 0.43008 0.29219 0.70801
 C2130 C 0.43131 0.27424 0.70535
 C2131 C 0.44253 0.26423 0.71528
 C2132 C 0.40671 0.31006 0.69072
 C2133 C 0.45163 0.29015 0.73039
 C2134 C 0.44037 0.30017 0.72045
 C2135 C 0.41758 0.30216 0.69855
 C2136 C 0.45269 0.27210 0.72791
 H2137 H 0.42335 0.26793 0.69583
 H2138 H 0.44309 0.25030 0.71332
 H2139 H 0.45923 0.29636 0.74024
 H2140 H 0.43944 0.31404 0.72268
 C2141 C 0.43030 0.79068 0.20635
 C2142 C 0.43128 0.77265 0.20412
 C2143 C 0.44247 0.76276 0.21419
 C2144 C 0.40666 0.80846 0.18938
 C2145 C 0.45205 0.78895 0.22854
 C2146 C 0.44083 0.79884 0.21846
 C2147 C 0.41769 0.80054 0.19697
 C2148 C 0.45285 0.77082 0.22652
 H2149 H 0.42311 0.76619 0.19487
 H2150 H 0.44281 0.74877 0.21261
 H2151 H 0.45978 0.79533 0.23819
 H2152 H 0.44007 0.81277 0.22038
 C2153 C 0.93033 0.29176 0.20761
 C2154 C 0.93169 0.27380 0.20506
 C2155 C 0.94296 0.26394 0.21507
 C2156 C 0.90668 0.30935 0.19043
 C2157 C 0.95186 0.29002 0.23003
 C2158 C 0.94055 0.29989 0.22001
 C2159 C 0.91770 0.30155 0.19815
 C2160 C 0.95305 0.27197 0.22767
 H2161 H 0.92378 0.26737 0.19559
 H2162 H 0.94361 0.25000 0.21322
 H2163 H 0.95940 0.29635 0.23986
 H2164 H 0.93950 0.31376 0.22217
 C2165 C 0.92966 0.79198 0.70723
 C2166 C 0.93089 0.77405 0.70447
 C2167 C 0.94213 0.76399 0.71432
 C2168 C 0.90601 0.80985 0.69031
 C2169 C 0.95130 0.78983 0.72952
 C2170 C 0.94000 0.79990 0.71966
 C2171 C 0.91704 0.80195 0.69794
 C2172 C 0.95234 0.77179 0.72695
 H2173 H 0.92287 0.76778 0.69498
 H2174 H 0.94265 0.75007 0.71232
 H2175 H 0.95890 0.79599 0.73940
 H2176 H 0.93905 0.81375 0.72199
 C2177 C 0.57018 0.29222 0.29192
 C2178 C 0.55959 0.27968 0.29957
 C2179 C 0.54835 0.26971 0.28960
 C2180 C 0.59354 0.30931 0.30992
 C2181 C 0.55807 0.28500 0.26435
 C2182 C 0.56926 0.29497 0.27432
 C2183 C 0.58268 0.30162 0.30189
 C2184 C 0.54760 0.27226 0.27191
 H2185 H 0.56030 0.27736 0.31317
 H2186 H 0.54054 0.25975 0.29558
 H2187 H 0.55776 0.28699 0.25069
 H2188 H 0.57746 0.30455 0.26825
 C2189 C 0.57003 0.79273 0.79191
 C2190 C 0.56901 0.79569 0.77434
 C2191 C 0.55771 0.78590 0.76434
 C2192 C 0.59384 0.80928 0.80977
 C2193 C 0.54807 0.77038 0.78949
 C2194 C 0.55941 0.78019 0.79950
 C2195 C 0.58275 0.80184 0.80185
 C2196 C 0.54726 0.77311 0.77182
 H2197 H 0.57724 0.80529 0.76833
 H2198 H 0.55734 0.78804 0.75070
 H2199 H 0.54026 0.76039 0.79540
 H2200 H 0.56018 0.77772 0.81306
 C2201 C 0.07030 0.29324 0.79090
 C2202 C 0.06019 0.28011 0.79819
 C2203 C 0.04884 0.27045 0.78804
 C2204 C 0.09403 0.30973 0.80894
 C2205 C 0.05749 0.28726 0.76335
 C2206 C 0.06880 0.29691 0.77349
 C2207 C 0.08298 0.30230 0.80094
 C2208 C 0.04751 0.27392 0.77053
 H2209 H 0.06135 0.27707 0.81162
 H2210 H 0.04142 0.26002 0.79371
 H2211 H 0.05675 0.28996 0.74983
 H2212 H 0.07664 0.30695 0.76770
 C2213 C 0.07026 0.79264 0.29143
 C2214 C 0.05955 0.78018 0.29903
 C2215 C 0.04823 0.77034 0.28901
 C2216 C 0.09367 0.80955 0.30950
 C2217 C 0.05814 0.78560 0.26381
 C2218 C 0.06941 0.79543 0.27383
 C2219 C 0.08279 0.80194 0.30144
 C2220 C 0.04753 0.77295 0.27133
 H2221 H 0.06020 0.77782 0.31262
 H2222 H 0.04033 0.76044 0.29495
 H2223 H 0.05789 0.78762 0.25016
 H2224 H 0.07772 0.80495 0.26780
 C2225 C 0.57023 0.70826 0.70755
 C2226 C 0.56935 0.70529 0.72513
 C2227 C 0.55804 0.71503 0.73523
 C2228 C 0.59393 0.69150 0.68959
 C2229 C 0.54813 0.73055 0.71018
 C2230 C 0.55949 0.72080 0.70007
 C2231 C 0.58287 0.69908 0.69751
 C2232 C 0.54742 0.72777 0.72785
 H2233 H 0.57768 0.69571 0.73107
 H2234 H 0.55778 0.71288 0.74887
 H2235 H 0.54021 0.74053 0.70435
 H2236 H 0.56018 0.72330 0.68650
 C2237 C 0.57049 0.20681 0.20808
 C2238 C 0.56967 0.20404 0.22569
 C2239 C 0.55839 0.21390 0.23573
 C2240 C 0.59397 0.18989 0.18994
 C2241 C 0.54841 0.22914 0.21055
 C2242 C 0.55973 0.21927 0.20050
 C2243 C 0.58305 0.19750 0.19803
 C2244 C 0.54774 0.22656 0.22824
 H2245 H 0.57801 0.19451 0.23170
 H2246 H 0.55816 0.21189 0.24939
 H2247 H 0.54047 0.23905 0.20462
 H2248 H 0.56035 0.22160 0.18691
 C2249 C 0.07027 0.70770 0.20744
 C2250 C 0.06937 0.70485 0.22502
 C2251 C 0.05806 0.71468 0.23506
 C2252 C 0.09404 0.69099 0.18951
 C2253 C 0.04819 0.73002 0.20989
 C2254 C 0.05954 0.72019 0.19985
 C2255 C 0.08296 0.69851 0.19745
 C2256 C 0.04748 0.72739 0.22757
 H2257 H 0.07768 0.69530 0.23104
 H2258 H 0.05779 0.71263 0.24871
 H2259 H 0.04028 0.73997 0.20398
 H2260 H 0.06024 0.72259 0.18627
 C2261 C 0.07047 0.20962 0.70580
 C2262 C 0.06992 0.22766 0.70349
 C2263 C 0.05856 0.23782 0.71315
 C2264 C 0.09405 0.19130 0.68918
 C2265 C 0.04795 0.21190 0.72724
 C2266 C 0.05935 0.20173 0.71758
 C2267 C 0.08308 0.19943 0.69668
 C2268 C 0.04754 0.23003 0.72514
 H2269 H 0.07854 0.23390 0.69450
 H2270 H 0.05857 0.25180 0.71152
 H2271 H 0.03977 0.20572 0.73666
 H2272 H 0.05976 0.18781 0.71956
 C2273 C 0.42997 0.70768 0.29249
 C2274 C 0.43014 0.72579 0.29425
 C2275 C 0.44133 0.73580 0.28435
 C2276 C 0.40662 0.68972 0.30964
 C2277 C 0.45253 0.70962 0.27106
 C2278 C 0.44127 0.69959 0.28097
 C2279 C 0.41752 0.69765 0.30190
 C2280 C 0.45254 0.72780 0.27265
 H2281 H 0.42137 0.73218 0.30303
 H2282 H 0.44108 0.74983 0.28558
 H2283 H 0.46093 0.70329 0.26190
 H2284 H 0.44114 0.68560 0.27942
 C2285 C 0.43046 0.20786 0.79308
 C2286 C 0.43168 0.22581 0.79575
 C2287 C 0.44280 0.23580 0.78573
 C2288 C 0.40702 0.19000 0.81024
 C2289 C 0.45182 0.20988 0.77050
 C2290 C 0.44066 0.19988 0.78054
 C2291 C 0.41795 0.19793 0.80254
 C2292 C 0.45288 0.22792 0.77299
 H2293 H 0.42377 0.23214 0.80534
 H2294 H 0.44336 0.24973 0.78768
 H2295 H 0.45935 0.20366 0.76056
 H2296 H 0.43971 0.18602 0.77828
 C2297 C 0.92954 0.70736 0.79172
 C2298 C 0.93998 0.69940 0.77935
 C2299 C 0.95125 0.70942 0.76945
 C2300 C 0.90621 0.68945 0.80899
 C2301 C 0.94188 0.73534 0.78446
 C2302 C 0.93065 0.72533 0.79435
 C2303 C 0.91706 0.69737 0.80116
 C2304 C 0.95218 0.72748 0.77190
 H2305 H 0.93915 0.68552 0.77714
 H2306 H 0.95895 0.70321 0.75964
 H2307 H 0.94234 0.74928 0.78639
 H2308 H 0.92259 0.73164 0.80382
 C2309 C 0.93078 0.20814 0.29302
 C2310 C 0.94112 0.20010 0.28062
 C2311 C 0.95236 0.21007 0.27063
 C2312 C 0.90719 0.19042 0.31009
 C2313 C 0.94315 0.23606 0.28564
 C2314 C 0.93196 0.22610 0.29561
 C2315 C 0.91820 0.19827 0.30242
 C2316 C 0.95334 0.22813 0.27303
 H2317 H 0.94020 0.18623 0.27842
 H2318 H 0.95997 0.20381 0.26078
 H2319 H 0.94364 0.25000 0.28751
 H2320 H 0.92394 0.23247 0.30508
 C2321 C 0.29446 0.29071 0.56918
 C2322 C 0.29676 0.27267 0.56841
 C2323 C 0.28681 0.26270 0.55723
 C2324 C 0.31131 0.30883 0.59245
 C2325 C 0.27242 0.28883 0.54728
 C2326 C 0.28239 0.29879 0.55848
 C2327 C 0.30377 0.30072 0.58164
 C2328 C 0.27453 0.27071 0.54665
 H2329 H 0.30597 0.26626 0.57672
 H2330 H 0.28843 0.24872 0.55704
 H2331 H 0.26279 0.29516 0.53941
 H2332 H 0.28040 0.31272 0.55909
 C2333 C 0.29392 0.79227 0.06850
 C2334 C 0.29613 0.77421 0.06785
 C2335 C 0.28611 0.76421 0.05676
 C2336 C 0.31100 0.81034 0.09168
 C2337 C 0.27185 0.79033 0.04663
 C2338 C 0.28187 0.80033 0.05776
 C2339 C 0.30333 0.80230 0.08089
 C2340 C 0.27385 0.77219 0.04613
 H2341 H 0.30533 0.76783 0.07618
 H2342 H 0.28767 0.75022 0.05667
 H2343 H 0.26224 0.79665 0.03872
 H2344 H 0.27996 0.81428 0.05826
 C2345 C 0.79430 0.29214 0.06869
 C2346 C 0.79656 0.27410 0.06780
 C2347 C 0.78645 0.26421 0.05670
 C2348 C 0.81143 0.31002 0.09196
 C2349 C 0.77201 0.29041 0.04702
 C2350 C 0.78213 0.30031 0.05816
 C2351 C 0.80376 0.30204 0.08113
 C2352 C 0.77405 0.27229 0.04631
 H2353 H 0.80586 0.26764 0.07597
 H2354 H 0.78804 0.25022 0.05643
 H2355 H 0.76229 0.29680 0.03929
 H2356 H 0.78018 0.31424 0.05885
 C2357 C 0.79381 0.79251 0.56885
 C2358 C 0.79643 0.77452 0.56802
 C2359 C 0.78644 0.76437 0.55705
 C2360 C 0.81087 0.81073 0.59194
 C2361 C 0.77137 0.79021 0.54737
 C2362 C 0.78138 0.80037 0.55838
 C2363 C 0.80320 0.80264 0.58118
 C2364 C 0.77379 0.77213 0.54672
 H2365 H 0.80595 0.76829 0.57612
 H2366 H 0.78835 0.75042 0.55679
 H2367 H 0.76150 0.79635 0.53964
 H2368 H 0.77917 0.81427 0.55900
 C2369 C 0.29452 0.70858 0.43128
 C2370 C 0.28334 0.70048 0.44287
 C2371 C 0.27325 0.71052 0.45395
 C2372 C 0.31163 0.69025 0.40827
 C2373 C 0.28568 0.73677 0.44205
 C2374 C 0.29577 0.72673 0.43101
 C2375 C 0.30397 0.69842 0.41900
 C2376 C 0.27430 0.72874 0.45354
 H2377 H 0.28216 0.68645 0.44309
 H2378 H 0.26431 0.70415 0.46254
 H2379 H 0.28650 0.75081 0.44144
 H2380 H 0.30427 0.73313 0.42200
 C2381 C 0.29395 0.20811 0.93097
 C2382 C 0.29516 0.22626 0.93068
 C2383 C 0.28507 0.23628 0.94174
 C2384 C 0.31113 0.18979 0.90799
 C2385 C 0.27272 0.21001 0.95368
 C2386 C 0.28283 0.19999 0.94260
 C2387 C 0.30342 0.19796 0.91870
 C2388 C 0.27373 0.22823 0.95326
 H2389 H 0.30362 0.23268 0.92166
 H2390 H 0.28584 0.25032 0.94112
 H2391 H 0.26382 0.20361 0.96229
 H2392 H 0.28170 0.18595 0.94283
 C2393 C 0.79423 0.70904 0.93106
 C2394 C 0.79627 0.72710 0.93174
 C2395 C 0.78622 0.73701 0.94293
 C2396 C 0.81124 0.69093 0.90780
 C2397 C 0.77226 0.71077 0.95308
 C2398 C 0.78232 0.70087 0.94185
 C2399 C 0.80364 0.69906 0.91860
 C2400 C 0.77409 0.72892 0.95362
 H2401 H 0.80535 0.73357 0.92334
 H2402 H 0.78762 0.75102 0.94304
 H2403 H 0.76273 0.70437 0.96101
 H2404 H 0.78052 0.68692 0.94131
 C2405 C 0.79409 0.20780 0.43100
 C2406 C 0.78206 0.19971 0.44173
 C2407 C 0.77199 0.20969 0.45288
 C2408 C 0.81126 0.18971 0.40784
 C2409 C 0.78616 0.23583 0.44278
 C2410 C 0.79622 0.22586 0.43166
 C2411 C 0.80355 0.19778 0.41861
 C2412 C 0.77392 0.22782 0.45340
 H2413 H 0.78020 0.18577 0.44121
 H2414 H 0.76238 0.20336 0.46077
 H2415 H 0.78764 0.24983 0.44288
 H2416 H 0.80538 0.23226 0.42331
 C2417 C 0.70693 0.29094 0.43069
 C2418 C 0.71839 0.29901 0.44202
 C2419 C 0.72836 0.28895 0.45317
 C2420 C 0.68969 0.30916 0.40773
 C2421 C 0.71523 0.26278 0.44184
 C2422 C 0.70527 0.27283 0.43074
 C2423 C 0.69746 0.30106 0.41842
 C2424 C 0.72689 0.27075 0.45308
 H2425 H 0.71988 0.31301 0.44199
 H2426 H 0.73750 0.29527 0.46158
 H2427 H 0.71408 0.24875 0.44149
 H2428 H 0.69653 0.26645 0.42195
 C2429 C 0.70657 0.79150 0.93113
 C2430 C 0.71800 0.79964 0.94244
 C2431 C 0.72806 0.78966 0.95357
 C2432 C 0.68913 0.80967 0.90827
 C2433 C 0.71514 0.76339 0.94224
 C2434 C 0.70508 0.77336 0.93115
 C2435 C 0.69697 0.80156 0.91890
 C2436 C 0.72673 0.77146 0.95349
 H2437 H 0.71938 0.81365 0.94240
 H2438 H 0.73717 0.79606 0.96196
 H2439 H 0.71412 0.74935 0.94188
 H2440 H 0.69640 0.76692 0.92236
 C2441 C 0.20550 0.29022 0.93108
 C2442 C 0.21668 0.29838 0.94262
 C2443 C 0.22680 0.28840 0.95370
 C2444 C 0.18845 0.30852 0.90805
 C2445 C 0.21435 0.26209 0.94194
 C2446 C 0.20424 0.27207 0.93089
 C2447 C 0.19607 0.30032 0.91877
 C2448 C 0.22576 0.27018 0.95336
 H2449 H 0.21786 0.31241 0.94277
 H2450 H 0.23575 0.29483 0.96223
 H2451 H 0.21354 0.24805 0.94139
 H2452 H 0.19573 0.26561 0.92194
 C2453 C 0.20604 0.79048 0.43116
 C2454 C 0.20477 0.77233 0.43108
 C2455 C 0.21485 0.76243 0.44222
 C2456 C 0.18908 0.80855 0.40789
 C2457 C 0.22727 0.78882 0.45385
 C2458 C 0.21718 0.79872 0.44268
 C2459 C 0.19668 0.80048 0.41872
 C2460 C 0.22624 0.77060 0.45360
 H2461 H 0.19629 0.76582 0.42215
 H2462 H 0.21405 0.74838 0.44175
 H2463 H 0.23620 0.79530 0.46236
 H2464 H 0.21835 0.81275 0.44274
 C2465 C 0.70778 0.70772 0.56891
 C2466 C 0.70521 0.72571 0.56796
 C2467 C 0.71532 0.73576 0.55699
 C2468 C 0.69049 0.68976 0.59202
 C2469 C 0.73041 0.70981 0.54756
 C2470 C 0.72029 0.69976 0.55857
 C2471 C 0.69827 0.69771 0.58124
 C2472 C 0.72804 0.72790 0.54679
 H2473 H 0.69564 0.73202 0.57595
 H2474 H 0.71343 0.74971 0.55664
 H2475 H 0.74033 0.70359 0.53992
 H2476 H 0.72246 0.68586 0.55928
 C2477 C 0.70714 0.20912 0.06890
 C2478 C 0.71869 0.20108 0.05758
 C2479 C 0.72868 0.21117 0.04648
 C2480 C 0.68998 0.19082 0.09184
 C2481 C 0.71542 0.23732 0.05786
 C2482 C 0.70544 0.22724 0.06891
 C2483 C 0.69770 0.19897 0.08116
 C2484 C 0.72716 0.22936 0.04663
 H2485 H 0.72021 0.18708 0.05757
 H2486 H 0.73786 0.20486 0.03806
 H2487 H 0.71423 0.25134 0.05825
 H2488 H 0.69664 0.23360 0.07770
 C2489 C 0.20682 0.70894 0.06822
 C2490 C 0.21837 0.70092 0.05690
 C2491 C 0.22843 0.71102 0.04588
 C2492 C 0.18958 0.69065 0.09112
 C2493 C 0.21520 0.73716 0.05730
 C2494 C 0.20515 0.72706 0.06828
 C2495 C 0.19733 0.69878 0.08044
 C2496 C 0.22695 0.72922 0.04608
 H2497 H 0.21986 0.68691 0.05684
 H2498 H 0.23763 0.70473 0.03747
 H2499 H 0.21404 0.75119 0.05773
 H2500 H 0.19634 0.73341 0.07706
 C2501 C 0.20749 0.20756 0.56866
 C2502 C 0.21908 0.19948 0.55742
 C2503 C 0.22918 0.20953 0.54639
 C2504 C 0.19015 0.18939 0.59156
 C2505 C 0.21590 0.23572 0.55766
 C2506 C 0.20582 0.22568 0.56864
 C2507 C 0.19795 0.19745 0.58088
 C2508 C 0.22771 0.22772 0.54653
 H2509 H 0.22056 0.18547 0.55742
 H2510 H 0.23841 0.20319 0.53804
 H2511 H 0.21474 0.24975 0.55802
 H2512 H 0.19697 0.23206 0.57736
   
