data_POSCAR
  _audit_creation_date              2014-09-24
  _audit_creation_method            'ToBaCCo'
  _symmetry_space_group_name_H-M    'P1'
  _symmetry_Int_Tables_number       1
  _symmetry_cell_setting            triclinic
  loop_
  _symmetry_equiv_pos_as_xyz
 x,y,z
_cell_length_a 68.7061
_cell_length_b 71.3047
_cell_length_c 70.6142
_cell_angle_alpha 89.113800
_cell_angle_beta 88.291200
_cell_angle_gamma 88.507200
loop_
  _atom_site_label
  _atom_site_type_symbol
  _atom_site_fract_x
  _atom_site_fract_y
  _atom_site_fract_z
C1 C 0.73383 0.64872 0.97724
 H2 H 0.74802 0.64949 0.97024
 C3 C 0.71797 0.65883 0.96992
 H4 H 0.72008 0.66736 0.95724
 C5 C 0.71362 0.63565 1.00152
 H6 H 0.71178 0.62623 1.01350
 C7 C 0.69742 0.64550 0.99471
 H8 H 0.68341 0.64386 1.00190
 N9 N 0.73138 0.63733 0.99271
 C10 C 0.78853 0.62562 1.01613
 H11 H 0.78796 0.61047 1.01665
 C12 C 0.80429 0.63456 1.02363
 H13 H 0.81596 0.62616 1.02970
 C14 C 0.77380 0.65489 1.00772
 H15 H 0.76167 0.66272 1.00184
 C16 C 0.78940 0.66444 1.01502
 H17 H 0.78916 0.67963 1.01470
 Zn18 Zn 0.75256 0.62174 1.00041
 N19 N 0.77368 0.63581 1.00842
 C20 C 0.77882 0.60719 0.97217
 N21 N 0.76031 0.60675 0.97952
 C22 C 0.74659 0.59620 0.97161
 C23 C 0.75134 0.58528 0.95581
 C24 C 0.78420 0.59649 0.95639
 C25 C 0.73979 0.61541 1.03764
 C26 C 0.73364 0.60527 1.05367
 C27 C 0.73867 0.57675 1.03603
 C28 C 0.74465 0.58753 1.02033
 N29 N 0.74476 0.60651 1.02131
 H30 H 0.78939 0.61603 0.97835
 H31 H 0.73191 0.59631 0.97760
 H32 H 0.74026 0.57681 0.94985
 H33 H 0.79891 0.59728 0.95055
 H34 H 0.74019 0.63056 1.03807
 H35 H 0.72873 0.61346 1.06569
 H36 H 0.73969 0.56172 1.03449
 H37 H 0.74939 0.58064 1.00742
 C38 C 0.80479 0.65423 1.02331
 C39 C 0.69939 0.65704 0.97852
 C40 C 0.73268 0.58542 1.05329
 C41 C 0.77037 0.58535 0.94798
 C42 C 0.73450 0.35433 0.52278
 H43 H 0.74842 0.35479 0.52951
 C44 C 0.71910 0.34480 0.53165
 H45 H 0.72131 0.33797 0.54525
 C46 C 0.71438 0.36376 0.49750
 H47 H 0.71235 0.37154 0.48445
 C48 C 0.69868 0.35437 0.50580
 H49 H 0.68491 0.35469 0.49871
 N50 N 0.73183 0.36371 0.50610
 C51 C 0.78855 0.37431 0.47911
 H52 H 0.78665 0.38926 0.47670
 C53 C 0.80579 0.36519 0.47315
 H54 H 0.81704 0.37321 0.46596
 C55 C 0.77593 0.34575 0.49117
 H56 H 0.76421 0.33828 0.49819
 C57 C 0.79296 0.33601 0.48531
 H58 H 0.79431 0.32105 0.48805
 Zn59 Zn 0.75196 0.37897 0.49608
 N60 N 0.77420 0.36461 0.48820
 C61 C 0.77733 0.39556 0.52142
 N62 N 0.75872 0.39559 0.51538
 C63 C 0.74458 0.40673 0.52359
 C64 C 0.74908 0.41885 0.53812
 C65 C 0.78245 0.40741 0.53587
 C66 C 0.74010 0.38205 0.45885
 C67 C 0.73232 0.39050 0.44272
 C68 C 0.73148 0.42021 0.45876
 C69 C 0.73937 0.41117 0.47459
 N70 N 0.74302 0.39233 0.47451
 H71 H 0.78826 0.38617 0.51525
 H72 H 0.72979 0.40620 0.51881
 H73 H 0.73770 0.42785 0.54426
 H74 H 0.79730 0.40695 0.54060
 H75 H 0.74342 0.36713 0.45908
 H76 H 0.72994 0.38200 0.43047
 H77 H 0.72794 0.43507 0.45936
 H78 H 0.74214 0.41919 0.48702
 C79 C 0.80825 0.34582 0.47637
 C80 C 0.70078 0.34502 0.52329
 C81 C 0.72753 0.40977 0.44266
 C82 C 0.76828 0.41935 0.54437
 C83 C 0.23003 -0.14304 0.01901
 H84 H 0.24355 -0.14406 0.02647
 C85 C 0.21391 -0.15307 0.02563
 H86 H 0.21514 -0.16177 0.03826
 C87 C 0.21172 -0.12963 -0.00592
 H88 H 0.21071 -0.12018 -0.01795
 C89 C 0.19531 -0.13940 0.00017
 H90 H 0.18203 -0.13766 -0.00761
 N91 N 0.22866 -0.13158 0.00350
 C92 C 0.28757 -0.12194 -0.01874
 H93 H 0.28675 -0.10678 -0.01963
 C94 C 0.30447 -0.13152 -0.02489
 H95 H 0.31655 -0.12361 -0.03070
 C96 C 0.27246 -0.15056 -0.01057
 H97 H 0.25988 -0.15790 -0.00509
 C98 C 0.28912 -0.16076 -0.01664
 H99 H 0.28930 -0.17592 -0.01554
 Zn100 Zn 0.25013 -0.11663 -0.00380
 N101 N 0.27210 -0.13149 -0.01154
 C102 C 0.27425 -0.10405 0.02487
 N103 N 0.25630 -0.10211 0.01735
 C104 C 0.24228 -0.09074 0.02542
 C105 C 0.24622 -0.08044 0.04150
 C106 C 0.27880 -0.09405 0.04089
 C107 C 0.24077 -0.11030 -0.04123
 C108 C 0.23492 -0.10045 -0.05736
 C109 C 0.23572 -0.07176 -0.03976
 C110 C 0.24155 -0.08228 -0.02393
 N111 N 0.24348 -0.10124 -0.02483
 H112 H 0.28501 -0.11360 0.01871
 H113 H 0.22800 -0.08974 0.01939
 H114 H 0.23497 -0.07129 0.04760
 H115 H 0.29308 -0.09606 0.04680
 H116 H 0.24299 -0.12537 -0.04171
 H117 H 0.23375 -0.10853 -0.07006
 H118 H 0.23332 -0.05689 -0.03773
 H119 H 0.24411 -0.07527 -0.01082
 C120 C 0.30546 -0.15120 -0.02381
 C121 C 0.19617 -0.15115 0.01627
 C122 C 0.23172 -0.08072 -0.05698
 C123 C 0.26473 -0.08201 0.04942
 C124 C 0.24327 0.15481 0.48311
 H125 H 0.25736 0.15576 0.47596
 C126 C 0.22738 0.16528 0.47641
 H127 H 0.22945 0.17453 0.46425
 C128 C 0.22340 0.14115 0.50732
 H129 H 0.22173 0.13132 0.51901
 C130 C 0.20713 0.15136 0.50111
 H131 H 0.19313 0.14924 0.50814
 N132 N 0.24101 0.14298 0.49826
 C133 C 0.29850 0.13145 0.52087
 H134 H 0.29805 0.11630 0.52157
 C135 C 0.31469 0.14056 0.52730
 H136 H 0.32654 0.13228 0.53318
 C137 C 0.28322 0.16053 0.51280
 H138 H 0.27087 0.16825 0.50722
 C139 C 0.29920 0.17025 0.51901
 H140 H 0.29908 0.18541 0.51787
 Zn141 Zn 0.26247 0.12733 0.50496
 N142 N 0.28330 0.14146 0.51359
 C143 C 0.28899 0.11611 0.47569
 N144 N 0.27059 0.11409 0.48294
 C145 C 0.25735 0.10392 0.47382
 C146 C 0.26245 0.09528 0.45667
 C147 C 0.29466 0.10779 0.45859
 C148 C 0.25078 0.11853 0.54198
 C149 C 0.24510 0.10733 0.55743
 C150 C 0.24880 0.08010 0.53756
 C151 C 0.25449 0.09185 0.52247
 N152 N 0.25508 0.11071 0.52488
 H153 H 0.29921 0.12454 0.48288
 H154 H 0.24270 0.10286 0.47970
 H155 H 0.25163 0.08757 0.44939
 H156 H 0.30938 0.10960 0.45306
 H157 H 0.25157 0.13356 0.54352
 H158 H 0.24127 0.11390 0.57080
 H159 H 0.24836 0.06512 0.53542
 H160 H 0.25839 0.08586 0.50888
 C161 C 0.31530 0.16023 0.52626
 C162 C 0.20894 0.16344 0.48529
 C163 C 0.24392 0.08785 0.55531
 C164 C 0.28127 0.09739 0.44874
 C165 C 0.14846 0.47368 0.24362
 H166 H 0.14837 0.46658 0.25727
 C167 C 0.15842 0.46557 0.22811
 H168 H 0.16599 0.45218 0.22992
 C169 C 0.13768 0.49919 0.22439
 H170 H 0.12923 0.51205 0.22278
 C171 C 0.14739 0.49160 0.20857
 H172 H 0.14663 0.49899 0.19509
 N173 N 0.13827 0.49016 0.24148
 C174 C 0.12826 0.51618 0.29649
 H175 H 0.11272 0.51880 0.29571
 C176 C 0.13836 0.52296 0.31167
 H177 H 0.13048 0.53066 0.32268
 C178 C 0.15741 0.50311 0.28286
 H179 H 0.16480 0.49568 0.27141
 C180 C 0.16809 0.50950 0.29794
 H181 H 0.18370 0.50693 0.29798
 Zn182 Zn 0.12261 0.49948 0.26199
 N183 N 0.13785 0.50653 0.28246
 C184 C 0.10582 0.47352 0.28789
 N185 N 0.10556 0.48023 0.26977
 C186 C 0.09463 0.47216 0.25653
 C187 C 0.08357 0.45649 0.26128
 C188 C 0.09504 0.45790 0.29322
 C189 C 0.11986 0.53666 0.25059
 C190 C 0.11157 0.55310 0.24317
 C191 C 0.08046 0.53804 0.24331
 C192 C 0.08938 0.52181 0.25081
 N193 N 0.10886 0.52131 0.25384
 H194 H 0.11485 0.47989 0.29813
 H195 H 0.09500 0.47754 0.24212
 H196 H 0.07545 0.44988 0.25042
 H197 H 0.09560 0.45265 0.30768
 H198 H 0.13527 0.53591 0.25334
 H199 H 0.12068 0.56508 0.24048
 H200 H 0.06510 0.53802 0.24030
 H201 H 0.08086 0.50953 0.25371
 C202 C 0.15856 0.51973 0.31247
 C203 C 0.15768 0.47442 0.21022
 C204 C 0.09171 0.55383 0.23903
 C205 C 0.08399 0.44897 0.27976
 C206 C -0.14191 0.01995 0.22895
 H207 H -0.14369 0.02793 0.24182
 C208 C -0.15105 0.02618 0.21249
 H209 H -0.15945 0.03918 0.21319
 C210 C -0.12719 -0.00569 0.21266
 H211 H -0.11767 -0.01797 0.21264
 C212 C -0.13599 -0.00002 0.19591
 H213 H -0.13357 -0.00881 0.18369
 N214 N -0.13015 0.00435 0.22872
 C215 C -0.12339 -0.01566 0.28694
 H216 H -0.10765 -0.01673 0.28695
 C217 C -0.13426 -0.02098 0.30302
 H218 H -0.12677 -0.02632 0.31533
 C219 C -0.15217 -0.00779 0.27058
 H220 H -0.15904 -0.00272 0.25786
 C221 C -0.16365 -0.01305 0.28638
 H222 H -0.17936 -0.01175 0.28576
 Zn223 Zn -0.11586 -0.00207 0.25052
 N224 N -0.13240 -0.00898 0.27124
 C225 C -0.10428 0.02698 0.27420
 N226 N -0.10152 0.01918 0.25684
 C227 C -0.08944 0.02702 0.24348
 C228 C -0.07920 0.04310 0.24754
 C229 C -0.09436 0.04300 0.27885
 C230 C -0.10805 -0.03969 0.24336
 C231 C -0.09712 -0.05581 0.23874
 C232 C -0.06801 -0.03749 0.23854
 C233 C -0.07951 -0.02171 0.24335
 N234 N -0.09920 -0.02302 0.24528
 H235 H -0.11442 0.02100 0.28443
 H236 H -0.08782 0.02079 0.22963
 H237 H -0.06946 0.04901 0.23684
 H238 H -0.09701 0.04909 0.29267
 H239 H -0.12372 -0.04034 0.24507
 H240 H -0.10452 -0.06882 0.23675
 H241 H -0.05239 -0.03621 0.23680
 H242 H -0.07271 -0.00842 0.24527
 C243 C -0.15468 -0.01961 0.30293
 C244 C -0.14793 0.01640 0.19533
 C245 C -0.07686 -0.05478 0.23604
 C246 C -0.08156 0.05125 0.26548
 C247 C 0.34697 0.51303 0.73927
 H248 H 0.34623 0.52081 0.75232
 C249 C 0.33700 0.51979 0.72349
 H250 H 0.32869 0.53285 0.72453
 C251 C 0.35970 0.48714 0.72184
 H252 H 0.36885 0.47463 0.72108
 C253 C 0.34988 0.49330 0.70579
 H254 H 0.35129 0.48512 0.69301
 N255 N 0.35813 0.49704 0.73815
 C256 C 0.36660 0.47484 0.79528
 H257 H 0.38234 0.47361 0.79484
 C258 C 0.35612 0.46915 0.81147
 H259 H 0.36390 0.46336 0.82341
 C260 C 0.33743 0.48359 0.77997
 H261 H 0.33025 0.48920 0.76763
 C262 C 0.32632 0.47797 0.79589
 H263 H 0.31061 0.47950 0.79575
 Zn264 Zn 0.37317 0.48978 0.75921
 N265 N 0.35721 0.48215 0.78007
 C266 C 0.38558 0.51777 0.78374
 N267 N 0.38776 0.51074 0.76599
 C268 C 0.39970 0.51893 0.75274
 C269 C 0.41056 0.53444 0.75736
 C270 C 0.39611 0.53322 0.78895
 C271 C 0.38116 0.45241 0.75025
 C272 C 0.39233 0.43654 0.74522
 C273 C 0.42120 0.45511 0.74598
 C274 C 0.40948 0.47062 0.75115
 N275 N 0.38980 0.46908 0.75283
 H276 H 0.37554 0.51155 0.79391
 H277 H 0.40086 0.51331 0.73860
 H278 H 0.42030 0.54052 0.74676
 H279 H 0.39401 0.53866 0.80311
 H280 H 0.36550 0.45154 0.75188
 H281 H 0.38512 0.42350 0.74279
 H282 H 0.43683 0.45658 0.74456
 H283 H 0.41615 0.48384 0.75370
 C284 C 0.33571 0.47080 0.81198
 C285 C 0.33855 0.50998 0.70637
 C286 C 0.41260 0.43783 0.74284
 C287 C 0.40894 0.54168 0.77575
 C288 C 0.65751 0.97048 0.73893
 H289 H 0.65889 0.96193 0.75163
 C290 C 0.66747 0.96521 0.72221
 H291 H 0.67650 0.95254 0.72218
 C292 C 0.64293 0.99664 0.72325
 H293 H 0.63297 1.00859 0.72349
 C294 C 0.65263 0.99192 0.70629
 H295 H 0.65033 1.00063 0.69382
 N296 N 0.64537 0.98586 0.73910
 C297 C 0.63428 1.00259 0.79765
 H298 H 0.61853 1.00334 0.79745
 C299 C 0.64379 1.00754 0.81391
 H300 H 0.63487 1.01264 0.82569
 C301 C 0.66434 0.99622 0.78156
 H302 H 0.67225 0.99178 0.76888
 C303 C 0.67455 1.00110 0.79755
 H304 H 0.69024 0.99965 0.79679
 Zn305 Zn 0.62960 0.99061 0.76107
 N306 N 0.64456 0.99688 0.78199
 C307 C 0.61797 0.95963 0.78374
 N308 N 0.61573 0.96852 0.76673
 C309 C 0.60478 0.96109 0.75311
 C310 C 0.59546 0.94410 0.75640
 C311 C 0.60897 0.94264 0.78760
 C312 C 0.62082 1.02827 0.75438
 C313 C 0.60950 1.04422 0.75021
 C314 C 0.58100 1.02503 0.75095
 C315 C 0.59290 1.00941 0.75519
 N316 N 0.61247 1.01126 0.75643
 H317 H 0.62706 0.96547 0.79425
 H318 H 0.60359 0.96823 0.73955
 H319 H 0.58709 0.93821 0.74529
 H320 H 0.61091 0.93583 0.80125
 H321 H 0.63641 1.02934 0.75560
 H322 H 0.61655 1.05752 0.74802
 H323 H 0.56547 1.02333 0.74981
 H324 H 0.58648 0.99584 0.75727
 C325 C 0.66435 1.00681 0.81429
 C326 C 0.66479 0.97581 0.70550
 C327 C 0.58934 1.04269 0.74822
 C328 C 0.59767 0.93457 0.77379
 C329 C 0.01801 0.24337 -0.16427
 H330 H 0.02491 0.25684 -0.16507
 C331 C 0.02633 0.22811 -0.17401
 H332 H 0.03950 0.23000 -0.18255
 C333 C -0.00725 0.22444 -0.15170
 H334 H -0.01999 0.22288 -0.14255
 C335 C 0.00051 0.20884 -0.16127
 H336 H -0.00643 0.19545 -0.15939
 N337 N 0.00158 0.24127 -0.15331
 C338 C -0.02477 0.29683 -0.14423
 H339 H -0.02624 0.29623 -0.12894
 C340 C -0.03163 0.31259 -0.15414
 H341 H -0.03861 0.32399 -0.14634
 C342 C -0.01435 0.28231 -0.17287
 H343 H -0.00768 0.27042 -0.18009
 C344 C -0.02100 0.29786 -0.18339
 H345 H -0.01915 0.29787 -0.19866
 Zn346 Zn -0.00736 0.26179 -0.13841
 N347 N -0.01615 0.28219 -0.15364
 C348 C 0.02089 0.28678 -0.12655
 N349 N 0.01387 0.26923 -0.12403
 C350 C 0.02275 0.25642 -0.11247
 C351 C 0.03931 0.26117 -0.10272
 C352 C 0.03742 0.29205 -0.11720
 C353 C -0.04539 0.25096 -0.13148
 C354 C -0.06187 0.24535 -0.12113
 C355 C -0.04384 0.24771 -0.09249
 C356 C -0.02773 0.25339 -0.10349
 N357 N -0.02869 0.25458 -0.12263
 H358 H 0.01396 0.29663 -0.13612
 H359 H 0.01714 0.24242 -0.11106
 H360 H 0.04638 0.25075 -0.09377
 H361 H 0.04277 0.30610 -0.11939
 H362 H -0.04576 0.25209 -0.14677
 H363 H -0.07421 0.24162 -0.12926
 H364 H -0.04234 0.24769 -0.07732
 H365 H -0.01450 0.25694 -0.09663
 C366 C -0.02968 0.31333 -0.17399
 C367 C 0.01766 0.21050 -0.17241
 C368 C -0.06154 0.24336 -0.10112
 C369 C 0.04694 0.27914 -0.10521
 C370 C 0.47515 0.23904 0.14928
 H371 H 0.46811 0.25280 0.14916
 C372 C 0.46633 0.22417 0.15902
 H373 H 0.45264 0.22668 0.16667
 C374 C 0.50136 0.21905 0.13909
 H375 H 0.51473 0.21694 0.13090
 C376 C 0.49307 0.20380 0.14864
 H377 H 0.50023 0.19013 0.14766
 N378 N 0.49235 0.23626 0.13959
 C379 C 0.51940 0.29059 0.13183
 H380 H 0.52279 0.28994 0.11679
 C381 C 0.52488 0.30605 0.14209
 H382 H 0.53275 0.31713 0.13484
 C383 C 0.50547 0.27657 0.15951
 H384 H 0.49798 0.26501 0.16625
 C385 C 0.51063 0.29184 0.17033
 H386 H 0.50677 0.29195 0.18531
 Zn387 Zn 0.50250 0.25646 0.12500
 N388 N 0.50965 0.27638 0.14056
 C389 C 0.47642 0.28308 0.10874
 N390 N 0.48278 0.26487 0.10849
 C391 C 0.47434 0.25210 0.09743
 C392 C 0.45885 0.25752 0.08599
 C393 C 0.46108 0.28911 0.09748
 C394 C 0.54107 0.24375 0.12133
 C395 C 0.55823 0.23747 0.11217
 C396 C 0.54240 0.24127 0.08220
 C397 C 0.52552 0.24754 0.09195
 N398 N 0.52509 0.24839 0.11119
 H399 H 0.48292 0.29293 0.11797
 H400 H 0.47948 0.23763 0.09773
 H401 H 0.45227 0.24719 0.07730
 H402 H 0.45597 0.30358 0.09823
 H403 H 0.54036 0.24474 0.13661
 H404 H 0.57063 0.23340 0.12055
 H405 H 0.54250 0.24065 0.06689
 H406 H 0.51280 0.25166 0.08412
 C407 C 0.52034 0.30693 0.16159
 C408 C 0.47524 0.20621 0.15865
 C409 C 0.55901 0.23604 0.09235
 C410 C 0.45201 0.27625 0.08599
 C411 C 0.97784 0.74034 0.64996
 H412 H 0.97029 0.75382 0.65076
 C413 C 0.97020 0.72480 0.65963
 H414 H 0.95690 0.72650 0.66810
 C415 C 1.00408 0.72166 0.63751
 H416 H 1.01696 0.72032 0.62846
 C417 C 0.99701 0.70580 0.64697
 H418 H 1.00461 0.69244 0.64506
 N419 N 0.99446 0.73850 0.63913
 C420 C 1.01983 0.79350 0.63091
 H421 H 1.02217 0.79313 0.61570
 C422 C 1.02575 0.80890 0.64098
 H423 H 1.03293 0.82021 0.63339
 C424 C 1.00798 0.77887 0.65917
 H425 H 1.00107 0.76712 0.66618
 C426 C 1.01362 0.79409 0.66983
 H427 H 1.01075 0.79396 0.68499
 Zn428 Zn 1.00287 0.75942 0.62450
 N429 N 1.01091 0.77901 0.64003
 C430 C 0.97446 0.78586 0.61262
 N431 N 0.98155 0.76807 0.61005
 C432 C 0.97254 0.75599 0.59863
 C433 C 0.95563 0.76169 0.58933
 C434 C 0.95762 0.79208 0.60370
 C435 C 1.04142 0.74843 0.61801
 C436 C 1.05815 0.74260 0.60788
 C437 C 1.04010 0.74507 0.57905
 C438 C 1.02369 0.75099 0.58977
 N439 N 1.02458 0.75224 0.60892
 H440 H 0.98150 0.79516 0.62202
 H441 H 0.97823 0.74178 0.59714
 H442 H 0.94837 0.75181 0.58064
 H443 H 0.95217 0.80627 0.60605
 H444 H 1.04173 0.74966 0.63325
 H445 H 1.07127 0.73917 0.61547
 H446 H 1.03917 0.74400 0.56383
 H447 H 1.01025 0.75441 0.58278
 C448 C 1.02247 0.80947 0.66069
 C449 C 0.97975 0.70720 0.65806
 C450 C 1.05759 0.74070 0.58815
 C451 C 0.94782 0.77987 0.59210
 C452 C 0.51851 0.73946 0.34492
 H453 H 0.52559 0.75284 0.34404
 C454 C 0.52626 0.72421 0.33477
 H455 H 0.53918 0.72602 0.32585
 C456 C 0.49331 0.72077 0.35802
 H457 H 0.48081 0.71931 0.36751
 C458 C 0.50050 0.70519 0.34805
 H459 H 0.49338 0.69189 0.34996
 N460 N 0.50238 0.73747 0.35633
 C461 C 0.47886 0.79400 0.36589
 H462 H 0.47838 0.79381 0.38123
 C463 C 0.47254 0.80999 0.35601
 H464 H 0.46674 0.82165 0.36421
 C465 C 0.48602 0.77820 0.33722
 H466 H 0.49130 0.76575 0.32998
 C467 C 0.47963 0.79384 0.32670
 H468 H 0.48081 0.79310 0.31143
 Zn469 Zn 0.49425 0.75803 0.37151
 N470 N 0.48574 0.77866 0.35645
 C471 C 0.52389 0.78195 0.38253
 N472 N 0.51602 0.76481 0.38555
 C473 C 0.52443 0.75190 0.39735
 C474 C 0.54123 0.75618 0.40694
 C475 C 0.54073 0.78673 0.39166
 C476 C 0.45602 0.74803 0.37873
 C477 C 0.43959 0.74241 0.38917
 C478 C 0.45806 0.74382 0.41768
 C479 C 0.47414 0.74958 0.40667
 N480 N 0.47293 0.75120 0.38751
 H481 H 0.51743 0.79184 0.37268
 H482 H 0.51822 0.73818 0.39909
 H483 H 0.54787 0.74572 0.41615
 H484 H 0.54675 0.80045 0.38908
 H485 H 0.45543 0.74958 0.36349
 H486 H 0.42642 0.73947 0.38183
 H487 H 0.45927 0.74239 0.43289
 H488 H 0.48756 0.75259 0.41345
 C489 C 0.47291 0.81031 0.33599
 C490 C 0.51733 0.70674 0.33642
 C491 C 0.44055 0.74005 0.40889
 C492 C 0.54966 0.77375 0.40399
 C493 C 0.39440 -0.01037 0.26628
 H494 H 0.39434 0.00328 0.27277
 C495 C 0.40461 -0.02543 0.27450
 H496 H 0.41267 -0.02319 0.28718
 C497 C 0.38354 -0.02990 0.24210
 H498 H 0.37489 -0.03171 0.22977
 C499 C 0.39362 -0.04534 0.24981
 H500 H 0.39262 -0.05890 0.24327
 N501 N 0.38406 -0.01285 0.25044
 C502 C 0.37468 0.04243 0.22473
 H503 H 0.35904 0.04216 0.22345
 C504 C 0.38482 0.05816 0.21853
 H505 H 0.37689 0.06991 0.21227
 C506 C 0.40395 0.02727 0.23433
 H507 H 0.41132 0.01519 0.24050
 C508 C 0.41472 0.04273 0.22822
 H509 H 0.43033 0.04250 0.22996
 Zn510 Zn 0.36860 0.00765 0.24171
 N511 N 0.38426 0.02757 0.23279
 C512 C 0.35518 0.03351 0.26918
 N513 N 0.35283 0.01591 0.26260
 C514 C 0.34105 0.00360 0.27198
 C515 C 0.33126 0.00879 0.28885
 C516 C 0.34577 0.03923 0.28592
 C517 C 0.36378 -0.00319 0.20478
 C518 C 0.35414 -0.00800 0.18855
 C519 C 0.32358 -0.00550 0.20630
 C520 C 0.33384 -0.00054 0.22222
 N521 N 0.35361 0.00038 0.22118
 H522 H 0.36494 0.04299 0.26189
 H523 H 0.33978 -0.01047 0.26671
 H524 H 0.32241 -0.00133 0.29648
 H525 H 0.34805 0.05323 0.29101
 H526 H 0.37948 -0.00220 0.20434
 H527 H 0.36254 -0.01096 0.17567
 H528 H 0.30785 -0.00611 0.20726
 H529 H 0.32601 0.00267 0.23531
 C530 C 0.40508 0.05855 0.22045
 C531 C 0.40412 -0.04326 0.26637
 C532 C 0.33377 -0.00918 0.18916
 C533 C 0.33393 0.02670 0.29619
 C534 C 0.09287 1.02637 0.76967
 H535 H 0.09164 1.01343 0.77777
 C536 C 0.08246 1.04247 0.77554
 H537 H 0.07331 1.04178 0.78827
 C538 C 0.10725 1.04317 0.74390
 H539 H 0.11719 1.04357 0.73180
 C540 C 0.09700 1.05950 0.74914
 H541 H 0.09890 1.07212 0.74064
 N542 N 0.10504 1.02701 0.75414
 C543 C 0.11513 0.97107 0.73140
 H544 H 0.13087 0.97117 0.73032
 C545 C 0.10524 0.95570 0.72498
 H546 H 0.11352 0.94415 0.71869
 C547 C 0.08537 0.98637 0.74056
 H548 H 0.07773 0.99836 0.74666
 C549 C 0.07485 0.97119 0.73436
 H550 H 0.05912 0.97160 0.73595
 Zn551 Zn 0.12051 1.00543 0.74797
 N552 N 0.10517 0.98589 0.73920
 C553 C 0.13028 0.97948 0.77688
 N554 N 0.13324 0.99719 0.77017
 C555 C 0.14423 1.00932 0.77969
 C556 C 0.15296 1.00366 0.79657
 C557 C 0.13867 0.97329 0.79365
 C558 C 0.13133 1.01487 0.71085
 C559 C 0.14360 1.01985 0.69561
 C560 C 0.17098 1.01684 0.71623
 C561 C 0.15816 1.01187 0.73110
 N562 N 0.13869 1.01133 0.72824
 H563 H 0.12122 0.97013 0.76939
 H564 H 0.14605 1.02345 0.77425
 H565 H 0.16149 1.01353 0.80409
 H566 H 0.13628 0.95906 0.79858
 H567 H 0.11581 1.01415 0.70894
 H568 H 0.13732 1.02319 0.68205
 H569 H 0.18643 1.01733 0.71876
 H570 H 0.16379 1.00860 0.74492
 C571 C 0.08482 0.95550 0.72660
 C572 C 0.08460 1.05941 0.76532
 C573 C 0.16370 1.02107 0.69823
 C574 C 0.15009 0.98544 0.80380
 C575 C 0.58892 0.52360 0.27221
 H576 H 0.58788 0.51053 0.28012
 C577 C 0.57862 0.53959 0.27856
 H578 H 0.56976 0.53867 0.29146
 C579 C 0.60275 0.54086 0.24647
 H580 H 0.61252 0.54152 0.23425
 C581 C 0.59260 0.55709 0.25219
 H582 H 0.59434 0.56986 0.24390
 N583 N 0.60077 0.52453 0.25646
 C584 C 0.61077 0.46803 0.23498
 H585 H 0.62652 0.46806 0.23404
 C586 C 0.60088 0.45255 0.22885
 H587 H 0.60917 0.44080 0.22295
 C588 C 0.58098 0.48375 0.24327
 H589 H 0.57333 0.49600 0.24882
 C590 C 0.57046 0.46848 0.23732
 H591 H 0.55471 0.46904 0.23857
 Zn592 Zn 0.61620 0.50306 0.24984
 N593 N 0.60079 0.48314 0.24216
 C594 C 0.62762 0.47824 0.27929
 N595 N 0.63027 0.49555 0.27144
 C596 C 0.64224 0.50798 0.27932
 C597 C 0.65250 0.50296 0.29551
 C598 C 0.63745 0.47271 0.29552
 C599 C 0.62508 0.51323 0.21239
 C600 C 0.63665 0.51820 0.19664
 C601 C 0.66517 0.51295 0.21540
 C602 C 0.65302 0.50817 0.23085
 N603 N 0.63334 0.50879 0.22918
 H604 H 0.61773 0.46870 0.27311
 H605 H 0.64378 0.52180 0.27301
 H606 H 0.66193 0.51302 0.30165
 H607 H 0.63530 0.45879 0.30144
 H608 H 0.60939 0.51331 0.21139
 H609 H 0.62968 0.52240 0.18365
 H610 H 0.68080 0.51243 0.21701
 H611 H 0.65935 0.50403 0.24413
 C612 C 0.58044 0.45255 0.23007
 C613 C 0.58056 0.55670 0.26861
 C614 C 0.65700 0.51829 0.19806
 C615 C 0.65010 0.48513 0.30382
 C616 C 0.89077 0.49350 0.76009
 H617 H 0.89075 0.50670 0.76744
 C618 C 0.90209 0.47828 0.76658
 H619 H 0.91074 0.47989 0.77900
 C620 C 0.87859 0.47510 0.73564
 H621 H 0.86913 0.47376 0.72383
 C622 C 0.88962 0.45955 0.74167
 H623 H 0.88880 0.44649 0.73415
 N624 N 0.87929 0.49165 0.74490
 C625 C 0.86561 0.54747 0.72200
 H626 H 0.85002 0.54619 0.72099
 C627 C 0.87444 0.56403 0.71611
 H628 H 0.86555 0.57537 0.71034
 C629 C 0.89606 0.53404 0.73061
 H630 H 0.90440 0.52231 0.73628
 C631 C 0.90553 0.55038 0.72482
 H632 H 0.92113 0.55115 0.72631
 Zn633 Zn 0.86239 0.51190 0.73808
 N634 N 0.87638 0.53305 0.72943
 C635 C 0.84684 0.53623 0.76627
 N636 N 0.84702 0.51833 0.75987
 C637 C 0.83706 0.50468 0.76935
 C638 C 0.82611 0.50890 0.78582
 C639 C 0.83602 0.54107 0.78255
 C640 C 0.85549 0.50248 0.70085
 C641 C 0.84491 0.49702 0.68540
 C642 C 0.81598 0.49642 0.70570
 C643 C 0.82709 0.50209 0.72075
 N644 N 0.84654 0.50471 0.71813
 H645 H 0.85527 0.54679 0.75895
 H646 H 0.83773 0.49048 0.76415
 H647 H 0.81816 0.49791 0.79314
 H648 H 0.83628 0.55535 0.78752
 H649 H 0.87095 0.50479 0.69915
 H650 H 0.85238 0.49495 0.67184
 H651 H 0.80054 0.49426 0.70800
 H652 H 0.82017 0.50426 0.73449
 C653 C 0.89463 0.56575 0.71772
 C654 C 0.90140 0.46094 0.75747
 C655 C 0.82492 0.49377 0.68777
 C656 C 0.82546 0.52734 0.79255
 C657 C 0.26423 0.39228 -0.00751
 H658 H 0.27069 0.39140 0.00626
 C659 C 0.27268 0.40334 -0.02189
 H660 H 0.28548 0.41121 -0.01894
 C661 C 0.23994 0.38272 -0.02817
 H662 H 0.22751 0.37427 -0.03078
 C663 C 0.24789 0.39359 -0.04292
 H664 H 0.24142 0.39334 -0.05671
 N665 N 0.24817 0.38223 -0.01088
 C666 C 0.21933 0.36881 0.04331
 H667 H 0.21775 0.35389 0.04148
 C668 C 0.21170 0.37739 0.05961
 H669 H 0.20438 0.36895 0.07039
 C670 C 0.23103 0.39783 0.03149
 H671 H 0.23839 0.40576 0.02040
 C672 C 0.22373 0.40698 0.04767
 H673 H 0.22548 0.42196 0.04887
 Zn674 Zn 0.23871 0.36573 0.00836
 N675 N 0.22890 0.37903 0.02974
 C676 C 0.26568 0.34970 0.03368
 N677 N 0.25985 0.34985 0.01544
 C678 C 0.27009 0.34022 0.00179
 C679 C 0.28710 0.33010 0.00624
 C680 C 0.28256 0.33983 0.03873
 C681 C 0.20117 0.36187 -0.00394
 C682 C 0.18526 0.35320 -0.01147
 C683 C 0.20392 0.32400 -0.01207
 C684 C 0.21952 0.33326 -0.00444
 N685 N 0.21797 0.35195 -0.00090
 H686 H 0.25762 0.35770 0.04428
 H687 H 0.26537 0.34090 -0.01269
 H688 H 0.29541 0.32299 -0.00490
 H689 H 0.28704 0.34004 0.05330
 H690 H 0.20028 0.37666 -0.00074
 H691 H 0.17205 0.36141 -0.01379
 H692 H 0.20559 0.30926 -0.01538
 H693 H 0.23291 0.32558 -0.00165
 C694 C 0.21393 0.39671 0.06199
 C695 C 0.26460 0.40395 -0.03994
 C696 C 0.18660 0.33408 -0.01594
 C697 C 0.29370 0.33013 0.02487
 C698 C 0.78025 0.09380 1.01915
 H699 H 0.78826 0.09279 1.00576
 C700 C 0.78697 0.08403 1.03508
 H701 H 0.80003 0.07526 1.03377
 C702 C 0.75367 0.10674 1.03716
 H703 H 0.74100 0.11598 1.03811
 C704 C 0.75984 0.09721 1.05340
 H705 H 0.75177 0.09927 1.06665
 N706 N 0.76383 0.10483 1.02044
 C707 C 0.74127 0.11242 0.96368
 H708 H 0.73901 0.12749 0.96382
 C709 C 0.73617 0.10232 0.94791
 H710 H 0.72973 0.10974 0.93606
 C711 C 0.75202 0.08453 0.97927
 H712 H 0.75815 0.07767 0.99155
 C713 C 0.74713 0.07385 0.96373
 H714 H 0.74980 0.05882 0.96414
 Zn715 Zn 0.75620 0.11907 0.99889
 N716 N 0.74930 0.10350 0.97881
 C717 C 0.78483 0.13269 0.97294
 N718 N 0.77743 0.13402 0.99096
 C719 C 0.78530 0.14562 1.00363
 C720 C 0.80086 0.15694 0.99813
 C721 C 0.80028 0.14377 0.96685
 C722 C 0.71715 0.12544 1.00931
 C723 C 0.70025 0.13573 1.01419
 C724 C 0.71820 0.16424 1.00972
 C725 C 0.73477 0.15338 1.00488
 N726 N 0.73403 0.13433 1.00507
 H727 H 0.77883 0.12300 0.96322
 H728 H 0.77934 0.14618 1.01797
 H729 H 0.80671 0.16637 1.00827
 H730 H 0.80597 0.14245 0.95245
 H731 H 0.71693 0.11028 1.00912
 H732 H 0.68709 0.12835 1.01800
 H733 H 0.71904 0.17938 1.00951
 H734 H 0.74818 0.16022 1.00101
 C735 C 0.73927 0.08278 0.94769
 C736 C 0.77675 0.08574 1.05253
 C737 C 0.70067 0.15540 1.01458
 C738 C 0.80838 0.15622 0.97944
 C739 C 0.27941 0.58969 0.52365
 H740 H 0.28684 0.58933 0.50993
 C741 C 0.28717 0.57969 0.53895
 H742 H 0.30046 0.57140 0.53682
 C743 C 0.25325 0.60128 0.54312
 H744 H 0.24034 0.61012 0.54485
 C745 C 0.26046 0.59145 0.55878
 H746 H 0.25293 0.59282 0.57240
 N747 N 0.26275 0.60022 0.52597
 C748 C 0.23886 0.60913 0.46998
 H749 H 0.23695 0.62423 0.47035
 C750 C 0.23306 0.59935 0.45427
 H751 H 0.22647 0.60705 0.44268
 C752 C 0.24926 0.58083 0.48503
 H753 H 0.25547 0.57369 0.49713
 C754 C 0.24365 0.57045 0.46954
 H755 H 0.24587 0.55536 0.46976
 Zn756 Zn 0.25426 0.61496 0.50512
 N757 N 0.24699 0.59985 0.48485
 C758 C 0.28277 0.62903 0.47921
 N759 N 0.27517 0.63028 0.49716
 C760 C 0.28281 0.64190 0.50994
 C761 C 0.29839 0.65327 0.50466
 C762 C 0.29833 0.64010 0.47335
 C763 C 0.21545 0.62073 0.51693
 C764 C 0.19841 0.63082 0.52184
 C765 C 0.21570 0.65957 0.51637
 C766 C 0.23241 0.64892 0.51155
 N767 N 0.23206 0.62985 0.51213
 H768 H 0.27694 0.61931 0.46941
 H769 H 0.27670 0.64240 0.52423
 H770 H 0.30403 0.66270 0.51492
 H771 H 0.30429 0.63871 0.45906
 H772 H 0.21551 0.60555 0.51699
 H773 H 0.18546 0.62326 0.52598
 H774 H 0.21622 0.67473 0.51570
 H775 H 0.24557 0.65594 0.50717
 C776 C 0.23555 0.57975 0.45382
 C777 C 0.27774 0.58061 0.55685
 C778 C 0.19840 0.65051 0.52165
 C779 C 0.30629 0.65253 0.48610
 C780 C 0.77001 0.90382 0.48288
 H781 H 0.77604 0.90323 0.49687
 C782 C 0.77877 0.91477 0.46859
 H783 H 0.79135 0.92285 0.47180
 C784 C 0.74655 0.89365 0.46164
 H785 H 0.73434 0.88501 0.45878
 C786 C 0.75482 0.90440 0.44697
 H787 H 0.74880 0.90386 0.43300
 N788 N 0.75420 0.89354 0.47920
 C789 C 0.72378 0.88078 0.53277
 H790 H 0.72218 0.86586 0.53095
 C791 C 0.71595 0.88942 0.54895
 H792 H 0.70842 0.88103 0.55962
 C793 C 0.73594 0.90969 0.52114
 H794 H 0.74360 0.91754 0.51020
 C795 C 0.72842 0.91891 0.53721
 H796 H 0.73032 0.93386 0.53846
 Zn797 Zn 0.74416 0.87731 0.49842
 N798 N 0.73373 0.89089 0.51937
 C799 C 0.77034 0.86189 0.52477
 N800 N 0.76504 0.86150 0.50639
 C801 C 0.77555 0.85130 0.49334
 C802 C 0.79223 0.84107 0.49862
 C803 C 0.78688 0.85195 0.53062
 C804 C 0.70710 0.87338 0.48491
 C805 C 0.69143 0.86465 0.47699
 C806 C 0.70983 0.83531 0.47774
 C807 C 0.72519 0.84464 0.48572
 N808 N 0.72368 0.86342 0.48876
 H809 H 0.76211 0.87034 0.53489
 H810 H 0.77126 0.85155 0.47872
 H811 H 0.80073 0.83343 0.48798
 H812 H 0.79090 0.85257 0.54531
 H813 H 0.70621 0.88825 0.48774
 H814 H 0.67841 0.87289 0.47397
 H815 H 0.71148 0.82048 0.47484
 H816 H 0.73839 0.83692 0.48915
 C817 C 0.71833 0.90872 0.55140
 C818 C 0.77125 0.91504 0.45029
 C819 C 0.69277 0.84542 0.47301
 C820 C 0.79824 0.84161 0.51743
 C821 C -0.01211 0.26534 0.39638
 H822 H 0.00166 0.27236 0.39637
 C823 C -0.02802 0.27245 0.40706
 H824 H -0.02631 0.28483 0.41547
 C825 C -0.03115 0.24088 0.38510
 H826 H -0.03249 0.22885 0.37617
 C827 C -0.04739 0.24745 0.39559
 H828 H -0.06106 0.24037 0.39458
 N829 N -0.01394 0.24984 0.38568
 C830 C 0.04341 0.22421 0.37480
 H831 H 0.04263 0.22288 0.35960
 C832 C 0.05964 0.21711 0.38413
 H833 H 0.07144 0.21050 0.37596
 C834 C 0.02899 0.23477 0.40376
 H835 H 0.01691 0.24150 0.41134
 C836 C 0.04506 0.22791 0.41370
 H837 H 0.04519 0.22938 0.42893
 Zn838 Zn 0.00746 0.24181 0.37005
 N839 N 0.02858 0.23298 0.38462
 C840 C 0.03406 0.26822 0.35543
 N841 N 0.01536 0.26251 0.35477
 C842 C 0.00199 0.27211 0.34429
 C843 C 0.00731 0.28812 0.33385
 C844 C 0.04001 0.28399 0.34514
 C845 C -0.00248 0.20499 0.36456
 C846 C -0.00708 0.18895 0.35479
 C847 C -0.00611 0.20711 0.32561
 C848 C -0.00133 0.22284 0.33595
 N849 N 0.00025 0.22150 0.35509
 H850 H 0.04437 0.26080 0.36422
 H851 H -0.01287 0.26746 0.34426
 H852 H -0.00349 0.29564 0.32560
 H853 H 0.05487 0.28846 0.34617
 H854 H -0.00098 0.20432 0.37976
 H855 H -0.00939 0.17599 0.36263
 H856 H -0.00725 0.20830 0.31037
 H857 H 0.00121 0.23603 0.32868
 C858 C 0.06065 0.21893 0.40384
 C859 C -0.04600 0.26353 0.40665
 C860 C -0.00893 0.18987 0.33506
 C861 C 0.02657 0.29421 0.33421
 C862 C 1.02115 0.77045 0.09946
 H863 H 1.00734 0.77801 0.09860
 C864 C 1.03763 0.77730 0.08983
 H865 H 1.03637 0.79019 0.08161
 C866 C 1.03976 0.74508 0.11216
 H867 H 1.04070 0.73277 0.12121
 C868 C 1.05655 0.75138 0.10277
 H869 H 1.07012 0.74352 0.10437
 N870 N 1.02250 0.75464 0.11041
 C871 C 0.96414 0.73291 0.11906
 H872 H 0.96398 0.73186 0.13436
 C873 C 0.94848 0.72651 0.10913
 H874 H 0.93616 0.72076 0.11694
 C875 C 0.98054 0.74173 0.09041
 H876 H 0.99323 0.74738 0.08321
 C877 C 0.96509 0.73550 0.07986
 H878 H 0.96604 0.73639 0.06454
 Zn879 Zn 1.00038 0.74723 0.12505
 N880 N 0.97974 0.74036 0.10966
 C881 C 0.97418 0.77536 0.13912
 N882 N 0.99241 0.76766 0.14050
 C883 C 1.00548 0.77483 0.15234
 C884 C 1.00022 0.79004 0.16383
 C885 C 0.96832 0.79057 0.15029
 C886 C 1.01092 0.70970 0.13051
 C887 C 1.01598 0.69327 0.14034
 C888 C 1.01170 0.71005 0.16970
 C889 C 1.00669 0.72620 0.15928
 N890 N 1.00675 0.72581 0.14002
 H891 H 0.96418 0.76988 0.12922
 H892 H 1.02000 0.76864 0.15292
 H893 H 1.01070 0.79530 0.17344
 H894 H 0.95382 0.79661 0.14880
 H895 H 1.01047 0.70971 0.11521
 H896 H 1.01926 0.68061 0.13247
 H897 H 1.01209 0.71074 0.18498
 H898 H 1.00289 0.73902 0.16661
 C899 C 0.94886 0.72761 0.08925
 C900 C 1.05571 0.76784 0.09161
 C901 C 1.01664 0.69334 0.16020
 C902 C 0.98136 0.79805 0.16295
 C903 C 0.52854 0.26631 0.61440
 H904 H 0.51434 0.27317 0.61369
 C905 C 0.54445 0.27380 0.60437
 H906 H 0.54233 0.28631 0.59572
 C907 C 0.54858 0.24181 0.62680
 H908 H 0.55029 0.22961 0.63589
 C909 C 0.56483 0.24874 0.61693
 H910 H 0.57887 0.24174 0.61854
 N911 N 0.53084 0.25055 0.62529
 C912 C 0.47518 0.22321 0.63267
 H913 H 0.47517 0.22127 0.64789
 C914 C 0.46039 0.21571 0.62227
 H915 H 0.44893 0.20808 0.62960
 C916 C 0.49019 0.23556 0.60467
 H917 H 0.50197 0.24310 0.59786
 C918 C 0.47550 0.22848 0.59371
 H919 H 0.47608 0.23059 0.57849
 Zn920 Zn 0.50907 0.24179 0.63963
 N921 N 0.48967 0.23292 0.62380
 C922 C 0.47986 0.26769 0.65222
 N923 N 0.49872 0.26194 0.65422
 C924 C 0.51057 0.27085 0.66607
 C925 C 0.50339 0.28593 0.67685
 C926 C 0.47211 0.28271 0.66266
 C927 C 0.52228 0.20517 0.64672
 C928 C 0.52772 0.18936 0.65738
 C929 C 0.52114 0.20702 0.68589
 C930 C 0.51577 0.22250 0.67467
 N931 N 0.51666 0.22137 0.65545
 H932 H 0.47079 0.26076 0.64240
 H933 H 0.52560 0.26616 0.66718
 H934 H 0.51295 0.29261 0.68646
 H935 H 0.45713 0.28720 0.66063
 H936 H 0.52259 0.20459 0.63142
 H937 H 0.53251 0.17671 0.65013
 H938 H 0.52028 0.20812 0.70117
 H939 H 0.51078 0.23533 0.68137
 C940 C 0.46043 0.21831 0.60255
 C941 C 0.56290 0.26498 0.60559
 C942 C 0.52724 0.19017 0.67724
 C943 C 0.48388 0.29201 0.67526
 C944 C 0.48004 0.76326 0.89112
 H945 H 0.49402 0.76993 0.89074
 C946 C 0.46458 0.77083 0.90209
 H947 H 0.46688 0.78318 0.91038
 C948 C 0.46003 0.73924 0.88047
 H949 H 0.45815 0.72719 0.87169
 C950 C 0.44421 0.74631 0.89123
 H951 H 0.43030 0.73959 0.89055
 N952 N 0.47752 0.74774 0.88060
 C953 C 0.53405 0.72056 0.86884
 H954 H 0.53305 0.71908 0.85367
 C955 C 0.55016 0.71302 0.87811
 H956 H 0.56163 0.70590 0.86995
 C957 C 0.52027 0.73179 0.89780
 H958 H 0.50848 0.73890 0.90544
 C959 C 0.53622 0.72454 0.90766
 H960 H 0.53651 0.72610 0.92288
 Zn961 Zn 0.49834 0.73912 0.86453
 N962 N 0.51959 0.72983 0.87870
 C963 C 0.52527 0.76456 0.84842
 N964 N 0.50629 0.75955 0.84897
 C965 C 0.49260 0.76960 0.83931
 C966 C 0.49785 0.78537 0.82849
 C967 C 0.53115 0.78009 0.83769
 C968 C 0.48722 0.70251 0.85896
 C969 C 0.48152 0.68688 0.84911
 C970 C 0.48176 0.70565 0.82032
 C971 C 0.48767 0.72093 0.83072
 N972 N 0.49009 0.71912 0.84972
 H973 H 0.53587 0.75673 0.85653
 H974 H 0.47756 0.76548 0.84022
 H975 H 0.48679 0.79324 0.82090
 H976 H 0.54627 0.78402 0.83771
 H977 H 0.48938 0.70145 0.87406
 H978 H 0.47910 0.67383 0.85676
 H979 H 0.47990 0.70726 0.80520
 H980 H 0.49032 0.73416 0.82359
 C981 C 0.55141 0.71498 0.89778
 C982 C 0.44632 0.76240 0.90213
 C983 C 0.47868 0.68835 0.82954
 C984 C 0.51737 0.79076 0.82760
 C985 C 0.45942 -0.17460 0.30725
 C986 C 0.45271 -0.15857 0.29753
 C987 C 0.45304 -0.14085 0.30583
 C988 C 0.46091 -0.13941 0.32387
 C989 C 0.46745 -0.15539 0.33369
 C990 C 0.46666 -0.17341 0.32572
 C991 C 0.44530 -0.12428 0.29516
 C992 C 0.43933 -0.10825 0.30351
 C993 C 0.43078 -0.09174 0.29335
 C994 C 0.42084 -0.07792 0.30411
 C995 C 0.41238 -0.06215 0.29538
 C996 C 0.41371 -0.05975 0.27561
 C997 C 0.42388 -0.07340 0.26479
 C998 C 0.43244 -0.08918 0.27354
 H999 H 0.45797 -0.18795 0.30046
 H1000 H 0.44685 -0.16010 0.28358
 H1001 H 0.46241 -0.12595 0.33044
 H1002 H 0.47385 -0.15332 0.34728
 H1003 H 0.44349 -0.12593 0.28013
 H1004 H 0.43970 -0.10732 0.31876
 H1005 H 0.41939 -0.07944 0.31938
 H1006 H 0.40445 -0.05200 0.30409
 H1007 H 0.42541 -0.07176 0.24955
 H1008 H 0.44047 -0.09910 0.26470
 C1009 C 0.95348 0.32818 0.79819
 C1010 C 0.94586 0.34394 0.78868
 C1011 C 0.94778 0.36201 0.79595
 C1012 C 0.95761 0.36395 0.81300
 C1013 C 0.96525 0.34820 0.82247
 C1014 C 0.96312 0.33011 0.81530
 C1015 C 0.93829 0.37817 0.78602
 C1016 C 0.94262 0.39616 0.78879
 C1017 C 0.93206 0.41230 0.77989
 C1018 C 0.94091 0.42985 0.77903
 C1019 C 0.93110 0.44561 0.77159
 C1020 C 0.91216 0.44418 0.76488
 C1021 C 0.90328 0.42664 0.76577
 C1022 C 0.91304 0.41091 0.77325
 H1023 H 0.95135 0.31443 0.79241
 H1024 H 0.93820 0.34199 0.77569
 H1025 H 0.95901 0.37748 0.81944
 H1026 H 0.97276 0.35019 0.83552
 H1027 H 0.92749 0.37490 0.77582
 H1028 H 0.95463 0.39942 0.79762
 H1029 H 0.95547 0.43137 0.78420
 H1030 H 0.93837 0.45891 0.77101
 H1031 H 0.88851 0.42519 0.76115
 H1032 H 0.90534 0.39789 0.77429
 C1033 C 0.04718 1.19064 0.81911
 C1034 C 0.05585 1.17441 0.81146
 C1035 C 0.04455 1.16084 0.80311
 C1036 C 0.02429 1.16416 0.80209
 C1037 C 0.01560 1.18038 0.80984
 C1038 C 0.02693 1.19373 0.81854
 C1039 C 0.05458 1.14373 0.79549
 C1040 C 0.04554 1.12783 0.79155
 C1041 C 0.05588 1.11060 0.78455
 C1042 C 0.04639 1.09340 0.78612
 C1043 C 0.05561 1.07680 0.77985
 C1044 C 0.07456 1.07702 0.77179
 C1045 C 0.08395 1.09427 0.76999
 C1046 C 0.07471 1.11086 0.77612
 H1047 H 0.05628 1.20057 0.82589
 H1048 H 0.07148 1.17232 0.81234
 H1049 H 0.01506 1.15447 0.79521
 H1050 H 0.00000 1.18257 0.80890
 H1051 H 0.07027 1.14413 0.79411
 H1052 H 0.03005 1.12687 0.79441
 H1053 H 0.03181 1.09278 0.79232
 H1054 H 0.04780 1.06383 0.78116
 H1055 H 0.09862 1.09498 0.76403
 H1056 H 0.08240 1.12379 0.77400
 C1057 C 0.54625 0.68661 0.32673
 C1058 C 0.55442 0.67046 0.31847
 C1059 C 0.54261 0.65726 0.31017
 C1060 C 0.52236 0.66087 0.30989
 C1061 C 0.51417 0.67701 0.31825
 C1062 C 0.52602 0.69000 0.32685
 C1063 C 0.55216 0.64025 0.30181
 C1064 C 0.54276 0.62466 0.29751
 C1065 C 0.55271 0.60755 0.28974
 C1066 C 0.54312 0.59041 0.29112
 C1067 C 0.55203 0.57392 0.28421
 C1068 C 0.57077 0.57422 0.27567
 C1069 C 0.58024 0.59144 0.27403
 C1070 C 0.57129 0.60791 0.28081
 H1071 H 0.55574 0.69625 0.33342
 H1072 H 0.57005 0.66814 0.31880
 H1073 H 0.51273 0.65147 0.30310
 H1074 H 0.49856 0.67943 0.31785
 H1075 H 0.56785 0.64043 0.30011
 H1076 H 0.52731 0.62383 0.30064
 H1077 H 0.52870 0.58973 0.29771
 H1078 H 0.54417 0.56098 0.28541
 H1079 H 0.59475 0.59220 0.26771
 H1080 H 0.57902 0.62083 0.27880
 C1081 C 0.53273 0.32128 0.19109
 C1082 C 0.53859 0.33681 0.20111
 C1083 C 0.53759 0.35492 0.19302
 C1084 C 0.53050 0.35713 0.17459
 C1085 C 0.52457 0.34161 0.16461
 C1086 C 0.52580 0.32348 0.17264
 C1087 C 0.54531 0.37076 0.20371
 C1088 C 0.54175 0.38893 0.19945
 C1089 C 0.55109 0.40475 0.20883
 C1090 C 0.54341 0.42301 0.20607
 C1091 C 0.55260 0.43851 0.21334
 C1092 C 0.56979 0.43609 0.22350
 C1093 C 0.57725 0.41780 0.22663
 C1094 C 0.56813 0.40233 0.21930
 H1095 H 0.53412 0.30748 0.19760
 H1096 H 0.54418 0.33464 0.21518
 H1097 H 0.52994 0.37067 0.16750
 H1098 H 0.51910 0.34383 0.15050
 H1099 H 0.55422 0.36706 0.21563
 H1100 H 0.53149 0.39263 0.18861
 H1101 H 0.53043 0.42534 0.19793
 H1102 H 0.54660 0.45241 0.21047
 H1103 H 0.59034 0.41544 0.23459
 H1104 H 0.57494 0.38867 0.22145
 C1105 C 0.03651 0.82384 0.68943
 C1106 C 0.04280 0.83942 0.69912
 C1107 C 0.04099 0.85757 0.69121
 C1108 C 0.03258 0.85977 0.67335
 C1109 C 0.02621 0.84421 0.66372
 C1110 C 0.02831 0.82603 0.67152
 C1111 C 0.04922 0.87347 0.70144
 C1112 C 0.04534 0.89163 0.69735
 C1113 C 0.05507 0.90752 0.70623
 C1114 C 0.04716 0.92574 0.70377
 C1115 C 0.05655 0.94129 0.71067
 C1116 C 0.07417 0.93899 0.72015
 C1117 C 0.08192 0.92075 0.72291
 C1118 C 0.07260 0.90522 0.71594
 H1119 H 0.03857 0.81002 0.69575
 H1120 H 0.04940 0.83725 0.71276
 H1121 H 0.03130 0.87332 0.66639
 H1122 H 0.01974 0.84642 0.65004
 H1123 H 0.05882 0.86983 0.71285
 H1124 H 0.03447 0.89528 0.68707
 H1125 H 0.03380 0.92799 0.69620
 H1126 H 0.05030 0.95516 0.70810
 H1127 H 0.09534 0.91845 0.73037
 H1128 H 0.07959 0.89160 0.71781
 C1129 C 0.98338 0.67637 0.67545
 C1130 C 0.97553 0.65983 0.68289
 C1131 C 0.95547 0.65676 0.68225
 C1132 C 0.94337 0.67065 0.67394
 C1133 C 0.95122 0.68719 0.66654
 C1134 C 0.97132 0.69019 0.66708
 C1135 C 0.94794 0.63857 0.68941
 C1136 C 0.92922 0.63602 0.69453
 C1137 C 0.92134 0.61774 0.70097
 C1138 C 0.90344 0.61773 0.71105
 C1139 C 0.89493 0.60089 0.71667
 C1140 C 0.90409 0.58359 0.71222
 C1141 C 0.92207 0.58354 0.70222
 C1142 C 0.93059 0.60042 0.69655
 H1143 H 0.99891 0.67832 0.67619
 H1144 H 0.98520 0.64935 0.68910
 H1145 H 0.92795 0.66861 0.67251
 H1146 H 0.94162 0.69738 0.65980
 H1147 H 0.95842 0.62711 0.69099
 H1148 H 0.91913 0.64793 0.69461
 H1149 H 0.89595 0.63083 0.71458
 H1150 H 0.88119 0.60141 0.72459
 H1151 H 0.92931 0.57043 0.69832
 H1152 H 0.94408 0.59973 0.68829
 C1153 C 0.44544 0.18783 0.16693
 C1154 C 0.43651 0.17210 0.17495
 C1155 C 0.44756 0.15800 0.18404
 C1156 C 0.46775 0.16026 0.18549
 C1157 C 0.47669 0.17602 0.17746
 C1158 C 0.46566 0.18990 0.16795
 C1159 C 0.43740 0.14143 0.19202
 C1160 C 0.44625 0.12475 0.19536
 C1161 C 0.43568 0.10803 0.20241
 C1162 C 0.44373 0.09009 0.19877
 C1163 C 0.43395 0.07399 0.20476
 C1164 C 0.41591 0.07552 0.21460
 C1165 C 0.40813 0.09346 0.21872
 C1166 C 0.41792 0.10953 0.21280
 H1167 H 0.43655 0.19816 0.15952
 H1168 H 0.42092 0.17079 0.17374
 H1169 H 0.47670 0.15008 0.19298
 H1170 H 0.49224 0.17741 0.17883
 H1171 H 0.42175 0.14283 0.19401
 H1172 H 0.46156 0.12278 0.19168
 H1173 H 0.45748 0.08853 0.19097
 H1174 H 0.44029 0.06035 0.20134
 H1175 H 0.39451 0.09506 0.22672
 H1176 H 0.41160 0.12305 0.21662
 C1177 C 0.30725 0.45488 -0.17211
 C1178 C 0.29723 0.44868 -0.15575
 C1179 C 0.30418 0.45235 -0.13772
 C1180 C 0.32099 0.46306 -0.13636
 C1181 C 0.33102 0.46922 -0.15269
 C1182 C 0.32442 0.46499 -0.17075
 C1183 C 0.29354 0.44485 -0.12076
 C1184 C 0.30200 0.44148 -0.10410
 C1185 C 0.29192 0.43267 -0.08748
 C1186 C 0.30322 0.42339 -0.07382
 C1187 C 0.29438 0.41437 -0.05823
 C1188 C 0.27400 0.41455 -0.05587
 C1189 C 0.26269 0.42434 -0.06924
 C1190 C 0.27153 0.43336 -0.08485
 H1191 H 0.30185 0.45136 -0.18582
 H1192 H 0.28422 0.44062 -0.15721
 H1193 H 0.32639 0.46688 -0.12275
 H1194 H 0.34393 0.47740 -0.15120
 H1195 H 0.27867 0.44073 -0.12259
 H1196 H 0.31737 0.44394 -0.10285
 H1197 H 0.31895 0.42276 -0.07542
 H1198 H 0.30352 0.40680 -0.04832
 H1199 H 0.24697 0.42508 -0.06759
 H1200 H 0.26233 0.44095 -0.09466
 C1201 C 0.81667 0.96445 0.31845
 C1202 C 0.80631 0.95842 0.33468
 C1203 C 0.81270 0.96255 0.35282
 C1204 C 0.82927 0.97356 0.35438
 C1205 C 0.83964 0.97954 0.33818
 C1206 C 0.83362 0.97484 0.32004
 C1207 C 0.80174 0.95520 0.36966
 C1208 C 0.80978 0.95226 0.38658
 C1209 C 0.79942 0.94356 0.40309
 C1210 C 0.81046 0.93465 0.41719
 C1211 C 0.80135 0.92571 0.43267
 C1212 C 0.78093 0.92559 0.43449
 C1213 C 0.76986 0.93504 0.42070
 C1214 C 0.77897 0.94398 0.40520
 H1215 H 0.81171 0.96054 0.30468
 H1216 H 0.79349 0.95013 0.33306
 H1217 H 0.83423 0.97773 0.36805
 H1218 H 0.85236 0.98795 0.33983
 H1219 H 0.78702 0.95080 0.36753
 H1220 H 0.82506 0.95500 0.38817
 H1221 H 0.82622 0.93424 0.41600
 H1222 H 0.81031 0.91842 0.44293
 H1223 H 0.75410 0.93556 0.42194
 H1224 H 0.76994 0.95129 0.39505
 C1225 C 0.85291 0.01838 1.16034
 C1226 C 0.84550 0.02542 1.14338
 C1227 C 0.82892 0.03724 1.14338
 C1228 C 0.81991 0.04206 1.16083
 C1229 C 0.82733 0.03508 1.17786
 C1230 C 0.84406 0.02310 1.17804
 C1231 C 0.82219 0.04494 1.12499
 C1232 C 0.80404 0.05158 1.12220
 C1233 C 0.79761 0.05964 1.10385
 C1234 C 0.77767 0.06019 1.10009
 C1235 C 0.77092 0.06831 1.08329
 C1236 C 0.78399 0.07622 1.06992
 C1237 C 0.80398 0.07565 1.07364
 C1238 C 0.81073 0.06754 1.09044
 H1239 H 0.86622 0.01000 1.15932
 H1240 H 0.85293 0.02173 1.13016
 H1241 H 0.80734 0.05149 1.16150
 H1242 H 0.81945 0.03884 1.19078
 H1243 H 0.83255 0.04441 1.11314
 H1244 H 0.79313 0.05050 1.13351
 H1245 H 0.76724 0.05431 1.11019
 H1246 H 0.75545 0.06839 1.08077
 H1247 H 0.81436 0.08201 1.06383
 H1248 H 0.82613 0.06803 1.09305
 C1249 C 0.31063 0.52642 0.69012
 C1250 C 0.30201 0.53374 0.67380
 C1251 C 0.31163 0.53234 0.65603
 C1252 C 0.32991 0.52297 0.65487
 C1253 C 0.33855 0.51575 0.67118
 C1254 C 0.32907 0.51742 0.68903
 C1255 C 0.30200 0.54052 0.63911
 C1256 C 0.31167 0.54503 0.62293
 C1257 C 0.30239 0.55375 0.60610
 C1258 C 0.31434 0.56264 0.59241
 C1259 C 0.30638 0.57117 0.57637
 C1260 C 0.28623 0.57095 0.57358
 C1261 C 0.27426 0.56178 0.58708
 C1262 C 0.28223 0.55318 0.60312
 H1263 H 0.30277 0.52768 0.70357
 H1264 H 0.28782 0.54066 0.67509
 H1265 H 0.33759 0.52096 0.64145
 H1266 H 0.35284 0.50905 0.66981
 H1267 H 0.28658 0.54379 0.64058
 H1268 H 0.32735 0.54323 0.62211
 H1269 H 0.32991 0.56321 0.59425
 H1270 H 0.31597 0.57829 0.56633
 H1271 H 0.25872 0.56108 0.58513
 H1272 H 0.27254 0.54593 0.61292
 C1273 C 0.16591 0.54617 0.33372
 C1274 C 0.17600 0.55366 0.34859
 C1275 C 0.18972 0.54265 0.35839
 C1276 C 0.19360 0.52407 0.35266
 C1277 C 0.18364 0.51664 0.33759
 C1278 C 0.16956 0.52757 0.32811
 C1279 C 0.19991 0.55126 0.37413
 C1280 C 0.20683 0.54150 0.38897
 C1281 C 0.21545 0.55082 0.40525
 C1282 C 0.21327 0.54284 0.42345
 C1283 C 0.22011 0.55199 0.43924
 C1284 C 0.22947 0.56923 0.43706
 C1285 C 0.23245 0.57674 0.41871
 C1286 C 0.22555 0.56764 0.40298
 H1287 H 0.15536 0.55501 0.32647
 H1288 H 0.17290 0.56806 0.35259
 H1289 H 0.20446 0.51536 0.35959
 H1290 H 0.18673 0.50226 0.33351
 H1291 H 0.20033 0.56644 0.37413
 H1292 H 0.20466 0.52653 0.39006
 H1293 H 0.20570 0.52980 0.42554
 H1294 H 0.21753 0.54587 0.45318
 H1295 H 0.24011 0.58970 0.41649
 H1296 H 0.22818 0.57381 0.38906
 C1297 C 0.66491 0.01102 0.84894
 C1298 C 0.67415 0.01694 0.86506
 C1299 C 0.69296 0.02400 0.86377
 C1300 C 0.70279 0.02418 0.84601
 C1301 C 0.69358 0.01825 0.82981
 C1302 C 0.67424 0.01190 0.83083
 C1303 C 0.70155 0.03113 0.88123
 C1304 C 0.71591 0.04354 0.88114
 C1305 C 0.72270 0.05255 0.89849
 C1306 C 0.73211 0.06972 0.89655
 C1307 C 0.73777 0.07933 0.91247
 C1308 C 0.73424 0.07194 0.93079
 C1309 C 0.72550 0.05439 0.93275
 C1310 C 0.71984 0.04474 0.91679
 H1311 H 0.65058 0.00531 0.85102
 H1312 H 0.66637 0.01622 0.87862
 H1313 H 0.71756 0.02895 0.84445
 H1314 H 0.70154 0.01959 0.81645
 H1315 H 0.69446 0.02722 0.89454
 H1316 H 0.72187 0.04868 0.86775
 H1317 H 0.73475 0.07595 0.88264
 H1318 H 0.74489 0.09261 0.91044
 H1319 H 0.72260 0.04830 0.94666
 H1320 H 0.71326 0.03124 0.91893
 C1321 C 0.69266 0.96181 0.68601
 C1322 C 0.70060 0.95543 0.66872
 C1323 C 0.68963 0.95643 0.65225
 C1324 C 0.67076 0.96456 0.65329
 C1325 C 0.66285 0.97095 0.67053
 C1326 C 0.67364 0.96955 0.68712
 C1327 C 0.69830 0.94907 0.63427
 C1328 C 0.68749 0.94259 0.62038
 C1329 C 0.69581 0.93441 0.60265
 C1330 C 0.68460 0.92181 0.59282
 C1331 C 0.69185 0.91361 0.57613
 C1332 C 0.71042 0.91800 0.56875
 C1333 C 0.72148 0.93099 0.57830
 C1334 C 0.71427 0.93912 0.59509
 H1335 H 0.70143 0.96077 0.69848
 H1336 H 0.71525 0.94943 0.66826
 H1337 H 0.66207 0.96617 0.64082
 H1338 H 0.64811 0.97670 0.67090
 H1339 H 0.71402 0.94788 0.63306
 H1340 H 0.67184 0.94210 0.62247
 H1341 H 0.67025 0.91813 0.59819
 H1342 H 0.68287 0.90388 0.56892
 H1343 H 0.73585 0.93461 0.57295
 H1344 H 0.72310 0.94919 0.60196
 C1345 C 0.18514 0.45653 0.19371
 C1346 C 0.19345 0.44817 0.17748
 C1347 C 0.18337 0.44831 0.16047
 C1348 C 0.16499 0.45742 0.15987
 C1349 C 0.15673 0.46581 0.17603
 C1350 C 0.16668 0.46546 0.19314
 C1351 C 0.19254 0.43935 0.14350
 C1352 C 0.18210 0.43223 0.12968
 C1353 C 0.19086 0.42322 0.11258
 C1354 C 0.17989 0.41023 0.10302
 C1355 C 0.18739 0.40163 0.08664
 C1356 C 0.20596 0.40603 0.07929
 C1357 C 0.21686 0.41927 0.08866
 C1358 C 0.20941 0.42778 0.10516
 H1359 H 0.19324 0.45623 0.20664
 H1360 H 0.20773 0.44144 0.17825
 H1361 H 0.15702 0.45835 0.14689
 H1362 H 0.14243 0.47246 0.17516
 H1363 H 0.20826 0.43781 0.14292
 H1364 H 0.16638 0.43211 0.13129
 H1365 H 0.16547 0.40665 0.10830
 H1366 H 0.17853 0.39170 0.07956
 H1367 H 0.23124 0.42289 0.08333
 H1368 H 0.21807 0.43813 0.11183
 C1369 C -0.15535 0.34453 0.47311
 C1370 C -0.13797 0.33600 0.46656
 C1371 C -0.13802 0.31879 0.45718
 C1372 C -0.15598 0.31018 0.45465
 C1373 C -0.17340 0.31871 0.46129
 C1374 C -0.17328 0.33609 0.47038
 C1375 C -0.11922 0.31108 0.44935
 C1376 C -0.11632 0.29330 0.44375
 C1377 C -0.09768 0.28619 0.43500
 C1378 C -0.09369 0.26678 0.43514
 C1379 C -0.07675 0.25943 0.42628
 C1380 C -0.06345 0.27135 0.41698
 C1381 C -0.06738 0.29078 0.41690
 C1382 C -0.08434 0.29813 0.42570
 H1383 H -0.15477 0.35781 0.48028
 H1384 H -0.12440 0.34299 0.46868
 H1385 H -0.15682 0.29720 0.44704
 H1386 H -0.18703 0.31202 0.45875
 H1387 H -0.10716 0.32055 0.44861
 H1388 H -0.12774 0.28329 0.44601
 H1389 H -0.10375 0.25725 0.44207
 H1390 H -0.07405 0.24441 0.42670
 H1391 H -0.05765 0.30028 0.40947
 H1392 H -0.08714 0.31309 0.42461
 C1393 C 0.34185 0.84537 0.97338
 C1394 C 0.35875 0.83635 0.96629
 C1395 C 0.35769 0.82014 0.95539
 C1396 C 0.33922 0.81305 0.95181
 C1397 C 0.32228 0.82209 0.95894
 C1398 C 0.32341 0.83847 0.96963
 C1399 C 0.37602 0.81189 0.94709
 C1400 C 0.37786 0.79426 0.94080
 C1401 C 0.39603 0.78656 0.93165
 C1402 C 0.39923 0.76704 0.93147
 C1403 C 0.41572 0.75920 0.92224
 C1404 C 0.42933 0.77072 0.91282
 C1405 C 0.42615 0.79027 0.91303
 C1406 C 0.40967 0.79811 0.92226
 H1407 H 0.34322 0.85782 0.98178
 H1408 H 0.37275 0.84216 0.96921
 H1409 H 0.33767 0.80094 0.94301
 H1410 H 0.30827 0.81662 0.95554
 H1411 H 0.38861 0.82072 0.94664
 H1412 H 0.36590 0.78480 0.94284
 H1413 H 0.38891 0.75782 0.93847
 H1414 H 0.41783 0.74410 0.92247
 H1415 H 0.43611 0.79950 0.90554
 H1416 H 0.40743 0.81316 0.92144
 C1417 C 1.16016 0.84846 0.02328
 C1418 C 1.14348 0.83951 0.03011
 C1419 C 1.14467 0.82119 0.03757
 C1420 C 1.16295 0.81179 0.03768
 C1421 C 1.17968 0.82075 0.03080
 C1422 C 1.17848 0.83920 0.02355
 C1423 C 1.12650 0.81238 0.04475
 C1424 C 1.12618 0.79847 0.05775
 C1425 C 1.10792 0.79056 0.06581
 C1426 C 1.10824 0.78204 0.08384
 C1427 C 1.09135 0.77466 0.09216
 C1428 C 1.07372 0.77543 0.08253
 C1429 C 1.07344 0.78365 0.06431
 C1430 C 1.09036 0.79107 0.05599
 H1431 H 1.15874 0.86276 0.01804
 H1432 H 1.12959 0.84705 0.02979
 H1433 H 1.16441 0.79745 0.04273
 H1434 H 1.19351 0.81312 0.03087
 H1435 H 1.11289 0.81856 0.04004
 H1436 H 1.13969 0.79349 0.06379
 H1437 H 1.12157 0.78137 0.09168
 H1438 H 1.09203 0.76866 0.10631
 H1439 H 1.06019 0.78411 0.05637
 H1440 H 1.08966 0.79693 0.04180
 C1441 C 0.66528 0.34549 0.53262
 C1442 C 0.64913 0.33765 0.54187
 C1443 C 0.65088 0.32052 0.55179
 C1444 C 0.66935 0.31149 0.55249
 C1445 C 0.68554 0.31936 0.54319
 C1446 C 0.68367 0.33642 0.53308
 C1447 C 0.63321 0.31308 0.56161
 C1448 C 0.63142 0.29521 0.56751
 C1449 C 0.61352 0.28798 0.57711
 C1450 C 0.61057 0.26857 0.57736
 C1451 C 0.59409 0.26111 0.58644
 C1452 C 0.58017 0.27292 0.59554
 C1453 C 0.58313 0.29233 0.59541
 C1454 C 0.59967 0.29979 0.58642
 H1455 H 0.66339 0.35886 0.52535
 H1456 H 0.63518 0.34504 0.54127
 H1457 H 0.67153 0.29856 0.56041
 H1458 H 0.69951 0.31202 0.54381
 H1459 H 0.62089 0.32273 0.56318
 H1460 H 0.64308 0.28512 0.56452
 H1461 H 0.62103 0.25913 0.57042
 H1462 H 0.59215 0.24609 0.58621
 H1463 H 0.57289 0.30173 0.60268
 H1464 H 0.60166 0.31474 0.58725
 C1465 C 0.33057 0.18707 0.54261
 C1466 C 0.34690 0.19579 0.54948
 C1467 C 0.36556 0.18760 0.54692
 C1468 C 0.36773 0.17097 0.53655
 C1469 C 0.35146 0.16232 0.52958
 C1470 C 0.33264 0.17008 0.53280
 C1471 C 0.38242 0.19662 0.55529
 C1472 C 0.39788 0.18668 0.56147
 C1473 C 0.41409 0.19515 0.57139
 C1474 C 0.42412 0.18419 0.58478
 C1475 C 0.43922 0.19170 0.59479
 C1476 C 0.44486 0.21026 0.59137
 C1477 C 0.43525 0.22110 0.57755
 C1478 C 0.41993 0.21365 0.56769
 H1479 H 0.31630 0.19338 0.54543
 H1480 H 0.34488 0.20868 0.55729
 H1481 H 0.38199 0.16465 0.53368
 H1482 H 0.35363 0.14956 0.52160
 H1483 H 0.38127 0.21154 0.55785
 H1484 H 0.39800 0.17152 0.56066
 H1485 H 0.42003 0.16984 0.58773
 H1486 H 0.44657 0.18297 0.60519
 H1487 H 0.43936 0.23545 0.57465
 H1488 H 0.41284 0.22232 0.55709
 C1489 C 0.82789 0.65736 0.04970
 C1490 C 0.84346 0.66593 0.05800
 C1491 C 0.85271 0.68108 0.04896
 C1492 C 0.84562 0.68788 0.03157
 C1493 C 0.82988 0.67934 0.02330
 C1494 C 0.82102 0.66385 0.03219
 C1495 C 0.86944 0.68925 0.05843
 C1496 C 0.88309 0.69970 0.04969
 C1497 C 0.90023 0.70644 0.05965
 C1498 C 0.90915 0.72300 0.05337
 C1499 C 0.92511 0.72984 0.06277
 C1500 C 0.93253 0.72013 0.07858
 C1501 C 0.92403 0.70321 0.08441
 C1502 C 0.90815 0.69640 0.07504
 H1503 H 0.82111 0.64569 0.05707
 H1504 H 0.84846 0.66052 0.07148
 H1505 H 0.85198 0.69983 0.02437
 H1506 H 0.82485 0.68465 0.00980
 H1507 H 0.87078 0.68591 0.07335
 H1508 H 0.88182 0.70359 0.03491
 H1509 H 0.90351 0.73085 0.04138
 H1510 H 0.93137 0.74291 0.05795
 H1511 H 0.92979 0.69512 0.09618
 H1512 H 0.90233 0.68312 0.07976
 C1513 C 0.68271 0.68465 0.96262
 C1514 C 0.66630 0.69308 0.95443
 C1515 C 0.64892 0.68327 0.95334
 C1516 C 0.64808 0.66504 0.96117
 C1517 C 0.66443 0.65665 0.96938
 C1518 C 0.68197 0.66630 0.97013
 C1519 C 0.63188 0.69248 0.94429
 C1520 C 0.61812 0.68277 0.93594
 C1521 C 0.60118 0.69158 0.92641
 C1522 C 0.59205 0.68139 0.91250
 C1523 C 0.57592 0.68899 0.90325
 C1524 C 0.56839 0.70690 0.90786
 C1525 C 0.57728 0.71700 0.92204
 C1526 C 0.59353 0.70944 0.93124
 H1527 H 0.69592 0.69254 0.96322
 H1528 H 0.66725 0.70722 0.94871
 H1529 H 0.63479 0.65723 0.96118
 H1530 H 0.66340 0.64245 0.97490
 H1531 H 0.63137 0.70765 0.94358
 H1532 H 0.61978 0.66766 0.93505
 H1533 H 0.59750 0.66752 0.90869
 H1534 H 0.56919 0.68074 0.89261
 H1535 H 0.57180 0.73085 0.92587
 H1536 H 0.59981 0.71749 0.94226
 C1537 C 0.17676 0.18071 0.48959
 C1538 C 0.15976 0.18871 0.48217
 C1539 C 0.15699 0.18910 0.46257
 C1540 C 0.17201 0.18212 0.45042
 C1541 C 0.18900 0.17417 0.45781
 C1542 C 0.19147 0.17313 0.47749
 C1543 C 0.13843 0.19693 0.45522
 C1544 C 0.13099 0.19113 0.43903
 C1545 C 0.11236 0.19830 0.43124
 C1546 C 0.10369 0.18775 0.41730
 C1547 C 0.08670 0.19426 0.40876
 C1548 C 0.07799 0.21156 0.41386
 C1549 C 0.08645 0.22204 0.42801
 C1550 C 0.10352 0.21555 0.43657
 H1551 H 0.17838 0.18039 0.50480
 H1552 H 0.14855 0.19425 0.49181
 H1553 H 0.17072 0.18278 0.43519
 H1554 H 0.20001 0.16840 0.44811
 H1555 H 0.13026 0.20680 0.46404
 H1556 H 0.13848 0.17994 0.43132
 H1557 H 0.11016 0.17444 0.41291
 H1558 H 0.08039 0.18574 0.39808
 H1559 H 0.08023 0.23557 0.43202
 H1560 H 0.10996 0.22436 0.44687
 C1561 C 0.56311 0.05783 0.72881
 C1562 C 0.55310 0.07381 0.72216
 C1563 C 0.55718 0.09163 0.72897
 C1564 C 0.57075 0.09303 0.74341
 C1565 C 0.58077 0.07705 0.75003
 C1566 C 0.57735 0.05934 0.74253
 C1567 C 0.54735 0.10829 0.72034
 C1568 C 0.55487 0.12549 0.72011
 C1569 C 0.54637 0.14180 0.70969
 C1570 C 0.55148 0.15991 0.71485
 C1571 C 0.54494 0.17565 0.70459
 C1572 C 0.53328 0.17358 0.68879
 C1573 C 0.52800 0.15547 0.68371
 C1574 C 0.53449 0.13974 0.69399
 H1575 H 0.56023 0.04439 0.72268
 H1576 H 0.54260 0.07230 0.71117
 H1577 H 0.57373 0.10636 0.74964
 H1578 H 0.59132 0.07857 0.76096
 H1579 H 0.53403 0.10594 0.71304
 H1580 H 0.56819 0.12786 0.72741
 H1581 H 0.56079 0.16189 0.72674
 H1582 H 0.54947 0.18940 0.70870
 H1583 H 0.51892 0.15345 0.67166
 H1584 H 0.53065 0.12605 0.68915
 C1585 C 1.09376 0.57994 0.21506
 C1586 C 1.08601 0.59588 0.20610
 C1587 C 1.06740 0.60300 0.21125
 C1588 C 1.05667 0.59374 0.22576
 C1589 C 1.06447 0.57772 0.23476
 C1590 C 1.08314 0.57070 0.22955
 C1591 C 1.06021 0.62010 0.20112
 C1592 C 1.04185 0.62700 0.20211
 C1593 C 1.03552 0.64386 0.19112
 C1594 C 1.01990 0.65506 0.19812
 C1595 C 1.01372 0.67114 0.18814
 C1596 C 1.02292 0.67621 0.17082
 C1597 C 1.03830 0.66477 0.16366
 C1598 C 1.04446 0.64874 0.17361
 H1599 H 1.10804 0.57470 0.21046
 H1600 H 1.09461 0.60263 0.19496
 H1601 H 1.04243 0.59883 0.23048
 H1602 H 1.05605 0.57100 0.24602
 H1603 H 1.07082 0.62732 0.19224
 H1604 H 1.03108 0.62054 0.21137
 H1605 H 1.01258 0.65146 0.21143
 H1606 H 1.00162 0.67950 0.19387
 H1607 H 1.04576 0.66832 0.15042
 H1608 H 1.05607 0.64012 0.16736
 C1609 C 0.94886 0.92986 0.21518
 C1610 C 0.95838 0.91376 0.20810
 C1611 C 0.95394 0.89594 0.21549
 C1612 C 0.94054 0.89464 0.23092
 C1613 C 0.93095 0.91072 0.23792
 C1614 C 0.93472 0.92844 0.22988
 C1615 C 0.96318 0.87914 0.20645
 C1616 C 0.95516 0.86216 0.20723
 C1617 C 0.96281 0.84567 0.19649
 C1618 C 0.95023 0.83083 0.19371
 C1619 C 0.95634 0.81531 0.18307
 C1620 C 0.97526 0.81420 0.17498
 C1621 C 0.98809 0.82877 0.17822
 C1622 C 0.98198 0.84432 0.18891
 H1623 H 0.95201 0.94333 0.20867
 H1624 H 0.96878 0.91519 0.19636
 H1625 H 0.93733 0.88130 0.23761
 H1626 H 0.92044 0.90929 0.24956
 H1627 H 0.97601 0.88138 0.19755
 H1628 H 0.94142 0.86045 0.21486
 H1629 H 0.93547 0.83135 0.19956
 H1630 H 0.94622 0.80414 0.18119
 H1631 H 1.00276 0.82835 0.17216
 H1632 H 0.99237 0.85513 0.19117
 C1633 C 0.43923 0.42321 0.72251
 C1634 C 0.44968 0.40746 0.71583
 C1635 C 0.44570 0.38947 0.72309
 C1636 C 0.43156 0.38768 0.73782
 C1637 C 0.42103 0.40342 0.74441
 C1638 C 0.42458 0.42131 0.73665
 C1639 C 0.45645 0.37309 0.71477
 C1640 C 0.44998 0.35548 0.71592
 C1641 C 0.45955 0.33926 0.70613
 C1642 C 0.44863 0.32317 0.70365
 C1643 C 0.45662 0.30777 0.69391
 C1644 C 0.47579 0.30806 0.68643
 C1645 C 0.48697 0.32393 0.68939
 C1646 C 0.47899 0.33934 0.69920
 H1647 H 0.44223 0.43682 0.71622
 H1648 H 0.46060 0.40929 0.70462
 H1649 H 0.42856 0.37424 0.74441
 H1650 H 0.41011 0.40162 0.75563
 H1651 H 0.46934 0.37604 0.70620
 H1652 H 0.43623 0.35287 0.72321
 H1653 H 0.43373 0.32258 0.70904
 H1654 H 0.44775 0.29560 0.69225
 H1655 H 0.50178 0.32461 0.68378
 H1656 H 0.48818 0.35116 0.70129
 C1657 C 0.42843 0.55843 0.79935
 C1658 C 0.43850 0.57403 0.80501
 C1659 C 0.44079 0.58961 0.79284
 C1660 C 0.43333 0.58895 0.77449
 C1661 C 0.42322 0.57329 0.76882
 C1662 C 0.42044 0.55797 0.78129
 C1663 C 0.45098 0.60605 0.80000
 C1664 C 0.44965 0.62341 0.79242
 C1665 C 0.45835 0.63995 0.80109
 C1666 C 0.45042 0.65789 0.79711
 C1667 C 0.45733 0.67371 0.80596
 C1668 C 0.47234 0.67189 0.81899
 C1669 C 0.48084 0.65408 0.82238
 C1670 C 0.47406 0.63830 0.81343
 H1671 H 0.42692 0.54669 0.80914
 H1672 H 0.44429 0.57403 0.81912
 H1673 H 0.43526 0.60037 0.76443
 H1674 H 0.41723 0.57336 0.75481
 H1675 H 0.45870 0.60387 0.81301
 H1676 H 0.44059 0.62605 0.78035
 H1677 H 0.43847 0.65961 0.78752
 H1678 H 0.45051 0.68728 0.80310
 H1679 H 0.49277 0.65237 0.83200
 H1680 H 0.48121 0.62491 0.81626
 C1681 C -0.06905 0.08326 0.25712
 C1682 C -0.06014 0.09981 0.26216
 C1683 C -0.05285 0.10179 0.28037
 C1684 C -0.05472 0.08682 0.29349
 C1685 C -0.06360 0.07032 0.28845
 C1686 C -0.07105 0.06840 0.27029
 C1687 C -0.04465 0.11998 0.28564
 C1688 C -0.03233 0.12164 0.29989
 C1689 C -0.02551 0.13974 0.30707
 C1690 C -0.01075 0.13913 0.32041
 C1691 C -0.00502 0.15546 0.32909
 C1692 C -0.01390 0.17286 0.32461
 C1693 C -0.02822 0.17366 0.31083
 C1694 C -0.03408 0.15727 0.30221
 H1695 H -0.07489 0.08231 0.24310
 H1696 H -0.05911 0.11119 0.25187
 H1697 H -0.04992 0.08792 0.30786
 H1698 H -0.06479 0.05908 0.29887
 H1699 H -0.04891 0.13219 0.27733
 H1700 H -0.02692 0.10906 0.30693
 H1701 H -0.00388 0.12588 0.32447
 H1702 H 0.00625 0.15447 0.33949
 H1703 H -0.03545 0.18687 0.30727
 H1704 H -0.04576 0.15847 0.29232
 C1705 C 0.05520 0.42794 0.27833
 C1706 C 0.04604 0.41109 0.28295
 C1707 C 0.05558 0.39716 0.29376
 C1708 C 0.07425 0.40064 0.30035
 C1709 C 0.08333 0.41747 0.29584
 C1710 C 0.07396 0.43130 0.28475
 C1711 C 0.04556 0.37947 0.29861
 C1712 C 0.05540 0.36323 0.30153
 C1713 C 0.04644 0.34547 0.30805
 C1714 C 0.05774 0.32884 0.30674
 C1715 C 0.05095 0.31206 0.31457
 C1716 C 0.03267 0.31152 0.32399
 C1717 C 0.02098 0.32798 0.32472
 C1718 C 0.02781 0.34483 0.31691
 H1719 H 0.04755 0.43843 0.26993
 H1720 H 0.03155 0.40884 0.27793
 H1721 H 0.08180 0.39053 0.30925
 H1722 H 0.09783 0.41956 0.30087
 H1723 H 0.02981 0.37991 0.29928
 H1724 H 0.07103 0.36279 0.29899
 H1725 H 0.07212 0.32890 0.30002
 H1726 H 0.06017 0.29955 0.31358
 H1727 H 0.00694 0.32802 0.33211
 H1728 H 0.01878 0.35736 0.31862
 C1729 C 0.59946 0.90167 0.78657
 C1730 C 0.59114 0.88435 0.79048
 C1731 C 0.57193 0.88100 0.78550
 C1732 C 0.56137 0.89523 0.77592
 C1733 C 0.56975 0.91259 0.77194
 C1734 C 0.58881 0.91605 0.77743
 C1735 C 0.56374 0.86249 0.79054
 C1736 C 0.54461 0.85932 0.79248
 C1737 C 0.53705 0.84121 0.79977
 C1738 C 0.51901 0.84110 0.80965
 C1739 C 0.51226 0.82458 0.81819
 C1740 C 0.52339 0.80782 0.81691
 C1741 C 0.54093 0.80771 0.80616
 C1742 C 0.54764 0.82418 0.79758
 H1743 H 0.61432 0.90377 0.79061
 H1744 H 0.59969 0.87358 0.79766
 H1745 H 0.54673 0.89303 0.77136
 H1746 H 0.56123 0.92342 0.76484
 H1747 H 0.57408 0.85145 0.79433
 H1748 H 0.53416 0.87074 0.79047
 H1749 H 0.51047 0.85398 0.81137
 H1750 H 0.49871 0.82509 0.82642
 H1751 H 0.54955 0.79487 0.80454
 H1752 H 0.56117 0.82351 0.78936
 C1753 C 0.71968 0.55652 0.06704
 C1754 C 0.71209 0.54652 0.08263
 C1755 C 0.71065 0.55454 0.10058
 C1756 C 0.71713 0.57288 0.10267
 C1757 C 0.72481 0.58291 0.08717
 C1758 C 0.72605 0.57519 0.06875
 C1759 C 0.70112 0.54385 0.11636
 C1760 C 0.70269 0.54803 0.13472
 C1761 C 0.69163 0.53879 0.15053
 C1762 C 0.69658 0.54272 0.16918
 C1763 C 0.68567 0.53570 0.18460
 C1764 C 0.66948 0.52455 0.18174
 C1765 C 0.66478 0.52021 0.16310
 C1766 C 0.67562 0.52731 0.14767
 H1767 H 0.71924 0.54962 0.05357
 H1768 H 0.70692 0.53250 0.08052
 H1769 H 0.71601 0.57986 0.11614
 H1770 H 0.73024 0.59657 0.09021
 H1771 H 0.69261 0.53207 0.11243
 H1772 H 0.71251 0.55882 0.13861
 H1773 H 0.70871 0.55162 0.17186
 H1774 H 0.68953 0.53956 0.19874
 H1775 H 0.65255 0.51146 0.16041
 H1776 H 0.67091 0.52412 0.13365
 C1777 C 0.22410 1.06141 0.56864
 C1778 C 0.21670 1.05100 0.58404
 C1779 C 0.22210 1.05486 0.60257
 C1780 C 0.23587 1.06878 0.60529
 C1781 C 0.24324 1.07920 0.58989
 C1782 C 0.23719 1.07585 0.57144
 C1783 C 0.21280 1.04433 0.61855
 C1784 C 0.21084 1.05107 0.63618
 C1785 C 0.19971 1.04177 0.65186
 C1786 C 0.20275 1.04733 0.67050
 C1787 C 0.19149 1.04019 0.68562
 C1788 C 0.17678 1.02739 0.68241
 C1789 C 0.17396 1.02152 0.66381
 C1790 C 0.18523 1.02864 0.64868
 H1791 H 0.21909 1.05855 0.55460
 H1792 H 0.20626 1.04026 0.58152
 H1793 H 0.24107 1.07168 0.61922
 H1794 H 0.25370 1.08992 0.59243
 H1795 H 0.20649 1.03108 0.61526
 H1796 H 0.21711 1.06437 0.63937
 H1797 H 0.21366 1.05754 0.67335
 H1798 H 0.19384 1.04520 0.69975
 H1799 H 0.16282 1.01157 0.66090
 H1800 H 0.18198 1.02428 0.63456
 C1801 C 0.22649 0.94882 0.92559
 C1802 C 0.21884 0.95866 0.91007
 C1803 C 0.20895 0.94932 0.89616
 C1804 C 0.20751 0.92978 0.89761
 C1805 C 0.21518 0.91986 0.91296
 C1806 C 0.22477 0.92906 0.92759
 C1807 C 0.20057 0.96008 0.88009
 C1808 C 0.18441 0.95469 0.87170
 C1809 C 0.17573 0.96429 0.85509
 C1810 C 0.15637 0.96051 0.85104
 C1811 C 0.14793 0.96783 0.83470
 C1812 C 0.15873 0.97900 0.82188
 C1813 C 0.17798 0.98323 0.82611
 C1814 C 0.18645 0.97589 0.84253
 H1815 H 0.23442 0.95693 0.93543
 H1816 H 0.22054 0.97371 0.90903
 H1817 H 0.20044 0.92200 0.88684
 H1818 H 0.21239 0.90503 0.91349
 H1819 H 0.20740 0.97301 0.87573
 H1820 H 0.17673 0.94273 0.87753
 H1821 H 0.14778 0.95163 0.86045
 H1822 H 0.13296 0.96459 0.83202
 H1823 H 0.18671 0.99162 0.81637
 H1824 H 0.20155 0.97878 0.84489
 C1825 C 0.70337 0.40903 0.41682
 C1826 C 0.69375 0.41740 0.40163
 C1827 C 0.69820 0.43561 0.39538
 C1828 C 0.71248 0.44539 0.40484
 C1829 C 0.72217 0.43696 0.42006
 C1830 C 0.71772 0.41868 0.42622
 C1831 C 0.68708 0.44383 0.37944
 C1832 C 0.69224 0.45913 0.36936
 C1833 C 0.68093 0.46644 0.35314
 C1834 C 0.69046 0.47679 0.33873
 C1835 C 0.68042 0.48319 0.32284
 C1836 C 0.66059 0.47940 0.32111
 C1837 C 0.65087 0.46966 0.33584
 C1838 C 0.66087 0.46335 0.35174
 H1839 H 0.69928 0.39509 0.42144
 H1840 H 0.68269 0.40959 0.39477
 H1841 H 0.71607 0.45960 0.40085
 H1842 H 0.73319 0.44475 0.42697
 H1843 H 0.67446 0.43627 0.37534
 H1844 H 0.70573 0.46591 0.37215
 H1845 H 0.70584 0.47956 0.33956
 H1846 H 0.68827 0.49066 0.31168
 H1847 H 0.63547 0.46698 0.33511
 H1848 H 0.65275 0.45620 0.36291
 C1849 C 0.79153 0.44099 0.55903
 C1850 C 0.79719 0.45188 0.57406
 C1851 C 0.78514 0.45397 0.59033
 C1852 C 0.76681 0.44553 0.59087
 C1853 C 0.76116 0.43458 0.57581
 C1854 C 0.77360 0.43194 0.55986
 C1855 C 0.79249 0.46481 0.60629
 C1856 C 0.78556 0.46343 0.62422
 C1857 C 0.79471 0.47252 0.64040
 C1858 C 0.79140 0.46508 0.65871
 C1859 C 0.80080 0.47230 0.67420
 C1860 C 0.81370 0.48715 0.67168
 C1861 C 0.81640 0.49513 0.65352
 C1862 C 0.80690 0.48802 0.63806
 H1863 H 0.80127 0.43959 0.54676
 H1864 H 0.81125 0.45842 0.57311
 H1865 H 0.75677 0.44725 0.60283
 H1866 H 0.74725 0.42779 0.57687
 H1867 H 0.80525 0.47303 0.60323
 H1868 H 0.77383 0.45403 0.62762
 H1869 H 0.78195 0.45328 0.66098
 H1870 H 0.79849 0.46585 0.68804
 H1871 H 0.82592 0.50688 0.65128
 H1872 H 0.80921 0.49474 0.62438
 C1873 C 0.25577 -0.06975 0.08182
 C1874 C 0.26070 -0.06084 0.09847
 C1875 C 0.27924 -0.05335 0.10027
 C1876 C 0.29280 -0.05498 0.08499
 C1877 C 0.28786 -0.06384 0.06838
 C1878 C 0.26938 -0.07151 0.06665
 C1879 C 0.28440 -0.04517 0.11862
 C1880 C 0.29892 -0.03311 0.12026
 C1881 C 0.30604 -0.02620 0.13850
 C1882 C 0.32024 -0.01238 0.13777
 C1883 C 0.32885 -0.00653 0.15425
 C1884 C 0.32343 -0.01433 0.17194
 C1885 C 0.30878 -0.02771 0.17287
 C1886 C 0.30023 -0.03370 0.15633
 H1887 H 0.24150 -0.07574 0.08104
 H1888 H 0.25006 -0.06000 0.11008
 H1889 H 0.30746 -0.05000 0.08592
 H1890 H 0.29863 -0.06484 0.05690
 H1891 H 0.27578 -0.04929 0.13096
 H1892 H 0.30630 -0.02799 0.10753
 H1893 H 0.32503 -0.00633 0.12431
 H1894 H 0.33993 0.00399 0.15315
 H1895 H 0.30447 -0.03408 0.18632
 H1896 H 0.28962 -0.04457 0.15770
 C1897 C 0.29782 0.10002 0.41682
 C1898 C 0.30371 0.09249 0.39941
 C1899 C 0.29872 0.07424 0.39463
 C1900 C 0.28748 0.06365 0.40771
 C1901 C 0.28151 0.07125 0.42518
 C1902 C 0.28682 0.08944 0.42999
 C1903 C 0.30653 0.06671 0.37639
 C1904 C 0.30040 0.05119 0.36811
 C1905 C 0.30931 0.04431 0.35003
 C1906 C 0.29809 0.03420 0.33761
 C1907 C 0.30606 0.02818 0.32017
 C1908 C 0.32543 0.03215 0.31492
 C1909 C 0.33684 0.04160 0.32770
 C1910 C 0.32894 0.04751 0.34508
 H1911 H 0.30185 0.11419 0.41998
 H1912 H 0.31235 0.10097 0.38965
 H1913 H 0.28367 0.04939 0.40482
 H1914 H 0.27321 0.06271 0.43515
 H1915 H 0.31769 0.07483 0.36918
 H1916 H 0.28807 0.04378 0.37407
 H1917 H 0.28302 0.03131 0.34122
 H1918 H 0.29697 0.02085 0.31060
 H1919 H 0.35199 0.04431 0.32430
 H1920 H 0.33835 0.05444 0.35464
 C1921 C 0.79397 0.56507 0.92913
 C1922 C 0.79942 0.55554 0.91259
 C1923 C 0.78682 0.55516 0.89733
 C1924 C 0.76822 0.56380 0.89930
 C1925 C 0.76278 0.57333 0.91585
 C1926 C 0.77570 0.57431 0.93084
 C1927 C 0.79376 0.54596 0.87960
 C1928 C 0.78704 0.55076 0.86250
 C1929 C 0.79584 0.54360 0.84452
 C1930 C 0.79426 0.55478 0.82810
 C1931 C 0.80349 0.54928 0.81113
 C1932 C 0.81433 0.53233 0.81015
 C1933 C 0.81517 0.52067 0.82635
 C1934 C 0.80600 0.52622 0.84338
 H1935 H 0.80411 0.56525 0.94058
 H1936 H 0.81372 0.54880 0.91154
 H1937 H 0.75783 0.56329 0.88812
 H1938 H 0.74860 0.58031 0.91672
 H1939 H 0.80609 0.53627 0.88057
 H1940 H 0.77598 0.56177 0.86136
 H1941 H 0.78631 0.56810 0.82852
 H1942 H 0.80229 0.55838 0.79877
 H1943 H 0.82340 0.50751 0.82600
 H1944 H 0.80699 0.51693 0.85559
 C1945 C 0.09367 0.73977 0.58166
 C1946 C 0.11028 0.73202 0.57262
 C1947 C 0.10870 0.71781 0.55927
 C1948 C 0.09002 0.71220 0.55437
 C1949 C 0.07339 0.72003 0.56336
 C1950 C 0.07507 0.73363 0.57737
 C1951 C 0.12682 0.70911 0.55108
 C1952 C 0.12792 0.69143 0.54481
 C1953 C 0.14633 0.68189 0.53831
 C1954 C 0.14526 0.66592 0.52707
 C1955 C 0.16213 0.65588 0.52144
 C1956 C 0.18051 0.66152 0.52707
 C1957 C 0.18162 0.67754 0.53829
 C1958 C 0.16475 0.68759 0.54392
 H1959 H 0.09539 0.75047 0.59216
 H1960 H 0.12446 0.73678 0.57645
 H1961 H 0.08815 0.70176 0.54367
 H1962 H 0.05923 0.71504 0.55976
 H1963 H 0.13981 0.71734 0.55125
 H1964 H 0.11488 0.68324 0.54471
 H1965 H 0.13128 0.66115 0.52265
 H1966 H 0.16080 0.64371 0.51263
 H1967 H 0.19553 0.68202 0.54317
 H1968 H 0.16626 0.69938 0.55315
 C1969 C 0.59540 0.23389 1.08825
 C1970 C 0.61227 0.22629 1.07954
 C1971 C 0.61112 0.21346 1.06476
 C1972 C 0.59260 0.20843 1.05881
 C1973 C 0.57572 0.21607 1.06751
 C1974 C 0.57693 0.22876 1.08243
 C1975 C 0.62950 0.20496 1.05683
 C1976 C 0.63100 0.19609 1.04020
 C1977 C 0.64920 0.18653 1.03324
 C1978 C 0.64783 0.17152 1.02076
 C1979 C 0.66453 0.16157 1.01450
 C1980 C 0.68301 0.16655 1.02043
 C1981 C 0.68446 0.18199 1.03240
 C1982 C 0.66776 0.19192 1.03870
 H1983 H 0.59681 0.24379 1.09957
 H1984 H 0.62631 0.23038 1.08446
 H1985 H 0.59092 0.19817 1.04792
 H1986 H 0.56169 0.21157 1.06297
 H1987 H 0.64222 0.20586 1.06541
 H1988 H 0.61835 0.19497 1.03158
 H1989 H 0.63374 0.16724 1.01614
 H1990 H 0.66297 0.14996 1.00501
 H1991 H 0.69850 0.18616 1.03723
 H1992 H 0.66952 0.20381 1.04776
 C1993 C 0.90360 0.23802 0.90174
 C1994 C 0.88763 0.23079 0.91179
 C1995 C 0.88976 0.22239 0.92965
 C1996 C 0.90817 0.22221 0.93776
 C1997 C 0.92424 0.22952 0.92780
 C1998 C 0.92254 0.23724 0.90924
 C1999 C 0.87244 0.21382 0.93897
 C2000 C 0.87335 0.20034 0.95242
 C2001 C 0.85600 0.19018 0.95959
 C2002 C 0.85632 0.18160 0.97761
 C2003 C 0.84069 0.17091 0.98430
 C2004 C 0.82455 0.16836 0.97294
 C2005 C 0.82419 0.17703 0.95496
 C2006 C 0.83973 0.18775 0.94831
 H2007 H 0.90055 0.24481 0.88835
 H2008 H 0.87349 0.23155 0.90537
 H2009 H 0.91037 0.21634 0.95176
 H2010 H 0.93808 0.22789 0.93456
 H2011 H 0.85839 0.21816 0.93365
 H2012 H 0.88722 0.19606 0.95814
 H2013 H 0.86878 0.18305 0.98647
 H2014 H 0.84147 0.16420 0.99813
 H2015 H 0.81189 0.17540 0.94593
 H2016 H 0.83915 0.19356 0.93410
 C2017 C 0.40462 0.73975 0.41613
 C2018 C 0.38843 0.73202 0.42543
 C2019 C 0.39068 0.71740 0.43880
 C2020 C 0.40967 0.71097 0.44300
 C2021 C 0.42588 0.71881 0.43376
 C2022 C 0.42350 0.73305 0.42000
 C2023 C 0.37286 0.70850 0.44679
 C2024 C 0.37262 0.69615 0.46134
 C2025 C 0.35493 0.68600 0.46771
 C2026 C 0.35418 0.67800 0.48600
 C2027 C 0.33827 0.66741 0.49213
 C2028 C 0.32282 0.66445 0.48000
 C2029 C 0.32351 0.67256 0.46174
 C2030 C 0.33940 0.68310 0.45561
 H2031 H 0.40237 0.75085 0.40572
 H2032 H 0.37404 0.73726 0.42187
 H2033 H 0.41222 0.69947 0.45283
 H2034 H 0.44026 0.71319 0.43682
 H2035 H 0.35931 0.71239 0.44018
 H2036 H 0.38568 0.69334 0.46916
 H2037 H 0.36603 0.67980 0.49553
 H2038 H 0.33831 0.66113 0.50619
 H2039 H 0.31178 0.67067 0.45211
 H2040 H 0.33961 0.68845 0.44120
 C2041 C 0.57037 0.77469 0.43267
 C2042 C 0.58714 0.78032 0.44157
 C2043 C 0.60172 0.78991 0.43130
 C2044 C 0.59960 0.79293 0.41171
 C2045 C 0.58281 0.78744 0.40289
 C2046 C 0.56788 0.77854 0.41332
 C2047 C 0.61879 0.79665 0.44141
 C2048 C 0.62910 0.81138 0.43520
 C2049 C 0.64552 0.81938 0.44531
 C2050 C 0.65150 0.83740 0.43991
 C2051 C 0.66682 0.84574 0.44886
 C2052 C 0.67664 0.83624 0.46346
 C2053 C 0.67094 0.81804 0.46871
 C2054 C 0.65556 0.80966 0.45972
 H2055 H 0.55909 0.76781 0.44103
 H2056 H 0.58851 0.77760 0.45661
 H2057 H 0.61086 0.79946 0.40308
 H2058 H 0.58150 0.79011 0.38783
 H2059 H 0.62193 0.79007 0.45492
 H2060 H 0.62465 0.81883 0.42252
 H2061 H 0.64422 0.84515 0.42873
 H2062 H 0.67111 0.85960 0.44418
 H2063 H 0.67822 0.81037 0.47992
 H2064 H 0.65180 0.79556 0.46400
 C2065 C 0.07927 0.29448 -0.10587
 C2066 C 0.09587 0.30024 -0.09692
 C2067 C 0.09863 0.29608 -0.07768
 C2068 C 0.08441 0.28572 -0.06759
 C2069 C 0.06780 0.27985 -0.07662
 C2070 C 0.06496 0.28440 -0.09579
 C2071 C 0.11591 0.30383 -0.06871
 C2072 C 0.12213 0.29894 -0.05144
 C2073 C 0.13880 0.30802 -0.04273
 C2074 C 0.14931 0.29825 -0.02878
 C2075 C 0.16491 0.30658 -0.02012
 C2076 C 0.17017 0.32497 -0.02510
 C2077 C 0.15952 0.33479 -0.03893
 C2078 C 0.14396 0.32650 -0.04754
 H2079 H 0.07760 0.29796 -0.12073
 H2080 H 0.10652 0.30820 -0.10505
 H2081 H 0.08565 0.28252 -0.05267
 H2082 H 0.05689 0.27226 -0.06847
 H2083 H 0.12402 0.31399 -0.07706
 H2084 H 0.11533 0.28765 -0.04353
 H2085 H 0.14546 0.28410 -0.02462
 H2086 H 0.17265 0.29875 -0.00932
 H2087 H 0.16329 0.34891 -0.04322
 H2088 H 0.13584 0.33480 -0.05769
 C2089 C 0.43457 0.29990 0.06556
 C2090 C 0.41779 0.30647 0.05667
 C2091 C 0.40102 0.29564 0.05673
 C2092 C 0.40157 0.27776 0.06550
 C2093 C 0.41840 0.27117 0.07438
 C2094 C 0.43494 0.28232 0.07482
 C2095 C 0.38294 0.30425 0.04913
 C2096 C 0.36720 0.29463 0.04475
 C2097 C 0.34869 0.30409 0.03927
 C2098 C 0.33595 0.29482 0.02761
 C2099 C 0.31814 0.30328 0.02273
 C2100 C 0.31260 0.32104 0.02973
 C2101 C 0.32530 0.33021 0.04153
 C2102 C 0.34308 0.32183 0.04631
 H2103 H 0.44717 0.30871 0.06545
 H2104 H 0.41777 0.32029 0.05007
 H2105 H 0.38885 0.26915 0.06632
 H2106 H 0.41816 0.25769 0.08165
 H2107 H 0.38266 0.31934 0.04714
 H2108 H 0.36780 0.27946 0.04486
 H2109 H 0.33983 0.28103 0.02223
 H2110 H 0.30855 0.29581 0.01376
 H2111 H 0.32152 0.34397 0.04701
 H2112 H 0.35219 0.32916 0.05584
 C2113 C 0.91524 0.79614 0.59463
 C2114 C 0.89801 0.80281 0.58670
 C2115 C 0.89417 0.79953 0.56765
 C2116 C 0.90794 0.78906 0.55669
 C2117 C 0.92522 0.78228 0.56471
 C2118 C 0.92914 0.78601 0.58368
 C2119 C 0.87619 0.80822 0.55986
 C2120 C 0.86892 0.80447 0.54293
 C2121 C 0.85118 0.81433 0.53595
 C2122 C 0.83910 0.80522 0.52350
 C2123 C 0.82197 0.81408 0.51723
 C2124 C 0.81669 0.83225 0.52327
 C2125 C 0.82918 0.84159 0.53514
 C2126 C 0.84625 0.83281 0.54131
 H2127 H 0.91771 0.79896 0.60938
 H2128 H 0.88771 0.81079 0.59550
 H2129 H 0.90579 0.78647 0.54188
 H2130 H 0.93578 0.77462 0.55592
 H2131 H 0.86832 0.81811 0.56892
 H2132 H 0.87544 0.79349 0.53427
 H2133 H 0.84272 0.79108 0.51894
 H2134 H 0.81264 0.80657 0.50804
 H2135 H 0.82581 0.85582 0.53953
 H2136 H 0.85564 0.84065 0.55014
   
