data_POSCAR
  _audit_creation_date              2014-09-24
  _audit_creation_method            'ToBaCCo'
  _symmetry_space_group_name_H-M    'P1'
  _symmetry_Int_Tables_number       1
  _symmetry_cell_setting            triclinic
  loop_
  _symmetry_equiv_pos_as_xyz
 x,y,z
_cell_length_a 73.2715
_cell_length_b 73.8974
_cell_length_c 65.8837
_cell_angle_alpha 89.608500
_cell_angle_beta 91.832600
_cell_angle_gamma 89.298000
loop_
  _atom_site_label
  _atom_site_type_symbol
  _atom_site_fract_x
  _atom_site_fract_y
  _atom_site_fract_z
C1 C 0.36049 0.02179 0.27522
 H2 H 0.35034 0.03162 0.27008
 C3 C 0.37093 0.02518 0.29290
 H4 H 0.36856 0.03751 0.30124
 C5 C 0.37636 -0.00589 0.27050
 H6 H 0.37867 -0.01787 0.26165
 C7 C 0.38732 -0.00288 0.28779
 H8 H 0.39773 -0.01280 0.29220
 N9 N 0.36327 0.00638 0.26445
 C10 C 0.35796 -0.00887 0.20110
 H11 H 0.34349 -0.01154 0.19988
 C12 C 0.36926 -0.01373 0.18533
 H13 H 0.36328 -0.01996 0.17190
 C14 C 0.38328 0.00201 0.22048
 H15 H 0.38868 0.00808 0.23424
 C16 C 0.39510 -0.00268 0.20510
 H17 H 0.40954 -0.00010 0.20725
 Zn18 Zn 0.34932 0.00164 0.24019
 N19 N 0.36515 -0.00145 0.21836
 C20 C 0.33490 0.03109 0.21722
 N21 N 0.33283 0.02107 0.23437
 C22 C 0.31988 0.02543 0.24790
 C23 C 0.30868 0.04065 0.24468
 C24 C 0.32404 0.04645 0.21343
 C25 C 0.34756 -0.03564 0.24161
 C26 C 0.33993 -0.05275 0.24208
 C27 C 0.31019 -0.03872 0.24506
 C28 C 0.31848 -0.02178 0.24437
 N29 N 0.33690 -0.02055 0.24285
 H30 H 0.34537 0.02752 0.20673
 H31 H 0.31871 0.01745 0.26161
 H32 H 0.29882 0.04413 0.25596
 H33 H 0.32624 0.05447 0.19993
 H34 H 0.36204 -0.03441 0.23950
 H35 H 0.34900 -0.06435 0.24084
 H36 H 0.29549 -0.03922 0.24623
 H37 H 0.31009 -0.00970 0.24474
 C38 C 0.38815 -0.01095 0.18738
 C39 C 0.38463 0.01280 0.29926
 C40 C 0.32091 -0.05464 0.24377
 C41 C 0.31091 0.05158 0.22743
 C42 C 0.13144 0.02697 0.71688
 H43 H 0.14295 0.03521 0.72121
 C44 C 0.12064 0.03191 0.69986
 H45 H 0.12399 0.04391 0.69128
 C46 C 0.11313 0.00132 0.72251
 H47 H 0.11041 -0.01073 0.73127
 C48 C 0.10171 0.00602 0.70588
 H49 H 0.09026 -0.00253 0.70191
 N50 N 0.12770 0.01177 0.72770
 C51 C 0.13898 -0.00753 0.78993
 H52 H 0.15357 -0.00966 0.78962
 C53 C 0.12964 -0.01244 0.80722
 H54 H 0.13723 -0.01838 0.82003
 C55 C 0.11150 0.00292 0.77371
 H56 H 0.10448 0.00925 0.76083
 C57 C 0.10160 -0.00189 0.79066
 H58 H 0.08702 0.00068 0.79046
 Zn59 Zn 0.14346 0.00492 0.75009
 N60 N 0.12983 -0.00026 0.77347
 C61 C 0.15571 0.03579 0.77108
 N62 N 0.15951 0.02414 0.75585
 C63 C 0.17379 0.02690 0.74357
 C64 C 0.18448 0.04230 0.74584
 C65 C 0.16607 0.05135 0.77392
 C66 C 0.15145 -0.02727 0.72851
 C67 C 0.16087 -0.04340 0.72489
 C68 C 0.18268 -0.03570 0.75161
 C69 C 0.17281 -0.01974 0.75475
 N70 N 0.15730 -0.01599 0.74353
 H71 H 0.14418 0.03337 0.78054
 H72 H 0.17641 0.01746 0.73150
 H73 H 0.19543 0.04451 0.73548
 H74 H 0.16245 0.06073 0.78572
 H75 H 0.13926 -0.02404 0.71955
 H76 H 0.15571 -0.05235 0.71316
 H77 H 0.19474 -0.03858 0.76106
 H78 H 0.17742 -0.01042 0.76635
 C79 C 0.11066 -0.00982 0.80767
 C80 C 0.10557 0.02137 0.69420
 C81 C 0.17654 -0.04795 0.73675
 C82 C 0.18042 0.05499 0.76089
 C83 C 0.63515 0.51453 0.21399
 H84 H 0.64991 0.51408 0.21403
 C85 C 0.62530 0.51987 0.19647
 H86 H 0.63265 0.52338 0.18304
 C87 C 0.60782 0.51068 0.23172
 H88 H 0.60109 0.50747 0.24561
 C89 C 0.59739 0.51597 0.21450
 H90 H 0.58265 0.51644 0.21527
 N91 N 0.62634 0.50982 0.23105
 C92 C 0.63180 0.50432 0.29496
 H93 H 0.64227 0.51444 0.29648
 C94 C 0.62282 0.49852 0.31214
 H95 H 0.62622 0.50458 0.32667
 C96 C 0.61530 0.48356 0.27442
 H97 H 0.61283 0.47748 0.25971
 C98 C 0.60573 0.47759 0.29116
 H99 H 0.59574 0.46702 0.28919
 Zn100 Zn 0.64152 0.50355 0.25382
 N101 N 0.62784 0.49691 0.27653
 C102 C 0.64610 0.53924 0.26514
 N103 N 0.65557 0.52424 0.25963
 C104 C 0.67387 0.52474 0.25679
 C105 C 0.68333 0.54093 0.25944
 C106 C 0.65502 0.55559 0.26819
 C107 C 0.65373 0.47369 0.23075
 C108 C 0.66355 0.45765 0.22782
 C109 C 0.67913 0.46213 0.26025
 C110 C 0.66893 0.47799 0.26261
 N111 N 0.65650 0.48342 0.24800
 H112 H 0.63149 0.53852 0.26688
 H113 H 0.68104 0.51277 0.25188
 H114 H 0.69784 0.54117 0.25680
 H115 H 0.64711 0.56739 0.27235
 H116 H 0.64343 0.47796 0.21957
 H117 H 0.66087 0.44990 0.21418
 H118 H 0.68871 0.45791 0.27227
 H119 H 0.67057 0.48581 0.27636
 C120 C 0.60956 0.48503 0.31035
 C121 C 0.60614 0.52057 0.19652
 C122 C 0.67630 0.45156 0.24281
 C123 C 0.67385 0.55666 0.26510
 C124 C 0.87792 0.51542 0.77397
 H125 H 0.88099 0.52121 0.75936
 C126 C 0.88739 0.52117 0.79146
 H127 H 0.89787 0.53125 0.79001
 C128 C 0.86019 0.49554 0.79337
 H129 H 0.84934 0.48581 0.79409
 C130 C 0.86894 0.50121 0.81128
 H131 H 0.86484 0.49537 0.82552
 N132 N 0.86496 0.50247 0.77516
 C133 C 0.86047 0.48435 0.71223
 H134 H 0.84578 0.48506 0.71000
 C135 C 0.87136 0.47862 0.69645
 H136 H 0.86491 0.47515 0.68201
 C137 C 0.88655 0.48772 0.73401
 H138 H 0.89239 0.49072 0.74883
 C139 C 0.89796 0.48210 0.71863
 H140 H 0.91255 0.48125 0.72176
 Zn141 Zn 0.85210 0.49539 0.75121
 N142 N 0.86818 0.48899 0.73047
 C143 C 0.83977 0.52505 0.72625
 N144 N 0.83695 0.51520 0.74335
 C145 C 0.82427 0.52034 0.75683
 C146 C 0.81387 0.53605 0.75348
 C147 C 0.82975 0.54100 0.72237
 C148 C 0.84785 0.45993 0.76359
 C149 C 0.83905 0.44368 0.76718
 C150 C 0.81064 0.45767 0.75534
 C151 C 0.81999 0.47379 0.75217
 N152 N 0.83826 0.47460 0.75639
 H153 H 0.85025 0.52096 0.71600
 H154 H 0.82260 0.51243 0.77051
 H155 H 0.80413 0.54004 0.76469
 H156 H 0.83250 0.54892 0.70895
 H157 H 0.86242 0.46091 0.76647
 H158 H 0.84702 0.43218 0.77284
 H159 H 0.79613 0.45720 0.75175
 H160 H 0.81272 0.48548 0.74598
 C161 C 0.89040 0.47750 0.69952
 C162 C 0.88297 0.51404 0.81054
 C163 C 0.82021 0.44234 0.76293
 C164 C 0.81678 0.54682 0.73626
 C165 C 0.21812 0.40256 0.96727
 H166 H 0.22191 0.39224 0.95660
 C167 C 0.20204 0.41265 0.96380
 H168 H 0.19368 0.41014 0.95028
 C169 C 0.22388 0.41778 0.99833
 H170 H 0.23230 0.41939 1.01197
 C171 C 0.20810 0.42831 0.99534
 H172 H 0.20453 0.43804 1.00681
 N173 N 0.22862 0.40529 0.98436
 C174 C 0.28535 0.39630 1.00303
 H175 H 0.28506 0.38182 1.00551
 C176 C 0.30146 0.40570 1.00674
 H177 H 0.31355 0.39830 1.01208
 C178 C 0.26995 0.42331 0.99248
 H179 H 0.25771 0.43003 0.98655
 C180 C 0.28588 0.43324 0.99572
 H181 H 0.28569 0.44763 0.99251
 Zn182 Zn 0.24931 0.39075 0.99100
 N183 N 0.26997 0.40519 0.99629
 C184 C 0.25935 0.38455 0.95164
 N185 N 0.25537 0.37573 0.96908
 C186 C 0.25711 0.35743 0.97075
 C187 C 0.26274 0.34723 0.95422
 C188 C 0.26502 0.37493 0.93480
 C189 C 0.25133 0.38220 1.03274
 C190 C 0.24642 0.37348 1.05055
 C191 C 0.22581 0.35485 1.03069
 C192 C 0.23090 0.36416 1.01325
 N193 N 0.24369 0.37733 1.01453
 H194 H 0.25821 0.39915 0.95090
 H195 H 0.25447 0.35072 0.98495
 H196 H 0.26403 0.33268 0.95581
 H197 H 0.26803 0.38230 0.92108
 H198 H 0.26091 0.39318 1.03359
 H199 H 0.25267 0.37761 1.06487
 H200 H 0.21567 0.34435 1.02940
 H201 H 0.22456 0.36098 0.99868
 C202 C 0.30190 0.42441 1.00298
 C203 C 0.19682 0.42566 0.97802
 C204 C 0.23355 0.35957 1.04967
 C205 C 0.26680 0.35600 0.93593
 C206 C 0.77539 0.08233 0.98702
 H207 H 0.76345 0.07756 0.97870
 C208 C 0.79224 0.07350 0.98482
 H209 H 0.79292 0.06177 0.97508
 C210 C 0.78913 0.10388 1.00886
 H211 H 0.78811 0.11591 1.01797
 C212 C 0.80618 0.09581 1.00675
 H213 H 0.81779 0.10177 1.01464
 N214 N 0.77408 0.09710 0.99918
 C215 C 0.71686 0.10429 1.01533
 H216 H 0.71685 0.11885 1.01661
 C217 C 0.70111 0.09480 1.01956
 H218 H 0.68900 0.10228 1.02372
 C219 C 0.73275 0.07700 1.00866
 H220 H 0.74515 0.07002 1.00483
 C221 C 0.71715 0.06695 1.01243
 H222 H 0.71771 0.05235 1.01117
 Zn223 Zn 0.75191 0.11040 1.00265
 N224 N 0.73216 0.09540 1.00953
 C225 C 0.75383 0.11903 0.96094
 N226 N 0.74535 0.12329 0.97837
 C227 C 0.73177 0.13603 0.97843
 C228 C 0.72615 0.14492 0.96046
 C229 C 0.74842 0.12733 0.94260
 C230 C 0.75761 0.11859 1.04318
 C231 C 0.76220 0.12890 1.06017
 C232 C 0.76289 0.15542 1.03856
 C233 C 0.75836 0.14454 1.02189
 N234 N 0.75592 0.12646 1.02452
 H235 H 0.76465 0.10900 0.96109
 H236 H 0.72531 0.13941 0.99243
 H237 H 0.71531 0.15499 0.96081
 H238 H 0.75528 0.12361 0.92890
 H239 H 0.75578 0.10415 1.04476
 H240 H 0.76362 0.12224 1.07484
 H241 H 0.76501 0.16974 1.03618
 H242 H 0.75732 0.15044 1.00684
 C243 C 0.70099 0.07591 1.01770
 C244 C 0.80802 0.08033 0.99465
 C245 C 0.76506 0.14756 1.05799
 C246 C 0.73437 0.14041 0.94220
 C247 C 0.27017 0.58265 0.48353
 H248 H 0.25745 0.57933 0.47572
 C249 C 0.28631 0.57354 0.47863
 H250 H 0.28592 0.56304 0.46726
 C251 C 0.28642 0.60093 0.50714
 H252 H 0.28660 0.61190 0.51787
 C253 C 0.30283 0.59259 0.50232
 H254 H 0.31538 0.59698 0.50980
 N255 N 0.27046 0.59579 0.49793
 C256 C 0.21412 0.60316 0.51682
 H257 H 0.21438 0.61772 0.51833
 C258 C 0.19826 0.59379 0.52096
 H259 H 0.18635 0.60133 0.52560
 C260 C 0.22939 0.57584 0.50866
 H261 H 0.24162 0.56885 0.50420
 C262 C 0.21369 0.56593 0.51239
 H263 H 0.21397 0.55138 0.51051
 Zn264 Zn 0.24910 0.60910 0.50433
 N265 N 0.22915 0.59418 0.51043
 C266 C 0.22633 0.62333 0.47197
 N267 N 0.24289 0.62424 0.48184
 C268 C 0.25569 0.63618 0.47595
 C269 C 0.25173 0.64850 0.46026
 C270 C 0.22187 0.63525 0.45596
 C271 C 0.25930 0.61449 0.54507
 C272 C 0.26447 0.62417 0.56240
 C273 C 0.25828 0.65195 0.54374
 C274 C 0.25319 0.64173 0.52679
 N275 N 0.25420 0.62335 0.52760
 H276 H 0.21649 0.61345 0.47654
 H277 H 0.26887 0.63639 0.48383
 H278 H 0.26203 0.65810 0.45608
 H279 H 0.20854 0.63452 0.44845
 H280 H 0.25979 0.59985 0.54534
 H281 H 0.26881 0.61683 0.57602
 H282 H 0.25760 0.66657 0.54266
 H283 H 0.24859 0.64857 0.51300
 C284 C 0.19779 0.57496 0.51843
 C285 C 0.30290 0.57866 0.48802
 C286 C 0.26424 0.64318 0.56178
 C287 C 0.23457 0.64824 0.45016
 C288 C 0.71836 0.89882 0.47222
 H289 H 0.72232 0.88916 0.46089
 C290 C 0.70223 0.90895 0.46928
 H291 H 0.69401 0.90710 0.45552
 C292 C 0.72380 0.91239 0.50431
 H293 H 0.73218 0.91338 0.51807
 C294 C 0.70795 0.92288 0.50193
 H295 H 0.70424 0.93195 0.51401
 N296 N 0.72874 0.90073 0.48955
 C297 C 0.78572 0.89245 0.50731
 H298 H 0.78579 0.87791 0.50931
 C299 C 0.80162 0.90216 0.51114
 H300 H 0.81393 0.89493 0.51608
 C301 C 0.76955 0.91935 0.49784
 H302 H 0.75710 0.92590 0.49227
 C303 C 0.78525 0.92959 0.50120
 H304 H 0.78467 0.94405 0.49844
 Zn305 Zn 0.74975 0.88640 0.49536
 N306 N 0.77008 0.90114 0.50102
 C307 C 0.75826 0.85400 0.47369
 N308 N 0.75596 0.87228 0.47275
 C309 C 0.75952 0.88175 0.45561
 C310 C 0.76530 0.87285 0.43833
 C311 C 0.76403 0.84451 0.45671
 C312 C 0.75213 0.87698 0.53679
 C313 C 0.74750 0.86781 0.55441
 C314 C 0.72767 0.84873 0.53413
 C315 C 0.73243 0.85853 0.51689
 N316 N 0.74471 0.87216 0.51847
 H317 H 0.75597 0.84677 0.48767
 H318 H 0.75796 0.89633 0.45545
 H319 H 0.76797 0.88074 0.42487
 H320 H 0.76575 0.82995 0.45773
 H321 H 0.76127 0.88831 0.53789
 H322 H 0.75352 0.87195 0.56884
 H323 H 0.71792 0.83789 0.53261
 H324 H 0.72621 0.85538 0.50225
 C325 C 0.80155 0.92097 0.50796
 C326 C 0.69682 0.92112 0.48432
 C327 C 0.73516 0.85346 0.55321
 C328 C 0.76766 0.85396 0.43871
 C329 C 0.01748 0.27597 0.40896
 H330 H 0.02957 0.26741 0.40953
 C331 C 0.01653 0.29123 0.42142
 H332 H 0.02796 0.29425 0.43159
 C333 C -0.01192 0.28263 0.39466
 H334 H -0.02289 0.27951 0.38398
 C335 C -0.01344 0.29793 0.40678
 H336 H -0.02571 0.30621 0.40530
 N337 N 0.00331 0.27192 0.39599
 C338 C 0.00541 0.21432 0.38189
 H339 H 0.00379 0.21545 0.36555
 C340 C 0.00609 0.19730 0.39110
 H341 H 0.00505 0.18550 0.38149
 C342 C 0.00834 0.22863 0.41385
 H343 H 0.00897 0.24091 0.42264
 C344 C 0.00894 0.21178 0.42379
 H345 H 0.01019 0.21141 0.44021
 Zn346 Zn 0.00492 0.25169 0.37841
 N347 N 0.00678 0.22956 0.39323
 C348 C 0.03802 0.24068 0.36085
 N349 N 0.02557 0.25442 0.36188
 C350 C 0.02783 0.27020 0.35151
 C351 C 0.04294 0.27246 0.33927
 C352 C 0.05305 0.24221 0.34853
 C353 C -0.03190 0.24517 0.37232
 C354 C -0.04867 0.24337 0.36200
 C355 C -0.03435 0.25200 0.33092
 C356 C -0.01773 0.25352 0.34188
 N357 N -0.01689 0.25026 0.36224
 H358 H 0.03640 0.22843 0.36957
 H359 H 0.01787 0.28103 0.35276
 H360 H 0.04450 0.28505 0.33105
 H361 H 0.06269 0.23102 0.34788
 H362 H -0.03081 0.24252 0.38848
 H363 H -0.06040 0.23939 0.37048
 H364 H -0.03482 0.25473 0.31474
 H365 H -0.00557 0.25733 0.33411
 C366 C 0.00787 0.19573 0.41239
 C367 C 0.00090 0.30249 0.42037
 C368 C -0.05011 0.24685 0.34102
 C369 C 0.05566 0.25823 0.33750
 C370 C 0.01123 0.72806 0.09524
 H371 H 0.02332 0.73631 0.09623
 C372 C 0.01109 0.71247 0.08327
 H373 H 0.02314 0.70889 0.07503
 C374 C -0.01898 0.72252 0.10518
 H375 H -0.03059 0.72621 0.11401
 C376 C -0.01976 0.70695 0.09333
 H377 H -0.03207 0.69899 0.09318
 N378 N -0.00369 0.73280 0.10587
 C379 C -0.00372 0.79084 0.11769
 H380 H -0.00641 0.79037 0.13374
 C381 C -0.00223 0.80750 0.10788
 H382 H -0.00383 0.81976 0.11658
 C383 C 0.00156 0.77529 0.08708
 H384 H 0.00303 0.76268 0.07905
 C385 C 0.00297 0.79174 0.07656
 H386 H 0.00561 0.79161 0.06049
 Zn387 Zn -0.00285 0.75349 0.12292
 N388 N -0.00139 0.77516 0.10738
 C389 C 0.02932 0.76562 0.14343
 N390 N 0.01788 0.75136 0.14104
 C391 C 0.02131 0.73542 0.15100
 C392 C 0.03678 0.73340 0.16393
 C393 C 0.04464 0.76431 0.15649
 C394 C -0.04001 0.75986 0.12662
 C395 C -0.05674 0.76141 0.13598
 C396 C -0.04159 0.75347 0.16800
 C397 C -0.02508 0.75212 0.15793
 N398 N -0.02466 0.75512 0.13756
 H399 H 0.02672 0.77806 0.13516
 H400 H 0.01212 0.72421 0.14874
 H401 H 0.03939 0.72059 0.17162
 H402 H 0.05354 0.77585 0.15808
 H403 H -0.03923 0.76235 0.11047
 H404 H -0.06864 0.76510 0.12660
 H405 H -0.04148 0.75086 0.18420
 H406 H -0.01265 0.74859 0.16639
 C407 C 0.00135 0.80814 0.08708
 C408 C -0.00457 0.70165 0.08224
 C409 C -0.05789 0.75809 0.15703
 C410 C 0.04861 0.74803 0.16686
 C411 C 0.50741 0.22103 0.58300
 H412 H 0.51924 0.22960 0.58227
 C413 C 0.50582 0.20612 0.57013
 H414 H 0.51648 0.20342 0.55952
 C415 C 0.47947 0.21392 0.59810
 H416 H 0.46933 0.21679 0.60922
 C417 C 0.47728 0.19896 0.58546
 H418 H 0.46540 0.19056 0.58705
 N419 N 0.49445 0.22453 0.59685
 C420 C 0.50095 0.28160 0.61281
 H421 H 0.50016 0.28071 0.62910
 C422 C 0.50246 0.29855 0.60362
 H423 H 0.50316 0.31041 0.61315
 C424 C 0.49996 0.26735 0.58075
 H425 H 0.49857 0.25524 0.57181
 C426 C 0.50139 0.28410 0.57089
 H427 H 0.50135 0.28457 0.55446
 Zn428 Zn 0.49751 0.24395 0.61559
 N429 N 0.50001 0.26636 0.60142
 C430 C 0.52233 0.25096 0.64866
 N431 N 0.51865 0.23959 0.63291
 C432 C 0.53016 0.22552 0.62901
 C433 C 0.54649 0.22315 0.64028
 C434 C 0.53843 0.24896 0.66048
 C435 C 0.46125 0.25324 0.62144
 C436 C 0.44501 0.25549 0.63164
 C437 C 0.45987 0.24269 0.66179
 C438 C 0.47592 0.24073 0.65098
 N439 N 0.47629 0.24603 0.63117
 H440 H 0.51280 0.26166 0.65213
 H441 H 0.52693 0.21620 0.61694
 H442 H 0.55561 0.21211 0.63652
 H443 H 0.54122 0.25842 0.67263
 H444 H 0.46191 0.25728 0.60567
 H445 H 0.43325 0.26127 0.62349
 H446 H 0.45981 0.23838 0.67753
 H447 H 0.48801 0.23487 0.65836
 C448 C 0.50274 0.30000 0.58237
 C449 C 0.49069 0.19471 0.57143
 C450 C 0.44412 0.25020 0.65212
 C451 C 0.55097 0.23514 0.65605
 C452 C 0.51806 0.77675 0.90740
 H453 H 0.52992 0.76791 0.90871
 C454 C 0.51718 0.79246 0.91916
 H455 H 0.52844 0.79555 0.92955
 C456 C 0.48920 0.78368 0.89187
 H457 H 0.47844 0.78051 0.88096
 C458 C 0.48777 0.79944 0.90325
 H459 H 0.47576 0.80798 0.90101
 N460 N 0.50411 0.77262 0.89416
 C461 C 0.50580 0.71462 0.88207
 H462 H 0.50410 0.71540 0.86572
 C463 C 0.50675 0.69779 0.89171
 H464 H 0.50575 0.68572 0.88254
 C465 C 0.50887 0.72959 0.91365
 H466 H 0.50951 0.74205 0.92212
 C467 C 0.50975 0.71293 0.92400
 H468 H 0.51123 0.71275 0.94040
 Zn469 Zn 0.50554 0.75181 0.87742
 N470 N 0.50719 0.73009 0.89301
 C471 C 0.53885 0.74007 0.86110
 N472 N 0.52628 0.75377 0.86087
 C473 C 0.52855 0.76889 0.84934
 C474 C 0.54381 0.77047 0.83716
 C475 C 0.55404 0.74093 0.84894
 C476 C 0.46863 0.74584 0.87180
 C477 C 0.45175 0.74409 0.86174
 C478 C 0.46606 0.75100 0.83012
 C479 C 0.48280 0.75253 0.84085
 N480 N 0.48370 0.75012 0.86136
 H481 H 0.53724 0.72839 0.87075
 H482 H 0.51850 0.77973 0.84961
 H483 H 0.54538 0.78254 0.82801
 H484 H 0.56378 0.72978 0.84935
 H485 H 0.46978 0.74385 0.88808
 H486 H 0.43999 0.74080 0.87052
 H487 H 0.46554 0.75308 0.81383
 H488 H 0.49499 0.75569 0.83280
 C489 C 0.50884 0.69673 0.91295
 C490 C 0.50188 0.80408 0.91710
 C491 C 0.45023 0.74676 0.84062
 C492 C 0.55668 0.75624 0.83673
 C493 C -0.23231 0.63409 0.98419
 H494 H -0.22655 0.63744 0.99900
 C495 C -0.22698 0.64362 0.96701
 H496 H -0.21721 0.65443 0.96872
 C497 C -0.25167 0.61559 0.96392
 H498 H -0.26097 0.60439 0.96272
 C499 C -0.24645 0.62450 0.94635
 H500 H -0.25218 0.62031 0.93180
 N501 N -0.24476 0.62063 0.98240
 C502 C -0.26221 0.61439 1.04475
 H503 H -0.26063 0.59985 1.04612
 C504 C -0.26855 0.62436 1.06103
 H505 H -0.27159 0.61724 1.07492
 C506 C -0.26042 0.64094 1.02461
 H507 H -0.25771 0.64726 1.01022
 C508 C -0.26674 0.65149 1.04052
 H509 H -0.26842 0.66593 1.03814
 Zn510 Zn -0.25100 0.60742 1.00584
 N511 N -0.25810 0.62276 1.02709
 C512 C -0.22007 0.59729 1.03074
 N513 N -0.23022 0.59344 1.01370
 C514 C -0.22480 0.58052 1.00052
 C515 C -0.20861 0.57079 1.00427
 C516 C -0.20360 0.58804 1.03494
 C517 C -0.28653 0.60146 0.99254
 C518 C -0.30263 0.59206 0.98875
 C519 C -0.28740 0.56471 1.00097
 C520 C -0.27145 0.57463 1.00427
 N521 N -0.27133 0.59267 0.99999
 H522 H -0.22438 0.60796 1.04071
 H523 H -0.23293 0.57806 0.98684
 H524 H -0.20445 0.56077 0.99338
 H525 H -0.19550 0.59153 1.04834
 H526 H -0.28613 0.61588 0.98968
 H527 H -0.31457 0.59942 0.98293
 H528 H -0.28736 0.55041 1.00466
 H529 H -0.25936 0.56802 1.01072
 C530 C -0.27089 0.64325 1.05915
 C531 C -0.23406 0.63881 0.94778
 C532 C -0.30327 0.57347 0.99314
 C533 C -0.19762 0.57470 1.02151
 C534 C -0.23014 0.36169 0.52477
 H535 H -0.22453 0.35811 0.51033
 C536 C -0.22479 0.35261 0.54164
 H537 H -0.21491 0.34166 0.54058
 C538 C -0.24962 0.38142 0.54303
 H539 H -0.25882 0.39291 0.54363
 C540 C -0.24377 0.37217 0.56203
 H541 H -0.24949 0.37686 0.57604
 N542 N -0.24335 0.37619 0.52573
 C543 C -0.26009 0.38372 0.46190
 H544 H -0.25938 0.39832 0.46118
 C545 C -0.26556 0.37403 0.44470
 H546 H -0.26882 0.38134 0.43073
 C547 C -0.25710 0.35667 0.48128
 H548 H -0.25442 0.35000 0.49571
 C549 C -0.26250 0.34642 0.46442
 H550 H -0.26345 0.33187 0.46604
 Zn551 Zn -0.25007 0.38982 0.50218
 N552 N -0.25577 0.37496 0.47964
 C553 C -0.21997 0.40312 0.48038
 N554 N -0.23025 0.40508 0.49707
 C555 C -0.22560 0.41697 0.51195
 C556 C -0.20994 0.42736 0.51053
 C557 C -0.20410 0.41321 0.47838
 C558 C -0.28607 0.39351 0.51250
 C559 C -0.30276 0.40198 0.51589
 C560 C -0.28932 0.43063 0.50725
 C561 C -0.27276 0.42156 0.50424
 N562 N -0.27149 0.40333 0.50695
 H563 H -0.22365 0.39326 0.46898
 H564 H -0.23387 0.41802 0.52522
 H565 H -0.20635 0.43646 0.52279
 H566 H -0.19585 0.41114 0.46523
 H567 H -0.28468 0.37898 0.51428
 H568 H -0.31409 0.39370 0.52030
 H569 H -0.29003 0.44514 0.50483
 H570 H -0.26107 0.42904 0.49941
 C571 C -0.26681 0.35510 0.44580
 C572 C -0.23193 0.35807 0.56161
 C573 C -0.30469 0.42083 0.51314
 C574 C -0.19875 0.42533 0.49376
 C575 C 0.27610 -0.12766 0.03459
 H576 H 0.28579 -0.11713 0.03164
 C577 C 0.27979 -0.13977 0.04941
 H578 H 0.29244 -0.13876 0.05826
 C579 C 0.24766 -0.14136 0.02573
 H580 H 0.23523 -0.14193 0.01647
 C581 C 0.25130 -0.15520 0.04158
 H582 H 0.24115 -0.16554 0.04364
 N583 N 0.25936 -0.12860 0.02264
 C584 C 0.24031 -0.11419 -0.03881
 H585 H 0.23827 -0.09975 -0.03769
 C586 C 0.23463 -0.12306 -0.05652
 H587 H 0.22825 -0.11528 -0.06885
 C588 C 0.25117 -0.14182 -0.02424
 H589 H 0.25797 -0.14909 -0.01186
 C590 C 0.24552 -0.15124 -0.04156
 H591 H 0.24792 -0.16571 -0.04213
 Zn592 Zn 0.25411 -0.11138 0.00162
 N593 N 0.24810 -0.12367 -0.02294
 C594 C 0.28511 -0.09911 -0.01852
 N595 N 0.27467 -0.09674 -0.00203
 C596 C 0.27897 -0.08426 0.01235
 C597 C 0.29461 -0.07382 0.01071
 C598 C 0.30089 -0.08898 -0.02075
 C599 C 0.22256 -0.10135 0.02330
 C600 C 0.20698 -0.09098 0.02699
 C601 C 0.21589 -0.06990 0.00105
 C602 C 0.23129 -0.08069 -0.00211
 N603 N 0.23407 -0.09636 0.00854
 H604 H 0.28141 -0.10914 -0.02973
 H605 H 0.27038 -0.08267 0.02529
 H606 H 0.29793 -0.06417 0.02252
 H607 H 0.30919 -0.09132 -0.03380
 H608 H 0.22514 -0.11357 0.03199
 H609 H 0.19785 -0.09557 0.03851
 H610 H 0.21384 -0.05776 -0.00808
 H611 H 0.24094 -0.07668 -0.01332
 C612 C 0.23695 -0.14188 -0.05792
 C613 C 0.26669 -0.15452 0.05332
 C614 C 0.20317 -0.07520 0.01546
 C615 C 0.30595 -0.07627 -0.00588
 C616 C 0.26610 1.13300 0.47607
 H617 H 0.27289 1.13558 0.49057
 C618 C 0.27117 1.14252 0.45878
 H619 H 0.28178 1.15255 0.46010
 C620 C 0.24435 1.11640 0.45668
 H621 H 0.23419 1.10595 0.45582
 C622 C 0.24923 1.12533 0.43897
 H623 H 0.24243 1.12190 0.42471
 N624 N 0.25265 1.12049 0.47480
 C625 C 0.23714 1.11472 0.53796
 H626 H 0.23796 1.10013 0.53936
 C627 C 0.23168 1.12509 0.55436
 H628 H 0.22854 1.11834 0.56844
 C629 C 0.23985 1.14106 0.51762
 H630 H 0.24252 1.14719 0.50312
 C631 C 0.23446 1.15197 0.53366
 H632 H 0.23343 1.16647 0.53135
 Zn633 Zn 0.24687 1.10729 0.49841
 N634 N 0.24125 1.12280 0.52011
 C635 C 0.27777 1.09465 0.52215
 N636 N 0.26733 1.09240 0.50493
 C637 C 0.27208 1.08024 0.49059
 C638 C 0.28790 1.06973 0.49321
 C639 C 0.29384 1.08448 0.52534
 C640 C 0.21052 1.10253 0.48729
 C641 C 0.19413 1.09347 0.48404
 C642 C 0.20948 1.06552 0.49402
 C643 C 0.22568 1.07511 0.49685
 N644 N 0.22589 1.09327 0.49339
 H645 H 0.27396 1.10470 0.53312
 H646 H 0.26368 1.07899 0.47687
 H647 H 0.29150 1.06034 0.48140
 H648 H 0.30217 1.08670 0.53894
 H649 H 0.21102 1.11703 0.48505
 H650 H 0.18206 1.10117 0.47927
 H651 H 0.20950 1.05109 0.49700
 H652 H 0.23795 1.06809 0.50222
 C653 C 0.23026 1.14400 0.55234
 C654 C 0.26271 1.13866 0.43992
 C655 C 0.19343 1.07474 0.48754
 C656 C 0.29918 1.07195 0.51063
 C657 C 0.15209 0.46732 0.28419
 H658 H 0.14205 0.47042 0.29535
 C659 C 0.16304 0.45180 0.28657
 H660 H 0.16139 0.44319 0.29972
 C661 C 0.16584 0.47433 0.25306
 H662 H 0.16660 0.48307 0.23989
 C663 C 0.17711 0.45903 0.25487
 H664 H 0.18653 0.45613 0.24296
 N665 N 0.15370 0.47819 0.26762
 C666 C 0.14167 0.53510 0.25820
 H667 H 0.12696 0.53425 0.25669
 C668 C 0.15002 0.55188 0.25773
 H669 H 0.14156 0.56391 0.25570
 C670 C 0.17036 0.52026 0.26309
 H671 H 0.17816 0.50790 0.26565
 C672 C 0.17934 0.53684 0.26261
 H673 H 0.19406 0.53708 0.26463
 Zn674 Zn 0.13823 0.49842 0.26294
 N675 N 0.15185 0.51975 0.26087
 C676 C 0.13153 0.50596 0.30289
 N677 N 0.12278 0.50222 0.28494
 C678 C 0.10425 0.50307 0.28293
 C679 C 0.09378 0.50767 0.29956
 C680 C 0.12165 0.51063 0.31983
 C681 C 0.13000 0.50392 0.22155
 C682 C 0.12187 0.50044 0.20261
 C683 C 0.10345 0.47765 0.21827
 C684 C 0.11231 0.48133 0.23688
 N685 N 0.12511 0.49447 0.23822
 H686 H 0.14630 0.50559 0.30391
 H687 H 0.09757 0.50067 0.26837
 H688 H 0.07906 0.50838 0.29767
 H689 H 0.12899 0.51359 0.33391
 H690 H 0.14064 0.51389 0.22278
 H691 H 0.12630 0.50822 0.18971
 H692 H 0.09323 0.46717 0.21777
 H693 H 0.10908 0.47360 0.25027
 C694 C 0.16909 0.55294 0.26009
 C695 C 0.17567 0.44742 0.27170
 C696 C 0.10828 0.48714 0.20061
 C697 C 0.10251 0.51163 0.31830
 C698 C -0.16971 1.02210 0.25637
 H699 H -0.17371 1.01025 0.26475
 C700 C -0.17899 1.03857 0.25905
 H701 H -0.19026 1.03920 0.26928
 C702 C -0.14958 1.03609 0.23382
 H703 H -0.13792 1.03533 0.22425
 C704 C -0.15820 1.05276 0.23634
 H705 H -0.15317 1.06447 0.22839
 N706 N -0.15534 1.02111 0.24376
 C707 C -0.14689 0.96426 0.22703
 H708 H -0.13226 0.96456 0.22555
 C709 C -0.15621 0.94827 0.22307
 H710 H -0.14852 0.93633 0.21892
 C711 C -0.17455 0.97952 0.23403
 H712 H -0.18174 0.99173 0.23799
 C713 C -0.18442 0.96371 0.23047
 H714 H -0.19910 0.96396 0.23200
 Zn715 Zn -0.14128 0.99946 0.24019
 N716 N -0.15602 0.97936 0.23292
 C717 C -0.13177 1.00230 0.28209
 N718 N -0.12784 0.99357 0.26462
 C719 C -0.11487 0.98021 0.26452
 C720 C -0.10542 0.97509 0.28245
 C721 C -0.12292 0.99736 0.30041
 C722 C -0.13303 1.00489 0.19980
 C723 C -0.12263 1.00971 0.18330
 C724 C -0.09613 1.01142 0.20597
 C725 C -0.10712 1.00670 0.22210
 N726 N -0.12523 1.00366 0.21874
 H727 H -0.14193 1.01298 0.28200
 H728 H -0.11173 0.97355 0.25050
 H729 H -0.09519 0.96441 0.28206
 H730 H -0.12640 1.00438 0.31416
 H731 H -0.14751 1.00256 0.19763
 H732 H -0.12936 1.01081 0.16846
 H733 H -0.08179 1.01397 0.20910
 H734 H -0.10127 1.00599 0.23735
 C735 C -0.17518 0.94772 0.22526
 C736 C -0.17306 1.05418 0.24911
 C737 C -0.10389 1.01324 0.18620
 C738 C -0.10959 0.98356 0.30074
 C739 C 0.33000 0.52411 -0.23955
 H740 H 0.32578 0.51190 -0.23202
 C741 C 0.32069 0.54042 -0.23604
 H742 H 0.30950 0.54066 -0.22570
 C743 C 0.34954 0.53887 -0.26213
 H744 H 0.36065 0.53843 -0.27242
 C745 C 0.34097 0.55542 -0.25868
 H746 H 0.34567 0.56740 -0.26640
 N747 N 0.34424 0.52361 -0.25237
 C748 C 0.35387 0.46551 -0.26545
 H749 H 0.36863 0.46603 -0.26512
 C750 C 0.34551 0.44981 -0.26856
 H751 H 0.35377 0.43776 -0.27068
 C752 C 0.32568 0.48180 -0.26332
 H753 H 0.31807 0.49424 -0.26142
 C754 C 0.31577 0.46462 -0.26629
 H755 H 0.30099 0.46491 -0.26623
 Zn756 Zn 0.35822 0.50208 -0.25692
 N757 N 0.34347 0.48181 -0.26255
 C758 C 0.36393 0.49450 -0.21547
 N759 N 0.37263 0.49580 -0.23333
 C760 C 0.39064 0.49130 -0.23446
 C761 C 0.40070 0.48579 -0.21706
 C762 C 0.37342 0.48900 -0.19775
 C763 C 0.36692 0.49997 -0.29799
 C764 C 0.37610 0.50414 -0.31560
 C765 C 0.39818 0.52065 -0.29524
 C766 C 0.38843 0.51632 -0.27800
 N767 N 0.37311 0.50611 -0.27965
 H768 H 0.34952 0.49750 -0.21495
 H769 H 0.39718 0.49150 -0.24890
 H770 H 0.41501 0.48230 -0.21832
 H771 H 0.36615 0.48817 -0.18373
 H772 H 0.35449 0.49226 -0.29908
 H773 H 0.37077 0.49926 -0.33004
 H774 H 0.41020 0.52896 -0.29365
 H775 H 0.39278 0.52158 -0.26338
 C776 C 0.32524 0.44902 -0.26861
 C777 C 0.32644 0.55636 -0.24542
 C778 C 0.39188 0.51473 -0.31439
 C779 C 0.39208 0.48459 -0.19837
 C780 C 0.65733 -0.03398 -0.21783
 H781 H 0.64727 -0.03033 -0.20687
 C782 C 0.66700 -0.04938 -0.21540
 H783 H 0.66472 -0.05789 -0.20230
 C784 C 0.67174 -0.02676 -0.24879
 H785 H 0.67298 -0.01826 -0.26209
 C786 C 0.68292 -0.04339 -0.24658
 H787 H 0.69243 -0.04648 -0.25836
 N788 N 0.65988 -0.02259 -0.23526
 C789 C 0.64847 0.03360 -0.25104
 H790 H 0.63379 0.03273 -0.25298
 C791 C 0.65710 0.04993 -0.25468
 H792 H 0.64877 0.06149 -0.25942
 C793 C 0.67679 0.01935 -0.24223
 H794 H 0.68433 0.00741 -0.23713
 C795 C 0.68602 0.03553 -0.24541
 H796 H 0.70069 0.03573 -0.24289
 Zn797 Zn 0.64460 -0.00234 -0.24101
 N798 N 0.65836 0.01868 -0.24529
 C799 C 0.63828 0.00653 -0.20095
 N800 N 0.62955 0.00291 -0.21895
 C801 C 0.61109 0.00456 -0.22121
 C802 C 0.60063 0.00970 -0.20478
 C803 C 0.62839 0.01173 -0.18416
 C804 C 0.63505 0.00036 -0.28275
 C805 C 0.62551 -0.00380 -0.30074
 C806 C 0.60729 -0.02473 -0.28197
 C807 C 0.61748 -0.02045 -0.26437
 N808 N 0.63074 -0.00774 -0.26496
 H809 H 0.65302 0.00553 -0.19972
 H810 H 0.60443 0.00233 -0.23581
 H811 H 0.58596 0.01095 -0.20690
 H812 H 0.63567 0.01450 -0.16999
 H813 H 0.64610 0.00989 -0.28311
 H814 H 0.62911 0.00289 -0.31470
 H815 H 0.59660 -0.03467 -0.28118
 H816 H 0.61471 -0.02716 -0.25017
 C817 C 0.67618 0.05114 -0.25191
 C818 C 0.68050 -0.05471 -0.23077
 C819 C 0.61129 -0.01634 -0.30045
 C820 C 0.60929 0.01340 -0.18594
 C821 C 0.02956 0.26924 0.84687
 H822 H 0.02038 0.28080 0.84570
 C823 C 0.04501 0.26844 0.83488
 H824 H 0.04757 0.27947 0.82449
 C825 C 0.03755 0.24102 0.86214
 H826 H 0.03486 0.23047 0.87301
 C827 C 0.05308 0.23969 0.85054
 H828 H 0.06197 0.22796 0.85258
 N829 N 0.02605 0.25555 0.86005
 C830 C -0.03223 0.25617 0.87186
 H831 H -0.03114 0.25487 0.88822
 C832 C -0.04938 0.25653 0.86211
 H833 H -0.06138 0.25550 0.87120
 C834 C -0.01772 0.25887 0.84038
 H835 H -0.00532 0.25961 0.83199
 C836 C -0.03470 0.25919 0.82993
 H837 H -0.03518 0.26033 0.81353
 Zn838 Zn 0.00537 0.25684 0.87676
 N839 N -0.01684 0.25761 0.86102
 C840 C -0.00683 0.29031 0.89196
 N841 N 0.00705 0.27792 0.89319
 C842 C 0.02206 0.28073 0.90544
 C843 C 0.02329 0.29635 0.91738
 C844 C -0.00627 0.30589 0.90374
 C845 C 0.00021 0.22027 0.88229
 C846 C -0.00124 0.20371 0.89227
 C847 C 0.00591 0.21860 0.92402
 C848 C 0.00711 0.23501 0.91336
 N849 N 0.00442 0.23548 0.89283
 H850 H -0.01840 0.28827 0.88174
 H851 H 0.03308 0.27084 0.90592
 H852 H 0.03528 0.29833 0.92711
 H853 H -0.01756 0.31547 0.90244
 H854 H -0.00202 0.22106 0.86599
 H855 H -0.00453 0.19183 0.88341
 H856 H 0.00815 0.21842 0.94035
 H857 H 0.01018 0.24731 0.92150
 C858 C -0.05085 0.25813 0.84086
 C859 C 0.05704 0.25349 0.83665
 C860 C 0.00167 0.20265 0.91343
 C861 C 0.00889 0.30910 0.91672
 C862 C 0.47112 0.25881 0.15717
 H863 H 0.48001 0.27026 0.15936
 C864 C 0.45580 0.25698 0.16912
 H865 H 0.45307 0.26710 0.18047
 C866 C 0.46370 0.23203 0.13937
 H867 H 0.46664 0.22244 0.12757
 C868 C 0.44825 0.22968 0.15094
 H869 H 0.43959 0.21819 0.14790
 N870 N 0.47468 0.24653 0.14246
 C871 C 0.53201 0.25721 0.13006
 H872 H 0.53127 0.25837 0.11375
 C873 C 0.54877 0.25948 0.14030
 H874 H 0.56063 0.26256 0.13158
 C875 C 0.51765 0.25110 0.16099
 H876 H 0.50559 0.24743 0.16899
 C877 C 0.53424 0.25311 0.17188
 H878 H 0.53464 0.25124 0.18820
 Zn879 Zn 0.49466 0.24985 0.12496
 N880 N 0.51680 0.25329 0.14043
 C881 C 0.50082 0.27325 0.09144
 N882 N 0.49008 0.27042 0.10762
 C883 C 0.47665 0.28250 0.11211
 C884 C 0.47430 0.29852 0.10091
 C885 C 0.49887 0.28906 0.07973
 C886 C 0.50586 0.21429 0.11935
 C887 C 0.50850 0.19791 0.10942
 C888 C 0.49414 0.21102 0.07916
 C889 C 0.49182 0.22725 0.08970
 N890 N 0.49771 0.22856 0.10944
 H891 H 0.51103 0.26329 0.08761
 H892 H 0.46794 0.28002 0.12468
 H893 H 0.46381 0.30809 0.10515
 H894 H 0.50787 0.29119 0.06724
 H895 H 0.51025 0.21564 0.13509
 H896 H 0.51499 0.18678 0.11775
 H897 H 0.48929 0.21018 0.06350
 H898 H 0.48510 0.23868 0.08221
 C899 C 0.55009 0.25741 0.16150
 C900 C 0.44398 0.24236 0.16591
 C901 C 0.50260 0.19605 0.08905
 C902 C 0.48572 0.30215 0.08469
 C903 C -0.02920 0.75990 0.65738
 H904 H -0.02061 0.77167 0.65870
 C905 C -0.04350 0.75817 0.66939
 H906 H -0.04624 0.76864 0.68034
 C907 C -0.03525 0.73192 0.64083
 H908 H -0.03231 0.72190 0.62950
 C909 C -0.05109 0.72937 0.65379
 H910 H -0.05919 0.71735 0.65156
 N911 N -0.02527 0.74632 0.64253
 C912 C 0.03190 0.75587 0.62834
 H913 H 0.03102 0.75577 0.61198
 C914 C 0.04884 0.75828 0.63813
 H915 H 0.06070 0.76026 0.62903
 C916 C 0.01770 0.75254 0.65988
 H917 H 0.00563 0.74988 0.66834
 C918 C 0.03445 0.75478 0.67034
 H919 H 0.03497 0.75408 0.68677
 Zn920 Zn -0.00571 0.74944 0.62436
 N921 N 0.01668 0.75327 0.63921
 C922 C 0.00011 0.77264 0.59055
 N923 N -0.01072 0.76968 0.60664
 C924 C -0.02446 0.78149 0.61086
 C925 C -0.02697 0.79745 0.59959
 C926 C -0.00201 0.78839 0.57876
 C927 C 0.00535 0.71379 0.61964
 C928 C 0.00787 0.69717 0.61019
 C929 C -0.00645 0.70966 0.57958
 C930 C -0.00864 0.72616 0.58965
 N931 N -0.00275 0.72787 0.60933
 H932 H 0.01055 0.76286 0.58690
 H933 H -0.03326 0.77886 0.62331
 H934 H -0.03767 0.80685 0.60366
 H935 H 0.00710 0.79066 0.56641
 H936 H 0.00975 0.71547 0.63533
 H937 H 0.01430 0.68619 0.61884
 H938 H -0.01134 0.70849 0.56397
 H939 H -0.01528 0.73747 0.58184
 C940 C 0.05032 0.75773 0.65943
 C941 C -0.05545 0.74208 0.66747
 C942 C 0.00189 0.69486 0.58991
 C943 C -0.01540 0.80128 0.58356
 C944 C 0.52152 0.75426 0.33973
 H945 H 0.50872 0.75762 0.33190
 C946 C 0.53760 0.75320 0.32883
 H947 H 0.53702 0.75583 0.31263
 C948 C 0.53782 0.74658 0.37027
 H949 H 0.53775 0.74398 0.38645
 C950 C 0.55412 0.74533 0.36003
 H951 H 0.56653 0.74179 0.36858
 N952 N 0.52197 0.75110 0.36012
 C953 C 0.46803 0.73910 0.35773
 H954 H 0.47123 0.72686 0.36617
 C955 C 0.45220 0.73983 0.34544
 H956 H 0.44353 0.72808 0.34460
 C957 C 0.47505 0.76930 0.34898
 H958 H 0.48408 0.78073 0.35047
 C959 C 0.45906 0.77075 0.33679
 H960 H 0.45587 0.78334 0.32887
 Zn961 Zn 0.50083 0.75189 0.37599
 N962 N 0.47925 0.75361 0.35912
 C963 C 0.48780 0.77608 0.40573
 N964 N 0.50199 0.77218 0.39360
 C965 C 0.51698 0.78286 0.39347
 C966 C 0.51829 0.79788 0.40611
 C967 C 0.48850 0.79109 0.41859
 C968 C 0.50335 0.71460 0.38011
 C969 C 0.50288 0.69766 0.38944
 C970 C 0.49794 0.71237 0.42146
 C971 C 0.49843 0.72913 0.41143
 N972 N 0.50076 0.72989 0.39103
 H973 H 0.47591 0.76753 0.40538
 H974 H 0.52798 0.77986 0.38347
 H975 H 0.53038 0.80613 0.40564
 H976 H 0.47706 0.79395 0.42811
 H977 H 0.50545 0.71560 0.36396
 H978 H 0.50469 0.68571 0.38026
 H979 H 0.49576 0.71199 0.43763
 H980 H 0.49675 0.74145 0.41994
 C981 C 0.44749 0.75580 0.33480
 C982 C 0.55422 0.74869 0.33902
 C983 C 0.49994 0.69633 0.41036
 C984 C 0.50393 0.80222 0.41890
 B985 B -0.00268 0.01665 1.01686
 B986 B -0.01367 0.01108 0.99509
 B987 B 0.00365 0.02575 0.99489
 B988 B 0.01971 0.01924 1.01239
 B989 B 0.01202 -0.00006 1.02350
 B990 B -0.00889 -0.00498 1.01282
 B991 B 0.01617 -0.00674 0.98317
 B992 B 0.02716 -0.00115 1.00489
 B993 B 0.00990 -0.01582 1.00513
 B994 B -0.00621 -0.00932 0.98762
 B995 B 0.00146 0.01001 0.97650
 B996 B 0.02236 0.01492 0.98716
 B997 B 0.48786 0.51013 0.51138
 B998 B 0.47836 0.50410 0.48899
 B999 B 0.49569 0.51875 0.48988
 B1000 B 0.51054 0.51262 0.50879
 B1001 B 0.50210 0.49355 0.51969
 B1002 B 0.48194 0.48839 0.50742
 B1003 B 0.50902 0.48605 0.48009
 B1004 B 0.51850 0.49211 0.50247
 B1005 B 0.50123 0.47742 0.50162
 B1006 B 0.48633 0.48355 0.48267
 B1007 B 0.49477 0.50264 0.47178
 B1008 B 0.51492 0.50778 0.48405
 B1009 B 0.50908 0.98862 0.51829
 B1010 B 0.51898 0.99094 0.49577
 B1011 B 0.50228 0.97581 0.49874
 B1012 B 0.48665 0.98461 0.51425
 B1013 B 0.49398 1.00571 0.52093
 B1014 B 0.51423 1.00944 0.50957
 B1015 B 0.48796 1.00529 0.47976
 B1016 B 0.47802 1.00300 0.50222
 B1017 B 0.49470 1.01811 0.49933
 B1018 B 0.51033 1.00933 0.48384
 B1019 B 0.50303 0.98821 0.47719
 B1020 B 0.48278 0.98451 0.48849
 B1021 B 0.01368 0.49459 1.01844
 B1022 B 0.02117 0.49826 0.99498
 B1023 B 0.00449 0.48341 0.99876
 B1024 B -0.00904 0.49136 1.01702
 B1025 B -0.00039 0.51172 1.02461
 B1026 B 0.01855 0.51580 1.01092
 B1027 B -0.01069 0.51449 0.98445
 B1028 B -0.01821 0.51079 1.00792
 B1029 B -0.00149 0.52567 1.00413
 B1030 B 0.01204 0.51769 0.98584
 B1031 B 0.00335 0.49735 0.97828
 B1032 B -0.01555 0.49329 0.99196
 B1033 B 0.00990 0.50651 0.49507
 B1034 B 0.02206 0.50128 0.51632
 B1035 B 0.00471 0.51623 0.51703
 B1036 B -0.01216 0.50958 0.50087
 B1037 B -0.00491 0.48983 0.49010
 B1038 B 0.01652 0.48486 0.49966
 B1039 B -0.00686 0.48424 0.53100
 B1040 B -0.01906 0.48958 0.50975
 B1041 B -0.00170 0.47453 0.50907
 B1042 B 0.01522 0.48123 0.52522
 B1043 B 0.00799 0.50089 0.53597
 B1044 B -0.01345 0.50592 0.52646
 B1045 B 0.51276 0.01016 -0.01197
 B1046 B 0.52469 0.00449 0.00930
 B1047 B 0.50758 0.01973 0.01008
 B1048 B 0.49069 0.01352 -0.00630
 B1049 B 0.49767 -0.00622 -0.01730
 B1050 B 0.51898 -0.01164 -0.00765
 B1051 B 0.49543 -0.01222 0.02350
 B1052 B 0.48342 -0.00647 0.00226
 B1053 B 0.50054 -0.02177 0.00148
 B1054 B 0.51748 -0.01552 0.01784
 B1055 B 0.51050 0.00413 0.02881
 B1056 B 0.48921 0.00960 0.01923
 B1057 B 0.48930 0.48785 -0.01810
 B1058 B 0.47835 0.49463 0.00252
 B1059 B 0.49506 0.47892 0.00462
 B1060 B 0.51152 0.48405 -0.01169
 B1061 B 0.50466 0.50351 -0.02402
 B1062 B 0.48389 0.50995 -0.01525
 B1063 B 0.50870 0.51090 0.01644
 B1064 B 0.51965 0.50415 -0.00418
 B1065 B 0.50296 0.51981 -0.00628
 B1066 B 0.48649 0.51471 0.01002
 B1067 B 0.49334 0.49522 0.02237
 B1068 B 0.51413 0.48880 0.01360
 B1069 B -0.01343 0.98722 0.48149
 B1070 B -0.02380 0.99395 0.50250
 B1071 B -0.00684 0.97847 0.50404
 B1072 B 0.00902 0.98375 0.48705
 B1073 B 0.00150 1.00306 0.47487
 B1074 B -0.01904 1.00926 0.48441
 B1075 B 0.00666 1.01069 0.51516
 B1076 B 0.01707 1.00401 0.49416
 B1077 B 0.00013 1.01943 0.49258
 B1078 B -0.01574 1.01417 0.50955
 B1079 B -0.00824 0.99482 0.52176
 B1080 B 0.01233 0.98865 0.51224
 B1081 B 0.76159 0.24366 0.23414
 B1082 B 0.75587 0.23167 0.25465
 B1083 B 0.77080 0.24867 0.25693
 B1084 B 0.76437 0.26550 0.24080
 B1085 B 0.74483 0.25866 0.22839
 B1086 B 0.73970 0.23747 0.23692
 B1087 B 0.73814 0.26065 0.26889
 B1088 B 0.74388 0.27261 0.24839
 B1089 B 0.72892 0.25571 0.24609
 B1090 B 0.73535 0.23881 0.26224
 B1091 B 0.75492 0.24563 0.27463
 B1092 B 0.76003 0.26680 0.26611
 B1093 B 0.74062 0.75768 0.73310
 B1094 B 0.74526 0.76766 0.75550
 B1095 B 0.72954 0.75133 0.75370
 B1096 B 0.73660 0.73559 0.73718
 B1097 B 0.75722 0.74245 0.72866
 B1098 B 0.76241 0.76254 0.73996
 B1099 B 0.76070 0.73681 0.76966
 B1100 B 0.75602 0.72682 0.74727
 B1101 B 0.77177 0.74314 0.74906
 B1102 B 0.76472 0.75891 0.76559
 B1103 B 0.74408 0.75204 0.77411
 B1104 B 0.73893 0.73196 0.76281
 B1105 B 0.26150 0.26221 0.75896
 B1106 B 0.25504 0.27372 0.73790
 B1107 B 0.27002 0.25640 0.73662
 B1108 B 0.26421 0.24016 0.75319
 B1109 B 0.24496 0.24769 0.76476
 B1110 B 0.23945 0.26870 0.75527
 B1111 B 0.23700 0.24468 0.72412
 B1112 B 0.24355 0.23313 0.74522
 B1113 B 0.22848 0.25040 0.74643
 B1114 B 0.23434 0.26673 0.72989
 B1115 B 0.25350 0.25923 0.71837
 B1116 B 0.25904 0.23821 0.72778
 B1117 B 0.23760 0.74464 0.27311
 B1118 B 0.24085 0.72889 0.25535
 B1119 B 0.22595 0.74603 0.25084
 B1120 B 0.23431 0.76493 0.26167
 B1121 B 0.25499 0.75925 0.27281
 B1122 B 0.25886 0.73667 0.26902
 B1123 B 0.25700 0.75348 0.23202
 B1124 B 0.25374 0.76925 0.24977
 B1125 B 0.26865 0.75214 0.25429
 B1126 B 0.26029 0.73319 0.24348
 B1127 B 0.23961 0.73888 0.23234
 B1128 B 0.23574 0.76146 0.23611
 B1129 B 0.26204 0.74363 0.73399
 B1130 B 0.25576 0.73313 0.75524
 B1131 B 0.27090 0.75001 0.75646
 B1132 B 0.26499 0.76582 0.73886
 B1133 B 0.24558 0.75846 0.72660
 B1134 B 0.23999 0.73797 0.73673
 B1135 B 0.23817 0.76322 0.76661
 B1136 B 0.24444 0.77372 0.74537
 B1137 B 0.22930 0.75691 0.74412
 B1138 B 0.23520 0.74103 0.76173
 B1139 B 0.25464 0.74839 0.77397
 B1140 B 0.26021 0.76886 0.76385
 B1141 B 0.23710 0.26253 0.22856
 B1142 B 0.24264 0.27156 0.25125
 B1143 B 0.22619 0.25597 0.24919
 B1144 B 0.23222 0.24050 0.23185
 B1145 B 0.25292 0.24681 0.22305
 B1146 B 0.25923 0.26627 0.23505
 B1147 B 0.25701 0.23972 0.26374
 B1148 B 0.25145 0.23067 0.24108
 B1149 B 0.26790 0.24624 0.24308
 B1150 B 0.26190 0.26173 0.26046
 B1151 B 0.24117 0.25542 0.26925
 B1152 B 0.23491 0.23598 0.25727
 B1153 B 0.76068 0.76241 0.26124
 B1154 B 0.75316 0.77309 0.24002
 B1155 B 0.76819 0.75587 0.23874
 B1156 B 0.76330 0.74015 0.25634
 B1157 B 0.74464 0.74800 0.26864
 B1158 B 0.73847 0.76863 0.25854
 B1159 B 0.73480 0.74346 0.22868
 B1160 B 0.74234 0.73279 0.24990
 B1161 B 0.72730 0.75001 0.25119
 B1162 B 0.73218 0.76573 0.23357
 B1163 B 0.75085 0.75787 0.22127
 B1164 B 0.75701 0.73725 0.23137
 B1165 B 0.73823 0.23486 0.76447
 B1166 B 0.74547 0.22518 0.74323
 B1167 B 0.72939 0.24157 0.74192
 B1168 B 0.73411 0.25706 0.75995
 B1169 B 0.75370 0.24996 0.77250
 B1170 B 0.76065 0.23001 0.76213
 B1171 B 0.76153 0.25612 0.73277
 B1172 B 0.75430 0.26577 0.75408
 B1173 B 0.77037 0.24945 0.75533
 B1174 B 0.76568 0.23392 0.73732
 B1175 B 0.74604 0.24099 0.72475
 B1176 B 0.73913 0.26098 0.73513
 C1177 C 0.41754 1.02120 0.35148
 N1178 N 0.40090 1.02941 0.34941
 N1179 N 0.39049 1.02700 0.33269
 C1180 C 0.39627 1.01613 0.31754
 N1181 N 0.41294 1.00800 0.31967
 N1182 N 0.42338 1.01052 0.33627
 C1183 C 0.42888 1.02296 0.37011
 N1184 N 0.44622 1.01629 0.37070
 N1185 N 0.45625 1.01642 0.38787
 C1186 C 0.44934 1.02317 0.40516
 N1187 N 0.43205 1.03007 0.40456
 N1188 N 0.42201 1.03002 0.38730
 C1189 C 0.45992 1.02117 0.42435
 N1190 N 0.45257 1.02531 0.44244
 N1191 N 0.46157 1.02125 0.45985
 C1192 C 0.47816 1.01285 0.45974
 N1193 N 0.48564 1.00921 0.44163
 N1194 N 0.47671 1.01328 0.42429
 C1195 C -0.08872 0.52844 0.86300
 N1196 N -0.10385 0.51811 0.86380
 N1197 N -0.11305 0.51363 0.84687
 C1198 C -0.10760 0.51938 0.82841
 N1199 N -0.09258 0.53000 0.82770
 N1200 N -0.08324 0.53434 0.84464
 C1201 C -0.07786 0.53189 0.88163
 N1202 N -0.06020 0.53719 0.88082
 N1203 N -0.04980 0.53821 0.89775
 C1204 C -0.05674 0.53414 0.91608
 N1205 N -0.07450 0.52928 0.91688
 N1206 N -0.08485 0.52813 0.89998
 C1207 C -0.04486 0.53253 0.93437
 N1208 N -0.05215 0.52814 0.95239
 N1209 N -0.04142 0.52371 0.96836
 C1210 C -0.02300 0.52349 0.96700
 N1211 N -0.01566 0.52837 0.94912
 N1212 N -0.02640 0.53285 0.93310
 C1213 C 0.08173 -0.02388 0.85936
 N1214 N 0.07271 -0.01896 0.84183
 N1215 N 0.08188 -0.01466 0.82538
 C1216 C 0.10044 -0.01508 0.82581
 N1217 N 0.10942 -0.02019 0.84333
 N1218 N 0.10025 -0.02444 0.85980
 C1219 C 0.07165 -0.02715 0.87792
 N1220 N 0.08070 -0.02945 0.89608
 N1221 N 0.07157 -0.03049 0.91321
 C1222 C 0.05305 -0.02940 0.91279
 N1223 N 0.04399 -0.02752 0.89458
 N1224 N 0.05312 -0.02642 0.87746
 C1225 C 0.04317 -0.02752 0.93172
 N1226 N 0.02480 -0.02481 0.93109
 N1227 N 0.01618 -0.01979 0.94766
 C1228 C 0.02556 -0.01729 0.96550
 N1229 N 0.04383 -0.02063 0.96628
 N1230 N 0.05247 -0.02569 0.94972
 C1231 C 0.58168 0.46885 0.36192
 N1232 N 0.59833 0.47661 0.36376
 N1233 N 0.60724 0.48152 0.34736
 C1234 C 0.59990 0.47882 0.32845
 N1235 N 0.58334 0.47080 0.32661
 N1236 N 0.57434 0.46601 0.34304
 C1237 C 0.57126 0.46513 0.38013
 N1238 N 0.55311 0.46164 0.37865
 N1239 N 0.54327 0.46052 0.39528
 C1240 C 0.55126 0.46268 0.41398
 N1241 N 0.56949 0.46570 0.41544
 N1242 N 0.57929 0.46691 0.39883
 C1243 C 0.54014 0.46465 0.43200
 N1244 N 0.54830 0.46843 0.45023
 N1245 N 0.53841 0.47365 0.46578
 C1246 C 0.51997 0.47525 0.46378
 N1247 N 0.51174 0.47086 0.44574
 N1248 N 0.52164 0.46562 0.43015
 C1249 C 0.57597 0.53333 0.14297
 N1250 N 0.59449 0.53286 0.14316
 N1251 N 0.60403 0.52916 0.16025
 C1252 C 0.59546 0.52568 0.17782
 N1253 N 0.57691 0.52636 0.17764
 N1254 N 0.56735 0.53009 0.16054
 C1255 C 0.56549 0.53568 0.12375
 N1256 N 0.54697 0.53514 0.12333
 N1257 N 0.53755 0.53524 0.10570
 C1258 C 0.54629 0.53589 0.08785
 N1259 N 0.56479 0.53680 0.08829
 N1260 N 0.57421 0.53674 0.10592
 C1261 C 0.53616 0.53300 0.06859
 N1262 N 0.54523 0.53051 0.05116
 N1263 N 0.53645 0.52484 0.03441
 C1264 C 0.51829 0.52149 0.03443
 N1265 N 0.50913 0.52455 0.05170
 N1266 N 0.51789 0.53020 0.06845
 C1267 C 0.07398 1.03311 0.64151
 N1268 N 0.09166 1.03834 0.64313
 N1269 N 0.10157 1.03498 0.66007
 C1270 C 0.09427 1.02604 0.67591
 N1271 N 0.07657 1.02089 0.67429
 N1272 N 0.06660 1.02441 0.65744
 C1273 C 0.06340 1.03544 0.62237
 N1274 N 0.04510 1.03283 0.62180
 N1275 N 0.03569 1.03303 0.60418
 C1276 C 0.04423 1.03574 0.58645
 N1277 N 0.06251 1.03863 0.58703
 N1278 N 0.07191 1.03859 0.60469
 C1279 C 0.03426 1.03298 0.56707
 N1280 N 0.04341 1.03023 0.54973
 N1281 N 0.03464 1.02451 0.53298
 C1282 C 0.01641 1.02145 0.53292
 N1283 N 0.00720 1.02481 0.55007
 N1284 N 0.01595 1.03044 0.56683
 C1285 C -0.07591 0.46318 0.65168
 N1286 N -0.06855 0.46809 0.66996
 N1287 N -0.07924 0.47230 0.68525
 C1288 C -0.09772 0.47186 0.68284
 N1289 N -0.10504 0.46673 0.66460
 N1290 N -0.09435 0.46249 0.64930
 C1291 C -0.06419 0.46038 0.63429
 N1292 N -0.07158 0.45645 0.61570
 N1293 N -0.06123 0.45608 0.59944
 C1294 C -0.04311 0.45962 0.60118
 N1295 N -0.03566 0.46315 0.61985
 N1296 N -0.04600 0.46348 0.63611
 C1297 C -0.03241 0.46242 0.58300
 N1298 N -0.01565 0.46997 0.58473
 N1299 N -0.00719 0.47563 0.56832
 C1300 C -0.01512 0.47390 0.54954
 N1301 N -0.03153 0.46566 0.54775
 N1302 N -0.04006 0.46007 0.56418
 C1303 C 0.42328 -0.02741 0.14174
 N1304 N 0.43006 -0.02037 0.15934
 N1305 N 0.41891 -0.01524 0.17386
 C1306 C 0.40054 -0.01687 0.17131
 N1307 N 0.39379 -0.02406 0.15372
 N1308 N 0.40494 -0.02918 0.13918
 C1309 C 0.43548 -0.03153 0.12512
 N1310 N 0.42863 -0.03678 0.10672
 N1311 N 0.43948 -0.03836 0.09096
 C1312 C 0.45758 -0.03482 0.09308
 N1313 N 0.46448 -0.03003 0.11161
 N1314 N 0.45365 -0.02846 0.12735
 C1315 C 0.46881 -0.03304 0.07516
 N1316 N 0.48568 -0.02579 0.07710
 N1317 N 0.49454 -0.02060 0.06078
 C1318 C 0.48691 -0.02251 0.04189
 N1319 N 0.47041 -0.03056 0.03990
 N1320 N 0.46148 -0.03569 0.05624
 C1321 C 0.35157 0.45156 0.01003
 N1322 N 0.33742 0.45926 -0.00083
 N1323 N 0.32148 0.45084 -0.00274
 C1324 C 0.31914 0.43436 0.00602
 N1325 N 0.33329 0.42679 0.01701
 N1326 N 0.34917 0.43523 0.01901
 C1327 C 0.36954 0.46008 0.01116
 N1328 N 0.38326 0.45243 0.02270
 N1329 N 0.39998 0.45927 0.02274
 C1330 C 0.40362 0.47397 0.01119
 N1331 N 0.38986 0.48177 -0.00022
 N1332 N 0.37309 0.47495 -0.00021
 C1333 C 0.42241 0.48041 0.01008
 N1334 N 0.42676 0.49379 -0.00307
 N1335 N 0.44411 0.49853 -0.00509
 C1336 C 0.45771 0.49001 0.00590
 N1337 N 0.45327 0.47693 0.01932
 N1338 N 0.43597 0.47217 0.02134
 C1339 C -0.14936 0.94913 0.51462
 N1340 N -0.15120 0.93256 0.52322
 N1341 N -0.16691 0.92379 0.52139
 C1342 C -0.18142 0.93126 0.51094
 N1343 N -0.17965 0.94799 0.50258
 N1344 N -0.16388 0.95674 0.50433
 C1345 C -0.13157 0.95799 0.51539
 N1346 N -0.12862 0.97315 0.50425
 N1347 N -0.11200 0.98025 0.50374
 C1348 C -0.09778 0.97244 0.51440
 N1349 N -0.10081 0.95746 0.52575
 N1350 N -0.11739 0.95035 0.52621
 C1351 C -0.07915 0.97912 0.51257
 N1352 N -0.06509 0.97062 0.52275
 N1353 N -0.04796 0.97556 0.51994
 C1354 C -0.04419 0.98909 0.50680
 N1355 N -0.05829 0.99787 0.49692
 N1356 N -0.07547 0.99294 0.49972
 C1357 C -0.14084 0.05754 0.98814
 N1358 N -0.14301 0.07343 0.99794
 N1359 N -0.15953 0.08061 1.00009
 C1360 C -0.17465 0.07234 0.99235
 N1361 N -0.17245 0.05640 0.98241
 N1362 N -0.15586 0.04907 0.98045
 C1363 C -0.12239 0.05001 0.98617
 N1364 N -0.11940 0.03223 0.98214
 N1365 N -0.10239 0.02557 0.98166
 C1366 C -0.08785 0.03655 0.98498
 N1367 N -0.09092 0.05432 0.98873
 N1368 N -0.10784 0.06090 0.98940
 C1369 C -0.06902 0.02956 0.98564
 N1370 N -0.05506 0.04140 0.98672
 N1371 N -0.03791 0.03552 0.98899
 C1372 C -0.03398 0.01758 0.99037
 N1373 N -0.04794 0.00565 0.98906
 N1374 N -0.06518 0.01154 0.98670
 C1375 C 0.35314 0.55406 0.47601
 N1376 N 0.33757 0.54426 0.47498
 N1377 N 0.32144 0.55212 0.47824
 C1378 C 0.32037 0.56999 0.48289
 N1379 N 0.33595 0.57973 0.48376
 N1380 N 0.35199 0.57194 0.48030
 C1381 C 0.37116 0.54554 0.47383
 N1382 N 0.38604 0.55609 0.47195
 N1383 N 0.40269 0.54876 0.47177
 C1384 C 0.40515 0.53059 0.47360
 N1385 N 0.39027 0.51996 0.47525
 N1386 N 0.37354 0.52731 0.47530
 C1387 C 0.42376 0.52303 0.47541
 N1388 N 0.42690 0.50550 0.48095
 N1389 N 0.44392 0.49936 0.48448
 C1390 C 0.45837 0.51053 0.48256
 N1391 N 0.45516 0.52794 0.47672
 N1392 N 0.43821 0.53408 0.47323
 C1393 C 0.14824 0.54798 0.52489
 N1394 N 0.15065 0.56480 0.53256
 N1395 N 0.16650 0.57318 0.53083
 C1396 C 0.18063 0.56506 0.52143
 N1397 N 0.17828 0.54810 0.51400
 N1398 N 0.16237 0.53974 0.51564
 C1399 C 0.13029 0.53944 0.52564
 N1400 N 0.12681 0.52380 0.51560
 N1401 N 0.11011 0.51680 0.51526
 C1402 C 0.09634 0.52517 0.52500
 N1403 N 0.09990 0.54068 0.53521
 N1404 N 0.11654 0.54770 0.53550
 C1405 C 0.07765 0.51824 0.52372
 N1406 N 0.06410 0.52687 0.53352
 N1407 N 0.04693 0.52135 0.53152
 C1408 C 0.04260 0.50704 0.51960
 N1409 N 0.05620 0.49823 0.51001
 N1410 N 0.07342 0.50374 0.51201
 C1411 C 0.65144 0.04881 0.02295
 N1412 N 0.66567 0.04072 0.01374
 N1413 N 0.68163 0.04909 0.01258
 C1414 C 0.68389 0.06589 0.02047
 N1415 N 0.66968 0.07383 0.02986
 N1416 N 0.65379 0.06544 0.03113
 C1417 C 0.63341 0.04039 0.02299
 N1418 N 0.61960 0.04841 0.03298
 N1419 N 0.60285 0.04165 0.03193
 C1420 C 0.59926 0.02666 0.02080
 N1421 N 0.61309 0.01851 0.01094
 N1422 N 0.62989 0.02525 0.01204
 C1423 C 0.58048 0.02013 0.01865
 N1424 N 0.57617 0.00631 0.00597
 N1425 N 0.55887 0.00123 0.00325
 C1426 C 0.54527 0.00986 0.01304
 N1427 N 0.54967 0.02347 0.02592
 N1428 N 0.56692 0.02855 0.02864
 C1429 C 0.64638 0.94856 0.48024
 N1430 N 0.65914 0.95300 0.49466
 N1431 N 0.67528 0.94454 0.49565
 C1432 C 0.67933 0.93130 0.48224
 N1433 N 0.66663 0.92706 0.46761
 N1434 N 0.65045 0.93550 0.46665
 C1435 C 0.62812 0.95689 0.48033
 N1436 N 0.61467 0.95123 0.46730
 N1437 N 0.59774 0.95783 0.46848
 C1438 C 0.59365 0.97033 0.48271
 N1439 N 0.60715 0.97615 0.49555
 N1440 N 0.62407 0.96954 0.49439
 C1441 C 0.57475 0.97647 0.48513
 N1442 N 0.57059 0.98834 0.49997
 N1443 N 0.55329 0.99293 0.50314
 C1444 C 0.53948 0.98562 0.49182
 N1445 N 0.54370 0.97422 0.47654
 N1446 N 0.56100 0.96963 0.47334
 C1447 C 0.14640 0.45307 0.97305
 N1448 N 0.15977 0.45884 0.98609
 N1449 N 0.17589 0.45036 0.98730
 C1450 C 0.17934 0.43580 0.97549
 N1451 N 0.16604 0.43021 0.96219
 N1452 N 0.14985 0.43865 0.96104
 C1453 C 0.12820 0.46156 0.97315
 N1454 N 0.11394 0.45445 0.96234
 N1455 N 0.09715 0.46134 0.96388
 C1456 C 0.09403 0.47560 0.97627
 N1457 N 0.10833 0.48283 0.98683
 N1458 N 0.12509 0.47594 0.98531
 C1459 C 0.07542 0.48224 0.97955
 N1460 N 0.07259 0.49580 0.99291
 N1461 N 0.05572 0.50094 0.99733
 C1462 C 0.04103 0.49262 0.98872
 N1463 N 0.04384 0.47942 0.97489
 N1464 N 0.06074 0.47425 0.97046
 C1465 C -0.00276 0.35019 0.45453
 N1466 N -0.01666 0.34518 0.44178
 N1467 N -0.01553 0.32996 0.43118
 C1468 C -0.00044 0.31911 0.43282
 N1469 N 0.01345 0.32409 0.44571
 N1470 N 0.01231 0.33934 0.45635
 C1471 C -0.00380 0.36749 0.46539
 N1472 N 0.01011 0.37291 0.47795
 N1473 N 0.00947 0.38904 0.48687
 C1474 C -0.00511 0.40034 0.48357
 N1475 N -0.01908 0.39484 0.47116
 N1476 N -0.01845 0.37871 0.46227
 C1477 C -0.00522 0.41874 0.49199
 N1478 N -0.01876 0.43066 0.48651
 N1479 N -0.01810 0.44781 0.49257
 C1480 C -0.00398 0.45369 0.50449
 N1481 N 0.00944 0.44168 0.51021
 N1482 N 0.00883 0.42453 0.50410
 C1483 C 0.49849 -0.14697 -0.05096
 N1484 N 0.51286 -0.15850 -0.04747
 N1485 N 0.51391 -0.17413 -0.05744
 C1486 C 0.50065 -0.17882 -0.07126
 N1487 N 0.48627 -0.16728 -0.07457
 N1488 N 0.48522 -0.15169 -0.06466
 C1489 C 0.49753 -0.12934 -0.04079
 N1490 N 0.48389 -0.11741 -0.04589
 N1491 N 0.48333 -0.10107 -0.03752
 C1492 C 0.49635 -0.09604 -0.02364
 N1493 N 0.50992 -0.10803 -0.01835
 N1494 N 0.51051 -0.12438 -0.02679
 C1495 C 0.49634 -0.07751 -0.01562
 N1496 N 0.50902 -0.07232 -0.00141
 N1497 N 0.50978 -0.05514 0.00461
 C1498 C 0.49788 -0.04252 -0.00332
 N1499 N 0.48517 -0.04778 -0.01741
 N1500 N 0.48434 -0.06494 -0.02336
 C1501 C 0.00819 -0.14143 1.05862
 N1502 N 0.00569 -0.15653 1.04727
 N1503 N 0.00356 -0.17261 1.05621
 C1504 C 0.00371 -0.17415 1.07682
 N1505 N 0.00620 -0.15899 1.08805
 N1506 N 0.00842 -0.14300 1.07915
 C1507 C 0.01037 -0.12349 1.04924
 N1508 N 0.01440 -0.10913 1.06121
 N1509 N 0.01581 -0.09264 1.05325
 C1510 C 0.01319 -0.08980 1.03300
 N1511 N 0.00924 -0.10416 1.02092
 N1512 N 0.00790 -0.12074 1.02890
 C1513 C 0.01376 -0.07120 1.02492
 N1514 N 0.00963 -0.06726 1.00509
 N1515 N 0.00903 -0.05010 0.99855
 C1516 C 0.01261 -0.03632 1.01160
 N1517 N 0.01685 -0.04037 1.03131
 N1518 N 0.01747 -0.05743 1.03782
 C1519 C 0.50601 0.35136 0.55499
 N1520 N 0.50750 0.34933 0.57545
 N1521 N 0.50656 0.33303 0.58402
 C1522 C 0.50409 0.31804 0.57251
 N1523 N 0.50269 0.32006 0.55197
 N1524 N 0.50360 0.33641 0.54336
 C1525 C 0.50659 0.36959 0.54595
 N1526 N 0.50438 0.37238 0.52559
 N1527 N 0.50440 0.38912 0.51783
 C1528 C 0.50665 0.40364 0.53018
 N1529 N 0.50895 0.40079 0.55046
 N1530 N 0.50893 0.38411 0.55819
 C1531 C 0.50600 0.42230 0.52223
 N1532 N 0.50718 0.43627 0.53541
 N1533 N 0.50596 0.45328 0.52878
 C1534 C 0.50361 0.45706 0.50868
 N1535 N 0.50248 0.44309 0.49539
 N1536 N 0.50366 0.42599 0.50206
 C1537 C 0.48760 1.14637 0.53832
 N1538 N 0.50253 1.15700 0.53736
 N1539 N 0.50335 1.17255 0.54748
 C1540 C 0.48929 1.17806 0.55901
 N1541 N 0.47428 1.16748 0.55975
 N1542 N 0.47345 1.15196 0.54961
 C1543 C 0.48723 1.12855 0.52850
 N1544 N 0.47252 1.11771 0.53018
 N1545 N 0.47270 1.10099 0.52276
 C1546 C 0.48761 1.09446 0.51336
 N1547 N 0.50224 1.10538 0.51144
 N1548 N 0.50204 1.12212 0.51884
 C1549 C 0.48854 1.07539 0.50720
 N1550 N 0.50412 1.06829 0.49977
 N1551 N 0.50566 1.05059 0.49638
 C1552 C 0.49167 1.03930 0.50023
 N1553 N 0.47598 1.04648 0.50725
 N1554 N 0.47442 1.06418 0.51066
 C1555 C -0.00558 0.65290 1.04969
 N1556 N -0.02101 0.65968 1.05777
 N1557 N -0.02071 0.67525 1.06785
 C1558 C -0.00499 0.68470 1.07025
 N1559 N 0.01041 0.67796 1.06197
 N1560 N 0.01012 0.66235 1.05194
 C1561 C -0.00567 0.63517 1.03962
 N1562 N 0.01017 0.62751 1.03357
 N1563 N 0.01032 0.61097 1.02564
 C1564 C -0.00537 0.60148 1.02336
 N1565 N -0.02126 0.60923 1.02917
 N1566 N -0.02140 0.62576 1.03717
 C1567 C -0.00479 0.58264 1.01630
 N1568 N -0.02031 0.57294 1.01365
 N1569 N -0.01948 0.55539 1.00903
 C1570 C -0.00312 0.54687 1.00707
 N1571 N 0.01233 0.55672 1.00929
 N1572 N 0.01153 0.57423 1.01377
 C1573 C 0.51162 0.64551 -0.05888
 N1574 N 0.51279 0.64731 -0.07929
 N1575 N 0.51199 0.66357 -0.08807
 C1576 C 0.51001 0.67876 -0.07685
 N1577 N 0.50895 0.67699 -0.05635
 N1578 N 0.50970 0.66065 -0.04752
 C1579 C 0.51200 0.62730 -0.04969
 N1580 N 0.50933 0.62463 -0.02957
 N1581 N 0.50903 0.60790 -0.02179
 C1582 C 0.51145 0.59328 -0.03387
 N1583 N 0.51425 0.59602 -0.05390
 N1584 N 0.51452 0.61267 -0.06165
 C1585 C 0.51029 0.57465 -0.02601
 N1586 N 0.51190 0.56061 -0.03899
 N1587 N 0.51000 0.54367 -0.03258
 C1588 C 0.50651 0.54001 -0.01289
 N1589 N 0.50498 0.55404 0.00022
 N1590 N 0.50686 0.57108 -0.00623
 C1591 C 0.00894 1.14506 0.43941
 N1592 N 0.00804 1.14697 0.41892
 N1593 N 0.00774 1.16331 0.41032
 C1594 C 0.00837 1.17852 0.42179
 N1595 N 0.00936 1.17657 0.44238
 N1596 N 0.00961 1.16017 0.45102
 C1597 C 0.00890 1.12680 0.44846
 N1598 N 0.00843 1.12413 0.46888
 N1599 N 0.00791 1.10739 0.47663
 C1600 C 0.00789 1.09277 0.46421
 N1601 N 0.00847 1.09551 0.44387
 N1602 N 0.00896 1.11217 0.43615
 C1603 C 0.00671 1.07418 0.47215
 N1604 N 0.00640 1.06019 0.45895
 N1605 N 0.00464 1.04329 0.46554
 C1606 C 0.00318 1.03962 0.48561
 N1607 N 0.00355 1.05359 0.49893
 N1608 N 0.00530 1.07059 0.49231
 C1609 C 0.77923 0.66713 0.89501
 N1610 N 0.78148 0.67491 0.91352
 N1611 N 0.77766 0.66578 0.93036
 C1612 C 0.77124 0.64862 0.92928
 N1613 N 0.76914 0.64085 0.91075
 N1614 N 0.77309 0.64991 0.89395
 C1615 C 0.78185 0.67756 0.87631
 N1616 N 0.78089 0.66925 0.85800
 N1617 N 0.78131 0.67887 0.84087
 C1618 C 0.78264 0.69716 0.84138
 N1619 N 0.78391 0.70546 0.85970
 N1620 N 0.78360 0.69583 0.87686
 C1621 C 0.78026 0.70781 0.82257
 N1622 N 0.77718 0.72594 0.82328
 N1623 N 0.77214 0.73515 0.80652
 C1624 C 0.77006 0.72659 0.78843
 N1625 N 0.77374 0.70858 0.78766
 N1626 N 0.77871 0.69935 0.80439
 C1627 C 0.27544 0.16695 0.38694
 N1628 N 0.27921 0.17416 0.40549
 N1629 N 0.27553 0.16503 0.42236
 C1630 C 0.26776 0.14844 0.42131
 N1631 N 0.26414 0.14122 0.40274
 N1632 N 0.26794 0.15027 0.38590
 C1633 C 0.27798 0.17746 0.36829
 N1634 N 0.27551 0.16956 0.34989
 N1635 N 0.27589 0.17938 0.33290
 C1636 C 0.27869 0.19748 0.33366
 N1637 N 0.28147 0.20536 0.35205
 N1638 N 0.28119 0.19550 0.36907
 C1639 C 0.27634 0.20853 0.31515
 N1640 N 0.27497 0.22683 0.31627
 N1641 N 0.27000 0.23664 0.29993
 C1642 C 0.26627 0.22853 0.28185
 N1643 N 0.26821 0.21030 0.28065
 N1644 N 0.27312 0.20048 0.29697
 C1645 C 0.71869 0.32527 0.39384
 N1646 N 0.72291 0.31672 0.41171
 N1647 N 0.72723 0.32619 0.42829
 C1648 C 0.72759 0.34456 0.42763
 N1649 N 0.72318 0.35307 0.40975
 N1650 N 0.71885 0.34362 0.39318
 C1651 C 0.71561 0.31486 0.37517
 N1652 N 0.71276 0.32347 0.35705
 N1653 N 0.71202 0.31415 0.33982
 C1654 C 0.71405 0.29587 0.34006
 N1655 N 0.71649 0.28722 0.35821
 N1656 N 0.71722 0.29654 0.37545
 C1657 C 0.71640 0.28598 0.32104
 N1658 N 0.72122 0.26819 0.32153
 N1659 N 0.72665 0.25995 0.30482
 C1660 C 0.72742 0.26915 0.28697
 N1661 N 0.72194 0.28676 0.28634
 N1662 N 0.71652 0.29503 0.30305
 C1663 C 0.22024 0.83007 0.88967
 N1664 N 0.22073 0.84843 0.88960
 N1665 N 0.22576 0.85737 0.90632
 C1666 C 0.23067 0.84829 0.92369
 N1667 N 0.23001 0.82993 0.92376
 N1668 N 0.22491 0.82099 0.90708
 C1669 C 0.21643 0.82010 0.87086
 N1670 N 0.21616 0.80174 0.87110
 N1671 N 0.21496 0.79253 0.85382
 C1672 C 0.21398 0.80133 0.83567
 N1673 N 0.21382 0.81971 0.83544
 N1674 N 0.21497 0.82893 0.85274
 C1675 C 0.21614 0.79121 0.81679
 N1676 N 0.21886 0.80013 0.79909
 N1677 N 0.22435 0.79120 0.78285
 C1678 C 0.22727 0.77303 0.78366
 N1679 N 0.22389 0.76405 0.80116
 N1680 N 0.21842 0.77296 0.81741
 C1681 C 0.27591 0.80926 0.10056
 N1682 N 0.26158 0.80719 0.08728
 N1683 N 0.25876 0.81874 0.07189
 C1684 C 0.27017 0.83284 0.06906
 N1685 N 0.28473 0.83468 0.08220
 N1686 N 0.28749 0.82319 0.09773
 C1687 C 0.27773 0.79750 0.11857
 N1688 N 0.28921 0.80172 0.13440
 N1689 N 0.28906 0.79222 0.15168
 C1690 C 0.27751 0.77813 0.15368
 N1691 N 0.26639 0.77368 0.13766
 N1692 N 0.26649 0.78318 0.12045
 C1693 C 0.27494 0.76949 0.17349
 N1694 N 0.26154 0.75717 0.17543
 N1695 N 0.25683 0.75146 0.19369
 C1696 C 0.26534 0.75779 0.21075
 N1697 N 0.27924 0.76958 0.20880
 N1698 N 0.28394 0.77539 0.19050
 C1699 C 0.78246 0.32994 0.61411
 N1700 N 0.77285 0.34570 0.61487
 N1701 N 0.76838 0.35485 0.59795
 C1702 C 0.77342 0.34870 0.57952
 N1703 N 0.78336 0.33305 0.57885
 N1704 N 0.78766 0.32376 0.59579
 C1705 C 0.78564 0.31919 0.63271
 N1706 N 0.78959 0.30121 0.63184
 N1707 N 0.78999 0.29106 0.64867
 C1708 C 0.78664 0.29858 0.66696
 N1709 N 0.78320 0.31663 0.66784
 N1710 N 0.78266 0.32673 0.65104
 C1711 C 0.78395 0.28722 0.68494
 N1712 N 0.77996 0.29508 0.70283
 N1713 N 0.77423 0.28516 0.71825
 C1714 C 0.77226 0.26702 0.71642
 N1715 N 0.77680 0.25907 0.69872
 N1716 N 0.78257 0.26898 0.68327
 C1717 C 0.21551 0.17600 0.60178
 N1718 N 0.21595 0.15768 0.60339
 N1719 N 0.22037 0.14753 0.58761
 C1720 C 0.22459 0.15528 0.56962
 N1721 N 0.22394 0.17362 0.56800
 N1722 N 0.21953 0.18378 0.58378
 C1723 C 0.21239 0.18721 0.61969
 N1724 N 0.21388 0.20548 0.61853
 N1725 N 0.21325 0.21552 0.63521
 C1726 C 0.21101 0.20768 0.65365
 N1727 N 0.20907 0.18946 0.65474
 N1728 N 0.20972 0.17941 0.63805
 C1729 C 0.21368 0.21830 0.67224
 N1730 N 0.21357 0.21013 0.69075
 N1731 N 0.21944 0.21884 0.70731
 C1732 C 0.22568 0.23601 0.70597
 N1733 N 0.22507 0.24440 0.68756
 N1734 N 0.21916 0.23573 0.67102
 C1735 C 0.71284 0.67359 0.10788
 N1736 N 0.71450 0.65533 0.10944
 N1737 N 0.71945 0.64553 0.09360
 C1738 C 0.72304 0.65357 0.07555
 N1739 N 0.72109 0.67186 0.07398
 N1740 N 0.71614 0.68167 0.08983
 C1741 C 0.70936 0.68448 0.12594
 N1742 N 0.70929 0.70283 0.12483
 N1743 N 0.70853 0.71271 0.14163
 C1744 C 0.70777 0.70461 0.16014
 N1745 N 0.70737 0.68627 0.16119
 N1746 N 0.70811 0.67639 0.14440
 C1747 C 0.71052 0.71526 0.17869
 N1748 N 0.71328 0.70678 0.19690
 N1749 N 0.71941 0.71590 0.21303
 C1750 C 0.72296 0.73384 0.21162
 N1751 N 0.71952 0.74244 0.19360
 N1752 N 0.71341 0.73333 0.17745
 C1753 C 0.19362 0.60390 0.26151
 N1754 N 0.17524 0.60230 0.26213
 N1755 N 0.16756 0.58611 0.26160
 C1756 C 0.17792 0.57083 0.26046
 N1757 N 0.19637 0.57242 0.25991
 N1758 N 0.20409 0.58867 0.26037
 C1759 C 0.20168 0.62194 0.26193
 N1760 N 0.21983 0.62439 0.25949
 N1761 N 0.22673 0.64102 0.25937
 C1762 C 0.21568 0.65571 0.26177
 N1763 N 0.19761 0.65318 0.26433
 N1764 N 0.19074 0.63663 0.26439
 C1765 C 0.22269 0.67417 0.26098
 N1766 N 0.21104 0.68831 0.26342
 N1767 N 0.21683 0.70521 0.26194
 C1768 C 0.23446 0.70871 0.25798
 N1769 N 0.24622 0.69455 0.25566
 N1770 N 0.24043 0.67755 0.25713
 C1771 C 0.70154 0.09984 0.73835
 N1772 N 0.68345 0.09793 0.73407
 N1773 N 0.67536 0.08219 0.73715
 C1774 C 0.68499 0.06763 0.74458
 N1775 N 0.70319 0.06953 0.74866
 N1776 N 0.71130 0.08536 0.74571
 C1777 C 0.70998 0.11758 0.73586
 N1778 N 0.72712 0.12081 0.74331
 N1779 N 0.73409 0.13737 0.74224
 C1780 C 0.72420 0.15121 0.73356
 N1781 N 0.70719 0.14787 0.72586
 N1782 N 0.70021 0.13138 0.72701
 C1783 C 0.73093 0.16981 0.73398
 N1784 N 0.72057 0.18340 0.72558
 N1785 N 0.72555 0.20056 0.72769
 C1786 C 0.74105 0.20481 0.73828
 N1787 N 0.75165 0.19117 0.74633
 N1788 N 0.74668 0.17397 0.74422
 C1789 C 0.80318 0.10540 0.25732
 N1790 N 0.79315 0.09025 0.25992
 N1791 N 0.80068 0.07388 0.25761
 C1792 C 0.81842 0.07210 0.25241
 N1793 N 0.82836 0.08728 0.24989
 N1794 N 0.82092 0.10357 0.25237
 C1795 C 0.79525 0.12361 0.25930
 N1796 N 0.80644 0.13808 0.25987
 N1797 N 0.79962 0.15480 0.26064
 C1798 C 0.78132 0.15775 0.26073
 N1799 N 0.77004 0.14328 0.26025
 N1800 N 0.77689 0.12647 0.25961
 C1801 C 0.77424 0.17643 0.26051
 N1802 N 0.75619 0.18029 0.25732
 N1803 N 0.75032 0.19745 0.25592
 C1804 C 0.76228 0.21131 0.25772
 N1805 N 0.78023 0.20734 0.26111
 N1806 N 0.78610 0.19028 0.26245
 C1807 C 0.30249 0.60718 0.76431
 N1808 N 0.32055 0.60547 0.76076
 N1809 N 0.32808 0.58927 0.75791
 C1810 C 0.31790 0.57408 0.75868
 N1811 N 0.29984 0.57572 0.76255
 N1812 N 0.29223 0.59201 0.76519
 C1813 C 0.29440 0.62533 0.76621
 N1814 N 0.27607 0.62822 0.76431
 N1815 N 0.26917 0.64502 0.76444
 C1816 C 0.28037 0.65946 0.76661
 N1817 N 0.29863 0.65648 0.76881
 N1818 N 0.30551 0.63976 0.76854
 C1819 C 0.27333 0.67812 0.76537
 N1820 N 0.28495 0.69202 0.76856
 N1821 N 0.27926 0.70905 0.76599
 C1822 C 0.26175 0.71292 0.76009
 N1823 N 0.25001 0.69901 0.75708
 N1824 N 0.25570 0.68190 0.75970
 C1825 C 0.30073 0.39914 0.72740
 N1826 N 0.29044 0.41427 0.73028
 N1827 N 0.29822 0.43049 0.73124
 C1828 C 0.31660 0.43218 0.72952
 N1829 N 0.32673 0.41698 0.72652
 N1830 N 0.31898 0.40084 0.72544
 C1831 C 0.29268 0.38105 0.72710
 N1832 N 0.30330 0.36647 0.72291
 N1833 N 0.29659 0.34986 0.72350
 C1834 C 0.27899 0.34712 0.72838
 N1835 N 0.26825 0.36169 0.73247
 N1836 N 0.27498 0.37838 0.73182
 C1837 C 0.27221 0.32857 0.72990
 N1838 N 0.25514 0.32507 0.73626
 N1839 N 0.24962 0.30804 0.73842
 C1840 C 0.26095 0.29394 0.73427
 N1841 N 0.27791 0.29753 0.72780
 N1842 N 0.28344 0.31447 0.72565
 C1843 C 0.79828 0.89781 0.22163
 N1844 N 0.81519 0.89981 0.21420
 N1845 N 0.82341 0.91577 0.21493
 C1846 C 0.81502 0.93040 0.22304
 N1847 N 0.79796 0.92844 0.23020
 N1848 N 0.78975 0.91244 0.22955
 C1849 C 0.78995 0.87984 0.22216
 N1850 N 0.77421 0.87708 0.23201
 N1851 N 0.76741 0.86049 0.23360
 C1852 C 0.77609 0.84610 0.22535
 N1853 N 0.79171 0.84892 0.21533
 N1854 N 0.79853 0.86547 0.21379
 C1855 C 0.76939 0.82763 0.22810
 N1856 N 0.77837 0.81344 0.21988
 N1857 N 0.77307 0.79656 0.22326
 C1858 C 0.75863 0.79318 0.23503
 N1859 N 0.74948 0.80739 0.24307
 N1860 N 0.75477 0.82432 0.23968
 C1861 C 0.70626 0.89534 0.77225
 N1862 N 0.71009 0.90734 0.75737
 N1863 N 0.70204 0.92359 0.75663
 C1864 C 0.68982 0.92855 0.77074
 N1865 N 0.68626 0.91658 0.78584
 N1866 N 0.69427 0.90028 0.78655
 C1867 C 0.71407 0.87696 0.77198
 N1868 N 0.70869 0.86412 0.78529
 N1869 N 0.71480 0.84711 0.78396
 C1870 C 0.72652 0.84236 0.76930
 N1871 N 0.73208 0.85525 0.75619
 N1872 N 0.72595 0.87223 0.75749
 C1873 C 0.73222 0.82341 0.76676
 N1874 N 0.74348 0.81877 0.75165
 N1875 N 0.74768 0.80148 0.74836
 C1876 C 0.74059 0.78816 0.75987
 N1877 N 0.72979 0.79285 0.77541
 N1878 N 0.72558 0.81015 0.77872
 C1879 C 0.20471 0.39817 0.27391
 N1880 N 0.20803 0.41072 0.25941
 N1881 N 0.19912 0.42653 0.25903
 C1882 C 0.18653 0.43042 0.27310
 N1883 N 0.18343 0.41793 0.28779
 N1884 N 0.19233 0.40210 0.28817
 C1885 C 0.21318 0.38014 0.27309
 N1886 N 0.20843 0.36692 0.28625
 N1887 N 0.21481 0.35009 0.28427
 C1888 C 0.22617 0.34589 0.26908
 N1889 N 0.23117 0.35917 0.25614
 N1890 N 0.22478 0.37599 0.25810
 C1891 C 0.23169 0.32706 0.26563
 N1892 N 0.24216 0.32275 0.24970
 N1893 N 0.24580 0.30552 0.24544
 C1894 C 0.23888 0.29196 0.25675
 N1895 N 0.22897 0.29632 0.27312
 N1896 N 0.22533 0.31354 0.27740
 C1897 C 0.10493 0.25007 0.80326
 N1898 N 0.09318 0.26430 0.80045
 N1899 N 0.07790 0.26538 0.81090
 C1900 C 0.07378 0.25228 0.82456
 N1901 N 0.08554 0.23804 0.82721
 N1902 N 0.10079 0.23696 0.81681
 C1903 C 0.12220 0.24902 0.79249
 N1904 N 0.13426 0.23532 0.79667
 N1905 N 0.15029 0.23462 0.78772
 C1906 C 0.15486 0.24757 0.77415
 N1907 N 0.14274 0.26122 0.76979
 N1908 N 0.12669 0.26194 0.77880
 C1909 C 0.17312 0.24732 0.76545
 N1910 N 0.17794 0.26000 0.75167
 N1911 N 0.19494 0.26045 0.74504
 C1912 C 0.20775 0.24822 0.75190
 N1913 N 0.20284 0.23552 0.76557
 N1914 N 0.18586 0.23500 0.77214
 C1915 C 0.60384 0.74559 0.30880
 N1916 N 0.60305 0.74153 0.32885
 N1917 N 0.58729 0.74245 0.33829
 C1918 C 0.57162 0.74747 0.32811
 N1919 N 0.57238 0.75148 0.30796
 N1920 N 0.58820 0.75057 0.29848
 C1921 C 0.62154 0.74496 0.29889
 N1922 N 0.62311 0.74926 0.27892
 N1923 N 0.63944 0.74912 0.27047
 C1924 C 0.65475 0.74469 0.28170
 N1925 N 0.65310 0.74032 0.30159
 N1926 N 0.63684 0.74043 0.31000
 C1927 C 0.67302 0.74524 0.27313
 N1928 N 0.68790 0.74232 0.28552
 N1929 N 0.70463 0.74348 0.27843
 C1930 C 0.70721 0.74746 0.25861
 N1931 N 0.69233 0.75035 0.24610
 N1932 N 0.67551 0.74926 0.25323
 C1933 C 0.60128 0.26209 0.19156
 N1934 N 0.58671 0.25595 0.20171
 N1935 N 0.57037 0.25465 0.19231
 C1936 C 0.56800 0.25938 0.17239
 N1937 N 0.58260 0.26560 0.16238
 N1938 N 0.59887 0.26694 0.17175
 C1939 C 0.61959 0.26292 0.20133
 N1940 N 0.63374 0.26917 0.19063
 N1941 N 0.65057 0.26924 0.19881
 C1942 C 0.65396 0.26309 0.21803
 N1943 N 0.63979 0.25696 0.22887
 N1944 N 0.62289 0.25689 0.22066
 C1945 C 0.67288 0.26228 0.22619
 N1946 N 0.67705 0.25592 0.24522
 N1947 N 0.69443 0.25434 0.25180
 C1948 C 0.70823 0.25909 0.23960
 N1949 N 0.70397 0.26548 0.22066
 N1950 N 0.68668 0.26711 0.21412
 C1951 C 0.10191 0.76269 0.68851
 N1952 N 0.08714 0.75832 0.69939
 N1953 N 0.07069 0.75694 0.69027
 C1954 C 0.06840 0.75981 0.66992
 N1955 N 0.08321 0.76428 0.65916
 N1956 N 0.09960 0.76570 0.66825
 C1957 C 0.12029 0.76360 0.69807
 N1958 N 0.13471 0.76783 0.68660
 N1959 N 0.15156 0.76797 0.69473
 C1960 C 0.15469 0.76390 0.71466
 N1961 N 0.14027 0.75979 0.72624
 N1962 N 0.12335 0.75965 0.71808
 C1963 C 0.17357 0.76315 0.72296
 N1964 N 0.17744 0.75890 0.74275
 N1965 N 0.19474 0.75739 0.74963
 C1966 C 0.20874 0.76009 0.73695
 N1967 N 0.20479 0.76437 0.71723
 N1968 N 0.18757 0.76593 0.71039
 C1969 C 0.89783 0.73819 0.70066
 N1970 N 0.90256 0.72485 0.68773
 N1971 N 0.91776 0.72597 0.67726
 C1972 C 0.92889 0.74051 0.67922
 N1973 N 0.92419 0.75376 0.69237
 N1974 N 0.90897 0.75264 0.70286
 C1975 C 0.88042 0.73742 0.71116
 N1976 N 0.87504 0.75118 0.72326
 N1977 N 0.85871 0.75097 0.73163
 C1978 C 0.84717 0.73698 0.72823
 N1979 N 0.85266 0.72313 0.71634
 N1980 N 0.86897 0.72334 0.70798
 C1981 C 0.82848 0.73747 0.73578
 N1982 N 0.81647 0.72439 0.73039
 N1983 N 0.79904 0.72571 0.73538
 C1984 C 0.79292 0.74004 0.74607
 N1985 N 0.80503 0.75298 0.75178
 N1986 N 0.82248 0.75172 0.74675
 C1987 C 0.39492 0.23847 0.19700
 N1988 N 0.39928 0.22618 0.18268
 N1989 N 0.41497 0.22725 0.17312
 C1990 C 0.42696 0.24069 0.17742
 N1991 N 0.42263 0.25290 0.19190
 N1992 N 0.40693 0.25182 0.20151
 C1993 C 0.37705 0.23784 0.20657
 N1994 N 0.37239 0.25016 0.22078
 N1995 N 0.35576 0.25018 0.22846
 C1996 C 0.34318 0.23789 0.22219
 N1997 N 0.34792 0.22549 0.20813
 N1998 N 0.36454 0.22544 0.20050
 C1999 C 0.32433 0.23879 0.22922
 N2000 N 0.31130 0.22819 0.22055
 N2001 N 0.29391 0.23000 0.22551
 C2002 C 0.28883 0.24230 0.23949
 N2003 N 0.30190 0.25278 0.24835
 N2004 N 0.31933 0.25105 0.24333
 C2005 C 0.39804 0.75787 0.30081
 N2006 N 0.40577 0.77333 0.30784
 N2007 N 0.42170 0.77277 0.31824
 C2008 C 0.43040 0.75672 0.32217
 N2009 N 0.42268 0.74131 0.31499
 N2010 N 0.40685 0.74188 0.30447
 C2011 C 0.37990 0.75822 0.29054
 N2012 N 0.37323 0.74314 0.28142
 N2013 N 0.35630 0.74301 0.27340
 C2014 C 0.34536 0.75792 0.27432
 N2015 N 0.35208 0.77305 0.28328
 N2016 N 0.36906 0.77323 0.29117
 C2017 C 0.32611 0.75726 0.26730
 N2018 N 0.31415 0.77024 0.27305
 N2019 N 0.29642 0.76894 0.26831
 C2020 C 0.28995 0.75479 0.25731
 N2021 N 0.30195 0.74183 0.25144
 N2022 N 0.31970 0.74303 0.25635
 C2023 C 0.89706 0.25922 0.81213
 N2024 N 0.91227 0.25844 0.80088
 N2025 N 0.92886 0.25819 0.80990
 C2026 C 0.93085 0.25865 0.83049
 N2027 N 0.91558 0.25946 0.84162
 N2028 N 0.89906 0.25975 0.83265
 C2029 C 0.87861 0.25918 0.80264
 N2030 N 0.86385 0.26029 0.81450
 N2031 N 0.84702 0.25980 0.80636
 C2032 C 0.84423 0.25817 0.78600
 N2033 N 0.85898 0.25715 0.77403
 N2034 N 0.87588 0.25766 0.78221
 C2035 C 0.82547 0.25687 0.77754
 N2036 N 0.82193 0.25473 0.75732
 N2037 N 0.80480 0.25279 0.75018
 C2038 C 0.79064 0.25295 0.76301
 N2039 N 0.79425 0.25515 0.78316
 N2040 N 0.81129 0.25711 0.79027
 C2041 C 0.58092 0.97371 0.64583
 N2042 N 0.59833 0.97970 0.64521
 N2043 N 0.60800 0.98264 0.66228
 C2044 C 0.60072 0.97959 0.68067
 N2045 N 0.58336 0.97336 0.68129
 N2046 N 0.57361 0.97057 0.66419
 C2047 C 0.56998 0.97174 0.62693
 N2048 N 0.55152 0.97038 0.62724
 N2049 N 0.54155 0.97014 0.60996
 C2050 C 0.54970 0.97107 0.59176
 N2051 N 0.56816 0.97212 0.59148
 N2052 N 0.57811 0.97249 0.60873
 C2053 C 0.53879 0.97284 0.57275
 N2054 N 0.54716 0.97319 0.55469
 N2055 N 0.53772 0.97711 0.53760
 C2056 C 0.51958 0.98091 0.53787
 N2057 N 0.51111 0.98012 0.55590
 N2058 N 0.52053 0.97612 0.57302
 C2059 C 0.08410 0.47733 1.14525
 N2060 N 0.07829 0.46873 1.16209
 N2061 N 0.08631 0.47175 1.18020
 C2062 C 0.10028 0.48367 1.18225
 N2063 N 0.10599 0.49217 1.16525
 N2064 N 0.09813 0.48903 1.14718
 C2065 C 0.07491 0.47498 1.12535
 N2066 N 0.08262 0.48165 1.10847
 N2067 N 0.07374 0.48122 1.09056
 C2068 C 0.05676 0.47415 1.08884
 N2069 N 0.04912 0.46720 1.10567
 N2070 N 0.05808 0.46753 1.12362
 C2071 C 0.04620 0.47623 1.06965
 N2072 N 0.02801 0.47290 1.06861
 N2073 N 0.01800 0.47753 1.05208
 C2074 C 0.02583 0.48558 1.03599
 N2075 N 0.04407 0.48847 1.03690
 N2076 N 0.05407 0.48386 1.05337
 C2077 C -0.07305 0.02859 1.13775
 N2078 N -0.06512 0.02629 1.15650
 N2079 N -0.07507 0.02147 1.17220
 C2080 C -0.09332 0.01859 1.16975
 N2081 N -0.10117 0.02100 1.15093
 N2082 N -0.09126 0.02588 1.13527
 C2083 C -0.06207 0.03270 1.12007
 N2084 N -0.07029 0.03481 1.10144
 N2085 N -0.06039 0.03673 1.08499
 C2086 C -0.04188 0.03666 1.08653
 N2087 N -0.03363 0.03492 1.10522
 N2088 N -0.04355 0.03303 1.12170
 C2089 C -0.03116 0.03565 1.06809
 N2090 N -0.01280 0.03298 1.06937
 N2091 N -0.00359 0.02866 1.05292
 C2092 C -0.01239 0.02689 1.03458
 N2093 N -0.03065 0.03017 1.03327
 N2094 N -0.03985 0.03453 1.04966
 C2095 C 0.41883 0.52832 0.63244
 N2096 N 0.42717 0.53062 0.65093
 N2097 N 0.41857 0.52650 0.66786
 C2098 C 0.40138 0.51977 0.66693
 N2099 N 0.39306 0.51759 0.64840
 N2100 N 0.40161 0.52178 0.63151
 C2101 C 0.42861 0.53149 0.61366
 N2102 N 0.41990 0.52938 0.59536
 N2103 N 0.42907 0.53033 0.57827
 C2104 C 0.44729 0.53344 0.57882
 N2105 N 0.45595 0.53593 0.59711
 N2106 N 0.44677 0.53503 0.61422
 C2107 C 0.45773 0.53137 0.56030
 N2108 N 0.47627 0.53134 0.56121
 N2109 N 0.48575 0.52616 0.54528
 C2110 C 0.47705 0.52088 0.52783
 N2111 N 0.45853 0.52149 0.52675
 N2112 N 0.44905 0.52668 0.54264
 C2113 C 0.42141 0.46986 -0.14485
 N2114 N 0.40304 0.47242 -0.14480
 N2115 N 0.39374 0.47683 -0.16185
 C2116 C 0.40241 0.47891 -0.17962
 N2117 N 0.42078 0.47614 -0.17967
 N2118 N 0.43011 0.47175 -0.16261
 C2119 C 0.43180 0.46666 -0.12570
 N2120 N 0.45033 0.46601 -0.12533
 N2121 N 0.45979 0.46514 -0.10773
 C2122 C 0.45106 0.46482 -0.08985
 N2123 N 0.43253 0.46506 -0.09025
 N2124 N 0.42307 0.46593 -0.10785
 C2125 C 0.46137 0.46694 -0.07055
 N2126 N 0.45243 0.46919 -0.05300
 N2127 N 0.46138 0.47433 -0.03614
 C2128 C 0.47961 0.47738 -0.03615
 N2129 N 0.48864 0.47451 -0.05354
 N2130 N 0.47971 0.46936 -0.07041
 C2131 C -0.08255 0.96931 0.35573
 N2132 N -0.09929 0.97737 0.35556
 N2133 N -0.10791 0.98174 0.33808
 C2134 C -0.10017 0.97815 0.32007
 N2135 N -0.08351 0.96984 0.32024
 N2136 N -0.07481 0.96560 0.33775
 C2137 C -0.07253 0.96604 0.37509
 N2138 N -0.05432 0.96229 0.37557
 N2139 N -0.04490 0.96140 0.39321
 C2140 C -0.05338 0.96407 0.41100
 N2141 N -0.07165 0.96739 0.41050
 N2142 N -0.08104 0.96838 0.39289
 C2143 C -0.04277 0.96609 0.43012
 N2144 N -0.05148 0.96976 0.44751
 N2145 N -0.04213 0.97493 0.46408
 C2146 C -0.02372 0.97661 0.46395
 N2147 N -0.01494 0.97234 0.44674
 N2148 N -0.02428 0.96713 0.43014
 C2149 C 0.07262 0.52528 0.36943
 N2150 N 0.09113 0.52537 0.37025
 N2151 N 0.10056 0.52124 0.35394
 C2152 C 0.09188 0.51680 0.33617
 N2153 N 0.07332 0.51690 0.33532
 N2154 N 0.06387 0.52102 0.35165
 C2155 C 0.06237 0.52825 0.38791
 N2156 N 0.04392 0.52668 0.38763
 N2157 N 0.03486 0.52737 0.40482
 C2158 C 0.04390 0.52970 0.42291
 N2159 N 0.06230 0.53167 0.42314
 N2160 N 0.07136 0.53099 0.40595
 C2161 C 0.03440 0.52737 0.44201
 N2162 N 0.04398 0.52677 0.45998
 N2163 N 0.03603 0.52152 0.47690
 C2164 C 0.01822 0.51670 0.47650
 N2165 N 0.00850 0.51789 0.45864
 N2166 N 0.01643 0.52313 0.44171
 C2167 C 0.57882 0.02782 -0.13548
 N2168 N 0.59734 0.02724 -0.13415
 N2169 N 0.60699 0.02289 -0.15024
 C2170 C 0.59852 0.01888 -0.16827
 N2171 N 0.57998 0.01965 -0.16961
 N2172 N 0.57032 0.02399 -0.15352
 C2173 C 0.56820 0.03102 -0.11730
 N2174 N 0.54970 0.02997 -0.11820
 N2175 N 0.54019 0.03088 -0.10133
 C2176 C 0.54881 0.03294 -0.08295
 N2177 N 0.56727 0.03439 -0.08211
 N2178 N 0.57678 0.03348 -0.09898
 C2179 C 0.53872 0.03083 -0.06421
 N2180 N 0.54775 0.03042 -0.04590
 N2181 N 0.53930 0.02528 -0.02926
 C2182 C 0.52151 0.02038 -0.03028
 N2183 N 0.51232 0.02141 -0.04848
 N2184 N 0.52075 0.02655 -0.06513
 C2185 C 0.64666 0.54685 -0.01314
 N2186 N 0.64920 0.56305 -0.02234
 N2187 N 0.66522 0.57129 -0.02064
 C2188 C 0.67937 0.56364 -0.00972
 N2189 N 0.67689 0.54727 -0.00074
 N2190 N 0.66081 0.53905 -0.00237
 C2191 C 0.62854 0.53859 -0.01391
 N2192 N 0.62500 0.52366 -0.00263
 N2193 N 0.60816 0.51704 -0.00232
 C2194 C 0.59429 0.52511 -0.01332
 N2195 N 0.59790 0.53989 -0.02476
 N2196 N 0.61470 0.54652 -0.02503
 C2197 C 0.57546 0.51878 -0.01198
 N2198 N 0.56175 0.52739 -0.02263
 N2199 N 0.54448 0.52255 -0.02051
 C2200 C 0.54023 0.50897 -0.00762
 N2201 N 0.55397 0.50013 0.00281
 N2202 N 0.57128 0.50497 0.00070
 C2203 C 0.14309 1.04851 0.48228
 N2204 N 0.15767 1.04014 0.49167
 N2205 N 0.17379 1.04829 0.49300
 C2206 C 0.17589 1.06515 0.48510
 N2207 N 0.16130 1.07340 0.47557
 N2208 N 0.14523 1.06523 0.47416
 C2209 C 0.12501 1.04018 0.48181
 N2210 N 0.11073 1.04858 0.47190
 N2211 N 0.09403 1.04176 0.47246
 C2212 C 0.09097 1.02631 0.48301
 N2213 N 0.10527 1.01780 0.49279
 N2214 N 0.12201 1.02461 0.49218
 C2215 C 0.07230 1.01968 0.48476
 N2216 N 0.06871 1.00529 0.49686
 N2217 N 0.05157 1.00013 0.49944
 C2218 C 0.03741 1.00919 0.49003
 N2219 N 0.04105 1.02338 0.47770
 N2220 N 0.05816 1.02855 0.47513
 C2221 C 0.15404 -0.04791 1.02008
 N2222 N 0.15796 -0.06266 1.03186
 N2223 N 0.17400 -0.07121 1.03071
 C2224 C 0.18676 -0.06542 1.01768
 N2225 N 0.18285 -0.05046 1.00613
 N2226 N 0.16683 -0.04188 1.00730
 C2227 C 0.13587 -0.03936 1.02016
 N2228 N 0.13183 -0.02482 1.00805
 N2229 N 0.11499 -0.01782 1.00706
 C2230 C 0.10156 -0.02511 1.01812
 N2231 N 0.10563 -0.03954 1.03037
 N2232 N 0.12248 -0.04653 1.03139
 C2233 C 0.08273 -0.01823 1.01588
 N2234 N 0.06899 -0.02661 1.02541
 N2235 N 0.05175 -0.02108 1.02233
 C2236 C 0.04761 -0.00701 1.00959
 N2237 N 0.06140 0.00155 1.00034
 N2238 N 0.07864 -0.00398 1.00338
 C2239 C 0.64501 0.44553 0.51934
 N2240 N 0.64743 0.42765 0.52348
 N2241 N 0.66373 0.41978 0.52171
 C2242 C 0.67832 0.42944 0.51573
 N2243 N 0.67588 0.44743 0.51184
 N2244 N 0.65954 0.45531 0.51354
 C2245 C 0.62672 0.45375 0.52001
 N2246 N 0.62358 0.47108 0.51371
 N2247 N 0.60668 0.47800 0.51301
 C2248 C 0.59234 0.46784 0.51864
 N2249 N 0.59553 0.45061 0.52518
 N2250 N 0.61240 0.44369 0.52584
 C2251 C 0.57355 0.47480 0.51630
 N2252 N 0.55933 0.46415 0.52106
 N2253 N 0.54221 0.46978 0.51741
 C2254 C 0.53865 0.48625 0.50888
 N2255 N 0.55288 0.49702 0.50440
 N2256 N 0.57003 0.49140 0.50804
 C2257 C -0.14774 0.45053 0.49346
 N2258 N -0.15295 0.43935 0.47814
 N2259 N -0.16933 0.43168 0.47794
 C2260 C -0.18112 0.43489 0.49306
 N2261 N -0.17592 0.44628 0.50822
 N2262 N -0.15957 0.45394 0.50843
 C2263 C -0.12926 0.45799 0.49454
 N2264 N -0.12383 0.46828 0.51057
 N2265 N -0.10675 0.47418 0.51226
 C2266 C -0.09446 0.46999 0.49799
 N2267 N -0.09992 0.45983 0.48186
 N2268 N -0.11701 0.45392 0.48017
 C2269 C -0.07539 0.47564 0.50051
 N2270 N -0.06293 0.47111 0.48655
 N2271 N -0.04546 0.47551 0.48936
 C2272 C -0.03976 0.48441 0.50632
 N2273 N -0.05232 0.48932 0.52002
 N2274 N -0.06979 0.48494 0.51722
 C2275 C 0.35589 -0.04923 -0.00856
 N2276 N 0.34437 -0.04593 0.00675
 N2277 N 0.32838 -0.05427 0.00739
 C2278 C 0.32327 -0.06623 -0.00723
 N2279 N 0.33477 -0.06937 -0.02264
 N2280 N 0.35076 -0.06104 -0.02329
 C2281 C 0.37398 -0.04091 -0.00857
 N2282 N 0.38593 -0.04499 -0.02324
 N2283 N 0.40274 -0.03830 -0.02256
 C2284 C 0.40821 -0.02728 -0.00718
 N2285 N 0.39620 -0.02307 0.00739
 N2286 N 0.37940 -0.02975 0.00670
 C2287 C 0.42711 -0.02094 -0.00560
 N2288 N 0.43276 -0.01070 0.01036
 N2289 N 0.45018 -0.00596 0.01256
 C2290 C 0.46264 -0.01142 -0.00101
 N2291 N 0.45687 -0.02122 -0.01728
 N2292 N 0.43945 -0.02597 -0.01949
 C2293 C 0.35008 1.04532 0.51481
 N2294 N 0.34551 1.05782 0.52884
 N2295 N 0.32917 1.06598 0.52783
 C2296 C 0.31682 1.06199 0.51274
 N2297 N 0.32139 1.04932 0.49889
 N2298 N 0.33768 1.04114 0.49990
 C2299 C 0.36849 1.03726 0.51485
 N2300 N 0.37306 1.02542 0.50015
 N2301 N 0.39006 1.01898 0.49924
 C2302 C 0.40313 1.02414 0.51299
 N2303 N 0.39852 1.03583 0.52785
 N2304 N 0.38150 1.04229 0.52876
 C2305 C 0.42209 1.01797 0.51101
 N2306 N 0.43540 1.02343 0.52432
 N2307 N 0.45276 1.01864 0.52172
 C2308 C 0.45746 1.00843 0.50561
 N2309 N 0.44407 1.00258 0.49264
 N2310 N 0.42672 1.00733 0.49523
 C2311 C -0.14570 0.55042 1.02800
 N2312 N -0.15005 0.56512 1.03921
 N2313 N -0.16672 0.57255 1.03760
 C2314 C -0.17962 0.56563 1.02466
 N2315 N -0.17526 0.55080 1.01367
 N2316 N -0.15866 0.54333 1.01533
 C2317 C -0.12701 0.54302 1.02832
 N2318 N -0.12305 0.52831 1.01700
 N2319 N -0.10592 0.52233 1.01579
 C2320 C -0.09208 0.53084 1.02583
 N2321 N -0.09602 0.54545 1.03738
 N2322 N -0.11320 0.55143 1.03861
 C2323 C -0.07313 0.52502 1.02284
 N2324 N -0.05885 0.53399 1.03155
 N2325 N -0.04172 0.52942 1.02734
 C2326 C -0.03827 0.51589 1.01410
 N2327 N -0.05256 0.50661 1.00594
 N2328 N -0.06964 0.51113 1.01015
 C2329 C 0.00733 0.64379 0.56283
 N2330 N -0.00114 0.65763 0.55246
 N2331 N -0.00273 0.67393 0.56089
 C2332 C 0.00407 0.67700 0.58001
 N2333 N 0.01263 0.66313 0.59022
 N2334 N 0.01422 0.64689 0.58182
 C2335 C 0.00855 0.62549 0.55426
 N2336 N 0.01629 0.61188 0.56560
 N2337 N 0.01681 0.59505 0.55857
 C2338 C 0.00967 0.59114 0.53988
 N2339 N 0.00204 0.60477 0.52839
 N2340 N 0.00149 0.62166 0.53546
 C2341 C 0.00943 0.57222 0.53305
 N2342 N 0.00298 0.56761 0.51423
 N2343 N 0.00202 0.55024 0.50884
 C2344 C 0.00749 0.53691 0.52208
 N2345 N 0.01389 0.54160 0.54083
 N2346 N 0.01494 0.55888 0.54617
 C2347 C 0.50893 0.14588 0.06016
 N2348 N 0.50020 0.15986 0.05030
 N2349 N 0.49832 0.17586 0.05932
 C2350 C 0.50504 0.17849 0.07855
 N2351 N 0.51384 0.16449 0.08827
 N2352 N 0.51574 0.14854 0.07928
 C2353 C 0.51052 0.12788 0.05089
 N2354 N 0.51867 0.11412 0.06162
 N2355 N 0.51952 0.09754 0.05393
 C2356 C 0.51231 0.09404 0.03516
 N2357 N 0.50427 0.10783 0.02428
 N2358 N 0.50339 0.12447 0.03201
 C2359 C 0.51234 0.07533 0.02765
 N2360 N 0.50558 0.07113 0.00882
 N2361 N 0.50471 0.05390 0.00289
 C2362 C 0.51059 0.04029 0.01556
 N2363 N 0.51732 0.04458 0.03431
 N2364 N 0.51828 0.06173 0.04019
 C2365 C -0.00170 0.15204 0.94254
 N2366 N -0.00678 0.15419 0.92269
 N2367 N -0.00581 0.17027 0.91364
 C2368 C 0.00027 0.18493 0.92401
 N2369 N 0.00526 0.18283 0.94397
 N2370 N 0.00433 0.16667 0.95307
 C2371 C -0.00232 0.13394 0.95192
 N2372 N 0.00354 0.13083 0.97144
 N2373 N 0.00351 0.11411 0.97929
 C2374 C -0.00240 0.09995 0.96788
 N2375 N -0.00836 0.10315 0.94847
 N2376 N -0.00833 0.11978 0.94066
 C2377 C -0.00169 0.08124 0.97568
 N2378 N -0.00627 0.06752 0.96303
 N2379 N -0.00492 0.05041 0.96931
 C2380 C 0.00094 0.04628 0.98854
 N2381 N 0.00547 0.06000 1.00132
 N2382 N 0.00417 0.07720 0.99499
 C2383 C 0.49590 0.64492 0.43737
 N2384 N 0.49683 0.64685 0.41695
 N2385 N 0.49819 0.66316 0.40853
 C2386 C 0.49865 0.67826 0.42013
 N2387 N 0.49768 0.67634 0.44063
 N2388 N 0.49637 0.65997 0.44910
 C2389 C 0.49450 0.62670 0.44623
 N2390 N 0.49489 0.62387 0.46666
 N2391 N 0.49402 0.60712 0.47427
 C2392 C 0.49267 0.59265 0.46170
 N2393 N 0.49219 0.59555 0.44134
 N2394 N 0.49309 0.61223 0.43377
 C2395 C 0.49241 0.57398 0.46953
 N2396 N 0.49139 0.56010 0.45623
 N2397 N 0.49202 0.54305 0.46277
 C2398 C 0.49362 0.53915 0.48289
 N2399 N 0.49454 0.55302 0.49632
 N2400 N 0.49392 0.57017 0.48974
 C2401 C 0.50677 0.84917 0.45450
 N2402 N 0.49132 0.83920 0.45370
 N2403 N 0.49047 0.82414 0.44268
 C2404 C 0.50501 0.81850 0.43196
 N2405 N 0.52049 0.82846 0.43295
 N2406 N 0.52135 0.84348 0.44397
 C2407 C 0.50738 0.86646 0.46544
 N2408 N 0.52269 0.87664 0.46546
 N2409 N 0.52286 0.89298 0.47389
 C2410 C 0.50774 0.89976 0.48265
 N2411 N 0.49251 0.88946 0.48291
 N2412 N 0.49234 0.87311 0.47448
 C2413 C 0.50727 0.91859 0.48973
 N2414 N 0.49154 0.92601 0.49640
 N2415 N 0.49041 0.94364 0.50032
 C2416 C 0.50496 0.95456 0.49776
 N2417 N 0.52081 0.94704 0.49160
 N2418 N 0.52196 0.92940 0.48767
 C2419 C 0.00987 0.35704 0.95068
 N2420 N 0.02553 0.34739 0.94813
 N2421 N 0.02529 0.33199 0.93762
 C2422 C 0.00940 0.32575 0.92919
 N2423 N -0.00620 0.33541 0.93192
 N2424 N -0.00597 0.35069 0.94246
 C2425 C 0.00982 0.37452 0.96130
 N2426 N -0.00626 0.38331 0.96399
 N2427 N -0.00665 0.39965 0.97231
 C2428 C 0.00904 0.40790 0.97830
 N2429 N 0.02520 0.39906 0.97585
 N2430 N 0.02558 0.38263 0.96751
 C2431 C 0.00823 0.42664 0.98572
 N2432 N 0.02356 0.43585 0.99115
 N2433 N 0.02252 0.45334 0.99605
 C2434 C 0.00617 0.46225 0.99556
 N2435 N -0.00911 0.45286 0.99058
 N2436 N -0.00811 0.43544 0.98579
 C2437 C 0.48348 0.35280 0.05524
 N2438 N 0.47377 0.34974 0.07210
 N2439 N 0.47420 0.33356 0.08113
 C2440 C 0.48442 0.31978 0.07376
 N2441 N 0.49405 0.32283 0.05678
 N2442 N 0.49356 0.33902 0.04767
 C2443 C 0.48373 0.37103 0.04613
 N2444 N 0.49230 0.37423 0.02849
 N2445 N 0.49312 0.39099 0.02090
 C2446 C 0.48550 0.40515 0.03076
 N2447 N 0.47688 0.40189 0.04832
 N2448 N 0.47596 0.38517 0.05582
 C2449 C 0.48724 0.42385 0.02335
 N2450 N 0.48290 0.43783 0.03558
 N2451 N 0.48507 0.45485 0.02952
 C2452 C 0.49144 0.45863 0.01087
 N2453 N 0.49580 0.44464 -0.00144
 N2454 N 0.49375 0.42755 0.00470
 C2455 C -0.01765 0.85214 0.55457
 N2456 N -0.02717 0.84902 0.57154
 N2457 N -0.02676 0.83277 0.58042
 C2458 C -0.01674 0.81897 0.57276
 N2459 N -0.00729 0.82209 0.55567
 N2460 N -0.00777 0.83834 0.54671
 C2461 C -0.01737 0.87044 0.54562
 N2462 N -0.00935 0.87366 0.52765
 N2463 N -0.00854 0.89045 0.52017
 C2464 C -0.01561 0.90464 0.53048
 N2465 N -0.02368 0.90137 0.54838
 N2466 N -0.02460 0.88461 0.55576
 C2467 C -0.01392 0.92336 0.52310
 N2468 N -0.01755 0.93732 0.53566
 N2469 N -0.01552 0.95435 0.52955
 C2470 C -0.01003 0.95815 0.51053
 N2471 N -0.00638 0.94419 0.49790
 N2472 N -0.00826 0.92709 0.50409
 C2473 C 0.22018 0.33264 0.10333
 N2474 N 0.22755 0.34938 0.10392
 N2475 N 0.23157 0.35798 0.08685
 C2476 C 0.22832 0.35022 0.06849
 N2477 N 0.22068 0.33355 0.06788
 N2478 N 0.21678 0.32488 0.08499
 C2479 C 0.21736 0.32268 0.12230
 N2480 N 0.21383 0.30468 0.12211
 N2481 N 0.21329 0.29531 0.13944
 C2482 C 0.21614 0.30363 0.15757
 N2483 N 0.21927 0.32169 0.15774
 N2484 N 0.21989 0.33103 0.14043
 C2485 C 0.21825 0.29303 0.17645
 N2486 N 0.22213 0.30146 0.19427
 N2487 N 0.22686 0.29190 0.21086
 C2488 C 0.22791 0.27359 0.21030
 N2489 N 0.22351 0.26514 0.19260
 N2490 N 0.21875 0.27467 0.17598
 C2491 C 0.72231 0.82564 0.60647
 N2492 N 0.72849 0.84285 0.60722
 N2493 N 0.73234 0.85171 0.59027
 C2494 C 0.73011 0.84374 0.57186
 N2495 N 0.72365 0.82658 0.57108
 N2496 N 0.71992 0.81765 0.58808
 C2497 C 0.71970 0.81551 0.62539
 N2498 N 0.71768 0.79727 0.62524
 N2499 N 0.71737 0.78794 0.64261
 C2500 C 0.71893 0.79653 0.66074
 N2501 N 0.72054 0.81480 0.66085
 N2502 N 0.72095 0.82411 0.64351
 C2503 C 0.72128 0.78620 0.67978
 N2504 N 0.72346 0.79499 0.69769
 N2505 N 0.72836 0.78596 0.71459
 C2506 C 0.73132 0.76782 0.71425
 N2507 N 0.72863 0.75895 0.69643
 N2508 N 0.72368 0.76796 0.67951
 C2509 C 0.27981 0.67340 0.61305
 N2510 N 0.27891 0.65509 0.61418
 N2511 N 0.27417 0.64547 0.59785
 C2512 C 0.27004 0.65380 0.57980
 N2513 N 0.27112 0.67212 0.57869
 N2514 N 0.27588 0.68173 0.59500
 C2515 C 0.28342 0.68411 0.63138
 N2516 N 0.28335 0.70247 0.63035
 N2517 N 0.28451 0.71228 0.64722
 C2518 C 0.28582 0.70409 0.66572
 N2519 N 0.28631 0.68573 0.66672
 N2520 N 0.28518 0.67592 0.64985
 C2521 C 0.28373 0.71474 0.68423
 N2522 N 0.28153 0.70628 0.70231
 N2523 N 0.27615 0.71555 0.71835
 C2524 C 0.27286 0.73364 0.71699
 N2525 N 0.27571 0.74220 0.69908
 N2526 N 0.28105 0.73293 0.68301
 C2527 C 0.77931 0.17841 0.10924
 N2528 N 0.77886 0.16010 0.11037
 N2529 N 0.77451 0.15036 0.09405
 C2530 C 0.77038 0.15853 0.07592
 N2531 N 0.77102 0.17689 0.07475
 N2532 N 0.77534 0.18665 0.09112
 C2533 C 0.78257 0.18904 0.12772
 N2534 N 0.78105 0.20737 0.12730
 N2535 N 0.78203 0.21679 0.14448
 C2536 C 0.78462 0.20823 0.16267
 N2537 N 0.78654 0.18994 0.16302
 N2538 N 0.78557 0.18053 0.14586
 C2539 C 0.78257 0.21813 0.18172
 N2540 N 0.78206 0.20896 0.19960
 N2541 N 0.77690 0.21726 0.21638
 C2542 C 0.77216 0.23506 0.21599
 N2543 N 0.77329 0.24438 0.19824
 N2544 N 0.77840 0.23608 0.18142
 C2545 C 0.71913 0.16598 0.88713
 N2546 N 0.72763 0.14957 0.88736
 N2547 N 0.73224 0.14138 0.90487
 C2548 C 0.72851 0.14926 0.92285
 N2549 N 0.71974 0.16558 0.92261
 N2550 N 0.71523 0.17385 0.90507
 C2551 C 0.71579 0.17562 0.86780
 N2552 N 0.71138 0.19353 0.86742
 N2553 N 0.71063 0.20273 0.84993
 C2554 C 0.71414 0.19430 0.83218
 N2555 N 0.71807 0.17631 0.83254
 N2556 N 0.71890 0.16715 0.85001
 C2557 C 0.71651 0.20480 0.81348
 N2558 N 0.72168 0.19628 0.79638
 N2559 N 0.72715 0.20575 0.78049
 C2560 C 0.72762 0.22408 0.78102
 N2561 N 0.72187 0.23263 0.79789
 N2562 N 0.71639 0.22317 0.81382
 C2563 C 0.22279 0.68531 0.40292
 N2564 N 0.23663 0.68828 0.41662
 N2565 N 0.24021 0.67657 0.43170
 C2566 C 0.23009 0.66144 0.43372
 N2567 N 0.21607 0.65859 0.42014
 N2568 N 0.21255 0.67026 0.40495
 C2569 C 0.22012 0.69748 0.38535
 N2570 N 0.20883 0.69300 0.36946
 N2571 N 0.20818 0.70305 0.35255
 C2572 C 0.21871 0.71797 0.35100
 N2573 N 0.22963 0.72265 0.36710
 N2574 N 0.23032 0.71260 0.38394
 C2575 C 0.22057 0.72728 0.33145
 N2576 N 0.23332 0.74028 0.32966
 N2577 N 0.23761 0.74655 0.31147
 C2578 C 0.22929 0.74011 0.29434
 N2579 N 0.21597 0.72766 0.29619
 N2580 N 0.21171 0.72131 0.31440
 C2581 C 0.78312 0.82661 0.38618
 N2582 N 0.78098 0.84487 0.38609
 N2583 N 0.77638 0.85354 0.40286
 C2584 C 0.77363 0.84430 0.42038
 N2585 N 0.77599 0.82603 0.42050
 N2586 N 0.78061 0.81735 0.40372
 C2587 C 0.78630 0.81697 0.36718
 N2588 N 0.78724 0.79862 0.36692
 N2589 N 0.78785 0.78981 0.34937
 C2590 C 0.78756 0.79902 0.33145
 N2591 N 0.78707 0.81738 0.33176
 N2592 N 0.78650 0.82620 0.34930
 C2593 C 0.78475 0.78936 0.31222
 N2594 N 0.78053 0.79871 0.29485
 N2595 N 0.77444 0.79014 0.27831
 C2596 C 0.77245 0.77190 0.27844
 N2597 N 0.77734 0.76251 0.29559
 N2598 N 0.78338 0.77107 0.31216
 C2599 C 0.28191 0.32667 0.88463
 N2600 N 0.28101 0.34501 0.88409
 N2601 N 0.27650 0.35428 0.90048
 C2602 C 0.27264 0.34561 0.91805
 N2603 N 0.27376 0.32724 0.91862
 N2604 N 0.27827 0.31794 0.90222
 C2605 C 0.28508 0.31648 0.86599
 N2606 N 0.28461 0.29812 0.86604
 N2607 N 0.28531 0.28899 0.84871
 C2608 C 0.28654 0.29788 0.83070
 N2609 N 0.28744 0.31622 0.83072
 N2610 N 0.28676 0.32534 0.84804
 C2611 C 0.28404 0.28814 0.81150
 N2612 N 0.28173 0.29746 0.79376
 N2613 N 0.27608 0.28910 0.77690
 C2614 C 0.27263 0.27110 0.77709
 N2615 N 0.27556 0.26168 0.79468
 N2616 N 0.28117 0.27003 0.81156
 C2617 C 0.79491 0.39207 0.76903
 N2618 N 0.81183 0.39487 0.77726
 N2619 N 0.81968 0.41093 0.77562
 C2620 C 0.81093 0.42486 0.76571
 N2621 N 0.79387 0.42211 0.75770
 N2622 N 0.78602 0.40600 0.75928
 C2623 C 0.78700 0.37394 0.76958
 N2624 N 0.77106 0.37035 0.75938
 N2625 N 0.76470 0.35354 0.75867
 C2626 C 0.77403 0.33974 0.76816
 N2627 N 0.78981 0.34339 0.77857
 N2628 N 0.79619 0.36017 0.77925
 C2629 C 0.76795 0.32099 0.76602
 N2630 N 0.77793 0.30726 0.77474
 N2631 N 0.77335 0.29012 0.77152
 C2632 C 0.75865 0.28605 0.75945
 N2633 N 0.74848 0.29980 0.75099
 N2634 N 0.75306 0.31696 0.75421
 C2635 C 0.29853 0.89518 0.24342
 N2636 N 0.28777 0.91009 0.24545
 N2637 N 0.29504 0.92655 0.24560
 C2638 C 0.31336 0.92875 0.24381
 N2639 N 0.32398 0.91368 0.24187
 N2640 N 0.31675 0.89729 0.24165
 C2641 C 0.29093 0.87694 0.24320
 N2642 N 0.30201 0.86254 0.23971
 N2643 N 0.29553 0.84583 0.23983
 C2644 C 0.27771 0.84285 0.24349
 N2645 N 0.26653 0.85724 0.24693
 N2646 N 0.27303 0.87402 0.24675
 C2647 C 0.27107 0.82425 0.24427
 N2648 N 0.25369 0.82055 0.24934
 N2649 N 0.24819 0.80347 0.25076
 C2650 C 0.25987 0.78951 0.24716
 N2651 N 0.27714 0.79331 0.24194
 N2652 N 0.28266 0.81031 0.24053
 C2653 C 0.20166 0.90099 0.73177
 N2654 N 0.20899 0.91370 0.74424
 N2655 N 0.20124 0.93004 0.74551
 C2656 C 0.18586 0.93432 0.73433
 N2657 N 0.17868 0.92162 0.72168
 N2658 N 0.18641 0.90527 0.72043
 C2659 C 0.20945 0.88260 0.73148
 N2660 N 0.20114 0.86942 0.72044
 N2661 N 0.20753 0.85246 0.72122
 C2662 C 0.22247 0.84808 0.73303
 N2663 N 0.23089 0.86130 0.74390
 N2664 N 0.22449 0.87824 0.74315
 C2665 C 0.22879 0.82921 0.73499
 N2666 N 0.24348 0.82484 0.74718
 N2667 N 0.24856 0.80761 0.74998
 C2668 C 0.23911 0.79411 0.74075
 N2669 N 0.22457 0.79851 0.72833
 N2670 N 0.21950 0.81574 0.72550
 C2671 C 0.70150 0.40045 0.23893
 N2672 N 0.70672 0.41219 0.25369
 N2673 N 0.69898 0.42855 0.25466
 C2674 C 0.68576 0.43385 0.24088
 N2675 N 0.68071 0.42214 0.22597
 N2676 N 0.68841 0.40575 0.22502
 C2677 C 0.70916 0.38201 0.23872
 N2678 N 0.70256 0.36961 0.22535
 N2679 N 0.70880 0.35260 0.22595
 C2680 C 0.72187 0.34738 0.23992
 N2681 N 0.72858 0.35982 0.25316
 N2682 N 0.72232 0.37682 0.25259
 C2683 C 0.72806 0.32844 0.24135
 N2684 N 0.74115 0.32331 0.25532
 N2685 N 0.74621 0.30601 0.25728
 C2686 C 0.73829 0.29315 0.24542
 N2687 N 0.72537 0.29832 0.23127
 N2688 N 0.72032 0.31564 0.22928
 C2689 C 0.69913 0.60727 0.26780
 N2690 N 0.70786 0.59283 0.25970
 N2691 N 0.70004 0.57664 0.25926
 C2692 C 0.68318 0.57428 0.26681
 N2693 N 0.67459 0.58872 0.27506
 N2694 N 0.68241 0.60488 0.27558
 C2695 C 0.70707 0.62541 0.26720
 N2696 N 0.69824 0.63960 0.27563
 N2697 N 0.70473 0.65628 0.27413
 C2698 C 0.72028 0.65942 0.26409
 N2699 N 0.72922 0.64521 0.25578
 N2700 N 0.72273 0.62849 0.25733
 C2701 C 0.72669 0.67801 0.26144
 N2702 N 0.74134 0.68155 0.25002
 N2703 N 0.74643 0.69856 0.24676
 C2704 C 0.73705 0.71262 0.25479
 N2705 N 0.72256 0.70902 0.26639
 N2706 N 0.71745 0.69205 0.26964
 C2707 C 0.20587 0.10555 0.76206
 N2708 N 0.21032 0.09303 0.74802
 N2709 N 0.20263 0.07680 0.74801
 C2710 C 0.19017 0.07243 0.76203
 N2711 N 0.18594 0.08491 0.77624
 N2712 N 0.19365 0.10115 0.77627
 C2713 C 0.21324 0.12391 0.76106
 N2714 N 0.20829 0.13665 0.77466
 N2715 N 0.21403 0.15361 0.77296
 C2716 C 0.22489 0.15847 0.75757
 N2717 N 0.22996 0.14570 0.74408
 N2718 N 0.22424 0.12873 0.74579
 C2719 C 0.23032 0.17737 0.75497
 N2720 N 0.24001 0.18243 0.73871
 N2721 N 0.24415 0.19973 0.73578
 C2722 C 0.23862 0.21265 0.74887
 N2723 N 0.22933 0.20750 0.76540
 N2724 N 0.22515 0.19021 0.76834
 C2725 C 0.28411 0.10193 0.22239
 N2726 N 0.29683 0.09707 0.20886
 N2727 N 0.30491 0.08084 0.21006
 C2728 C 0.30063 0.06886 0.22486
 N2729 N 0.28767 0.07366 0.23817
 N2730 N 0.27956 0.08988 0.23695
 C2731 C 0.27665 0.12043 0.22246
 N2732 N 0.26454 0.12545 0.23659
 N2733 N 0.25909 0.14264 0.23797
 C2734 C 0.26557 0.15543 0.22529
 N2735 N 0.27746 0.15037 0.21095
 N2736 N 0.28291 0.13317 0.20955
 C2737 C 0.26092 0.17457 0.22818
 N2738 N 0.26866 0.18762 0.21681
 N2739 N 0.26558 0.20505 0.22062
 C2740 C 0.25486 0.21008 0.23607
 N2741 N 0.24667 0.19700 0.24698
 N2742 N 0.24973 0.17958 0.24321
 C2743 C 0.79170 0.59808 0.73134
 N2744 N 0.78646 0.58597 0.74550
 N2745 N 0.79408 0.56954 0.74666
 C2746 C 0.80724 0.56453 0.73370
 N2747 N 0.81227 0.57658 0.71930
 N2748 N 0.80467 0.59306 0.71815
 C2749 C 0.78442 0.61668 0.73139
 N2750 N 0.79071 0.62941 0.71848
 N2751 N 0.78508 0.64658 0.71969
 C2752 C 0.77299 0.65163 0.73385
 N2753 N 0.76655 0.63885 0.74657
 N2754 N 0.77216 0.62171 0.74536
 C2755 C 0.76783 0.67072 0.73634
 N2756 N 0.75673 0.67572 0.75146
 N2757 N 0.75300 0.69312 0.75468
 C2758 C 0.76040 0.70621 0.74308
 N2759 N 0.77102 0.70117 0.72754
 N2760 N 0.77479 0.68376 0.72431
 C2761 C 0.89287 0.76100 0.18419
 N2762 N 0.90828 0.75671 0.19528
 N2763 N 0.92442 0.75585 0.18647
 C2764 C 0.92583 0.75922 0.16622
 N2765 N 0.91031 0.76358 0.15530
 N2766 N 0.89422 0.76444 0.16406
 C2767 C 0.87485 0.76150 0.19342
 N2768 N 0.85973 0.76520 0.18164
 N2769 N 0.84324 0.76517 0.18953
 C2770 C 0.84119 0.76148 0.20952
 N2771 N 0.85632 0.75788 0.22141
 N2772 N 0.87287 0.75789 0.21349
 C2773 C 0.82273 0.76079 0.21763
 N2774 N 0.81997 0.75755 0.23763
 N2775 N 0.80305 0.75636 0.24445
 C2776 C 0.78834 0.75838 0.23150
 N2777 N 0.79119 0.76159 0.21156
 N2778 N 0.80802 0.76284 0.20478
 C2779 C 0.39470 0.25617 0.68227
 N2780 N 0.40944 0.24826 0.69189
 N2781 N 0.42520 0.24644 0.68244
 C2782 C 0.42680 0.25243 0.66301
 N2783 N 0.41204 0.26039 0.65352
 N2784 N 0.39633 0.26222 0.66294
 C2785 C 0.37699 0.25777 0.69208
 N2786 N 0.36250 0.26523 0.68164
 N2787 N 0.34617 0.26616 0.68985
 C2788 C 0.34365 0.25972 0.70888
 N2789 N 0.35817 0.25237 0.71948
 N2790 N 0.37457 0.25141 0.71121
 C2791 C 0.32518 0.25993 0.71702
 N2792 N 0.32188 0.25400 0.73613
 N2793 N 0.30482 0.25342 0.74268
 C2794 C 0.29050 0.25878 0.73034
 N2795 N 0.29390 0.26467 0.71130
 N2796 N 0.31087 0.26533 0.70482
 C2797 C 0.39861 0.74329 0.81128
 N2798 N 0.41334 0.74836 0.80069
 N2799 N 0.42981 0.74930 0.80986
 C2800 C 0.43215 0.74526 0.82997
 N2801 N 0.41738 0.74011 0.84041
 N2802 N 0.40098 0.73915 0.83128
 C2803 C 0.38018 0.74282 0.80178
 N2804 N 0.36582 0.73827 0.81318
 N2805 N 0.34892 0.73846 0.80519
 C2806 C 0.34567 0.74317 0.78546
 N2807 N 0.36004 0.74760 0.77393
 N2808 N 0.37701 0.74744 0.78196
 C2809 C 0.32675 0.74413 0.77734
 N2810 N 0.32277 0.74834 0.75756
 N2811 N 0.30544 0.74981 0.75079
 C2812 C 0.29151 0.74713 0.76358
 N2813 N 0.29557 0.74293 0.78330
 N2814 N 0.31282 0.74139 0.79002
 C2815 C 0.89867 0.24275 0.31091
 N2816 N 0.91314 0.24941 0.30098
 N2817 N 0.92949 0.25056 0.31039
 C2818 C 0.93197 0.24516 0.33008
 N2819 N 0.91747 0.23841 0.33985
 N2820 N 0.90119 0.23723 0.33048
 C2821 C 0.88034 0.24202 0.30121
 N2822 N 0.86626 0.23557 0.31189
 N2823 N 0.84940 0.23553 0.30382
 C2824 C 0.84589 0.24193 0.28473
 N2825 N 0.85998 0.24826 0.27389
 N2826 N 0.87692 0.24830 0.28200
 C2827 C 0.82694 0.24273 0.27670
 N2828 N 0.82267 0.24895 0.25765
 N2829 N 0.80526 0.25040 0.25113
 C2830 C 0.79154 0.24568 0.26346
 N2831 N 0.79589 0.23946 0.28244
 N2832 N 0.81322 0.23795 0.28890
 C2833 C 0.10180 0.26216 0.30161
 N2834 N 0.09368 0.27734 0.30880
 N2835 N 0.07880 0.27620 0.31990
 C2836 C 0.07163 0.25982 0.32440
 N2837 N 0.07975 0.24470 0.31709
 N2838 N 0.09448 0.24585 0.30588
 C2839 C 0.11874 0.26301 0.29025
 N2840 N 0.12525 0.24793 0.28117
 N2841 N 0.14123 0.24809 0.27212
 C2842 C 0.15139 0.26331 0.27185
 N2843 N 0.14482 0.27850 0.28074
 N2844 N 0.12874 0.27837 0.28972
 C2845 C 0.16984 0.26268 0.26366
 N2846 N 0.18164 0.27651 0.26665
 N2847 N 0.19898 0.27489 0.26127
 C2848 C 0.20516 0.25945 0.25262
 N2849 N 0.19320 0.24582 0.24924
 N2850 N 0.17591 0.24739 0.25465
 C2851 C 0.60354 0.75822 0.80176
 N2852 N 0.59480 0.77376 0.80694
 N2853 N 0.57969 0.77321 0.81772
 C2854 C 0.57287 0.75711 0.82387
 N2855 N 0.58161 0.74163 0.81854
 N2856 N 0.59659 0.74217 0.80767
 C2857 C 0.62077 0.75848 0.79088
 N2858 N 0.62821 0.74273 0.78441
 N2859 N 0.64444 0.74248 0.77590
 C2860 C 0.65393 0.75797 0.77358
 N2861 N 0.64642 0.77381 0.77983
 N2862 N 0.63010 0.77407 0.78828
 C2863 C 0.67261 0.75710 0.76606
 N2864 N 0.68347 0.77187 0.76621
 N2865 N 0.70100 0.77040 0.76147
 C2866 C 0.70831 0.75413 0.75640
 N2867 N 0.69729 0.73950 0.75581
 N2868 N 0.67982 0.74094 0.76053
 C2869 C 0.60231 0.23214 0.68626
 N2870 N 0.59897 0.22269 0.66898
 N2871 N 0.58257 0.22338 0.65966
 C2872 C 0.56886 0.23363 0.66717
 N2873 N 0.57221 0.24302 0.68455
 N2874 N 0.58860 0.24225 0.69395
 C2875 C 0.62074 0.23204 0.69582
 N2876 N 0.62400 0.23990 0.71415
 N2877 N 0.64090 0.24038 0.72227
 C2878 C 0.65515 0.23313 0.71230
 N2879 N 0.65185 0.22522 0.69403
 N2880 N 0.63497 0.22463 0.68599
 C2881 C 0.67400 0.23451 0.72047
 N2882 N 0.68819 0.23083 0.70838
 N2883 N 0.70532 0.23274 0.71524
 C2884 C 0.70899 0.23817 0.73457
 N2885 N 0.69479 0.24184 0.74673
 N2886 N 0.67760 0.24007 0.73979
 C2887 C 0.09710 0.74387 0.20237
 N2888 N 0.08917 0.72882 0.19453
 N2889 N 0.07352 0.73004 0.18368
 C2890 C 0.06529 0.74639 0.18008
 N2891 N 0.07319 0.76139 0.18809
 N2892 N 0.08874 0.76016 0.19907
 C2893 C 0.11502 0.74279 0.21307
 N2894 N 0.12183 0.75738 0.22306
 N2895 N 0.13863 0.75689 0.23145
 C2896 C 0.14931 0.74184 0.23002
 N2897 N 0.14244 0.72720 0.22018
 N2898 N 0.12559 0.72764 0.21194
 C2899 C 0.16848 0.74191 0.23735
 N2900 N 0.18035 0.72912 0.23089
 N2901 N 0.19807 0.73004 0.23584
 C2902 C 0.20462 0.74357 0.24775
 N2903 N 0.19272 0.75630 0.25435
 N2904 N 0.17498 0.75550 0.24924
   
