data_POSCAR
  _audit_creation_date              2014-09-24
  _audit_creation_method            'ToBaCCo'
  _symmetry_space_group_name_H-M    'P1'
  _symmetry_Int_Tables_number       1
  _symmetry_cell_setting            triclinic
  loop_
  _symmetry_equiv_pos_as_xyz
 x,y,z
_cell_length_a 49.0920
_cell_length_b 49.3863
_cell_length_c 49.4564
_cell_angle_alpha 91.469000
_cell_angle_beta 90.032500
_cell_angle_gamma 90.687900
loop_
  _atom_site_label
  _atom_site_type_symbol
  _atom_site_fract_x
  _atom_site_fract_y
  _atom_site_fract_z
C1 C 0.72476 0.66150 0.96725
 H2 H 0.74441 0.66020 0.95744
 C3 C 0.70365 0.67562 0.95514
 H4 H 0.70758 0.68490 0.93597
 C5 C 0.69564 0.64880 1.00304
 H6 H 0.69219 0.63758 1.02119
 C7 C 0.67405 0.66266 0.99171
 H8 H 0.65435 0.66226 1.00157
 N9 N 0.72039 0.64836 0.99070
 C10 C 0.79949 0.63131 1.02602
 H11 H 0.79611 0.60996 1.02933
 C12 C 0.82377 0.64371 1.03439
 H13 H 0.83907 0.63171 1.04417
 C14 C 0.78334 0.67275 1.00945
 H15 H 0.76730 0.68400 1.00006
 C16 C 0.80752 0.68605 1.01746
 H17 H 0.80955 0.70753 1.01419
 Zn18 Zn 0.74808 0.62585 1.00395
 N19 N 0.77995 0.64580 1.01365
 C20 C 0.78133 0.60210 0.96408
 N21 N 0.75635 0.60047 0.97584
 C22 C 0.73654 0.58372 0.96538
 C23 C 0.74137 0.56827 0.94175
 C24 C 0.78687 0.58735 0.94040
 C25 C 0.73208 0.62696 1.05698
 C26 C 0.72116 0.61816 1.08122
 C27 C 0.71906 0.57269 1.06202
 C28 C 0.73000 0.58253 1.03797
 N29 N 0.73556 0.60940 1.03576
 H30 H 0.79665 0.61588 0.97223
 H31 H 0.71664 0.58323 0.97475
 H32 H 0.72523 0.55564 0.93311
 H33 H 0.80668 0.58946 0.93100
 H34 H 0.73733 0.64813 1.05479
 H35 H 0.71922 0.63318 1.09730
 H36 H 0.71420 0.55128 1.06309
 H37 H 0.73353 0.56879 1.02102
 C38 C 0.82821 0.67136 1.03004
 C39 C 0.67773 0.67612 0.96735
 C40 C 0.71356 0.59067 1.08393
 C41 C 0.76648 0.57081 0.92852
 C42 C 0.72519 0.33312 0.51529
 H43 H 0.74508 0.33310 0.52474
 C44 C 0.70397 0.31752 0.52584
 H45 H 0.70802 0.30579 0.54351
 C46 C 0.69570 0.35056 0.48224
 H47 H 0.69223 0.36413 0.46587
 C48 C 0.67395 0.33529 0.49209
 H49 H 0.65406 0.33701 0.48284
 N50 N 0.72072 0.34930 0.49395
 C51 C 0.80000 0.37011 0.45949
 H52 H 0.79787 0.39188 0.45922
 C53 C 0.82347 0.35811 0.44910
 H54 H 0.83939 0.37083 0.44086
 C55 C 0.78155 0.32721 0.47033
 H56 H 0.76495 0.31525 0.47827
 C57 C 0.80473 0.31431 0.46011
 H58 H 0.80528 0.29246 0.46021
 Zn59 Zn 0.74894 0.37336 0.48359
 N60 N 0.77978 0.35467 0.47014
 C61 C 0.78468 0.39512 0.52375
 N62 N 0.75850 0.39442 0.51476
 C63 C 0.73833 0.40706 0.52890
 C64 C 0.74423 0.42131 0.55304
 C65 C 0.79150 0.40931 0.54758
 C66 C 0.73059 0.38301 0.43157
 C67 C 0.72042 0.39777 0.41023
 C68 C 0.72362 0.43833 0.43850
 C69 C 0.73362 0.42272 0.45940
 N70 N 0.73650 0.39552 0.45569
 H71 H 0.80028 0.38421 0.51282
 H72 H 0.71757 0.40568 0.52161
 H73 H 0.72796 0.43107 0.56424
 H74 H 0.81237 0.40895 0.55463
 H75 H 0.73334 0.36138 0.42913
 H76 H 0.71530 0.38737 0.39132
 H77 H 0.72060 0.45974 0.44231
 H78 H 0.73871 0.43229 0.47866
 C79 C 0.82628 0.32990 0.44952
 C80 C 0.67779 0.31863 0.51427
 C81 C 0.71677 0.42577 0.41350
 C82 C 0.77114 0.42278 0.56248
 C83 C 0.23075 -0.15664 0.01829
 H84 H 0.25044 -0.15489 0.02805
 C85 C 0.20995 -0.17202 0.02999
 H86 H 0.21405 -0.18179 0.04885
 C87 C 0.20125 -0.14410 -0.01704
 H88 H 0.19757 -0.13265 -0.03494
 C89 C 0.17993 -0.15914 -0.00604
 H90 H 0.16020 -0.15931 -0.01587
 N91 N 0.22609 -0.14309 -0.00483
 C92 C 0.30336 -0.12497 -0.04457
 H93 H 0.29990 -0.10385 -0.04856
 C94 C 0.32692 -0.13743 -0.05415
 H95 H 0.34150 -0.12571 -0.06557
 C96 C 0.28831 -0.16576 -0.02497
 H97 H 0.27314 -0.17673 -0.01367
 C98 C 0.31172 -0.17905 -0.03409
 H99 H 0.31418 -0.20004 -0.02912
 Zn100 Zn 0.25358 -0.11972 -0.01844
 N101 N 0.28472 -0.13912 -0.03013
 C102 C 0.29013 -0.09201 0.01694
 N103 N 0.26349 -0.09477 0.00971
 C104 C 0.24360 -0.08177 0.02391
 C105 C 0.25017 -0.06576 0.04682
 C106 C 0.29761 -0.07597 0.03938
 C107 C 0.23635 -0.11823 -0.07137
 C108 C 0.22544 -0.10796 -0.09493
 C109 C 0.22289 -0.06405 -0.07241
 C110 C 0.23395 -0.07532 -0.04919
 N111 N 0.23992 -0.10210 -0.04901
 H112 H 0.30566 -0.10278 0.00579
 H113 H 0.22253 -0.08448 0.01787
 H114 H 0.23400 -0.05574 0.05788
 H115 H 0.31890 -0.07441 0.04505
 H116 H 0.24175 -0.13939 -0.07074
 H117 H 0.22340 -0.12194 -0.11191
 H118 H 0.21784 -0.04274 -0.07186
 H119 H 0.23735 -0.06276 -0.03125
 C120 C 0.33141 -0.16483 -0.04909
 C121 C 0.18402 -0.17331 0.01778
 C122 C 0.21782 -0.08045 -0.09571
 C123 C 0.27753 -0.06315 0.05503
 C124 C 0.22139 0.15974 0.47046
 H125 H 0.24121 0.15956 0.46090
 C126 C 0.20074 0.17581 0.46024
 H127 H 0.20522 0.18767 0.44271
 C128 C 0.19145 0.14239 0.50350
 H129 H 0.18753 0.12861 0.51967
 C130 C 0.17025 0.15814 0.49398
 H131 H 0.15035 0.15656 0.50329
 N132 N 0.21641 0.14336 0.49161
 C133 C 0.29659 0.12005 0.52000
 H134 H 0.29338 0.09834 0.51890
 C135 C 0.32141 0.13070 0.52913
 H136 H 0.33731 0.11684 0.53448
 C137 C 0.27963 0.16411 0.51329
 H138 H 0.26315 0.17698 0.50732
 C139 C 0.30423 0.17569 0.52245
 H140 H 0.30658 0.19753 0.52341
 Zn141 Zn 0.24383 0.11879 0.50132
 N142 N 0.27635 0.13671 0.51228
 C143 C 0.27451 0.10114 0.45675
 N144 N 0.25079 0.09680 0.47023
 C145 C 0.23119 0.07972 0.45992
 C146 C 0.23514 0.06625 0.43498
 C147 C 0.27905 0.08854 0.43170
 C148 C 0.22729 0.11370 0.55402
 C149 C 0.21803 0.10141 0.57735
 C150 C 0.22062 0.05793 0.55397
 C151 C 0.22960 0.07117 0.53085
 N152 N 0.23227 0.09864 0.53123
 H153 H 0.28950 0.11536 0.46477
 H154 H 0.21219 0.07718 0.47067
 H155 H 0.21928 0.05307 0.42668
 H156 H 0.29787 0.09264 0.42106
 H157 H 0.23004 0.13547 0.55383
 H158 H 0.21350 0.11384 0.59511
 H159 H 0.21779 0.03617 0.55308
 H160 H 0.23425 0.05953 0.51268
 C161 C 0.32534 0.15893 0.53092
 C162 C 0.17457 0.17493 0.47191
 C163 C 0.21452 0.07324 0.57753
 C164 C 0.25898 0.07131 0.42030
 C165 C 0.17686 0.46400 0.21473
 H166 H 0.17720 0.45322 0.23350
 C167 C 0.19128 0.45403 0.19227
 H168 H 0.20283 0.43560 0.19392
 C169 C 0.16014 0.50024 0.18927
 H170 H 0.14750 0.51788 0.18786
 C171 C 0.17427 0.49107 0.16644
 H172 H 0.17288 0.50243 0.14808
 N173 N 0.16127 0.48643 0.21269
 C174 C 0.14092 0.51664 0.29363
 H175 H 0.11902 0.51645 0.29119
 C176 C 0.15246 0.52609 0.31783
 H177 H 0.13906 0.53260 0.33403
 C178 C 0.18454 0.50721 0.27541
 H179 H 0.19686 0.49993 0.25870
 C180 C 0.19703 0.51669 0.29938
 H181 H 0.21903 0.51668 0.30101
 Zn182 Zn 0.13768 0.49614 0.24156
 N183 N 0.15693 0.50743 0.27306
 C184 C 0.11973 0.45348 0.27368
 N185 N 0.11606 0.46515 0.24935
 C186 C 0.09913 0.45367 0.23035
 C187 C 0.08478 0.42970 0.23575
 C188 C 0.10617 0.42949 0.27972
 C189 C 0.13035 0.54994 0.22994
 C190 C 0.11727 0.57315 0.22153
 C191 C 0.07543 0.54712 0.21726
 C192 C 0.08930 0.52438 0.22609
 N193 N 0.11645 0.52605 0.23153
 H194 H 0.13378 0.46230 0.28829
 H195 H 0.09711 0.46287 0.21085
 H196 H 0.07146 0.42065 0.22047
 H197 H 0.10942 0.42063 0.29925
 H198 H 0.15185 0.55077 0.23474
 H199 H 0.12884 0.59185 0.21984
 H200 H 0.05389 0.54538 0.21283
 H201 H 0.07841 0.50544 0.22823
 C202 C 0.18094 0.52671 0.32079
 C203 C 0.18932 0.46709 0.16748
 C204 C 0.08968 0.57178 0.21439
 C205 C 0.08875 0.41709 0.26048
 C206 C -0.15161 0.02367 0.23625
 H207 H -0.14962 0.03288 0.25625
 C208 C -0.16728 0.03616 0.21669
 H209 H -0.17730 0.05467 0.22264
 C210 C -0.13985 -0.01145 0.20513
 H211 H -0.12861 -0.02964 0.20048
 C212 C -0.15527 0.00031 0.18492
 H213 H -0.15587 -0.00935 0.16499
 N214 N -0.13823 0.00038 0.23020
 C215 C -0.12002 -0.03651 0.30735
 H216 H -0.09842 -0.03978 0.30470
 C217 C -0.13288 -0.04446 0.33106
 H218 H -0.12102 -0.05393 0.34661
 C219 C -0.16162 -0.02027 0.29015
 H220 H -0.17281 -0.01117 0.27399
 C221 C -0.17533 -0.02794 0.31356
 H222 H -0.19705 -0.02481 0.31468
 Zn223 Zn -0.11468 -0.01313 0.25686
 N224 N -0.13435 -0.02422 0.28770
 C225 C -0.08877 0.02442 0.29288
 N226 N -0.09030 0.01548 0.26668
 C227 C -0.07656 0.02840 0.24680
 C228 C -0.06053 0.05134 0.25298
 C229 C -0.07284 0.04705 0.29997
 C230 C -0.11088 -0.06635 0.23743
 C231 C -0.09846 -0.08973 0.22723
 C232 C -0.05512 -0.06605 0.22906
 C233 C -0.06839 -0.04310 0.23929
 N234 N -0.09583 -0.04361 0.24302
 H235 H -0.10056 0.01460 0.30829
 H236 H -0.07865 0.02127 0.22603
 H237 H -0.05010 0.06173 0.23690
 H238 H -0.07282 0.05424 0.32082
 H239 H -0.13267 -0.06618 0.24068
 H240 H -0.11112 -0.10720 0.22217
 H241 H -0.03329 -0.06528 0.22596
 H242 H -0.05676 -0.02492 0.24417
 C243 C -0.16079 -0.03987 0.33465
 C244 C -0.16900 0.02471 0.19026
 C245 C -0.07012 -0.08981 0.22304
 C246 C -0.05844 0.06085 0.27987
 C247 C 0.34855 0.52361 0.72299
 H248 H 0.34836 0.53347 0.74278
 C249 C 0.33264 0.53365 0.70212
 H250 H 0.31981 0.55084 0.70649
 C251 C 0.36557 0.48909 0.69372
 H252 H 0.37886 0.47210 0.69025
 C253 C 0.35000 0.49840 0.67234
 H254 H 0.35130 0.48824 0.65272
 N255 N 0.36459 0.50171 0.71847
 C256 C 0.38262 0.46531 0.79576
 H257 H 0.40449 0.46395 0.79356
 C258 C 0.36984 0.45400 0.81803
 H259 H 0.38222 0.44451 0.83313
 C260 C 0.34025 0.47978 0.77868
 H261 H 0.32878 0.48946 0.76307
 C262 C 0.32660 0.46881 0.80079
 H263 H 0.30465 0.47030 0.80213
 Zn264 Zn 0.38781 0.49027 0.74651
 N265 N 0.36781 0.47786 0.77664
 C266 C 0.41138 0.52827 0.78347
 N267 N 0.41052 0.51997 0.75706
 C268 C 0.42438 0.53366 0.73778
 C269 C 0.43967 0.55691 0.74478
 C270 C 0.42664 0.55108 0.79138
 C271 C 0.39385 0.43730 0.72927
 C272 C 0.40675 0.41380 0.72033
 C273 C 0.44969 0.43827 0.72136
 C274 C 0.43588 0.46144 0.73038
 N275 N 0.40841 0.46051 0.73393
 H276 H 0.39987 0.51754 0.79847
 H277 H 0.42318 0.52673 0.71687
 H278 H 0.45058 0.56742 0.72914
 H279 H 0.42689 0.55748 0.81250
 H280 H 0.37202 0.43721 0.73227
 H281 H 0.39436 0.39599 0.71587
 H282 H 0.47152 0.43923 0.71835
 H283 H 0.44706 0.48008 0.73446
 C284 C 0.34137 0.45529 0.82053
 C285 C 0.33360 0.52120 0.67620
 C286 C 0.43513 0.41398 0.71651
 C287 C 0.44064 0.56599 0.77195
 C288 C 0.68102 0.98029 0.74030
 H289 H 0.68148 0.96972 0.75918
 C290 C 0.69725 0.97153 0.71864
 H291 H 0.71035 0.95426 0.72105
 C292 C 0.66204 1.01445 0.71359
 H293 H 0.64741 1.03034 0.71116
 C294 C 0.67793 1.00644 0.69150
 H295 H 0.67511 1.01650 0.67255
 N296 N 0.66373 1.00132 0.73737
 C297 C 0.63889 1.02650 0.81870
 H298 H 0.61715 1.02620 0.81502
 C299 C 0.64886 1.03415 0.84415
 H300 H 0.63406 1.04005 0.85921
 C301 C 0.68358 1.01998 0.80206
 H302 H 0.69697 1.01464 0.78547
 C303 C 0.69456 1.02768 0.82730
 H304 H 0.71650 1.02804 0.82982
 Zn305 Zn 0.63866 1.00939 0.76548
 N306 N 0.65614 1.01928 0.79841
 C307 C 0.62037 0.96391 0.79358
 N308 N 0.61714 0.97774 0.77039
 C309 C 0.60080 0.96790 0.75006
 C310 C 0.58671 0.94329 0.75280
 C311 C 0.60708 0.93916 0.79695
 C312 C 0.63165 1.06277 0.75228
 C313 C 0.61856 1.08564 0.74309
 C314 C 0.57592 1.06067 0.74355
 C315 C 0.58995 1.03807 0.75245
 N316 N 0.61744 1.03936 0.75591
 H317 H 0.63394 0.97159 0.80922
 H318 H 0.59907 0.97895 0.73154
 H319 H 0.57392 0.93553 0.73645
 H320 H 0.61003 0.92846 0.81555
 H321 H 0.65344 1.06329 0.75558
 H322 H 0.63039 1.10379 0.73926
 H323 H 0.55425 1.05895 0.73977
 H324 H 0.57894 1.01944 0.75604
 C325 C 0.67721 1.03465 0.84901
 C326 C 0.69569 0.98451 0.69378
 C327 C 0.59045 1.08469 0.73832
 C328 C 0.59035 0.92837 0.77622
 C329 C 0.01781 0.22161 -0.16217
 H330 H 0.02766 0.24118 -0.16401
 C331 C 0.02731 0.19929 -0.17717
 H332 H 0.04399 0.20226 -0.19109
 C333 C -0.01591 0.19429 -0.14161
 H334 H -0.03228 0.19217 -0.12723
 C335 C -0.00714 0.17150 -0.15627
 H336 H -0.01712 0.15213 -0.15324
 N337 N -0.00333 0.21872 -0.14468
 C338 C -0.03703 0.29853 -0.12695
 H339 H -0.03772 0.29720 -0.10516
 C340 C -0.04689 0.32147 -0.13934
 H341 H -0.05572 0.33728 -0.12675
 C342 C -0.02568 0.27854 -0.16946
 H343 H -0.01754 0.26168 -0.18108
 C344 C -0.03528 0.30123 -0.18275
 H345 H -0.03441 0.30168 -0.20461
 Zn346 Zn -0.01275 0.24870 -0.12206
 N347 N -0.02632 0.27785 -0.14200
 C348 C 0.02903 0.28573 -0.10736
 N349 N 0.01932 0.26022 -0.10350
 C350 C 0.03349 0.24233 -0.08863
 C351 C 0.05865 0.24986 -0.07719
 C352 C 0.05399 0.29403 -0.09640
 C353 C -0.06532 0.23285 -0.10960
 C354 C -0.08733 0.22480 -0.09385
 C355 C -0.05858 0.22907 -0.05423
 C356 C -0.03707 0.23710 -0.07090
 N357 N -0.04073 0.23840 -0.09806
 H358 H 0.01781 0.29959 -0.11953
 H359 H 0.02554 0.22201 -0.08620
 H360 H 0.06991 0.23534 -0.06570
 H361 H 0.06102 0.31456 -0.09958
 H362 H -0.06773 0.23446 -0.13125
 H363 H -0.10657 0.22022 -0.10384
 H364 H -0.05456 0.22838 -0.03282
 H365 H -0.01748 0.24223 -0.06209
 C366 C -0.04559 0.32330 -0.16764
 C367 C 0.01510 0.17365 -0.17385
 C368 C -0.08430 0.22237 -0.06570
 C369 C 0.06948 0.27578 -0.08162
 C370 C 0.46121 0.23685 0.18073
 H371 H 0.45070 0.25596 0.18030
 C372 C 0.44940 0.21486 0.19385
 H373 H 0.43014 0.21761 0.20410
 C374 C 0.49885 0.21012 0.16734
 H375 H 0.51765 0.20792 0.15625
 C376 C 0.48791 0.18774 0.18032
 H377 H 0.49866 0.16871 0.17934
 N378 N 0.48530 0.23399 0.16746
 C379 C 0.51916 0.31384 0.15069
 H380 H 0.52250 0.31043 0.12926
 C381 C 0.52706 0.33835 0.16297
 H382 H 0.53654 0.35374 0.15076
 C383 C 0.50281 0.29762 0.19240
 H384 H 0.49350 0.28153 0.20373
 C385 C 0.51039 0.32202 0.20560
 H386 H 0.50677 0.32415 0.22708
 Zn387 Zn 0.49775 0.26232 0.14529
 N388 N 0.50712 0.29416 0.16538
 C389 C 0.45740 0.29482 0.12264
 N390 N 0.46909 0.27000 0.12105
 C391 C 0.45888 0.25007 0.10430
 C392 C 0.43625 0.25492 0.08796
 C393 C 0.43471 0.30044 0.10691
 C394 C 0.55201 0.24836 0.14295
 C395 C 0.57624 0.23854 0.13207
 C396 C 0.55475 0.23612 0.08809
 C397 C 0.53082 0.24602 0.09988
 N398 N 0.52972 0.25118 0.12700
 H399 H 0.46513 0.31015 0.13667
 H400 H 0.46797 0.23022 0.10406
 H401 H 0.42812 0.23862 0.07523
 H402 H 0.42552 0.32024 0.10871
 H403 H 0.55071 0.25320 0.16437
 H404 H 0.59361 0.23642 0.14528
 H405 H 0.55521 0.23136 0.06660
 H406 H 0.51309 0.24905 0.08743
 C407 C 0.52267 0.34287 0.19072
 C408 C 0.46252 0.18965 0.19306
 C409 C 0.57756 0.23150 0.10440
 C410 C 0.42388 0.28046 0.08925
 C411 C 0.97297 0.71135 0.67096
 H412 H 0.97567 0.73080 0.68117
 C413 C 0.96412 0.68902 0.68555
 H414 H 0.95975 0.69150 0.70693
 C415 C 0.97537 0.68426 0.63079
 H416 H 0.97978 0.68265 0.60938
 C417 C 0.96689 0.66140 0.64463
 H418 H 0.96425 0.64240 0.63350
 N419 N 0.97821 0.70859 0.64404
 C420 C 1.02756 0.77614 0.64752
 H421 H 1.04312 0.76487 0.63691
 C422 C 1.03487 0.79957 0.66215
 H423 H 1.05609 0.80584 0.66281
 C424 C 0.98110 0.78238 0.65866
 H425 H 0.96012 0.77563 0.65686
 C426 C 0.98751 0.80620 0.67340
 H427 H 0.97126 0.81725 0.68324
 Zn428 Zn 0.99144 0.73768 0.62351
 N429 N 1.00105 0.76798 0.64599
 C430 C 0.96946 0.77220 0.58563
 N431 N 0.96449 0.74903 0.59913
 C432 C 0.94006 0.73585 0.59709
 C433 C 0.91925 0.74620 0.58123
 C434 C 0.94918 0.78336 0.56973
 C435 C 1.04158 0.71262 0.61987
 C436 C 1.06492 0.70212 0.60776
 C437 C 1.04867 0.71725 0.56463
 C438 C 1.02551 0.72744 0.57760
 N439 N 1.02251 0.72505 0.60478
 H440 H 0.98892 0.78250 0.58799
 H441 H 0.93631 0.71780 0.60846
 H442 H 0.89964 0.73597 0.58090
 H443 H 0.95318 0.80228 0.55979
 H444 H 1.03861 0.71099 0.64145
 H445 H 1.08004 0.69291 0.62040
 H446 H 1.05085 0.71924 0.54297
 H447 H 1.00997 0.73714 0.56594
 C448 C 1.01478 0.81521 0.67497
 C449 C 0.96132 0.66361 0.67245
 C450 C 1.06853 0.70408 0.57968
 C451 C 0.92363 0.77049 0.56755
 C452 C 0.52337 0.74923 0.35510
 H453 H 0.53505 0.76792 0.35672
 C454 C 0.53406 0.72682 0.34115
 H455 H 0.55375 0.72874 0.33154
 C456 C 0.48348 0.72422 0.36583
 H457 H 0.46388 0.72324 0.37571
 C458 C 0.49332 0.70139 0.35195
 H459 H 0.48120 0.68291 0.35131
 N460 N 0.49879 0.74735 0.36759
 C461 C 0.46372 0.82743 0.38207
 H462 H 0.46270 0.82825 0.40393
 C463 C 0.45373 0.84887 0.36729
 H464 H 0.44521 0.86613 0.37814
 C465 C 0.47569 0.80363 0.34176
 H466 H 0.48427 0.78592 0.33190
 C467 C 0.46583 0.82458 0.32612
 H468 H 0.46759 0.82232 0.30443
 Zn469 Zn 0.48741 0.77650 0.39029
 N470 N 0.47450 0.80539 0.36921
 C471 C 0.52472 0.81466 0.41464
 N472 N 0.51801 0.78796 0.41147
 C473 C 0.53391 0.76850 0.42209
 C474 C 0.55737 0.77554 0.43676
 C475 C 0.54793 0.82261 0.42926
 C476 C 0.43295 0.77172 0.40914
 C477 C 0.41163 0.75992 0.42356
 C478 C 0.44437 0.73212 0.44600
 C479 C 0.46506 0.74456 0.43131
 N480 N 0.45906 0.76365 0.41294
 H481 H 0.51239 0.82992 0.40563
 H482 H 0.52877 0.74736 0.41863
 H483 H 0.56930 0.75956 0.44520
 H484 H 0.55298 0.84397 0.43146
 H485 H 0.42839 0.78647 0.39409
 H486 H 0.39087 0.76594 0.41968
 H487 H 0.44964 0.71675 0.46025
 H488 H 0.48580 0.73821 0.43395
 C489 C 0.45441 0.84771 0.33886
 C490 C 0.51926 0.70223 0.34016
 C491 C 0.41716 0.73927 0.44159
 C492 C 0.56479 0.80299 0.44027
 C493 C 0.39301 -0.01583 0.28072
 H494 H 0.39116 0.00380 0.29074
 C495 C 0.40767 -0.03626 0.29299
 H496 H 0.41724 -0.03195 0.31240
 C497 C 0.38181 -0.04529 0.24379
 H498 H 0.37103 -0.04905 0.22502
 C499 C 0.39638 -0.06627 0.25521
 H500 H 0.39616 -0.08565 0.24461
 N501 N 0.38049 -0.02062 0.25653
 C502 C 0.36651 0.05735 0.21968
 H503 H 0.34528 0.05438 0.21440
 C504 C 0.37978 0.08152 0.21350
 H505 H 0.36864 0.09668 0.20279
 C506 C 0.40672 0.04047 0.23933
 H507 H 0.41711 0.02440 0.24939
 C508 C 0.42085 0.06437 0.23342
 H509 H 0.44213 0.06653 0.23897
 Zn510 Zn 0.35861 0.00708 0.24236
 N511 N 0.37987 0.03769 0.23291
 C512 C 0.33441 0.04366 0.27927
 N513 N 0.33357 0.01760 0.26974
 C514 C 0.31727 -0.00127 0.28144
 C515 C 0.30116 0.00587 0.30382
 C516 C 0.31864 0.05164 0.30136
 C517 C 0.35697 -0.01099 0.18890
 C518 C 0.34576 -0.02022 0.16443
 C519 C 0.30098 -0.01734 0.18446
 C520 C 0.31313 -0.00823 0.20871
 N521 N 0.34069 -0.00552 0.21051
 H522 H 0.34819 0.05819 0.27056
 H523 H 0.31747 -0.02203 0.27393
 H524 H 0.28881 -0.00947 0.31340
 H525 H 0.32094 0.07221 0.30913
 H526 H 0.37880 -0.00831 0.19081
 H527 H 0.35916 -0.02474 0.14755
 H528 H 0.27910 -0.01996 0.18381
 H529 H 0.30055 -0.00345 0.22607
 C530 C 0.40719 0.08553 0.22097
 C531 C 0.40962 -0.06200 0.28032
 C532 C 0.31746 -0.02348 0.16187
 C533 C 0.30172 0.03264 0.31404
 C534 C 0.07116 1.02371 0.77851
 H535 H 0.06843 1.00411 0.78748
 C536 C 0.05842 1.04648 0.78997
 H537 H 0.04570 1.04424 0.80768
 C538 C 0.09184 1.05073 0.74520
 H539 H 0.10533 1.05262 0.72814
 C540 C 0.07952 1.07389 0.75591
 H541 H 0.08306 1.09295 0.74613
 N542 N 0.08755 1.02622 0.75652
 C543 C 0.09736 0.94827 0.71491
 H544 H 0.11900 0.95046 0.71135
 C545 C 0.08342 0.92572 0.70442
 H546 H 0.09453 0.91064 0.69272
 C547 C 0.05687 0.96535 0.73466
 H548 H 0.04666 0.98101 0.74628
 C549 C 0.04204 0.94277 0.72467
 H550 H 0.02041 0.94153 0.72861
 Zn551 Zn 0.10713 0.99595 0.74274
 N552 N 0.08412 0.96739 0.72993
 C553 C 0.12742 0.95662 0.77740
 N554 N 0.12971 0.98303 0.77060
 C555 C 0.14708 1.00027 0.78409
 C556 C 0.16341 0.99090 0.80502
 C557 C 0.14352 0.94634 0.79784
 C558 C 0.11358 1.01381 0.69059
 C559 C 0.12693 1.02188 0.66727
 C560 C 0.16998 1.01327 0.68900
 C561 C 0.15573 1.00566 0.71216
 N562 N 0.12804 1.00640 0.71259
 H563 H 0.11284 0.94340 0.76722
 H564 H 0.14816 1.02133 0.77863
 H565 H 0.17714 1.00497 0.81547
 H566 H 0.14030 0.92540 0.80289
 H567 H 0.09156 1.01379 0.69139
 H568 H 0.11508 1.02826 0.65013
 H569 H 0.19202 1.01326 0.68923
 H570 H 0.16679 0.99928 0.72975
 C571 C 0.05553 0.92248 0.70948
 C572 C 0.06299 1.07207 0.77898
 C573 C 0.15543 1.02163 0.66623
 C574 C 0.16223 0.96344 0.81188
 C575 C 0.56711 0.55549 0.27545
 H576 H 0.55487 0.53792 0.26972
 C577 C 0.55454 0.57894 0.28554
 H578 H 0.53258 0.57918 0.28770
 C579 C 0.61046 0.57683 0.27916
 H580 H 0.63227 0.57597 0.27613
 C581 C 0.59879 0.60064 0.28914
 H582 H 0.61202 0.61790 0.29323
 N583 N 0.59464 0.55486 0.27252
 C584 C 0.58303 0.49047 0.22079
 H585 H 0.59242 0.50273 0.20549
 C586 C 0.56724 0.46791 0.21305
 H587 H 0.56460 0.46300 0.19173
 C588 C 0.57573 0.48150 0.26708
 H589 H 0.57952 0.48681 0.28811
 C590 C 0.55991 0.45860 0.26023
 H591 H 0.55115 0.44688 0.27628
 Zn592 Zn 0.61260 0.52414 0.25744
 N593 N 0.58735 0.49652 0.24741
 C594 C 0.64794 0.48525 0.27794
 N595 N 0.63639 0.50963 0.28359
 C596 C 0.63983 0.52216 0.30821
 C597 C 0.65576 0.51043 0.32806
 C598 C 0.66409 0.47283 0.29715
 C599 C 0.62696 0.55974 0.21610
 C600 C 0.64106 0.56908 0.19368
 C601 C 0.66504 0.52674 0.19112
 C602 C 0.65063 0.51833 0.21388
 N603 N 0.63234 0.53504 0.22623
 H604 H 0.64381 0.47488 0.25886
 H605 H 0.62962 0.54089 0.31295
 H606 H 0.65727 0.52056 0.34763
 H607 H 0.67281 0.45324 0.29235
 H608 H 0.61133 0.57223 0.22508
 H609 H 0.63550 0.58859 0.18614
 H610 H 0.67966 0.51315 0.18180
 H611 H 0.65412 0.49844 0.22154
 C612 C 0.55610 0.45118 0.23281
 C613 C 0.57040 0.60188 0.29271
 C614 C 0.66092 0.55273 0.18105
 C615 C 0.66825 0.48540 0.32259
 C616 C 0.89533 0.46878 0.78181
 H617 H 0.89792 0.48906 0.79029
 C618 C 0.90976 0.44733 0.79262
 H619 H 0.92381 0.45178 0.80898
 C620 C 0.87374 0.43895 0.75001
 H621 H 0.85924 0.43558 0.73382
 C622 C 0.88761 0.41695 0.76024
 H623 H 0.88379 0.39692 0.75153
 N624 N 0.87777 0.46426 0.76087
 C625 C 0.86463 0.54308 0.72573
 H626 H 0.84261 0.54216 0.72527
 C627 C 0.87827 0.56568 0.71598
 H628 H 0.86661 0.58215 0.70797
 C629 C 0.90646 0.52252 0.73669
 H630 H 0.91730 0.50556 0.74467
 C631 C 0.92103 0.54474 0.72683
 H632 H 0.94304 0.54482 0.72786
 Zn633 Zn 0.85674 0.49331 0.74835
 N634 N 0.87875 0.52225 0.73614
 C635 C 0.84059 0.53111 0.78808
 N636 N 0.83477 0.50604 0.77747
 C637 C 0.81579 0.48973 0.78911
 C638 C 0.80161 0.49874 0.81218
 C639 C 0.82698 0.54087 0.81090
 C640 C 0.85217 0.47504 0.69610
 C641 C 0.84041 0.46699 0.67158
 C642 C 0.79597 0.47241 0.69187
 C643 C 0.80870 0.48050 0.71620
 N644 N 0.83637 0.48155 0.71778
 H645 H 0.85664 0.54332 0.77957
 H646 H 0.81211 0.46953 0.78083
 H647 H 0.78682 0.48547 0.82149
 H648 H 0.83306 0.56043 0.81936
 H649 H 0.87412 0.47606 0.69799
 H650 H 0.85364 0.46118 0.65499
 H651 H 0.77394 0.47154 0.69073
 H652 H 0.79653 0.48607 0.73364
 C653 C 0.90678 0.56667 0.71625
 C654 C 0.90561 0.42081 0.78207
 C655 C 0.81191 0.46597 0.66906
 C656 C 0.80701 0.52473 0.82324
 C657 C 0.27533 0.40618 -0.03572
 H658 H 0.27032 0.41750 -0.01744
 C659 C 0.28613 0.41970 -0.05788
 H660 H 0.28961 0.44138 -0.05641
 C661 C 0.27655 0.36432 -0.06015
 H662 H 0.27243 0.34274 -0.06092
 C663 C 0.28744 0.37695 -0.08268
 H664 H 0.29126 0.36487 -0.10081
 N665 N 0.27122 0.37889 -0.03711
 C666 C 0.22004 0.38408 0.02904
 H667 H 0.20476 0.37206 0.01840
 C668 C 0.21237 0.39998 0.05138
 H669 H 0.19123 0.39976 0.05756
 C670 C 0.26626 0.39716 0.03513
 H671 H 0.28730 0.39552 0.02888
 C672 C 0.25949 0.41324 0.05780
 H673 H 0.27539 0.42418 0.06884
 Zn674 Zn 0.25671 0.35943 -0.00780
 N675 N 0.24656 0.38309 0.02120
 C676 C 0.27752 0.32276 0.02904
 N677 N 0.28314 0.33562 0.00567
 C678 C 0.30810 0.33382 -0.00616
 C679 C 0.32869 0.31894 0.00574
 C680 C 0.29763 0.30789 0.04179
 C681 C 0.20723 0.35551 -0.03432
 C682 C 0.18332 0.34373 -0.04452
 C683 C 0.19752 0.30079 -0.02724
 C684 C 0.22132 0.31346 -0.01737
 N685 N 0.22555 0.34041 -0.02091
 H686 H 0.25769 0.32497 0.03832
 H687 H 0.31251 0.34480 -0.02426
 H688 H 0.34868 0.31887 -0.00347
 H689 H 0.29313 0.29853 0.06087
 H690 H 0.21110 0.37693 -0.03672
 H691 H 0.16875 0.35651 -0.05430
 H692 H 0.19422 0.27937 -0.02415
 H693 H 0.23624 0.30181 -0.00676
 C694 C 0.23221 0.41499 0.06601
 C695 C 0.29284 0.40498 -0.08154
 C696 C 0.17829 0.31592 -0.04124
 C697 C 0.32365 0.30601 0.03025
 C698 C 0.76635 0.08129 1.05337
 H699 H 0.76192 0.07082 1.03439
 C700 C 0.77506 0.06667 1.07557
 H701 H 0.77735 0.04494 1.07328
 C702 C 0.76863 0.12221 1.07930
 H703 H 0.76616 0.14396 1.08048
 C704 C 0.77716 0.10847 1.10201
 H705 H 0.78165 0.12045 1.12006
 N706 N 0.76349 0.10859 1.05562
 C707 C 0.71147 0.10772 0.99106
 H708 H 0.69753 0.11978 1.00299
 C709 C 0.70159 0.09300 0.96866
 H710 H 0.68019 0.09469 0.96408
 C711 C 0.75641 0.09336 0.98191
 H712 H 0.77783 0.09397 0.98707
 C713 C 0.74747 0.07858 0.95899
 H714 H 0.76224 0.06767 0.94677
 Zn715 Zn 0.75123 0.12966 1.02675
 N716 N 0.73839 0.10754 0.99741
 C717 C 0.77607 0.16626 0.99162
 N718 N 0.78019 0.15150 1.01403
 C719 C 0.80503 0.15091 1.02616
 C720 C 0.82695 0.16567 1.01588
 C721 C 0.79741 0.18131 0.98061
 C722 C 0.70276 0.13791 1.05442
 C723 C 0.68066 0.15193 1.06521
 C724 C 0.69944 0.19321 1.04730
 C725 C 0.72133 0.17836 1.03691
 N726 N 0.72244 0.15116 1.04044
 H727 H 0.75624 0.16597 0.98205
 H728 H 0.80812 0.13851 1.04353
 H729 H 0.84639 0.16391 1.02585
 H730 H 0.79363 0.19270 0.96257
 H731 H 0.70416 0.11627 1.05691
 H732 H 0.66494 0.14071 1.07557
 H733 H 0.69868 0.21483 1.04423
 H734 H 0.73731 0.18858 1.02601
 C735 C 0.71965 0.07800 0.95210
 C736 C 0.78040 0.08012 1.10050
 C737 C 0.67891 0.18004 1.06187
 C738 C 0.82340 0.18119 0.99262
 C739 C 0.28580 0.58048 0.53083
 H740 H 0.29586 0.57942 0.51139
 C741 C 0.29664 0.56689 0.55278
 H742 H 0.31497 0.55515 0.55006
 C743 C 0.25042 0.59810 0.55842
 H744 H 0.23284 0.61083 0.56085
 C745 C 0.26054 0.58490 0.58082
 H746 H 0.24988 0.58698 0.59989
 N747 N 0.26323 0.59592 0.53408
 C748 C 0.23276 0.61294 0.45351
 H749 H 0.23199 0.63473 0.45622
 C750 C 0.22406 0.60081 0.42927
 H751 H 0.21719 0.61365 0.41330
 C752 C 0.24365 0.57024 0.47116
 H753 H 0.25110 0.55849 0.48770
 C754 C 0.23495 0.55716 0.44713
 H755 H 0.23578 0.53528 0.44527
 Zn756 Zn 0.25183 0.61791 0.50544
 N757 N 0.24230 0.59767 0.47383
 C758 C 0.29408 0.63869 0.47345
 N759 N 0.28108 0.64176 0.49759
 C760 C 0.28993 0.66028 0.51658
 C761 C 0.31231 0.67712 0.51127
 C762 C 0.31668 0.65475 0.46749
 C763 C 0.19781 0.62069 0.52006
 C764 C 0.17349 0.63192 0.52914
 C765 C 0.19482 0.67623 0.52825
 C766 C 0.21885 0.66410 0.51915
 N767 N 0.22007 0.63669 0.51598
 H768 H 0.28731 0.62339 0.45890
 H769 H 0.27968 0.66186 0.53591
 H770 H 0.31913 0.69187 0.52645
 H771 H 0.32651 0.65211 0.44803
 H772 H 0.19918 0.59902 0.51669
 H773 H 0.15611 0.61868 0.53221
 H774 H 0.19424 0.69802 0.53132
 H775 H 0.23648 0.67656 0.51493
 C776 C 0.22451 0.57247 0.42602
 C777 C 0.28442 0.56964 0.57834
 C778 C 0.17202 0.66001 0.53409
 C779 C 0.32619 0.67410 0.48664
 C780 C 0.79064 0.91734 0.48619
 H781 H 0.80117 0.91741 0.50541
 C782 C 0.80235 0.93031 0.46414
 H783 H 0.82186 0.94057 0.46655
 C784 C 0.75313 0.90267 0.45921
 H785 H 0.73450 0.89103 0.45694
 C786 C 0.76398 0.91546 0.43676
 H787 H 0.75338 0.91330 0.41763
 N788 N 0.76646 0.90383 0.48335
 C789 C 0.73130 0.89215 0.56317
 H790 H 0.72706 0.87067 0.56092
 C791 C 0.72395 0.90600 0.58687
 H792 H 0.71394 0.89497 0.60278
 C793 C 0.74948 0.93240 0.54491
 H794 H 0.75928 0.94255 0.52837
 C795 C 0.74247 0.94714 0.56842
 H796 H 0.74701 0.96859 0.56935
 Zn797 Zn 0.75297 0.88333 0.51245
 N798 N 0.74402 0.90536 0.54290
 C799 C 0.79192 0.86194 0.54730
 N800 N 0.78056 0.85894 0.52230
 C801 C 0.79032 0.84055 0.50388
 C802 C 0.81216 0.82399 0.51054
 C803 C 0.81380 0.84605 0.55468
 C804 C 0.69894 0.88164 0.49714
 C805 C 0.67425 0.87081 0.48785
 C806 C 0.69367 0.82613 0.48901
 C807 C 0.71814 0.83790 0.49828
 N808 N 0.72042 0.86525 0.50163
 H809 H 0.78462 0.87722 0.56140
 H810 H 0.78150 0.83915 0.48384
 H811 H 0.82001 0.80994 0.49540
 H812 H 0.82277 0.84903 0.57457
 H813 H 0.70127 0.90331 0.50023
 H814 H 0.65758 0.88433 0.48386
 H815 H 0.69276 0.80444 0.48562
 H816 H 0.73535 0.82520 0.50234
 C817 C 0.72959 0.93381 0.58991
 C818 C 0.78896 0.92950 0.43904
 C819 C 0.67134 0.84278 0.48346
 C820 C 0.82419 0.82678 0.53629
 C821 C -0.02147 0.28603 0.39809
 H822 H -0.00203 0.29652 0.39955
 C823 C -0.04426 0.29670 0.41135
 H824 H -0.04222 0.31542 0.42312
 C825 C -0.04799 0.24936 0.38029
 H826 H -0.04962 0.23132 0.36757
 C827 C -0.07122 0.25923 0.39326
 H828 H -0.09038 0.24858 0.39006
 N829 N -0.02368 0.26266 0.38307
 C830 C 0.05766 0.22889 0.37595
 H831 H 0.05781 0.22556 0.35424
 C832 C 0.08010 0.22165 0.39126
 H833 H 0.09725 0.21227 0.38115
 C834 C 0.03438 0.24422 0.41533
 H835 H 0.01641 0.25282 0.42456
 C836 C 0.05640 0.23697 0.43154
 H837 H 0.05528 0.24010 0.45326
 Zn838 Zn 0.00726 0.24962 0.36410
 N839 N 0.03563 0.24041 0.38801
 C840 C 0.04519 0.28797 0.34604
 N841 N 0.02004 0.27716 0.34099
 C842 C 0.00395 0.28698 0.32115
 C843 C 0.01341 0.30807 0.30505
 C844 C 0.05541 0.30882 0.33047
 C845 C -0.00755 0.19585 0.36074
 C846 C -0.01434 0.17065 0.34925
 C847 C -0.00931 0.18967 0.30497
 C848 C -0.00243 0.21463 0.31739
 N849 N -0.00196 0.21724 0.34485
 H850 H 0.05724 0.28101 0.36266
 H851 H -0.01631 0.27862 0.31803
 H852 H 0.00040 0.31583 0.28942
 H853 H 0.07514 0.31747 0.33564
 H854 H -0.00699 0.19853 0.38252
 H855 H -0.01962 0.15432 0.36251
 H856 H -0.00997 0.18783 0.28311
 H857 H 0.00243 0.23181 0.30512
 C858 C 0.07981 0.22604 0.41943
 C859 C -0.06949 0.28315 0.40922
 C860 C -0.01510 0.16723 0.32096
 C861 C 0.03963 0.31896 0.30938
 C862 C 1.04207 0.75423 0.06714
 H863 H 1.02372 0.74874 0.05613
 C864 C 1.06511 0.76318 0.05314
 H865 H 1.06424 0.76465 0.03134
 C866 C 1.06559 0.75914 0.10885
 H867 H 1.06547 0.75769 0.13064
 C868 C 1.08903 0.76814 0.09572
 H869 H 1.10655 0.77405 0.10783
 N870 N 1.04267 0.75270 0.09454
 C871 C 0.97386 0.70317 0.09368
 H872 H 0.98394 0.68909 0.10651
 C873 C 0.95092 0.69448 0.07916
 H874 H 0.94396 0.67368 0.08074
 C875 C 0.96966 0.74747 0.07704
 H876 H 0.97697 0.76821 0.07665
 C877 C 0.94630 0.73968 0.06238
 H878 H 0.93619 0.75451 0.05032
 Zn879 Zn 1.01218 0.74130 0.11492
 N880 N 0.98284 0.72927 0.09241
 C881 C 0.97657 0.76650 0.15178
 N882 N 0.99926 0.77056 0.13661
 C883 C 1.01121 0.79548 0.13527
 C884 C 1.00042 0.81749 0.14972
 C885 C 0.96509 0.78797 0.16660
 C886 C 1.03514 0.69097 0.12317
 C887 C 1.04319 0.66833 0.13727
 C888 C 1.02959 0.69100 0.17889
 C889 C 1.02145 0.71315 0.16391
 N890 N 1.02386 0.71249 0.13650
 H891 H 0.96705 0.74663 0.15191
 H892 H 1.02876 0.79854 0.12252
 H893 H 1.01004 0.83725 0.14816
 H894 H 0.94658 0.78420 0.17777
 H895 H 1.03742 0.69128 0.10142
 H896 H 1.05212 0.65146 0.12621
 H897 H 1.02739 0.69164 0.20069
 H898 H 1.01313 0.73074 0.17421
 C899 C 0.93650 0.71286 0.06367
 C900 C 1.08902 0.77020 0.06741
 C901 C 1.04000 0.66800 0.16549
 C902 C 0.97711 0.81396 0.16568
 C903 C 0.53446 0.26690 0.57885
 H904 H 0.51484 0.27653 0.57757
 C905 C 0.55626 0.27615 0.56328
 H906 H 0.55322 0.29287 0.54989
 C907 C 0.56253 0.23414 0.59862
 H908 H 0.56521 0.21818 0.61283
 C909 C 0.58479 0.24262 0.58337
 H910 H 0.60382 0.23215 0.58559
 N911 N 0.53795 0.24628 0.59616
 C912 C 0.45816 0.21197 0.61476
 H913 H 0.46036 0.21203 0.63653
 C914 C 0.43453 0.20141 0.60279
 H915 H 0.41853 0.19386 0.61571
 C916 C 0.47623 0.22297 0.57194
 H917 H 0.49262 0.23131 0.56006
 C918 C 0.45281 0.21255 0.55905
 H919 H 0.45128 0.21296 0.53722
 Zn920 Zn 0.50873 0.23627 0.61905
 N921 N 0.47831 0.22264 0.59936
 C922 C 0.47241 0.27618 0.63816
 N923 N 0.49849 0.26737 0.63960
 C924 C 0.51756 0.28112 0.65470
 C925 C 0.51043 0.30439 0.66968
 C926 C 0.46437 0.29906 0.65298
 C927 C 0.52634 0.18438 0.62940
 C928 C 0.53505 0.16271 0.64452
 C929 C 0.52807 0.18980 0.68527
 C930 C 0.51989 0.21120 0.66927
 N931 N 0.51960 0.20822 0.64185
 H932 H 0.45775 0.26569 0.62531
 H933 H 0.53831 0.27399 0.65505
 H934 H 0.52573 0.31515 0.68169
 H935 H 0.44358 0.30584 0.65122
 H936 H 0.52542 0.18244 0.60757
 H937 H 0.54105 0.14408 0.63425
 H938 H 0.52891 0.19273 0.70702
 H939 H 0.51393 0.23016 0.67878
 C940 C 0.43173 0.20133 0.57451
 C941 C 0.58199 0.26433 0.56576
 C942 C 0.53598 0.16526 0.67277
 C943 C 0.48342 0.31326 0.66930
 C944 C 0.48146 0.78591 0.89776
 H945 H 0.50145 0.79510 0.90024
 C946 C 0.45921 0.79662 0.91189
 H947 H 0.46224 0.81403 0.92538
 C948 C 0.45301 0.75268 0.87647
 H949 H 0.45040 0.73610 0.86201
 C950 C 0.43027 0.76272 0.89012
 H951 H 0.41058 0.75363 0.88567
 N952 N 0.47805 0.76411 0.88068
 C953 C 0.55779 0.72715 0.87071
 H954 H 0.55729 0.72438 0.84895
 C955 C 0.58051 0.71910 0.88519
 H956 H 0.59713 0.70956 0.87436
 C957 C 0.53608 0.74226 0.91105
 H958 H 0.51866 0.75118 0.92101
 C959 C 0.55842 0.73430 0.92641
 H960 H 0.55808 0.73721 0.94818
 Zn961 Zn 0.50828 0.75076 0.86070
 N962 N 0.53646 0.73907 0.88364
 C963 C 0.54746 0.78893 0.84512
 N964 N 0.52205 0.77920 0.83927
 C965 C 0.50619 0.79114 0.82051
 C966 C 0.51598 0.81371 0.80667
 C967 C 0.55800 0.81118 0.83181
 C968 C 0.48975 0.69842 0.85493
 C969 C 0.48061 0.67444 0.84247
 C970 C 0.48803 0.69449 0.79898
 C971 C 0.49695 0.71834 0.81240
 N972 N 0.49727 0.71989 0.83991
 H973 H 0.55937 0.78018 0.86093
 H974 H 0.48575 0.78354 0.81674
 H975 H 0.50304 0.82333 0.79210
 H976 H 0.57781 0.81899 0.83790
 H977 H 0.49049 0.70016 0.87677
 H978 H 0.47430 0.65775 0.85491
 H979 H 0.48724 0.69392 0.77713
 H980 H 0.50333 0.73560 0.80087
 C981 C 0.58126 0.72318 0.91339
 C982 C 0.43323 0.78487 0.90836
 C983 C 0.47957 0.67217 0.81420
 C984 C 0.54230 0.82387 0.81215
 C985 C 0.44364 -0.13041 0.32466
 C986 C 0.44047 -0.12979 0.29644
 C987 C 0.42929 -0.10824 0.28240
 C988 C 0.42368 -0.08251 0.29371
 H989 H 0.44531 -0.14743 0.28412
 H990 H 0.42573 -0.11219 0.26111
 H991 H 0.43629 -0.11350 0.33677
 H992 H 0.43105 -0.07757 0.31387
 C993 C 0.94438 0.34732 0.81807
 C994 C 0.94245 0.37197 0.83007
 C995 C 0.93130 0.39637 0.81742
 C996 C 0.91891 0.39659 0.79322
 H997 H 0.94959 0.37505 0.85061
 H998 H 0.93231 0.41462 0.82989
 H999 H 0.93920 0.34439 0.79696
 H1000 H 0.91682 0.37797 0.78142
 C1001 C 0.02501 1.14879 0.81203
 C1002 C 0.05080 1.14599 0.80356
 C1003 C 0.06165 1.12126 0.79021
 C1004 C 0.05052 1.09636 0.79193
 H1005 H 0.06515 1.16262 0.80615
 H1006 H 0.08088 1.12384 0.77988
 H1007 H 0.01072 1.13206 0.80959
 H1008 H 0.03278 1.09321 0.80448
 C1009 C 0.53041 0.67711 0.32765
 C1010 C 0.55721 0.67203 0.32727
 C1011 C 0.56969 0.64664 0.31704
 C1012 C 0.55669 0.62683 0.30285
 H1013 H 0.57125 0.68671 0.33627
 H1014 H 0.59102 0.64462 0.32187
 H1015 H 0.51593 0.66181 0.32071
 H1016 H 0.53519 0.62845 0.29858
 C1017 C 0.53176 0.36936 0.20271
 C1018 C 0.52747 0.37787 0.22834
 C1019 C 0.53822 0.40415 0.23912
 C1020 C 0.54172 0.42596 0.22373
 H1021 H 0.51746 0.36489 0.24259
 H1022 H 0.54372 0.40497 0.26028
 H1023 H 0.54323 0.38238 0.18947
 H1024 H 0.53532 0.42483 0.20277
 C1025 C 0.02354 0.84077 0.68893
 C1026 C 0.00708 0.86142 0.69565
 C1027 C 0.01797 0.88759 0.70656
 C1028 C 0.04197 0.89769 0.69827
 H1029 H -0.01475 0.85949 0.69333
 H1030 H 0.00564 0.89862 0.72110
 H1031 H 0.04519 0.84313 0.69268
 H1032 H 0.05312 0.88658 0.68278
 C1033 C 0.95117 0.64023 0.68781
 C1034 C 0.95752 0.61452 0.68131
 C1035 C 0.94563 0.59084 0.69491
 C1036 C 0.92053 0.59099 0.70557
 H1037 H 0.97241 0.61036 0.66566
 H1038 H 0.95686 0.57215 0.69348
 H1039 H 0.93852 0.64450 0.70530
 H1040 H 0.90846 0.60914 0.70436
 C1041 C 0.45014 0.16472 0.20411
 C1042 C 0.42312 0.16074 0.20588
 C1043 C 0.40968 0.13500 0.21342
 C1044 C 0.42216 0.11103 0.21527
 H1045 H 0.40949 0.17681 0.20059
 H1046 H 0.38794 0.13610 0.21669
 H1047 H 0.46390 0.14862 0.20889
 H1048 H 0.44397 0.10963 0.21283
 C1049 C 0.32680 0.44282 -0.15657
 C1050 C 0.33608 0.42069 -0.14454
 C1051 C 0.32211 0.40698 -0.12218
 C1052 C 0.30516 0.41928 -0.10463
 H1053 H 0.35412 0.41083 -0.15234
 H1054 H 0.32781 0.38619 -0.11913
 H1055 H 0.30731 0.45112 -0.15067
 H1056 H 0.30161 0.44079 -0.10602
 C1057 C 0.82623 0.95145 0.36019
 C1058 C 0.80165 0.95963 0.36877
 C1059 C 0.78856 0.94961 0.39355
 C1060 C 0.80241 0.94148 0.41525
 H1061 H 0.78965 0.97303 0.35679
 H1062 H 0.76653 0.94988 0.39398
 H1063 H 0.83760 0.93758 0.37235
 H1064 H 0.82435 0.94396 0.41591
 C1065 C 0.81703 0.03684 1.16883
 C1066 C 0.80388 0.06193 1.17075
 C1067 C 0.79212 0.07537 1.14911
 C1068 C 0.78935 0.06494 1.12252
 H1069 H 0.80338 0.07302 1.18980
 H1070 H 0.78446 0.09525 1.15418
 H1071 H 0.81763 0.02631 1.14943
 H1072 H 0.79366 0.04382 1.11845
 C1073 C 0.31821 0.53119 0.65267
 C1074 C 0.30897 0.55656 0.65113
 C1075 C 0.29481 0.56718 0.62728
 C1076 C 0.29727 0.55696 0.60196
 H1077 H 0.31157 0.57069 0.66799
 H1078 H 0.28357 0.58563 0.63082
 H1079 H 0.31533 0.51720 0.63568
 H1080 H 0.31076 0.54018 0.59792
 C1081 C 0.19412 0.53770 0.34585
 C1082 C 0.18230 0.55685 0.36142
 C1083 C 0.19437 0.56948 0.38605
 C1084 C 0.21411 0.55869 0.40099
 H1085 H 0.16318 0.56536 0.35516
 H1086 H 0.18496 0.58814 0.39287
 H1087 H 0.21445 0.53099 0.35056
 H1088 H 0.22176 0.53876 0.39579
 C1089 C 0.68873 0.04242 0.87428
 C1090 C 0.67342 0.04754 0.89784
 C1091 C 0.68356 0.05807 0.92243
 C1092 C 0.71102 0.06360 0.92855
 H1093 H 0.65172 0.04396 0.89773
 H1094 H 0.66825 0.06178 0.93772
 H1095 H 0.71065 0.04453 0.87523
 H1096 H 0.72660 0.05597 0.91502
 C1097 C 0.71034 0.97286 0.67007
 C1098 C 0.71539 0.98648 0.64741
 C1099 C 0.72631 0.97357 0.62242
 C1100 C 0.72098 0.94759 0.61550
 H1101 H 0.71173 1.00801 0.64686
 H1102 H 0.73715 0.98663 0.60884
 H1103 H 0.71678 0.95203 0.67130
 H1104 H 0.70886 0.93556 0.62913
 C1105 C 0.20189 0.45457 0.14297
 C1106 C 0.19151 0.45771 0.11813
 C1107 C 0.20055 0.44267 0.09363
 C1108 C 0.22507 0.43131 0.09052
 H1109 H 0.17352 0.46983 0.11563
 H1110 H 0.18611 0.44161 0.07708
 H1111 H 0.21819 0.44036 0.14587
 H1112 H 0.24059 0.43452 0.10587
 C1113 C -0.14849 0.31792 0.43800
 C1114 C -0.14060 0.29235 0.44174
 C1115 C -0.11584 0.28059 0.42935
 C1116 C -0.09375 0.29520 0.42249
 H1117 H -0.15304 0.27871 0.45333
 H1118 H -0.11566 0.25876 0.42698
 H1119 H -0.13594 0.33100 0.42581
 H1120 H -0.09287 0.31666 0.42750
 C1121 C 0.35678 0.82272 0.94021
 C1122 C 0.36155 0.79600 0.93932
 C1123 C 0.38600 0.78378 0.92671
 C1124 C 0.40959 0.79714 0.92260
 H1125 H 0.34626 0.78186 0.94617
 H1126 H 0.38430 0.76247 0.92132
 H1127 H 0.37152 0.83635 0.93140
 H1128 H 0.41215 0.81769 0.93038
 C1129 C 1.16026 0.81264 0.02994
 C1130 C 1.16220 0.79339 0.04850
 C1131 C 1.13842 0.78101 0.06212
 C1132 C 1.11284 0.78097 0.05241
 H1133 H 1.18199 0.78703 0.05530
 H1134 H 1.14273 0.77100 0.08081
 H1135 H 1.14037 0.81900 0.02340
 H1136 H 1.10895 0.78860 0.03249
 C1137 C 0.65363 0.30472 0.52581
 C1138 C 0.65513 0.28418 0.54298
 C1139 C 0.63145 0.27183 0.55678
 C1140 C 0.60520 0.27545 0.55009
 H1141 H 0.67475 0.27631 0.54846
 H1142 H 0.63653 0.25959 0.57381
 H1143 H 0.63399 0.31243 0.52015
 H1144 H 0.60010 0.28786 0.53319
 C1145 C 0.35102 0.17126 0.54154
 C1146 C 0.36684 0.15866 0.55931
 C1147 C 0.39175 0.17048 0.57169
 C1148 C 0.40692 0.19024 0.56092
 H1149 H 0.36046 0.13929 0.56701
 H1150 H 0.39842 0.16118 0.59009
 H1151 H 0.35596 0.19177 0.53589
 H1152 H 0.40186 0.19772 0.54118
 C1153 C 0.85429 0.68364 0.03974
 C1154 C 0.86425 0.70787 0.03256
 C1155 C 0.89053 0.71890 0.04306
 C1156 C 0.91131 0.70301 0.04991
 H1157 H 0.85267 0.72073 0.01961
 H1158 H 0.89235 0.74068 0.04530
 H1159 H 0.86589 0.67172 0.05364
 H1160 H 0.90933 0.68131 0.04675
 C1161 C 0.65353 0.68829 0.95460
 C1162 C 0.65476 0.70553 0.93410
 C1163 C 0.63051 0.71504 0.91951
 C1164 C 0.60510 0.71515 0.92958
 H1165 H 0.67422 0.71196 0.92619
 H1166 H 0.63422 0.72278 0.89955
 H1167 H 0.63385 0.68186 0.96208
 H1168 H 0.60155 0.71014 0.95046
 C1169 C 0.15076 0.18893 0.46038
 C1170 C 0.15259 0.20833 0.44194
 C1171 C 0.12885 0.21882 0.42730
 C1172 C 0.10310 0.21807 0.43640
 H1173 H 0.17226 0.21556 0.43531
 H1174 H 0.13314 0.22767 0.40793
 H1175 H 0.13084 0.18178 0.46652
 H1176 H 0.09882 0.21194 0.45683
 C1177 C 0.57769 0.10816 0.72565
 C1178 C 0.55130 0.11434 0.72812
 C1179 C 0.53943 0.13712 0.71355
 C1180 C 0.54696 0.14265 0.68822
 H1181 H 0.53832 0.10338 0.74185
 H1182 H 0.52317 0.14832 0.72327
 H1183 H 0.59089 0.12121 0.71402
 H1184 H 0.56112 0.12933 0.67779
 C1185 C 1.07684 0.59624 0.20363
 C1186 C 1.05655 0.59505 0.18548
 C1187 C 1.04670 0.61897 0.17123
 C1188 C 1.04836 0.64444 0.18127
 H1189 H 1.04872 0.57556 0.17839
 H1190 H 1.03723 0.61510 0.15171
 H1191 H 1.08646 0.61558 0.20860
 H1192 H 1.05518 0.64820 0.20187
 C1193 C 0.94415 0.88632 0.21135
 C1194 C 0.93436 0.86088 0.21268
 C1195 C 0.94756 0.83689 0.20012
 C1196 C 0.96523 0.83811 0.17947
 H1197 H 0.91611 0.85688 0.22423
 H1198 H 0.94128 0.81751 0.20780
 H1199 H 0.96378 0.89000 0.20212
 H1200 H 0.97127 0.85761 0.17183
 C1201 C 0.44954 0.38966 0.70606
 C1202 C 0.44002 0.36445 0.70982
 C1203 C 0.45068 0.33993 0.69611
 C1204 C 0.47551 0.33778 0.68507
 H1205 H 0.42200 0.36137 0.72199
 H1206 H 0.43693 0.32261 0.69524
 H1207 H 0.46784 0.39289 0.69433
 H1208 H 0.49053 0.35381 0.68799
 C1209 C 0.45557 0.59078 0.78113
 C1210 C 0.46046 0.61219 0.76554
 C1211 C 0.47219 0.63808 0.77635
 C1212 C 0.46848 0.64660 0.80207
 H1213 H 0.45552 0.61119 0.74423
 H1214 H 0.48311 0.65062 0.76230
 H1215 H 0.46131 0.59184 0.80226
 H1216 H 0.45660 0.63413 0.81547
 C1217 C -0.04309 0.08623 0.28625
 C1218 C -0.03164 0.09111 0.31054
 C1219 C -0.01951 0.11726 0.31977
 C1220 C -0.02354 0.14107 0.30796
 H1221 H -0.03138 0.07517 0.32515
 H1222 H -0.00831 0.11681 0.33860
 H1223 H -0.04139 0.10099 0.27054
 H1224 H -0.03404 0.14185 0.28878
 C1225 C 0.07501 0.39103 0.26623
 C1226 C 0.08836 0.37162 0.27905
 C1227 C 0.07623 0.34630 0.28900
 C1228 C 0.04955 0.34209 0.29339
 H1229 H 0.10990 0.37447 0.28321
 H1230 H 0.09070 0.33141 0.29543
 H1231 H 0.05421 0.38785 0.25953
 H1232 H 0.03470 0.35636 0.28645
 C1233 C 0.57706 0.90152 0.77891
 C1234 C 0.59057 0.88104 0.78979
 C1235 C 0.57885 0.85432 0.79620
 C1236 C 0.55218 0.84897 0.79927
 H1237 H 0.61191 0.88391 0.79484
 H1238 H 0.59357 0.83907 0.80110
 H1239 H 0.55654 0.89861 0.77130
 H1240 H 0.53718 0.86374 0.79376
 C1241 C 0.70112 0.58108 0.10631
 C1242 C 0.69117 0.59754 0.12767
 C1243 C 0.67782 0.58826 0.15067
 C1244 C 0.67622 0.56123 0.15863
 H1245 H 0.69171 0.61930 0.12629
 H1246 H 0.66934 0.60397 0.16361
 H1247 H 0.69723 0.55949 0.10698
 H1248 H 0.68851 0.54627 0.14812
 C1249 C 0.20280 1.06109 0.60199
 C1250 C 0.20661 1.03539 0.60905
 C1251 C 0.19384 1.02423 0.63350
 C1252 C 0.16900 1.03179 0.64177
 H1253 H 0.22043 1.02257 0.59767
 H1254 H 0.20455 1.00851 0.64385
 H1255 H 0.19121 1.07438 0.61529
 H1256 H 0.15742 1.04539 0.62946
 C1257 C 0.20569 0.93061 0.88256
 C1258 C 0.19725 0.91592 0.85919
 C1259 C 0.18336 0.92657 0.83724
 C1260 C 0.17899 0.95413 0.83278
 H1261 H 0.19964 0.89427 0.85779
 H1262 H 0.17644 0.91168 0.82231
 H1263 H 0.20109 0.95198 0.88388
 H1264 H 0.18992 0.96913 0.84503
 C1265 C 0.70439 0.44059 0.39100
 C1266 C 0.70719 0.46739 0.38784
 C1267 C 0.69348 0.48239 0.36626
 C1268 C 0.68386 0.47079 0.34326
 H1269 H 0.71909 0.47945 0.40218
 H1270 H 0.69199 0.50402 0.36965
 H1271 H 0.69236 0.42859 0.37672
 H1272 H 0.68772 0.44961 0.33893
 C1273 C 0.77738 0.43704 0.58851
 C1274 C 0.80157 0.44916 0.59311
 C1275 C 0.81068 0.46121 0.61926
 C1276 C 0.79878 0.45706 0.64327
 H1277 H 0.81617 0.45030 0.57678
 H1278 H 0.82952 0.47277 0.61851
 H1279 H 0.76159 0.43772 0.60375
 H1280 H 0.77949 0.44636 0.64444
 C1281 C 0.28621 -0.04800 0.07987
 C1282 C 0.27035 -0.04445 0.10176
 C1283 C 0.28046 -0.03258 0.12776
 C1284 C 0.30655 -0.03426 0.13571
 H1285 H 0.24918 -0.05074 0.10113
 H1286 H 0.26546 -0.02344 0.14098
 H1287 H 0.30721 -0.04110 0.08057
 H1288 H 0.32107 -0.04422 0.12248
 C1289 C 0.26266 0.05952 0.39281
 C1290 C 0.27199 0.07501 0.37290
 C1291 C 0.27972 0.06525 0.34560
 C1292 C 0.28704 0.03975 0.33941
 H1293 H 0.27477 0.09656 0.37684
 H1294 H 0.28230 0.08082 0.33080
 H1295 H 0.25716 0.03848 0.38900
 H1296 H 0.28401 0.02392 0.35389
 C1297 C 0.77097 0.55752 0.90177
 C1298 C 0.78301 0.57128 0.88196
 C1299 C 0.79046 0.56023 0.85502
 C1300 C 0.79358 0.53385 0.84873
 H1301 H 0.78800 0.59252 0.88550
 H1302 H 0.79590 0.57525 0.84036
 H1303 H 0.76335 0.53709 0.89820
 H1304 H 0.78750 0.51858 0.86290
 C1305 C 0.09282 0.69293 0.56580
 C1306 C 0.10620 0.67155 0.57507
 C1307 C 0.13023 0.65944 0.56186
 C1308 C 0.14720 0.67272 0.54542
 H1309 H 0.09852 0.66115 0.59253
 H1310 H 0.13499 0.63908 0.56775
 H1311 H 0.09879 0.70168 0.54682
 H1312 H 0.14404 0.69395 0.54168
 C1313 C 0.60213 0.21899 1.09226
 C1314 C 0.61871 0.20331 1.10651
 C1315 C 0.64207 0.18850 1.09495
 C1316 C 0.65568 0.19580 1.07275
 H1317 H 0.61391 0.19910 1.12735
 H1318 H 0.64897 0.17145 1.10632
 H1319 H 0.60527 0.22099 1.07074
 H1320 H 0.65059 0.21440 1.06289
 C1321 C 0.89397 0.21361 0.94868
 C1322 C 0.89381 0.20866 0.97657
 C1323 C 0.87135 0.19835 0.99071
 C1324 C 0.84483 0.19546 0.98019
 H1325 H 0.91223 0.21111 0.98833
 H1326 H 0.87540 0.19281 1.01129
 H1327 H 0.87555 0.20911 0.93738
 H1328 H 0.84008 0.20497 0.96136
 C1329 C 0.39419 0.72459 0.45421
 C1330 C 0.39535 0.69805 0.45907
 C1331 C 0.37154 0.68163 0.46698
 C1332 C 0.35025 0.69131 0.48097
 H1333 H 0.41360 0.68694 0.45401
 H1334 H 0.37206 0.66031 0.46135
 H1335 H 0.37504 0.73507 0.45649
 H1336 H 0.35073 0.71186 0.48916
 C1337 C 0.58973 0.81216 0.45495
 C1338 C 0.61147 0.79646 0.45892
 C1339 C 0.63714 0.80633 0.47172
 C1340 C 0.64523 0.83239 0.47190
 H1341 H 0.61100 0.77537 0.45255
 H1342 H 0.65004 0.79109 0.48011
 H1343 H 0.59027 0.83310 0.46189
 H1344 H 0.63236 0.84726 0.46279
 C1345 C 0.09668 0.28350 -0.07064
 C1346 C 0.11309 0.30105 -0.08328
 C1347 C 0.13949 0.31165 -0.07295
 C1348 C 0.15284 0.30267 -0.05133
 H1349 H 0.10667 0.30919 -0.10234
 H1350 H 0.14829 0.32797 -0.08437
 H1351 H 0.10310 0.27421 -0.05218
 H1352 H 0.14554 0.28499 -0.04097
 C1353 C 0.39910 0.28685 0.07370
 C1354 C 0.39199 0.27449 0.05025
 C1355 C 0.36845 0.28340 0.03424
 C1356 C 0.34574 0.29327 0.04568
 H1357 H 0.40513 0.25944 0.04105
 H1358 H 0.37003 0.28150 0.01245
 H1359 H 0.38719 0.30383 0.08109
 H1360 H 0.34330 0.29244 0.06743
 C1361 C 0.90139 0.78447 0.55353
 C1362 C 0.87873 0.77204 0.54410
 C1363 C 0.85532 0.78722 0.53371
 C1364 C 0.84837 0.81136 0.54445
 H1365 H 0.87713 0.75017 0.54360
 H1366 H 0.84233 0.77712 0.51883
 H1367 H 0.90372 0.80614 0.55126
 H1368 H 0.86012 0.81972 0.56132
   
