data_POSCAR
  _audit_creation_date              2014-09-24
  _audit_creation_method            'ToBaCCo'
  _symmetry_space_group_name_H-M    'P1'
  _symmetry_Int_Tables_number       1
  _symmetry_cell_setting            triclinic
  loop_
  _symmetry_equiv_pos_as_xyz
 x,y,z
_cell_length_a 101.0972
_cell_length_b 101.2262
_cell_length_c 100.8348
_cell_angle_alpha 90.024900
_cell_angle_beta 90.031700
_cell_angle_gamma 90.055300
loop_
  _atom_site_label
  _atom_site_type_symbol
  _atom_site_fract_x
  _atom_site_fract_y
  _atom_site_fract_z
C1 C 0.31258 0.43771 0.92210
 N2 N 0.32364 0.44302 0.92758
 C3 C 0.32903 0.43748 0.93859
 N4 N 0.32343 0.42657 0.94403
 C5 C 0.31238 0.42126 0.93855
 N6 N 0.30699 0.42679 0.92755
 C7 C 0.44196 0.82667 0.44258
 N8 N 0.44753 0.82124 0.43162
 C9 C 0.44218 0.81023 0.42611
 N10 N 0.43116 0.80473 0.43148
 C11 C 0.42560 0.81016 0.44245
 N12 N 0.43095 0.82117 0.44794
 C13 C 0.93874 0.92187 0.81201
 N14 N 0.94410 0.92737 0.82305
 C15 C 0.93852 0.93827 0.82852
 N16 N 0.92750 0.94360 0.82301
 C17 C 0.92214 0.93811 0.81197
 N18 N 0.92772 0.92721 0.80650
 C19 C 0.44194 -0.07480 0.30834
 N20 N 0.44724 -0.06921 0.31936
 C21 C 0.44166 -0.05824 0.32469
 N22 N 0.43067 -0.05295 0.31908
 C23 C 0.42536 -0.05853 0.30806
 N24 N 0.43095 -0.06951 0.30274
 C25 C 0.80941 0.30982 0.32559
 N26 N 0.82056 0.30465 0.32020
 C27 C 0.82626 0.31054 0.30955
 N28 N 0.82087 0.32167 0.30436
 C29 C 0.80971 0.32684 0.30974
 N30 N 0.80402 0.32095 0.32040
 C31 C -0.19013 0.82689 0.80885
 N32 N -0.17901 0.82139 0.80373
 C33 C -0.17389 0.81029 0.80926
 N34 N -0.17982 0.80476 0.81997
 C35 C -0.19094 0.81026 0.82509
 N36 N -0.19606 0.82136 0.81957
 C37 C 0.94066 0.32590 0.44010
 N38 N 0.93002 0.32009 0.44588
 C39 C 0.92473 0.30897 0.44054
 N40 N 0.92999 0.30373 0.42933
 C41 C 0.94062 0.30954 0.42354
 N42 N 0.94592 0.32066 0.42889
 C43 C 0.43858 0.43850 0.82793
 N44 N 0.42761 0.44403 0.82251
 C45 C 0.42207 0.43865 0.81150
 N46 N 0.42740 0.42764 0.80599
 C47 C 0.43837 0.42210 0.81140
 N48 N 0.44392 0.42749 0.82241
 C49 C 0.81041 0.92474 0.94089
 N50 N 0.82143 0.93035 0.94614
 C51 C 0.82681 0.94122 0.94039
 N52 N 0.82125 0.94639 0.92930
 C53 C 0.81023 0.94078 0.92403
 N54 N 0.80486 0.92992 0.92979
 C55 C 0.30746 0.82464 0.30660
 N56 N 0.31849 0.81933 0.30109
 C57 C 0.32399 0.80831 0.30640
 N58 N 0.31855 0.80269 0.31733
 C59 C 0.30753 0.80799 0.32285
 N60 N 0.30204 0.81901 0.31754
 C61 C 0.81014 0.42445 0.44062
 N62 N 0.82112 0.43012 0.44590
 C63 C 0.82649 0.44097 0.44010
 N64 N 0.82098 0.44605 0.42895
 C65 C 0.81001 0.44038 0.42366
 N66 N 0.80463 0.42953 0.42946
 C67 C 0.94106 0.82756 -0.06119
 N68 N 0.94624 0.82210 -0.07234
 C69 C 0.94076 0.81100 -0.07755
 N70 N 0.93003 0.80545 -0.07170
 C71 C 0.92485 0.81091 -0.06056
 N72 N 0.93033 0.82200 -0.05535
 C73 C 0.31143 0.32816 0.81249
 N74 N 0.30576 0.32254 0.82330
 C75 C 0.31108 0.31148 0.82871
 N76 N 0.32215 0.30609 0.82336
 C77 C 0.32783 0.31171 0.81255
 N78 N 0.32251 0.32277 0.80715
 C79 C 0.17609 0.55892 0.55719
 N80 N 0.18148 0.57013 0.55216
 C81 C 0.19220 0.57566 0.55807
 N82 N 0.19744 0.57006 0.56912
 C83 C 0.19205 0.55886 0.57416
 N84 N 0.18133 0.55333 0.56824
 C85 C 0.57764 0.69016 0.06066
 N86 N 0.57218 0.69550 0.07172
 C87 C 0.56115 0.69004 0.07708
 N88 N 0.55565 0.67916 0.07145
 C89 C 0.56111 0.67382 0.06038
 N90 N 0.57214 0.67928 0.05503
 C91 C 0.69125 0.19146 0.67514
 N92 N 0.68037 0.19676 0.68093
 C93 C 0.67531 0.19124 0.69209
 N94 N 0.68104 0.18032 0.69737
 C95 C 0.69193 0.17502 0.69158
 N96 N 0.69698 0.18055 0.68042
 C97 C 1.07575 0.05806 0.19172
 N98 N 1.07016 0.06903 0.19705
 C99 C 1.05891 0.07405 0.19172
 N100 N 1.05333 0.06819 0.18098
 C101 C 1.05892 0.05722 0.17565
 N102 N 1.07016 0.05220 0.18098
 C103 C 0.05661 0.17594 1.05685
 N104 N 0.06750 0.18156 1.05138
 C105 C 0.07282 0.19261 1.05686
 N106 N 0.06732 0.19795 1.06790
 C107 C 0.05642 0.19233 1.07338
 N108 N 0.05111 0.18128 1.06789
 C109 C 0.17488 0.69142 0.69051
 N110 N 0.18039 0.69683 0.67951
 C111 C 0.19141 0.69138 0.67413
 N112 N 0.19683 0.68043 0.67966
 C113 C 0.19132 0.67501 0.69066
 N114 N 0.18030 0.68046 0.69604
 C115 C 1.19171 0.17404 0.19227
 N116 N 1.19740 0.17977 0.18152
 C117 C 1.19213 0.19094 0.17628
 N118 N 1.18108 0.19629 0.18170
 C119 C 1.17539 0.19056 0.19245
 N120 N 1.18067 0.17940 0.19768
 C121 C 0.67492 1.05992 0.55808
 N122 N 0.68031 1.05422 0.56899
 C123 C 0.69110 1.05969 0.57483
 N124 N 0.69643 1.07094 0.56984
 C125 C 0.69104 1.07666 0.55893
 N126 N 0.68025 1.07118 0.55309
 C127 C 0.55826 0.55937 0.17566
 N128 N 0.56923 0.55413 0.18134
 C129 C 0.57452 0.55980 0.19233
 N130 N 0.56893 0.57082 0.19754
 C131 C 0.55795 0.57607 0.19187
 N132 N 0.55267 0.57039 0.18088
 C133 C 0.67396 0.69052 0.18984
 N134 N 0.67963 0.67968 0.19534
 C135 C 0.69069 0.67441 0.18985
 N136 N 0.69599 0.67990 0.17878
 C137 C 0.69032 0.69074 0.17328
 N138 N 0.67927 0.69601 0.17877
 C139 C 0.17488 0.05823 1.05848
 N140 N 0.18073 0.06907 1.05314
 C141 C 0.19165 0.07433 1.05893
 N142 N 0.19664 0.06884 1.07014
 C143 C 0.19080 0.05801 1.07549
 N144 N 0.17988 0.05274 1.06969
 C145 C 0.57544 0.19208 0.55888
 N146 N 0.57002 0.19756 0.56988
 C147 C 0.55894 0.19225 0.57529
 N148 N 0.55337 0.18135 0.56978
 C149 C 0.55878 0.17586 0.55877
 N150 N 0.56986 0.18118 0.55336
 C151 C 0.07341 0.55746 0.69283
 N152 N 0.06789 0.56854 0.69800
 C153 C 0.05682 0.57372 0.69243
 N154 N 0.05138 0.56791 0.68160
 C155 C 0.05689 0.55684 0.67642
 N156 N 0.06796 0.55166 0.68199
 C157 C 0.67615 0.55940 0.05672
 N158 N 0.68159 0.57055 0.05161
 C159 C 0.69236 0.57605 0.05747
 N160 N 0.69760 0.57046 0.06851
 C161 C 0.69216 0.55931 0.07362
 N162 N 0.68139 0.55383 0.06777
 C163 C 0.05837 0.69166 0.57345
 N164 N 0.06954 0.69701 0.56828
 C165 C 0.07511 0.69167 0.55728
 N166 N 0.06958 0.68087 0.55153
 C167 C 0.05840 0.67551 0.55669
 N168 N 0.05284 0.68086 0.56770
 C169 C 0.55725 1.05774 0.67566
 N170 N 0.56820 1.05209 0.68097
 C171 C 0.57386 1.05737 0.69197
 N172 N 0.56865 1.06839 0.69758
 C173 C 0.55769 1.07404 0.69227
 N174 N 0.55203 1.06875 0.68127
 C175 C 0.43853 0.32787 0.94034
 N176 N 0.44393 0.32233 0.92934
 C177 C 0.43850 0.31125 0.92405
 N178 N 0.42762 0.30578 0.92969
 C179 C 0.42222 0.31131 0.94068
 N180 N 0.42765 0.32239 0.94597
 C181 C 0.93879 0.43771 0.32764
 N182 N 0.92775 0.44322 0.32236
 C183 C 0.92208 0.43782 0.31143
 N184 N 0.92737 0.42684 0.30584
 C185 C 0.93841 0.42132 0.31112
 N186 N 0.94409 0.42672 0.32205
 C187 C 0.30904 0.94213 0.42567
 N188 N 0.32018 0.94751 0.43091
 C189 C 0.32570 0.94217 0.44195
 N190 N 0.32016 0.93135 0.44764
 C191 C 0.30902 0.92597 0.44240
 N192 N 0.30351 0.93131 0.43136
 O193 O 0.21431 0.51725 0.74922
 O194 O 0.21872 0.51579 0.77185
 O195 O 0.24892 0.53523 0.73275
 O196 O 0.27068 0.53132 0.73211
 O197 O 0.23238 0.50024 0.71472
 O198 O 0.23337 0.47732 0.71998
 O199 O 0.28424 0.49998 0.76726
 O200 O 0.28044 0.52242 0.76433
 O201 O 0.25095 0.48361 0.78487
 O202 O 0.22705 0.48442 0.78050
 O203 O 0.26679 0.46578 0.75138
 O204 O 0.26595 0.46996 0.72760
 O205 O 0.28421 0.48375 0.75157
 O206 O 0.27926 0.48479 0.72692
 O207 O 0.25090 0.46582 0.76737
 O208 O 0.22649 0.47074 0.76595
 O209 O 0.26704 0.49937 0.78449
 O210 O 0.26243 0.52323 0.77994
 O211 O 0.21411 0.50083 0.73369
 O212 O 0.21914 0.47739 0.73513
 O213 O 0.24826 0.51621 0.71430
 O214 O 0.27223 0.51424 0.71961
 O215 O 0.23279 0.53539 0.74852
 O216 O 0.23589 0.53048 0.77248
 Zr217 Zr 0.23357 0.51639 0.75705
 O218 O 0.24519 0.50477 0.76988
 Zr219 Zr 0.25659 0.51594 0.73346
 O220 O 0.26936 0.50473 0.74552
 Zr221 Zr 0.23333 0.49271 0.73415
 O222 O 0.24526 0.48024 0.74585
 Zr223 Zr 0.26523 0.50809 0.76564
 O224 O 0.25368 0.52075 0.75360
 Zr225 Zr 0.24216 0.48463 0.76597
 O226 O 0.22923 0.49620 0.75428
 Zr227 Zr 0.26536 0.48457 0.74261
 O228 O 0.25342 0.49576 0.72949
 O229 O 0.23664 0.51274 0.73699
 O230 O 0.26220 0.48794 0.76270
 C231 C 0.20862 0.51026 0.74022
 C232 C 0.23963 0.54088 0.73932
 C233 C 0.23902 0.50935 0.70889
 C234 C 0.28967 0.49039 0.76097
 C235 C 0.26061 0.48999 0.79011
 C236 C 0.26040 0.46039 0.76095
 H237 H 0.24316 0.50706 0.77919
 H238 H 0.24316 0.47093 0.74378
 H239 H 0.23096 0.51830 0.73127
 H240 H 0.27865 0.50698 0.74346
 H241 H 0.27619 0.53074 0.76143
 H242 H 0.27743 0.52958 0.73898
 H243 H 0.22801 0.46450 0.75855
 H244 H 0.21466 0.47828 0.74381
 H245 H 0.27002 0.52297 0.78617
 H246 H 0.22886 0.53726 0.77162
 H247 H 0.25762 0.46486 0.72812
 H248 H 0.24223 0.47742 0.71581
 H249 H 0.21509 0.50671 0.77184
 H250 H 0.22785 0.49262 0.78577
 H251 H 0.27062 0.50605 0.71448
 H252 H 0.28553 0.49212 0.72856
 O253 O 0.26714 -0.03533 0.25054
 O254 O 0.26525 -0.03112 0.22793
 O255 O 0.28549 -0.00059 0.26636
 O256 O 0.28161 0.02116 0.26670
 O257 O 0.25098 -0.01694 0.28530
 O258 O 0.22792 -0.01606 0.28061
 O259 O 0.24932 0.03432 0.23230
 O260 O 0.27184 0.03058 0.23470
 O261 O 0.23265 0.00072 0.21534
 O262 O 0.23355 -0.02308 0.22005
 O263 O 0.21550 0.01696 0.24911
 O264 O 0.22023 0.01640 0.27277
 O265 O 0.23351 0.03444 0.24842
 O266 O 0.23509 0.02967 0.27305
 O267 O 0.21520 0.00094 0.23327
 O268 O 0.22015 -0.02339 0.23484
 O269 O 0.24836 0.01685 0.21518
 O270 O 0.27233 0.01245 0.21927
 O271 O 0.25111 -0.03540 0.26647
 O272 O 0.22759 -0.03038 0.26556
 O273 O 0.26692 -0.00101 0.28519
 O274 O 0.26479 0.02284 0.27969
 O275 O 0.28531 -0.01687 0.25075
 O276 O 0.27987 -0.01393 0.22685
 Zr277 Zr 0.26611 -0.01616 0.24259
 O278 O 0.25413 -0.00473 0.22994
 Zr279 Zr 0.26617 0.00708 0.26595
 O280 O 0.25462 0.01967 0.25404
 Zr281 Zr 0.24296 -0.01620 0.26605
 O282 O 0.23016 -0.00445 0.25453
 Zr283 Zr 0.25750 0.01535 0.23388
 O284 O 0.27050 0.00397 0.24574
 Zr285 Zr 0.23407 -0.00776 0.23434
 O286 O 0.24597 -0.02052 0.24589
 Zr287 Zr 0.23452 0.01567 0.25746
 O288 O 0.24608 0.00391 0.27043
 O289 O 0.26293 -0.01289 0.26270
 O290 O 0.23740 0.01231 0.23731
 C291 C 0.26038 -0.04094 0.25974
 C292 C 0.29099 -0.00996 0.25979
 C293 C 0.26022 -0.01020 0.29084
 C294 C 0.23993 0.03982 0.23884
 C295 C 0.23892 0.01027 0.20981
 C296 C 0.20989 0.01047 0.23974
 H297 H 0.25621 -0.00687 0.22060
 H298 H 0.22090 -0.00653 0.25684
 H299 H 0.26862 -0.01851 0.26834
 H300 H 0.25691 0.02897 0.25596
 H301 H 0.28023 0.02638 0.23749
 H302 H 0.27956 0.02795 0.25996
 H303 H 0.21408 -0.02178 0.24236
 H304 H 0.22828 -0.03495 0.25691
 H305 H 0.27191 0.01997 0.21298
 H306 H 0.28671 -0.02090 0.22764
 H307 H 0.21517 0.00804 0.27249
 H308 H 0.22808 -0.00715 0.28465
 H309 H 0.25616 -0.03476 0.22814
 H310 H 0.24159 -0.02230 0.21453
 H311 H 0.25673 0.02128 0.28503
 H312 H 0.24240 0.03591 0.27122
 O313 O 0.48391 0.78625 0.25157
 O314 O 0.48558 0.78194 0.22896
 O315 O 0.46535 0.75179 0.26767
 O316 O 0.46905 0.73004 0.26829
 O317 O 0.50038 0.76790 0.28617
 O318 O 0.52338 0.76666 0.28116
 O319 O 0.50066 0.71628 0.23349
 O320 O 0.47823 0.72033 0.23612
 O321 O 0.51759 0.74951 0.21613
 O322 O 0.51702 0.77333 0.22062
 O323 O 0.53494 0.73332 0.24977
 O324 O 0.53049 0.73413 0.27352
 O325 O 0.51672 0.71607 0.24938
 O326 O 0.51553 0.72097 0.27398
 O327 O 0.53524 0.74927 0.23387
 O328 O 0.53054 0.77369 0.23533
 O329 O 0.50167 0.73358 0.21626
 O330 O 0.47779 0.73836 0.22057
 O331 O 0.50019 0.78621 0.26727
 O332 O 0.52361 0.78096 0.26609
 O333 O 0.48421 0.75222 0.28636
 O334 O 0.48601 0.72827 0.28098
 O335 O 0.46555 0.76796 0.25196
 O336 O 0.47073 0.76492 0.22805
 Zr337 Zr 0.48467 0.76704 0.24366
 O338 O 0.49633 0.75537 0.23093
 Zr339 Zr 0.48461 0.74395 0.26717
 O340 O 0.49585 0.73114 0.25519
 Zr341 Zr 0.50812 0.76693 0.26683
 O342 O 0.52061 0.75495 0.25523
 Zr343 Zr 0.49276 0.73537 0.23504
 O344 O 0.48007 0.74699 0.24699
 Zr345 Zr 0.51648 0.75817 0.23507
 O346 O 0.50489 0.77116 0.24668
 Zr347 Zr 0.51604 0.73491 0.25833
 O348 O 0.50480 0.74689 0.27137
 O349 O 0.48806 0.76386 0.26375
 O350 O 0.51294 0.73817 0.23821
 C351 C 0.49088 0.79183 0.26066
 C352 C 0.45987 0.76114 0.26106
 C353 C 0.49112 0.76135 0.29187
 C354 C 0.51009 0.71071 0.23992
 C355 C 0.51116 0.73997 0.21076
 C356 C 0.54052 0.73971 0.24031
 H357 H 0.49416 0.75747 0.22160
 H358 H 0.52993 0.75694 0.25742
 H359 H 0.48248 0.76957 0.26942
 H360 H 0.49347 0.72188 0.25719
 H361 H 0.46992 0.72466 0.23897
 H362 H 0.47081 0.72329 0.26143
 H363 H 0.53667 0.77208 0.24280
 H364 H 0.52286 0.78548 0.25742
 H365 H 0.47805 0.73081 0.21432
 H366 H 0.46399 0.77200 0.22886
 H367 H 0.53573 0.74237 0.27304
 H368 H 0.52312 0.75780 0.28531
 H369 H 0.49471 0.78546 0.22908
 H370 H 0.50884 0.77267 0.21528
 H371 H 0.49416 0.72978 0.28622
 H372 H 0.50808 0.71485 0.27229
 O373 O 0.03476 0.73248 0.74805
 O374 O 0.03064 0.73410 0.77071
 O375 O -0.00024 0.71458 0.73214
 O376 O -0.02194 0.71868 0.73161
 O377 O 0.01642 0.74931 0.71367
 O378 O 0.01556 0.77228 0.71873
 O379 O -0.03484 0.75034 0.76675
 O380 O -0.03122 0.72786 0.76396
 O381 O -0.00115 0.76657 0.78391
 O382 O 0.02267 0.76560 0.77922
 O383 O -0.01736 0.78429 0.75051
 O384 O -0.01682 0.77998 0.72675
 O385 O -0.03491 0.76642 0.75092
 O386 O -0.03021 0.76520 0.72625
 O387 O -0.00127 0.78424 0.76631
 O388 O 0.02310 0.77918 0.76459
 O389 O -0.01738 0.75097 0.78382
 O390 O -0.01304 0.72704 0.77936
 O391 O 0.03488 0.74882 0.73246
 O392 O 0.02996 0.77230 0.73373
 O393 O 0.00044 0.73343 0.71353
 O394 O -0.02349 0.73570 0.71907
 O395 O 0.01612 0.71443 0.74770
 O396 O 0.01337 0.71955 0.77165
 Zr397 Zr 0.01560 0.73350 0.75610
 O398 O 0.00422 0.74529 0.76898
 Zr399 Zr -0.00771 0.73395 0.73276
 O400 O -0.02024 0.74533 0.74490
 Zr401 Zr 0.01570 0.75702 0.73304
 O402 O 0.00402 0.76965 0.74479
 Zr403 Zr -0.01590 0.74209 0.76500
 O404 O -0.00459 0.72927 0.75290
 Zr405 Zr 0.00735 0.76538 0.76490
 O406 O 0.02005 0.75364 0.75313
 Zr407 Zr -0.01615 0.76544 0.74181
 O408 O -0.00445 0.75407 0.72862
 O409 O 0.01231 0.73703 0.73605
 O410 O -0.01276 0.76220 0.76189
 C411 C 0.04039 0.73940 0.73898
 C412 C 0.00909 0.70891 0.73864
 C413 C 0.00968 0.74017 0.70799
 C414 C -0.04031 0.75988 0.76041
 C415 C -0.01078 0.76031 0.78932
 C416 C -0.01083 0.78969 0.75998
 H417 H 0.00636 0.74306 0.77828
 H418 H 0.00615 0.77894 0.74264
 H419 H 0.01789 0.73138 0.73032
 H420 H -0.02957 0.74312 0.74296
 H421 H -0.02705 0.71950 0.76103
 H422 H -0.02857 0.72047 0.73859
 H423 H 0.02148 0.78541 0.75721
 H424 H 0.03456 0.77146 0.74236
 H425 H -0.02054 0.72741 0.78568
 H426 H 0.02034 0.71271 0.77075
 H427 H -0.00845 0.78501 0.72713
 H428 H 0.00665 0.77219 0.71467
 H429 H 0.03434 0.74316 0.77060
 H430 H 0.02189 0.75744 0.78456
 H431 H -0.02183 0.74379 0.71381
 H432 H -0.03648 0.75790 0.72798
 O433 O 0.03521 0.01748 0.00127
 O434 O 0.03070 0.01591 -0.02134
 O435 O 0.00064 0.03526 0.01789
 O436 O -0.02111 0.03122 0.01860
 O437 O 0.01736 0.00038 0.03591
 O438 O 0.01653 -0.02253 0.03065
 O439 O -0.03470 -0.00035 -0.01638
 O440 O -0.03102 0.02210 -0.01352
 O441 O -0.00137 -0.01650 -0.03414
 O442 O 0.02254 -0.01551 -0.02987
 O443 O -0.01697 -0.03439 -0.00057
 O444 O -0.01600 -0.03011 0.02325
 O445 O -0.03452 -0.01654 -0.00066
 O446 O -0.02946 -0.01545 0.02392
 O447 O -0.00114 -0.03427 -0.01660
 O448 O 0.02323 -0.02916 -0.01532
 O449 O -0.01755 -0.00088 -0.03372
 O450 O -0.01311 0.02302 -0.02922
 O451 O 0.03558 0.00113 0.01685
 O452 O 0.03070 -0.02235 0.01546
 O453 O 0.00140 0.01624 0.03639
 O454 O -0.02255 0.01415 0.03115
 O455 O 0.01665 0.03547 0.00200
 O456 O 0.01345 0.03048 -0.02191
 Zr457 Zr 0.01592 0.01645 -0.00647
 O458 O 0.00431 0.00472 -0.01921
 Zr459 Zr -0.00697 0.01591 0.01724
 O460 O -0.01973 0.00456 0.00527
 Zr461 Zr 0.01641 -0.00716 0.01648
 O462 O 0.00450 -0.01975 0.00486
 Zr463 Zr -0.01573 0.00789 -0.01489
 O464 O -0.00419 0.02067 -0.00293
 Zr465 Zr 0.00748 -0.01539 -0.01529
 O466 O 0.02041 -0.00369 -0.00367
 Zr467 Zr -0.01561 -0.01557 0.00818
 O468 O -0.00367 -0.00424 0.02122
 O469 O 0.01298 0.01285 0.01362
 O470 O -0.01256 -0.01223 -0.01193
 C471 C 0.04098 0.01058 0.01026
 C472 C 0.00984 0.04095 0.01123
 C473 C 0.01066 0.00942 0.04177
 C474 C -0.04007 -0.00994 -0.01002
 C475 C -0.01107 -0.01021 -0.03937
 C476 C -0.01058 -0.03976 -0.01014
 H477 H 0.00629 0.00700 -0.02854
 H478 H 0.00666 -0.02904 0.00693
 H479 H 0.01865 0.01846 0.01932
 H480 H -0.02902 0.00675 0.00737
 H481 H -0.02680 0.03045 -0.01063
 H482 H -0.02794 0.02937 0.01183
 H483 H 0.02179 -0.03537 -0.00790
 H484 H 0.03513 -0.02144 0.00675
 H485 H -0.02072 0.02269 -0.03541
 H486 H 0.02046 0.03730 -0.02111
 H487 H -0.00771 -0.03525 0.02260
 H488 H 0.00767 -0.02252 0.03484
 H489 H 0.03442 0.00687 -0.02130
 H490 H 0.02167 -0.00732 -0.03515
 H491 H -0.02094 0.00595 0.03623
 H492 H -0.03575 -0.00815 0.02233
 O493 O 0.03617 0.51685 0.50007
 O494 O 0.03184 0.51496 0.47749
 O495 O 0.00159 0.53514 0.51616
 O496 O -0.02017 0.53126 0.51673
 O497 O 0.01792 0.50041 0.53487
 O498 O 0.01705 0.47746 0.52997
 O499 O -0.03375 0.49926 0.48223
 O500 O -0.02989 0.52172 0.48471
 O501 O -0.00038 0.48256 0.46496
 O502 O 0.02349 0.48344 0.46940
 O503 O -0.01636 0.46533 0.49869
 O504 O -0.01556 0.46997 0.52244
 O505 O -0.03380 0.48333 0.49822
 O506 O -0.02887 0.48475 0.52280
 O507 O -0.00040 0.46507 0.48279
 O508 O 0.02399 0.47004 0.48417
 O509 O -0.01647 0.49829 0.46500
 O510 O -0.01185 0.52223 0.46914
 O511 O 0.03633 0.50076 0.51592
 O512 O 0.03127 0.47728 0.51486
 O513 O 0.00208 0.51639 0.53497
 O514 O -0.02182 0.51443 0.52959
 O515 O 0.01771 0.53500 0.50037
 O516 O 0.01469 0.52962 0.47652
 Zr517 Zr 0.01693 0.51584 0.49222
 O518 O 0.00534 0.50397 0.47958
 Zr519 Zr -0.00613 0.51583 0.51576
 O520 O -0.01888 0.50438 0.50388
 Zr521 Zr 0.01709 0.49260 0.51555
 O522 O 0.00518 0.47991 0.50405
 Zr523 Zr -0.01471 0.50736 0.48370
 O524 O -0.00317 0.52025 0.49554
 Zr525 Zr 0.00834 0.48391 0.48386
 O526 O 0.02125 0.49571 0.49537
 Zr527 Zr -0.01493 0.48428 0.50715
 O528 O -0.00300 0.49573 0.52009
 O529 O 0.01383 0.51258 0.51235
 O530 O -0.01172 0.48726 0.48701
 C531 C 0.04184 0.51005 0.50920
 C532 C 0.01087 0.54066 0.50947
 C533 C 0.01122 0.50957 0.54055
 C534 C -0.03924 0.48983 0.48872
 C535 C -0.01000 0.48884 0.45955
 C536 C -0.00993 0.45975 0.48927
 H537 H 0.00740 0.50609 0.47023
 H538 H 0.00725 0.47064 0.50630
 H539 H 0.01949 0.51824 0.51800
 H540 H -0.02817 0.50667 0.50588
 H541 H -0.02562 0.53008 0.48750
 H542 H -0.02698 0.52932 0.50996
 H543 H 0.02246 0.46396 0.49169
 H544 H 0.03579 0.47804 0.50618
 H545 H -0.01943 0.52186 0.46290
 H546 H 0.02173 0.53641 0.47727
 H547 H -0.00730 0.46476 0.52194
 H548 H 0.00814 0.47751 0.53403
 H549 H 0.03545 0.50588 0.47767
 H550 H 0.02272 0.49154 0.46397
 H551 H -0.02031 0.50630 0.53481
 H552 H -0.03508 0.49210 0.52107
 O553 O 0.53512 0.01831 0.50054
 O554 O 0.53079 0.01667 0.47795
 O555 O 0.50032 0.03638 0.51665
 O556 O 0.47857 0.03238 0.51713
 O557 O 0.51683 0.00173 0.53522
 O558 O 0.51596 -0.02125 0.53024
 O559 O 0.46533 0.00048 0.48233
 O560 O 0.46899 0.02293 0.48498
 O561 O 0.49890 -0.01584 0.46508
 O562 O 0.52275 -0.01489 0.46972
 O563 O 0.48290 -0.03344 0.49880
 O564 O 0.48347 -0.02889 0.52247
 O565 O 0.46531 -0.01550 0.49826
 O566 O 0.47012 -0.01417 0.52288
 O567 O 0.49887 -0.03352 0.48290
 O568 O 0.52317 -0.02844 0.48433
 O569 O 0.48278 -0.00016 0.46514
 O570 O 0.48712 0.02373 0.46954
 O571 O 0.53527 0.00211 0.51628
 O572 O 0.53029 -0.02132 0.51520
 O573 O 0.50085 0.01758 0.53533
 O574 O 0.47696 0.01545 0.52983
 O575 O 0.51657 0.03643 0.50100
 O576 O 0.51358 0.03122 0.47708
 Zr577 Zr 0.51587 0.01733 0.49267
 O578 O 0.50439 0.00547 0.47992
 Zr579 Zr 0.49270 0.01705 0.51609
 O580 O 0.48007 0.00560 0.50409
 Zr581 Zr 0.51605 -0.00605 0.51587
 O582 O 0.50427 -0.01873 0.50424
 Zr583 Zr 0.48431 0.00871 0.48395
 O584 O 0.49572 0.02160 0.49592
 Zr585 Zr 0.50748 -0.01461 0.48407
 O586 O 0.52027 -0.00280 0.49572
 Zr587 Zr 0.48413 -0.01449 0.50727
 O588 O 0.49592 -0.00305 0.52034
 O589 O 0.51270 0.01393 0.51276
 O590 O 0.48739 -0.01139 0.48714
 C591 C 0.54079 0.01143 0.50961
 C592 C 0.50964 0.04199 0.51009
 C593 C 0.51005 0.01084 0.54090
 C594 C 0.45986 -0.00900 0.48877
 C595 C 0.48934 -0.00951 0.45964
 C596 C 0.48941 -0.03895 0.48940
 H597 H 0.50650 0.00766 0.47059
 H598 H 0.50639 -0.02800 0.50645
 H599 H 0.51834 0.01958 0.51845
 H600 H 0.47076 0.00783 0.50606
 H601 H 0.47317 0.03131 0.48785
 H602 H 0.47186 0.03051 0.51026
 H603 H 0.52169 -0.03451 0.49187
 H604 H 0.53478 -0.02057 0.50652
 H605 H 0.47958 0.02337 0.46325
 H606 H 0.52056 0.03807 0.47791
 H607 H 0.49185 -0.03391 0.52213
 H608 H 0.50707 -0.02112 0.53436
 H609 H 0.53445 0.00761 0.47805
 H610 H 0.52192 -0.00680 0.46429
 H611 H 0.47854 0.00734 0.53508
 H612 H 0.46388 -0.00685 0.52115
 O613 O 0.50145 0.53505 0.01762
 O614 O 0.47888 0.53065 0.01615
 O615 O 0.51799 0.50033 0.03512
 O616 O 0.51859 0.47864 0.03091
 O617 O 0.53581 0.51729 0.00018
 O618 O 0.53048 0.51660 -0.02282
 O619 O 0.48349 0.46542 -0.00068
 O620 O 0.48645 0.46894 0.02188
 O621 O 0.46581 0.49888 -0.01659
 O622 O 0.47017 0.52275 -0.01543
 O623 O 0.49914 0.48331 -0.03479
 O624 O 0.52288 0.48416 -0.03067
 O625 O 0.49909 0.46567 -0.01700
 O626 O 0.52367 0.47069 -0.01596
 O627 O 0.48319 0.49916 -0.03448
 O628 O 0.48462 0.52348 -0.02922
 O629 O 0.46626 0.48258 -0.00104
 O630 O 0.47088 0.48688 0.02299
 O631 O 0.51688 0.53550 0.00111
 O632 O 0.51536 0.53079 -0.02250
 O633 O 0.53633 0.50123 0.01599
 O634 O 0.53103 0.47731 0.01370
 O635 O 0.50221 0.51638 0.03555
 O636 O 0.47830 0.51329 0.03063
 Zr637 Zr 0.49364 0.51582 0.01649
 O638 O 0.48082 0.50436 0.00469
 Zr639 Zr 0.51721 0.49289 0.01565
 O640 O 0.50516 0.48027 0.00424
 Zr641 Zr 0.51641 0.51641 -0.00733
 O642 O 0.50471 0.50465 -0.01999
 Zr643 Zr 0.48509 0.48431 0.00772
 O644 O 0.49713 0.49570 0.02056
 Zr645 Zr 0.48465 0.50766 -0.01549
 O646 O 0.49634 0.52044 -0.00372
 Zr647 Zr 0.50798 0.48453 -0.01595
 O648 O 0.52109 0.49633 -0.00457
 O649 O 0.51364 0.51285 0.01274
 O650 O 0.48795 0.48761 -0.01247
 C651 C 0.51040 0.54084 0.01069
 C652 C 0.51143 0.50951 0.04093
 C653 C 0.54167 0.51056 0.00921
 C654 C 0.48975 0.46012 -0.01038
 C655 C 0.46061 0.48913 -0.01035
 C656 C 0.48957 0.48974 -0.04008
 H657 H 0.47154 0.50634 0.00704
 H658 H 0.50674 0.50686 -0.02932
 H659 H 0.51936 0.51845 0.01838
 H660 H 0.50723 0.47096 0.00636
 H661 H 0.48942 0.47308 0.03027
 H662 H 0.51180 0.47186 0.02904
 H663 H 0.49196 0.52203 -0.03553
 H664 H 0.50670 0.53523 -0.02152
 H665 H 0.46466 0.47931 0.02262
 H666 H 0.47917 0.52022 0.03754
 H667 H 0.52230 0.49252 -0.03571
 H668 H 0.53462 0.50774 -0.02289
 H669 H 0.47887 0.53442 0.00709
 H670 H 0.46494 0.52184 -0.00720
 H671 H 0.53610 0.47901 0.00548
 H672 H 0.52205 0.46430 -0.00872
 O673 O 0.76762 0.28533 0.49920
 O674 O 0.76574 0.28127 0.52185
 O675 O 0.78574 0.25054 0.48347
 O676 O 0.78176 0.22880 0.48314
 O677 O 0.75099 0.26678 0.46465
 O678 O 0.72802 0.26607 0.46958
 O679 O 0.74976 0.21577 0.51785
 O680 O 0.77224 0.21949 0.51525
 O681 O 0.73326 0.24937 0.53480
 O682 O 0.73418 0.27314 0.53010
 O683 O 0.71580 0.23311 0.50120
 O684 O 0.72037 0.23354 0.47752
 O685 O 0.73378 0.21560 0.50188
 O686 O 0.73517 0.22027 0.47720
 O687 O 0.71565 0.24922 0.51695
 O688 O 0.72073 0.27352 0.51536
 O689 O 0.74897 0.23327 0.53490
 O690 O 0.77292 0.23769 0.53062
 O691 O 0.75146 0.28535 0.48338
 O692 O 0.72791 0.28040 0.48459
 O693 O 0.76696 0.25092 0.46470
 O694 O 0.76486 0.22710 0.47030
 O695 O 0.78569 0.26683 0.49907
 O696 O 0.78038 0.26410 0.52296
 Zr697 Zr 0.76654 0.26622 0.50727
 O698 O 0.75466 0.25482 0.52005
 Zr699 Zr 0.76637 0.24290 0.48398
 O700 O 0.75489 0.23035 0.49602
 Zr701 Zr 0.74321 0.26619 0.48399
 O702 O 0.73049 0.25447 0.49563
 Zr703 Zr 0.75795 0.23474 0.51614
 O704 O 0.77087 0.24608 0.50416
 Zr705 Zr 0.73457 0.25784 0.51579
 O706 O 0.74639 0.27057 0.50411
 Zr707 Zr 0.73477 0.23434 0.49274
 O708 O 0.74625 0.24606 0.47966
 O709 O 0.76320 0.26288 0.48719
 O710 O 0.73783 0.23776 0.51285
 C711 C 0.76081 0.29090 0.49000
 C712 C 0.79132 0.25987 0.49004
 C713 C 0.76016 0.26003 0.45905
 C714 C 0.74028 0.21025 0.51142
 C715 C 0.73956 0.23984 0.54031
 C716 C 0.71026 0.23968 0.51055
 H717 H 0.75681 0.25698 0.52937
 H718 H 0.72121 0.25656 0.49338
 H719 H 0.76888 0.26846 0.48148
 H720 H 0.75714 0.22104 0.49411
 H721 H 0.78063 0.22367 0.51240
 H722 H 0.77979 0.22208 0.48996
 H723 H 0.71466 0.27197 0.50782
 H724 H 0.72877 0.28507 0.49318
 H725 H 0.77255 0.23018 0.53693
 H726 H 0.78720 0.27110 0.52212
 H727 H 0.71527 0.24187 0.47785
 H728 H 0.72801 0.25711 0.46563
 H729 H 0.75667 0.28493 0.52161
 H730 H 0.74234 0.27244 0.53548
 H731 H 0.75673 0.22862 0.46505
 H732 H 0.74250 0.21405 0.47900
 O733 O 0.78583 0.75213 -0.01807
 O734 O 0.78174 0.72957 -0.01656
 O735 O 0.75084 0.76798 -0.03592
 O736 O 0.72913 0.76844 -0.03181
 O737 O 0.76754 0.78629 -0.00108
 O738 O 0.76653 0.78117 0.02206
 O739 O 0.71625 0.73334 -0.00008
 O740 O 0.71980 0.73621 -0.02261
 O741 O 0.74996 0.71625 0.01606
 O742 O 0.77378 0.72100 0.01510
 O743 O 0.73379 0.74953 0.03403
 O744 O 0.73429 0.77318 0.02974
 O745 O 0.71621 0.74906 0.01613
 O746 O 0.72089 0.77368 0.01491
 O747 O 0.74987 0.73380 0.03393
 O748 O 0.77418 0.73545 0.02882
 O749 O 0.73375 0.71634 0.00038
 O750 O 0.73799 0.72095 -0.02363
 O751 O 0.78596 0.76762 -0.00161
 O752 O 0.78113 0.76639 0.02190
 O753 O 0.75151 0.78647 -0.01696
 O754 O 0.72756 0.78089 -0.01463
 O755 O 0.76717 0.75248 -0.03615
 O756 O 0.76439 0.72855 -0.03101
 Zr757 Zr 0.76666 0.74408 -0.01703
 O758 O 0.75529 0.73121 -0.00521
 Zr759 Zr 0.74336 0.76729 -0.01648
 O760 O 0.73084 0.75516 -0.00507
 Zr761 Zr 0.76679 0.76700 0.00665
 O762 O 0.75513 0.75524 0.01931
 Zr763 Zr 0.73517 0.73515 -0.00839
 O764 O 0.74648 0.74725 -0.02124
 Zr765 Zr 0.75844 0.73521 0.01496
 O766 O 0.77113 0.74699 0.00320
 Zr767 Zr 0.73496 0.75819 0.01512
 O768 O 0.74664 0.77137 0.00372
 O769 O 0.76337 0.76403 -0.01343
 O770 O 0.73833 0.73819 0.01180
 C771 C 0.79146 0.76117 -0.01111
 C772 C 0.76016 0.76153 -0.04164
 C773 C 0.76079 0.79197 -0.01022
 C774 C 0.71080 0.73962 0.00954
 C775 C 0.74037 0.71084 0.00972
 C776 C 0.74034 0.74011 0.03943
 H777 H 0.75743 0.72195 -0.00749
 H778 H 0.75727 0.75737 0.02863
 H779 H 0.76895 0.76975 -0.01909
 H780 H 0.72150 0.75708 -0.00726
 H781 H 0.72392 0.73925 -0.03098
 H782 H 0.72243 0.76157 -0.02996
 H783 H 0.77271 0.74294 0.03494
 H784 H 0.78563 0.75775 0.02114
 H785 H 0.73051 0.71462 -0.02326
 H786 H 0.77126 0.72952 -0.03797
 H787 H 0.74268 0.77283 0.03476
 H788 H 0.75769 0.78536 0.02178
 H789 H 0.78544 0.72964 -0.00747
 H790 H 0.77303 0.71574 0.00686
 H791 H 0.72925 0.78611 -0.00650
 H792 H 0.71448 0.77184 0.00773
 O793 O 0.99973 0.21371 0.23199
 O794 O 0.97723 0.21810 0.23393
 O795 O 1.01575 0.24833 0.21356
 O796 O 1.01653 0.27005 0.21754
 O797 O 1.03456 0.23179 0.24824
 O798 O 1.02986 0.23280 0.27138
 O799 O 0.98220 0.28352 0.24991
 O800 O 0.98460 0.27981 0.22731
 O801 O 0.96498 0.25019 0.26656
 O802 O 0.96940 0.22634 0.26565
 O803 O 0.99886 0.26608 0.28377
 O804 O 1.02251 0.26522 0.27895
 O805 O 0.99826 0.28350 0.26579
 O806 O 1.02277 0.27862 0.26417
 O807 O 0.98287 0.25024 0.28405
 O808 O 0.98416 0.22587 0.27909
 O809 O 0.96500 0.26626 0.25077
 O810 O 0.96905 0.26177 0.22673
 O811 O 1.01559 0.21351 0.24811
 O812 O 1.01479 0.21853 0.27163
 O813 O 1.03463 0.24766 0.23224
 O814 O 1.02938 0.27159 0.23439
 O815 O 1.00001 0.23221 0.21376
 O816 O 0.97624 0.23526 0.21928
 Zr817 Zr 0.99197 0.23295 0.23304
 O818 O 0.97947 0.24453 0.24502
 Zr819 Zr 1.01552 0.25596 0.23297
 O820 O 1.00378 0.26868 0.24454
 Zr821 Zr 1.01538 0.23272 0.25626
 O822 O 1.00401 0.24460 0.26907
 Zr823 Zr 0.98362 0.26456 0.24164
 O824 O 0.99533 0.25304 0.22863
 Zr825 Zr 0.98383 0.24149 0.26514
 O826 O 0.99522 0.22860 0.25323
 Zr827 Zr 1.00715 0.26468 0.26470
 O828 O 1.01996 0.25278 0.25312
 O829 O 1.01207 0.23602 0.23622
 O830 O 0.98703 0.26151 0.26179
 C831 C 1.00883 0.20802 0.23880
 C832 C 1.00903 0.23907 0.20804
 C833 C 1.04017 0.23844 0.23899
 C834 C 0.98872 0.28894 0.25938
 C835 C 0.95958 0.25979 0.26027
 C836 C 0.98943 0.25971 0.28938
 H837 H 0.97013 0.24249 0.24294
 H838 H 1.00629 0.24250 0.27837
 H839 H 1.01763 0.23035 0.23049
 H840 H 1.00578 0.27797 0.24226
 H841 H 0.98731 0.27559 0.21888
 H842 H 1.00970 0.27677 0.21944
 H843 H 0.99169 0.22740 0.28517
 H844 H 1.00608 0.21411 0.27100
 H845 H 0.96284 0.26934 0.22715
 H846 H 0.97695 0.22827 0.21242
 H847 H 1.02203 0.25695 0.28415
 H848 H 1.03404 0.24164 0.27116
 H849 H 0.97745 0.21446 0.24304
 H850 H 0.96395 0.22712 0.25754
 H851 H 1.03468 0.27000 0.24249
 H852 H 1.02100 0.28483 0.25681
 O853 O 0.74928 1.03489 0.73224
 O854 O 0.77177 1.03052 0.73396
 O855 O 0.73306 1.00010 0.71422
 O856 O 0.73242 0.97841 0.71834
 O857 O 0.71458 1.01691 0.74887
 O858 O 0.71947 1.01607 0.77198
 O859 O 0.76703 0.96524 0.75045
 O860 O 0.76444 0.96884 0.72786
 O861 O 0.78433 0.99873 0.76683
 O862 O 0.77991 1.02258 0.76571
 O863 O 0.75072 0.98295 0.78439
 O864 O 0.72709 0.98364 0.77987
 O865 O 0.75114 0.96535 0.76649
 O866 O 0.72655 0.97029 0.76502
 O867 O 0.76662 0.99887 0.78443
 O868 O 0.76524 1.02318 0.77924
 O869 O 0.78421 0.98251 0.75118
 O870 O 0.77999 0.98684 0.72711
 O871 O 0.73356 1.03521 0.74848
 O872 O 0.73452 1.03035 0.77204
 O873 O 0.71441 1.00087 0.73302
 O874 O 0.71972 0.97696 0.73534
 O875 O 0.74876 1.01627 0.71415
 O876 O 0.77261 1.01322 0.71945
 Zr877 Zr 0.75703 1.01566 0.73334
 O878 O 0.76967 1.00421 0.74532
 Zr879 Zr 0.73353 0.99261 0.73367
 O880 O 0.74541 0.98001 0.74523
 Zr881 Zr 0.73384 1.01605 0.75676
 O882 O 0.74535 1.00430 0.76957
 Zr883 Zr 0.76553 0.98416 0.74212
 O884 O 0.75367 0.99553 0.72912
 Zr885 Zr 0.76548 1.00742 0.76544
 O886 O 0.75396 1.02018 0.75352
 Zr887 Zr 0.74222 0.98417 0.76538
 O888 O 0.72928 0.99596 0.75383
 O889 O 0.73697 1.01258 0.73673
 O890 O 0.76230 0.98736 0.76227
 C891 C 0.74025 1.04063 0.73910
 C892 C 0.73967 1.00936 0.70857
 C893 C 0.70890 1.01015 0.73971
 C894 C 0.76059 0.95987 0.76000
 C895 C 0.78968 0.98905 0.76060
 C896 C 0.76016 0.98941 0.78988
 H897 H 0.77899 1.00625 0.74314
 H898 H 0.74315 1.00647 0.77887
 H899 H 0.73135 1.01821 0.73102
 H900 H 0.74341 0.97070 0.74302
 H901 H 0.76161 0.97300 0.71944
 H902 H 0.73921 0.97166 0.72028
 H903 H 0.75778 1.02169 0.78541
 H904 H 0.74322 1.03479 0.77131
 H905 H 0.78622 0.97929 0.72755
 H906 H 0.77182 1.02015 0.71254
 H907 H 0.72748 0.99203 0.78487
 H908 H 0.71534 1.00720 0.77188
 H909 H 0.77169 1.03421 0.74306
 H910 H 0.78532 1.02169 0.75760
 H911 H 0.71444 0.97866 0.74342
 H912 H 0.72831 0.96395 0.75777
 O913 O 0.71488 0.51772 0.24844
 O914 O 0.71898 0.51596 0.27108
 O915 O 0.74988 0.53563 0.23267
 O916 O 0.77161 0.53154 0.23231
 O917 O 0.73323 0.50114 0.21391
 O918 O 0.73402 0.47809 0.21880
 O919 O 0.78439 0.49953 0.26715
 O920 O 0.78086 0.52204 0.26450
 O921 O 0.75068 0.48327 0.28406
 O922 O 0.72685 0.48433 0.27932
 O923 O 0.76683 0.46575 0.25050
 O924 O 0.76638 0.47029 0.22679
 O925 O 0.78444 0.48355 0.25120
 O926 O 0.77981 0.48502 0.22649
 O927 O 0.75075 0.46571 0.26628
 O928 O 0.72641 0.47086 0.26459
 O929 O 0.76691 0.49887 0.28414
 O930 O 0.76264 0.52281 0.27986
 O931 O 0.71473 0.50153 0.23267
 O932 O 0.71955 0.47805 0.23373
 O933 O 0.74929 0.51693 0.21395
 O934 O 0.77318 0.51461 0.21956
 O935 O 0.73353 0.53572 0.24821
 O936 O 0.73630 0.53043 0.27215
 Zr937 Zr 0.73404 0.51659 0.25649
 O938 O 0.74536 0.50467 0.26929
 Zr939 Zr 0.75737 0.51627 0.23322
 O940 O 0.76986 0.50475 0.24527
 Zr941 Zr 0.73389 0.49326 0.23322
 O942 O 0.74552 0.48050 0.24489
 Zr943 Zr 0.76548 0.50785 0.26539
 O944 O 0.75423 0.52080 0.25338
 Zr945 Zr 0.74219 0.48462 0.26504
 O946 O 0.72953 0.49649 0.25334
 Zr947 Zr 0.76571 0.48468 0.24200
 O948 O 0.75406 0.49619 0.22889
 O949 O 0.73734 0.51321 0.23642
 O950 O 0.76230 0.48778 0.26210
 C951 C 0.70924 0.51090 0.23929
 C952 C 0.74054 0.54126 0.23918
 C953 C 0.74003 0.51028 0.20832
 C954 C 0.78982 0.49000 0.26077
 C955 C 0.76029 0.48949 0.28955
 C956 C 0.76028 0.46028 0.25991
 H957 H 0.74321 0.50683 0.27861
 H958 H 0.74337 0.47124 0.24265
 H959 H 0.73178 0.51891 0.23072
 H960 H 0.77920 0.50695 0.24338
 H961 H 0.77672 0.53044 0.26166
 H962 H 0.77826 0.52962 0.23922
 H963 H 0.72799 0.46471 0.25713
 H964 H 0.71500 0.47879 0.24238
 H965 H 0.77014 0.52240 0.28619
 H966 H 0.72937 0.53731 0.27129
 H967 H 0.75797 0.46529 0.22708
 H968 H 0.74292 0.47824 0.21471
 H969 H 0.71529 0.50690 0.27093
 H970 H 0.72766 0.49242 0.28476
 H971 H 0.77154 0.50654 0.21425
 H972 H 0.78616 0.49223 0.22836
 O973 O 0.50124 0.21412 0.73402
 O974 O 0.47867 0.21822 0.73565
 O975 O 0.51703 0.24903 0.71591
 O976 O 0.51749 0.27075 0.71996
 O977 O 0.53560 0.23256 0.75072
 O978 O 0.53064 0.23351 0.77382
 O979 O 0.48263 0.28370 0.75180
 O980 O 0.48532 0.27998 0.72924
 O981 O 0.46560 0.25013 0.76827
 O982 O 0.47029 0.22630 0.76729
 O983 O 0.49896 0.26639 0.78589
 O984 O 0.52263 0.26586 0.78152
 O985 O 0.49848 0.28385 0.76791
 O986 O 0.52308 0.27917 0.76664
 O987 O 0.48322 0.25030 0.78594
 O988 O 0.48490 0.22596 0.78092
 O989 O 0.46563 0.26628 0.75256
 O990 O 0.46994 0.26181 0.72854
 O991 O 0.51686 0.21410 0.75037
 O992 O 0.51570 0.21910 0.77391
 O993 O 0.53566 0.24848 0.73477
 O994 O 0.53012 0.27237 0.73697
 O995 O 0.50153 0.23267 0.71583
 O996 O 0.47764 0.23544 0.72105
 Zr997 Zr 0.49322 0.23327 0.73500
 O998 O 0.48041 0.24466 0.74685
 Zr999 Zr 0.51646 0.25658 0.73533
 O1000 O 0.50440 0.26913 0.74677
 Zr1001 Zr 0.51632 0.23329 0.75854
 O1002 O 0.50463 0.24498 0.77123
 Zr1003 Zr 0.48435 0.26475 0.74358
 O1004 O 0.49637 0.25341 0.73070
 Zr1005 Zr 0.48455 0.24163 0.76702
 O1006 O 0.49626 0.22891 0.75523
 Zr1007 Zr 0.50756 0.26511 0.76695
 O1008 O 0.52068 0.25341 0.75552
 O1009 O 0.51322 0.23660 0.73847
 O1010 O 0.48753 0.26170 0.76376
 C1011 C 0.51032 0.20854 0.74096
 C1012 C 0.51054 0.23968 0.71026
 C1013 C 0.54122 0.23928 0.74152
 C1014 C 0.48898 0.28920 0.76135
 C1015 C 0.46019 0.25973 0.76198
 C1016 C 0.48954 0.25988 0.79136
 H1017 H 0.47112 0.24251 0.74465
 H1018 H 0.50681 0.24290 0.78055
 H1019 H 0.51891 0.23100 0.73280
 H1020 H 0.50633 0.27844 0.74452
 H1021 H 0.48817 0.27578 0.72084
 H1022 H 0.51055 0.27737 0.72179
 H1023 H 0.49230 0.22759 0.78713
 H1024 H 0.50707 0.21454 0.77314
 H1025 H 0.46365 0.26932 0.72890
 H1026 H 0.47853 0.22848 0.71417
 H1027 H 0.52232 0.25748 0.78654
 H1028 H 0.53473 0.24240 0.77365
 H1029 H 0.47877 0.21460 0.74476
 H1030 H 0.46489 0.22709 0.75915
 H1031 H 0.53536 0.27078 0.74511
 H1032 H 0.52135 0.28539 0.75929
 O1033 O 0.28525 0.75152 0.48191
 O1034 O 0.28108 0.72896 0.48356
 O1035 O 0.25041 0.76743 0.46388
 O1036 O 0.22867 0.76779 0.46788
 O1037 O 0.26692 0.78584 0.49874
 O1038 O 0.26604 0.78080 0.52182
 O1039 O 0.21554 0.73303 0.49972
 O1040 O 0.21923 0.73572 0.47720
 O1041 O 0.24918 0.71590 0.51611
 O1042 O 0.27299 0.72054 0.51521
 O1043 O 0.23307 0.74931 0.53388
 O1044 O 0.23362 0.77293 0.52946
 O1045 O 0.21549 0.74882 0.51586
 O1046 O 0.22026 0.77337 0.51465
 O1047 O 0.24912 0.73356 0.53389
 O1048 O 0.27346 0.73513 0.52879
 O1049 O 0.23301 0.71596 0.50039
 O1050 O 0.23739 0.72040 0.47639
 O1051 O 0.28537 0.76711 0.49827
 O1052 O 0.28045 0.76592 0.52181
 O1053 O 0.25095 0.78597 0.48279
 O1054 O 0.22705 0.78045 0.48495
 O1055 O 0.26668 0.75187 0.46378
 O1056 O 0.26382 0.72800 0.46895
 Zr1057 Zr 0.26606 0.74353 0.48293
 O1058 O 0.25463 0.73074 0.49477
 Zr1059 Zr 0.24282 0.76679 0.48328
 O1060 O 0.23023 0.75475 0.49472
 Zr1061 Zr 0.26618 0.76656 0.50649
 O1062 O 0.25444 0.75489 0.51917
 Zr1063 Zr 0.23453 0.73471 0.49151
 O1064 O 0.24590 0.74672 0.47864
 Zr1065 Zr 0.25772 0.73484 0.51493
 O1066 O 0.27048 0.74652 0.50315
 Zr1067 Zr 0.23429 0.75786 0.51492
 O1068 O 0.24604 0.77096 0.50349
 O1069 O 0.26282 0.76351 0.48642
 O1070 O 0.23762 0.73784 0.51171
 C1071 C 0.29088 0.76058 0.48883
 C1072 C 0.25974 0.76093 0.45823
 C1073 C 0.26018 0.79150 0.48957
 C1074 C 0.21007 0.73939 0.50927
 C1075 C 0.23959 0.71049 0.50977
 C1076 C 0.23962 0.73993 0.53936
 H1077 H 0.25675 0.72147 0.49254
 H1078 H 0.25657 0.75706 0.52849
 H1079 H 0.26842 0.76921 0.48077
 H1080 H 0.22091 0.75670 0.49249
 H1081 H 0.22341 0.73865 0.46882
 H1082 H 0.22190 0.76101 0.46981
 H1083 H 0.27192 0.74257 0.53496
 H1084 H 0.28498 0.75729 0.52103
 H1085 H 0.22988 0.71411 0.47674
 H1086 H 0.27077 0.72889 0.46207
 H1087 H 0.24201 0.77259 0.53449
 H1088 H 0.25716 0.78492 0.52167
 H1089 H 0.28476 0.72910 0.49266
 H1090 H 0.27227 0.71527 0.50698
 H1091 H 0.22864 0.78563 0.49312
 H1092 H 0.21399 0.77164 0.50731
 O1093 O 0.23205 0.24883 1.03664
 O1094 O 0.23363 0.27137 1.03247
 O1095 O 0.21413 0.23291 1.00156
 O1096 O 0.21828 0.23233 0.97979
 O1097 O 0.24894 0.21456 1.01828
 O1098 O 0.27194 0.21966 1.01744
 O1099 O 0.24987 0.26726 0.96677
 O1100 O 0.22739 0.26455 0.97048
 O1101 O 0.26621 0.28449 1.00049
 O1102 O 0.26517 0.27995 1.02439
 O1103 O 0.28396 0.25122 0.98442
 O1104 O 0.27964 0.22756 0.98497
 O1105 O 0.26604 0.25157 0.96676
 O1106 O 0.26489 0.22702 0.97153
 O1107 O 0.28391 0.26694 1.00056
 O1108 O 0.27872 0.26536 1.02497
 O1109 O 0.25060 0.28433 0.98421
 O1110 O 0.22663 0.27994 0.98866
 O1111 O 0.24842 0.23332 1.03678
 O1112 O 0.27190 0.23457 1.03186
 O1113 O 0.23305 0.21435 1.00227
 O1114 O 0.23528 0.21983 0.97829
 O1115 O 0.21396 0.24844 1.01792
 O1116 O 0.21910 0.27229 1.01513
 Zr1117 Zr 0.23306 0.25680 1.01740
 O1118 O 0.24487 0.26962 1.00596
 Zr1119 Zr 0.23354 0.23351 0.99408
 O1120 O 0.24494 0.24558 0.98150
 Zr1121 Zr 0.25663 0.23386 1.01755
 O1122 O 0.26927 0.24557 1.00582
 Zr1123 Zr 0.24168 0.26561 0.98580
 O1124 O 0.22885 0.25357 0.99717
 Zr1125 Zr 0.26498 0.26560 1.00911
 O1126 O 0.25323 0.25389 1.02186
 Zr1127 Zr 0.26508 0.24255 0.98560
 O1128 O 0.25369 0.22943 0.99735
 O1129 O 0.23660 0.23682 1.01415
 O1130 O 0.26182 0.26255 0.98895
 C1131 C 0.23900 0.23983 1.04230
 C1132 C 0.20844 0.23942 1.01088
 C1133 C 0.23982 0.20885 1.01151
 C1134 C 0.25943 0.26095 0.96130
 C1135 C 0.25997 0.28983 0.99080
 C1136 C 0.28939 0.26061 0.99101
 H1137 H 0.24263 0.27890 1.00808
 H1138 H 0.27857 0.24344 1.00797
 H1139 H 0.23094 0.23112 1.01975
 H1140 H 0.24273 0.24361 0.97215
 H1141 H 0.21903 0.26164 0.97469
 H1142 H 0.22006 0.23929 0.97316
 H1143 H 0.28494 0.25799 1.02341
 H1144 H 0.27108 0.24318 1.03644
 H1145 H 0.22701 0.28622 0.98112
 H1146 H 0.21224 0.27140 1.02211
 H1147 H 0.28466 0.22795 0.99338
 H1148 H 0.27184 0.21557 1.00852
 H1149 H 0.24271 0.27133 1.03613
 H1150 H 0.25698 0.28523 1.02360
 H1151 H 0.24343 0.21465 0.97993
 H1152 H 0.25756 0.22870 0.96525
 C1153 C 0.30607 0.34012 0.80709
 C1154 C 0.30167 0.35030 0.80272
 C1155 C 0.29658 0.36260 0.79773
 C1156 C 0.29757 0.37404 0.80546
 C1157 C 0.29283 0.38607 0.80062
 C1158 C 0.28702 0.38683 0.78796
 C1159 C 0.28599 0.37525 0.78029
 C1160 C 0.29076 0.36322 0.78515
 C1161 C 0.28216 0.39967 0.78277
 C1162 C 0.27018 0.40044 0.77570
 C1163 C 0.26557 0.41260 0.77100
 C1164 C 0.27289 0.42413 0.77328
 C1165 C 0.28485 0.42344 0.78022
 C1166 C 0.28947 0.41132 0.78494
 C1167 C 0.26815 0.43671 0.76865
 C1168 C 0.26445 0.44743 0.76500
 H1169 H 0.30203 0.37367 0.81522
 H1170 H 0.29359 0.39476 0.80684
 H1171 H 0.28171 0.37555 0.77045
 H1172 H 0.28998 0.35443 0.77907
 H1173 H 0.26426 0.39168 0.77400
 H1174 H 0.25628 0.41303 0.76566
 H1175 H 0.29062 0.43230 0.78201
 H1176 H 0.29882 0.41103 0.79016
 C1177 C 0.30240 -0.16393 0.30173
 C1178 C 0.29814 -0.15360 0.29762
 C1179 C 0.29335 -0.14103 0.29298
 C1180 C 0.29707 -0.12947 0.29962
 C1181 C 0.29267 -0.11719 0.29511
 C1182 C 0.28448 -0.11629 0.28386
 C1183 C 0.28071 -0.12798 0.27729
 C1184 C 0.28514 -0.14027 0.28183
 C1185 C 0.28000 -0.10319 0.27899
 C1186 C 0.26694 -0.10133 0.27453
 C1187 C 0.26271 -0.08887 0.27025
 C1188 C 0.27149 -0.07817 0.27035
 C1189 C 0.28452 -0.07997 0.27464
 C1190 C 0.28876 -0.09238 0.27893
 C1191 C 0.26715 -0.06524 0.26632
 C1192 C 0.26386 -0.05423 0.26318
 H1193 H 0.30339 -0.12995 0.30829
 H1194 H 0.29558 -0.10841 0.30050
 H1195 H 0.27453 -0.12760 0.26853
 H1196 H 0.28224 -0.14916 0.27659
 H1197 H 0.25994 -0.10942 0.27459
 H1198 H 0.25259 -0.08757 0.26699
 H1199 H 0.29140 -0.07175 0.27473
 H1200 H 0.29892 -0.09354 0.28211
 C1201 C 0.80502 0.83826 0.80362
 C1202 C 0.80084 0.84847 0.79913
 C1203 C 0.79604 0.86082 0.79396
 C1204 C 0.78244 0.86293 0.79242
 C1205 C 0.77780 0.87511 0.78780
 C1206 C 0.78671 0.88534 0.78471
 C1207 C 0.80037 0.88306 0.78617
 C1208 C 0.80498 0.87088 0.79077
 C1209 C 0.78181 0.89842 0.78022
 C1210 C 0.78773 0.91011 0.78492
 C1211 C 0.78316 0.92244 0.78072
 C1212 C 0.77262 0.92327 0.77176
 C1213 C 0.76663 0.91172 0.76704
 C1214 C 0.77118 0.89936 0.77125
 C1215 C 0.76806 0.93602 0.76742
 C1216 C 0.76449 0.94683 0.76393
 H1217 H 0.77543 0.85523 0.79491
 H1218 H 0.76724 0.87661 0.78692
 H1219 H 0.80748 0.89066 0.78369
 H1220 H 0.81553 0.86934 0.79191
 H1221 H 0.79579 0.90972 0.79199
 H1222 H 0.78784 0.93132 0.78448
 H1223 H 0.75848 0.91226 0.76008
 H1224 H 0.76651 0.89055 0.76736
 C1225 C 0.44717 0.91388 0.30339
 C1226 C 0.45167 0.90367 0.29920
 C1227 C 0.45683 0.89128 0.29450
 C1228 C 0.46495 0.89082 0.28327
 C1229 C 0.46988 0.87871 0.27875
 C1230 C 0.46675 0.86692 0.28544
 C1231 C 0.45857 0.86751 0.29671
 C1232 C 0.45365 0.87960 0.30120
 C1233 C 0.47189 0.85402 0.28069
 C1234 C 0.47624 0.84443 0.28980
 C1235 C 0.48060 0.83210 0.28540
 C1236 C 0.48069 0.82916 0.27184
 C1237 C 0.47657 0.83868 0.26267
 C1238 C 0.47222 0.85105 0.26706
 C1239 C 0.48457 0.81619 0.26748
 C1240 C 0.48759 0.80515 0.26416
 H1241 H 0.46750 0.89981 0.27803
 H1242 H 0.47626 0.87859 0.27014
 H1243 H 0.45580 0.85859 0.30196
 H1244 H 0.44733 0.87984 0.30986
 H1245 H 0.47629 0.84649 0.30034
 H1246 H 0.48377 0.82480 0.29259
 H1247 H 0.47655 0.83648 0.25215
 H1248 H 0.46880 0.85816 0.25981
 C1249 C -0.05566 0.91004 0.80655
 C1250 C -0.05110 0.89996 0.80214
 C1251 C -0.04583 0.88774 0.79712
 C1252 C -0.04382 0.88602 0.78349
 C1253 C -0.03906 0.87398 0.77864
 C1254 C -0.03629 0.86350 0.78737
 C1255 C -0.03823 0.86539 0.80106
 C1256 C -0.04297 0.87742 0.80588
 C1257 C -0.03160 0.85057 0.78224
 C1258 C -0.03647 0.83872 0.78764
 C1259 C -0.03208 0.82653 0.78286
 C1260 C -0.02277 0.82601 0.77262
 C1261 C -0.01786 0.83774 0.76715
 C1262 C -0.02225 0.84995 0.77191
 C1263 C -0.01828 0.81340 0.76782
 C1264 C -0.01474 0.80267 0.76407
 H1265 H -0.04606 0.89393 0.77662
 H1266 H -0.03782 0.87278 0.76804
 H1267 H -0.03600 0.85757 0.80804
 H1268 H -0.04446 0.87865 0.81645
 H1269 H -0.04382 0.83886 0.79545
 H1270 H -0.03598 0.81752 0.78713
 H1271 H -0.01061 0.83744 0.75924
 H1272 H -0.01821 0.85890 0.76765
 C1273 C -0.05378 -0.16106 -0.05626
 C1274 C -0.04938 -0.15083 -0.05199
 C1275 C -0.04436 -0.13846 -0.04705
 C1276 C -0.04030 -0.13729 -0.03383
 C1277 C -0.03579 -0.12514 -0.02898
 C1278 C -0.03533 -0.11399 -0.03730
 C1279 C -0.03932 -0.11532 -0.05061
 C1280 C -0.04381 -0.12746 -0.05543
 C1281 C -0.03087 -0.10099 -0.03211
 C1282 C -0.03745 -0.08933 -0.03588
 C1283 C -0.03323 -0.07708 -0.03110
 C1284 C -0.02239 -0.07628 -0.02250
 C1285 C -0.01581 -0.08781 -0.01864
 C1286 C -0.02003 -0.10010 -0.02340
 C1287 C -0.01800 -0.06357 -0.01782
 C1288 C -0.01450 -0.05278 -0.01415
 H1289 H -0.04074 -0.14573 -0.02724
 H1290 H -0.03292 -0.12441 -0.01866
 H1291 H -0.03890 -0.10697 -0.05731
 H1292 H -0.04691 -0.12826 -0.06569
 H1293 H -0.04595 -0.08971 -0.04240
 H1294 H -0.03842 -0.06821 -0.03413
 H1295 H -0.00738 -0.08730 -0.01201
 H1296 H -0.01468 -0.10888 -0.02043
 C1297 C -0.05410 0.33794 0.44546
 C1298 C -0.04990 0.34821 0.44985
 C1299 C -0.04514 0.36062 0.45493
 C1300 C -0.03159 0.36267 0.45693
 C1301 C -0.02701 0.37487 0.46157
 C1302 C -0.03593 0.38520 0.46423
 C1303 C -0.04954 0.38299 0.46229
 C1304 C -0.05410 0.37080 0.45767
 C1305 C -0.03109 0.39828 0.46886
 C1306 C -0.03671 0.40998 0.46387
 C1307 C -0.03222 0.42229 0.46822
 C1308 C -0.02204 0.42311 0.47760
 C1309 C -0.01635 0.41154 0.48260
 C1310 C -0.02083 0.39919 0.47826
 C1311 C -0.01750 0.43586 0.48200
 C1312 C -0.01391 0.44669 0.48546
 H1313 H -0.02457 0.35487 0.45480
 H1314 H -0.01646 0.37631 0.46282
 H1315 H -0.05667 0.39068 0.46442
 H1316 H -0.06461 0.36931 0.45618
 H1317 H -0.04448 0.40961 0.45648
 H1318 H -0.03666 0.43119 0.46424
 H1319 H -0.00848 0.41206 0.48988
 H1320 H -0.01640 0.39037 0.48238
 C1321 C 0.44698 -0.16199 0.44774
 C1322 C 0.45125 -0.15177 0.45216
 C1323 C 0.45611 -0.13941 0.45726
 C1324 C 0.46852 -0.13466 0.45335
 C1325 C 0.47298 -0.12237 0.45786
 C1326 C 0.46506 -0.11465 0.46632
 C1327 C 0.45267 -0.11960 0.47032
 C1328 C 0.44824 -0.13189 0.46581
 C1329 C 0.46955 -0.10138 0.47071
 C1330 C 0.46059 -0.09076 0.47118
 C1331 C 0.46481 -0.07821 0.47513
 C1332 C 0.47802 -0.07609 0.47866
 C1333 C 0.48702 -0.08659 0.47826
 C1334 C 0.48282 -0.09916 0.47431
 C1335 C 0.48231 -0.06310 0.48257
 C1336 C 0.48568 -0.05212 0.48574
 H1337 H 0.47466 -0.14037 0.44668
 H1338 H 0.48248 -0.11877 0.45447
 H1339 H 0.44642 -0.11397 0.47696
 H1340 H 0.43862 -0.13547 0.46890
 H1341 H 0.45036 -0.09210 0.46828
 H1342 H 0.45777 -0.07014 0.47535
 H1343 H 0.49727 -0.08505 0.48100
 H1344 H 0.48991 -0.10716 0.47418
 C1345 C 0.44368 0.33921 -0.05463
 C1346 C 0.44807 0.34941 -0.05027
 C1347 C 0.45307 0.36173 -0.04520
 C1348 C 0.46661 0.36338 -0.04284
 C1349 C 0.47145 0.37548 -0.03819
 C1350 C 0.46277 0.38611 -0.03589
 C1351 C 0.44916 0.38430 -0.03820
 C1352 C 0.44436 0.37220 -0.04283
 C1353 C 0.46788 0.39907 -0.03126
 C1354 C 0.46275 0.41089 -0.03649
 C1355 C 0.46748 0.42310 -0.03211
 C1356 C 0.47740 0.42370 -0.02245
 C1357 C 0.48261 0.41202 -0.01720
 C1358 C 0.47790 0.39977 -0.02158
 C1359 C 0.48211 0.43635 -0.01794
 C1360 C 0.48577 0.44711 -0.01436
 H1361 H 0.47345 0.35535 -0.04469
 H1362 H 0.48199 0.37661 -0.03665
 H1363 H 0.44221 0.39222 -0.03634
 H1364 H 0.43385 0.37102 -0.04459
 H1365 H 0.45518 0.41068 -0.04408
 H1366 H 0.46340 0.43209 -0.03627
 H1367 H 0.49027 0.41238 -0.00968
 H1368 H 0.48195 0.39085 -0.01726
 C1369 C 0.80482 0.41263 0.44640
 C1370 C 0.80056 0.40253 0.45107
 C1371 C 0.79572 0.39027 0.45643
 C1372 C 0.80464 0.38023 0.45967
 C1373 C 0.80001 0.36809 0.46437
 C1374 C 0.78636 0.36582 0.46587
 C1375 C 0.77746 0.37605 0.46277
 C1376 C 0.78212 0.38819 0.45805
 C1377 C 0.78145 0.35274 0.47036
 C1378 C 0.77087 0.35176 0.47938
 C1379 C 0.76634 0.33938 0.48358
 C1380 C 0.77230 0.32785 0.47879
 C1381 C 0.78277 0.32873 0.46978
 C1382 C 0.78732 0.34107 0.46559
 C1383 C 0.76780 0.31505 0.48307
 C1384 C 0.76440 0.30413 0.48640
 H1385 H 0.81519 0.38174 0.45848
 H1386 H 0.80712 0.36049 0.46685
 H1387 H 0.76690 0.37456 0.46368
 H1388 H 0.77513 0.39589 0.45552
 H1389 H 0.76624 0.36056 0.48333
 H1390 H 0.75824 0.33880 0.49059
 H1391 H 0.78742 0.31987 0.46596
 H1392 H 0.79533 0.34148 0.45847
 C1393 C 0.80537 0.91355 -0.05369
 C1394 C 0.80108 0.90345 -0.04903
 C1395 C 0.79621 0.89119 -0.04369
 C1396 C 0.80499 0.88078 -0.04134
 C1397 C 0.80030 0.86868 -0.03663
 C1398 C 0.78672 0.86680 -0.03423
 C1399 C 0.77797 0.87738 -0.03644
 C1400 C 0.78270 0.88949 -0.04117
 C1401 C 0.78171 0.85375 -0.02972
 C1402 C 0.77176 0.85286 -0.02000
 C1403 C 0.76715 0.84051 -0.01577
 C1404 C 0.77240 0.82893 -0.02124
 C1405 C 0.78224 0.82974 -0.03095
 C1406 C 0.78687 0.84205 -0.03517
 C1407 C 0.76783 0.81616 -0.01696
 C1408 C 0.76439 0.80523 -0.01369
 H1409 H 0.81547 0.88199 -0.04323
 H1410 H 0.80730 0.86079 -0.03484
 H1411 H 0.76745 0.87619 -0.03482
 H1412 H 0.77580 0.89747 -0.04300
 H1413 H 0.76769 0.86169 -0.01553
 H1414 H 0.75954 0.83999 -0.00823
 H1415 H 0.78634 0.82085 -0.03529
 H1416 H 0.79437 0.84240 -0.04281
 C1417 C 0.80370 0.30387 0.33717
 C1418 C 0.79907 0.29901 0.34705
 C1419 C 0.79374 0.29340 0.35902
 C1420 C 0.80164 0.28530 0.36700
 C1421 C 0.79670 0.28035 0.37896
 C1422 C 0.78379 0.28346 0.38311
 C1423 C 0.77586 0.29146 0.37491
 C1424 C 0.78081 0.29639 0.36296
 C1425 C 0.77879 0.27877 0.39613
 C1426 C 0.77139 0.28725 0.40433
 C1427 C 0.76714 0.28306 0.41682
 C1428 C 0.77022 0.27035 0.42131
 C1429 C 0.77741 0.26176 0.41317
 C1430 C 0.78167 0.26593 0.40065
 C1431 C 0.76643 0.26636 0.43447
 C1432 C 0.76345 0.26331 0.44562
 H1433 H 0.81168 0.28298 0.36408
 H1434 H 0.80311 0.27438 0.38512
 H1435 H 0.76583 0.29390 0.37776
 H1436 H 0.77461 0.30264 0.35685
 H1437 H 0.76917 0.29724 0.40122
 H1438 H 0.76164 0.28981 0.42308
 H1439 H 0.77985 0.25190 0.41655
 H1440 H 0.78720 0.25913 0.39451
 C1441 C 0.80343 0.80503 -0.16387
 C1442 C 0.79858 0.80056 -0.15391
 C1443 C 0.79299 0.79545 -0.14183
 C1444 C 0.79737 0.78338 -0.13669
 C1445 C 0.79242 0.77875 -0.12461
 C1446 C 0.78303 0.78616 -0.11749
 C1447 C 0.77855 0.79819 -0.12284
 C1448 C 0.78351 0.80280 -0.13493
 C1449 C 0.77826 0.78158 -0.10434
 C1450 C 0.77668 0.79062 -0.09385
 C1451 C 0.77261 0.78629 -0.08135
 C1452 C 0.77003 0.77289 -0.07914
 C1453 C 0.77143 0.76382 -0.08953
 C1454 C 0.77552 0.76813 -0.10206
 C1455 C 0.76628 0.76849 -0.06610
 C1456 C 0.76336 0.76513 -0.05502
 H1457 H 0.80476 0.77765 -0.14192
 H1458 H 0.79620 0.76955 -0.12066
 H1459 H 0.77122 0.80404 -0.11769
 H1460 H 0.78005 0.81215 -0.13882
 H1461 H 0.77890 0.80099 -0.09523
 H1462 H 0.77162 0.79338 -0.07336
 H1463 H 0.76945 0.75343 -0.08793
 H1464 H 0.77649 0.76097 -0.10997
 C1465 C 0.30717 0.44325 0.91018
 C1466 C 0.30277 0.44775 0.90003
 C1467 C 0.29770 0.45292 0.88775
 C1468 C 0.30081 0.44664 0.87579
 C1469 C 0.29604 0.45165 0.86380
 C1470 C 0.28807 0.46304 0.86361
 C1471 C 0.28494 0.46926 0.87569
 C1472 C 0.28975 0.46423 0.88768
 C1473 C 0.28308 0.46838 0.85083
 C1474 C 0.27005 0.47314 0.84973
 C1475 C 0.26531 0.47789 0.83760
 C1476 C 0.27354 0.47798 0.82645
 C1477 C 0.28655 0.47339 0.82748
 C1478 C 0.29130 0.46863 0.83958
 C1479 C 0.26865 0.48251 0.81384
 C1480 C 0.26481 0.48606 0.80311
 H1481 H 0.30692 0.43785 0.87573
 H1482 H 0.29846 0.44653 0.85469
 H1483 H 0.27896 0.47812 0.87585
 H1484 H 0.28731 0.46919 0.89688
 H1485 H 0.26344 0.47294 0.85818
 H1486 H 0.25521 0.48138 0.83689
 H1487 H 0.29302 0.47344 0.81891
 H1488 H 0.30143 0.46522 0.84015
 C1489 C 0.30362 -0.05265 0.41361
 C1490 C 0.29929 -0.04847 0.40330
 C1491 C 0.29440 -0.04373 0.39077
 C1492 C 0.28545 -0.03320 0.39026
 C1493 C 0.28087 -0.02858 0.37801
 C1494 C 0.28522 -0.03443 0.36613
 C1495 C 0.29416 -0.04506 0.36678
 C1496 C 0.29870 -0.04967 0.37901
 C1497 C 0.28055 -0.02948 0.35308
 C1498 C 0.28939 -0.02844 0.34236
 C1499 C 0.28498 -0.02412 0.32997
 C1500 C 0.27169 -0.02076 0.32811
 C1501 C 0.26283 -0.02162 0.33874
 C1502 C 0.26723 -0.02593 0.35116
 C1503 C 0.26720 -0.01675 0.31518
 C1504 C 0.26380 -0.01362 0.30416
 H1505 H 0.28208 -0.02851 0.39931
 H1506 H 0.27410 -0.02029 0.37782
 H1507 H 0.29753 -0.04991 0.35782
 H1508 H 0.30559 -0.05786 0.37930
 H1509 H 0.29974 -0.03091 0.34357
 H1510 H 0.29193 -0.02347 0.32182
 H1511 H 0.25250 -0.01909 0.33739
 H1512 H 0.26016 -0.02676 0.35919
 C1513 C -0.05641 -0.05654 -0.16015
 C1514 C -0.05203 -0.05211 -0.14995
 C1515 C -0.04698 -0.04705 -0.13761
 C1516 C -0.04668 -0.05520 -0.12641
 C1517 C -0.04201 -0.05032 -0.11433
 C1518 C -0.03757 -0.03718 -0.11326
 C1519 C -0.03783 -0.02907 -0.12459
 C1520 C -0.04252 -0.03399 -0.13669
 C1521 C -0.03282 -0.03197 -0.10034
 C1522 C -0.02163 -0.02371 -0.09968
 C1523 C -0.01709 -0.01899 -0.08746
 C1524 C -0.02369 -0.02243 -0.07576
 C1525 C -0.03487 -0.03057 -0.07633
 C1526 C -0.03941 -0.03531 -0.08852
 C1527 C -0.01898 -0.01780 -0.06312
 C1528 C -0.01524 -0.01417 -0.05236
 H1529 H -0.05008 -0.06534 -0.12702
 H1530 H -0.04177 -0.05686 -0.10583
 H1531 H -0.03462 -0.01888 -0.12405
 H1532 H -0.04275 -0.02758 -0.14529
 H1533 H -0.01626 -0.02109 -0.10859
 H1534 H -0.00839 -0.01273 -0.08712
 H1535 H -0.04007 -0.03327 -0.06733
 H1536 H -0.04815 -0.04149 -0.08871
 C1537 C -0.05580 0.44282 0.33885
 C1538 C -0.05112 0.44720 0.34894
 C1539 C -0.04569 0.45222 0.36114
 C1540 C -0.03988 0.44354 0.37023
 C1541 C -0.03500 0.44829 0.38229
 C1542 C -0.03587 0.46180 0.38544
 C1543 C -0.04160 0.47048 0.37617
 C1544 C -0.04649 0.46570 0.36411
 C1545 C -0.03104 0.46677 0.39843
 C1546 C -0.02419 0.47886 0.39931
 C1547 C -0.01974 0.48353 0.41159
 C1548 C -0.02210 0.47620 0.42312
 C1549 C -0.02890 0.46419 0.42234
 C1550 C -0.03334 0.45949 0.41009
 C1551 C -0.01763 0.48097 0.43580
 C1552 C -0.01404 0.48472 0.44657
 H1553 H -0.03919 0.43309 0.36802
 H1554 H -0.03049 0.44139 0.38914
 H1555 H -0.04257 0.48090 0.37837
 H1556 H -0.05103 0.47250 0.35716
 H1557 H -0.02214 0.48461 0.39050
 H1558 H -0.01446 0.49283 0.41209
 H1559 H -0.03083 0.45847 0.43121
 H1560 H -0.03875 0.45026 0.40976
 C1561 C 0.44693 -0.05268 0.33667
 C1562 C 0.45119 -0.04817 0.34689
 C1563 C 0.45610 -0.04299 0.35924
 C1564 C 0.46753 -0.04829 0.36497
 C1565 C 0.47200 -0.04362 0.37724
 C1566 C 0.46506 -0.03359 0.38395
 C1567 C 0.45366 -0.02823 0.37802
 C1568 C 0.44921 -0.03291 0.36575
 C1569 C 0.46952 -0.02896 0.39719
 C1570 C 0.46026 -0.02641 0.40728
 C1571 C 0.46444 -0.02229 0.41983
 C1572 C 0.47793 -0.02063 0.42248
 C1573 C 0.48723 -0.02308 0.41250
 C1574 C 0.48307 -0.02722 0.39993
 C1575 C 0.48218 -0.01660 0.43549
 C1576 C 0.48556 -0.01331 0.44647
 H1577 H 0.47289 -0.05614 0.36005
 H1578 H 0.48071 -0.04806 0.38161
 H1579 H 0.44820 -0.02039 0.38285
 H1580 H 0.44035 -0.02873 0.36140
 H1581 H 0.44978 -0.02785 0.40555
 H1582 H 0.45716 -0.02047 0.42750
 H1583 H 0.49770 -0.02182 0.41444
 H1584 H 0.49043 -0.02896 0.39233
 C1585 C 0.44381 0.44358 -0.16076
 C1586 C 0.44828 0.44795 -0.15058
 C1587 C 0.45339 0.45298 -0.13825
 C1588 C 0.45178 0.44565 -0.12660
 C1589 C 0.45648 0.45057 -0.11454
 C1590 C 0.46286 0.46291 -0.11395
 C1591 C 0.46452 0.47018 -0.12573
 C1592 C 0.45979 0.46524 -0.13780
 C1593 C 0.46768 0.46819 -0.10107
 C1594 C 0.47998 0.47464 -0.10018
 C1595 C 0.48457 0.47936 -0.08797
 C1596 C 0.47691 0.47774 -0.07653
 C1597 C 0.46461 0.47144 -0.07735
 C1598 C 0.46001 0.46670 -0.08952
 C1599 C 0.48168 0.48228 -0.06388
 C1600 C 0.48543 0.48584 -0.05311
 H1601 H 0.44686 0.43614 -0.12684
 H1602 H 0.45523 0.44465 -0.10568
 H1603 H 0.46927 0.47977 -0.12558
 H1604 H 0.46105 0.47102 -0.14676
 H1605 H 0.48617 0.47581 -0.10886
 H1606 H 0.49413 0.48419 -0.08744
 H1607 H 0.45858 0.47015 -0.06856
 H1608 H 0.45042 0.46196 -0.08992
 C1609 C 0.44768 0.80488 0.41415
 C1610 C 0.45212 0.80063 0.40392
 C1611 C 0.45722 0.79584 0.39149
 C1612 C 0.45360 0.80213 0.37968
 C1613 C 0.45847 0.79758 0.36756
 C1614 C 0.46704 0.78665 0.36706
 C1615 C 0.47061 0.78036 0.37899
 C1616 C 0.46573 0.78495 0.39113
 C1617 C 0.47215 0.78183 0.35413
 C1618 C 0.47293 0.76821 0.35143
 C1619 C 0.47727 0.76375 0.33904
 C1620 C 0.48093 0.77283 0.32924
 C1621 C 0.48038 0.78638 0.33191
 C1622 C 0.47604 0.79086 0.34427
 C1623 C 0.48481 0.76836 0.31626
 C1624 C 0.48783 0.76496 0.30522
 H1625 H 0.44698 0.81054 0.37985
 H1626 H 0.45538 0.80250 0.35855
 H1627 H 0.47730 0.77201 0.37894
 H1628 H 0.46861 0.78003 0.40022
 H1629 H 0.46988 0.76103 0.35877
 H1630 H 0.47761 0.75324 0.33705
 H1631 H 0.48320 0.79350 0.32440
 H1632 H 0.47574 0.80140 0.34611
 C1633 C -0.05439 0.80583 0.91101
 C1634 C -0.05028 0.80136 0.90073
 C1635 C -0.04561 0.79618 0.88829
 C1636 C -0.05411 0.79578 0.87734
 C1637 C -0.04959 0.79102 0.86515
 C1638 C -0.03648 0.78659 0.86374
 C1639 C -0.02803 0.78693 0.87483
 C1640 C -0.03257 0.79172 0.88702
 C1641 C -0.03163 0.78177 0.85070
 C1642 C -0.02333 0.77065 0.84988
 C1643 C -0.01888 0.76610 0.83755
 C1644 C -0.02265 0.77263 0.82592
 C1645 C -0.03086 0.78373 0.82664
 C1646 C -0.03532 0.78827 0.83893
 C1647 C -0.01821 0.76798 0.81319
 C1648 C -0.01469 0.76432 0.80238
 H1649 H -0.06423 0.79918 0.87822
 H1650 H -0.05639 0.79070 0.85686
 H1651 H -0.01784 0.78373 0.87402
 H1652 H -0.02589 0.79203 0.89543
 H1653 H -0.02044 0.76534 0.85874
 H1654 H -0.01256 0.75748 0.83710
 H1655 H -0.03381 0.78888 0.81770
 H1656 H -0.04154 0.79697 0.83924
 C1657 C 0.33608 0.80317 0.30104
 C1658 C 0.34643 0.79909 0.29677
 C1659 C 0.35902 0.79451 0.29196
 C1660 C 0.36973 0.80326 0.29137
 C1661 C 0.38212 0.79882 0.28717
 C1662 C 0.38398 0.78554 0.28350
 C1663 C 0.37311 0.77684 0.28396
 C1664 C 0.36072 0.78131 0.28820
 C1665 C 0.39726 0.78077 0.27942
 C1666 C 0.39870 0.77192 0.26875
 C1667 C 0.41127 0.76761 0.26487
 C1668 C 0.42252 0.77205 0.27163
 C1669 C 0.42117 0.78078 0.28231
 C1670 C 0.40864 0.78511 0.28618
 C1671 C 0.43551 0.76784 0.26761
 C1672 C 0.44655 0.76461 0.26448
 H1673 H 0.36852 0.81350 0.29424
 H1674 H 0.39023 0.80579 0.28673
 H1675 H 0.37427 0.76654 0.28133
 H1676 H 0.35250 0.77444 0.28867
 H1677 H 0.39014 0.76851 0.26327
 H1678 H 0.41221 0.76088 0.25657
 H1679 H 0.42981 0.78425 0.28763
 H1680 H 0.40785 0.79175 0.29456
 C1681 C -0.16184 0.80477 0.80418
 C1682 C -0.15158 0.80027 0.80011
 C1683 C -0.13918 0.79506 0.79548
 C1684 C -0.13772 0.79110 0.78226
 C1685 C -0.12555 0.78633 0.77774
 C1686 C -0.11466 0.78549 0.78640
 C1687 C -0.11627 0.78939 0.79970
 C1688 C -0.12844 0.79414 0.80419
 C1689 C -0.10162 0.78075 0.78158
 C1690 C -0.08989 0.78699 0.78575
 C1691 C -0.07760 0.78255 0.78126
 C1692 C -0.07685 0.77182 0.77255
 C1693 C -0.08844 0.76555 0.76830
 C1694 C -0.10076 0.76999 0.77278
 C1695 C -0.06413 0.76731 0.76803
 C1696 C -0.05333 0.76377 0.76443
 H1697 H -0.14596 0.79180 0.77542
 H1698 H -0.12458 0.78354 0.76742
 H1699 H -0.10814 0.78869 0.80665
 H1700 H -0.12946 0.79716 0.81445
 H1701 H -0.09023 0.79542 0.79236
 H1702 H -0.06869 0.78751 0.78457
 H1703 H -0.08796 0.75722 0.76157
 H1704 H -0.10960 0.76489 0.76950
 C1705 C 0.91316 0.30315 0.44635
 C1706 C 0.90328 0.29845 0.45110
 C1707 C 0.89130 0.29308 0.45661
 C1708 C 0.88482 0.28261 0.45027
 C1709 C 0.87282 0.27785 0.45524
 C1710 C 0.86713 0.28353 0.46663
 C1711 C 0.87383 0.29392 0.47305
 C1712 C 0.88582 0.29866 0.46806
 C1713 C 0.85404 0.27896 0.47151
 C1714 C 0.84458 0.28815 0.47590
 C1715 C 0.83209 0.28394 0.48005
 C1716 C 0.82887 0.27050 0.47990
 C1717 C 0.83825 0.26124 0.47568
 C1718 C 0.85076 0.26544 0.47151
 C1719 C 0.81579 0.26633 0.48368
 C1720 C 0.80469 0.26318 0.48668
 H1721 H 0.88893 0.27828 0.44136
 H1722 H 0.86782 0.26997 0.44997
 H1723 H 0.86978 0.29838 0.48192
 H1724 H 0.89076 0.30677 0.47305
 H1725 H 0.84672 0.29863 0.47583
 H1726 H 0.82487 0.29119 0.48323
 H1727 H 0.83586 0.25081 0.47553
 H1728 H 0.85789 0.25811 0.46832
 C1729 C 0.91317 0.80537 -0.05469
 C1730 C 0.90318 0.80093 -0.04992
 C1731 C 0.89107 0.79589 -0.04440
 C1732 C 0.88723 0.78281 -0.04675
 C1733 C 0.87514 0.77813 -0.04190
 C1734 C 0.86671 0.78652 -0.03467
 C1735 C 0.87076 0.79960 -0.03219
 C1736 C 0.88285 0.80424 -0.03703
 C1737 C 0.85359 0.78179 -0.03005
 C1738 C 0.84243 0.79004 -0.03100
 C1739 C 0.83002 0.78557 -0.02689
 C1740 C 0.82856 0.77280 -0.02177
 C1741 C 0.83959 0.76452 -0.02074
 C1742 C 0.85203 0.76898 -0.02486
 C1743 C 0.81568 0.76826 -0.01776
 C1744 C 0.80471 0.76481 -0.01460
 H1745 H 0.89349 0.77628 -0.05250
 H1746 H 0.87223 0.76807 -0.04411
 H1747 H 0.86458 0.80623 -0.02649
 H1748 H 0.88573 0.81438 -0.03514
 H1749 H 0.84325 0.79987 -0.03514
 H1750 H 0.82153 0.79204 -0.02779
 H1751 H 0.83857 0.75463 -0.01677
 H1752 H 0.86046 0.76245 -0.02388
 C1753 C -0.16186 -0.05350 -0.05467
 C1754 C -0.15166 -0.04897 -0.05044
 C1755 C -0.13932 -0.04378 -0.04559
 C1756 C -0.13699 -0.04279 -0.03194
 C1757 C -0.12480 -0.03817 -0.02728
 C1758 C -0.11476 -0.03451 -0.03623
 C1759 C -0.11727 -0.03542 -0.04993
 C1760 C -0.12946 -0.04003 -0.05456
 C1761 C -0.10166 -0.02999 -0.03133
 C1762 C -0.08999 -0.03419 -0.03764
 C1763 C -0.07764 -0.02999 -0.03304
 C1764 C -0.07677 -0.02153 -0.02210
 C1765 C -0.08832 -0.01730 -0.01573
 C1766 C -0.10069 -0.02151 -0.02031
 C1767 C -0.06400 -0.01723 -0.01749
 C1768 C -0.05315 -0.01380 -0.01391
 H1769 H -0.14453 -0.04573 -0.02491
 H1770 H -0.12312 -0.03773 -0.01668
 H1771 H -0.10982 -0.03251 -0.05707
 H1772 H -0.13116 -0.04074 -0.06515
 H1773 H -0.09039 -0.04088 -0.04601
 H1774 H -0.06876 -0.03336 -0.03802
 H1775 H -0.08775 -0.01072 -0.00727
 H1776 H -0.10950 -0.01799 -0.01534
 C1777 C -0.16158 0.44662 0.44535
 C1778 C -0.15140 0.45120 0.44958
 C1779 C -0.13908 0.45648 0.45440
 C1780 C -0.13542 0.45472 0.46767
 C1781 C -0.12320 0.45938 0.47219
 C1782 C -0.11445 0.46583 0.46347
 C1783 C -0.11831 0.46768 0.45019
 C1784 C -0.13053 0.46303 0.44570
 C1785 C -0.10126 0.47035 0.46811
 C1786 C -0.09003 0.46870 0.46003
 C1787 C -0.07758 0.47281 0.46442
 C1788 C -0.07616 0.47865 0.47692
 C1789 C -0.08726 0.48036 0.48504
 C1790 C -0.09973 0.47624 0.48067
 C1791 C -0.06328 0.48277 0.48138
 C1792 C -0.05237 0.48608 0.48488
 H1793 H -0.14194 0.44961 0.47448
 H1794 H -0.12045 0.45767 0.48243
 H1795 H -0.11188 0.47277 0.44328
 H1796 H -0.13327 0.46445 0.43540
 H1797 H -0.09084 0.46402 0.45041
 H1798 H -0.06905 0.47139 0.45808
 H1799 H -0.08626 0.48489 0.49473
 H1800 H -0.10820 0.47778 0.48705
 C1801 C 0.33718 -0.05284 0.44683
 C1802 C 0.34752 -0.04863 0.45102
 C1803 C 0.36005 -0.04386 0.45583
 C1804 C 0.36189 -0.03042 0.45853
 C1805 C 0.37420 -0.02582 0.46289
 C1806 C 0.38484 -0.03462 0.46457
 C1807 C 0.38285 -0.04812 0.46193
 C1808 C 0.37054 -0.05270 0.45759
 C1809 C 0.39801 -0.02975 0.46891
 C1810 C 0.40962 -0.03480 0.46313
 C1811 C 0.42203 -0.03032 0.46725
 C1812 C 0.42304 -0.02074 0.47720
 C1813 C 0.41156 -0.01560 0.48299
 C1814 C 0.39912 -0.02006 0.47887
 C1815 C 0.43588 -0.01631 0.48148
 C1816 C 0.44676 -0.01283 0.48490
 H1817 H 0.35384 -0.02349 0.45716
 H1818 H 0.37546 -0.01535 0.46470
 H1819 H 0.39078 -0.05517 0.46331
 H1820 H 0.36922 -0.06313 0.45556
 H1821 H 0.40910 -0.04212 0.45531
 H1822 H 0.43085 -0.03434 0.46268
 H1823 H 0.41223 -0.00821 0.49073
 H1824 H 0.39037 -0.01609 0.48361
 C1825 C 0.34035 0.44252 -0.05620
 C1826 C 0.35053 0.44684 -0.05171
 C1827 C 0.36283 0.45183 -0.04654
 C1828 C 0.37429 0.44415 -0.04744
 C1829 C 0.38632 0.44902 -0.04267
 C1830 C 0.38706 0.46166 -0.03691
 C1831 C 0.37546 0.46928 -0.03595
 C1832 C 0.36343 0.46439 -0.04075
 C1833 C 0.39991 0.46690 -0.03205
 C1834 C 0.40066 0.47402 -0.02008
 C1835 C 0.41282 0.47879 -0.01548
 C1836 C 0.42436 0.47654 -0.02279
 C1837 C 0.42370 0.46954 -0.03474
 C1838 C 0.41157 0.46475 -0.03935
 C1839 C 0.43694 0.48125 -0.01806
 C1840 C 0.44765 0.48498 -0.01436
 H1841 H 0.37393 0.43440 -0.05187
 H1842 H 0.39503 0.44284 -0.04338
 H1843 H 0.37574 0.47910 -0.03171
 H1844 H 0.35462 0.47043 -0.04004
 H1845 H 0.39188 0.47571 -0.01418
 H1846 H 0.41322 0.48417 -0.00620
 H1847 H 0.43257 0.46777 -0.04050
 H1848 H 0.41130 0.45948 -0.04870
 C1849 C 0.41015 0.44416 0.80612
 C1850 C 0.39999 0.44860 0.80176
 C1851 C 0.38767 0.45368 0.79675
 C1852 C 0.38723 0.46594 0.79035
 C1853 C 0.37518 0.47089 0.78568
 C1854 C 0.36342 0.46365 0.78740
 C1855 C 0.36400 0.45131 0.79379
 C1856 C 0.37604 0.44637 0.79843
 C1857 C 0.35057 0.46892 0.78263
 C1858 C 0.33908 0.46746 0.79035
 C1859 C 0.32693 0.47219 0.78579
 C1860 C 0.32609 0.47846 0.77346
 C1861 C 0.33747 0.48007 0.76573
 C1862 C 0.34965 0.47535 0.77029
 C1863 C 0.31346 0.48300 0.76872
 C1864 C 0.30269 0.48653 0.76501
 H1865 H 0.39617 0.47169 0.78903
 H1866 H 0.37503 0.48048 0.78093
 H1867 H 0.35516 0.44540 0.79509
 H1868 H 0.37628 0.43686 0.80334
 H1869 H 0.33950 0.46273 0.79998
 H1870 H 0.31818 0.47092 0.79186
 H1871 H 0.33691 0.48487 0.75614
 H1872 H 0.35829 0.47649 0.76405
 C1873 C 0.41337 -0.05332 0.30252
 C1874 C 0.40312 -0.04914 0.29811
 C1875 C 0.39066 -0.04438 0.29312
 C1876 C 0.38997 -0.03247 0.28612
 C1877 C 0.37776 -0.02777 0.28159
 C1878 C 0.36608 -0.03494 0.28407
 C1879 C 0.36692 -0.04696 0.29101
 C1880 C 0.37912 -0.05164 0.29550
 C1881 C 0.35304 -0.02988 0.27959
 C1882 C 0.34189 -0.03099 0.28786
 C1883 C 0.32955 -0.02650 0.28360
 C1884 C 0.32814 -0.02084 0.27102
 C1885 C 0.33918 -0.01957 0.26275
 C1886 C 0.35158 -0.02403 0.26701
 C1887 C 0.31528 -0.01663 0.26662
 C1888 C 0.30429 -0.01341 0.26329
 H1889 H 0.39885 -0.02676 0.28425
 H1890 H 0.37742 -0.01843 0.27638
 H1891 H 0.35814 -0.05281 0.29289
 H1892 H 0.37954 -0.06089 0.30088
 H1893 H 0.34274 -0.03524 0.29767
 H1894 H 0.32107 -0.02751 0.29009
 H1895 H 0.33820 -0.01524 0.25297
 H1896 H 0.35995 -0.02316 0.26037
 C1897 C 0.08549 0.55238 0.69829
 C1898 C 0.09582 0.54833 0.70265
 C1899 C 0.10836 0.54374 0.70758
 C1900 C 0.10946 0.53129 0.71352
 C1901 C 0.12177 0.52677 0.71795
 C1902 C 0.13315 0.53466 0.71644
 C1903 C 0.13190 0.54720 0.71056
 C1904 C 0.11960 0.55169 0.70617
 C1905 C 0.14631 0.52980 0.72080
 C1906 C 0.15758 0.53212 0.71297
 C1907 C 0.17001 0.52777 0.71712
 C1908 C 0.17138 0.52103 0.72915
 C1909 C 0.16022 0.51856 0.73699
 C1910 C 0.14775 0.52290 0.73284
 C1911 C 0.18430 0.51688 0.73344
 C1912 C 0.19531 0.51369 0.73673
 H1913 H 0.10083 0.52504 0.71462
 H1914 H 0.12244 0.51702 0.72230
 H1915 H 0.14043 0.55358 0.70944
 H1916 H 0.11886 0.56136 0.70161
 H1917 H 0.15677 0.53722 0.70356
 H1918 H 0.17858 0.52970 0.71096
 H1919 H 0.16118 0.51338 0.74634
 H1920 H 0.13928 0.52108 0.73915
 C1921 C 0.08730 0.05332 0.19670
 C1922 C 0.09768 0.04920 0.20089
 C1923 C 0.11023 0.04440 0.20558
 C1924 C 0.11199 0.04122 0.21897
 C1925 C 0.12429 0.03675 0.22349
 C1926 C 0.13499 0.03545 0.21466
 C1927 C 0.13307 0.03860 0.20121
 C1928 C 0.12078 0.04305 0.19672
 C1929 C 0.14813 0.03094 0.21944
 C1930 C 0.15977 0.03689 0.21466
 C1931 C 0.17215 0.03260 0.21904
 C1932 C 0.17310 0.02231 0.22824
 C1933 C 0.16158 0.01635 0.23312
 C1934 C 0.14917 0.02064 0.22876
 C1935 C 0.18591 0.01788 0.23258
 C1936 C 0.19678 0.01437 0.23599
 H1937 H 0.10390 0.04227 0.22593
 H1938 H 0.12550 0.03455 0.23393
 H1939 H 0.14105 0.03752 0.19413
 H1940 H 0.11952 0.04545 0.18632
 H1941 H 0.15930 0.04497 0.20764
 H1942 H 0.18100 0.03731 0.21523
 H1943 H 0.16220 0.00835 0.24023
 H1944 H 0.14040 0.01577 0.23251
 C1945 C 0.66196 0.69578 0.19529
 C1946 C 0.65173 0.70009 0.19964
 C1947 C 0.63936 0.70510 0.20456
 C1948 C 0.62908 0.70788 0.19569
 C1949 C 0.61692 0.71244 0.20041
 C1950 C 0.61486 0.71427 0.21408
 C1951 C 0.62529 0.71157 0.22292
 C1952 C 0.63745 0.70699 0.21818
 C1953 C 0.60182 0.71884 0.21908
 C1954 C 0.60100 0.72813 0.22943
 C1955 C 0.58869 0.73247 0.23401
 C1956 C 0.57704 0.72755 0.22833
 C1957 C 0.57776 0.71826 0.21808
 C1958 C 0.59004 0.71393 0.21348
 C1959 C 0.56433 0.73205 0.23288
 C1960 C 0.55354 0.73565 0.23643
 H1961 H 0.63046 0.70648 0.18513
 H1962 H 0.60916 0.71461 0.19334
 H1963 H 0.62395 0.71274 0.23351
 H1964 H 0.64533 0.70482 0.22514
 H1965 H 0.60989 0.73220 0.23384
 H1966 H 0.58824 0.73969 0.24193
 H1967 H 0.56881 0.71435 0.21364
 H1968 H 0.59033 0.70663 0.20563
 C1969 C 0.16285 0.69677 0.69580
 C1970 C 0.15255 0.70105 0.70002
 C1971 C 0.14006 0.70590 0.70480
 C1972 C 0.13958 0.71567 0.71461
 C1973 C 0.12738 0.72035 0.71916
 C1974 C 0.11549 0.71531 0.71391
 C1975 C 0.11610 0.70546 0.70408
 C1976 C 0.12829 0.70080 0.69956
 C1977 C 0.10249 0.72026 0.71862
 C1978 C 0.09211 0.72239 0.70957
 C1979 C 0.07975 0.72667 0.71400
 C1980 C 0.07758 0.72890 0.72752
 C1981 C 0.08787 0.72696 0.73660
 C1982 C 0.10027 0.72269 0.73218
 C1983 C 0.06466 0.73285 0.73199
 C1984 C 0.05367 0.73596 0.73539
 H1985 H 0.14863 0.71971 0.71871
 H1986 H 0.12723 0.72802 0.72664
 H1987 H 0.10714 0.70124 0.69999
 H1988 H 0.12855 0.69320 0.69200
 H1989 H 0.09357 0.72080 0.69905
 H1990 H 0.07185 0.72815 0.70689
 H1991 H 0.08627 0.72861 0.74709
 H1992 H 0.10802 0.72101 0.73940
 C1993 C 0.58750 0.19734 0.55356
 C1994 C 0.59780 0.20165 0.54935
 C1995 C 0.61027 0.20664 0.54462
 C1996 C 0.61308 0.20679 0.53103
 C1997 C 0.62538 0.21127 0.52654
 C1998 C 0.63504 0.21562 0.53561
 C1999 C 0.63205 0.21555 0.54923
 C2000 C 0.61975 0.21109 0.55370
 C2001 C 0.64825 0.22003 0.53092
 C2002 C 0.65974 0.21642 0.53790
 C2003 C 0.67219 0.22054 0.53354
 C2004 C 0.67334 0.22834 0.52215
 C2005 C 0.66198 0.23198 0.51510
 C2006 C 0.64951 0.22784 0.51944
 C2007 C 0.68621 0.23254 0.51775
 C2008 C 0.69712 0.23590 0.51432
 H2009 H 0.60582 0.20332 0.52393
 H2010 H 0.62744 0.21106 0.51601
 H2011 H 0.63920 0.21902 0.55644
 H2012 H 0.61767 0.21103 0.56424
 H2013 H 0.65912 0.21024 0.54665
 H2014 H 0.68092 0.21763 0.53904
 H2015 H 0.66277 0.23803 0.50627
 H2016 H 0.64084 0.23090 0.51393
 C2017 C 0.58963 0.69558 0.05533
 C2018 C 0.59986 0.69995 0.05101
 C2019 C 0.61223 0.70495 0.04605
 C2020 C 0.61331 0.70921 0.03289
 C2021 C 0.62544 0.71378 0.02805
 C2022 C 0.63666 0.71411 0.03631
 C2023 C 0.63543 0.70990 0.04955
 C2024 C 0.62330 0.70535 0.05437
 C2025 C 0.64964 0.71869 0.03115
 C2026 C 0.66135 0.71209 0.03473
 C2027 C 0.67358 0.71644 0.03001
 C2028 C 0.67431 0.72744 0.02165
 C2029 C 0.66273 0.73405 0.01796
 C2030 C 0.65045 0.72970 0.02266
 C2031 C 0.68700 0.73197 0.01705
 C2032 C 0.69778 0.73558 0.01346
 H2033 H 0.60481 0.70889 0.02635
 H2034 H 0.62611 0.71682 0.01777
 H2035 H 0.64383 0.71022 0.05621
 H2036 H 0.62257 0.70210 0.06458
 H2037 H 0.66103 0.70347 0.04108
 H2038 H 0.68249 0.71123 0.03291
 H2039 H 0.66318 0.74260 0.01152
 H2040 H 0.64163 0.73507 0.01985
 C2041 C 0.16363 0.05331 0.05300
 C2042 C 0.15349 0.04914 0.04830
 C2043 C 0.14119 0.04440 0.04289
 C2044 C 0.13823 0.03089 0.04301
 C2045 C 0.12601 0.02641 0.03829
 C2046 C 0.11658 0.03540 0.03343
 C2047 C 0.11974 0.04894 0.03318
 C2048 C 0.13195 0.05340 0.03789
 C2049 C 0.10336 0.03076 0.02896
 C2050 C 0.09193 0.03795 0.03227
 C2051 C 0.07946 0.03357 0.02822
 C2052 C 0.07822 0.02195 0.02081
 C2053 C 0.08952 0.01470 0.01745
 C2054 C 0.10203 0.01907 0.02151
 C2055 C 0.06530 0.01752 0.01679
 C2056 C 0.05429 0.01414 0.01366
 H2057 H 0.14529 0.02385 0.04692
 H2058 H 0.12382 0.01594 0.03874
 H2059 H 0.11276 0.05609 0.02933
 H2060 H 0.13414 0.06388 0.03774
 H2061 H 0.09260 0.04687 0.03817
 H2062 H 0.07078 0.03922 0.03092
 H2063 H 0.08867 0.00570 0.01169
 H2064 H 0.11065 0.01339 0.01870
 C2065 C 0.16438 0.55343 0.55132
 C2066 C 0.15436 0.54902 0.54657
 C2067 C 0.14219 0.54401 0.54113
 C2068 C 0.13401 0.55233 0.53368
 C2069 C 0.12185 0.54774 0.52897
 C2070 C 0.11767 0.53475 0.53166
 C2071 C 0.12607 0.52638 0.53896
 C2072 C 0.13824 0.53100 0.54368
 C2073 C 0.10444 0.53011 0.52725
 C2074 C 0.10267 0.51723 0.52227
 C2075 C 0.09013 0.51287 0.51835
 C2076 C 0.07921 0.52131 0.51938
 C2077 C 0.08089 0.53413 0.52428
 C2078 C 0.09340 0.53851 0.52819
 C2079 C 0.06623 0.51688 0.51557
 C2080 C 0.05518 0.51354 0.51256
 H2081 H 0.13697 0.56242 0.53165
 H2082 H 0.11569 0.55436 0.52323
 H2083 H 0.12308 0.51638 0.54132
 H2084 H 0.14447 0.52450 0.54949
 H2085 H 0.11100 0.51058 0.52130
 H2086 H 0.08893 0.50293 0.51454
 H2087 H 0.07250 0.54072 0.52518
 H2088 H 0.09440 0.54839 0.53218
 C2089 C 0.66319 0.05445 0.55225
 C2090 C 0.65317 0.05002 0.54750
 C2091 C 0.64104 0.04494 0.54204
 C2092 C 0.63183 0.05359 0.53642
 C2093 C 0.61979 0.04879 0.53159
 C2094 C 0.61678 0.03523 0.53234
 C2095 C 0.62617 0.02658 0.53789
 C2096 C 0.63821 0.03141 0.54270
 C2097 C 0.60375 0.03023 0.52770
 C2098 C 0.59684 0.02067 0.53509
 C2099 C 0.58431 0.01641 0.53105
 C2100 C 0.57854 0.02162 0.51958
 C2101 C 0.58541 0.03098 0.51205
 C2102 C 0.59794 0.03526 0.51607
 C2103 C 0.56535 0.01775 0.51583
 C2104 C 0.55419 0.01474 0.51288
 H2105 H 0.63388 0.06409 0.53592
 H2106 H 0.61270 0.05573 0.52756
 H2107 H 0.62420 0.01608 0.53847
 H2108 H 0.64528 0.02462 0.54703
 H2109 H 0.60096 0.01674 0.54418
 H2110 H 0.57904 0.00921 0.53699
 H2111 H 0.58103 0.03508 0.50315
 H2112 H 0.60308 0.04251 0.51009
 C2113 C 0.66439 0.55396 0.05089
 C2114 C 0.65433 0.54961 0.04617
 C2115 C 0.64211 0.54467 0.04075
 C2116 C 0.63835 0.53153 0.04285
 C2117 C 0.62615 0.52695 0.03815
 C2118 C 0.61755 0.53550 0.03132
 C2119 C 0.62153 0.54863 0.02907
 C2120 C 0.63372 0.55318 0.03377
 C2121 C 0.60431 0.53087 0.02690
 C2122 C 0.59318 0.53908 0.02832
 C2123 C 0.58066 0.53469 0.02443
 C2124 C 0.57907 0.52204 0.01907
 C2125 C 0.59007 0.51379 0.01756
 C2126 C 0.60262 0.51817 0.02146
 C2127 C 0.56607 0.51756 0.01533
 C2128 C 0.55502 0.51416 0.01240
 H2129 H 0.64474 0.52488 0.04830
 H2130 H 0.62331 0.51684 0.04017
 H2131 H 0.61522 0.55540 0.02368
 H2132 H 0.63654 0.56337 0.03208
 H2133 H 0.59411 0.54882 0.03267
 H2134 H 0.57220 0.54113 0.02570
 H2135 H 0.58895 0.50398 0.01341
 H2136 H 0.61102 0.51167 0.02011
 C2137 C 0.05362 0.05167 0.16459
 C2138 C 0.04908 0.04690 0.15462
 C2139 C 0.04387 0.04142 0.14252
 C2140 C 0.05040 0.03093 0.13628
 C2141 C 0.04576 0.02606 0.12416
 C2142 C 0.03454 0.03164 0.11810
 C2143 C 0.02791 0.04203 0.12457
 C2144 C 0.03257 0.04689 0.13669
 C2145 C 0.03004 0.02696 0.10488
 C2146 C 0.01647 0.02567 0.10200
 C2147 C 0.01230 0.02169 0.08938
 C2148 C 0.02163 0.01895 0.07950
 C2149 C 0.03513 0.02009 0.08231
 C2150 C 0.03932 0.02405 0.09491
 C2151 C 0.01742 0.01534 0.06635
 C2152 C 0.01418 0.01252 0.05520
 H2153 H 0.05915 0.02663 0.14071
 H2154 H 0.05098 0.01795 0.11952
 H2155 H 0.01935 0.04664 0.12008
 H2156 H 0.02748 0.05505 0.14140
 H2157 H 0.00910 0.02769 0.10951
 H2158 H 0.00182 0.02084 0.08730
 H2159 H 0.04243 0.01806 0.07472
 H2160 H 0.04982 0.02514 0.09674
 C2161 C 0.05150 0.55108 0.66458
 C2162 C 0.04715 0.54644 0.65447
 C2163 C 0.04219 0.54112 0.64219
 C2164 C 0.03146 0.54712 0.63583
 C2165 C 0.02709 0.54240 0.62354
 C2166 C 0.03344 0.53163 0.61744
 C2167 C 0.04409 0.52554 0.62403
 C2168 C 0.04843 0.53026 0.63631
 C2169 C 0.02925 0.52705 0.60409
 C2170 C 0.03876 0.52354 0.59453
 C2171 C 0.03488 0.51965 0.58181
 C2172 C 0.02146 0.51918 0.57846
 C2173 C 0.01190 0.52253 0.58792
 C2174 C 0.01576 0.52644 0.60066
 C2175 C 0.01757 0.51560 0.56521
 C2176 C 0.01455 0.51276 0.55400
 H2177 H 0.02661 0.55558 0.64025
 H2178 H 0.01899 0.54742 0.61865
 H2179 H 0.04907 0.51713 0.61967
 H2180 H 0.05675 0.52554 0.64115
 H2181 H 0.04922 0.52410 0.59679
 H2182 H 0.04236 0.51715 0.57454
 H2183 H 0.00148 0.52220 0.58543
 H2184 H 0.00820 0.52894 0.60783
 C2185 C 0.55194 0.05281 0.66431
 C2186 C 0.54739 0.04863 0.65407
 C2187 C 0.54215 0.04390 0.64167
 C2188 C 0.53896 0.03054 0.64006
 C2189 C 0.53421 0.02594 0.62786
 C2190 C 0.53258 0.03467 0.61713
 C2191 C 0.53573 0.04810 0.61890
 C2192 C 0.54048 0.05267 0.63108
 C2193 C 0.52787 0.02981 0.60405
 C2194 C 0.51898 0.03737 0.59645
 C2195 C 0.51501 0.03309 0.58389
 C2196 C 0.51984 0.02120 0.57874
 C2197 C 0.52853 0.01350 0.58628
 C2198 C 0.53251 0.01776 0.59887
 C2199 C 0.51624 0.01718 0.56552
 C2200 C 0.51334 0.01411 0.55434
 H2201 H 0.54020 0.02366 0.64820
 H2202 H 0.53173 0.01558 0.62685
 H2203 H 0.53478 0.05504 0.61078
 H2204 H 0.54298 0.06302 0.63220
 H2205 H 0.51509 0.04660 0.60023
 H2206 H 0.50828 0.03912 0.57813
 H2207 H 0.53238 0.00431 0.58236
 H2208 H 0.53948 0.01180 0.60440
 C2209 C 0.55310 0.55378 0.16365
 C2210 C 0.54901 0.54928 0.15336
 C2211 C 0.54442 0.54416 0.14087
 C2212 C 0.53566 0.53345 0.14044
 C2213 C 0.53135 0.52848 0.12823
 C2214 C 0.53580 0.53415 0.11629
 C2215 C 0.54456 0.54494 0.11685
 C2216 C 0.54883 0.54990 0.12905
 C2217 C 0.53135 0.52889 0.10328
 C2218 C 0.54032 0.52781 0.09267
 C2219 C 0.53608 0.52332 0.08028
 C2220 C 0.52284 0.51983 0.07830
 C2221 C 0.51385 0.52069 0.08882
 C2222 C 0.51808 0.52517 0.10126
 C2223 C 0.51847 0.51582 0.06532
 C2224 C 0.51509 0.51276 0.05428
 H2225 H 0.53221 0.52892 0.14954
 H2226 H 0.52470 0.52008 0.12811
 H2227 H 0.54800 0.54965 0.10785
 H2228 H 0.55558 0.55822 0.12926
 H2229 H 0.55063 0.53041 0.09397
 H2230 H 0.54312 0.52268 0.07221
 H2231 H 0.50356 0.51807 0.08738
 H2232 H 0.51092 0.52602 0.10919
 C2233 C 0.19717 0.55330 0.58619
 C2234 C 0.20124 0.54879 0.59648
 C2235 C 0.20580 0.54361 0.60896
 C2236 C 0.21619 0.53448 0.60939
 C2237 C 0.22055 0.52950 0.62157
 C2238 C 0.21454 0.53359 0.63348
 C2239 C 0.20412 0.54278 0.63292
 C2240 C 0.19980 0.54775 0.62074
 C2241 C 0.21912 0.52838 0.64646
 C2242 C 0.20993 0.52519 0.65643
 C2243 C 0.21422 0.52076 0.66882
 C2244 C 0.22775 0.51945 0.67143
 C2245 C 0.23698 0.52241 0.66153
 C2246 C 0.23270 0.52683 0.64910
 C2247 C 0.23208 0.51554 0.68445
 C2248 C 0.23542 0.51255 0.69552
 H2249 H 0.22088 0.53119 0.60031
 H2250 H 0.22849 0.52234 0.62168
 H2251 H 0.19944 0.54628 0.64191
 H2252 H 0.19178 0.55485 0.62053
 H2253 H 0.19941 0.52609 0.65463
 H2254 H 0.20699 0.51849 0.67642
 H2255 H 0.24748 0.52148 0.66347
 H2256 H 0.24002 0.52934 0.64168
 C2257 C 0.19548 0.05284 0.08699
 C2258 C 0.19950 0.04843 0.09734
 C2259 C 0.20412 0.04338 0.10985
 C2260 C 0.19505 0.04038 0.11988
 C2261 C 0.19949 0.03588 0.13220
 C2262 C 0.21310 0.03433 0.13466
 C2263 C 0.22215 0.03724 0.12447
 C2264 C 0.21768 0.04175 0.11215
 C2265 C 0.21783 0.02989 0.14788
 C2266 C 0.22836 0.02087 0.14899
 C2267 C 0.23278 0.01674 0.16147
 C2268 C 0.22676 0.02160 0.17297
 C2269 C 0.21631 0.03058 0.17197
 C2270 C 0.21186 0.03471 0.15952
 C2271 C 0.23127 0.01741 0.18584
 C2272 C 0.23487 0.01406 0.19673
 H2273 H 0.18453 0.04159 0.11820
 H2274 H 0.19228 0.03355 0.13978
 H2275 H 0.23269 0.03629 0.12610
 H2276 H 0.22479 0.04410 0.10447
 H2277 H 0.23306 0.01688 0.14021
 H2278 H 0.24087 0.00976 0.16213
 H2279 H 0.21161 0.03444 0.18082
 H2280 H 0.20387 0.04180 0.15901
 C2281 C 0.69623 0.19692 0.66299
 C2282 C 0.70023 0.20130 0.65263
 C2283 C 0.70482 0.20630 0.64009
 C2284 C 0.69626 0.20648 0.62918
 C2285 C 0.70074 0.21097 0.61688
 C2286 C 0.71387 0.21533 0.61531
 C2287 C 0.72237 0.21523 0.62637
 C2288 C 0.71786 0.21072 0.63868
 C2289 C 0.71868 0.21981 0.60214
 C2290 C 0.72703 0.23089 0.60102
 C2291 C 0.73146 0.23510 0.58858
 C2292 C 0.72763 0.22828 0.57713
 C2293 C 0.71939 0.21721 0.57815
 C2294 C 0.71495 0.21300 0.59056
 C2295 C 0.73206 0.23261 0.56429
 C2296 C 0.73559 0.23603 0.55340
 H2297 H 0.68614 0.20310 0.63017
 H2298 H 0.69391 0.21111 0.60860
 H2299 H 0.73256 0.21839 0.62544
 H2300 H 0.72458 0.21057 0.64705
 H2301 H 0.72997 0.23641 0.60974
 H2302 H 0.73782 0.24369 0.58789
 H2303 H 0.71641 0.21183 0.56935
 H2304 H 0.70871 0.20431 0.59111
 C2305 C 0.69559 0.69619 0.16126
 C2306 C 0.69982 0.70059 0.15100
 C2307 C 0.70467 0.70564 0.13858
 C2308 C 0.69619 0.70632 0.12763
 C2309 C 0.70089 0.71087 0.11543
 C2310 C 0.71418 0.71479 0.11400
 C2311 C 0.72260 0.71419 0.12510
 C2312 C 0.71787 0.70963 0.13731
 C2313 C 0.71921 0.71933 0.10094
 C2314 C 0.72792 0.73015 0.10006
 C2315 C 0.73251 0.73448 0.08772
 C2316 C 0.72848 0.72803 0.07611
 C2317 C 0.71990 0.71721 0.07690
 C2318 C 0.71529 0.71288 0.08921
 C2319 C 0.73298 0.73254 0.06336
 C2320 C 0.73650 0.73612 0.05252
 H2321 H 0.68595 0.70329 0.12850
 H2322 H 0.69412 0.71140 0.10713
 H2323 H 0.73290 0.71699 0.12428
 H2324 H 0.72453 0.70910 0.14571
 H2325 H 0.73100 0.73541 0.10890
 H2326 H 0.73913 0.74289 0.08721
 H2327 H 0.71674 0.71213 0.06798
 H2328 H 0.70876 0.70441 0.08957
 C2329 C 0.55571 0.69531 0.08911
 C2330 C 0.55129 0.69952 0.09937
 C2331 C 0.54617 0.70430 0.11179
 C2332 C 0.54462 0.69559 0.12244
 C2333 C 0.53996 0.70020 0.13463
 C2334 C 0.53678 0.71363 0.13634
 C2335 C 0.53826 0.72230 0.12553
 C2336 C 0.54294 0.71765 0.11334
 C2337 C 0.53210 0.71856 0.14939
 C2338 C 0.52180 0.72787 0.15018
 C2339 C 0.51737 0.73241 0.16251
 C2340 C 0.52320 0.72773 0.17419
 C2341 C 0.53348 0.71851 0.17350
 C2342 C 0.53790 0.71395 0.16120
 C2343 C 0.51868 0.73230 0.18691
 C2344 C 0.51511 0.73593 0.19772
 H2345 H 0.54706 0.68522 0.12134
 H2346 H 0.53875 0.69325 0.14270
 H2347 H 0.53604 0.73271 0.12658
 H2348 H 0.54414 0.72449 0.10517
 H2349 H 0.51703 0.73149 0.14127
 H2350 H 0.50939 0.73953 0.16293
 H2351 H 0.53809 0.71486 0.18248
 H2352 H 0.54598 0.70694 0.16093
 C2353 C 0.05287 0.69692 0.58545
 C2354 C 0.04848 0.70114 0.59573
 C2355 C 0.04352 0.70592 0.60821
 C2356 C 0.04644 0.69904 0.61987
 C2357 C 0.04192 0.70373 0.63208
 C2358 C 0.03440 0.71540 0.63280
 C2359 C 0.03141 0.72221 0.62101
 C2360 C 0.03597 0.71750 0.60879
 C2361 C 0.02983 0.72046 0.64584
 C2362 C 0.01701 0.72566 0.64736
 C2363 C 0.01266 0.73010 0.65976
 C2364 C 0.02108 0.72943 0.67076
 C2365 C 0.03389 0.72441 0.66931
 C2366 C 0.03824 0.71996 0.65695
 C2367 C 0.01661 0.73357 0.68365
 C2368 C 0.01322 0.73675 0.69466
 H2369 H 0.05224 0.69005 0.61954
 H2370 H 0.04421 0.69816 0.64095
 H2371 H 0.02577 0.73129 0.62126
 H2372 H 0.03369 0.72292 0.59981
 H2373 H 0.01026 0.72605 0.63902
 H2374 H 0.00271 0.73392 0.66079
 H2375 H 0.04049 0.72387 0.67776
 H2376 H 0.04822 0.71620 0.65607
 C2377 C 0.55244 0.58810 0.19697
 C2378 C 0.54800 0.59838 0.20103
 C2379 C 0.54293 0.61085 0.20562
 C2380 C 0.54053 0.61292 0.21913
 C2381 C 0.53601 0.62521 0.22357
 C2382 C 0.53388 0.63560 0.21454
 C2383 C 0.53620 0.63335 0.20097
 C2384 C 0.54069 0.62107 0.19655
 C2385 C 0.52946 0.64878 0.21925
 C2386 C 0.53491 0.66036 0.21378
 C2387 C 0.53079 0.67278 0.21818
 C2388 C 0.52117 0.67382 0.22809
 C2389 C 0.51569 0.66238 0.23362
 C2390 C 0.51982 0.64993 0.22924
 C2391 C 0.51700 0.68667 0.23253
 C2392 C 0.51371 0.69757 0.23603
 H2393 H 0.54228 0.60510 0.22623
 H2394 H 0.53446 0.62668 0.23409
 H2395 H 0.53447 0.64108 0.19375
 H2396 H 0.54250 0.61956 0.18607
 H2397 H 0.54249 0.65981 0.20622
 H2398 H 0.53513 0.68157 0.21386
 H2399 H 0.50821 0.66308 0.24128
 H2400 H 0.51534 0.64120 0.23354
 C2401 C 0.05138 0.58580 0.69748
 C2402 C 0.04699 0.59613 0.70147
 C2403 C 0.04198 0.60866 0.70595
 C2404 C 0.03337 0.60935 0.71680
 C2405 C 0.02859 0.62159 0.72111
 C2406 C 0.03235 0.63330 0.71458
 C2407 C 0.04100 0.63247 0.70368
 C2408 C 0.04577 0.62025 0.69941
 C2409 C 0.02738 0.64634 0.71912
 C2410 C 0.02372 0.65605 0.70984
 C2411 C 0.01953 0.66851 0.71407
 C2412 C 0.01891 0.67143 0.72762
 C2413 C 0.02236 0.66179 0.73695
 C2414 C 0.02655 0.64931 0.73273
 C2415 C 0.01517 0.68448 0.73186
 C2416 C 0.01226 0.69556 0.73512
 H2417 H 0.03035 0.60043 0.72191
 H2418 H 0.02184 0.62189 0.72943
 H2419 H 0.04423 0.64131 0.69857
 H2420 H 0.05246 0.61984 0.69103
 H2421 H 0.02408 0.65401 0.69931
 H2422 H 0.01688 0.67589 0.70677
 H2423 H 0.02199 0.66398 0.74746
 H2424 H 0.02944 0.64209 0.74011
 C2425 C 0.05166 0.16456 0.05172
 C2426 C 0.04745 0.15430 0.04733
 C2427 C 0.04271 0.14187 0.04229
 C2428 C 0.05157 0.13300 0.03644
 C2429 C 0.04716 0.12066 0.03206
 C2430 C 0.03380 0.11700 0.03350
 C2431 C 0.02492 0.12606 0.03922
 C2432 C 0.02937 0.13841 0.04361
 C2433 C 0.02925 0.10368 0.02934
 C2434 C 0.01698 0.10197 0.02295
 C2435 C 0.01274 0.08936 0.01912
 C2436 C 0.02068 0.07833 0.02166
 C2437 C 0.03287 0.07994 0.02804
 C2438 C 0.03714 0.09251 0.03185
 C2439 C 0.01642 0.06532 0.01780
 C2440 C 0.01320 0.05427 0.01472
 H2441 H 0.06192 0.13558 0.03536
 H2442 H 0.05419 0.11398 0.02753
 H2443 H 0.01462 0.12348 0.04060
 H2444 H 0.02244 0.14517 0.04818
 H2445 H 0.01075 0.11039 0.02077
 H2446 H 0.00330 0.08823 0.01416
 H2447 H 0.03908 0.07146 0.03010
 H2448 H 0.04652 0.09346 0.03694
 C2449 C 0.05291 0.66373 0.55098
 C2450 C 0.04850 0.65367 0.54635
 C2451 C 0.04347 0.64146 0.54102
 C2452 C 0.05074 0.63457 0.53146
 C2453 C 0.04624 0.62238 0.52677
 C2454 C 0.03439 0.61688 0.53162
 C2455 C 0.02704 0.62399 0.54107
 C2456 C 0.03157 0.63619 0.54575
 C2457 C 0.02996 0.60361 0.52714
 C2458 C 0.01649 0.60101 0.52472
 C2459 C 0.01236 0.58839 0.52083
 C2460 C 0.02162 0.57824 0.51932
 C2461 C 0.03503 0.58075 0.52164
 C2462 C 0.03918 0.59334 0.52551
 C2463 C 0.01743 0.56514 0.51565
 C2464 C 0.01425 0.55404 0.51274
 H2465 H 0.05996 0.63857 0.52772
 H2466 H 0.05202 0.61723 0.51936
 H2467 H 0.01798 0.61996 0.54511
 H2468 H 0.02590 0.64141 0.55321
 H2469 H 0.00918 0.60875 0.52576
 H2470 H 0.00194 0.58655 0.51905
 H2471 H 0.04227 0.57294 0.52057
 H2472 H 0.04959 0.59496 0.52750
 C2473 C 0.55325 0.16397 0.55335
 C2474 C 0.54875 0.15379 0.54906
 C2475 C 0.54356 0.14144 0.54426
 C2476 C 0.54567 0.12989 0.55157
 C2477 C 0.54073 0.11782 0.54700
 C2478 C 0.53361 0.11714 0.53503
 C2479 C 0.53155 0.12880 0.52773
 C2480 C 0.53649 0.14088 0.53233
 C2481 C 0.52848 0.10425 0.53018
 C2482 C 0.52934 0.10086 0.51667
 C2483 C 0.52503 0.08848 0.51225
 C2484 C 0.51976 0.07937 0.52126
 C2485 C 0.51867 0.08274 0.53467
 C2486 C 0.52298 0.09509 0.53911
 C2487 C 0.51593 0.06637 0.51691
 C2488 C 0.51293 0.05532 0.51361
 H2489 H 0.55118 0.13020 0.56078
 H2490 H 0.54266 0.10900 0.55274
 H2491 H 0.52600 0.12861 0.51854
 H2492 H 0.53479 0.14978 0.52661
 H2493 H 0.53366 0.10764 0.50958
 H2494 H 0.52599 0.08594 0.50186
 H2495 H 0.51461 0.07576 0.54173
 H2496 H 0.52201 0.09748 0.54953
 C2497 C 0.55567 0.66196 0.05482
 C2498 C 0.55127 0.65181 0.05037
 C2499 C 0.54625 0.63948 0.04534
 C2500 C 0.55283 0.62771 0.04835
 C2501 C 0.54790 0.61565 0.04375
 C2502 C 0.53629 0.61519 0.03607
 C2503 C 0.52979 0.62709 0.03299
 C2504 C 0.53474 0.63916 0.03762
 C2505 C 0.53098 0.60232 0.03140
 C2506 C 0.52589 0.60093 0.01848
 C2507 C 0.52124 0.58868 0.01404
 C2508 C 0.52155 0.57771 0.02247
 C2509 C 0.52644 0.57904 0.03538
 C2510 C 0.53111 0.59125 0.03983
 C2511 C 0.51724 0.56495 0.01788
 C2512 C 0.51393 0.55405 0.01438
 H2513 H 0.56177 0.62784 0.05428
 H2514 H 0.55324 0.60669 0.04612
 H2515 H 0.52076 0.62704 0.02721
 H2516 H 0.52954 0.64822 0.03527
 H2517 H 0.52579 0.60924 0.01172
 H2518 H 0.51752 0.58774 0.00400
 H2519 H 0.52671 0.57061 0.04200
 H2520 H 0.53477 0.59205 0.04989
 C2521 C 0.69605 0.08819 0.55422
 C2522 C 0.70031 0.09855 0.55016
 C2523 C 0.70516 0.11107 0.54548
 C2524 C 0.69748 0.12244 0.54717
 C2525 C 0.70216 0.13467 0.54280
 C2526 C 0.71462 0.13571 0.53666
 C2527 C 0.72224 0.12421 0.53493
 C2528 C 0.71754 0.11197 0.53933
 C2529 C 0.71962 0.14875 0.53215
 C2530 C 0.72628 0.15001 0.51996
 C2531 C 0.73076 0.16236 0.51565
 C2532 C 0.72868 0.17359 0.52347
 C2533 C 0.72216 0.17242 0.53565
 C2534 C 0.71766 0.16010 0.53997
 C2535 C 0.73302 0.18637 0.51898
 C2536 C 0.73646 0.19720 0.51541
 H2537 H 0.68786 0.12185 0.55187
 H2538 H 0.69598 0.14330 0.54409
 H2539 H 0.73193 0.12471 0.53038
 H2540 H 0.72357 0.10323 0.53800
 H2541 H 0.72780 0.14149 0.51365
 H2542 H 0.73576 0.16316 0.50618
 H2543 H 0.72052 0.18105 0.54180
 H2544 H 0.71274 0.15943 0.54948
 C2545 C 0.69776 0.58816 0.05242
 C2546 C 0.70213 0.59849 0.04838
 C2547 C 0.70716 0.61097 0.04378
 C2548 C 0.70848 0.61343 0.03019
 C2549 C 0.71300 0.62572 0.02576
 C2550 C 0.71622 0.63574 0.03489
 C2551 C 0.71497 0.63312 0.04854
 C2552 C 0.71047 0.62083 0.05294
 C2553 C 0.72066 0.64894 0.03023
 C2554 C 0.71609 0.66049 0.03650
 C2555 C 0.72021 0.67292 0.03213
 C2556 C 0.72897 0.67401 0.02145
 C2557 C 0.73357 0.66259 0.01512
 C2558 C 0.72943 0.65013 0.01946
 C2559 C 0.73319 0.68686 0.01705
 C2560 C 0.73657 0.69774 0.01358
 H2561 H 0.70588 0.60589 0.02301
 H2562 H 0.71371 0.62748 0.01519
 H2563 H 0.71755 0.64056 0.05582
 H2564 H 0.70951 0.61903 0.06349
 H2565 H 0.70917 0.65991 0.04468
 H2566 H 0.71655 0.68169 0.03707
 H2567 H 0.74037 0.66332 0.00685
 H2568 H 0.73323 0.64143 0.01452
 C2569 C 0.19665 0.66304 0.69608
 C2570 C 0.20094 0.65279 0.70037
 C2571 C 0.20584 0.64034 0.70518
 C2572 C 0.20083 0.62857 0.69991
 C2573 C 0.20559 0.61642 0.70441
 C2574 C 0.21544 0.61586 0.71425
 C2575 C 0.22038 0.62775 0.71954
 C2576 C 0.21562 0.63992 0.71501
 C2577 C 0.22049 0.60290 0.71893
 C2578 C 0.22290 0.60066 0.73250
 C2579 C 0.22722 0.58828 0.73690
 C2580 C 0.22924 0.57804 0.72779
 C2581 C 0.22705 0.58024 0.71428
 C2582 C 0.22271 0.59258 0.70987
 C2583 C 0.23319 0.56513 0.73226
 C2584 C 0.23627 0.55414 0.73567
 H2585 H 0.19324 0.62878 0.69233
 H2586 H 0.20143 0.60744 0.70029
 H2587 H 0.22806 0.62764 0.72703
 H2588 H 0.21959 0.64898 0.71913
 H2589 H 0.22114 0.60837 0.73973
 H2590 H 0.22884 0.58667 0.74739
 H2591 H 0.22860 0.57238 0.70714
 H2592 H 0.22114 0.59405 0.69935
 C2593 C 0.19664 0.16255 0.19715
 C2594 C 0.20080 0.15221 0.20135
 C2595 C 0.20552 0.13969 0.20619
 C2596 C 0.19648 0.12970 0.20931
 C2597 C 0.20098 0.11738 0.21364
 C2598 C 0.21461 0.11489 0.21491
 C2599 C 0.22363 0.12505 0.21187
 C2600 C 0.21910 0.13737 0.20752
 C2601 C 0.21937 0.10170 0.21921
 C2602 C 0.23005 0.10052 0.22809
 C2603 C 0.23445 0.08806 0.23216
 C2604 C 0.22825 0.07664 0.22739
 C2605 C 0.21766 0.07771 0.21852
 C2606 C 0.21325 0.09014 0.21445
 C2607 C 0.23266 0.06379 0.23160
 C2608 C 0.23612 0.05291 0.23499
 H2609 H 0.18594 0.13140 0.20834
 H2610 H 0.19378 0.10984 0.21609
 H2611 H 0.23418 0.12339 0.21260
 H2612 H 0.22619 0.14502 0.20508
 H2613 H 0.23487 0.10923 0.23204
 H2614 H 0.24264 0.08734 0.23906
 H2615 H 0.21282 0.06893 0.21473
 H2616 H 0.20514 0.09070 0.20746
 C2617 C 0.69760 1.16311 0.69677
 C2618 C 0.70218 1.15293 0.70091
 C2619 C 0.70745 1.14057 0.70556
 C2620 C 0.70672 1.12937 0.69746
 C2621 C 0.71160 1.11726 0.70196
 C2622 C 0.71727 1.11618 0.71465
 C2623 C 0.71799 1.12751 0.72273
 C2624 C 0.71312 1.13962 0.71820
 C2625 C 0.72219 1.10322 0.71948
 C2626 C 0.71979 1.09914 0.73260
 C2627 C 0.72391 1.08668 0.73693
 C2628 C 0.73050 1.07816 0.72822
 C2629 C 0.73312 1.08222 0.71522
 C2630 C 0.72901 1.09466 0.71087
 C2631 C 0.73415 1.06508 0.73241
 C2632 C 0.73703 1.05398 0.73564
 H2633 H 0.70230 1.12997 0.68769
 H2634 H 0.71070 1.10869 0.69559
 H2635 H 0.72243 1.12701 0.73249
 H2636 H 0.71374 1.14824 0.72455
 H2637 H 0.71443 1.10544 0.73941
 H2638 H 0.72177 1.08361 0.74699
 H2639 H 0.73821 1.07571 0.70840
 H2640 H 0.73117 1.09759 0.70077
 C2641 C 0.69635 0.66261 0.19529
 C2642 C 0.70097 0.65252 0.19962
 C2643 C 0.70633 0.64027 0.20448
 C2644 C 0.70498 0.62877 0.19690
 C2645 C 0.71005 0.61681 0.20155
 C2646 C 0.71654 0.61617 0.21388
 C2647 C 0.71785 0.62779 0.22144
 C2648 C 0.71278 0.63977 0.21675
 C2649 C 0.72174 0.60338 0.21884
 C2650 C 0.72023 0.59979 0.23224
 C2651 C 0.72458 0.58746 0.23673
 C2652 C 0.73054 0.57860 0.22792
 C2653 C 0.73229 0.58217 0.21463
 C2654 C 0.72794 0.59447 0.21012
 C2655 C 0.73435 0.56563 0.23230
 C2656 C 0.73731 0.55459 0.23564
 H2657 H 0.69995 0.62904 0.18741
 H2658 H 0.70869 0.60801 0.19559
 H2659 H 0.72291 0.62763 0.23091
 H2660 H 0.71390 0.64862 0.22269
 H2661 H 0.71537 0.60637 0.23916
 H2662 H 0.72310 0.58476 0.24702
 H2663 H 0.73689 0.57538 0.20772
 H2664 H 0.72942 0.59701 0.19979
 C2665 C 0.55257 0.08606 0.69780
 C2666 C 0.54847 0.09633 0.70225
 C2667 C 0.54385 0.10878 0.70733
 C2668 C 0.53252 0.10938 0.71529
 C2669 C 0.52806 0.12155 0.72011
 C2670 C 0.53491 0.13328 0.71706
 C2671 C 0.54629 0.13255 0.70905
 C2672 C 0.55071 0.12039 0.70423
 C2673 C 0.53021 0.14624 0.72208
 C2674 C 0.53931 0.15578 0.72656
 C2675 C 0.53496 0.16817 0.73083
 C2676 C 0.52146 0.17121 0.73071
 C2677 C 0.51230 0.16174 0.72645
 C2678 C 0.51663 0.14932 0.72218
 C2679 C 0.51714 0.18420 0.73456
 C2680 C 0.51384 0.19523 0.73759
 H2681 H 0.52715 0.10045 0.71776
 H2682 H 0.51936 0.12178 0.72636
 H2683 H 0.55166 0.14140 0.70635
 H2684 H 0.55945 0.12005 0.69803
 H2685 H 0.54981 0.15365 0.72679
 H2686 H 0.54214 0.17542 0.73413
 H2687 H 0.50183 0.16401 0.72626
 H2688 H 0.50940 0.14225 0.71865
 C2689 C 1.05329 0.08597 0.19697
 C2690 C 1.04867 0.09614 0.20112
 C2691 C 1.04329 0.10846 0.20577
 C2692 C 1.03795 0.10945 0.21853
 C2693 C 1.03287 0.12151 0.22302
 C2694 C 1.03306 0.13272 0.21477
 C2695 C 1.03842 0.13159 0.20195
 C2696 C 1.04350 0.11955 0.19749
 C2697 C 1.02787 0.14560 0.21953
 C2698 C 1.02057 0.15382 0.21098
 C2699 C 1.01618 0.16619 0.21526
 C2700 C 1.01900 0.17053 0.22813
 C2701 C 1.02608 0.16235 0.23679
 C2702 C 1.03047 0.14995 0.23253
 C2703 C 1.01512 0.18358 0.23222
 C2704 C 1.01211 0.19467 0.23538
 H2705 H 1.03771 0.10092 0.22502
 H2706 H 1.02869 0.12203 0.23289
 H2707 H 1.03891 0.14008 0.19543
 H2708 H 1.04766 0.11891 0.18761
 H2709 H 1.01825 0.15067 0.20098
 H2710 H 1.01071 0.17244 0.20848
 H2711 H 1.02838 0.16564 0.24675
 H2712 H 1.03619 0.14393 0.23929
 C2713 C 0.19753 0.58783 0.55309
 C2714 C 0.20181 0.59820 0.54908
 C2715 C 0.20669 0.61074 0.54447
 C2716 C 0.20731 0.62148 0.55320
 C2717 C 0.21169 0.63379 0.54871
 C2718 C 0.21551 0.63554 0.53541
 C2719 C 0.21498 0.62465 0.52674
 C2720 C 0.21058 0.61234 0.53125
 C2721 C 0.21987 0.64870 0.53060
 C2722 C 0.23060 0.64988 0.52179
 C2723 C 0.23471 0.66232 0.51734
 C2724 C 0.22813 0.67371 0.52161
 C2725 C 0.21741 0.67263 0.53032
 C2726 C 0.21331 0.66022 0.53479
 C2727 C 0.23237 0.68655 0.51718
 C2728 C 0.23576 0.69742 0.51368
 H2729 H 0.20435 0.62035 0.56346
 H2730 H 0.21217 0.64192 0.55568
 H2731 H 0.21771 0.62572 0.51641
 H2732 H 0.21009 0.60411 0.52440
 H2733 H 0.23594 0.64122 0.51850
 H2734 H 0.24304 0.66305 0.51062
 H2735 H 0.21222 0.68138 0.53365
 H2736 H 0.20489 0.65963 0.54140
 C2737 C 0.19749 0.08612 1.05363
 C2738 C 0.20223 0.09620 1.04939
 C2739 C 0.20768 0.10843 1.04457
 C2740 C 0.21493 0.11657 1.05313
 C2741 C 0.21968 0.12876 1.04870
 C2742 C 0.21723 0.13299 1.03564
 C2743 C 0.21011 0.12464 1.02704
 C2744 C 0.20535 0.11245 1.03150
 C2745 C 0.22172 0.14623 1.03115
 C2746 C 0.22692 0.14805 1.01833
 C2747 C 0.23090 0.16060 1.01409
 C2748 C 0.22972 0.17147 1.02260
 C2749 C 0.22460 0.16974 1.03536
 C2750 C 0.22063 0.15722 1.03962
 C2751 C 0.23355 0.18446 1.01827
 C2752 C 0.23654 0.19552 1.01499
 H2753 H 0.21679 0.11355 1.06327
 H2754 H 0.22528 0.13488 1.05550
 H2755 H 0.20793 0.12769 1.01699
 H2756 H 0.19969 0.10625 1.02481
 H2757 H 0.22800 0.13976 1.01162
 H2758 H 0.23486 0.16184 1.00418
 H2759 H 0.22358 0.17809 1.04200
 H2760 H 0.21648 0.15619 1.04946
 C2761 C 0.19687 0.69670 0.66214
 C2762 C 0.20132 0.70093 0.65189
 C2763 C 0.20646 0.70569 0.63947
 C2764 C 0.21189 0.69679 0.63037
 C2765 C 0.21644 0.70125 0.61808
 C2766 C 0.21562 0.71472 0.61472
 C2767 C 0.21029 0.72363 0.62401
 C2768 C 0.20573 0.71913 0.63630
 C2769 C 0.22007 0.71938 0.60149
 C2770 C 0.22704 0.73135 0.60015
 C2771 C 0.23116 0.73571 0.58764
 C2772 C 0.22836 0.72817 0.57634
 C2773 C 0.22143 0.71627 0.57758
 C2774 C 0.21731 0.71189 0.59005
 C2775 C 0.23252 0.73260 0.56344
 C2776 C 0.23585 0.73608 0.55251
 H2777 H 0.21251 0.68636 0.63273
 H2778 H 0.22066 0.69418 0.61123
 H2779 H 0.20939 0.73403 0.62165
 H2780 H 0.20149 0.72610 0.64325
 H2781 H 0.22944 0.73726 0.60877
 H2782 H 0.23655 0.74493 0.58680
 H2783 H 0.21915 0.71039 0.56889
 H2784 H 0.21179 0.70275 0.59073
 C2785 C 0.19747 0.19632 1.16518
 C2786 C 0.20207 0.20090 1.15515
 C2787 C 0.20737 0.20609 1.14297
 C2788 C 0.20277 0.21812 1.13793
 C2789 C 0.20742 0.22280 1.12575
 C2790 C 0.21671 0.21546 1.11842
 C2791 C 0.22142 0.20348 1.12368
 C2792 C 0.21677 0.19883 1.13587
 C2793 C 0.22116 0.22005 1.10516
 C2794 C 0.22260 0.21100 1.09467
 C2795 C 0.22648 0.21531 1.08211
 C2796 C 0.22899 0.22871 1.07983
 C2797 C 0.22766 0.23780 1.09020
 C2798 C 0.22376 0.23351 1.10280
 C2799 C 0.23269 0.23305 1.06676
 C2800 C 0.23565 0.23635 1.05567
 H2801 H 0.19544 0.22378 1.14332
 H2802 H 0.20349 0.23197 1.12189
 H2803 H 0.22870 0.19769 1.11837
 H2804 H 0.22039 0.18950 1.13968
 H2805 H 0.22047 0.20061 1.09611
 H2806 H 0.22741 0.20819 1.07413
 H2807 H 0.22959 0.24820 1.08854
 H2808 H 0.22287 0.24070 1.11070
 C2809 C 0.69732 0.55379 0.08567
 C2810 C 0.70146 0.54939 0.09597
 C2811 C 0.70617 0.54441 0.10848
 C2812 C 0.71691 0.53571 0.10897
 C2813 C 0.72155 0.53109 0.12120
 C2814 C 0.71551 0.53517 0.13309
 C2815 C 0.70466 0.54385 0.13245
 C2816 C 0.70004 0.54843 0.12024
 C2817 C 0.72051 0.53052 0.14613
 C2818 C 0.72127 0.53928 0.15694
 C2819 C 0.72566 0.53488 0.16931
 C2820 C 0.72936 0.52169 0.17106
 C2821 C 0.72878 0.51291 0.16035
 C2822 C 0.72440 0.51729 0.14794
 C2823 C 0.73344 0.51721 0.18398
 C2824 C 0.73660 0.51382 0.19499
 H2825 H 0.72175 0.53256 0.09992
 H2826 H 0.73000 0.52453 0.12138
 H2827 H 0.69966 0.54700 0.14140
 H2828 H 0.69169 0.55513 0.11997
 H2829 H 0.71854 0.54956 0.15581
 H2830 H 0.72609 0.54177 0.17752
 H2831 H 0.73158 0.50266 0.16162
 H2832 H 0.72380 0.51029 0.13985
 C2833 C 0.69643 1.05396 0.58670
 C2834 C 0.70069 1.04927 0.59682
 C2835 C 0.70550 1.04382 0.60909
 C2836 C 0.69735 1.04383 0.62030
 C2837 C 0.70198 1.03872 0.63230
 C2838 C 0.71485 1.03352 0.63327
 C2839 C 0.72296 1.03352 0.62193
 C2840 C 0.71830 1.03863 0.60991
 C2841 C 0.71980 1.02833 0.64612
 C2842 C 0.73278 1.03107 0.65037
 C2843 C 0.73720 1.02669 0.66276
 C2844 C 0.72873 1.01947 0.67101
 C2845 C 0.71589 1.01650 0.66677
 C2846 C 0.71145 1.02087 0.65441
 C2847 C 0.73297 1.01561 0.68407
 C2848 C 0.73621 1.01262 0.69518
 H2849 H 0.68744 1.04786 0.61979
 H2850 H 0.69556 1.03905 0.64089
 H2851 H 0.73286 1.02946 0.62232
 H2852 H 0.72468 1.03856 0.60128
 H2853 H 0.73939 1.03691 0.64428
 H2854 H 0.74713 1.02911 0.66598
 H2855 H 0.70926 1.01092 0.67309
 H2856 H 0.70148 1.01844 0.65133
 C2857 C 0.55362 0.19767 0.58730
 C2858 C 0.54939 0.20206 0.59758
 C2859 C 0.54464 0.20711 0.61004
 C2860 C 0.53251 0.21373 0.61076
 C2861 C 0.52792 0.21848 0.62296
 C2862 C 0.53543 0.21667 0.63457
 C2863 C 0.54762 0.21002 0.63371
 C2864 C 0.55218 0.20529 0.62153
 C2865 C 0.53057 0.22156 0.64758
 C2866 C 0.53938 0.22736 0.65669
 C2867 C 0.53495 0.23148 0.66914
 C2868 C 0.52166 0.22989 0.67266
 C2869 C 0.51277 0.22431 0.66361
 C2870 C 0.51718 0.22018 0.65113
 C2871 C 0.51733 0.23357 0.68575
 C2872 C 0.51404 0.23647 0.69686
 H2873 H 0.52661 0.21522 0.60192
 H2874 H 0.51857 0.22367 0.62328
 H2875 H 0.55354 0.20830 0.64249
 H2876 H 0.56156 0.20013 0.62109
 H2877 H 0.54971 0.22873 0.65418
 H2878 H 0.54192 0.23579 0.67607
 H2879 H 0.50247 0.22298 0.66626
 H2880 H 0.51019 0.21562 0.64439
 C2881 C 1.05125 0.19732 0.08476
 C2882 C 1.04677 0.20151 0.09501
 C2883 C 1.04158 0.20621 0.10743
 C2884 C 1.04076 0.19761 0.11825
 C2885 C 1.03594 0.20211 0.13042
 C2886 C 1.03187 0.21532 0.13194
 C2887 C 1.03269 0.22389 0.12098
 C2888 C 1.03751 0.21935 0.10880
 C2889 C 1.02700 0.22012 0.14498
 C2890 C 1.03083 0.23259 0.14982
 C2891 C 1.02672 0.23683 0.16237
 C2892 C 1.01871 0.22868 0.17020
 C2893 C 1.01469 0.21636 0.16538
 C2894 C 1.01879 0.21210 0.15286
 C2895 C 1.01507 0.23269 0.18339
 C2896 C 1.01220 0.23577 0.19458
 H2897 H 1.04394 0.18743 0.11732
 H2898 H 1.03563 0.19533 0.13871
 H2899 H 1.02950 0.23406 0.12180
 H2900 H 1.03808 0.22609 0.10047
 H2901 H 1.03728 0.23892 0.14407
 H2902 H 1.02995 0.24636 0.16604
 H2903 H 1.00849 0.20997 0.17137
 H2904 H 1.01553 0.20253 0.14933
 C2905 C 0.66341 0.19643 0.69782
 C2906 C 0.65321 0.20056 0.70241
 C2907 C 0.64081 0.20520 0.70763
 C2908 C 0.63968 0.21801 0.71272
 C2909 C 0.62748 0.22256 0.71741
 C2910 C 0.61625 0.21434 0.71700
 C2911 C 0.61754 0.20144 0.71198
 C2912 C 0.62973 0.19691 0.70733
 C2913 C 0.60317 0.21923 0.72156
 C2914 C 0.59164 0.21612 0.71439
 C2915 C 0.57930 0.22056 0.71870
 C2916 C 0.57828 0.22817 0.73024
 C2917 C 0.58968 0.23141 0.73742
 C2918 C 0.60207 0.22698 0.73311
 C2919 C 0.56546 0.23248 0.73466
 C2920 C 0.55450 0.23577 0.73801
 H2921 H 0.64819 0.22452 0.71295
 H2922 H 0.62676 0.23259 0.72108
 H2923 H 0.60913 0.19481 0.71172
 H2924 H 0.63050 0.18696 0.70343
 H2925 H 0.59218 0.21035 0.70536
 H2926 H 0.57054 0.21804 0.71304
 H2927 H 0.58900 0.23727 0.74638
 H2928 H 0.61075 0.22943 0.73891
 C2929 C 1.16334 0.19583 0.19777
 C2930 C 1.15303 0.19999 0.20207
 C2931 C 1.14051 0.20466 0.20698
 C2932 C 1.12993 0.19584 0.20824
 C2933 C 1.11761 0.20033 0.21260
 C2934 C 1.11570 0.21373 0.21576
 C2935 C 1.12645 0.22251 0.21461
 C2936 C 1.13877 0.21799 0.21022
 C2937 C 1.10249 0.21852 0.22002
 C2938 C 1.10125 0.22780 0.23034
 C2939 C 1.08874 0.23215 0.23438
 C2940 C 1.07736 0.22732 0.22813
 C2941 C 1.07851 0.21816 0.21780
 C2942 C 1.09098 0.21379 0.21376
 C2943 C 1.06444 0.23160 0.23228
 C2944 C 1.05345 0.23490 0.23550
 H2945 H 1.13117 0.18549 0.20578
 H2946 H 1.10960 0.19329 0.21357
 H2947 H 1.12525 0.23290 0.21683
 H2948 H 1.14689 0.22491 0.20923
 H2949 H 1.10992 0.23152 0.23543
 H2950 H 1.08796 0.23923 0.24241
 H2951 H 1.06977 0.21439 0.21286
 H2952 H 1.09161 0.20681 0.20565
 C2953 C 0.08726 0.69696 0.55219
 C2954 C 0.09763 0.70122 0.54811
 C2955 C 0.11018 0.70610 0.54348
 C2956 C 0.12075 0.70733 0.55235
 C2957 C 0.13307 0.71173 0.54788
 C2958 C 0.13499 0.71495 0.53445
 C2959 C 0.12427 0.71379 0.52562
 C2960 C 0.11194 0.70937 0.53011
 C2961 C 0.14818 0.71934 0.52968
 C2962 C 0.14932 0.72967 0.52041
 C2963 C 0.16178 0.73384 0.51603
 C2964 C 0.17323 0.72772 0.52083
 C2965 C 0.17218 0.71740 0.53000
 C2966 C 0.15976 0.71323 0.53440
 C2967 C 0.18608 0.73203 0.51648
 C2968 C 0.19697 0.73549 0.51306
 H2969 H 0.11949 0.70485 0.56273
 H2970 H 0.14107 0.71270 0.55496
 H2971 H 0.12548 0.71605 0.51519
 H2972 H 0.10383 0.70840 0.52315
 H2973 H 0.14060 0.73467 0.51671
 H2974 H 0.16248 0.74186 0.50896
 H2975 H 0.18098 0.71257 0.53375
 H2976 H 0.15920 0.70513 0.54138
 C2977 C 0.08468 0.19819 1.05140
 C2978 C 0.09480 0.20264 1.04693
 C2979 C 0.10708 0.20767 1.04175
 C2980 C 0.11316 0.21862 1.04766
 C2981 C 0.12542 0.22308 1.04304
 C2982 C 0.13177 0.21661 1.03246
 C2983 C 0.12547 0.20574 1.02645
 C2984 C 0.11321 0.20131 1.03108
 C2985 C 0.14510 0.22091 1.02798
 C2986 C 0.15482 0.21148 1.02481
 C2987 C 0.16749 0.21547 1.02099
 C2988 C 0.17063 0.22891 1.02026
 C2989 C 0.16101 0.23838 1.02328
 C2990 C 0.14832 0.23441 1.02712
 C2991 C 0.18384 0.23291 1.01674
 C2992 C 0.19501 0.23602 1.01396
 H2993 H 0.10852 0.22358 1.05597
 H2994 H 0.13008 0.23136 1.04798
 H2995 H 0.13002 0.20066 1.01818
 H2996 H 0.10859 0.19282 1.02643
 H2997 H 0.15272 0.20102 1.02556
 H2998 H 0.17489 0.20805 1.01874
 H2999 H 0.16334 0.24881 1.02275
 H3000 H 0.14101 0.24190 1.02935
 C3001 C 0.58653 0.55466 0.19789
 C3002 C 0.59680 0.55052 0.20229
 C3003 C 0.60929 0.54578 0.20723
 C3004 C 0.61033 0.53310 0.21266
 C3005 C 0.62260 0.52841 0.21701
 C3006 C 0.63398 0.53634 0.21594
 C3007 C 0.63279 0.54912 0.21059
 C3008 C 0.62053 0.55379 0.20627
 C3009 C 0.64711 0.53129 0.22018
 C3010 C 0.65843 0.53392 0.21252
 C3011 C 0.67083 0.52937 0.21655
 C3012 C 0.67211 0.52211 0.22829
 C3013 C 0.66090 0.51934 0.23595
 C3014 C 0.64846 0.52388 0.23191
 C3015 C 0.68500 0.51778 0.23249
 C3016 C 0.69597 0.51446 0.23575
 H3017 H 0.60169 0.52680 0.21339
 H3018 H 0.62323 0.51848 0.22095
 H3019 H 0.64133 0.55554 0.20981
 H3020 H 0.61983 0.56363 0.20210
 H3021 H 0.65769 0.53942 0.20334
 H3022 H 0.67944 0.53155 0.21054
 H3023 H 0.66179 0.51377 0.24507
 H3024 H 0.63995 0.52180 0.23808
 C3025 C 0.58583 1.05179 0.69719
 C3026 C 0.59606 1.04730 0.70134
 C3027 C 0.60849 1.04217 0.70601
 C3028 C 0.61847 1.03909 0.69692
 C3029 C 0.63076 1.03463 0.70138
 C3030 C 0.63326 1.03320 0.71503
 C3031 C 0.62311 1.03615 0.72410
 C3032 C 0.61081 1.04064 0.71961
 C3033 C 0.64650 1.02891 0.71975
 C3034 C 0.64776 1.01997 0.73036
 C3035 C 0.66028 1.01598 0.73474
 C3036 C 0.67167 1.02090 0.72858
 C3037 C 0.67051 1.02982 0.71806
 C3038 C 0.65803 1.03381 0.71366
 C3039 C 0.68460 1.01683 0.73293
 C3040 C 0.69561 1.01365 0.73623
 H3041 H 0.61678 1.04023 0.68637
 H3042 H 0.63830 1.03226 0.69414
 H3043 H 0.62479 1.03530 0.73468
 H3044 H 0.60318 1.04305 0.72675
 H3045 H 0.63907 1.01593 0.73515
 H3046 H 0.66106 1.00904 0.74287
 H3047 H 0.67926 1.03373 0.71325
 H3048 H 0.65740 1.04085 0.70561
 C3049 C 0.91012 0.44335 0.30614
 C3050 C 0.89993 0.44781 0.30184
 C3051 C 0.88762 0.45292 0.29686
 C3052 C 0.88721 0.46515 0.29041
 C3053 C 0.87518 0.47013 0.28573
 C3054 C 0.86339 0.46293 0.28748
 C3055 C 0.86393 0.45062 0.29393
 C3056 C 0.87596 0.44566 0.29858
 C3057 C 0.85056 0.46822 0.28267
 C3058 C 0.83905 0.46682 0.29038
 C3059 C 0.82692 0.47158 0.28577
 C3060 C 0.82611 0.47780 0.27341
 C3061 C 0.83751 0.47934 0.26570
 C3062 C 0.84967 0.47460 0.27029
 C3063 C 0.81351 0.48238 0.26864
 C3064 C 0.80279 0.48600 0.26489
 H3065 H 0.89617 0.47087 0.28906
 H3066 H 0.87506 0.47970 0.28093
 H3067 H 0.85507 0.44475 0.29526
 H3068 H 0.87617 0.43616 0.30353
 H3069 H 0.83944 0.46215 0.30003
 H3070 H 0.81816 0.47036 0.29184
 H3071 H 0.83698 0.48410 0.25609
 H3072 H 0.85833 0.47570 0.26407
 C3073 C 0.91019 0.94342 0.80647
 C3074 C 0.90000 0.94771 0.80200
 C3075 C 0.88767 0.95262 0.79685
 C3076 C 0.87629 0.94479 0.79761
 C3077 C 0.86422 0.94957 0.79288
 C3078 C 0.86337 0.96228 0.78731
 C3079 C 0.87489 0.97006 0.78649
 C3080 C 0.88696 0.96525 0.79126
 C3081 C 0.85048 0.96741 0.78248
 C3082 C 0.84970 0.97467 0.77060
 C3083 C 0.83750 0.97932 0.76600
 C3084 C 0.82595 0.97680 0.77324
 C3085 C 0.82665 0.96967 0.78510
 C3086 C 0.83882 0.96501 0.78970
 C3087 C 0.81334 0.98139 0.76849
 C3088 C 0.80262 0.98502 0.76474
 H3089 H 0.87674 0.93498 0.80190
 H3090 H 0.85558 0.94327 0.79347
 H3091 H 0.87452 0.97994 0.78239
 H3092 H 0.89571 0.97142 0.79066
 H3093 H 0.85848 0.97655 0.76475
 H3094 H 0.83706 0.98479 0.75679
 H3095 H 0.81778 0.96771 0.79080
 H3096 H 0.83912 0.95963 0.79897
 C3097 C 0.33981 0.30629 0.80719
 C3098 C 0.35000 0.30190 0.80284
 C3099 C 0.36232 0.29683 0.79782
 C3100 C 0.36282 0.28443 0.79170
 C3101 C 0.37486 0.27949 0.78701
 C3102 C 0.38657 0.28690 0.78844
 C3103 C 0.38593 0.29938 0.79455
 C3104 C 0.37389 0.30430 0.79921
 C3105 C 0.39942 0.28163 0.78366
 C3106 C 0.41099 0.28340 0.79122
 C3107 C 0.42313 0.27862 0.78667
 C3108 C 0.42389 0.27200 0.77451
 C3109 C 0.41243 0.27010 0.76694
 C3110 C 0.40026 0.27487 0.77148
 C3111 C 0.43649 0.26736 0.76980
 C3112 C 0.44721 0.26372 0.76608
 H3113 H 0.35392 0.27855 0.79062
 H3114 H 0.37506 0.26979 0.78249
 H3115 H 0.39473 0.30540 0.79562
 H3116 H 0.37361 0.31393 0.80390
 H3117 H 0.41064 0.28839 0.80071
 H3118 H 0.43193 0.28012 0.79262
 H3119 H 0.41292 0.26503 0.75749
 H3120 H 0.39156 0.27347 0.76537
 C3121 C 0.83833 0.30536 0.30419
 C3122 C 0.84860 0.30113 0.29985
 C3123 C 0.86100 0.29624 0.29487
 C3124 C 0.86219 0.28307 0.29082
 C3125 C 0.87434 0.27828 0.28627
 C3126 C 0.88548 0.28662 0.28574
 C3127 C 0.88414 0.29987 0.28976
 C3128 C 0.87199 0.30463 0.29429
 C3129 C 0.89847 0.28152 0.28117
 C3130 C 0.91019 0.28531 0.28768
 C3131 C 0.92244 0.28062 0.28335
 C3132 C 0.92317 0.27208 0.27246
 C3133 C 0.91157 0.26819 0.26594
 C3134 C 0.89929 0.27287 0.27028
 C3135 C 0.93585 0.26746 0.26796
 C3136 C 0.94661 0.26382 0.26435
 H3137 H 0.85375 0.27647 0.29128
 H3138 H 0.87509 0.26800 0.28339
 H3139 H 0.89247 0.30658 0.28929
 H3140 H 0.87117 0.31485 0.29738
 H3141 H 0.90988 0.29180 0.29622
 H3142 H 0.93135 0.28367 0.28849
 H3143 H 0.91202 0.26161 0.25748
 H3144 H 0.89046 0.26988 0.26498
 C3145 C 0.41359 0.80475 0.44773
 C3146 C 0.40331 0.80045 0.45199
 C3147 C 0.39084 0.79560 0.45686
 C3148 C 0.38945 0.78239 0.46071
 C3149 C 0.37718 0.77767 0.46506
 C3150 C 0.36615 0.78612 0.46557
 C3151 C 0.36770 0.79942 0.46181
 C3152 C 0.37996 0.80411 0.45748
 C3153 C 0.35301 0.78110 0.46980
 C3154 C 0.34148 0.78513 0.46311
 C3155 C 0.32908 0.78057 0.46714
 C3156 C 0.32799 0.77192 0.47789
 C3157 C 0.33939 0.76777 0.48458
 C3158 C 0.35184 0.77231 0.48055
 C3159 C 0.31512 0.76751 0.48208
 C3160 C 0.30415 0.76415 0.48532
 H3161 H 0.39780 0.77571 0.46022
 H3162 H 0.37626 0.76736 0.46776
 H3163 H 0.35945 0.80622 0.46228
 H3164 H 0.38093 0.81436 0.45455
 H3165 H 0.34207 0.79172 0.45467
 H3166 H 0.32032 0.78382 0.46187
 H3167 H 0.33866 0.76110 0.49295
 H3168 H 0.36052 0.76913 0.48597
 C3169 C 0.41045 0.30578 0.94637
 C3170 C 0.40043 0.30127 0.95101
 C3171 C 0.38832 0.29605 0.95639
 C3172 C 0.38276 0.28454 0.95109
 C3173 C 0.37073 0.27976 0.95598
 C3174 C 0.36410 0.28646 0.96623
 C3175 C 0.36986 0.29794 0.97160
 C3176 C 0.38189 0.30269 0.96671
 C3177 C 0.35108 0.28167 0.97110
 C3178 C 0.34087 0.29069 0.97391
 C3179 C 0.32852 0.28620 0.97821
 C3180 C 0.32620 0.27267 0.97979
 C3181 C 0.33631 0.26362 0.97710
 C3182 C 0.34867 0.26808 0.97277
 C3183 C 0.31336 0.26812 0.98392
 C3184 C 0.30248 0.26455 0.98724
 H3185 H 0.38763 0.27935 0.94306
 H3186 H 0.36648 0.27099 0.95153
 H3187 H 0.36509 0.30321 0.97962
 H3188 H 0.38612 0.31161 0.97090
 H3189 H 0.34235 0.30120 0.97254
 H3190 H 0.32075 0.29329 0.98021
 H3191 H 0.33461 0.25311 0.97829
 H3192 H 0.35638 0.26091 0.97084
 C3193 C 0.80451 0.44541 0.41156
 C3194 C 0.80006 0.44947 0.40124
 C3195 C 0.79494 0.45412 0.38877
 C3196 C 0.79015 0.46703 0.38757
 C3197 C 0.78547 0.47159 0.37534
 C3198 C 0.78558 0.46328 0.36414
 C3199 C 0.79032 0.45029 0.36549
 C3200 C 0.79497 0.44575 0.37772
 C3201 C 0.78093 0.46817 0.35106
 C3202 C 0.78781 0.46483 0.33940
 C3203 C 0.78344 0.46937 0.32707
 C3204 C 0.77214 0.47729 0.32620
 C3205 C 0.76524 0.48072 0.33773
 C3206 C 0.76961 0.47620 0.35009
 C3207 C 0.76768 0.48183 0.31344
 C3208 C 0.76416 0.48544 0.30261
 H3209 H 0.79012 0.47360 0.39605
 H3210 H 0.78202 0.48168 0.37458
 H3211 H 0.79034 0.44360 0.35711
 H3212 H 0.79862 0.43573 0.37855
 H3213 H 0.79666 0.45884 0.33983
 H3214 H 0.78888 0.46670 0.31822
 H3215 H 0.75647 0.48682 0.33716
 H3216 H 0.76402 0.47882 0.35886
 C3217 C 0.80470 0.94590 0.91198
 C3218 C 0.80021 0.95001 0.90170
 C3219 C 0.79505 0.95468 0.88925
 C3220 C 0.79142 0.96794 0.88772
 C3221 C 0.78672 0.97248 0.87550
 C3222 C 0.78563 0.96382 0.86463
 C3223 C 0.78920 0.95049 0.86631
 C3224 C 0.79388 0.94597 0.87854
 C3225 C 0.78095 0.96865 0.85153
 C3226 C 0.78705 0.96426 0.83979
 C3227 C 0.78263 0.96872 0.82744
 C3228 C 0.77208 0.97761 0.82664
 C3229 C 0.76597 0.98208 0.83826
 C3230 C 0.77038 0.97764 0.85064
 C3231 C 0.76757 0.98206 0.81386
 C3232 C 0.76403 0.98555 0.80300
 H3233 H 0.79233 0.97478 0.89594
 H3234 H 0.78419 0.98282 0.87447
 H3235 H 0.78830 0.94354 0.85820
 H3236 H 0.79664 0.93569 0.87961
 H3237 H 0.79533 0.95750 0.84015
 H3238 H 0.78747 0.96523 0.81852
 H3239 H 0.75776 0.98894 0.83775
 H3240 H 0.76539 0.98109 0.85949
 C3241 C 0.30225 0.80250 0.33486
 C3242 C 0.29806 0.79812 0.34515
 C3243 C 0.29338 0.79317 0.35767
 C3244 C 0.28021 0.78913 0.35915
 C3245 C 0.27564 0.78474 0.37148
 C3246 C 0.28419 0.78440 0.38250
 C3247 C 0.29743 0.78835 0.38086
 C3248 C 0.30198 0.79270 0.36853
 C3249 C 0.27931 0.78015 0.39572
 C3250 C 0.28334 0.78691 0.40723
 C3251 C 0.27895 0.78285 0.41971
 C3252 C 0.27047 0.77198 0.42089
 C3253 C 0.26632 0.76523 0.40950
 C3254 C 0.27069 0.76930 0.39698
 C3255 C 0.26627 0.76775 0.43384
 C3256 C 0.26309 0.76448 0.44488
 H3257 H 0.27346 0.78950 0.35081
 H3258 H 0.26536 0.78190 0.37247
 H3259 H 0.30430 0.78801 0.38909
 H3260 H 0.31219 0.79579 0.36749
 H3261 H 0.28980 0.79542 0.40658
 H3262 H 0.28220 0.78817 0.42845
 H3263 H 0.25978 0.75678 0.41031
 H3264 H 0.26752 0.76382 0.38832
 C3265 C 0.30533 0.30582 0.84041
 C3266 C 0.30060 0.30123 0.85037
 C3267 C 0.29507 0.29596 0.86241
 C3268 C 0.28385 0.30180 0.86802
 C3269 C 0.27877 0.29704 0.87999
 C3270 C 0.28486 0.28637 0.88652
 C3271 C 0.29604 0.28046 0.88070
 C3272 C 0.30111 0.28525 0.86873
 C3273 C 0.27977 0.28163 0.89950
 C3274 C 0.27931 0.26804 0.90241
 C3275 C 0.27482 0.26366 0.91478
 C3276 C 0.27076 0.27279 0.92437
 C3277 C 0.27110 0.28631 0.92153
 C3278 C 0.27556 0.29071 0.90918
 C3279 C 0.26656 0.26836 0.93726
 C3280 C 0.26320 0.26485 0.94817
 H3281 H 0.27909 0.31010 0.86320
 H3282 H 0.27005 0.30168 0.88413
 H3283 H 0.30105 0.27235 0.88556
 H3284 H 0.30984 0.28070 0.86450
 H3285 H 0.28233 0.26081 0.89511
 H3286 H 0.27460 0.25316 0.91687
 H3287 H 0.26804 0.29346 0.92891
 H3288 H 0.27599 0.30124 0.90732
 C3289 C 0.44390 0.30566 0.91215
 C3290 C 0.44823 0.30106 0.90202
 C3291 C 0.45317 0.29571 0.88976
 C3292 C 0.44432 0.29215 0.87970
 C3293 C 0.44906 0.28730 0.86763
 C3294 C 0.46273 0.28594 0.86545
 C3295 C 0.47156 0.28943 0.87567
 C3296 C 0.46680 0.29430 0.88775
 C3297 C 0.46775 0.28112 0.85248
 C3298 C 0.47846 0.27227 0.85185
 C3299 C 0.48311 0.26775 0.83960
 C3300 C 0.47714 0.27203 0.82784
 C3301 C 0.46651 0.28085 0.82837
 C3302 C 0.46184 0.28537 0.84059
 C3303 C 0.48185 0.26745 0.81518
 C3304 C 0.48552 0.26384 0.80440
 H3305 H 0.43376 0.29318 0.88117
 H3306 H 0.44201 0.28452 0.86004
 H3307 H 0.48214 0.28865 0.87424
 H3308 H 0.47374 0.29707 0.89545
 H3309 H 0.48312 0.26871 0.86083
 H3310 H 0.49134 0.26090 0.83930
 H3311 H 0.46184 0.28427 0.81932
 H3312 H 0.45371 0.29233 0.84073
 C3313 C 0.94583 0.30429 0.41140
 C3314 C 0.95000 0.30001 0.40106
 C3315 C 0.95475 0.29504 0.38857
 C3316 C 0.96756 0.28992 0.38749
 C3317 C 0.97217 0.28528 0.37527
 C3318 C 0.96401 0.28573 0.36396
 C3319 C 0.95113 0.29083 0.36518
 C3320 C 0.94654 0.29544 0.37740
 C3321 C 0.96892 0.28102 0.35091
 C3322 C 0.96590 0.28804 0.33926
 C3323 C 0.97037 0.28356 0.32695
 C3324 C 0.97792 0.27201 0.32609
 C3325 C 0.98105 0.26498 0.33763
 C3326 C 0.97660 0.26946 0.34997
 C3327 C 0.98228 0.26738 0.31334
 C3328 C 0.98569 0.26373 0.30249
 H3329 H 0.97401 0.28960 0.39607
 H3330 H 0.98218 0.28155 0.37461
 H3331 H 0.94454 0.29113 0.35671
 H3332 H 0.93659 0.29935 0.37813
 H3333 H 0.96019 0.29707 0.33967
 H3334 H 0.96792 0.28909 0.31808
 H3335 H 0.98686 0.25601 0.33707
 H3336 H 0.97896 0.26377 0.35874
 C3337 C 0.44366 0.41016 0.80590
 C3338 C 0.44791 0.39997 0.80143
 C3339 C 0.45275 0.38763 0.79627
 C3340 C 0.46591 0.38645 0.79214
 C3341 C 0.47065 0.37434 0.78745
 C3342 C 0.46227 0.36324 0.78686
 C3343 C 0.44902 0.36458 0.79093
 C3344 C 0.44432 0.37668 0.79561
 C3345 C 0.46732 0.35028 0.78220
 C3346 C 0.46353 0.33855 0.78866
 C3347 C 0.46818 0.32633 0.78424
 C3348 C 0.47668 0.32563 0.77333
 C3349 C 0.48057 0.33723 0.76685
 C3350 C 0.47593 0.34949 0.77126
 C3351 C 0.48130 0.31297 0.76880
 C3352 C 0.48495 0.30221 0.76525
 H3353 H 0.47254 0.39485 0.79266
 H3354 H 0.48092 0.37358 0.78452
 H3355 H 0.44228 0.35628 0.79042
 H3356 H 0.43410 0.37750 0.79875
 H3357 H 0.45708 0.33885 0.79722
 H3358 H 0.46514 0.31742 0.78936
 H3359 H 0.48713 0.33680 0.75837
 H3360 H 0.47892 0.35832 0.76600
 C3361 C 0.94369 0.40940 0.30553
 C3362 C 0.94794 0.39924 0.30099
 C3363 C 0.95279 0.38694 0.29575
 C3364 C 0.96539 0.38622 0.29006
 C3365 C 0.97012 0.37417 0.28521
 C3366 C 0.96231 0.36268 0.28603
 C3367 C 0.94962 0.36355 0.29169
 C3368 C 0.94491 0.37560 0.29651
 C3369 C 0.96739 0.34980 0.28115
 C3370 C 0.96501 0.33816 0.28838
 C3371 C 0.96964 0.32600 0.28376
 C3372 C 0.97671 0.32530 0.27185
 C3373 C 0.97919 0.33683 0.26460
 C3374 C 0.97458 0.34902 0.26923
 C3375 C 0.98124 0.31269 0.26710
 C3376 C 0.98481 0.30195 0.26340
 H3377 H 0.97158 0.39493 0.28945
 H3378 H 0.97998 0.37378 0.28103
 H3379 H 0.94329 0.35494 0.29229
 H3380 H 0.93512 0.37606 0.30087
 H3381 H 0.95969 0.33846 0.29769
 H3382 H 0.96769 0.31715 0.28946
 H3383 H 0.98461 0.33639 0.25535
 H3384 H 0.97644 0.35779 0.26337
 C3385 C 0.30360 0.91413 0.44802
 C3386 C 0.29930 0.90398 0.45256
 C3387 C 0.29450 0.89164 0.45775
 C3388 C 0.30349 0.88172 0.46121
 C3389 C 0.29893 0.86949 0.46572
 C3390 C 0.28528 0.86700 0.46681
 C3391 C 0.27630 0.87710 0.46350
 C3392 C 0.28090 0.88933 0.45897
 C3393 C 0.28046 0.85380 0.47108
 C3394 C 0.26964 0.85259 0.47978
 C3395 C 0.26519 0.84011 0.48376
 C3396 C 0.27146 0.82871 0.47906
 C3397 C 0.28218 0.82983 0.47036
 C3398 C 0.28665 0.84227 0.46640
 C3399 C 0.26703 0.81581 0.48309
 C3400 C 0.26369 0.80481 0.48621
 H3401 H 0.31404 0.88341 0.46032
 H3402 H 0.30608 0.86199 0.46837
 H3403 H 0.26574 0.87543 0.46410
 H3404 H 0.27385 0.89692 0.45626
 H3405 H 0.26475 0.86129 0.48365
 H3406 H 0.25689 0.83935 0.49052
 H3407 H 0.28707 0.82107 0.46662
 H3408 H 0.29486 0.84286 0.45952
 C3409 C 0.30676 0.40943 0.94400
 C3410 C 0.30219 0.39934 0.94841
 C3411 C 0.29693 0.38713 0.95347
 C3412 C 0.29783 0.37561 0.94585
 C3413 C 0.29297 0.36366 0.95078
 C3414 C 0.28713 0.36306 0.96342
 C3415 C 0.28617 0.37471 0.97098
 C3416 C 0.29106 0.38667 0.96603
 C3417 C 0.28217 0.35029 0.96872
 C3418 C 0.27015 0.34965 0.97573
 C3419 C 0.26545 0.33755 0.98052
 C3420 C 0.27270 0.32597 0.97838
 C3421 C 0.28470 0.32654 0.97150
 C3422 C 0.28941 0.33860 0.96670
 C3423 C 0.26786 0.31345 0.98306
 C3424 C 0.26408 0.30277 0.98674
 H3425 H 0.30233 0.37587 0.93610
 H3426 H 0.29368 0.35491 0.94464
 H3427 H 0.28186 0.37453 0.98081
 H3428 H 0.29034 0.39552 0.97203
 H3429 H 0.26429 0.35845 0.97732
 H3430 H 0.25612 0.33721 0.98580
 H3431 H 0.29042 0.31764 0.96982
 H3432 H 0.29879 0.33880 0.96152
 C3433 C 0.80431 0.33889 0.30457
 C3434 C 0.79993 0.34915 0.30040
 C3435 C 0.79489 0.36156 0.29563
 C3436 C 0.79508 0.37265 0.30391
 C3437 C 0.79047 0.38481 0.29927
 C3438 C 0.78561 0.38605 0.28625
 C3439 C 0.78536 0.37482 0.27803
 C3440 C 0.78999 0.36265 0.28269
 C3441 C 0.78096 0.39904 0.28126
 C3442 C 0.76956 0.39996 0.27330
 C3443 C 0.76518 0.41224 0.26871
 C3444 C 0.77215 0.42374 0.27199
 C3445 C 0.78352 0.42292 0.27985
 C3446 C 0.78791 0.41067 0.28446
 C3447 C 0.76765 0.43644 0.26742
 C3448 C 0.76414 0.44723 0.26384
 H3449 H 0.79882 0.37191 0.31395
 H3450 H 0.79061 0.39322 0.30591
 H3451 H 0.78183 0.37549 0.26791
 H3452 H 0.78984 0.35414 0.27618
 H3453 H 0.76391 0.39121 0.27080
 H3454 H 0.75633 0.41277 0.26266
 H3455 H 0.78901 0.43176 0.28242
 H3456 H 0.79683 0.41028 0.29040
   
