data_POSCAR
  _audit_creation_date              2014-09-24
  _audit_creation_method            'ToBaCCo'
  _symmetry_space_group_name_H-M    'P1'
  _symmetry_Int_Tables_number       1
  _symmetry_cell_setting            triclinic
  loop_
  _symmetry_equiv_pos_as_xyz
 x,y,z
_cell_length_a 64.3847
_cell_length_b 64.3560
_cell_length_c 64.3090
_cell_angle_alpha 89.925900
_cell_angle_beta 90.032500
_cell_angle_gamma 89.950500
loop_
  _atom_site_label
  _atom_site_type_symbol
  _atom_site_fract_x
  _atom_site_fract_y
  _atom_site_fract_z
C1 C 0.34733 1.33322 0.31687
 C2 C 0.34823 1.31865 0.33306
 C3 C 0.33339 1.31893 0.34865
 C4 C 0.31747 1.33380 0.34823
 C5 C 0.31659 1.34824 0.33224
 C6 C 0.33160 1.34794 0.31645
 C7 C 0.36006 1.33702 0.30010
 N8 N 0.35234 1.35361 0.28966
 C9 C 0.33502 1.36049 0.29943
 C10 C 0.29996 1.36112 0.33618
 N11 N 0.29088 1.35470 0.35406
 C12 C 0.30137 1.33809 0.36163
 C13 C 0.33840 1.30343 0.36255
 N14 N 0.35584 1.29389 0.35567
 C15 C 0.36205 1.30298 0.33773
 H16 H 0.37408 1.32865 0.29603
 H17 H 0.32588 1.37383 0.29473
 H18 H 0.29500 1.37430 0.32692
 H19 H 0.29772 1.32995 0.37593
 H20 H 0.33014 1.29947 0.37667
 H21 H 0.37567 1.29860 0.32888
 C22 C 0.35242 0.83840 0.82314
 C23 C 0.35301 0.82347 0.83904
 C24 C 0.33793 0.82349 0.85440
 C25 C 0.32208 0.83844 0.85406
 C26 C 0.32150 0.85321 0.83836
 C27 C 0.33676 0.85318 0.82281
 C28 C 0.36517 0.84227 0.80640
 N29 N 0.35754 0.85896 0.79607
 C30 C 0.34024 0.86581 0.80586
 C31 C 0.30468 0.86589 0.84212
 N32 N 0.29520 0.85906 0.85963
 C33 C 0.30559 0.84235 0.86712
 C34 C 0.34248 0.80746 0.86786
 N35 N 0.35987 0.79787 0.86093
 C36 C 0.36650 0.80743 0.84339
 H37 H 0.37903 0.83374 0.80213
 H38 H 0.33102 0.87907 0.80109
 H39 H 0.29981 0.87915 0.83294
 H40 H 0.30156 0.83382 0.88108
 H41 H 0.33386 0.80310 0.88164
 H42 H 0.38011 0.80304 0.83453
 C43 C 0.83896 1.32472 0.80813
 C44 C 0.83910 1.30934 0.82360
 C45 C 0.82422 1.30957 0.83915
 C46 C 0.80902 1.32519 0.83945
 C47 C 0.80888 1.34041 0.82417
 C48 C 0.82394 1.34018 0.80841
 C49 C 0.85212 1.32894 0.79179
 N50 N 0.84535 1.34647 0.78226
 C51 C 0.82821 1.35355 0.79222
 C52 C 0.79306 1.35405 0.82890
 N53 N 0.78373 1.34733 0.84655
 C54 C 0.79329 1.32979 0.85321
 C55 C 0.82875 1.29350 0.85258
 N56 N 0.84592 1.28366 0.84546
 C57 C 0.85246 1.29314 0.82783
 H58 H 0.86587 1.32025 0.78747
 H59 H 0.81983 1.36762 0.78830
 H60 H 0.78891 1.36800 0.82041
 H61 H 0.78935 1.32127 0.86721
 H62 H 0.82054 1.28958 0.86674
 H63 H 0.86617 1.28887 0.81907
 C64 C 0.83869 0.82391 0.30727
 C65 C 0.83912 0.80874 0.32295
 C66 C 0.82437 0.80904 0.33863
 C67 C 0.80901 0.82451 0.33884
 C68 C 0.80859 0.83951 0.32336
 C69 C 0.82351 0.83921 0.30748
 C70 C 0.85172 0.82810 0.29082
 N71 N 0.84471 0.84546 0.28115
 C72 C 0.82756 0.85247 0.29113
 C73 C 0.79270 0.85307 0.32804
 N74 N 0.78359 0.84654 0.34586
 C75 C 0.79337 0.82918 0.35267
 C76 C 0.82917 0.79318 0.35222
 N77 N 0.84636 0.78340 0.34506
 C78 C 0.85265 0.79271 0.32725
 H79 H 0.86557 0.81954 0.28656
 H80 H 0.81906 0.86646 0.28717
 H81 H 0.78835 0.86686 0.31940
 H82 H 0.78962 0.82086 0.36682
 H83 H 0.82109 0.78933 0.36647
 H84 H 0.86628 0.78841 0.31839
 C85 C 0.65118 0.66645 0.31797
 C86 C 0.65130 0.68174 0.33348
 C87 C 0.66604 0.68105 0.34918
 C88 C 0.68082 0.66505 0.34957
 C89 C 0.68071 0.64993 0.33425
 C90 C 0.66582 0.65064 0.31836
 C91 C 0.63835 0.66288 0.30121
 N92 N 0.64497 0.64538 0.29158
 C93 C 0.66168 0.63771 0.30184
 C94 C 0.69646 0.63616 0.33877
 N95 N 0.70597 0.64266 0.35637
 C96 C 0.69663 0.66024 0.36317
 C97 C 0.66214 0.69745 0.36233
 N98 N 0.64546 0.70793 0.35492
 C99 C 0.63864 0.69856 0.33736
 H100 H 0.62504 0.67209 0.29655
 H101 H 0.66996 0.62363 0.29777
 H102 H 0.70062 0.62240 0.33003
 H103 H 0.70096 0.66876 0.37702
 H104 H 0.67057 0.70131 0.37638
 H105 H 0.62533 0.70346 0.32830
 C106 C 0.64982 0.16416 0.81951
 C107 C 0.65049 0.18002 0.83442
 C108 C 0.66643 0.18052 0.84889
 C109 C 0.68189 0.16518 0.84862
 C110 C 0.68125 0.14949 0.83389
 C111 C 0.66511 0.14897 0.81925
 C112 C 0.63596 0.15956 0.80386
 N113 N 0.64258 0.14205 0.79426
 C114 C 0.66032 0.13537 0.80344
 C115 C 0.69782 0.13647 0.83771
 N116 N 0.70833 0.14400 0.85432
 C117 C 0.69882 0.16147 0.86119
 C118 C 0.66286 0.19723 0.86175
 N119 N 0.64521 0.20675 0.85533
 C120 C 0.63747 0.19645 0.83870
 H121 H 0.62208 0.16820 0.79983
 H122 H 0.66898 0.12163 0.79901
 H123 H 0.70173 0.12243 0.82930
 H124 H 0.70366 0.17056 0.87450
 H125 H 0.67219 0.20198 0.87493
 H126 H 0.62329 0.20047 0.83056
 C127 C 1.14466 0.65921 0.82605
 C128 C 1.14524 0.67498 0.84106
 C129 C 1.16096 0.67525 0.85579
 C130 C 1.17628 0.65976 0.85568
 C131 C 1.17572 0.64418 0.84083
 C132 C 1.15982 0.64390 0.82593
 C133 C 1.13122 0.65504 0.80993
 N134 N 1.13794 0.63765 0.80018
 C135 C 1.15535 0.63066 0.80973
 C136 C 1.19238 0.63124 0.84452
 N137 N 1.20285 0.63870 0.86119
 C138 C 1.19325 0.65607 0.86819
 C139 C 1.15755 0.69216 0.86844
 N140 N 1.14022 0.70199 0.86166
 C141 C 1.13252 0.69173 0.84499
 H142 H 1.11762 0.66394 0.80557
 H143 H 1.16406 0.61700 0.80520
 H144 H 1.19652 0.61743 0.83585
 H145 H 1.19820 0.66523 0.88142
 H146 H 1.16687 0.69692 0.88162
 H147 H 1.11867 0.69609 0.83647
 C148 C 1.15660 0.17163 0.31288
 C149 C 1.15674 0.18685 0.32847
 C150 C 1.17207 0.18663 0.34360
 C151 C 1.18743 0.17119 0.34334
 C152 C 1.18731 0.15613 0.32795
 C153 C 1.17181 0.15636 0.31263
 C154 C 1.14315 0.16753 0.29673
 N155 N 1.14995 0.15025 0.28684
 C156 C 1.16737 0.14321 0.29634
 C157 C 1.20349 0.14270 0.33203
 N158 N 1.21327 0.14938 0.34944
 C159 C 1.20367 0.16669 0.35656
 C160 C 1.16791 0.20265 0.35714
 N161 N 1.15052 0.21247 0.35049
 C162 C 1.14349 0.20302 0.33306
 H163 H 1.12927 0.17619 0.29274
 H164 H 1.17590 0.12937 0.29198
 H165 H 1.20759 0.12894 0.32327
 H166 H 1.20794 0.17512 0.37048
 H167 H 1.17662 0.20667 0.37097
 H168 H 1.12959 0.20737 0.32460
 C169 C 0.64335 1.34174 0.67489
 C170 C 0.64354 1.32618 0.65965
 C171 C 0.65931 1.32565 0.64501
 C172 C 0.67508 1.34065 0.64543
 C173 C 0.67489 1.35603 0.66049
 C174 C 0.65893 1.35659 0.67531
 C175 C 0.62995 1.34609 0.69099
 N176 N 0.63711 1.36315 0.70099
 C177 C 0.65476 1.36976 0.69165
 C178 C 0.69188 1.36855 0.65700
 N179 N 0.70220 1.36104 0.64028
 C180 C 0.69216 1.34405 0.63303
 C181 C 0.65550 1.30903 0.63210
 N182 N 0.63788 1.29961 0.63864
 C183 C 0.63038 1.30986 0.65541
 H184 H 0.61607 1.33753 0.69514
 H185 H 0.66385 1.38310 0.69639
 H186 H 0.69633 1.38217 0.66581
 H187 H 0.69685 1.33500 0.61965
 H188 H 0.66478 1.30416 0.61894
 H189 H 0.61640 1.30576 0.66382
 C190 C 0.65650 0.82840 1.18797
 C191 C 0.65736 0.81223 1.17340
 C192 C 0.67322 0.81166 1.15885
 C193 C 0.68842 0.82725 1.15870
 C194 C 0.68759 0.84322 1.17312
 C195 C 0.67153 0.84381 1.18782
 C196 C 0.64244 0.83336 1.20333
 N197 N 0.64871 0.85129 1.21236
 C198 C 0.66640 0.85789 1.20309
 C199 C 0.70369 0.85660 1.16874
 N200 N 0.71412 0.84905 1.15210
 C201 C 0.70500 0.83120 1.14577
 C202 C 0.66958 0.79487 1.14610
 N203 N 0.65200 0.78537 1.15266
 C204 C 0.64434 0.79577 1.16927
 H205 H 0.62857 0.82476 1.20742
 H206 H 0.67470 0.87200 1.20697
 H207 H 0.70726 0.87098 1.17669
 H208 H 0.70980 0.82207 1.13248
 H209 H 0.67869 0.79021 1.13275
 H210 H 0.63009 0.79195 1.17735
 C211 C 1.15701 1.32930 1.18649
 C212 C 1.15780 1.31309 1.17196
 C213 C 1.17364 1.31244 1.15739
 C214 C 1.18889 1.32798 1.15719
 C215 C 1.18813 1.34398 1.17159
 C216 C 1.17208 1.34466 1.18630
 C217 C 1.14299 1.33432 1.20184
 N218 N 1.14929 1.35224 1.21084
 C219 C 1.16699 1.35877 1.20155
 C220 C 1.20428 1.35729 1.16720
 N221 N 1.21469 1.34965 1.15059
 C222 C 1.20550 1.33182 1.14426
 C223 C 1.16991 1.29563 1.14468
 N224 N 1.15232 1.28621 1.15132
 C225 C 1.14472 1.29668 1.16791
 H226 H 1.12911 1.32577 1.20599
 H227 H 1.17532 1.37286 1.20542
 H228 H 1.20790 1.37167 1.17515
 H229 H 1.21026 1.32262 1.13099
 H230 H 1.17898 1.29090 1.13133
 H231 H 1.13048 1.29292 1.17603
 C232 C 1.14519 0.83987 0.67600
 C233 C 1.14574 0.82407 0.66102
 C234 C 1.16144 0.82373 0.64629
 C235 C 1.17678 0.83917 0.64639
 C236 C 1.17624 0.85478 0.66120
 C237 C 1.16035 0.85513 0.67609
 C238 C 1.13172 0.84417 0.69206
 N239 N 1.13844 0.86159 0.70172
 C240 C 1.15587 0.86848 0.69219
 C241 C 1.19283 0.86772 0.65743
 N242 N 1.20326 0.86026 0.64075
 C243 C 1.19368 0.84287 0.63383
 C244 C 1.15794 0.80688 0.63361
 N245 N 1.14058 0.79714 0.64036
 C246 C 1.13293 0.80741 0.65705
 H247 H 1.11808 0.83534 0.69641
 H248 H 1.16458 0.88216 0.69665
 H249 H 1.19695 0.88158 0.66602
 H250 H 1.19859 0.83374 0.62058
 H251 H 1.16720 0.80211 0.62039
 H252 H 1.11905 0.80314 0.66554
 C253 C 0.35262 0.66184 0.67725
 C254 C 0.35285 0.67711 0.66168
 C255 C 0.33761 0.67724 0.64645
 C256 C 0.32197 0.66210 0.64661
 C257 C 0.32175 0.64700 0.66199
 C258 C 0.33716 0.64687 0.67741
 C259 C 0.36554 0.65779 0.69384
 N260 N 0.35821 0.64082 0.70390
 C261 C 0.34092 0.63396 0.69408
 C262 C 0.30502 0.63424 0.65816
 N263 N 0.29525 0.64134 0.64090
 C264 C 0.30536 0.65831 0.63365
 C265 C 0.34179 0.69364 0.63333
 N266 N 0.35911 0.70330 0.64032
 C267 C 0.36605 0.69343 0.65759
 H268 H 0.37929 0.66643 0.69821
 H269 H 0.33188 0.62055 0.69869
 H270 H 0.30038 0.62076 0.66713
 H271 H 0.30104 0.66710 0.61994
 H272 H 0.33297 0.69820 0.61973
 H273 H 0.37969 0.69778 0.66642
 C274 C 0.34136 0.17274 1.18788
 C275 C 0.34137 0.18834 1.17265
 C276 C 0.32606 0.18866 1.15749
 C277 C 0.31054 0.17338 1.15741
 C278 C 0.31053 0.15796 1.17250
 C279 C 0.32604 0.15764 1.18781
 C280 C 0.35486 0.16805 1.20382
 N281 N 0.34798 0.15057 1.21331
 C282 C 0.33045 0.14400 1.20374
 C283 C 0.29436 0.14471 1.16805
 N284 N 0.28469 0.15181 1.15074
 C285 C 0.29437 0.16924 1.14401
 C286 C 0.33054 0.20485 1.14421
 N287 N 0.34808 0.21422 1.15106
 C288 C 0.35489 0.20433 1.16835
 H289 H 0.36884 0.17642 1.20795
 H290 H 0.32184 0.13013 1.20780
 H291 H 0.29024 0.13071 1.17646
 H292 H 0.29025 0.17794 1.13018
 H293 H 0.32200 0.20921 1.13036
 H294 H 0.36890 0.20819 1.17684
 C295 C 0.83862 0.67720 1.19222
 C296 C 0.83839 0.69281 1.17700
 C297 C 0.82307 0.69291 1.16185
 C298 C 0.80779 0.67740 1.16176
 C299 C 0.80801 0.66197 1.17682
 C300 C 0.82353 0.66187 1.19214
 C301 C 0.85230 0.67258 1.20803
 N302 N 0.84577 0.65492 1.21743
 C303 C 0.82828 0.64816 1.20791
 C304 C 0.79214 0.64839 1.17224
 N305 N 0.78241 0.65531 1.15489
 C306 C 0.79178 0.67294 1.14827
 C307 C 0.82743 0.70905 1.14845
 N308 N 0.84490 0.71860 1.15523
 C309 C 0.85180 0.70888 1.17259
 H310 H 0.86624 0.68108 1.21207
 H311 H 0.81998 0.63406 1.21184
 H312 H 0.78828 0.63427 1.18055
 H313 H 0.78759 0.68153 1.13439
 H314 H 0.81892 0.71316 1.13451
 H315 H 0.86583 0.71283 1.18097
 C316 C 0.84061 0.17466 0.69086
 C317 C 0.84082 0.18993 0.67528
 C318 C 0.82619 0.18943 0.65947
 C319 C 0.81120 0.17364 0.65904
 C320 C 0.81099 0.15854 0.67442
 C321 C 0.82578 0.15906 0.69044
 C322 C 0.85355 0.17071 0.70747
 N323 N 0.84680 0.15320 0.71701
 C324 C 0.82992 0.14587 0.70681
 C325 C 0.79536 0.14476 0.66958
 N326 N 0.78621 0.15125 0.65175
 C327 C 0.79569 0.16881 0.64510
 C328 C 0.83069 0.20549 0.64605
 N329 N 0.84760 0.21559 0.65341
 C330 C 0.85400 0.20629 0.67120
 H331 H 0.86713 0.17956 0.71195
 H332 H 0.82164 0.13174 0.71069
 H333 H 0.79116 0.13090 0.67817
 H334 H 0.79178 0.17721 0.63103
 H335 H 0.82263 0.20925 0.63175
 H336 H 0.86749 0.21080 0.68018
 C337 C 1.32742 0.34151 0.68880
 C338 C 1.31268 0.34230 0.67276
 C339 C 1.31284 0.32736 0.65726
 C340 C 1.32775 0.31148 0.65759
 C341 C 1.34237 0.31072 0.67342
 C342 C 1.34219 0.32582 0.68913
 C343 C 1.33153 0.35446 0.70532
 N344 N 1.34832 0.34693 0.71554
 C345 C 1.35505 0.32951 0.70585
 C346 C 1.35544 0.29429 0.66925
 N347 N 1.34898 0.28519 0.65140
 C348 C 1.33215 0.29550 0.64406
 C349 C 1.29734 0.33241 0.64337
 N350 N 1.28792 0.34995 0.65017
 C351 C 1.29709 0.35620 0.66805
 H352 H 1.32328 0.36857 0.70932
 H353 H 1.36856 0.32054 0.71034
 H354 H 1.36888 0.28958 0.67825
 H355 H 1.32403 0.29191 0.62976
 H356 H 1.29339 0.32417 0.62925
 H357 H 1.29291 0.36997 0.67676
 C358 C 1.32848 0.84210 1.18792
 C359 C 1.31321 0.84222 1.17237
 C360 C 1.31395 0.82776 1.15644
 C361 C 1.32999 0.81301 1.15586
 C362 C 1.34510 0.81290 1.17123
 C363 C 1.34433 0.82752 1.18736
 C364 C 1.33216 0.85489 1.20468
 N365 N 1.34976 0.84830 1.21417
 C366 C 1.35741 0.83166 1.20380
 C367 C 1.35909 0.79745 1.16632
 N368 N 1.35271 0.78834 1.14845
 C369 C 1.33501 0.79764 1.14184
 C370 C 1.29775 0.83211 1.14311
 N371 N 1.28736 0.84877 1.15067
 C372 C 1.29660 0.85515 1.16846
 H373 H 1.32304 0.86825 1.20931
 H374 H 1.37165 0.82354 1.20763
 H375 H 1.37297 0.79333 1.17492
 H376 H 1.32661 0.79369 1.12779
 H377 H 1.29408 0.82410 1.12878
 H378 H 1.29185 0.86845 1.17759
 C379 C 0.82816 0.34154 1.18888
 C380 C 0.81286 0.34167 1.17335
 C381 C 0.81362 0.32727 1.15737
 C382 C 0.82970 0.31258 1.15670
 C383 C 0.84484 0.31245 1.17204
 C384 C 0.84405 0.32701 1.18824
 C385 C 0.83188 0.35431 1.20564
 N386 N 0.84954 0.34776 1.21505
 C387 C 0.85719 0.33116 1.20462
 C388 C 0.85891 0.29713 1.16700
 N389 N 0.85255 0.28811 1.14908
 C390 C 0.83479 0.29735 1.14257
 C391 C 0.79746 0.33165 1.14404
 N392 N 0.78705 0.34828 1.15163
 C393 C 0.79625 0.35461 1.16947
 H394 H 0.82276 0.36766 1.21032
 H395 H 0.87149 0.32310 1.20835
 H396 H 0.87285 0.29305 1.17553
 H397 H 0.82641 0.29347 1.12850
 H398 H 0.79384 0.32372 1.12965
 H399 H 0.79150 0.36791 1.17860
 C400 C 0.83908 0.85411 0.67650
 C401 C 0.82448 0.85502 0.66035
 C402 C 0.82528 0.84069 0.64430
 C403 C 0.84072 0.82532 0.64420
 C404 C 0.85518 0.82444 0.66015
 C405 C 0.85435 0.83892 0.67640
 C406 C 0.84224 0.86620 0.69386
 N407 N 0.85897 0.85862 0.70415
 C408 C 0.86655 0.84200 0.69372
 C409 C 0.86835 0.80811 0.65593
 N410 N 0.86212 0.79921 0.63791
 C411 C 0.84530 0.80951 0.63055
 C412 C 0.80936 0.84535 0.63078
 N413 N 0.79908 0.86208 0.63831
 C414 C 0.80809 0.86818 0.65632
 H415 H 0.83326 0.87964 0.69854
 H416 H 0.88007 0.83306 0.69826
 H417 H 0.88146 0.80306 0.66521
 H418 H 0.83708 0.80576 0.61635
 H419 H 0.80553 0.83724 0.61654
 H420 H 0.80308 0.88120 0.66572
 C421 C 0.66108 0.64551 0.67657
 C422 C 0.67695 0.64602 0.66166
 C423 C 0.67748 0.66182 0.64701
 C424 C 0.66215 0.67731 0.64711
 C425 C 0.64648 0.67682 0.66186
 C426 C 0.64594 0.66083 0.67667
 C427 C 0.65659 0.63196 0.69253
 N428 N 0.63918 0.63878 0.70215
 C429 C 0.63248 0.65636 0.69268
 C430 C 0.63367 0.69355 0.65810
 N431 N 0.64127 0.70402 0.64149
 C432 C 0.65862 0.69432 0.63459
 C433 C 0.69438 0.65824 0.63439
 N434 N 0.70395 0.64074 0.64113
 C435 C 0.69353 0.63309 0.65773
 H436 H 0.66528 0.61820 0.69684
 H437 H 0.61886 0.66517 0.69714
 H438 H 0.61980 0.69772 0.66664
 H439 H 0.66783 0.69922 0.62138
 H440 H 0.69928 0.66754 0.62125
 H441 H 0.69766 0.61911 0.66618
 C442 C 0.67620 1.16120 1.19208
 C443 C 0.69153 1.16101 1.17659
 C444 C 0.69189 1.17649 1.16159
 C445 C 0.67695 1.19235 1.16191
 C446 C 0.66180 1.19254 1.17723
 C447 C 0.66142 1.17687 1.19239
 C448 C 0.67146 1.14758 1.20792
 N449 N 0.65426 1.15472 1.21771
 C450 C 0.64790 1.17253 1.20843
 C451 C 0.64874 1.20900 1.17306
 N452 N 0.65572 1.21868 1.15570
 C453 C 0.67287 1.20871 1.14867
 C454 C 0.70776 1.17183 1.14801
 N455 N 0.71692 1.15402 1.15452
 C456 C 0.70720 1.14720 1.17190
 H457 H 0.67958 1.13333 1.21173
 H458 H 0.63423 1.18137 1.21271
 H459 H 0.63490 1.21326 1.18163
 H460 H 0.68135 1.21269 1.13468
 H461 H 0.71207 1.18047 1.13422
 H462 H 0.71098 1.13305 1.18021
 C463 C 0.17456 0.65989 1.19035
 C464 C 0.18993 0.65971 1.17491
 C465 C 0.19037 0.67521 1.15994
 C466 C 0.17544 0.69110 1.16023
 C467 C 0.16024 0.69127 1.17550
 C468 C 0.15980 0.67557 1.19064
 C469 C 0.16981 0.64630 1.20621
 N470 N 0.15261 0.65347 1.21599
 C471 C 0.14628 0.67128 1.20668
 C472 C 0.14726 0.70779 1.17137
 N473 N 0.15432 0.71753 1.15408
 C474 C 0.17146 0.70753 1.14706
 C475 C 0.20632 0.67057 1.14644
 N476 N 0.21543 0.65274 1.15297
 C477 C 0.20561 0.64590 1.17028
 H478 H 0.17794 0.63207 1.21006
 H479 H 0.13264 0.68016 1.21097
 H480 H 0.13343 0.71208 1.17994
 H481 H 0.18002 0.71157 1.13314
 H482 H 0.21072 0.67924 1.13269
 H483 H 0.20936 0.63174 1.17860
 C484 C 0.16944 1.15487 0.68597
 C485 C 0.18546 1.15556 0.67122
 C486 C 0.18585 1.17126 0.65645
 C487 C 0.17023 1.18646 0.65626
 C488 C 0.15442 1.18580 0.67086
 C489 C 0.15402 1.16991 0.68579
 C490 C 0.16474 1.14105 0.70165
 N491 N 0.14695 1.14748 0.71085
 C492 C 0.14019 1.16503 0.70137
 C493 C 0.14105 1.20195 0.66652
 N494 N 0.14847 1.21225 0.64972
 C495 C 0.16623 1.20300 0.64324
 C496 C 0.20259 1.16757 0.64366
 N497 N 0.21224 1.15011 0.65040
 C498 C 0.20199 1.14258 0.66717
 H499 H 0.17344 1.12726 0.70590
 H500 H 0.12617 1.17345 0.70536
 H501 H 0.12682 1.20569 0.67468
 H502 H 0.17530 1.20772 0.62987
 H503 H 0.20716 1.17659 0.63019
 H504 H 0.20599 1.12847 0.67546
 C505 C 1.33620 0.64953 0.31997
 C506 C 1.32132 0.64926 0.33587
 C507 C 1.32137 0.66464 0.35093
 C508 C 1.33630 0.68047 0.35026
 C509 C 1.35103 0.68073 0.33455
 C510 C 1.35098 0.66516 0.31931
 C511 C 1.34009 0.63635 0.30357
 N512 N 1.35680 0.64370 0.29313
 C513 C 1.36366 0.66124 0.30251
 C514 C 1.36380 0.69754 0.33806
 N515 N 1.35706 0.70731 0.35543
 C516 C 1.34033 0.69711 0.36308
 C517 C 1.30544 0.66029 0.36454
 N518 N 1.29589 0.64273 0.35800
 C519 C 1.30538 0.63580 0.34055
 H520 H 1.33159 0.62237 0.29967
 H521 H 1.37697 0.67030 0.29762
 H522 H 1.37710 0.70216 0.32885
 H523 H 1.33192 0.70133 0.37704
 H524 H 1.30115 0.66913 0.37820
 H525 H 1.30104 0.62198 0.33201
 C526 C 1.32647 1.15955 0.81109
 C527 C 1.31117 1.15950 0.82661
 C528 C 1.31123 1.17471 0.84184
 C529 C 1.32659 1.19015 0.84174
 C530 C 1.34172 1.19019 0.82641
 C531 C 1.34166 1.17479 0.81100
 C532 C 1.33074 1.14620 0.79492
 N533 N 1.34805 1.15307 0.78515
 C534 C 1.35493 1.17046 0.79478
 C535 C 1.35510 1.20633 0.83070
 N536 N 1.34832 1.21595 0.84815
 C537 C 1.33099 1.20627 0.85511
 C538 C 1.29518 1.17032 0.85531
 N539 N 1.28554 1.15291 0.84851
 C540 C 1.29511 1.14610 0.83106
 H541 H 1.32219 1.13231 0.79082
 H542 H 1.36877 1.17901 0.79054
 H543 H 1.36893 1.21048 0.82207
 H544 H 1.32252 1.21037 0.86906
 H545 H 1.29107 1.17886 0.86921
 H546 H 1.29094 1.13222 0.82252
 C547 C 0.82877 0.65625 0.81355
 C548 C 0.81341 0.65640 0.82900
 C549 C 0.81344 0.67175 0.84408
 C550 C 0.82884 0.68715 0.84390
 C551 C 0.84403 0.68700 0.82863
 C552 C 0.84400 0.67146 0.81337
 C553 C 0.83304 0.64277 0.79750
 N554 N 0.85039 0.64952 0.78773
 C555 C 0.85729 0.66697 0.79722
 C556 C 0.85739 0.70317 0.83280
 N557 N 0.85058 0.71298 0.85011
 C558 C 0.83322 0.70340 0.85710
 C559 C 0.79733 0.66754 0.85752
 N560 N 0.78767 0.65009 0.85084
 C561 C 0.79729 0.64309 0.83349
 H562 H 0.82444 0.62890 0.79345
 H563 H 0.87114 0.67549 0.79291
 H564 H 0.87125 0.70725 0.82417
 H565 H 0.82470 0.70768 0.87096
 H566 H 0.79318 0.67623 0.87131
 H567 H 0.79311 0.62915 0.82507
 C568 C 0.83139 1.15343 0.31640
 C569 C 0.81629 1.15341 0.33208
 C570 C 0.81640 1.16875 0.34717
 C571 C 0.83161 1.18432 0.34674
 C572 C 0.84655 1.18434 0.33123
 C573 C 0.84644 1.16880 0.31598
 C574 C 0.83546 1.14007 0.30021
 N575 N 0.85254 1.14705 0.29013
 C576 C 0.85945 1.16453 0.29955
 C577 C 0.85973 1.20072 0.33511
 N578 N 0.85304 1.21049 0.35249
 C579 C 0.83594 1.20068 0.35980
 C580 C 0.80042 1.16448 0.36074
 N581 N 0.79079 1.14700 0.35414
 C582 C 0.80027 1.14004 0.33670
 H583 H 0.82691 1.12614 0.29626
 H584 H 0.87309 1.17324 0.29497
 H585 H 0.87336 1.20499 0.32622
 H586 H 0.82755 1.20493 0.37375
 H587 H 0.79627 1.17321 0.37451
 H588 H 0.79598 1.12616 0.32823
 C589 C 0.67692 0.33896 0.30763
 C590 C 0.69231 0.33901 0.32308
 C591 C 0.69235 0.32379 0.33835
 C592 C 0.67700 0.30833 0.33835
 C593 C 0.66180 0.30828 0.32308
 C594 C 0.66176 0.32367 0.30764
 C595 C 0.67239 0.35244 0.29160
 N596 N 0.65497 0.34558 0.28200
 C597 C 0.64825 0.32809 0.29160
 C598 C 0.64838 0.29224 0.32755
 N599 N 0.65515 0.28268 0.34506
 C600 C 0.67256 0.29232 0.35187
 C601 C 0.70834 0.32830 0.35184
 N602 N 0.71788 0.34576 0.34502
 C603 C 0.70829 0.35252 0.32753
 H604 H 0.68080 0.36645 0.28755
 H605 H 0.63432 0.31956 0.28757
 H606 H 0.63446 0.28813 0.31904
 H607 H 0.68101 0.28829 0.36587
 H608 H 0.71243 0.31983 0.36582
 H609 H 0.71234 0.36645 0.31900
 C610 C 0.67164 0.84360 0.81334
 C611 C 0.68731 0.84360 0.82850
 C612 C 0.68760 0.82837 0.84375
 C613 C 0.67223 0.81296 0.84403
 C614 C 0.65676 0.81294 0.82905
 C615 C 0.65646 0.82835 0.81361
 C616 C 0.66699 0.85694 0.79724
 N617 N 0.64947 0.85005 0.78786
 C618 C 0.64283 0.83265 0.79767
 C619 C 0.64351 0.79680 0.83363
 N620 N 0.65066 0.78715 0.85094
 C621 C 0.66814 0.79682 0.85750
 C622 C 0.70394 0.83273 0.85685
 N623 N 0.71344 0.85013 0.84983
 C624 C 0.70349 0.85698 0.83258
 H625 H 0.67546 0.87081 0.79288
 H626 H 0.62894 0.82404 0.79371
 H627 H 0.62951 0.79261 0.82529
 H628 H 0.67694 0.79266 0.87125
 H629 H 0.70834 0.82418 0.87069
 H630 H 0.70748 0.87087 0.82394
 C631 C 0.17384 0.34177 0.81061
 C632 C 0.18941 0.34174 0.82588
 C633 C 0.18954 0.32650 0.84113
 C634 C 0.17414 0.31113 0.84130
 C635 C 0.15876 0.31114 0.82622
 C636 C 0.15861 0.32655 0.81078
 C637 C 0.16929 0.35519 0.79453
 N638 N 0.15179 0.34836 0.78508
 C639 C 0.14504 0.33095 0.79480
 C640 C 0.14539 0.29509 0.83079
 N641 N 0.15239 0.28546 0.84817
 C642 C 0.16988 0.29506 0.85480
 C643 C 0.20574 0.33087 0.85441
 N644 N 0.21531 0.34827 0.84749
 C645 C 0.20554 0.35512 0.83013
 H646 H 0.17780 0.36908 0.79031
 H647 H 0.13110 0.32241 0.79082
 H648 H 0.13139 0.29098 0.82241
 H649 H 0.17854 0.29094 0.86865
 H650 H 0.20996 0.32235 0.86832
 H651 H 0.20959 0.36904 0.82157
 C652 C 0.17556 0.83987 0.30841
 C653 C 0.19093 0.83996 0.32388
 C654 C 0.19093 0.82481 0.33921
 C655 C 0.17557 0.80937 0.33925
 C656 C 0.16039 0.80927 0.32396
 C657 C 0.16038 0.82461 0.30845
 C658 C 0.17109 0.85329 0.29232
 N659 N 0.15368 0.84641 0.28272
 C660 C 0.14692 0.82897 0.29237
 C661 C 0.14698 0.79322 0.32843
 N662 N 0.15375 0.78370 0.34596
 C663 C 0.17113 0.79337 0.35278
 C664 C 0.20694 0.82934 0.35268
 N665 N 0.21651 0.84676 0.34579
 C666 C 0.20693 0.85346 0.32827
 H667 H 0.17952 0.86727 0.28824
 H668 H 0.13299 0.82045 0.28834
 H669 H 0.13311 0.78904 0.31988
 H670 H 0.17960 0.78934 0.36678
 H671 H 0.21102 0.82091 0.36669
 H672 H 0.21101 0.86735 0.31969
 O673 O 0.97983 0.92532 0.89753
 O674 O 0.97990 0.90118 0.87322
 C675 C 0.97268 0.91798 0.88065
 C676 C 0.95532 0.92870 0.86997
 C677 C 0.94683 0.92044 0.85163
 H678 H 0.95345 0.90659 0.84470
 O679 O 1.02002 1.07575 0.89668
 O680 O 1.02001 1.09991 0.87233
 C681 C 1.02716 1.08306 0.87977
 C682 C 1.04446 1.07227 0.86909
 C683 C 1.05287 1.08041 0.85064
 H684 H 1.04620 1.09421 0.84360
 O685 O 0.89676 0.98006 0.92554
 O686 O 0.87252 0.97997 0.90129
 C687 C 0.87999 0.97277 0.91811
 C688 C 0.86952 0.95520 0.92867
 C689 C 0.85158 0.94630 0.91999
 H690 H 0.84478 0.95278 0.90598
 O691 O 1.10360 1.02117 0.92513
 O692 O 1.12772 1.02107 0.90080
 C693 C 1.12037 1.02834 0.91761
 C694 C 1.13096 1.04587 0.92810
 C695 C 1.14873 1.05495 0.91926
 H696 H 1.15539 1.04862 0.90514
 O697 O 0.92522 0.89646 0.98048
 O698 O 0.90106 0.87219 0.98045
 C699 C 0.91787 0.87962 0.97329
 C700 C 0.92854 0.86906 0.95585
 C701 C 0.92001 0.85105 0.94695
 H702 H 0.90603 0.84421 0.95337
 O703 O 1.07507 1.10395 0.97997
 O704 O 1.09928 1.12817 0.98000
 C705 C 1.08247 1.12077 0.97276
 C706 C 1.07192 1.13135 0.95521
 C707 C 1.08073 1.14914 0.94613
 H708 H 1.09483 1.15580 0.95250
 O709 O 0.92477 1.02106 0.89711
 O710 O 0.90046 1.02101 0.87294
 C711 C 0.91721 1.02834 0.88036
 C712 C 0.92750 1.04608 0.86989
 C713 C 0.91829 1.05548 0.85242
 H714 H 0.90406 1.04924 0.84593
 O715 O 1.07497 0.98052 0.89703
 O716 O 1.09905 0.98038 0.87265
 C717 C 1.08220 0.97334 0.88012
 C718 C 1.07121 0.95623 0.86940
 C719 C 1.07851 0.94861 0.85028
 H720 H 1.09187 0.95568 0.84285
 O721 O 1.02052 0.89693 0.92594
 O722 O 1.02067 0.87274 0.90168
 C723 C 1.02774 0.88010 0.91859
 C724 C 1.04497 0.86937 0.92948
 C725 C 1.05305 0.85063 0.92171
 H726 H 1.04623 0.84345 0.90808
 O727 O 0.97954 1.10434 0.92517
 O728 O 0.97957 1.12857 0.90088
 C729 C 0.97231 1.12114 0.91769
 C730 C 0.95465 1.13160 0.92810
 C731 C 0.94536 1.14920 0.91905
 H732 H 0.95167 1.15582 0.90489
 O733 O 0.89651 1.07560 0.98031
 O734 O 0.87217 1.09974 0.98034
 C735 C 0.87959 1.08288 0.97320
 C736 C 0.86890 1.07206 0.95593
 C737 C 0.85056 1.08028 0.94735
 H738 H 0.84359 1.09415 0.95389
 O739 O 1.10357 0.92558 0.98060
 O740 O 1.12790 0.90144 0.98043
 C741 C 1.12041 0.91829 0.97333
 C742 C 1.13101 0.92914 0.95600
 C743 C 1.14963 0.92125 0.94781
 H744 H 1.15679 0.90758 0.95460
 O745 O 0.97940 1.07588 0.89687
 O746 O 0.97935 1.10012 0.87259
 C747 C 0.97209 1.08336 0.88010
 C748 C 0.95436 1.07298 0.86975
 C749 C 0.94489 1.08210 0.85227
 H750 H 0.95109 1.09630 0.84567
 O751 O 1.02037 0.92542 0.89743
 O752 O 1.02045 0.90131 0.87309
 C753 C 1.02747 0.91820 0.88048
 C754 C 1.04445 0.92925 0.86959
 C755 C 1.05201 0.92188 0.85048
 H756 H 1.04500 0.90840 0.84321
 O757 O 1.10340 0.98054 0.92554
 O758 O 1.12755 0.98038 0.90125
 C759 C 1.12021 0.97331 0.91818
 C760 C 1.13093 0.95605 0.92904
 C761 C 1.14957 0.94789 0.92113
 H762 H 1.15667 0.95468 0.90743
 O763 O 0.89657 1.02068 0.92575
 O764 O 0.87225 1.02058 0.90158
 C765 C 0.87966 1.02777 0.91842
 C766 C 0.86895 1.04508 0.92914
 C767 C 0.85062 1.05355 0.92083
 H768 H 0.84369 1.04690 0.90699
 O769 O 0.92473 1.10421 0.97983
 O770 O 0.90042 1.12838 0.97980
 C771 C 0.91721 1.12097 0.97253
 C772 C 0.92764 1.13147 0.95488
 C773 C 0.91861 1.14907 0.94555
 H774 H 0.90440 1.15562 0.95177
 O775 O 1.07530 0.89694 0.98085
 O776 O 1.09957 0.87275 0.98073
 C777 C 1.08265 0.88010 0.97367
 C778 C 1.07180 0.86935 0.95646
 C779 C 1.07962 0.85062 0.94844
 H780 H 1.09323 0.84344 0.95532
 O781 O 1.07494 1.02108 0.89690
 O782 O 1.09903 1.02094 0.87254
 C783 C 1.08222 1.02815 0.87996
 C784 C 1.07141 1.04542 0.86919
 C785 C 1.07954 1.05380 0.85073
 H786 H 1.09336 1.04716 0.84376
 O787 O 0.92522 0.98037 0.89715
 O788 O 0.90100 0.98030 0.87289
 C789 C 0.91785 0.97316 0.88032
 C790 C 0.92855 0.95574 0.86976
 C791 C 0.92032 0.94720 0.85142
 H792 H 0.90656 0.95389 0.84435
 O793 O 1.02021 1.10415 0.92519
 O794 O 1.02027 1.12834 0.90087
 C795 C 1.02748 1.12092 0.91772
 C796 C 1.04504 1.13141 0.92826
 C797 C 1.05413 1.14920 0.91945
 H798 H 1.04779 1.15592 0.90534
 O799 O 0.97994 0.89672 0.92582
 O800 O 0.98005 0.87255 0.90154
 C801 C 0.97282 0.87989 0.91837
 C802 C 0.95542 0.86921 0.92896
 C803 C 0.94664 0.85121 0.92032
 H804 H 0.95311 0.84448 0.90629
 O805 O 1.10371 1.07571 0.97986
 O806 O 1.12792 1.09993 0.97989
 C807 C 1.12050 1.08316 0.97264
 C808 C 1.13102 1.07268 0.95506
 C809 C 1.14879 1.08151 0.94596
 H810 H 1.15549 1.09557 0.95234
 O811 O 0.89690 0.92500 0.98031
 O812 O 0.87271 0.90076 0.98023
 C813 C 0.88012 0.91759 0.97304
 C814 C 0.86958 0.92821 0.95552
 C815 C 0.85163 0.91957 0.94657
 H816 H 0.84488 0.90553 0.95298
 Cu817 Cu 1.00018 0.91351 0.91412
 Cu818 Cu 1.00031 0.88451 0.88495
 Cu819 Cu 0.99982 1.08761 0.91341
 Cu820 Cu 0.99984 1.11667 0.88424
 Cu821 Cu 0.91328 1.00055 0.91380
 Cu822 Cu 0.88414 1.00046 0.88473
 Cu823 Cu 1.08683 1.00083 0.91360
 Cu824 Cu 1.11578 1.00065 0.88438
 C825 C 0.94619 0.94649 0.87881
 H826 H 0.95240 0.95273 0.89315
 C827 C 0.92939 0.92962 0.84245
 C828 C 1.05372 1.05463 0.87813
 H829 H 1.04757 1.04848 0.89255
 C830 C 1.07034 1.07124 0.84154
 C831 C 0.87829 0.94615 0.94656
 H832 H 0.89235 0.95268 0.95311
 C833 C 0.84274 0.92854 0.92885
 C834 C 1.12235 1.05473 0.94614
 H835 H 1.10842 1.04807 0.95282
 C836 C 1.15754 1.07273 0.92811
 C837 C 0.94639 0.87790 0.94687
 H838 H 0.95282 0.89202 0.95338
 C839 C 0.92898 0.84223 0.92923
 C840 C 1.05393 1.12271 0.94628
 H841 H 1.04728 1.10876 0.95294
 C842 C 1.07193 1.15795 0.92830
 C843 C 0.94565 1.05484 0.87832
 H844 H 0.95261 1.04795 0.89203
 C845 C 0.92689 1.07345 0.84374
 C846 C 1.05402 0.94658 0.87882
 H847 H 1.04849 0.95216 0.89371
 C848 C 1.06894 0.93152 0.84089
 C849 C 1.05433 0.87849 0.94700
 H850 H 1.04843 0.89312 0.95286
 C851 C 1.07030 0.84133 0.93114
 C852 C 0.94579 1.12298 0.94615
 H853 H 0.95260 1.10917 0.95298
 C854 C 0.92739 1.15782 0.92768
 C855 C 0.87785 1.05431 0.94684
 H856 H 0.89220 1.04812 0.95309
 C857 C 0.84152 1.07109 0.92986
 C858 C 1.12188 0.94668 0.94663
 H859 H 1.10733 0.95265 0.95262
 C860 C 1.15883 0.93056 0.93045
 O861 O 1.02044 0.92523 1.10443
 O862 O 1.02044 0.90104 1.12876
 C863 C 1.02762 0.91786 1.12130
 C864 C 1.04515 0.92841 1.13183
 C865 C 1.05435 0.91949 1.14954
 H866 H 1.04806 0.90535 1.15620
 O867 O 0.97993 1.07527 1.10351
 O868 O 0.97974 1.09941 1.12781
 C869 C 0.97268 1.08256 1.12036
 C870 C 0.95540 1.07172 1.13100
 C871 C 0.94681 1.07998 1.14929
 H872 H 0.95327 1.09392 1.15618
 O873 O 0.89658 1.02060 1.07546
 O874 O 0.87247 1.02070 1.09980
 C875 C 0.87989 1.02796 1.08300
 C876 C 0.86947 1.04572 1.07263
 C877 C 0.85179 1.05487 1.08159
 H878 H 0.84512 1.04844 1.09568
 O879 O 1.10381 0.98001 1.07602
 O880 O 1.12804 0.98010 1.10026
 C881 C 1.12066 0.97287 1.08344
 C882 C 1.13130 0.95544 1.07284
 C883 C 1.14922 0.94645 1.08155
 H884 H 1.15593 0.95280 1.09564
 O885 O 1.07565 0.89698 1.02153
 O886 O 1.10001 0.87288 1.02144
 C887 C 1.08325 0.88026 1.02881
 C888 C 1.07300 0.86981 1.04659
 C889 C 1.08232 0.85247 1.05611
 H890 H 1.09660 0.84604 1.04992
 O891 O 0.92523 1.10427 1.02047
 O892 O 0.90104 1.12855 1.02049
 C893 C 0.91793 1.12117 1.02759
 C894 C 0.92879 1.13187 1.04483
 C895 C 0.92073 1.15034 1.05322
 H896 H 0.90694 1.15739 1.04656
 O897 O 0.92469 0.97942 1.10368
 O898 O 0.90048 0.97951 1.12793
 C899 C 0.91719 0.97213 1.12045
 C900 C 0.92746 0.95432 1.13085
 C901 C 0.91804 0.94467 1.14804
 H902 H 0.90367 0.95077 1.15438
 O903 O 1.07522 1.02061 1.10432
 O904 O 1.09941 1.02069 1.12861
 C905 C 1.08259 1.02785 1.12115
 C906 C 1.07193 1.04532 1.13168
 C907 C 1.08050 1.05425 1.14968
 H908 H 1.09450 1.04783 1.15652
 O909 O 0.98021 0.89648 1.07575
 O910 O 0.98025 0.87226 1.10005
 C911 C 0.97303 0.87966 1.08320
 C912 C 0.95544 0.86916 1.07272
 C913 C 0.94619 0.85156 1.08176
 H914 H 0.95250 0.84495 1.09594
 O915 O 1.02067 1.10383 1.07544
 O916 O 1.02059 1.12796 1.09976
 C917 C 1.02790 1.12057 1.08297
 C918 C 1.04553 1.13105 1.07257
 C919 C 1.05479 1.14863 1.08160
 H920 H 1.04851 1.15521 1.09578
 O921 O 0.89660 0.92491 1.02095
 O922 O 0.87240 0.90068 1.02091
 C923 C 0.87975 0.91753 1.02808
 C924 C 0.86907 0.92819 1.04546
 C925 C 0.85122 0.91947 1.05449
 H926 H 0.84457 0.90533 1.04821
 O927 O 1.10352 1.07530 1.02054
 O928 O 1.12776 1.09950 1.02057
 C929 C 1.12033 1.08267 1.02777
 C930 C 1.13088 1.07208 1.04531
 C931 C 1.14880 1.08077 1.05422
 H932 H 1.15556 1.09477 1.04773
 O933 O 1.02051 1.07546 1.10393
 O934 O 1.02032 1.09959 1.12825
 C935 C 1.02759 1.08281 1.12083
 C936 C 1.04502 1.07220 1.13151
 C937 C 1.05384 1.08086 1.14951
 H938 H 1.04738 1.09489 1.15623
 O939 O 0.97975 0.92483 1.10418
 O940 O 0.97974 0.90059 1.12845
 C941 C 0.97238 0.91730 1.12089
 C942 C 0.95447 0.92753 1.13110
 C943 C 0.94477 0.91815 1.14829
 H944 H 0.95093 0.90387 1.15480
 O945 O 1.10350 1.02063 1.07573
 O946 O 1.12772 1.02075 1.09999
 C947 C 1.12030 1.02788 1.08312
 C948 C 1.13085 1.04533 1.07241
 C949 C 1.14878 1.05430 1.08105
 H950 H 1.15552 1.04796 1.09515
 O951 O 0.89632 0.97991 1.07520
 O952 O 0.87214 0.98002 1.09948
 C953 C 0.87949 0.97279 1.08264
 C954 C 0.86891 0.95529 1.07213
 C955 C 0.85107 0.94630 1.08091
 H956 H 0.84432 0.95275 1.09493
 O957 O 1.07534 1.10395 1.02067
 O958 O 1.09957 1.12815 1.02072
 C959 C 1.08280 1.12070 1.02797
 C960 C 1.07238 1.13111 1.04564
 C961 C 1.08138 1.14869 1.05494
 H962 H 1.09552 1.15532 1.04865
 O963 O 0.92523 0.89663 1.02114
 O964 O 0.90103 0.87239 1.02115
 C965 C 0.91783 0.87982 1.02838
 C966 C 0.92839 0.86928 1.04595
 C967 C 0.91943 0.85167 1.05525
 H968 H 0.90521 0.84513 1.04905
 O969 O 1.07521 0.97996 1.10430
 O970 O 1.09943 0.98001 1.12856
 C971 C 1.08264 0.97276 1.12114
 C972 C 1.07211 0.95522 1.13172
 C973 C 1.08104 0.94602 1.14944
 H974 H 1.09522 0.95227 1.15602
 O975 O 0.92528 1.02009 1.10364
 O976 O 0.90117 1.02016 1.12799
 C977 C 0.91801 1.02726 1.12053
 C978 C 0.92875 1.04461 1.13113
 C979 C 0.92044 1.05314 1.14942
 H980 H 0.90664 1.04648 1.15641
 O981 O 0.98005 1.10405 1.07526
 O982 O 0.97996 1.12823 1.09953
 C983 C 0.97289 1.12092 1.08261
 C984 C 0.95568 1.13172 1.07177
 C985 C 0.94736 1.15020 1.07988
 H986 H 0.95403 1.15716 1.09370
 O987 O 1.02089 0.89665 1.07618
 O988 O 1.02096 0.87248 1.10051
 C989 C 1.02826 0.87995 1.08375
 C990 C 1.04609 0.86965 1.07346
 C991 C 1.05568 0.85231 1.08272
 H992 H 1.04950 0.84576 1.09697
 O993 O 1.10391 0.92547 1.02124
 O994 O 1.12827 0.90135 1.02108
 C995 C 1.12080 0.91811 1.02836
 C996 C 1.13138 0.92866 1.04585
 C997 C 1.14928 0.91993 1.05483
 H998 H 1.15602 0.90590 1.04840
 O999 O 0.89672 1.07594 1.02096
 O1000 O 0.87250 1.10018 1.02104
 C1001 C 0.87997 1.08338 1.02828
 C1002 C 0.86953 1.07285 1.04591
 C1003 C 0.85184 1.08172 1.05514
 H1004 H 0.84520 1.09590 1.04890
 Cu1005 Cu 1.00033 0.91322 1.08770
 Cu1006 Cu 1.00035 0.88417 1.11688
 Cu1007 Cu 1.00028 1.08724 1.08709
 Cu1008 Cu 1.00010 1.11623 1.11627
 Cu1009 Cu 0.91341 0.91318 1.00073
 Cu1010 Cu 0.88438 0.88407 1.00068
 Cu1011 Cu 1.08716 0.91365 1.00104
 Cu1012 Cu 1.11637 0.88467 1.00086
 Cu1013 Cu 0.91323 1.08758 1.00039
 Cu1014 Cu 0.88410 1.11664 1.00043
 Cu1015 Cu 1.08698 1.08731 1.00024
 Cu1016 Cu 1.11605 1.11637 1.00030
 Cu1017 Cu 0.91313 0.99999 1.08705
 Cu1018 Cu 0.88415 1.00013 1.11624
 Cu1019 Cu 1.08700 1.00029 1.08767
 Cu1020 Cu 1.11607 1.00040 1.11679
 C1021 C 1.05403 0.94642 1.12316
 H1022 H 1.04730 0.95314 1.10925
 C1023 C 1.07226 0.92819 1.15822
 C1024 C 0.94638 1.05389 1.12214
 H1025 H 0.95265 1.04766 1.10781
 C1026 C 0.92938 1.07077 1.15839
 C1027 C 0.87812 1.05472 1.05466
 H1028 H 0.89198 1.04800 1.04789
 C1029 C 0.84308 1.07282 1.07294
 C1030 C 1.12264 0.94656 1.05485
 H1031 H 1.10861 0.95314 1.04826
 C1032 C 1.15810 0.92874 1.07262
 C1033 C 1.05477 0.87816 1.05528
 H1034 H 1.04772 0.89177 1.04828
 C1035 C 1.07376 0.84385 1.07414
 C1036 C 0.94643 1.12281 1.05408
 H1037 H 0.95251 1.10836 1.04796
 C1038 C 0.92995 1.15943 1.07068
 C1039 C 0.94579 0.94574 1.12260
 H1040 H 0.95291 0.95283 1.10909
 C1041 C 0.92658 0.92661 1.15662
 C1042 C 1.05405 1.05429 1.12283
 H1043 H 1.04758 1.04776 1.10873
 C1044 C 1.07153 1.07197 1.15849
 C1045 C 0.94653 0.87779 1.05468
 H1046 H 0.95329 0.89162 1.04787
 C1047 C 0.92823 0.84294 1.07313
 C1048 C 1.05434 1.12252 1.05447
 H1049 H 1.04754 1.10873 1.04764
 C1050 C 1.07269 1.15732 1.07288
 C1051 C 0.87766 0.94625 1.05426
 H1052 H 0.89166 0.95282 1.04764
 C1053 C 0.84233 0.92844 1.07218
 C1054 C 1.12213 1.05422 1.05440
 H1055 H 1.10808 1.04766 1.04788
 C1056 C 1.15763 1.07198 1.07204
 O1057 O 1.07464 0.52012 0.60414
 O1058 O 1.09873 0.52027 0.62853
 C1059 C 1.08183 0.52727 0.62108
 C1060 C 1.07073 0.54431 0.63184
 C1061 C 1.07794 0.55192 0.65100
 H1062 H 1.09131 0.54487 0.65846
 O1063 O 0.92487 0.47924 0.60349
 O1064 O 0.90035 0.47932 0.62742
 C1065 C 0.91719 0.47199 0.62018
 C1066 C 0.92746 0.45428 0.63076
 C1067 C 0.91816 0.44483 0.64814
 H1068 H 0.90386 0.45103 0.65451
 O1069 O 1.02034 0.60323 0.57489
 O1070 O 1.02030 0.62757 0.59900
 C1071 C 1.02748 0.62011 0.58219
 C1072 C 1.04469 0.63084 0.57131
 C1073 C 1.05280 0.64952 0.57916
 H1074 H 1.04606 0.65661 0.59287
 O1075 O 0.97980 0.39639 0.57553
 O1076 O 0.97984 0.37209 0.59974
 C1077 C 0.97262 0.37956 0.58292
 C1078 C 0.95509 0.36905 0.57237
 C1079 C 0.94593 0.35134 0.58127
 H1080 H 0.95223 0.34469 0.59544
 O1081 O 1.10326 0.57504 0.52021
 O1082 O 1.12750 0.59923 0.52038
 C1083 C 1.12003 0.58241 0.52754
 C1084 C 1.13058 0.57169 0.54500
 C1085 C 1.14917 0.57964 0.55321
 H1086 H 1.15633 0.59326 0.54634
 O1087 O 0.89694 0.42493 0.51979
 O1088 O 0.87272 0.40072 0.51971
 C1089 C 0.88002 0.41762 0.52682
 C1090 C 0.86918 0.42851 0.54395
 C1091 C 0.85050 0.42064 0.55204
 H1092 H 0.84340 0.40697 0.54524
 O1093 O 0.97940 0.57514 0.60316
 O1094 O 0.97920 0.59950 0.62724
 C1095 C 0.97209 0.58262 0.61989
 C1096 C 0.95470 0.57193 0.63053
 C1097 C 0.94588 0.58040 0.64862
 H1098 H 0.95223 0.59444 0.65539
 O1099 O 1.02023 0.42487 0.60418
 O1100 O 1.02027 0.40059 0.62840
 C1101 C 1.02745 0.41743 0.62100
 C1102 C 1.04497 0.42796 0.63156
 C1103 C 1.05402 0.41916 0.64942
 H1104 H 1.04765 0.40509 0.65614
 O1105 O 1.10350 0.47981 0.57577
 O1106 O 1.12773 0.48000 0.60003
 C1107 C 1.12040 0.47277 0.58318
 C1108 C 1.13118 0.45547 0.57250
 C1109 C 1.14942 0.44688 0.58092
 H1110 H 1.15625 0.45342 0.59487
 O1111 O 0.89712 0.52015 0.57466
 O1112 O 0.87262 0.52029 0.59861
 C1113 C 0.88023 0.52742 0.58184
 C1114 C 0.86973 0.54481 0.57098
 C1115 C 0.85113 0.55308 0.57886
 H1116 H 0.84392 0.54629 0.59250
 O1117 O 0.92577 0.60371 0.51904
 O1118 O 0.90152 0.62794 0.51894
 C1119 C 0.91844 0.62064 0.52605
 C1120 C 0.92937 0.63152 0.54312
 C1121 C 0.92201 0.65067 0.55059
 H1122 H 0.90868 0.65805 0.54339
 O1123 O 1.07545 0.39681 0.52095
 O1124 O 1.09973 0.37263 0.52108
 C1125 C 1.08288 0.38001 0.52822
 C1126 C 1.07225 0.36940 0.54569
 C1127 C 1.08088 0.35139 0.55458
 H1128 H 1.09491 0.34463 0.54816
 O1129 O 0.92520 0.51993 0.60342
 O1130 O 0.90074 0.52006 0.62742
 C1131 C 0.91764 0.52720 0.62014
 C1132 C 0.92815 0.54472 0.63072
 C1133 C 0.91959 0.55345 0.64880
 H1134 H 0.90573 0.54682 0.65570
 O1135 O 1.07497 0.47953 0.60409
 O1136 O 1.09917 0.47964 0.62838
 C1137 C 1.08241 0.47234 0.62093
 C1138 C 1.07190 0.45480 0.63151
 C1139 C 1.08068 0.44574 0.64937
 H1140 H 1.09476 0.45208 0.65607
 O1141 O 1.02043 0.39654 0.57566
 O1142 O 1.02049 0.37223 0.59986
 C1143 C 1.02770 0.37973 0.58306
 C1144 C 1.04526 0.36925 0.57249
 C1145 C 1.05415 0.35123 0.58110
 H1146 H 1.04766 0.34437 0.59506
 O1147 O 0.97985 0.60349 0.57453
 O1148 O 0.97978 0.62793 0.59854
 C1149 C 0.97281 0.62051 0.58162
 C1150 C 0.95595 0.63142 0.57036
 C1151 C 0.94835 0.65057 0.57756
 H1152 H 0.95527 0.65790 0.59107
 O1153 O 0.89743 0.57519 0.51957
 O1154 O 0.87311 0.59934 0.51955
 C1155 C 0.88059 0.58254 0.52677
 C1156 C 0.86993 0.57179 0.54412
 C1157 C 0.85132 0.57979 0.55227
 H1158 H 0.84426 0.59350 0.54547
 O1159 O 1.10390 0.42525 0.52092
 O1160 O 1.12820 0.40107 0.52104
 C1161 C 1.12075 0.41791 0.52816
 C1162 C 1.13133 0.42862 0.54557
 C1163 C 1.14956 0.42028 0.55425
 H1164 H 1.15651 0.40640 0.54772
 O1165 O 0.97956 0.42467 0.60405
 O1166 O 0.97955 0.40036 0.62825
 C1167 C 0.97224 0.41712 0.62077
 C1168 C 0.95444 0.42745 0.63108
 C1169 C 0.94488 0.41827 0.64846
 H1170 H 0.95108 0.40405 0.65507
 O1171 O 1.01994 0.57495 0.60358
 O1172 O 1.01981 0.59919 0.62779
 C1173 C 1.02691 0.58226 0.62054
 C1174 C 1.04386 0.57124 0.63157
 C1175 C 1.05133 0.57861 0.65073
 H1176 H 1.04425 0.59206 0.65798
 O1177 O 0.89683 0.47958 0.57463
 O1178 O 0.87229 0.47973 0.59855
 C1179 C 0.87983 0.47256 0.58177
 C1180 C 0.86911 0.45539 0.57084
 C1181 C 0.85044 0.44727 0.57867
 H1182 H 0.84329 0.45405 0.59233
 O1183 O 1.10304 0.52040 0.57562
 O1184 O 1.12722 0.52063 0.59992
 C1185 C 1.11982 0.52769 0.58300
 C1186 C 1.13048 0.54496 0.57213
 C1187 C 1.14908 0.55317 0.58006
 H1188 H 1.15618 0.54644 0.59379
 O1189 O 0.92525 0.39634 0.52046
 O1190 O 0.90106 0.37210 0.52042
 C1191 C 0.91779 0.37956 0.52774
 C1192 C 0.92822 0.36909 0.54542
 C1193 C 0.91933 0.35136 0.55459
 H1194 H 0.90523 0.34471 0.54825
 O1195 O 1.07487 0.60350 0.51974
 O1196 O 1.09905 0.62775 0.51985
 C1197 C 1.08218 0.62035 0.52693
 C1198 C 1.07136 0.63101 0.54420
 C1199 C 1.07921 0.64968 0.55231
 H1200 H 1.09279 0.65688 0.54543
 Cu1201 Cu 1.08662 0.49996 0.58748
 Cu1202 Cu 1.11564 0.50019 0.61666
 Cu1203 Cu 0.91348 0.49970 0.58668
 Cu1204 Cu 0.88407 0.49987 0.61543
 Cu1205 Cu 0.99990 0.58675 0.58664
 Cu1206 Cu 0.99977 0.61598 0.61558
 Cu1207 Cu 1.00001 0.41306 0.58744
 Cu1208 Cu 1.00006 0.38389 0.61650
 C1209 C 1.05353 0.55394 0.62237
 H1210 H 1.04809 0.54838 0.60744
 C1211 C 1.06827 0.56897 0.66038
 C1212 C 0.94572 0.44558 0.62248
 H1213 H 0.95274 0.45252 0.60884
 C1214 C 0.92677 0.42686 0.65687
 C1215 C 1.05395 0.62182 0.55369
 H1216 H 1.04802 0.60724 0.54775
 C1217 C 1.06999 0.65886 0.56971
 C1218 C 0.94624 0.37769 0.55431
 H1219 H 0.95296 0.39158 0.54758
 C1220 C 0.92809 0.34262 0.57249
 C1221 C 1.12145 0.55422 0.55445
 H1222 H 1.10694 0.54820 0.54843
 C1223 C 1.15834 0.57044 0.57065
 C1224 C 0.87824 0.44604 0.55332
 H1225 H 0.89283 0.45199 0.54742
 C1226 C 0.84122 0.42997 0.56933
 C1227 C 0.94585 0.55395 0.62182
 H1228 H 0.95231 0.54754 0.60766
 C1229 C 0.92838 0.57123 0.65766
 C1230 C 1.05390 0.44592 0.62285
 H1231 H 1.04727 0.45256 0.60886
 C1232 C 1.07182 0.42797 0.65821
 C1233 C 1.12239 0.44636 0.55467
 H1234 H 1.10812 0.45264 0.54830
 C1235 C 1.15851 0.42934 0.57187
 C1236 C 0.87893 0.55417 0.55348
 H1237 H 0.89345 0.54811 0.54752
 C1238 C 0.84201 0.57049 0.56957
 C1239 C 0.94650 0.62214 0.55297
 H1240 H 0.95204 0.60721 0.54753
 C1241 C 0.93148 0.66013 0.56772
 C1242 C 1.05431 0.37810 0.55465
 H1243 H 1.04779 0.39221 0.54814
 C1244 C 1.07191 0.34241 0.57223
 O1245 O 1.07556 0.48009 0.39611
 O1246 O 1.09988 0.47999 0.37198
 C1247 C 1.08295 0.47293 0.37927
 C1248 C 1.07213 0.45572 0.36850
 C1249 C 1.08017 0.44744 0.34997
 H1250 H 1.09392 0.45414 0.34293
 O1251 O 0.92552 0.52004 0.39584
 O1252 O 0.90123 0.52012 0.37166
 C1253 C 0.91803 0.52733 0.37907
 C1254 C 0.92850 0.54493 0.36853
 C1255 C 0.91950 0.55418 0.35087
 H1256 H 0.90531 0.54794 0.34431
 O1257 O 0.98014 0.60353 0.42378
 O1258 O 0.98015 0.62772 0.39946
 C1259 C 0.97288 0.62030 0.41625
 C1260 C 0.95520 0.63075 0.42663
 C1261 C 0.94597 0.64840 0.41761
 H1262 H 0.95231 0.65504 0.40347
 O1263 O 1.02135 0.39682 0.42476
 O1264 O 1.02156 0.37250 0.40063
 C1265 C 1.02866 0.38000 0.41746
 C1266 C 1.04607 0.36946 0.42824
 C1267 C 1.05498 0.35140 0.41979
 H1268 H 1.04865 0.34459 0.40574
 O1269 O 1.10387 0.42525 0.48025
 O1270 O 1.12817 0.40108 0.48038
 C1271 C 1.12071 0.41787 0.47309
 C1272 C 1.13129 0.42846 0.45560
 C1273 C 1.14958 0.42010 0.44709
 H1274 H 1.15655 0.40630 0.45382
 O1275 O 0.89719 0.57476 0.47899
 O1276 O 0.87275 0.59879 0.47896
 C1277 C 0.88019 0.58191 0.47193
 C1278 C 0.86937 0.57084 0.45492
 C1279 C 0.85048 0.57842 0.44701
 H1280 H 0.84325 0.59202 0.45383
 O1281 O 1.02097 0.57516 0.39558
 O1282 O 1.02094 0.59933 0.37124
 C1283 C 1.02823 0.58259 0.37877
 C1284 C 1.04592 0.57216 0.36839
 C1285 C 1.05510 0.58105 0.35067
 H1286 H 1.04870 0.59510 0.34390
 O1287 O 0.98036 0.42472 0.39618
 O1288 O 0.98049 0.40034 0.37211
 C1289 C 0.97314 0.41713 0.37944
 C1290 C 0.95548 0.42747 0.36888
 C1291 C 0.94619 0.41834 0.35135
 H1292 H 0.95245 0.40411 0.34487
 O1293 O 1.10410 0.52030 0.42484
 O1294 O 1.12858 0.52017 0.40087
 C1295 C 1.12110 0.52731 0.41769
 C1296 C 1.13185 0.54440 0.42869
 C1297 C 1.15068 0.55239 0.42107
 H1298 H 1.15793 0.54557 0.40749
 O1299 O 0.89727 0.47910 0.42412
 O1300 O 0.87304 0.47912 0.39987
 C1301 C 0.88051 0.47183 0.41665
 C1302 C 0.87008 0.45417 0.42709
 C1303 C 0.85248 0.44492 0.41809
 H1304 H 0.84587 0.45122 0.40390
 O1305 O 1.07535 0.60341 0.47905
 O1306 O 1.09962 0.62756 0.47913
 C1307 C 1.08287 0.62016 0.47179
 C1308 C 1.07247 0.63066 0.45409
 C1309 C 1.08142 0.64833 0.44488
 H1310 H 1.09555 0.65495 0.45121
 O1311 O 0.92597 0.39631 0.47981
 O1312 O 0.90188 0.37196 0.47974
 C1313 C 0.91875 0.37940 0.47268
 C1314 C 0.92962 0.36876 0.45541
 C1315 C 0.92140 0.35048 0.44681
 H1316 H 0.90753 0.34351 0.45334
 O1317 O 0.92567 0.47935 0.39577
 O1318 O 0.90143 0.47938 0.37153
 C1319 C 0.91821 0.47211 0.37899
 C1320 C 0.92865 0.45444 0.36860
 C1321 C 0.91962 0.44504 0.35108
 H1322 H 0.90547 0.45131 0.34441
 O1323 O 1.07592 0.52070 0.39612
 O1324 O 1.10035 0.52066 0.37210
 C1325 C 1.08351 0.52793 0.37938
 C1326 C 1.07304 0.54549 0.36873
 C1327 C 1.08197 0.55464 0.35100
 H1328 H 1.09617 0.54839 0.34447
 O1329 O 0.98078 0.39662 0.42498
 O1330 O 0.98097 0.37223 0.40092
 C1331 C 0.97376 0.37967 0.41773
 C1332 C 0.95652 0.36892 0.42852
 C1333 C 0.94802 0.35064 0.42018
 H1334 H 0.95459 0.34379 0.40626
 O1335 O 1.02079 0.60346 0.42409
 O1336 O 1.02083 0.62763 0.39975
 C1337 C 1.02803 0.62023 0.41661
 C1338 C 1.04560 0.63073 0.42713
 C1339 C 1.05482 0.64839 0.41819
 H1340 H 1.04854 0.65503 0.40401
 O1341 O 0.89720 0.42440 0.47914
 O1342 O 0.87310 0.40007 0.47903
 C1343 C 0.88052 0.41686 0.47176
 C1344 C 0.87010 0.42726 0.45403
 C1345 C 0.85248 0.41828 0.44475
 H1346 H 0.84587 0.40413 0.45106
 O1347 O 1.10376 0.57491 0.47961
 O1348 O 1.12807 0.59903 0.47979
 C1349 C 1.12074 0.58217 0.47265
 C1350 C 1.13166 0.57125 0.45560
 C1351 C 1.15048 0.57900 0.44773
 H1352 H 1.15758 0.59263 0.45462
 O1353 O 1.02097 0.42525 0.39619
 O1354 O 1.02112 0.40097 0.37202
 C1355 C 1.02814 0.41791 0.37933
 C1356 C 1.04530 0.42879 0.36854
 C1357 C 1.05360 0.42077 0.35000
 H1358 H 1.04694 0.40699 0.34297
 O1359 O 0.98031 0.57486 0.39564
 O1360 O 0.98026 0.59906 0.37133
 C1361 C 0.97306 0.58226 0.37882
 C1362 C 0.95546 0.57175 0.36837
 C1363 C 0.94618 0.58071 0.35072
 H1364 H 0.95245 0.59486 0.34407
 O1365 O 0.89716 0.51969 0.42443
 O1366 O 0.87282 0.51971 0.40028
 C1367 C 0.88021 0.52677 0.41718
 C1368 C 0.86938 0.54386 0.42813
 C1369 C 0.85050 0.55170 0.42047
 H1370 H 0.84329 0.54478 0.40690
 O1371 O 1.10379 0.47975 0.42480
 O1372 O 1.12817 0.47959 0.40073
 C1373 C 1.12064 0.47248 0.41755
 C1374 C 1.13121 0.45512 0.42840
 C1375 C 1.14950 0.44649 0.42018
 H1376 H 1.15644 0.45298 0.40626
 O1377 O 1.07560 0.39674 0.48024
 O1378 O 1.09988 0.37255 0.48037
 C1379 C 1.08309 0.37995 0.47306
 C1380 C 1.07264 0.36939 0.45548
 C1381 C 1.08129 0.35135 0.44675
 H1382 H 1.09519 0.34451 0.45339
 O1383 O 0.92533 0.60346 0.47840
 O1384 O 0.90093 0.62753 0.47825
 C1385 C 0.91775 0.62016 0.47103
 C1386 C 0.92818 0.63065 0.45338
 C1387 C 0.91922 0.64831 0.44411
 H1388 H 0.90504 0.65491 0.45035
 Cu1389 Cu 1.08739 0.50023 0.41286
 Cu1390 Cu 1.11668 0.50008 0.38399
 Cu1391 Cu 0.91385 0.49957 0.41245
 Cu1392 Cu 0.88472 0.49964 0.38338
 Cu1393 Cu 1.08687 0.58680 0.49962
 Cu1394 Cu 1.11597 0.61584 0.49981
 Cu1395 Cu 1.08727 0.41343 0.50060
 Cu1396 Cu 1.11642 0.38440 0.50074
 Cu1397 Cu 0.91388 0.58688 0.49901
 Cu1398 Cu 0.88464 0.61583 0.49893
 Cu1399 Cu 0.91375 0.41293 0.49982
 Cu1400 Cu 0.88477 0.38377 0.49972
 Cu1401 Cu 1.00056 0.58683 0.41221
 Cu1402 Cu 1.00054 0.61586 0.38300
 Cu1403 Cu 1.00086 0.41330 0.41293
 Cu1404 Cu 1.00107 0.38407 0.38400
 C1405 C 1.05454 0.44642 0.37754
 H1406 H 1.04848 0.45247 0.39203
 C1407 C 1.07095 0.43004 0.34080
 C1408 C 0.94661 0.55372 0.37705
 H1409 H 0.95341 0.54696 0.39091
 C1410 C 0.92825 0.57203 0.34210
 C1411 C 0.94630 0.62212 0.44464
 H1412 H 0.95308 0.60829 0.45146
 C1413 C 0.92803 0.65707 0.42626
 C1414 C 1.05489 0.37822 0.44623
 H1415 H 1.04836 0.39235 0.45261
 C1416 C 1.07254 0.34245 0.42896
 C1417 C 1.12233 0.44611 0.44625
 H1418 H 1.10803 0.45243 0.45247
 C1419 C 1.15858 0.42904 0.42945
 C1420 C 0.87858 0.55339 0.44551
 H1421 H 0.89332 0.54766 0.45129
 C1422 C 0.84112 0.56890 0.42986
 C1423 C 1.05489 0.55425 0.37718
 H1424 H 1.04814 0.54754 0.39107
 C1425 C 1.07308 0.57239 0.34208
 C1426 C 0.94671 0.44564 0.37726
 H1427 H 0.95352 0.45253 0.39103
 C1428 C 0.92829 0.42703 0.34257
 C1429 C 1.12260 0.55379 0.44612
 H1430 H 1.10791 0.54795 0.45187
 C1431 C 1.15992 0.56962 0.43055
 C1432 C 0.87866 0.44533 0.44519
 H1433 H 0.89247 0.45212 0.45199
 C1434 C 0.84379 0.42702 0.42682
 C1435 C 1.05442 0.62211 0.44522
 H1436 H 1.04766 0.60825 0.45198
 C1437 C 1.07268 0.65708 0.42697
 C1438 C 0.94734 0.37775 0.44629
 H1439 H 0.95354 0.39207 0.45257
 C1440 C 0.93051 0.34153 0.42924
 O1441 O 0.47969 0.92526 0.39574
 O1442 O 0.47977 0.90090 0.37164
 C1443 C 0.47244 0.91769 0.37901
 C1444 C 0.45476 0.92806 0.36851
 C1445 C 0.44548 0.91902 0.35093
 H1446 H 0.45179 0.90486 0.34435
 O1447 O 0.52076 1.07553 0.39573
 O1448 O 0.52060 1.09983 0.37152
 C1449 C 0.52792 1.08304 0.37892
 C1450 C 0.54557 1.07266 0.36843
 C1451 C 0.55485 1.08176 0.35086
 H1452 H 0.54854 1.09594 0.34428
 O1453 O 0.39649 0.97999 0.42409
 O1454 O 0.37232 0.98017 0.39978
 C1455 C 0.37968 0.97286 0.41660
 C1456 C 0.36912 0.95529 0.42706
 C1457 C 0.35142 0.94617 0.41812
 H1458 H 0.34480 0.95253 0.40397
 O1459 O 0.60343 1.02031 0.42472
 O1460 O 0.62784 1.02039 0.40067
 C1461 C 0.62038 1.02742 0.41756
 C1462 C 0.63109 1.04455 0.42858
 C1463 C 0.64958 1.05293 0.42058
 H1464 H 0.65660 1.04636 0.40675
 O1465 O 0.42510 0.89696 0.47889
 O1466 O 0.40096 0.87267 0.47897
 C1467 C 0.41778 0.88007 0.47179
 C1468 C 0.42858 0.86936 0.45450
 C1469 C 0.42044 0.85095 0.44606
 H1470 H 0.40662 0.84396 0.45267
 O1471 O 0.57542 1.10376 0.47926
 O1472 O 0.59973 1.12788 0.47923
 C1473 C 0.58299 1.12046 0.47191
 C1474 C 0.57269 1.13088 0.45412
 C1475 C 0.58184 1.14835 0.44474
 H1476 H 0.59604 1.15487 0.45101
 O1477 O 0.42529 1.02050 0.39584
 O1478 O 0.40113 1.02068 0.37152
 C1479 C 0.41795 1.02778 0.37900
 C1480 C 0.42861 1.04526 0.36847
 C1481 C 0.42002 1.05415 0.35044
 H1482 H 0.40605 1.04769 0.34361
 O1483 O 0.57497 0.98025 0.39564
 O1484 O 0.59923 0.98033 0.37145
 C1485 C 0.58234 0.97318 0.37876
 C1486 C 0.57157 0.95593 0.36799
 C1487 C 0.57977 0.94748 0.34960
 H1488 H 0.59359 0.95411 0.34263
 O1489 O 0.52053 0.89724 0.42434
 O1490 O 0.52074 0.87291 0.40022
 C1491 C 0.52781 0.88040 0.41707
 C1492 C 0.54513 0.86980 0.42795
 C1493 C 0.55369 0.85143 0.41984
 H1494 H 0.54717 0.84443 0.40597
 O1495 O 0.48032 1.10386 0.42451
 O1496 O 0.48024 1.12824 0.40038
 C1497 C 0.47319 1.12081 0.41727
 C1498 C 0.45608 1.13161 0.42823
 C1499 C 0.44817 1.15046 0.42050
 H1500 H 0.45504 1.15765 0.40690
 O1501 O 0.39665 1.07563 0.47903
 O1502 O 0.37252 1.09996 0.47871
 C1503 C 0.37993 1.08309 0.47163
 C1504 C 0.36942 1.07245 0.45411
 C1505 C 0.35138 1.08100 0.44520
 H1506 H 0.34454 1.09499 0.45161
 O1507 O 0.60373 0.92549 0.47921
 O1508 O 0.62789 0.90117 0.47941
 C1509 C 0.62048 0.91792 0.47201
 C1510 C 0.63095 0.92822 0.45428
 C1511 C 0.64864 0.91923 0.44517
 H1512 H 0.65530 0.90515 0.45163
 O1513 O 0.48011 1.07544 0.39597
 O1514 O 0.47992 1.09977 0.37180
 C1515 C 0.47281 1.08289 0.37919
 C1516 C 0.45538 1.07226 0.36858
 C1517 C 0.44650 1.08088 0.35056
 H1518 H 0.45288 1.09493 0.34380
 O1519 O 0.52031 0.92554 0.39564
 O1520 O 0.52044 0.90126 0.37147
 C1521 C 0.52749 0.91818 0.37879
 C1522 C 0.54473 0.92900 0.36804
 C1523 C 0.55319 0.92081 0.34965
 H1524 H 0.54660 0.90696 0.34270
 O1525 O 0.60357 0.97972 0.42395
 O1526 O 0.62787 0.97976 0.39979
 C1527 C 0.62038 0.97247 0.41654
 C1528 C 0.63087 0.95488 0.42710
 C1529 C 0.64857 0.94563 0.41825
 H1530 H 0.65520 0.95185 0.40406
 O1531 O 0.39676 1.02064 0.42418
 O1532 O 0.37258 1.02082 0.39988
 C1533 C 0.38000 1.02795 0.41673
 C1534 C 0.36945 1.04547 0.42730
 C1535 C 0.35143 1.05428 0.41868
 H1536 H 0.34462 1.04777 0.40471
 O1537 O 0.42526 1.10394 0.47935
 O1538 O 0.40117 1.12832 0.47911
 C1539 C 0.41808 1.12087 0.47216
 C1540 C 0.42913 1.13164 0.45507
 C1541 C 0.42150 1.15049 0.44709
 H1542 H 0.40790 1.15771 0.45392
 O1543 O 0.57509 0.89739 0.47952
 O1544 O 0.59923 0.87306 0.47978
 C1545 C 0.58244 0.88049 0.47248
 C1546 C 0.57180 0.86981 0.45510
 C1547 C 0.58009 0.85144 0.44672
 H1548 H 0.59387 0.84447 0.45348
 O1549 O 0.57550 1.02088 0.39573
 O1550 O 0.59987 1.02102 0.37165
 C1551 C 0.58305 1.02824 0.37902
 C1552 C 0.57261 1.04590 0.36852
 C1553 C 0.58162 1.05525 0.35094
 H1554 H 0.59584 1.04905 0.34439
 O1555 O 0.42492 0.97983 0.39571
 O1556 O 0.40073 0.98000 0.37141
 C1557 C 0.41746 0.97264 0.37889
 C1558 C 0.42785 0.95496 0.36845
 C1559 C 0.41882 0.94565 0.35088
 H1560 H 0.40465 0.95192 0.34426
 O1561 O 0.52092 1.10378 0.42422
 O1562 O 0.52084 1.12807 0.39999
 C1563 C 0.52816 1.12056 0.41675
 C1564 C 0.54585 1.13095 0.42715
 C1565 C 0.55526 1.14843 0.41804
 H1566 H 0.54906 1.15500 0.40380
 O1567 O 0.47996 0.89693 0.42428
 O1568 O 0.48014 0.87256 0.40020
 C1569 C 0.47290 0.88001 0.41699
 C1570 C 0.45558 0.86933 0.42772
 C1571 C 0.44718 0.85092 0.41953
 H1572 H 0.45389 0.84392 0.40575
 O1573 O 0.60340 1.07488 0.47994
 O1574 O 0.62772 1.09900 0.47998
 C1575 C 0.62032 1.08213 0.47287
 C1576 C 0.63107 1.07128 0.45565
 C1577 C 0.64954 1.07939 0.44736
 H1578 H 0.65654 1.09315 0.45408
 O1579 O 0.39650 0.92523 0.47868
 O1580 O 0.37233 0.90097 0.47875
 C1581 C 0.37971 0.91777 0.47147
 C1582 C 0.36915 0.92829 0.45390
 C1583 C 0.35145 0.91943 0.44470
 H1584 H 0.34483 0.90527 0.45098
 Cu1585 Cu 0.50013 0.91369 0.41240
 Cu1586 Cu 0.50032 0.88448 0.38345
 Cu1587 Cu 0.50050 1.08721 0.41253
 Cu1588 Cu 0.50033 1.11640 0.38349
 Cu1589 Cu 0.41329 1.00022 0.41239
 Cu1590 Cu 0.38427 1.00047 0.38320
 Cu1591 Cu 0.58692 1.00028 0.41241
 Cu1592 Cu 0.61614 1.00040 0.38347
 C1593 C 0.44594 0.94616 0.37703
 H1594 H 0.45276 0.95299 0.39082
 C1595 C 0.42755 0.92772 0.34224
 C1596 C 0.55445 1.05460 0.37701
 H1597 H 0.54764 1.04773 0.39080
 C1598 C 0.57283 1.07315 0.34223
 C1599 C 0.37773 0.94637 0.44509
 H1600 H 0.39161 0.95307 0.45184
 C1601 C 0.34270 0.92828 0.42685
 C1602 C 0.62206 1.05370 0.44628
 H1603 H 0.60759 1.04760 0.45231
 C1604 C 0.65869 1.07029 0.42989
 C1605 C 0.44629 0.87831 0.44535
 H1606 H 0.45243 0.89270 0.45152
 C1607 C 0.42968 0.84182 0.42863
 C1608 C 0.55457 1.12241 0.44532
 H1609 H 0.54766 1.10870 0.45222
 C1610 C 0.57323 1.15701 0.42673
 C1611 C 0.44643 1.05430 0.37731
 H1612 H 0.45292 1.04779 0.39144
 C1613 C 0.42887 1.07190 0.34160
 C1614 C 0.55389 0.94671 0.37696
 H1615 H 0.54771 0.95288 0.39134
 C1616 C 0.57064 0.92999 0.34052
 C1617 C 0.55418 0.87876 0.44572
 H1618 H 0.54792 0.89313 0.45185
 C1619 C 0.57111 0.84235 0.42915
 C1620 C 0.44659 1.12243 0.44567
 H1621 H 0.45236 1.10771 0.45150
 C1622 C 0.43096 1.15982 0.42989
 C1623 C 0.37823 1.05455 0.44516
 H1624 H 0.39235 1.04809 0.45167
 C1625 C 0.34250 1.07199 0.42753
 C1626 C 0.62231 0.94617 0.44524
 H1627 H 0.60846 0.95297 0.45194
 C1628 C 0.65735 0.92784 0.42720
 O1629 O 0.52004 0.92553 0.60340
 O1630 O 0.51998 0.90121 0.62759
 C1631 C 0.52722 0.91803 0.62022
 C1632 C 0.54470 0.92853 0.63086
 C1633 C 0.55344 0.91990 0.64894
 H1634 H 0.54689 0.90594 0.65574
 O1635 O 0.47928 1.07569 0.60341
 O1636 O 0.47929 1.09996 0.62758
 C1637 C 0.47205 1.08316 0.62018
 C1638 C 0.45446 1.07267 0.63068
 C1639 C 0.44534 1.08146 0.64846
 H1640 H 0.45169 1.09553 0.65519
 O1641 O 0.39626 1.02120 0.57461
 O1642 O 0.37192 1.02107 0.59873
 C1643 C 0.37941 1.02837 0.58197
 C1644 C 0.36889 1.04593 0.57142
 C1645 C 0.35117 1.05511 0.58026
 H1646 H 0.34450 1.04879 0.59440
 O1647 O 0.60326 0.98061 0.57502
 O1648 O 0.62755 0.98053 0.59922
 C1649 C 0.62022 0.97355 0.58225
 C1650 C 0.63115 0.95664 0.57113
 C1651 C 0.65027 0.94907 0.57848
 H1652 H 0.65758 0.95606 0.59195
 O1653 O 0.57523 0.89750 0.52015
 O1654 O 0.59944 0.87324 0.52043
 C1655 C 0.58257 0.88068 0.52746
 C1656 C 0.57172 0.87000 0.54474
 C1657 C 0.57969 0.85142 0.55303
 H1658 H 0.59344 0.84435 0.54637
 O1659 O 0.42473 1.10400 0.51997
 O1660 O 0.40057 1.12831 0.51973
 C1661 C 0.41729 1.12083 0.52712
 C1662 C 0.42772 1.13135 0.54473
 C1663 C 0.41887 1.14915 0.55377
 H1664 H 0.40478 1.15582 0.54737
 O1665 O 0.42469 0.98053 0.60308
 O1666 O 0.40037 0.98037 0.62722
 C1667 C 0.41727 0.97328 0.61989
 C1668 C 0.42802 0.95596 0.63061
 C1669 C 0.41996 0.94767 0.64915
 H1670 H 0.40623 0.95441 0.65619
 O1671 O 0.57452 1.02067 0.60380
 O1672 O 0.59860 1.02054 0.62820
 C1673 C 0.58175 1.02769 0.62077
 C1674 C 0.57081 1.04484 0.63154
 C1675 C 0.57843 1.05273 0.65041
 H1676 H 0.59195 1.04578 0.65770
 O1677 O 0.47952 0.89722 0.57474
 O1678 O 0.47947 0.87287 0.59891
 C1679 C 0.47240 0.88030 0.58201
 C1680 C 0.45528 0.86953 0.57105
 C1681 C 0.44730 0.85073 0.57880
 H1682 H 0.45410 0.84357 0.59247
 O1683 O 0.51989 1.10392 0.57482
 O1684 O 0.51997 1.12826 0.59893
 C1685 C 0.52703 1.12084 0.58205
 C1686 C 0.54411 1.13162 0.57102
 C1687 C 0.55191 1.15057 0.57851
 H1688 H 0.54499 1.15786 0.59203
 O1689 O 0.39668 0.92562 0.51933
 O1690 O 0.37246 0.90142 0.51945
 C1691 C 0.37984 0.91830 0.52653
 C1692 C 0.36912 0.92918 0.54375
 C1693 C 0.35047 0.92129 0.55190
 H1694 H 0.34336 0.90761 0.54512
 O1695 O 0.60341 1.07568 0.52059
 O1696 O 0.62761 1.09991 0.52063
 C1697 C 0.62015 1.08314 0.52790
 C1698 C 0.63064 1.07264 0.54553
 C1699 C 0.64870 1.08116 0.55435
 H1700 H 0.65557 1.09508 0.54780
 O1701 O 0.51987 1.07557 0.60354
 O1702 O 0.51993 1.09981 0.62774
 C1703 C 0.52699 1.08288 0.62044
 C1704 C 0.54406 1.07191 0.63133
 C1705 C 0.55196 1.07956 0.65021
 H1706 H 0.54512 1.09319 0.65735
 O1707 O 0.47943 0.92568 0.60321
 O1708 O 0.47934 0.90138 0.62742
 C1709 C 0.47222 0.91827 0.62004
 C1710 C 0.45491 0.92905 0.63070
 C1711 C 0.44660 0.92103 0.64925
 H1712 H 0.45334 0.90731 0.65636
 O1713 O 0.60318 1.02115 0.57562
 O1714 O 0.62732 1.02111 0.59996
 C1715 C 0.61994 1.02837 0.58313
 C1716 C 0.63053 1.04585 0.57256
 C1717 C 0.64860 1.05462 0.58112
 H1718 H 0.65540 1.04813 0.59513
 O1719 O 0.39654 0.98058 0.57429
 O1720 O 0.37217 0.98042 0.59837
 C1721 C 0.37967 0.97336 0.58152
 C1722 C 0.36905 0.95610 0.57063
 C1723 C 0.35040 0.94794 0.57849
 H1724 H 0.34324 0.95474 0.59214
 O1725 O 0.57464 1.10382 0.51992
 O1726 O 0.59880 1.12809 0.51989
 C1727 C 0.58189 1.12075 0.52696
 C1728 C 0.57091 1.13161 0.54403
 C1729 C 0.57846 1.15056 0.55178
 H1730 H 0.59195 1.15782 0.54478
 O1731 O 0.42500 0.89701 0.51950
 O1732 O 0.40085 0.87273 0.51960
 C1733 C 0.41769 0.88015 0.52672
 C1734 C 0.42853 0.86944 0.54400
 C1735 C 0.42081 0.85064 0.55199
 H1736 H 0.40728 0.84342 0.54507
 O1737 O 0.57495 0.98008 0.60361
 O1738 O 0.59916 0.97989 0.62788
 C1739 C 0.58236 0.97275 0.62040
 C1740 C 0.57172 0.95526 0.63092
 C1741 C 0.58021 0.94636 0.64900
 H1742 H 0.59419 0.95275 0.65586
 O1743 O 0.42459 1.02116 0.60312
 O1744 O 0.40026 1.02102 0.62725
 C1745 C 0.41707 1.02831 0.61992
 C1746 C 0.42754 1.04583 0.63054
 C1747 C 0.41867 1.05489 0.64832
 H1748 H 0.40454 1.04856 0.65494
 O1749 O 0.47932 1.10404 0.57494
 O1750 O 0.47935 1.12833 0.59909
 C1751 C 0.47211 1.12087 0.58230
 C1752 C 0.45457 1.13139 0.57171
 C1753 C 0.44547 1.14920 0.58045
 H1754 H 0.45181 1.15592 0.59454
 O1755 O 0.52009 0.89736 0.57479
 O1756 O 0.52004 0.87300 0.59894
 C1757 C 0.52725 0.88049 0.58214
 C1758 C 0.54464 0.86988 0.57144
 C1759 C 0.55287 0.85130 0.57947
 H1760 H 0.54604 0.84416 0.59312
 O1761 O 0.60358 0.92609 0.51987
 O1762 O 0.62786 0.90190 0.52008
 C1763 C 0.62048 0.91884 0.52705
 C1764 C 0.63128 0.92987 0.54411
 C1765 C 0.65039 0.92255 0.55172
 H1766 H 0.65778 0.90916 0.54466
 O1767 O 0.39628 1.07570 0.51973
 O1768 O 0.37211 1.10000 0.51947
 C1769 C 0.37947 1.08320 0.52683
 C1770 C 0.36889 1.07277 0.54442
 C1771 C 0.35117 1.08170 0.55354
 H1772 H 0.34452 1.09581 0.54715
 Cu1773 Cu 0.49975 0.91389 0.58662
 Cu1774 Cu 0.49968 0.88468 0.61565
 Cu1775 Cu 0.49963 1.08737 0.58676
 Cu1776 Cu 0.49970 1.11653 0.61576
 Cu1777 Cu 0.41323 0.91364 0.49909
 Cu1778 Cu 0.38421 0.88452 0.49923
 Cu1779 Cu 0.58699 0.91406 0.49970
 Cu1780 Cu 0.61603 0.88491 0.50000
 Cu1781 Cu 0.41313 1.08736 0.49953
 Cu1782 Cu 0.38416 1.11657 0.49918
 Cu1783 Cu 0.58679 1.08712 0.49994
 Cu1784 Cu 0.61589 1.11614 0.49995
 Cu1785 Cu 0.41296 1.00087 0.58637
 Cu1786 Cu 0.38373 1.00067 0.61531
 Cu1787 Cu 0.58655 1.00063 0.58709
 Cu1788 Cu 0.61558 1.00049 0.61627
 C1789 C 0.55383 0.94635 0.62208
 H1790 H 0.54742 0.95287 0.60793
 C1791 C 0.57114 0.92873 0.65790
 C1792 C 0.44556 1.05472 0.62197
 H1793 H 0.45226 1.04808 0.60802
 C1794 C 0.42748 1.07267 0.65717
 C1795 C 0.37750 1.05476 0.55336
 H1796 H 0.39140 1.04802 0.54668
 C1797 C 0.34243 1.07295 0.57143
 C1798 C 0.62189 0.94707 0.55379
 H1799 H 0.60699 0.95260 0.54824
 C1800 C 0.65983 0.93211 0.56880
 C1801 C 0.55405 0.87900 0.55393
 H1802 H 0.54801 0.89351 0.54785
 C1803 C 0.57032 0.84216 0.57033
 C1804 C 0.44570 1.12270 0.55371
 H1805 H 0.45238 1.10874 0.54710
 C1806 C 0.42765 1.15796 0.57159
 C1807 C 0.44563 0.94667 0.62162
 H1808 H 0.45171 0.95274 0.60714
 C1809 C 0.42920 0.93029 0.65839
 C1810 C 0.55346 1.05439 0.62224
 H1811 H 0.54770 1.04862 0.60752
 C1812 C 0.56906 1.07001 0.65968
 C1813 C 0.44591 0.87865 0.55351
 H1814 H 0.45175 0.89331 0.54765
 C1815 C 0.43015 0.84136 0.56932
 C1816 C 0.55359 1.12237 0.55363
 H1817 H 0.54789 1.10759 0.54797
 C1818 C 0.56900 1.15998 0.56892
 C1819 C 0.37819 0.94673 0.55311
 H1820 H 0.39275 0.95270 0.54716
 C1821 C 0.34120 0.93062 0.56919
 C1822 C 0.62180 1.05485 0.55463
 H1823 H 0.60768 1.04840 0.54815
 C1824 C 0.65759 1.07222 0.57208
 O1825 O 0.57556 0.51972 1.10398
 O1826 O 0.59963 0.51971 1.12840
 C1827 C 0.58280 0.52685 1.12090
 C1828 C 0.57197 0.54416 1.13154
 C1829 C 0.58017 0.55267 1.14991
 H1830 H 0.59401 0.54609 1.15690
 O1831 O 0.42531 0.47926 1.10349
 O1832 O 0.40121 0.47912 1.12784
 C1833 C 0.41797 0.47193 1.12031
 C1834 C 0.42856 0.45435 1.13077
 C1835 C 0.41986 0.44536 1.14868
 H1836 H 0.40585 0.45179 1.15546
 O1837 O 0.52086 0.60326 1.07563
 O1838 O 0.52092 0.62730 1.10004
 C1839 C 0.52818 0.61994 1.08322
 C1840 C 0.54588 0.63037 1.07284
 C1841 C 0.55518 0.64792 1.08190
 H1842 H 0.54889 0.65451 1.09606
 O1843 O 0.48077 0.39586 1.07522
 O1844 O 0.48074 0.37164 1.09950
 C1845 C 0.47360 0.37902 1.08262
 C1846 C 0.45617 0.36840 1.07198
 C1847 C 0.44736 0.35039 1.08064
 H1848 H 0.45385 0.34360 1.09465
 O1849 O 0.60420 0.57472 1.02110
 O1850 O 0.62838 0.59897 1.02098
 C1851 C 0.62099 0.58219 1.02829
 C1852 C 0.63149 0.57177 1.04595
 C1853 C 0.64904 0.58082 1.05524
 H1854 H 0.65558 0.59501 1.04895
 O1855 O 0.39706 0.42430 1.02072
 O1856 O 0.37288 0.40006 1.02086
 C1857 C 0.38027 0.41691 1.02798
 C1858 C 0.36966 0.42758 1.04540
 C1859 C 0.35171 0.41896 1.05434
 H1860 H 0.34500 0.40488 1.04800
 O1861 O 0.48002 0.57482 1.10375
 O1862 O 0.47999 0.59889 1.12813
 C1863 C 0.47284 0.58210 1.12064
 C1864 C 0.45552 0.57131 1.13127
 C1865 C 0.44705 0.57945 1.14969
 H1866 H 0.45366 0.59326 1.15669
 O1867 O 0.52107 0.42447 1.10397
 O1868 O 0.52097 0.40027 1.12828
 C1869 C 0.52822 0.41705 1.12084
 C1870 C 0.54579 0.42752 1.13138
 C1871 C 0.55500 0.41850 1.14904
 H1872 H 0.54869 0.40435 1.15566
 O1873 O 0.60436 0.47938 1.07554
 O1874 O 0.62851 0.47937 1.09987
 C1875 C 0.62119 0.47221 1.08298
 C1876 C 0.63187 0.45482 1.07234
 C1877 C 0.64976 0.44583 1.08108
 H1878 H 0.65643 0.45216 1.09520
 O1879 O 0.39662 0.52014 1.07551
 O1880 O 0.37256 0.52002 1.09989
 C1881 C 0.37987 0.52734 1.08307
 C1882 C 0.36929 0.54497 1.07266
 C1883 C 0.35148 0.55398 1.08152
 H1884 H 0.34481 0.54753 1.09558
 O1885 O 0.42519 0.60349 1.02111
 O1886 O 0.40103 0.62781 1.02099
 C1887 C 0.41787 0.62039 1.02819
 C1888 C 0.42869 0.63111 1.04545
 C1889 C 0.42059 0.64955 1.05386
 H1890 H 0.40675 0.65655 1.04727
 O1891 O 0.57644 0.39624 1.02109
 O1892 O 0.60069 0.37202 1.02111
 C1893 C 0.58396 0.37950 1.02843
 C1894 C 0.57367 0.36915 1.04624
 C1895 C 0.58304 0.35193 1.05592
 H1896 H 0.59738 0.34553 1.04984
 O1897 O 0.42533 0.51990 1.10370
 O1898 O 0.40127 0.51975 1.12810
 C1899 C 0.41805 0.52698 1.12063
 C1900 C 0.42875 0.54432 1.13130
 C1901 C 0.42055 0.55272 1.14970
 H1902 H 0.40678 0.54602 1.15671
 O1903 O 0.57593 0.47910 1.10400
 O1904 O 0.60007 0.47907 1.12834
 C1905 C 0.58332 0.47184 1.12084
 C1906 C 0.57279 0.45427 1.13134
 C1907 C 0.58172 0.44498 1.14901
 H1908 H 0.59592 0.45119 1.15561
 O1909 O 0.52145 0.39604 1.07561
 O1910 O 0.52143 0.37187 1.09995
 C1911 C 0.52879 0.37934 1.08321
 C1912 C 0.54667 0.36904 1.07302
 C1913 C 0.55631 0.35182 1.08243
 H1914 H 0.55012 0.34535 1.09671
 O1915 O 0.48020 0.60352 1.07548
 O1916 O 0.48024 0.62764 1.09981
 C1917 C 0.47307 0.62036 1.08291
 C1918 C 0.45575 0.63112 1.07220
 C1919 C 0.44740 0.64957 1.08036
 H1920 H 0.45414 0.65658 1.09412
 O1921 O 0.39665 0.57520 1.02121
 O1922 O 0.37245 0.59947 1.02113
 C1923 C 0.37985 0.58265 1.02840
 C1924 C 0.36928 0.57206 1.04591
 C1925 C 0.35145 0.58079 1.05500
 H1926 H 0.34474 0.59491 1.04868
 O1927 O 0.60461 0.42484 1.02066
 O1928 O 0.62885 0.40061 1.02065
 C1929 C 0.62145 0.41745 1.02784
 C1930 C 0.63201 0.42804 1.04533
 C1931 C 0.64989 0.41931 1.05435
 H1932 H 0.65664 0.40527 1.04795
 O1933 O 0.48040 0.42436 1.10361
 O1934 O 0.48031 0.40014 1.12789
 C1935 C 0.47309 0.41693 1.12038
 C1936 C 0.45547 0.42745 1.13082
 C1937 C 0.44649 0.41873 1.14873
 H1938 H 0.45293 0.40472 1.15555
 O1939 O 0.52059 0.57460 1.10385
 O1940 O 0.52056 0.59863 1.12827
 C1941 C 0.52772 0.58182 1.12079
 C1942 C 0.54502 0.57102 1.13147
 C1943 C 0.55349 0.57926 1.14983
 H1944 H 0.54685 0.59310 1.15676
 O1945 O 0.39678 0.47946 1.07517
 O1946 O 0.37267 0.47933 1.09952
 C1947 C 0.38003 0.47219 1.08265
 C1948 C 0.36951 0.45467 1.07210
 C1949 C 0.35158 0.44576 1.08078
 H1950 H 0.34477 0.45225 1.09476
 O1951 O 0.60430 0.52002 1.07586
 O1952 O 0.62838 0.52006 1.10025
 C1953 C 0.62101 0.52730 1.08341
 C1954 C 0.63149 0.54494 1.07296
 C1955 C 0.64904 0.55426 1.08200
 H1956 H 0.65560 0.54804 1.09623
 O1957 O 0.42562 0.39593 1.02062
 O1958 O 0.40147 0.37166 1.02077
 C1959 C 0.41833 0.37908 1.02785
 C1960 C 0.42911 0.36846 1.04523
 C1961 C 0.42058 0.35044 1.05414
 H1962 H 0.40653 0.34368 1.04778
 O1963 O 0.57575 0.60310 1.02110
 O1964 O 0.59995 0.62733 1.02100
 C1965 C 0.58320 0.61989 1.02831
 C1966 C 0.57278 0.63035 1.04596
 C1967 C 0.58182 0.64790 1.05528
 H1968 H 0.59599 0.65449 1.04901
 Cu1969 Cu 0.58763 0.49956 1.08739
 Cu1970 Cu 0.61657 0.49955 1.11665
 Cu1971 Cu 0.41341 0.49972 1.08701
 Cu1972 Cu 0.38451 0.49954 1.11628
 Cu1973 Cu 0.50039 0.58666 1.08722
 Cu1974 Cu 0.50041 0.61554 1.11650
 Cu1975 Cu 0.50091 0.41261 1.08716
 Cu1976 Cu 0.50082 0.38355 1.11634
 C1977 C 0.55425 0.55332 1.12255
 H1978 H 0.54806 0.54711 1.10818
 C1979 C 0.57099 0.57017 1.15894
 C1980 C 0.44649 0.44538 1.12205
 H1981 H 0.45306 0.45198 1.10801
 C1982 C 0.42873 0.42760 1.15754
 C1983 C 0.55469 0.62182 1.05475
 H1984 H 0.54786 0.60805 1.04791
 C1985 C 0.57312 0.65656 1.07321
 C1986 C 0.44706 0.37719 1.05413
 H1987 H 0.45349 0.39132 1.04761
 C1988 C 0.42961 0.34152 1.07180
 C1989 C 0.62296 0.55369 1.05480
 H1990 H 0.60919 0.54685 1.04797
 C1991 C 0.65770 0.57217 1.07322
 C1992 C 0.37832 0.44558 1.05427
 H1993 H 0.39238 0.45210 1.04772
 C1994 C 0.34279 0.42796 1.07199
 C1995 C 0.44638 0.55360 1.12231
 H1996 H 0.45258 0.54745 1.10792
 C1997 C 0.42963 0.57023 1.15881
 C1998 C 0.55468 0.44553 1.12276
 H1999 H 0.54795 0.45233 1.10889
 C2000 C 0.57293 0.42712 1.15773
 C2001 C 0.62325 0.44594 1.05431
 H2002 H 0.60922 0.45251 1.04771
 C2003 C 0.65865 0.42812 1.07217
 C2004 C 0.37794 0.55401 1.05473
 H2005 H 0.39189 0.54739 1.04804
 C2006 C 0.34265 0.57184 1.07276
 C2007 C 0.44641 0.62214 1.05460
 H2008 H 0.45253 0.60772 1.04844
 C2009 C 0.42988 0.65870 1.07126
 C2010 C 0.55537 0.37748 1.05481
 H2011 H 0.54829 0.39101 1.04769
 C2012 C 0.57447 0.34340 1.07399
 O2013 O 0.57547 0.47932 0.89723
 O2014 O 0.59938 0.47948 0.87269
 C2015 C 0.58258 0.47234 0.88019
 C2016 C 0.57149 0.45537 0.86932
 C2017 C 0.57874 0.44788 0.85013
 H2018 H 0.59214 0.45493 0.84276
 O2019 O 0.42519 0.51978 0.89729
 O2020 O 0.40099 0.51992 0.87300
 C2021 C 0.41785 0.52700 0.88042
 C2022 C 0.42863 0.54431 0.86975
 C2023 C 0.42072 0.55247 0.85108
 H2024 H 0.40711 0.54563 0.84390
 O2025 O 0.48006 0.60334 0.92586
 O2026 O 0.48009 0.62760 0.90160
 C2027 C 0.47299 0.62027 0.91852
 C2028 C 0.45590 0.63113 0.92944
 C2029 C 0.44822 0.65015 0.92192
 H2030 H 0.45524 0.65744 0.90844
 O2031 O 0.52078 0.39621 0.92566
 O2032 O 0.52099 0.37208 0.90135
 C2033 C 0.52808 0.37945 0.91824
 C2034 C 0.54547 0.36882 0.92899
 C2035 C 0.55395 0.35045 0.92078
 H2036 H 0.54732 0.34348 0.90695
 O2037 O 0.60462 0.42437 0.97999
 O2038 O 0.62878 0.40007 0.97993
 C2039 C 0.62135 0.41687 0.97268
 C2040 C 0.63179 0.42734 0.95502
 C2041 C 0.64949 0.41848 0.94580
 H2042 H 0.65619 0.40435 0.95212
 O2043 O 0.39685 0.57492 0.98057
 O2044 O 0.37259 0.59914 0.98041
 C2045 C 0.37999 0.58224 0.97335
 C2046 C 0.36929 0.57134 0.95613
 C2047 C 0.35053 0.57909 0.94806
 H2048 H 0.34333 0.59272 0.95486
 O2049 O 0.52031 0.57457 0.89735
 O2050 O 0.52024 0.59865 0.87292
 C2051 C 0.52735 0.58178 0.88036
 C2052 C 0.54439 0.57076 0.86952
 C2053 C 0.55190 0.57812 0.85038
 H2054 H 0.54479 0.59152 0.84301
 O2055 O 0.47984 0.42441 0.89731
 O2056 O 0.47992 0.40021 0.87305
 C2057 C 0.47257 0.41693 0.88054
 C2058 C 0.45481 0.42728 0.87015
 C2059 C 0.44540 0.41814 0.85270
 H2060 H 0.45165 0.40394 0.84615
 O2061 O 0.60409 0.51976 0.92563
 O2062 O 0.62808 0.51996 0.90117
 C2063 C 0.62080 0.52706 0.91810
 C2064 C 0.63140 0.54450 0.92873
 C2065 C 0.64942 0.55335 0.92017
 H2066 H 0.65623 0.54691 0.90617
 O2067 O 0.39660 0.47924 0.92568
 O2068 O 0.37235 0.47940 0.90144
 C2069 C 0.37978 0.47210 0.91824
 C2070 C 0.36925 0.45454 0.92873
 C2071 C 0.35143 0.44553 0.91992
 H2072 H 0.34471 0.45198 0.90586
 O2073 O 0.57560 0.60305 0.98040
 O2074 O 0.59978 0.62730 0.98028
 C2075 C 0.58296 0.61986 0.97313
 C2076 C 0.57232 0.63042 0.95562
 C2077 C 0.58089 0.64843 0.94673
 H2078 H 0.59487 0.65523 0.95319
 O2079 O 0.42531 0.39585 0.97998
 O2080 O 0.40115 0.37159 0.98009
 C2081 C 0.41792 0.37902 0.97281
 C2082 C 0.42846 0.36848 0.95529
 C2083 C 0.41961 0.35077 0.94609
 H2084 H 0.40545 0.34414 0.95235
 O2085 O 0.42503 0.47912 0.89733
 O2086 O 0.40077 0.47922 0.87311
 C2087 C 0.41753 0.47188 0.88056
 C2088 C 0.42789 0.45416 0.87014
 C2089 C 0.41874 0.44475 0.85269
 H2090 H 0.40452 0.45098 0.84613
 O2091 O 0.57545 0.51981 0.89733
 O2092 O 0.59938 0.51995 0.87281
 C2093 C 0.58254 0.52697 0.88034
 C2094 C 0.57141 0.54399 0.86955
 C2095 C 0.57865 0.55159 0.85039
 H2096 H 0.59209 0.54461 0.84302
 O2097 O 0.48015 0.39583 0.92554
 O2098 O 0.48034 0.37164 0.90127
 C2099 C 0.47304 0.37901 0.91807
 C2100 C 0.45548 0.36844 0.92852
 C2101 C 0.44635 0.35075 0.91958
 H2102 H 0.45272 0.34412 0.90546
 O2103 O 0.52065 0.60312 0.92565
 O2104 O 0.52072 0.62725 0.90127
 C2105 C 0.52793 0.61986 0.91813
 C2106 C 0.54544 0.63040 0.92869
 C2107 C 0.55429 0.64842 0.92006
 H2108 H 0.54782 0.65522 0.90604
 O2109 O 0.39685 0.42427 0.98008
 O2110 O 0.37268 0.40001 0.98018
 C2111 C 0.38002 0.41684 0.97294
 C2112 C 0.36938 0.42746 0.95548
 C2113 C 0.35155 0.41871 0.94641
 H2114 H 0.34491 0.40456 0.95270
 O2115 O 0.60404 0.57459 0.98041
 O2116 O 0.62824 0.59881 0.98029
 C2117 C 0.62083 0.58198 0.97315
 C2118 C 0.63140 0.57135 0.95568
 C2119 C 0.64942 0.57992 0.94685
 H2120 H 0.65622 0.59389 0.95333
 O2121 O 0.52045 0.42468 0.89709
 O2122 O 0.52054 0.40061 0.87271
 C2123 C 0.52754 0.41750 0.88012
 C2124 C 0.54455 0.42857 0.86927
 C2125 C 0.55204 0.42133 0.85009
 H2126 H 0.54494 0.40797 0.84269
 O2127 O 0.47977 0.57483 0.89746
 O2128 O 0.47970 0.59902 0.87313
 C2129 C 0.47258 0.58218 0.88058
 C2130 C 0.45534 0.57135 0.86986
 C2131 C 0.44717 0.57926 0.85118
 H2132 H 0.45389 0.59297 0.84408
 O2133 O 0.39682 0.51985 0.92584
 O2134 O 0.37257 0.52002 0.90161
 C2135 C 0.37998 0.52709 0.91850
 C2136 C 0.36929 0.54436 0.92932
 C2137 C 0.35054 0.55238 0.92151
 H2138 H 0.34335 0.54549 0.90792
 O2139 O 0.60430 0.47908 0.92531
 O2140 O 0.62826 0.47919 0.90082
 C2141 C 0.62102 0.47188 0.91768
 C2142 C 0.63164 0.45427 0.92810
 C2143 C 0.64936 0.44516 0.91915
 H2144 H 0.65595 0.45152 0.90501
 O2145 O 0.57585 0.39629 0.98039
 O2146 O 0.60000 0.37197 0.98039
 C2147 C 0.58314 0.37940 0.97325
 C2148 C 0.57235 0.36876 0.95593
 C2149 C 0.58056 0.35040 0.94746
 H2150 H 0.59438 0.34340 0.95410
 O2151 O 0.42519 0.60346 0.98054
 O2152 O 0.40103 0.62778 0.98038
 C2153 C 0.41792 0.62037 0.97335
 C2154 C 0.42893 0.63115 0.95625
 C2155 C 0.42150 0.65018 0.94848
 H2156 H 0.40801 0.65750 0.95542
 Cu2157 Cu 0.58746 0.49948 0.91386
 Cu2158 Cu 0.61623 0.49967 0.88446
 Cu2159 Cu 0.41335 0.49951 0.91396
 Cu2160 Cu 0.38425 0.49970 0.88484
 Cu2161 Cu 0.58747 0.58644 1.00075
 Cu2162 Cu 0.61651 0.61554 1.00060
 Cu2163 Cu 0.58796 0.41287 1.00052
 Cu2164 Cu 0.61700 0.38373 1.00050
 Cu2165 Cu 0.41338 0.58683 1.00086
 Cu2166 Cu 0.38433 0.61597 1.00068
 Cu2167 Cu 0.41363 0.41252 1.00034
 Cu2168 Cu 0.38462 0.38339 1.00051
 Cu2169 Cu 0.50019 0.58655 0.91403
 Cu2170 Cu 0.50018 0.61557 0.88480
 Cu2171 Cu 0.50033 0.41270 0.91384
 Cu2172 Cu 0.50052 0.38371 0.88466
 C2173 C 0.55424 0.44574 0.87866
 H2174 H 0.54877 0.45121 0.89361
 C2175 C 0.56904 0.43095 0.84058
 C2176 C 0.44608 0.55373 0.87891
 H2177 H 0.45205 0.54775 0.89349
 C2178 C 0.42993 0.56987 0.84187
 C2179 C 0.44628 0.62187 0.94676
 H2180 H 0.45189 0.60704 0.95244
 C2181 C 0.43111 0.65961 0.93141
 C2182 C 0.55466 0.37774 0.94671
 H2183 H 0.54846 0.39211 0.95291
 C2184 C 0.57143 0.34134 0.92995
 C2185 C 0.62312 0.44537 0.94617
 H2186 H 0.60925 0.45207 0.95294
 C2187 C 0.65818 0.42730 0.92792
 C2188 C 0.37844 0.55383 0.94678
 H2189 H 0.39308 0.54796 0.95268
 C2190 C 0.34124 0.56966 0.93082
 C2191 C 0.55412 0.55355 0.87889
 H2192 H 0.54864 0.54799 0.89381
 C2193 C 0.56894 0.56857 0.84087
 C2194 C 0.44604 0.44541 0.87865
 H2195 H 0.45296 0.45232 0.89235
 C2196 C 0.42739 0.42677 0.84409
 C2197 C 0.62262 0.55350 0.94663
 H2198 H 0.60850 0.54704 0.95310
 C2199 C 0.65832 0.57101 0.92916
 C2200 C 0.37797 0.44552 0.94665
 H2201 H 0.39195 0.45212 0.95329
 C2202 C 0.34270 0.42766 0.92866
 C2203 C 0.55446 0.62164 0.94661
 H2204 H 0.54798 0.60754 0.95313
 C2205 C 0.57196 0.65732 0.92901
 C2206 C 0.44654 0.37706 0.94651
 H2207 H 0.45322 0.39095 0.95325
 C2208 C 0.42846 0.34202 0.92827
 C2209 C 1.10032 1.10127 1.20708
 C2210 C 1.10347 1.09096 1.22628
 C2211 C 1.11391 1.10131 1.24276
 C2212 C 1.12115 1.12190 1.23994
 C2213 C 1.11801 1.13221 1.22072
 C2214 C 1.10751 1.12188 1.20426
 C2215 C 1.10444 1.13254 1.18523
 C2216 C 1.11157 1.15280 1.18253
 C2217 C 1.12195 1.16285 1.19857
 C2218 C 1.12516 1.15276 1.21750
 C2219 C 1.11689 1.09067 1.26182
 C2220 C 1.10976 1.07040 1.26450
 C2221 C 1.09955 1.06030 1.24838
 C2222 C 1.09640 1.07038 1.22945
 C2223 C 1.13172 1.13245 1.25686
 C2224 C 1.14043 1.14100 1.27108
 C2225 C 1.08988 1.09064 1.19014
 C2226 C 1.08139 1.08197 1.17588
 H2227 H 1.09648 1.12538 1.17227
 H2228 H 1.10899 1.16075 1.16791
 H2229 H 1.12751 1.17857 1.19636
 H2230 H 1.13327 1.16123 1.22954
 H2231 H 1.12475 1.09786 1.27482
 H2232 H 1.11218 1.06250 1.27918
 H2233 H 1.09404 1.04456 1.25055
 H2234 H 1.08837 1.06188 1.21738
 C2235 C 1.09236 0.59329 0.71402
 C2236 C 1.10760 0.58213 0.72534
 C2237 C 1.11677 0.59112 0.74331
 C2238 C 1.11063 0.61121 0.74986
 C2239 C 1.09520 0.62225 0.73869
 C2240 C 1.08603 0.61327 0.72072
 C2241 C 1.07068 0.62463 0.70977
 C2242 C 1.06455 0.64431 0.71640
 C2243 C 1.07352 0.65310 0.73397
 C2244 C 1.08868 0.64228 0.74504
 C2245 C 1.13203 0.57970 0.75433
 C2246 C 1.13804 0.55995 0.74779
 C2247 C 1.12907 0.55116 0.73022
 C2248 C 1.11402 0.56206 0.71905
 C2249 C 1.12035 0.62059 0.76794
 C2250 C 1.12847 0.62846 0.78287
 C2251 C 1.08355 0.58444 0.69524
 C2252 C 1.07645 0.57727 0.67945
 H2253 H 1.06323 0.61844 0.69602
 H2254 H 1.05278 0.65278 0.70785
 H2255 H 1.06871 0.66839 0.73905
 H2256 H 1.09520 0.64977 0.75862
 H2257 H 1.13945 0.58588 0.76809
 H2258 H 1.14972 0.55143 0.75641
 H2259 H 1.13378 0.53582 0.72521
 H2260 H 1.10749 0.55456 0.70549
 C2261 C 0.59481 1.09559 0.71194
 C2262 C 0.61144 1.08539 0.72216
 C2263 C 0.62119 1.09490 0.73955
 C2264 C 0.61425 1.11455 0.74661
 C2265 C 0.59745 1.12462 0.73656
 C2266 C 0.58770 1.11511 0.71917
 C2267 C 0.57099 1.12551 0.70932
 C2268 C 0.56409 1.14475 0.71646
 C2269 C 0.57362 1.15405 0.73346
 C2270 C 0.59012 1.14418 0.74345
 C2271 C 0.63782 1.08445 0.74947
 C2272 C 0.64463 1.06515 0.74242
 C2273 C 0.63510 1.05585 0.72541
 C2274 C 0.61870 1.06579 0.71533
 C2275 C 0.62454 1.12451 0.76405
 C2276 C 0.63313 1.13285 0.77845
 C2277 C 0.58539 1.08626 0.69369
 C2278 C 0.57779 1.07872 0.67832
 H2279 H 0.56306 1.11890 0.69604
 H2280 H 0.55128 1.15249 0.70875
 H2281 H 0.56820 1.16900 0.73895
 H2282 H 0.59702 1.15203 0.75662
 H2283 H 0.64572 1.09105 0.76277
 H2284 H 0.65737 1.05737 0.75020
 H2285 H 0.64045 1.04085 0.72000
 H2286 H 0.61177 1.05792 0.70218
 C2287 C 0.59826 0.59828 1.20905
 C2288 C 0.60040 0.58767 1.22822
 C2289 C 0.61019 0.59766 1.24531
 C2290 C 0.61777 0.61820 1.24312
 C2291 C 0.61564 0.62881 1.22393
 C2292 C 0.60581 0.61883 1.20685
 C2293 C 0.60375 0.62978 1.18785
 C2294 C 0.61123 0.64999 1.18577
 C2295 C 0.62094 0.65971 1.20243
 C2296 C 0.62314 0.64932 1.22134
 C2297 C 0.61216 0.58673 1.26434
 C2298 C 0.60468 0.56652 1.26641
 C2299 C 0.59511 0.55676 1.24969
 C2300 C 0.59296 0.56714 1.23078
 C2301 C 0.62773 0.62836 1.26062
 C2302 C 0.63595 0.63656 1.27531
 C2303 C 0.58842 0.58804 1.19154
 C2304 C 0.58038 0.57971 1.17682
 H2305 H 0.59634 0.62288 1.17443
 H2306 H 0.60945 0.65816 1.17116
 H2307 H 0.62675 0.67540 1.20071
 H2308 H 0.63077 0.65753 1.23387
 H2309 H 0.61949 0.59365 1.27779
 H2310 H 0.60631 0.55840 1.28107
 H2311 H 0.58933 0.54106 1.25138
 H2312 H 0.58540 0.55889 1.21823
 C2313 C 0.89560 0.89600 1.20309
 C2314 C 0.88012 0.88125 1.19793
 C2315 C 0.86926 0.87060 1.21398
 C2316 C 0.87395 0.87477 1.23508
 C2317 C 0.88942 0.88954 1.24023
 C2318 C 0.90027 0.90018 1.22419
 C2319 C 0.91567 0.91486 1.22973
 C2320 C 0.92022 0.91893 1.25051
 C2321 C 0.90961 0.90853 1.26619
 C2322 C 0.89438 0.89399 1.26121
 C2323 C 0.85386 0.85593 1.20844
 C2324 C 0.84930 0.85189 1.18764
 C2325 C 0.85991 0.86229 1.17196
 C2326 C 0.87516 0.87682 1.17695
 C2327 C 0.86298 0.86388 1.25155
 C2328 C 0.85417 0.85504 1.26555
 C2329 C 0.90670 0.90691 1.18674
 C2330 C 0.91587 0.91596 1.17312
 H2331 H 0.92435 0.92334 1.21809
 H2332 H 0.93203 0.93021 1.25446
 H2333 H 0.91320 0.91174 1.28232
 H2334 H 0.88657 0.88632 1.27397
 H2335 H 0.84520 0.84745 1.22009
 H2336 H 0.83748 0.84062 1.18367
 H2337 H 0.85631 0.85910 1.15584
 H2338 H 0.88299 0.88451 1.16421
 C2339 C 0.89615 0.39665 0.70385
 C2340 C 0.88077 0.38173 0.69884
 C2341 C 0.87002 0.37113 0.71500
 C2342 C 0.87467 0.37555 0.73606
 C2343 C 0.89005 0.39047 0.74105
 C2344 C 0.90081 0.40104 0.72491
 C2345 C 0.91611 0.41588 0.73029
 C2346 C 0.92065 0.42016 0.75103
 C2347 C 0.91013 0.40984 0.76682
 C2348 C 0.89499 0.39515 0.76198
 C2349 C 0.85476 0.35627 0.70960
 C2350 C 0.85021 0.35201 0.68885
 C2351 C 0.86068 0.36239 0.67307
 C2352 C 0.87581 0.37709 0.67791
 C2353 C 0.86373 0.36477 0.75264
 C2354 C 0.85488 0.35600 0.76666
 C2355 C 0.90715 0.40748 0.68736
 C2356 C 0.91620 0.41641 0.67359
 H2357 H 0.92472 0.42431 0.71856
 H2358 H 0.93240 0.43156 0.75487
 H2359 H 0.91371 0.41322 0.78291
 H2360 H 0.88725 0.38754 0.77482
 H2361 H 0.84619 0.34780 0.72134
 H2362 H 0.83851 0.34057 0.68499
 H2363 H 0.85712 0.35900 0.65697
 H2364 H 0.88357 0.38472 0.66508
 C2365 C 0.40261 0.90401 0.70991
 C2366 C 0.38080 0.90126 0.71053
 C2367 C 0.37139 0.89181 0.72816
 C2368 C 0.38386 0.88526 0.74510
 C2369 C 0.40568 0.88798 0.74446
 C2370 C 0.41508 0.89738 0.72681
 C2371 C 0.43691 0.89993 0.72651
 C2372 C 0.44912 0.89336 0.74317
 C2373 C 0.43993 0.88416 0.76043
 C2374 C 0.41847 0.88146 0.76115
 C2375 C 0.34957 0.88914 0.72838
 C2376 C 0.33738 0.89566 0.71168
 C2377 C 0.34656 0.90498 0.69449
 C2378 C 0.36801 0.90776 0.69382
 C2379 C 0.37427 0.87582 0.76323
 C2380 C 0.36647 0.86801 0.77838
 C2381 C 0.41222 0.91349 0.69183
 C2382 C 0.42008 0.92124 0.67669
 H2383 H 0.44478 0.90700 0.71343
 H2384 H 0.46580 0.89542 0.74268
 H2385 H 0.44948 0.87907 0.77333
 H2386 H 0.41206 0.87420 0.77490
 H2387 H 0.34172 0.88200 0.74143
 H2388 H 0.32071 0.89350 0.71210
 H2389 H 0.33702 0.91011 0.68160
 H2390 H 0.37443 0.91507 0.68009
 C2391 C 0.39992 0.39963 1.20693
 C2392 C 0.38364 0.38529 1.20331
 C2393 C 0.37342 0.37570 1.22039
 C2394 C 0.37957 0.38048 1.24098
 C2395 C 0.39584 0.39484 1.24459
 C2396 C 0.40605 0.40442 1.22751
 C2397 C 0.42230 0.41869 1.23150
 C2398 C 0.42828 0.42336 1.25179
 C2399 C 0.41828 0.41400 1.26849
 C2400 C 0.40224 0.39989 1.26503
 C2401 C 0.35717 0.36144 1.21640
 C2402 C 0.35119 0.35679 1.19610
 C2403 C 0.36119 0.36615 1.17940
 C2404 C 0.37724 0.38024 1.18286
 C2405 C 0.36932 0.37058 1.25849
 C2406 C 0.36112 0.36246 1.27326
 C2407 C 0.41030 0.40953 1.18951
 C2408 C 0.41883 0.41779 1.17502
 H2409 H 0.43055 0.42637 1.21902
 H2410 H 0.44073 0.43430 1.25455
 H2411 H 0.42298 0.41768 1.28423
 H2412 H 0.39494 0.39303 1.27855
 H2413 H 0.34893 0.35376 1.22889
 H2414 H 0.33872 0.34586 1.19331
 H2415 H 0.35648 0.36248 1.16367
 H2416 H 0.38456 0.38711 1.16936
 C2417 C 0.89673 1.10352 0.79633
 C2418 C 0.90217 1.09958 0.77538
 C2419 C 0.89161 1.11010 0.75905
 C2420 C 0.87566 1.12452 0.76377
 C2421 C 0.87024 1.12849 0.78473
 C2422 C 0.88079 1.11795 0.80106
 C2423 C 0.87508 1.12216 0.82189
 C2424 C 0.85940 1.13637 0.82646
 C2425 C 0.84909 1.14669 0.81050
 C2426 C 0.85438 1.14286 0.78984
 C2427 C 0.89733 1.10588 0.73822
 C2428 C 0.91303 1.09169 0.73366
 C2429 C 0.92336 1.08141 0.74963
 C2430 C 0.91807 1.08525 0.77028
 C2431 C 0.86489 1.13519 0.74701
 C2432 C 0.85619 1.14384 0.73281
 C2433 C 0.90752 1.09273 0.81299
 C2434 C 0.91643 1.08384 0.82689
 H2435 H 0.88266 1.11454 0.83485
 H2436 H 0.85525 1.13943 0.84248
 H2437 H 0.83693 1.15773 0.81414
 H2438 H 0.84593 1.15126 0.77795
 H2439 H 0.88976 1.11347 0.72525
 H2440 H 0.91720 1.08865 0.71765
 H2441 H 0.93556 1.07041 0.74601
 H2442 H 0.92655 1.07687 0.78215
 C2443 C 0.89798 0.60270 0.29519
 C2444 C 0.88709 0.62122 0.30000
 C2445 C 0.87635 0.63217 0.28407
 C2446 C 0.87646 0.62447 0.26345
 C2447 C 0.88733 0.60594 0.25865
 C2448 C 0.89814 0.59504 0.27457
 C2449 C 0.90891 0.57657 0.26941
 C2450 C 0.90898 0.56906 0.24910
 C2451 C 0.89840 0.57970 0.23353
 C2452 C 0.88768 0.59794 0.23816
 C2453 C 0.86566 0.65069 0.28923
 C2454 C 0.86547 0.65811 0.30958
 C2455 C 0.87584 0.64732 0.32518
 C2456 C 0.88662 0.62913 0.32053
 C2457 C 0.86536 0.63552 0.24717
 C2458 C 0.85624 0.64455 0.23348
 C2459 C 0.90892 0.59153 0.31149
 C2460 C 0.91786 0.58246 0.32525
 H2461 H 0.91736 0.56774 0.28098
 H2462 H 0.91728 0.55490 0.24542
 H2463 H 0.89850 0.57380 0.21778
 H2464 H 0.87970 0.60566 0.22551
 H2465 H 0.85733 0.65960 0.27763
 H2466 H 0.85722 0.67230 0.31327
 H2467 H 0.87559 0.65311 0.34098
 H2468 H 0.89452 0.62135 0.33319
 C2469 C 0.39910 1.10064 0.29322
 C2470 C 0.40769 1.10089 0.27297
 C2471 C 0.39697 1.11111 0.25655
 C2472 C 0.37770 1.12097 0.26048
 C2473 C 0.36906 1.12064 0.28073
 C2474 C 0.37982 1.11049 0.29716
 C2475 C 0.37096 1.11050 0.31730
 C2476 C 0.35201 1.12024 0.32110
 C2477 C 0.34140 1.13003 0.30501
 C2478 C 0.34977 1.13031 0.28502
 C2479 C 0.40590 1.11119 0.23644
 C2480 C 0.42486 1.10144 0.23265
 C2481 C 0.43533 1.09144 0.24871
 C2482 C 0.42692 1.09113 0.26867
 C2483 C 0.36686 1.13155 0.24373
 C2484 C 0.35805 1.14035 0.22971
 C2485 C 0.41005 1.09029 0.31002
 C2486 C 0.41886 1.08181 0.32423
 H2487 H 0.37857 1.10303 0.33033
 H2488 H 0.34551 1.12017 0.33662
 H2489 H 0.32664 1.13749 0.30803
 H2490 H 0.34098 1.13817 0.27302
 H2491 H 0.39835 1.11877 0.22344
 H2492 H 0.43145 1.10164 0.21717
 H2493 H 0.45005 1.08388 0.24569
 H2494 H 0.43565 1.08316 0.28066
 C2495 C 0.40348 0.59574 0.79002
 C2496 C 0.41483 0.59760 0.77126
 C2497 C 0.40541 0.60685 0.75352
 C2498 C 0.38469 0.61417 0.75464
 C2499 C 0.37332 0.61227 0.77339
 C2500 C 0.38275 0.60304 0.79113
 C2501 C 0.37110 0.60137 0.80973
 C2502 C 0.35072 0.60861 0.81076
 C2503 C 0.34149 0.61758 0.79340
 C2504 C 0.35258 0.61944 0.77488
 C2505 C 0.41709 0.60857 0.73495
 C2506 C 0.43748 0.60135 0.73394
 C2507 C 0.44668 0.59230 0.75129
 C2508 C 0.43556 0.59042 0.76978
 C2509 C 0.37513 0.62371 0.73653
 C2510 C 0.36727 0.63163 0.72145
 C2511 C 0.41311 0.58642 0.80819
 C2512 C 0.42093 0.57879 0.82343
 H2513 H 0.37759 0.59448 0.82365
 H2514 H 0.34206 0.60726 0.82512
 H2515 H 0.32564 0.62317 0.79428
 H2516 H 0.34473 0.62655 0.76180
 H2517 H 0.41062 0.61548 0.72104
 H2518 H 0.44618 0.60278 0.71962
 H2519 H 0.46252 0.58672 0.75043
 H2520 H 0.44339 0.58327 0.78287
 C2521 C 1.09302 0.90681 0.78746
 C2522 C 1.08766 0.88626 0.78175
 C2523 C 1.09676 0.87709 0.76383
 C2524 C 1.11115 0.88853 0.75175
 C2525 C 1.11631 0.90917 0.75733
 C2526 C 1.10722 0.91834 0.77524
 C2527 C 1.11267 0.93897 0.78056
 C2528 C 1.12669 0.95023 0.76849
 C2529 C 1.13558 0.94127 0.75097
 C2530 C 1.13052 0.92098 0.74538
 C2531 C 1.09122 0.85650 0.75847
 C2532 C 1.07710 0.84529 0.77045
 C2533 C 1.06820 0.85426 0.78797
 C2534 C 1.07337 0.87450 0.79363
 C2535 C 1.12084 0.87897 0.73377
 C2536 C 1.12896 0.87095 0.71892
 C2537 C 1.08428 0.91589 0.80616
 C2538 C 1.07719 0.92317 0.82188
 H2539 H 1.10615 0.94661 0.79404
 H2540 H 1.13067 0.96600 0.77277
 H2541 H 1.14646 0.95008 0.74166
 H2542 H 1.13784 0.91468 0.73161
 H2543 H 1.09771 0.84886 0.74497
 H2544 H 1.07303 0.82956 0.76612
 H2545 H 1.05724 0.84549 0.79723
 H2546 H 1.06602 0.88080 0.80738
 C2547 C 1.09835 0.40272 0.29033
 C2548 C 1.09050 0.38370 0.28259
 C2549 C 1.10085 0.37345 0.26599
 C2550 C 1.11898 0.38230 0.25723
 C2551 C 1.12667 0.40147 0.26480
 C2552 C 1.11632 0.41171 0.28140
 C2553 C 1.12434 0.43081 0.28876
 C2554 C 1.14206 0.43956 0.27995
 C2555 C 1.15218 0.42955 0.26371
 C2556 C 1.14465 0.41071 0.25616
 C2557 C 1.09276 0.35441 0.25856
 C2558 C 1.07494 0.34574 0.26728
 C2559 C 1.06483 0.35575 0.28352
 C2560 C 1.07245 0.37451 0.29116
 C2561 C 1.12983 0.37160 0.24060
 C2562 C 1.13884 0.36265 0.22684
 C2563 C 1.08830 0.41272 0.30786
 C2564 C 1.08023 0.42078 0.32271
 H2565 H 1.11700 0.43919 0.30135
 H2566 H 1.14798 0.45418 0.28576
 H2567 H 1.16595 0.43641 0.25692
 H2568 H 1.15307 0.40351 0.24352
 H2569 H 1.10009 0.34603 0.24596
 H2570 H 1.06896 0.33117 0.26140
 H2571 H 1.05100 0.34895 0.29024
 H2572 H 1.06403 0.38172 0.30380
 C2573 C 0.59830 0.90179 0.29066
 C2574 C 0.59265 0.88118 0.28547
 C2575 C 0.60300 0.87072 0.26900
 C2576 C 0.61895 0.88095 0.25781
 C2577 C 0.62446 0.90164 0.26287
 C2578 C 0.61410 0.91209 0.27934
 C2579 C 0.61992 0.93273 0.28416
 C2580 C 0.63552 0.94278 0.27301
 C2581 C 0.64565 0.93256 0.25691
 C2582 C 0.64025 0.91223 0.25182
 C2583 C 0.59713 0.85010 0.26414
 C2584 C 0.58148 0.84008 0.27525
 C2585 C 0.57135 0.85030 0.29135
 C2586 C 0.57681 0.87061 0.29647
 C2587 C 0.62978 0.87014 0.24123
 C2588 C 0.63879 0.86115 0.22748
 C2589 C 0.58825 0.91216 0.30798
 C2590 C 0.58009 0.92049 0.32263
 H2591 H 0.61248 0.94133 0.29655
 H2592 H 0.63978 0.95857 0.27690
 H2593 H 0.65776 0.94044 0.24830
 H2594 H 0.64857 0.90494 0.23916
 H2595 H 0.60455 0.84151 0.25174
 H2596 H 0.57718 0.82431 0.27132
 H2597 H 0.55920 0.84245 0.29993
 H2598 H 0.56846 0.87791 0.30911
 C2599 C 0.59294 0.40679 0.78679
 C2600 C 0.58750 0.38634 0.78078
 C2601 C 0.59649 0.37742 0.76269
 C2602 C 0.61086 0.38900 0.75071
 C2603 C 0.61612 0.40953 0.75659
 C2604 C 0.60713 0.41845 0.77469
 C2605 C 0.61267 0.43897 0.78029
 C2606 C 0.62669 0.45037 0.76835
 C2607 C 0.63549 0.44164 0.75067
 C2608 C 0.63033 0.42146 0.74478
 C2609 C 0.59086 0.35693 0.75703
 C2610 C 0.57674 0.34559 0.76889
 C2611 C 0.56794 0.35431 0.78658
 C2612 C 0.57321 0.37444 0.79254
 C2613 C 0.62039 0.37970 0.73250
 C2614 C 0.62835 0.37186 0.71747
 C2615 C 0.58426 0.41563 0.80564
 C2616 C 0.57722 0.42275 0.82146
 H2617 H 0.60623 0.44644 0.79391
 H2618 H 0.63074 0.46605 0.77285
 H2619 H 0.64638 0.45055 0.74145
 H2620 H 0.63758 0.41535 0.73090
 H2621 H 0.59729 0.34947 0.74340
 H2622 H 0.57261 0.32994 0.76433
 H2623 H 0.55698 0.34544 0.79573
 H2624 H 0.56594 0.38055 0.80641
 C2625 C 1.20577 1.10176 1.10099
 C2626 C 1.20326 1.12289 1.10663
 C2627 C 1.21953 1.13348 1.11714
 C2628 C 1.23825 1.12290 1.12185
 C2629 C 1.24077 1.10179 1.11618
 C2630 C 1.22447 1.09119 1.10573
 C2631 C 1.22732 1.07008 1.10024
 C2632 C 1.24576 1.05974 1.10494
 C2633 C 1.26171 1.07010 1.11516
 C2634 C 1.25933 1.09088 1.12075
 C2635 C 1.21661 1.15455 1.12274
 C2636 C 1.19816 1.16488 1.11802
 C2637 C 1.18231 1.15457 1.10761
 C2638 C 1.18473 1.13381 1.10198
 C2639 C 1.25498 1.13370 1.13244
 C2640 C 1.26906 1.14242 1.14117
 C2641 C 1.18902 1.09090 1.09052
 C2642 C 1.17489 1.08208 1.08198
 H2643 H 1.21537 1.06136 1.09228
 H2644 H 1.24769 1.04360 1.10063
 H2645 H 1.27600 1.06200 1.11878
 H2646 H 1.27217 1.09826 1.12869
 H2647 H 1.22853 1.16324 1.13080
 H2648 H 1.19617 1.18099 1.12242
 H2649 H 1.16807 1.16270 1.10385
 H2650 H 1.17194 1.12646 1.09392
 C2651 C 1.21013 0.59677 0.59647
 C2652 C 1.22598 0.58415 0.60507
 C2653 C 1.24370 0.59352 0.61433
 C2654 C 1.24543 0.61545 0.61496
 C2655 C 1.22955 0.62806 0.60638
 C2656 C 1.21186 0.61869 0.59708
 C2657 C 1.19621 0.63162 0.58855
 C2658 C 1.19798 0.65319 0.58922
 C2659 C 1.21525 0.66235 0.59837
 C2660 C 1.23091 0.65001 0.60686
 C2661 C 1.25935 0.58058 0.62282
 C2662 C 1.25755 0.55902 0.62220
 C2663 C 1.24022 0.54986 0.61315
 C2664 C 1.22457 0.56220 0.60466
 C2665 C 1.26353 0.62499 0.62442
 C2666 C 1.27862 0.63281 0.63228
 C2667 C 1.19195 0.58722 0.58717
 C2668 C 1.17673 0.57943 0.57956
 H2669 H 1.18247 0.62523 0.58128
 H2670 H 1.18590 0.66284 0.58258
 H2671 H 1.21653 0.67912 0.59888
 H2672 H 1.24406 0.65786 0.61378
 H2673 H 1.27313 0.58697 0.63003
 H2674 H 1.26967 0.54936 0.62878
 H2675 H 1.23890 0.53310 0.61271
 H2676 H 1.21139 0.55436 0.59779
 C2677 C 0.70662 1.10099 0.60065
 C2678 C 0.72120 1.08939 0.61239
 C2679 C 0.73762 1.09975 0.62291
 C2680 C 0.73936 1.12166 0.62164
 C2681 C 0.72482 1.13325 0.60983
 C2682 C 0.70841 1.12288 0.59929
 C2683 C 0.69406 1.13480 0.58760
 C2684 C 0.69584 1.15634 0.58637
 C2685 C 0.71186 1.16648 0.59670
 C2686 C 0.72623 1.15515 0.60830
 C2687 C 0.75197 1.08783 0.63459
 C2688 C 0.75016 1.06628 0.63583
 C2689 C 0.73411 1.05616 0.62554
 C2690 C 0.71974 1.06750 0.61394
 C2691 C 0.75609 1.13225 0.63247
 C2692 C 0.77000 1.14104 0.64142
 C2693 C 0.68956 1.09049 0.59029
 C2694 C 0.67515 1.08199 0.58186
 H2695 H 0.68134 1.12763 0.57927
 H2696 H 0.68475 1.16520 0.57734
 H2697 H 0.71315 1.18323 0.59570
 H2698 H 0.73843 1.16374 0.61604
 H2699 H 0.76472 1.09499 0.64286
 H2700 H 0.76127 1.05740 0.64483
 H2701 H 0.73277 1.03942 0.62655
 H2702 H 0.70753 1.05893 0.60621
 C2703 C 0.70451 0.60295 1.10336
 C2704 C 0.70154 0.62409 1.10871
 C2705 C 0.71737 0.63503 1.11955
 C2706 C 0.73612 0.62479 1.12487
 C2707 C 0.73908 0.60365 1.11951
 C2708 C 0.72321 0.59269 1.10875
 C2709 C 0.72651 0.57157 1.10360
 C2710 C 0.74496 0.56154 1.10892
 C2711 C 0.76048 0.57225 1.11943
 C2712 C 0.75766 0.59306 1.12471
 C2713 C 0.71400 0.65611 1.12483
 C2714 C 0.69555 0.66614 1.11946
 C2715 C 0.68015 0.65549 1.10873
 C2716 C 0.68299 0.63469 1.10343
 C2717 C 0.75245 0.63598 1.13570
 C2718 C 0.76622 0.64502 1.14461
 C2719 C 0.68824 0.59174 1.09248
 C2720 C 0.67450 0.58263 1.08359
 H2721 H 0.71490 0.56258 1.09542
 H2722 H 0.74723 0.54538 1.10487
 H2723 H 0.77478 0.56440 1.12353
 H2724 H 0.77018 0.60071 1.13289
 H2725 H 0.72556 0.66505 1.13313
 H2726 H 0.69322 0.68227 1.12361
 H2727 H 0.66591 0.66337 1.10448
 H2728 H 0.67053 0.62707 1.09513
 C2729 C 1.21047 0.90409 0.90442
 C2730 C 1.21184 0.88215 0.90328
 C2731 C 1.22945 0.87269 0.89389
 C2732 C 1.24559 0.88521 0.88576
 C2733 C 1.24421 0.90715 0.88691
 C2734 C 1.22659 0.91661 0.89626
 C2735 C 1.22554 0.93856 0.89719
 C2736 C 1.24145 0.95082 0.88913
 C2737 C 1.25869 0.94157 0.88000
 C2738 C 1.26014 0.91999 0.87886
 C2739 C 1.23044 0.85073 0.89287
 C2740 C 1.21451 0.83848 0.90092
 C2741 C 1.19732 0.84773 0.91015
 C2742 C 1.19591 0.86931 0.91134
 C2743 C 1.26361 0.87557 0.87623
 C2744 C 1.27864 0.86767 0.86832
 C2745 C 1.19238 0.91373 0.91380
 C2746 C 1.17720 0.92155 0.92148
 H2747 H 1.21244 0.94648 0.90415
 H2748 H 1.24039 0.96759 0.88997
 H2749 H 1.27101 0.95116 0.87376
 H2750 H 1.27386 0.91353 0.87160
 H2751 H 1.24351 0.84282 0.88586
 H2752 H 1.21551 0.82171 0.90000
 H2753 H 1.18503 0.83815 0.91644
 H2754 H 1.18223 0.87577 0.91866
 C2755 C 1.20872 0.40134 0.40184
 C2756 C 1.22469 0.41359 0.39298
 C2757 C 1.24171 0.40383 0.38287
 C2758 C 1.24265 0.38188 0.38165
 C2759 C 1.22664 0.36963 0.39047
 C2760 C 1.20965 0.37939 0.40064
 C2761 C 1.19389 0.36682 0.40944
 C2762 C 1.19488 0.34523 0.40818
 C2763 C 1.21142 0.33568 0.39811
 C2764 C 1.22718 0.34766 0.38936
 C2765 C 1.25750 0.41640 0.37413
 C2766 C 1.25648 0.43800 0.37534
 C2767 C 1.23983 0.44754 0.38523
 C2768 C 1.22408 0.43556 0.39399
 C2769 C 1.26014 0.37192 0.37148
 C2770 C 1.27475 0.36371 0.36314
 C2771 C 1.19118 0.41132 0.41189
 C2772 C 1.17645 0.41950 0.42004
 H2773 H 1.18069 0.37352 0.41740
 H2774 H 1.18271 0.33585 0.41503
 H2775 H 1.21206 0.31891 0.39710
 H2776 H 1.23976 0.33953 0.38173
 H2777 H 1.27076 0.40971 0.36627
 H2778 H 1.26868 0.44738 0.36856
 H2779 H 1.23911 0.46432 0.38613
 H2780 H 1.21145 0.44370 0.40153
 C2781 C 0.70500 0.89774 0.39762
 C2782 C 0.72129 0.90912 0.38819
 C2783 C 0.73736 0.89848 0.37740
 C2784 C 0.73703 0.87651 0.37607
 C2785 C 0.72071 0.86513 0.38545
 C2786 C 0.70468 0.87577 0.39631
 C2787 C 0.68859 0.86405 0.40565
 C2788 C 0.68831 0.84244 0.40427
 C2789 C 0.70390 0.83205 0.39354
 C2790 C 0.71997 0.84318 0.38424
 C2791 C 0.75347 0.91020 0.36811
 C2792 C 0.75370 0.93181 0.36942
 C2793 C 0.73800 0.94221 0.37997
 C2794 C 0.72194 0.93108 0.38928
 C2795 C 0.75355 0.86566 0.36518
 C2796 C 0.76740 0.85677 0.35621
 C2797 C 0.68840 0.90863 0.40836
 C2798 C 0.67441 0.91753 0.41708
 H2799 H 0.67608 0.87142 0.41412
 H2800 H 0.67591 0.83372 0.41154
 H2801 H 0.70356 0.81527 0.39244
 H2802 H 0.73177 0.83441 0.37609
 H2803 H 0.76603 0.90283 0.35972
 H2804 H 0.76614 0.94054 0.36221
 H2805 H 0.73825 0.95900 0.38095
 H2806 H 0.71008 0.93987 0.39732
 C2807 C 0.70585 0.39755 0.89799
 C2808 C 0.70582 0.37556 0.89691
 C2809 C 0.72186 0.36503 0.88597
 C2810 C 0.73792 0.37653 0.87627
 C2811 C 0.73795 0.39851 0.87736
 C2812 C 0.72187 0.40905 0.88825
 C2813 C 0.72222 0.43102 0.88910
 C2814 C 0.73802 0.44228 0.87948
 C2815 C 0.75374 0.43198 0.86885
 C2816 C 0.75378 0.41036 0.86774
 C2817 C 0.72142 0.34306 0.88500
 C2818 C 0.70562 0.33181 0.89462
 C2819 C 0.69002 0.34209 0.90544
 C2820 C 0.69001 0.36371 0.90658
 C2821 C 0.75449 0.36578 0.86533
 C2822 C 0.76838 0.35697 0.85634
 C2823 C 0.68925 0.40832 0.90885
 C2824 C 0.67525 0.41711 0.91768
 H2825 H 0.71034 0.43973 0.89719
 H2826 H 0.73806 0.45908 0.88029
 H2827 H 0.76597 0.44080 0.86140
 H2828 H 0.76633 0.40307 0.85927
 H2829 H 0.73324 0.33436 0.87680
 H2830 H 0.70550 0.31501 0.89371
 H2831 H 0.67783 0.33328 0.91295
 H2832 H 0.67751 0.37101 0.91512
 C2833 C 0.79435 0.89906 1.10184
 C2834 C 0.79665 0.89354 1.12305
 C2835 C 0.78036 0.88292 1.13352
 C2836 C 0.76182 0.87800 1.12274
 C2837 C 0.75954 0.88351 1.10153
 C2838 C 0.77586 0.89405 1.09105
 C2839 C 0.77324 0.89936 1.06984
 C2840 C 0.75500 0.89441 1.05928
 C2841 C 0.73903 0.88411 1.06953
 C2842 C 0.74118 0.87869 1.09040
 C2843 C 0.78307 0.87747 1.15468
 C2844 C 0.80132 0.88245 1.16523
 C2845 C 0.81717 0.89297 1.15504
 C2846 C 0.81499 0.89843 1.13418
 C2847 C 0.74499 0.86749 1.13348
 C2848 C 0.73080 0.85890 1.14217
 C2849 C 0.81108 0.90971 1.09111
 C2850 C 0.82516 0.91838 1.08233
 H2851 H 0.78522 0.90739 1.06120
 H2852 H 0.75326 0.89859 1.04306
 H2853 H 0.72490 0.88029 1.06126
 H2854 H 0.72833 0.87068 1.09768
 H2855 H 0.77114 0.86932 1.16328
 H2856 H 0.80314 0.87816 1.18141
 H2857 H 0.83125 0.89693 1.16333
 H2858 H 0.82779 0.90656 1.12692
 C2859 C 0.78929 0.40437 0.59561
 C2860 C 0.79067 0.39564 0.61579
 C2861 C 0.77282 0.38662 0.62515
 C2862 C 0.75369 0.38643 0.61428
 C2863 C 0.75231 0.39517 0.59409
 C2864 C 0.77017 0.40416 0.58473
 C2865 C 0.76843 0.41278 0.56454
 C2866 C 0.74957 0.41252 0.55390
 C2867 C 0.73211 0.40373 0.56304
 C2868 C 0.73337 0.39513 0.58290
 C2869 C 0.77460 0.37794 0.64531
 C2870 C 0.79348 0.37819 0.65594
 C2871 C 0.81091 0.38707 0.64682
 C2872 C 0.80962 0.39570 0.62698
 C2873 C 0.73540 0.37730 0.62380
 C2874 C 0.72009 0.36976 0.63150
 C2875 C 0.80753 0.41354 0.58606
 C2876 C 0.82279 0.42109 0.57828
 H2877 H 0.78158 0.41979 0.55678
 H2878 H 0.74851 0.41918 0.53847
 H2879 H 0.71750 0.40356 0.55471
 H2880 H 0.71935 0.38847 0.58935
 H2881 H 0.76146 0.37088 0.65305
 H2882 H 0.79457 0.37148 0.67135
 H2883 H 0.82551 0.38730 0.65517
 H2884 H 0.82362 0.40241 0.62054
 C2885 C 0.28947 0.90480 0.59562
 C2886 C 0.29126 0.89508 0.61532
 C2887 C 0.27350 0.88599 0.62477
 C2888 C 0.25409 0.88660 0.61443
 C2889 C 0.25230 0.89631 0.59473
 C2890 C 0.27005 0.90544 0.58530
 C2891 C 0.26790 0.91505 0.56560
 C2892 C 0.24876 0.91561 0.55550
 C2893 C 0.23140 0.90669 0.56472
 C2894 C 0.23306 0.89712 0.58410
 C2895 C 0.27566 0.87640 0.64448
 C2896 C 0.29483 0.87576 0.65454
 C2897 C 0.31221 0.88458 0.64526
 C2898 C 0.31053 0.89419 0.62590
 C2899 C 0.23597 0.87717 0.62398
 C2900 C 0.22087 0.86934 0.63178
 C2901 C 0.30761 0.91407 0.58599
 C2902 C 0.32281 0.92169 0.57818
 H2903 H 0.28096 0.92220 0.55780
 H2904 H 0.24739 0.92302 0.54044
 H2905 H 0.21656 0.90717 0.55681
 H2906 H 0.21911 0.89040 0.59063
 H2907 H 0.26259 0.86930 0.65231
 H2908 H 0.29621 0.86836 0.66960
 H2909 H 0.32708 0.88396 0.65309
 H2910 H 0.32449 0.90085 0.61933
 C2911 C 0.29444 0.39886 1.10130
 C2912 C 0.27600 0.39391 1.09037
 C2913 C 0.25959 0.38340 1.10074
 C2914 C 0.26172 0.37787 1.12196
 C2915 C 0.28020 0.38273 1.13286
 C2916 C 0.29658 0.39331 1.12251
 C2917 C 0.31486 0.39814 1.13376
 C2918 C 0.31690 0.39264 1.15463
 C2919 C 0.30094 0.38217 1.16471
 C2920 C 0.28275 0.37726 1.15404
 C2921 C 0.24129 0.37865 1.08949
 C2922 C 0.23929 0.38410 1.06860
 C2923 C 0.25535 0.39437 1.05848
 C2924 C 0.27353 0.39927 1.06916
 C2925 C 0.24479 0.36740 1.13257
 C2926 C 0.23052 0.35888 1.14121
 C2927 C 0.31129 0.40942 1.09068
 C2928 C 0.32548 0.41801 1.08201
 H2929 H 0.32772 0.40625 1.12660
 H2930 H 0.33094 0.39655 1.16301
 H2931 H 0.30265 0.37787 1.18090
 H2932 H 0.27074 0.36914 1.16256
 H2933 H 0.22836 0.37066 1.09667
 H2934 H 0.22519 0.38034 1.06024
 H2935 H 0.25372 0.39857 1.04225
 H2936 H 0.28558 0.40728 1.06061
 C2937 C 0.79134 1.09821 0.90165
 C2938 C 0.77252 1.10120 0.91261
 C2939 C 0.75534 1.11079 0.90255
 C2940 C 0.75710 1.11736 0.88160
 C2941 C 0.77596 1.11443 0.87065
 C2942 C 0.79312 1.10478 0.88070
 C2943 C 0.81178 1.10194 0.86942
 C2944 C 0.81346 1.10846 0.84882
 C2945 C 0.79671 1.11799 0.83902
 C2946 C 0.77813 1.12095 0.84973
 C2947 C 0.73668 1.11361 0.91384
 C2948 C 0.73505 1.10715 0.93447
 C2949 C 0.75186 1.09779 0.94430
 C2950 C 0.77042 1.09480 0.93357
 C2951 C 0.73949 1.12709 0.87136
 C2952 C 0.72470 1.13515 0.86314
 C2953 C 0.80891 1.08846 0.91192
 C2954 C 0.82364 1.08046 0.92027
 H2955 H 0.82525 1.09463 0.87636
 H2956 H 0.82781 1.10608 0.84040
 H2957 H 0.79812 1.12307 0.82303
 H2958 H 0.76551 1.12839 0.84144
 H2959 H 0.72317 1.12082 0.90688
 H2960 H 0.72066 1.10944 0.94286
 H2961 H 0.75051 1.09281 0.96032
 H2962 H 0.78306 1.08744 0.94189
 C2963 C 0.78908 0.59448 0.40372
 C2964 C 0.77630 0.60812 0.41531
 C2965 C 0.75896 0.61783 0.40565
 C2966 C 0.75452 0.61384 0.38446
 C2967 C 0.76716 0.60001 0.37294
 C2968 C 0.78450 0.59030 0.38260
 C2969 C 0.79697 0.57660 0.37074
 C2970 C 0.79243 0.57261 0.34994
 C2971 C 0.77547 0.58209 0.34050
 C2972 C 0.76293 0.59565 0.35179
 C2973 C 0.74645 0.63147 0.41753
 C2974 C 0.75095 0.63540 0.43835
 C2975 C 0.76791 0.62591 0.44780
 C2976 C 0.78050 0.61242 0.43648
 C2977 C 0.73709 0.62411 0.37446
 C2978 C 0.72269 0.63268 0.36610
 C2979 C 0.80722 0.58515 0.41333
 C2980 C 0.82253 0.57761 0.42105
 H2981 H 0.81032 0.56882 0.37740
 H2982 H 0.80214 0.56209 0.34111
 H2983 H 0.77201 0.57894 0.32433
 H2984 H 0.74990 0.60265 0.34375
 H2985 H 0.73308 0.63922 0.41087
 H2986 H 0.74121 0.64587 0.44721
 H2987 H 0.77134 0.62902 0.46398
 H2988 H 0.79352 0.60539 0.44451
 C2989 C 0.29349 1.10032 0.39838
 C2990 C 0.29310 1.10120 0.37637
 C2991 C 0.27654 1.11155 0.36601
 C2992 C 0.26041 1.12085 0.37773
 C2993 C 0.26078 1.11993 0.39973
 C2994 C 0.27738 1.10964 0.41008
 C2995 C 0.27743 1.10893 0.43209
 C2996 C 0.26154 1.11814 0.44354
 C2997 C 0.24531 1.12821 0.43342
 C2998 C 0.24485 1.12914 0.41178
 C2999 C 0.27656 1.11236 0.34401
 C3000 C 0.29244 1.10311 0.33256
 C3001 C 0.30855 1.09286 0.34268
 C3002 C 0.30899 1.09191 0.36432
 C3003 C 0.24336 1.13126 0.36719
 C3004 C 0.22908 1.13990 0.35866
 C3005 C 0.31061 1.09008 0.40895
 C3006 C 0.32500 1.08173 0.41759
 H3007 H 0.28971 1.10126 0.44066
 H3008 H 0.26182 1.11746 0.46036
 H3009 H 0.23301 1.13535 0.44239
 H3010 H 0.23190 1.13716 0.40463
 H3011 H 0.26433 1.12011 0.33544
 H3012 H 0.29223 1.10389 0.31575
 H3013 H 0.32081 1.08565 0.33371
 H3014 H 0.32188 1.08381 0.37148
 C3015 C 0.28890 0.59496 0.90492
 C3016 C 0.28710 0.59596 0.88299
 C3017 C 0.26922 0.60513 0.87379
 C3018 C 0.25323 0.61318 0.88657
 C3019 C 0.25504 0.61217 0.90850
 C3020 C 0.27293 0.60303 0.91770
 C3021 C 0.27441 0.60221 0.93965
 C3022 C 0.25867 0.61022 0.95216
 C3023 C 0.24118 0.61918 0.94317
 C3024 C 0.23930 0.62018 0.92161
 C3025 C 0.26780 0.60603 0.85184
 C3026 C 0.28359 0.59808 0.83933
 C3027 C 0.30103 0.58904 0.84833
 C3028 C 0.30286 0.58796 0.86989
 C3029 C 0.23491 0.62247 0.87720
 C3030 C 0.21966 0.63020 0.86954
 C3031 C 0.30728 0.58584 0.91430
 C3032 C 0.32266 0.57838 0.92197
 H3033 H 0.28771 0.59539 0.94737
 H3034 H 0.26006 0.60948 0.96892
 H3035 H 0.22899 0.62539 0.95296
 H3036 H 0.22540 0.62730 0.91535
 H3037 H 0.25452 0.61289 0.84412
 H3038 H 0.28226 0.59890 0.82257
 H3039 H 0.31320 0.58281 0.83855
 H3040 H 0.31673 0.58079 0.87616
 C3041 C 1.10244 1.20516 1.10236
 C3042 C 1.11808 1.20069 1.11721
 C3043 C 1.12859 1.21719 1.12744
 C3044 C 1.12338 1.23807 1.12276
 C3045 C 1.10771 1.24253 1.10794
 C3046 C 1.09721 1.22603 1.09771
 C3047 C 1.08161 1.23087 1.08296
 C3048 C 1.07650 1.25144 1.07845
 C3049 C 1.08675 1.26758 1.08846
 C3050 C 1.10219 1.26327 1.10304
 C3051 C 1.14416 1.21234 1.14222
 C3052 C 1.14922 1.19177 1.14677
 C3053 C 1.13895 1.17564 1.13677
 C3054 C 1.12355 1.17994 1.12214
 C3055 C 1.13405 1.25499 1.13316
 C3056 C 1.14262 1.26933 1.14162
 C3057 C 1.09175 1.18834 1.09185
 C3058 C 1.08294 1.17431 1.08313
 H3059 H 1.07319 1.21886 1.07476
 H3060 H 1.06451 1.25486 1.06714
 H3061 H 1.08273 1.28353 1.08491
 H3062 H 1.10971 1.27637 1.11040
 H3063 H 1.15256 1.22437 1.15041
 H3064 H 1.16117 1.18833 1.15811
 H3065 H 1.14294 1.15968 1.14035
 H3066 H 1.11601 1.16686 1.11478
 C3067 C 1.09610 0.71075 0.59554
 C3068 C 1.11678 0.70973 0.60298
 C3069 C 1.12604 0.72752 0.61220
 C3070 C 1.11455 0.74620 0.61395
 C3071 C 1.09386 0.74721 0.60652
 C3072 C 1.08461 0.72943 0.59727
 C3073 C 1.06391 0.73081 0.58997
 C3074 C 1.05267 0.74923 0.59174
 C3075 C 1.06171 0.76662 0.60077
 C3076 C 1.08206 0.76571 0.60811
 C3077 C 1.14674 0.72614 0.61951
 C3078 C 1.15796 0.70768 0.61781
 C3079 C 1.14888 0.69027 0.60886
 C3080 C 1.12855 0.69119 0.60148
 C3081 C 1.12396 0.76437 0.62342
 C3082 C 1.13168 0.77950 0.63127
 C3083 C 1.08663 0.69255 0.58621
 C3084 C 1.07891 0.67730 0.57859
 H3085 H 1.05620 0.71769 0.58282
 H3086 H 1.03685 0.75001 0.58607
 H3087 H 1.05291 0.78090 0.60211
 H3088 H 1.08841 0.77965 0.61502
 H3089 H 1.15447 0.73926 0.62661
 H3090 H 1.17377 0.70689 0.62350
 H3091 H 1.15763 0.67595 0.60766
 H3092 H 1.12218 0.67724 0.59462
 C3093 C 0.59402 1.21294 0.59368
 C3094 C 0.61569 1.21637 0.59210
 C3095 C 0.62470 1.23428 0.60135
 C3096 C 0.61197 1.24868 0.61206
 C3097 C 0.59029 1.24531 0.61353
 C3098 C 0.58129 1.22738 0.60431
 C3099 C 0.55959 1.22432 0.60602
 C3100 C 0.54713 1.23857 0.61654
 C3101 C 0.55594 1.25609 0.62557
 C3102 C 0.57726 1.25950 0.62412
 C3103 C 0.64641 1.23732 0.59965
 C3104 C 0.65885 1.22310 0.58908
 C3105 C 0.65003 1.20564 0.57998
 C3106 C 0.62871 1.20221 0.58144
 C3107 C 0.62119 1.26693 0.62158
 C3108 C 0.62888 1.28205 0.62948
 C3109 C 0.58492 1.19438 0.58469
 C3110 C 0.57753 1.17880 0.57739
 H3111 H 0.55202 1.21093 0.59925
 H3112 H 0.53056 1.23599 0.61770
 H3113 H 0.54620 1.26710 0.63373
 H3114 H 0.58338 1.27336 0.63140
 H3115 H 0.65399 1.25069 0.60645
 H3116 H 0.67543 1.22567 0.58793
 H3117 H 0.65974 1.19469 0.57171
 H3118 H 0.62258 1.18840 0.57409
 C3119 C 0.60278 0.70436 1.10291
 C3120 C 0.61786 0.69987 1.11834
 C3121 C 0.62824 0.71637 1.12872
 C3122 C 0.62346 0.73725 1.12363
 C3123 C 0.60839 0.74173 1.10820
 C3124 C 0.59803 0.72524 1.09781
 C3125 C 0.58302 0.73010 1.08245
 C3126 C 0.57838 0.75067 1.07750
 C3127 C 0.58850 0.76680 1.08765
 C3128 C 0.60334 0.76248 1.10284
 C3129 C 0.64325 0.71150 1.14406
 C3130 C 0.64787 0.69092 1.14902
 C3131 C 0.63771 0.67480 1.13890
 C3132 C 0.62286 0.67912 1.12371
 C3133 C 0.63394 0.75417 1.13425
 C3134 C 0.64239 0.76850 1.14285
 C3135 C 0.59217 0.68754 1.09228
 C3136 C 0.58339 0.67352 1.08350
 H3137 H 0.57473 0.71810 1.07412
 H3138 H 0.56686 0.75411 1.06572
 H3139 H 0.58484 0.78275 1.08375
 H3140 H 0.61079 0.77556 1.11029
 H3141 H 0.65157 0.72352 1.15236
 H3142 H 0.65941 0.68746 1.16078
 H3143 H 0.64138 0.65884 1.14280
 H3144 H 0.61539 0.66605 1.11626
 C3145 C 0.89734 1.20496 0.89710
 C3146 C 0.89288 1.22396 0.90723
 C3147 C 0.88211 1.23997 0.89642
 C3148 C 0.87584 1.23687 0.87553
 C3149 C 0.88024 1.21783 0.86542
 C3150 C 0.89108 1.20186 0.87621
 C3151 C 0.89544 1.18302 0.86573
 C3152 C 0.88926 1.18004 0.84518
 C3153 C 0.87853 1.19559 0.83467
 C3154 C 0.87404 1.21431 0.84459
 C3155 C 0.87785 1.25883 0.90689
 C3156 C 0.88404 1.26180 0.92744
 C3157 C 0.89456 1.24615 0.93800
 C3158 C 0.89897 1.22742 0.92810
 C3159 C 0.86502 1.25335 0.86448
 C3160 C 0.85615 1.26728 0.85557
 C3161 C 0.90819 1.18854 0.90819
 C3162 C 0.91706 1.17471 0.91724
 H3163 H 0.90370 1.17044 0.87325
 H3164 H 0.89285 1.16560 0.83737
 H3165 H 0.87370 1.19315 0.81873
 H3166 H 0.86570 1.22597 0.83577
 H3167 H 0.86970 1.27147 0.89934
 H3168 H 0.88065 1.27633 0.93520
 H3169 H 0.89933 1.24853 0.95397
 H3170 H 0.90720 1.21571 0.93696
 C3171 C 0.89812 0.70456 0.39610
 C3172 C 0.89726 0.70454 0.37409
 C3173 C 0.88639 0.72058 0.36344
 C3174 C 0.87653 0.73661 0.37485
 C3175 C 0.87739 0.73661 0.39686
 C3176 C 0.88820 0.72053 0.40751
 C3177 C 0.88880 0.72084 0.42952
 C3178 C 0.87901 0.73659 0.44068
 C3179 C 0.86847 0.75233 0.43027
 C3180 C 0.86762 0.75242 0.40861
 C3181 C 0.88565 0.72017 0.34144
 C3182 C 0.89545 0.70441 0.33028
 C3183 C 0.90619 0.68881 0.34069
 C3184 C 0.90709 0.68876 0.36234
 C3185 C 0.86567 0.75318 0.36399
 C3186 C 0.85671 0.76709 0.35516
 C3187 C 0.90896 0.68800 0.40700
 C3188 C 0.91779 0.67406 0.41592
 H3189 H 0.89682 0.70894 0.43832
 H3190 H 0.87962 0.73659 0.45750
 H3191 H 0.86090 0.76454 0.43901
 H3192 H 0.85920 0.76499 0.40123
 H3193 H 0.87751 0.73199 0.33265
 H3194 H 0.89470 0.70431 0.31347
 H3195 H 0.91378 0.67662 0.33195
 H3196 H 0.91557 0.67624 0.36973
 C3197 C 0.40488 1.21175 0.40390
 C3198 C 0.41282 1.21974 0.38499
 C3199 C 0.40292 1.23693 0.37524
 C3200 C 0.38514 1.24602 0.38448
 C3201 C 0.37738 1.23821 0.40354
 C3202 C 0.38728 1.22102 0.41328
 C3203 C 0.37919 1.21342 0.43229
 C3204 C 0.36182 1.22257 0.44142
 C3205 C 0.35214 1.23939 0.43189
 C3206 C 0.35976 1.24718 0.41317
 C3207 C 0.41108 1.24461 0.35630
 C3208 C 0.42854 1.23557 0.34725
 C3209 C 0.43822 1.21875 0.35678
 C3210 C 0.43052 1.21086 0.37542
 C3211 C 0.37470 1.26321 0.37424
 C3212 C 0.36598 1.27742 0.36566
 C3213 C 0.41446 1.19364 0.41339
 C3214 C 0.42215 1.17837 0.42105
 H3215 H 0.38619 1.20038 0.44030
 H3216 H 0.35584 1.21658 0.45597
 H3217 H 0.33866 1.24645 0.43905
 H3218 H 0.35170 1.26030 0.40636
 H3219 H 0.40410 1.25767 0.34831
 H3220 H 0.43459 1.24165 0.33277
 H3221 H 0.45178 1.21178 0.34968
 H3222 H 0.43859 1.19776 0.38225
 C3223 C 0.40622 0.71270 0.90658
 C3224 C 0.41439 0.72099 0.88790
 C3225 C 0.40503 0.73876 0.87867
 C3226 C 0.38756 0.74814 0.88819
 C3227 C 0.37954 0.73999 0.90701
 C3228 C 0.38890 0.72221 0.91623
 C3229 C 0.38057 0.71430 0.93500
 C3230 C 0.36348 0.72370 0.94441
 C3231 C 0.35433 0.74108 0.93539
 C3232 C 0.36219 0.74920 0.91690
 C3233 C 0.41343 0.74673 0.85996
 C3234 C 0.43060 0.73741 0.85063
 C3235 C 0.43975 0.72003 0.85964
 C3236 C 0.43180 0.71184 0.87806
 C3237 C 0.37770 0.76600 0.87851
 C3238 C 0.36946 0.78076 0.87040
 C3239 C 0.41533 0.69412 0.91560
 C3240 C 0.42267 0.67850 0.92292
 H3241 H 0.38716 0.70082 0.94262
 H3242 H 0.35732 0.71746 0.95877
 H3243 H 0.34107 0.74833 0.94276
 H3244 H 0.35454 0.76275 0.91049
 H3245 H 0.40686 0.76023 0.85235
 H3246 H 0.43684 0.74372 0.83632
 H3247 H 0.45309 0.71284 0.85234
 H3248 H 0.43947 0.69830 0.88449
 C3249 C 1.09623 0.78908 0.90577
 C3250 C 1.11672 0.79006 0.89781
 C3251 C 1.12591 0.77212 0.88879
 C3252 C 1.11454 0.75332 0.88774
 C3253 C 1.09406 0.75235 0.89572
 C3254 C 1.08488 0.77028 0.90476
 C3255 C 1.06439 0.76894 0.91260
 C3256 C 1.05328 0.75039 0.91156
 C3257 C 1.06225 0.73285 0.90272
 C3258 C 1.08240 0.73373 0.89487
 C3259 C 1.14641 0.77347 0.88096
 C3260 C 1.15750 0.79203 0.88197
 C3261 C 1.14849 0.80959 0.89072
 C3262 C 1.12835 0.80871 0.89860
 C3263 C 1.12384 0.73502 0.87841
 C3264 C 1.13146 0.71976 0.87066
 C3265 C 1.08683 0.80743 0.91490
 C3266 C 1.07916 0.82279 0.92239
 H3267 H 1.05674 0.78216 0.91961
 H3268 H 1.03762 0.74964 0.91763
 H3269 H 1.05356 0.71849 0.90195
 H3270 H 1.08870 0.71967 0.88814
 H3271 H 1.15407 0.76023 0.87399
 H3272 H 1.17316 0.79280 0.87590
 H3273 H 1.15714 0.82399 0.89139
 H3274 H 1.12203 0.82278 0.90528
 C3275 C 1.10159 0.29351 0.40054
 C3276 C 1.12116 0.29684 0.39107
 C3277 C 1.13143 0.28018 0.38084
 C3278 C 1.12200 0.26032 0.38004
 C3279 C 1.10244 0.25700 0.38953
 C3280 C 1.09221 0.27364 0.39983
 C3281 C 1.07266 0.26995 0.40919
 C3282 C 1.06348 0.25037 0.40842
 C3283 C 1.07347 0.23410 0.39835
 C3284 C 1.09272 0.23728 0.38898
 C3285 C 1.15102 0.28386 0.37156
 C3286 C 1.16017 0.30347 0.37228
 C3287 C 1.15006 0.31979 0.38216
 C3288 C 1.13082 0.31659 0.39153
 C3289 C 1.13235 0.24332 0.36940
 C3290 C 1.14080 0.22910 0.36062
 C3291 C 1.09106 0.31058 0.41086
 C3292 C 1.08247 0.32495 0.41925
 H3293 H 1.06428 0.28213 0.41721
 H3294 H 1.04853 0.24782 0.41567
 H3295 H 1.06627 0.21891 0.39778
 H3296 H 1.09987 0.22413 0.38133
 H3297 H 1.15946 0.27166 0.36365
 H3298 H 1.17516 0.30603 0.36510
 H3299 H 1.15716 0.33502 0.38257
 H3300 H 1.12360 0.32977 0.39908
 C3301 C 0.59881 0.79194 0.40206
 C3302 C 0.58981 0.77194 0.40363
 C3303 C 0.59957 0.75469 0.39390
 C3304 C 0.61828 0.75754 0.38269
 C3305 C 0.62733 0.77754 0.38119
 C3306 C 0.61753 0.79480 0.39086
 C3307 C 0.62678 0.81467 0.38903
 C3308 C 0.64519 0.81740 0.37798
 C3309 C 0.65485 0.80050 0.36865
 C3310 C 0.64608 0.78076 0.37016
 C3311 C 0.59026 0.73484 0.39565
 C3312 C 0.57186 0.73212 0.40671
 C3313 C 0.56233 0.74899 0.41623
 C3314 C 0.57113 0.76871 0.41475
 C3315 C 0.62815 0.73992 0.37266
 C3316 C 0.63620 0.72517 0.36441
 C3317 C 0.58879 0.80958 0.41187
 C3318 C 0.58060 0.82439 0.41987
 H3319 H 0.61990 0.82829 0.39608
 H3320 H 0.65200 0.83272 0.37667
 H3321 H 0.66919 0.80270 0.36015
 H3322 H 0.65413 0.76810 0.36259
 H3323 H 0.59708 0.72123 0.38852
 H3324 H 0.56496 0.71683 0.40790
 H3325 H 0.54803 0.74679 0.42481
 H3326 H 0.56313 0.78135 0.42242
 C3327 C 0.59888 0.29087 0.90266
 C3328 C 0.61790 0.29357 0.89195
 C3329 C 0.62762 0.27628 0.88224
 C3330 C 0.61821 0.25642 0.88322
 C3331 C 0.59918 0.25374 0.89394
 C3332 C 0.58950 0.27101 0.90370
 C3333 C 0.57049 0.26795 0.91432
 C3334 C 0.56131 0.24838 0.91528
 C3335 C 0.57077 0.23148 0.90573
 C3336 C 0.58948 0.23404 0.89516
 C3337 C 0.64668 0.27933 0.87170
 C3338 C 0.65582 0.29893 0.87069
 C3339 C 0.64623 0.31586 0.88005
 C3340 C 0.62753 0.31330 0.89063
 C3341 C 0.62801 0.23876 0.87317
 C3342 C 0.63601 0.22400 0.86489
 C3343 C 0.58894 0.30855 0.91252
 C3344 C 0.58083 0.32337 0.92058
 H3345 H 0.56253 0.28063 0.92198
 H3346 H 0.54677 0.24631 0.92347
 H3347 H 0.56358 0.21630 0.90652
 H3348 H 0.59624 0.22042 0.88798
 H3349 H 0.65469 0.26664 0.86412
 H3350 H 0.67039 0.30101 0.86256
 H3351 H 0.65332 0.33108 0.87911
 H3352 H 0.62071 0.32693 0.89771
 C3353 C 0.89756 0.79630 1.10365
 C3354 C 0.89208 0.77774 1.09322
 C3355 C 0.88090 0.76199 1.10393
 C3356 C 0.87524 0.76490 1.12501
 C3357 C 0.88064 0.78351 1.13542
 C3358 C 0.89189 0.79923 1.12473
 C3359 C 0.89726 0.81763 1.13550
 C3360 C 0.89164 0.82044 1.15623
 C3361 C 0.88050 0.80515 1.16664
 C3362 C 0.87503 0.78685 1.15644
 C3363 C 0.87560 0.74356 1.09316
 C3364 C 0.88119 0.74078 1.07242
 C3365 C 0.89212 0.75619 1.06195
 C3366 C 0.89755 0.77448 1.07215
 C3367 C 0.86417 0.74860 1.13601
 C3368 C 0.85516 0.73482 1.14497
 C3369 C 0.90875 0.81250 1.09265
 C3370 C 0.91781 0.82618 1.08362
 H3371 H 0.90588 0.83000 1.12807
 H3372 H 0.89597 0.83456 1.16426
 H3373 H 0.87609 0.80746 1.18272
 H3374 H 0.86638 0.77538 1.16519
 H3375 H 0.86708 0.73113 1.10062
 H3376 H 0.87700 0.72660 1.06442
 H3377 H 0.89642 0.75396 1.04584
 H3378 H 0.90606 0.78601 1.06336
 C3379 C 0.89837 0.29506 0.60257
 C3380 C 0.89373 0.27628 0.59212
 C3381 C 0.88308 0.26011 0.60276
 C3382 C 0.87711 0.26281 0.62378
 C3383 C 0.88167 0.28164 0.63421
 C3384 C 0.89238 0.29779 0.62359
 C3385 C 0.89688 0.31641 0.63437
 C3386 C 0.89091 0.31904 0.65503
 C3387 C 0.88031 0.30332 0.66536
 C3388 C 0.87573 0.28478 0.65516
 C3389 C 0.87864 0.24146 0.59197
 C3390 C 0.88454 0.23888 0.57129
 C3391 C 0.89494 0.25470 0.56090
 C3392 C 0.89952 0.27322 0.57112
 C3393 C 0.86645 0.24615 0.63465
 C3394 C 0.85769 0.23210 0.64343
 C3395 C 0.90911 0.31164 0.59167
 C3396 C 0.91788 0.32559 0.58277
 H3397 H 0.90507 0.32911 0.62700
 H3398 H 0.89455 0.33336 0.66305
 H3399 H 0.87564 0.30548 0.68139
 H3400 H 0.86750 0.27297 0.66386
 H3401 H 0.87055 0.22871 0.59937
 H3402 H 0.88102 0.22452 0.56329
 H3403 H 0.89948 0.25262 0.54483
 H3404 H 0.90763 0.28507 0.56237
 C3405 C 0.40449 0.78926 0.59531
 C3406 C 0.40374 0.77026 0.58426
 C3407 C 0.39443 0.75250 0.59353
 C3408 C 0.38593 0.75384 0.61379
 C3409 C 0.38671 0.77284 0.62485
 C3410 C 0.39602 0.79060 0.61559
 C3411 C 0.39659 0.80942 0.62694
 C3412 C 0.38820 0.81067 0.64687
 C3413 C 0.37910 0.79330 0.65593
 C3414 C 0.37832 0.77457 0.64512
 C3415 C 0.39383 0.73369 0.58216
 C3416 C 0.40219 0.73246 0.56221
 C3417 C 0.41129 0.74983 0.55316
 C3418 C 0.41210 0.76856 0.56399
 C3419 C 0.37636 0.73572 0.62324
 C3420 C 0.36839 0.72072 0.63113
 C3421 C 0.41380 0.80748 0.58581
 C3422 C 0.42137 0.82280 0.57814
 H3423 H 0.40352 0.82336 0.62057
 H3424 H 0.38876 0.82519 0.65533
 H3425 H 0.37260 0.79435 0.67141
 H3426 H 0.37108 0.76149 0.65283
 H3427 H 0.38692 0.71975 0.58855
 H3428 H 0.40160 0.71795 0.55374
 H3429 H 0.41775 0.74880 0.53766
 H3430 H 0.41935 0.78164 0.55630
 C3431 C 0.40013 0.29345 1.10124
 C3432 C 0.39798 0.27380 1.09161
 C3433 C 0.38707 0.25762 1.10195
 C3434 C 0.37836 0.26119 1.12184
 C3435 C 0.38052 0.28083 1.13149
 C3436 C 0.39149 0.29700 1.12118
 C3437 C 0.39356 0.31648 1.13117
 C3438 C 0.38503 0.31990 1.15078
 C3439 C 0.37421 0.30413 1.16082
 C3440 C 0.37194 0.28479 1.15136
 C3441 C 0.38514 0.23810 1.09200
 C3442 C 0.39371 0.23468 1.07241
 C3443 C 0.40437 0.25052 1.06231
 C3444 C 0.40653 0.26989 1.07172
 C3445 C 0.36733 0.24458 1.13241
 C3446 C 0.35834 0.23061 1.14108
 C3447 C 0.41094 0.31012 1.09056
 C3448 C 0.41965 0.32423 1.08186
 H3449 H 0.40182 0.32924 1.12399
 H3450 H 0.38687 0.33485 1.15822
 H3451 H 0.36756 0.30690 1.17603
 H3452 H 0.36342 0.27299 1.15979
 H3453 H 0.37699 0.22529 1.09923
 H3454 H 0.39208 0.21966 1.06504
 H3455 H 0.41100 0.24779 1.04709
 H3456 H 0.41497 0.28171 1.06326
 C3457 C 1.09776 1.09890 0.79119
 C3458 C 1.10983 1.08712 0.77707
 C3459 C 1.12002 1.09716 0.76023
 C3460 C 1.11808 1.11893 0.75761
 C3461 C 1.10591 1.13070 0.77166
 C3462 C 1.09572 1.12065 0.78850
 C3463 C 1.08369 1.13275 0.80238
 C3464 C 1.08178 1.15416 0.79971
 C3465 C 1.09174 1.16398 0.78324
 C3466 C 1.10368 1.15246 0.76933
 C3467 C 1.13204 1.08507 0.74635
 C3468 C 1.13394 1.06366 0.74904
 C3469 C 1.12398 1.05384 0.76550
 C3470 C 1.11204 1.06536 0.77941
 C3471 C 1.12865 1.12924 0.74054
 C3472 C 1.13740 1.13790 0.72639
 C3473 C 1.08779 1.08876 0.80872
 C3474 C 1.07970 1.08060 0.82352
 H3475 H 1.07563 1.12582 0.81542
 H3476 H 1.07253 1.16317 0.81047
 H3477 H 1.09021 1.18061 0.78123
 H3478 H 1.11112 1.16081 0.75676
 H3479 H 1.14009 1.09200 0.73331
 H3480 H 1.14320 1.05464 0.73828
 H3481 H 1.12550 1.03720 0.76752
 H3482 H 1.10458 1.05702 0.79198
 C3483 C 1.10249 0.60263 0.29437
 C3484 C 1.10240 0.59447 0.27394
 C3485 C 1.11280 0.60525 0.25769
 C3486 C 1.12320 0.62416 0.26196
 C3487 C 1.12324 0.63236 0.28239
 C3488 C 1.11290 0.62154 0.29865
 C3489 C 1.11330 0.62996 0.31898
 C3490 C 1.12361 0.64853 0.32311
 C3491 C 1.13358 0.65919 0.30719
 C3492 C 1.13346 0.65126 0.28703
 C3493 C 1.11253 0.59675 0.23740
 C3494 C 1.10227 0.57814 0.23328
 C3495 C 1.09209 0.56762 0.24917
 C3496 C 1.09210 0.57562 0.26929
 C3497 C 1.13395 0.63506 0.24535
 C3498 C 1.14286 0.64391 0.23142
 C3499 C 1.09192 0.59161 0.31100
 C3500 C 1.08325 0.58266 0.32500
 H3501 H 1.10571 0.62229 0.33188
 H3502 H 1.12383 0.65470 0.33877
 H3503 H 1.14147 0.67366 0.31048
 H3504 H 1.14147 0.66009 0.27516
 H3505 H 1.12022 0.60436 0.22452
 H3506 H 1.10223 0.57186 0.21767
 H3507 H 1.08414 0.55317 0.24588
 H3508 H 1.08397 0.56686 0.28113
 C3509 C 0.60299 1.10367 0.29519
 C3510 C 0.61153 1.09253 0.27826
 C3511 C 0.62239 1.10331 0.26232
 C3512 C 0.62466 1.12517 0.26340
 C3513 C 0.61621 1.13630 0.28040
 C3514 C 0.60530 1.12552 0.29632
 C3515 C 0.59691 1.13700 0.31310
 C3516 C 0.59924 1.15850 0.31414
 C3517 C 0.61002 1.16902 0.29865
 C3518 C 0.61842 1.15813 0.28193
 C3519 C 0.63078 1.09182 0.24554
 C3520 C 0.62853 1.07030 0.24456
 C3521 C 0.61792 1.05977 0.26015
 C3522 C 0.60949 1.07067 0.27685
 C3523 C 0.63552 1.13617 0.24693
 C3524 C 0.64447 1.14509 0.23308
 C3525 C 0.59206 1.09264 0.31158
 C3526 C 0.58316 1.08361 0.32538
 H3527 H 0.58845 1.12952 0.32556
 H3528 H 0.59271 1.16703 0.32708
 H3529 H 0.61187 1.18571 0.29960
 H3530 H 0.62665 1.16700 0.27024
 H3531 H 0.63919 1.09930 0.23305
 H3532 H 0.63505 1.06177 0.23162
 H3533 H 0.61622 1.04306 0.25932
 H3534 H 0.60137 1.06179 0.28860
 C3535 C 0.59322 0.59326 0.78749
 C3536 C 0.60795 0.58193 0.77574
 C3537 C 0.61719 0.59111 0.75789
 C3538 C 0.61164 0.61156 0.75192
 C3539 C 0.59671 0.62279 0.76353
 C3540 C 0.58747 0.61361 0.78138
 C3541 C 0.57265 0.62517 0.79280
 C3542 C 0.56710 0.64522 0.78675
 C3543 C 0.57613 0.65419 0.76929
 C3544 C 0.59077 0.64318 0.75776
 C3545 C 0.63194 0.57951 0.74641
 C3546 C 0.63739 0.55941 0.75240
 C3547 C 0.62836 0.55044 0.76986
 C3548 C 0.61380 0.56150 0.78146
 C3549 C 0.62147 0.62116 0.73402
 C3550 C 0.62966 0.62927 0.71925
 C3551 C 0.58435 0.58421 0.80616
 C3552 C 0.57719 0.57693 0.82186
 H3553 H 0.56518 0.61885 0.80648
 H3554 H 0.55574 0.65384 0.79566
 H3555 H 0.57177 0.66977 0.76465
 H3556 H 0.59735 0.65083 0.74429
 H3557 H 0.63938 0.58582 0.73271
 H3558 H 0.64869 0.55076 0.74344
 H3559 H 0.63265 0.53483 0.77445
 H3560 H 0.60720 0.55385 0.79491
 C3561 C 0.90295 0.90285 0.79116
 C3562 C 0.88751 0.88738 0.79366
 C3563 C 0.87832 0.87806 0.77587
 C3564 C 0.88462 0.88426 0.75571
 C3565 C 0.90007 0.89972 0.75322
 C3566 C 0.90926 0.90904 0.77100
 C3567 C 0.92468 0.92445 0.76813
 C3568 C 0.93084 0.93049 0.74825
 C3569 C 0.92185 0.92138 0.73086
 C3570 C 0.90664 0.90617 0.73322
 C3571 C 0.86291 0.86264 0.77875
 C3572 C 0.85677 0.85659 0.79864
 C3573 C 0.86577 0.86570 0.81603
 C3574 C 0.88097 0.88093 0.81367
 C3575 C 0.87525 0.87483 0.73749
 C3576 C 0.86765 0.86724 0.72214
 C3577 C 0.91235 0.91241 0.80929
 C3578 C 0.92017 0.92033 0.82435
 H3579 H 0.93213 0.93200 0.78118
 H3580 H 0.94265 0.94230 0.74634
 H3581 H 0.92668 0.92613 0.71545
 H3582 H 0.90011 0.89956 0.71921
 H3583 H 0.85546 0.85512 0.76569
 H3584 H 0.84497 0.84478 0.80056
 H3585 H 0.86095 0.86094 0.83144
 H3586 H 0.88751 0.88756 0.82767
 C3587 C 0.89855 0.39716 0.29491
 C3588 C 0.88368 0.38160 0.29949
 C3589 C 0.87326 0.37117 0.28304
 C3590 C 0.87778 0.37635 0.26212
 C3591 C 0.89263 0.39192 0.25755
 C3592 C 0.90304 0.40235 0.27399
 C3593 C 0.91782 0.41787 0.26904
 C3594 C 0.92218 0.42294 0.24843
 C3595 C 0.91200 0.41274 0.23235
 C3596 C 0.89739 0.39740 0.23676
 C3597 C 0.85845 0.35569 0.28799
 C3598 C 0.85405 0.35066 0.30861
 C3599 C 0.86424 0.36085 0.32469
 C3600 C 0.87890 0.37615 0.32028
 C3601 C 0.86724 0.36570 0.24525
 C3602 C 0.85873 0.35707 0.23095
 C3603 C 0.90921 0.40783 0.31168
 C3604 C 0.91801 0.41667 0.32565
 H3605 H 0.92615 0.42624 0.28100
 H3606 H 0.93351 0.43485 0.24492
 H3607 H 0.91544 0.41674 0.21636
 H3608 H 0.88990 0.38991 0.22371
 H3609 H 0.85012 0.34734 0.27601
 H3610 H 0.84267 0.33879 0.31214
 H3611 H 0.86075 0.35690 0.34068
 H3612 H 0.88641 0.38364 0.33332
 C3613 C 0.39810 0.89789 0.29434
 C3614 C 0.40269 0.90312 0.27345
 C3615 C 0.39247 0.89260 0.25694
 C3616 C 0.37770 0.87692 0.26141
 C3617 C 0.37309 0.87170 0.28230
 C3618 C 0.38332 0.88222 0.29882
 C3619 C 0.37846 0.87672 0.31958
 C3620 C 0.36391 0.86128 0.32390
 C3621 C 0.35391 0.85102 0.30775
 C3622 C 0.35838 0.85610 0.28716
 C3623 C 0.39735 0.89809 0.23619
 C3624 C 0.41189 0.91353 0.23187
 C3625 C 0.42187 0.92382 0.24801
 C3626 C 0.41739 0.91874 0.26860
 C3627 C 0.36730 0.86623 0.24447
 C3628 C 0.35888 0.85760 0.23013
 C3629 C 0.40861 0.90860 0.31119
 C3630 C 0.41732 0.91743 0.32523
 H3631 H 0.38581 0.88428 0.33267
 H3632 H 0.36035 0.85730 0.33986
 H3633 H 0.34261 0.83905 0.31120
 H3634 H 0.35020 0.84768 0.27513
 H3635 H 0.39001 0.89054 0.22308
 H3636 H 0.41542 0.91753 0.21590
 H3637 H 0.43314 0.93581 0.24458
 H3638 H 0.42556 0.92718 0.28062
 C3639 C 0.39776 0.39668 0.79648
 C3640 C 0.38263 0.38135 0.80104
 C3641 C 0.37234 0.37082 0.78458
 C3642 C 0.37723 0.37567 0.76366
 C3643 C 0.39240 0.39095 0.75911
 C3644 C 0.40268 0.40148 0.77557
 C3645 C 0.41777 0.41669 0.77064
 C3646 C 0.42259 0.42135 0.75003
 C3647 C 0.41255 0.41104 0.73394
 C3648 C 0.39761 0.39602 0.73833
 C3649 C 0.35729 0.35558 0.78951
 C3650 C 0.35253 0.35086 0.81012
 C3651 C 0.36260 0.36115 0.82622
 C3652 C 0.37748 0.37624 0.82183
 C3653 C 0.36668 0.36506 0.74676
 C3654 C 0.35812 0.35656 0.73243
 C3655 C 0.40829 0.40746 0.81327
 C3656 C 0.41705 0.41637 0.82722
 H3657 H 0.42601 0.42514 0.78261
 H3658 H 0.43418 0.43301 0.74654
 H3659 H 0.41635 0.41471 0.71795
 H3660 H 0.39023 0.38844 0.72526
 H3661 H 0.34906 0.34715 0.77751
 H3662 H 0.34099 0.33916 0.81363
 H3663 H 0.35885 0.35742 0.84220
 H3664 H 0.38489 0.38382 0.83488
 C3665 C 1.10242 0.89767 1.20529
 C3666 C 1.10830 0.87668 1.20228
 C3667 C 1.11926 0.86588 1.21818
 C3668 C 1.12414 0.87611 1.23704
 C3669 C 1.11825 0.89711 1.24004
 C3670 C 1.10736 0.90792 1.22412
 C3671 C 1.10164 0.92889 1.22747
 C3672 C 1.10652 0.93890 1.24603
 C3673 C 1.11716 0.92834 1.26161
 C3674 C 1.12300 0.90769 1.25873
 C3675 C 1.12509 0.84495 1.21475
 C3676 C 1.12017 0.83494 1.19618
 C3677 C 1.10932 0.84544 1.18071
 C3678 C 1.10345 0.86608 1.18362
 C3679 C 1.13503 0.86504 1.25345
 C3680 C 1.14396 0.85609 1.26731
 C3681 C 1.09149 0.90876 1.18893
 C3682 C 1.08259 0.91779 1.17512
 H3683 H 1.09334 0.93776 1.21581
 H3684 H 1.10202 0.95494 1.24834
 H3685 H 1.12091 0.93619 1.27601
 H3686 H 1.13128 0.90015 1.27130
 H3687 H 1.13350 0.83612 1.22635
 H3688 H 1.12475 0.81893 1.19380
 H3689 H 1.10539 0.83756 1.16638
 H3690 H 1.09506 0.87359 1.17111
 C3691 C 1.10133 0.39832 0.70626
 C3692 C 1.10315 0.37639 0.70584
 C3693 C 1.11389 0.36586 0.72206
 C3694 C 1.12264 0.37733 0.73867
 C3695 C 1.12085 0.39926 0.73908
 C3696 C 1.11018 0.40979 0.72281
 C3697 C 1.10863 0.43172 0.72353
 C3698 C 1.11737 0.44294 0.73985
 C3699 C 1.12779 0.43266 0.75576
 C3700 C 1.12955 0.41108 0.75546
 C3701 C 1.11560 0.34395 0.72123
 C3702 C 1.10691 0.33274 0.70487
 C3703 C 1.09630 0.34301 0.68908
 C3704 C 1.09444 0.36458 0.68945
 C3705 C 1.13334 0.36660 0.75544
 C3706 C 1.14216 0.35785 0.76950
 C3707 C 1.09062 0.40907 0.68953
 C3708 C 1.08191 0.41783 0.67542
 H3709 H 1.10067 0.44041 0.71151
 H3710 H 1.11605 0.45971 0.74014
 H3711 H 1.13454 0.44144 0.76841
 H3712 H 1.13783 0.40379 0.76818
 H3713 H 1.12368 0.33526 0.73318
 H3714 H 1.10839 0.31599 0.70445
 H3715 H 1.08952 0.33423 0.67644
 H3716 H 1.08609 0.37187 0.67677
 C3717 C 0.59951 0.89954 0.70690
 C3718 C 0.60125 0.90935 0.72651
 C3719 C 0.61147 0.89901 0.74317
 C3720 C 0.61989 0.87891 0.74012
 C3721 C 0.61808 0.86905 0.72052
 C3722 C 0.60790 0.87942 0.70385
 C3723 C 0.60641 0.86932 0.68436
 C3724 C 0.61472 0.84954 0.68143
 C3725 C 0.62455 0.83934 0.69776
 C3726 C 0.62627 0.84892 0.71712
 C3727 C 0.61304 0.90917 0.76262
 C3728 C 0.60474 0.92896 0.76553
 C3729 C 0.59475 0.93906 0.74923
 C3730 C 0.59298 0.92945 0.72991
 C3731 C 0.63051 0.86845 0.75710
 C3732 C 0.63930 0.85989 0.77129
 C3733 C 0.58925 0.91016 0.68981
 C3734 C 0.58087 0.91879 0.67543
 H3735 H 0.59886 0.87658 0.67119
 H3736 H 0.61353 0.84210 0.66639
 H3737 H 0.63092 0.82395 0.69541
 H3738 H 0.63409 0.84038 0.72934
 H3739 H 0.62067 0.90194 0.77577
 H3740 H 0.60608 0.93649 0.78051
 H3741 H 0.58833 0.95443 0.75157
 H3742 H 0.58506 0.93793 0.71771
 C3743 C 0.60328 0.39661 1.20470
 C3744 C 0.60884 0.37550 1.20188
 C3745 C 0.61991 0.36478 1.21775
 C3746 C 0.62523 0.37519 1.23639
 C3747 C 0.61967 0.39630 1.23919
 C3748 C 0.60867 0.40704 1.22329
 C3749 C 0.60329 0.42814 1.22644
 C3750 C 0.60863 0.43834 1.24478
 C3751 C 0.61937 0.42785 1.26033
 C3752 C 0.62487 0.40708 1.25766
 C3753 C 0.62542 0.34372 1.21452
 C3754 C 0.62004 0.33352 1.19618
 C3755 C 0.60908 0.34396 1.18074
 C3756 C 0.60356 0.36472 1.18345
 C3757 C 0.63622 0.36419 1.25279
 C3758 C 0.64521 0.35526 1.26663
 C3759 C 0.59225 0.40764 1.18836
 C3760 C 0.58329 0.41667 1.17458
 H3761 H 0.59492 0.43696 1.21480
 H3762 H 0.60439 0.45448 1.24693
 H3763 H 0.62348 0.43585 1.27454
 H3764 H 0.63324 0.39960 1.27020
 H3765 H 0.63390 0.33494 1.22611
 H3766 H 0.62437 0.31741 1.19396
 H3767 H 0.60483 0.33593 1.16659
 H3768 H 0.59508 0.37217 1.17096
 C3769 C 0.90089 1.09852 1.20795
 C3770 C 0.90963 1.09749 1.22813
 C3771 C 0.89949 1.10745 1.24502
 C3772 C 0.88066 1.11834 1.24162
 C3773 C 0.87187 1.11927 1.22146
 C3774 C 0.88205 1.10938 1.20455
 C3775 C 0.87306 1.11067 1.18449
 C3776 C 0.85454 1.12140 1.18124
 C3777 C 0.84450 1.13094 1.19780
 C3778 C 0.85300 1.12996 1.21771
 C3779 C 0.90853 1.10625 1.26506
 C3780 C 0.92706 1.09551 1.26830
 C3781 C 0.93697 1.08577 1.25178
 C3782 C 0.92843 1.08670 1.23188
 C3783 C 0.87045 1.12866 1.25885
 C3784 C 0.86211 1.13720 1.27327
 C3785 C 0.91129 1.08848 1.19067
 C3786 C 0.91972 1.08028 1.17611
 H3787 H 0.88024 1.10344 1.17112
 H3788 H 0.84794 1.12231 1.16578
 H3789 H 0.83006 1.13918 1.19520
 H3790 H 0.84464 1.13767 1.23010
 H3791 H 0.90141 1.11356 1.27841
 H3792 H 0.93376 1.09474 1.28373
 H3793 H 0.95136 1.07744 1.25438
 H3794 H 0.93672 1.07888 1.21952
 C3795 C 0.89957 0.59954 0.70679
 C3796 C 0.91137 0.60915 0.72267
 C3797 C 0.90114 0.61955 0.73925
 C3798 C 0.87916 0.62029 0.73984
 C3799 C 0.86735 0.61067 0.72395
 C3800 C 0.87759 0.60022 0.70741
 C3801 C 0.86546 0.59065 0.69175
 C3802 C 0.84384 0.59140 0.69241
 C3803 C 0.83383 0.60172 0.70851
 C3804 C 0.84537 0.61126 0.72416
 C3805 C 0.91327 0.62905 0.75494
 C3806 C 0.93489 0.62831 0.75427
 C3807 C 0.94490 0.61815 0.73805
 C3808 C 0.93335 0.60865 0.72239
 C3809 C 0.86873 0.63081 0.75685
 C3810 C 0.86020 0.63950 0.77109
 C3811 C 0.91002 0.58926 0.68965
 C3812 C 0.91854 0.58091 0.67522
 H3813 H 0.87253 0.58245 0.67888
 H3814 H 0.83481 0.58394 0.68034
 H3815 H 0.81703 0.60232 0.70890
 H3816 H 0.83688 0.61907 0.73639
 H3817 H 0.90621 0.63716 0.76786
 H3818 H 0.94393 0.63566 0.76639
 H3819 H 0.96169 0.61761 0.73760
 H3820 H 0.94184 0.60092 0.71011
 C3821 C 0.39796 1.10237 0.70507
 C3822 C 0.40839 1.10619 0.72407
 C3823 C 0.39803 1.11692 0.74036
 C3824 C 0.37729 1.12375 0.73757
 C3825 C 0.36690 1.12003 0.71852
 C3826 C 0.37725 1.10927 0.70224
 C3827 C 0.36651 1.10563 0.68337
 C3828 C 0.34614 1.11243 0.68066
 C3829 C 0.33605 1.12305 0.69653
 C3830 C 0.34624 1.12684 0.71528
 C3831 C 0.40881 1.12059 0.75920
 C3832 C 0.42921 1.11384 0.76187
 C3833 C 0.43932 1.10333 0.74595
 C3834 C 0.42910 1.09950 0.72724
 C3835 C 0.36663 1.13439 0.75439
 C3836 C 0.35797 1.14308 0.76855
 C3837 C 0.40860 1.09157 0.68836
 C3838 C 0.41732 1.08280 0.67430
 H3839 H 0.37371 1.09748 0.67055
 H3840 H 0.33813 1.10942 0.66617
 H3841 H 0.32024 1.12835 0.69431
 H3842 H 0.33775 1.13515 0.72717
 H3843 H 0.40162 1.12872 0.77204
 H3844 H 0.43721 1.11679 0.77637
 H3845 H 0.45516 1.09812 0.74810
 H3846 H 0.43761 1.09125 0.71532
 C3847 C 0.40237 0.59732 1.20951
 C3848 C 0.41215 0.59671 1.22922
 C3849 C 0.40253 0.60637 1.24660
 C3850 C 0.38319 0.61659 1.24416
 C3851 C 0.37339 0.61716 1.22445
 C3852 C 0.38303 0.60755 1.20706
 C3853 C 0.37301 0.60848 1.18747
 C3854 C 0.35400 0.61857 1.18514
 C3855 C 0.34449 0.62783 1.20217
 C3856 C 0.35401 0.62720 1.22163
 C3857 C 0.41262 0.60556 1.26615
 C3858 C 0.43165 0.59548 1.26847
 C3859 C 0.44105 0.58604 1.25148
 C3860 C 0.43149 0.58661 1.23204
 C3861 C 0.37346 0.62654 1.26191
 C3862 C 0.36549 0.63475 1.27675
 C3863 C 0.41222 0.58752 1.19174
 C3864 C 0.42027 0.57951 1.17685
 H3865 H 0.37977 0.60146 1.17376
 H3866 H 0.34661 0.61922 1.17003
 H3867 H 0.32968 0.63558 1.20029
 H3868 H 0.34604 0.63468 1.23441
 H3869 H 0.40593 0.61267 1.27984
 H3870 H 0.43913 0.59500 1.28354
 H3871 H 0.45584 0.57824 1.25336
 H3872 H 0.43942 0.57905 1.21929
 C3873 C 1.10179 1.20581 0.89886
 C3874 C 1.09394 1.22634 0.89973
 C3875 C 1.10455 1.24266 0.88928
 C3876 C 1.12296 1.23834 0.87804
 C3877 C 1.13086 1.21782 0.87723
 C3878 C 1.12020 1.20149 0.88762
 C3879 C 1.12830 1.18106 0.88645
 C3880 C 1.14641 1.17689 0.87535
 C3881 C 1.15691 1.19288 0.86533
 C3882 C 1.14929 1.21313 0.86618
 C3883 C 1.09637 1.26306 0.89035
 C3884 C 1.07825 1.26722 0.90144
 C3885 C 1.06788 1.25126 0.91165
 C3886 C 1.07556 1.23103 0.91086
 C3887 C 1.13369 1.25503 0.86726
 C3888 C 1.14241 1.26903 0.85839
 C3889 C 1.09094 1.18913 0.90948
 C3890 C 1.08211 1.17509 0.91817
 H3891 H 1.12074 1.16811 0.89405
 H3892 H 1.15235 1.16117 0.87458
 H3893 H 1.17103 1.18956 0.85682
 H3894 H 1.15798 1.22504 0.85809
 H3895 H 1.10387 1.27600 0.88267
 H3896 H 1.07222 1.28291 0.90210
 H3897 H 1.05381 1.25457 0.92024
 H3898 H 1.06694 1.21913 0.91905
 C3899 C 1.10262 0.70456 0.39695
 C3900 C 1.11294 0.72024 0.40840
 C3901 C 1.12372 0.73633 0.39777
 C3902 C 1.12414 0.73663 0.37575
 C3903 C 1.11393 0.72088 0.36430
 C3904 C 1.10308 0.70483 0.37493
 C3905 C 1.09289 0.68932 0.36314
 C3906 C 1.09341 0.68964 0.34148
 C3907 C 1.10412 0.70526 0.33109
 C3908 C 1.11427 0.72075 0.34229
 C3909 C 1.13391 0.75184 0.40957
 C3910 C 1.13347 0.75146 0.43123
 C3911 C 1.12294 0.73572 0.44161
 C3912 C 1.11277 0.72025 0.43041
 C3913 C 1.13486 0.75329 0.36493
 C3914 C 1.14365 0.76729 0.35610
 C3915 C 1.09178 0.68801 0.40780
 C3916 C 1.08294 0.67408 0.41668
 H3917 H 1.08441 0.67680 0.37050
 H3918 H 1.08554 0.67765 0.33270
 H3919 H 1.10458 0.70536 0.31426
 H3920 H 1.12237 0.73259 0.33352
 H3921 H 1.14233 0.76439 0.40220
 H3922 H 1.14135 0.76344 0.44000
 H3923 H 1.12265 0.73549 0.45844
 H3924 H 1.10478 0.70833 0.43919
 C3925 C 0.60374 1.20398 0.39647
 C3926 C 0.60191 1.22481 0.40327
 C3927 C 0.61266 1.24088 0.39258
 C3928 C 0.62515 1.23602 0.37512
 C3929 C 0.62701 1.21518 0.36834
 C3930 C 0.61632 1.19910 0.37908
 C3931 C 0.61853 1.17836 0.37210
 C3932 C 0.63094 1.17364 0.35500
 C3933 C 0.64128 1.18937 0.34441
 C3934 C 0.63940 1.20993 0.35094
 C3935 C 0.61061 1.26159 0.39970
 C3936 C 0.59831 1.26628 0.41689
 C3937 C 0.58780 1.25057 0.42734
 C3938 C 0.58952 1.23005 0.42067
 C3939 C 0.63606 1.25250 0.36419
 C3940 C 0.64496 1.26638 0.35528
 C3941 C 0.59272 1.18757 0.40737
 C3942 C 0.58370 1.17379 0.41631
 H3943 H 0.61073 1.16559 0.37977
 H3944 H 0.63246 1.15769 0.34987
 H3945 H 0.65080 1.18563 0.33106
 H3946 H 0.64777 1.22163 0.34223
 H3947 H 0.61848 1.27435 0.39210
 H3948 H 0.59693 1.28220 0.42213
 H3949 H 0.57827 1.25430 0.44068
 H3950 H 0.58105 1.21837 0.42932
 C3951 C 0.60109 0.70612 0.90041
 C3952 C 0.59220 0.72625 0.90038
 C3953 C 0.60261 0.74289 0.89027
 C3954 C 0.62187 0.73931 0.88025
 C3955 C 0.63080 0.71919 0.88033
 C3956 C 0.62035 0.70253 0.89039
 C3957 C 0.62949 0.68252 0.89011
 C3958 C 0.64841 0.67906 0.88019
 C3959 C 0.65871 0.69538 0.87050
 C3960 C 0.65007 0.71525 0.87050
 C3961 C 0.59340 0.76287 0.89043
 C3962 C 0.57444 0.76630 0.90030
 C3963 C 0.56426 0.75002 0.91018
 C3964 C 0.57296 0.73019 0.91027
 C3965 C 0.63238 0.75630 0.86975
 C3966 C 0.64091 0.77052 0.86104
 C3967 C 0.59046 0.68910 0.91071
 C3968 C 0.58184 0.67477 0.91915
 H3969 H 0.62211 0.66933 0.89749
 H3970 H 0.65512 0.66364 0.88004
 H3971 H 0.67346 0.69262 0.86290
 H3972 H 0.65864 0.72744 0.86271
 H3973 H 0.60072 0.77604 0.88295
 H3974 H 0.56762 0.78168 0.90027
 H3975 H 0.54954 0.75277 0.91782
 H3976 H 0.56445 0.71802 0.91816
 C3977 C 0.90252 1.20967 1.09839
 C3978 C 0.91175 1.21884 1.11613
 C3979 C 0.90150 1.23539 1.12657
 C3980 C 0.88207 1.24266 1.11919
 C3981 C 0.87297 1.23366 1.10130
 C3982 C 0.88322 1.21712 1.09086
 C3983 C 0.87378 1.20831 1.07306
 C3984 C 0.85475 1.21564 1.06576
 C3985 C 0.84472 1.23181 1.07596
 C3986 C 0.85365 1.24078 1.09353
 C3987 C 0.91099 1.24426 1.14432
 C3988 C 0.93008 1.23700 1.15154
 C3989 C 0.94010 1.22082 1.14134
 C3990 C 0.93111 1.21178 1.12383
 C3991 C 0.87138 1.25926 1.13011
 C3992 C 0.86243 1.27300 1.13917
 C3993 C 0.91256 1.19221 1.08825
 C3994 C 0.92065 1.17744 1.08007
 H3995 H 0.88099 1.19571 1.06458
 H3996 H 0.84776 1.20872 1.05211
 H3997 H 0.82994 1.23745 1.07022
 H3998 H 0.84526 1.25333 1.10092
 H3999 H 0.90380 1.25687 1.15278
 H4000 H 0.93713 1.24397 1.16513
 H4001 H 0.95493 1.21524 1.14701
 H4002 H 0.93952 1.19925 1.11642
 C4003 C 0.90707 0.71360 0.59200
 C4004 C 0.91758 0.72404 0.60826
 C4005 C 0.90851 0.74192 0.61752
 C4006 C 0.88899 0.74924 0.61046
 C4007 C 0.87861 0.73894 0.59402
 C4008 C 0.88768 0.72107 0.58476
 C4009 C 0.87699 0.71099 0.56839
 C4010 C 0.85787 0.71836 0.56138
 C4011 C 0.84899 0.73583 0.57043
 C4012 C 0.85917 0.74607 0.58657
 C4013 C 0.91926 0.75206 0.63381
 C4014 C 0.93844 0.74475 0.64074
 C4015 C 0.94731 0.72727 0.63168
 C4016 C 0.93707 0.71697 0.61562
 C4017 C 0.87948 0.76719 0.62025
 C4018 C 0.87149 0.78202 0.62842
 C4019 C 0.91595 0.69489 0.58309
 C4020 C 0.92315 0.67916 0.57593
 H4021 H 0.88328 0.69735 0.56083
 H4022 H 0.84990 0.71046 0.54884
 H4023 H 0.83413 0.74150 0.56493
 H4024 H 0.85164 0.75961 0.59311
 H4025 H 0.91299 0.76572 0.64134
 H4026 H 0.94645 0.75269 0.65321
 H4027 H 0.96221 0.72166 0.63711
 H4028 H 0.94461 0.70346 0.60905
 C4029 C 0.39821 1.20595 0.60120
 C4030 C 0.40916 1.22425 0.60651
 C4031 C 0.39882 1.24057 0.61721
 C4032 C 0.37759 1.23848 0.62257
 C4033 C 0.36666 1.22011 0.61738
 C4034 C 0.37699 1.20382 0.60661
 C4035 C 0.36572 1.18565 0.60149
 C4036 C 0.34487 1.18361 0.60687
 C4037 C 0.33480 1.19947 0.61751
 C4038 C 0.34549 1.21756 0.62272
 C4039 C 0.41012 1.25873 0.62234
 C4040 C 0.43101 1.26069 0.61707
 C4041 C 0.44112 1.24473 0.60662
 C4042 C 0.43039 1.22669 0.60135
 C4043 C 0.36699 1.25531 0.63323
 C4044 C 0.35836 1.26948 0.64194
 C4045 C 0.40881 1.18921 0.59042
 C4046 C 0.41751 1.17513 0.58168
 H4047 H 0.37288 1.17286 0.59325
 H4048 H 0.33647 1.16964 0.60275
 H4049 H 0.31861 1.19776 0.62172
 H4050 H 0.33699 1.22949 0.63097
 H4051 H 0.40295 1.27156 0.63049
 H4052 H 0.43942 1.27467 0.62113
 H4053 H 0.45735 1.24632 0.60256
 H4054 H 0.43892 1.21470 0.59321
 C4055 C 0.40245 0.70912 1.09871
 C4056 C 0.38338 0.71678 1.09085
 C4057 C 0.37314 0.73346 1.10108
 C4058 C 0.38204 0.74239 1.11912
 C4059 C 0.40124 0.73487 1.12685
 C4060 C 0.41147 0.71819 1.11661
 C4061 C 0.43061 0.71090 1.12465
 C4062 C 0.43940 0.71985 1.14230
 C4063 C 0.42940 0.73615 1.15232
 C4064 C 0.41053 0.74364 1.14475
 C4065 C 0.35404 0.74079 1.09297
 C4066 C 0.34531 0.73190 1.07526
 C4067 C 0.35533 0.71560 1.06525
 C4068 C 0.37414 0.70806 1.07288
 C4069 C 0.37138 0.75917 1.12981
 C4070 C 0.36249 0.77307 1.13870
 C4071 C 0.41249 0.69156 1.08872
 C4072 C 0.42058 0.67674 1.08062
 H4073 H 0.43899 0.69826 1.11739
 H4074 H 0.45406 0.71409 1.14824
 H4075 H 0.43629 0.74304 1.16603
 H4076 H 0.40334 0.75635 1.15308
 H4077 H 0.34567 0.75345 1.10020
 H4078 H 0.33070 0.73770 1.06926
 H4079 H 0.34849 0.70875 1.05149
 H4080 H 0.38135 0.69537 1.06454
 C4081 C 0.90035 0.79364 0.89988
 C4082 C 0.89766 0.77428 0.91000
 C4083 C 0.88731 0.75779 0.89961
 C4084 C 0.87971 0.76075 0.87914
 C4085 C 0.88239 0.78011 0.86901
 C4086 C 0.89277 0.79660 0.87940
 C4087 C 0.89534 0.81580 0.86894
 C4088 C 0.88783 0.81864 0.84880
 C4089 C 0.87760 0.80256 0.83868
 C4090 C 0.87488 0.78347 0.84858
 C4091 C 0.88479 0.73858 0.91006
 C4092 C 0.89228 0.73576 0.93021
 C4093 C 0.90240 0.75189 0.94036
 C4094 C 0.90510 0.77097 0.93046
 C4095 C 0.86921 0.74384 0.86854
 C4096 C 0.86056 0.72963 0.85994
 C4097 C 0.91072 0.81057 0.91056
 C4098 C 0.91917 0.82483 0.91924
 H4099 H 0.90317 0.82879 0.87616
 H4100 H 0.88998 0.83341 0.84102
 H4101 H 0.87176 0.80487 0.82305
 H4102 H 0.86685 0.77142 0.84007
 H4103 H 0.87702 0.72557 0.90282
 H4104 H 0.89021 0.72098 0.93797
 H4105 H 0.90819 0.74962 0.95601
 H4106 H 0.91308 0.78305 0.93899
 C4107 C 0.90241 0.29219 0.40075
 C4108 C 0.89920 0.27326 0.41149
 C4109 C 0.88891 0.25654 0.40142
 C4110 C 0.88188 0.25887 0.38067
 C4111 C 0.88508 0.27782 0.36993
 C4112 C 0.89544 0.29452 0.37999
 C4113 C 0.89857 0.31328 0.36891
 C4114 C 0.89164 0.31549 0.34849
 C4115 C 0.88141 0.29921 0.33870
 C4116 C 0.87814 0.28054 0.34921
 C4117 C 0.88587 0.23774 0.41248
 C4118 C 0.89280 0.23555 0.43290
 C4119 C 0.90285 0.25191 0.44275
 C4120 C 0.90606 0.27059 0.43224
 C4121 C 0.87146 0.24173 0.37040
 C4122 C 0.86290 0.22734 0.36205
 C4123 C 0.91266 0.30937 0.41111
 C4124 C 0.92095 0.32386 0.41954
 H4125 H 0.90643 0.32640 0.37586
 H4126 H 0.89426 0.32991 0.34023
 H4127 H 0.87601 0.30103 0.32285
 H4128 H 0.87014 0.26830 0.34093
 H4129 H 0.87812 0.22457 0.40549
 H4130 H 0.89035 0.22107 0.44112
 H4131 H 0.90820 0.25013 0.45861
 H4132 H 0.91397 0.28286 0.44056
 C4133 C 0.40282 0.79109 0.40126
 C4134 C 0.40090 0.77210 0.41222
 C4135 C 0.39133 0.75473 0.40253
 C4136 C 0.38370 0.75646 0.38193
 C4137 C 0.38557 0.77547 0.37098
 C4138 C 0.39519 0.79283 0.38066
 C4139 C 0.39695 0.81165 0.36938
 C4140 C 0.38941 0.81329 0.34912
 C4141 C 0.37994 0.79634 0.33969
 C4142 C 0.37801 0.77761 0.35041
 C4143 C 0.38960 0.73590 0.41381
 C4144 C 0.39710 0.73429 0.43408
 C4145 C 0.40644 0.75128 0.44355
 C4146 C 0.40837 0.77001 0.43283
 C4147 C 0.37395 0.73867 0.37207
 C4148 C 0.36589 0.72378 0.36407
 C4149 C 0.41251 0.80887 0.41118
 C4150 C 0.42044 0.82377 0.41927
 H4151 H 0.40418 0.82528 0.37605
 H4152 H 0.39096 0.82777 0.34070
 H4153 H 0.37408 0.79771 0.32396
 H4154 H 0.37056 0.76485 0.34241
 H4155 H 0.38245 0.72225 0.40711
 H4156 H 0.39565 0.71977 0.44247
 H4157 H 0.41224 0.74995 0.45931
 H4158 H 0.41575 0.78279 0.44086
 C4159 C 0.39858 0.29455 0.89828
 C4160 C 0.39338 0.27603 0.90898
 C4161 C 0.38268 0.25987 0.89842
 C4162 C 0.37721 0.26232 0.87722
 C4163 C 0.38227 0.28091 0.86656
 C4164 C 0.39303 0.29705 0.87711
 C4165 C 0.39801 0.31544 0.86610
 C4166 C 0.39250 0.31784 0.84528
 C4167 C 0.38186 0.30213 0.83500
 C4168 C 0.37679 0.28382 0.84543
 C4169 C 0.37765 0.24150 0.90946
 C4170 C 0.38302 0.23918 0.93033
 C4171 C 0.39347 0.25499 0.94065
 C4172 C 0.39864 0.27324 0.93018
 C4173 C 0.36657 0.24563 0.86639
 C4174 C 0.35784 0.23156 0.85763
 C4175 C 0.40942 0.31110 0.90910
 C4176 C 0.41825 0.32503 0.91797
 H4177 H 0.40624 0.32814 0.87342
 H4178 H 0.39651 0.33198 0.83708
 H4179 H 0.37754 0.30411 0.81884
 H4180 H 0.36854 0.27201 0.83677
 H4181 H 0.36950 0.22877 0.90212
 H4182 H 0.37903 0.22504 0.93854
 H4183 H 0.39760 0.25312 0.95687
 H4184 H 0.40678 0.28509 0.93888
 C4185 C 1.10426 0.79668 1.10426
 C4186 C 1.11979 0.80148 1.11912
 C4187 C 1.13045 0.78519 1.12962
 C4188 C 1.12553 0.76421 1.12520
 C4189 C 1.11003 0.75943 1.11032
 C4190 C 1.09937 0.77571 1.09983
 C4191 C 1.08394 0.77053 1.08502
 C4192 C 1.07918 0.74987 1.08069
 C4193 C 1.08960 0.73395 1.09095
 C4194 C 1.10484 0.73858 1.10562
 C4195 C 1.14589 0.79036 1.14440
 C4196 C 1.15066 0.81103 1.14871
 C4197 C 1.14024 0.82695 1.13845
 C4198 C 1.12498 0.82232 1.12380
 C4199 C 1.13632 0.74749 1.13592
 C4200 C 1.14499 0.73331 1.14463
 C4201 C 1.09334 0.81329 1.09352
 C4202 C 1.08432 0.82711 1.08461
 H4203 H 1.07540 0.78236 1.07664
 H4204 H 1.06735 0.74619 1.06931
 H4205 H 1.08585 0.71792 1.08753
 H4206 H 1.11249 0.72564 1.11318
 H4207 H 1.15442 0.77851 1.15278
 H4208 H 1.16250 0.81473 1.16007
 H4209 H 1.14400 0.84298 1.14186
 H4210 H 1.11731 0.83524 1.11622
 C4211 C 1.10054 0.29337 0.60105
 C4212 C 1.09937 0.27310 0.59261
 C4213 C 1.10944 0.25629 0.60285
 C4214 C 1.12058 0.25984 0.62150
 C4215 C 1.12177 0.28012 0.62994
 C4216 C 1.11177 0.29694 0.61966
 C4217 C 1.11329 0.31710 0.62831
 C4218 C 1.12437 0.32054 0.64660
 C4219 C 1.13402 0.30407 0.65675
 C4220 C 1.13280 0.28406 0.64857
 C4221 C 1.10807 0.23617 0.59408
 C4222 C 1.09708 0.23276 0.57572
 C4223 C 1.08724 0.24920 0.56571
 C4224 C 1.08832 0.26917 0.57399
 C4225 C 1.13084 0.24263 0.63194
 C4226 C 1.13927 0.22821 0.64046
 C4227 C 1.09022 0.31053 0.59063
 C4228 C 1.08176 0.32493 0.58210
 H4229 H 1.10600 0.33041 0.62104
 H4230 H 1.12545 0.33607 0.65296
 H4231 H 1.14251 0.30682 0.67101
 H4232 H 1.14061 0.27175 0.65699
 H4233 H 1.11546 0.22288 0.60128
 H4234 H 1.09620 0.21727 0.56923
 H4235 H 1.07873 0.24647 0.55146
 H4236 H 1.08042 0.28146 0.56563
 C4237 C 0.59647 0.79046 0.59673
 C4238 C 0.60480 0.77454 0.58405
 C4239 C 0.61415 0.75681 0.59337
 C4240 C 0.61514 0.75513 0.61530
 C4241 C 0.60689 0.77110 0.62798
 C4242 C 0.59749 0.78881 0.61867
 C4243 C 0.58929 0.80455 0.63166
 C4244 C 0.59034 0.80284 0.65324
 C4245 C 0.59963 0.78558 0.66235
 C4246 C 0.60782 0.76983 0.64994
 C4247 C 0.62235 0.74108 0.58037
 C4248 C 0.62137 0.74283 0.55879
 C4249 C 0.61224 0.76017 0.54968
 C4250 C 0.60402 0.77589 0.56209
 C4251 C 0.62455 0.73693 0.62479
 C4252 C 0.63231 0.72174 0.63255
 C4253 C 0.58703 0.80862 0.58721
 C4254 C 0.57931 0.82381 0.57941
 H4255 H 0.58195 0.81830 0.62530
 H4256 H 0.58393 0.81498 0.66294
 H4257 H 0.60047 0.78437 0.67912
 H4258 H 0.61485 0.75669 0.65775
 H4259 H 0.62962 0.72729 0.58672
 H4260 H 0.62774 0.73066 0.54909
 H4261 H 0.61152 0.76146 0.53291
 H4262 H 0.59707 0.78908 0.55428
 C4263 C 0.60517 0.29684 1.10482
 C4264 C 0.60045 0.27577 1.10064
 C4265 C 0.61118 0.25971 1.11140
 C4266 C 0.62657 0.26480 1.12629
 C4267 C 0.63130 0.28587 1.13048
 C4268 C 0.62057 0.30194 1.11971
 C4269 C 0.62557 0.32288 1.12416
 C4270 C 0.64073 0.32781 1.13882
 C4271 C 0.65122 0.31211 1.14933
 C4272 C 0.64661 0.29135 1.14528
 C4273 C 0.60617 0.23876 1.10693
 C4274 C 0.59102 0.23383 1.09227
 C4275 C 0.58054 0.24954 1.08175
 C4276 C 0.58513 0.27029 1.08583
 C4277 C 0.63746 0.24830 1.13725
 C4278 C 0.64625 0.23429 1.14611
 C4279 C 0.59419 0.31322 1.09380
 C4280 C 0.58511 0.32686 1.08468
 H4281 H 0.61783 0.33565 1.11639
 H4282 H 0.64436 0.34391 1.14203
 H4283 H 0.66298 0.31603 1.16070
 H4284 H 0.65517 0.27967 1.15387
 H4285 H 0.61389 0.22598 1.11469
 H4286 H 0.58740 0.21773 1.08905
 H4287 H 0.56879 0.24563 1.07037
 H4288 H 0.57654 0.28195 1.07726
 C4289 C 1.20546 1.10244 0.89862
 C4290 C 1.20519 1.12440 0.89711
 C4291 C 1.22147 1.13493 0.88653
 C4292 C 1.23799 1.12344 0.87762
 C4293 C 1.23820 1.10147 0.87905
 C4294 C 1.22188 1.09095 0.88957
 C4295 C 1.22241 1.06899 0.89077
 C4296 C 1.23860 1.05774 0.88182
 C4297 C 1.25455 1.06802 0.87155
 C4298 C 1.25444 1.08963 0.87013
 C4299 C 1.22079 1.15687 0.88511
 C4300 C 1.20454 1.16811 0.89396
 C4301 C 1.18870 1.15783 0.90443
 C4302 C 1.18891 1.13623 0.90599
 C4303 C 1.25485 1.13418 0.86715
 C4304 C 1.26899 1.14292 0.85851
 C4305 C 1.18874 1.09169 0.90928
 C4306 C 1.17467 1.08290 0.91798
 H4307 H 1.21035 1.06029 0.89860
 H4308 H 1.23875 1.04095 0.88288
 H4309 H 1.26709 1.05921 0.86462
 H4310 H 1.26719 1.09692 0.86195
 H4311 H 1.23278 1.16556 0.87716
 H4312 H 1.20423 1.18488 0.89271
 H4313 H 1.17614 1.16663 0.91133
 H4314 H 1.17619 1.12894 0.91422
 C4315 C 1.21188 0.59599 0.40511
 C4316 C 1.22702 0.58364 0.39501
 C4317 C 1.24449 0.59323 0.38551
 C4318 C 1.24672 0.61511 0.38616
 C4319 C 1.23166 0.62745 0.39641
 C4320 C 1.21419 0.61786 0.40591
 C4321 C 1.19930 0.63052 0.41600
 C4322 C 1.20160 0.65204 0.41668
 C4323 C 1.21869 0.66141 0.40739
 C4324 C 1.23360 0.64934 0.39736
 C4325 C 1.25939 0.58056 0.37546
 C4326 C 1.25709 0.55904 0.37481
 C4327 C 1.24000 0.54967 0.38410
 C4328 C 1.22508 0.56175 0.39410
 C4329 C 1.26437 0.62495 0.37615
 C4330 C 1.27896 0.63317 0.36777
 C4331 C 1.19374 0.58630 0.41434
 C4332 C 1.17846 0.57851 0.42184
 H4333 H 1.18575 0.62396 0.42348
 H4334 H 1.19007 0.66148 0.42445
 H4335 H 1.22041 0.67813 0.40797
 H4336 H 1.24662 0.65735 0.39039
 H4337 H 1.27296 0.58713 0.36801
 H4338 H 1.26864 0.54958 0.36706
 H4339 H 1.23829 0.53295 0.38355
 H4340 H 1.21207 0.55376 0.40111
 C4341 C 0.70872 1.09841 0.40261
 C4342 C 0.70781 1.12005 0.39868
 C4343 C 0.72474 1.13015 0.38877
 C4344 C 0.74246 1.11855 0.38283
 C4345 C 0.74335 1.09690 0.38673
 C4346 C 0.72642 1.08680 0.39665
 C4347 C 0.72762 1.06514 0.40034
 C4348 C 0.74505 1.05378 0.39437
 C4349 C 0.76162 1.06365 0.38468
 C4350 C 0.76087 1.08496 0.38086
 C4351 C 0.72348 1.15179 0.38498
 C4352 C 0.70596 1.16311 0.39076
 C4353 C 0.68938 1.15323 0.40042
 C4354 C 0.69022 1.13195 0.40440
 C4355 C 0.75971 1.12883 0.37260
 C4356 C 0.77407 1.13728 0.36407
 C4357 C 0.69131 1.08809 0.41252
 C4358 C 0.67662 1.07977 0.42057
 H4359 H 0.71512 1.05676 0.40783
 H4360 H 0.74571 1.03722 0.39729
 H4361 H 0.77513 1.05476 0.38007
 H4362 H 0.77413 1.09194 0.37326
 H4363 H 0.73598 1.16017 0.37750
 H4364 H 0.70524 1.17965 0.38772
 H4365 H 0.67579 1.16209 0.40487
 H4366 H 0.67694 1.12498 0.41198
 C4367 C 0.70709 0.60022 0.90065
 C4368 C 0.72328 0.58860 0.89137
 C4369 C 0.73977 0.59901 0.88102
 C4370 C 0.73995 0.62100 0.88000
 C4371 C 0.72373 0.63263 0.88925
 C4372 C 0.70727 0.62221 0.89966
 C4373 C 0.69128 0.63417 0.90888
 C4374 C 0.69152 0.65579 0.90782
 C4375 C 0.70753 0.66598 0.89752
 C4376 C 0.72351 0.65461 0.88834
 C4377 C 0.75579 0.58704 0.87186
 C4378 C 0.75552 0.56542 0.87289
 C4379 C 0.73939 0.55524 0.88301
 C4380 C 0.72342 0.56661 0.89217
 C4381 C 0.75689 0.63161 0.86953
 C4382 C 0.77107 0.64023 0.86087
 C4383 C 0.69008 0.58958 0.91095
 C4384 C 0.67577 0.58093 0.91935
 H4385 H 0.67846 0.62696 0.91701
 H4386 H 0.67918 0.66470 0.91498
 H4387 H 0.70759 0.68278 0.89666
 H4388 H 0.73565 0.66323 0.88054
 H4389 H 0.76866 0.59424 0.86380
 H4390 H 0.76789 0.55651 0.86579
 H4391 H 0.73925 0.53843 0.88376
 H4392 H 0.71121 0.55799 0.89988
 C4393 C 1.20645 0.89914 1.10162
 C4394 C 1.20413 0.87801 1.10733
 C4395 C 1.22057 0.86748 1.11771
 C4396 C 1.23929 0.87813 1.12220
 C4397 C 1.24158 0.89928 1.11652
 C4398 C 1.22511 0.90982 1.10622
 C4399 C 1.22775 0.93096 1.10073
 C4400 C 1.24614 0.94140 1.10528
 C4401 C 1.26226 0.93110 1.11533
 C4402 C 1.26010 0.91028 1.12092
 C4403 C 1.21784 0.84639 1.12336
 C4404 C 1.19943 0.83596 1.11879
 C4405 C 1.18342 0.84621 1.10852
 C4406 C 1.18562 0.86700 1.10287
 C4407 C 1.25626 0.86735 1.13249
 C4408 C 1.27056 0.85866 1.14094
 C4409 C 1.18959 0.90991 1.09116
 C4410 C 1.17540 0.91867 1.08260
 H4411 H 1.21565 0.93963 1.09288
 H4412 H 1.24790 0.95757 1.10099
 H4413 H 1.27652 0.93927 1.11884
 H4414 H 1.27307 0.90296 1.12873
 H4415 H 1.22988 0.83776 1.13134
 H4416 H 1.19760 0.81983 1.12321
 H4417 H 1.16921 0.83801 1.10488
 H4418 H 1.17270 0.87431 1.09496
 C4419 C 1.20784 0.40062 0.60008
 C4420 C 1.20935 0.37869 0.59908
 C4421 C 1.22590 0.36827 0.60938
 C4422 C 1.24085 0.37984 0.62062
 C4423 C 1.23936 0.40178 0.62158
 C4424 C 1.22281 0.41220 0.61128
 C4425 C 1.22162 0.43413 0.61251
 C4426 C 1.23637 0.44544 0.62359
 C4427 C 1.25255 0.43526 0.63366
 C4428 C 1.25411 0.41368 0.63272
 C4429 C 1.22705 0.34633 0.60819
 C4430 C 1.21226 0.33501 0.59717
 C4431 C 1.19607 0.34520 0.58711
 C4432 C 1.19455 0.36678 0.58799
 C4433 C 1.25769 0.36918 0.63122
 C4434 C 1.27167 0.36029 0.64001
 C4435 C 1.19069 0.41119 0.58988
 C4436 C 1.17620 0.41967 0.58156
 H4437 H 1.20931 0.44274 0.60494
 H4438 H 1.23522 0.46220 0.62437
 H4439 H 1.26397 0.44412 0.64225
 H4440 H 1.26697 0.40646 0.64082
 H4441 H 1.23935 0.33770 0.61576
 H4442 H 1.21337 0.31824 0.59643
 H4443 H 1.18461 0.33633 0.57857
 H4444 H 1.18168 0.37398 0.57990
 C4445 C 0.71319 0.90737 0.59308
 C4446 C 0.71862 0.88663 0.58816
 C4447 C 0.73653 0.87746 0.59729
 C4448 C 0.74890 0.88909 0.61127
 C4449 C 0.74360 0.90991 0.61601
 C4450 C 0.72568 0.91908 0.60688
 C4451 C 0.72064 0.93989 0.61190
 C4452 C 0.73297 0.95133 0.62553
 C4453 C 0.75049 0.94236 0.63445
 C4454 C 0.75582 0.92190 0.62981
 C4455 C 0.74161 0.85667 0.59219
 C4456 C 0.72935 0.84528 0.57847
 C4457 C 0.71183 0.85424 0.56955
 C4458 C 0.70645 0.87467 0.57429
 C4459 C 0.76693 0.87955 0.62093
 C4460 C 0.78182 0.87151 0.62897
 C4461 C 0.69452 0.91648 0.58428
 C4462 C 0.67882 0.92378 0.57713
 H4463 H 0.70717 0.94755 0.60534
 H4464 H 0.72890 0.96723 0.62919
 H4465 H 0.76002 0.95131 0.64503
 H4466 H 0.76960 0.91560 0.63713
 H4467 H 0.75510 0.84902 0.59872
 H4468 H 0.73346 0.82940 0.57475
 H4469 H 0.70235 0.84532 0.55891
 H4470 H 0.69269 0.88097 0.56694
 C4471 C 0.70671 0.39854 1.10163
 C4472 C 0.72528 0.40926 1.10646
 C4473 C 0.74161 0.39879 1.11704
 C4474 C 0.73926 0.37766 1.12276
 C4475 C 0.72063 0.36697 1.11804
 C4476 C 0.70433 0.37742 1.10738
 C4477 C 0.68591 0.36637 1.10268
 C4478 C 0.68365 0.34560 1.10838
 C4479 C 0.69953 0.33542 1.11894
 C4480 C 0.71785 0.34590 1.12373
 C4481 C 0.76004 0.40984 1.12168
 C4482 C 0.76227 0.43063 1.11603
 C4483 C 0.74629 0.44087 1.10569
 C4484 C 0.72797 0.43039 1.10092
 C4485 C 0.75612 0.36693 1.13326
 C4486 C 0.77034 0.35822 1.14182
 C4487 C 0.68996 0.40927 1.09095
 C4488 C 0.67586 0.41802 1.08226
 H4489 H 0.67310 0.37362 1.09454
 H4490 H 0.66951 0.33736 1.10456
 H4491 H 0.69765 0.31930 1.12340
 H4492 H 0.72978 0.33731 1.13193
 H4493 H 0.77291 0.40256 1.12972
 H4494 H 0.77647 0.43884 1.11971
 H4495 H 0.74809 0.45702 1.10135
 H4496 H 0.71599 0.43901 1.09285
 C4497 C 0.79548 1.10242 1.10308
 C4498 C 0.77940 1.11227 1.09172
 C4499 C 0.76335 1.12304 1.10242
 C4500 C 0.76349 1.12391 1.12443
 C4501 C 0.77960 1.11410 1.13579
 C4502 C 0.79561 1.10327 1.12509
 C4503 C 0.81148 1.09349 1.13680
 C4504 C 0.81157 1.09442 1.15844
 C4505 C 0.79601 1.10513 1.16890
 C4506 C 0.78015 1.11486 1.15778
 C4507 C 0.74746 1.13278 1.09070
 C4508 C 0.74742 1.13191 1.06905
 C4509 C 0.76311 1.12138 1.05860
 C4510 C 0.77895 1.11165 1.06972
 C4511 C 0.74696 1.13476 1.13534
 C4512 C 0.73312 1.14370 1.14427
 C4513 C 0.81205 1.09169 1.09215
 C4514 C 0.82602 1.08296 1.08324
 H4515 H 0.82396 1.08502 1.12938
 H4516 H 0.82382 1.08683 1.16715
 H4517 H 0.79622 1.10589 1.18571
 H4518 H 0.76837 1.12298 1.16661
 H4519 H 0.73493 1.14117 1.09812
 H4520 H 0.73515 1.13945 1.06034
 H4521 H 0.76300 1.12075 1.04178
 H4522 H 0.79081 1.10364 1.06089
 C4523 C 0.79032 0.59652 0.59591
 C4524 C 0.77112 0.59672 0.58518
 C4525 C 0.75334 0.60582 0.59460
 C4526 C 0.75488 0.61465 0.61470
 C4527 C 0.77409 0.61446 0.62543
 C4528 C 0.79188 0.60540 0.61599
 C4529 C 0.81096 0.60553 0.62695
 C4530 C 0.81242 0.61434 0.64668
 C4531 C 0.79500 0.62307 0.65597
 C4532 C 0.77602 0.62318 0.64554
 C4533 C 0.73432 0.60586 0.58355
 C4534 C 0.73290 0.59718 0.56376
 C4535 C 0.75028 0.58829 0.55455
 C4536 C 0.76921 0.58802 0.56506
 C4537 C 0.73673 0.62400 0.62427
 C4538 C 0.72159 0.63176 0.63210
 C4539 C 0.80846 0.58719 0.58633
 C4540 C 0.82365 0.57950 0.57854
 H4541 H 0.82494 0.59889 0.62039
 H4542 H 0.82716 0.61441 0.65478
 H4543 H 0.79621 0.62984 0.67132
 H4544 H 0.76291 0.63019 0.65339
 H4545 H 0.72036 0.61259 0.59006
 H4546 H 0.71823 0.59736 0.55553
 H4547 H 0.74911 0.58158 0.53917
 H4548 H 0.78231 0.58094 0.55724
 C4549 C 0.29408 1.10192 0.60094
 C4550 C 0.29826 1.11775 0.61564
 C4551 C 0.28158 1.12782 0.62605
 C4552 C 0.26082 1.12197 0.62171
 C4553 C 0.25666 1.10610 0.60706
 C4554 C 0.27333 1.09605 0.59663
 C4555 C 0.26878 1.08024 0.58204
 C4556 C 0.24833 1.07450 0.57788
 C4557 C 0.23203 1.08430 0.58808
 C4558 C 0.23605 1.09993 0.60250
 C4559 C 0.28613 1.14362 0.64064
 C4560 C 0.30659 1.14931 0.64486
 C4561 C 0.32289 1.13945 0.63471
 C4562 C 0.31888 1.12384 0.62026
 C4563 C 0.24371 1.13226 0.63222
 C4564 C 0.22925 1.14059 0.64072
 C4565 C 0.31109 1.09162 0.59030
 C4566 C 0.32527 1.08306 0.58156
 H4567 H 0.28093 1.07216 0.57371
 H4568 H 0.24513 1.06237 0.56669
 H4569 H 0.21617 1.07978 0.58480
 H4570 H 0.22283 1.10708 0.61002
 H4571 H 0.27396 1.15172 0.64894
 H4572 H 0.30980 1.16143 0.65606
 H4573 H 0.33875 1.14393 0.63805
 H4574 H 0.33209 1.11663 0.61278
 C4575 C 0.29461 0.60124 1.10240
 C4576 C 0.29448 0.60210 1.12441
 C4577 C 0.27832 0.61289 1.13491
 C4578 C 0.26232 0.62267 1.12336
 C4579 C 0.26244 0.62179 1.10135
 C4580 C 0.27864 0.61106 1.09084
 C4581 C 0.27845 0.61043 1.06884
 C4582 C 0.26271 0.62012 1.05754
 C4583 C 0.24686 0.63059 1.06780
 C4584 C 0.24665 0.63147 1.08945
 C4585 C 0.27860 0.61364 1.15691
 C4586 C 0.29436 0.60396 1.16821
 C4587 C 0.31008 0.59331 1.15794
 C4588 C 0.31025 0.59238 1.13630
 C4589 C 0.24567 0.63352 1.13407
 C4590 C 0.23173 0.64245 1.14285
 C4591 C 0.31133 0.59054 1.09167
 C4592 C 0.32544 0.58187 1.08291
 H4593 H 0.29044 0.60248 1.06015
 H4594 H 0.26280 0.61948 1.04072
 H4595 H 0.23467 0.63809 1.05895
 H4596 H 0.23401 0.63982 1.09672
 H4597 H 0.26668 0.62169 1.16560
 H4598 H 0.29436 0.60470 1.18503
 H4599 H 0.32225 0.58576 1.16680
 H4600 H 0.32285 0.58395 1.12903
 C4601 C 0.79420 0.89979 0.89952
 C4602 C 0.77495 0.89689 0.90974
 C4603 C 0.75842 0.88660 0.89933
 C4604 C 0.76126 0.87925 0.87877
 C4605 C 0.78052 0.88214 0.86856
 C4606 C 0.79704 0.89247 0.87896
 C4607 C 0.81614 0.89522 0.86841
 C4608 C 0.81886 0.88796 0.84819
 C4609 C 0.80274 0.87780 0.83805
 C4610 C 0.78375 0.87489 0.84803
 C4611 C 0.73931 0.88389 0.90986
 C4612 C 0.73662 0.89111 0.93010
 C4613 C 0.75279 0.90115 0.94028
 C4614 C 0.77177 0.90406 0.93029
 C4615 C 0.74433 0.86877 0.86818
 C4616 C 0.73011 0.86012 0.85960
 C4617 C 0.81113 0.91018 0.91018
 C4618 C 0.82538 0.91866 0.91886
 H4619 H 0.82915 0.90302 0.87565
 H4620 H 0.83355 0.89026 0.84035
 H4621 H 0.80495 0.87216 0.82235
 H4622 H 0.77166 0.86693 0.83950
 H4623 H 0.72627 0.87616 0.90261
 H4624 H 0.72190 0.88890 0.93793
 H4625 H 0.75062 0.90673 0.95601
 H4626 H 0.78388 0.91196 0.93885
 C4627 C 0.79654 0.39708 0.39651
 C4628 C 0.79938 0.39126 0.37546
 C4629 C 0.78338 0.38044 0.36475
 C4630 C 0.76458 0.37563 0.37510
 C4631 C 0.76174 0.38147 0.39615
 C4632 C 0.77777 0.39221 0.40688
 C4633 C 0.77459 0.39785 0.42790
 C4634 C 0.75609 0.39303 0.43805
 C4635 C 0.74041 0.38253 0.42756
 C4636 C 0.74311 0.37678 0.40686
 C4637 C 0.78664 0.37468 0.34376
 C4638 C 0.80514 0.37954 0.33362
 C4639 C 0.82071 0.39024 0.34405
 C4640 C 0.81798 0.39602 0.36474
 C4641 C 0.74808 0.36483 0.36413
 C4642 C 0.73419 0.35597 0.35521
 C4643 C 0.81299 0.40791 0.40750
 C4644 C 0.82686 0.41674 0.41647
 H4645 H 0.78633 0.40603 0.43672
 H4646 H 0.75391 0.39746 0.45413
 H4647 H 0.72607 0.37882 0.43551
 H4648 H 0.73047 0.36862 0.39938
 H4649 H 0.77495 0.36638 0.33499
 H4650 H 0.80738 0.37502 0.31756
 H4651 H 0.83499 0.39412 0.33606
 H4652 H 0.83057 0.40429 0.37219
 C4653 C 0.29529 0.89838 0.39676
 C4654 C 0.29824 0.89202 0.37589
 C4655 C 0.28222 0.88112 0.36531
 C4656 C 0.26328 0.87675 0.37561
 C4657 C 0.26033 0.88312 0.39648
 C4658 C 0.27639 0.89395 0.40709
 C4659 C 0.27309 0.90014 0.42794
 C4660 C 0.25445 0.89577 0.43804
 C4661 C 0.23875 0.88518 0.42768
 C4662 C 0.24157 0.87889 0.40714
 C4663 C 0.28559 0.87481 0.34449
 C4664 C 0.30423 0.87923 0.33440
 C4665 C 0.31983 0.89002 0.34470
 C4666 C 0.31698 0.89633 0.36522
 C4667 C 0.24676 0.86588 0.36476
 C4668 C 0.23284 0.85698 0.35592
 C4669 C 0.31179 0.90924 0.40765
 C4670 C 0.32570 0.91807 0.41655
 H4671 H 0.28484 0.90842 0.43665
 H4672 H 0.25218 0.90062 0.45399
 H4673 H 0.22430 0.88181 0.43559
 H4674 H 0.22890 0.87068 0.39976
 H4675 H 0.27389 0.86643 0.33582
 H4676 H 0.30656 0.87430 0.31848
 H4677 H 0.33422 0.89355 0.33675
 H4678 H 0.32960 0.90464 0.37258
 C4679 C 0.29491 0.39842 0.89858
 C4680 C 0.27603 0.39401 0.90894
 C4681 C 0.25980 0.38356 0.89824
 C4682 C 0.26256 0.37753 0.87724
 C4683 C 0.28148 0.38187 0.86690
 C4684 C 0.29768 0.39240 0.87758
 C4685 C 0.31640 0.39671 0.86687
 C4686 C 0.31906 0.39074 0.84622
 C4687 C 0.30328 0.38031 0.83582
 C4688 C 0.28466 0.37591 0.84596
 C4689 C 0.24105 0.37935 0.90893
 C4690 C 0.23841 0.38530 0.92959
 C4691 C 0.25429 0.39552 0.94005
 C4692 C 0.27292 0.39986 0.92992
 C4693 C 0.24587 0.36699 0.86632
 C4694 C 0.23182 0.35831 0.85750
 C4695 C 0.31155 0.40897 0.90953
 C4696 C 0.32558 0.41760 0.91844
 H4697 H 0.32915 0.40475 0.87430
 H4698 H 0.33343 0.39426 0.83825
 H4699 H 0.30547 0.37564 0.81980
 H4700 H 0.27281 0.36781 0.83720
 H4701 H 0.22824 0.37142 0.90147
 H4702 H 0.22397 0.38197 0.93752
 H4703 H 0.25216 0.40012 0.95609
 H4704 H 0.28482 0.40784 0.93872
   
