data_POSCAR
  _audit_creation_date              2014-09-24
  _audit_creation_method            'ToBaCCo'
  _symmetry_space_group_name_H-M    'P1'
  _symmetry_Int_Tables_number       1
  _symmetry_cell_setting            triclinic
  loop_
  _symmetry_equiv_pos_as_xyz
 x,y,z
_cell_length_a 68.5535
_cell_length_b 68.5861
_cell_length_c 68.9517
_cell_angle_alpha 90.653500
_cell_angle_beta 89.797900
_cell_angle_gamma 88.423700
loop_
  _atom_site_label
  _atom_site_type_symbol
  _atom_site_fract_x
  _atom_site_fract_y
  _atom_site_fract_z
C1 C 0.12959 -0.02075 0.25151
 C2 C 0.12101 -0.00211 0.25465
 C3 C 0.11037 0.00185 0.27173
 C4 C 0.10815 -0.01266 0.28561
 C5 C 0.11637 -0.03130 0.28218
 C6 C 0.12724 -0.03570 0.26520
 C7 C 0.12270 0.01331 0.24002
 C8 C 0.11345 0.01144 0.22196
 C9 C 0.11255 0.02720 0.20894
 C10 C 0.12204 0.04448 0.21417
 C11 C 0.13210 0.04615 0.23176
 C12 C 0.13216 0.03058 0.24475
 H13 H 0.13748 -0.02363 0.23810
 H14 H 0.10389 0.01626 0.27424
 H15 H 0.10575 -0.00181 0.21885
 H16 H 0.13934 0.03198 0.25866
 H17 H 0.11483 -0.04216 0.29333
 H18 H 0.12263 0.05644 0.20408
 C19 C 0.36892 -0.03445 0.74563
 C20 C 0.37486 -0.01526 0.74292
 C21 C 0.38214 -0.00983 0.72475
 C22 C 0.38347 -0.02346 0.70937
 C23 C 0.37736 -0.04260 0.71233
 C24 C 0.36991 -0.04817 0.73037
 C25 C 0.37227 -0.00073 0.75883
 C26 C 0.37946 -0.00475 0.77748
 C27 C 0.37548 0.00807 0.79328
 C28 C 0.36381 0.02494 0.78982
 C29 C 0.35687 0.02928 0.77120
 C30 C 0.36136 0.01653 0.75571
 H31 H 0.36304 -0.03859 0.75956
 H32 H 0.38652 0.00504 0.72253
 H33 H 0.38753 -0.01834 0.77965
 H34 H 0.35561 0.01962 0.74142
 H35 H 0.37811 -0.05309 0.70047
 H36 H 0.36091 0.03553 0.80130
 C37 C 0.86789 0.46402 0.25053
 C38 C 0.87435 0.48314 0.24843
 C39 C 0.88201 0.48889 0.23051
 C40 C 0.88320 0.47569 0.21477
 C41 C 0.87672 0.45661 0.21716
 C42 C 0.86890 0.45071 0.23490
 C43 C 0.87173 0.49739 0.26460
 C44 C 0.87858 0.49298 0.28330
 C45 C 0.87459 0.50570 0.29920
 C46 C 0.86331 0.52283 0.29579
 C47 C 0.85684 0.52759 0.27713
 C48 C 0.86127 0.51495 0.26155
 H49 H 0.86158 0.45964 0.26419
 H50 H 0.88669 0.50373 0.22872
 H51 H 0.88643 0.47926 0.28543
 H52 H 0.85586 0.51840 0.24720
 H53 H 0.87739 0.44642 0.20502
 H54 H 0.86045 0.53332 0.30737
 C55 C 0.63191 0.47390 0.75282
 C56 C 0.62311 0.49241 0.75596
 C57 C 0.61313 0.49648 0.77340
 C58 C 0.61187 0.48218 0.78770
 C59 C 0.62076 0.46375 0.78445
 C60 C 0.63075 0.45947 0.76704
 C61 C 0.62360 0.50731 0.74075
 C62 C 0.61299 0.50470 0.72362
 C63 C 0.61268 0.51909 0.70931
 C64 C 0.62326 0.53613 0.71222
 C65 C 0.63396 0.53892 0.72933
 C66 C 0.63402 0.52442 0.74358
 H67 H 0.63942 0.47068 0.73925
 H68 H 0.60623 0.51072 0.77575
 H69 H 0.60488 0.49150 0.72151
 H70 H 0.64202 0.52650 0.75695
 H71 H 0.61975 0.45265 0.79544
 H72 H 0.62309 0.54726 0.70118
 C73 C 0.24802 0.13119 1.02684
 C74 C 0.24355 0.12297 1.00873
 C75 C 0.22479 0.11592 1.00537
 C76 C 0.21011 0.11765 1.01973
 C77 C 0.21482 0.12657 1.03755
 C78 C 0.23361 0.13324 1.04120
 C79 C 0.25796 0.12342 0.99276
 C80 C 0.27696 0.11570 0.99521
 C81 C 0.29121 0.11738 0.98050
 C82 C 0.28573 0.12682 0.96319
 C83 C 0.26676 0.13445 0.96060
 C84 C 0.25295 0.13274 0.97542
 H85 H 0.26236 0.13696 1.02937
 H86 H 0.22152 0.10997 0.99117
 H87 H 0.28070 0.10915 1.00897
 H88 H 0.23837 0.13895 0.97358
 H89 H 0.20415 0.12764 1.04916
 H90 H 0.29602 0.12797 0.95134
 C91 C 0.76079 0.36902 1.02320
 C92 C 0.76468 0.37950 1.00626
 C93 C 0.78334 0.38683 1.00323
 C94 C 0.79829 0.38324 1.01656
 C95 C 0.79459 0.37193 1.03284
 C96 C 0.77591 0.36458 1.03645
 C97 C 0.75013 0.38119 0.99057
 C98 C 0.73206 0.39105 0.99347
 C99 C 0.71919 0.39411 0.97775
 C100 C 0.72429 0.38577 0.95956
 C101 C 0.74181 0.37514 0.95682
 C102 C 0.75490 0.37334 0.97221
 H103 H 0.74645 0.36304 1.02511
 H104 H 0.78631 0.39505 0.99026
 H105 H 0.72882 0.39743 1.00760
 H106 H 0.76859 0.36529 0.97009
 H107 H 0.80620 0.36979 1.04328
 H108 H 0.71427 0.38681 0.94747
 C109 C 0.26160 0.86936 0.52754
 C110 C 0.26597 0.88021 0.51104
 C111 C 0.28474 0.88758 0.50873
 C112 C 0.29954 0.88383 0.52248
 C113 C 0.29499 0.87214 0.53849
 C114 C 0.27619 0.86503 0.54114
 C115 C 0.25151 0.88258 0.49534
 C116 C 0.23354 0.89243 0.49870
 C117 C 0.22025 0.89507 0.48342
 C118 C 0.22461 0.88696 0.46511
 C119 C 0.24224 0.87663 0.46174
 C120 C 0.25584 0.87487 0.47680
 H121 H 0.24719 0.86349 0.52929
 H122 H 0.28787 0.89554 0.49565
 H123 H 0.23022 0.89860 0.51291
 H124 H 0.26952 0.86691 0.47429
 H125 H 0.30571 0.86922 0.54966
 H126 H 0.21419 0.88867 0.45341
 C127 C 0.74487 0.62999 0.52789
 C128 C 0.74069 0.62303 0.50916
 C129 C 0.72205 0.61612 0.50507
 C130 C 0.70751 0.61641 0.51943
 C131 C 0.71172 0.62380 0.53793
 C132 C 0.73030 0.63070 0.54227
 C133 C 0.75535 0.62419 0.49350
 C134 C 0.77414 0.61590 0.49575
 C135 C 0.78844 0.61762 0.48111
 C136 C 0.78327 0.62774 0.46410
 C137 C 0.76445 0.63581 0.46164
 C138 C 0.75059 0.63407 0.47640
 H139 H 0.75910 0.63577 0.53096
 H140 H 0.71878 0.61077 0.49062
 H141 H 0.77766 0.60870 0.50924
 H142 H 0.73608 0.64048 0.47462
 H143 H 0.70053 0.62400 0.54908
 H144 H 0.79364 0.62890 0.45231
 C145 C -0.03217 0.25578 0.12871
 C146 C -0.01400 0.25773 0.11970
 C147 C -0.00942 0.27540 0.11096
 C148 C -0.02244 0.29166 0.11172
 C149 C -0.04035 0.28961 0.12148
 C150 C -0.04533 0.27181 0.12982
 C151 C 0.00154 0.24256 0.12154
 C152 C 0.00084 0.22473 0.11135
 C153 C 0.01735 0.21187 0.11076
 C154 C 0.03407 0.21703 0.12136
 C155 C 0.03441 0.23432 0.13232
 C156 C 0.01817 0.24705 0.13224
 H157 H -0.03557 0.24226 0.13579
 H158 H 0.00501 0.27668 0.10473
 H159 H -0.01197 0.22173 0.10278
 H160 H 0.01864 0.26080 0.14013
 H161 H -0.05098 0.30159 0.12204
 H162 H 0.04664 0.20714 0.12204
 C163 C -0.02255 0.74216 0.36699
 C164 C -0.00468 0.73760 0.37586
 C165 C -0.00113 0.71884 0.38323
 C166 C -0.01562 0.70475 0.38216
 C167 C -0.03344 0.70955 0.37315
 C168 C -0.03694 0.72813 0.36544
 C169 C 0.01029 0.75252 0.37709
 C170 C 0.00694 0.76943 0.38840
 C171 C 0.02065 0.78426 0.38867
 C172 C 0.03774 0.78197 0.37754
 C173 C 0.04120 0.76514 0.36615
 C174 C 0.02742 0.75040 0.36603
 H175 H -0.02517 0.75661 0.36115
 H176 H 0.01266 0.71545 0.39022
 H177 H -0.00648 0.77118 0.39669
 H178 H 0.02990 0.73739 0.35719
 H179 H -0.04446 0.69861 0.37163
 H180 H 0.04832 0.79343 0.37760
 C181 C 0.47629 0.24480 0.86789
 C182 C 0.49482 0.24031 0.87537
 C183 C 0.49931 0.22136 0.88184
 C184 C 0.48516 0.20677 0.88136
 C185 C 0.46684 0.21156 0.87313
 C186 C 0.46239 0.23032 0.86629
 C187 C 0.50972 0.25539 0.87593
 C188 C 0.50673 0.27236 0.88725
 C189 C 0.52050 0.28731 0.88724
 C190 C 0.53740 0.28459 0.87564
 C191 C 0.54053 0.26760 0.86442
 C192 C 0.52662 0.25305 0.86461
 H193 H 0.47301 0.25932 0.86253
 H194 H 0.51352 0.21856 0.88816
 H195 H 0.49326 0.27405 0.89541
 H196 H 0.52891 0.23990 0.85592
 H197 H 0.45598 0.20054 0.87130
 H198 H 0.54862 0.29540 0.87565
 C199 C 0.46969 0.75767 0.63288
 C200 C 0.48790 0.75898 0.62373
 C201 C 0.49307 0.77648 0.61504
 C202 C 0.48027 0.79278 0.61557
 C203 C 0.46236 0.79155 0.62533
 C204 C 0.45695 0.77406 0.63399
 C205 C 0.50216 0.74255 0.62416
 C206 C 0.49910 0.72542 0.61337
 C207 C 0.51352 0.71049 0.61289
 C208 C 0.53050 0.71237 0.62393
 C209 C 0.53347 0.72924 0.63504
 C210 C 0.51942 0.74446 0.63481
 H211 H 0.46581 0.74420 0.63980
 H212 H 0.50717 0.77742 0.60799
 H213 H 0.48600 0.72409 0.60475
 H214 H 0.52174 0.75767 0.64318
 H215 H 0.45237 0.80408 0.62577
 H216 H 0.54157 0.70077 0.62362
 C217 C 0.87016 1.01955 0.75182
 C218 C 0.87747 1.00093 0.75675
 C219 C 0.88461 0.99771 0.77560
 C220 C 0.88418 1.01282 0.78972
 C221 C 0.87673 1.03132 0.78426
 C222 C 0.86999 1.03485 0.76543
 C223 C 0.87767 0.98489 0.74209
 C224 C 0.88458 0.98814 0.72321
 C225 C 0.88430 0.97339 0.70875
 C226 C 0.87687 0.95513 0.71390
 C227 C 0.87001 0.95160 0.73273
 C228 C 0.87049 0.96656 0.74675
 H229 H 0.86471 1.02219 0.73732
 H230 H 0.88998 0.98323 0.77928
 H231 H 0.88952 1.00255 0.71982
 H232 H 0.86509 0.96401 0.76126
 H233 H 0.87680 1.04346 0.79442
 H234 H 0.87677 0.94326 0.70345
 C235 C 0.36762 0.52743 0.25267
 C236 C 0.37389 0.50828 0.25703
 C237 C 0.38036 0.50407 0.27589
 C238 C 0.38060 0.51872 0.29029
 C239 C 0.37432 0.53774 0.28563
 C240 C 0.36786 0.54227 0.26687
 C241 C 0.37386 0.49275 0.24183
 C242 C 0.38053 0.49655 0.22299
 C243 C 0.38063 0.48196 0.20852
 C244 C 0.37392 0.46340 0.21310
 C245 C 0.36718 0.45929 0.23183
 C246 C 0.36721 0.47406 0.24612
 H247 H 0.36260 0.53082 0.23818
 H248 H 0.38532 0.48939 0.27935
 H249 H 0.38572 0.51089 0.21959
 H250 H 0.36200 0.47103 0.26060
 H251 H 0.37454 0.54911 0.29665
 H252 H 0.37394 0.45208 0.20201
 C253 C 0.63219 1.02102 0.24429
 C254 C 0.62190 1.00383 0.24161
 C255 C 0.61236 1.00041 0.22402
 C256 C 0.61278 1.01419 0.20912
 C257 C 0.62328 1.03132 0.21191
 C258 C 0.63311 1.03481 0.22944
 C259 C 0.62105 0.98938 0.25724
 C260 C 0.61247 0.99450 0.27513
 C261 C 0.61154 0.98088 0.29030
 C262 C 0.61979 0.96200 0.28696
 C263 C 0.62836 0.95673 0.26904
 C264 C 0.62879 0.97051 0.25420
 H265 H 0.63945 1.02364 0.25798
 H266 H 0.60453 0.98703 0.22200
 H267 H 0.60704 1.00935 0.27719
 H268 H 0.63520 0.96660 0.24025
 H269 H 0.62375 1.04198 0.20046
 H270 H 0.61910 0.95100 0.29804
 C271 C 0.13285 0.52283 0.75011
 C272 C 0.12203 0.50600 0.74735
 C273 C 0.11174 0.50330 0.73007
 C274 C 0.11190 0.51749 0.71556
 C275 C 0.12292 0.53427 0.71842
 C276 C 0.13352 0.53701 0.73562
 C277 C 0.12106 0.49139 0.76274
 C278 C 0.11181 0.49618 0.78036
 C279 C 0.11044 0.48226 0.79501
 C280 C 0.11876 0.46352 0.79195
 C281 C 0.12816 0.45855 0.77435
 C282 C 0.12909 0.47259 0.75972
 H283 H 0.14062 0.52491 0.76361
 H284 H 0.10350 0.49017 0.72804
 H285 H 0.10562 0.51075 0.78261
 H286 H 0.13603 0.46893 0.74596
 H287 H 0.12317 0.54528 0.70729
 H288 H 0.11789 0.45278 0.80329
 C289 C 0.75504 0.86529 -0.02057
 C290 C 0.75262 0.87596 -0.00327
 C291 C 0.73542 0.88701 0.00007
 C292 C 0.72056 0.88746 -0.01388
 C293 C 0.72309 0.87661 -0.03116
 C294 C 0.74026 0.86541 -0.03457
 C295 C 0.76771 0.87464 0.01175
 C296 C 0.78601 0.88264 0.00870
 C297 C 0.80097 0.88070 0.02266
 C298 C 0.79693 0.87014 0.03967
 C299 C 0.77863 0.86190 0.04264
 C300 C 0.76404 0.86441 0.02868
 H301 H 0.76837 0.85673 -0.02301
 H302 H 0.73350 0.89496 0.01365
 H303 H 0.78859 0.88967 -0.00501
 H304 H 0.74984 0.85819 0.03086
 H305 H 0.71159 0.87674 -0.04191
 H306 H 0.80774 0.86854 0.05096
 C307 C 0.25189 0.36725 0.47878
 C308 C 0.24749 0.37601 0.49678
 C309 C 0.22862 0.38369 0.50041
 C310 C 0.21414 0.38269 0.48611
 C311 C 0.21876 0.37384 0.46815
 C312 C 0.23753 0.36595 0.46446
 C313 C 0.26226 0.37572 0.51224
 C314 C 0.28069 0.38351 0.50919
 C315 C 0.29509 0.38234 0.52364
 C316 C 0.29084 0.37289 0.54112
 C317 C 0.27254 0.36463 0.54406
 C318 C 0.25825 0.36642 0.52968
 H319 H 0.26638 0.36107 0.47611
 H320 H 0.22516 0.39013 0.51448
 H321 H 0.28385 0.39023 0.49542
 H322 H 0.24409 0.36012 0.53185
 H323 H 0.20763 0.37284 0.45709
 H324 H 0.30183 0.37167 0.55233
 C325 C 0.25229 0.63856 -0.02434
 C326 C 0.25697 0.62972 -0.00663
 C327 C 0.27575 0.62152 -0.00394
 C328 C 0.28981 0.62194 -0.01881
 C329 C 0.28487 0.63090 -0.03645
 C330 C 0.26621 0.63940 -0.03928
 C331 C 0.24240 0.62963 0.00928
 C332 C 0.22355 0.62273 0.00598
 C333 C 0.20929 0.62326 0.02084
 C334 C 0.21461 0.63078 0.03917
 C335 C 0.23344 0.63747 0.04272
 C336 C 0.24725 0.63691 0.02769
 H337 H 0.23785 0.64502 -0.02637
 H338 H 0.27942 0.61494 0.00983
 H339 H 0.21998 0.61758 -0.00844
 H340 H 0.26177 0.64220 0.03029
 H341 H 0.29563 0.63144 -0.04795
 H342 H 0.20433 0.63095 0.05111
 C343 C 0.75339 0.13889 0.46865
 C344 C 0.75792 0.13003 0.48628
 C345 C 0.77648 0.12142 0.48903
 C346 C 0.79082 0.12151 0.47424
 C347 C 0.78587 0.13076 0.45660
 C348 C 0.76733 0.13954 0.45379
 C349 C 0.74353 0.13083 0.50226
 C350 C 0.72497 0.12305 0.49979
 C351 C 0.71110 0.12421 0.51486
 C352 C 0.71601 0.13354 0.53238
 C353 C 0.73444 0.14165 0.53489
 C354 C 0.74818 0.14007 0.51980
 H355 H 0.73905 0.14562 0.46664
 H356 H 0.77978 0.11540 0.50312
 H357 H 0.72134 0.11619 0.48608
 H358 H 0.76247 0.14621 0.52162
 H359 H 0.79620 0.13095 0.44472
 H360 H 0.70543 0.13458 0.54409
 C361 C 1.01785 0.75045 0.86112
 C362 C 1.00087 0.75372 0.87206
 C363 C 0.99802 0.77117 0.88250
 C364 C 1.01215 0.78575 0.88222
 C365 C 1.02920 0.78217 0.87097
 C366 C 1.03213 0.76463 0.86049
 C367 C 0.98624 0.73856 0.87307
 C368 C 0.98922 0.72277 0.88541
 C369 C 0.97553 0.70783 0.88656
 C370 C 0.95865 0.70932 0.87483
 C371 C 0.95551 0.72537 0.86254
 C372 C 0.96944 0.73991 0.86178
 H373 H 1.02004 0.73672 0.85337
 H374 H 0.98440 0.77338 0.89031
 H375 H 1.00275 0.72192 0.89346
 H376 H 0.96715 0.75244 0.85253
 H377 H 1.04071 0.79264 0.87076
 H378 H 0.94756 0.69841 0.87558
 C379 C 0.51706 0.25049 0.35973
 C380 C 0.50031 0.25341 0.37114
 C381 C 0.49770 0.27059 0.38206
 C382 C 0.51185 0.28497 0.38172
 C383 C 0.52863 0.28198 0.37017
 C384 C 0.53133 0.26475 0.35911
 C385 C 0.48552 0.23840 0.37179
 C386 C 0.48835 0.22212 0.38353
 C387 C 0.47423 0.20774 0.38439
 C388 C 0.45717 0.20980 0.37320
 C389 C 0.45426 0.22619 0.36133
 C390 C 0.46853 0.24046 0.36079
 H391 H 0.51904 0.23701 0.35150
 H392 H 0.48458 0.27277 0.39072
 H393 H 0.50166 0.22061 0.39190
 H394 H 0.46638 0.25329 0.35194
 H395 H 0.53962 0.29303 0.36981
 H396 H 0.44623 0.19871 0.37375
 C397 C 1.02867 0.24403 0.63418
 C398 C 1.01021 0.23992 0.62679
 C399 C 1.00624 0.22090 0.62059
 C400 C 1.02058 0.20576 0.62150
 C401 C 1.03902 0.21030 0.62920
 C402 C 1.04317 0.22932 0.63543
 C403 C 0.99510 0.25564 0.62520
 C404 C 0.99949 0.27311 0.61603
 C405 C 0.98545 0.28844 0.61446
 C406 C 0.96680 0.28579 0.62272
 C407 C 0.96210 0.26819 0.63173
 C408 C 0.97638 0.25317 0.63278
 H409 H 1.03179 0.25876 0.63884
 H410 H 0.99171 0.21803 0.61539
 H411 H 1.01418 0.27478 0.61060
 H412 H 0.97297 0.23949 0.63953
 H413 H 1.05062 0.19932 0.62974
 H414 H 0.95557 0.29710 0.62164
 C415 C 0.52738 0.74670 0.13558
 C416 C 0.50990 0.74223 0.12632
 C417 C 0.50701 0.72323 0.11955
 C418 C 0.52172 0.70871 0.12142
 C419 C 0.53922 0.71336 0.13079
 C420 C 0.54203 0.73230 0.13809
 C421 C 0.49475 0.75754 0.12345
 C422 C 0.49922 0.77448 0.11343
 C423 C 0.48497 0.78922 0.11070
 C424 C 0.46618 0.78705 0.11846
 C425 C 0.46148 0.77007 0.12853
 C426 C 0.47586 0.75526 0.13071
 H427 H 0.52955 0.76144 0.14085
 H428 H 0.49333 0.71987 0.11261
 H429 H 0.51383 0.77618 0.10774
 H430 H 0.47246 0.74196 0.13820
 H431 H 0.55067 0.70230 0.13239
 H432 H 0.45528 0.79861 0.11668
 O433 O -0.00257 0.94492 0.98050
 O434 O 0.00973 0.94189 1.01248
 O435 O -0.04981 0.98709 0.98731
 O436 O -0.05400 1.01823 0.99681
 O437 O -0.00685 0.99201 0.94121
 O438 O 0.02527 1.00460 0.94055
 O439 O -0.00140 1.03818 1.03897
 O440 O -0.02945 1.02087 1.04141
 O441 O 0.04491 0.99506 1.03696
 O442 O 0.05081 0.96674 1.01976
 O443 O 0.04418 1.04009 0.99650
 O444 O 0.02585 1.04707 0.96693
 O445 O 0.01300 1.05323 1.01360
 O446 O 0.00114 1.05714 0.97959
 O447 O 0.05930 1.01217 1.00680
 O448 O 0.06128 0.97806 0.99323
 O449 O 0.01787 1.00907 1.05108
 O450 O -0.01345 0.99141 1.05164
 O451 O 0.01095 0.96058 0.95508
 O452 O 0.03963 0.97969 0.95126
 O453 O -0.03457 1.00415 0.95551
 O454 O -0.03918 1.03432 0.97556
 O455 O -0.03465 0.95912 0.99744
 O456 O -0.01706 0.95697 1.02875
 Zr457 Zr -0.00561 0.96696 1.00205
 O458 O 0.01157 0.98309 1.02138
 Zr459 Zr -0.02731 1.00728 0.98507
 O460 O -0.01142 1.02491 1.00420
 Zr461 Zr 0.01312 0.98969 0.96419
 O462 O 0.03082 1.00682 0.98200
 Zr463 Zr -0.00327 1.00926 1.02900
 O464 O -0.02142 0.99234 1.01100
 Zr465 Zr 0.03713 0.99172 1.00765
 O466 O 0.02116 0.97359 0.98886
 Zr467 Zr 0.01520 1.03205 0.99125
 O468 O -0.00171 1.01611 0.97114
 O469 O -0.01295 0.98157 0.97672
 O470 O 0.02295 1.01759 1.01656
 C471 C 0.00466 0.94522 0.96324
 C472 C -0.04992 0.96909 0.99242
 C473 C -0.02475 0.99804 0.94060
 C474 C 0.00574 1.05318 1.03084
 C475 C 0.03557 1.00244 1.05161
 C476 C 0.05932 1.03020 1.00201
 H477 H 0.01466 0.97515 1.03293
 H478 H 0.04274 1.00993 0.97469
 H479 H -0.02094 0.97347 0.96801
 H480 H -0.01947 1.03661 1.00770
 H481 H -0.03986 1.01172 1.03797
 H482 H -0.05092 1.02428 1.00947
 H483 H 0.06504 0.98648 0.98236
 H484 H 0.04517 0.96948 0.95983
 H485 H -0.01286 0.99899 1.06396
 H486 H -0.02427 0.94483 1.02645
 H487 H 0.03623 1.03875 0.96085
 H488 H 0.01865 1.01760 0.94023
 H489 H 0.00136 0.93040 1.01107
 H490 H 0.04281 0.95557 1.01593
 H491 H -0.03038 1.03898 0.96529
 H492 H -0.01097 1.05978 0.98712
 O493 O 0.54077 0.53914 0.49501
 O494 O 0.52267 0.54449 0.46612
 O495 O 0.49561 0.53719 0.53866
 O496 O 0.47043 0.51868 0.54615
 O497 O 0.54303 0.49379 0.53568
 O498 O 0.54767 0.46460 0.51682
 O499 O 0.44635 0.48652 0.48715
 O500 O 0.44390 0.51678 0.50183
 O501 O 0.48776 0.49067 0.44211
 O502 O 0.51835 0.50391 0.43948
 O503 O 0.49256 0.44445 0.48015
 O504 O 0.50366 0.43949 0.51203
 O505 O 0.46148 0.45881 0.49796
 O506 O 0.48208 0.45226 0.52802
 O507 O 0.50477 0.46026 0.45422
 O508 O 0.53526 0.47957 0.45069
 O509 O 0.46024 0.50206 0.45733
 O510 O 0.45836 0.53361 0.47542
 O511 O 0.55613 0.51082 0.50398
 O512 O 0.55815 0.47771 0.49189
 O513 O 0.51583 0.50519 0.55150
 O514 O 0.48240 0.49103 0.55205
 O515 O 0.50950 0.55265 0.51330
 O516 O 0.49300 0.55426 0.48130
 Zr517 Zr 0.51151 0.53115 0.49134
 O518 O 0.49430 0.51503 0.47204
 Zr519 Zr 0.49443 0.50781 0.52962
 O520 O 0.47588 0.49142 0.51186
 Zr521 Zr 0.53393 0.49053 0.50678
 O522 O 0.51726 0.47280 0.48853
 Zr523 Zr 0.46893 0.50652 0.48635
 O524 O 0.48530 0.52413 0.50541
 Zr525 Zr 0.50869 0.48885 0.46413
 O526 O 0.52712 0.50600 0.48142
 Zr527 Zr 0.49091 0.46600 0.50222
 O528 O 0.50899 0.48148 0.52168
 O529 O 0.51988 0.51616 0.51612
 O530 O 0.48275 0.48060 0.47712
 C531 C 0.55613 0.52892 0.49934
 C532 C 0.50219 0.55247 0.53049
 C533 C 0.53392 0.49963 0.55109
 C534 C 0.44625 0.46859 0.49236
 C535 C 0.46966 0.49599 0.44215
 C536 C 0.49844 0.44496 0.46242
 H537 H 0.49120 0.52295 0.46049
 H538 H 0.52503 0.46094 0.48497
 H539 H 0.52810 0.52426 0.52459
 H540 H 0.46398 0.48852 0.51931
 H541 H 0.44770 0.52874 0.50889
 H542 H 0.45882 0.51763 0.53779
 H543 H 0.53951 0.46706 0.45654
 H544 H 0.55917 0.48454 0.47938
 H545 H 0.44517 0.53163 0.46998
 H546 H 0.49898 0.56693 0.48431
 H547 H 0.51756 0.43936 0.50816
 H548 H 0.53855 0.45884 0.52619
 H549 H 0.52718 0.55770 0.46961
 H550 H 0.52573 0.51510 0.44443
 H551 H 0.49125 0.47954 0.55382
 H552 H 0.46997 0.45899 0.53266
 O553 O 0.46565 -0.03715 0.50581
 O554 O 0.48389 -0.04246 0.47584
 O555 O 0.50839 -0.03213 0.54975
 O556 O 0.53578 -0.01517 0.55462
 O557 O 0.46330 0.01134 0.54442
 O558 O 0.45929 0.03928 0.52350
 O559 O 0.56039 0.01457 0.49539
 O560 O 0.56268 -0.01407 0.51253
 O561 O 0.52035 0.00617 0.45068
 O562 O 0.48510 -0.00741 0.45129
 O563 O 0.51350 0.05614 0.48620
 O564 O 0.50200 0.06251 0.51908
 O565 O 0.54504 0.04318 0.50411
 O566 O 0.52541 0.05266 0.53330
 O567 O 0.50249 0.03815 0.46086
 O568 O 0.47462 0.02029 0.45562
 O569 O 0.54726 -0.00414 0.46716
 O570 O 0.54856 -0.03370 0.48749
 O571 O 0.45026 -0.00818 0.51336
 O572 O 0.44820 0.02373 0.49995
 O573 O 0.49072 0.00171 0.56055
 O574 O 0.52367 0.01397 0.56091
 O575 O 0.49680 -0.04953 0.52412
 O576 O 0.51226 -0.05415 0.49284
 Zr577 Zr 0.49490 -0.02939 0.50151
 O578 O 0.51297 -0.01510 0.48179
 Zr579 Zr 0.51176 -0.00375 0.53882
 O580 O 0.53050 0.01158 0.52054
 Zr581 Zr 0.47255 0.01225 0.51519
 O582 O 0.48953 0.02820 0.49581
 Zr583 Zr 0.53792 -0.00553 0.49609
 O584 O 0.52099 -0.02176 0.51549
 Zr585 Zr 0.49869 0.01038 0.47229
 O586 O 0.47964 -0.00486 0.49054
 Zr587 Zr 0.51566 0.03616 0.50925
 O588 O 0.49753 0.02210 0.52953
 O589 O 0.48635 -0.01272 0.52563
 O590 O 0.52437 0.01959 0.48509
 C591 C 0.45026 -0.02660 0.50961
 C592 C 0.50259 -0.04803 0.54177
 C593 C 0.47270 0.00729 0.56006
 C594 C 0.56034 0.03299 0.49909
 C595 C 0.53835 0.00042 0.45144
 C596 C 0.50790 0.05425 0.46849
 H597 H 0.51647 -0.02410 0.47094
 H598 H 0.48173 0.03968 0.49150
 H599 H 0.47789 -0.01998 0.53452
 H600 H 0.54230 0.01517 0.52780
 H601 H 0.55880 -0.02536 0.52036
 H602 H 0.54775 -0.01080 0.54814
 H603 H 0.46694 0.02965 0.46380
 H604 H 0.44775 0.01646 0.48747
 H605 H 0.56191 -0.03238 0.48215
 H606 H 0.50475 -0.06612 0.49488
 H607 H 0.48905 0.06352 0.51285
 H608 H 0.46818 0.04538 0.53294
 H609 H 0.47823 -0.05517 0.47908
 H610 H 0.49464 -0.01773 0.44716
 H611 H 0.51644 0.02666 0.56062
 H612 H 0.53653 0.04541 0.53918
 O613 O -0.03552 0.46416 1.01076
 O614 O -0.01717 0.45878 0.98098
 O615 O 0.00745 0.46934 1.05481
 O616 O 0.03525 0.48635 1.05889
 O617 O -0.03772 0.51241 1.05005
 O618 O -0.04219 0.54042 1.02914
 O619 O 0.05855 0.51693 0.99968
 O620 O 0.06137 0.48830 1.01711
 O621 O 0.01824 0.50798 0.95564
 O622 O -0.01692 0.49357 0.95680
 O623 O 0.01093 0.55782 0.99098
 O624 O -0.00075 0.56348 1.02487
 O625 O 0.04289 0.54533 1.00860
 O626 O 0.02424 0.55513 1.03732
 O627 O -0.00025 0.53954 0.96595
 O628 O -0.02756 0.52132 0.96082
 O629 O 0.04547 0.49821 0.97188
 O630 O 0.04739 0.46851 0.99204
 O631 O -0.05092 0.49285 1.01918
 O632 O -0.05364 0.52467 1.00594
 O633 O -0.01004 0.50295 1.06584
 O634 O 0.02253 0.51544 1.06600
 O635 O -0.00400 0.45188 1.02912
 O636 O 0.01132 0.44747 0.99784
 Zr637 Zr -0.00627 0.47204 1.00661
 O638 O 0.01147 0.48654 0.98675
 Zr639 Zr 0.01073 0.49776 1.04382
 O640 O 0.02897 0.51350 1.02535
 Zr641 Zr -0.02886 0.51347 1.02070
 O642 O -0.01243 0.52956 1.00100
 Zr643 Zr 0.03639 0.49649 1.00083
 O644 O 0.01987 0.47995 1.02033
 Zr645 Zr -0.00331 0.51177 0.97743
 O646 O -0.02196 0.49644 0.99593
 Zr647 Zr 0.01372 0.53790 1.01414
 O648 O -0.00382 0.52353 1.03474
 O649 O -0.01473 0.48857 1.03087
 O650 O 0.02235 0.52139 0.98994
 C651 C -0.05093 0.47455 1.01493
 C652 C 0.00180 0.45342 1.04675
 C653 C -0.02812 0.50837 1.06557
 C654 C 0.05823 0.53537 1.00330
 C655 C 0.03637 0.50268 0.95626
 C656 C 0.00500 0.55578 0.97338
 H657 H 0.01499 0.47760 0.97585
 H658 H -0.02047 0.54090 0.99676
 H659 H -0.02306 0.48121 1.03979
 H660 H 0.04081 0.51729 1.03245
 H661 H 0.05775 0.47689 1.02488
 H662 H 0.04701 0.49167 1.05278
 H663 H -0.03556 0.53021 0.96919
 H664 H -0.05418 0.51750 0.99342
 H665 H 0.06067 0.47007 0.98661
 H666 H 0.00399 0.43540 0.99992
 H667 H -0.01305 0.56518 1.01756
 H668 H -0.03333 0.54652 1.03861
 H669 H -0.02271 0.44601 0.98426
 H670 H -0.00705 0.48383 0.95206
 H671 H 0.01550 0.52822 1.06549
 H672 H 0.03433 0.54728 1.04415
 O673 O 0.01206 0.44548 0.52173
 O674 O -0.00235 0.44054 0.49025
 O675 O 0.05559 0.48836 0.51074
 O676 O 0.05671 0.51813 0.49780
 O677 O 0.01477 0.49680 0.55790
 O678 O -0.01889 0.50814 0.55905
 O679 O -0.00066 0.53305 0.45748
 O680 O 0.02988 0.51810 0.45549
 O681 O -0.04132 0.48943 0.46431
 O682 O -0.04158 0.45968 0.48808
 O683 O -0.04329 0.53701 0.50215
 O684 O -0.02432 0.54712 0.53058
 O685 O -0.01482 0.54954 0.48295
 O686 O -0.00158 0.55730 0.51573
 O687 O -0.05625 0.50791 0.49398
 O688 O -0.05701 0.47700 0.50715
 O689 O -0.01517 0.50074 0.44791
 O690 O 0.01816 0.48619 0.44813
 O691 O -0.00132 0.46299 0.54690
 O692 O -0.03073 0.48147 0.55153
 O693 O 0.04044 0.50843 0.54113
 O694 O 0.04156 0.53624 0.51926
 O695 O 0.04262 0.45905 0.50319
 O696 O 0.02502 0.45292 0.47332
 Zr697 Zr 0.01281 0.46579 0.49896
 O698 O -0.00632 0.47959 0.47919
 Zr699 Zr 0.03157 0.50813 0.51205
 O700 O 0.01323 0.52355 0.49280
 Zr701 Zr -0.00613 0.49126 0.53625
 O702 O -0.02626 0.50570 0.51806
 Zr703 Zr 0.00579 0.50548 0.46941
 O704 O 0.02599 0.49069 0.48756
 Zr705 Zr -0.03214 0.48836 0.49353
 O706 O -0.01384 0.47291 0.51303
 Zr707 Zr -0.01347 0.53056 0.50659
 O708 O 0.00590 0.51731 0.52672
 O709 O 0.01995 0.48285 0.52292
 O710 O -0.02070 0.51375 0.48248
 C711 C 0.00533 0.44700 0.53917
 C712 C 0.05713 0.46992 0.50714
 C713 C 0.03201 0.50370 0.55699
 C714 C -0.00913 0.54823 0.46520
 C715 C -0.03259 0.49436 0.44862
 C716 C -0.05770 0.52630 0.49758
 H717 H -0.00878 0.47057 0.46823
 H718 H -0.03823 0.50896 0.52559
 H719 H 0.02889 0.47583 0.53186
 H720 H 0.01982 0.53528 0.48820
 H721 H 0.04156 0.51010 0.45903
 H722 H 0.05221 0.52523 0.48618
 H723 H -0.05775 0.48277 0.52035
 H724 H -0.03648 0.47115 0.54338
 H725 H 0.01672 0.49242 0.43528
 H726 H 0.03183 0.44046 0.47662
 H727 H -0.03414 0.53925 0.53722
 H728 H -0.01308 0.52118 0.55844
 H729 H 0.00610 0.42880 0.49241
 H730 H -0.03699 0.45567 0.47498
 H731 H 0.03231 0.54193 0.52898
 H732 H 0.00979 0.55985 0.50735
 O733 O 0.46158 1.03870 -0.00176
 O734 O 0.48117 1.04363 0.02701
 O735 O 0.50347 1.03371 -0.04770
 O736 O 0.53116 1.01607 -0.05382
 O737 O 0.45988 0.99054 -0.04184
 O738 O 0.45700 0.96274 -0.02076
 O739 O 0.55813 0.98391 0.00378
 O740 O 0.55923 1.01309 -0.01274
 O741 O 0.51884 0.99333 0.05014
 O742 O 0.48311 1.00793 0.05070
 O743 O 0.51267 0.94411 0.01405
 O744 O 0.49951 0.93898 -0.01902
 O745 O 0.54270 0.95615 -0.00461
 O746 O 0.52319 0.94753 -0.03301
 O747 O 0.50178 0.96191 0.04005
 O748 O 0.47362 0.98035 0.04667
 O749 O 0.54533 1.00248 0.03299
 O750 O 0.54548 1.03251 0.01339
 O751 O 0.44686 1.01041 -0.00998
 O752 O 0.44576 0.97862 0.00281
 O753 O 0.48657 1.00001 -0.05863
 O754 O 0.51992 0.98742 -0.06025
 O755 O 0.49038 1.05044 -0.02178
 O756 O 0.50857 1.05437 0.00839
 Zr757 Zr 0.49126 1.03025 0.00076
 O758 O 0.51028 1.01511 0.01962
 Zr759 Zr 0.50789 1.00493 -0.03748
 O760 O 0.52739 0.98858 -0.02011
 Zr761 Zr 0.46965 0.98944 -0.01284
 O762 O 0.48742 0.97272 0.00579
 Zr763 Zr 0.53516 1.00494 0.00440
 O764 O 0.51728 1.02218 -0.01411
 Zr765 Zr 0.49680 0.98996 0.02920
 O766 O 0.47690 1.00598 0.01184
 Zr767 Zr 0.51330 0.96432 -0.00878
 O768 O 0.49450 0.97931 -0.02824
 O769 O 0.48249 1.01418 -0.02333
 O770 O 0.52233 0.98013 0.01536
 C771 C 0.44643 1.02866 -0.00547
 C772 C 0.49604 1.04921 -0.03953
 C773 C 0.46887 0.99439 -0.05770
 C774 C 0.55805 0.96550 -0.00007
 C775 C 0.53679 0.99817 0.04893
 C776 C 0.50762 0.94584 0.03199
 H777 H 0.51384 1.02384 0.03049
 H778 H 0.48006 0.96140 0.01021
 H779 H 0.47343 1.02161 -0.03182
 H780 H 0.53907 0.98471 -0.02784
 H781 H 0.55492 1.02480 -0.02001
 H782 H 0.54341 1.01137 -0.04772
 H783 H 0.46582 0.97150 0.03858
 H784 H 0.44572 0.98532 0.01560
 H785 H 0.55902 1.03058 0.01817
 H786 H 0.50078 1.06660 0.00661
 H787 H 0.48771 0.93721 -0.01100
 H788 H 0.46580 0.95645 -0.03053
 H789 H 0.47526 1.05662 0.02407
 H790 H 0.49253 1.01782 0.05482
 H791 H 0.51332 0.97477 -0.05984
 H792 H 0.53352 0.95485 -0.03955
 O793 O 0.54292 0.46005 0.00622
 O794 O 0.52415 0.45540 0.03449
 O795 O 0.50038 0.46061 -0.03940
 O796 O 0.47228 0.47681 -0.04598
 O797 O 0.54312 0.50408 -0.03709
 O798 O 0.54641 0.53341 -0.01880
 O799 O 0.44549 0.51293 0.01080
 O800 O 0.44480 0.48220 -0.00305
 O801 O 0.48633 0.51068 0.05591
 O802 O 0.51758 0.49776 0.05946
 O803 O 0.48944 0.55508 0.01568
 O804 O 0.50063 0.55838 -0.01663
 O805 O 0.45928 0.54013 -0.00107
 O806 O 0.47951 0.54525 -0.03153
 O807 O 0.50240 0.54083 0.04244
 O808 O 0.53348 0.52117 0.04724
 O809 O 0.45983 0.49819 0.04109
 O810 O 0.45976 0.46622 0.02402
 O811 O 0.55675 0.48729 -0.00568
 O812 O 0.55692 0.52063 0.00686
 O813 O 0.51658 0.49259 -0.05273
 O814 O 0.48232 0.50518 -0.05399
 O815 O 0.51278 0.44557 -0.01265
 O816 O 0.49534 0.44547 0.01932
 Zr817 Zr 0.51304 0.46797 0.00863
 O818 O 0.49473 0.48504 0.02708
 Zr819 Zr 0.49538 0.48977 -0.03075
 O820 O 0.47558 0.50685 -0.01388
 Zr821 Zr 0.53361 0.50789 -0.00827
 O822 O 0.51563 0.52644 0.00894
 Zr823 Zr 0.46910 0.49288 0.01224
 O824 O 0.48671 0.47444 -0.00598
 Zr825 Zr 0.50754 0.51158 0.03401
 O826 O 0.52713 0.49353 0.01765
 Zr827 Zr 0.48910 0.53259 -0.00525
 O828 O 0.50842 0.51634 -0.02379
 O829 O 0.52103 0.48202 -0.01665
 O830 O 0.48134 0.51919 0.02046
 C831 C 0.55769 0.46964 0.00043
 C832 C 0.50724 0.44557 -0.03047
 C833 C 0.53434 0.49817 -0.05240
 C834 C 0.44452 0.53070 0.00504
 C835 C 0.46865 0.50497 0.05605
 C836 C 0.49543 0.55566 0.03331
 H837 H 0.49188 0.47762 0.03894
 H838 H 0.52275 0.53843 0.01197
 H839 H 0.52997 0.47383 -0.02482
 H840 H 0.46360 0.50948 -0.02146
 H841 H 0.44932 0.47001 -0.00970
 H842 H 0.46013 0.48043 -0.03889
 H843 H 0.53753 0.53308 0.04053
 H844 H 0.55844 0.51344 0.01915
 H845 H 0.44636 0.46839 0.02923
 H846 H 0.50180 0.43262 0.01660
 H847 H 0.51415 0.55927 -0.01184
 H848 H 0.53703 0.53922 -0.02812
 H849 H 0.52928 0.44202 0.03154
 H850 H 0.52491 0.48587 0.05512
 H851 H 0.48986 0.51714 -0.05578
 H852 H 0.46769 0.53845 -0.03575
 O853 O 0.04064 -0.04189 0.50450
 O854 O 0.02186 -0.04652 0.53288
 O855 O -0.00204 -0.03987 0.45917
 O856 O -0.02944 -0.02280 0.45242
 O857 O 0.04171 0.00317 0.46228
 O858 O 0.04544 0.03196 0.48126
 O859 O -0.05597 0.01261 0.50998
 O860 O -0.05717 -0.01775 0.49548
 O861 O -0.01536 0.00858 0.55525
 O862 O 0.01573 -0.00475 0.55862
 O863 O -0.01174 0.05376 0.51595
 O864 O 0.00019 0.05759 0.48382
 O865 O -0.04163 0.03960 0.49829
 O866 O -0.02094 0.04515 0.46839
 O867 O 0.00104 0.03883 0.54243
 O868 O 0.03194 0.01874 0.54697
 O869 O -0.04193 -0.00339 0.54007
 O870 O -0.04250 -0.03475 0.52213
 O871 O 0.05506 -0.01455 0.49368
 O872 O 0.05572 0.01850 0.50655
 O873 O 0.01506 -0.00767 0.44635
 O874 O -0.01901 0.00538 0.44522
 O875 O 0.01030 -0.05545 0.48560
 O876 O -0.00708 -0.05590 0.51745
 Zr877 Zr 0.01092 -0.03343 0.50719
 O878 O -0.00724 -0.01646 0.52588
 Zr879 Zr -0.00624 -0.01067 0.46819
 O880 O -0.02582 0.00641 0.48529
 Zr881 Zr 0.03222 0.00641 0.49117
 O882 O 0.01445 0.02491 0.50870
 Zr883 Zr -0.03271 -0.00793 0.51110
 O884 O -0.01527 -0.02630 0.49264
 Zr885 Zr 0.00595 0.00972 0.53343
 O886 O 0.02536 -0.00831 0.51680
 Zr887 Zr -0.01189 0.03174 0.49449
 O888 O 0.00721 0.01553 0.47573
 O889 O 0.01927 -0.01910 0.48219
 O890 O -0.02006 0.01800 0.51990
 C891 C 0.05568 -0.03239 0.49927
 C892 C 0.00453 -0.05519 0.46786
 C893 C 0.03284 -0.00217 0.44680
 C894 C -0.05659 0.03039 0.50423
 C895 C -0.03307 0.00293 0.55521
 C896 C -0.00591 0.05389 0.53364
 H897 H -0.01024 -0.02410 0.53756
 H898 H 0.02171 0.03673 0.51204
 H899 H 0.02807 -0.02728 0.47387
 H900 H -0.03770 0.00938 0.47767
 H901 H -0.05288 -0.02988 0.48860
 H902 H -0.04154 -0.01949 0.45971
 H903 H 0.03612 0.03079 0.54059
 H904 H 0.05688 0.01130 0.51887
 H905 H -0.05592 -0.03253 0.52729
 H906 H -0.00069 -0.06878 0.51468
 H907 H 0.01356 0.05835 0.48904
 H908 H 0.03608 0.03820 0.47218
 H909 H 0.02684 -0.05991 0.52974
 H910 H 0.02303 -0.01658 0.55408
 H911 H -0.01126 0.01723 0.44365
 H912 H -0.03273 0.03853 0.46379
 O913 O 0.68818 0.24111 0.25826
 O914 O 0.68561 0.25787 0.22755
 O915 O 0.72794 0.19323 0.24631
 O916 O 0.75821 0.18890 0.23396
 O917 O 0.73805 0.23171 0.29544
 O918 O 0.75067 0.26398 0.29817
 O919 O 0.77924 0.24481 0.19704
 O920 O 0.76161 0.21666 0.19317
 O921 O 0.73753 0.29090 0.20406
 O922 O 0.70729 0.29426 0.22741
 O923 O 0.78391 0.28613 0.24327
 O924 O 0.79097 0.26465 0.27152
 O925 O 0.79549 0.25641 0.22329
 O926 O 0.80101 0.24198 0.25539
 O927 O 0.75611 0.30258 0.23464
 O928 O 0.72502 0.30695 0.24722
 O929 O 0.75006 0.26452 0.18754
 O930 O 0.73174 0.23366 0.18511
 O931 O 0.70546 0.25118 0.28446
 O932 O 0.72501 0.27878 0.29036
 O933 O 0.74816 0.20498 0.27803
 O934 O 0.77626 0.20064 0.25671
 O935 O 0.70026 0.21033 0.23833
 O936 O 0.69666 0.22970 0.20939
 Zr937 Zr 0.70928 0.23917 0.23587
 O938 O 0.72526 0.25697 0.21722
 Zr939 Zr 0.74945 0.21460 0.24925
 O940 O 0.76706 0.23161 0.23134
 Zr941 Zr 0.73425 0.25361 0.27449
 O942 O 0.75082 0.27241 0.25756
 Zr943 Zr 0.75073 0.24201 0.20782
 O944 O 0.73365 0.22324 0.22460
 Zr945 Zr 0.73500 0.28111 0.23290
 O946 O 0.71748 0.26432 0.25126
 Zr947 Zr 0.77529 0.25698 0.24630
 O948 O 0.75977 0.23864 0.26512
 O949 O 0.72468 0.22908 0.25992
 O950 O 0.76010 0.26696 0.22215
 C951 C 0.68947 0.24649 0.27616
 C952 C 0.70967 0.19432 0.24191
 C953 C 0.74386 0.21375 0.29411
 C954 C 0.79464 0.25113 0.20536
 C955 C 0.74418 0.28243 0.18856
 C956 C 0.77431 0.30186 0.23897
 H957 H 0.71703 0.26090 0.20609
 H958 H 0.75449 0.28371 0.26566
 H959 H 0.71683 0.22065 0.26830
 H960 H 0.77849 0.22369 0.22681
 H961 H 0.75233 0.20620 0.19586
 H962 H 0.76615 0.19292 0.22278
 H963 H 0.72977 0.30627 0.26073
 H964 H 0.71518 0.28567 0.28227
 H965 H 0.73884 0.23495 0.17265
 H966 H 0.68354 0.22458 0.21205
 H967 H 0.78411 0.27602 0.27766
 H968 H 0.76345 0.25692 0.29763
 H969 H 0.67322 0.25092 0.22911
 H970 H 0.70331 0.29035 0.21418
 H971 H 0.78249 0.20909 0.26651
 H972 H 0.80254 0.22997 0.24739
 O973 O 0.74563 0.71025 0.71145
 O974 O 0.77583 0.70689 0.73001
 O975 O 0.70048 0.71396 0.75335
 O976 O 0.69371 0.73128 0.78078
 O977 O 0.70401 0.75826 0.70984
 O978 O 0.72466 0.78593 0.70589
 O979 O 0.75035 0.76526 0.80673
 O980 O 0.73468 0.73563 0.80833
 O981 O 0.79701 0.75682 0.76770
 O982 O 0.79810 0.74348 0.73213
 O983 O 0.75793 0.80534 0.76173
 O984 O 0.72446 0.80935 0.74795
 O985 O 0.73987 0.79262 0.79116
 O986 O 0.71099 0.80038 0.77186
 O987 O 0.78506 0.78891 0.75079
 O988 O 0.79245 0.77118 0.72288
 O989 O 0.78014 0.74712 0.79414
 O990 O 0.76159 0.71677 0.79479
 O991 O 0.73489 0.73823 0.69694
 O992 O 0.74895 0.76982 0.69508
 O993 O 0.68799 0.74602 0.73575
 O994 O 0.68555 0.75988 0.76856
 O995 O 0.72749 0.69748 0.74183
 O996 O 0.75900 0.69497 0.75784
 Zr997 Zr 0.74897 0.71884 0.74083
 O998 O 0.76718 0.73469 0.75951
 Zr999 Zr 0.70937 0.74294 0.75731
 O1000 O 0.72602 0.75976 0.77648
 Zr1001 Zr 0.73324 0.75940 0.71910
 O1002 O 0.75115 0.77672 0.73649
 Zr1003 Zr 0.75149 0.74419 0.78422
 O1004 O 0.73375 0.72640 0.76668
 Zr1005 Zr 0.77561 0.76032 0.74592
 O1006 O 0.75889 0.74364 0.72634
 Zr1007 Zr 0.73608 0.78441 0.76210
 O1008 O 0.71723 0.76891 0.74363
 O1009 O 0.72398 0.73423 0.73225
 O1010 O 0.76121 0.76945 0.77119
 C1011 C 0.73979 0.72000 0.69658
 C1012 C 0.70949 0.69833 0.74722
 C1013 C 0.68853 0.75238 0.71831
 C1014 C 0.74543 0.78351 0.80643
 C1015 C 0.79601 0.75161 0.78555
 C1016 C 0.77604 0.80452 0.75682
 H1017 H 0.77851 0.72626 0.76308
 H1018 H 0.75499 0.78827 0.72909
 H1019 H 0.71559 0.72641 0.72371
 H1020 H 0.71815 0.76335 0.78808
 H1021 H 0.72768 0.72386 0.80418
 H1022 H 0.69912 0.73684 0.79284
 H1023 H 0.78337 0.77844 0.71431
 H1024 H 0.76146 0.76224 0.69458
 H1025 H 0.76632 0.71874 0.80823
 H1026 H 0.75781 0.68274 0.75019
 H1027 H 0.73296 0.81199 0.73671
 H1028 H 0.71482 0.79229 0.71459
 H1029 H 0.77351 0.69393 0.72406
 H1030 H 0.80220 0.73301 0.74112
 H1031 H 0.68504 0.77220 0.76120
 H1032 H 0.70445 0.79248 0.78174
 O1033 O 0.29008 0.20518 0.74297
 O1034 O 0.29246 0.22524 0.71434
 O1035 O 0.29198 0.24572 0.79028
 O1036 O 0.27585 0.27272 0.80048
 O1037 O 0.24573 0.20388 0.78662
 O1038 O 0.21607 0.20309 0.76807
 O1039 O 0.24027 0.30421 0.74644
 O1040 O 0.27089 0.30302 0.76058
 O1041 O 0.24245 0.26710 0.69812
 O1042 O 0.25434 0.23073 0.69426
 O1043 O 0.19667 0.26187 0.73873
 O1044 O 0.19392 0.24800 0.77090
 O1045 O 0.21251 0.29038 0.75714
 O1046 O 0.20636 0.26938 0.78589
 O1047 O 0.21076 0.25106 0.71062
 O1048 O 0.22675 0.22267 0.70078
 O1049 O 0.25513 0.29195 0.71562
 O1050 O 0.28698 0.28939 0.73228
 O1051 O 0.26238 0.19150 0.75412
 O1052 O 0.22931 0.19282 0.74208
 O1053 O 0.25893 0.22881 0.80369
 O1054 O 0.24755 0.26282 0.80817
 O1055 O 0.30544 0.23322 0.76238
 O1056 O 0.30681 0.25137 0.73228
 Zr1057 Zr 0.28276 0.23520 0.74212
 O1058 O 0.26669 0.25579 0.72583
 Zr1059 Zr 0.26231 0.25117 0.78344
 O1060 O 0.24550 0.27243 0.76875
 Zr1061 Zr 0.24246 0.21509 0.75850
 O1062 O 0.22472 0.23473 0.74276
 Zr1063 Zr 0.25974 0.28028 0.74319
 O1064 O 0.27769 0.26071 0.75904
 Zr1065 Zr 0.23977 0.24427 0.71818
 O1066 O 0.25665 0.22270 0.73274
 Zr1067 Zr 0.21933 0.26031 0.75925
 O1068 O 0.23516 0.23956 0.77603
 O1069 O 0.26885 0.22622 0.76723
 O1070 O 0.23306 0.26954 0.73413
 C1071 C 0.28015 0.19041 0.74803
 C1072 C 0.30643 0.23851 0.78028
 C1073 C 0.25214 0.21157 0.80235
 C1074 C 0.22236 0.30520 0.75202
 C1075 C 0.24874 0.28455 0.69978
 C1076 C 0.19600 0.25740 0.72059
 H1077 H 0.27446 0.25938 0.71435
 H1078 H 0.21254 0.22821 0.73920
 H1079 H 0.27684 0.21670 0.77466
 H1080 H 0.24319 0.28393 0.77731
 H1081 H 0.28303 0.29777 0.76655
 H1082 H 0.27225 0.28547 0.79479
 H1083 H 0.21943 0.21425 0.70961
 H1084 H 0.23608 0.19227 0.72937
 H1085 H 0.28544 0.30321 0.72835
 H1086 H 0.31877 0.24291 0.73253
 H1087 H 0.19139 0.23598 0.76337
 H1088 H 0.21095 0.21182 0.77855
 H1089 H 0.30538 0.21854 0.71565
 H1090 H 0.26467 0.23950 0.68994
 H1091 H 0.23490 0.25625 0.80897
 H1092 H 0.21427 0.27990 0.79144
 O1093 O 0.21491 0.75292 0.29232
 O1094 O 0.23227 0.72241 0.29433
 O1095 O 0.25849 0.79540 0.29329
 O1096 O 0.28589 0.80152 0.27676
 O1097 O 0.21388 0.79804 0.24979
 O1098 O 0.20826 0.78083 0.22052
 O1099 O 0.30912 0.74469 0.23723
 O1100 O 0.31189 0.75702 0.26817
 O1101 O 0.26702 0.70157 0.23845
 O1102 O 0.23606 0.69924 0.25129
 O1103 O 0.26368 0.74450 0.19613
 O1104 O 0.25254 0.77836 0.19526
 O1105 O 0.29460 0.75887 0.21114
 O1106 O 0.27554 0.79059 0.20771
 O1107 O 0.25081 0.71751 0.20929
 O1108 O 0.21986 0.71363 0.22875
 O1109 O 0.29454 0.71448 0.25085
 O1110 O 0.29655 0.73005 0.28333
 O1111 O 0.19956 0.76612 0.26614
 O1112 O 0.19747 0.75533 0.23248
 O1113 O 0.24150 0.81162 0.26133
 O1114 O 0.27540 0.81139 0.24931
 O1115 O 0.24515 0.76849 0.30636
 O1116 O 0.26205 0.73575 0.30484
 Zr1117 Zr 0.24387 0.74843 0.28320
 O1118 O 0.26077 0.72975 0.26509
 Zr1119 Zr 0.26185 0.78812 0.26354
 O1120 O 0.28024 0.77097 0.24521
 Zr1121 Zr 0.22193 0.76856 0.24514
 O1122 O 0.23858 0.75126 0.22542
 Zr1123 Zr 0.28649 0.74368 0.25759
 O1124 O 0.27039 0.76195 0.27723
 Zr1125 Zr 0.24656 0.72488 0.23871
 O1126 O 0.22826 0.74142 0.25787
 Zr1127 Zr 0.26529 0.76439 0.21951
 O1128 O 0.24738 0.78312 0.23711
 O1129 O 0.23601 0.77505 0.27085
 O1130 O 0.27283 0.73748 0.23136
 C1131 C 0.19971 0.75980 0.28366
 C1132 C 0.25140 0.78595 0.30762
 C1133 C 0.22368 0.81270 0.25558
 C1134 C 0.30951 0.75131 0.21988
 C1135 C 0.28494 0.70021 0.24379
 C1136 C 0.25757 0.72698 0.19489
 H1137 H 0.26352 0.71734 0.27188
 H1138 H 0.23091 0.74918 0.21350
 H1139 H 0.22774 0.78353 0.27940
 H1140 H 0.29237 0.77802 0.24271
 H1141 H 0.30829 0.76324 0.28076
 H1142 H 0.29762 0.79366 0.27297
 H1143 H 0.21581 0.72103 0.21714
 H1144 H 0.19615 0.74256 0.23882
 H1145 H 0.30968 0.72416 0.28067
 H1146 H 0.25591 0.73790 0.31775
 H1147 H 0.23962 0.77266 0.19312
 H1148 H 0.21795 0.78930 0.21446
 H1149 H 0.22770 0.72489 0.30783
 H1150 H 0.22908 0.70343 0.26327
 H1151 H 0.26792 0.81389 0.23730
 H1152 H 0.28755 0.79403 0.21474
 O1153 O 0.23138 0.69356 0.75365
 O1154 O 0.26260 0.69091 0.73839
 O1155 O 0.24147 0.73227 0.80188
 O1156 O 0.25203 0.76255 0.80652
 O1157 O 0.19161 0.74231 0.76419
 O1158 O 0.18808 0.75582 0.73262
 O1159 O 0.28852 0.78589 0.75021
 O1160 O 0.29333 0.76736 0.77805
 O1161 O 0.28303 0.74565 0.70396
 O1162 O 0.26541 0.71773 0.69888
 O1163 O 0.24204 0.79155 0.71076
 O1164 O 0.21305 0.79723 0.73209
 O1165 O 0.26078 0.80245 0.74134
 O1166 O 0.22788 0.80615 0.75521
 O1167 O 0.25275 0.76475 0.69378
 O1168 O 0.23793 0.73152 0.69081
 O1169 O 0.29930 0.75744 0.73005
 O1170 O 0.30298 0.73831 0.76019
 O1171 O 0.20430 0.71074 0.74410
 O1172 O 0.19771 0.73122 0.71697
 O1173 O 0.20859 0.75180 0.79073
 O1174 O 0.22879 0.78051 0.79520
 O1175 O 0.25074 0.70516 0.78454
 O1176 O 0.28077 0.70372 0.76431
 Zr1177 Zr 0.25291 0.71501 0.75585
 O1178 O 0.27052 0.73195 0.73784
 Zr1179 Zr 0.23745 0.75417 0.78090
 O1180 O 0.25463 0.77261 0.76412
 Zr1181 Zr 0.21293 0.73975 0.74216
 O1182 O 0.22892 0.75758 0.72363
 Zr1183 Zr 0.27903 0.75708 0.75293
 O1184 O 0.26306 0.73915 0.77177
 Zr1185 Zr 0.25438 0.74246 0.71432
 O1186 O 0.23720 0.72372 0.73104
 Zr1187 Zr 0.23899 0.78159 0.73945
 O1188 O 0.22089 0.76494 0.75748
 O1189 O 0.22797 0.72965 0.76629
 O1190 O 0.26395 0.76724 0.72873
 C1191 C 0.21334 0.69474 0.74850
 C1192 C 0.24671 0.71412 0.80060
 C1193 C 0.19266 0.74744 0.78215
 C1194 C 0.27899 0.80163 0.74576
 C1195 C 0.29840 0.75215 0.71216
 C1196 C 0.24770 0.78289 0.69499
 H1197 H 0.28196 0.72399 0.73334
 H1198 H 0.22062 0.76167 0.71264
 H1199 H 0.21993 0.72135 0.77462
 H1200 H 0.25865 0.78376 0.77224
 H1201 H 0.29134 0.75755 0.78825
 H1202 H 0.26357 0.76984 0.80249
 H1203 H 0.22706 0.74092 0.68827
 H1204 H 0.20648 0.72196 0.70978
 H1205 H 0.31507 0.74583 0.75904
 H1206 H 0.27923 0.69109 0.77093
 H1207 H 0.20724 0.79064 0.72075
 H1208 H 0.18829 0.76861 0.73939
 H1209 H 0.26198 0.67882 0.74611
 H1210 H 0.26071 0.70622 0.70583
 H1211 H 0.21786 0.78629 0.78765
 H1212 H 0.23570 0.80736 0.76718
 O1213 O 0.24661 0.21589 0.20871
 O1214 O 0.27623 0.21211 0.22795
 O1215 O 0.20048 0.22068 0.24965
 O1216 O 0.19250 0.23854 0.27607
 O1217 O 0.20632 0.26381 0.20530
 O1218 O 0.22678 0.29177 0.20235
 O1219 O 0.24991 0.27101 0.30383
 O1220 O 0.23363 0.24177 0.30520
 O1221 O 0.29723 0.26193 0.26610
 O1222 O 0.29939 0.24883 0.23079
 O1223 O 0.25890 0.31092 0.25932
 O1224 O 0.22649 0.31591 0.24498
 O1225 O 0.23993 0.29848 0.28815
 O1226 O 0.21123 0.30619 0.26749
 O1227 O 0.28615 0.29424 0.24903
 O1228 O 0.29396 0.27614 0.22100
 O1229 O 0.27961 0.25227 0.29206
 O1230 O 0.26036 0.22230 0.29215
 O1231 O 0.23737 0.24410 0.19375
 O1232 O 0.25171 0.27567 0.19247
 O1233 O 0.18897 0.25318 0.23109
 O1234 O 0.18605 0.26705 0.26417
 O1235 O 0.22748 0.20358 0.23900
 O1236 O 0.25864 0.20068 0.25546
 Zr1237 Zr 0.24933 0.22458 0.23811
 O1238 O 0.26733 0.24022 0.25715
 Zr1239 Zr 0.20965 0.24953 0.25333
 O1240 O 0.22608 0.26588 0.27306
 Zr1241 Zr 0.23501 0.26527 0.21582
 O1242 O 0.25252 0.28244 0.23375
 Zr1243 Zr 0.25113 0.24993 0.28142
 O1244 O 0.23346 0.23256 0.26345
 Zr1245 Zr 0.27649 0.26574 0.24380
 O1246 O 0.26014 0.24914 0.22385
 Zr1247 Zr 0.23684 0.29034 0.25895
 O1248 O 0.21838 0.27522 0.23979
 O1249 O 0.22486 0.24034 0.22877
 O1250 O 0.26153 0.27505 0.26869
 C1251 C 0.24173 0.22576 0.19360
 C1252 C 0.20940 0.20480 0.24411
 C1253 C 0.19034 0.25877 0.21341
 C1254 C 0.24512 0.28928 0.30349
 C1255 C 0.29575 0.25657 0.28386
 C1256 C 0.27712 0.30991 0.25492
 H1257 H 0.27844 0.23162 0.26100
 H1258 H 0.25670 0.29394 0.22647
 H1259 H 0.21662 0.23253 0.22006
 H1260 H 0.21794 0.26955 0.28447
 H1261 H 0.22649 0.23014 0.30092
 H1262 H 0.19848 0.24277 0.28838
 H1263 H 0.28542 0.28441 0.21277
 H1264 H 0.26414 0.26797 0.19236
 H1265 H 0.26488 0.22414 0.30569
 H1266 H 0.25740 0.18841 0.24787
 H1267 H 0.23449 0.31758 0.23319
 H1268 H 0.21672 0.29814 0.21079
 H1269 H 0.27384 0.19915 0.22204
 H1270 H 0.30256 0.23786 0.23954
 H1271 H 0.18565 0.27914 0.25645
 H1272 H 0.20509 0.29909 0.27821
 O1273 O 0.74485 0.70294 0.28646
 O1274 O 0.71703 0.70155 0.26557
 O1275 O 0.79319 0.70524 0.24810
 O1276 O 0.80322 0.72378 0.22378
 O1277 O 0.78718 0.74647 0.29579
 O1278 O 0.76795 0.77561 0.30069
 O1279 O 0.74893 0.76359 0.19642
 O1280 O 0.76319 0.73285 0.19330
 O1281 O 0.69933 0.75819 0.23177
 O1282 O 0.69265 0.74439 0.26113
 O1283 O 0.73957 0.80200 0.24380
 O1284 O 0.77143 0.80273 0.25955
 O1285 O 0.75938 0.78909 0.21460
 O1286 O 0.78740 0.79235 0.23731
 O1287 O 0.71127 0.78762 0.25182
 O1288 O 0.70332 0.76624 0.28027
 O1289 O 0.71736 0.74781 0.20575
 O1290 O 0.73472 0.71602 0.20359
 O1291 O 0.75398 0.72910 0.30454
 O1292 O 0.74178 0.76227 0.30766
 O1293 O 0.80520 0.73616 0.26968
 O1294 O 0.81008 0.75071 0.23762
 O1295 O 0.76519 0.69074 0.25717
 O1296 O 0.73501 0.69258 0.23724
 Zr1297 Zr 0.74417 0.71361 0.25793
 O1298 O 0.72769 0.73235 0.23998
 Zr1299 Zr 0.78539 0.73517 0.24652
 O1300 O 0.77064 0.75434 0.22762
 Zr1301 Zr 0.75903 0.75119 0.28434
 O1302 O 0.74346 0.77142 0.26719
 Zr1303 Zr 0.74524 0.74166 0.21706
 O1304 O 0.76142 0.72136 0.23398
 Zr1305 Zr 0.71922 0.75796 0.25494
 O1306 O 0.73364 0.73818 0.27385
 Zr1307 Zr 0.76055 0.77907 0.24327
 O1308 O 0.77715 0.76081 0.26189
 O1309 O 0.76879 0.72616 0.26973
 O1310 O 0.73562 0.76709 0.23141
 C1311 C 0.74875 0.71131 0.30272
 C1312 C 0.78340 0.69019 0.25268
 C1313 C 0.80336 0.74107 0.28764
 C1314 C 0.75474 0.78119 0.19833
 C1315 C 0.70121 0.75354 0.21372
 C1316 C 0.72120 0.80262 0.24753
 H1317 H 0.71619 0.72534 0.23520
 H1318 H 0.73963 0.78290 0.27526
 H1319 H 0.77626 0.71718 0.27824
 H1320 H 0.77946 0.75771 0.21686
 H1321 H 0.76931 0.72012 0.19677
 H1322 H 0.79734 0.72836 0.21153
 H1323 H 0.70946 0.77783 0.28600
 H1324 H 0.72896 0.75605 0.30662
 H1325 H 0.73110 0.71920 0.19005
 H1326 H 0.73659 0.67935 0.24277
 H1327 H 0.76318 0.80445 0.27127
 H1328 H 0.77804 0.78198 0.29286
 H1329 H 0.71931 0.68784 0.26960
 H1330 H 0.69620 0.73190 0.26740
 H1331 H 0.81078 0.76235 0.24620
 H1332 H 0.79338 0.78562 0.22590
 O1333 O 0.71498 0.24720 0.79234
 O1334 O 0.73163 0.21555 0.79355
 O1335 O 0.75951 0.28839 0.79101
 O1336 O 0.78718 0.29284 0.77376
 O1337 O 0.71445 0.29072 0.74817
 O1338 O 0.70832 0.27237 0.71926
 O1339 O 0.80850 0.23523 0.73610
 O1340 O 0.81184 0.24831 0.76659
 O1341 O 0.76539 0.19253 0.74045
 O1342 O 0.73054 0.19445 0.75522
 O1343 O 0.76189 0.23300 0.69590
 O1344 O 0.75122 0.26719 0.69364
 O1345 O 0.79366 0.24831 0.70962
 O1346 O 0.77485 0.27942 0.70457
 O1347 O 0.74868 0.20720 0.71097
 O1348 O 0.72010 0.20278 0.72897
 O1349 O 0.79365 0.20560 0.75078
 O1350 O 0.79631 0.22234 0.78295
 O1351 O 0.69962 0.25970 0.76581
 O1352 O 0.69652 0.24805 0.73278
 O1353 O 0.74250 0.30381 0.75918
 O1354 O 0.77575 0.30267 0.74616
 O1355 O 0.74583 0.26226 0.80528
 O1356 O 0.76113 0.22963 0.80553
 Zr1357 Zr 0.74373 0.24154 0.78289
 O1358 O 0.76038 0.22185 0.76557
 Zr1359 Zr 0.76237 0.27997 0.76144
 O1360 O 0.77996 0.26179 0.74331
 Zr1361 Zr 0.72171 0.26087 0.74439
 O1362 O 0.73754 0.24205 0.72542
 Zr1363 Zr 0.78608 0.23503 0.75681
 O1364 O 0.77050 0.25421 0.77597
 Zr1365 Zr 0.74529 0.21622 0.73986
 O1366 O 0.72752 0.23417 0.75812
 Zr1367 Zr 0.76443 0.25421 0.71820
 O1368 O 0.74744 0.27428 0.73536
 O1369 O 0.73634 0.26784 0.76962
 O1370 O 0.77171 0.22780 0.73124
 C1371 C 0.69980 0.25403 0.78357
 C1372 C 0.75234 0.27964 0.80577
 C1373 C 0.72462 0.30524 0.75368
 C1374 C 0.80872 0.24127 0.71852
 C1375 C 0.78356 0.19117 0.74487
 C1376 C 0.75530 0.21559 0.69589
 H1377 H 0.76326 0.20984 0.77296
 H1378 H 0.72958 0.23945 0.71380
 H1379 H 0.72838 0.27678 0.77801
 H1380 H 0.79211 0.26857 0.74025
 H1381 H 0.80841 0.25524 0.77887
 H1382 H 0.79873 0.28536 0.76883
 H1383 H 0.71311 0.21244 0.72082
 H1384 H 0.69523 0.23536 0.73930
 H1385 H 0.80917 0.21587 0.78024
 H1386 H 0.75398 0.23128 0.81800
 H1387 H 0.73827 0.26141 0.69194
 H1388 H 0.71806 0.28072 0.71307
 H1389 H 0.72650 0.21806 0.80684
 H1390 H 0.73963 0.18897 0.76497
 H1391 H 0.76827 0.30454 0.73404
 H1392 H 0.78638 0.28374 0.71188
 C1393 C 0.08269 1.04172 1.16593
 C1394 C 0.08159 1.02407 1.15528
 C1395 C 0.09153 1.00741 1.16273
 C1396 C 0.10110 1.00828 1.18075
 C1397 C 0.10218 1.02598 1.19120
 C1398 C 0.09291 1.04266 1.18334
 C1399 C 0.09217 0.99003 1.15200
 C1400 C 0.08364 0.98896 1.13376
 C1401 C 0.07337 1.00511 1.12584
 C1402 C 0.07139 1.02257 1.13729
 C1403 C 0.05893 1.03777 1.13059
 C1404 C 0.04921 1.03623 1.11303
 C1405 C 0.05204 1.01985 1.10110
 C1406 C 0.06456 1.00424 1.10707
 C1407 C 0.06802 0.98861 1.09380
 C1408 C 0.05891 0.98828 1.07570
 C1409 C 0.04581 1.00327 1.07039
 C1410 C 0.04245 1.01903 1.08315
 H1411 H 0.07627 1.05526 1.16091
 H1412 H 0.10870 0.99532 1.18598
 H1413 H 0.09285 1.05654 1.19097
 H1414 H 0.09969 0.97717 1.15759
 H1415 H 0.08476 0.97501 1.12644
 H1416 H 0.05581 1.05085 1.13897
 H1417 H 0.03958 1.04816 1.10861
 H1418 H 0.07808 0.97666 1.09677
 H1419 H 0.06187 0.97605 1.06594
 H1420 H 0.03262 1.03088 1.07892
 C1421 C 0.57050 0.50877 0.67580
 C1422 C 0.57883 0.51111 0.65716
 C1423 C 0.59888 0.51565 0.65617
 C1424 C 0.60970 0.51857 0.67318
 C1425 C 0.60112 0.51637 0.69143
 C1426 C 0.58154 0.51127 0.69259
 C1427 C 0.60810 0.51715 0.63823
 C1428 C 0.59799 0.51390 0.62113
 C1429 C 0.57799 0.50949 0.62126
 C1430 C 0.56807 0.50886 0.63954
 C1431 C 0.54767 0.50647 0.63955
 C1432 C 0.53734 0.50446 0.62237
 C1433 C 0.54693 0.50417 0.60450
 C1434 C 0.56745 0.50619 0.60369
 C1435 C 0.57659 0.50466 0.58527
 C1436 C 0.56569 0.50208 0.56843
 C1437 C 0.54532 0.50102 0.56924
 C1438 C 0.53605 0.50194 0.58739
 H1439 H 0.55562 0.50459 0.67793
 H1440 H 0.62498 0.52217 0.67224
 H1441 H 0.57468 0.50937 0.70659
 H1442 H 0.62339 0.52070 0.63737
 H1443 H 0.60621 0.51555 0.60794
 H1444 H 0.53908 0.50670 0.65267
 H1445 H 0.52165 0.50297 0.62311
 H1446 H 0.59217 0.50510 0.58336
 H1447 H 0.57329 0.50129 0.55463
 H1448 H 0.52032 0.50082 0.58823
 C1449 C 0.38865 -0.01844 0.65493
 C1450 C 0.40642 -0.00854 0.65304
 C1451 C 0.41627 -0.00332 0.67033
 C1452 C 0.40841 -0.00764 0.68859
 C1453 C 0.39101 -0.01775 0.69012
 C1454 C 0.38121 -0.02301 0.67315
 C1455 C 0.43412 0.00585 0.66934
 C1456 C 0.44295 0.00920 0.65159
 C1457 C 0.43406 0.00378 0.63396
 C1458 C 0.41503 -0.00425 0.63466
 C1459 C 0.40530 -0.00772 0.61698
 C1460 C 0.41424 -0.00453 0.59922
 C1461 C 0.43336 0.00183 0.59829
 C1462 C 0.44360 0.00604 0.61564
 C1463 C 0.46327 0.01157 0.61392
 C1464 C 0.47236 0.01248 0.59584
 C1465 C 0.46218 0.00828 0.57881
 C1466 C 0.44252 0.00339 0.58009
 H1467 H 0.38043 -0.02340 0.64263
 H1468 H 0.41621 -0.00374 0.70167
 H1469 H 0.36768 -0.03076 0.67399
 H1470 H 0.44159 0.01015 0.68249
 H1471 H 0.45672 0.01637 0.65218
 H1472 H 0.39056 -0.01273 0.61636
 H1473 H 0.40623 -0.00756 0.58604
 H1474 H 0.47233 0.01451 0.62628
 H1475 H 0.48760 0.01622 0.59521
 H1476 H 0.43464 -0.00020 0.56697
 C1477 C -0.11195 0.48215 1.16049
 C1478 C -0.09398 0.49169 1.15871
 C1479 C -0.08387 0.49624 1.17604
 C1480 C -0.09168 0.49161 1.19425
 C1481 C -0.10927 0.48183 1.19565
 C1482 C -0.11935 0.47727 1.17864
 C1483 C -0.06581 0.50504 1.17513
 C1484 C -0.05706 0.50865 1.15739
 C1485 C -0.06622 0.50389 1.13971
 C1486 C -0.08542 0.49626 1.14037
 C1487 C -0.09538 0.49342 1.12270
 C1488 C -0.08651 0.49682 1.10496
 C1489 C -0.06725 0.50279 1.10402
 C1490 C -0.05679 0.50641 1.12136
 C1491 C -0.03703 0.51163 1.11960
 C1492 C -0.02807 0.51278 1.10148
 C1493 C -0.03846 0.50913 1.08444
 C1494 C -0.05821 0.50458 1.08579
 H1495 H -0.12041 0.47772 1.14815
 H1496 H -0.08369 0.49498 1.20736
 H1497 H -0.13304 0.46979 1.17938
 H1498 H -0.05814 0.50882 1.18831
 H1499 H -0.04311 0.51548 1.15804
 H1500 H -0.11023 0.48874 1.12208
 H1501 H -0.09468 0.49426 1.09178
 H1502 H -0.02781 0.51415 1.13194
 H1503 H -0.01277 0.51628 1.10081
 H1504 H -0.06627 0.50143 1.07267
 C1505 C -0.11991 0.50622 0.35322
 C1506 C -0.10128 0.49731 0.35577
 C1507 C -0.09121 0.49042 0.33894
 C1508 C -0.09971 0.49216 0.32047
 C1509 C -0.11790 0.50184 0.31801
 C1510 C -0.12790 0.50857 0.33477
 C1511 C -0.07238 0.48237 0.34052
 C1512 C -0.06289 0.48195 0.35828
 C1513 C -0.07209 0.48913 0.37537
 C1514 C -0.09201 0.49574 0.37430
 C1515 C -0.10195 0.50054 0.39177
 C1516 C -0.09249 0.49988 0.40956
 C1517 C -0.07263 0.49505 0.41065
 C1518 C -0.06207 0.48983 0.39353
 C1519 C -0.04172 0.48626 0.39520
 C1520 C -0.03240 0.48771 0.41308
 C1521 C -0.04297 0.49240 0.42998
 C1522 C -0.06316 0.49580 0.42872
 H1523 H -0.12844 0.51220 0.36513
 H1524 H -0.09130 0.48726 0.30792
 H1525 H -0.14227 0.51543 0.33383
 H1526 H -0.06466 0.47680 0.32778
 H1527 H -0.04837 0.47552 0.35821
 H1528 H -0.11726 0.50451 0.39222
 H1529 H -0.10072 0.50369 0.42258
 H1530 H -0.03245 0.48302 0.38286
 H1531 H -0.01676 0.48510 0.41368
 H1532 H -0.07138 0.49978 0.44172
 C1533 C 0.38149 1.00880 -0.15273
 C1534 C 0.39998 0.99955 -0.15029
 C1535 C 0.40987 0.99259 -0.16718
 C1536 C 0.40134 0.99459 -0.18560
 C1537 C 0.38321 1.00443 -0.18795
 C1538 C 0.37341 1.01129 -0.17112
 C1539 C 0.42852 0.98411 -0.16572
 C1540 C 0.43802 0.98324 -0.14800
 C1541 C 0.42901 0.99045 -0.13082
 C1542 C 0.40926 0.99763 -0.13180
 C1543 C 0.39950 1.00261 -0.11428
 C1544 C 0.40900 1.00160 -0.09652
 C1545 C 0.42871 0.99614 -0.09551
 C1546 C 0.43907 0.99067 -0.11267
 C1547 C 0.45930 0.98636 -0.11104
 C1548 C 0.46871 0.98743 -0.09319
 C1549 C 0.45834 0.99251 -0.07626
 C1550 C 0.43824 0.99656 -0.07746
 H1551 H 0.37308 1.01484 -0.14076
 H1552 H 0.40966 0.98965 -0.19819
 H1553 H 0.35910 1.01827 -0.17193
 H1554 H 0.43609 0.97849 -0.17853
 H1555 H 0.45238 0.97646 -0.14818
 H1556 H 0.38432 1.00706 -0.11375
 H1557 H 0.40091 1.00560 -0.08346
 H1558 H 0.46846 0.98281 -0.12338
 H1559 H 0.48428 0.98430 -0.09263
 H1560 H 0.43019 1.00082 -0.06446
 C1561 C 0.57083 0.49604 -0.17759
 C1562 C 0.57908 0.49161 -0.15928
 C1563 C 0.59894 0.48526 -0.15887
 C1564 C 0.60953 0.48230 -0.17617
 C1565 C 0.60090 0.48618 -0.19412
 C1566 C 0.58164 0.49341 -0.19467
 C1567 C 0.60815 0.48176 -0.14122
 C1568 C 0.59816 0.48457 -0.12383
 C1569 C 0.57827 0.49049 -0.12340
 C1570 C 0.56838 0.49335 -0.14144
 C1571 C 0.54805 0.49723 -0.14107
 C1572 C 0.53773 0.49850 -0.12370
 C1573 C 0.54729 0.49658 -0.10599
 C1574 C 0.56778 0.49307 -0.10554
 C1575 C 0.57691 0.49245 -0.08716
 C1576 C 0.56604 0.49447 -0.07008
 C1577 C 0.54572 0.49701 -0.07065
 C1578 C 0.53643 0.49813 -0.08868
 H1579 H 0.55615 0.50180 -0.17920
 H1580 H 0.62459 0.47706 -0.17570
 H1581 H 0.57478 0.49665 -0.20844
 H1582 H 0.62331 0.47686 -0.14082
 H1583 H 0.60633 0.48128 -0.11090
 H1584 H 0.53949 0.49871 -0.15407
 H1585 H 0.52208 0.50116 -0.12416
 H1586 H 0.59248 0.49078 -0.08544
 H1587 H 0.57360 0.49370 -0.05633
 H1588 H 0.52073 0.50045 -0.08925
 C1589 C 0.06775 0.00103 0.32118
 C1590 C 0.07630 -0.00384 0.33926
 C1591 C 0.09619 -0.01012 0.33922
 C1592 C 0.10648 -0.01265 0.32171
 C1593 C 0.09753 -0.00852 0.30397
 C1594 C 0.07829 -0.00124 0.30386
 C1595 C 0.10569 -0.01408 0.35662
 C1596 C 0.09594 -0.01198 0.37421
 C1597 C 0.07600 -0.00629 0.37510
 C1598 C 0.06586 -0.00275 0.35730
 C1599 C 0.04552 0.00108 0.35808
 C1600 C 0.03543 0.00153 0.37560
 C1601 C 0.04521 -0.00122 0.39310
 C1602 C 0.06571 -0.00463 0.39317
 C1603 C 0.07506 -0.00614 0.41141
 C1604 C 0.06437 -0.00505 0.42867
 C1605 C 0.04404 -0.00258 0.42843
 C1606 C 0.03455 -0.00058 0.41056
 H1607 H 0.05303 0.00677 0.31993
 H1608 H 0.12154 -0.01793 0.32183
 H1609 H 0.07120 0.00223 0.29025
 H1610 H 0.12089 -0.01889 0.35665
 H1611 H 0.10434 -0.01565 0.38688
 H1612 H 0.03680 0.00315 0.34527
 H1613 H 0.01977 0.00416 0.37544
 H1614 H 0.09064 -0.00784 0.41290
 H1615 H 0.07208 -0.00646 0.44229
 H1616 H 0.01884 0.00172 0.41026
 C1617 C 0.15607 1.11234 1.02304
 C1618 C 0.15313 1.09515 1.01210
 C1619 C 0.16970 1.08578 1.00340
 C1620 C 0.18826 1.09382 1.00509
 C1621 C 0.19113 1.11061 1.01652
 C1622 C 0.17468 1.11974 1.02535
 C1623 C 0.16780 1.06810 0.99350
 C1624 C 0.14998 1.05898 0.99285
 C1625 C 0.13313 1.06759 1.00155
 C1626 C 0.13445 1.08656 1.01013
 C1627 C 0.11707 1.09634 1.01629
 C1628 C 0.09910 1.08751 1.01489
 C1629 C 0.09784 1.06838 1.00806
 C1630 C 0.11492 1.05798 1.00170
 C1631 C 0.11317 1.03814 0.99633
 C1632 C 0.09514 1.02926 0.99678
 C1633 C 0.07823 1.03985 1.00223
 C1634 C 0.07962 1.05946 1.00776
 H1635 H 0.14439 1.12006 1.03061
 H1636 H 0.20067 1.08604 0.99862
 H1637 H 0.17596 1.13305 1.03378
 H1638 H 0.18035 1.06094 0.98660
 H1639 H 0.14974 1.04536 0.98491
 H1640 H 0.11680 1.11112 1.02177
 H1641 H 0.08611 1.09562 1.01965
 H1642 H 0.12555 1.02892 0.99232
 H1643 H 0.09439 1.01403 0.99257
 H1644 H 0.06658 1.06760 1.01234
 C1645 C 0.65262 0.61231 0.51765
 C1646 C 0.65032 0.59354 0.50933
 C1647 C 0.66747 0.58266 0.50404
 C1648 C 0.68597 0.59051 0.50669
 C1649 C 0.68792 0.60893 0.51525
 C1650 C 0.67113 0.61976 0.52064
 C1651 C 0.66614 0.56383 0.49649
 C1652 C 0.64820 0.55510 0.49485
 C1653 C 0.63073 0.56509 0.50038
 C1654 C 0.63170 0.58498 0.50667
 C1655 C 0.61404 0.59561 0.51000
 C1656 C 0.59608 0.58688 0.50812
 C1657 C 0.59497 0.56713 0.50340
 C1658 C 0.61229 0.55587 0.49969
 C1659 C 0.61047 0.53566 0.49606
 C1660 C 0.59226 0.52715 0.49591
 C1661 C 0.57520 0.53841 0.49915
 C1662 C 0.57663 0.55847 0.50270
 H1663 H 0.64047 0.62136 0.52261
 H1664 H 0.69897 0.58196 0.50277
 H1665 H 0.67235 0.63406 0.52730
 H1666 H 0.67917 0.55555 0.49216
 H1667 H 0.64849 0.54055 0.48880
 H1668 H 0.61358 0.61091 0.51374
 H1669 H 0.58291 0.59563 0.51081
 H1670 H 0.62285 0.52586 0.49389
 H1671 H 0.59155 0.51159 0.49322
 H1672 H 0.56349 0.56723 0.50553
 C1673 C 0.67700 0.42711 -0.03454
 C1674 C 0.66527 0.42659 -0.01770
 C1675 C 0.67201 0.41495 -0.00210
 C1676 C 0.69032 0.40510 -0.00314
 C1677 C 0.70161 0.40534 -0.02024
 C1678 C 0.69460 0.41658 -0.03580
 C1679 C 0.66017 0.41277 0.01421
 C1680 C 0.64149 0.42126 0.01505
 C1681 C 0.63422 0.43304 -0.00011
 C1682 C 0.64681 0.43670 -0.01616
 C1683 C 0.64067 0.45054 -0.03002
 C1684 C 0.62249 0.45985 -0.02877
 C1685 C 0.60947 0.45535 -0.01403
 C1686 C 0.61493 0.44163 0.00034
 C1687 C 0.60065 0.43677 0.01426
 C1688 C 0.58199 0.44558 0.01409
 C1689 C 0.57710 0.45972 0.00032
 C1690 C 0.59093 0.46451 -0.01369
 H1691 H 0.67266 0.43495 -0.04735
 H1692 H 0.69503 0.39614 0.00890
 H1693 H 0.70300 0.41777 -0.04905
 H1694 H 0.66518 0.40397 0.02626
 H1695 H 0.63323 0.41879 0.02808
 H1696 H 0.64988 0.45500 -0.04176
 H1697 H 0.61846 0.47048 -0.03967
 H1698 H 0.60331 0.42587 0.02516
 H1699 H 0.57145 0.44153 0.02496
 H1700 H 0.58711 0.47516 -0.02465
 C1701 C 0.18061 -0.06678 0.47529
 C1702 C 0.16559 -0.07249 0.48801
 C1703 C 0.16933 -0.08901 0.49980
 C1704 C 0.18755 -0.09899 0.49903
 C1705 C 0.20199 -0.09326 0.48606
 C1706 C 0.19839 -0.07712 0.47429
 C1707 C 0.15473 -0.09575 0.51192
 C1708 C 0.13623 -0.08692 0.51219
 C1709 C 0.13168 -0.07057 0.50061
 C1710 C 0.14687 -0.06273 0.48898
 C1711 C 0.14288 -0.04533 0.47880
 C1712 C 0.12456 -0.03626 0.47935
 C1713 C 0.10934 -0.04424 0.48977
 C1714 C 0.11253 -0.06161 0.50041
 C1715 C 0.09628 -0.06941 0.51011
 C1716 C 0.07790 -0.06008 0.50955
 C1717 C 0.07503 -0.04263 0.49944
 C1718 C 0.09088 -0.03487 0.48954
 H1719 H 0.17892 -0.05484 0.46538
 H1720 H 0.19023 -0.11173 0.50792
 H1721 H 0.20937 -0.07263 0.46404
 H1722 H 0.15751 -0.10828 0.52106
 H1723 H 0.12584 -0.09308 0.52196
 H1724 H 0.15378 -0.03803 0.47052
 H1725 H 0.12224 -0.02288 0.47134
 H1726 H 0.09718 -0.08287 0.51799
 H1727 H 0.06591 -0.06650 0.51724
 H1728 H 0.08884 -0.02153 0.48141
 C1729 C 0.35356 -0.11020 0.52624
 C1730 C 0.35621 -0.09194 0.51744
 C1731 C 0.33942 -0.08193 0.51029
 C1732 C 0.32096 -0.09029 0.51136
 C1733 C 0.31841 -0.10836 0.52039
 C1734 C 0.33508 -0.11810 0.52779
 C1735 C 0.34100 -0.06340 0.50243
 C1736 C 0.35879 -0.05424 0.50208
 C1737 C 0.37594 -0.06350 0.50916
 C1738 C 0.37482 -0.08306 0.51598
 C1739 C 0.39234 -0.09313 0.52085
 C1740 C 0.41027 -0.08421 0.51972
 C1741 C 0.41143 -0.06475 0.51431
 C1742 C 0.39424 -0.05398 0.50933
 C1743 C 0.39604 -0.03395 0.50516
 C1744 C 0.41417 -0.02523 0.50546
 C1745 C 0.43117 -0.03611 0.50967
 C1746 C 0.42971 -0.05592 0.51404
 H1747 H 0.36541 -0.11856 0.53254
 H1748 H 0.30842 -0.08196 0.50617
 H1749 H 0.33413 -0.13231 0.53435
 H1750 H 0.32826 -0.05572 0.49676
 H1751 H 0.35873 -0.03999 0.49565
 H1752 H 0.39277 -0.10819 0.52512
 H1753 H 0.42334 -0.09258 0.52344
 H1754 H 0.38367 -0.02446 0.50213
 H1755 H 0.41488 -0.00985 0.50217
 H1756 H 0.44277 -0.06437 0.51768
 C1757 C -0.14690 0.38808 1.01507
 C1758 C -0.14482 0.40834 1.01224
 C1759 C -0.16211 0.41999 1.01011
 C1760 C -0.18052 0.41155 1.01060
 C1761 C -0.18224 0.39160 1.01389
 C1762 C -0.16532 0.37995 1.01600
 C1763 C -0.16100 0.44009 1.00794
 C1764 C -0.14317 0.44912 1.00859
 C1765 C -0.12556 0.43830 1.01113
 C1766 C -0.12630 0.41750 1.01201
 C1767 C -0.10853 0.40660 1.01252
 C1768 C -0.09066 0.41569 1.01277
 C1769 C -0.08975 0.43597 1.01302
 C1770 C -0.10718 0.44758 1.01254
 C1771 C -0.10551 0.46806 1.01388
 C1772 C -0.08732 0.47656 1.01494
 C1773 C -0.07009 0.46507 1.01468
 C1774 C -0.07144 0.44472 1.01381
 H1775 H -0.13466 0.37819 1.01728
 H1776 H -0.19362 0.42067 1.00927
 H1777 H -0.16637 0.36446 1.01859
 H1778 H -0.17414 0.44903 1.00605
 H1779 H -0.14367 0.46469 1.00666
 H1780 H -0.10788 0.39089 1.01231
 H1781 H -0.07740 0.40671 1.01302
 H1782 H -0.11796 0.47797 1.01453
 H1783 H -0.08682 0.49232 1.01576
 H1784 H -0.05824 0.43564 1.01388
 C1785 C -0.15755 0.60987 0.47669
 C1786 C -0.15431 0.59218 0.48661
 C1787 C -0.17074 0.58296 0.49450
 C1788 C -0.18943 0.59179 0.49336
 C1789 C -0.19254 0.60934 0.48328
 C1790 C -0.17627 0.61811 0.47491
 C1791 C -0.16853 0.56475 0.50315
 C1792 C -0.15043 0.55515 0.50357
 C1793 C -0.13362 0.56378 0.49600
 C1794 C -0.13541 0.58307 0.48846
 C1795 C -0.11824 0.59276 0.48339
 C1796 C -0.09998 0.58367 0.48502
 C1797 C -0.09815 0.56437 0.49103
 C1798 C -0.11496 0.55395 0.49612
 C1799 C -0.11242 0.53398 0.50073
 C1800 C -0.09389 0.52503 0.50085
 C1801 C -0.07729 0.53570 0.49672
 C1802 C -0.07954 0.55539 0.49187
 H1803 H -0.14600 0.61744 0.46960
 H1804 H -0.20173 0.58422 0.49929
 H1805 H -0.17776 0.63185 0.46741
 H1806 H -0.18100 0.55764 0.50932
 H1807 H -0.14995 0.54116 0.51055
 H1808 H -0.11838 0.60770 0.47874
 H1809 H -0.08717 0.59175 0.48120
 H1810 H -0.12451 0.52475 0.50379
 H1811 H -0.09253 0.50973 0.50449
 H1812 H -0.06678 0.56366 0.48838
 C1813 C 0.34540 1.11113 -0.02407
 C1814 C 0.34928 1.09403 -0.01337
 C1815 C 0.33324 1.08486 -0.00465
 C1816 C 0.31429 1.09303 -0.00605
 C1817 C 0.31051 1.10987 -0.01705
 C1818 C 0.32644 1.11872 -0.02600
 C1819 C 0.33609 1.06731 0.00508
 C1820 C 0.35438 1.05816 0.00562
 C1821 C 0.37077 1.06658 -0.00307
 C1822 C 0.36841 1.08538 -0.01160
 C1823 C 0.38524 1.09496 -0.01788
 C1824 C 0.40366 1.08608 -0.01671
 C1825 C 0.40596 1.06710 -0.00990
 C1826 C 0.38950 1.05692 -0.00332
 C1827 C 0.39237 1.03723 0.00214
 C1828 C 0.41084 1.02824 0.00135
 C1829 C 0.42710 1.03857 -0.00456
 C1830 C 0.42462 1.05808 -0.00997
 H1831 H 0.35663 1.11868 -0.03167
 H1832 H 0.30232 1.08538 0.00044
 H1833 H 0.32450 1.13204 -0.03412
 H1834 H 0.32394 1.06031 0.01198
 H1835 H 0.35534 1.04466 0.01345
 H1836 H 0.38472 1.10963 -0.02333
 H1837 H 0.41618 1.09402 -0.02162
 H1838 H 0.38056 1.02817 0.00644
 H1839 H 0.41242 1.01308 0.00548
 H1840 H 0.43713 1.06605 -0.01486
 C1841 C 0.03544 1.16957 1.08054
 C1842 C 0.01868 1.15820 1.07863
 C1843 C 0.00127 1.16514 1.08781
 C1844 C 0.00058 1.18331 1.09756
 C1845 C 0.01748 1.19432 1.09968
 C1846 C 0.03486 1.18708 1.09098
 C1847 C -0.01525 1.15370 1.08761
 C1848 C -0.01469 1.13522 1.07905
 C1849 C 0.00228 1.12777 1.06959
 C1850 C 0.01883 1.13994 1.06840
 C1851 C 0.03481 1.13365 1.05672
 C1852 C 0.03489 1.11581 1.04701
 C1853 C 0.01942 1.10323 1.04906
 C1854 C 0.00311 1.10876 1.06080
 C1855 C -0.01153 1.09485 1.06350
 C1856 C -0.01032 1.07663 1.05423
 C1857 C 0.00528 1.07180 1.04177
 C1858 C 0.02016 1.08513 1.03935
 H1859 H 0.04946 1.16503 1.07468
 H1860 H -0.01289 1.18815 1.10460
 H1861 H 0.04815 1.19523 1.09167
 H1862 H -0.02867 1.15889 1.09452
 H1863 H -0.02805 1.12732 1.07952
 H1864 H 0.04726 1.14254 1.05421
 H1865 H 0.04735 1.11172 1.03796
 H1866 H -0.02388 1.09748 1.07298
 H1867 H -0.02190 1.06644 1.05645
 H1868 H 0.03249 1.08128 1.03003
 C1869 C 0.52493 0.67337 0.57360
 C1870 C 0.51123 0.65873 0.57715
 C1871 C 0.49772 0.66194 0.59259
 C1872 C 0.49781 0.67932 0.60362
 C1873 C 0.51173 0.69335 0.60002
 C1874 C 0.52520 0.69028 0.58498
 C1875 C 0.48452 0.64761 0.59725
 C1876 C 0.48484 0.62980 0.58742
 C1877 C 0.49816 0.62577 0.57213
 C1878 C 0.51092 0.64082 0.56632
 C1879 C 0.52285 0.63753 0.54980
 C1880 C 0.52292 0.61991 0.53974
 C1881 C 0.51141 0.60471 0.54586
 C1882 C 0.49900 0.60727 0.56226
 C1883 C 0.48826 0.59103 0.56826
 C1884 C 0.48949 0.57330 0.55811
 C1885 C 0.50135 0.57109 0.54159
 C1886 C 0.51231 0.58691 0.53562
 H1887 H 0.53613 0.67195 0.56265
 H1888 H 0.48760 0.68161 0.61553
 H1889 H 0.53621 0.70095 0.58222
 H1890 H 0.47405 0.65002 0.60892
 H1891 H 0.47414 0.61957 0.59197
 H1892 H 0.53209 0.64848 0.54395
 H1893 H 0.53229 0.61809 0.52711
 H1894 H 0.47903 0.59141 0.58094
 H1895 H 0.48095 0.56130 0.56315
 H1896 H 0.52177 0.58534 0.52303
 C1897 C 0.00767 0.65583 0.39549
 C1898 C -0.00757 0.64681 0.40572
 C1899 C -0.02526 0.65773 0.40845
 C1900 C -0.02758 0.67653 0.40091
 C1901 C -0.01251 0.68508 0.39056
 C1902 C 0.00518 0.67464 0.38808
 C1903 C -0.04066 0.64989 0.41869
 C1904 C -0.03885 0.63156 0.42680
 C1905 C -0.02146 0.62017 0.42491
 C1906 C -0.00583 0.62757 0.41358
 C1907 C 0.01090 0.61545 0.41042
 C1908 C 0.01268 0.59708 0.41869
 C1909 C -0.00191 0.59017 0.43073
 C1910 C -0.01920 0.60163 0.43405
 C1911 C -0.03325 0.59432 0.44697
 C1912 C -0.03001 0.57673 0.45643
 C1913 C -0.01291 0.56558 0.45323
 C1914 C 0.00092 0.57210 0.43998
 H1915 H 0.02175 0.64885 0.39311
 H1916 H -0.04119 0.68466 0.40329
 H1917 H 0.01706 0.68092 0.38010
 H1918 H -0.05430 0.65810 0.42059
 H1919 H -0.05159 0.62666 0.43428
 H1920 H 0.02291 0.61968 0.40143
 H1921 H 0.02586 0.58837 0.41595
 H1922 H -0.04660 0.60210 0.45074
 H1923 H -0.04089 0.57193 0.46661
 H1924 H 0.01433 0.56361 0.43766
 C1925 C 0.51129 1.16068 -0.10317
 C1926 C 0.49581 1.14949 -0.09608
 C1927 C 0.47684 1.15817 -0.09622
 C1928 C 0.47357 1.17688 -0.10364
 C1929 C 0.48893 1.18786 -0.11101
 C1930 C 0.50791 1.17949 -0.11035
 C1931 C 0.46106 1.14823 -0.08882
 C1932 C 0.46370 1.13002 -0.08067
 C1933 C 0.48234 1.12082 -0.07975
 C1934 C 0.49850 1.13025 -0.08844
 C1935 C 0.51667 1.12004 -0.08932
 C1936 C 0.51917 1.10161 -0.08129
 C1937 C 0.50388 1.09286 -0.07157
 C1938 C 0.48529 1.10246 -0.07047
 C1939 C 0.47055 1.09362 -0.05948
 C1940 C 0.47420 1.07615 -0.04997
 C1941 C 0.49246 1.06667 -0.05127
 C1942 C 0.50720 1.07482 -0.06239
 H1943 H 0.52625 1.15545 -0.10313
 H1944 H 0.45893 1.18317 -0.10270
 H1945 H 0.52028 1.18704 -0.11609
 H1946 H 0.44645 1.15470 -0.08915
 H1947 H 0.45065 1.12333 -0.07556
 H1948 H 0.52924 1.12580 -0.09644
 H1949 H 0.53338 1.09434 -0.08230
 H1950 H 0.45626 1.10017 -0.05721
 H1951 H 0.46269 1.07006 -0.04131
 H1952 H 0.52147 1.06762 -0.06309
 C1953 C 0.50523 0.32142 -0.07233
 C1954 C 0.51298 0.33929 -0.07834
 C1955 C 0.52229 0.33961 -0.09669
 C1956 C 0.52482 0.32247 -0.10781
 C1957 C 0.51754 0.30461 -0.10152
 C1958 C 0.50731 0.30453 -0.08378
 C1959 C 0.52900 0.35708 -0.10399
 C1960 C 0.52639 0.37441 -0.09362
 C1961 C 0.51744 0.37485 -0.07515
 C1962 C 0.51153 0.35687 -0.06696
 C1963 C 0.50489 0.35699 -0.04755
 C1964 C 0.50368 0.37416 -0.03663
 C1965 C 0.50827 0.39197 -0.04481
 C1966 C 0.51470 0.39265 -0.06437
 C1967 C 0.51775 0.41119 -0.07247
 C1968 C 0.51511 0.42819 -0.06141
 C1969 C 0.50963 0.42735 -0.04188
 C1970 C 0.50629 0.40919 -0.03360
 H1971 H 0.49717 0.32008 -0.05899
 H1972 H 0.53177 0.32339 -0.12190
 H1973 H 0.50157 0.29119 -0.07813
 H1974 H 0.53622 0.35742 -0.11799
 H1975 H 0.53222 0.38717 -0.10022
 H1976 H 0.50116 0.34386 -0.04012
 H1977 H 0.49880 0.37351 -0.02169
 H1978 H 0.52165 0.41312 -0.08746
 H1979 H 0.51760 0.44211 -0.06813
 H1980 H 0.50166 0.40852 -0.01857
 C1981 C 0.00949 -0.18124 0.43079
 C1982 C 0.01228 -0.16270 0.42247
 C1983 C 0.01671 -0.16214 0.40237
 C1984 C 0.01930 -0.17945 0.39153
 C1985 C 0.01707 -0.19762 0.40015
 C1986 C 0.01180 -0.19837 0.41973
 C1987 C 0.01868 -0.14433 0.39317
 C1988 C 0.01619 -0.12690 0.40338
 C1989 C 0.01206 -0.12657 0.42346
 C1990 C 0.01073 -0.14477 0.43330
 C1991 C 0.00846 -0.14442 0.45366
 C1992 C 0.00728 -0.12696 0.46406
 C1993 C 0.00778 -0.10912 0.45461
 C1994 C 0.00971 -0.10863 0.43413
 C1995 C 0.00903 -0.09014 0.42518
 C1996 C 0.00716 -0.07299 0.43616
 C1997 C 0.00602 -0.07355 0.45642
 C1998 C 0.00630 -0.09171 0.46556
 H1999 H 0.00530 -0.18302 0.44572
 H2000 H 0.02297 -0.17881 0.37623
 H2001 H 0.00984 -0.21230 0.42662
 H2002 H 0.02213 -0.14383 0.37783
 H2003 H 0.01824 -0.11386 0.39515
 H2004 H 0.00811 -0.15750 0.46214
 H2005 H 0.00583 -0.12744 0.47971
 H2006 H 0.00954 -0.08838 0.40969
 H2007 H 0.00684 -0.05917 0.42870
 H2008 H 0.00507 -0.09232 0.48122
 C2009 C 0.49645 -0.17308 0.57641
 C2010 C 0.49343 -0.15444 0.58514
 C2011 C 0.48708 -0.15366 0.60474
 C2012 C 0.48289 -0.17086 0.61463
 C2013 C 0.48537 -0.18911 0.60548
 C2014 C 0.49247 -0.19005 0.58645
 C2015 C 0.48483 -0.13573 0.61434
 C2016 C 0.48863 -0.11844 0.60493
 C2017 C 0.49442 -0.11833 0.58525
 C2018 C 0.49644 -0.13662 0.57509
 C2019 C 0.50076 -0.13650 0.55506
 C2020 C 0.50299 -0.11919 0.54524
 C2021 C 0.50142 -0.10132 0.55497
 C2022 C 0.49763 -0.10053 0.57519
 C2023 C 0.49711 -0.08190 0.58436
 C2024 C 0.49932 -0.06487 0.57366
 C2025 C 0.50200 -0.06586 0.55355
 C2026 C 0.50335 -0.08416 0.54439
 H2027 H 0.50204 -0.17516 0.56190
 H2028 H 0.47777 -0.17009 0.62953
 H2029 H 0.49459 -0.20402 0.57914
 H2030 H 0.48004 -0.13505 0.62934
 H2031 H 0.48629 -0.10527 0.61337
 H2032 H 0.50190 -0.14956 0.54629
 H2033 H 0.50591 -0.11983 0.52978
 H2034 H 0.49509 -0.07994 0.59977
 H2035 H 0.49841 -0.05087 0.58110
 H2036 H 0.50585 -0.08508 0.52886
 C2037 C -0.00044 0.32753 1.07821
 C2038 C -0.00747 0.34563 1.08579
 C2039 C -0.01894 0.34540 1.10290
 C2040 C -0.02414 0.32762 1.11118
 C2041 C -0.01740 0.30962 1.10327
 C2042 C -0.00522 0.30999 1.08682
 C2043 C -0.02509 0.36292 1.11175
 C2044 C -0.02015 0.38074 1.10399
 C2045 C -0.00935 0.38177 1.08658
 C2046 C -0.00345 0.36390 1.07702
 C2047 C 0.00565 0.36485 1.05867
 C2048 C 0.00879 0.38256 1.04987
 C2049 C 0.00353 0.40006 1.05917
 C2050 C -0.00498 0.40004 1.07794
 C2051 C -0.00890 0.41839 1.08709
 C2052 C -0.00573 0.43585 1.07738
 C2053 C 0.00129 0.43552 1.05831
 C2054 C 0.00631 0.41761 1.04949
 H2055 H 0.00907 0.32634 1.06576
 H2056 H -0.03273 0.32800 1.12441
 H2057 H 0.00012 0.29664 1.07990
 H2058 H -0.03379 0.36287 1.12492
 H2059 H -0.02568 0.39353 1.11162
 H2060 H 0.00982 0.35208 1.05025
 H2061 H 0.01533 0.38253 1.03553
 H2062 H -0.01444 0.41973 1.10170
 H2063 H -0.00953 0.44960 1.08450
 H2064 H 0.01212 0.41735 1.03483
 C2065 C 0.78581 0.32921 0.07608
 C2066 C 0.76839 0.33027 0.08706
 C2067 C 0.75321 0.34308 0.08068
 C2068 C 0.75523 0.35358 0.06336
 C2069 C 0.77289 0.35276 0.05285
 C2070 C 0.78802 0.34032 0.05953
 C2071 C 0.73635 0.34575 0.09195
 C2072 C 0.73453 0.33652 0.10973
 C2073 C 0.74922 0.32352 0.11657
 C2074 C 0.76586 0.31951 0.10446
 C2075 C 0.77931 0.30465 0.10996
 C2076 C 0.77709 0.29462 0.12711
 C2077 C 0.76172 0.29930 0.13972
 C2078 C 0.74771 0.31404 0.13490
 C2079 C 0.73304 0.31886 0.14884
 C2080 C 0.73211 0.30896 0.16648
 C2081 C 0.74552 0.29383 0.17060
 C2082 C 0.76032 0.28918 0.15717
 H2083 H 0.79836 0.32048 0.08027
 H2084 H 0.74349 0.36343 0.05889
 H2085 H 0.80167 0.33867 0.05164
 H2086 H 0.72462 0.35547 0.08720
 H2087 H 0.72113 0.33943 0.11760
 H2088 H 0.79146 0.29992 0.10096
 H2089 H 0.78771 0.28320 0.13065
 H2090 H 0.72235 0.33044 0.14670
 H2091 H 0.72064 0.31291 0.17675
 H2092 H 0.77102 0.27775 0.16046
 C2093 C 0.28134 0.82426 0.57711
 C2094 C 0.26743 0.82963 0.59159
 C2095 C 0.25603 0.84695 0.58878
 C2096 C 0.25824 0.85799 0.57187
 C2097 C 0.27229 0.85251 0.55793
 C2098 C 0.28375 0.83561 0.56069
 C2099 C 0.24282 0.85338 0.60306
 C2100 C 0.24105 0.84338 0.62038
 C2101 C 0.25214 0.82614 0.62395
 C2102 C 0.26489 0.81871 0.60895
 C2103 C 0.27456 0.80052 0.61171
 C2104 C 0.27249 0.79027 0.62876
 C2105 C 0.26098 0.79779 0.64391
 C2106 C 0.25075 0.81590 0.64190
 C2107 C 0.23987 0.82310 0.65813
 C2108 C 0.23899 0.81252 0.67534
 C2109 C 0.24874 0.79440 0.67696
 C2110 C 0.25973 0.78720 0.66112
 H2111 H 0.29109 0.81176 0.57829
 H2112 H 0.24959 0.87130 0.56988
 H2113 H 0.29482 0.83128 0.55011
 H2114 H 0.23397 0.86654 0.60097
 H2115 H 0.23053 0.84938 0.63061
 H2116 H 0.28360 0.79351 0.60074
 H2117 H 0.28018 0.77633 0.63017
 H2118 H 0.23217 0.83700 0.65814
 H2119 H 0.23050 0.81851 0.68739
 H2120 H 0.26764 0.77334 0.66226
 C2121 C 0.75341 0.64320 0.59062
 C2122 C 0.73970 0.65694 0.59866
 C2123 C 0.72326 0.66220 0.58722
 C2124 C 0.72042 0.65352 0.56902
 C2125 C 0.73390 0.63975 0.56147
 C2126 C 0.75053 0.63485 0.57227
 C2127 C 0.70963 0.67611 0.59394
 C2128 C 0.71211 0.68540 0.61165
 C2129 C 0.72827 0.68091 0.62357
 C2130 C 0.74182 0.66583 0.61742
 C2131 C 0.75673 0.65995 0.63036
 C2132 C 0.75862 0.66879 0.64851
 C2133 C 0.74618 0.68426 0.65424
 C2134 C 0.73110 0.69080 0.64165
 C2135 C 0.71966 0.70732 0.64748
 C2136 C 0.72274 0.71653 0.66520
 C2137 C 0.73721 0.70969 0.67789
 C2138 C 0.74885 0.69342 0.67241
 H2139 H 0.76663 0.63886 0.59800
 H2140 H 0.70773 0.65770 0.56050
 H2141 H 0.76121 0.62432 0.56660
 H2142 H 0.69693 0.67999 0.58534
 H2143 H 0.70068 0.69571 0.61581
 H2144 H 0.76694 0.64814 0.62707
 H2145 H 0.77016 0.66365 0.65804
 H2146 H 0.70854 0.71388 0.63848
 H2147 H 0.71355 0.72910 0.66906
 H2148 H 0.76027 0.68822 0.68205
 C2149 C 0.25639 0.14675 0.08935
 C2150 C 0.24325 0.16152 0.09644
 C2151 C 0.22762 0.16742 0.08421
 C2152 C 0.22484 0.15823 0.06625
 C2153 C 0.23759 0.14329 0.05977
 C2154 C 0.25358 0.13786 0.07124
 C2155 C 0.21466 0.18236 0.08994
 C2156 C 0.21694 0.19194 0.10752
 C2157 C 0.23220 0.18671 0.12030
 C2158 C 0.24508 0.17074 0.11507
 C2159 C 0.25898 0.16424 0.12882
 C2160 C 0.26044 0.17324 0.14693
 C2161 C 0.24862 0.18945 0.15184
 C2162 C 0.23466 0.19669 0.13837
 C2163 C 0.22392 0.21389 0.14342
 C2164 C 0.22648 0.22307 0.16124
 C2165 C 0.23974 0.21552 0.17480
 C2166 C 0.25077 0.19862 0.17007
 H2167 H 0.26907 0.14190 0.09733
 H2168 H 0.21266 0.16275 0.05718
 H2169 H 0.26371 0.12642 0.06634
 H2170 H 0.20259 0.18677 0.08070
 H2171 H 0.20600 0.20304 0.11091
 H2172 H 0.26862 0.15182 0.12620
 H2173 H 0.27114 0.16759 0.15711
 H2174 H 0.21374 0.22100 0.13376
 H2175 H 0.21782 0.23616 0.16447
 H2176 H 0.26129 0.19288 0.18038
 C2177 C 0.25076 0.17438 0.92645
 C2178 C 0.25532 0.16608 0.90801
 C2179 C 0.26205 0.14634 0.90731
 C2180 C 0.26547 0.13602 0.92449
 C2181 C 0.26173 0.14483 0.94257
 C2182 C 0.25392 0.16385 0.94340
 C2183 C 0.26561 0.13707 0.88951
 C2184 C 0.26274 0.14695 0.87225
 C2185 C 0.25676 0.16681 0.87213
 C2186 C 0.25353 0.17667 0.89032
 C2187 C 0.24942 0.19696 0.89029
 C2188 C 0.24850 0.20729 0.87314
 C2189 C 0.25105 0.19781 0.85530
 C2190 C 0.25461 0.17735 0.85443
 C2191 C 0.25590 0.16837 0.83583
 C2192 C 0.25463 0.17942 0.81897
 C2193 C 0.25222 0.19973 0.82007
 C2194 C 0.25023 0.20879 0.83828
 H2195 H 0.24461 0.18890 0.92829
 H2196 H 0.27114 0.12111 0.92383
 H2197 H 0.25073 0.17081 0.95729
 H2198 H 0.27070 0.12196 0.88890
 H2199 H 0.26612 0.13876 0.85919
 H2200 H 0.24757 0.20550 0.90341
 H2201 H 0.24574 0.22292 0.87386
 H2202 H 0.25766 0.15282 0.83379
 H2203 H 0.25599 0.17208 0.80501
 H2204 H 0.24792 0.22449 0.83919
 C2205 C 0.74773 0.67535 0.42727
 C2206 C 0.75212 0.66691 0.40884
 C2207 C 0.75931 0.64732 0.40829
 C2208 C 0.76313 0.63725 0.42553
 C2209 C 0.75943 0.64615 0.44357
 C2210 C 0.75132 0.66507 0.44430
 C2211 C 0.76287 0.63791 0.39056
 C2212 C 0.75961 0.64752 0.37322
 C2213 C 0.75311 0.66724 0.37292
 C2214 C 0.74975 0.67722 0.39104
 C2215 C 0.74485 0.69735 0.39078
 C2216 C 0.74347 0.70745 0.37351
 C2217 C 0.74639 0.69788 0.35577
 C2218 C 0.75062 0.67753 0.35511
 C2219 C 0.75234 0.66842 0.33660
 C2220 C 0.75105 0.67930 0.31964
 C2221 C 0.74807 0.69956 0.32052
 C2222 C 0.74540 0.70869 0.33863
 H2223 H 0.74138 0.68980 0.42906
 H2224 H 0.76901 0.62241 0.42494
 H2225 H 0.74816 0.67210 0.45815
 H2226 H 0.76830 0.62292 0.39007
 H2227 H 0.76304 0.63923 0.36024
 H2228 H 0.74270 0.70598 0.40379
 H2229 H 0.74016 0.72299 0.37407
 H2230 H 0.75462 0.65291 0.33469
 H2231 H 0.75297 0.67186 0.30578
 H2232 H 0.74268 0.72433 0.33942
 C2233 C 0.26607 0.86109 0.41408
 C2234 C 0.25200 0.84868 0.40590
 C2235 C 0.23502 0.84521 0.41703
 C2236 C 0.23197 0.85456 0.43502
 C2237 C 0.24588 0.86698 0.44272
 C2238 C 0.26306 0.86995 0.43228
 C2239 C 0.22112 0.83242 0.41023
 C2240 C 0.22381 0.82253 0.39275
 C2241 C 0.24040 0.82542 0.38105
 C2242 C 0.25425 0.83939 0.38726
 C2243 C 0.26956 0.84392 0.37444
 C2244 C 0.27146 0.83488 0.35633
 C2245 C 0.25867 0.82045 0.35054
 C2246 C 0.24329 0.81514 0.36307
 C2247 C 0.23161 0.79947 0.35725
 C2248 C 0.23460 0.79005 0.33946
 C2249 C 0.24918 0.79592 0.32668
 C2250 C 0.26123 0.81117 0.33232
 H2251 H 0.27972 0.86390 0.40698
 H2252 H 0.21883 0.85191 0.44328
 H2253 H 0.27408 0.87938 0.43812
 H2254 H 0.20805 0.82986 0.41862
 H2255 H 0.21220 0.81315 0.38848
 H2256 H 0.28001 0.85491 0.37777
 H2257 H 0.28325 0.83905 0.34685
 H2258 H 0.22032 0.79375 0.36629
 H2259 H 0.22522 0.77819 0.33561
 H2260 H 0.27280 0.81557 0.32268
 C2261 C 0.76635 0.35808 0.90998
 C2262 C 0.75224 0.34564 0.90189
 C2263 C 0.73501 0.34274 0.91282
 C2264 C 0.73178 0.35256 0.93051
 C2265 C 0.74572 0.36499 0.93811
 C2266 C 0.76313 0.36747 0.92790
 C2267 C 0.72099 0.33003 0.90612
 C2268 C 0.72383 0.31964 0.88896
 C2269 C 0.74073 0.32187 0.87753
 C2270 C 0.75470 0.33578 0.88357
 C2271 C 0.77033 0.33965 0.87090
 C2272 C 0.77243 0.33000 0.85309
 C2273 C 0.75952 0.31559 0.84753
 C2274 C 0.74382 0.31096 0.85997
 C2275 C 0.73201 0.29527 0.85451
 C2276 C 0.73517 0.28522 0.83712
 C2277 C 0.75008 0.29039 0.82439
 C2278 C 0.76227 0.30564 0.82967
 H2279 H 0.78015 0.36052 0.90303
 H2280 H 0.71846 0.35030 0.93862
 H2281 H 0.77417 0.37690 0.93369
 H2282 H 0.70771 0.32794 0.91433
 H2283 H 0.71210 0.31039 0.88472
 H2284 H 0.78091 0.35056 0.87409
 H2285 H 0.78447 0.33367 0.84371
 H2286 H 0.72049 0.29002 0.86356
 H2287 H 0.72563 0.27339 0.83354
 H2288 H 0.77407 0.30951 0.82007
 C2289 C 0.86242 0.39608 0.23061
 C2290 C 0.84310 0.39392 0.23749
 C2291 C 0.83270 0.41100 0.24386
 C2292 C 0.84151 0.42924 0.24369
 C2293 C 0.86050 0.43111 0.23660
 C2294 C 0.87085 0.41441 0.23006
 C2295 C 0.81341 0.40993 0.25008
 C2296 C 0.80385 0.39238 0.24948
 C2297 C 0.81337 0.37499 0.24294
 C2298 C 0.83358 0.37557 0.23779
 C2299 C 0.84358 0.35777 0.23333
 C2300 C 0.83406 0.34011 0.23340
 C2301 C 0.81410 0.33948 0.23730
 C2302 C 0.80339 0.35698 0.24171
 C2303 C 0.78298 0.35578 0.24429
 C2304 C 0.77379 0.33795 0.24315
 C2305 C 0.78451 0.32060 0.23957
 C2306 C 0.80473 0.32146 0.23666
 H2307 H 0.87120 0.38402 0.22499
 H2308 H 0.83328 0.44218 0.24840
 H2309 H 0.88554 0.41557 0.22441
 H2310 H 0.80548 0.42289 0.25519
 H2311 H 0.78903 0.39287 0.25472
 H2312 H 0.85897 0.35694 0.23016
 H2313 H 0.84238 0.32682 0.23006
 H2314 H 0.77356 0.36841 0.24673
 H2315 H 0.75814 0.33775 0.24533
 H2316 H 0.81311 0.30814 0.23352
 C2317 C 0.36425 0.89692 0.72793
 C2318 C 0.34570 0.89457 0.73661
 C2319 C 0.33549 0.91164 0.74330
 C2320 C 0.34372 0.93004 0.74163
 C2321 C 0.36199 0.93210 0.73291
 C2322 C 0.37216 0.91541 0.72605
 C2323 C 0.31696 0.91037 0.75144
 C2324 C 0.30790 0.89261 0.75251
 C2325 C 0.31717 0.87521 0.74567
 C2326 C 0.33673 0.87603 0.73848
 C2327 C 0.34664 0.85831 0.73356
 C2328 C 0.33758 0.84047 0.73504
 C2329 C 0.31813 0.83957 0.74091
 C2330 C 0.30755 0.85698 0.74599
 C2331 C 0.28755 0.85549 0.75068
 C2332 C 0.27861 0.83752 0.75061
 C2333 C 0.28919 0.82033 0.74609
 C2334 C 0.30904 0.82139 0.74141
 H2335 H 0.37283 0.88486 0.72202
 H2336 H 0.33557 0.94293 0.74661
 H2337 H 0.38631 0.91666 0.71922
 H2338 H 0.30922 0.92334 0.75683
 H2339 H 0.29369 0.89298 0.75922
 H2340 H 0.36165 0.85769 0.72884
 H2341 H 0.34580 0.82725 0.73119
 H2342 H 0.27817 0.86797 0.75389
 H2343 H 0.26322 0.83711 0.75419
 H2344 H 0.31725 0.80816 0.73756
 C2345 C 0.13529 0.91035 0.26803
 C2346 C 0.15402 0.90753 0.25968
 C2347 C 0.16353 0.92417 0.25274
 C2348 C 0.15416 0.94270 0.25345
 C2349 C 0.13578 0.94542 0.26241
 C2350 C 0.12654 0.92888 0.26954
 C2351 C 0.18261 0.92234 0.24569
 C2352 C 0.19277 0.90451 0.24614
 C2353 C 0.18391 0.88755 0.25298
 C2354 C 0.16384 0.88887 0.25867
 C2355 C 0.15420 0.87149 0.26294
 C2356 C 0.16402 0.85352 0.26245
 C2357 C 0.18393 0.85217 0.25835
 C2358 C 0.19431 0.86920 0.25395
 C2359 C 0.21475 0.86716 0.25119
 C2360 C 0.22425 0.84891 0.25216
 C2361 C 0.21372 0.83208 0.25560
 C2362 C 0.19355 0.83384 0.25869
 H2363 H 0.12729 0.89863 0.27425
 H2364 H 0.16194 0.95520 0.24833
 H2365 H 0.11214 0.93008 0.27603
 H2366 H 0.18999 0.93495 0.24022
 H2367 H 0.20746 0.90435 0.24050
 H2368 H 0.13882 0.87122 0.26614
 H2369 H 0.15596 0.84054 0.26564
 H2370 H 0.22386 0.87946 0.24872
 H2371 H 0.23989 0.84792 0.24986
 H2372 H 0.18536 0.82090 0.26172
 C2373 C 0.63725 0.40455 0.76472
 C2374 C 0.65722 0.40189 0.75971
 C2375 C 0.66827 0.41885 0.75697
 C2376 C 0.65941 0.43754 0.75865
 C2377 C 0.63971 0.43980 0.76382
 C2378 C 0.62876 0.42319 0.76684
 C2379 C 0.68817 0.41711 0.75291
 C2380 C 0.69760 0.39893 0.75211
 C2381 C 0.68734 0.38159 0.75490
 C2382 C 0.66667 0.38307 0.75784
 C2383 C 0.65612 0.36569 0.75861
 C2384 C 0.66547 0.34750 0.75723
 C2385 C 0.68571 0.34581 0.75551
 C2386 C 0.69701 0.36280 0.75458
 C2387 C 0.71757 0.36023 0.75381
 C2388 C 0.72638 0.34163 0.75360
 C2389 C 0.71510 0.32491 0.75397
 C2390 C 0.69473 0.32715 0.75487
 H2391 H 0.62790 0.39257 0.76769
 H2392 H 0.66801 0.45041 0.75662
 H2393 H 0.61351 0.42464 0.77093
 H2394 H 0.69667 0.42999 0.75064
 H2395 H 0.71297 0.39893 0.74883
 H2396 H 0.64046 0.36562 0.75982
 H2397 H 0.65673 0.33458 0.75780
 H2398 H 0.72732 0.37228 0.75381
 H2399 H 0.74215 0.34035 0.75302
 H2400 H 0.68585 0.31432 0.75548
 C2401 C 0.67511 0.57296 0.74067
 C2402 C 0.66641 0.59164 0.73752
 C2403 C 0.64641 0.59252 0.73231
 C2404 C 0.63602 0.57533 0.72947
 C2405 C 0.64499 0.55700 0.73234
 C2406 C 0.66451 0.55600 0.73818
 C2407 C 0.63683 0.61053 0.73001
 C2408 C 0.64654 0.62781 0.73299
 C2409 C 0.66651 0.62780 0.73794
 C2410 C 0.67677 0.60942 0.73956
 C2411 C 0.69712 0.60942 0.74268
 C2412 C 0.70708 0.62671 0.74445
 C2413 C 0.69719 0.64471 0.74369
 C2414 C 0.67670 0.64557 0.74085
 C2415 C 0.66729 0.66424 0.74121
 C2416 C 0.67790 0.68120 0.74364
 C2417 C 0.69823 0.68024 0.74564
 C2418 C 0.70775 0.66189 0.74573
 H2419 H 0.68998 0.57092 0.74539
 H2420 H 0.62077 0.57620 0.72532
 H2421 H 0.67170 0.54198 0.74061
 H2422 H 0.62155 0.61129 0.72598
 H2423 H 0.63805 0.64103 0.73073
 H2424 H 0.70596 0.59622 0.74327
 H2425 H 0.72275 0.62595 0.74656
 H2426 H 0.65171 0.66626 0.73995
 H2427 H 0.67014 0.69518 0.74361
 H2428 H 0.72345 0.66096 0.74758
 C2429 C 0.17300 0.07994 0.24451
 C2430 C 0.16451 0.09862 0.24087
 C2431 C 0.14447 0.09960 0.23584
 C2432 C 0.13392 0.08250 0.23336
 C2433 C 0.14282 0.06414 0.23617
 C2434 C 0.16228 0.06304 0.24220
 C2435 C 0.13508 0.11761 0.23303
 C2436 C 0.14510 0.13482 0.23501
 C2437 C 0.16519 0.13471 0.23949
 C2438 C 0.17518 0.11628 0.24196
 C2439 C 0.19557 0.11610 0.24481
 C2440 C 0.20587 0.13326 0.24535
 C2441 C 0.19628 0.15133 0.24357
 C2442 C 0.17575 0.15239 0.24105
 C2443 C 0.16667 0.17118 0.24030
 C2444 C 0.17760 0.18802 0.24145
 C2445 C 0.19794 0.18683 0.24323
 C2446 C 0.20717 0.16839 0.24432
 H2447 H 0.18787 0.07785 0.24923
 H2448 H 0.11871 0.08344 0.22907
 H2449 H 0.16941 0.04898 0.24459
 H2450 H 0.11975 0.11843 0.22919
 H2451 H 0.13673 0.14801 0.23231
 H2452 H 0.20419 0.10282 0.24610
 H2453 H 0.22155 0.13234 0.24728
 H2454 H 0.15111 0.17343 0.23916
 H2455 H 0.17006 0.20208 0.24071
 H2456 H 0.22288 0.16731 0.24605
 C2457 C 0.31778 0.06864 0.77834
 C2458 C 0.32261 0.08253 0.76417
 C2459 C 0.33899 0.07824 0.75207
 C2460 C 0.34966 0.06055 0.75390
 C2461 C 0.34476 0.04718 0.76819
 C2462 C 0.32877 0.05137 0.78032
 C2463 C 0.34490 0.09178 0.73847
 C2464 C 0.33536 0.10984 0.73703
 C2465 C 0.31914 0.11494 0.74889
 C2466 C 0.31210 0.10069 0.76201
 C2467 C 0.29473 0.10503 0.77245
 C2468 C 0.28503 0.12294 0.77083
 C2469 C 0.29237 0.13742 0.75906
 C2470 C 0.30959 0.13376 0.74800
 C2471 C 0.31678 0.14931 0.73692
 C2472 C 0.30717 0.16755 0.73683
 C2473 C 0.29000 0.17091 0.74756
 C2474 C 0.28264 0.15567 0.75853
 H2475 H 0.30600 0.07090 0.78856
 H2476 H 0.36224 0.05747 0.74467
 H2477 H 0.32480 0.04122 0.79150
 H2478 H 0.35730 0.08853 0.72907
 H2479 H 0.34090 0.11941 0.72615
 H2480 H 0.28797 0.09469 0.78181
 H2481 H 0.27176 0.12560 0.77917
 H2482 H 0.33007 0.14806 0.72857
 H2483 H 0.31328 0.17910 0.72833
 H2484 H 0.26953 0.15816 0.76717
 C2485 C 0.81865 0.56786 0.28387
 C2486 C 0.82446 0.58197 0.27032
 C2487 C 0.84123 0.57756 0.25879
 C2488 C 0.85128 0.55951 0.26051
 C2489 C 0.84537 0.54589 0.27415
 C2490 C 0.82904 0.55022 0.28577
 C2491 C 0.84811 0.59131 0.24589
 C2492 C 0.83909 0.60963 0.24452
 C2493 C 0.82242 0.61481 0.25573
 C2494 C 0.81450 0.60044 0.26819
 C2495 C 0.79677 0.60492 0.27796
 C2496 C 0.78743 0.62299 0.27619
 C2497 C 0.79549 0.63749 0.26494
 C2498 C 0.81321 0.63379 0.25471
 C2499 C 0.82109 0.64940 0.24420
 C2500 C 0.81153 0.66766 0.24363
 C2501 C 0.79375 0.67097 0.25334
 C2502 C 0.78586 0.65576 0.26398
 H2503 H 0.80653 0.57019 0.29367
 H2504 H 0.86415 0.55631 0.25172
 H2505 H 0.82434 0.53990 0.29648
 H2506 H 0.86084 0.58799 0.23696
 H2507 H 0.84535 0.61934 0.23418
 H2508 H 0.78942 0.59457 0.28682
 H2509 H 0.77381 0.62571 0.28392
 H2510 H 0.83481 0.64812 0.23657
 H2511 H 0.81804 0.67920 0.23543
 H2512 H 0.77228 0.65822 0.27186
 C2513 C 0.91347 0.28384 0.16476
 C2514 C 0.89979 0.26931 0.16052
 C2515 C 0.90463 0.25552 0.14565
 C2516 C 0.92277 0.25598 0.13607
 C2517 C 0.93604 0.27050 0.14054
 C2518 C 0.93120 0.28440 0.15486
 C2519 C 0.89128 0.24149 0.14026
 C2520 C 0.87304 0.24096 0.14907
 C2521 C 0.86755 0.25422 0.16406
 C2522 C 0.88142 0.26819 0.17032
 C2523 C 0.87664 0.28033 0.18642
 C2524 C 0.85889 0.27910 0.19594
 C2525 C 0.84500 0.26604 0.18965
 C2526 C 0.84885 0.25368 0.17338
 C2527 C 0.83373 0.24141 0.16713
 C2528 C 0.81598 0.24090 0.17719
 C2529 C 0.81277 0.25247 0.19381
 C2530 C 0.82728 0.26519 0.19976
 H2531 H 0.91080 0.29532 0.17530
 H2532 H 0.92637 0.24538 0.12473
 H2533 H 0.94125 0.29582 0.15844
 H2534 H 0.89490 0.23088 0.12894
 H2535 H 0.86369 0.22958 0.14410
 H2536 H 0.88655 0.29065 0.19247
 H2537 H 0.85600 0.28855 0.20840
 H2538 H 0.83505 0.23215 0.15445
 H2539 H 0.80490 0.23112 0.17215
 H2540 H 0.82476 0.27456 0.21236
 C2541 C 0.41560 0.78694 0.66858
 C2542 C 0.40219 0.77197 0.66499
 C2543 C 0.40710 0.75787 0.65044
 C2544 C 0.42511 0.75836 0.64065
 C2545 C 0.43821 0.77318 0.64460
 C2546 C 0.43323 0.78750 0.65848
 C2547 C 0.39400 0.74342 0.64563
 C2548 C 0.37594 0.74272 0.65476
 C2549 C 0.37042 0.75622 0.66953
 C2550 C 0.38405 0.77067 0.67519
 C2551 C 0.37931 0.78302 0.69114
 C2552 C 0.36184 0.78149 0.70112
 C2553 C 0.34816 0.76795 0.69540
 C2554 C 0.35196 0.75543 0.67924
 C2555 C 0.33701 0.74273 0.67347
 C2556 C 0.31951 0.74198 0.68387
 C2557 C 0.31636 0.75370 0.70040
 C2558 C 0.33069 0.76681 0.70591
 H2559 H 0.41279 0.79868 0.67879
 H2560 H 0.42879 0.74745 0.62963
 H2561 H 0.44313 0.79915 0.66164
 H2562 H 0.39768 0.73259 0.63455
 H2563 H 0.36680 0.73098 0.65027
 H2564 H 0.38910 0.79371 0.69674
 H2565 H 0.35899 0.79109 0.71348
 H2566 H 0.33827 0.73335 0.66086
 H2567 H 0.30855 0.73190 0.67916
 H2568 H 0.32820 0.77627 0.71844
 C2569 C 0.41301 0.25301 0.85392
 C2570 C 0.40595 0.23975 0.83981
 C2571 C 0.41861 0.22409 0.83385
 C2572 C 0.43699 0.22142 0.84235
 C2573 C 0.44342 0.23424 0.85673
 C2574 C 0.43149 0.25025 0.86218
 C2575 C 0.41286 0.21098 0.81957
 C2576 C 0.39480 0.21306 0.81080
 C2577 C 0.38152 0.22828 0.81620
 C2578 C 0.38692 0.24149 0.83137
 C2579 C 0.37298 0.25567 0.83784
 C2580 C 0.35453 0.25714 0.82960
 C2581 C 0.34935 0.24491 0.81428
 C2582 C 0.36286 0.23050 0.80714
 C2583 C 0.35723 0.21908 0.79099
 C2584 C 0.33894 0.22171 0.78256
 C2585 C 0.32551 0.23568 0.78990
 C2586 C 0.33075 0.24716 0.80589
 H2587 H 0.40471 0.26570 0.85880
 H2588 H 0.44641 0.20924 0.83777
 H2589 H 0.43629 0.26043 0.87318
 H2590 H 0.42247 0.19893 0.81506
 H2591 H 0.39152 0.20207 0.80012
 H2592 H 0.37572 0.26564 0.84964
 H2593 H 0.34426 0.26816 0.83516
 H2594 H 0.36672 0.20828 0.78414
 H2595 H 0.33530 0.21268 0.77016
 H2596 H 0.32054 0.25822 0.81148
 C2597 C 0.92785 0.74337 0.32610
 C2598 C 0.90960 0.73805 0.33385
 C2599 C 0.90926 0.73090 0.35306
 C2600 C 0.92669 0.72793 0.36337
 C2601 C 0.94464 0.73250 0.35510
 C2602 C 0.94503 0.74062 0.33660
 C2603 C 0.89158 0.72653 0.36181
 C2604 C 0.87410 0.72904 0.35193
 C2605 C 0.87366 0.73553 0.33257
 C2606 C 0.89177 0.73955 0.32321
 C2607 C 0.89155 0.74424 0.30333
 C2608 C 0.87429 0.74512 0.29295
 C2609 C 0.85650 0.74187 0.30199
 C2610 C 0.85578 0.73753 0.32203
 C2611 C 0.83714 0.73543 0.33063
 C2612 C 0.82014 0.73687 0.31956
 C2613 C 0.82115 0.74025 0.29961
 C2614 C 0.83937 0.74287 0.29098
 H2615 H 0.92938 0.74984 0.31204
 H2616 H 0.92632 0.72202 0.37789
 H2617 H 0.95877 0.74440 0.33003
 H2618 H 0.89124 0.72109 0.37651
 H2619 H 0.86117 0.72508 0.35970
 H2620 H 0.90463 0.74666 0.29510
 H2621 H 0.87489 0.74843 0.27762
 H2622 H 0.83516 0.73295 0.34590
 H2623 H 0.80616 0.73502 0.32658
 H2624 H 0.84023 0.74595 0.27560
 C2625 C 0.07485 0.75781 0.32290
 C2626 C 0.09333 0.76200 0.33084
 C2627 C 0.09425 0.76610 0.35103
 C2628 C 0.07725 0.76698 0.36238
 C2629 C 0.05909 0.76330 0.35417
 C2630 C 0.05805 0.75840 0.33445
 C2631 C 0.11211 0.76943 0.35983
 C2632 C 0.12928 0.76843 0.34916
 C2633 C 0.12922 0.76445 0.32902
 C2634 C 0.11090 0.76206 0.31955
 C2635 C 0.11073 0.76028 0.29912
 C2636 C 0.12790 0.76037 0.28834
 C2637 C 0.14595 0.76158 0.29746
 C2638 C 0.14690 0.76320 0.31797
 C2639 C 0.16556 0.76310 0.32664
 C2640 C 0.18244 0.76195 0.31539
 C2641 C 0.18146 0.76103 0.29512
 C2642 C 0.16313 0.76094 0.28621
 H2643 H 0.07291 0.75376 0.30791
 H2644 H 0.07813 0.77041 0.37774
 H2645 H 0.04411 0.75541 0.32786
 H2646 H 0.11287 0.77274 0.37522
 H2647 H 0.14237 0.77147 0.35709
 H2648 H 0.09743 0.75936 0.29093
 H2649 H 0.12704 0.75919 0.27267
 H2650 H 0.16768 0.76333 0.34211
 H2651 H 0.19640 0.76184 0.32268
 H2652 H 0.16224 0.75987 0.27053
 C2653 C 0.57438 0.25870 0.82155
 C2654 C 0.59299 0.26188 0.82972
 C2655 C 0.59386 0.26603 0.84990
 C2656 C 0.57673 0.26789 0.86103
 C2657 C 0.55848 0.26513 0.85260
 C2658 C 0.55745 0.26024 0.83289
 C2659 C 0.61180 0.26835 0.85893
 C2660 C 0.62906 0.26627 0.84848
 C2661 C 0.62906 0.26224 0.82836
 C2662 C 0.61071 0.26086 0.81867
 C2663 C 0.61071 0.25898 0.79825
 C2664 C 0.62802 0.25803 0.78768
 C2665 C 0.64602 0.25829 0.79701
 C2666 C 0.64682 0.25997 0.81752
 C2667 C 0.66540 0.25894 0.82637
 C2668 C 0.68236 0.25689 0.81528
 C2669 C 0.68154 0.25598 0.79501
 C2670 C 0.66328 0.25673 0.78594
 H2671 H 0.57242 0.25469 0.80655
 H2672 H 0.57758 0.27131 0.87640
 H2673 H 0.54345 0.25790 0.82615
 H2674 H 0.61253 0.27166 0.87432
 H2675 H 0.64223 0.26854 0.85657
 H2676 H 0.59747 0.25878 0.78989
 H2677 H 0.62729 0.25683 0.77201
 H2678 H 0.66736 0.25915 0.84186
 H2679 H 0.69625 0.25612 0.82270
 H2680 H 0.66247 0.25567 0.77026
 C2681 C 0.57330 0.71730 0.67094
 C2682 C 0.58588 0.73323 0.66910
 C2683 C 0.58089 0.74774 0.65534
 C2684 C 0.56353 0.74667 0.64465
 C2685 C 0.55130 0.73084 0.64682
 C2686 C 0.55639 0.71615 0.65988
 C2687 C 0.59336 0.76312 0.65214
 C2688 C 0.61097 0.76421 0.66194
 C2689 C 0.61656 0.75021 0.67587
 C2690 C 0.60337 0.73500 0.68013
 C2691 C 0.60790 0.72229 0.69553
 C2692 C 0.62500 0.72394 0.70601
 C2693 C 0.63850 0.73796 0.70132
 C2694 C 0.63472 0.75111 0.68597
 C2695 C 0.64949 0.76434 0.68122
 C2696 C 0.66696 0.76470 0.69160
 C2697 C 0.67018 0.75212 0.70716
 C2698 C 0.65587 0.73878 0.71190
 H2699 H 0.57637 0.70520 0.68038
 H2700 H 0.55977 0.75787 0.63423
 H2701 H 0.54715 0.70371 0.66159
 H2702 H 0.58960 0.77430 0.64170
 H2703 H 0.61969 0.77659 0.65866
 H2704 H 0.59822 0.71118 0.70027
 H2705 H 0.62779 0.71394 0.71782
 H2706 H 0.64819 0.77429 0.66928
 H2707 H 0.67793 0.77498 0.68752
 H2708 H 0.65843 0.72865 0.72365
 C2709 C 0.06639 0.24856 0.17441
 C2710 C 0.08538 0.24715 0.16623
 C2711 C 0.08702 0.24238 0.14621
 C2712 C 0.07039 0.23815 0.13529
 C2713 C 0.05184 0.23912 0.14380
 C2714 C 0.04995 0.24465 0.16330
 C2715 C 0.10524 0.24176 0.13716
 C2716 C 0.12200 0.24580 0.14751
 C2717 C 0.12127 0.25017 0.16756
 C2718 C 0.10272 0.25030 0.17719
 C2719 C 0.10219 0.25297 0.19752
 C2720 C 0.11913 0.25538 0.20812
 C2721 C 0.13723 0.25574 0.19892
 C2722 C 0.13857 0.25372 0.17846
 C2723 C 0.15724 0.25527 0.16983
 C2724 C 0.17387 0.25758 0.18115
 C2725 C 0.17252 0.25839 0.20142
 C2726 C 0.15408 0.25782 0.21016
 H2727 H 0.06367 0.25290 0.18925
 H2728 H 0.07184 0.23428 0.12004
 H2729 H 0.03567 0.24565 0.17009
 H2730 H 0.10656 0.23813 0.12186
 H2731 H 0.13545 0.24471 0.13941
 H2732 H 0.08890 0.25258 0.20587
 H2733 H 0.11802 0.25694 0.22376
 H2734 H 0.15952 0.25486 0.15437
 H2735 H 0.18791 0.25824 0.17398
 H2736 H 0.15282 0.25882 0.22583
 C2737 C -0.10837 1.01931 0.84305
 C2738 C -0.09189 1.00708 0.84665
 C2739 C -0.08412 0.99590 0.83088
 C2740 C -0.09268 0.99699 0.81237
 C2741 C -0.10852 1.00993 0.80876
 C2742 C -0.11636 1.02076 0.82456
 C2743 C -0.06745 0.98411 0.83348
 C2744 C -0.05781 0.98377 0.85117
 C2745 C -0.06470 0.99498 0.86722
 C2746 C -0.08256 1.00606 0.86518
 C2747 C -0.09045 1.01578 0.88171
 C2748 C -0.08085 1.01545 0.89939
 C2749 C -0.06287 1.00574 0.90131
 C2750 C -0.05443 0.99542 0.88528
 C2751 C -0.03582 0.98637 0.88793
 C2752 C -0.02627 0.98737 0.90576
 C2753 C -0.03485 0.99732 0.92162
 C2754 C -0.05323 1.00642 0.91924
 H2755 H -0.11518 1.02847 0.85405
 H2756 H -0.08593 0.98874 0.80052
 H2757 H -0.12911 1.03024 0.82286
 H2758 H -0.06151 0.97535 0.82156
 H2759 H -0.04504 0.97431 0.85187
 H2760 H -0.10428 1.02361 0.88161
 H2761 H -0.08749 1.02317 0.91165
 H2762 H -0.02804 0.97872 0.87644
 H2763 H -0.01206 0.98020 0.90710
 H2764 H -0.06001 1.01431 0.93133
 C2765 C 0.38581 0.51962 0.34500
 C2766 C 0.40352 0.50893 0.34791
 C2767 C 0.41296 0.50062 0.33130
 C2768 C 0.40510 0.50331 0.31270
 C2769 C 0.38791 0.51446 0.31009
 C2770 C 0.37825 0.52233 0.32642
 C2771 C 0.43042 0.48999 0.33323
 C2772 C 0.43922 0.48790 0.35120
 C2773 C 0.43085 0.49642 0.36814
 C2774 C 0.41241 0.50662 0.36657
 C2775 C 0.40364 0.51438 0.38366
 C2776 C 0.41284 0.51296 0.40151
 C2777 C 0.43117 0.50386 0.40315
 C2778 C 0.44041 0.49529 0.38657
 C2779 C 0.45907 0.48634 0.38909
 C2780 C 0.46823 0.48635 0.40711
 C2781 C 0.45919 0.49516 0.42337
 C2782 C 0.44047 0.50362 0.42131
 H2783 H 0.37756 0.52642 0.35667
 H2784 H 0.41280 0.49731 0.30013
 H2785 H 0.36477 0.53077 0.32482
 H2786 H 0.43758 0.48341 0.32062
 H2787 H 0.45271 0.47951 0.35123
 H2788 H 0.38959 0.52176 0.38379
 H2789 H 0.40561 0.51936 0.41416
 H2790 H 0.46726 0.47949 0.37741
 H2791 H 0.48262 0.47953 0.40821
 H2792 H 0.43327 0.51047 0.43375
 C2793 C 0.57719 0.00393 0.32683
 C2794 C 0.58268 -0.00553 0.34419
 C2795 C 0.59887 -0.01878 0.34332
 C2796 C 0.60833 -0.02309 0.32563
 C2797 C 0.60237 -0.01413 0.30828
 C2798 C 0.58688 -0.00023 0.30935
 C2799 C 0.60561 -0.02780 0.36011
 C2800 C 0.59662 -0.02404 0.37785
 C2801 C 0.58015 -0.01128 0.37951
 C2802 C 0.57274 -0.00227 0.36231
 C2803 C 0.55537 0.00924 0.36374
 C2804 C 0.54556 0.01185 0.38129
 C2805 C 0.55285 0.00354 0.39824
 C2806 C 0.57052 -0.00772 0.39770
 C2807 C 0.57780 -0.01494 0.41548
 C2808 C 0.56750 -0.01191 0.43276
 C2809 C 0.54958 -0.00159 0.43307
 C2810 C 0.54245 0.00633 0.41573
 H2811 H 0.56550 0.01471 0.32623
 H2812 H 0.62090 -0.03301 0.32569
 H2813 H 0.58140 0.00693 0.29649
 H2814 H 0.61801 -0.03796 0.35955
 H2815 H 0.60264 -0.03191 0.38995
 H2816 H 0.54857 0.01600 0.35137
 H2817 H 0.53209 0.02051 0.38158
 H2818 H 0.59153 -0.02285 0.41665
 H2819 H 0.57356 -0.01801 0.44592
 H2820 H 0.52878 0.01467 0.41582
 C2821 C 0.07180 0.50080 0.83055
 C2822 C 0.07969 0.49521 0.84870
 C2823 C 0.09847 0.48597 0.84867
 C2824 C 0.10841 0.48193 0.83120
 C2825 C 0.10014 0.48716 0.81342
 C2826 C 0.08190 0.49683 0.81327
 C2827 C 0.10725 0.48064 0.86606
 C2828 C 0.09785 0.48415 0.88363
 C2829 C 0.07901 0.49300 0.88454
 C2830 C 0.06964 0.49836 0.86677
 C2831 C 0.05041 0.50628 0.86765
 C2832 C 0.04059 0.50876 0.88519
 C2833 C 0.04955 0.50377 0.90262
 C2834 C 0.06902 0.49621 0.90262
 C2835 C 0.07765 0.49209 0.92078
 C2836 C 0.06711 0.49454 0.93798
 C2837 C 0.04762 0.50127 0.93786
 C2838 C 0.03903 0.50615 0.92007
 H2839 H 0.05789 0.50832 0.82914
 H2840 H 0.12271 0.47478 0.83142
 H2841 H 0.07523 0.50102 0.79967
 H2842 H 0.12160 0.47358 0.86611
 H2843 H 0.10567 0.47928 0.89625
 H2844 H 0.04226 0.51036 0.85494
 H2845 H 0.02573 0.51461 0.88509
 H2846 H 0.09255 0.48701 0.92233
 H2847 H 0.07433 0.49092 0.95147
 H2848 H 0.02405 0.51163 0.91975
 C2849 C 0.07044 0.50531 0.68163
 C2850 C 0.07807 0.50994 0.66317
 C2851 C 0.09725 0.51716 0.66246
 C2852 C 0.10815 0.51954 0.67949
 C2853 C 0.10035 0.51487 0.69759
 C2854 C 0.08142 0.50774 0.69846
 C2855 C 0.10556 0.52199 0.64477
 C2856 C 0.09530 0.51992 0.62762
 C2857 C 0.07613 0.51285 0.62741
 C2858 C 0.06738 0.50770 0.64548
 C2859 C 0.04828 0.50046 0.64522
 C2860 C 0.03803 0.49838 0.62802
 C2861 C 0.04628 0.50342 0.61034
 C2862 C 0.06543 0.51074 0.60973
 C2863 C 0.07304 0.51567 0.59137
 C2864 C 0.06215 0.51337 0.57453
 C2865 C 0.04325 0.50609 0.57518
 C2866 C 0.03541 0.50115 0.59322
 H2867 H 0.05601 0.49986 0.68369
 H2868 H 0.12288 0.52484 0.67862
 H2869 H 0.07493 0.50428 0.71230
 H2870 H 0.12023 0.52748 0.64415
 H2871 H 0.10296 0.52401 0.61472
 H2872 H 0.04072 0.49619 0.65813
 H2873 H 0.02341 0.49276 0.62860
 H2874 H 0.08735 0.52139 0.58939
 H2875 H 0.06869 0.51736 0.56086
 H2876 H 0.02081 0.49550 0.59399
 C2877 C 0.57273 1.00049 0.17418
 C2878 C 0.58100 1.00446 0.15582
 C2879 C 0.60025 1.01154 0.15549
 C2880 C 0.61049 1.01468 0.17282
 C2881 C 0.60200 1.01077 0.19081
 C2882 C 0.58309 1.00360 0.19128
 C2883 C 0.60924 1.01551 0.13788
 C2884 C 0.59958 1.01275 0.12046
 C2885 C 0.58033 1.00592 0.11989
 C2886 C 0.57086 1.00174 0.13787
 C2887 C 0.55152 0.99515 0.13732
 C2888 C 0.54165 0.99295 0.11993
 C2889 C 0.55060 0.99706 0.10232
 C2890 C 0.57012 1.00338 0.10196
 C2891 C 0.57852 1.00700 0.08359
 C2892 C 0.56781 1.00498 0.06655
 C2893 C 0.54836 0.99922 0.06706
 C2894 C 0.53995 0.99504 0.08506
 H2895 H 0.55829 0.99499 0.17594
 H2896 H 0.62524 1.01998 0.17229
 H2897 H 0.57611 1.00062 0.20501
 H2898 H 0.62396 1.02090 0.13754
 H2899 H 0.60766 1.01633 0.10764
 H2900 H 0.54338 0.99172 0.15014
 H2901 H 0.52676 0.98804 0.12029
 H2902 H 0.59333 1.01151 0.08178
 H2903 H 0.57482 1.00818 0.05290
 H2904 H 0.52496 0.99043 0.08572
 C2905 C 0.38597 0.48134 0.15373
 C2906 C 0.40346 0.49147 0.15080
 C2907 C 0.41276 0.49919 0.16744
 C2908 C 0.40505 0.49641 0.18607
 C2909 C 0.38805 0.48589 0.18870
 C2910 C 0.37849 0.47861 0.17234
 C2911 C 0.42992 0.50941 0.16550
 C2912 C 0.43846 0.51178 0.14745
 C2913 C 0.43018 0.50391 0.13044
 C2914 C 0.41221 0.49388 0.13208
 C2915 C 0.40377 0.48631 0.11501
 C2916 C 0.41284 0.48785 0.09708
 C2917 C 0.43064 0.49700 0.09532
 C2918 C 0.43947 0.50543 0.11188
 C2919 C 0.45748 0.51468 0.10916
 C2920 C 0.46654 0.51486 0.09104
 C2921 C 0.45804 0.50598 0.07485
 C2922 C 0.43984 0.49742 0.07706
 H2923 H 0.37774 0.47514 0.14204
 H2924 H 0.41268 0.50196 0.19864
 H2925 H 0.36511 0.47074 0.17392
 H2926 H 0.43700 0.51549 0.17815
 H2927 H 0.45175 0.51976 0.14744
 H2928 H 0.39017 0.47885 0.11497
 H2929 H 0.40592 0.48154 0.08446
 H2930 H 0.46521 0.52169 0.12074
 H2931 H 0.48048 0.52181 0.08981
 H2932 H 0.43302 0.49056 0.06467
 C2933 C -0.10903 -0.03056 0.65478
 C2934 C -0.09433 -0.01700 0.65113
 C2935 C -0.08703 -0.00650 0.66722
 C2936 C -0.09428 -0.00949 0.68602
 C2937 C -0.10877 -0.02321 0.68960
 C2938 C -0.11600 -0.03359 0.67353
 C2939 C -0.07225 0.00679 0.66459
 C2940 C -0.06413 0.00958 0.64641
 C2941 C -0.07057 -0.00077 0.62991
 C2942 C -0.08637 -0.01380 0.63219
 C2943 C -0.09361 -0.02324 0.61549
 C2944 C -0.08523 -0.02074 0.59736
 C2945 C -0.06919 -0.00892 0.59506
 C2946 C -0.06166 0.00135 0.61124
 C2947 C -0.04514 0.01289 0.60810
 C2948 C -0.03632 0.01373 0.58987
 C2949 C -0.04364 0.00330 0.57403
 C2950 C -0.06037 -0.00769 0.57668
 H2951 H -0.11541 -0.03929 0.64352
 H2952 H -0.08768 -0.00172 0.69796
 H2953 H -0.12770 -0.04373 0.67510
 H2954 H -0.06670 0.01501 0.67681
 H2955 H -0.05281 0.02013 0.64580
 H2956 H -0.10588 -0.03268 0.61587
 H2957 H -0.09119 -0.02846 0.58502
 H2958 H -0.03829 0.02107 0.61947
 H2959 H -0.02347 0.02243 0.58827
 H2960 H -0.06615 -0.01592 0.56458
 C2961 C -0.14522 0.88877 1.02473
 C2962 C -0.14310 0.90539 1.01303
 C2963 C -0.16022 0.91385 1.00490
 C2964 C -0.17848 0.90561 1.00799
 C2965 C -0.18048 0.88895 1.01955
 C2966 C -0.16346 0.88082 1.02793
 C2967 C -0.15913 0.93068 0.99382
 C2968 C -0.14144 0.93958 0.99088
 C2969 C -0.12393 0.93181 0.99872
 C2970 C -0.12468 0.91406 1.00943
 C2971 C -0.10700 0.90552 1.01607
 C2972 C -0.08930 0.91432 1.01307
 C2973 C -0.08843 0.93208 1.00355
 C2974 C -0.10566 0.94115 0.99620
 C2975 C -0.10386 0.95941 0.98702
 C2976 C -0.08580 0.96824 0.98548
 C2977 C -0.06888 0.95921 0.99288
 C2978 C -0.07034 0.94096 1.00165
 H2979 H -0.13312 0.88158 1.03186
 H2980 H -0.19126 0.91294 1.00203
 H2981 H -0.16387 0.86769 1.03645
 H2982 H -0.17217 0.93719 0.98747
 H2983 H -0.14199 0.95247 0.98213
 H2984 H -0.10625 0.89180 1.02350
 H2985 H -0.07613 0.90723 1.01853
 H2986 H -0.11615 0.96753 0.98126
 H2987 H -0.08517 0.98235 0.97864
 H2988 H -0.05741 0.93380 1.00757
 C2989 C 0.35001 0.38801 0.52261
 C2990 C 0.35212 0.40605 0.51309
 C2991 C 0.33484 0.41614 0.50721
 C2992 C 0.31642 0.40842 0.51080
 C2993 C 0.31464 0.39056 0.52021
 C2994 C 0.33161 0.38047 0.52606
 C2995 C 0.33594 0.43395 0.49782
 C2996 C 0.35383 0.44220 0.49421
 C2997 C 0.37152 0.43293 0.49989
 C2998 C 0.37067 0.41446 0.50935
 C2999 C 0.38837 0.40511 0.51485
 C3000 C 0.40622 0.41363 0.51174
 C3001 C 0.40728 0.43177 0.50299
 C3002 C 0.39002 0.44163 0.49669
 C3003 C 0.39207 0.45996 0.48772
 C3004 C 0.41031 0.46833 0.48584
 C3005 C 0.42722 0.45878 0.49266
 C3006 C 0.42557 0.44027 0.50086
 H3007 H 0.36223 0.37927 0.52760
 H3008 H 0.30338 0.41651 0.50643
 H3009 H 0.33071 0.36649 0.53309
 H3010 H 0.32278 0.44169 0.49325
 H3011 H 0.35319 0.45601 0.48696
 H3012 H 0.38902 0.39113 0.52178
 H3013 H 0.41938 0.40596 0.51646
 H3014 H 0.37990 0.46843 0.48222
 H3015 H 0.41107 0.48257 0.47928
 H3016 H 0.43851 0.43263 0.50617
 C3017 C 0.34492 0.61458 -0.02005
 C3018 C 0.34784 0.59638 -0.01081
 C3019 C 0.33105 0.58688 -0.00403
 C3020 C 0.31230 0.59530 -0.00654
 C3021 C 0.30971 0.61324 -0.01588
 C3022 C 0.32622 0.62277 -0.02251
 C3023 C 0.33298 0.56892 0.00511
 C3024 C 0.35118 0.55993 0.00752
 C3025 C 0.36840 0.56857 0.00086
 C3026 C 0.36672 0.58722 -0.00825
 C3027 C 0.38397 0.59603 -0.01460
 C3028 C 0.40213 0.58685 -0.01256
 C3029 C 0.40398 0.56852 -0.00414
 C3030 C 0.38722 0.55913 0.00285
 C3031 C 0.39007 0.54053 0.01130
 C3032 C 0.40860 0.53160 0.01229
 C3033 C 0.42505 0.54081 0.00503
 C3034 C 0.42258 0.55945 -0.00294
 H3035 H 0.35671 0.62292 -0.02566
 H3036 H 0.29963 0.58766 -0.00154
 H3037 H 0.32470 0.63679 -0.02950
 H3038 H 0.32021 0.56162 0.01039
 H3039 H 0.35119 0.54607 0.01469
 H3040 H 0.38400 0.61011 -0.02133
 H3041 H 0.41490 0.59416 -0.01783
 H3042 H 0.37830 0.53229 0.01710
 H3043 H 0.40996 0.51725 0.01864
 H3044 H 0.43513 0.56683 -0.00862
 C3045 C -0.15528 0.11121 0.47014
 C3046 C -0.15225 0.09553 0.48303
 C3047 C -0.16881 0.08844 0.49274
 C3048 C -0.18740 0.09713 0.48995
 C3049 C -0.19030 0.11283 0.47714
 C3050 C -0.17383 0.11957 0.46725
 C3051 C -0.16682 0.07254 0.50508
 C3052 C -0.14881 0.06322 0.50778
 C3053 C -0.13183 0.06964 0.49843
 C3054 C -0.13348 0.08647 0.48635
 C3055 C -0.11630 0.09374 0.47810
 C3056 C -0.09826 0.08457 0.48091
 C3057 C -0.09653 0.06766 0.49185
 C3058 C -0.11323 0.05987 0.50078
 C3059 C -0.11058 0.04238 0.51134
 C3060 C -0.09224 0.03307 0.51272
 C3061 C -0.07584 0.04086 0.50381
 C3062 C -0.07813 0.05835 0.49361
 H3063 H -0.14367 0.11733 0.46183
 H3064 H -0.19974 0.09086 0.49721
 H3065 H -0.17488 0.13196 0.45772
 H3066 H -0.17941 0.06708 0.51263
 H3067 H -0.14866 0.05111 0.51758
 H3068 H -0.11620 0.10674 0.46951
 H3069 H -0.08551 0.09070 0.47421
 H3070 H -0.12243 0.03521 0.51834
 H3071 H -0.09096 0.01957 0.52069
 H3072 H -0.06563 0.06450 0.48648
 C3073 C 0.65635 0.11776 0.51730
 C3074 C 0.65403 0.09913 0.50864
 C3075 C 0.67108 0.08908 0.50172
 C3076 C 0.68950 0.09743 0.50351
 C3077 C 0.69151 0.11576 0.51235
 C3078 C 0.67474 0.12583 0.51911
 C3079 C 0.66975 0.07064 0.49323
 C3080 C 0.65192 0.06164 0.49174
 C3081 C 0.63451 0.07079 0.49868
 C3082 C 0.63551 0.09003 0.50688
 C3083 C 0.61799 0.09946 0.51314
 C3084 C 0.60022 0.09030 0.51203
 C3085 C 0.59908 0.07134 0.50472
 C3086 C 0.61613 0.06130 0.49781
 C3087 C 0.61405 0.04201 0.49066
 C3088 C 0.59598 0.03311 0.49078
 C3089 C 0.57924 0.04302 0.49790
 C3090 C 0.58092 0.06229 0.50459
 H3091 H 0.64432 0.12647 0.52305
 H3092 H 0.70241 0.08939 0.49843
 H3093 H 0.67583 0.14014 0.52577
 H3094 H 0.68272 0.06295 0.48779
 H3095 H 0.65236 0.04740 0.48501
 H3096 H 0.61742 0.11407 0.51903
 H3097 H 0.58721 0.09811 0.51718
 H3098 H 0.62611 0.03320 0.48516
 H3099 H 0.59520 0.01824 0.48542
 H3100 H 0.56814 0.07017 0.51018
 C3101 C 0.15552 0.61665 1.02612
 C3102 C 0.15208 0.60071 1.01354
 C3103 C 0.16818 0.59277 1.00287
 C3104 C 0.18680 0.60077 1.00464
 C3105 C 0.19021 0.61623 1.01772
 C3106 C 0.17412 0.62410 1.02820
 C3107 C 0.16575 0.57653 0.99084
 C3108 C 0.14790 0.56746 0.98975
 C3109 C 0.13150 0.57455 1.00039
 C3110 C 0.13339 0.59203 1.01170
 C3111 C 0.11655 0.60022 1.02081
 C3112 C 0.09873 0.59115 1.01983
 C3113 C 0.09697 0.57341 1.01003
 C3114 C 0.11327 0.56479 1.00015
 C3115 C 0.11074 0.54645 0.99097
 C3116 C 0.09288 0.53713 0.99178
 C3117 C 0.07685 0.54576 1.00158
 C3118 C 0.07898 0.56408 1.01042
 H3119 H 0.14427 0.62344 1.03502
 H3120 H 0.19886 0.59391 0.99671
 H3121 H 0.17562 0.63654 1.03783
 H3122 H 0.17793 0.57047 0.98246
 H3123 H 0.14736 0.55497 0.98017
 H3124 H 0.11654 0.61387 1.02867
 H3125 H 0.08625 0.59795 1.02718
 H3126 H 0.12240 0.53862 0.98350
 H3127 H 0.09169 0.52299 0.98479
 H3128 H 0.06676 0.57087 1.01821
 C3129 C 0.15901 0.38735 0.48710
 C3130 C 0.15557 0.40607 0.49552
 C3131 C 0.17206 0.41676 0.50125
 C3132 C 0.19104 0.40889 0.49861
 C3133 C 0.19410 0.39051 0.48992
 C3134 C 0.17792 0.37980 0.48435
 C3135 C 0.16959 0.43539 0.50930
 C3136 C 0.15113 0.44401 0.51132
 C3137 C 0.13423 0.43422 0.50547
 C3138 C 0.13644 0.41469 0.49804
 C3139 C 0.11947 0.40447 0.49329
 C3140 C 0.10105 0.41321 0.49495
 C3141 C 0.09870 0.43249 0.50127
 C3142 C 0.11518 0.44331 0.50672
 C3143 C 0.11187 0.46293 0.51280
 C3144 C 0.09310 0.47136 0.51316
 C3145 C 0.07691 0.46062 0.50759
 C3146 C 0.07987 0.44107 0.50188
 H3147 H 0.14748 0.37823 0.48211
 H3148 H 0.20352 0.41736 0.50278
 H3149 H 0.17991 0.36545 0.47780
 H3150 H 0.18213 0.44355 0.51388
 H3151 H 0.15065 0.45843 0.51765
 H3152 H 0.11984 0.38955 0.48828
 H3153 H 0.08847 0.40480 0.49097
 H3154 H 0.12345 0.47236 0.51700
 H3155 H 0.09134 0.48649 0.51768
 H3156 H 0.06752 0.43255 0.49749
 C3157 C 0.68512 0.92881 -0.00028
 C3158 C 0.66675 0.92059 -0.00409
 C3159 C 0.66666 0.90087 -0.01054
 C3160 C 0.68420 0.89027 -0.01368
 C3161 C 0.70218 0.89877 -0.01022
 C3162 C 0.70249 0.91801 -0.00326
 C3163 C 0.64909 0.89176 -0.01396
 C3164 C 0.63144 0.90172 -0.01116
 C3165 C 0.63060 0.92145 -0.00501
 C3166 C 0.64854 0.93117 -0.00178
 C3167 C 0.64766 0.95122 0.00319
 C3168 C 0.62993 0.96148 0.00478
 C3169 C 0.61234 0.95216 0.00189
 C3170 C 0.61239 0.93191 -0.00256
 C3171 C 0.59414 0.92298 -0.00447
 C3172 C 0.57675 0.93389 -0.00317
 C3173 C 0.57675 0.95408 0.00023
 C3174 C 0.59466 0.96307 0.00316
 H3175 H 0.68662 0.94347 0.00515
 H3176 H 0.68386 0.87523 -0.01867
 H3177 H 0.71626 0.92484 -0.00040
 H3178 H 0.64897 0.87670 -0.01892
 H3179 H 0.61867 0.89356 -0.01448
 H3180 H 0.66049 0.95964 0.00548
 H3181 H 0.63003 0.97693 0.00826
 H3182 H 0.59266 0.90757 -0.00690
 H3183 H 0.56320 0.92635 -0.00508
 H3184 H 0.59491 0.97862 0.00609
 C3185 C -0.00418 0.82125 0.92108
 C3186 C 0.00467 0.83866 0.91533
 C3187 C 0.01560 0.83809 0.89785
 C3188 C 0.01797 0.82072 0.88707
 C3189 C 0.00941 0.80336 0.89306
 C3190 C -0.00188 0.80407 0.91017
 C3191 C 0.02418 0.85489 0.89109
 C3192 C 0.02217 0.87237 0.90123
 C3193 C 0.01155 0.87378 0.91881
 C3194 C 0.00299 0.85656 0.92620
 C3195 C -0.00667 0.85777 0.94433
 C3196 C -0.00803 0.87516 0.95484
 C3197 C -0.00012 0.89214 0.94764
 C3198 C 0.00952 0.89179 0.92939
 C3199 C 0.01667 0.90956 0.92246
 C3200 C 0.01487 0.92667 0.93343
 C3201 C 0.00585 0.92686 0.95170
 C3202 C -0.00177 0.90951 0.95866
 H3203 H -0.01304 0.82034 0.93395
 H3204 H 0.02591 0.82113 0.87348
 H3205 H -0.00840 0.79112 0.91585
 H3206 H 0.03261 0.85453 0.87774
 H3207 H 0.02953 0.88446 0.89499
 H3208 H -0.01309 0.84540 0.95108
 H3209 H -0.01542 0.87531 0.96877
 H3210 H 0.02358 0.91092 0.90852
 H3211 H 0.02075 0.93983 0.92747
 H3212 H -0.00899 0.90947 0.97268
 C3213 C 0.49974 0.31940 0.42365
 C3214 C 0.50327 0.33795 0.41570
 C3215 C 0.50956 0.33853 0.39608
 C3216 C 0.51248 0.32127 0.38521
 C3217 C 0.50901 0.30311 0.39338
 C3218 C 0.50255 0.30235 0.41262
 C3219 C 0.51292 0.35632 0.38733
 C3220 C 0.51020 0.37370 0.39755
 C3221 C 0.50410 0.37404 0.41714
 C3222 C 0.50081 0.35585 0.42646
 C3223 C 0.49546 0.35619 0.44627
 C3224 C 0.49357 0.37358 0.45670
 C3225 C 0.49666 0.39139 0.44784
 C3226 C 0.50161 0.39194 0.42786
 C3227 C 0.50397 0.41047 0.41947
 C3228 C 0.50247 0.42748 0.43066
 C3229 C 0.49839 0.42681 0.45057
 C3230 C 0.49510 0.40868 0.45898
 H3231 H 0.49469 0.31748 0.43828
 H3232 H 0.51718 0.32197 0.37020
 H3233 H 0.49983 0.28844 0.41927
 H3234 H 0.51774 0.35683 0.37236
 H3235 H 0.51337 0.38666 0.38962
 H3236 H 0.49293 0.34317 0.45437
 H3237 H 0.48972 0.37305 0.47195
 H3238 H 0.50702 0.41245 0.40432
 H3239 H 0.50471 0.44128 0.42359
 H3240 H 0.49176 0.40793 0.47433
 C3241 C 0.00785 0.32282 0.57951
 C3242 C -0.00114 0.34093 0.58472
 C3243 C -0.01426 0.34124 0.60065
 C3244 C -0.01882 0.32394 0.61020
 C3245 C -0.01001 0.30591 0.60475
 C3246 C 0.00357 0.30579 0.58936
 C3247 C -0.02277 0.35883 0.60710
 C3248 C -0.01851 0.37623 0.59816
 C3249 C -0.00582 0.37672 0.58201
 C3250 C 0.00252 0.35871 0.57478
 C3251 C 0.01377 0.35901 0.55757
 C3252 C 0.01671 0.37625 0.54772
 C3253 C 0.00908 0.39398 0.55485
 C3254 C -0.00176 0.39456 0.57242
 C3255 C -0.00815 0.41305 0.57962
 C3256 C -0.00512 0.42994 0.56914
 C3257 C 0.00446 0.42917 0.55112
 C3258 C 0.01195 0.41112 0.54429
 H3259 H 0.01845 0.32128 0.56799
 H3260 H -0.02863 0.32485 0.62255
 H3261 H 0.01045 0.29233 0.58416
 H3262 H -0.03284 0.35919 0.61927
 H3263 H -0.02599 0.38905 0.60393
 H3264 H 0.01998 0.34599 0.55088
 H3265 H 0.02505 0.37568 0.53433
 H3266 H -0.01550 0.41501 0.59336
 H3267 H -0.01078 0.44366 0.57506
 H3268 H 0.01969 0.41031 0.53055
 C3269 C 0.50366 0.82172 0.07123
 C3270 C 0.49896 0.84068 0.07853
 C3271 C 0.48999 0.84219 0.09709
 C3272 C 0.48528 0.82541 0.10737
 C3273 C 0.48978 0.80685 0.09975
 C3274 C 0.49916 0.80516 0.08174
 C3275 C 0.48570 0.86043 0.10535
 C3276 C 0.49007 0.87735 0.09564
 C3277 C 0.49867 0.87673 0.07699
 C3278 C 0.50281 0.85810 0.06811
 C3279 C 0.51015 0.85753 0.04893
 C3280 C 0.51308 0.87450 0.03866
 C3281 C 0.50926 0.89274 0.04716
 C3282 C 0.50259 0.89416 0.06663
 C3283 C 0.49993 0.91304 0.07485
 C3284 C 0.50233 0.92965 0.06376
 C3285 C 0.50764 0.92815 0.04414
 C3286 C 0.51166 0.90961 0.03609
 H3287 H 0.51100 0.81913 0.05758
 H3288 H 0.47836 0.82676 0.12151
 H3289 H 0.50285 0.79089 0.07564
 H3290 H 0.47884 0.86165 0.11952
 H3291 H 0.48592 0.89076 0.10300
 H3292 H 0.51323 0.84412 0.04111
 H3293 H 0.51827 0.87331 0.02381
 H3294 H 0.49595 0.91556 0.08981
 H3295 H 0.49957 0.94376 0.07059
 H3296 H 0.51610 0.90821 0.02102
 C3297 C 0.52200 0.65362 0.11556
 C3298 C 0.51278 0.65104 0.09736
 C3299 C 0.50660 0.66805 0.08735
 C3300 C 0.50971 0.68664 0.09521
 C3301 C 0.51881 0.68891 0.11322
 C3302 C 0.52492 0.67223 0.12329
 C3303 C 0.49739 0.66653 0.06946
 C3304 C 0.49423 0.64846 0.06104
 C3305 C 0.50026 0.63101 0.07019
 C3306 C 0.50964 0.63230 0.08869
 C3307 C 0.51576 0.61484 0.09778
 C3308 C 0.51331 0.59679 0.08895
 C3309 C 0.50457 0.59532 0.07081
 C3310 C 0.49759 0.61232 0.06126
 C3311 C 0.48850 0.60984 0.04301
 C3312 C 0.48730 0.59145 0.03432
 C3313 C 0.49494 0.57482 0.04349
 C3314 C 0.50315 0.57686 0.06198
 H3315 H 0.52709 0.64163 0.12430
 H3316 H 0.50522 0.69945 0.08712
 H3317 H 0.53177 0.67355 0.13735
 H3318 H 0.49260 0.67951 0.06178
 H3319 H 0.48715 0.64878 0.04714
 H3320 H 0.52277 0.61454 0.11171
 H3321 H 0.51854 0.58382 0.09637
 H3322 H 0.48233 0.62177 0.03485
 H3323 H 0.48065 0.59037 0.02014
 H3324 H 0.50900 0.56411 0.06935
 C3325 C 0.02366 0.15152 0.61443
 C3326 C 0.01060 0.14845 0.59892
 C3327 C 0.00053 0.16500 0.59142
 C3328 C 0.00344 0.18368 0.59926
 C3329 C 0.01681 0.18668 0.61442
 C3330 C 0.02671 0.17017 0.62190
 C3331 C -0.01214 0.16296 0.57580
 C3332 C -0.01453 0.14494 0.56691
 C3333 C -0.00447 0.12805 0.57347
 C3334 C 0.00764 0.12968 0.59027
 C3335 C 0.01644 0.11252 0.59777
 C3336 C 0.01437 0.09457 0.58866
 C3337 C 0.00369 0.09295 0.57159
 C3338 C -0.00598 0.10959 0.56374
 C3339 C -0.01627 0.10712 0.54613
 C3340 C -0.01655 0.08902 0.53668
 C3341 C -0.00678 0.07271 0.54443
 C3342 C 0.00302 0.07475 0.56212
 H3343 H 0.03209 0.13987 0.62095
 H3344 H -0.00394 0.19599 0.59252
 H3345 H 0.03656 0.17138 0.63405
 H3346 H -0.02007 0.17553 0.57013
 H3347 H -0.02457 0.14475 0.55494
 H3348 H 0.02499 0.11240 0.61084
 H3349 H 0.02158 0.08184 0.59487
 H3350 H -0.02379 0.11894 0.53893
 H3351 H -0.02429 0.08791 0.52305
 H3352 H 0.01074 0.06229 0.56826
 C3353 C 0.48862 0.17698 0.42745
 C3354 C 0.48763 0.15771 0.41996
 C3355 C 0.48141 0.15538 0.40046
 C3356 C 0.47627 0.17168 0.38922
 C3357 C 0.47771 0.19056 0.39682
 C3358 C 0.48383 0.19305 0.41601
 C3359 C 0.48063 0.13682 0.39215
 C3360 C 0.48615 0.12042 0.40259
 C3361 C 0.49252 0.12186 0.42200
 C3362 C 0.49279 0.14077 0.43100
 C3363 C 0.49797 0.14207 0.45079
 C3364 C 0.50262 0.12554 0.46145
 C3365 C 0.50268 0.10706 0.45285
 C3366 C 0.49810 0.10496 0.43289
 C3367 C 0.49920 0.08594 0.42472
 C3368 C 0.50324 0.06972 0.43617
 C3369 C 0.50656 0.07177 0.45613
 C3370 C 0.50684 0.09059 0.46425
 H3371 H 0.49345 0.18024 0.44194
 H3372 H 0.47181 0.16971 0.37426
 H3373 H 0.48506 0.20757 0.42215
 H3374 H 0.47580 0.13494 0.37730
 H3375 H 0.48486 0.10669 0.39504
 H3376 H 0.49814 0.15568 0.45870
 H3377 H 0.50614 0.12726 0.47669
 H3378 H 0.49695 0.08300 0.40953
 H3379 H 0.50335 0.05541 0.42935
 H3380 H 0.50956 0.09243 0.47964
 C3381 C -0.00589 0.67787 0.92795
 C3382 C -0.01184 0.65894 0.92286
 C3383 C -0.02249 0.65676 0.90541
 C3384 C -0.02738 0.67300 0.89398
 C3385 C -0.02097 0.69171 0.89893
 C3386 C -0.01023 0.69380 0.91617
 C3387 C -0.02792 0.63829 0.89919
 C3388 C -0.02254 0.62181 0.90958
 C3389 C -0.01185 0.62317 0.92700
 C3390 C -0.00725 0.64210 0.93425
 C3391 C 0.00147 0.64354 0.95274
 C3392 C 0.00571 0.62706 0.96368
 C3393 C 0.00209 0.60845 0.95643
 C3394 C -0.00617 0.60624 0.93772
 C3395 C -0.00829 0.58709 0.93042
 C3396 C -0.00382 0.57095 0.94178
 C3397 C 0.00299 0.57316 0.96083
 C3398 C 0.00639 0.59202 0.96789
 H3399 H 0.00261 0.68085 0.94070
 H3400 H -0.03510 0.67067 0.88050
 H3401 H -0.00551 0.70795 0.92107
 H3402 H -0.03620 0.63650 0.88596
 H3403 H -0.02754 0.60816 0.90384
 H3404 H 0.00461 0.65732 0.95952
 H3405 H 0.01200 0.62891 0.97797
 H3406 H -0.01321 0.58405 0.91590
 H3407 H -0.00616 0.55661 0.93561
 H3408 H 0.01197 0.59398 0.98246
 C3409 C 0.24795 0.67800 0.92571
 C3410 C 0.25380 0.67020 0.90740
 C3411 C 0.26320 0.65151 0.90708
 C3412 C 0.26704 0.64152 0.92440
 C3413 C 0.26149 0.64966 0.94238
 C3414 C 0.25176 0.66788 0.94281
 C3415 C 0.26887 0.64287 0.88949
 C3416 C 0.26556 0.65235 0.87209
 C3417 C 0.25655 0.67111 0.87152
 C3418 C 0.25073 0.68028 0.88949
 C3419 C 0.24238 0.69933 0.88896
 C3420 C 0.23992 0.70917 0.87161
 C3421 C 0.24541 0.70044 0.85400
 C3422 C 0.25351 0.68118 0.85361
 C3423 C 0.25830 0.67287 0.83525
 C3424 C 0.25577 0.68346 0.81824
 C3425 C 0.24833 0.70271 0.81876
 C3426 C 0.24297 0.71100 0.83676
 H3427 H 0.24040 0.69189 0.92741
 H3428 H 0.27429 0.62727 0.92390
 H3429 H 0.24738 0.67455 0.95652
 H3430 H 0.27604 0.62858 0.88916
 H3431 H 0.27063 0.64461 0.85930
 H3432 H 0.23786 0.70730 0.90181
 H3433 H 0.23366 0.72386 0.87201
 H3434 H 0.26404 0.65820 0.83341
 H3435 H 0.25991 0.67652 0.80460
 H3436 H 0.23700 0.72580 0.83743
 C3437 C 0.74925 0.17846 0.41918
 C3438 C 0.75425 0.17041 0.40075
 C3439 C 0.76334 0.15156 0.40024
 C3440 C 0.76754 0.14159 0.41749
 C3441 C 0.76268 0.14993 0.43555
 C3442 C 0.75341 0.16837 0.43619
 C3443 C 0.76827 0.14273 0.38255
 C3444 C 0.76449 0.15215 0.36520
 C3445 C 0.75569 0.17101 0.36482
 C3446 C 0.75062 0.18037 0.38290
 C3447 C 0.74236 0.19946 0.38252
 C3448 C 0.73929 0.20917 0.36521
 C3449 C 0.74410 0.20028 0.34750
 C3450 C 0.75210 0.18098 0.34696
 C3451 C 0.75625 0.17256 0.32851
 C3452 C 0.75323 0.18308 0.31154
 C3453 C 0.74589 0.20236 0.31220
 C3454 C 0.74112 0.21075 0.33030
 H3455 H 0.74209 0.19252 0.42106
 H3456 H 0.77446 0.12718 0.41686
 H3457 H 0.74960 0.17518 0.45000
 H3458 H 0.77520 0.12833 0.38207
 H3459 H 0.76897 0.14424 0.35230
 H3460 H 0.73831 0.20755 0.39545
 H3461 H 0.73312 0.22390 0.36572
 H3462 H 0.76189 0.15786 0.32657
 H3463 H 0.75691 0.17606 0.29781
 H3464 H 0.73527 0.22559 0.33108
 C3465 C 0.25401 0.32695 0.42832
 C3466 C 0.24736 0.33468 0.41048
 C3467 C 0.23854 0.35365 0.41083
 C3468 C 0.23577 0.36386 0.42839
 C3469 C 0.24179 0.35567 0.44591
 C3470 C 0.25123 0.33732 0.44570
 C3471 C 0.23223 0.36229 0.39373
 C3472 C 0.23419 0.35249 0.37614
 C3473 C 0.24240 0.33339 0.37494
 C3474 C 0.24894 0.32425 0.39241
 C3475 C 0.25634 0.30483 0.39128
 C3476 C 0.25711 0.29459 0.37379
 C3477 C 0.25086 0.30330 0.35666
 C3478 C 0.24381 0.32295 0.35689
 C3479 C 0.23832 0.33129 0.33899
 C3480 C 0.23902 0.32036 0.32189
 C3481 C 0.24529 0.30073 0.32182
 C3482 C 0.25147 0.29236 0.33928
 H3483 H 0.26136 0.31294 0.42944
 H3484 H 0.22878 0.37825 0.42846
 H3485 H 0.25603 0.33071 0.45912
 H3486 H 0.22553 0.37680 0.39395
 H3487 H 0.22861 0.36024 0.36378
 H3488 H 0.26128 0.29687 0.40377
 H3489 H 0.26261 0.27961 0.37371
 H3490 H 0.23346 0.34625 0.33756
 H3491 H 0.23442 0.32741 0.30862
 H3492 H 0.25664 0.27728 0.33941
 C3493 C 0.75145 0.82299 0.93113
 C3494 C 0.74629 0.83077 0.91284
 C3495 C 0.73963 0.85053 0.91235
 C3496 C 0.73772 0.86166 0.92948
 C3497 C 0.74260 0.85361 0.94741
 C3498 C 0.74963 0.83427 0.94806
 C3499 C 0.73479 0.85917 0.89479
 C3500 C 0.73644 0.84872 0.87754
 C3501 C 0.74287 0.82897 0.87712
 C3502 C 0.74750 0.81971 0.89509
 C3503 C 0.75281 0.79964 0.89472
 C3504 C 0.75353 0.78898 0.87746
 C3505 C 0.74936 0.79786 0.85981
 C3506 C 0.74437 0.81807 0.85934
 C3507 C 0.74108 0.82655 0.84102
 C3508 C 0.74177 0.81529 0.82412
 C3509 C 0.74588 0.79517 0.82467
 C3510 C 0.75000 0.78658 0.84261
 H3511 H 0.75705 0.80830 0.93290
 H3512 H 0.73260 0.87674 0.92884
 H3513 H 0.75347 0.82773 0.96180
 H3514 H 0.72963 0.87425 0.89436
 H3515 H 0.73207 0.85656 0.86477
 H3516 H 0.75612 0.79155 0.90763
 H3517 H 0.75740 0.77356 0.87795
 H3518 H 0.73807 0.84188 0.83909
 H3519 H 0.73893 0.82254 0.81050
 H3520 H 0.75347 0.77108 0.84324
 C3521 C 0.76184 0.82148 0.07506
 C3522 C 0.76664 0.82839 0.09384
 C3523 C 0.77542 0.84685 0.09529
 C3524 C 0.77952 0.85756 0.07860
 C3525 C 0.77470 0.85042 0.06021
 C3526 C 0.76579 0.83236 0.05861
 C3527 C 0.78005 0.85462 0.11338
 C3528 C 0.77606 0.84459 0.13022
 C3529 C 0.76741 0.82614 0.12966
 C3530 C 0.76298 0.81772 0.11115
 C3531 C 0.75532 0.79880 0.11057
 C3532 C 0.75209 0.78845 0.12740
 C3533 C 0.75605 0.79655 0.14553
 C3534 C 0.76343 0.81563 0.14699
 C3535 C 0.76652 0.82338 0.16580
 C3536 C 0.76329 0.81232 0.18227
 C3537 C 0.75675 0.79317 0.18071
 C3538 C 0.75285 0.78551 0.16224
 H3539 H 0.75482 0.80785 0.07251
 H3540 H 0.78614 0.87169 0.07993
 H3541 H 0.76199 0.82653 0.04449
 H3542 H 0.78681 0.86869 0.11457
 H3543 H 0.78035 0.85165 0.14349
 H3544 H 0.75198 0.79131 0.09724
 H3545 H 0.74643 0.77388 0.12618
 H3546 H 0.77137 0.83796 0.16841
 H3547 H 0.76616 0.81883 0.19632
 H3548 H 0.74758 0.77081 0.16080
 C3549 C 0.25572 0.32441 0.57659
 C3550 C 0.25972 0.33174 0.59540
 C3551 C 0.26806 0.35042 0.59686
 C3552 C 0.27252 0.36094 0.58013
 C3553 C 0.26844 0.35339 0.56172
 C3554 C 0.26000 0.33510 0.56012
 C3555 C 0.27187 0.35857 0.61499
 C3556 C 0.26757 0.34869 0.63183
 C3557 C 0.25942 0.32999 0.63126
 C3558 C 0.25572 0.32123 0.61273
 C3559 C 0.24849 0.30214 0.61215
 C3560 C 0.24519 0.29184 0.62900
 C3561 C 0.24863 0.30018 0.64713
 C3562 C 0.25534 0.31953 0.64859
 C3563 C 0.25786 0.32750 0.66740
 C3564 C 0.25503 0.31632 0.68387
 C3565 C 0.24943 0.29686 0.68229
 C3566 C 0.24576 0.28906 0.66384
 H3567 H 0.24911 0.31058 0.57400
 H3568 H 0.27883 0.37523 0.58143
 H3569 H 0.25680 0.32894 0.54598
 H3570 H 0.27826 0.37282 0.61619
 H3571 H 0.27124 0.35603 0.64515
 H3572 H 0.24561 0.29443 0.59884
 H3573 H 0.23999 0.27709 0.62779
 H3574 H 0.26207 0.34230 0.67000
 H3575 H 0.25760 0.32294 0.69793
 H3576 H 0.24120 0.27410 0.66239
 C3577 C 0.75197 0.18034 0.56988
 C3578 C 0.74745 0.17245 0.58822
 C3579 C 0.73918 0.15371 0.58847
 C3580 C 0.73501 0.14381 0.57111
 C3581 C 0.73923 0.15203 0.55316
 C3582 C 0.74794 0.17024 0.55271
 C3583 C 0.73497 0.14492 0.60603
 C3584 C 0.73872 0.15426 0.62349
 C3585 C 0.74666 0.17305 0.62415
 C3586 C 0.75078 0.18246 0.60623
 C3587 C 0.75762 0.20171 0.60693
 C3588 C 0.76016 0.21151 0.62445
 C3589 C 0.75639 0.20248 0.64203
 C3590 C 0.75007 0.18295 0.64216
 C3591 C 0.74730 0.17419 0.66039
 C3592 C 0.74953 0.18472 0.67758
 C3593 C 0.75477 0.20433 0.67740
 C3594 C 0.75863 0.21300 0.65951
 H3595 H 0.75873 0.19421 0.56824
 H3596 H 0.72860 0.12953 0.57155
 H3597 H 0.75135 0.17688 0.53897
 H3598 H 0.72863 0.13061 0.60629
 H3599 H 0.73468 0.14645 0.63628
 H3600 H 0.76070 0.20989 0.59410
 H3601 H 0.76508 0.22640 0.62422
 H3602 H 0.74343 0.15919 0.66199
 H3603 H 0.74690 0.17738 0.69113
 H3604 H 0.76295 0.22808 0.65914
 C3605 C 0.23636 0.64279 0.09731
 C3606 C 0.24509 0.66113 0.09983
 C3607 C 0.25082 0.67109 0.08290
 C3608 C 0.24766 0.66301 0.06437
 C3609 C 0.23843 0.64515 0.06223
 C3610 C 0.23307 0.63505 0.07885
 C3611 C 0.25929 0.68928 0.08448
 C3612 C 0.26164 0.69822 0.10246
 C3613 C 0.25570 0.68922 0.11976
 C3614 C 0.24784 0.67011 0.11846
 C3615 C 0.24279 0.66070 0.13581
 C3616 C 0.24451 0.66987 0.15372
 C3617 C 0.25126 0.68880 0.15517
 C3618 C 0.25715 0.69875 0.13831
 C3619 C 0.26383 0.71800 0.14076
 C3620 C 0.26425 0.72694 0.15906
 C3621 C 0.25808 0.71711 0.17561
 C3622 C 0.25186 0.69790 0.17350
 H3623 H 0.23147 0.63415 0.10923
 H3624 H 0.25172 0.67099 0.05155
 H3625 H 0.22613 0.62110 0.07756
 H3626 H 0.26387 0.69688 0.07161
 H3627 H 0.26820 0.71229 0.10226
 H3628 H 0.23741 0.64612 0.13614
 H3629 H 0.24023 0.66211 0.16660
 H3630 H 0.26853 0.72674 0.12884
 H3631 H 0.26919 0.74178 0.16017
 H3632 H 0.24713 0.69002 0.18614
 C3633 C 0.17497 0.57018 0.74872
 C3634 C 0.16734 0.58889 0.74376
 C3635 C 0.14804 0.59002 0.73641
 C3636 C 0.13721 0.57313 0.73377
 C3637 C 0.14508 0.55478 0.73854
 C3638 C 0.16397 0.55349 0.74616
 C3639 C 0.13956 0.60800 0.73166
 C3640 C 0.14971 0.62504 0.73409
 C3641 C 0.16899 0.62483 0.74127
 C3642 C 0.17810 0.60643 0.74588
 C3643 C 0.19771 0.60619 0.75215
 C3644 C 0.20807 0.62326 0.75388
 C3645 C 0.19933 0.64131 0.74974
 C3646 C 0.17957 0.64241 0.74367
 C3647 C 0.17122 0.66114 0.74027
 C3648 C 0.18217 0.67784 0.74211
 C3649 C 0.20187 0.67669 0.74751
 C3650 C 0.21030 0.65831 0.75152
 H3651 H 0.18932 0.56789 0.75472
 H3652 H 0.12245 0.57430 0.72821
 H3653 H 0.17040 0.53944 0.74992
 H3654 H 0.12484 0.60893 0.72598
 H3655 H 0.14201 0.63817 0.72980
 H3656 H 0.20568 0.59294 0.75556
 H3657 H 0.22315 0.62228 0.75855
 H3658 H 0.15619 0.66354 0.73627
 H3659 H 0.17506 0.69177 0.73915
 H3660 H 0.22546 0.65717 0.75590
 C3661 C 0.67347 0.06909 0.24304
 C3662 C 0.66571 0.08753 0.23740
 C3663 C 0.64666 0.08814 0.22941
 C3664 C 0.63622 0.07098 0.22679
 C3665 C 0.64423 0.05289 0.23226
 C3666 C 0.66287 0.05214 0.24052
 C3667 C 0.63803 0.10587 0.22403
 C3668 C 0.64778 0.12317 0.22648
 C3669 C 0.66679 0.12347 0.23429
 C3670 C 0.67608 0.10532 0.23947
 C3671 C 0.69550 0.10555 0.24626
 C3672 C 0.70550 0.12283 0.24799
 C3673 C 0.69655 0.14066 0.24335
 C3674 C 0.67697 0.14130 0.23674
 C3675 C 0.66837 0.15984 0.23289
 C3676 C 0.67896 0.17679 0.23487
 C3677 C 0.69851 0.17607 0.24079
 C3678 C 0.70715 0.15789 0.24521
 H3679 H 0.68762 0.06721 0.24959
 H3680 H 0.62166 0.07173 0.22071
 H3681 H 0.66940 0.03831 0.24484
 H3682 H 0.62351 0.10641 0.21785
 H3683 H 0.64002 0.13608 0.22170
 H3684 H 0.70362 0.09250 0.25006
 H3685 H 0.72046 0.12222 0.25306
 H3686 H 0.65342 0.16188 0.22847
 H3687 H 0.67170 0.19057 0.23154
 H3688 H 0.72219 0.15708 0.25001
 C3689 C 0.86659 0.08984 0.76234
 C3690 C 0.84811 0.09324 0.75372
 C3691 C 0.83749 0.07671 0.74785
 C3692 C 0.84503 0.05772 0.75092
 C3693 C 0.86296 0.05474 0.76021
 C3694 C 0.87378 0.07095 0.76555
 C3695 C 0.81917 0.07917 0.73940
 C3696 C 0.81068 0.09764 0.73734
 C3697 C 0.82026 0.11455 0.74361
 C3698 C 0.83957 0.11236 0.75130
 C3699 C 0.84957 0.12934 0.75660
 C3700 C 0.84073 0.14772 0.75542
 C3701 C 0.82158 0.15003 0.74898
 C3702 C 0.81110 0.13356 0.74273
 C3703 C 0.79167 0.13684 0.73637
 C3704 C 0.78302 0.15550 0.73673
 C3705 C 0.79332 0.17163 0.74334
 C3706 C 0.81276 0.16877 0.74912
 H3707 H 0.87574 0.10139 0.76725
 H3708 H 0.83654 0.04522 0.74683
 H3709 H 0.88783 0.06898 0.77250
 H3710 H 0.81110 0.06662 0.73466
 H3711 H 0.79645 0.09810 0.73079
 H3712 H 0.86434 0.12900 0.76184
 H3713 H 0.84891 0.16028 0.75995
 H3714 H 0.78254 0.12529 0.73141
 H3715 H 0.76801 0.15719 0.73204
 H3716 H 0.82099 0.18109 0.75420
 C3717 C 0.36495 0.59750 0.26617
 C3718 C 0.34739 0.60142 0.25597
 C3719 C 0.33722 0.58522 0.24855
 C3720 C 0.34423 0.56606 0.25165
 C3721 C 0.36128 0.56251 0.26232
 C3722 C 0.37167 0.57841 0.26928
 C3723 C 0.31988 0.58815 0.23839
 C3724 C 0.31193 0.60678 0.23594
 C3725 C 0.32105 0.62339 0.24359
 C3726 C 0.33935 0.62072 0.25332
 C3727 C 0.34882 0.63740 0.26035
 C3728 C 0.34036 0.65592 0.25880
 C3729 C 0.32215 0.65868 0.25021
 C3730 C 0.31232 0.64256 0.24219
 C3731 C 0.29389 0.64630 0.23357
 C3732 C 0.28540 0.66503 0.23364
 C3733 C 0.29491 0.68078 0.24216
 C3734 C 0.31353 0.67752 0.25002
 H3735 H 0.37374 0.60878 0.27225
 H3736 H 0.33600 0.55384 0.24632
 H3737 H 0.38509 0.57607 0.27727
 H3738 H 0.31217 0.57584 0.23250
 H3739 H 0.29844 0.60758 0.22803
 H3740 H 0.36283 0.63670 0.26733
 H3741 H 0.34806 0.66822 0.26474
 H3742 H 0.28538 0.63508 0.22698
 H3743 H 0.27108 0.66706 0.22726
 H3744 H 0.32115 0.68955 0.25659
 C3745 C 0.36177 0.40440 0.23190
 C3746 C 0.34410 0.40215 0.24227
 C3747 C 0.33477 0.41926 0.25004
 C3748 C 0.34262 0.43769 0.24705
 C3749 C 0.35976 0.43966 0.23621
 C3750 C 0.36936 0.42282 0.22894
 C3751 C 0.31742 0.41798 0.26045
 C3752 C 0.30866 0.40019 0.26286
 C3753 C 0.31690 0.38277 0.25487
 C3754 C 0.33517 0.38368 0.24480
 C3755 C 0.34368 0.36617 0.23731
 C3756 C 0.33437 0.34852 0.23883
 C3757 C 0.31622 0.34751 0.24785
 C3758 C 0.30731 0.36452 0.25627
 C3759 C 0.28889 0.36260 0.26530
 C3760 C 0.27952 0.34481 0.26525
 C3761 C 0.28811 0.32820 0.25637
 C3762 C 0.30671 0.32959 0.24808
 H3763 H 0.37001 0.39232 0.22562
 H3764 H 0.33497 0.45064 0.25261
 H3765 H 0.38284 0.42389 0.22082
 H3766 H 0.31035 0.43098 0.26660
 H3767 H 0.29524 0.40069 0.27101
 H3768 H 0.35756 0.36554 0.22996
 H3769 H 0.34136 0.33554 0.23256
 H3770 H 0.28104 0.37458 0.27223
 H3771 H 0.26526 0.34420 0.27200
 H3772 H 0.31358 0.31686 0.24119
 C3773 C 0.86324 0.89694 0.73416
 C3774 C 0.84506 0.89539 0.74380
 C3775 C 0.83580 0.91291 0.75067
 C3776 C 0.84429 0.93106 0.74760
 C3777 C 0.86195 0.93231 0.73746
 C3778 C 0.87142 0.91506 0.73104
 C3779 C 0.81789 0.91232 0.76023
 C3780 C 0.80855 0.89481 0.76265
 C3781 C 0.81677 0.87699 0.75557
 C3782 C 0.83557 0.87722 0.74643
 C3783 C 0.84411 0.85930 0.73998
 C3784 C 0.83439 0.84191 0.74166
 C3785 C 0.81576 0.84154 0.74978
 C3786 C 0.80672 0.85899 0.75707
 C3787 C 0.78778 0.85769 0.76515
 C3788 C 0.77815 0.84001 0.76541
 C3789 C 0.78699 0.82291 0.75776
 C3790 C 0.80599 0.82378 0.75028
 H3791 H 0.87142 0.88451 0.72851
 H3792 H 0.83676 0.94434 0.75250
 H3793 H 0.88525 0.91559 0.72344
 H3794 H 0.81084 0.92563 0.76569
 H3795 H 0.79474 0.89583 0.77011
 H3796 H 0.85836 0.85815 0.73341
 H3797 H 0.84146 0.82859 0.73624
 H3798 H 0.77974 0.87008 0.77109
 H3799 H 0.76355 0.83986 0.77144
 H3800 H 0.81308 0.81069 0.74433
 C3801 C 0.63545 0.90171 0.26975
 C3802 C 0.65396 0.89875 0.26079
 C3803 C 0.66367 0.91549 0.25431
 C3804 C 0.65514 0.93421 0.25678
 C3805 C 0.63694 0.93683 0.26588
 C3806 C 0.62718 0.92041 0.27224
 C3807 C 0.68198 0.91355 0.24557
 C3808 C 0.69120 0.89539 0.24345
 C3809 C 0.68240 0.87826 0.24994
 C3810 C 0.66326 0.87990 0.25832
 C3811 C 0.65411 0.86266 0.26403
 C3812 C 0.66350 0.84454 0.26224
 C3813 C 0.68240 0.84277 0.25481
 C3814 C 0.69214 0.85953 0.24845
 C3815 C 0.71140 0.85682 0.24120
 C3816 C 0.72056 0.83840 0.24065
 C3817 C 0.71093 0.82194 0.24718
 C3818 C 0.69170 0.82425 0.25400
 H3819 H 0.62702 0.88996 0.27525
 H3820 H 0.66292 0.94686 0.25201
 H3821 H 0.61299 0.92201 0.27911
 H3822 H 0.68940 0.92628 0.24046
 H3823 H 0.70530 0.89535 0.23655
 H3824 H 0.63957 0.86260 0.26995
 H3825 H 0.65591 0.83176 0.26697
 H3826 H 0.72002 0.86863 0.23614
 H3827 H 0.73539 0.83712 0.23521
 H3828 H 0.68405 0.81168 0.25914
 C3829 C 0.13602 0.40366 0.77511
 C3830 C 0.15481 0.40099 0.76670
 C3831 C 0.16448 0.41788 0.76055
 C3832 C 0.15562 0.43648 0.76283
 C3833 C 0.13713 0.43881 0.77137
 C3834 C 0.12742 0.42223 0.77740
 C3835 C 0.18305 0.41622 0.75233
 C3836 C 0.19251 0.39818 0.75029
 C3837 C 0.18372 0.38088 0.75637
 C3838 C 0.16441 0.38227 0.76441
 C3839 C 0.15538 0.36491 0.76993
 C3840 C 0.16494 0.34690 0.76812
 C3841 C 0.18389 0.34534 0.76081
 C3842 C 0.19360 0.36224 0.75475
 C3843 C 0.21290 0.35970 0.74754
 C3844 C 0.22206 0.34128 0.74657
 C3845 C 0.21240 0.32468 0.75269
 C3846 C 0.19322 0.32687 0.75967
 H3847 H 0.12756 0.39178 0.78028
 H3848 H 0.16336 0.44926 0.75834
 H3849 H 0.11301 0.42361 0.78384
 H3850 H 0.19045 0.42908 0.74752
 H3851 H 0.20680 0.39835 0.74380
 H3852 H 0.14080 0.36466 0.77573
 H3853 H 0.15741 0.33401 0.77265
 H3854 H 0.22149 0.37162 0.74269
 H3855 H 0.23686 0.34010 0.74105
 H3856 H 0.18552 0.31419 0.76446
 C3857 C 0.06690 0.74995 0.81972
 C3858 C 0.08538 0.75420 0.82765
 C3859 C 0.08581 0.76162 0.84693
 C3860 C 0.06847 0.76497 0.85747
 C3861 C 0.05036 0.76093 0.84927
 C3862 C 0.04975 0.75326 0.83040
 C3863 C 0.10351 0.76573 0.85568
 C3864 C 0.12097 0.76275 0.84576
 C3865 C 0.12147 0.75560 0.82646
 C3866 C 0.10336 0.75140 0.81719
 C3867 C 0.10384 0.74481 0.79770
 C3868 C 0.12129 0.74256 0.78754
 C3869 C 0.13902 0.74656 0.79635
 C3870 C 0.13944 0.75285 0.81601
 C3871 C 0.15792 0.75624 0.82433
 C3872 C 0.17500 0.75415 0.81340
 C3873 C 0.17445 0.74851 0.79382
 C3874 C 0.15635 0.74447 0.78547
 H3875 H 0.06510 0.74401 0.80534
 H3876 H 0.06907 0.77056 0.87223
 H3877 H 0.03590 0.75003 0.82376
 H3878 H 0.10390 0.77139 0.87042
 H3879 H 0.13386 0.76652 0.85366
 H3880 H 0.09090 0.74151 0.78966
 H3881 H 0.12087 0.73768 0.77254
 H3882 H 0.15980 0.76055 0.83924
 H3883 H 0.18873 0.75717 0.82039
 H3884 H 0.15568 0.73994 0.77038
 C3885 C 0.56464 0.25092 0.31689
 C3886 C 0.58339 0.25490 0.32430
 C3887 C 0.58449 0.26207 0.34364
 C3888 C 0.56752 0.26543 0.35476
 C3889 C 0.54914 0.26150 0.34713
 C3890 C 0.54787 0.25414 0.32817
 C3891 C 0.60252 0.26586 0.35189
 C3892 C 0.61964 0.26263 0.34147
 C3893 C 0.61946 0.25558 0.32214
 C3894 C 0.60102 0.25197 0.31328
 C3895 C 0.60084 0.24585 0.29364
 C3896 C 0.61798 0.24339 0.28299
 C3897 C 0.63605 0.24662 0.29146
 C3898 C 0.63711 0.25241 0.31124
 C3899 C 0.65586 0.25483 0.31927
 C3900 C 0.67263 0.25249 0.30794
 C3901 C 0.67149 0.24752 0.28821
 C3902 C 0.65309 0.24428 0.28015
 H3903 H 0.56235 0.24514 0.30253
 H3904 H 0.56863 0.27079 0.36956
 H3905 H 0.53379 0.25103 0.32195
 H3906 H 0.60342 0.27139 0.36664
 H3907 H 0.63282 0.26619 0.34899
 H3908 H 0.58758 0.24316 0.28586
 H3909 H 0.61705 0.23892 0.26790
 H3910 H 0.65821 0.25849 0.33429
 H3911 H 0.68661 0.25480 0.31475
 H3912 H 0.65196 0.24024 0.26495
 C3913 C 0.57624 0.75196 0.17602
 C3914 C 0.59490 0.74651 0.16852
 C3915 C 0.59567 0.73656 0.15035
 C3916 C 0.57845 0.73180 0.14062
 C3917 C 0.56018 0.73712 0.14843
 C3918 C 0.55926 0.74735 0.16609
 C3919 C 0.61360 0.73137 0.14196
 C3920 C 0.63093 0.73568 0.15120
 C3921 C 0.63105 0.74518 0.16948
 C3922 C 0.61273 0.75047 0.17841
 C3923 C 0.61284 0.75909 0.19711
 C3924 C 0.63014 0.76206 0.20696
 C3925 C 0.64807 0.75693 0.19852
 C3926 C 0.64887 0.74896 0.17945
 C3927 C 0.66754 0.74483 0.17132
 C3928 C 0.68446 0.74716 0.18218
 C3929 C 0.68348 0.75384 0.20146
 C3930 C 0.66520 0.75927 0.20931
 H3931 H 0.57418 0.75994 0.18944
 H3932 H 0.57924 0.72418 0.12676
 H3933 H 0.54526 0.75164 0.17238
 H3934 H 0.61427 0.72381 0.12807
 H3935 H 0.64404 0.73085 0.14375
 H3936 H 0.59972 0.76327 0.20489
 H3937 H 0.62944 0.76829 0.22148
 H3938 H 0.66966 0.73960 0.15666
 H3939 H 0.69836 0.74317 0.17553
 H3940 H 0.66420 0.76477 0.22410
 C3941 C 0.09813 0.23059 0.64025
 C3942 C 0.10062 0.24153 0.65757
 C3943 C 0.08357 0.24858 0.66737
 C3944 C 0.06496 0.24490 0.65991
 C3945 C 0.06283 0.23384 0.64288
 C3946 C 0.07957 0.22683 0.63312
 C3947 C 0.08513 0.25901 0.68474
 C3948 C 0.10323 0.26210 0.69305
 C3949 C 0.12065 0.25504 0.68414
 C3950 C 0.11936 0.24526 0.66574
 C3951 C 0.13684 0.23945 0.65615
 C3952 C 0.15489 0.24204 0.66466
 C3953 C 0.15634 0.25038 0.68309
 C3954 C 0.13933 0.25722 0.69308
 C3955 C 0.14177 0.26539 0.71187
 C3956 C 0.16017 0.26606 0.72047
 C3957 C 0.17683 0.25878 0.71068
 C3958 C 0.17478 0.25142 0.69177
 H3959 H 0.11015 0.22434 0.63200
 H3960 H 0.05205 0.25019 0.66767
 H3961 H 0.07831 0.21840 0.61982
 H3962 H 0.07216 0.26460 0.69220
 H3963 H 0.10303 0.27021 0.70651
 H3964 H 0.13714 0.23286 0.64190
 H3965 H 0.16788 0.23707 0.65684
 H3966 H 0.12973 0.27087 0.72060
 H3967 H 0.16126 0.27190 0.73508
 H3968 H 0.18750 0.24573 0.68395
 C3969 C 0.90693 0.26919 0.63764
 C3970 C 0.90428 0.25952 0.65549
 C3971 C 0.92126 0.25267 0.66525
 C3972 C 0.93991 0.25569 0.65754
 C3973 C 0.94226 0.26535 0.63991
 C3974 C 0.92557 0.27200 0.63006
 C3975 C 0.91962 0.24285 0.68273
 C3976 C 0.90150 0.23968 0.69092
 C3977 C 0.88408 0.24635 0.68199
 C3978 C 0.88549 0.25651 0.66400
 C3979 C 0.86808 0.26354 0.65531
 C3980 C 0.85001 0.26113 0.66398
 C3981 C 0.84841 0.25146 0.68156
 C3982 C 0.86533 0.24359 0.69067
 C3983 C 0.86274 0.23351 0.70828
 C3984 C 0.84435 0.23226 0.71684
 C3985 C 0.82779 0.24080 0.70819
 C3986 C 0.82992 0.24999 0.69026
 H3987 H 0.89496 0.27466 0.62904
 H3988 H 0.95270 0.25067 0.66545
 H3989 H 0.92688 0.27917 0.61622
 H3990 H 0.93256 0.23757 0.69023
 H3991 H 0.90174 0.23212 0.70451
 H3992 H 0.86788 0.27133 0.64185
 H3993 H 0.83711 0.26708 0.65688
 H3994 H 0.87459 0.22654 0.71598
 H3995 H 0.84320 0.22480 0.73055
 H3996 H 0.81725 0.25658 0.68329
 C3997 C 0.40649 0.77224 0.13529
 C3998 C 0.40408 0.76406 0.15390
 C3999 C 0.42114 0.75759 0.16377
 C4000 C 0.43965 0.75965 0.15544
 C4001 C 0.44176 0.76792 0.13710
 C4002 C 0.42501 0.77411 0.12711
 C4003 C 0.41975 0.74919 0.18198
 C4004 C 0.40177 0.74705 0.19083
 C4005 C 0.38428 0.75341 0.18183
 C4006 C 0.38545 0.76216 0.16310
 C4007 C 0.36799 0.76899 0.15436
 C4008 C 0.35009 0.76764 0.16363
 C4009 C 0.34872 0.75925 0.18187
 C4010 C 0.36571 0.75169 0.19113
 C4011 C 0.36334 0.74288 0.20943
 C4012 C 0.34512 0.74243 0.21841
 C4013 C 0.32851 0.75058 0.20952
 C4014 C 0.33041 0.75866 0.19104
 H4015 H 0.39442 0.77726 0.12655
 H4016 H 0.45252 0.75505 0.16346
 H4017 H 0.42618 0.78025 0.11276
 H4018 H 0.43276 0.74422 0.18956
 H4019 H 0.40219 0.74058 0.20496
 H4020 H 0.36763 0.77582 0.14038
 H4021 H 0.33714 0.77335 0.15644
 H4022 H 0.37523 0.73623 0.21734
 H4023 H 0.34414 0.73582 0.23257
 H4024 H 0.31767 0.76487 0.18387
 C4025 C 0.42077 0.23868 0.31956
 C4026 C 0.40196 0.23735 0.32793
 C4027 C 0.40084 0.23131 0.34752
 C4028 C 0.41787 0.22693 0.35810
 C4029 C 0.43630 0.22884 0.34966
 C4030 C 0.43756 0.23458 0.33030
 C4031 C 0.38275 0.22996 0.35660
 C4032 C 0.36565 0.23474 0.34684
 C4033 C 0.36588 0.24101 0.32739
 C4034 C 0.38432 0.24200 0.31766
 C4035 C 0.38449 0.24754 0.29799
 C4036 C 0.36735 0.25192 0.28812
 C4037 C 0.34931 0.25120 0.29740
 C4038 C 0.34827 0.24602 0.31723
 C4039 C 0.32956 0.24604 0.32601
 C4040 C 0.31272 0.25006 0.31530
 C4041 C 0.31381 0.25439 0.29551
 C4042 C 0.33225 0.25533 0.28678
 H4043 H 0.42315 0.24319 0.30486
 H4044 H 0.41682 0.22270 0.37317
 H4045 H 0.45169 0.23604 0.32345
 H4046 H 0.38180 0.22527 0.37153
 H4047 H 0.35239 0.23314 0.35500
 H4048 H 0.39768 0.24842 0.28959
 H4049 H 0.36825 0.25588 0.27297
 H4050 H 0.32732 0.24294 0.34111
 H4051 H 0.29872 0.24949 0.32258
 H4052 H 0.33337 0.25875 0.27151
 C4053 C 0.92166 0.73633 0.82057
 C4054 C 0.90291 0.73487 0.82906
 C4055 C 0.90199 0.72933 0.84882
 C4056 C 0.91913 0.72549 0.85941
 C4057 C 0.93749 0.72747 0.85084
 C4058 C 0.93857 0.73278 0.83134
 C4059 C 0.88399 0.72794 0.85804
 C4060 C 0.86677 0.73222 0.84828
 C4061 C 0.86679 0.73799 0.82867
 C4062 C 0.88514 0.73893 0.81877
 C4063 C 0.88509 0.74381 0.79891
 C4064 C 0.86780 0.74764 0.78905
 C4065 C 0.84985 0.74705 0.79852
 C4066 C 0.84905 0.74253 0.81853
 C4067 C 0.83045 0.74272 0.82753
 C4068 C 0.81348 0.74625 0.81690
 C4069 C 0.81429 0.74990 0.79695
 C4070 C 0.83262 0.75067 0.78795
 H4071 H 0.92388 0.74056 0.80576
 H4072 H 0.91820 0.72165 0.87460
 H4073 H 0.95263 0.73433 0.82439
 H4074 H 0.88319 0.72361 0.87309
 H4075 H 0.85359 0.73059 0.85656
 H4076 H 0.89821 0.74453 0.79037
 H4077 H 0.86853 0.75109 0.77376
 H4078 H 0.82840 0.74018 0.84277
 H4079 H 0.79958 0.74586 0.82439
 H4080 H 0.83352 0.75359 0.77255
   
