data_POSCAR
  _audit_creation_date              2014-09-24
  _audit_creation_method            'ToBaCCo'
  _symmetry_space_group_name_H-M    'P1'
  _symmetry_Int_Tables_number       1
  _symmetry_cell_setting            triclinic
  loop_
  _symmetry_equiv_pos_as_xyz
 x,y,z
_cell_length_a 61.6421
_cell_length_b 60.6630
_cell_length_c 59.9198
_cell_angle_alpha 89.800500
_cell_angle_beta 89.848300
_cell_angle_gamma 90.079100
loop_
  _atom_site_label
  _atom_site_type_symbol
  _atom_site_fract_x
  _atom_site_fract_y
  _atom_site_fract_z
O1 O 0.36033 0.33307 -0.02226
 O2 O 0.33035 0.36248 0.02133
 O3 O 0.35940 0.33163 0.02105
 O4 O 0.33110 0.36390 -0.02189
 O5 O 0.30524 0.33883 -0.02323
 O6 O 0.33377 0.30626 0.01973
 O7 O 0.30445 0.33739 0.02025
 O8 O 0.33460 0.30781 -0.02369
 Cu9 Cu 0.34787 0.35027 -0.00034
 Cu10 Cu 0.31691 0.32004 -0.00185
 C11 C 0.35272 0.31539 -0.03040
 C12 C 0.31226 0.35508 0.02824
 C13 C 0.35152 0.31340 0.02771
 C14 C 0.31325 0.35704 -0.02988
 O15 O 0.64865 0.67841 -0.02245
 O16 O 0.67898 0.65019 0.02193
 O17 O 0.64852 0.67962 0.02064
 O18 O 0.67895 0.64828 -0.02136
 O19 O 0.70393 0.67427 -0.02261
 O20 O 0.67322 0.70594 0.01958
 O21 O 0.70404 0.67618 0.02071
 O22 O 0.67359 0.70448 -0.02388
 Cu23 Cu 0.66133 0.66150 -0.00027
 Cu24 Cu 0.69119 0.69285 -0.00168
 C25 C 0.65571 0.69643 -0.03054
 C26 C 0.69675 0.65826 0.02885
 C27 C 0.65549 0.69819 0.02722
 C28 C 0.69680 0.65566 -0.02903
 O29 O 0.67754 0.35026 0.98224
 O30 O 0.64969 0.31985 1.02682
 O31 O 0.67919 0.35104 1.02544
 O32 O 0.64878 0.31899 0.98397
 O33 O 0.67501 0.29430 0.98302
 O34 O 0.70469 0.32564 1.02603
 O35 O 0.67527 0.29444 1.02643
 O36 O 0.70404 0.32588 0.98231
 Cu37 Cu 0.66129 0.33758 1.00473
 Cu38 Cu 0.69242 0.30761 1.00445
 C39 C 0.69556 0.34344 0.97466
 C40 C 0.65728 0.30167 1.03382
 C41 C 0.69719 0.34394 1.03285
 C42 C 0.65657 0.30109 0.97650
 O43 O 0.31939 0.64685 0.97387
 O44 O 0.34661 0.67799 1.01792
 O45 O 0.31603 0.64849 1.01694
 O46 O 0.34959 0.67652 0.97485
 O47 O 0.32503 0.70276 0.97176
 O48 O 0.29136 0.67459 1.01422
 O49 O 0.32220 0.70440 1.01513
 O50 O 0.29454 0.67281 0.97090
 Cu51 Cu 0.33534 0.65985 0.99623
 Cu52 Cu 0.30579 0.69129 0.99275
 C53 C 0.30232 0.65437 0.96485
 C54 C 0.33930 0.69659 1.02396
 C55 C 0.29785 0.65654 1.02272
 C56 C 0.34313 0.69444 0.96610
 O57 O -0.02305 0.35093 0.31797
 O58 O 0.02026 0.32213 0.34862
 O59 O 0.01916 0.35198 0.31762
 O60 O -0.02151 0.32196 0.35030
 O61 O -0.02212 0.29541 0.32530
 O62 O 0.01886 0.32594 0.29201
 O63 O 0.02008 0.29574 0.32339
 O64 O -0.02334 0.32445 0.29285
 Cu65 Cu -0.00134 0.33943 0.33608
 Cu66 Cu -0.00168 0.30774 0.30584
 C67 C -0.03050 0.34271 0.30006
 C68 C 0.02745 0.30388 0.34135
 C69 C 0.02600 0.34423 0.29928
 C70 C -0.02852 0.30337 0.34382
 O71 O 0.01456 0.67355 0.64432
 O72 O -0.03281 0.65062 0.67345
 O73 O -0.02656 0.68184 0.64405
 O74 O 0.00839 0.64287 0.67418
 O75 O 0.01379 0.66765 0.70046
 O76 O -0.02370 0.70555 0.67166
 O77 O -0.02786 0.67391 0.70117
 O78 O 0.01817 0.69882 0.67042
 Cu79 Cu -0.00954 0.65983 0.65630
 Cu80 Cu -0.00447 0.68898 0.68861
 C81 C 0.02428 0.69030 0.65209
 C82 C -0.03814 0.65789 0.69253
 C83 C -0.03124 0.70037 0.65265
 C84 C 0.01706 0.64855 0.69249
 O85 O 0.97686 0.68372 0.35185
 O86 O 1.01648 0.64926 0.32252
 O87 O 1.01903 0.68091 0.35201
 O88 O 0.97501 0.65238 0.32261
 O89 O 0.97646 0.67711 0.29555
 O90 O 1.02101 0.70557 0.32501
 O91 O 1.01850 0.67381 0.29534
 O92 O 0.97882 0.70865 0.32504
 Cu93 Cu 0.99676 0.66421 0.34005
 Cu94 Cu 0.99896 0.69381 0.30755
 C95 C 0.97098 0.70201 0.34351
 C96 C 1.02379 0.65528 0.30363
 C97 C 1.02750 0.69824 0.34375
 C98 C 0.96836 0.65964 0.30394
 O99 O 0.97788 0.32064 0.64719
 O100 O 1.01895 0.34611 0.68295
 O101 O 1.01951 0.31762 0.65098
 O102 O 0.97727 0.34948 0.67974
 O103 O 0.97270 0.32242 0.70399
 O104 O 1.01572 0.29069 0.67547
 O105 O 1.01462 0.31959 0.70787
 O106 O 0.97375 0.29356 0.67149
 Cu107 Cu 0.99869 0.33616 0.66277
 Cu108 Cu 0.99374 0.30385 0.69216
 C109 C 0.96913 0.30252 0.65290
 C110 C 1.02373 0.33738 0.70157
 C111 C 1.02491 0.29868 0.65819
 C112 C 0.96800 0.34162 0.69697
 O113 O 0.34452 0.02325 0.32015
 O114 O 0.31610 -0.02156 0.34962
 O115 O 0.34789 -0.01906 0.32072
 O116 O 0.31313 0.02124 0.34907
 O117 O 0.28924 0.01903 0.32182
 O118 O 0.32421 -0.02166 0.29330
 O119 O 0.29234 -0.02376 0.32227
 O120 O 0.32098 0.02111 0.29258
 Cu121 Cu 0.33270 0.00112 0.33768
 Cu122 Cu 0.30429 -0.00154 0.30475
 C123 C 0.33783 0.02967 0.30119
 C124 C 0.29927 -0.03023 0.34113
 C125 C 0.34226 -0.02696 0.30201
 C126 C 0.29525 0.02704 0.34039
 O127 O 0.65499 0.01784 0.68623
 O128 O 0.68953 -0.02289 0.65878
 O129 O 0.65923 -0.02415 0.68899
 O130 O 0.68619 0.01956 0.65673
 O131 O 0.71012 0.02391 0.68367
 O132 O 0.68398 -0.02121 0.71537
 O133 O 0.71444 -0.01887 0.68481
 O134 O 0.67881 0.02130 0.71341
 Cu135 Cu 0.67012 -0.00274 0.66998
 Cu136 Cu 0.69933 0.00169 0.70198
 C137 C 0.66056 0.02608 0.70478
 C138 C 0.70794 -0.02773 0.66681
 C139 C 0.66680 -0.03000 0.70780
 C140 C 0.70285 0.02912 0.66455
 O141 O 0.33295 1.02141 0.63604
 O142 O 0.36261 0.97973 0.66856
 O143 O 0.33337 0.97858 0.63724
 O144 O 0.36298 1.02219 0.66641
 O145 O 0.33799 1.02275 0.69280
 O146 O 0.30739 0.97954 0.66258
 O147 O 0.33665 0.97981 0.69400
 O148 O 0.30763 1.02259 0.66208
 Cu149 Cu 0.35046 1.00039 0.64945
 Cu150 Cu 0.31982 1.00130 0.68044
 C151 C 0.31522 1.02917 0.64348
 C152 C 0.35477 0.97273 0.68690
 C153 C 0.31532 0.97163 0.64470
 C154 C 0.35587 1.02971 0.68476
 O155 O 0.63113 0.97830 0.33118
 O156 O 0.66545 1.01595 0.36342
 O157 O 0.63457 1.02066 0.33424
 O158 O 0.66160 0.97371 0.36101
 O159 O 0.68675 0.97397 0.33476
 O160 O 0.65833 1.01987 0.30667
 O161 O 0.68939 1.01668 0.33604
 O162 O 0.65602 0.97702 0.30468
 Cu163 Cu 0.64572 0.99716 0.35012
 Cu164 Cu 0.67506 0.99681 0.31779
 C165 C 0.63762 0.97129 0.31237
 C166 C 0.68337 1.02274 0.35538
 C167 C 0.64155 1.02814 0.31575
 C168 C 0.67910 0.96616 0.35287
 C169 C 0.87583 0.81808 0.47509
 C170 C 0.88641 0.81150 0.49458
 C171 C 0.87856 0.81712 0.51575
 C172 C 0.85971 0.83038 0.51750
 C173 C 0.84874 0.83715 0.49781
 C174 C 0.85683 0.83097 0.47654
 C175 C 0.84580 0.83796 0.45728
 C176 C 0.82690 0.85035 0.45884
 C177 C 0.81848 0.85654 0.47971
 C178 C 0.82954 0.84996 0.49938
 C179 C 0.85169 0.83728 0.53832
 C180 C 0.83272 0.84962 0.53987
 C181 C 0.82133 0.85602 0.52063
 C182 C 0.80179 0.86812 0.52204
 C183 C 0.79088 0.87415 0.50252
 C184 C 0.79909 0.86886 0.48145
 H185 H 0.85167 0.83389 0.44077
 H186 H 0.81886 0.85489 0.44346
 H187 H 0.86001 0.83328 0.55366
 H188 H 0.82705 0.85404 0.55636
 H189 H 0.90057 0.80098 0.49321
 H190 H 0.77600 0.88360 0.50375
 C191 C 0.20318 0.14119 0.51830
 C192 C 0.20965 0.13301 0.49757
 C193 C 0.20211 0.14223 0.47765
 C194 C 0.18748 0.16016 0.47834
 C195 C 0.18053 0.16846 0.49931
 C196 C 0.18838 0.15892 0.51938
 C197 C 0.18149 0.16756 0.53995
 C198 C 0.16711 0.18523 0.54083
 C199 C 0.15911 0.19493 0.52118
 C200 C 0.16592 0.18653 0.50020
 C201 C 0.17960 0.16995 0.45869
 C202 C 0.16541 0.18777 0.45956
 C203 C 0.15833 0.19629 0.48011
 C204 C 0.14417 0.21458 0.48117
 C205 C 0.13781 0.22279 0.50195
 C206 C 0.14482 0.21314 0.52188
 H207 H 0.18725 0.16076 0.55557
 H208 H 0.16250 0.19137 0.55710
 H209 H 0.18440 0.16395 0.44242
 H210 H 0.16016 0.19490 0.44391
 H211 H 0.22115 0.11950 0.49693
 H212 H 0.12674 0.23667 0.50261
 C213 C 0.14383 0.78765 0.52208
 C214 C 0.13709 0.77829 0.50198
 C215 C 0.14554 0.78529 0.48146
 C216 C 0.16156 0.80202 0.48092
 C217 C 0.16877 0.81152 0.50124
 C218 C 0.15979 0.80440 0.52189
 C219 C 0.16739 0.81379 0.54181
 C220 C 0.18355 0.82984 0.54152
 C221 C 0.19274 0.83708 0.52130
 C222 C 0.18528 0.82788 0.50094
 C223 C 0.17098 0.80906 0.46072
 C224 C 0.18719 0.82510 0.46043
 C225 C 0.19459 0.83470 0.48034
 C226 C 0.21146 0.85054 0.48030
 C227 C 0.21876 0.85923 0.50051
 C228 C 0.20960 0.85290 0.52090
 H229 H 0.16110 0.80860 0.55787
 H230 H 0.18898 0.83633 0.55736
 H231 H 0.16611 0.80200 0.44494
 H232 H 0.19409 0.82969 0.44445
 H233 H 0.12478 0.76548 0.50229
 H234 H 0.23167 0.87141 0.50036
 C235 C 0.86516 0.19498 0.47599
 C236 C 0.87229 0.20363 0.49629
 C237 C 0.86470 0.19561 0.51678
 C238 C 0.84924 0.17834 0.51714
 C239 C 0.84137 0.16971 0.49669
 C240 C 0.84955 0.17784 0.47604
 C241 C 0.84252 0.16803 0.45611
 C242 C 0.82701 0.15137 0.45630
 C243 C 0.81803 0.14368 0.47645
 C244 C 0.82571 0.15249 0.49690
 C245 C 0.84206 0.16891 0.53732
 C246 C 0.82684 0.15195 0.53752
 C247 C 0.81817 0.14376 0.51754
 C248 C 0.80270 0.12651 0.51756
 C249 C 0.79483 0.11857 0.49727
 C250 C 0.80217 0.12681 0.47679
 H251 H 0.84912 0.17290 0.44010
 H252 H 0.82246 0.14429 0.44045
 H253 H 0.84838 0.17426 0.55322
 H254 H 0.82214 0.14518 0.55354
 H255 H 0.88404 0.21697 0.49614
 H256 H 0.78256 0.10571 0.49746
 C257 C 0.51627 0.80162 0.86906
 C258 C 0.49554 0.79308 0.87318
 C259 C 0.47705 0.80236 0.86361
 C260 C 0.47914 0.82053 0.84896
 C261 C 0.50006 0.82923 0.84424
 C262 C 0.51869 0.81992 0.85452
 C263 C 0.53907 0.82959 0.85050
 C264 C 0.54127 0.84751 0.83610
 C265 C 0.52317 0.85652 0.82519
 C266 C 0.50229 0.84750 0.82952
 C267 C 0.46090 0.83021 0.83893
 C268 C 0.46306 0.84821 0.82465
 C269 C 0.48360 0.85695 0.81946
 C270 C 0.48599 0.87524 0.80492
 C271 C 0.50669 0.88370 0.80072
 C272 C 0.52524 0.87474 0.81056
 H273 H 0.55355 0.82356 0.85864
 H274 H 0.55732 0.85441 0.83383
 H275 H 0.44471 0.82398 0.84209
 H276 H 0.44840 0.85528 0.81785
 H277 H 0.49372 0.77912 0.88441
 H278 H 0.50846 0.89748 0.78924
 C279 C 0.51672 0.14154 0.20752
 C280 C 0.49711 0.13610 0.21795
 C281 C 0.47722 0.14321 0.20941
 C282 C 0.47683 0.15681 0.19018
 C283 C 0.49664 0.16283 0.17964
 C284 C 0.51665 0.15501 0.18822
 C285 C 0.53604 0.16101 0.17739
 C286 C 0.53583 0.17439 0.15848
 C287 C 0.51626 0.18271 0.14992
 C288 C 0.49644 0.17666 0.16046
 C289 C 0.45721 0.16476 0.18141
 C290 C 0.45699 0.17815 0.16250
 C291 C 0.47640 0.18436 0.15184
 C292 C 0.47631 0.19789 0.13261
 C293 C 0.49591 0.20369 0.12241
 C294 C 0.51588 0.19660 0.13086
 H295 H 0.55162 0.15543 0.18346
 H296 H 0.55122 0.17804 0.15058
 H297 H 0.44180 0.16078 0.18914
 H298 H 0.44140 0.18359 0.15632
 H299 H 0.49729 0.12548 0.23256
 H300 H 0.49562 0.21449 0.10794
 C301 C 0.52286 0.13175 0.80630
 C302 C 0.50375 0.12502 0.79569
 C303 C 0.48356 0.13374 0.80154
 C304 C 0.48229 0.15018 0.81814
 C305 C 0.50147 0.15717 0.82915
 C306 C 0.52178 0.14769 0.82350
 C307 C 0.54031 0.15399 0.83556
 C308 C 0.53914 0.17002 0.85211
 C309 C 0.51941 0.18041 0.85723
 C310 C 0.50030 0.17363 0.84592
 C311 C 0.46239 0.15996 0.82383
 C312 C 0.46126 0.17619 0.84014
 C313 C 0.47999 0.18318 0.85141
 C314 C 0.47898 0.19963 0.86797
 C315 C 0.49789 0.20635 0.87875
 C316 C 0.51806 0.19701 0.87375
 H317 H 0.55591 0.14641 0.83254
 H318 H 0.55389 0.17405 0.86095
 H319 H 0.44748 0.15528 0.81559
 H320 H 0.44554 0.18326 0.84381
 H321 H 0.50458 0.11270 0.78263
 H322 H 0.49686 0.21914 0.89133
 C323 C 0.51496 0.78619 0.14245
 C324 C 0.49536 0.77686 0.13553
 C325 C 0.47541 0.78577 0.14191
 C326 C 0.47481 0.80429 0.15614
 C327 C 0.49453 0.81360 0.16383
 C328 C 0.51470 0.80470 0.15676
 C329 C 0.53402 0.81437 0.16435
 C330 C 0.53359 0.83238 0.17866
 C331 C 0.51383 0.84111 0.18638
 C332 C 0.49408 0.83183 0.17866
 C333 C 0.45504 0.81360 0.16300
 C334 C 0.45459 0.83169 0.17720
 C335 C 0.47387 0.84082 0.18560
 C336 C 0.47357 0.85896 0.20041
 C337 C 0.49320 0.86777 0.20791
 C338 C 0.51323 0.85916 0.20127
 H339 H 0.54970 0.80807 0.15933
 H340 H 0.54898 0.83941 0.18354
 H341 H 0.43967 0.80698 0.15747
 H342 H 0.43890 0.83844 0.18146
 H343 H 0.49565 0.76273 0.12448
 H344 H 0.49288 0.88142 0.21958
 C345 C 0.79613 0.47564 0.86077
 C346 C 0.78507 0.49469 0.86726
 C347 C 0.79192 0.51563 0.86042
 C348 C 0.81013 0.51768 0.84611
 C349 C 0.82126 0.49845 0.83898
 C350 C 0.81435 0.47736 0.84648
 C351 C 0.82569 0.45857 0.83934
 C352 C 0.84348 0.46041 0.82508
 C353 C 0.85042 0.48108 0.81710
 C354 C 0.83935 0.50032 0.82434
 C355 C 0.81730 0.53839 0.83852
 C356 C 0.83522 0.54026 0.82446
 C357 C 0.84639 0.52145 0.81707
 C358 C 0.86462 0.52321 0.80282
 C359 C 0.87531 0.50415 0.79582
 C360 C 0.86840 0.48313 0.80244
 H361 H 0.82088 0.44222 0.84469
 H362 H 0.85183 0.44541 0.82051
 H363 H 0.80910 0.55341 0.84333
 H364 H 0.84022 0.55665 0.81943
 H365 H 0.77123 0.49322 0.87839
 H366 H 0.88903 0.50572 0.78453
 C367 C 0.12622 0.52192 0.19187
 C368 C 0.11670 0.50178 0.19792
 C369 C 0.12517 0.48168 0.19065
 C370 C 0.14363 0.48150 0.17662
 C371 C 0.15333 0.50174 0.17004
 C372 C 0.14450 0.52204 0.17748
 C373 C 0.15400 0.54186 0.17004
 C374 C 0.17239 0.54178 0.15651
 C375 C 0.18169 0.52188 0.14941
 C376 C 0.17195 0.50166 0.15603
 C377 C 0.15250 0.46161 0.16882
 C378 C 0.17088 0.46154 0.15531
 C379 C 0.18087 0.48136 0.14875
 C380 C 0.19973 0.48143 0.13531
 C381 C 0.20947 0.50143 0.12944
 C382 C 0.20063 0.52159 0.13604
 H383 H 0.14728 0.55770 0.17451
 H384 H 0.17927 0.55752 0.15173
 H385 H 0.14533 0.44586 0.17308
 H386 H 0.17724 0.44574 0.15014
 H387 H 0.10287 0.50168 0.20916
 H388 H 0.22391 0.50132 0.11903
 C389 C 0.80425 0.52548 0.13111
 C390 C 0.79563 0.50617 0.12215
 C391 C 0.80091 0.48535 0.13069
 C392 C 0.81529 0.48379 0.14908
 C393 C 0.82430 0.50335 0.15829
 C394 C 0.81893 0.52423 0.14911
 C395 C 0.82878 0.54327 0.15777
 C396 C 0.84348 0.54192 0.17530
 C397 C 0.84854 0.52154 0.18518
 C398 C 0.83896 0.50203 0.17651
 C399 C 0.82135 0.46331 0.15817
 C400 C 0.83528 0.46204 0.17640
 C401 C 0.84429 0.48116 0.18577
 C402 C 0.85856 0.48004 0.20415
 C403 C 0.86779 0.49934 0.21250
 C404 C 0.86337 0.51997 0.20312
 H405 H 0.82545 0.55940 0.15081
 H406 H 0.85086 0.55708 0.18095
 H407 H 0.81549 0.44799 0.15126
 H408 H 0.83911 0.44586 0.18296
 H409 H 0.78428 0.50742 0.10839
 H410 H 0.87903 0.49822 0.22637
 C411 C 0.12820 0.51561 0.79771
 C412 C 0.12109 0.49481 0.79083
 C413 C 0.13119 0.47548 0.79811
 C414 C 0.14885 0.47674 0.81303
 C415 C 0.15611 0.49765 0.82047
 C416 C 0.14571 0.51717 0.81290
 C417 C 0.15287 0.53764 0.82102
 C418 C 0.17042 0.53902 0.83550
 C419 C 0.18116 0.51995 0.84288
 C420 C 0.17382 0.49904 0.83551
 C421 C 0.15925 0.45763 0.82089
 C422 C 0.17668 0.45901 0.83553
 C423 C 0.18418 0.47953 0.84312
 C424 C 0.20198 0.48113 0.85788
 C425 C 0.20942 0.50189 0.86443
 C426 C 0.19919 0.52120 0.85733
 H427 H 0.14493 0.55285 0.81637
 H428 H 0.17549 0.55525 0.84086
 H429 H 0.15401 0.44138 0.81581
 H430 H 0.18430 0.44379 0.84073
 H431 H 0.10783 0.49364 0.77901
 H432 H 0.22307 0.50302 0.87577
 C433 C 0.30924 0.38664 0.05473
 C434 C 0.29757 0.39912 0.07012
 C435 C 0.27652 0.39292 0.07651
 C436 C 0.26766 0.37334 0.06782
 C437 C 0.27939 0.36079 0.05240
 C438 C 0.30018 0.36749 0.04546
 C439 C 0.26450 0.40760 0.09189
 C440 C 0.24279 0.40823 0.09342
 C441 C 0.23115 0.42549 0.10616
 C442 C 0.21019 0.43155 0.09937
 C443 C 0.19957 0.44928 0.10943
 C444 C 0.20968 0.46106 0.12659
 C445 C 0.23016 0.45447 0.13415
 C446 C 0.24075 0.43668 0.12420
 H447 H 0.32528 0.39219 0.04988
 H448 H 0.30487 0.41400 0.07668
 H449 H 0.25177 0.36760 0.07286
 H450 H 0.27207 0.34598 0.04572
 H451 H 0.27401 0.41984 0.10060
 H452 H 0.23309 0.39736 0.08320
 H453 H 0.20237 0.42310 0.08567
 H454 H 0.18378 0.45428 0.10337
 H455 H 0.23809 0.46337 0.14748
 H456 H 0.25649 0.43198 0.13053
 C457 C 0.69944 0.62917 0.05838
 C458 C 0.71152 0.61683 0.07362
 C459 C 0.73368 0.62108 0.07666
 C460 C 0.74334 0.63872 0.06500
 C461 C 0.73118 0.65128 0.04993
 C462 C 0.70921 0.64633 0.04614
 C463 C 0.74618 0.60640 0.09162
 C464 C 0.76708 0.60137 0.08802
 C465 C 0.77822 0.58353 0.10039
 C466 C 0.79364 0.57068 0.08911
 C467 C 0.80274 0.55220 0.09942
 C468 C 0.79693 0.54661 0.12135
 C469 C 0.78240 0.56004 0.13311
 C470 C 0.77310 0.57840 0.12273
 H471 H 0.68250 0.62510 0.05598
 H472 H 0.70367 0.60345 0.08255
 H473 H 0.76027 0.64280 0.06743
 H474 H 0.73911 0.66449 0.04083
 H475 H 0.73719 0.59749 0.10433
 H476 H 0.77548 0.60851 0.07383
 H477 H 0.79793 0.57438 0.07196
 H478 H 0.81388 0.54190 0.09012
 H479 H 0.77773 0.55587 0.15005
 H480 H 0.76170 0.58834 0.13206
 C481 C 0.69631 0.37485 0.94761
 C482 C 0.70685 0.38784 0.93170
 C483 C 0.72808 0.38294 0.92487
 C484 C 0.73833 0.36413 0.93379
 C485 C 0.72769 0.35102 0.94974
 C486 C 0.70666 0.35642 0.95701
 C487 C 0.73867 0.39809 0.90867
 C488 C 0.76021 0.39990 0.90586
 C489 C 0.77018 0.41764 0.89209
 C490 C 0.79105 0.42520 0.89758
 C491 C 0.79998 0.44351 0.88667
 C492 C 0.78826 0.45440 0.86992
 C493 C 0.76793 0.44626 0.86358
 C494 C 0.75904 0.42789 0.87437
 H495 H 0.68006 0.37941 0.95269
 H496 H 0.69849 0.40210 0.92501
 H497 H 0.75444 0.35941 0.92852
 H498 H 0.73603 0.33682 0.95655
 H499 H 0.72813 0.40967 0.90025
 H500 H 0.77100 0.38973 0.91567
 H501 H 0.80007 0.41750 0.91100
 H502 H 0.81567 0.44971 0.89184
 H503 H 0.75874 0.45447 0.85061
 H504 H 0.74332 0.42205 0.86899
 C505 C 0.30121 0.62194 0.93935
 C506 C 0.29063 0.60877 0.92377
 C507 C 0.26991 0.61438 0.91604
 C508 C 0.26030 0.63407 0.92352
 C509 C 0.27097 0.64736 0.93910
 C510 C 0.29140 0.64123 0.94742
 C511 C 0.25900 0.59900 0.90055
 C512 C 0.23739 0.59752 0.89834
 C513 C 0.22688 0.57946 0.88573
 C514 C 0.20612 0.57237 0.89229
 C515 C 0.19668 0.55383 0.88246
 C516 C 0.20780 0.54230 0.86576
 C517 C 0.22805 0.54991 0.85838
 C518 C 0.23745 0.56848 0.86810
 H519 H 0.31702 0.61683 0.94527
 H520 H 0.29849 0.59381 0.91814
 H521 H 0.24463 0.63930 0.91742
 H522 H 0.26309 0.66224 0.94485
 H523 H 0.26922 0.58690 0.89248
 H524 H 0.22698 0.60823 0.90800
 H525 H 0.19757 0.58063 0.90567
 H526 H 0.18104 0.54805 0.88835
 H527 H 0.23673 0.54120 0.84539
 H528 H 0.25308 0.57395 0.86197
 C529 C 0.05166 0.27111 0.34715
 C530 C 0.06636 0.25915 0.36016
 C531 C 0.07401 0.26765 0.38043
 C532 C 0.06663 0.28847 0.38742
 C533 C 0.05196 0.30042 0.37443
 C534 C 0.04414 0.29181 0.35426
 C535 C 0.08829 0.25375 0.39457
 C536 C 0.10131 0.26203 0.41039
 C537 C 0.11378 0.24847 0.42656
 C538 C 0.12968 0.25896 0.43953
 C539 C 0.14022 0.24763 0.45667
 C540 C 0.13517 0.22552 0.46113
 C541 C 0.11972 0.21474 0.44794
 C542 C 0.10907 0.22608 0.43081
 H543 H 0.04589 0.26396 0.33173
 H544 H 0.07159 0.24307 0.35448
 H545 H 0.07148 0.29534 0.40327
 H546 H 0.04635 0.31622 0.38050
 H547 H 0.08800 0.23618 0.39158
 H548 H 0.10295 0.27973 0.41183
 H549 H 0.13353 0.27619 0.43679
 H550 H 0.15192 0.25627 0.46689
 H551 H 0.11532 0.19779 0.45149
 H552 H 0.09657 0.21744 0.42174
 C553 C 0.05018 0.68958 0.61996
 C554 C 0.06644 0.69923 0.60696
 C555 C 0.07533 0.71972 0.61278
 C556 C 0.06817 0.72999 0.63252
 C557 C 0.05190 0.72024 0.64562
 C558 C 0.04251 0.70008 0.63928
 C559 C 0.09174 0.72961 0.59760
 C560 C 0.09624 0.75125 0.59654
 C561 C 0.11036 0.76095 0.57894
 C562 C 0.10695 0.78294 0.57239
 C563 C 0.11845 0.79199 0.55439
 C564 C 0.13370 0.77924 0.54283
 C565 C 0.13789 0.75764 0.54993
 C566 C 0.12651 0.74861 0.56797
 H567 H 0.04343 0.67396 0.61466
 H568 H 0.07177 0.69085 0.59198
 H569 H 0.07507 0.74546 0.63795
 H570 H 0.04644 0.72866 0.66052
 H571 H 0.09886 0.71868 0.58538
 H572 H 0.08771 0.76256 0.60736
 H573 H 0.09478 0.79287 0.58067
 H574 H 0.11498 0.80868 0.54902
 H575 H 0.14971 0.74764 0.54120
 H576 H 0.13027 0.73193 0.57303
 C577 C 0.94345 0.70676 0.37376
 C578 C 0.92916 0.71982 0.38602
 C579 C 0.92643 0.74217 0.38073
 C580 C 0.93754 0.75104 0.36222
 C581 C 0.95171 0.73789 0.34977
 C582 C 0.95507 0.71571 0.35567
 C583 C 0.91223 0.75562 0.39523
 C584 C 0.91552 0.77717 0.39884
 C585 C 0.90388 0.78930 0.41659
 C586 C 0.91485 0.80608 0.42804
 C587 C 0.90536 0.81609 0.44661
 C588 C 0.88457 0.80979 0.45371
 C589 C 0.87310 0.79383 0.44164
 C590 C 0.88262 0.78372 0.42314
 H591 H 0.94551 0.68967 0.37858
 H592 H 0.92064 0.71256 0.40008
 H593 H 0.93534 0.76807 0.35732
 H594 H 0.96032 0.74518 0.33581
 H595 H 0.90031 0.74687 0.40519
 H596 H 0.92890 0.78549 0.39062
 H597 H 0.93118 0.81074 0.42322
 H598 H 0.91446 0.82832 0.45584
 H599 H 0.85706 0.78872 0.44700
 H600 H 0.87347 0.77130 0.41428
 C601 C 0.95341 0.29821 0.61483
 C602 C 0.94140 0.28632 0.59927
 C603 C 0.92962 0.26758 0.60579
 C604 C 0.92978 0.26109 0.62835
 C605 C 0.94210 0.27283 0.64392
 C606 C 0.95427 0.29134 0.63723
 C607 C 0.91906 0.25426 0.58831
 C608 C 0.90141 0.24180 0.59175
 C609 C 0.89194 0.22865 0.57348
 C610 C 0.86935 0.22759 0.57092
 C611 C 0.86031 0.21648 0.55272
 C612 C 0.87377 0.20571 0.53726
 C613 C 0.89632 0.20610 0.54035
 C614 C 0.90533 0.21745 0.55827
 H615 H 0.96269 0.31231 0.60910
 H616 H 0.94160 0.29155 0.58196
 H617 H 0.92122 0.24644 0.63381
 H618 H 0.94251 0.26711 0.66105
 H619 H 0.92579 0.25538 0.57161
 H620 H 0.89306 0.24222 0.60767
 H621 H 0.85876 0.23604 0.58252
 H622 H 0.84289 0.21665 0.55043
 H623 H 0.90696 0.19789 0.52862
 H624 H 0.92280 0.21758 0.56017
 C625 C 0.34397 0.05347 0.26733
 C626 C 0.35683 0.06821 0.25506
 C627 C 0.37616 0.07664 0.26402
 C628 C 0.38225 0.07013 0.28569
 C629 C 0.36940 0.05546 0.29795
 C630 C 0.35027 0.04672 0.28882
 C631 C 0.39038 0.09058 0.24970
 C632 C 0.40593 0.10381 0.25785
 C633 C 0.42240 0.11547 0.24399
 C634 C 0.43578 0.13113 0.25439
 C635 C 0.45310 0.14080 0.24287
 C636 C 0.45729 0.13513 0.22064
 C637 C 0.44374 0.11992 0.20994
 C638 C 0.42646 0.11013 0.22147
 H639 H 0.32936 0.04698 0.25978
 H640 H 0.35185 0.07276 0.23835
 H641 H 0.39734 0.07555 0.29303
 H642 H 0.37483 0.05047 0.31438
 H643 H 0.38784 0.08962 0.23189
 H644 H 0.40703 0.10612 0.27571
 H645 H 0.43321 0.13545 0.27173
 H646 H 0.46358 0.15232 0.25146
 H647 H 0.44704 0.11504 0.19289
 H648 H 0.41705 0.09779 0.21286
 C649 C 0.62342 0.04161 0.70939
 C650 C 0.60793 0.05311 0.72165
 C651 C 0.61368 0.06409 0.74129
 C652 C 0.63542 0.06358 0.74840
 C653 C 0.65095 0.05174 0.73624
 C654 C 0.64503 0.04044 0.71672
 C655 C 0.59623 0.07443 0.75454
 C656 C 0.59907 0.09205 0.76763
 C657 C 0.58051 0.10215 0.77945
 C658 C 0.57870 0.12517 0.78042
 C659 C 0.56018 0.13492 0.78964
 C660 C 0.54350 0.12176 0.79860
 C661 C 0.54576 0.09876 0.79847
 C662 C 0.56409 0.08902 0.78902
 H663 H 0.61825 0.03300 0.69452
 H664 H 0.59128 0.05320 0.71591
 H665 H 0.64026 0.07156 0.76373
 H666 H 0.66746 0.05103 0.74236
 H667 H 0.57999 0.06794 0.75236
 H668 H 0.61467 0.10025 0.76820
 H669 H 0.59119 0.13557 0.77320
 H670 H 0.55860 0.15270 0.78930
 H671 H 0.53310 0.08833 0.80532
 H672 H 0.56531 0.07122 0.78897
 C673 C 0.35696 0.94380 0.71685
 C674 C 0.36912 0.92961 0.73038
 C675 C 0.39174 0.92862 0.72809
 C676 C 0.40192 0.94114 0.71129
 C677 C 0.38976 0.95494 0.69748
 C678 C 0.36722 0.95673 0.70038
 C679 C 0.40460 0.91476 0.74344
 C680 C 0.42319 0.92218 0.75216
 C681 C 0.43700 0.90917 0.76739
 C682 C 0.44975 0.92043 0.78299
 C683 C 0.46475 0.90908 0.79607
 C684 C 0.46756 0.88627 0.79357
 C685 C 0.45459 0.87486 0.77820
 C686 C 0.43925 0.88618 0.76534
 H687 H 0.33958 0.94476 0.71933
 H688 H 0.36096 0.91994 0.74311
 H689 H 0.41932 0.94029 0.70888
 H690 H 0.39810 0.96467 0.68492
 H691 H 0.39808 0.89895 0.74862
 H692 H 0.42825 0.93896 0.74858
 H693 H 0.44841 0.93814 0.78473
 H694 H 0.47476 0.91823 0.80765
 H695 H 0.45691 0.85736 0.77559
 H696 H 0.43002 0.87715 0.75304
 C697 C 0.60088 0.95654 0.30355
 C698 C 0.58686 0.94446 0.29003
 C699 C 0.59494 0.93216 0.27209
 C700 C 0.61738 0.93215 0.26782
 C701 C 0.63140 0.94460 0.28112
 C702 C 0.62325 0.95699 0.29906
 C703 C 0.57936 0.92075 0.25746
 C704 C 0.58372 0.90180 0.24698
 C705 C 0.56702 0.89064 0.23346
 C706 C 0.56442 0.86772 0.23511
 C707 C 0.54728 0.85725 0.22413
 C708 C 0.53295 0.86950 0.21077
 C709 C 0.53620 0.89227 0.20833
 C710 C 0.55307 0.90277 0.21957
 H711 H 0.59409 0.96606 0.31713
 H712 H 0.56961 0.94481 0.29353
 H713 H 0.62401 0.92316 0.25380
 H714 H 0.64857 0.94472 0.27725
 H715 H 0.56316 0.92760 0.25636
 H716 H 0.59900 0.89346 0.24983
 H717 H 0.57505 0.85810 0.24569
 H718 H 0.54482 0.83972 0.22653
 H719 H 0.52530 0.90201 0.19814
 H720 H 0.55502 0.92042 0.21766
 C721 C 0.38526 0.31197 0.94491
 C722 C 0.39791 0.30024 0.92973
 C723 C 0.39110 0.27961 0.92185
 C724 C 0.37079 0.27137 0.92876
 C725 C 0.35809 0.28316 0.94398
 C726 C 0.36536 0.30343 0.95247
 C727 C 0.40597 0.26730 0.90695
 C728 C 0.40539 0.24535 0.90430
 C729 C 0.42276 0.23308 0.89253
 C730 C 0.42684 0.21114 0.89879
 C731 C 0.44466 0.19983 0.89003
 C732 C 0.45851 0.21027 0.87474
 C733 C 0.45390 0.23172 0.86750
 C734 C 0.43603 0.24300 0.87614
 H735 H 0.39128 0.32762 0.95098
 H736 H 0.41338 0.30708 0.92455
 H737 H 0.36461 0.25588 0.92253
 H738 H 0.34270 0.27626 0.94930
 H739 H 0.41927 0.27659 0.89976
 H740 H 0.39328 0.23570 0.91306
 H741 H 0.41677 0.20304 0.91120
 H742 H 0.44811 0.18326 0.89577
 H743 H 0.46445 0.23990 0.85558
 H744 H 0.43294 0.25955 0.87019
 C745 C 0.65112 0.72665 0.94108
 C746 C 0.63796 0.73901 0.92672
 C747 C 0.61594 0.73373 0.92426
 C748 C 0.60758 0.71511 0.93535
 C749 C 0.62075 0.70259 0.94941
 C750 C 0.64254 0.70848 0.95281
 C751 C 0.60180 0.74797 0.91049
 C752 C 0.58145 0.75257 0.91685
 C753 C 0.56647 0.76683 0.90410
 C754 C 0.54986 0.77763 0.91575
 C755 C 0.53418 0.78974 0.90432
 C756 C 0.53464 0.79110 0.88095
 C757 C 0.55136 0.78050 0.86918
 C758 C 0.56727 0.76857 0.88067
 H759 H 0.66789 0.73149 0.94324
 H760 H 0.64478 0.75317 0.91814
 H761 H 0.59078 0.71029 0.93327
 H762 H 0.61367 0.68863 0.95810
 H763 H 0.60869 0.75590 0.89587
 H764 H 0.57566 0.74631 0.93276
 H765 H 0.54881 0.77640 0.93376
 H766 H 0.52130 0.79761 0.91368
 H767 H 0.55169 0.78094 0.85112
 H768 H 0.57956 0.75997 0.87117
 C769 C 0.34476 0.73070 0.04698
 C770 C 0.35713 0.74309 0.06198
 C771 C 0.37605 0.73427 0.07147
 C772 C 0.38235 0.71275 0.06564
 C773 C 0.37003 0.70042 0.05071
 C774 C 0.35124 0.70931 0.04102
 C775 C 0.38981 0.74843 0.08578
 C776 C 0.40411 0.74019 0.10045
 C777 C 0.42060 0.75345 0.11244
 C778 C 0.43259 0.74311 0.12942
 C779 C 0.44998 0.75391 0.13951
 C780 C 0.45561 0.77534 0.13293
 C781 C 0.44346 0.78601 0.11640
 C782 C 0.42611 0.77519 0.10617
 H783 H 0.33041 0.73805 0.03971
 H784 H 0.35206 0.75971 0.06598
 H785 H 0.39722 0.70558 0.07185
 H786 H 0.37559 0.68406 0.04635
 H787 H 0.38807 0.76606 0.08386
 H788 H 0.40420 0.72262 0.10364
 H789 H 0.42888 0.72635 0.13446
 H790 H 0.45937 0.74539 0.15213
 H791 H 0.44788 0.80245 0.11091
 H792 H 0.41778 0.78366 0.09283
 C793 C 0.65372 0.27092 0.06192
 C794 C 0.64084 0.25761 0.07580
 C795 C 0.61841 0.26124 0.07733
 C796 C 0.60924 0.27911 0.06578
 C797 C 0.62212 0.29263 0.05232
 C798 C 0.64441 0.28845 0.04989
 C799 C 0.60458 0.24641 0.09087
 C800 C 0.58528 0.23961 0.08328
 C801 C 0.56977 0.22621 0.09642
 C802 C 0.55492 0.21289 0.08497
 C803 C 0.53817 0.20222 0.09643
 C804 C 0.53575 0.20492 0.11956
 C805 C 0.55085 0.21791 0.13115
 C806 C 0.56787 0.22832 0.11971
 H807 H 0.67088 0.26739 0.06042
 H808 H 0.64823 0.24404 0.08477
 H809 H 0.59206 0.28258 0.06711
 H810 H 0.61445 0.30599 0.04329
 H811 H 0.61064 0.24050 0.10675
 H812 H 0.58058 0.24396 0.06640
 H813 H 0.55595 0.21119 0.06701
 H814 H 0.52657 0.19248 0.08714
 H815 H 0.54894 0.22069 0.14889
 H816 H 0.57871 0.23896 0.12892
 C817 C 0.31170 0.05333 0.60973
 C818 C 0.30012 0.06835 0.59669
 C819 C 0.27973 0.07603 0.60361
 C820 C 0.27141 0.06886 0.62431
 C821 C 0.28304 0.05383 0.63740
 C822 C 0.30322 0.04574 0.63014
 C823 C 0.26794 0.09149 0.58873
 C824 C 0.24639 0.09464 0.58931
 C825 C 0.23487 0.10836 0.57257
 C826 C 0.21320 0.10333 0.56738
 C827 C 0.20247 0.11462 0.55026
 C828 C 0.21320 0.13127 0.53830
 C829 C 0.23444 0.13709 0.54411
 C830 C 0.24516 0.12587 0.56122
 H831 H 0.32724 0.04752 0.60368
 H832 H 0.30701 0.07372 0.58093
 H833 H 0.25608 0.07489 0.63058
 H834 H 0.27614 0.04845 0.65314
 H835 H 0.27737 0.09924 0.57560
 H836 H 0.23654 0.08538 0.60102
 H837 H 0.20483 0.09009 0.57601
 H838 H 0.18607 0.10993 0.54587
 H839 H 0.24287 0.14999 0.53502
 H840 H 0.26153 0.13083 0.56529
 C841 C 0.69142 0.04098 0.39062
 C842 C 0.70566 0.05277 0.40415
 C843 C 0.72527 0.06084 0.39554
 C844 C 0.73041 0.05713 0.37302
 C845 C 0.71637 0.04490 0.35953
 C846 C 0.69679 0.03641 0.36825
 C847 C 0.74066 0.07145 0.41094
 C848 C 0.75399 0.08789 0.40498
 C849 C 0.76852 0.09800 0.42157
 C850 C 0.76952 0.12100 0.42359
 C851 C 0.78113 0.13057 0.44111
 C852 C 0.79246 0.11725 0.45636
 C853 C 0.79242 0.09430 0.45349
 C854 C 0.78050 0.08474 0.43631
 H855 H 0.67654 0.03481 0.39803
 H856 H 0.70145 0.05540 0.42150
 H857 H 0.74564 0.06287 0.36607
 H858 H 0.72109 0.04180 0.34240
 H859 H 0.74025 0.06615 0.42824
 H860 H 0.75303 0.09507 0.38844
 H861 H 0.76038 0.13145 0.41235
 H862 H 0.78066 0.14829 0.44325
 H863 H 0.80104 0.08374 0.46506
 H864 H 0.78024 0.06695 0.43481
 C865 C 0.74374 0.95336 0.66053
 C866 C 0.75723 0.93999 0.64749
 C867 C 0.74915 0.92943 0.62841
 C868 C 0.72723 0.93246 0.62268
 C869 C 0.71383 0.94580 0.63562
 C870 C 0.72196 0.95664 0.65452
 C871 C 0.76421 0.91710 0.61368
 C872 C 0.75737 0.90143 0.59957
 C873 C 0.77079 0.89153 0.58160
 C874 C 0.76197 0.87384 0.56954
 C875 C 0.77249 0.86570 0.55063
 C876 C 0.79213 0.87499 0.54351
 C877 C 0.80143 0.89219 0.55579
 C878 C 0.79086 0.90046 0.57468
 H879 H 0.75051 0.96160 0.67493
 H880 H 0.77411 0.93815 0.65212
 H881 H 0.72049 0.92535 0.60769
 H882 H 0.69716 0.94806 0.63042
 H883 H 0.78118 0.92152 0.61437
 H884 H 0.74070 0.89589 0.60064
 H885 H 0.74650 0.86674 0.57434
 H886 H 0.76503 0.85253 0.54119
 H887 H 0.81646 0.89971 0.55026
 H888 H 0.79810 0.91436 0.58306
 C889 C 0.26777 0.94377 0.34551
 C890 C 0.25596 0.92838 0.35807
 C891 C 0.26359 0.92109 0.37887
 C892 C 0.28336 0.92957 0.38689
 C893 C 0.29513 0.94496 0.37437
 C894 C 0.28740 0.95239 0.35363
 C895 C 0.24986 0.90605 0.39251
 C896 C 0.25792 0.89298 0.40858
 C897 C 0.24458 0.88003 0.42465
 C898 C 0.25524 0.86496 0.43868
 C899 C 0.24414 0.85447 0.45607
 C900 C 0.22207 0.85870 0.45969
 C901 C 0.21107 0.87307 0.44528
 C902 C 0.22219 0.88370 0.42791
 H903 H 0.26131 0.94922 0.32964
 H904 H 0.24068 0.92231 0.35162
 H905 H 0.28947 0.92503 0.40316
 H906 H 0.31009 0.95140 0.38121
 H907 H 0.23267 0.90591 0.38899
 H908 H 0.27534 0.89189 0.41049
 H909 H 0.27245 0.86188 0.43671
 H910 H 0.25293 0.84362 0.46723
 H911 H 0.19411 0.87681 0.44813
 H912 H 0.21334 0.89547 0.41791
 C913 C 0.04101 0.34328 0.73895
 C914 C 0.05443 0.35557 0.75304
 C915 C 0.06695 0.37304 0.74452
 C916 C 0.06599 0.37784 0.72156
 C917 C 0.05247 0.36572 0.70757
 C918 C 0.03959 0.34855 0.71615
 C919 C 0.07900 0.38741 0.76011
 C920 C 0.09626 0.39940 0.75379
 C921 C 0.10586 0.41708 0.76759
 C922 C 0.12705 0.42422 0.76282
 C923 C 0.13567 0.44270 0.77347
 C924 C 0.12316 0.45441 0.78897
 C925 C 0.10215 0.44715 0.79411
 C926 C 0.09355 0.42860 0.78358
 H927 H 0.03116 0.33021 0.74606
 H928 H 0.05471 0.35173 0.77071
 H929 H 0.07485 0.39159 0.71446
 H930 H 0.05169 0.37021 0.69008
 H931 H 0.07308 0.38845 0.77710
 H932 H 0.10344 0.39663 0.73752
 H933 H 0.13674 0.41582 0.75037
 H934 H 0.15182 0.44834 0.76909
 H935 H 0.09219 0.45625 0.80580
 H936 H 0.07692 0.42409 0.78719
 C937 C 0.03744 0.61737 0.29614
 C938 C 0.04843 0.60228 0.28275
 C939 C 0.06024 0.60943 0.26408
 C940 C 0.06104 0.63208 0.25904
 C941 C 0.04965 0.64721 0.27222
 C942 C 0.03760 0.63994 0.29080
 C943 C 0.07021 0.59268 0.24950
 C944 C 0.08876 0.59588 0.23828
 C945 C 0.09849 0.57804 0.22489
 C946 C 0.12088 0.57416 0.22609
 C947 C 0.13004 0.55615 0.21503
 C948 C 0.11705 0.54223 0.20193
 C949 C 0.09478 0.54662 0.20011
 C950 C 0.08556 0.56433 0.21151
 H951 H 0.02814 0.61123 0.31020
 H952 H 0.04751 0.58489 0.28687
 H953 H 0.06972 0.63801 0.24448
 H954 H 0.04995 0.66449 0.26767
 H955 H 0.06259 0.57657 0.24906
 H956 H 0.09783 0.61103 0.24044
 H957 H 0.13110 0.58453 0.23633
 H958 H 0.14717 0.55279 0.21706
 H959 H 0.08446 0.53605 0.19017
 H960 H 0.06829 0.56723 0.21001
 C961 C 0.94561 0.34678 0.26647
 C962 C 0.93096 0.35895 0.25361
 C963 C 0.92296 0.37921 0.26124
 C964 C 0.92990 0.38706 0.28214
 C965 C 0.94458 0.37493 0.29497
 C966 C 0.95278 0.35476 0.28719
 C967 C 0.90897 0.39255 0.24628
 C968 C 0.89548 0.40821 0.25377
 C969 C 0.88378 0.42410 0.23922
 C970 C 0.86781 0.43748 0.24900
 C971 C 0.85857 0.45488 0.23704
 C972 C 0.86501 0.45914 0.21501
 C973 C 0.88024 0.44531 0.20477
 C974 C 0.88960 0.42794 0.21675
 H975 H 0.95167 0.33134 0.25994
 H976 H 0.92608 0.35264 0.23749
 H977 H 0.92474 0.40294 0.28833
 H978 H 0.94989 0.38162 0.31077
 H979 H 0.91005 0.38922 0.22860
 H980 H 0.89311 0.40996 0.27159
 H981 H 0.86310 0.43504 0.26626
 H982 H 0.84707 0.46563 0.24528
 H983 H 0.88570 0.44871 0.18791
 H984 H 0.90215 0.41847 0.20862
 C985 C 0.93114 0.63098 0.69454
 C986 C 0.91606 0.61872 0.70682
 C987 C 0.91382 0.62187 0.72988
 C988 C 0.92596 0.63862 0.74022
 C989 C 0.94096 0.65103 0.72789
 C990 C 0.94412 0.64692 0.70504
 C991 C 0.89945 0.60670 0.74256
 C992 C 0.90320 0.60096 0.76385
 C993 C 0.89182 0.58243 0.77508
 C994 C 0.90286 0.57067 0.79175
 C995 C 0.89368 0.55178 0.80127
 C996 C 0.87310 0.54457 0.79458
 C997 C 0.86156 0.55677 0.77863
 C998 C 0.87079 0.57564 0.76900
 H999 H 0.93302 0.62755 0.67692
 H1000 H 0.90673 0.60609 0.69841
 H1001 H 0.92413 0.64200 0.75784
 H1002 H 0.95059 0.66333 0.73640
 H1003 H 0.88718 0.59798 0.73318
 H1004 H 0.91685 0.60816 0.77254
 H1005 H 0.91901 0.57561 0.79682
 H1006 H 0.90281 0.54248 0.81350
 H1007 H 0.84566 0.55136 0.77327
 H1008 H 0.86152 0.58466 0.75670
 C1009 C 0.72903 0.65025 0.94753
 C1010 C 0.74149 0.63685 0.93351
 C1011 C 0.73406 0.61592 0.92715
 C1012 C 0.71378 0.60865 0.93513
 C1013 C 0.70131 0.62199 0.94912
 C1014 C 0.70883 0.64290 0.95576
 C1015 C 0.74845 0.60157 0.91358
 C1016 C 0.74114 0.58453 0.90148
 C1017 C 0.75531 0.56854 0.88964
 C1018 C 0.74575 0.55429 0.87405
 C1019 C 0.75786 0.53759 0.86398
 C1020 C 0.77984 0.53485 0.86921
 C1021 C 0.78961 0.54919 0.88450
 C1022 C 0.77749 0.56589 0.89467
 H1023 H 0.73546 0.66619 0.95222
 H1024 H 0.75713 0.64280 0.92777
 H1025 H 0.70770 0.59237 0.93131
 H1026 H 0.68594 0.61559 0.95514
 H1027 H 0.76557 0.60549 0.91354
 H1028 H 0.72383 0.58198 0.90000
 H1029 H 0.72869 0.55577 0.87000
 H1030 H 0.74999 0.52648 0.85242
 H1031 H 0.80646 0.54699 0.88909
 H1032 H 0.78543 0.57600 0.90702
 C1033 C 0.31090 0.39019 0.94697
 C1034 C 0.29972 0.40332 0.93169
 C1035 C 0.27962 0.39659 0.92314
 C1036 C 0.27123 0.37595 0.92967
 C1037 C 0.28241 0.36277 0.94502
 C1038 C 0.30231 0.36981 0.95409
 C1039 C 0.26816 0.41169 0.90762
 C1040 C 0.24678 0.41078 0.90347
 C1041 C 0.23528 0.42768 0.89000
 C1042 C 0.21307 0.43115 0.89391
 C1043 C 0.20201 0.44806 0.88288
 C1044 C 0.21293 0.46162 0.86754
 C1045 C 0.23488 0.45770 0.86291
 C1046 C 0.24594 0.44075 0.87386
 H1047 H 0.32622 0.39622 0.95337
 H1048 H 0.30668 0.41903 0.92681
 H1049 H 0.25616 0.36977 0.92295
 H1050 H 0.27534 0.34709 0.94983
 H1051 H 0.27758 0.42520 0.90082
 H1052 H 0.23688 0.39849 0.91176
 H1053 H 0.20442 0.42123 0.90610
 H1054 H 0.18509 0.45100 0.88677
 H1055 H 0.24352 0.46801 0.85105
 H1056 H 0.26282 0.43811 0.86971
 C1057 C 0.26419 0.65313 0.04439
 C1058 C 0.25089 0.64103 0.05893
 C1059 C 0.25795 0.62091 0.06792
 C1060 C 0.27864 0.61305 0.06201
 C1061 C 0.29191 0.62505 0.04749
 C1062 C 0.28483 0.64517 0.03827
 C1063 C 0.24287 0.60766 0.08190
 C1064 C 0.24977 0.59254 0.09665
 C1065 C 0.23547 0.57657 0.10844
 C1066 C 0.24450 0.56378 0.12565
 C1067 C 0.23276 0.54653 0.13536
 C1068 C 0.21166 0.54183 0.12815
 C1069 C 0.20222 0.55494 0.11151
 C1070 C 0.21400 0.57217 0.10168
 H1071 H 0.25809 0.66850 0.03766
 H1072 H 0.23493 0.64732 0.06301
 H1073 H 0.28442 0.59725 0.06790
 H1074 H 0.30759 0.61822 0.04317
 H1075 H 0.22570 0.61057 0.07975
 H1076 H 0.26697 0.59133 0.10005
 H1077 H 0.26101 0.56666 0.13110
 H1078 H 0.24036 0.53638 0.14802
 H1079 H 0.18608 0.55122 0.10549
 H1080 H 0.20650 0.58116 0.08816
 C1081 C 0.72816 0.34849 0.05809
 C1082 C 0.74040 0.36168 0.07250
 C1083 C 0.73416 0.38346 0.07679
 C1084 C 0.71488 0.39153 0.06744
 C1085 C 0.70231 0.37822 0.05354
 C1086 C 0.70901 0.35665 0.04823
 C1087 C 0.74804 0.39780 0.09063
 C1088 C 0.75305 0.41826 0.08392
 C1089 C 0.76709 0.43333 0.09674
 C1090 C 0.78079 0.44777 0.08503
 C1091 C 0.79272 0.46375 0.09635
 C1092 C 0.79083 0.46598 0.11959
 C1093 C 0.77724 0.45140 0.13141
 C1094 C 0.76567 0.43497 0.12011
 H1095 H 0.73379 0.33194 0.05463
 H1096 H 0.75515 0.35513 0.07971
 H1097 H 0.70956 0.40819 0.07085
 H1098 H 0.68767 0.38515 0.04646
 H1099 H 0.75535 0.39102 0.10556
 H1100 H 0.74744 0.42391 0.06775
 H1101 H 0.78198 0.44689 0.06701
 H1102 H 0.80290 0.47495 0.08685
 H1103 H 0.77502 0.45321 0.14925
 H1104 H 0.75482 0.42435 0.12947
 C1105 C 0.94838 0.73502 0.65069
 C1106 C 0.93581 0.75002 0.63852
 C1107 C 0.93083 0.74590 0.61613
 C1108 C 0.93768 0.72612 0.60633
 C1109 C 0.94967 0.71085 0.61860
 C1110 C 0.95557 0.71523 0.64085
 C1111 C 0.91842 0.76216 0.60301
 C1112 C 0.92501 0.76820 0.58260
 C1113 C 0.91251 0.78308 0.56797
 C1114 C 0.92373 0.79689 0.55309
 C1115 C 0.91250 0.80909 0.53707
 C1116 C 0.88984 0.80734 0.53531
 C1117 C 0.87856 0.79375 0.55044
 C1118 C 0.88976 0.78193 0.56684
 H1119 H 0.95241 0.73895 0.66781
 H1120 H 0.93048 0.76513 0.64639
 H1121 H 0.93364 0.72245 0.58915
 H1122 H 0.95476 0.69583 0.61037
 H1123 H 0.90425 0.76970 0.61048
 H1124 H 0.94040 0.76212 0.57634
 H1125 H 0.94127 0.79782 0.55354
 H1126 H 0.92157 0.81926 0.52543
 H1127 H 0.86118 0.79158 0.54897
 H1128 H 0.88077 0.77094 0.57774
 C1129 C 0.95230 0.29927 0.37923
 C1130 C 0.94014 0.28654 0.39409
 C1131 C 0.93201 0.26597 0.38768
 C1132 C 0.93596 0.25838 0.36592
 C1133 C 0.94860 0.27092 0.35109
 C1134 C 0.95723 0.29142 0.35769
 C1135 C 0.92121 0.25219 0.40474
 C1136 C 0.90468 0.23854 0.40044
 C1137 C 0.89445 0.22570 0.41863
 C1138 C 0.87178 0.22487 0.42055
 C1139 C 0.86207 0.21452 0.43897
 C1140 C 0.87493 0.20422 0.45529
 C1141 C 0.89757 0.20433 0.45283
 C1142 C 0.90725 0.21501 0.43471
 H1143 H 0.95852 0.31494 0.38504
 H1144 H 0.93731 0.29266 0.41081
 H1145 H 0.93012 0.24237 0.36069
 H1146 H 0.95196 0.26432 0.33467
 H1147 H 0.92647 0.25422 0.42187
 H1148 H 0.89762 0.23801 0.38392
 H1149 H 0.86165 0.23303 0.40831
 H1150 H 0.84459 0.21494 0.44077
 H1151 H 0.90778 0.19652 0.46523
 H1152 H 0.92478 0.21513 0.43338
 C1153 C 0.04667 0.26512 0.65362
 C1154 C 0.06178 0.25281 0.64140
 C1155 C 0.07162 0.26166 0.62220
 C1156 C 0.06593 0.28309 0.61538
 C1157 C 0.05085 0.29536 0.62749
 C1158 C 0.04083 0.28653 0.64671
 C1159 C 0.08641 0.24768 0.60871
 C1160 C 0.10163 0.25616 0.59507
 C1161 C 0.11454 0.24331 0.57864
 C1162 C 0.13066 0.25451 0.56642
 C1163 C 0.14133 0.24427 0.54868
 C1164 C 0.13626 0.22252 0.54291
 C1165 C 0.12086 0.21087 0.55556
 C1166 C 0.11004 0.22114 0.57327
 H1167 H 0.03934 0.25766 0.66826
 H1168 H 0.06568 0.23625 0.64687
 H1169 H 0.07249 0.29025 0.60024
 H1170 H 0.04677 0.31168 0.62145
 H1171 H 0.08439 0.23003 0.61014
 H1172 H 0.10451 0.27376 0.59539
 H1173 H 0.13445 0.27157 0.57004
 H1174 H 0.15301 0.25358 0.53891
 H1175 H 0.11651 0.19417 0.55106
 H1176 H 0.09761 0.21187 0.58189
 C1177 C 0.05281 0.72927 0.34740
 C1178 C 0.06801 0.74105 0.35997
 C1179 C 0.07475 0.73330 0.38092
 C1180 C 0.06590 0.71344 0.38909
 C1181 C 0.05071 0.70168 0.37660
 C1182 C 0.04374 0.70951 0.35565
 C1183 C 0.08969 0.74700 0.39451
 C1184 C 0.10220 0.73860 0.41075
 C1185 C 0.11525 0.75192 0.42664
 C1186 C 0.12971 0.74076 0.44081
 C1187 C 0.14039 0.75190 0.45793
 C1188 C 0.13697 0.77449 0.46117
 C1189 C 0.12317 0.78596 0.44665
 C1190 C 0.11235 0.77480 0.42953
 H1191 H 0.04790 0.73593 0.33139
 H1192 H 0.07439 0.75640 0.35338
 H1193 H 0.07004 0.70723 0.40547
 H1194 H 0.04410 0.68665 0.38368
 H1195 H 0.09028 0.76444 0.39078
 H1196 H 0.10282 0.72089 0.41289
 H1197 H 0.13220 0.72317 0.43911
 H1198 H 0.15081 0.74275 0.46916
 H1199 H 0.12004 0.80333 0.44921
 H1200 H 0.10107 0.78406 0.41942
 C1201 C 0.66458 0.94274 0.73945
 C1202 C 0.65237 0.92861 0.75315
 C1203 C 0.63014 0.92569 0.74926
 C1204 C 0.62054 0.93601 0.73075
 C1205 C 0.63276 0.94969 0.71685
 C1206 C 0.65479 0.95360 0.72131
 C1207 C 0.61674 0.91235 0.76467
 C1208 C 0.59767 0.92007 0.77196
 C1209 C 0.58192 0.90719 0.78528
 C1210 C 0.56673 0.91871 0.79821
 C1211 C 0.54916 0.90774 0.80786
 C1212 C 0.54629 0.88504 0.80456
 C1213 C 0.56196 0.87324 0.79249
 C1214 C 0.57977 0.88421 0.78301
 H1215 H 0.68156 0.94539 0.74319
 H1216 H 0.66007 0.92062 0.76725
 H1217 H 0.60348 0.93363 0.72718
 H1218 H 0.62475 0.95780 0.70302
 H1219 H 0.62279 0.89655 0.77036
 H1220 H 0.59313 0.93682 0.76764
 H1221 H 0.56798 0.93643 0.80006
 H1222 H 0.53713 0.91716 0.81695
 H1223 H 0.55977 0.85580 0.78936
 H1224 H 0.59093 0.87494 0.77271
 C1225 C 0.37946 0.95813 0.29569
 C1226 C 0.39427 0.94572 0.28339
 C1227 C 0.38731 0.93276 0.26546
 C1228 C 0.36512 0.93239 0.26002
 C1229 C 0.35030 0.94519 0.27210
 C1230 C 0.35736 0.95827 0.29000
 C1231 C 0.40384 0.92114 0.25202
 C1232 C 0.40036 0.90185 0.24181
 C1233 C 0.41796 0.89061 0.22948
 C1234 C 0.42055 0.86771 0.23155
 C1235 C 0.43830 0.85717 0.22160
 C1236 C 0.45332 0.86930 0.20884
 C1237 C 0.45017 0.89205 0.20600
 C1238 C 0.43269 0.90262 0.21622
 H1239 H 0.38546 0.96817 0.30926
 H1240 H 0.41129 0.94637 0.28780
 H1241 H 0.35935 0.92286 0.24598
 H1242 H 0.33337 0.94505 0.26729
 H1243 H 0.42000 0.92821 0.25165
 H1244 H 0.38503 0.89336 0.24399
 H1245 H 0.40935 0.85815 0.24165
 H1246 H 0.44064 0.83968 0.22435
 H1247 H 0.46159 0.90172 0.19628
 H1248 H 0.43081 0.92023 0.21395
 C1249 C 0.61142 0.05567 0.31497
 C1250 C 0.59914 0.07164 0.30398
 C1251 C 0.60459 0.07846 0.28227
 C1252 C 0.62328 0.06963 0.27213
 C1253 C 0.63563 0.05362 0.28318
 C1254 C 0.62961 0.04621 0.30458
 C1255 C 0.59005 0.09440 0.27093
 C1256 C 0.58869 0.09663 0.24868
 C1257 C 0.57166 0.11005 0.23765
 C1258 C 0.56521 0.10443 0.21593
 C1259 C 0.54783 0.11525 0.20574
 C1260 C 0.53676 0.13204 0.21703
 C1261 C 0.54370 0.13838 0.23831
 C1262 C 0.56114 0.12766 0.24848
 H1263 H 0.60641 0.05047 0.33151
 H1264 H 0.58497 0.07830 0.31228
 H1265 H 0.62846 0.07495 0.25572
 H1266 H 0.64968 0.04680 0.27482
 H1267 H 0.57857 0.10299 0.28144
 H1268 H 0.59882 0.08660 0.23802
 H1269 H 0.57312 0.09108 0.20714
 H1270 H 0.54255 0.11007 0.18934
 H1271 H 0.53534 0.15138 0.24720
 H1272 H 0.56611 0.13309 0.26486
 C1273 C 0.38842 0.05416 0.68742
 C1274 C 0.40182 0.06851 0.69922
 C1275 C 0.39635 0.07528 0.72088
 C1276 C 0.37656 0.06798 0.73018
 C1277 C 0.36308 0.05355 0.71831
 C1278 C 0.36904 0.04624 0.69691
 C1279 C 0.41201 0.08961 0.73288
 C1280 C 0.41206 0.09279 0.75506
 C1281 C 0.42956 0.10496 0.76688
 C1282 C 0.43268 0.10090 0.78976
 C1283 C 0.44988 0.11075 0.80122
 C1284 C 0.46420 0.12496 0.79000
 C1285 C 0.46080 0.12969 0.76739
 C1286 C 0.44351 0.12000 0.75595
 H1287 H 0.39349 0.04899 0.67093
 H1288 H 0.41682 0.07397 0.69151
 H1289 H 0.37134 0.07326 0.74654
 H1290 H 0.34817 0.04787 0.72601
 H1291 H 0.42511 0.09635 0.72296
 H1292 H 0.39996 0.08472 0.76533
 H1293 H 0.42213 0.08959 0.79867
 H1294 H 0.45235 0.10691 0.81869
 H1295 H 0.47166 0.14075 0.75856
 H1296 H 0.44129 0.12435 0.73861
 C1297 C 0.64863 0.73233 0.04990
 C1298 C 0.63548 0.74465 0.06431
 C1299 C 0.61608 0.73580 0.07283
 C1300 C 0.61003 0.71432 0.06652
 C1301 C 0.62311 0.70206 0.05214
 C1302 C 0.64248 0.71094 0.04352
 C1303 C 0.60175 0.74980 0.08683
 C1304 C 0.58704 0.74140 0.10109
 C1305 C 0.57045 0.75451 0.11324
 C1306 C 0.55800 0.74381 0.12972
 C1307 C 0.54052 0.75447 0.13988
 C1308 C 0.53522 0.77614 0.13391
 C1309 C 0.54789 0.78720 0.11795
 C1310 C 0.56536 0.77652 0.10765
 H1311 H 0.66338 0.73970 0.04346
 H1312 H 0.64040 0.76124 0.06868
 H1313 H 0.59486 0.70712 0.07198
 H1314 H 0.61778 0.68571 0.04743
 H1315 H 0.60360 0.76745 0.08519
 H1316 H 0.58679 0.72377 0.10395
 H1317 H 0.56139 0.72687 0.13428
 H1318 H 0.53074 0.74561 0.15200
 H1319 H 0.54374 0.80381 0.11286
 H1320 H 0.57409 0.78532 0.09474
 C1321 C 0.38107 0.30961 0.05598
 C1322 C 0.39296 0.29708 0.07121
 C1323 C 0.38766 0.27493 0.07522
 C1324 C 0.36955 0.26576 0.06440
 C1325 C 0.35750 0.27839 0.04928
 C1326 C 0.36335 0.30034 0.04465
 C1327 C 0.40162 0.26197 0.09047
 C1328 C 0.40472 0.24020 0.08835
 C1329 C 0.42150 0.22817 0.10117
 C1330 C 0.43203 0.21028 0.09106
 C1331 C 0.44942 0.19990 0.10167
 C1332 C 0.45623 0.20695 0.12277
 C1333 C 0.44511 0.22411 0.13343
 C1334 C 0.42781 0.23462 0.12275
 H1335 H 0.38589 0.32653 0.05295
 H1336 H 0.40672 0.30457 0.07948
 H1337 H 0.36462 0.24892 0.06758
 H1338 H 0.34382 0.27084 0.04093
 H1339 H 0.41142 0.27113 0.10221
 H1340 H 0.39662 0.23137 0.07510
 H1341 H 0.42738 0.20492 0.07452
 H1342 H 0.45794 0.18674 0.09320
 H1343 H 0.45025 0.22975 0.14971
 H1344 H 0.41963 0.24793 0.13129
 C1345 C 0.65304 0.27039 0.94861
 C1346 C 0.64032 0.25728 0.93455
 C1347 C 0.61793 0.26101 0.93275
 C1348 C 0.60865 0.27873 0.94440
 C1349 C 0.62137 0.29202 0.95812
 C1350 C 0.64364 0.28781 0.96067
 C1351 C 0.60444 0.24647 0.91862
 C1352 C 0.58436 0.24056 0.92487
 C1353 C 0.56951 0.22703 0.91116
 C1354 C 0.55277 0.21550 0.92200
 C1355 C 0.53678 0.20470 0.90974
 C1356 C 0.53707 0.20536 0.88633
 C1357 C 0.55407 0.21643 0.87537
 C1358 C 0.57027 0.22710 0.88767
 H1359 H 0.67019 0.26684 0.95014
 H1360 H 0.64785 0.24386 0.92553
 H1361 H 0.59153 0.28239 0.94284
 H1362 H 0.61363 0.30533 0.96711
 H1363 H 0.61150 0.23985 0.90350
 H1364 H 0.57849 0.24557 0.94115
 H1365 H 0.55173 0.21534 0.94006
 H1366 H 0.52368 0.19644 0.91852
 H1367 H 0.55430 0.21758 0.85733
 H1368 H 0.58263 0.23629 0.87878
 C1369 C 0.37697 0.69637 0.94309
 C1370 C 0.39066 0.70730 0.92814
 C1371 C 0.38493 0.72790 0.91926
 C1372 C 0.36470 0.73703 0.92506
 C1373 C 0.35094 0.72605 0.94006
 C1374 C 0.35706 0.70572 0.94944
 C1375 C 0.40073 0.73917 0.90438
 C1376 C 0.40089 0.76096 0.90042
 C1377 C 0.41894 0.77210 0.88843
 C1378 C 0.42369 0.79416 0.89358
 C1379 C 0.44209 0.80444 0.88464
 C1380 C 0.45586 0.79287 0.87018
 C1381 C 0.45057 0.77127 0.86403
 C1382 C 0.43214 0.76102 0.87287
 H1383 H 0.38213 0.68066 0.94987
 H1384 H 0.40604 0.69978 0.92384
 H1385 H 0.35934 0.75255 0.91808
 H1386 H 0.33560 0.73358 0.94445
 H1387 H 0.41397 0.72921 0.89819
 H1388 H 0.38882 0.77137 0.90818
 H1389 H 0.41370 0.80313 0.90534
 H1390 H 0.44607 0.82109 0.88966
 H1391 H 0.46105 0.76217 0.85283
 H1392 H 0.42856 0.74432 0.86777
 C1393 C 0.68223 0.93980 0.38488
 C1394 C 0.69434 0.92530 0.39799
 C1395 C 0.71560 0.91963 0.39191
 C1396 C 0.72406 0.92775 0.37163
 C1397 C 0.71189 0.94225 0.35845
 C1398 C 0.69103 0.94883 0.36521
 C1399 C 0.72839 0.90582 0.40754
 C1400 C 0.75016 0.90605 0.40839
 C1401 C 0.76282 0.89499 0.42626
 C1402 C 0.78391 0.90260 0.43070
 C1403 C 0.79591 0.89376 0.44833
 C1404 C 0.78711 0.87699 0.46172
 C1405 C 0.76634 0.86885 0.45701
 C1406 C 0.75434 0.87759 0.43931
 H1407 H 0.66615 0.94438 0.39050
 H1408 H 0.68731 0.91909 0.41337
 H1409 H 0.74007 0.92314 0.36593
 H1410 H 0.71905 0.94876 0.34327
 H1411 H 0.71934 0.89698 0.42021
 H1412 H 0.75912 0.91643 0.39689
 H1413 H 0.79090 0.91585 0.42087
 H1414 H 0.81191 0.90029 0.45184
 H1415 H 0.75938 0.85582 0.46717
 H1416 H 0.73851 0.87067 0.43603
 C1417 C 0.31293 0.94516 0.61294
 C1418 C 0.30184 0.92934 0.60056
 C1419 C 0.28101 0.92235 0.60690
 C1420 C 0.27168 0.93118 0.62641
 C1421 C 0.28285 0.94706 0.63888
 C1422 C 0.30353 0.95434 0.63216
 C1423 C 0.26995 0.90589 0.59257
 C1424 C 0.24848 0.90211 0.59253
 C1425 C 0.23796 0.88749 0.57590
 C1426 C 0.21638 0.89164 0.56967
 C1427 C 0.20670 0.87969 0.55240
 C1428 C 0.21841 0.86325 0.54127
 C1429 C 0.23954 0.85826 0.54818
 C1430 C 0.24918 0.87008 0.56550
 H1431 H 0.32887 0.95028 0.60732
 H1432 H 0.30951 0.92274 0.58573
 H1433 H 0.25591 0.92584 0.63223
 H1434 H 0.27524 0.95370 0.65371
 H1435 H 0.27998 0.89781 0.58022
 H1436 H 0.23799 0.91149 0.60343
 H1437 H 0.20729 0.90477 0.57755
 H1438 H 0.19039 0.88379 0.54716
 H1439 H 0.24874 0.84553 0.53978
 H1440 H 0.26549 0.86572 0.57041
 C1441 C 0.25919 0.04516 0.34694
 C1442 C 0.24571 0.05894 0.35952
 C1443 C 0.25409 0.07108 0.37745
 C1444 C 0.27626 0.06915 0.38259
 C1445 C 0.28965 0.05520 0.37022
 C1446 C 0.28124 0.04290 0.35238
 C1447 C 0.23915 0.08400 0.39173
 C1448 C 0.24559 0.10174 0.40328
 C1449 C 0.23197 0.11282 0.42030
 C1450 C 0.23689 0.13463 0.42628
 C1451 C 0.22629 0.14468 0.44422
 C1452 C 0.21072 0.13299 0.45659
 C1453 C 0.20538 0.11139 0.45041
 C1454 C 0.21583 0.10138 0.43237
 H1455 H 0.25221 0.03577 0.33338
 H1456 H 0.22863 0.05994 0.35541
 H1457 H 0.28318 0.07772 0.39670
 H1458 H 0.30655 0.05378 0.37487
 H1459 H 0.22243 0.07859 0.39275
 H1460 H 0.26170 0.10835 0.40047
 H1461 H 0.24942 0.14369 0.41745
 H1462 H 0.23085 0.16124 0.44904
 H1463 H 0.19366 0.10203 0.46007
 H1464 H 0.21204 0.08436 0.42873
 C1465 C 0.73038 0.05944 0.66002
 C1466 C 0.74228 0.07387 0.64639
 C1467 C 0.73865 0.07445 0.62330
 C1468 C 0.72205 0.06140 0.61423
 C1469 C 0.70995 0.04729 0.62784
 C1470 C 0.71428 0.04579 0.65080
 C1471 C 0.75248 0.08828 0.60870
 C1472 C 0.75969 0.08058 0.58912
 C1473 C 0.77293 0.09345 0.57312
 C1474 C 0.78609 0.08191 0.55805
 C1475 C 0.79677 0.09298 0.54080
 C1476 C 0.79433 0.11582 0.53813
 C1477 C 0.78164 0.12757 0.55351
 C1478 C 0.77111 0.11649 0.57101
 H1479 H 0.73396 0.05873 0.67769
 H1480 H 0.75487 0.08398 0.65373
 H1481 H 0.71856 0.06196 0.59653
 H1482 H 0.69762 0.03707 0.62022
 H1483 H 0.75766 0.10428 0.61464
 H1484 H 0.75607 0.06366 0.58467
 H1485 H 0.78762 0.06415 0.55925
 H1486 H 0.80631 0.08360 0.52897
 H1487 H 0.77919 0.14513 0.55141
 H1488 H 0.76067 0.12579 0.58205
 C1489 C 0.94093 0.65623 0.27310
 C1490 C 0.92621 0.64357 0.26077
 C1491 C 0.92241 0.62144 0.26645
 C1492 C 0.93261 0.61252 0.28537
 C1493 C 0.94698 0.62522 0.29787
 C1494 C 0.95164 0.64708 0.29164
 C1495 C 0.90814 0.60763 0.25241
 C1496 C 0.91347 0.58677 0.24764
 C1497 C 0.90002 0.57174 0.23409
 C1498 C 0.91042 0.55467 0.22256
 C1499 C 0.89837 0.53858 0.21156
 C1500 C 0.87562 0.53905 0.21209
 C1501 C 0.86508 0.55630 0.22330
 C1502 C 0.87719 0.57267 0.23409
 H1503 H 0.94410 0.67308 0.26800
 H1504 H 0.91835 0.65081 0.24637
 H1505 H 0.92954 0.59565 0.29045
 H1506 H 0.95489 0.61769 0.31209
 H1507 H 0.89390 0.61506 0.24496
 H1508 H 0.92894 0.58047 0.25339
 H1509 H 0.92796 0.55351 0.22247
 H1510 H 0.90680 0.52529 0.20319
 H1511 H 0.84754 0.55666 0.22432
 H1512 H 0.86871 0.58534 0.24329
 C1513 C 0.93842 0.34604 0.72559
 C1514 C 0.92455 0.35944 0.73818
 C1515 C 0.92466 0.38239 0.73518
 C1516 C 0.93807 0.39163 0.71859
 C1517 C 0.95162 0.37825 0.70577
 C1518 C 0.95222 0.35535 0.70937
 C1519 C 0.91070 0.39648 0.74933
 C1520 C 0.91752 0.41615 0.75665
 C1521 C 0.90413 0.43129 0.77025
 C1522 C 0.91469 0.44660 0.78398
 C1523 C 0.90289 0.46269 0.79535
 C1524 C 0.88028 0.46397 0.79304
 C1525 C 0.86960 0.44849 0.77956
 C1526 C 0.88139 0.43217 0.76838
 H1527 H 0.93844 0.32843 0.72864
 H1528 H 0.91417 0.35196 0.75070
 H1529 H 0.93806 0.40922 0.71548
 H1530 H 0.96202 0.38593 0.69339
 H1531 H 0.89513 0.39004 0.75467
 H1532 H 0.93401 0.42128 0.75302
 H1533 H 0.93219 0.44638 0.78555
 H1534 H 0.91149 0.47461 0.80544
 H1535 H 0.85223 0.44955 0.77707
 H1536 H 0.87280 0.42100 0.75746
 C1537 C 0.02933 0.60996 0.69975
 C1538 C 0.04091 0.59452 0.71226
 C1539 C 0.05430 0.60129 0.72984
 C1540 C 0.05580 0.62388 0.73483
 C1541 C 0.04392 0.63934 0.72252
 C1542 C 0.03053 0.63251 0.70489
 C1543 C 0.06548 0.58427 0.74325
 C1544 C 0.08461 0.58758 0.75327
 C1545 C 0.09568 0.56982 0.76577
 C1546 C 0.11834 0.56807 0.76462
 C1547 C 0.12903 0.55067 0.77528
 C1548 C 0.11726 0.53515 0.78789
 C1549 C 0.09465 0.53728 0.78958
 C1550 C 0.08394 0.55445 0.77864
 H1551 H 0.01901 0.60416 0.68640
 H1552 H 0.03938 0.57720 0.70821
 H1553 H 0.06561 0.62957 0.74862
 H1554 H 0.04508 0.65660 0.72692
 H1555 H 0.05823 0.56799 0.74377
 H1556 H 0.09313 0.60304 0.75089
 H1557 H 0.12770 0.57976 0.75484
 H1558 H 0.14643 0.54907 0.77341
 H1559 H 0.08527 0.52544 0.79916
 H1560 H 0.06648 0.55569 0.78026
 C1561 C 0.05445 0.37342 0.29704
 C1562 C 0.06877 0.38664 0.28487
 C1563 C 0.07086 0.38408 0.26173
 C1564 C 0.05912 0.36723 0.25107
 C1565 C 0.04498 0.35372 0.26335
 C1566 C 0.04220 0.35701 0.28638
 C1567 C 0.08516 0.39956 0.24945
 C1568 C 0.08129 0.40614 0.22845
 C1569 C 0.09352 0.42439 0.21773
 C1570 C 0.08289 0.43782 0.20208
 C1571 C 0.09333 0.45623 0.19294
 C1572 C 0.11472 0.46126 0.19898
 C1573 C 0.12566 0.44749 0.21405
 C1574 C 0.11521 0.42913 0.22327
 H1575 H 0.05282 0.37619 0.31481
 H1576 H 0.07778 0.39936 0.29349
 H1577 H 0.06082 0.36446 0.23332
 H1578 H 0.03580 0.34112 0.25475
 H1579 H 0.09779 0.40763 0.25895
 H1580 H 0.06728 0.39974 0.21972
 H1581 H 0.06623 0.43445 0.19746
 H1582 H 0.08465 0.46675 0.18138
 H1583 H 0.14218 0.45120 0.21892
 H1584 H 0.12412 0.41878 0.23478
   
