data_POSCAR
  _audit_creation_date              2014-09-24
  _audit_creation_method            'ToBaCCo'
  _symmetry_space_group_name_H-M    'P1'
  _symmetry_Int_Tables_number       1
  _symmetry_cell_setting            triclinic
  loop_
  _symmetry_equiv_pos_as_xyz
 x,y,z
_cell_length_a 54.0979
_cell_length_b 54.7297
_cell_length_c 55.1327
_cell_angle_alpha 89.945400
_cell_angle_beta 90.032200
_cell_angle_gamma 89.992700
loop_
  _atom_site_label
  _atom_site_type_symbol
  _atom_site_fract_x
  _atom_site_fract_y
  _atom_site_fract_z
C1 C 0.35889 0.25887 -0.00899
 C2 C 0.35917 0.25881 0.01588
 C3 C 0.35329 0.28233 0.02304
 N4 N 0.34956 0.29682 0.00352
 C5 C 0.35345 0.28262 -0.01611
 C6 C 0.35454 0.29106 0.04704
 C7 C 0.34129 0.31207 0.05420
 C8 C 0.34416 0.32456 0.07589
 C9 C 0.32627 0.34248 0.07630
 C10 C 0.31342 0.34076 0.05458
 N11 N 0.32254 0.32206 0.04139
 C12 C 0.29263 0.35480 0.04791
 C13 C 0.28429 0.35616 0.02366
 C14 C 0.26179 0.36572 0.01630
 C15 C 0.26212 0.36599 -0.00854
 C16 C 0.28519 0.35747 -0.01561
 N17 N 0.29856 0.35106 0.00413
 C18 C 0.29460 0.35787 -0.03965
 C19 C 0.31519 0.34317 -0.04611
 C20 C 0.33103 0.34758 -0.06541
 C21 C 0.34809 0.32895 -0.06559
 C22 C 0.34222 0.31356 -0.04642
 N23 N 0.32234 0.32257 -0.03444
 C24 C 0.35505 0.29185 -0.04007
 H25 H 0.36306 0.24343 -0.02054
 H26 H 0.36363 0.24341 0.02741
 H27 H 0.31300 0.31410 -0.02017
 H28 H 0.35747 0.32102 0.09011
 H29 H 0.32311 0.35513 0.09102
 H30 H 0.24673 0.37212 0.02749
 H31 H 0.24725 0.37236 -0.02007
 H32 H 0.36344 0.32734 -0.07806
 H33 H 0.31469 0.31494 0.02565
 H34 H 0.33074 0.36295 -0.07777
 C35 C 0.60689 0.71412 0.01317
 C36 C 0.60697 0.71366 -0.01170
 C37 C 0.62916 0.70309 -0.01860
 N38 N 0.64262 0.69705 0.00117
 C39 C 0.62904 0.70381 0.02062
 C40 C 0.63770 0.70124 -0.04272
 C41 C 0.65846 0.68707 -0.04923
 C42 C 0.67139 0.68942 -0.07079
 C43 C 0.68947 0.67177 -0.07059
 C44 C 0.68686 0.65884 -0.04905
 N45 N 0.66797 0.66842 -0.03607
 C46 C 0.70141 0.63845 -0.04199
 C47 C 0.70229 0.63049 -0.01750
 C48 C 0.71051 0.60773 -0.00982
 C49 C 0.71022 0.60806 0.01501
 C50 C 0.70148 0.63085 0.02172
 N51 N 0.69652 0.64455 0.00186
 C52 C 0.70008 0.63933 0.04584
 C53 C 0.68606 0.66000 0.05247
 C54 C 0.68763 0.67203 0.07453
 C55 C 0.66978 0.68997 0.07426
 C56 C 0.65783 0.68831 0.05205
 N57 N 0.66784 0.66996 0.03893
 C58 C 0.63728 0.70253 0.04491
 H59 H 0.59231 0.72143 0.02446
 H60 H 0.59248 0.72059 -0.02337
 H61 H 0.66088 0.66285 0.02282
 H62 H 0.66825 0.70262 -0.08510
 H63 H 0.70308 0.66893 -0.08468
 H64 H 0.71618 0.59245 -0.02095
 H65 H 0.71579 0.59322 0.02680
 H66 H 0.66593 0.70265 0.08882
 H67 H 0.66044 0.66115 -0.02025
 H68 H 0.70018 0.66817 0.08934
 C69 C 0.71312 0.39195 1.00842
 C70 C 0.71253 0.39188 0.98360
 C71 C 0.70372 0.36916 0.97675
 N72 N 0.69904 0.35524 0.99651
 C73 C 0.70504 0.36909 1.01595
 C74 C 0.70194 0.36097 0.95256
 C75 C 0.68759 0.34056 0.94585
 C76 C 0.68861 0.32887 0.92358
 C77 C 0.67051 0.31118 0.92384
 C78 C 0.65900 0.31263 0.94627
 N79 N 0.66948 0.33062 0.95952
 C80 C 0.63844 0.29853 0.95354
 C81 C 0.63070 0.29683 0.97794
 C82 C 0.60865 0.28650 0.98561
 C83 C 0.60924 0.28647 1.01048
 C84 C 0.63165 0.29676 1.01715
 N85 N 0.64473 0.30311 0.99726
 C86 C 0.64068 0.29814 1.04114
 C87 C 0.66165 0.31211 1.04749
 C88 C 0.67493 0.30945 1.06882
 C89 C 0.69300 0.32711 1.06862
 C90 C 0.69006 0.34032 1.04729
 N91 N 0.67097 0.33093 1.03444
 C92 C 0.70442 0.36088 1.04036
 H93 H 0.71886 0.40714 1.01964
 H94 H 0.71791 0.40685 0.97190
 H95 H 0.66317 0.33847 1.01887
 H96 H 0.70094 0.33281 0.90862
 H97 H 0.66621 0.29880 0.90914
 H98 H 0.59379 0.27950 0.97445
 H99 H 0.59494 0.27941 1.02228
 H100 H 0.70681 0.32979 1.08257
 H101 H 0.66289 0.33754 0.97586
 H102 H 0.67200 0.29607 1.08301
 C103 C 0.27248 0.61956 1.01261
 C104 C 0.27301 0.61930 0.98780
 C105 C 0.29263 0.63395 0.98082
 N106 N 0.30423 0.64300 1.00067
 C107 C 0.29175 0.63451 1.02024
 C108 C 0.30083 0.63677 0.95658
 C109 C 0.32054 0.65230 0.94990
 C110 C 0.33312 0.65151 0.92797
 C111 C 0.34994 0.67037 0.92825
 C112 C 0.34672 0.68253 0.95005
 N113 N 0.32881 0.67138 0.96312
 C114 C 0.35889 0.70426 0.95698
 C115 C 0.35760 0.71311 0.98093
 C116 C 0.36277 0.73687 0.98783
 C117 C 0.36246 0.73710 1.01268
 C118 C 0.35754 0.71334 1.02008
 N119 N 0.35423 0.69875 1.00062
 C120 C 0.35869 0.70482 1.04433
 C121 C 0.34595 0.68318 1.05136
 C122 C 0.34951 0.67045 1.07283
 C123 C 0.33251 0.65182 1.07320
 C124 C 0.31967 0.65274 1.05137
 N125 N 0.32789 0.67209 1.03831
 C126 C 0.29945 0.63749 1.04475
 H127 H 0.25994 0.60888 1.02360
 H128 H 0.26085 0.60869 0.97633
 H129 H 0.31981 0.67889 1.02254
 H130 H 0.33053 0.63880 0.91319
 H131 H 0.36276 0.67473 0.91384
 H132 H 0.36669 0.75230 0.97615
 H133 H 0.36606 0.75282 1.02405
 H134 H 0.33015 0.63926 1.08812
 H135 H 0.32077 0.67805 0.97893
 H136 H 0.36284 0.67407 1.08699
 C137 C -0.01264 0.26952 0.37700
 C138 C 0.01263 0.27005 0.37759
 C139 C 0.01994 0.28941 0.36308
 N140 N -0.00017 0.30084 0.35377
 C141 C -0.02023 0.28853 0.36199
 C142 C 0.04469 0.29756 0.36069
 C143 C 0.05178 0.31708 0.34541
 C144 C 0.07410 0.32953 0.34662
 C145 C 0.07405 0.34634 0.32804
 C146 C 0.05200 0.34325 0.31562
 N147 N 0.03858 0.32538 0.32632
 C148 C 0.04512 0.35562 0.29417
 C149 C 0.02087 0.35418 0.28496
 C150 C 0.01417 0.35957 0.26132
 C151 C -0.01114 0.35918 0.26070
 C152 C -0.01900 0.35400 0.28412
 N153 N 0.00063 0.35061 0.29886
 C154 C -0.04379 0.35519 0.29227
 C155 C -0.05130 0.34238 0.31351
 C156 C -0.07332 0.34586 0.32590
 C157 C -0.07396 0.32892 0.34427
 C158 C -0.05174 0.31619 0.34357
 N159 N -0.03820 0.32439 0.32456
 C160 C -0.04517 0.29620 0.35880
 H161 H -0.02395 0.25717 0.38753
 H162 H 0.02415 0.25808 0.38838
 H163 H -0.02206 0.31644 0.31798
 H164 H 0.08898 0.32690 0.35945
 H165 H 0.08876 0.35911 0.32405
 H166 H 0.02629 0.36376 0.24626
 H167 H -0.02253 0.36298 0.24499
 H168 H -0.08932 0.32656 0.35654
 H169 H 0.02254 0.31750 0.31945
 H170 H -0.08765 0.35913 0.32224
 C171 C -0.00786 0.60477 0.70899
 C172 C 0.01745 0.60465 0.70842
 C173 C 0.02459 0.62703 0.69903
 N174 N 0.00454 0.64092 0.69395
 C175 C -0.01537 0.62741 0.70029
 C176 C 0.04932 0.63503 0.69713
 C177 C 0.05626 0.65510 0.68260
 C178 C 0.07890 0.66692 0.68357
 C179 C 0.07865 0.68435 0.66553
 C180 C 0.05588 0.68260 0.65409
 N181 N 0.04241 0.66467 0.66454
 C182 C 0.04847 0.69645 0.63374
 C183 C 0.02367 0.69767 0.62582
 C184 C 0.01600 0.70752 0.60391
 C185 C -0.00934 0.70758 0.60432
 C186 C -0.01627 0.69781 0.62650
 N187 N 0.00392 0.69169 0.63960
 C188 C -0.04072 0.69696 0.63538
 C189 C -0.04736 0.68340 0.65618
 C190 C -0.06903 0.68654 0.66919
 C191 C -0.06888 0.66934 0.68738
 C192 C -0.04725 0.65591 0.68481
 N193 N -0.03418 0.66471 0.66578
 C194 C -0.04020 0.63579 0.69953
 H195 H -0.01940 0.58987 0.71517
 H196 H 0.02926 0.58980 0.71425
 H197 H -0.01835 0.65691 0.65835
 H198 H 0.09405 0.66330 0.69588
 H199 H 0.09359 0.69679 0.66127
 H200 H 0.02747 0.71428 0.58929
 H201 H -0.02128 0.71442 0.59009
 H202 H -0.08304 0.66715 0.70107
 H203 H 0.02579 0.65761 0.65812
 H204 H -0.08336 0.69998 0.66604
 C205 C 0.98531 0.70544 0.39654
 C206 C 1.01062 0.70528 0.39674
 C207 C 1.01813 0.69712 0.37408
 N208 N 0.99823 0.69179 0.36022
 C209 C 0.97818 0.69702 0.37393
 C210 C 1.04293 0.69650 0.36581
 C211 C 1.04997 0.68209 0.34557
 C212 C 1.07134 0.68538 0.33205
 C213 C 1.07139 0.66769 0.31439
 C214 C 1.05002 0.65403 0.31749
 N215 N 1.03698 0.66302 0.33646
 C216 C 1.04303 0.63379 0.30295
 C217 C 1.01815 0.62568 0.30192
 C218 C 1.01052 0.60309 0.29325
 C219 C 0.98521 0.60346 0.29298
 C220 C 0.97819 0.62607 0.30186
 N221 N 0.99832 0.63963 0.30746
 C222 C 0.95359 0.63462 0.30274
 C223 C 0.94657 0.65500 0.31673
 C224 C 0.92416 0.66718 0.31499
 C225 C 0.92413 0.68474 0.33287
 C226 C 0.94653 0.68271 0.34495
 N227 N 0.96003 0.66452 0.33505
 C228 C 0.95356 0.69631 0.36551
 H229 H 0.97348 0.71121 0.41130
 H230 H 1.02219 0.71082 0.41178
 H231 H 0.97632 0.65726 0.34208
 H232 H 1.08525 0.69941 0.33429
 H233 H 1.08533 0.66554 0.30048
 H234 H 1.02200 0.58799 0.28748
 H235 H 0.97331 0.58880 0.28687
 H236 H 0.90926 0.69740 0.33667
 H237 H 1.02108 0.65536 0.34396
 H238 H 0.90930 0.66365 0.30232
 C239 C 1.01151 0.39427 0.71208
 C240 C 0.98621 0.39425 0.71148
 C241 C 0.97918 0.37183 0.70213
 N242 N 0.99929 0.35804 0.69713
 C243 C 1.01914 0.37166 0.70347
 C244 C 0.95449 0.36373 0.70016
 C245 C 0.94760 0.34384 0.68540
 C246 C 0.92497 0.33198 0.68616
 C247 C 0.92519 0.31495 0.66778
 C248 C 0.94794 0.31697 0.65635
 N249 N 0.96143 0.33466 0.66717
 C250 C 0.95531 0.30362 0.63568
 C251 C 0.98015 0.30255 0.62787
 C252 C 0.98793 0.29322 0.60580
 C253 C 1.01327 0.29318 0.60636
 C254 C 1.02009 0.30247 0.62877
 N255 N 0.99984 0.30825 0.64187
 C256 C 1.04451 0.30315 0.63778
 C257 C 1.05112 0.31635 0.65881
 C258 C 1.07280 0.31304 0.67178
 C259 C 1.07266 0.32999 0.69019
 C260 C 1.05103 0.34344 0.68776
 N261 N 1.03794 0.33488 0.66863
 C262 C 1.04400 0.36343 0.70264
 H263 H 1.02297 0.40926 0.71819
 H264 H 0.97432 0.40908 0.71720
 H265 H 1.02211 0.34278 0.66126
 H266 H 0.90983 0.33536 0.69852
 H267 H 0.91025 0.30261 0.66327
 H268 H 0.97654 0.28681 0.59097
 H269 H 1.02528 0.28668 0.59206
 H270 H 1.08684 0.33202 0.70388
 H271 H 0.97800 0.34192 0.66087
 H272 H 1.08715 0.29968 0.66845
 C273 C 0.28785 -0.00789 0.39076
 C274 C 0.28812 0.01712 0.39056
 C275 C 0.29671 0.02406 0.36793
 N276 N 0.30159 0.00416 0.35419
 C277 C 0.29593 -0.01546 0.36807
 C278 C 0.29818 0.04844 0.35969
 C279 C 0.31222 0.05523 0.33922
 C280 C 0.31080 0.07757 0.32743
 C281 C 0.32871 0.07738 0.30969
 C282 C 0.34052 0.05494 0.31121
 N283 N 0.33039 0.04159 0.32927
 C284 C 0.36110 0.04780 0.29715
 C285 C 0.36928 0.02332 0.29576
 C286 C 0.39150 0.01588 0.28567
 C287 C 0.39133 -0.00917 0.28588
 C288 C 0.36901 -0.01617 0.29607
 N289 N 0.35556 0.00370 0.30215
 C290 C 0.36036 -0.04045 0.29761
 C291 C 0.33958 -0.04707 0.31163
 C292 C 0.32661 -0.06876 0.30922
 C293 C 0.30859 -0.06866 0.32679
 C294 C 0.31125 -0.04704 0.33970
 N295 N 0.33013 -0.03392 0.33021
 C296 C 0.29684 -0.04008 0.36006
 H297 H 0.28233 -0.01922 0.40591
 H298 H 0.28268 0.02887 0.40541
 H299 H 0.33770 -0.01806 0.33753
 H300 H 0.29833 0.09252 0.33134
 H301 H 0.33271 0.09217 0.29724
 H302 H 0.40619 0.02729 0.27868
 H303 H 0.40585 -0.02089 0.27903
 H304 H 0.29499 -0.08288 0.32961
 H305 H 0.33727 0.02528 0.33623
 H306 H 0.32971 -0.08310 0.29605
 C307 C 0.70886 0.01587 0.60540
 C308 C 0.70909 -0.00915 0.60497
 C309 C 0.70020 -0.01696 0.62729
 N310 N 0.69407 0.00251 0.64115
 C311 C 0.69948 0.02257 0.62778
 C312 C 0.69901 -0.04168 0.63505
 C313 C 0.68390 -0.04881 0.65489
 C314 C 0.68627 -0.07045 0.66787
 C315 C 0.66771 -0.07067 0.68490
 C316 C 0.65470 -0.04905 0.68210
 N317 N 0.66465 -0.03582 0.66379
 C318 C 0.63358 -0.04247 0.69567
 C319 C 0.62471 -0.01825 0.69683
 C320 C 0.60218 -0.01137 0.70666
 C321 C 0.60194 0.01368 0.70699
 C322 C 0.62433 0.02124 0.69734
 N323 N 0.63819 0.00170 0.69108
 C324 C 0.63260 0.04570 0.69654
 C325 C 0.65360 0.05299 0.68316
 C326 C 0.66552 0.07530 0.68542
 C327 C 0.68410 0.07561 0.66835
 C328 C 0.68296 0.05346 0.65621
 N329 N 0.66430 0.03984 0.66528
 C330 C 0.69776 0.04686 0.63621
 H331 H 0.71485 0.02778 0.59087
 H332 H 0.71514 -0.02031 0.58991
 H333 H 0.65762 0.02365 0.65788
 H334 H 0.70006 -0.08457 0.66551
 H335 H 0.66433 -0.08503 0.69800
 H336 H 0.58763 -0.02318 0.71330
 H337 H 0.58715 0.02502 0.71390
 H338 H 0.69685 0.09049 0.66514
 H339 H 0.65728 -0.01993 0.65630
 H340 H 0.66121 0.08990 0.69795
 C341 C 0.38808 0.98547 0.71576
 C342 C 0.38832 1.01047 0.71597
 C343 C 0.36563 1.01809 0.70692
 N344 N 0.35173 0.99851 0.70074
 C345 C 0.36543 0.97858 0.70626
 C346 C 0.35760 1.04273 0.70549
 C347 C 0.33777 1.04967 0.69009
 C348 C 0.32442 1.07127 0.69184
 C349 C 0.30772 1.07137 0.67302
 C350 C 0.31108 1.04969 0.66048
 N351 N 0.32938 1.03656 0.67098
 C352 C 0.29819 1.04306 0.63921
 C353 C 0.29732 1.01881 0.63058
 C354 C 0.28832 1.01184 0.60808
 C355 C 0.28815 0.98679 0.60789
 C356 C 0.29707 0.97932 0.63027
 N357 N 0.30270 0.99892 0.64410
 C358 C 0.29788 0.95486 0.63841
 C359 C 0.31072 0.94772 0.65955
 C360 C 0.30828 0.92532 0.67111
 C361 C 0.32501 0.92518 0.68995
 C362 C 0.33714 0.94748 0.68931
 N363 N 0.32837 0.96106 0.67074
 C364 C 0.35708 0.95422 0.70438
 H365 H 0.40294 0.97368 0.72179
 H366 H 0.40353 1.02176 0.72206
 H367 H 0.33599 0.97733 0.66444
 H368 H 0.32639 1.08549 0.70534
 H369 H 0.29451 1.08569 0.66912
 H370 H 0.28218 1.02358 0.59346
 H371 H 0.28188 0.97539 0.59308
 H372 H 0.32807 0.91026 0.70250
 H373 H 0.33736 1.02071 0.66406
 H374 H 0.29590 0.91056 0.66634
 C375 C 0.64152 1.01185 0.26290
 C376 C 0.64136 0.98679 0.26276
 C377 C 0.64659 0.97948 0.28624
 N378 N 0.64984 0.99909 0.30078
 C379 C 0.64629 1.01892 0.28663
 C380 C 0.64518 0.95526 0.29481
 C381 C 0.65785 0.94801 0.31603
 C382 C 0.65479 0.92606 0.32825
 C383 C 0.67216 0.92565 0.34654
 C384 C 0.68488 0.94763 0.34530
 N385 N 0.67619 0.96098 0.32656
 C386 C 0.70531 0.95433 0.35976
 C387 C 0.71351 0.97878 0.36148
 C388 C 0.73575 0.98616 0.37154
 C389 C 0.73545 1.01119 0.37177
 C390 C 0.71263 1.01836 0.36270
 N391 N 0.69939 0.99850 0.35603
 C392 C 0.70335 1.04266 0.36260
 C393 C 0.68309 1.04916 0.34754
 C394 C 0.66725 1.06871 0.35144
 C395 C 0.65058 1.06885 0.33260
 C396 C 0.65671 1.04944 0.31758
 N397 N 0.67635 1.03733 0.32702
 C398 C 0.64433 1.04301 0.29578
 H399 H 0.63772 1.02355 0.24750
 H400 H 0.63738 0.97524 0.24732
 H401 H 0.68583 1.02289 0.31891
 H402 H 0.64172 0.91165 0.32427
 H403 H 0.67509 0.91075 0.35910
 H404 H 0.75065 0.97486 0.37825
 H405 H 0.75021 1.02275 0.37837
 H406 H 0.63533 1.08148 0.33060
 H407 H 0.68415 0.97691 0.31978
 H408 H 0.66730 1.08125 0.36660
 O409 O 0.85090 0.81595 0.47873
 O410 O 0.81811 0.85122 0.52518
 O411 O 0.85169 0.81699 0.52574
 O412 O 0.81750 0.84969 0.47805
 O413 O 0.78759 0.82229 0.48019
 O414 O 0.82291 0.78845 0.52656
 O415 O 0.78914 0.82294 0.52712
 O416 O 0.82159 0.78793 0.47947
 Cu417 Cu 0.83746 0.83628 0.50189
 Cu418 Cu 0.80237 0.80255 0.50347
 C419 C 0.84196 0.79593 0.47113
 C420 C 0.79793 0.84334 0.53397
 C421 C 0.84345 0.79689 0.53397
 C422 C 0.79658 0.84174 0.47124
 O423 O 0.18272 0.15067 0.52470
 O424 O 0.15018 0.18567 0.47768
 O425 O 0.18323 0.15161 0.47762
 O426 O 0.14952 0.18500 0.52485
 O427 O 0.17902 0.21281 0.52611
 O428 O 0.21263 0.17954 0.47808
 O429 O 0.17901 0.21423 0.47923
 O430 O 0.21253 0.17817 0.52530
 Cu431 Cu 0.16348 0.16545 0.50118
 Cu432 Cu 0.19882 0.19897 0.50226
 C433 C 0.20331 0.15820 0.53286
 C434 C 0.15885 0.20602 0.47066
 C435 C 0.20367 0.15978 0.46974
 C436 C 0.15832 0.20469 0.53344
 O437 O 0.18147 0.85262 0.47354
 O438 O 0.14976 0.81729 0.52067
 O439 O 0.18252 0.85164 0.52054
 O440 O 0.14846 0.81807 0.47377
 O441 O 0.17791 0.79024 0.47233
 O442 O 0.21237 0.82421 0.51940
 O443 O 0.17912 0.78932 0.51941
 O444 O 0.21123 0.82512 0.47215
 Cu445 Cu 0.16262 0.83767 0.49719
 Cu446 Cu 0.19818 0.80445 0.49567
 C447 C 0.20186 0.84515 0.46491
 C448 C 0.15883 0.79721 0.52801
 C449 C 0.20326 0.84379 0.52799
 C450 C 0.15706 0.79827 0.46525
 O451 O 0.81392 0.15057 0.47795
 O452 O 0.84997 0.18634 0.52156
 O453 O 0.81633 0.15290 0.52428
 O454 O 0.84821 0.18431 0.47427
 O455 O 0.82050 0.21392 0.47543
 O456 O 0.78659 0.18047 0.52306
 O457 O 0.82078 0.21448 0.52236
 O458 O 0.78598 0.17995 0.47585
 Cu459 Cu 0.83510 0.16578 0.49937
 Cu460 Cu 0.80055 0.20010 0.49908
 C461 C 0.79367 0.15889 0.46979
 C462 C 0.84150 0.20636 0.52968
 C463 C 0.79570 0.16094 0.53181
 C464 C 0.84022 0.20481 0.46682
 O465 O 0.47560 0.85104 0.81927
 O466 O 0.52629 0.81916 0.85031
 O467 O 0.52365 0.85229 0.81679
 O468 O 0.47895 0.81755 0.85302
 O469 O 0.47650 0.78961 0.82419
 O470 O 0.52357 0.82336 0.78895
 O471 O 0.52463 0.78967 0.82311
 O472 O 0.47562 0.82311 0.79044
 Cu473 Cu 0.50113 0.83796 0.83757
 Cu474 Cu 0.50005 0.80354 0.80382
 C475 C 0.46722 0.84282 0.79935
 C476 C 0.53372 0.79865 0.84242
 C477 C 0.53136 0.84382 0.79674
 C478 C 0.47028 0.79763 0.84492
 O479 O 0.52974 0.18080 0.14956
 O480 O 0.47811 0.15065 0.18076
 O481 O 0.48225 0.18405 0.14739
 O482 O 0.52553 0.14738 0.18330
 O483 O 0.52838 0.17693 0.21042
 O484 O 0.48057 0.21147 0.17676
 O485 O 0.48028 0.17778 0.21026
 O486 O 0.52878 0.21066 0.17639
 Cu487 Cu 0.50393 0.16286 0.16243
 Cu488 Cu 0.50465 0.19714 0.19630
 C489 C 0.53752 0.20132 0.15711
 C490 C 0.47079 0.15862 0.20115
 C491 C 0.47381 0.20383 0.15604
 C492 C 0.53429 0.15576 0.20296
 O493 O 0.52012 0.14802 0.81770
 O494 O 0.47536 0.18192 0.85445
 O495 O 0.47223 0.14810 0.82098
 O496 O 0.52269 0.18110 0.85097
 O497 O 0.52005 0.21045 0.82362
 O498 O 0.47078 0.17609 0.79221
 O499 O 0.47192 0.20990 0.82573
 O500 O 0.51876 0.17674 0.78963
 Cu501 Cu 0.49766 0.16187 0.83878
 Cu502 Cu 0.49519 0.19618 0.80494
 C503 C 0.52724 0.15655 0.79746
 C504 C 0.46624 0.20177 0.84659
 C505 C 0.46318 0.15609 0.80125
 C506 C 0.52972 0.20162 0.84275
 O507 O 0.47715 0.81920 0.14725
 O508 O 0.52079 0.85487 0.18372
 O509 O 0.52458 0.82152 0.15007
 O510 O 0.47326 0.85280 0.18071
 O511 O 0.47443 0.82550 0.21015
 O512 O 0.52251 0.79155 0.17678
 O513 O 0.52263 0.82501 0.21068
 O514 O 0.47442 0.79167 0.17646
 Cu515 Cu 0.49897 0.83999 0.16264
 Cu516 Cu 0.49843 0.80554 0.19639
 C517 C 0.46835 0.79940 0.15556
 C518 C 0.52928 0.84600 0.20330
 C519 C 0.53178 0.80079 0.15768
 C520 C 0.46558 0.84497 0.20105
 O521 O 0.85300 0.52620 0.81848
 O522 O 0.81850 0.47877 0.85098
 O523 O 0.85185 0.47890 0.81753
 O524 O 0.81935 0.52610 0.85223
 O525 O 0.79006 0.52758 0.82443
 O526 O 0.82297 0.48020 0.78929
 O527 O 0.78910 0.48004 0.82326
 O528 O 0.82403 0.52768 0.79036
 Cu529 Cu 0.83857 0.50245 0.83760
 Cu530 Cu 0.80358 0.50406 0.80401
 C531 C 0.84470 0.53485 0.79871
 C532 C 0.79792 0.47128 0.84280
 C533 C 0.84311 0.47150 0.79747
 C534 C 0.79902 0.53473 0.84453
 O535 O 0.14973 0.52563 0.18289
 O536 O 0.18209 0.47635 0.15082
 O537 O 0.14806 0.47884 0.18427
 O538 O 0.18375 0.52414 0.14976
 O539 O 0.21254 0.52414 0.17819
 O540 O 0.17773 0.47696 0.21179
 O541 O 0.21191 0.47715 0.17822
 O542 O 0.17786 0.52475 0.21184
 Cu543 Cu 0.16311 0.50123 0.16400
 Cu544 Cu 0.19788 0.50077 0.19794
 C545 C 0.15782 0.53321 0.20314
 C546 C 0.20271 0.46870 0.15877
 C547 C 0.15670 0.47033 0.20394
 C548 C 0.20423 0.53182 0.15802
 O549 O 0.81782 0.52264 0.14770
 O550 O 0.85355 0.47678 0.18112
 O551 O 0.82017 0.47521 0.14672
 O552 O 0.85089 0.52361 0.18141
 O553 O 0.82224 0.52092 0.20976
 O554 O 0.79020 0.47365 0.17376
 O555 O 0.82356 0.47332 0.20810
 O556 O 0.78849 0.52117 0.17544
 Cu557 Cu 0.83847 0.49963 0.16139
 Cu558 Cu 0.80312 0.49706 0.19454
 C559 C 0.79717 0.52995 0.15586
 C560 C 0.84488 0.46746 0.20040
 C561 C 0.79976 0.46640 0.15399
 C562 C 0.84212 0.53030 0.20169
 O563 O 0.18663 0.52428 0.84928
 O564 O 0.15196 0.47501 0.81944
 O565 O 0.18647 0.47748 0.85299
 O566 O 0.15301 0.52239 0.81626
 O567 O 0.18210 0.52066 0.78829
 O568 O 0.21429 0.47297 0.82400
 O569 O 0.18000 0.47317 0.79049
 O570 O 0.21651 0.52022 0.82227
 Cu571 Cu 0.16655 0.49986 0.83725
 Cu572 Cu 0.20109 0.49651 0.80334
 C573 C 0.20777 0.53019 0.84123
 C574 C 0.15966 0.46605 0.79957
 C575 C 0.20621 0.46786 0.84503
 C576 C 0.16187 0.52946 0.79614
 C577 C 0.25560 0.40087 0.09895
 C578 C 0.27985 0.40651 0.09180
 C579 C 0.29193 0.39121 0.07525
 C580 C 0.28019 0.37005 0.06650
 C581 C 0.25623 0.36415 0.07449
 C582 C 0.24360 0.37983 0.09034
 C583 C 0.24229 0.41766 0.11526
 C584 C 0.21751 0.41284 0.12121
 C585 C 0.20455 0.42956 0.13570
 C586 C 0.21653 0.45045 0.14476
 C587 C 0.24155 0.45464 0.13930
 C588 C 0.25441 0.43853 0.12411
 C589 C 0.21905 0.37524 0.09728
 C590 C 0.20614 0.39158 0.11228
 C591 C 0.29137 0.42755 0.10104
 C592 C 0.27893 0.44317 0.11710
 H593 H 0.20958 0.35910 0.09071
 H594 H 0.18709 0.38759 0.11685
 H595 H 0.31012 0.43201 0.09574
 H596 H 0.28844 0.45925 0.12375
 H597 H 0.31036 0.39576 0.06897
 H598 H 0.24722 0.34785 0.06767
 H599 H 0.18526 0.42639 0.13999
 H600 H 0.25062 0.47094 0.14605
 C601 C 0.74212 0.59755 0.09689
 C602 C 0.71650 0.59999 0.10031
 C603 C 0.70282 0.61447 0.08410
 C604 C 0.71469 0.62627 0.06463
 C605 C 0.74046 0.62426 0.06195
 C606 C 0.75425 0.60974 0.07789
 C607 C 0.75639 0.58127 0.11298
 C608 C 0.78181 0.57815 0.10891
 C609 C 0.79508 0.56178 0.12345
 C610 C 0.78317 0.54852 0.14199
 C611 C 0.75778 0.55235 0.14629
 C612 C 0.74424 0.56859 0.13165
 C613 C 0.77981 0.60661 0.07478
 C614 C 0.79336 0.59104 0.09002
 C615 C 0.70505 0.58734 0.11945
 C616 C 0.71868 0.57195 0.13488
 H617 H 0.78936 0.61596 0.06020
 H618 H 0.81299 0.58883 0.08677
 H619 H 0.68532 0.58911 0.12234
 H620 H 0.70907 0.56231 0.14923
 H621 H 0.68294 0.61597 0.08607
 H622 H 0.74955 0.63340 0.04694
 H623 H 0.81464 0.55910 0.12009
 H624 H 0.74844 0.54217 0.16045
 C625 C 0.74351 0.40309 0.90151
 C626 C 0.71786 0.40072 0.89828
 C627 C 0.70432 0.38614 0.91450
 C628 C 0.71638 0.37415 0.93375
 C629 C 0.74218 0.37608 0.93623
 C630 C 0.75583 0.39072 0.92030
 C631 C 0.75764 0.41949 0.88545
 C632 C 0.78309 0.42258 0.88935
 C633 C 0.79622 0.43910 0.87487
 C634 C 0.78412 0.45252 0.85656
 C635 C 0.75870 0.44871 0.85241
 C636 C 0.74530 0.43235 0.86699
 C637 C 0.78142 0.39380 0.92322
 C638 C 0.79483 0.40950 0.90803
 C639 C 0.70622 0.41353 0.87935
 C640 C 0.71972 0.42904 0.86394
 H641 H 0.79110 0.38431 0.93764
 H642 H 0.81448 0.41168 0.91114
 H643 H 0.68647 0.41181 0.87662
 H644 H 0.70998 0.43881 0.84976
 H645 H 0.68442 0.38470 0.91269
 H646 H 0.75141 0.36680 0.95108
 H647 H 0.81580 0.44177 0.87811
 H648 H 0.74922 0.45903 0.83843
 C649 C 0.26296 0.59425 0.90307
 C650 C 0.25113 0.61449 0.91356
 C651 C 0.26402 0.62880 0.93040
 C652 C 0.28822 0.62248 0.93733
 C653 C 0.29981 0.60208 0.92679
 C654 C 0.28735 0.58806 0.90934
 C655 C 0.24929 0.57882 0.88574
 C656 C 0.26111 0.55858 0.87520
 C657 C 0.24775 0.54350 0.85934
 C658 C 0.22257 0.54807 0.85484
 C659 C 0.21104 0.56849 0.86538
 C660 C 0.22442 0.58413 0.88064
 C661 C 0.29860 0.56777 0.89832
 C662 C 0.28576 0.55338 0.88140
 C663 C 0.22647 0.61967 0.90742
 C664 C 0.21328 0.60463 0.89138
 H665 H 0.31744 0.56288 0.90291
 H666 H 0.29506 0.53779 0.87346
 H667 H 0.21715 0.63522 0.91543
 H668 H 0.19414 0.60898 0.88749
 H669 H 0.25510 0.64443 0.93872
 H670 H 0.31839 0.59715 0.93232
 H671 H 0.25650 0.52751 0.85153
 H672 H 0.19162 0.57197 0.86193
 C673 C 0.09766 0.26021 0.40491
 C674 C 0.09145 0.28450 0.41046
 C675 C 0.07428 0.29683 0.39581
 C676 C 0.06401 0.28521 0.37541
 C677 C 0.07099 0.26114 0.36967
 C678 C 0.08747 0.24837 0.38464
 C679 C 0.11459 0.24669 0.42102
 C680 C 0.11954 0.22194 0.41632
 C681 C 0.13447 0.20877 0.43249
 C682 C 0.14491 0.22040 0.45278
 C683 C 0.14053 0.24539 0.45681
 C684 C 0.12492 0.25855 0.44121
 C685 C 0.09348 0.22382 0.38011
 C686 C 0.10908 0.21077 0.39580
 C687 C 0.10223 0.29578 0.43076
 C688 C 0.11884 0.28308 0.44577
 H689 H 0.08568 0.21450 0.36456
 H690 H 0.11288 0.19173 0.39192
 H691 H 0.09768 0.31454 0.43516
 H692 H 0.12663 0.29242 0.46132
 H693 H 0.06868 0.31530 0.40031
 H694 H 0.06286 0.25219 0.35405
 H695 H 0.13791 0.18950 0.42942
 H696 H 0.14834 0.25422 0.47267
 C697 C 0.09961 0.74000 0.59332
 C698 C 0.08010 0.75134 0.60578
 C699 C 0.06404 0.73703 0.61970
 C700 C 0.06710 0.71153 0.62082
 C701 C 0.08703 0.70044 0.60870
 C702 C 0.10339 0.71465 0.59485
 C703 C 0.11589 0.75487 0.57777
 C704 C 0.13510 0.74352 0.56487
 C705 C 0.14987 0.75763 0.54928
 C706 C 0.14513 0.78277 0.54625
 C707 C 0.12609 0.79389 0.55973
 C708 C 0.11144 0.78004 0.57551
 C709 C 0.12307 0.70400 0.58201
 C710 C 0.13869 0.71820 0.56732
 C711 C 0.07664 0.77667 0.60355
 C712 C 0.09202 0.79078 0.58862
 H713 H 0.12624 0.68448 0.58309
 H714 H 0.15345 0.70922 0.55749
 H715 H 0.06166 0.78560 0.61312
 H716 H 0.08848 0.81021 0.58708
 H717 H 0.04871 0.74552 0.62915
 H718 H 0.08932 0.68078 0.60958
 H719 H 0.16439 0.74891 0.53888
 H720 H 0.12240 0.81324 0.55763
 C721 C 0.90204 0.73954 0.40584
 C722 C 0.92212 0.75088 0.39427
 C723 C 0.93832 0.73670 0.38037
 C724 C 0.93478 0.71133 0.37833
 C725 C 0.91429 0.70025 0.38958
 C726 C 0.89783 0.71432 0.40344
 C727 C 0.88559 0.75422 0.42140
 C728 C 0.86583 0.74285 0.43346
 C729 C 0.85088 0.75675 0.44906
 C730 C 0.85594 0.78172 0.45290
 C731 C 0.87554 0.79287 0.44022
 C732 C 0.89042 0.77923 0.42448
 C733 C 0.87761 0.70365 0.41545
 C734 C 0.86186 0.71768 0.43017
 C735 C 0.92597 0.77606 0.39733
 C736 C 0.91040 0.79000 0.41222
 H737 H 0.87411 0.68425 0.41370
 H738 H 0.84667 0.70867 0.43934
 H739 H 0.94138 0.78500 0.38846
 H740 H 0.91424 0.80930 0.41441
 H741 H 0.95408 0.74520 0.37163
 H742 H 0.91165 0.68067 0.38804
 H743 H 0.83592 0.74798 0.45882
 H744 H 0.87951 0.81209 0.44292
 C745 C 0.90355 0.26160 0.59427
 C746 C 0.92335 0.24982 0.60592
 C747 C 0.93967 0.26360 0.62009
 C748 C 0.93660 0.28903 0.62226
 C749 C 0.91644 0.30056 0.61085
 C750 C 0.89980 0.28687 0.59680
 C751 C 0.88683 0.24728 0.57865
 C752 C 0.86721 0.25906 0.56671
 C753 C 0.85182 0.24545 0.55126
 C754 C 0.85631 0.22038 0.54742
 C755 C 0.87589 0.20886 0.55983
 C756 C 0.89116 0.22220 0.57549
 C757 C 0.87979 0.29796 0.58481
 C758 C 0.86374 0.28428 0.57007
 C759 C 0.92674 0.22459 0.60273
 C760 C 0.91095 0.21101 0.58771
 H761 H 0.87665 0.31743 0.58665
 H762 H 0.84868 0.29360 0.56098
 H763 H 0.94194 0.21531 0.61164
 H764 H 0.91441 0.19165 0.58547
 H765 H 0.95515 0.25474 0.62899
 H766 H 0.91412 0.32016 0.61252
 H767 H 0.83689 0.25449 0.54168
 H768 H 0.87940 0.18955 0.55712
 C769 C 0.40278 0.09922 0.25537
 C770 C 0.39029 0.08013 0.24356
 C771 C 0.37587 0.06397 0.25725
 C772 C 0.37433 0.06652 0.28260
 C773 C 0.38648 0.08604 0.29414
 C774 C 0.40079 0.10249 0.28057
 C775 C 0.41892 0.11558 0.24119
 C776 C 0.43188 0.13432 0.25305
 C777 C 0.44808 0.14911 0.23965
 C778 C 0.45169 0.14491 0.21468
 C779 C 0.43810 0.12636 0.20301
 C780 C 0.42170 0.11164 0.21618
 C781 C 0.41368 0.12173 0.29172
 C782 C 0.42892 0.13741 0.27819
 C783 C 0.39303 0.07719 0.21840
 C784 C 0.40852 0.09265 0.20494
 H785 H 0.41224 0.12449 0.31113
 H786 H 0.43880 0.15181 0.28755
 H787 H 0.38345 0.06255 0.20910
 H788 H 0.41045 0.08950 0.18564
 H789 H 0.36642 0.04895 0.24841
 H790 H 0.38529 0.08794 0.31368
 H791 H 0.45855 0.16324 0.24882
 H792 H 0.44066 0.12304 0.18380
 C793 C 0.59185 0.09642 0.74004
 C794 C 0.59356 0.10037 0.71491
 C795 C 0.60746 0.08410 0.70072
 C796 C 0.61946 0.06407 0.71161
 C797 C 0.61810 0.06078 0.73688
 C798 C 0.60414 0.07677 0.75117
 C799 C 0.57634 0.11274 0.75490
 C800 C 0.57398 0.10821 0.77986
 C801 C 0.55837 0.12306 0.79372
 C802 C 0.54514 0.14237 0.78286
 C803 C 0.54822 0.14709 0.75791
 C804 C 0.56367 0.13216 0.74378
 C805 C 0.60176 0.07317 0.77628
 C806 C 0.58689 0.08861 0.79038
 C807 C 0.58091 0.12020 0.70448
 C808 C 0.56626 0.13585 0.71867
 H809 H 0.61118 0.05809 0.78505
 H810 H 0.58526 0.08500 0.80964
 H811 H 0.58212 0.12350 0.68513
 H812 H 0.55660 0.15076 0.70985
 H813 H 0.60853 0.08658 0.68124
 H814 H 0.62745 0.04539 0.74523
 H815 H 0.55625 0.11935 0.81293
 H816 H 0.53804 0.16183 0.74936
 C817 C 0.39857 0.90241 0.74597
 C818 C 0.39597 0.89888 0.72086
 C819 C 0.38159 0.91537 0.70738
 C820 C 0.36992 0.93517 0.71893
 C821 C 0.37198 0.93791 0.74424
 C822 C 0.38654 0.92175 0.75782
 C823 C 0.41493 0.88610 0.75998
 C824 C 0.41842 0.89035 0.78487
 C825 C 0.43505 0.87566 0.79783
 C826 C 0.44809 0.85679 0.78610
 C827 C 0.44379 0.85231 0.76128
 C828 C 0.42741 0.86709 0.74807
 C829 C 0.38994 0.92499 0.78287
 C830 C 0.40567 0.90959 0.79616
 C831 C 0.40841 0.87939 0.70965
 C832 C 0.42380 0.86372 0.72304
 H833 H 0.38072 0.93984 0.79220
 H834 H 0.40813 0.91299 0.81537
 H835 H 0.40649 0.87642 0.69032
 H836 H 0.43331 0.84910 0.71365
 H837 H 0.38010 0.91334 0.68788
 H838 H 0.36294 0.95316 0.75311
 H839 H 0.43814 0.87918 0.81694
 H840 H 0.45383 0.83792 0.75205
 C841 C 0.59547 0.90701 0.25748
 C842 C 0.58755 0.93041 0.26437
 C843 C 0.60377 0.94562 0.27707
 C844 C 0.62811 0.93803 0.28219
 C845 C 0.63588 0.91455 0.27497
 C846 C 0.61945 0.89879 0.26290
 C847 C 0.57837 0.89092 0.24412
 C848 C 0.58599 0.86726 0.23764
 C849 C 0.56956 0.85207 0.22485
 C850 C 0.54619 0.86092 0.21791
 C851 C 0.53893 0.88467 0.22439
 C852 C 0.55480 0.89965 0.23782
 C853 C 0.62648 0.87506 0.25601
 C854 C 0.60997 0.85949 0.24377
 C855 C 0.56365 0.93828 0.25819
 C856 C 0.54761 0.92322 0.24495
 H857 H 0.64488 0.86843 0.26014
 H858 H 0.61613 0.84133 0.23883
 H859 H 0.55740 0.95635 0.26337
 H860 H 0.52943 0.93008 0.24028
 H861 H 0.59761 0.96359 0.28275
 H862 H 0.65464 0.90867 0.27869
 H863 H 0.57514 0.83379 0.21965
 H864 H 0.52082 0.89135 0.21912
 C865 C 0.40282 0.25568 0.91066
 C866 C 0.40960 0.25793 0.93510
 C867 C 0.39411 0.27063 0.95095
 C868 C 0.37120 0.28029 0.94304
 C869 C 0.36489 0.27799 0.91821
 C870 C 0.38075 0.26591 0.90195
 C871 C 0.41912 0.24218 0.89394
 C872 C 0.41273 0.24032 0.86930
 C873 C 0.42843 0.22744 0.85350
 C874 C 0.44978 0.21588 0.86254
 C875 C 0.45576 0.21780 0.88727
 C876 C 0.44071 0.23122 0.90299
 C877 C 0.37487 0.26356 0.87721
 C878 C 0.39067 0.25116 0.86113
 C879 C 0.43165 0.24721 0.94334
 C880 C 0.44685 0.23389 0.92759
 H881 H 0.35792 0.27141 0.87019
 H882 H 0.38545 0.24983 0.84220
 H883 H 0.43703 0.24884 0.96220
 H884 H 0.46355 0.22563 0.93472
 H885 H 0.40008 0.27316 0.96955
 H886 H 0.34732 0.28487 0.91167
 H887 H 0.42380 0.22590 0.83443
 H888 H 0.47239 0.20915 0.89416
 C889 C 0.59848 0.74347 0.90436
 C890 C 0.60016 0.71802 0.90146
 C891 C 0.61356 0.70429 0.91850
 C892 C 0.62507 0.71591 0.93826
 C893 C 0.62381 0.74149 0.94049
 C894 C 0.61034 0.75536 0.92371
 C895 C 0.58337 0.75787 0.88726
 C896 C 0.58093 0.78316 0.89077
 C897 C 0.56542 0.79655 0.87535
 C898 C 0.55232 0.78485 0.85656
 C899 C 0.55564 0.75960 0.85277
 C900 C 0.57099 0.74596 0.86825
 C901 C 0.60799 0.78078 0.92623
 C902 C 0.59348 0.79445 0.91005
 C903 C 0.58791 0.70682 0.88194
 C904 C 0.57360 0.72055 0.86559
 H905 H 0.61709 0.79014 0.94106
 H906 H 0.59179 0.81397 0.91288
 H907 H 0.58912 0.68722 0.87946
 H908 H 0.56417 0.71114 0.85099
 H909 H 0.61458 0.68458 0.91681
 H910 H 0.63283 0.75041 0.95566
 H911 H 0.56307 0.81599 0.87837
 H912 H 0.54553 0.75040 0.83847
 C913 C 0.40528 0.74359 0.09276
 C914 C 0.41286 0.73947 0.06881
 C915 C 0.39760 0.72608 0.05329
 C916 C 0.37423 0.71745 0.06102
 C917 C 0.36692 0.72197 0.08526
 C918 C 0.38254 0.73472 0.10126
 C919 C 0.42144 0.75764 0.10918
 C920 C 0.41425 0.76133 0.13340
 C921 C 0.42988 0.77463 0.14895
 C922 C 0.45195 0.78483 0.13999
 C923 C 0.45870 0.78115 0.11566
 C924 C 0.44372 0.76726 0.10027
 C925 C 0.37584 0.73896 0.12554
 C926 C 0.39151 0.75185 0.14139
 C927 C 0.43553 0.74895 0.06072
 C928 C 0.45062 0.76280 0.07613
 H929 H 0.35837 0.73218 0.13240
 H930 H 0.38567 0.75461 0.15997
 H931 H 0.44153 0.74588 0.04222
 H932 H 0.46784 0.77003 0.06912
 H933 H 0.40409 0.72218 0.03509
 H934 H 0.34885 0.71620 0.09150
 H935 H 0.42467 0.77757 0.16771
 H936 H 0.47586 0.78879 0.10888
 C937 C 0.60190 0.25590 0.09433
 C938 C 0.61302 0.24406 0.07454
 C939 C 0.62638 0.25789 0.05766
 C940 C 0.62823 0.28341 0.06022
 C941 C 0.61745 0.29496 0.08039
 C942 C 0.60420 0.28126 0.09754
 C943 C 0.58691 0.24157 0.11157
 C944 C 0.57529 0.25347 0.13103
 C945 C 0.56006 0.23995 0.14667
 C946 C 0.55607 0.21483 0.14264
 C947 C 0.56839 0.20311 0.12337
 C948 C 0.58381 0.21640 0.10777
 C949 C 0.59270 0.29244 0.11750
 C950 C 0.57852 0.27878 0.13398
 C951 C 0.61003 0.21873 0.07173
 C952 C 0.59562 0.20513 0.08804
 H953 H 0.59439 0.31197 0.12022
 H954 H 0.56968 0.28817 0.14893
 H955 H 0.61856 0.20940 0.05656
 H956 H 0.59343 0.18570 0.08497
 H957 H 0.63484 0.24901 0.04217
 H958 H 0.61890 0.31462 0.08234
 H959 H 0.55055 0.24918 0.16134
 H960 H 0.56551 0.18379 0.12014
 C961 C 0.25687 0.09545 0.59812
 C962 C 0.24458 0.07561 0.60890
 C963 C 0.25809 0.05906 0.62304
 C964 C 0.28375 0.06199 0.62603
 C965 C 0.29575 0.08223 0.61557
 C966 C 0.28235 0.09906 0.60153
 C967 C 0.24290 0.11237 0.58242
 C968 C 0.25522 0.13197 0.57128
 C969 C 0.24201 0.14749 0.55566
 C970 C 0.21677 0.14320 0.55088
 C971 C 0.20467 0.12367 0.56256
 C972 C 0.21763 0.10822 0.57835
 C973 C 0.29396 0.11909 0.59038
 C974 C 0.28062 0.13530 0.57554
 C975 C 0.21916 0.07239 0.60483
 C976 C 0.20592 0.08840 0.58977
 H977 H 0.31358 0.12212 0.59291
 H978 H 0.29034 0.15036 0.56708
 H979 H 0.20950 0.05716 0.61307
 H980 H 0.18640 0.08506 0.58682
 H981 H 0.24887 0.04352 0.63123
 H982 H 0.31552 0.08445 0.61790
 H983 H 0.25151 0.16240 0.54668
 H984 H 0.18524 0.12027 0.55912
 C985 C 0.73758 0.09395 0.40940
 C986 C 0.73319 0.07007 0.41756
 C987 C 0.72081 0.05363 0.40242
 C988 C 0.71378 0.06031 0.37861
 C989 C 0.71787 0.08471 0.37101
 C990 C 0.72964 0.10158 0.38638
 C991 C 0.75119 0.11112 0.42510
 C992 C 0.75546 0.13516 0.41712
 C993 C 0.76879 0.15128 0.43208
 C994 C 0.77848 0.14302 0.45431
 C995 C 0.77402 0.11893 0.46198
 C996 C 0.76011 0.10298 0.44762
 C997 C 0.73416 0.12579 0.37901
 C998 C 0.74668 0.14233 0.39419
 C999 C 0.74172 0.06287 0.44055
 C1000 C 0.75515 0.07900 0.45525
 H1001 H 0.72806 0.13198 0.36132
 H1002 H 0.74984 0.16078 0.38775
 H1003 H 0.73841 0.04447 0.44704
 H1004 H 0.76180 0.07261 0.47268
 H1005 H 0.71677 0.03546 0.40920
 H1006 H 0.71288 0.09031 0.35279
 H1007 H 0.77233 0.16986 0.42618
 H1008 H 0.78128 0.11270 0.47926
 C1009 C 0.74244 0.90695 0.59670
 C1010 C 0.71797 0.90102 0.60276
 C1011 C 0.70377 0.91780 0.61606
 C1012 C 0.71379 0.94059 0.62305
 C1013 C 0.73870 0.94577 0.61729
 C1014 C 0.75299 0.92917 0.60403
 C1015 C 0.75712 0.88987 0.58185
 C1016 C 0.78138 0.89616 0.57532
 C1017 C 0.79488 0.88042 0.56031
 C1018 C 0.78428 0.85857 0.55168
 C1019 C 0.76012 0.85224 0.55893
 C1020 C 0.74640 0.86792 0.57393
 C1021 C 0.77751 0.93456 0.59758
 C1022 C 0.79146 0.91834 0.58344
 C1023 C 0.70801 0.87867 0.59487
 C1024 C 0.72198 0.86241 0.58070
 H1025 H 0.78587 0.95163 0.60322
 H1026 H 0.81018 0.92336 0.57857
 H1027 H 0.68916 0.87384 0.59944
 H1028 H 0.71348 0.84552 0.57475
 H1029 H 0.68460 0.91359 0.61998
 H1030 H 0.74700 0.96281 0.62317
 H1031 H 0.81346 0.88548 0.55494
 H1032 H 0.75173 0.83552 0.55236
 C1033 C 0.25497 0.90852 0.39993
 C1034 C 0.27925 0.90265 0.39314
 C1035 C 0.29290 0.91940 0.37924
 C1036 C 0.28253 0.94211 0.37244
 C1037 C 0.25779 0.94720 0.37891
 C1038 C 0.24404 0.93062 0.39273
 C1039 C 0.24091 0.89152 0.41544
 C1040 C 0.21685 0.89774 0.42268
 C1041 C 0.20395 0.88207 0.43826
 C1042 C 0.21497 0.86037 0.44681
 C1043 C 0.23894 0.85412 0.43891
 C1044 C 0.25204 0.86971 0.42328
 C1045 C 0.21973 0.93595 0.39990
 C1046 C 0.20636 0.91978 0.41464
 C1047 C 0.28961 0.88044 0.40094
 C1048 C 0.27624 0.86425 0.41576
 H1049 H 0.21109 0.95292 0.39437
 H1050 H 0.18777 0.92473 0.42006
 H1051 H 0.30833 0.87566 0.39581
 H1052 H 0.28504 0.84747 0.42163
 H1053 H 0.31196 0.91528 0.37474
 H1054 H 0.24925 0.96420 0.37321
 H1055 H 0.18551 0.88708 0.44413
 H1056 H 0.24762 0.83749 0.44537
 C1057 C 0.09585 0.40182 0.74564
 C1058 C 0.07320 0.39470 0.75579
 C1059 C 0.05649 0.38128 0.74171
 C1060 C 0.06197 0.37522 0.71737
 C1061 C 0.08524 0.38193 0.70779
 C1062 C 0.10214 0.39535 0.72180
 C1063 C 0.11299 0.41696 0.76003
 C1064 C 0.13535 0.42471 0.74966
 C1065 C 0.15105 0.44006 0.76303
 C1066 C 0.14435 0.44787 0.78650
 C1067 C 0.12210 0.43940 0.79680
 C1068 C 0.10633 0.42402 0.78362
 C1069 C 0.12492 0.40304 0.71221
 C1070 C 0.14124 0.41746 0.72591
 C1071 C 0.06745 0.40160 0.77967
 C1072 C 0.08372 0.41604 0.79334
 H1073 H 0.13003 0.39815 0.69385
 H1074 H 0.15846 0.42327 0.71770
 H1075 H 0.05004 0.39614 0.78772
 H1076 H 0.07841 0.42129 0.81155
 H1077 H 0.03908 0.37561 0.74967
 H1078 H 0.08969 0.37780 0.68907
 H1079 H 0.16808 0.44648 0.75488
 H1080 H 0.11675 0.44523 0.81483
 C1081 C 0.09476 0.59628 0.25915
 C1082 C 0.07210 0.60369 0.24920
 C1083 C 0.05538 0.61665 0.26364
 C1084 C 0.06092 0.62213 0.28808
 C1085 C 0.08424 0.61525 0.29748
 C1086 C 0.10109 0.60209 0.28315
 C1087 C 0.11188 0.58154 0.24432
 C1088 C 0.13420 0.57332 0.25447
 C1089 C 0.14980 0.55822 0.24065
 C1090 C 0.14304 0.55129 0.21692
 C1091 C 0.12090 0.56038 0.20687
 C1092 C 0.10520 0.57534 0.22051
 C1093 C 0.12386 0.59402 0.29252
 C1094 C 0.14010 0.57985 0.27844
 C1095 C 0.06634 0.59758 0.22511
 C1096 C 0.08262 0.58365 0.21100
 H1097 H 0.12901 0.59838 0.31101
 H1098 H 0.15728 0.57370 0.28650
 H1099 H 0.04892 0.60331 0.21722
 H1100 H 0.07732 0.57902 0.19262
 H1101 H 0.03795 0.62252 0.25583
 H1102 H 0.08876 0.61909 0.31626
 H1103 H 0.16675 0.55133 0.24860
 H1104 H 0.11546 0.55524 0.18865
 C1105 C 0.90779 0.40271 0.25432
 C1106 C 0.89877 0.38012 0.26251
 C1107 C 0.91479 0.36416 0.27492
 C1108 C 0.93953 0.37099 0.27981
 C1109 C 0.94779 0.39418 0.27183
 C1110 C 0.93228 0.40978 0.25877
 C1111 C 0.89136 0.41927 0.24069
 C1112 C 0.90079 0.44143 0.23178
 C1113 C 0.88536 0.45684 0.21834
 C1114 C 0.86049 0.45061 0.21443
 C1115 C 0.85101 0.42864 0.22390
 C1116 C 0.86660 0.41261 0.23673
 C1117 C 0.94089 0.43232 0.24997
 C1118 C 0.92546 0.44779 0.23651
 C1119 C 0.87396 0.37394 0.25798
 C1120 C 0.85810 0.38999 0.24550
 H1121 H 0.95980 0.43792 0.25330
 H1122 H 0.93288 0.46491 0.22983
 H1123 H 0.86671 0.35659 0.26424
 H1124 H 0.83908 0.38455 0.24251
 H1125 H 0.90815 0.34625 0.28020
 H1126 H 0.96638 0.40027 0.27602
 H1127 H 0.89254 0.47392 0.21126
 H1128 H 0.83183 0.42384 0.22076
 C1129 C 0.90812 0.59803 0.74319
 C1130 C 0.93080 0.60533 0.75317
 C1131 C 0.94748 0.61846 0.73881
 C1132 C 0.94191 0.62412 0.71440
 C1133 C 0.91862 0.61727 0.70496
 C1134 C 0.90177 0.60406 0.71923
 C1135 C 0.89101 0.58317 0.75790
 C1136 C 0.86863 0.57518 0.74773
 C1137 C 0.85298 0.56006 0.76145
 C1138 C 0.85978 0.55278 0.78507
 C1139 C 0.88203 0.56154 0.79515
 C1140 C 0.89774 0.57663 0.78163
 C1141 C 0.87897 0.59617 0.70983
 C1142 C 0.86269 0.58197 0.72383
 C1143 C 0.93661 0.59891 0.77717
 C1144 C 0.92035 0.58479 0.79117
 H1145 H 0.87381 0.60072 0.69137
 H1146 H 0.84546 0.57598 0.71576
 H1147 H 0.95404 0.60453 0.78509
 H1148 H 0.92570 0.57991 0.80949
 H1149 H 0.96493 0.62425 0.74662
 H1150 H 0.91411 0.62116 0.68619
 H1151 H 0.83595 0.55341 0.75349
 H1152 H 0.88745 0.55614 0.81331
 C1153 C 0.74426 0.59891 0.90730
 C1154 C 0.75487 0.60618 0.92936
 C1155 C 0.74077 0.61983 0.94575
 C1156 C 0.71599 0.62608 0.94048
 C1157 C 0.70591 0.61915 0.91784
 C1158 C 0.71992 0.60543 0.90129
 C1159 C 0.75873 0.58363 0.89046
 C1160 C 0.74794 0.57574 0.86866
 C1161 C 0.76145 0.56034 0.85320
 C1162 C 0.78550 0.55271 0.85958
 C1163 C 0.79617 0.56132 0.88128
 C1164 C 0.78285 0.57668 0.89681
 C1165 C 0.70989 0.59756 0.87910
 C1166 C 0.72365 0.58297 0.86307
 C1167 C 0.77925 0.59929 0.93484
 C1168 C 0.79301 0.58477 0.91883
 H1169 H 0.69114 0.60248 0.87421
 H1170 H 0.71511 0.57705 0.84630
 H1171 H 0.78765 0.60488 0.95179
 H1172 H 0.81164 0.57957 0.92389
 H1173 H 0.74909 0.62563 0.96269
 H1174 H 0.68683 0.62345 0.91358
 H1175 H 0.75303 0.55381 0.83658
 H1176 H 0.81465 0.55565 0.88639
 C1177 C 0.26030 0.40551 0.90988
 C1178 C 0.26423 0.41330 0.93379
 C1179 C 0.27658 0.39788 0.94999
 C1180 C 0.28404 0.37413 0.94301
 C1181 C 0.28033 0.36690 0.91862
 C1182 C 0.26862 0.38258 0.90199
 C1183 C 0.24688 0.42158 0.89289
 C1184 C 0.24324 0.41405 0.86878
 C1185 C 0.23031 0.42945 0.85275
 C1186 C 0.22040 0.45167 0.86113
 C1187 C 0.22413 0.45883 0.88532
 C1188 C 0.23766 0.44404 0.90120
 C1189 C 0.26463 0.37564 0.87775
 C1190 C 0.25232 0.39118 0.86138
 C1191 C 0.25535 0.43622 0.94122
 C1192 C 0.24209 0.45125 0.92525
 H1193 H 0.27101 0.35801 0.87138
 H1194 H 0.24963 0.38510 0.84287
 H1195 H 0.25829 0.44240 0.95966
 H1196 H 0.23521 0.46863 0.93179
 H1197 H 0.28032 0.40441 0.96818
 H1198 H 0.28564 0.34873 0.91280
 H1199 H 0.22738 0.42396 0.83408
 H1200 H 0.21678 0.47614 0.89164
 C1201 C 0.26022 0.59574 0.09630
 C1202 C 0.28560 0.59144 0.09305
 C1203 C 0.29873 0.60549 0.07608
 C1204 C 0.28681 0.62425 0.06295
 C1205 C 0.26142 0.62860 0.06694
 C1206 C 0.24798 0.61417 0.08328
 C1207 C 0.24603 0.58014 0.11312
 C1208 C 0.22039 0.58352 0.11529
 C1209 C 0.20678 0.56782 0.13033
 C1210 C 0.21878 0.54932 0.14359
 C1211 C 0.24459 0.54662 0.14181
 C1212 C 0.25828 0.56172 0.12621
 C1213 C 0.22242 0.61744 0.08645
 C1214 C 0.20882 0.60226 0.10205
 C1215 C 0.29720 0.57285 0.10648
 C1216 C 0.28381 0.55838 0.12293
 H1217 H 0.21277 0.63159 0.07646
 H1218 H 0.18908 0.60512 0.10365
 H1219 H 0.31678 0.56940 0.10420
 H1220 H 0.29346 0.54419 0.13285
 H1221 H 0.31799 0.60135 0.07253
 H1222 H 0.25208 0.64289 0.05683
 H1223 H 0.18690 0.56992 0.13173
 H1224 H 0.25379 0.53213 0.15175
 C1225 C 0.74665 0.40086 0.09122
 C1226 C 0.72248 0.39380 0.09724
 C1227 C 0.70874 0.37986 0.08066
 C1228 C 0.71890 0.37325 0.05798
 C1229 C 0.74355 0.37995 0.05273
 C1230 C 0.75739 0.39385 0.06914
 C1231 C 0.76077 0.41648 0.10804
 C1232 C 0.78471 0.42402 0.10168
 C1233 C 0.79765 0.43974 0.11719
 C1234 C 0.78676 0.44810 0.13887
 C1235 C 0.76294 0.43986 0.14525
 C1236 C 0.74981 0.42412 0.12983
 C1237 C 0.78160 0.40131 0.06366
 C1238 C 0.79503 0.41616 0.07966
 C1239 C 0.71230 0.40141 0.11943
 C1240 C 0.72573 0.41632 0.13545
 H1241 H 0.79010 0.39592 0.04669
 H1242 H 0.81351 0.42180 0.07458
 H1243 H 0.69367 0.39608 0.12432
 H1244 H 0.71707 0.42204 0.15222
 H1245 H 0.68975 0.37519 0.08491
 H1246 H 0.75195 0.37438 0.03575
 H1247 H 0.81597 0.44589 0.11208
 H1248 H 0.75436 0.44617 0.16187
 C1249 C 0.90644 0.74057 0.59686
 C1250 C 0.90220 0.71538 0.59954
 C1251 C 0.91919 0.70123 0.61273
 C1252 C 0.94021 0.71218 0.62310
 C1253 C 0.94375 0.73757 0.62090
 C1254 C 0.92706 0.75182 0.60755
 C1255 C 0.88938 0.75532 0.58196
 C1256 C 0.89420 0.78029 0.57850
 C1257 C 0.87866 0.79397 0.56333
 C1258 C 0.85837 0.78287 0.55169
 C1259 C 0.85339 0.75794 0.55593
 C1260 C 0.86900 0.74402 0.57087
 C1261 C 0.93092 0.77697 0.60418
 C1262 C 0.91480 0.79096 0.58985
 C1263 C 0.88138 0.70480 0.58849
 C1264 C 0.86503 0.71889 0.57445
 H1265 H 0.94676 0.78585 0.61238
 H1266 H 0.91866 0.81023 0.58739
 H1267 H 0.87785 0.68541 0.59047
 H1268 H 0.84937 0.70995 0.56601
 H1269 H 0.91648 0.68167 0.61445
 H1270 H 0.95987 0.74601 0.62904
 H1271 H 0.88260 0.81315 0.56027
 H1272 H 0.83793 0.74919 0.54694
 C1273 C 0.90229 0.25848 0.40118
 C1274 C 0.90582 0.28361 0.40495
 C1275 C 0.92308 0.29622 0.39065
 C1276 C 0.93620 0.28404 0.37215
 C1277 C 0.93189 0.25890 0.36829
 C1278 C 0.91529 0.24597 0.38300
 C1279 C 0.88527 0.24484 0.41712
 C1280 C 0.88290 0.21943 0.41433
 C1281 C 0.86775 0.20635 0.43042
 C1282 C 0.85460 0.21865 0.44873
 C1283 C 0.85655 0.24421 0.45078
 C1284 C 0.87225 0.25736 0.43530
 C1285 C 0.91187 0.22066 0.38030
 C1286 C 0.89609 0.20759 0.39581
 C1287 C 0.89242 0.29551 0.42328
 C1288 C 0.87575 0.28265 0.43806
 H1289 H 0.92183 0.21080 0.36635
 H1290 H 0.89434 0.18802 0.39339
 H1291 H 0.89490 0.31491 0.42631
 H1292 H 0.86587 0.29250 0.45207
 H1293 H 0.92689 0.31529 0.39442
 H1294 H 0.94201 0.24935 0.35421
 H1295 H 0.86624 0.18667 0.42881
 H1296 H 0.84671 0.25368 0.46510
 C1297 C 0.09688 0.26012 0.59830
 C1298 C 0.10115 0.28528 0.60118
 C1299 C 0.08439 0.29924 0.61480
 C1300 C 0.06355 0.28812 0.62535
 C1301 C 0.06002 0.26276 0.62298
 C1302 C 0.07648 0.24870 0.60924
 C1303 C 0.11361 0.24560 0.58289
 C1304 C 0.10871 0.22069 0.57922
 C1305 C 0.12387 0.20724 0.56355
 C1306 C 0.14387 0.21852 0.55160
 C1307 C 0.14897 0.24337 0.55604
 C1308 C 0.13373 0.25707 0.57150
 C1309 C 0.07256 0.22360 0.60566
 C1310 C 0.08838 0.20983 0.59085
 C1311 C 0.12172 0.29603 0.58985
 C1312 C 0.13776 0.28215 0.57531
 H1313 H 0.05690 0.21460 0.61404
 H1314 H 0.08447 0.19060 0.58823
 H1315 H 0.12527 0.31539 0.59198
 H1316 H 0.15323 0.29122 0.56666
 H1317 H 0.08707 0.31878 0.61665
 H1318 H 0.04401 0.25422 0.63124
 H1319 H 0.11986 0.18811 0.56035
 H1320 H 0.16423 0.25224 0.54682
 C1321 C 0.09415 0.74120 0.40308
 C1322 C 0.07121 0.75084 0.39607
 C1323 C 0.05468 0.73612 0.38316
 C1324 C 0.06066 0.71167 0.37739
 C1325 C 0.08421 0.70259 0.38392
 C1326 C 0.10091 0.71722 0.39696
 C1327 C 0.11111 0.75631 0.41769
 C1328 C 0.13377 0.74648 0.42541
 C1329 C 0.14929 0.76057 0.44030
 C1330 C 0.14211 0.78423 0.44759
 C1331 C 0.11959 0.79395 0.43909
 C1332 C 0.10399 0.78006 0.42426
 C1333 C 0.12397 0.70817 0.40457
 C1334 C 0.14011 0.72254 0.41857
 C1335 C 0.06499 0.77488 0.40252
 C1336 C 0.08111 0.78926 0.41639
 H1337 H 0.12946 0.68972 0.39996
 H1338 H 0.15755 0.71474 0.42434
 H1339 H 0.04735 0.78253 0.39711
 H1340 H 0.07546 0.80759 0.42129
 H1341 H 0.03705 0.74371 0.37758
 H1342 H 0.08906 0.68380 0.37989
 H1343 H 0.16655 0.75288 0.44675
 H1344 H 0.11386 0.81213 0.44448
 C1345 C 0.59460 0.90552 0.73937
 C1346 C 0.60621 0.92557 0.75044
 C1347 C 0.61967 0.94197 0.73610
 C1348 C 0.62115 0.93870 0.71083
 C1349 C 0.60989 0.91824 0.70002
 C1350 C 0.59652 0.90155 0.71426
 C1351 C 0.57955 0.88878 0.75427
 C1352 C 0.56753 0.86896 0.74319
 C1353 C 0.55246 0.85365 0.75733
 C1354 C 0.54906 0.85838 0.78224
 C1355 C 0.56165 0.87810 0.79306
 C1356 C 0.57692 0.89333 0.77919
 C1357 C 0.58454 0.88131 0.70389
 C1358 C 0.57034 0.86526 0.71811
 C1359 C 0.60362 0.92917 0.77552
 C1360 C 0.58917 0.91335 0.78965
 H1361 H 0.58593 0.87799 0.68457
 H1362 H 0.56119 0.85004 0.70934
 H1363 H 0.61253 0.94457 0.78425
 H1364 H 0.58734 0.91698 0.80888
 H1365 H 0.62849 0.95767 0.74440
 H1366 H 0.61106 0.91575 0.68055
 H1367 H 0.54275 0.83860 0.74881
 H1368 H 0.55928 0.88183 0.81223
 C1369 C 0.40007 0.90682 0.25552
 C1370 C 0.39785 0.90341 0.28069
 C1371 C 0.38423 0.92034 0.29435
 C1372 C 0.37302 0.94051 0.28293
 C1373 C 0.37477 0.94322 0.25760
 C1374 C 0.38850 0.92656 0.24382
 C1375 C 0.41547 0.88986 0.24125
 C1376 C 0.41849 0.89389 0.21627
 C1377 C 0.43423 0.87855 0.20303
 C1378 C 0.44693 0.85930 0.21459
 C1379 C 0.44307 0.85505 0.23952
 C1380 C 0.42752 0.87044 0.25300
 C1381 C 0.39143 0.92960 0.21869
 C1382 C 0.40622 0.91356 0.20515
 C1383 C 0.40981 0.88350 0.29173
 C1384 C 0.42435 0.86727 0.27811
 H1385 H 0.38256 0.94474 0.20947
 H1386 H 0.40835 0.91680 0.18587
 H1387 H 0.40818 0.88062 0.31110
 H1388 H 0.43353 0.85235 0.28739
 H1389 H 0.38286 0.91829 0.31386
 H1390 H 0.36599 0.95869 0.24883
 H1391 H 0.43700 0.88194 0.18385
 H1392 H 0.45286 0.84039 0.24862
 C1393 C 0.59689 0.09218 0.25870
 C1394 C 0.59024 0.06754 0.26103
 C1395 C 0.60560 0.05174 0.27405
 C1396 C 0.62827 0.05991 0.28398
 C1397 C 0.63444 0.08495 0.28164
 C1398 C 0.61872 0.10115 0.26919
 C1399 C 0.58077 0.10881 0.24479
 C1400 C 0.58706 0.13364 0.24277
 C1401 C 0.57156 0.14935 0.22944
 C1402 C 0.55052 0.14000 0.21761
 C1403 C 0.54462 0.11508 0.21975
 C1404 C 0.55947 0.09947 0.23358
 C1405 C 0.62448 0.12609 0.26671
 C1406 C 0.60884 0.14209 0.25389
 C1407 C 0.56846 0.05902 0.25005
 C1408 C 0.55342 0.07469 0.23637
 H1409 H 0.64123 0.13332 0.27475
 H1410 H 0.61398 0.16117 0.25245
 H1411 H 0.56317 0.04000 0.25175
 H1412 H 0.53694 0.06734 0.22792
 H1413 H 0.59973 0.03297 0.27657
 H1414 H 0.65185 0.09168 0.28873
 H1415 H 0.57611 0.16856 0.22774
 H1416 H 0.52823 0.10795 0.21091
 C1417 C 0.39673 0.09407 0.74800
 C1418 C 0.38887 0.07206 0.75852
 C1419 C 0.37515 0.05555 0.74458
 C1420 C 0.36952 0.06060 0.72004
 C1421 C 0.37690 0.08326 0.71009
 C1422 C 0.39066 0.09995 0.72393
 C1423 C 0.41233 0.11089 0.76222
 C1424 C 0.42091 0.13256 0.75148
 C1425 C 0.43679 0.14787 0.76467
 C1426 C 0.44432 0.14143 0.78833
 C1427 C 0.43495 0.11994 0.79901
 C1428 C 0.41904 0.10457 0.78601
 C1429 C 0.39912 0.12207 0.71398
 C1430 C 0.41398 0.13810 0.72752
 C1431 C 0.39541 0.06668 0.78260
 C1432 C 0.41027 0.08266 0.79611
 H1433 H 0.39453 0.12686 0.69545
 H1434 H 0.42042 0.15478 0.71902
 H1435 H 0.38936 0.04977 0.79093
 H1436 H 0.41526 0.07763 0.81449
 H1437 H 0.36896 0.03861 0.75279
 H1438 H 0.37310 0.08736 0.69121
 H1439 H 0.44391 0.16433 0.75624
 H1440 H 0.44053 0.11482 0.81720
 C1441 C 0.59695 0.74522 0.09657
 C1442 C 0.59880 0.71983 0.09988
 C1443 C 0.61249 0.70596 0.08324
 C1444 C 0.62422 0.71739 0.06347
 C1445 C 0.62273 0.74292 0.06078
 C1446 C 0.60892 0.75692 0.07716
 C1447 C 0.58160 0.75975 0.11330
 C1448 C 0.57900 0.78498 0.10941
 C1449 C 0.56335 0.79849 0.12457
 C1450 C 0.55033 0.78696 0.14353
 C1451 C 0.55376 0.76176 0.14764
 C1452 C 0.56921 0.74801 0.13242
 C1453 C 0.60636 0.78229 0.07422
 C1454 C 0.59160 0.79608 0.09004
 C1455 C 0.58647 0.70880 0.11946
 C1456 C 0.57197 0.72266 0.13549
 H1457 H 0.61553 0.79151 0.05933
 H1458 H 0.58980 0.81554 0.08689
 H1459 H 0.58781 0.68925 0.12227
 H1460 H 0.56253 0.71339 0.15017
 H1461 H 0.61363 0.68628 0.08526
 H1462 H 0.63187 0.75170 0.04560
 H1463 H 0.56090 0.81787 0.12128
 H1464 H 0.54372 0.75267 0.16206
 C1465 C 0.40576 0.25573 0.09515
 C1466 C 0.41334 0.26271 0.07181
 C1467 C 0.39658 0.27468 0.05658
 C1468 C 0.37209 0.27897 0.06412
 C1469 C 0.36465 0.27161 0.08752
 C1470 C 0.38158 0.26028 0.10327
 C1471 C 0.42343 0.24316 0.11126
 C1472 C 0.41609 0.23654 0.13482
 C1473 C 0.43301 0.22440 0.14999
 C1474 C 0.45661 0.21824 0.14125
 C1475 C 0.46362 0.22490 0.11763
 C1476 C 0.44722 0.23768 0.10265
 C1477 C 0.37488 0.25330 0.12691
 C1478 C 0.39189 0.24180 0.14248
 C1479 C 0.43747 0.25739 0.06405
 C1480 C 0.45408 0.24490 0.07915
 H1481 H 0.35633 0.25678 0.13346
 H1482 H 0.38595 0.23673 0.16057
 H1483 H 0.44347 0.26267 0.04604
 H1484 H 0.47242 0.24086 0.07237
 H1485 H 0.40246 0.28047 0.03867
 H1486 H 0.34578 0.27470 0.09335
 H1487 H 0.42762 0.21899 0.16816
 H1488 H 0.48189 0.22016 0.11103
 C1489 C 0.59683 0.25668 0.90223
 C1490 C 0.60965 0.24468 0.92094
 C1491 C 0.62387 0.25844 0.93716
 C1492 C 0.62496 0.28402 0.93501
 C1493 C 0.61245 0.29579 0.91590
 C1494 C 0.59827 0.28216 0.89943
 C1495 C 0.58097 0.24237 0.88576
 C1496 C 0.56766 0.25439 0.86740
 C1497 C 0.55169 0.24080 0.85251
 C1498 C 0.54871 0.21550 0.85627
 C1499 C 0.56269 0.20372 0.87440
 C1500 C 0.57882 0.21705 0.88920
 C1501 C 0.58506 0.29348 0.88057
 C1502 C 0.57004 0.27983 0.86480
 C1503 C 0.60751 0.21923 0.92340
 C1504 C 0.59231 0.20564 0.90782
 H1505 H 0.58607 0.31311 0.87816
 H1506 H 0.55990 0.28933 0.85070
 H1507 H 0.61735 0.20978 0.93773
 H1508 H 0.59084 0.18609 0.91058
 H1509 H 0.63362 0.24943 0.95184
 H1510 H 0.61332 0.31552 0.91431
 H1511 H 0.54090 0.25005 0.83871
 H1512 H 0.56062 0.18424 0.87736
 C1513 C 0.40646 0.74289 0.90779
 C1514 C 0.41517 0.73612 0.93082
 C1515 C 0.39965 0.72298 0.94636
 C1516 C 0.37523 0.71735 0.93946
 C1517 C 0.36665 0.72450 0.91637
 C1518 C 0.38238 0.73697 0.90028
 C1519 C 0.42284 0.75662 0.89133
 C1520 C 0.41447 0.76289 0.86800
 C1521 C 0.43028 0.77587 0.85238
 C1522 C 0.45379 0.78322 0.86048
 C1523 C 0.46177 0.77703 0.88393
 C1524 C 0.44653 0.76339 0.89933
 C1525 C 0.37456 0.74372 0.87689
 C1526 C 0.39040 0.75627 0.86095
 C1527 C 0.43914 0.74281 0.93798
 C1528 C 0.45450 0.75640 0.92257
 H1529 H 0.35608 0.73919 0.87082
 H1530 H 0.38367 0.76105 0.84306
 H1531 H 0.44600 0.73772 0.95575
 H1532 H 0.47278 0.76143 0.92886
 H1533 H 0.40641 0.71737 0.96403
 H1534 H 0.34782 0.72037 0.91103
 H1535 H 0.42416 0.78082 0.83430
 H1536 H 0.48000 0.78258 0.89001
 C1537 C 0.74271 0.90226 0.40465
 C1538 C 0.75464 0.91148 0.38395
 C1539 C 0.74189 0.92766 0.36868
 C1540 C 0.71784 0.93538 0.37463
 C1541 C 0.70613 0.92599 0.39541
 C1542 C 0.71837 0.90911 0.41033
 C1543 C 0.75619 0.88564 0.42105
 C1544 C 0.74417 0.87621 0.44162
 C1545 C 0.75725 0.86082 0.45743
 C1546 C 0.78237 0.85573 0.45324
 C1547 C 0.79418 0.86532 0.43261
 C1548 C 0.78104 0.88002 0.41620
 C1549 C 0.70694 0.89925 0.43102
 C1550 C 0.71956 0.88291 0.44629
 C1551 C 0.77927 0.90483 0.37930
 C1552 C 0.79233 0.88954 0.39528
 H1553 H 0.68813 0.90430 0.43551
 H1554 H 0.71011 0.87582 0.46212
 H1555 H 0.78869 0.91187 0.36343
 H1556 H 0.81144 0.88522 0.39127
 H1557 H 0.75086 0.93497 0.35266
 H1558 H 0.68763 0.93204 0.39999
 H1559 H 0.74827 0.85367 0.47352
 H1560 H 0.81354 0.86133 0.42941
 C1561 C 0.25688 0.90382 0.59555
 C1562 C 0.28246 0.90043 0.59848
 C1563 C 0.29578 0.91674 0.61316
 C1564 C 0.28360 0.93626 0.62469
 C1565 C 0.25788 0.93895 0.62213
 C1566 C 0.24444 0.92291 0.60740
 C1567 C 0.24297 0.88753 0.57920
 C1568 C 0.21760 0.89151 0.57566
 C1569 C 0.20466 0.87671 0.55930
 C1570 C 0.21688 0.85801 0.54649
 C1571 C 0.24223 0.85384 0.55071
 C1572 C 0.25543 0.86872 0.56694
 C1573 C 0.21893 0.92596 0.60381
 C1574 C 0.20573 0.91054 0.58817
 C1575 C 0.29422 0.88118 0.58621
 C1576 C 0.28093 0.86556 0.57074
 H1577 H 0.20915 0.94060 0.61289
 H1578 H 0.18613 0.91372 0.58563
 H1579 H 0.31392 0.87832 0.58835
 H1580 H 0.29077 0.85111 0.56142
 H1581 H 0.31562 0.91474 0.61513
 H1582 H 0.24855 0.95397 0.63110
 H1583 H 0.18513 0.87999 0.55631
 H1584 H 0.25182 0.83955 0.54088
 C1585 C 0.25709 0.10000 0.40184
 C1586 C 0.24466 0.08087 0.39004
 C1587 C 0.25811 0.06475 0.37542
 C1588 C 0.28385 0.06738 0.37293
 C1589 C 0.29601 0.08697 0.38438
 C1590 C 0.28267 0.10337 0.39893
 C1591 C 0.24319 0.11631 0.41818
 C1592 C 0.25566 0.13512 0.43044
 C1593 C 0.24250 0.14996 0.44672
 C1594 C 0.21718 0.14572 0.45104
 C1595 C 0.20494 0.12703 0.43823
 C1596 C 0.21783 0.11229 0.42179
 C1597 C 0.29444 0.12265 0.41117
 C1598 C 0.28115 0.13829 0.42661
 C1599 C 0.21915 0.07782 0.39365
 C1600 C 0.20597 0.09325 0.40929
 H1601 H 0.31413 0.12550 0.40904
 H1602 H 0.29100 0.15275 0.43592
 H1603 H 0.20938 0.06314 0.38461
 H1604 H 0.18638 0.09004 0.41187
 H1605 H 0.24879 0.04965 0.36656
 H1606 H 0.31586 0.08890 0.38253
 H1607 H 0.25210 0.16423 0.45657
 H1608 H 0.18543 0.12370 0.44130
 C1609 C 0.74035 0.09951 0.59672
 C1610 C 0.71469 0.10283 0.59889
 C1611 C 0.70084 0.08596 0.61245
 C1612 C 0.71257 0.06597 0.62369
 C1613 C 0.73838 0.06333 0.62190
 C1614 C 0.75235 0.07993 0.60826
 C1615 C 0.75482 0.11639 0.58143
 C1616 C 0.78029 0.11245 0.57851
 C1617 C 0.79372 0.12769 0.56291
 C1618 C 0.78188 0.14676 0.55023
 C1619 C 0.75645 0.15094 0.55397
 C1620 C 0.74277 0.13564 0.56940
 C1621 C 0.77797 0.07697 0.60539
 C1622 C 0.79170 0.09293 0.59073
 C1623 C 0.70336 0.12257 0.58694
 C1624 C 0.71717 0.13872 0.57248
 H1625 H 0.78742 0.06195 0.61424
 H1626 H 0.81136 0.08977 0.58867
 H1627 H 0.68360 0.12537 0.58852
 H1628 H 0.70765 0.15350 0.56332
 H1629 H 0.68095 0.08792 0.61376
 H1630 H 0.74739 0.04795 0.63062
 H1631 H 0.81328 0.12436 0.56024
 H1632 H 0.74714 0.16547 0.54419
 C1633 C 0.90191 0.59510 0.25903
 C1634 C 0.92182 0.60723 0.24797
 C1635 C 0.93809 0.62084 0.26234
 C1636 C 0.93478 0.62207 0.28760
 C1637 C 0.91445 0.61029 0.29842
 C1638 C 0.89793 0.59668 0.28417
 C1639 C 0.88541 0.57979 0.24412
 C1640 C 0.86588 0.56710 0.25521
 C1641 C 0.85096 0.55165 0.24108
 C1642 C 0.85583 0.54859 0.21615
 C1643 C 0.87515 0.56195 0.20529
 C1644 C 0.89001 0.57752 0.21917
 C1645 C 0.87791 0.58411 0.29455
 C1646 C 0.86213 0.56959 0.28032
 C1647 C 0.92543 0.60498 0.22285
 C1648 C 0.90980 0.59035 0.20869
 H1649 H 0.87459 0.58522 0.31390
 H1650 H 0.84712 0.55994 0.28911
 H1651 H 0.94070 0.61430 0.21413
 H1652 H 0.91346 0.58878 0.18943
 H1653 H 0.95375 0.62998 0.25406
 H1654 H 0.91199 0.61121 0.31791
 H1655 H 0.83623 0.54136 0.24963
 H1656 H 0.87898 0.55984 0.18611
 C1657 C 0.90255 0.40456 0.74228
 C1658 C 0.92183 0.39199 0.75395
 C1659 C 0.93803 0.37776 0.74012
 C1660 C 0.93535 0.37643 0.71478
 C1661 C 0.91559 0.38860 0.70336
 C1662 C 0.89909 0.40277 0.71708
 C1663 C 0.88623 0.42057 0.75662
 C1664 C 0.86729 0.43363 0.74493
 C1665 C 0.85251 0.44966 0.75852
 C1666 C 0.85695 0.45296 0.78350
 C1667 C 0.87573 0.43934 0.79495
 C1668 C 0.89040 0.42313 0.78162
 C1669 C 0.87967 0.41575 0.70609
 C1670 C 0.86400 0.43088 0.71978
 C1671 C 0.92499 0.39451 0.77911
 C1672 C 0.90956 0.40986 0.79271
 H1673 H 0.87676 0.41448 0.68669
 H1674 H 0.84945 0.44081 0.71054
 H1675 H 0.93978 0.38487 0.78829
 H1676 H 0.91288 0.41163 0.81201
 H1677 H 0.95326 0.36833 0.74887
 H1678 H 0.91363 0.38764 0.68382
 H1679 H 0.83817 0.46015 0.74954
 H1680 H 0.87919 0.44163 0.81418
 C1681 C 0.10154 0.59479 0.73973
 C1682 C 0.08218 0.60736 0.75123
 C1683 C 0.06579 0.62124 0.73721
 C1684 C 0.06840 0.62228 0.71185
 C1685 C 0.08820 0.61006 0.70058
 C1686 C 0.10486 0.59620 0.71449
 C1687 C 0.11813 0.57923 0.75432
 C1688 C 0.13716 0.56616 0.74282
 C1689 C 0.15221 0.55054 0.75670
 C1690 C 0.14794 0.54769 0.78176
 C1691 C 0.12909 0.56138 0.79299
 C1692 C 0.11414 0.57714 0.77938
 C1693 C 0.12437 0.58321 0.70369
 C1694 C 0.14027 0.56848 0.71761
 C1695 C 0.07919 0.60528 0.77644
 C1696 C 0.09489 0.59038 0.79029
 H1697 H 0.12719 0.58419 0.68425
 H1698 H 0.15488 0.55854 0.70850
 H1699 H 0.06435 0.61493 0.78550
 H1700 H 0.09171 0.58896 0.80964
 H1701 H 0.05056 0.63072 0.74584
 H1702 H 0.09013 0.61082 0.68102
 H1703 H 0.16659 0.54000 0.74789
 H1704 H 0.12575 0.55945 0.81228
 C1705 C 0.09442 0.40478 0.25744
 C1706 C 0.10260 0.38101 0.26278
 C1707 C 0.08654 0.36477 0.27473
 C1708 C 0.06279 0.37253 0.28190
 C1709 C 0.05526 0.39666 0.27691
 C1710 C 0.07077 0.41269 0.26431
 C1711 C 0.11080 0.42166 0.24415
 C1712 C 0.10209 0.44502 0.23793
 C1713 C 0.11736 0.46071 0.22462
 C1714 C 0.14139 0.45348 0.21820
 C1715 C 0.15020 0.43029 0.22502
 C1716 C 0.13472 0.41405 0.23769
 C1717 C 0.06293 0.43637 0.25821
 C1718 C 0.07826 0.45221 0.24505
 C1719 C 0.12660 0.37398 0.25589
 C1720 C 0.14245 0.39028 0.24375
 H1721 H 0.04467 0.44262 0.26339
 H1722 H 0.07142 0.47024 0.24045
 H1723 H 0.13320 0.35574 0.25997
 H1724 H 0.16080 0.38413 0.23882
 H1725 H 0.09237 0.34618 0.27837
 H1726 H 0.03708 0.40279 0.28253
 H1727 H 0.11073 0.47869 0.21945
 H1728 H 0.16871 0.42473 0.21988
   
