data_POSCAR
  _audit_creation_date              2014-09-24
  _audit_creation_method            'ToBaCCo'
  _symmetry_space_group_name_H-M    'P1'
  _symmetry_Int_Tables_number       1
  _symmetry_cell_setting            triclinic
  loop_
  _symmetry_equiv_pos_as_xyz
 x,y,z
_cell_length_a 30.2709
_cell_length_b 30.3820
_cell_length_c 36.4133
_cell_angle_alpha 90.016200
_cell_angle_beta 89.932500
_cell_angle_gamma 89.985400
loop_
  _atom_site_label
  _atom_site_type_symbol
  _atom_site_fract_x
  _atom_site_fract_y
  _atom_site_fract_z
Zr1 Zr 0.24387 0.24151 0.31425
 O2 O 0.26907 0.26944 0.36334
 O3 O 0.20196 0.19310 0.33743
 O4 O 0.20020 0.28254 0.34475
 O5 O 0.33884 0.17895 0.30092
 O6 O 0.17049 0.32815 0.30164
 O7 O 0.28945 0.20301 0.34384
 O8 O 0.16491 0.16469 0.28840
 O9 O 0.18848 0.24437 0.28002
 O10 O 0.24974 0.18731 0.27906
 O11 O 0.24890 0.30242 0.28703
 O12 O 0.30532 0.24807 0.28700
 Zr13 Zr 0.25805 0.25805 0.18672
 Zr14 Zr 0.19479 0.30392 0.25118
 Zr15 Zr 0.30869 0.19526 0.24991
 Zr16 Zr 0.19622 0.19177 0.24325
 O17 O 0.37812 0.20095 0.24478
 O18 O 0.12691 0.19972 0.23735
 O19 O 0.25487 0.19648 0.21351
 O20 O 0.19761 0.25066 0.21461
 O21 O 0.25371 0.31267 0.22161
 O22 O 0.31358 0.25446 0.22084
 C23 C 0.17372 0.16671 0.32258
 C24 C 0.32590 0.18423 0.33453
 C25 C 0.17698 0.31635 0.33522
 O26 O 0.12533 0.29640 0.25123
 O27 O 0.16923 0.32819 0.20123
 O28 O 0.21315 0.29814 0.15696
 C29 C 0.17946 0.32099 0.16735
 O30 O 0.33223 0.32532 0.30992
 Zr31 Zr 0.30757 0.30688 0.25746
 O32 O 0.30043 0.30539 0.16333
 O33 O 0.19924 0.37340 0.25179
 O34 O 0.29629 0.37544 0.26363
 O35 O 0.37701 0.29753 0.25877
 O36 O 0.33354 0.33909 0.21192
 C37 C 0.32693 0.33390 0.17755
 O38 O 0.23155 0.23175 0.13743
 O39 O 0.30725 0.12576 0.25427
 O40 O 0.29894 0.21502 0.15625
 O41 O 0.32474 0.16608 0.19862
 O42 O 0.20758 0.12288 0.24159
 O43 O 0.17924 0.16754 0.19032
 C44 C 0.31860 0.17895 0.16516
 H45 H 0.25045 0.15903 0.29253
 H46 H 0.17208 0.24943 0.19773
 H47 H 0.34145 0.25555 0.20661
 H48 H 0.24918 0.32739 0.30445
 H49 H 0.11312 0.17018 0.23883
 H50 H 0.11260 0.32642 0.25238
 H51 H 0.16857 0.38481 0.25136
 H52 H 0.32513 0.39065 0.26134
 H53 H 0.17852 0.10802 0.24352
 H54 H 0.33836 0.11569 0.25480
 H55 H 0.38998 0.17062 0.24345
 H56 H 0.39110 0.32683 0.25631
 H57 H 0.15556 0.14524 0.19266
 H58 H 0.24609 0.24674 0.11635
 H59 H 0.25563 0.25353 0.38444
 H60 H 0.35351 0.34984 0.30710
 Zr61 Zr 0.75598 0.76275 0.31365
 O62 O 0.73381 0.73608 0.36428
 O63 O 0.79713 0.81156 0.33687
 O64 O 0.79953 0.72135 0.34359
 O65 O 0.66065 0.82539 0.29961
 O66 O 0.82988 0.67587 0.30058
 O67 O 0.70671 0.79753 0.34328
 O68 O 0.83299 0.84226 0.28826
 O69 O 0.81170 0.76021 0.27944
 O70 O 0.75019 0.81712 0.27873
 O71 O 0.75176 0.70192 0.28607
 O72 O 0.69487 0.75599 0.28629
 Zr73 Zr 0.74241 0.74657 0.18604
 Zr74 Zr 0.80612 0.70073 0.25005
 Zr75 Zr 0.69163 0.80886 0.24931
 Zr76 Zr 0.80398 0.81297 0.24291
 O77 O 0.62220 0.80307 0.24409
 O78 O 0.87337 0.80420 0.23881
 O79 O 0.74551 0.80799 0.21301
 O80 O 0.80291 0.75415 0.21372
 O81 O 0.74705 0.69196 0.22084
 O82 O 0.68688 0.74979 0.22022
 C83 C 0.82453 0.83918 0.32249
 C84 C 0.67111 0.81761 0.33336
 C85 C 0.82261 0.68744 0.33417
 O86 O 0.87556 0.70819 0.25043
 O87 O 0.83184 0.67689 0.19938
 O88 O 0.78560 0.70508 0.15596
 C89 C 0.81980 0.68257 0.16562
 O90 O 0.66908 0.67865 0.30944
 Zr91 Zr 0.69311 0.69736 0.25681
 O92 O 0.70017 0.69894 0.16283
 O93 O 0.80166 0.63128 0.25012
 O94 O 0.70455 0.62873 0.26219
 O95 O 0.62366 0.70654 0.25886
 O96 O 0.66637 0.66590 0.21156
 C97 C 0.67349 0.67073 0.17728
 O98 O 0.77003 0.77369 0.13749
 O99 O 0.69297 0.87837 0.25363
 O100 O 0.70138 0.78949 0.15555
 O101 O 0.67572 0.83799 0.19832
 O102 O 0.79198 0.88168 0.23971
 O103 O 0.82281 0.83713 0.19036
 C104 C 0.68175 0.82550 0.16480
 H105 H 0.74887 0.84534 0.29228
 H106 H 0.82826 0.75525 0.19659
 H107 H 0.65899 0.74870 0.20606
 H108 H 0.75134 0.67677 0.30329
 H109 H 0.88743 0.83355 0.24087
 H110 H 0.88821 0.67810 0.25082
 H111 H 0.83231 0.61997 0.24861
 H112 H 0.67568 0.61353 0.26024
 H113 H 0.82078 0.89699 0.24185
 H114 H 0.66186 0.88843 0.25427
 H115 H 0.61033 0.83336 0.24219
 H116 H 0.60959 0.67718 0.25685
 H117 H 0.84756 0.85817 0.19312
 H118 H 0.75548 0.75950 0.11607
 H119 H 0.74770 0.75321 0.38451
 H120 H 0.64824 0.65375 0.30678
 Zr121 Zr 0.76555 0.23876 -0.31701
 O122 O 0.73975 0.26350 -0.36710
 O123 O 0.81698 0.19986 -0.33944
 O124 O 0.80483 0.28448 -0.34635
 O125 O 0.67370 0.17157 -0.30546
 O126 O 0.83219 0.33070 -0.30257
 O127 O 0.72303 0.19711 -0.34774
 O128 O 0.84879 0.16651 -0.29007
 O129 O 0.81941 0.24432 -0.28131
 O130 O 0.76241 0.18336 -0.28299
 O131 O 0.75633 0.29895 -0.28920
 O132 O 0.70338 0.24133 -0.29069
 Zr133 Zr 0.74725 0.25253 -0.18952
 Zr134 Zr 0.80947 0.30324 -0.25233
 Zr135 Zr 0.70249 0.18773 -0.25437
 Zr136 Zr 0.81397 0.19040 -0.24553
 O137 O 0.63262 0.18796 -0.25098
 O138 O 0.88260 0.20105 -0.23748
 O139 O 0.75467 0.19144 -0.21661
 O140 O 0.80861 0.24896 -0.21653
 O141 O 0.74931 0.30798 -0.22368
 O142 O 0.69323 0.24607 -0.22496
 C143 C 0.84635 0.17502 -0.32427
 C144 C 0.68664 0.17763 -0.33885
 C145 C 0.82576 0.31945 -0.33640
 O146 O 0.87923 0.29972 -0.25297
 O147 O 0.83401 0.32680 -0.20147
 O148 O 0.78850 0.29562 -0.15883
 C149 C 0.82239 0.31905 -0.16794
 O150 O 0.67266 0.31698 -0.31355
 Zr151 Zr 0.69698 0.29945 -0.26076
 O152 O 0.69911 0.29470 -0.16681
 O153 O 0.80063 0.37225 -0.25083
 O154 O 0.70437 0.36867 -0.26582
 O155 O 0.62823 0.28624 -0.26359
 O156 O 0.66770 0.32919 -0.21575
 C157 C 0.67156 0.32191 -0.18143
 O158 O 0.77400 0.22870 -0.13948
 O159 O 0.70983 0.11867 -0.25914
 O160 O 0.70955 0.20552 -0.16020
 O161 O 0.68425 0.15814 -0.20397
 O162 O 0.80578 0.12105 -0.24549
 O163 O 0.83014 0.16623 -0.19241
 C164 C 0.68973 0.16991 -0.17018
 H165 H 0.76452 0.15578 -0.29739
 H166 H 0.83366 0.24867 -0.19914
 H167 H 0.66478 0.24488 -0.21156
 H168 H 0.75430 0.32430 -0.30612
 H169 H 0.89764 0.17208 -0.23853
 H170 H 0.89015 0.33047 -0.25284
 H171 H 0.83056 0.38540 -0.24996
 H172 H 0.67461 0.38214 -0.26421
 H173 H 0.83559 0.10766 -0.24674
 H174 H 0.67968 0.10626 -0.26107
 H175 H 0.62293 0.15682 -0.25096
 H176 H 0.61240 0.31469 -0.26147
 H177 H 0.85405 0.14413 -0.19444
 H178 H 0.75736 0.24245 -0.11887
 H179 H 0.75593 0.24919 -0.38770
 H180 H 0.65035 0.34063 -0.31101
 Zr181 Zr 0.24383 0.75419 -0.31231
 O182 O 0.26951 0.72705 -0.36157
 O183 O 0.19808 0.79838 -0.33577
 O184 O 0.20171 0.71156 -0.34221
 O185 O 0.33529 0.82118 -0.29872
 O186 O 0.17181 0.66631 -0.29881
 O187 O 0.29013 0.79257 -0.34250
 O188 O 0.16281 0.83052 -0.28759
 O189 O 0.18831 0.75087 -0.27795
 O190 O 0.24768 0.80927 -0.27803
 O191 O 0.24917 0.69373 -0.28436
 O192 O 0.30500 0.74935 -0.28491
 Zr193 Zr 0.25811 0.73944 -0.18436
 Zr194 Zr 0.19501 0.69201 -0.24824
 Zr195 Zr 0.30628 0.80273 -0.24838
 Zr196 Zr 0.19440 0.80427 -0.24191
 O197 O 0.37603 0.79924 -0.24493
 O198 O 0.12546 0.79349 -0.23618
 O199 O 0.25282 0.80061 -0.21180
 O200 O 0.19743 0.74592 -0.21218
 O201 O 0.25427 0.68438 -0.21883
 O202 O 0.31305 0.74409 -0.21910
 C203 C 0.16896 0.82483 -0.32204
 C204 C 0.32495 0.81418 -0.33263
 C205 C 0.17860 0.67784 -0.33251
 O206 O 0.12543 0.69792 -0.24990
 O207 O 0.16745 0.67098 -0.19769
 O208 O 0.21734 0.69431 -0.15525
 C209 C 0.18067 0.67526 -0.16410
 O210 O 0.33270 0.67325 -0.30766
 Zr211 Zr 0.30778 0.69083 -0.25503
 O212 O 0.30720 0.69831 -0.16096
 O213 O 0.20073 0.62269 -0.24649
 O214 O 0.29795 0.62203 -0.26117
 O215 O 0.37724 0.70019 -0.25589
 O216 O 0.33344 0.65890 -0.20955
 C217 C 0.33254 0.66886 -0.17552
 O218 O 0.22946 0.76220 -0.13466
 O219 O 0.30164 0.87216 -0.25170
 O220 O 0.29351 0.78733 -0.15399
 O221 O 0.32372 0.83170 -0.19775
 O222 O 0.20447 0.87336 -0.24074
 O223 O 0.17617 0.82986 -0.18968
 C224 C 0.31525 0.82179 -0.16401
 H225 H 0.24756 0.83714 -0.29212
 H226 H 0.17235 0.74727 -0.19480
 H227 H 0.34137 0.74464 -0.20553
 H228 H 0.25011 0.66840 -0.30140
 H229 H 0.11048 0.82239 -0.23807
 H230 H 0.11341 0.66760 -0.25070
 H231 H 0.17021 0.61091 -0.24621
 H232 H 0.32714 0.60744 -0.25922
 H233 H 0.17522 0.88773 -0.24322
 H234 H 0.33225 0.88358 -0.25267
 H235 H 0.38694 0.82989 -0.24314
 H236 H 0.39131 0.67083 -0.25386
 H237 H 0.15116 0.85056 -0.19258
 H238 H 0.24546 0.74810 -0.11392
 H239 H 0.25536 0.74254 -0.38255
 H240 H 0.35418 0.64888 -0.30510
 Zr241 Zr 1.25932 1.26293 0.81477
 O242 O 1.24299 1.24223 0.86872
 O243 O 1.29955 1.31353 0.83684
 O244 O 1.30116 1.21977 0.84447
 O245 O 1.16661 1.32913 0.80060
 O246 O 1.33051 1.17295 0.80206
 O247 O 1.20629 1.29240 0.84388
 O248 O 1.34832 1.32445 0.79087
 O249 O 1.31528 1.25872 0.78101
 O250 O 1.25542 1.31826 0.78057
 O251 O 1.25366 1.20217 0.78699
 O252 O 1.19853 1.25736 0.78674
 Zr253 Zr 1.24752 1.24880 0.68692
 Zr254 Zr 1.30856 1.19972 0.75152
 Zr255 Zr 1.19707 1.31104 0.75048
 Zr256 Zr 1.30965 1.31242 0.74509
 O257 O 1.12749 1.30643 0.74599
 O258 O 1.37803 1.31055 0.73231
 O259 O 1.25142 1.30968 0.71463
 O260 O 1.30761 1.25387 0.71570
 O261 O 1.25010 1.19333 0.72110
 O262 O 1.19152 1.25258 0.72054
 C263 C 1.33411 1.33199 0.82313
 C264 C 1.17368 1.31700 0.83404
 C265 C 1.32338 1.18521 0.83549
 O266 O 1.37803 1.20658 0.75308
 O267 O 1.33452 1.17603 0.70106
 O268 O 1.29083 1.20712 0.65714
 C269 C 1.32394 1.18326 0.66719
 O270 O 1.16903 1.18069 0.80817
 Zr271 Zr 1.19577 1.19929 0.75642
 O272 O 1.20479 1.20288 0.66210
 O273 O 1.30293 1.13034 0.75060
 O274 O 1.20607 1.13050 0.76196
 O275 O 1.12640 1.20929 0.75663
 O276 O 1.17079 1.16841 0.70998
 C277 C 1.17811 1.17412 0.67575
 O278 O 1.27665 1.27623 0.63913
 O279 O 1.20070 1.38053 0.75383
 O280 O 1.20817 1.29364 0.65645
 O281 O 1.18005 1.33997 0.69983
 O282 O 1.30179 1.38131 0.75227
 O283 O 1.32350 1.33917 0.69237
 C284 C 1.18704 1.32868 0.66617
 H285 H 1.25406 1.34621 0.79453
 H286 H 1.33336 1.25471 0.69898
 H287 H 1.16386 1.25231 0.70604
 H288 H 1.25206 1.17700 0.80415
 H289 H 1.38986 1.34075 0.73552
 H290 H 1.39035 1.17636 0.75316
 H291 H 1.33342 1.11845 0.75022
 H292 H 1.17716 1.11569 0.75878
 H293 H 1.33172 1.39351 0.75641
 H294 H 1.16994 1.39149 0.75545
 H295 H 1.11605 1.33694 0.74473
 H296 H 1.11211 1.18016 0.75362
 H297 H 1.33720 1.36857 0.69511
 H298 H 1.26229 1.26264 0.61737
 H299 H 1.25826 1.26230 0.88621
 H300 H 1.14823 1.15588 0.80479
 Zr301 Zr 0.74369 0.74515 0.81229
 O302 O 0.76567 0.77070 0.86330
 O303 O 0.70343 0.69506 0.83450
 O304 O 0.69953 0.78584 0.84276
 O305 O 0.83816 0.68211 0.79731
 O306 O 0.66944 0.83182 0.80007
 O307 O 0.79227 0.70948 0.84148
 O308 O 0.66934 0.66420 0.78511
 O309 O 0.68839 0.74776 0.77774
 O310 O 0.75079 0.69191 0.77615
 O311 O 0.74759 0.80668 0.78602
 O312 O 0.80524 0.75277 0.78559
 Zr313 Zr 0.75969 0.76571 0.68512
 Zr314 Zr 0.69385 0.80803 0.74944
 Zr315 Zr 0.80945 0.70145 0.74706
 Zr316 Zr 0.69745 0.69614 0.74024
 O317 O 0.87888 0.70851 0.74319
 O318 O 0.62802 0.70480 0.73667
 O319 O 0.75608 0.70323 0.71048
 O320 O 0.69886 0.75563 0.71214
 O321 O 0.75353 0.81881 0.72134
 O322 O 0.81457 0.76171 0.71972
 C323 C 0.67747 0.66666 0.81947
 C324 C 0.82719 0.68862 0.83116
 C325 C 0.67628 0.81978 0.83357
 O326 O 0.62450 0.79967 0.75026
 O327 O 0.66648 0.83099 0.69923
 O328 O 0.71486 0.80608 0.65596
 C329 C 0.67899 0.82583 0.66555
 O330 O 0.82936 0.82810 0.81162
 Zr331 Zr 0.80688 0.81245 0.75786
 O332 O 0.80126 0.81616 0.66438
 O333 O 0.69749 0.87754 0.74940
 O334 O 0.79526 0.88079 0.76539
 O335 O 0.87640 0.80398 0.76021
 O336 O 0.83418 0.84657 0.71455
 C337 C 0.82725 0.84409 0.68017
 O338 O 0.73571 0.74211 0.63402
 O339 O 0.80911 0.63177 0.74926
 O340 O 0.80133 0.72374 0.65399
 O341 O 0.82604 0.67350 0.69561
 O342 O 0.71156 0.62802 0.73477
 O343 O 0.67764 0.67284 0.68768
 C344 C 0.82047 0.68718 0.66238
 H345 H 0.75246 0.66325 0.78898
 H346 H 0.67378 0.75391 0.69485
 H347 H 0.84264 0.76372 0.70583
 H348 H 0.74756 0.83141 0.80367
 H349 H 0.61400 0.67546 0.73901
 H350 H 0.61138 0.82954 0.75111
 H351 H 0.66665 0.88849 0.74928
 H352 H 0.82423 0.89600 0.76519
 H353 H 0.68345 0.61161 0.73752
 H354 H 0.84034 0.62203 0.74930
 H355 H 0.89121 0.67848 0.74061
 H356 H 0.89013 0.83360 0.76010
 H357 H 0.65343 0.65120 0.69062
 H358 H 0.75080 0.75865 0.61403
 H359 H 0.75173 0.75302 0.88319
 H360 H 0.85014 0.85320 0.81038
 Zr361 Zr 1.25788 0.74102 0.18293
 O362 O 1.23209 0.76830 0.13376
 O363 O 1.30549 0.69878 0.15958
 O364 O 1.29948 0.78442 0.15344
 O365 O 1.16522 0.67506 0.19481
 O366 O 1.32763 0.83031 0.19711
 O367 O 1.21380 0.70128 0.15222
 O368 O 1.33925 0.66606 0.20836
 O369 O 1.31254 0.74534 0.21796
 O370 O 1.25422 0.68560 0.21685
 O371 O 1.25052 0.80125 0.21087
 O372 O 1.19610 0.74448 0.20963
 Zr373 Zr 1.24111 0.75441 0.31050
 Zr374 Zr 1.30396 0.80412 0.24747
 Zr375 Zr 1.19474 0.69073 0.24577
 Zr376 Zr 1.30665 0.69151 0.25367
 O377 O 1.12497 0.69232 0.25011
 O378 O 1.37549 0.70224 0.26011
 O379 O 1.24758 0.69351 0.28297
 O380 O 1.30231 0.74988 0.28322
 O381 O 1.24411 0.80993 0.27645
 O382 O 1.18672 0.74910 0.27533
 C383 C 1.33434 0.67282 0.17403
 C384 C 1.17759 0.68170 0.16132
 C385 C 1.32140 0.81879 0.16332
 O386 O 1.37364 0.79931 0.24757
 O387 O 1.32837 0.82770 0.29832
 O388 O 1.28242 0.79746 0.34107
 C389 C 1.31641 0.82064 0.33188
 O390 O 1.16712 0.82046 0.18692
 Zr391 Zr 1.19139 0.80265 0.23965
 O392 O 1.19270 0.79622 0.33362
 O393 O 1.29679 0.87334 0.24822
 O394 O 1.20007 0.87170 0.23447
 O395 O 1.12226 0.79138 0.23747
 O396 O 1.16352 0.83304 0.28487
 C397 C 1.16614 0.82446 0.31905
 O398 O 1.26832 0.73048 0.36034
 O399 O 1.20041 0.62155 0.24043
 O400 O 1.20416 0.70689 0.33992
 O401 O 1.17780 0.66027 0.29607
 O402 O 1.29744 0.62230 0.25463
 O403 O 1.32432 0.66686 0.30630
 C404 C 1.18437 0.67131 0.32988
 H405 H 1.25531 0.65792 0.20251
 H406 H 1.32738 0.74937 0.30059
 H407 H 1.15833 0.74822 0.28884
 H408 H 1.24931 0.82660 0.19389
 H409 H 1.39055 0.67336 0.25815
 H410 H 1.38511 0.82983 0.24662
 H411 H 1.32702 0.88578 0.24942
 H412 H 1.17057 0.88573 0.23617
 H413 H 1.32694 0.60836 0.25257
 H414 H 1.16998 0.60982 0.23860
 H415 H 1.11473 0.66136 0.25037
 H416 H 1.10728 0.82029 0.23950
 H417 H 1.34893 0.64561 0.30372
 H418 H 1.25180 0.74409 0.38109
 H419 H 1.24691 0.75369 0.11262
 H420 H 1.14536 0.84461 0.18947
 Zr421 Zr 0.74113 1.25952 0.18761
 O422 O 0.76851 1.23405 0.13834
 O423 O 0.69028 1.29895 0.16517
 O424 O 0.70117 1.21480 0.15778
 O425 O 0.83359 1.32497 0.19889
 O426 O 0.67191 1.17035 0.20196
 O427 O 0.78217 1.30255 0.15719
 O428 O 0.65869 1.33266 0.21458
 O429 O 0.68722 1.25420 0.22332
 O430 O 0.74470 1.31464 0.22199
 O431 O 0.74985 1.19903 0.21492
 O432 O 0.80335 1.25646 0.21372
 Zr433 Zr 0.75998 1.24448 0.31480
 Zr434 Zr 0.69700 1.19521 0.25206
 Zr435 Zr 0.80469 1.30984 0.25035
 Zr436 Zr 0.69298 1.30776 0.25935
 O437 O 0.87449 1.30961 0.25445
 O438 O 0.62438 1.29671 0.26719
 O439 O 0.75243 1.30581 0.28807
 O440 O 0.69845 1.24897 0.28824
 O441 O 0.75723 1.18941 0.28032
 O442 O 0.81383 1.25105 0.27915
 C443 C 0.66134 1.32440 0.18026
 C444 C 0.81927 1.32072 0.16567
 C445 C 0.67812 1.18131 0.16809
 O446 O 0.62730 1.19950 0.25353
 O447 O 0.67346 1.17052 0.30264
 O448 O 0.71964 1.20044 0.34530
 C449 C 0.68567 1.17726 0.33610
 O450 O 0.83317 1.18058 0.19004
 Zr451 Zr 0.80943 1.19788 0.24311
 O452 O 0.80866 1.20261 0.33741
 O453 O 0.70474 1.12604 0.25151
 O454 O 0.80149 1.12878 0.23761
 O455 O 0.87830 1.21037 0.24003
 O456 O 0.83851 1.16742 0.28799
 C457 C 0.83570 1.17513 0.32238
 O458 O 0.73238 1.26862 0.36448
 O459 O 0.79831 1.37894 0.24497
 O460 O 0.79819 1.29052 0.34429
 O461 O 0.82121 1.33998 0.30119
 O462 O 0.70183 1.37702 0.26022
 O463 O 0.67614 1.33184 0.31239
 C464 C 0.81636 1.32714 0.33484
 H465 H 0.74265 1.34239 0.20783
 H466 H 0.67362 1.24894 0.30590
 H467 H 0.84235 1.25196 0.29240
 H468 H 0.75095 1.17380 0.19779
 H469 H 0.60915 1.32554 0.26570
 H470 H 0.61596 1.16898 0.25176
 H471 H 0.67463 1.11330 0.25245
 H472 H 0.83117 1.11510 0.23898
 H473 H 0.67220 1.39073 0.25843
 H474 H 0.82861 1.39093 0.24283
 H475 H 0.88414 1.34075 0.25457
 H476 H 0.89381 1.18173 0.24200
 H477 H 0.65204 1.35372 0.31023
 H478 H 0.74868 1.25504 0.38530
 H479 H 0.75317 1.24826 0.11732
 H480 H 0.85546 1.15688 0.19228
 O481 O 0.55821 1.07877 0.06807
 O482 O 0.61019 1.04161 0.03384
 C483 C 0.59846 1.06872 0.06009
 O484 O 0.44042 0.92135 0.06434
 O485 O 0.38939 0.96182 0.03186
 C486 C 0.40034 0.93213 0.05626
 O487 O 0.56086 0.92575 0.06681
 O488 O 0.61144 0.96588 0.03350
 C489 C 0.60085 0.93721 0.05869
 O490 O 0.43866 1.08278 0.06367
 O491 O 0.38842 1.04102 0.03151
 C492 C 0.39873 1.07144 0.05537
 Zr493 Zr 0.49916 1.05760 0.04490
 O494 O 0.49530 1.06004 0.10290
 O495 O 0.50095 1.12687 0.03958
 Zr496 Zr 0.50025 0.94731 0.04519
 O497 O 0.49944 0.95191 0.10308
 O498 O 0.50378 0.87769 0.04537
 O499 O 0.53937 1.00266 0.05247
 O500 O 0.46079 1.00215 0.05181
 O501 O 0.43992 1.08331 -0.06504
 O502 O 0.38902 1.04160 -0.03346
 C503 C 0.39984 1.07245 -0.05683
 O504 O 0.56033 0.92261 -0.06590
 O505 O 0.61122 0.96322 -0.03346
 C506 C 0.60033 0.93363 -0.05797
 O507 O 0.44083 0.92176 -0.06596
 O508 O 0.38949 0.96227 -0.03387
 C509 C 0.40067 0.93289 -0.05844
 O510 O 0.56032 1.07545 -0.07091
 O511 O 0.61120 1.03899 -0.03519
 C512 C 0.60044 1.06510 -0.06224
 Zr513 Zr 0.50019 1.05802 -0.04605
 O514 O 0.49597 1.06539 -0.10363
 O515 O 0.50581 1.12729 -0.04070
 Zr516 Zr 0.50038 0.94749 -0.04646
 O517 O 0.50017 0.95235 -0.10451
 O518 O 0.49786 0.87787 -0.04912
 Zr519 Zr 0.56756 1.00262 -0.00046
 Zr520 Zr 0.43239 1.00196 -0.00088
 O521 O 0.46152 1.00261 -0.05340
 O522 O 0.53988 1.00269 -0.05359
 O523 O 0.45924 1.06606 -0.00070
 O524 O 0.53943 0.93938 -0.00044
 O525 O 0.53948 1.06597 -0.00044
 O526 O 0.46029 0.93835 -0.00075
 H527 H 0.44153 1.00222 0.07384
 H528 H 0.55930 0.91351 0.00030
 H529 H 0.44232 1.00275 -0.07542
 H530 H 0.55989 1.09149 -0.00064
 H531 H 0.48171 0.86676 0.02751
 H532 H 0.51712 0.86583 -0.02967
 H533 H 0.52782 0.96681 -0.11264
 H534 H 0.49601 1.03552 -0.11428
 H535 H 0.47856 1.13829 -0.02875
 H536 H 0.50064 1.13893 0.06488
 H537 H 0.51127 1.03398 0.11235
 H538 H 0.50003 0.92132 0.11255
 O539 O 1.06040 0.57999 0.56566
 O540 O 1.11076 0.53969 0.53219
 C541 C 1.10024 0.56841 0.55753
 O542 O 0.93786 0.42479 0.56539
 O543 O 0.88771 0.46635 0.53294
 C544 C 0.89805 0.43633 0.55724
 O545 O 1.05826 0.42796 0.56933
 O546 O 1.10974 0.46439 0.53409
 C547 C 1.09855 0.43781 0.56071
 O548 O 0.94067 0.58759 0.56161
 O549 O 0.88911 0.54606 0.53073
 C550 C 0.90039 0.57714 0.55370
 Zr551 Zr 1.00028 0.55968 0.54345
 O552 O 0.99677 0.56396 0.60139
 O553 O 1.00413 0.62866 0.53650
 Zr554 Zr 0.99823 0.44952 0.54656
 O555 O 0.99627 0.45648 0.60426
 O556 O 1.00066 0.37993 0.54884
 O557 O 1.03895 0.50396 0.55220
 O558 O 0.96027 0.50564 0.55189
 O559 O 0.94131 0.58204 0.43200
 O560 O 0.88941 0.54394 0.46556
 C561 C 0.90099 0.57271 0.44060
 O562 O 1.05707 0.42007 0.43494
 O563 O 1.10914 0.45962 0.46697
 C564 C 1.09741 0.43014 0.44269
 O565 O 0.93677 0.42140 0.43664
 O566 O 0.88718 0.46504 0.46785
 C567 C 0.89705 0.43392 0.44450
 O568 O 1.06115 0.57286 0.42785
 O569 O 1.11114 0.53540 0.46369
 C570 C 1.10097 0.56171 0.43662
 Zr571 Zr 1.00074 0.55653 0.45245
 O572 O 0.99837 0.56105 0.39467
 O573 O 1.00730 0.62588 0.45603
 Zr574 Zr 0.99760 0.44582 0.45503
 O575 O 0.99483 0.44491 0.39686
 O576 O 0.99259 0.37623 0.45733
 Zr577 Zr 1.06671 0.50102 0.49916
 Zr578 Zr 0.93169 0.50437 0.49930
 O579 O 0.96054 0.50190 0.44672
 O580 O 1.03864 0.49973 0.44613
 O581 O 0.96034 0.56759 0.49769
 O582 O 1.03696 0.43858 0.50103
 O583 O 1.04043 0.56509 0.49772
 O584 O 0.95769 0.44001 0.50111
 H585 H 0.94087 0.50691 0.57381
 H586 H 1.05646 0.41248 0.50241
 H587 H 0.94133 0.50155 0.42471
 H588 H 1.06139 0.59013 0.49686
 H589 H 0.98057 0.36869 0.52958
 H590 H 1.01838 0.36422 0.47062
 H591 H 1.02119 0.46044 0.38730
 H592 H 0.99714 0.53065 0.38518
 H593 H 0.98018 0.63774 0.46761
 H594 H 1.00467 0.64156 0.56150
 H595 H 1.01290 0.53828 0.61136
 H596 H 0.99463 0.42628 0.61449
 O597 O 0.92143 0.43770 -0.06750
 O598 O 0.96072 0.38808 -0.03271
 C599 C 0.93246 0.39809 -0.05860
 O600 O 1.08174 0.55796 -0.06496
 O601 O 1.03883 0.60932 -0.03500
 C602 C 1.07011 0.59807 -0.05803
 O603 O 1.07563 0.43748 -0.06709
 O604 O 1.03632 0.38773 -0.03236
 C605 C 1.06396 0.39782 -0.05856
 O606 O 0.91928 0.55723 -0.06820
 O607 O 0.95918 0.60905 -0.03621
 C608 C 0.93049 0.59740 -0.06116
 Zr609 Zr 0.94488 0.49811 -0.04780
 O610 O 0.95681 0.49578 -0.10499
 O611 O 0.87545 0.49875 -0.05441
 Zr612 Zr 1.05488 0.49849 -0.04596
 O613 O 1.05098 0.49770 -0.10393
 O614 O 1.12494 0.50030 -0.04591
 O615 O 1.00007 0.45830 -0.05312
 O616 O 0.99990 0.53729 -0.05430
 O617 O 0.91572 0.56024 0.06191
 O618 O 0.95734 0.61066 0.02983
 C619 C 0.92708 0.60006 0.05404
 O620 O 1.07386 0.44320 0.07016
 O621 O 1.03736 0.39085 0.03613
 C622 C 1.06408 0.40293 0.06255
 O623 O 1.07854 0.56189 0.06294
 O624 O 1.03670 0.61133 0.03006
 C625 C 1.06710 0.60149 0.05412
 O626 O 0.91886 0.44063 0.06570
 O627 O 0.95967 0.38953 0.03364
 C628 C 0.92998 0.40059 0.05795
 Zr629 Zr 0.94201 0.50034 0.04394
 O630 O 0.94454 0.50295 0.10195
 O631 O 0.87214 0.49695 0.04262
 Zr632 Zr 1.05269 0.50137 0.04554
 O633 O 1.05109 0.50858 0.10328
 O634 O 1.12250 0.49712 0.04499
 Zr635 Zr 0.99890 0.43229 0.00055
 Zr636 Zr 0.99810 0.56698 -0.00216
 O637 O 0.99695 0.53975 0.05091
 O638 O 0.99738 0.46139 0.05302
 O639 O 0.93428 0.53907 -0.00280
 O640 O 1.06221 0.46064 0.00075
 O641 O 0.93542 0.46039 -0.00130
 O642 O 1.06217 0.53985 -0.00085
 H643 H 1.00064 0.55601 -0.07659
 H644 H 1.08781 0.44039 0.00163
 H645 H 0.99665 0.55952 0.07256
 H646 H 0.90925 0.44084 -0.00125
 H647 H 1.13625 0.47308 -0.03438
 H648 H 1.13328 0.51674 0.02524
 H649 H 1.02558 0.49137 0.11232
 H650 H 0.91355 0.50250 0.11078
 H651 H 0.86166 0.51955 0.02510
 H652 H 0.86237 0.48610 -0.03190
 H653 H 0.92789 0.49043 -0.11686
 H654 H 1.08179 0.49857 -0.11316
 O655 O 0.41685 0.94329 0.43354
 O656 O 0.45543 0.89102 0.46623
 C657 C 0.42706 0.90296 0.44092
 O658 O 0.58112 1.05598 0.43441
 O659 O 0.54194 1.10845 0.46641
 C660 C 0.57173 1.09637 0.44241
 O661 O 0.57166 0.93633 0.43158
 O662 O 0.53177 0.88744 0.46674
 C663 C 0.55971 0.89691 0.44053
 O664 O 0.41692 1.06317 0.43818
 O665 O 0.46230 1.11206 0.46822
 C666 C 0.43040 1.10258 0.44544
 Zr667 Zr 0.44182 1.00209 0.45537
 O668 O 0.44717 1.00405 0.39752
 O669 O 0.37191 1.00591 0.45419
 Zr670 Zr 0.55168 0.99748 0.45268
 O671 O 0.54079 0.99786 0.39537
 O672 O 0.62108 0.99496 0.44574
 O673 O 0.49495 0.95986 0.44711
 O674 O 0.49820 1.03900 0.44718
 O675 O 0.42039 1.06278 0.56485
 O676 O 0.46404 1.11206 0.53350
 C677 C 0.43351 1.10221 0.55760
 O678 O 0.57578 0.93804 0.56638
 O679 O 0.53409 0.88840 0.53348
 C680 C 0.56381 0.89846 0.55819
 O681 O 0.58395 1.05729 0.56240
 O682 O 0.54323 1.10913 0.53120
 C683 C 0.57404 1.09754 0.55433
 O684 O 0.42178 0.94363 0.57071
 O685 O 0.45639 0.89113 0.53545
 C686 C 0.43052 0.90320 0.56250
 Zr687 Zr 0.44474 1.00207 0.54700
 O688 O 0.45168 1.00538 0.60472
 O689 O 0.37487 1.00052 0.54900
 Zr690 Zr 0.55521 0.99816 0.54440
 O691 O 0.55747 1.00233 0.60239
 O692 O 0.62473 0.99147 0.54090
 Zr693 Zr 0.49565 0.93253 0.50040
 Zr694 Zr 0.50107 1.06722 0.49983
 O695 O 0.50159 1.03893 0.55250
 O696 O 0.49869 0.96047 0.55325
 O697 O 0.43612 1.04219 0.50134
 O698 O 0.56007 0.95854 0.49861
 O699 O 0.43351 0.96316 0.50154
 O700 O 0.56386 1.03718 0.49818
 H701 H 0.49846 1.05862 0.42543
 H702 H 0.58533 0.93783 0.49830
 H703 H 0.50302 1.05836 0.57433
 H704 H 0.40720 0.94384 0.50244
 H705 H 0.63365 0.97971 0.46727
 H706 H 0.63567 1.01447 0.52393
 H707 H 0.53235 0.98501 0.61202
 H708 H 0.42178 1.01074 0.61489
 H709 H 0.36403 1.01957 0.52888
 H710 H 0.35973 0.98310 0.47069
 H711 H 0.41675 1.00789 0.38800
 H712 H 0.57040 0.99668 0.38378
 O713 O 1.10286 1.04839 0.44477
 O714 O 1.04902 1.02464 0.40509
 C715 C 1.08691 1.04282 0.41226
 O716 O 1.05897 0.90290 0.54841
 O717 O 1.03884 0.95562 0.59037
 C718 C 1.05808 0.91881 0.58120
 O719 O 1.05789 0.90288 0.44861
 O720 O 1.03046 0.95252 0.40701
 C721 C 1.05138 0.91654 0.41558
 O722 O 1.10324 1.05862 0.54496
 O723 O 1.05538 1.03222 0.58869
 C724 C 1.08988 1.05468 0.57849
 Zr725 Zr 1.07427 1.03772 0.49609
 O726 O 1.14192 1.02017 0.49859
 O727 O 1.08982 1.10542 0.49206
 Zr728 Zr 1.04284 0.93212 0.49867
 O729 O 1.11030 0.91371 0.50056
 O730 O 1.02322 0.86526 0.49643
 O731 O 1.06565 0.98172 0.46425
 O732 O 1.06817 0.98349 0.52923
 O733 O 0.95896 1.10096 0.54911
 O734 O 0.98404 1.04999 0.59075
 C735 C 0.96572 1.08734 0.58221
 O736 O 0.90312 0.95215 0.45298
 O737 O 0.95359 0.97268 0.40922
 C738 C 0.91639 0.95500 0.41939
 O739 O 0.90951 0.95032 0.55234
 O740 O 0.96300 0.97353 0.59239
 C741 C 0.92523 0.95503 0.58487
 O742 O 0.94842 1.09597 0.44940
 O743 O 0.97290 1.04515 0.40738
 C744 C 0.95275 1.08149 0.41630
 Zr745 Zr 0.96866 1.06901 0.49912
 O746 O 0.90173 1.08826 0.50478
 O747 O 0.98843 1.13559 0.49416
 Zr748 Zr 0.93748 0.96321 0.50154
 O749 O 0.86879 0.97538 0.50422
 O750 O 0.92460 0.89466 0.50006
 Zr751 Zr 1.00319 0.99946 0.44348
 Zr752 Zr 1.00825 1.00152 0.55434
 O753 O 0.94639 1.01923 0.53267
 O754 O 0.94282 1.01804 0.46781
 O755 O 1.02531 1.06222 0.53028
 O756 O 0.98631 0.93909 0.46788
 O757 O 1.02232 1.06068 0.46510
 O758 O 0.98910 0.93970 0.53363
 H759 H 1.09454 0.97749 0.54454
 H760 H 0.97825 0.91388 0.45196
 H761 H 0.92208 1.02748 0.54958
 H762 H 1.02882 1.08539 0.44817
 H763 H 1.00274 0.85987 0.51713
 H764 H 0.92991 0.88237 0.52483
 H765 H 0.86505 1.00706 0.50944
 H766 H 0.88470 1.07362 0.48506
 H767 H 1.01501 1.13957 0.50960
 H768 H 1.12248 1.10739 0.49087
 H769 H 1.14685 0.99639 0.48051
 H770 H 1.12497 0.92556 0.47838
 O771 O 0.60646 0.55132 -0.04983
 O772 O 0.55705 0.52593 -0.09256
 C773 C 0.59338 0.54585 -0.08327
 O774 O 0.55567 0.40178 0.05002
 O775 O 0.52842 0.45262 0.09081
 C776 C 0.54785 0.41561 0.08292
 O777 O 0.56546 0.40457 -0.04973
 O778 O 0.53926 0.45331 -0.09265
 C779 C 0.56067 0.41795 -0.08306
 O780 O 0.59970 0.55562 0.05018
 O781 O 0.54782 0.52983 0.09089
 C782 C 0.58390 0.55109 0.08285
 Zr783 Zr 0.57411 0.53752 -0.00042
 O784 O 0.64009 0.51497 0.00278
 O785 O 0.59359 0.60439 -0.00293
 Zr786 Zr 0.54431 0.43190 -0.00059
 O787 O 0.61154 0.41406 0.00526
 O788 O 0.52591 0.36485 -0.00528
 O789 O 0.56902 0.48227 -0.03331
 O790 O 0.56581 0.48278 0.03214
 O791 O 0.45220 0.59778 0.04635
 O792 O 0.47500 0.54699 0.08893
 C793 C 0.45548 0.58343 0.07957
 O794 O 0.41017 0.44786 -0.05519
 O795 O 0.46282 0.47314 -0.09527
 C796 C 0.42568 0.45376 -0.08779
 O797 O 0.40900 0.44173 0.04514
 O798 O 0.45642 0.46958 0.08843
 C799 C 0.42196 0.44683 0.07861
 O800 O 0.45088 0.59491 -0.05358
 O801 O 0.47974 0.54510 -0.09457
 C802 C 0.45778 0.58068 -0.08645
 Zr803 Zr 0.46787 0.56756 -0.00318
 O804 O 0.40056 0.58642 -0.00073
 O805 O 0.48756 0.63433 -0.00710
 Zr806 Zr 0.43780 0.46164 -0.00401
 O807 O 0.37084 0.48182 -0.00134
 O808 O 0.41783 0.39512 -0.00907
 Zr809 Zr 0.50826 0.49946 -0.05738
 Zr810 Zr 0.50354 0.49976 0.05341
 O811 O 0.44333 0.51673 0.02842
 O812 O 0.44558 0.51688 -0.03674
 O813 O 0.52195 0.56115 0.03123
 O814 O 0.49030 0.43852 -0.03445
 O815 O 0.52445 0.56051 -0.03395
 O816 O 0.48727 0.43821 0.03042
 H817 H 0.59027 0.47598 0.04930
 H818 H 0.48426 0.41324 -0.05091
 H819 H 0.41737 0.52316 0.04414
 H820 H 0.53183 0.58569 -0.05012
 H821 H 0.50478 0.35821 0.01470
 H822 H 0.43341 0.37805 0.01006
 H823 H 0.36447 0.49974 -0.02339
 H824 H 0.38496 0.57151 -0.02108
 H825 H 0.50617 0.64120 0.01446
 H826 H 0.57764 0.62053 0.01660
 H827 H 0.65907 0.54156 0.00306
 H828 H 0.62887 0.43306 -0.01146
 C829 C 0.33698 1.16471 0.09863
 C830 C 0.33232 1.14926 0.13473
 C831 C 0.33737 1.10351 0.14017
 C832 C 0.35289 1.07611 0.11156
 C833 C 0.36414 1.09365 0.07698
 C834 C 0.35332 1.13788 0.07071
 C835 C 0.37926 1.17463 0.05409
 C836 C 0.36128 1.20398 0.08451
 H837 H 0.33156 1.08922 0.16699
 H838 H 0.36044 1.04215 0.11759
 H839 H 0.36681 1.18376 0.02642
 H840 H 0.41555 1.16952 0.05584
 H841 H 0.33846 1.22990 0.07432
 H842 H 0.38713 1.21572 0.10386
 C843 C 0.84119 0.67315 0.59609
 C844 C 0.83412 0.65753 0.63185
 C845 C 0.83703 0.61152 0.63705
 C846 C 0.85276 0.58372 0.60879
 C847 C 0.86641 0.60109 0.57478
 C848 C 0.85786 0.64587 0.56857
 C849 C 0.88608 0.68167 0.55312
 C850 C 0.86777 0.71148 0.58310
 H851 H 0.82936 0.59719 0.66353
 H852 H 0.85857 0.54939 0.61483
 H853 H 0.87543 0.69151 0.52509
 H854 H 0.92200 0.67508 0.55611
 H855 H 0.84657 0.73840 0.57230
 H856 H 0.89307 0.72200 0.60341
 C857 C 0.65999 0.90055 0.14272
 C858 C 0.66794 0.85607 0.13510
 C859 C 0.66567 0.84312 0.09785
 C860 C 0.64888 0.87223 0.07088
 C861 C 0.63533 0.91522 0.08038
 C862 C 0.64426 0.92935 0.11620
 C863 C 0.61636 0.95330 0.14355
 C864 C 0.63340 0.92154 0.17245
 H865 H 0.67362 0.80967 0.08998
 H866 H 0.64256 0.85977 0.04352
 H867 H 0.58036 0.95007 0.13834
 H868 H 0.62832 0.98731 0.14817
 H869 H 0.60736 0.89939 0.18354
 H870 H 0.65456 0.93766 0.19343
 C871 C 1.15505 0.40113 0.64674
 C872 C 1.17136 0.35953 0.63716
 C873 C 1.17392 0.34990 0.59916
 C874 C 1.15446 0.37841 0.57285
 C875 C 1.13268 0.41732 0.58397
 C876 C 1.13589 0.42892 0.62110
 C877 C 1.10196 0.44449 0.64804
 C878 C 1.12326 0.41430 0.67610
 H879 H 1.18815 0.31912 0.58994
 H880 H 1.15295 0.36805 0.54442
 H881 H 1.06792 0.43412 0.64096
 H882 H 1.10567 0.47979 0.65514
 H883 H 1.10142 0.38681 0.68489
 H884 H 1.13971 0.43246 0.69878
 C885 C 0.65669 1.09807 -0.14966
 C886 C 0.67392 1.13951 -0.14088
 C887 C 0.67718 1.14989 -0.10304
 C888 C 0.65762 1.12245 -0.07605
 C889 C 0.63482 1.08389 -0.08628
 C890 C 0.63726 1.07133 -0.12330
 C891 C 0.60270 1.05578 -0.14962
 C892 C 0.62426 1.08489 -0.17843
 H893 H 0.69208 1.18058 -0.09439
 H894 H 0.65675 1.13353 -0.04778
 H895 H 0.56892 1.06694 -0.14235
 H896 H 0.60569 1.02020 -0.15602
 H897 H 0.60292 1.11266 -0.18742
 H898 H 0.64005 1.06593 -0.20102
 C899 C 1.15627 0.59732 0.34997
 C900 C 1.17050 0.63979 0.35900
 C901 C 1.17340 0.64994 0.39687
 C902 C 1.15586 0.62097 0.42368
 C903 C 1.13564 0.58104 0.41325
 C904 C 1.13898 0.56893 0.37617
 C905 C 1.10569 0.55116 0.34966
 C906 C 1.12487 0.58217 0.32110
 H907 H 1.18619 0.68149 0.40569
 H908 H 1.15407 0.63187 0.45197
 H909 H 1.07114 0.55946 0.35700
 H910 H 1.11151 0.51606 0.34280
 H911 H 1.10145 0.60838 0.31241
 H912 H 1.14200 0.56475 0.29832
 C913 C 0.34891 0.89363 -0.14571
 C914 C 0.32971 0.85364 -0.13537
 C915 C 0.32372 0.84640 -0.09724
 C916 C 0.34249 0.87548 -0.07098
 C917 C 0.36721 0.91241 -0.08238
 C918 C 0.36807 0.92151 -0.12014
 C919 C 0.40570 0.93173 -0.14552
 C920 C 0.38374 0.90244 -0.17375
 H921 H 0.30725 0.81693 -0.08767
 H922 H 0.34114 0.86685 -0.04214
 H923 H 0.43752 0.91757 -0.13628
 H924 H 0.40707 0.96673 -0.15401
 H925 H 0.40352 0.87272 -0.18072
 H926 H 0.37065 0.92098 -0.19769
 C927 C 0.83390 0.34190 0.40129
 C928 C 0.83004 0.35713 0.36506
 C929 C 0.83615 0.40269 0.35938
 C930 C 0.85192 0.42995 0.38799
 C931 C 0.86222 0.41243 0.42278
 C932 C 0.85027 0.36856 0.42923
 C933 C 0.87507 0.33135 0.44634
 C934 C 0.85710 0.30222 0.41584
 H935 H 0.83113 0.41686 0.33242
 H936 H 0.86045 0.46365 0.38181
 H937 H 0.86185 0.32267 0.47388
 H938 H 0.91148 0.33560 0.44501
 H939 H 0.83357 0.27682 0.42585
 H940 H 0.88310 0.28989 0.39684
 C941 C 1.10780 0.35586 0.15018
 C942 C 1.14753 0.33649 0.13911
 C943 C 1.15281 0.32857 0.10100
 C944 C 1.12199 0.34554 0.07521
 C945 C 1.08526 0.37050 0.08703
 C946 C 1.07833 0.37344 0.12507
 C947 C 1.06870 0.41182 0.14973
 C948 C 1.09997 0.39160 0.17746
 H949 H 1.18181 0.31149 0.09097
 H950 H 1.12915 0.34268 0.04617
 H951 H 1.03402 0.41284 0.15952
 H952 H 1.08174 0.44345 0.13915
 H953 H 1.08290 0.37935 0.20248
 H954 H 1.12990 0.41189 0.18265
 C955 C 0.60237 0.83922 0.64129
 C956 C 0.64816 0.83876 0.63559
 C957 C 0.66265 0.84422 0.59895
 C958 C 0.63287 0.85749 0.57112
 C959 C 0.58761 0.86418 0.57885
 C960 C 0.57293 0.85147 0.61378
 C961 C 0.54310 0.87373 0.64063
 C962 C 0.57537 0.86046 0.67061
 H963 H 0.69739 0.84129 0.59227
 H964 H 0.64605 0.86692 0.54460
 H965 H 0.51088 0.85645 0.64287
 H966 H 0.54109 0.90988 0.63645
 H967 H 0.56141 0.83601 0.69012
 H968 H 0.59241 0.88894 0.68354
 C969 C 1.10852 0.65218 -0.14380
 C970 C 1.15304 0.66205 -0.13670
 C971 C 1.16529 0.66202 -0.09898
 C972 C 1.13607 0.64572 -0.07153
 C973 C 1.09297 0.63149 -0.08055
 C974 C 1.07939 0.63849 -0.11675
 C975 C 1.05396 0.61086 -0.14321
 C976 C 1.08622 0.62569 -0.17283
 H977 H 1.19841 0.67123 -0.09080
 H978 H 1.14840 0.64096 -0.04392
 H979 H 1.02019 0.62411 -0.14741
 H980 H 1.05587 0.57511 -0.13722
 H981 H 1.07052 0.64671 -0.19409
 H982 H 1.10739 0.59860 -0.18345
 C983 C 0.61109 1.15339 0.35796
 C984 C 0.65572 1.16132 0.36570
 C985 C 0.66849 1.15887 0.40300
 C986 C 0.63896 1.14227 0.42996
 C987 C 0.59561 1.12939 0.42044
 C988 C 0.58199 1.13775 0.38439
 C989 C 0.55871 1.10915 0.35716
 C990 C 0.59040 1.12656 0.32829
 H991 H 0.70196 1.16698 0.41095
 H992 H 0.65113 1.13616 0.45744
 H993 H 0.52413 1.11965 0.35226
 H994 H 0.56309 1.07350 0.36255
 H995 H 0.57381 1.14739 0.30736
 H996 H 0.61299 1.10094 0.31715
 C997 C 0.83402 0.66054 0.09923
 C998 C 0.84824 0.66359 0.13591
 C999 C 0.89168 0.64926 0.14328
 C1000 C 0.91973 0.63454 0.11479
 C1001 C 0.90561 0.63320 0.07783
 C1002 C 0.86140 0.64442 0.07114
 C1003 C 0.84431 0.67801 0.04475
 C1004 C 0.81478 0.69525 0.07518
 H1005 H 0.90439 0.64991 0.17106
 H1006 H 0.95210 0.62198 0.12197
 H1007 H 0.82557 0.66266 0.02185
 H1008 H 0.87012 0.70188 0.03600
 H1009 H 0.77907 0.68989 0.06978
 H1010 H 0.82376 0.72906 0.08416
 C1011 C 0.34197 1.16619 0.60053
 C1012 C 0.35322 1.16475 0.63798
 C1013 C 0.39498 1.14714 0.64680
 C1014 C 0.42433 1.13312 0.61912
 C1015 C 0.41316 1.13566 0.58154
 C1016 C 0.37066 1.15086 0.57302
 C1017 C 0.35901 1.18866 0.54860
 C1018 C 0.32786 1.20481 0.57824
 H1019 H 0.40540 1.14456 0.67515
 H1020 H 0.45514 1.11778 0.62724
 H1021 H 0.34160 1.17774 0.52337
 H1022 H 0.38738 1.21116 0.54364
 H1023 H 0.29255 1.20287 0.57014
 H1024 H 0.33826 1.23669 0.59047
 C1025 C 0.84063 0.33273 -0.10088
 C1026 C 0.85276 0.33391 -0.13810
 C1027 C 0.89735 0.34430 -0.14581
 C1028 C 0.92614 0.35901 -0.11787
 C1029 C 0.91144 0.36376 -0.08131
 C1030 C 0.86887 0.34808 -0.07336
 C1031 C 0.83172 0.36861 -0.05250
 C1032 C 0.80094 0.35170 -0.08235
 H1033 H 0.90959 0.34311 -0.17375
 H1034 H 0.95855 0.37095 -0.12560
 H1035 H 0.83384 0.40512 -0.05155
 H1036 H 0.82631 0.35241 -0.02550
 H1037 H 0.78519 0.37838 -0.09863
 H1038 H 0.77799 0.32569 -0.07251
 C1039 C 0.38924 0.85053 0.35324
 C1040 C 0.34631 0.83668 0.36166
 C1041 C 0.33542 0.83413 0.39947
 C1042 C 0.36440 0.85116 0.42671
 C1043 C 0.40540 0.87008 0.41693
 C1044 C 0.41761 0.86719 0.37981
 C1045 C 0.43554 0.90086 0.35375
 C1046 C 0.40491 0.88210 0.32475
 H1047 H 0.30354 0.82148 0.40788
 H1048 H 0.35314 0.85284 0.45492
 H1049 H 0.47087 0.89562 0.34704
 H1050 H 0.42668 0.93502 0.36137
 H1051 H 0.42281 0.86529 0.30208
 H1052 H 0.37875 0.90552 0.31591
 C1053 C 1.11150 1.11584 0.33355
 C1054 C 1.15235 1.13294 0.34463
 C1055 C 1.17663 1.10949 0.37090
 C1056 C 1.15714 1.07419 0.38954
 C1057 C 1.11265 1.06267 0.38276
 C1058 C 1.09162 1.08174 0.35259
 C1059 C 1.04690 1.10226 0.34945
 C1060 C 1.06870 1.13939 0.32826
 H1061 H 1.21005 1.11913 0.37764
 H1062 H 1.17534 1.05901 0.41180
 H1063 H 1.03335 1.11299 0.37639
 H1064 H 1.02405 1.08219 0.33242
 H1065 H 1.06755 1.17156 0.34281
 H1066 H 1.05875 1.14051 0.29890
 C1067 C 0.67942 0.61853 -0.12561
 C1068 C 0.65843 0.63180 -0.15777
 C1069 C 0.62212 0.60656 -0.17004
 C1070 C 0.60314 0.57444 -0.14714
 C1071 C 0.62030 0.56710 -0.11173
 C1072 C 0.66065 0.58739 -0.10290
 C1073 C 0.67674 0.61086 -0.06924
 C1074 C 0.69771 0.64466 -0.09454
 H1075 H 0.60665 0.61349 -0.19621
 H1076 H 0.57290 0.55855 -0.15587
 H1077 H 0.70135 0.59117 -0.05367
 H1078 H 0.64965 0.62523 -0.05255
 H1079 H 0.73443 0.64402 -0.09402
 H1080 H 0.68258 0.67792 -0.09221
 C1081 C 0.90291 1.11761 0.66587
 C1082 C 0.88152 1.15579 0.65364
 C1083 C 0.89916 1.17798 0.62324
 C1084 C 0.93251 1.15807 0.60231
 C1085 C 0.94766 1.11530 0.61114
 C1086 C 0.93504 1.09737 0.64482
 C1087 C 0.91830 1.05242 0.65411
 C1088 C 0.88340 1.07472 0.67757
 H1089 H 0.88596 1.20953 0.61477
 H1090 H 0.94297 1.17416 0.57722
 H1091 H 0.94256 1.03312 0.67038
 H1092 H 0.90419 1.03498 0.62999
 H1093 H 0.88787 1.06865 0.70744
 H1094 H 0.84919 1.06988 0.66722
 C1095 C 0.37369 0.66445 0.11510
 C1096 C 0.36419 0.64869 0.15003
 C1097 C 0.38570 0.61009 0.16226
 C1098 C 0.41813 0.58983 0.14052
 C1099 C 0.42995 0.60831 0.10655
 C1100 C 0.40601 0.64486 0.09405
 C1101 C 0.42249 0.68818 0.08028
 C1102 C 0.38666 0.70969 0.10332
 H1103 H 0.37795 0.59595 0.18880
 H1104 H 0.43341 0.55970 0.15006
 H1105 H 0.41716 0.69210 0.05026
 H1106 H 0.45651 0.69573 0.08991
 H1107 H 0.36054 0.72572 0.08659
 H1108 H 0.39975 0.72998 0.12629
 C1109 C 1.11250 0.87941 0.66839
 C1110 C 1.14395 0.84889 0.65511
 C1111 C 1.14906 0.84571 0.61680
 C1112 C 1.12071 0.86845 0.59339
 C1113 C 1.08641 0.89540 0.60729
 C1114 C 1.08486 0.90271 0.64499
 C1115 C 1.04656 0.89941 0.67061
 C1116 C 1.07666 0.87393 0.69632
 H1117 H 1.17389 0.82456 0.60456
 H1118 H 1.12551 0.86411 0.56414
 H1119 H 1.01909 0.87928 0.65925
 H1120 H 1.03664 0.93208 0.68162
 H1121 H 1.06660 0.83899 0.69992
 H1122 H 1.08399 0.89193 0.72218
 C1123 C 0.60726 0.38427 0.16864
 C1124 C 0.62727 0.34481 0.15755
 C1125 C 0.61025 0.32324 0.12659
 C1126 C 0.57904 0.34443 0.10435
 C1127 C 0.56520 0.38786 0.11239
 C1128 C 0.57712 0.40569 0.14630
 C1129 C 0.59540 0.44999 0.15559
 C1130 C 0.62823 0.42651 0.18029
 H1131 H 0.62247 0.29108 0.11868
 H1132 H 0.56906 0.32844 0.07909
 H1133 H 0.57128 0.47053 0.17100
 H1134 H 0.61117 0.46651 0.13168
 H1135 H 0.62287 0.43338 0.20994
 H1136 H 0.66304 0.42954 0.17081
 C1137 C 0.82961 0.88033 0.38104
 C1138 C 0.84558 0.87220 0.34587
 C1139 C 0.87921 0.90001 0.33207
 C1140 C 0.90043 0.93032 0.35516
 C1141 C 0.88792 0.93367 0.39222
 C1142 C 0.85043 0.91012 0.40381
 C1143 C 0.84347 0.88117 0.43664
 C1144 C 0.82045 0.84884 0.41146
 H1145 H 0.89097 0.89665 0.30411
 H1146 H 0.92862 0.94836 0.34475
 H1147 H 0.82096 0.89634 0.45722
 H1148 H 0.87481 0.86778 0.44784
 H1149 H 0.78463 0.84568 0.41722
 H1150 H 0.83848 0.81715 0.40830
 C1151 C 0.33347 0.39508 -0.13406
 C1152 C 0.35699 0.36653 -0.15670
 C1153 C 0.40119 0.37760 -0.16510
 C1154 C 0.42285 0.41108 -0.14554
 C1155 C 0.40049 0.43356 -0.11732
 C1156 C 0.35473 0.42722 -0.11421
 C1157 C 0.32364 0.42195 -0.08244
 C1158 C 0.30000 0.38694 -0.10489
 H1159 H 0.41978 0.35870 -0.18506
 H1160 H 0.45798 0.41577 -0.14970
 H1161 H 0.30325 0.45187 -0.07778
 H1162 H 0.33922 0.40795 -0.05742
 H1163 H 0.26651 0.39727 -0.11384
 H1164 H 0.30233 0.35336 -0.09290
 C1165 C 1.14747 0.32165 -0.09988
 C1166 C 1.14070 0.32971 -0.13749
 C1167 C 1.09994 0.34884 -0.14742
 C1168 C 1.07109 0.36561 -0.12044
 C1169 C 1.08199 0.36354 -0.08283
 C1170 C 1.11905 0.33857 -0.07318
 C1171 C 1.15610 0.34863 -0.04757
 C1172 C 1.18712 0.32997 -0.07653
 H1173 H 1.09161 0.35371 -0.17605
 H1174 H 1.04259 0.38443 -0.12921
 H1175 H 1.15464 0.32829 -0.02224
 H1176 H 1.16055 0.38454 -0.04291
 H1177 H 1.20344 0.29893 -0.06780
 H1178 H 1.20948 0.35503 -0.08855
 C1179 C 0.64939 0.82777 0.40004
 C1180 C 0.63886 0.83014 0.36253
 C1181 C 0.59512 0.84237 0.35374
 C1182 C 0.56607 0.85811 0.38111
 C1183 C 0.57967 0.86192 0.41797
 C1184 C 0.62080 0.84377 0.42700
 C1185 C 0.65792 0.86197 0.44926
 C1186 C 0.68909 0.84434 0.41996
 H1187 H 0.58413 0.84253 0.32546
 H1188 H 0.53471 0.87174 0.37281
 H1189 H 0.66139 0.84484 0.47606
 H1190 H 0.65750 0.89850 0.45084
 H1191 H 0.71024 0.81696 0.42996
 H1192 H 0.70670 0.87066 0.40459
 C1193 C 0.89507 0.64795 -0.15015
 C1194 C 0.85784 0.67233 -0.14014
 C1195 C 0.85157 0.68077 -0.10219
 C1196 C 0.87849 0.65998 -0.07548
 C1197 C 0.91178 0.63029 -0.08637
 C1198 C 0.92044 0.62649 -0.12408
 C1199 C 0.92509 0.58670 -0.14810
 C1200 C 0.89876 0.61105 -0.17699
 H1201 H 0.82433 0.70111 -0.09304
 H1202 H 0.87069 0.66399 -0.04664
 H1203 H 0.90658 0.55790 -0.13753
 H1204 H 0.95962 0.57990 -0.15655
 H1205 H 0.86640 0.59539 -0.18318
 H1206 H 0.91871 0.62031 -0.20144
 C1207 C 0.33855 1.16468 0.40073
 C1208 C 0.35526 1.17010 0.36507
 C1209 C 0.40132 1.16516 0.36053
 C1210 C 0.42786 1.14922 0.38962
 C1211 C 0.40903 1.13743 0.42369
 C1212 C 0.36443 1.14802 0.42906
 C1213 C 0.32696 1.12169 0.44429
 C1214 C 0.29874 1.13998 0.41337
 H1215 H 0.41648 1.17138 0.33409
 H1216 H 0.46217 1.14180 0.38426
 H1217 H 0.31641 1.13344 0.47182
 H1218 H 0.33214 1.08560 0.44215
 H1219 H 0.27210 1.16232 0.42310
 H1220 H 0.28819 1.11445 0.39334
 C1221 C 1.16056 0.66543 0.09478
 C1222 C 1.14678 0.66859 0.13146
 C1223 C 1.10138 0.66172 0.13852
 C1224 C 1.07296 0.64582 0.11080
 C1225 C 1.08914 0.63630 0.07537
 C1226 C 1.13273 0.64893 0.06759
 C1227 C 1.16959 0.62463 0.04933
 C1228 C 1.19997 0.64282 0.07892
 H1229 H 1.08827 0.66612 0.16596
 H1230 H 1.03957 0.63651 0.11820
 H1231 H 1.17702 0.63788 0.02157
 H1232 H 1.16569 0.58831 0.05074
 H1233 H 1.22469 0.66661 0.06815
 H1234 H 1.21355 0.61704 0.09742
 C1235 C 0.67045 1.15824 0.59491
 C1236 C 0.65610 1.16402 0.63122
 C1237 C 0.61029 1.15933 0.63783
 C1238 C 0.58170 1.14322 0.61031
 C1239 C 0.59810 1.13119 0.57550
 C1240 C 0.64242 1.14135 0.56800
 C1241 C 0.67849 1.11452 0.55121
 C1242 C 0.70911 1.13312 0.58047
 H1243 H 0.59684 1.16582 0.66487
 H1244 H 0.54772 1.13599 0.61748
 H1245 H 0.68693 1.12581 0.52303
 H1246 H 0.67302 1.07853 0.55406
 H1247 H 0.73500 1.15521 0.56911
 H1248 H 0.72126 1.10789 0.60015
 C1249 C 0.89464 0.33557 0.13943
 C1250 C 0.84864 0.33468 0.13510
 C1251 C 0.83220 0.34367 0.09959
 C1252 C 0.86043 0.36024 0.07186
 C1253 C 0.90592 0.36659 0.07859
 C1254 C 0.92254 0.35085 0.11190
 C1255 C 0.95316 0.37147 0.13894
 C1256 C 0.92253 0.35497 0.16906
 H1257 H 0.79714 0.34127 0.09406
 H1258 H 0.84603 0.37189 0.04644
 H1259 H 0.95422 0.40796 0.13675
 H1260 H 0.98578 0.35476 0.13906
 H1261 H 0.90554 0.38195 0.18415
 H1262 H 0.93785 0.32930 0.18667
 C1263 C 0.39163 0.85245 0.65108
 C1264 C 0.35317 0.82951 0.64114
 C1265 C 0.34704 0.82246 0.60281
 C1266 C 0.37532 0.84256 0.57638
 C1267 C 0.41025 0.87033 0.58749
 C1268 C 0.41837 0.87298 0.62532
 C1269 C 0.42620 0.91153 0.65006
 C1270 C 0.39800 0.88842 0.67853
 H1271 H 0.31920 0.80343 0.59298
 H1272 H 0.36750 0.83943 0.54749
 H1273 H 0.41017 0.94209 0.64023
 H1274 H 0.46117 0.91516 0.65858
 H1275 H 0.36687 0.90630 0.68496
 H1276 H 0.41718 0.87723 0.70280
 C1277 C 0.33640 1.10982 -0.13840
 C1278 C 0.33752 1.15565 -0.13418
 C1279 C 0.34641 1.17166 -0.09851
 C1280 C 0.36130 1.14290 -0.07053
 C1281 C 0.36584 1.09726 -0.07705
 C1282 C 0.34994 1.08141 -0.11063
 C1283 C 0.36959 1.04991 -0.13749
 C1284 C 0.35493 1.08105 -0.16781
 H1285 H 0.34509 1.20667 -0.09300
 H1286 H 0.37320 1.15688 -0.04502
 H1287 H 0.35136 1.01818 -0.13774
 H1288 H 0.40609 1.04716 -0.13500
 H1289 H 0.32870 1.06695 -0.18561
 H1290 H 0.38296 1.09663 -0.18267
 C1291 C 0.84517 0.61250 0.35572
 C1292 C 0.83754 0.65695 0.36369
 C1293 C 0.83898 0.66913 0.40119
 C1294 C 0.85457 0.63922 0.42817
 C1295 C 0.86758 0.59605 0.41851
 C1296 C 0.85992 0.58301 0.38214
 C1297 C 0.88870 0.55970 0.35493
 C1298 C 0.87225 0.59186 0.32615
 H1299 H 0.83094 0.70247 0.40933
 H1300 H 0.86012 0.65106 0.45585
 H1301 H 0.87766 0.52553 0.34949
 H1302 H 0.92445 0.56336 0.36063
 H1303 H 0.85144 0.57597 0.30482
 H1304 H 0.89850 0.61410 0.31554
 C1305 C 0.66426 1.16003 0.10154
 C1306 C 0.65936 1.15185 0.13936
 C1307 C 0.63753 1.11273 0.14937
 C1308 C 0.62342 1.08255 0.12265
 C1309 C 0.63061 1.08975 0.08482
 C1310 C 0.64931 1.13023 0.07485
 C1311 C 0.68935 1.13812 0.05170
 C1312 C 0.70503 1.17070 0.08043
 H1313 H 0.63139 1.10507 0.17797
 H1314 H 0.60392 1.05468 0.13149
 H1315 H 0.68089 1.15391 0.02508
 H1316 H 0.71078 1.10850 0.04938
 H1317 H 0.70506 1.20528 0.07047
 H1318 H 0.73568 1.16009 0.09471
 C1319 C 1.15739 0.66267 0.60136
 C1320 C 1.16086 0.64882 0.63804
 C1321 C 1.14887 0.60491 0.64569
 C1322 C 1.13578 0.57612 0.61740
 C1323 C 1.13369 0.59000 0.58050
 C1324 C 1.14287 0.63442 0.57349
 C1325 C 1.17585 0.65282 0.54706
 C1326 C 1.19135 0.68341 0.57730
 H1327 H 1.15017 0.59243 0.67352
 H1328 H 1.12477 0.54342 0.62460
 H1329 H 1.15968 0.67043 0.52394
 H1330 H 1.20117 0.62825 0.53864
 H1331 H 1.18403 0.71863 0.57173
 H1332 H 1.22564 0.67625 0.58640
 C1333 C 0.65351 0.83575 -0.10045
 C1334 C 0.65906 0.84933 -0.13700
 C1335 C 0.65016 0.89400 -0.14476
 C1336 C 0.63796 0.92364 -0.11677
 C1337 C 0.63351 0.90996 -0.08000
 C1338 C 0.63967 0.86493 -0.07288
 C1339 C 0.67056 0.84446 -0.04579
 C1340 C 0.68525 0.81297 -0.07571
 H1341 H 0.65333 0.90648 -0.17249
 H1342 H 0.62946 0.95704 -0.12423
 H1343 H 0.65253 0.82784 -0.02309
 H1344 H 0.69703 0.86741 -0.03673
 H1345 H 0.67560 0.77826 -0.07036
 H1346 H 0.72022 0.81800 -0.08402
 C1347 C 1.15321 0.33250 0.40097
 C1348 C 1.15863 0.34572 0.36430
 C1349 C 1.14762 0.38974 0.35590
 C1350 C 1.13386 0.41926 0.38342
 C1351 C 1.13011 0.40616 0.42037
 C1352 C 1.13797 0.36157 0.42813
 C1353 C 1.16939 0.34277 0.45564
 C1354 C 1.18555 0.31134 0.42617
 H1355 H 1.15029 0.40185 0.32801
 H1356 H 1.12388 0.45208 0.37553
 H1357 H 1.15182 0.32588 0.47845
 H1358 H 1.19487 0.36687 0.46456
 H1359 H 1.17713 0.27640 0.43188
 H1360 H 1.22039 0.31745 0.41795
 C1361 C 0.34488 0.89360 0.14181
 C1362 C 0.33633 0.84937 0.13385
 C1363 C 0.33697 0.83725 0.09631
 C1364 C 0.35259 0.86685 0.06914
 C1365 C 0.36656 0.90970 0.07864
 C1366 C 0.35978 0.92284 0.11518
 C1367 C 0.38961 0.94531 0.14206
 C1368 C 0.37300 0.91341 0.17101
 H1369 H 0.32816 0.80412 0.08819
 H1370 H 0.35748 0.85492 0.04139
 H1371 H 0.37953 0.97969 0.14780
 H1372 H 0.42514 0.94084 0.13579
 H1373 H 0.35299 0.92962 0.19276
 H1374 H 0.39892 0.89048 0.18112
 C1375 C 0.84317 0.39595 0.64189
 C1376 C 0.83853 0.35104 0.63418
 C1377 C 0.84013 0.33879 0.59671
 C1378 C 0.85335 0.36937 0.56946
 C1379 C 0.86398 0.41324 0.57875
 C1380 C 0.85558 0.42619 0.61510
 C1381 C 0.88284 0.45168 0.64198
 C1382 C 0.86916 0.41855 0.67106
 H1383 H 0.83420 0.30497 0.58874
 H1384 H 0.85959 0.35753 0.54187
 H1385 H 0.86919 0.48495 0.64732
 H1386 H 0.91871 0.45081 0.63584
 H1387 H 0.84760 0.43297 0.69266
 H1388 H 0.89707 0.39821 0.68136
 C1389 C 1.16783 1.13953 0.61481
 C1390 C 1.15372 1.14544 0.65084
 C1391 C 1.11620 1.12182 0.66299
 C1392 C 1.09607 1.09043 0.64022
 C1393 C 1.11352 1.08183 0.60517
 C1394 C 1.14827 1.10838 0.59262
 C1395 C 1.19147 1.09539 0.57593
 C1396 C 1.21293 1.12984 0.60031
 H1397 H 1.10302 1.12681 0.69034
 H1398 H 1.06717 1.07302 0.65004
 H1399 H 1.19320 1.10367 0.54623
 H1400 H 1.20119 1.06110 0.58295
 H1401 H 1.22675 1.15803 0.58465
 H1402 H 1.23529 1.11569 0.62146
 C1403 C 0.66838 0.62683 0.12086
 C1404 C 0.64919 0.64134 0.15329
 C1405 C 0.60742 0.62457 0.16354
 C1406 C 0.58667 0.59218 0.14215
 C1407 C 0.60798 0.57564 0.11079
 C1408 C 0.64836 0.59449 0.10033
 C1409 C 0.69135 0.57236 0.09221
 C1410 C 0.71341 0.60815 0.11471
 H1411 H 0.59111 0.63617 0.18821
 H1412 H 0.55399 0.58080 0.14970
 H1413 H 0.69993 0.57389 0.06255
 H1414 H 0.69379 0.53911 0.10482
 H1415 H 0.73452 0.63036 0.09801
 H1416 H 0.72892 0.59579 0.14040
 C1417 C 1.11587 0.82545 0.37236
 C1418 C 1.13355 0.84661 0.34189
 C1419 C 1.11378 0.88645 0.33038
 C1420 C 1.08270 0.90779 0.35279
 C1421 C 1.07116 0.88943 0.38688
 C1422 C 1.08586 0.84650 0.39467
 C1423 C 1.10502 0.82545 0.42838
 C1424 C 1.13770 0.80214 0.40339
 H1425 H 1.12423 0.90242 0.30524
 H1426 H 1.07116 0.94023 0.34503
 H1427 H 1.08137 0.80260 0.44187
 H1428 H 1.12156 0.84916 0.44708
 H1429 H 1.13257 0.76594 0.40211
 H1430 H 1.17247 0.81281 0.40763
 C1431 C 0.63081 0.32863 -0.12304
 C1432 C 0.63995 0.34467 -0.15793
 C1433 C 0.61455 0.38043 -0.17115
 C1434 C 0.58584 0.40329 -0.14757
 C1435 C 0.58221 0.39041 -0.11066
 C1436 C 0.60294 0.35110 -0.09985
 C1437 C 0.63089 0.34030 -0.06710
 C1438 C 0.66127 0.31532 -0.09287
 H1439 H 0.61863 0.39230 -0.19899
 H1440 H 0.56913 0.43247 -0.15749
 H1441 H 0.61342 0.31861 -0.04725
 H1442 H 0.64698 0.36975 -0.05491
 H1443 H 0.66100 0.27916 -0.08820
 H1444 H 0.69461 0.33038 -0.09547
 C1445 C 0.88833 1.11372 0.33288
 C1446 C 0.86848 1.15281 0.34505
 C1447 C 0.88618 1.17354 0.37612
 C1448 C 0.91810 1.15198 0.39726
 C1449 C 0.93208 1.10890 0.38810
 C1450 C 0.91923 1.09188 0.35418
 C1451 C 0.90107 1.04779 0.34439
 C1452 C 0.86726 1.07168 0.32090
 H1453 H 0.87439 1.20559 0.38471
 H1454 H 0.92905 1.16768 0.42236
 H1455 H 0.88622 1.03051 0.36831
 H1456 H 0.92493 1.02808 0.32800
 H1457 H 0.83280 1.06815 0.33111
 H1458 H 0.87167 1.06567 0.29101
 C1459 C 0.38314 0.60628 -0.16459
 C1460 C 0.36634 0.64718 -0.15344
 C1461 C 0.38977 0.67076 -0.12669
 C1462 C 0.42481 0.65068 -0.10795
 C1463 C 0.43641 0.60644 -0.11527
 C1464 C 0.41709 0.58594 -0.14554
 C1465 C 0.39583 0.54176 -0.14870
 C1466 C 0.35898 0.56397 -0.16998
 H1467 H 0.38040 0.70414 -0.11967
 H1468 H 0.44011 0.66840 -0.08550
 H1469 H 0.38471 0.52873 -0.12171
 H1470 H 0.41569 0.51860 -0.16564
 H1471 H 0.32659 0.56324 -0.15553
 H1472 H 0.35789 0.55405 -0.19935
 C1473 C 0.83020 0.89653 0.62846
 C1474 C 0.85047 0.87695 0.65843
 C1475 C 0.89177 0.89385 0.66998
 C1476 C 0.91518 0.92365 0.64776
 C1477 C 0.89735 0.93675 0.61390
 C1478 C 0.85313 0.92535 0.60644
 C1479 C 0.82995 0.90861 0.57273
 C1480 C 0.80464 0.87729 0.59750
 H1481 H 0.90730 0.88175 0.69479
 H1482 H 0.94848 0.93289 0.65537
 H1483 H 0.85204 0.89083 0.55336
 H1484 H 0.80855 0.93411 0.55998
 H1485 H 0.81263 0.84207 0.59247
 H1486 H 0.76886 0.88516 0.59943
 C1487 C 0.34142 0.36493 0.11597
 C1488 C 0.35239 0.36222 0.15296
 C1489 C 0.38909 0.38673 0.16567
 C1490 C 0.41150 0.41583 0.14209
 C1491 C 0.39709 0.42121 0.10570
 C1492 C 0.36304 0.39384 0.09308
 C1493 C 0.32149 0.40531 0.07311
 C1494 C 0.29772 0.37333 0.09836
 H1495 H 0.40004 0.38401 0.19387
 H1496 H 0.43963 0.43409 0.15234
 H1497 H 0.32228 0.39423 0.04401
 H1498 H 0.31147 0.44018 0.07728
 H1499 H 0.28491 0.34378 0.08386
 H1500 H 0.27380 0.38954 0.11723
   
