data_POSCAR
  _audit_creation_date              2014-09-24
  _audit_creation_method            'ToBaCCo'
  _symmetry_space_group_name_H-M    'P1'
  _symmetry_Int_Tables_number       1
  _symmetry_cell_setting            triclinic
  loop_
  _symmetry_equiv_pos_as_xyz
 x,y,z
_cell_length_a 81.8527
_cell_length_b 81.8726
_cell_length_c 81.9500
_cell_angle_alpha 89.988800
_cell_angle_beta 90.028300
_cell_angle_gamma 90.024700
loop_
  _atom_site_label
  _atom_site_type_symbol
  _atom_site_fract_x
  _atom_site_fract_y
  _atom_site_fract_z
N1 N 0.31502 0.43526 0.93489
 N2 N 0.43651 0.81439 0.43601
 N3 N 0.93417 0.93366 0.81585
 N4 N 0.43470 -0.06433 0.31515
 N5 N 0.81408 0.31400 0.31403
 N6 N -0.18437 0.81543 0.81452
 N7 N 0.93473 0.31526 0.43465
 N8 N 0.43381 0.43332 0.81676
 N9 N 0.81529 0.93501 0.93397
 N10 N 0.31410 0.81462 0.31394
 N11 N 0.81420 0.43671 0.43658
 N12 N 0.93541 0.81521 -0.06584
 N13 N 0.31513 0.31518 0.81522
 N14 N 0.18685 0.56395 0.56376
 N15 N 0.56567 0.68513 0.06544
 N16 N 0.68607 0.18630 0.68571
 N17 N 1.06249 0.06270 0.18689
 N18 N 0.06384 0.18625 1.06402
 N19 N 0.18664 0.68615 0.68559
 N20 N 1.18596 0.18643 0.18590
 N21 N 0.68644 1.06434 0.56341
 N22 N 0.56546 0.56574 0.18520
 N23 N 0.68364 0.68384 0.18311
 N24 N 0.18612 0.06427 1.06396
 N25 N 0.56367 0.18664 0.56396
 N26 N 0.06294 0.56263 0.68715
 N27 N 0.68527 0.56531 0.06560
 N28 N 0.06467 0.68607 0.56362
 N29 N 0.56286 1.06274 0.68709
 N30 N 0.43499 0.31530 0.93485
 N31 N 0.93537 0.43467 0.31539
 N32 N 0.31508 0.93534 0.43486
 O33 O 0.24900 0.54373 0.72951
 O34 O 0.27762 0.53793 0.73090
 O35 O 0.23003 0.50095 0.70607
 O36 O 0.22987 0.47405 0.71051
 O37 O 0.20640 0.52050 0.74874
 O38 O 0.21222 0.51905 0.77731
 O39 O 0.27159 0.45751 0.75097
 O40 O 0.26902 0.46244 0.72256
 O41 O 0.29265 0.49885 0.77124
 O42 O 0.28663 0.52849 0.77012
 O43 O 0.25119 0.47866 0.79232
 O44 O 0.22163 0.47973 0.78621
 O45 O 0.25176 0.45717 0.77034
 O46 O 0.22184 0.46277 0.76842
 O47 O 0.27063 0.49844 0.79273
 O48 O 0.26888 0.52832 0.78707
 O49 O 0.29298 0.47928 0.75160
 O50 O 0.28797 0.48160 0.72209
 O51 O 0.22921 0.54349 0.74897
 O52 O 0.23043 0.53717 0.77770
 O53 O 0.20675 0.50117 0.72884
 O54 O 0.21322 0.47196 0.73136
 O55 O 0.24931 0.52095 0.70649
 O56 O 0.27801 0.51978 0.71283
 Zr57 Zr 0.25899 0.52005 0.73027
 O58 O 0.27468 0.50575 0.74476
 Zr59 Zr 0.23045 0.49120 0.72982
 O60 O 0.24503 0.47547 0.74407
 Zr61 Zr 0.23009 0.51971 0.75870
 O62 O 0.24439 0.50519 0.77439
 Zr63 Zr 0.26985 0.48090 0.74059
 O64 O 0.25538 0.49520 0.72463
 Zr65 Zr 0.26924 0.50934 0.76953
 O66 O 0.25493 0.52530 0.75509
 Zr67 Zr 0.24080 0.48036 0.76890
 O68 O 0.22485 0.49488 0.75461
 O69 O 0.23425 0.51592 0.73401
 O70 O 0.26564 0.48450 0.76539
 C71 C 0.23750 0.55062 0.73769
 C72 C 0.23816 0.51255 0.69927
 C73 C 0.19957 0.51238 0.73717
 C74 C 0.26364 0.45051 0.76255
 C75 C 0.29963 0.48717 0.76342
 C76 C 0.26277 0.48658 0.79935
 H77 H 0.28614 0.50862 0.74231
 H78 H 0.24158 0.50770 0.78584
 H79 H 0.22732 0.52290 0.72698
 H80 H 0.24269 0.46397 0.74123
 H81 H 0.26379 0.46732 0.71282
 H82 H 0.23657 0.46459 0.71389
 H83 H 0.25929 0.52659 0.79420
 H84 H 0.24119 0.54266 0.77715
 H85 H 0.29486 0.49136 0.72384
 H86 H 0.27755 0.50897 0.70743
 H87 H 0.22268 0.48951 0.79322
 H88 H 0.20715 0.50808 0.77681
 H89 H 0.27718 0.54295 0.74188
 H90 H 0.29373 0.52735 0.76043
 H91 H 0.20697 0.47362 0.74157
 H92 H 0.22368 0.45558 0.75890
 O93 O 0.20572 0.02034 0.24870
 O94 O 0.21139 0.01902 0.27729
 O95 O 0.24859 0.04407 0.22993
 O96 O 0.27554 0.03964 0.23005
 O97 O 0.22923 0.00128 0.20631
 O98 O 0.23081 -0.02738 0.21217
 O99 O 0.29217 -0.00063 0.27134
 O100 O 0.28660 0.02810 0.26869
 O101 O 0.25073 -0.02106 0.29255
 O102 O 0.22123 -0.01994 0.28664
 O103 O 0.27094 -0.04223 0.25118
 O104 O 0.26981 -0.03609 0.22155
 O105 O 0.29247 -0.02020 0.25171
 O106 O 0.28692 -0.01842 0.22191
 O107 O 0.25114 -0.04265 0.27056
 O108 O 0.22120 -0.03691 0.26876
 O109 O 0.27045 -0.00156 0.29279
 O110 O 0.26745 0.02593 0.28964
 O111 O 0.20612 0.00088 0.22892
 O112 O 0.21251 -0.02775 0.23018
 O113 O 0.24853 0.02125 0.20676
 O114 O 0.27775 0.01906 0.21346
 O115 O 0.22823 0.04349 0.24876
 O116 O 0.22886 0.03691 0.27817
 Zr117 Zr 0.22937 0.01981 0.25880
 O118 O 0.24382 0.00543 0.27447
 Zr119 Zr 0.25836 0.02034 0.23050
 O120 O 0.27412 0.00604 0.24500
 Zr121 Zr 0.22996 -0.00871 0.22996
 O122 O 0.24444 -0.02435 0.24434
 Zr123 Zr 0.26866 0.00951 0.26975
 O124 O 0.25427 0.02561 0.25541
 Zr125 Zr 0.24025 -0.01942 0.26915
 O126 O 0.22427 -0.00508 0.25475
 Zr127 Zr 0.26926 -0.01881 0.24076
 O128 O 0.25478 -0.00448 0.22482
 O129 O 0.23364 0.01603 0.23413
 O130 O 0.26510 -0.01531 0.26556
 C131 C 0.19891 0.01212 0.23718
 C132 C 0.23677 0.05078 0.23779
 C133 C 0.23735 0.01289 0.19953
 C134 C 0.29917 -0.01226 0.26348
 C135 C 0.26249 -0.01330 0.29948
 C136 C 0.26301 -0.04928 0.26273
 H137 H 0.24118 0.00809 0.28594
 H138 H 0.24193 -0.03582 0.24155
 H139 H 0.22665 0.02299 0.22714
 H140 H 0.28561 0.00893 0.24266
 H141 H 0.28100 0.03817 0.26503
 H142 H 0.28452 0.03660 0.23752
 H143 H 0.22300 -0.04415 0.25927
 H144 H 0.20705 -0.02729 0.24095
 H145 H 0.26112 0.03546 0.28586
 H146 H 0.23769 0.04493 0.27619
 H147 H 0.26017 -0.04327 0.22274
 H148 H 0.24173 -0.02670 0.20703
 H149 H 0.20640 0.00801 0.27677
 H150 H 0.22224 -0.01003 0.29346
 H151 H 0.27625 0.00882 0.20720
 H152 H 0.29397 -0.00875 0.22362
 O153 O 0.47923 0.79418 0.25088
 O154 O 0.48029 0.78813 0.22234
 O155 O 0.45664 0.75121 0.27063
 O156 O 0.46159 0.72433 0.27083
 O157 O 0.49941 0.77171 0.29333
 O158 O 0.52799 0.77063 0.28710
 O159 O 0.50165 0.70788 0.22925
 O160 O 0.47285 0.71290 0.23217
 O161 O 0.52091 0.74946 0.20714
 O162 O 0.51933 0.77897 0.21265
 O163 O 0.54305 0.73015 0.24845
 O164 O 0.53735 0.73170 0.27820
 O165 O 0.52146 0.70824 0.24865
 O166 O 0.52001 0.71422 0.27837
 O167 O 0.54279 0.74967 0.22877
 O168 O 0.53654 0.77957 0.23032
 O169 O 0.50188 0.72928 0.20746
 O170 O 0.47434 0.73180 0.21093
 O171 O 0.49897 0.79446 0.27039
 O172 O 0.52774 0.78865 0.26878
 O173 O 0.47979 0.75205 0.29347
 O174 O 0.48246 0.72277 0.28718
 O175 O 0.45656 0.77126 0.25145
 O176 O 0.46273 0.77029 0.22197
 Zr177 Zr 0.48011 0.77041 0.24111
 O178 O 0.49457 0.75604 0.22547
 Zr179 Zr 0.48055 0.74187 0.26986
 O180 O 0.49496 0.72619 0.25541
 Zr181 Zr 0.50905 0.77083 0.26956
 O182 O 0.52478 0.75645 0.25520
 Zr183 Zr 0.49105 0.73120 0.23061
 O184 O 0.47486 0.74547 0.24496
 Zr185 Zr 0.51941 0.76018 0.23041
 O186 O 0.50495 0.77609 0.24474
 Zr187 Zr 0.51978 0.73159 0.25923
 O188 O 0.50539 0.74602 0.27514
 O189 O 0.48433 0.76660 0.26579
 O190 O 0.51584 0.73532 0.23442
 C191 C 0.48745 0.80132 0.26220
 C192 C 0.44959 0.76278 0.26268
 C193 C 0.48805 0.76349 0.30040
 C194 C 0.51352 0.70123 0.23708
 C195 C 0.51335 0.73742 0.20049
 C196 C 0.54974 0.73801 0.23664
 H197 H 0.49169 0.75846 0.21399
 H198 H 0.53625 0.75921 0.25779
 H199 H 0.47734 0.77354 0.27277
 H200 H 0.49234 0.71468 0.25796
 H201 H 0.46272 0.71835 0.23590
 H202 H 0.46471 0.71531 0.26345
 H203 H 0.54403 0.77796 0.23966
 H204 H 0.52699 0.79394 0.25795
 H205 H 0.46472 0.73797 0.21476
 H206 H 0.45492 0.76134 0.22420
 H207 H 0.54441 0.74138 0.27667
 H208 H 0.52766 0.75975 0.29237
 H209 H 0.49117 0.79339 0.22268
 H210 H 0.50931 0.77771 0.20602
 H211 H 0.49275 0.72457 0.29328
 H212 H 0.51044 0.70698 0.27691
 O213 O 0.00169 0.70602 0.72939
 O214 O -0.02691 0.71176 0.73067
 O215 O 0.02063 0.74888 0.70575
 O216 O 0.02057 0.77582 0.71023
 O217 O 0.04421 0.72941 0.74848
 O218 O 0.03835 0.73098 0.77712
 O219 O -0.02075 0.79244 0.75050
 O220 O -0.01807 0.78697 0.72178
 O221 O -0.04208 0.75103 0.77077
 O222 O -0.03622 0.72152 0.76961
 O223 O -0.00062 0.77115 0.79199
 O224 O 0.02906 0.76994 0.78588
 O225 O -0.00108 0.79268 0.77005
 O226 O 0.02875 0.78711 0.76826
 O227 O -0.02009 0.75140 0.79235
 O228 O -0.01834 0.72146 0.78660
 O229 O -0.04226 0.77078 0.75132
 O230 O -0.03909 0.76782 0.72385
 O231 O 0.02148 0.70636 0.74885
 O232 O 0.02027 0.71271 0.77746
 O233 O 0.04382 0.74874 0.72857
 O234 O 0.03720 0.77797 0.73082
 O235 O 0.00172 0.72855 0.70629
 O236 O -0.02773 0.72926 0.71283
 Zr237 Zr -0.00834 0.72970 0.72994
 O238 O -0.02399 0.74414 0.74432
 Zr239 Zr 0.02007 0.75862 0.72948
 O240 O 0.00560 0.77438 0.74378
 Zr241 Zr 0.02053 0.73018 0.75845
 O242 O 0.00617 0.74466 0.77410
 Zr243 Zr -0.01919 0.76897 0.74029
 O244 O -0.00488 0.75458 0.72419
 Zr245 Zr -0.01868 0.74053 0.76914
 O246 O -0.00430 0.72454 0.75479
 Zr247 Zr 0.00983 0.76947 0.76861
 O248 O 0.02575 0.75499 0.75428
 O249 O 0.01637 0.73390 0.73374
 O250 O -0.01501 0.76536 0.76507
 C251 C 0.01319 0.69917 0.73762
 C252 C 0.01273 0.73708 0.69903
 C253 C 0.05102 0.73754 0.73690
 C254 C -0.01287 0.79939 0.76216
 C255 C -0.04899 0.76282 0.76304
 C256 C -0.01223 0.76325 0.79899
 H257 H -0.03549 0.74153 0.74164
 H258 H 0.00895 0.74213 0.78556
 H259 H 0.02335 0.72691 0.72679
 H260 H 0.00798 0.78587 0.74093
 H261 H -0.01441 0.78139 0.71171
 H262 H 0.01315 0.78483 0.71330
 H263 H -0.00886 0.72326 0.79386
 H264 H 0.00947 0.70730 0.77701
 H265 H -0.03529 0.76154 0.71429
 H266 H -0.02571 0.73809 0.70484
 H267 H 0.02781 0.76032 0.79307
 H268 H 0.04353 0.74189 0.77646
 H269 H -0.02643 0.70676 0.74166
 H270 H -0.04308 0.72258 0.75972
 H271 H 0.04345 0.77644 0.74105
 H272 H 0.02704 0.79418 0.75862
 O273 O 0.04378 0.02042 0.00129
 O274 O 0.03815 0.01911 -0.02731
 O275 O 0.00085 0.04394 0.02005
 O276 O -0.02611 0.03941 0.01986
 O277 O 0.02026 0.00116 0.04363
 O278 O 0.01881 -0.02748 0.03771
 O279 O -0.04256 -0.00085 -0.02150
 O280 O -0.03709 0.02789 -0.01881
 O281 O -0.00102 -0.02110 -0.04267
 O282 O 0.02848 -0.01984 -0.03670
 O283 O -0.02126 -0.04240 -0.00142
 O284 O -0.02015 -0.03633 0.02826
 O285 O -0.04284 -0.02046 -0.00190
 O286 O -0.03734 -0.01873 0.02790
 O287 O -0.00140 -0.04270 -0.02075
 O288 O 0.02852 -0.03686 -0.01887
 O289 O -0.02084 -0.00169 -0.04290
 O290 O -0.01788 0.02583 -0.03973
 O291 O 0.04341 0.00093 0.02105
 O292 O 0.03713 -0.02774 0.01972
 O293 O 0.00092 0.02107 0.04319
 O294 O -0.02828 0.01879 0.03644
 O295 O 0.02121 0.04346 0.00122
 O296 O 0.02064 0.03693 -0.02819
 Zr297 Zr 0.02014 0.01980 -0.00885
 O298 O 0.00577 0.00540 -0.02456
 Zr299 Zr -0.00887 0.02018 0.01942
 O300 O -0.02457 0.00584 0.00488
 Zr301 Zr 0.01962 -0.00877 0.01995
 O302 O 0.00520 -0.02444 0.00553
 Zr303 Zr -0.01908 0.00938 -0.01986
 O304 O -0.00477 0.02550 -0.00548
 Zr305 Zr 0.00941 -0.01944 -0.01926
 O306 O 0.02534 -0.00507 -0.00482
 Zr307 Zr -0.01964 -0.01901 0.00908
 O308 O -0.00523 -0.00465 0.02507
 O309 O 0.01587 0.01596 0.01582
 O310 O -0.01545 -0.01543 -0.01571
 C311 C 0.05060 0.01222 0.01282
 C312 C 0.01265 0.05071 0.01220
 C313 C 0.01210 0.01272 0.05043
 C314 C -0.04954 -0.01253 -0.01367
 C315 C -0.01283 -0.01341 -0.04959
 C316 C -0.01328 -0.04938 -0.01298
 H317 H 0.00842 0.00809 -0.03602
 H318 H 0.00774 -0.03591 0.00830
 H319 H 0.02281 0.02293 0.02284
 H320 H -0.03607 0.00868 0.00721
 H321 H -0.03153 0.03797 -0.01512
 H322 H -0.03508 0.03634 0.01239
 H323 H 0.02672 -0.04413 -0.00939
 H324 H 0.04261 -0.02722 0.00897
 H325 H -0.01162 0.03539 -0.03591
 H326 H 0.01178 0.04491 -0.02622
 H327 H -0.01053 -0.04352 0.02702
 H328 H 0.00786 -0.02690 0.04280
 H329 H 0.04319 0.00813 -0.02679
 H330 H 0.02741 -0.00995 -0.04355
 H331 H -0.02677 0.00854 0.04267
 H332 H -0.04440 -0.00908 0.02620
 O333 O 0.02068 0.50118 0.54389
 O334 O 0.01935 0.47257 0.53821
 O335 O 0.04440 0.52000 0.50107
 O336 O 0.03994 0.51990 0.47414
 O337 O 0.00165 0.54365 0.52041
 O338 O -0.02702 0.53782 0.51883
 O339 O -0.00041 0.47860 0.45754
 O340 O 0.02833 0.48123 0.46309
 O341 O -0.02083 0.45738 0.49893
 O342 O -0.01965 0.46326 0.52839
 O343 O -0.04198 0.49883 0.47877
 O344 O -0.03578 0.52847 0.47988
 O345 O -0.01997 0.49826 0.45725
 O346 O -0.01814 0.52809 0.46277
 O347 O -0.04239 0.47942 0.49856
 O348 O -0.03659 0.48117 0.52846
 O349 O -0.00133 0.45713 0.47923
 O350 O 0.02617 0.46026 0.48223
 O351 O 0.00124 0.52099 0.54349
 O352 O -0.02741 0.51978 0.53710
 O353 O 0.02160 0.54321 0.50113
 O354 O 0.01936 0.53653 0.47194
 O355 O 0.04382 0.50114 0.52140
 O356 O 0.03722 0.47170 0.52075
 Zr357 Zr 0.02013 0.49110 0.52025
 O358 O 0.00571 0.47544 0.50583
 Zr359 Zr 0.02066 0.51945 0.49130
 O360 O 0.00632 0.50496 0.47557
 Zr361 Zr -0.00837 0.51999 0.51968
 O362 O -0.02404 0.50562 0.50522
 Zr363 Zr 0.00977 0.48018 0.48102
 O364 O 0.02590 0.49451 0.49539
 Zr365 Zr -0.01913 0.48078 0.50940
 O366 O -0.00475 0.49517 0.52536
 Zr367 Zr -0.01853 0.50921 0.48043
 O368 O -0.00417 0.52515 0.49488
 O369 O 0.01637 0.51580 0.51600
 O370 O -0.01505 0.48438 0.48458
 C371 C 0.01247 0.51271 0.55070
 C372 C 0.05112 0.51212 0.51287
 C373 C 0.01326 0.55044 0.51230
 C374 C -0.01205 0.48648 0.45056
 C375 C -0.01309 0.45044 0.48718
 C376 C -0.04904 0.48728 0.48672
 H377 H 0.00836 0.46395 0.50846
 H378 H -0.03551 0.50843 0.50773
 H379 H 0.02334 0.52279 0.52298
 H380 H 0.00919 0.50731 0.46409
 H381 H 0.03842 0.48489 0.46868
 H382 H 0.03687 0.51243 0.46517
 H383 H -0.04383 0.49068 0.52666
 H384 H -0.02694 0.50900 0.54257
 H385 H 0.03572 0.46404 0.48854
 H386 H 0.04523 0.47370 0.51193
 H387 H -0.04295 0.52729 0.48952
 H388 H -0.02635 0.54298 0.50793
 H389 H 0.00834 0.47308 0.54318
 H390 H -0.00975 0.45641 0.52737
 H391 H 0.00913 0.54279 0.47344
 H392 H -0.00848 0.52636 0.45573
 O393 O 0.54382 0.02059 0.50140
 O394 O 0.53811 0.01930 0.47282
 O395 O 0.50096 0.04415 0.52030
 O396 O 0.47401 0.03964 0.52022
 O397 O 0.52042 0.00134 0.54381
 O398 O 0.51892 -0.02730 0.53788
 O399 O 0.45739 -0.00059 0.47888
 O400 O 0.46288 0.02814 0.48158
 O401 O 0.49883 -0.02085 0.45756
 O402 O 0.52834 -0.01965 0.46344
 O403 O 0.47873 -0.04218 0.49892
 O404 O 0.47991 -0.03609 0.52857
 O405 O 0.45715 -0.02021 0.49847
 O406 O 0.46274 -0.01848 0.52826
 O407 O 0.49852 -0.04249 0.47951
 O408 O 0.52843 -0.03667 0.48126
 O409 O 0.47906 -0.00140 0.45739
 O410 O 0.48202 0.02609 0.46060
 O411 O 0.54350 0.00110 0.52116
 O412 O 0.53718 -0.02757 0.51984
 O413 O 0.50110 0.02127 0.54344
 O414 O 0.47187 0.01901 0.53679
 O415 O 0.52126 0.04366 0.50140
 O416 O 0.52060 0.03713 0.47199
 Zr417 Zr 0.52015 0.02000 0.49134
 O418 O 0.50571 0.00561 0.47567
 Zr419 Zr 0.49122 0.02039 0.51970
 O420 O 0.47547 0.00608 0.50521
 Zr421 Zr 0.51969 -0.00858 0.52013
 O422 O 0.50521 -0.02423 0.50575
 Zr423 Zr 0.48088 0.00962 0.48045
 O424 O 0.49526 0.02572 0.49479
 Zr425 Zr 0.50934 -0.01923 0.48094
 O426 O 0.52532 -0.00488 0.49534
 Zr427 Zr 0.48039 -0.01878 0.50938
 O428 O 0.49486 -0.00444 0.52533
 O429 O 0.51595 0.01616 0.51602
 O430 O 0.48449 -0.01520 0.48458
 C431 C 0.55067 0.01238 0.51291
 C432 C 0.51273 0.05091 0.51240
 C433 C 0.51228 0.01291 0.55064
 C434 C 0.45043 -0.01226 0.48673
 C435 C 0.48705 -0.01311 0.45066
 C436 C 0.48668 -0.04918 0.48736
 H437 H 0.50832 0.00831 0.46420
 H438 H 0.50775 -0.03570 0.50852
 H439 H 0.52293 0.02312 0.52301
 H440 H 0.46398 0.00892 0.50758
 H441 H 0.46847 0.03822 0.48526
 H442 H 0.46501 0.03658 0.51278
 H443 H 0.52669 -0.04391 0.49076
 H444 H 0.54263 -0.02704 0.50907
 H445 H 0.48830 0.03565 0.46441
 H446 H 0.51176 0.04512 0.47400
 H447 H 0.48955 -0.04326 0.52733
 H448 H 0.50800 -0.02669 0.54304
 H449 H 0.54312 0.00831 0.47332
 H450 H 0.52729 -0.00974 0.45661
 H451 H 0.47339 0.00875 0.54300
 H452 H 0.45568 -0.00883 0.52658
 O453 O 0.54369 0.52044 0.00197
 O454 O 0.53804 0.51916 -0.02664
 O455 O 0.50072 0.54385 0.02079
 O456 O 0.47378 0.53927 0.02068
 O457 O 0.52031 0.50112 0.04428
 O458 O 0.51881 0.47246 0.03837
 O459 O 0.45735 0.49908 -0.02075
 O460 O 0.46280 0.52782 -0.01805
 O461 O 0.49889 0.47889 -0.04199
 O462 O 0.52839 0.48017 -0.03608
 O463 O 0.47873 0.45752 -0.00074
 O464 O 0.47984 0.46353 0.02890
 O465 O 0.45712 0.47944 -0.00119
 O466 O 0.46268 0.48116 0.02864
 O467 O 0.49856 0.45727 -0.02010
 O468 O 0.52850 0.46316 -0.01823
 O469 O 0.47905 0.49826 -0.04219
 O470 O 0.48199 0.52579 -0.03899
 O471 O 0.54337 0.50091 0.02169
 O472 O 0.53711 0.47221 0.02032
 O473 O 0.50093 0.52100 0.04389
 O474 O 0.47168 0.51860 0.03720
 O475 O 0.52110 0.54344 0.00198
 O476 O 0.52046 0.53696 -0.02747
 Zr477 Zr 0.52004 0.51980 -0.00815
 O478 O 0.50568 0.50538 -0.02387
 Zr479 Zr 0.49105 0.52007 0.02015
 O480 O 0.47537 0.50574 0.00561
 Zr481 Zr 0.51959 0.49118 0.02061
 O482 O 0.50518 0.47550 0.00619
 Zr483 Zr 0.48082 0.50932 -0.01914
 O484 O 0.49513 0.52545 -0.00474
 Zr485 Zr 0.50936 0.48054 -0.01860
 O486 O 0.52528 0.49493 -0.00416
 Zr487 Zr 0.48033 0.48090 0.00977
 O488 O 0.49474 0.49525 0.02577
 O489 O 0.51579 0.51590 0.01650
 O490 O 0.48449 0.48451 -0.01501
 C491 C 0.55053 0.51224 0.01349
 C492 C 0.51253 0.55064 0.01298
 C493 C 0.51218 0.51270 0.05108
 C494 C 0.45040 0.48739 -0.01294
 C495 C 0.48706 0.48656 -0.04889
 C496 C 0.48670 0.45056 -0.01232
 H497 H 0.50830 0.50809 -0.03533
 H498 H 0.50773 0.46404 0.00894
 H499 H 0.52274 0.52288 0.02351
 H500 H 0.46386 0.50856 0.00795
 H501 H 0.46836 0.53790 -0.01435
 H502 H 0.46483 0.53621 0.01317
 H503 H 0.52670 0.45585 -0.00879
 H504 H 0.54261 0.47278 0.00958
 H505 H 0.48825 0.53536 -0.03517
 H506 H 0.51162 0.54494 -0.02544
 H507 H 0.48953 0.45642 0.02771
 H508 H 0.50788 0.47306 0.04350
 H509 H 0.54308 0.50818 -0.02614
 H510 H 0.52733 0.49009 -0.04289
 H511 H 0.47327 0.50838 0.04346
 H512 H 0.45557 0.49078 0.02693
 O513 O 0.75048 0.27173 0.45658
 O514 O 0.72191 0.27088 0.46268
 O515 O 0.77040 0.29420 0.49944
 O516 O 0.77089 0.28936 0.52622
 O517 O 0.79286 0.25130 0.47896
 O518 O 0.78649 0.22279 0.48021
 O519 O 0.72843 0.24964 0.54270
 O520 O 0.73154 0.27805 0.53810
 O521 O 0.70642 0.23037 0.50136
 O522 O 0.71211 0.23163 0.47177
 O523 O 0.74774 0.20805 0.52076
 O524 O 0.77731 0.21354 0.51954
 O525 O 0.74782 0.22981 0.54258
 O526 O 0.77773 0.23119 0.53661
 O527 O 0.72802 0.20831 0.50127
 O528 O 0.72954 0.21438 0.47145
 O529 O 0.70673 0.24977 0.52115
 O530 O 0.71240 0.27918 0.51921
 O531 O 0.76980 0.25178 0.45633
 O532 O 0.76804 0.22298 0.46232
 O533 O 0.79319 0.27096 0.49854
 O534 O 0.78704 0.26809 0.52782
 O535 O 0.75094 0.29447 0.47964
 O536 O 0.72211 0.28873 0.48107
 Zr537 Zr 0.74074 0.27087 0.48034
 O538 O 0.72491 0.25652 0.49462
 Zr539 Zr 0.76962 0.27031 0.50883
 O540 O 0.75491 0.25618 0.52454
 Zr541 Zr 0.76900 0.24178 0.47998
 O542 O 0.75454 0.22621 0.49447
 Zr543 Zr 0.73011 0.26026 0.51944
 O544 O 0.74477 0.27610 0.50520
 Zr545 Zr 0.72975 0.23165 0.49068
 O546 O 0.74419 0.24601 0.47474
 Zr547 Zr 0.75854 0.23131 0.51929
 O548 O 0.77464 0.24543 0.50477
 O549 O 0.76543 0.26653 0.48413
 O550 O 0.73372 0.23539 0.51550
 C551 C 0.76171 0.26336 0.44945
 C552 C 0.76232 0.30135 0.48803
 C553 C 0.80004 0.26265 0.48710
 C554 C 0.73620 0.23780 0.54947
 C555 C 0.69972 0.23822 0.51317
 C556 C 0.73593 0.20134 0.51289
 H557 H 0.71348 0.25927 0.49192
 H558 H 0.75708 0.21473 0.49178
 H559 H 0.77242 0.27351 0.47716
 H560 H 0.75744 0.25883 0.53603
 H561 H 0.73696 0.28774 0.53329
 H562 H 0.76418 0.28604 0.53569
 H563 H 0.73896 0.20698 0.47301
 H564 H 0.75724 0.22385 0.45695
 H565 H 0.70540 0.27777 0.50947
 H566 H 0.72284 0.29400 0.49192
 H567 H 0.77615 0.20682 0.50958
 H568 H 0.79176 0.22310 0.49108
 H569 H 0.72206 0.25996 0.45751
 H570 H 0.70535 0.24157 0.47299
 H571 H 0.79311 0.25781 0.52587
 H572 H 0.77614 0.24063 0.54398
 O573 O 0.77130 0.79328 -0.00164
 O574 O 0.77029 0.78713 0.02691
 O575 O 0.79391 0.75050 -0.02147
 O576 O 0.78914 0.72365 -0.02189
 O577 O 0.75110 0.77089 -0.04411
 O578 O 0.72255 0.76963 -0.03792
 O579 O 0.74911 0.70704 0.02023
 O580 O 0.77757 0.71165 0.01728
 O581 O 0.72969 0.74834 0.04206
 O582 O 0.73101 0.77799 0.03641
 O583 O 0.70767 0.72893 0.00070
 O584 O 0.71332 0.73028 -0.02887
 O585 O 0.72940 0.70718 0.00072
 O586 O 0.73097 0.71314 -0.02915
 O587 O 0.70781 0.74842 0.02039
 O588 O 0.71382 0.77831 0.01888
 O589 O 0.74910 0.72854 0.04186
 O590 O 0.77860 0.73058 0.03641
 O591 O 0.75147 0.79353 -0.02108
 O592 O 0.72265 0.78751 -0.01948
 O593 O 0.77078 0.75133 -0.04433
 O594 O 0.76795 0.72202 -0.03821
 O595 O 0.79406 0.77027 -0.00198
 O596 O 0.78817 0.76874 0.02679
 Zr597 Zr 0.77041 0.76949 0.00808
 O598 O 0.75597 0.75516 0.02379
 Zr599 Zr 0.77004 0.74101 -0.02078
 O600 O 0.75583 0.72525 -0.00620
 Zr601 Zr 0.74146 0.76985 -0.02034
 O602 O 0.72582 0.75532 -0.00601
 Zr603 Zr 0.75977 0.73032 0.01860
 O604 O 0.77569 0.74462 0.00408
 Zr605 Zr 0.73113 0.75909 0.01878
 O606 O 0.74555 0.77508 0.00447
 Zr607 Zr 0.73097 0.73049 -0.00999
 O608 O 0.74518 0.74505 -0.02596
 O609 O 0.76620 0.76572 -0.01661
 O610 O 0.73492 0.73426 0.01482
 C611 C 0.76301 0.80041 -0.01293
 C612 C 0.80099 0.76194 -0.01334
 C613 C 0.76250 0.76277 -0.05121
 C614 C 0.73730 0.70029 0.01240
 C615 C 0.73747 0.73648 0.04877
 C616 C 0.70091 0.73675 0.01248
 H617 H 0.75865 0.75785 0.03523
 H618 H 0.71434 0.75799 -0.00861
 H619 H 0.77320 0.77271 -0.02355
 H620 H 0.75850 0.71375 -0.00871
 H621 H 0.78729 0.71648 0.01195
 H622 H 0.78576 0.71413 -0.01527
 H623 H 0.70644 0.77672 0.00945
 H624 H 0.72346 0.79288 -0.00868
 H625 H 0.77707 0.74026 0.04345
 H626 H 0.79346 0.75789 0.02609
 H627 H 0.70648 0.74016 -0.02765
 H628 H 0.72288 0.75874 -0.04316
 H629 H 0.75936 0.79230 0.02668
 H630 H 0.74088 0.77673 0.04327
 H631 H 0.75769 0.72393 -0.04431
 H632 H 0.74040 0.70578 -0.02750
 O633 O 1.04348 0.22940 0.24870
 O634 O 1.03779 0.23069 0.27731
 O635 O 1.00058 0.20577 0.22986
 O636 O 0.97363 0.21027 0.22992
 O637 O 1.02003 0.24861 0.20634
 O638 O 1.01848 0.27725 0.21224
 O639 O 0.95705 0.25048 0.27126
 O640 O 0.96257 0.22175 0.26859
 O641 O 0.99857 0.27078 0.29258
 O642 O 1.02805 0.26962 0.28669
 O643 O 0.97835 0.29208 0.25126
 O644 O 0.97954 0.28601 0.22158
 O645 O 0.95679 0.27008 0.25165
 O646 O 0.96235 0.26840 0.22189
 O647 O 0.99818 0.29240 0.27065
 O648 O 1.02812 0.28662 0.26885
 O649 O 0.97876 0.25135 0.29276
 O650 O 0.98171 0.22385 0.28957
 O651 O 1.04311 0.24892 0.22898
 O652 O 1.03677 0.27756 0.23028
 O653 O 1.00073 0.22865 0.20671
 O654 O 0.97149 0.23090 0.21335
 O655 O 1.02092 0.20629 0.24873
 O656 O 1.02032 0.21281 0.27813
 Zr657 Zr 1.01982 0.22995 0.25879
 O658 O 1.00540 0.24432 0.27446
 Zr659 Zr 0.99085 0.22953 0.23044
 O660 O 0.97512 0.24383 0.24494
 Zr661 Zr 1.01930 0.25854 0.23000
 O662 O 1.00484 0.27417 0.24439
 Zr663 Zr 0.98055 0.24030 0.26970
 O664 O 0.99492 0.22421 0.25535
 Zr665 Zr 1.00902 0.26917 0.26919
 O666 O 1.02498 0.25483 0.25479
 Zr667 Zr 0.98002 0.26869 0.24077
 O668 O 0.99447 0.25437 0.22481
 O669 O 1.01558 0.23380 0.23412
 O670 O 0.98416 0.26512 0.26557
 C671 C 1.05030 0.23764 0.23721
 C672 C 1.01237 0.19902 0.23774
 C673 C 1.01192 0.23701 0.19952
 C674 C 0.95007 0.26213 0.26339
 C675 C 0.98677 0.26306 0.29948
 C676 C 0.98631 0.29907 0.26284
 H677 H 1.00802 0.24163 0.28594
 H678 H 1.00737 0.28565 0.24163
 H679 H 1.02255 0.22684 0.22713
 H680 H 0.96362 0.24097 0.24257
 H681 H 0.96816 0.21168 0.26491
 H682 H 0.96465 0.21332 0.23739
 H683 H 1.02631 0.29391 0.25939
 H684 H 1.04224 0.27706 0.24105
 H685 H 0.98803 0.21431 0.28578
 H686 H 1.01145 0.20484 0.27614
 H687 H 0.98915 0.29323 0.22286
 H688 H 1.00755 0.27662 0.20710
 H689 H 1.04284 0.24167 0.27678
 H690 H 1.02703 0.25968 0.29349
 H691 H 0.97302 0.24114 0.20712
 H692 H 0.95534 0.25870 0.22352
 O693 O 0.74936 1.04385 0.72872
 O694 O 0.77795 1.03798 0.73009
 O695 O 0.73025 1.00110 0.70533
 O696 O 0.73002 0.97421 0.70981
 O697 O 0.70669 1.02076 0.74799
 O698 O 0.71252 1.01936 0.77655
 O699 O 0.77173 0.95762 0.75028
 O700 O 0.76917 0.96250 0.72188
 O701 O 0.79288 0.99894 0.77048
 O702 O 0.78693 1.02858 0.76936
 O703 O 0.75137 0.97886 0.79160
 O704 O 0.72182 0.97998 0.78550
 O705 O 0.75191 0.95734 0.76966
 O706 O 0.72198 0.96302 0.76770
 O707 O 0.77087 0.99858 0.79199
 O708 O 0.76917 1.02847 0.78630
 O709 O 0.79318 0.97935 0.75087
 O710 O 0.78814 0.98164 0.72135
 O711 O 0.72956 1.04370 0.74816
 O712 O 0.73079 1.03741 0.77691
 O713 O 0.70698 1.00140 0.72812
 O714 O 0.71339 0.97217 0.73067
 O715 O 0.74958 1.02105 0.70572
 O716 O 0.77829 1.01979 0.71206
 Zr717 Zr 0.75928 1.02015 0.72950
 O718 O 0.77493 1.00584 0.74401
 Zr719 Zr 0.73066 0.99138 0.72909
 O720 O 0.74521 0.97562 0.74335
 Zr721 Zr 0.73038 1.01993 0.75794
 O722 O 0.74464 1.00538 0.77364
 Zr723 Zr 0.77004 0.98100 0.73987
 O724 O 0.75560 0.99530 0.72389
 Zr725 Zr 0.76950 1.00946 0.76878
 O726 O 0.75523 1.02545 0.75432
 Zr727 Zr 0.74099 0.98056 0.76818
 O728 O 0.72507 0.99510 0.75388
 O729 O 0.73452 1.01609 0.73325
 O730 O 0.76584 0.98463 0.76467
 C731 C 0.73788 1.05079 0.73687
 C732 C 0.73841 1.01268 0.69852
 C733 C 0.69983 1.01263 0.73644
 C734 C 0.76378 0.95065 0.76187
 C735 C 0.79984 0.98725 0.76268
 C736 C 0.76298 0.98674 0.79862
 H737 H 0.78640 1.00868 0.74155
 H738 H 0.74183 1.00790 0.78509
 H739 H 0.72760 1.02308 0.72622
 H740 H 0.74284 0.96412 0.74053
 H741 H 0.76394 0.96737 0.71213
 H742 H 0.73671 0.96474 0.71318
 H743 H 0.75959 1.02675 0.79345
 H744 H 0.74156 1.04288 0.77633
 H745 H 0.79507 0.99137 0.72310
 H746 H 0.77778 1.00898 0.70665
 H747 H 0.72288 0.98977 0.79248
 H748 H 0.70743 1.00839 0.77609
 H749 H 0.77754 1.04301 0.74106
 H750 H 0.79401 1.02743 0.75965
 H751 H 0.70714 0.97387 0.74087
 H752 H 0.72384 0.95578 0.75822
 O753 O 0.79376 0.49934 0.27135
 O754 O 0.78766 0.52791 0.27029
 O755 O 0.75084 0.47949 0.29393
 O756 O 0.72395 0.47921 0.28899
 O757 O 0.77131 0.45687 0.25116
 O758 O 0.77015 0.46317 0.22260
 O759 O 0.70734 0.52088 0.24909
 O760 O 0.71245 0.51788 0.27785
 O761 O 0.74877 0.54312 0.22977
 O762 O 0.77835 0.53772 0.23140
 O763 O 0.72963 0.50176 0.20764
 O764 O 0.73118 0.47200 0.21334
 O765 O 0.70772 0.50156 0.22922
 O766 O 0.71370 0.47181 0.23064
 O767 O 0.74914 0.52148 0.20790
 O768 O 0.77900 0.52009 0.21417
 O769 O 0.72867 0.54271 0.24885
 O770 O 0.73130 0.53921 0.27635
 O771 O 0.79402 0.47986 0.25159
 O772 O 0.78815 0.48152 0.22287
 O773 O 0.75169 0.45665 0.27078
 O774 O 0.72239 0.46288 0.26814
 O775 O 0.77085 0.49873 0.29401
 O776 O 0.76988 0.52824 0.28786
 Zr777 Zr 0.76997 0.50910 0.27049
 O778 O 0.75552 0.52476 0.25610
 Zr779 Zr 0.74146 0.48026 0.27005
 O780 O 0.72571 0.49472 0.25569
 Zr781 Zr 0.77037 0.48068 0.24155
 O782 O 0.75593 0.49507 0.22588
 Zr783 Zr 0.73070 0.51954 0.25964
 O784 O 0.74504 0.50518 0.27576
 Zr785 Zr 0.75962 0.51988 0.23128
 O786 O 0.77559 0.50552 0.24567
 Zr787 Zr 0.73108 0.49097 0.23089
 O788 O 0.74556 0.47503 0.24523
 O789 O 0.76618 0.48440 0.26625
 O790 O 0.73477 0.51580 0.23486
 C791 C 0.80089 0.48804 0.26311
 C792 C 0.76239 0.48748 0.30097
 C793 C 0.76312 0.44975 0.26251
 C794 C 0.70069 0.51309 0.23720
 C795 C 0.73672 0.54972 0.23735
 C796 C 0.73750 0.51357 0.20094
 H797 H 0.75791 0.53625 0.25899
 H798 H 0.75869 0.49250 0.21443
 H799 H 0.77315 0.47741 0.27323
 H800 H 0.71421 0.49214 0.25832
 H801 H 0.71793 0.51415 0.28796
 H802 H 0.71489 0.48657 0.28589
 H803 H 0.77748 0.51068 0.20676
 H804 H 0.79345 0.49236 0.22364
 H805 H 0.73749 0.53537 0.28595
 H806 H 0.76093 0.52600 0.29566
 H807 H 0.74088 0.47352 0.20631
 H808 H 0.75930 0.45783 0.22298
 H809 H 0.79288 0.52761 0.25940
 H810 H 0.77703 0.54439 0.24138
 H811 H 0.72417 0.45682 0.25784
 H812 H 0.70648 0.47323 0.24021
 O813 O 0.50112 0.20563 0.73022
 O814 O 0.47253 0.21142 0.73148
 O815 O 0.52019 0.24847 0.70668
 O816 O 0.52029 0.27539 0.71120
 O817 O 0.54364 0.22886 0.74946
 O818 O 0.53773 0.23039 0.77808
 O819 O 0.47886 0.29208 0.75142
 O820 O 0.48159 0.28665 0.72270
 O821 O 0.45739 0.25071 0.77160
 O822 O 0.46315 0.22122 0.77045
 O823 O 0.49890 0.27070 0.79290
 O824 O 0.52857 0.26943 0.78684
 O825 O 0.49850 0.29225 0.77099
 O826 O 0.52834 0.28659 0.76921
 O827 O 0.47935 0.25102 0.79322
 O828 O 0.48105 0.22105 0.78743
 O829 O 0.45729 0.27048 0.75216
 O830 O 0.46053 0.26752 0.72468
 O831 O 0.52087 0.20588 0.74973
 O832 O 0.51958 0.21220 0.77836
 O833 O 0.54336 0.24819 0.72955
 O834 O 0.53683 0.27746 0.73184
 O835 O 0.50122 0.22820 0.70717
 O836 O 0.47175 0.22896 0.71369
 Zr837 Zr 0.49114 0.22933 0.73080
 O838 O 0.47551 0.24380 0.74518
 Zr839 Zr 0.51965 0.25816 0.73043
 O840 O 0.50519 0.27395 0.74471
 Zr841 Zr 0.51995 0.22968 0.75937
 O842 O 0.50562 0.24420 0.77500
 Zr843 Zr 0.48038 0.26862 0.74117
 O844 O 0.49469 0.25421 0.72509
 Zr845 Zr 0.48077 0.24015 0.77000
 O846 O 0.49511 0.22413 0.75566
 Zr847 Zr 0.50936 0.26901 0.76954
 O848 O 0.52527 0.25449 0.75523
 O849 O 0.51586 0.23345 0.73466
 O850 O 0.48451 0.26498 0.76596
 C851 C 0.51259 0.19874 0.73845
 C852 C 0.51226 0.23672 0.69992
 C853 C 0.55051 0.23696 0.73790
 C854 C 0.48673 0.29900 0.76309
 C855 C 0.45053 0.26251 0.76386
 C856 C 0.48725 0.26284 0.79988
 H857 H 0.46401 0.24122 0.74248
 H858 H 0.50838 0.24166 0.78646
 H859 H 0.52282 0.22645 0.72770
 H860 H 0.50760 0.28544 0.74187
 H861 H 0.48528 0.28108 0.71263
 H862 H 0.51283 0.28439 0.71423
 H863 H 0.49049 0.22285 0.79474
 H864 H 0.50877 0.20679 0.77784
 H865 H 0.46436 0.26131 0.71510
 H866 H 0.47381 0.23778 0.70569
 H867 H 0.52730 0.25979 0.79400
 H868 H 0.54294 0.24129 0.77746
 H869 H 0.47299 0.20641 0.74246
 H870 H 0.45638 0.22224 0.76051
 H871 H 0.54308 0.27587 0.74207
 H872 H 0.52664 0.29370 0.75960
 O873 O 0.27163 0.79331 0.49896
 O874 O 0.27070 0.78707 0.52749
 O875 O 0.29407 0.75052 0.47893
 O876 O 0.28921 0.72369 0.47843
 O877 O 0.25121 0.77111 0.45648
 O878 O 0.22269 0.76990 0.46278
 O879 O 0.24929 0.70704 0.52060
 O880 O 0.27775 0.71161 0.51758
 O881 O 0.23011 0.74839 0.54269
 O882 O 0.23146 0.77804 0.53709
 O883 O 0.20781 0.72917 0.50131
 O884 O 0.21338 0.73059 0.47173
 O885 O 0.22952 0.70730 0.50116
 O886 O 0.23092 0.71338 0.47135
 O887 O 0.20809 0.74860 0.52107
 O888 O 0.21419 0.77843 0.51968
 O889 O 0.24946 0.72852 0.54236
 O890 O 0.27889 0.73042 0.53678
 O891 O 0.25173 0.79368 0.47960
 O892 O 0.22291 0.78774 0.48125
 O893 O 0.27085 0.75149 0.45613
 O894 O 0.26797 0.72219 0.46216
 O895 O 0.29433 0.77021 0.49849
 O896 O 0.28854 0.76866 0.52725
 Zr897 Zr 0.27071 0.76949 0.50860
 O898 O 0.25630 0.75514 0.52432
 Zr899 Zr 0.27016 0.74111 0.47965
 O900 O 0.25595 0.72534 0.49424
 Zr901 Zr 0.24166 0.77002 0.48029
 O902 O 0.22603 0.75550 0.49464
 Zr903 Zr 0.26000 0.73031 0.51904
 O904 O 0.27590 0.74462 0.50450
 Zr905 Zr 0.23145 0.75917 0.51943
 O906 O 0.24586 0.77516 0.50510
 Zr907 Zr 0.23109 0.73066 0.49057
 O908 O 0.24529 0.74523 0.47458
 O909 O 0.26641 0.76581 0.48391
 O910 O 0.23514 0.73433 0.51538
 C911 C 0.26331 0.80050 0.48774
 C912 C 0.30121 0.76189 0.48709
 C913 C 0.26256 0.76296 0.44931
 C914 C 0.23746 0.70033 0.51276
 C915 C 0.23792 0.73652 0.54936
 C916 C 0.20111 0.73701 0.51313
 H917 H 0.25903 0.75779 0.53576
 H918 H 0.21456 0.75822 0.49208
 H919 H 0.27341 0.77281 0.47697
 H920 H 0.25858 0.71384 0.49166
 H921 H 0.28746 0.71643 0.51222
 H922 H 0.28581 0.71415 0.48502
 H923 H 0.20682 0.77694 0.51023
 H924 H 0.22376 0.79305 0.49207
 H925 H 0.27750 0.74015 0.54378
 H926 H 0.29378 0.75779 0.52651
 H927 H 0.20658 0.74048 0.47301
 H928 H 0.22298 0.75904 0.45749
 H929 H 0.25980 0.79230 0.52729
 H930 H 0.24136 0.77675 0.54389
 H931 H 0.25767 0.72413 0.45612
 H932 H 0.24041 0.70605 0.47287
 O933 O 0.25057 0.27130 0.95678
 O934 O 0.22200 0.27031 0.96302
 O935 O 0.27064 0.29376 0.99953
 O936 O 0.27112 0.28890 1.02635
 O937 O 0.29313 0.25099 0.97895
 O938 O 0.28685 0.22244 0.98016
 O939 O 0.22899 0.24892 1.04296
 O940 O 0.23199 0.27738 1.03841
 O941 O 0.20684 0.22971 1.00165
 O942 O 0.21243 0.23108 0.97202
 O943 O 0.24831 0.20748 1.02084
 O944 O 0.27792 0.21310 1.01942
 O945 O 0.24847 0.22918 1.04269
 O946 O 0.27830 0.23064 1.03661
 O947 O 0.22851 0.20773 1.00143
 O948 O 0.22986 0.21383 0.97164
 O949 O 0.20718 0.24906 1.02150
 O950 O 0.21272 0.27847 1.01964
 O951 O 0.26997 0.25144 0.95641
 O952 O 0.26835 0.22263 0.96233
 O953 O 0.29346 0.27060 0.99857
 O954 O 0.28746 0.26770 1.02783
 O955 O 0.25105 0.29398 0.97985
 O956 O 0.22225 0.28816 0.98142
 Zr957 Zr 0.24092 0.27036 0.98058
 O958 O 0.22521 0.25593 0.99491
 Zr959 Zr 0.26993 0.26986 1.00894
 O960 O 0.25535 0.25562 1.02468
 Zr961 Zr 0.26930 0.24137 0.98004
 O962 O 0.25495 0.22572 0.99454
 Zr963 Zr 0.23052 0.25962 1.01972
 O964 O 0.24504 0.27556 1.00543
 Zr965 Zr 0.23013 0.23109 0.99088
 O966 O 0.24445 0.24552 0.97490
 Zr967 Zr 0.25905 0.23077 1.01935
 O968 O 0.27503 0.24501 1.00481
 O969 O 0.26565 0.26610 0.98426
 O970 O 0.23420 0.23478 1.01569
 C971 C 0.26181 0.26301 0.94960
 C972 C 0.26248 0.30088 0.98815
 C973 C 0.30029 0.26235 0.98709
 C974 C 0.23686 0.23710 1.04966
 C975 C 0.20017 0.23751 1.01351
 C976 C 0.23647 0.20076 1.01301
 H977 H 0.21376 0.25864 0.99226
 H978 H 0.25752 0.21425 0.99181
 H979 H 0.27259 0.27311 0.97727
 H980 H 0.25794 0.25825 1.03617
 H981 H 0.23733 0.28710 1.03358
 H982 H 0.26457 0.28547 1.03589
 H983 H 0.23934 0.20649 0.97311
 H984 H 0.25751 0.22345 0.95703
 H985 H 0.20575 0.27711 1.00988
 H986 H 0.22301 0.29342 0.99228
 H987 H 0.27664 0.20631 1.00952
 H988 H 0.29217 0.22276 0.99101
 H989 H 0.22221 0.25942 0.95778
 H990 H 0.20561 0.24096 0.97333
 H991 H 0.29352 0.25742 1.02589
 H992 H 0.27678 0.24011 1.04394
 C993 C 0.29649 0.35915 0.79471
 C994 C 0.28578 0.34663 0.79930
 C995 C 0.29191 0.33210 0.80586
 C996 C 0.30882 0.32994 0.80791
 C997 C 0.31949 0.34253 0.80314
 C998 C 0.31335 0.35704 0.79658
 C999 C 0.29022 0.37434 0.78849
 C1000 C 0.28513 0.38721 0.78348
 C1001 C 0.27928 0.40275 0.77773
 C1002 C 0.26591 0.41020 0.78531
 C1003 C 0.26064 0.42562 0.78021
 C1004 C 0.26871 0.43382 0.76743
 C1005 C 0.28203 0.42612 0.75976
 C1006 C 0.28727 0.41070 0.76490
 H1007 H 0.27270 0.34815 0.79792
 H1008 H 0.28348 0.32254 0.80939
 H1009 H 0.33255 0.34123 0.80477
 H1010 H 0.32175 0.36668 0.79314
 H1011 H 0.25967 0.40417 0.79529
 H1012 H 0.25037 0.43117 0.78642
 H1013 H 0.28857 0.43208 0.74994
 H1014 H 0.29768 0.40506 0.75898
 C1015 C 0.29559 -0.14110 0.29394
 C1016 C 0.28482 -0.15350 0.29873
 C1017 C 0.29090 -0.16813 0.30510
 C1018 C 0.30783 -0.17052 0.30677
 C1019 C 0.31856 -0.15806 0.30179
 C1020 C 0.31247 -0.14345 0.29542
 C1021 C 0.28938 -0.12580 0.28793
 C1022 C 0.28434 -0.11284 0.28308
 C1023 C 0.27854 -0.09721 0.27752
 C1024 C 0.26532 -0.08971 0.28530
 C1025 C 0.26009 -0.07423 0.28034
 C1026 C 0.26805 -0.06601 0.26751
 C1027 C 0.28123 -0.07376 0.25964
 C1028 C 0.28643 -0.08924 0.26463
 H1029 H 0.27174 -0.15180 0.29765
 H1030 H 0.28243 -0.17759 0.30879
 H1031 H 0.33163 -0.15954 0.30312
 H1032 H 0.32091 -0.13391 0.29182
 H1033 H 0.25916 -0.09575 0.29533
 H1034 H 0.24994 -0.06863 0.28671
 H1035 H 0.28768 -0.06781 0.24975
 H1036 H 0.29672 -0.09492 0.25855
 C1037 C 0.79679 0.85937 0.79410
 C1038 C 0.78613 0.84681 0.79870
 C1039 C 0.79233 0.83229 0.80523
 C1040 C 0.80926 0.83018 0.80724
 C1041 C 0.81987 0.84281 0.80245
 C1042 C 0.81367 0.85731 0.79592
 C1043 C 0.79045 0.87454 0.78790
 C1044 C 0.78533 0.88740 0.78289
 C1045 C 0.77944 0.90292 0.77713
 C1046 C 0.78737 0.91081 0.76422
 C1047 C 0.78211 0.92622 0.75906
 C1048 C 0.76884 0.93397 0.76678
 C1049 C 0.76084 0.92581 0.77963
 C1050 C 0.76612 0.91041 0.78476
 H1051 H 0.77305 0.84828 0.79736
 H1052 H 0.78394 0.82269 0.80877
 H1053 H 0.83294 0.84155 0.80404
 H1054 H 0.82202 0.86698 0.79247
 H1055 H 0.79773 0.90515 0.75826
 H1056 H 0.78860 0.93213 0.74918
 H1057 H 0.75062 0.93141 0.78589
 H1058 H 0.75993 0.90442 0.79480
 C1059 C 0.45462 0.89274 0.29370
 C1060 C 0.46500 0.90528 0.29897
 C1061 C 0.45845 0.91948 0.30582
 C1062 C 0.44145 0.92129 0.30749
 C1063 C 0.43113 0.90870 0.30200
 C1064 C 0.43768 0.89452 0.29516
 C1065 C 0.46130 0.87780 0.28730
 C1066 C 0.46662 0.86507 0.28219
 C1067 C 0.47262 0.84960 0.27641
 C1068 C 0.48576 0.84203 0.28427
 C1069 C 0.49088 0.82649 0.27939
 C1070 C 0.48288 0.81829 0.26656
 C1071 C 0.46989 0.82619 0.25851
 C1072 C 0.46480 0.84173 0.26342
 H1073 H 0.47813 0.90400 0.29793
 H1074 H 0.46662 0.92905 0.30990
 H1075 H 0.41801 0.90973 0.30332
 H1076 H 0.42955 0.88486 0.29119
 H1077 H 0.49186 0.84800 0.29438
 H1078 H 0.50089 0.82079 0.28588
 H1079 H 0.46343 0.82026 0.24861
 H1080 H 0.45458 0.84747 0.25729
 C1081 C -0.04647 0.89019 0.79496
 C1082 C -0.06339 0.89219 0.79643
 C1083 C -0.06975 0.90653 0.80313
 C1084 C -0.05927 0.91906 0.80845
 C1085 C -0.04229 0.91701 0.80679
 C1086 C -0.03594 0.90265 0.80009
 C1087 C -0.03998 0.87517 0.78857
 C1088 C -0.03473 0.86242 0.78342
 C1089 C -0.02871 0.84701 0.77753
 C1090 C -0.03656 0.83916 0.76454
 C1091 C -0.03122 0.82381 0.75932
 C1092 C -0.01794 0.81608 0.76705
 C1093 C -0.00999 0.82420 0.77995
 C1094 C -0.01535 0.83955 0.78514
 H1095 H -0.07164 0.88260 0.79257
 H1096 H -0.08286 0.90775 0.80444
 H1097 H -0.03400 0.92653 0.81073
 H1098 H -0.02282 0.90122 0.79902
 H1099 H -0.04695 0.84481 0.75860
 H1100 H -0.03767 0.81792 0.74939
 H1101 H 0.00023 0.81862 0.78622
 H1102 H -0.00922 0.84550 0.79525
 C1103 C -0.04596 -0.14076 -0.04537
 C1104 C -0.06285 -0.14317 -0.04665
 C1105 C -0.06897 -0.15768 -0.05321
 C1106 C -0.05827 -0.16999 -0.05858
 C1107 C -0.04133 -0.16754 -0.05712
 C1108 C -0.03521 -0.15300 -0.05056
 C1109 C -0.03973 -0.12557 -0.03911
 C1110 C -0.03467 -0.11269 -0.03405
 C1111 C -0.02884 -0.09715 -0.02826
 C1112 C -0.03680 -0.08929 -0.01536
 C1113 C -0.03158 -0.07387 -0.01019
 C1114 C -0.01831 -0.06608 -0.01788
 C1115 C -0.01027 -0.07421 -0.03072
 C1116 C -0.01551 -0.08963 -0.03586
 H1117 H -0.07127 -0.13375 -0.04273
 H1118 H -0.08206 -0.15922 -0.05436
 H1119 H -0.03287 -0.17688 -0.06112
 H1120 H -0.02212 -0.15126 -0.04965
 H1121 H -0.04716 -0.09499 -0.00943
 H1122 H -0.03809 -0.06798 -0.00031
 H1123 H -0.00005 -0.06859 -0.03695
 H1124 H -0.00929 -0.09559 -0.04589
 C1125 C -0.04643 0.35921 0.45506
 C1126 C -0.06332 0.35688 0.45380
 C1127 C -0.06952 0.34239 0.44727
 C1128 C -0.05888 0.33002 0.44192
 C1129 C -0.04193 0.33239 0.44336
 C1130 C -0.03574 0.34691 0.44989
 C1131 C -0.04011 0.37439 0.46126
 C1132 C -0.03498 0.38725 0.46626
 C1133 C -0.02904 0.40277 0.47198
 C1134 C -0.03671 0.41058 0.48508
 C1135 C -0.03138 0.42597 0.49021
 C1136 C -0.01827 0.43379 0.48227
 C1137 C -0.01052 0.42572 0.46922
 C1138 C -0.01588 0.41033 0.46412
 H1139 H -0.07170 0.36635 0.45770
 H1140 H -0.08262 0.34092 0.44612
 H1141 H -0.03352 0.32300 0.43938
 H1142 H -0.02264 0.34859 0.45079
 H1143 H -0.04694 0.40485 0.49121
 H1144 H -0.03766 0.43182 0.50026
 H1145 H -0.00043 0.43137 0.46279
 H1146 H -0.00988 0.40442 0.45393
 C1147 C 0.45464 -0.14119 0.45605
 C1148 C 0.46552 -0.15347 0.45122
 C1149 C 0.45956 -0.16815 0.44483
 C1150 C 0.44265 -0.17070 0.44318
 C1151 C 0.43182 -0.15836 0.44820
 C1152 C 0.43779 -0.14370 0.45459
 C1153 C 0.46073 -0.12584 0.46209
 C1154 C 0.46566 -0.11285 0.46695
 C1155 C 0.47136 -0.09718 0.47252
 C1156 C 0.48458 -0.08961 0.46478
 C1157 C 0.48973 -0.07411 0.46975
 C1158 C 0.48170 -0.06593 0.48256
 C1159 C 0.46852 -0.07374 0.49038
 C1160 C 0.46340 -0.08925 0.48538
 H1161 H 0.47858 -0.15164 0.45228
 H1162 H 0.46811 -0.17751 0.44110
 H1163 H 0.41876 -0.15996 0.44688
 H1164 H 0.42927 -0.13425 0.45822
 H1165 H 0.49080 -0.09562 0.45478
 H1166 H 0.49988 -0.06847 0.46342
 H1167 H 0.46202 -0.06781 0.50024
 H1168 H 0.45311 -0.09498 0.49143
 C1169 C 0.45382 0.35925 -0.04471
 C1170 C 0.46451 0.34694 -0.04984
 C1171 C 0.45833 0.33242 -0.05639
 C1172 C 0.44138 0.33007 -0.05788
 C1173 C 0.43074 0.34245 -0.05257
 C1174 C 0.43693 0.35695 -0.04603
 C1175 C 0.46013 0.37443 -0.03847
 C1176 C 0.46523 0.38729 -0.03343
 C1177 C 0.47110 0.40281 -0.02763
 C1178 C 0.48437 0.41037 -0.03530
 C1179 C 0.48964 0.42578 -0.03015
 C1180 C 0.48167 0.43386 -0.01724
 C1181 C 0.46846 0.42604 -0.00948
 C1182 C 0.46322 0.41063 -0.01466
 H1183 H 0.47761 0.34861 -0.04890
 H1184 H 0.46674 0.32302 -0.06033
 H1185 H 0.41764 0.34100 -0.05376
 H1186 H 0.42855 0.36642 -0.04216
 H1187 H 0.49053 0.40444 -0.04539
 H1188 H 0.49981 0.43143 -0.03643
 H1189 H 0.46200 0.43190 0.00045
 H1190 H 0.45290 0.40491 -0.00868
 C1191 C 0.79466 0.39338 0.45764
 C1192 C 0.81157 0.39519 0.45587
 C1193 C 0.81801 0.40950 0.44916
 C1194 C 0.80759 0.42220 0.44414
 C1195 C 0.79063 0.42036 0.44614
 C1196 C 0.78420 0.40602 0.45284
 C1197 C 0.78810 0.37830 0.46385
 C1198 C 0.78287 0.36546 0.46880
 C1199 C 0.77696 0.34987 0.47437
 C1200 C 0.76394 0.34227 0.46632
 C1201 C 0.75889 0.32664 0.47101
 C1202 C 0.76685 0.31838 0.48383
 C1203 C 0.77972 0.32630 0.49206
 C1204 C 0.78473 0.34193 0.48734
 H1205 H 0.81977 0.38544 0.45946
 H1206 H 0.83110 0.41055 0.44758
 H1207 H 0.78239 0.43002 0.44242
 H1208 H 0.77109 0.40473 0.45413
 H1209 H 0.75788 0.34829 0.45622
 H1210 H 0.74897 0.32093 0.46439
 H1211 H 0.78614 0.32033 0.50195
 H1212 H 0.79487 0.34769 0.49361
 C1213 C 0.79553 0.89191 -0.04469
 C1214 C 0.78511 0.90440 -0.04995
 C1215 C 0.79160 0.91865 -0.05678
 C1216 C 0.80859 0.92055 -0.05845
 C1217 C 0.81896 0.90799 -0.05301
 C1218 C 0.81247 0.89377 -0.04617
 C1219 C 0.78893 0.87695 -0.03825
 C1220 C 0.78366 0.86420 -0.03309
 C1221 C 0.77771 0.84872 -0.02725
 C1222 C 0.76452 0.84113 -0.03501
 C1223 C 0.75944 0.82559 -0.03008
 C1224 C 0.76754 0.81740 -0.01731
 C1225 C 0.78058 0.82532 -0.00935
 C1226 C 0.78563 0.84086 -0.01432
 H1227 H 0.77198 0.90307 -0.04889
 H1228 H 0.78339 0.92819 -0.06083
 H1229 H 0.83208 0.90909 -0.05432
 H1230 H 0.82064 0.88414 -0.04221
 H1231 H 0.75834 0.84709 -0.04508
 H1232 H 0.74938 0.81987 -0.03650
 H1233 H 0.78712 0.81940 0.00049
 H1234 H 0.79590 0.84661 -0.00826
 C1235 C 0.79297 0.29490 0.35750
 C1236 C 0.79438 0.31180 0.35535
 C1237 C 0.80113 0.31808 0.34100
 C1238 C 0.80656 0.30752 0.32861
 C1239 C 0.80495 0.29056 0.33080
 C1240 C 0.79821 0.28429 0.34517
 C1241 C 0.78664 0.28852 0.37259
 C1242 C 0.78158 0.28343 0.38544
 C1243 C 0.77586 0.27769 0.40102
 C1244 C 0.76304 0.28575 0.40891
 C1245 C 0.75815 0.28085 0.42451
 C1246 C 0.76607 0.26781 0.43245
 C1247 C 0.77874 0.25957 0.42424
 C1248 C 0.78359 0.26450 0.40865
 H1249 H 0.79045 0.32012 0.36484
 H1250 H 0.80240 0.33117 0.33968
 H1251 H 0.80900 0.28221 0.32138
 H1252 H 0.79721 0.27118 0.34673
 H1253 H 0.75700 0.29601 0.40313
 H1254 H 0.74838 0.28749 0.43045
 H1255 H 0.78512 0.24951 0.42997
 H1256 H 0.79357 0.25821 0.40266
 C1257 C 0.79414 0.79561 -0.14253
 C1258 C 0.79940 0.78521 -0.15503
 C1259 C 0.80627 0.79172 -0.16924
 C1260 C 0.80798 0.80871 -0.17108
 C1261 C 0.80252 0.81906 -0.15852
 C1262 C 0.79565 0.81254 -0.14435
 C1263 C 0.78770 0.78897 -0.12760
 C1264 C 0.78257 0.78366 -0.11488
 C1265 C 0.77676 0.77766 -0.09943
 C1266 C 0.78463 0.76452 -0.09186
 C1267 C 0.77972 0.75938 -0.07634
 C1268 C 0.76688 0.76737 -0.06816
 C1269 C 0.75882 0.78035 -0.07606
 C1270 C 0.76376 0.78546 -0.09158
 H1271 H 0.79832 0.77208 -0.15373
 H1272 H 0.81033 0.78353 -0.17878
 H1273 H 0.80387 0.83217 -0.15959
 H1274 H 0.79170 0.82069 -0.13471
 H1275 H 0.79475 0.75843 -0.09781
 H1276 H 0.78622 0.74937 -0.07065
 H1277 H 0.74891 0.78680 -0.07014
 H1278 H 0.75762 0.79569 -0.09731
 C1279 C 0.29469 0.45382 0.89081
 C1280 C 0.29988 0.46458 0.90303
 C1281 C 0.30638 0.45849 0.91760
 C1282 C 0.30779 0.44155 0.92008
 C1283 C 0.30243 0.43084 0.90778
 C1284 C 0.29592 0.43694 0.89324
 C1285 C 0.28850 0.46004 0.87559
 C1286 C 0.28352 0.46509 0.86269
 C1287 C 0.27782 0.47093 0.84713
 C1288 C 0.28549 0.48425 0.83968
 C1289 C 0.28043 0.48952 0.82426
 C1290 C 0.26760 0.48151 0.81605
 C1291 C 0.25984 0.46824 0.82377
 C1292 C 0.26493 0.46300 0.83919
 H1293 H 0.29900 0.47766 0.90127
 H1294 H 0.31037 0.46696 0.92693
 H1295 H 0.30356 0.41775 0.90934
 H1296 H 0.29202 0.42850 0.88383
 H1297 H 0.29552 0.49045 0.84570
 H1298 H 0.28672 0.49974 0.81869
 H1299 H 0.24996 0.46175 0.81781
 H1300 H 0.25894 0.45264 0.84484
 C1301 C 0.29460 -0.04617 0.39082
 C1302 C 0.29596 -0.06304 0.39322
 C1303 C 0.30251 -0.06913 0.40775
 C1304 C 0.30779 -0.05839 0.42007
 C1305 C 0.30625 -0.04147 0.41762
 C1306 C 0.29970 -0.03540 0.40307
 C1307 C 0.28839 -0.03997 0.37561
 C1308 C 0.28339 -0.03493 0.36272
 C1309 C 0.27768 -0.02907 0.34718
 C1310 C 0.26461 -0.03683 0.33936
 C1311 C 0.25948 -0.03156 0.32395
 C1312 C 0.26740 -0.01843 0.31614
 C1313 C 0.28042 -0.01061 0.32421
 C1314 C 0.28551 -0.01590 0.33961
 H1315 H 0.29211 -0.07149 0.38380
 H1316 H 0.30373 -0.08220 0.40928
 H1317 H 0.31018 -0.03299 0.42697
 H1318 H 0.29873 -0.02232 0.40133
 H1319 H 0.25849 -0.04707 0.34509
 H1320 H 0.24945 -0.03790 0.31810
 H1321 H 0.28683 -0.00050 0.31857
 H1322 H 0.29568 -0.00984 0.34554
 C1323 C -0.04520 -0.04720 -0.14046
 C1324 C -0.05021 -0.03661 -0.15291
 C1325 C -0.05681 -0.04290 -0.16734
 C1326 C -0.05849 -0.05986 -0.16948
 C1327 C -0.05330 -0.07040 -0.15696
 C1328 C -0.04670 -0.06410 -0.14255
 C1329 C -0.03894 -0.04077 -0.12537
 C1330 C -0.03389 -0.03554 -0.11258
 C1331 C -0.02811 -0.02950 -0.09713
 C1332 C -0.03600 -0.01636 -0.08961
 C1333 C -0.03087 -0.01093 -0.07427
 C1334 C -0.01774 -0.01860 -0.06622
 C1335 C -0.00976 -0.03169 -0.07401
 C1336 C -0.01493 -0.03710 -0.08935
 H1337 H -0.04913 -0.02351 -0.15141
 H1338 H -0.06066 -0.03456 -0.17685
 H1339 H -0.05463 -0.08350 -0.15825
 H1340 H -0.04293 -0.07240 -0.13296
 H1341 H -0.04626 -0.01043 -0.09551
 H1342 H -0.03733 -0.00086 -0.06864
 H1343 H 0.00035 -0.03792 -0.06817
 H1344 H -0.00876 -0.04732 -0.09505
 C1345 C -0.04406 0.45347 0.35925
 C1346 C -0.04591 0.43660 0.35719
 C1347 C -0.05248 0.43040 0.34272
 C1348 C -0.05728 0.44102 0.33011
 C1349 C -0.05523 0.45795 0.33221
 C1350 C -0.04867 0.46413 0.34671
 C1351 C -0.03784 0.45980 0.37441
 C1352 C -0.03284 0.46492 0.38727
 C1353 C -0.02711 0.47082 0.40279
 C1354 C -0.01420 0.46293 0.41072
 C1355 C -0.00910 0.46818 0.42613
 C1356 C -0.01688 0.48143 0.43385
 C1357 C -0.02973 0.48942 0.42566
 C1358 C -0.03480 0.48413 0.41025
 H1359 H -0.04245 0.42824 0.36685
 H1360 H -0.05410 0.41734 0.34146
 H1361 H -0.05878 0.46634 0.32264
 H1362 H -0.04731 0.47721 0.34819
 H1363 H -0.00820 0.45258 0.40508
 H1364 H 0.00079 0.46171 0.43208
 H1365 H -0.03603 0.49962 0.43123
 H1366 H -0.04484 0.49030 0.40424
 C1367 C 0.45502 -0.04583 0.35925
 C1368 C 0.45376 -0.06270 0.35681
 C1369 C 0.44725 -0.06878 0.34227
 C1370 C 0.44193 -0.05805 0.32996
 C1371 C 0.44337 -0.04112 0.33245
 C1372 C 0.44988 -0.03505 0.34702
 C1373 C 0.46120 -0.03963 0.37448
 C1374 C 0.46618 -0.03460 0.38738
 C1375 C 0.47187 -0.02877 0.40294
 C1376 C 0.48498 -0.03650 0.41072
 C1377 C 0.49009 -0.03126 0.42614
 C1378 C 0.48213 -0.01820 0.43400
 C1379 C 0.46907 -0.01041 0.42597
 C1380 C 0.46399 -0.01567 0.41055
 H1381 H 0.45764 -0.07115 0.36623
 H1382 H 0.44610 -0.08186 0.34071
 H1383 H 0.43941 -0.03264 0.32312
 H1384 H 0.45078 -0.02197 0.34880
 H1385 H 0.49113 -0.04669 0.40495
 H1386 H 0.50015 -0.03757 0.43196
 H1387 H 0.46263 -0.00036 0.43165
 H1388 H 0.45379 -0.00964 0.40465
 C1389 C 0.45448 0.45258 -0.13963
 C1390 C 0.44948 0.46313 -0.15211
 C1391 C 0.44286 0.45681 -0.16652
 C1392 C 0.44116 0.43984 -0.16859
 C1393 C 0.44634 0.42933 -0.15605
 C1394 C 0.45297 0.43567 -0.14166
 C1395 C 0.46078 0.45906 -0.12457
 C1396 C 0.46586 0.46432 -0.11180
 C1397 C 0.47168 0.47040 -0.09638
 C1398 C 0.46378 0.48353 -0.08884
 C1399 C 0.46895 0.48899 -0.07353
 C1400 C 0.48212 0.48135 -0.06551
 C1401 C 0.49011 0.46827 -0.07331
 C1402 C 0.48490 0.46284 -0.08863
 H1403 H 0.45058 0.47624 -0.15066
 H1404 H 0.43901 0.46511 -0.17605
 H1405 H 0.44500 0.41624 -0.15729
 H1406 H 0.45674 0.42740 -0.13205
 H1407 H 0.45349 0.48943 -0.09472
 H1408 H 0.46248 0.49904 -0.06788
 H1409 H 0.50025 0.46207 -0.06750
 H1410 H 0.49107 0.45263 -0.09434
 C1411 C 0.45737 0.79523 0.39247
 C1412 C 0.45269 0.78467 0.40506
 C1413 C 0.44605 0.79097 0.41947
 C1414 C 0.44400 0.80791 0.42142
 C1415 C 0.44890 0.81843 0.40877
 C1416 C 0.45554 0.81212 0.39439
 C1417 C 0.46357 0.78880 0.37735
 C1418 C 0.46851 0.78367 0.36448
 C1419 C 0.47411 0.77788 0.34887
 C1420 C 0.46610 0.76490 0.34117
 C1421 C 0.47087 0.75994 0.32556
 C1422 C 0.48373 0.76795 0.31741
 C1423 C 0.49191 0.78079 0.32542
 C1424 C 0.48711 0.78571 0.34103
 H1425 H 0.45403 0.77158 0.40369
 H1426 H 0.44242 0.78266 0.42908
 H1427 H 0.44728 0.83150 0.40991
 H1428 H 0.45905 0.82040 0.38469
 H1429 H 0.45598 0.75878 0.34712
 H1430 H 0.46428 0.75003 0.31978
 H1431 H 0.50184 0.78725 0.31953
 H1432 H 0.49336 0.79582 0.34686
 C1433 C -0.04419 0.79640 0.89024
 C1434 C -0.04880 0.78574 0.90278
 C1435 C -0.05531 0.79193 0.91729
 C1436 C -0.05731 0.80885 0.91941
 C1437 C -0.05252 0.81947 0.90680
 C1438 C -0.04600 0.81328 0.89231
 C1439 C -0.03801 0.79007 0.87507
 C1440 C -0.03303 0.78493 0.86222
 C1441 C -0.02732 0.77902 0.84670
 C1442 C -0.03506 0.76574 0.83923
 C1443 C -0.02999 0.76042 0.82383
 C1444 C -0.01707 0.76834 0.81568
 C1445 C -0.00924 0.78156 0.82341
 C1446 C -0.01434 0.78685 0.83881
 H1447 H -0.04747 0.77266 0.90130
 H1448 H -0.05885 0.78353 0.92687
 H1449 H -0.05410 0.83254 0.90808
 H1450 H -0.04255 0.82163 0.88266
 H1451 H -0.04515 0.75962 0.84521
 H1452 H -0.03633 0.75025 0.81825
 H1453 H 0.00070 0.78798 0.81750
 H1454 H -0.00830 0.79717 0.84447
 C1455 C 0.35758 0.79364 0.29468
 C1456 C 0.35546 0.79492 0.31158
 C1457 C 0.34111 0.80163 0.31791
 C1458 C 0.32868 0.80714 0.30741
 C1459 C 0.33084 0.80565 0.29045
 C1460 C 0.34522 0.79895 0.28413
 C1461 C 0.37268 0.78736 0.28825
 C1462 C 0.38554 0.78235 0.28310
 C1463 C 0.40112 0.77671 0.27725
 C1464 C 0.40899 0.76368 0.28502
 C1465 C 0.42459 0.75887 0.28003
 C1466 C 0.43257 0.76707 0.26720
 C1467 C 0.42439 0.77995 0.25925
 C1468 C 0.40879 0.78473 0.26427
 H1469 H 0.36498 0.79093 0.31985
 H1470 H 0.33981 0.80281 0.33100
 H1471 H 0.32141 0.80976 0.28215
 H1472 H 0.34676 0.79804 0.27103
 H1473 H 0.40318 0.75742 0.29513
 H1474 H 0.43051 0.74893 0.28645
 H1475 H 0.43015 0.78655 0.24935
 H1476 H 0.40283 0.79486 0.25821
 C1477 C -0.14032 0.79502 0.79596
 C1478 C -0.14271 0.79630 0.81282
 C1479 C -0.15724 0.80284 0.81892
 C1480 C -0.16957 0.80817 0.80823
 C1481 C -0.16713 0.80671 0.79131
 C1482 C -0.15258 0.80018 0.78521
 C1483 C -0.12511 0.78881 0.78974
 C1484 C -0.11222 0.78380 0.78467
 C1485 C -0.09668 0.77807 0.77881
 C1486 C -0.08889 0.76496 0.78652
 C1487 C -0.07349 0.75982 0.78125
 C1488 C -0.06565 0.76775 0.76816
 C1489 C -0.07368 0.78082 0.76038
 C1490 C -0.08908 0.78593 0.76569
 H1491 H -0.13327 0.79242 0.82124
 H1492 H -0.15876 0.80400 0.83199
 H1493 H -0.17649 0.81068 0.78285
 H1494 H -0.15084 0.79926 0.77214
 H1495 H -0.09465 0.75883 0.79673
 H1496 H -0.06767 0.74976 0.78755
 H1497 H -0.06801 0.78724 0.75031
 H1498 H -0.09498 0.79613 0.75966
 C1499 C 0.89163 0.29393 0.45442
 C1500 C 0.89344 0.29546 0.43751
 C1501 C 0.90767 0.30228 0.43100
 C1502 C 0.92027 0.30767 0.44135
 C1503 C 0.91843 0.30594 0.45832
 C1504 C 0.90417 0.29912 0.46482
 C1505 C 0.87665 0.28755 0.46103
 C1506 C 0.86389 0.28245 0.46632
 C1507 C 0.84839 0.27670 0.47229
 C1508 C 0.84045 0.26376 0.46446
 C1509 C 0.82489 0.25889 0.46953
 C1510 C 0.81703 0.26695 0.48253
 C1511 C 0.82530 0.27973 0.49055
 C1512 C 0.84086 0.28457 0.48544
 H1513 H 0.88377 0.29156 0.42935
 H1514 H 0.90873 0.30364 0.41791
 H1515 H 0.92801 0.30995 0.46651
 H1516 H 0.90288 0.29803 0.47793
 H1517 H 0.84615 0.25763 0.45422
 H1518 H 0.81890 0.24904 0.46306
 H1519 H 0.81964 0.28622 0.50057
 H1520 H 0.84689 0.29464 0.49156
 C1521 C 0.89245 0.79366 -0.04600
 C1522 C 0.89424 0.79518 -0.06292
 C1523 C 0.90842 0.80207 -0.06945
 C1524 C 0.92101 0.80754 -0.05912
 C1525 C 0.91919 0.80582 -0.04214
 C1526 C 0.90498 0.79892 -0.03562
 C1527 C 0.87752 0.78719 -0.03936
 C1528 C 0.86479 0.78203 -0.03406
 C1529 C 0.84932 0.77620 -0.02807
 C1530 C 0.84170 0.78409 -0.01499
 C1531 C 0.82615 0.77918 -0.00990
 C1532 C 0.81799 0.76629 -0.01786
 C1533 C 0.82595 0.75820 -0.03077
 C1534 C 0.84149 0.76314 -0.03583
 H1535 H 0.88458 0.79122 -0.07106
 H1536 H 0.90946 0.80343 -0.08255
 H1537 H 0.92876 0.80988 -0.03397
 H1538 H 0.90371 0.79784 -0.02251
 H1539 H 0.84763 0.79425 -0.00893
 H1540 H 0.82041 0.78570 0.00006
 H1541 H 0.82005 0.74826 -0.03720
 H1542 H 0.84727 0.75698 -0.04601
 C1543 C -0.14083 -0.04455 -0.04701
 C1544 C -0.15342 -0.04921 -0.03642
 C1545 C -0.16792 -0.05574 -0.04268
 C1546 C -0.16998 -0.05769 -0.05960
 C1547 C -0.15733 -0.05283 -0.07015
 C1548 C -0.14286 -0.04631 -0.06388
 C1549 C -0.12567 -0.03836 -0.04061
 C1550 C -0.11282 -0.03337 -0.03543
 C1551 C -0.09730 -0.02763 -0.02948
 C1552 C -0.08982 -0.03538 -0.01621
 C1553 C -0.07441 -0.03030 -0.01088
 C1554 C -0.06624 -0.01738 -0.01877
 C1555 C -0.07398 -0.00954 -0.03197
 C1556 C -0.08939 -0.01465 -0.03728
 H1557 H -0.15197 -0.04792 -0.02334
 H1558 H -0.17752 -0.05934 -0.03434
 H1559 H -0.15857 -0.05438 -0.08321
 H1560 H -0.13317 -0.04280 -0.07218
 H1561 H -0.09582 -0.04548 -0.01012
 H1562 H -0.06882 -0.03664 -0.00071
 H1563 H -0.06806 0.00041 -0.03837
 H1564 H -0.09505 -0.00861 -0.04760
 C1565 C -0.14126 0.45651 0.45471
 C1566 C -0.14372 0.45496 0.43788
 C1567 C -0.15842 0.44865 0.43191
 C1568 C -0.17086 0.44382 0.44272
 C1569 C -0.16835 0.44557 0.45960
 C1570 C -0.15363 0.45187 0.46556
 C1571 C -0.12587 0.46244 0.46080
 C1572 C -0.11284 0.46722 0.46573
 C1573 C -0.09713 0.47270 0.47142
 C1574 C -0.08913 0.48554 0.46348
 C1575 C -0.07359 0.49045 0.46859
 C1576 C -0.06581 0.48256 0.48174
 C1577 C -0.07405 0.46975 0.48974
 C1578 C -0.08959 0.46487 0.48460
 H1579 H -0.13420 0.45844 0.42938
 H1580 H -0.15999 0.44726 0.41887
 H1581 H -0.17779 0.44198 0.46814
 H1582 H -0.15184 0.45300 0.47861
 H1583 H -0.09484 0.49165 0.45322
 H1584 H -0.06761 0.50031 0.46211
 H1585 H -0.06844 0.46337 0.49987
 H1586 H -0.09566 0.45488 0.49081
 C1587 C 0.35896 -0.04410 0.45373
 C1588 C 0.34641 -0.04875 0.46436
 C1589 C 0.33190 -0.05530 0.45815
 C1590 C 0.32980 -0.05730 0.44124
 C1591 C 0.34242 -0.05245 0.43065
 C1592 C 0.35690 -0.04589 0.43687
 C1593 C 0.37414 -0.03792 0.46008
 C1594 C 0.38702 -0.03295 0.46522
 C1595 C 0.40257 -0.02725 0.47112
 C1596 C 0.41008 -0.03502 0.48434
 C1597 C 0.42553 -0.02998 0.48962
 C1598 C 0.43369 -0.01707 0.48170
 C1599 C 0.42591 -0.00920 0.46853
 C1600 C 0.41047 -0.01428 0.46329
 H1601 H 0.34789 -0.04744 0.47743
 H1602 H 0.32232 -0.05889 0.46652
 H1603 H 0.34116 -0.05403 0.41760
 H1604 H 0.36657 -0.04240 0.42854
 H1605 H 0.40409 -0.04511 0.49046
 H1606 H 0.43114 -0.03634 0.49976
 H1607 H 0.43183 0.00073 0.46212
 H1608 H 0.40478 -0.00821 0.45300
 C1609 C 0.35898 0.45559 -0.04616
 C1610 C 0.35696 0.45377 -0.06302
 C1611 C 0.34245 0.44729 -0.06927
 C1612 C 0.32977 0.44254 -0.05870
 C1613 C 0.33184 0.44456 -0.04179
 C1614 C 0.34637 0.45104 -0.03556
 C1615 C 0.37417 0.46172 -0.03978
 C1616 C 0.38705 0.46667 -0.03461
 C1617 C 0.40259 0.47235 -0.02868
 C1618 C 0.41048 0.48537 -0.03645
 C1619 C 0.42591 0.49045 -0.03116
 C1620 C 0.43368 0.48255 -0.01801
 C1621 C 0.42553 0.46960 -0.01016
 C1622 C 0.41010 0.46455 -0.01547
 H1623 H 0.36666 0.45719 -0.07134
 H1624 H 0.34121 0.44569 -0.08232
 H1625 H 0.32221 0.44105 -0.03344
 H1626 H 0.34782 0.45238 -0.02248
 H1627 H 0.40480 0.49146 -0.04672
 H1628 H 0.43182 0.50042 -0.03753
 H1629 H 0.43115 0.46321 -0.00003
 H1630 H 0.40412 0.45442 -0.00941
 C1631 C 0.39030 0.45421 0.79742
 C1632 C 0.40279 0.44916 0.78690
 C1633 C 0.41716 0.44246 0.79325
 C1634 C 0.41918 0.44070 0.81020
 C1635 C 0.40661 0.44592 0.82067
 C1636 C 0.39227 0.45263 0.81431
 C1637 C 0.37527 0.46061 0.79092
 C1638 C 0.36253 0.46578 0.78565
 C1639 C 0.34714 0.47169 0.77957
 C1640 C 0.33930 0.48473 0.78732
 C1641 C 0.32398 0.48999 0.78189
 C1642 C 0.31627 0.48223 0.76862
 C1643 C 0.32438 0.46925 0.76078
 C1644 C 0.33970 0.46403 0.76623
 H1645 H 0.40138 0.45031 0.77381
 H1646 H 0.42671 0.43859 0.78498
 H1647 H 0.40782 0.44454 0.83376
 H1648 H 0.38265 0.45642 0.82255
 H1649 H 0.34493 0.49071 0.79769
 H1650 H 0.31809 0.49997 0.78825
 H1651 H 0.31882 0.46296 0.75057
 H1652 H 0.34564 0.45388 0.76018
 C1653 C 0.39069 -0.04398 0.29637
 C1654 C 0.39277 -0.04583 0.31322
 C1655 C 0.40729 -0.05233 0.31941
 C1656 C 0.41992 -0.05707 0.30880
 C1657 C 0.41780 -0.05503 0.29189
 C1658 C 0.40326 -0.04853 0.28572
 C1659 C 0.37549 -0.03782 0.29005
 C1660 C 0.36260 -0.03286 0.28494
 C1661 C 0.34704 -0.02718 0.27907
 C1662 C 0.33956 -0.03490 0.26579
 C1663 C 0.32411 -0.02988 0.26053
 C1664 C 0.31590 -0.01704 0.26851
 C1665 C 0.32364 -0.00923 0.28173
 C1666 C 0.33910 -0.01428 0.28696
 H1667 H 0.38310 -0.04241 0.32157
 H1668 H 0.40856 -0.05394 0.33246
 H1669 H 0.42740 -0.05854 0.28351
 H1670 H 0.40177 -0.04717 0.27265
 H1671 H 0.34559 -0.04493 0.25963
 H1672 H 0.31853 -0.03620 0.25034
 H1673 H 0.31769 0.00064 0.28819
 H1674 H 0.34476 -0.00826 0.29729
 C1675 C 0.10689 0.54221 0.70597
 C1676 C 0.09445 0.54706 0.71663
 C1677 C 0.07990 0.55354 0.71045
 C1678 C 0.07765 0.55525 0.69352
 C1679 C 0.09014 0.55017 0.68290
 C1680 C 0.10466 0.54369 0.68910
 C1681 C 0.12216 0.53621 0.71226
 C1682 C 0.13515 0.53142 0.71728
 C1683 C 0.15089 0.52598 0.72293
 C1684 C 0.15854 0.53394 0.73597
 C1685 C 0.17424 0.52930 0.74085
 C1686 C 0.18253 0.51663 0.73270
 C1687 C 0.17458 0.50851 0.71979
 C1688 C 0.15888 0.51318 0.71495
 H1689 H 0.09606 0.54599 0.72971
 H1690 H 0.07041 0.55732 0.71884
 H1691 H 0.08878 0.55154 0.66984
 H1692 H 0.11425 0.54005 0.68074
 H1693 H 0.15247 0.54391 0.74220
 H1694 H 0.17996 0.53584 0.75081
 H1695 H 0.18057 0.49872 0.71323
 H1696 H 0.15309 0.50697 0.70480
 C1697 C 0.10636 0.04212 0.20577
 C1698 C 0.09392 0.04703 0.21642
 C1699 C 0.07941 0.05358 0.21022
 C1700 C 0.07719 0.05532 0.19329
 C1701 C 0.08969 0.05020 0.18269
 C1702 C 0.10417 0.04365 0.18890
 C1703 C 0.12159 0.03603 0.21209
 C1704 C 0.13454 0.03117 0.21713
 C1705 C 0.15024 0.02568 0.22284
 C1706 C 0.15782 0.03357 0.23596
 C1707 C 0.17350 0.02893 0.24088
 C1708 C 0.18185 0.01631 0.23270
 C1709 C 0.17397 0.00825 0.21971
 C1710 C 0.15829 0.01293 0.21482
 H1711 H 0.09550 0.04594 0.22950
 H1712 H 0.06992 0.05739 0.21860
 H1713 H 0.08834 0.05158 0.16962
 H1714 H 0.11374 0.03996 0.18055
 H1715 H 0.15172 0.04350 0.24221
 H1716 H 0.17918 0.03542 0.25090
 H1717 H 0.18001 -0.00148 0.21312
 H1718 H 0.15255 0.00678 0.20461
 C1719 C 0.64030 0.70485 0.20265
 C1720 C 0.65282 0.69975 0.21311
 C1721 C 0.66714 0.69301 0.20669
 C1722 C 0.66908 0.69129 0.18973
 C1723 C 0.65649 0.69657 0.17932
 C1724 C 0.64219 0.70331 0.18574
 C1725 C 0.62532 0.71129 0.20921
 C1726 C 0.61261 0.71648 0.21452
 C1727 C 0.59725 0.72244 0.22062
 C1728 C 0.58978 0.71480 0.23394
 C1729 C 0.57448 0.72006 0.23937
 C1730 C 0.56640 0.73306 0.23152
 C1731 C 0.57414 0.74081 0.21827
 C1732 C 0.58945 0.73552 0.21287
 H1733 H 0.65147 0.70087 0.22621
 H1734 H 0.67671 0.68909 0.21493
 H1735 H 0.65763 0.69522 0.16623
 H1736 H 0.63254 0.70716 0.17754
 H1737 H 0.59569 0.70462 0.23999
 H1738 H 0.56888 0.71377 0.24957
 H1739 H 0.56828 0.75081 0.21190
 H1740 H 0.59510 0.74149 0.20250
 C1741 C 0.14313 0.70699 0.70492
 C1742 C 0.15575 0.70224 0.71542
 C1743 C 0.17015 0.69561 0.70907
 C1744 C 0.17207 0.69364 0.69213
 C1745 C 0.15939 0.69862 0.68167
 C1746 C 0.14502 0.70525 0.68804
 C1747 C 0.12801 0.71317 0.71140
 C1748 C 0.11514 0.71810 0.71657
 C1749 C 0.09953 0.72369 0.72239
 C1750 C 0.09155 0.73655 0.71445
 C1751 C 0.07593 0.74132 0.71941
 C1752 C 0.06804 0.73325 0.73239
 C1753 C 0.07633 0.72055 0.74050
 C1754 C 0.09195 0.71581 0.73551
 H1755 H 0.15441 0.70351 0.72851
 H1756 H 0.17979 0.69192 0.71734
 H1757 H 0.16050 0.69706 0.66860
 H1758 H 0.13529 0.70882 0.67980
 H1759 H 0.09729 0.74270 0.70425
 H1760 H 0.06993 0.75113 0.71288
 H1761 H 0.07064 0.71405 0.75051
 H1762 H 0.09801 0.70580 0.74170
 C1763 C 0.60785 0.20685 0.54543
 C1764 C 0.60556 0.20529 0.56228
 C1765 C 0.59098 0.19885 0.56838
 C1766 C 0.57849 0.19390 0.55769
 C1767 C 0.58081 0.19566 0.54078
 C1768 C 0.59542 0.20210 0.53469
 C1769 C 0.62313 0.21292 0.53921
 C1770 C 0.63608 0.21780 0.53420
 C1771 C 0.65172 0.22340 0.52845
 C1772 C 0.65966 0.23628 0.53640
 C1773 C 0.67516 0.24128 0.53128
 C1774 C 0.68296 0.23344 0.51811
 C1775 C 0.67476 0.22062 0.51009
 C1776 C 0.65926 0.21565 0.51524
 H1777 H 0.61513 0.20886 0.57070
 H1778 H 0.58955 0.19744 0.58144
 H1779 H 0.57133 0.19198 0.53233
 H1780 H 0.59707 0.20324 0.52162
 H1781 H 0.65395 0.24233 0.54668
 H1782 H 0.68111 0.25115 0.53777
 H1783 H 0.68039 0.21428 0.49995
 H1784 H 0.65323 0.20563 0.50903
 C1785 C 0.60964 0.70405 0.04514
 C1786 C 0.59733 0.71472 0.05034
 C1787 C 0.58281 0.70851 0.05685
 C1788 C 0.58045 0.69155 0.05824
 C1789 C 0.59283 0.68094 0.05288
 C1790 C 0.60733 0.68716 0.04636
 C1791 C 0.62480 0.71038 0.03890
 C1792 C 0.63766 0.71548 0.03383
 C1793 C 0.65318 0.72131 0.02799
 C1794 C 0.66092 0.73439 0.03580
 C1795 C 0.67633 0.73961 0.03059
 C1796 C 0.68422 0.73178 0.01748
 C1797 C 0.67622 0.71876 0.00959
 C1798 C 0.66081 0.71357 0.01483
 H1799 H 0.59900 0.72782 0.04946
 H1800 H 0.57341 0.71690 0.06084
 H1801 H 0.59137 0.66784 0.05399
 H1802 H 0.61680 0.67880 0.04244
 H1803 H 0.65514 0.74044 0.04604
 H1804 H 0.68212 0.74964 0.03699
 H1805 H 0.68193 0.71241 -0.00050
 H1806 H 0.65494 0.70339 0.00874
 C1807 C 0.14264 0.04320 0.04471
 C1808 C 0.14479 0.04448 0.06160
 C1809 C 0.15914 0.05121 0.06793
 C1810 C 0.17154 0.05676 0.05743
 C1811 C 0.16935 0.05529 0.04047
 C1812 C 0.15498 0.04856 0.03415
 C1813 C 0.12754 0.03690 0.03829
 C1814 C 0.11468 0.03187 0.03316
 C1815 C 0.09909 0.02619 0.02736
 C1816 C 0.09153 0.03396 0.01416
 C1817 C 0.07592 0.02917 0.00916
 C1818 C 0.06761 0.01652 0.01735
 C1819 C 0.07547 0.00857 0.03042
 C1820 C 0.09109 0.01340 0.03538
 H1821 H 0.13529 0.04045 0.06988
 H1822 H 0.16046 0.05238 0.08103
 H1823 H 0.17877 0.05943 0.03216
 H1824 H 0.15342 0.04766 0.02105
 H1825 H 0.09760 0.04392 0.00789
 H1826 H 0.07026 0.03557 -0.00092
 H1827 H 0.06946 -0.00118 0.03702
 H1828 H 0.09681 0.00734 0.04566
 C1829 C 0.14326 0.54307 0.54454
 C1830 C 0.15560 0.54840 0.53397
 C1831 C 0.17001 0.55507 0.54028
 C1832 C 0.17223 0.55650 0.55724
 C1833 C 0.15983 0.55097 0.56775
 C1834 C 0.14545 0.54430 0.56143
 C1835 C 0.12813 0.53681 0.53813
 C1836 C 0.11525 0.53181 0.53303
 C1837 C 0.09964 0.52613 0.52728
 C1838 C 0.09157 0.51350 0.53548
 C1839 C 0.07594 0.50866 0.53057
 C1840 C 0.06814 0.51645 0.51737
 C1841 C 0.07651 0.52893 0.50900
 C1842 C 0.09214 0.53374 0.51395
 H1843 H 0.15401 0.54753 0.52087
 H1844 H 0.17943 0.55919 0.53196
 H1845 H 0.16118 0.55211 0.58085
 H1846 H 0.13595 0.54029 0.56972
 H1847 H 0.09725 0.50757 0.54586
 H1848 H 0.06988 0.49903 0.53730
 H1849 H 0.07089 0.53521 0.49881
 H1850 H 0.09826 0.54357 0.50755
 C1851 C 0.64290 0.04322 0.54438
 C1852 C 0.65512 0.04870 0.53376
 C1853 C 0.66952 0.05545 0.54000
 C1854 C 0.67185 0.05680 0.55695
 C1855 C 0.65957 0.05112 0.56752
 C1856 C 0.64519 0.04438 0.56127
 C1857 C 0.62776 0.03693 0.53804
 C1858 C 0.61487 0.03191 0.53298
 C1859 C 0.59924 0.02627 0.52725
 C1860 C 0.59165 0.03404 0.51407
 C1861 C 0.57600 0.02928 0.50914
 C1862 C 0.56770 0.01666 0.51737
 C1863 C 0.57560 0.00870 0.53041
 C1864 C 0.59125 0.01350 0.53531
 H1865 H 0.65345 0.04790 0.52067
 H1866 H 0.67885 0.05968 0.53165
 H1867 H 0.66099 0.05220 0.58061
 H1868 H 0.63577 0.04026 0.56960
 H1869 H 0.59771 0.04398 0.50777
 H1870 H 0.57032 0.03569 0.49907
 H1871 H 0.56959 -0.00104 0.53705
 H1872 H 0.59699 0.00743 0.54557
 C1873 C 0.64208 0.54395 0.04601
 C1874 C 0.64395 0.54555 0.06291
 C1875 C 0.65819 0.55240 0.06936
 C1876 C 0.67077 0.55774 0.05896
 C1877 C 0.66887 0.55595 0.04200
 C1878 C 0.65459 0.54911 0.03557
 C1879 C 0.62710 0.53751 0.03945
 C1880 C 0.61433 0.53235 0.03421
 C1881 C 0.59884 0.52653 0.02828
 C1882 C 0.59131 0.53426 0.01504
 C1883 C 0.57576 0.52934 0.00995
 C1884 C 0.56751 0.51662 0.01807
 C1885 C 0.57536 0.50870 0.03116
 C1886 C 0.59091 0.51365 0.03622
 H1887 H 0.63430 0.54168 0.07111
 H1888 H 0.65930 0.55380 0.08245
 H1889 H 0.67843 0.55992 0.03378
 H1890 H 0.65326 0.54796 0.02246
 H1891 H 0.59732 0.54428 0.00884
 H1892 H 0.57010 0.53573 -0.00015
 H1893 H 0.56939 0.49889 0.03772
 H1894 H 0.59662 0.50762 0.04653
 C1895 C 0.04199 0.04390 0.14299
 C1896 C 0.04688 0.03322 0.15541
 C1897 C 0.05340 0.03939 0.16993
 C1898 C 0.05512 0.05633 0.17218
 C1899 C 0.05002 0.06697 0.15971
 C1900 C 0.04350 0.06078 0.14522
 C1901 C 0.03593 0.03761 0.12775
 C1902 C 0.03110 0.03260 0.11479
 C1903 C 0.02563 0.02694 0.09908
 C1904 C 0.03351 0.01381 0.09151
 C1905 C 0.02887 0.00893 0.07583
 C1906 C 0.01629 0.01716 0.06747
 C1907 C 0.00825 0.03016 0.07534
 C1908 C 0.01291 0.03501 0.09103
 H1909 H 0.04580 0.02012 0.15380
 H1910 H 0.05720 0.03099 0.17940
 H1911 H 0.05139 0.08005 0.16108
 H1912 H 0.03983 0.06916 0.13566
 H1913 H 0.04341 0.00750 0.09762
 H1914 H 0.03535 -0.00111 0.07016
 H1915 H -0.00147 0.03679 0.06930
 H1916 H 0.00677 0.04523 0.09676
 C1917 C 0.04237 0.54386 0.64327
 C1918 C 0.04386 0.56074 0.64551
 C1919 C 0.05040 0.56692 0.66000
 C1920 C 0.05554 0.55627 0.67245
 C1921 C 0.05384 0.53933 0.67018
 C1922 C 0.04730 0.53316 0.65566
 C1923 C 0.03630 0.53758 0.62803
 C1924 C 0.03146 0.53258 0.61506
 C1925 C 0.02600 0.52692 0.59936
 C1926 C 0.01326 0.53497 0.59131
 C1927 C 0.00859 0.53013 0.57563
 C1928 C 0.01667 0.51715 0.56774
 C1929 C 0.02927 0.50894 0.57608
 C1930 C 0.03390 0.51382 0.59177
 H1931 H 0.04015 0.56912 0.63597
 H1932 H 0.05175 0.58000 0.66138
 H1933 H 0.05767 0.53092 0.67963
 H1934 H 0.04624 0.52007 0.65404
 H1935 H 0.00709 0.54517 0.59706
 H1936 H -0.00114 0.53674 0.56959
 H1937 H 0.03577 0.49893 0.57040
 H1938 H 0.04382 0.50753 0.59787
 C1939 C 0.54229 0.04397 0.64321
 C1940 C 0.54365 0.06086 0.64551
 C1941 C 0.55019 0.06703 0.66000
 C1942 C 0.55545 0.05638 0.67240
 C1943 C 0.55387 0.03944 0.67007
 C1944 C 0.54734 0.03327 0.65555
 C1945 C 0.53622 0.03770 0.62797
 C1946 C 0.53139 0.03271 0.61500
 C1947 C 0.52591 0.02707 0.59929
 C1948 C 0.51316 0.03513 0.59127
 C1949 C 0.50847 0.03031 0.57559
 C1950 C 0.51652 0.01733 0.56768
 C1951 C 0.52914 0.00911 0.57599
 C1952 C 0.53380 0.01397 0.59167
 H1953 H 0.53986 0.06925 0.63601
 H1954 H 0.55145 0.08012 0.66143
 H1955 H 0.55779 0.03102 0.67948
 H1956 H 0.54637 0.02018 0.65388
 H1957 H 0.50701 0.04533 0.59703
 H1958 H 0.49873 0.03693 0.56958
 H1959 H 0.53562 -0.00090 0.57029
 H1960 H 0.54372 0.00767 0.59775
 C1961 C 0.54404 0.54572 0.14229
 C1962 C 0.54558 0.56266 0.14401
 C1963 C 0.55244 0.56925 0.15817
 C1964 C 0.55785 0.55896 0.17081
 C1965 C 0.55612 0.54196 0.16905
 C1966 C 0.54925 0.53538 0.15486
 C1967 C 0.53757 0.53902 0.12740
 C1968 C 0.53240 0.53367 0.11470
 C1969 C 0.52653 0.52764 0.09928
 C1970 C 0.51360 0.53552 0.09136
 C1971 C 0.50862 0.53039 0.07587
 C1972 C 0.51656 0.51730 0.06804
 C1973 C 0.52932 0.50922 0.07628
 C1974 C 0.53427 0.51438 0.09178
 H1975 H 0.54166 0.57077 0.13432
 H1976 H 0.55381 0.58236 0.15916
 H1977 H 0.56013 0.53382 0.17866
 H1978 H 0.54815 0.52225 0.15364
 H1979 H 0.50757 0.54583 0.09704
 H1980 H 0.49879 0.53691 0.06990
 H1981 H 0.53572 0.49913 0.07064
 H1982 H 0.54433 0.50823 0.09778
 C1983 C 0.20773 0.54446 0.60717
 C1984 C 0.20602 0.56136 0.60531
 C1985 C 0.19937 0.56778 0.59098
 C1986 C 0.19434 0.55735 0.57830
 C1987 C 0.19627 0.54039 0.58019
 C1988 C 0.20291 0.53398 0.59455
 C1989 C 0.21393 0.53792 0.62225
 C1990 C 0.21887 0.53274 0.63510
 C1991 C 0.22447 0.52691 0.65070
 C1992 C 0.23731 0.53488 0.65869
 C1993 C 0.24205 0.52995 0.67432
 C1994 C 0.23396 0.51698 0.68222
 C1995 C 0.22128 0.50883 0.67392
 C1996 C 0.21657 0.51379 0.65828
 H1997 H 0.20964 0.56958 0.61503
 H1998 H 0.19785 0.58087 0.58989
 H1999 H 0.19253 0.53214 0.57055
 H2000 H 0.20415 0.52087 0.59588
 H2001 H 0.24346 0.54509 0.65295
 H2002 H 0.25184 0.53652 0.68032
 H2003 H 0.21477 0.49883 0.67961
 H2004 H 0.20657 0.50758 0.65223
 C2005 C 0.20695 0.04489 0.10745
 C2006 C 0.20519 0.06179 0.10557
 C2007 C 0.19856 0.06817 0.09121
 C2008 C 0.19361 0.05771 0.07853
 C2009 C 0.19559 0.04076 0.08043
 C2010 C 0.20221 0.03439 0.09482
 C2011 C 0.21311 0.03839 0.12255
 C2012 C 0.21803 0.03322 0.13542
 C2013 C 0.22361 0.02740 0.15103
 C2014 C 0.23643 0.03537 0.15904
 C2015 C 0.24117 0.03041 0.17466
 C2016 C 0.23311 0.01740 0.18252
 C2017 C 0.22044 0.00926 0.17420
 C2018 C 0.21572 0.01425 0.15857
 H2019 H 0.20874 0.07003 0.11530
 H2020 H 0.19699 0.08125 0.09010
 H2021 H 0.19191 0.03249 0.07080
 H2022 H 0.20349 0.02129 0.09616
 H2023 H 0.24258 0.04560 0.15332
 H2024 H 0.25095 0.03697 0.18068
 H2025 H 0.21394 -0.00078 0.17986
 H2026 H 0.20574 0.00803 0.15250
 C2027 C 0.70435 0.20618 0.64132
 C2028 C 0.71518 0.20145 0.65368
 C2029 C 0.70918 0.19511 0.66834
 C2030 C 0.69226 0.19341 0.67081
 C2031 C 0.68147 0.19832 0.65838
 C2032 C 0.68749 0.20467 0.64374
 C2033 C 0.71047 0.21221 0.62601
 C2034 C 0.71541 0.21708 0.61303
 C2035 C 0.72107 0.22271 0.59739
 C2036 C 0.73409 0.21481 0.58965
 C2037 C 0.73918 0.21986 0.57416
 C2038 C 0.73129 0.23289 0.56618
 C2039 C 0.71830 0.24085 0.57417
 C2040 C 0.71324 0.23578 0.58965
 H2041 H 0.72825 0.20256 0.65192
 H2042 H 0.71770 0.19147 0.67777
 H2043 H 0.66841 0.19696 0.65992
 H2044 H 0.67900 0.20822 0.63423
 H2045 H 0.74020 0.20465 0.59551
 H2046 H 0.74918 0.21342 0.56839
 H2047 H 0.71191 0.25089 0.56839
 H2048 H 0.70311 0.24194 0.59551
 C2049 C 0.70435 0.70303 0.13949
 C2050 C 0.70275 0.68613 0.14152
 C2051 C 0.69610 0.67982 0.15590
 C2052 C 0.69096 0.69035 0.16844
 C2053 C 0.69273 0.70730 0.16636
 C2054 C 0.69938 0.71360 0.15196
 C2055 C 0.71073 0.70947 0.12445
 C2056 C 0.71589 0.71467 0.11169
 C2057 C 0.72183 0.72066 0.09628
 C2058 C 0.73485 0.71279 0.08850
 C2059 C 0.74015 0.71812 0.07318
 C2060 C 0.73246 0.73140 0.06541
 C2061 C 0.71952 0.73936 0.07346
 C2062 C 0.71425 0.73400 0.08878
 H2063 H 0.70649 0.67784 0.13192
 H2064 H 0.69471 0.66673 0.15715
 H2065 H 0.68892 0.71563 0.17589
 H2066 H 0.70054 0.72670 0.15050
 H2067 H 0.74077 0.70241 0.09418
 H2068 H 0.75010 0.71167 0.06735
 H2069 H 0.71329 0.74958 0.06784
 H2070 H 0.70413 0.74015 0.09468
 C2071 C 0.54660 0.70524 0.10937
 C2072 C 0.56349 0.70355 0.10735
 C2073 C 0.56977 0.69713 0.09285
 C2074 C 0.55922 0.69233 0.08018
 C2075 C 0.54227 0.69421 0.08225
 C2076 C 0.53600 0.70062 0.09677
 C2077 C 0.54018 0.71134 0.12453
 C2078 C 0.53501 0.71629 0.13738
 C2079 C 0.52908 0.72202 0.15288
 C2080 C 0.53643 0.73549 0.16039
 C2081 C 0.53115 0.74067 0.17575
 C2082 C 0.51842 0.73242 0.18385
 C2083 C 0.51098 0.71899 0.17610
 C2084 C 0.51629 0.71384 0.16072
 H2085 H 0.57180 0.70702 0.11704
 H2086 H 0.58286 0.69564 0.09161
 H2087 H 0.53393 0.69065 0.07263
 H2088 H 0.52291 0.70187 0.09822
 H2089 H 0.54638 0.74189 0.15444
 H2090 H 0.53720 0.75102 0.18136
 H2091 H 0.50119 0.71231 0.18197
 H2092 H 0.51055 0.70336 0.15504
 C2093 C 0.04374 0.70536 0.60708
 C2094 C 0.04498 0.68844 0.60493
 C2095 C 0.05167 0.68210 0.59059
 C2096 C 0.05719 0.69262 0.57819
 C2097 C 0.05575 0.70959 0.58037
 C2098 C 0.04907 0.71592 0.59475
 C2099 C 0.03747 0.71179 0.62217
 C2100 C 0.03246 0.71690 0.63502
 C2101 C 0.02677 0.72266 0.65060
 C2102 C 0.01409 0.71448 0.65862
 C2103 C 0.00925 0.71941 0.67422
 C2104 C 0.01706 0.73259 0.68204
 C2105 C 0.02959 0.74094 0.67370
 C2106 C 0.03440 0.73598 0.65810
 H2107 H 0.04097 0.68016 0.61444
 H2108 H 0.05282 0.66900 0.58928
 H2109 H 0.05987 0.71790 0.57096
 H2110 H 0.04819 0.72903 0.59630
 H2111 H 0.00814 0.70412 0.65294
 H2112 H -0.00041 0.71268 0.68025
 H2113 H 0.03589 0.75111 0.67933
 H2114 H 0.04427 0.74237 0.65202
 C2115 C 0.54660 0.60980 0.20532
 C2116 C 0.56348 0.60771 0.20359
 C2117 C 0.56969 0.59318 0.19716
 C2118 C 0.55908 0.58054 0.19238
 C2119 C 0.54215 0.58268 0.19430
 C2120 C 0.53595 0.59724 0.20072
 C2121 C 0.54025 0.62501 0.21143
 C2122 C 0.53512 0.63789 0.21637
 C2123 C 0.52922 0.65343 0.22205
 C2124 C 0.53701 0.66131 0.23505
 C2125 C 0.53174 0.67673 0.24013
 C2126 C 0.51858 0.68452 0.23225
 C2127 C 0.51070 0.67638 0.21931
 C2128 C 0.51600 0.66096 0.21426
 H2129 H 0.57183 0.61738 0.20704
 H2130 H 0.58277 0.59189 0.19564
 H2131 H 0.53376 0.57308 0.19076
 H2132 H 0.52286 0.59873 0.20200
 H2133 H 0.54729 0.65562 0.24114
 H2134 H 0.53813 0.68263 0.25010
 H2135 H 0.50057 0.68200 0.21292
 H2136 H 0.50991 0.65498 0.20414
 C2137 C 0.04418 0.60652 0.70771
 C2138 C 0.06106 0.60431 0.70618
 C2139 C 0.06723 0.58982 0.69963
 C2140 C 0.05658 0.57734 0.69453
 C2141 C 0.03964 0.57958 0.69628
 C2142 C 0.03348 0.59410 0.70282
 C2143 C 0.03791 0.62176 0.71380
 C2144 C 0.03292 0.63474 0.71864
 C2145 C 0.02729 0.65045 0.72411
 C2146 C 0.03536 0.65847 0.73685
 C2147 C 0.03055 0.67418 0.74150
 C2148 C 0.01759 0.68211 0.73343
 C2149 C 0.00936 0.67379 0.72083
 C2150 C 0.01420 0.65808 0.71621
 H2151 H 0.06945 0.61387 0.70984
 H2152 H 0.08031 0.58845 0.69824
 H2153 H 0.03122 0.57011 0.69248
 H2154 H 0.02039 0.59571 0.70392
 H2155 H 0.04555 0.65270 0.74301
 H2156 H 0.03718 0.68020 0.75123
 H2157 H -0.00065 0.67950 0.71434
 H2158 H 0.00790 0.65200 0.70629
 C2159 C 0.04448 0.14276 0.04313
 C2160 C 0.03396 0.15535 0.04792
 C2161 C 0.04033 0.16974 0.05458
 C2162 C 0.05729 0.17167 0.05653
 C2163 C 0.06776 0.15901 0.05153
 C2164 C 0.06138 0.14466 0.04487
 C2165 C 0.03799 0.12766 0.03689
 C2166 C 0.03283 0.11480 0.03191
 C2167 C 0.02705 0.09920 0.02623
 C2168 C 0.01379 0.09164 0.03392
 C2169 C 0.00884 0.07602 0.02911
 C2170 C 0.01712 0.06772 0.01654
 C2171 C 0.03024 0.07560 0.00868
 C2172 C 0.03516 0.09121 0.01351
 H2173 H 0.02085 0.15400 0.04665
 H2174 H 0.03205 0.17936 0.05829
 H2175 H 0.08084 0.16014 0.05308
 H2176 H 0.06962 0.13495 0.04128
 H2177 H 0.00746 0.09770 0.04382
 H2178 H -0.00129 0.07034 0.03545
 H2179 H 0.03692 0.06960 -0.00103
 H2180 H 0.04548 0.09694 0.00752
 C2181 C 0.04528 0.64255 0.54281
 C2182 C 0.03477 0.65517 0.54757
 C2183 C 0.04115 0.66956 0.55421
 C2184 C 0.05811 0.67149 0.55617
 C2185 C 0.06857 0.65881 0.55120
 C2186 C 0.06219 0.64444 0.54457
 C2187 C 0.03879 0.62744 0.53662
 C2188 C 0.03362 0.61457 0.53168
 C2189 C 0.02779 0.59896 0.52609
 C2190 C 0.01461 0.59142 0.53391
 C2191 C 0.00961 0.57579 0.52918
 C2192 C 0.01778 0.56746 0.51655
 C2193 C 0.03083 0.57532 0.50855
 C2194 C 0.03580 0.59094 0.51331
 H2195 H 0.02167 0.65381 0.54630
 H2196 H 0.03287 0.67919 0.55789
 H2197 H 0.08166 0.65993 0.55276
 H2198 H 0.07043 0.63473 0.54100
 H2199 H 0.00836 0.59750 0.54385
 H2200 H -0.00046 0.57013 0.53562
 H2201 H 0.03742 0.56929 0.49881
 H2202 H 0.04606 0.59666 0.50722
 C2203 C 0.54442 0.14309 0.54310
 C2204 C 0.56132 0.14508 0.54473
 C2205 C 0.56766 0.15946 0.55138
 C2206 C 0.55715 0.17205 0.55647
 C2207 C 0.54019 0.17002 0.55463
 C2208 C 0.53386 0.15561 0.54798
 C2209 C 0.53797 0.12796 0.53690
 C2210 C 0.53285 0.11507 0.53194
 C2211 C 0.52710 0.09945 0.52632
 C2212 C 0.51385 0.09189 0.53403
 C2213 C 0.50891 0.07625 0.52926
 C2214 C 0.51721 0.06793 0.51671
 C2215 C 0.53032 0.07580 0.50883
 C2216 C 0.53522 0.09144 0.51362
 H2217 H 0.56960 0.13543 0.54106
 H2218 H 0.58075 0.16065 0.55284
 H2219 H 0.53189 0.17959 0.55842
 H2220 H 0.52076 0.15418 0.54680
 H2221 H 0.50752 0.09797 0.54392
 H2222 H 0.49880 0.07058 0.53562
 H2223 H 0.53699 0.06978 0.49914
 H2224 H 0.54553 0.09716 0.50761
 C2225 C 0.54442 0.64208 0.04549
 C2226 C 0.54592 0.64385 0.06241
 C2227 C 0.55272 0.65805 0.06897
 C2228 C 0.55812 0.67069 0.05868
 C2229 C 0.55642 0.66889 0.04170
 C2230 C 0.54962 0.65466 0.03514
 C2231 C 0.53801 0.62714 0.03882
 C2232 C 0.53287 0.61440 0.03352
 C2233 C 0.52703 0.59894 0.02756
 C2234 C 0.51363 0.59140 0.03500
 C2235 C 0.50862 0.57586 0.02998
 C2236 C 0.51701 0.56762 0.01744
 C2237 C 0.53027 0.57549 0.00980
 C2238 C 0.53524 0.59102 0.01485
 H2239 H 0.54201 0.63415 0.07053
 H2240 H 0.55406 0.65908 0.08208
 H2241 H 0.56043 0.67850 0.03355
 H2242 H 0.54854 0.65340 0.02203
 H2243 H 0.50722 0.59739 0.04489
 H2244 H 0.49840 0.57019 0.03616
 H2245 H 0.53703 0.56952 0.00013
 H2246 H 0.54567 0.59673 0.00904
 C2247 C 0.70428 0.10904 0.54373
 C2248 C 0.68745 0.10649 0.54533
 C2249 C 0.68158 0.09174 0.55160
 C2250 C 0.69248 0.07935 0.55635
 C2251 C 0.70937 0.08195 0.55456
 C2252 C 0.71523 0.09672 0.54829
 C2253 C 0.71027 0.12447 0.53781
 C2254 C 0.71513 0.13753 0.53305
 C2255 C 0.72074 0.15326 0.52758
 C2256 C 0.71277 0.16120 0.51472
 C2257 C 0.71783 0.17675 0.50979
 C2258 C 0.73096 0.18459 0.51768
 C2259 C 0.73899 0.17641 0.53050
 C2260 C 0.73390 0.16087 0.53540
 H2261 H 0.67888 0.11596 0.54190
 H2262 H 0.66853 0.09010 0.55303
 H2263 H 0.71798 0.07255 0.55808
 H2264 H 0.72828 0.09858 0.54712
 H2265 H 0.70253 0.15544 0.50861
 H2266 H 0.71134 0.18267 0.49991
 H2267 H 0.74910 0.18207 0.53687
 H2268 H 0.74013 0.15485 0.54540
 C2269 C 0.70421 0.60914 0.04501
 C2270 C 0.68731 0.60687 0.04629
 C2271 C 0.68108 0.59241 0.05288
 C2272 C 0.69169 0.58002 0.05827
 C2273 C 0.70865 0.58234 0.05681
 C2274 C 0.71487 0.59682 0.05022
 C2275 C 0.71056 0.62428 0.03874
 C2276 C 0.71570 0.63712 0.03368
 C2277 C 0.72161 0.65261 0.02785
 C2278 C 0.71386 0.66034 0.01474
 C2279 C 0.71913 0.67572 0.00951
 C2280 C 0.73225 0.68361 0.01737
 C2281 C 0.74008 0.67563 0.03044
 C2282 C 0.73478 0.66024 0.03563
 H2283 H 0.67896 0.61634 0.04236
 H2284 H 0.66798 0.59098 0.05404
 H2285 H 0.71704 0.57294 0.06082
 H2286 H 0.72797 0.59846 0.04931
 H2287 H 0.70361 0.65456 0.00866
 H2288 H 0.71278 0.68150 -0.00054
 H2289 H 0.75017 0.68134 0.03681
 H2290 H 0.74083 0.65439 0.04583
 C2291 C 0.20587 0.64268 0.70664
 C2292 C 0.18896 0.64483 0.70534
 C2293 C 0.18264 0.65918 0.69862
 C2294 C 0.19317 0.67158 0.69310
 C2295 C 0.21014 0.66939 0.69459
 C2296 C 0.21646 0.65502 0.70131
 C2297 C 0.21229 0.62758 0.71293
 C2298 C 0.21740 0.61472 0.71797
 C2299 C 0.22316 0.59913 0.72366
 C2300 C 0.21515 0.59121 0.73649
 C2301 C 0.22005 0.57559 0.74134
 C2302 C 0.23305 0.56764 0.73336
 C2303 C 0.24124 0.57587 0.72068
 C2304 C 0.23630 0.59149 0.71586
 H2305 H 0.18066 0.63532 0.70934
 H2306 H 0.16953 0.66049 0.69743
 H2307 H 0.21847 0.67881 0.69048
 H2308 H 0.22957 0.65346 0.70223
 H2309 H 0.20492 0.59699 0.74257
 H2310 H 0.21345 0.56963 0.75112
 H2311 H 0.25127 0.57015 0.71425
 H2312 H 0.24256 0.59750 0.70588
 C2313 C 0.20515 0.14288 0.20681
 C2314 C 0.18824 0.14506 0.20554
 C2315 C 0.18193 0.15943 0.19886
 C2316 C 0.19247 0.17183 0.19336
 C2317 C 0.20944 0.16961 0.19482
 C2318 C 0.21574 0.15521 0.20150
 C2319 C 0.21154 0.12776 0.21308
 C2320 C 0.21663 0.11488 0.21809
 C2321 C 0.22237 0.09928 0.22377
 C2322 C 0.21414 0.09121 0.23637
 C2323 C 0.21905 0.07559 0.24121
 C2324 C 0.23228 0.06779 0.23346
 C2325 C 0.24068 0.07617 0.22101
 C2326 C 0.23573 0.09179 0.21620
 H2327 H 0.17993 0.13556 0.20953
 H2328 H 0.16882 0.16077 0.19770
 H2329 H 0.21778 0.17903 0.19072
 H2330 H 0.22885 0.15363 0.20239
 H2331 H 0.20375 0.09688 0.24227
 H2332 H 0.21229 0.06952 0.25082
 H2333 H 0.25088 0.07056 0.21476
 H2334 H 0.24216 0.09791 0.20639
 C2335 C 0.70693 1.14285 0.70517
 C2336 C 0.70215 1.15548 0.71564
 C2337 C 0.69551 1.16986 0.70924
 C2338 C 0.69356 1.17175 0.69230
 C2339 C 0.69855 1.15905 0.68188
 C2340 C 0.70519 1.14470 0.68829
 C2341 C 0.71314 1.12776 0.71170
 C2342 C 0.71812 1.11490 0.71687
 C2343 C 0.72378 1.09931 0.72266
 C2344 C 0.71563 1.09143 0.73544
 C2345 C 0.72046 1.07581 0.74036
 C2346 C 0.73350 1.06781 0.73250
 C2347 C 0.74182 1.07601 0.71988
 C2348 C 0.73697 1.09163 0.71500
 H2349 H 0.70342 1.15416 0.72874
 H2350 H 0.69181 1.17951 0.71748
 H2351 H 0.69700 1.16014 0.66880
 H2352 H 0.70878 1.13497 0.68008
 H2353 H 0.70537 1.09725 0.74142
 H2354 H 0.71376 1.06988 0.75009
 H2355 H 0.75189 1.07025 0.71354
 H2356 H 0.74332 1.09760 0.70505
 C2357 C 0.70293 0.64028 0.20392
 C2358 C 0.68602 0.64233 0.20246
 C2359 C 0.67967 0.65669 0.19579
 C2360 C 0.69018 0.66920 0.19047
 C2361 C 0.70715 0.66710 0.19210
 C2362 C 0.71349 0.65271 0.19877
 C2363 C 0.70940 0.62525 0.21032
 C2364 C 0.71464 0.61251 0.21552
 C2365 C 0.72067 0.59713 0.22151
 C2366 C 0.71267 0.58924 0.23438
 C2367 C 0.71806 0.57395 0.23974
 C2368 C 0.73154 0.56632 0.23227
 C2369 C 0.73962 0.57447 0.21947
 C2370 C 0.73420 0.58976 0.21413
 H2371 H 0.67774 0.63276 0.20634
 H2372 H 0.66657 0.65796 0.19451
 H2373 H 0.71546 0.67661 0.18815
 H2374 H 0.72660 0.65125 0.19982
 H2375 H 0.70215 0.59481 0.24013
 H2376 H 0.71151 0.56803 0.24958
 H2377 H 0.75000 0.56896 0.21340
 H2378 H 0.74045 0.59575 0.20413
 C2379 C 0.54388 0.10639 0.70796
 C2380 C 0.56077 0.10429 0.70636
 C2381 C 0.56702 0.08988 0.69971
 C2382 C 0.55643 0.07737 0.69457
 C2383 C 0.53948 0.07949 0.69638
 C2384 C 0.53324 0.09393 0.70303
 C2385 C 0.53753 0.12155 0.71417
 C2386 C 0.53248 0.13446 0.71911
 C2387 C 0.52678 0.15012 0.72469
 C2388 C 0.53481 0.15807 0.73750
 C2389 C 0.52996 0.17373 0.74225
 C2390 C 0.51700 0.18169 0.73420
 C2391 C 0.50880 0.17343 0.72154
 C2392 C 0.51368 0.15776 0.71682
 H2393 H 0.56910 0.11389 0.71006
 H2394 H 0.58010 0.08862 0.69827
 H2395 H 0.53112 0.06999 0.69255
 H2396 H 0.52015 0.09544 0.70418
 H2397 H 0.54500 0.15228 0.74364
 H2398 H 0.53657 0.17971 0.75202
 H2399 H 0.49880 0.17916 0.71506
 H2400 H 0.50741 0.15173 0.70685
 C2401 C 1.04359 0.10656 0.20743
 C2402 C 1.06049 0.10436 0.20597
 C2403 C 1.06670 0.08988 0.19943
 C2404 C 1.05609 0.07739 0.19428
 C2405 C 1.03914 0.07962 0.19595
 C2406 C 1.03293 0.09413 0.20248
 C2407 C 1.03728 0.12178 0.21352
 C2408 C 1.03225 0.13473 0.21840
 C2409 C 1.02659 0.15041 0.22394
 C2410 C 1.03477 0.15846 0.23659
 C2411 C 1.02993 0.17413 0.24134
 C2412 C 1.01682 0.18199 0.23345
 C2413 C 1.00847 0.17365 0.22093
 C2414 C 1.01335 0.15798 0.21621
 H2415 H 1.06885 0.11393 0.20968
 H2416 H 1.07979 0.08853 0.19810
 H2417 H 1.03075 0.07014 0.19211
 H2418 H 1.01983 0.09572 0.20353
 H2419 H 1.04507 0.15274 0.24261
 H2420 H 1.03664 0.18016 0.25100
 H2421 H 0.99836 0.17931 0.21458
 H2422 H 1.00697 0.15187 0.20637
 C2423 C 0.20524 0.60835 0.54393
 C2424 C 0.18838 0.60597 0.54543
 C2425 C 0.18232 0.59131 0.55175
 C2426 C 0.19308 0.57885 0.55664
 C2427 C 0.21000 0.58128 0.55495
 C2428 C 0.21604 0.59596 0.54864
 C2429 C 0.21141 0.62369 0.53796
 C2430 C 0.21640 0.63668 0.53314
 C2431 C 0.22212 0.65235 0.52759
 C2432 C 0.21428 0.66021 0.51462
 C2433 C 0.21941 0.67572 0.50962
 C2434 C 0.23248 0.68359 0.51757
 C2435 C 0.24039 0.67548 0.53051
 C2436 C 0.23523 0.65998 0.53548
 H2437 H 0.17991 0.61551 0.54190
 H2438 H 0.16925 0.58980 0.55310
 H2439 H 0.21849 0.57182 0.55859
 H2440 H 0.22912 0.59769 0.54754
 H2441 H 0.20408 0.65443 0.50847
 H2442 H 0.21300 0.68159 0.49966
 H2443 H 0.25045 0.68118 0.53694
 H2444 H 0.24136 0.65402 0.54557
 C2445 C 0.20443 0.10870 1.04413
 C2446 C 0.18757 0.10626 1.04558
 C2447 C 0.18154 0.09160 1.05189
 C2448 C 0.19232 0.07917 1.05684
 C2449 C 0.20924 0.08166 1.05519
 C2450 C 0.21526 0.09635 1.04888
 C2451 C 0.21057 0.12406 1.03817
 C2452 C 0.21553 0.13706 1.03336
 C2453 C 0.22123 0.15274 1.02782
 C2454 C 0.21330 0.16064 1.01491
 C2455 C 0.21840 0.17616 1.00993
 C2456 C 0.23152 0.18401 1.01782
 C2457 C 0.23951 0.17587 1.03068
 C2458 C 0.23439 0.16035 1.03563
 H2459 H 0.17909 0.11577 1.04201
 H2460 H 0.16848 0.09005 1.05321
 H2461 H 0.21776 0.07223 1.05886
 H2462 H 0.22833 0.09812 1.04783
 H2463 H 0.20306 0.15488 1.00881
 H2464 H 0.21193 0.18206 1.00002
 H2465 H 0.24962 0.18154 1.03706
 H2466 H 0.24058 0.15436 1.04567
 C2467 C 0.20661 0.70443 0.64124
 C2468 C 0.20184 0.71526 0.65357
 C2469 C 0.19548 0.70926 0.66823
 C2470 C 0.19379 0.69234 0.67071
 C2471 C 0.19874 0.68156 0.65831
 C2472 C 0.20511 0.68758 0.64367
 C2473 C 0.21263 0.71056 0.62593
 C2474 C 0.21749 0.71552 0.61295
 C2475 C 0.22307 0.72122 0.59730
 C2476 C 0.21536 0.73448 0.58978
 C2477 C 0.22034 0.73963 0.57429
 C2478 C 0.23311 0.73155 0.56609
 C2479 C 0.24090 0.71832 0.57387
 C2480 C 0.23589 0.71321 0.58936
 H2481 H 0.20293 0.72833 0.65181
 H2482 H 0.19180 0.71777 0.67764
 H2483 H 0.19740 0.66850 0.65985
 H2484 H 0.20870 0.67909 0.63419
 H2485 H 0.20539 0.74074 0.59581
 H2486 H 0.21404 0.74981 0.56868
 H2487 H 0.25073 0.71179 0.56792
 H2488 H 0.24191 0.70289 0.59506
 C2489 C 0.20582 0.20484 1.14157
 C2490 C 0.20433 0.18798 1.14395
 C2491 C 0.19801 0.18192 1.15858
 C2492 C 0.19310 0.19267 1.17103
 C2493 C 0.19480 0.20958 1.16861
 C2494 C 0.20111 0.21563 1.15395
 C2495 C 0.21177 0.21102 1.12624
 C2496 C 0.21657 0.21601 1.11326
 C2497 C 0.22210 0.22175 1.09761
 C2498 C 0.23509 0.21393 1.08974
 C2499 C 0.24005 0.21907 1.07425
 C2500 C 0.23206 0.23211 1.06638
 C2501 C 0.21911 0.24000 1.07449
 C2502 C 0.21417 0.23483 1.08999
 H2503 H 0.20788 0.17952 1.13442
 H2504 H 0.19666 0.16885 1.16009
 H2505 H 0.19115 0.21807 1.17805
 H2506 H 0.20220 0.22871 1.15222
 H2507 H 0.24127 0.20375 1.09551
 H2508 H 0.25003 0.21269 1.06837
 H2509 H 0.21265 0.25004 1.06881
 H2510 H 0.20406 0.24093 1.09595
 C2511 C 0.70561 0.54649 0.10956
 C2512 C 0.70391 0.56337 0.10744
 C2513 C 0.69741 0.56956 0.09293
 C2514 C 0.69254 0.55894 0.08036
 C2515 C 0.69443 0.54201 0.08253
 C2516 C 0.70092 0.53582 0.09705
 C2517 C 0.71176 0.54016 0.12475
 C2518 C 0.71672 0.53504 0.13762
 C2519 C 0.72243 0.52917 0.15316
 C2520 C 0.73541 0.53701 0.16103
 C2521 C 0.74051 0.53177 0.17645
 C2522 C 0.73265 0.51860 0.18424
 C2523 C 0.71973 0.51067 0.17611
 C2524 C 0.71466 0.51594 0.16069
 H2525 H 0.70743 0.57172 0.11707
 H2526 H 0.69591 0.58264 0.09162
 H2527 H 0.69082 0.53362 0.07297
 H2528 H 0.70217 0.52274 0.09858
 H2529 H 0.74148 0.54730 0.15533
 H2530 H 0.75046 0.53820 0.18234
 H2531 H 0.71337 0.50053 0.18173
 H2532 H 0.70456 0.50981 0.15472
 C2533 C 0.70772 1.04477 0.60659
 C2534 C 0.70293 1.03433 0.59393
 C2535 C 0.69617 1.04077 0.57964
 C2536 C 0.69409 1.05773 0.57786
 C2537 C 0.69911 1.06812 0.59057
 C2538 C 0.70588 1.06167 0.60484
 C2539 C 0.71400 1.03820 0.62162
 C2540 C 0.71900 1.03297 0.63443
 C2541 C 0.72465 1.02710 0.64999
 C2542 C 0.71675 1.01398 0.65757
 C2543 C 0.72149 1.00899 0.67319
 C2544 C 0.73420 1.01712 0.68148
 C2545 C 0.74229 1.03008 0.67357
 C2546 C 0.73752 1.03503 0.65796
 H2547 H 0.70428 1.02123 0.59518
 H2548 H 0.69245 1.03255 0.56998
 H2549 H 0.69747 1.08120 0.58957
 H2550 H 0.70947 1.06986 0.61459
 H2551 H 0.70672 1.00779 0.65154
 H2552 H 0.71497 0.99900 0.67889
 H2553 H 0.75211 1.03662 0.67956
 H2554 H 0.74368 1.04524 0.65222
 C2555 C 0.54293 0.20553 0.60767
 C2556 C 0.54428 0.18864 0.60543
 C2557 C 0.55090 0.18243 0.59100
 C2558 C 0.55626 0.19305 0.57862
 C2559 C 0.55471 0.21000 0.58090
 C2560 C 0.54809 0.21620 0.59536
 C2561 C 0.53673 0.21184 0.62284
 C2562 C 0.53177 0.21685 0.63575
 C2563 C 0.52616 0.22251 0.65139
 C2564 C 0.51351 0.21429 0.65942
 C2565 C 0.50872 0.21913 0.67506
 C2566 C 0.51656 0.23228 0.68291
 C2567 C 0.52906 0.24066 0.67458
 C2568 C 0.53382 0.23578 0.65895
 H2569 H 0.54040 0.18028 0.61491
 H2570 H 0.55214 0.16934 0.58961
 H2571 H 0.55870 0.21839 0.57150
 H2572 H 0.54713 0.22930 0.59698
 H2573 H 0.50753 0.20396 0.65370
 H2574 H 0.49907 0.21239 0.68108
 H2575 H 0.53538 0.25081 0.68024
 H2576 H 0.54367 0.24220 0.65286
 C2577 C 1.04287 0.20540 0.10751
 C2578 C 1.04415 0.18850 0.10534
 C2579 C 1.05085 0.18220 0.09098
 C2580 C 1.05636 0.19275 0.07861
 C2581 C 1.05488 0.20971 0.08082
 C2582 C 1.04818 0.21600 0.09520
 C2583 C 1.03658 0.21180 0.12261
 C2584 C 1.03157 0.21689 0.13547
 C2585 C 1.02589 0.22264 0.15106
 C2586 C 1.01314 0.21453 0.15904
 C2587 C 1.00831 0.21945 0.17464
 C2588 C 1.01622 0.23254 0.18252
 C2589 C 1.02882 0.24082 0.17422
 C2590 C 1.03362 0.23588 0.15862
 H2591 H 1.04015 0.18019 0.11482
 H2592 H 1.05203 0.16910 0.08965
 H2593 H 1.05899 0.21805 0.07142
 H2594 H 1.04728 0.22911 0.09677
 H2595 H 1.00712 0.20423 0.15331
 H2596 H 0.99860 0.21278 0.18065
 H2597 H 1.03519 0.25093 0.17989
 H2598 H 1.04354 0.24220 0.15256
 C2599 C 0.64257 0.20558 0.70662
 C2600 C 0.65491 0.21615 0.70129
 C2601 C 0.66931 0.20982 0.69461
 C2602 C 0.67149 0.19285 0.69318
 C2603 C 0.65908 0.18233 0.69871
 C2604 C 0.64472 0.18867 0.70538
 C2605 C 0.62746 0.21201 0.71288
 C2606 C 0.61460 0.21711 0.71790
 C2607 C 0.59900 0.22283 0.72362
 C2608 C 0.59108 0.23563 0.71554
 C2609 C 0.57546 0.24051 0.72041
 C2610 C 0.56752 0.23260 0.73345
 C2611 C 0.57575 0.21994 0.74170
 C2612 C 0.59137 0.21510 0.73679
 H2613 H 0.65336 0.22926 0.70216
 H2614 H 0.67873 0.21813 0.69049
 H2615 H 0.66040 0.16923 0.69757
 H2616 H 0.63521 0.18039 0.70939
 H2617 H 0.59686 0.24167 0.70528
 H2618 H 0.56951 0.25027 0.71377
 H2619 H 0.57003 0.21356 0.75177
 H2620 H 0.59737 0.20514 0.74310
 C2621 C 1.14246 0.20728 0.20525
 C2622 C 1.15507 0.20249 0.21575
 C2623 C 1.16947 0.19585 0.20939
 C2624 C 1.17138 0.19391 0.19245
 C2625 C 1.15871 0.19891 0.18199
 C2626 C 1.14434 0.20555 0.18836
 C2627 C 1.12734 0.21346 0.21173
 C2628 C 1.11447 0.21838 0.21690
 C2629 C 1.09885 0.22394 0.22272
 C2630 C 1.09087 0.23681 0.21482
 C2631 C 1.07523 0.24154 0.21977
 C2632 C 1.06733 0.23341 0.23271
 C2633 C 1.07563 0.22069 0.24078
 C2634 C 1.09127 0.21599 0.23580
 H2635 H 1.15372 0.20374 0.22884
 H2636 H 1.17910 0.19214 0.21765
 H2637 H 1.15982 0.19737 0.16892
 H2638 H 1.13462 0.20914 0.18013
 H2639 H 1.09661 0.24301 0.20464
 H2640 H 1.06923 0.25136 0.21326
 H2641 H 1.06994 0.21415 0.25076
 H2642 H 1.09733 0.20597 0.24196
 C2643 C 0.10907 0.70591 0.54525
 C2644 C 0.09667 0.70119 0.53446
 C2645 C 0.08199 0.69488 0.54050
 C2646 C 0.07956 0.69321 0.55740
 C2647 C 0.09203 0.69814 0.56814
 C2648 C 0.10668 0.70445 0.56209
 C2649 C 0.12442 0.71187 0.53908
 C2650 C 0.13742 0.71667 0.53411
 C2651 C 0.15309 0.72221 0.52840
 C2652 C 0.16068 0.71436 0.51527
 C2653 C 0.17620 0.71931 0.51014
 C2654 C 0.18436 0.73220 0.51809
 C2655 C 0.17652 0.74012 0.53118
 C2656 C 0.16101 0.73514 0.53629
 H2657 H 0.09841 0.70225 0.52140
 H2658 H 0.07253 0.69121 0.53201
 H2659 H 0.09051 0.69680 0.58120
 H2660 H 0.11622 0.70801 0.57055
 H2661 H 0.15468 0.70430 0.50912
 H2662 H 0.18187 0.71291 0.50006
 H2663 H 0.18243 0.75005 0.53762
 H2664 H 0.15526 0.74126 0.54650
 C2665 C 0.10821 0.20622 1.04567
 C2666 C 0.09582 0.20147 1.03488
 C2667 C 0.08115 0.19512 1.04091
 C2668 C 0.07872 0.19342 1.05781
 C2669 C 0.09118 0.19836 1.06856
 C2670 C 0.10582 0.20472 1.06252
 C2671 C 0.12353 0.21222 1.03952
 C2672 C 0.13652 0.21707 1.03454
 C2673 C 0.15218 0.22265 1.02883
 C2674 C 0.15972 0.21490 1.01560
 C2675 C 0.17522 0.21988 1.01045
 C2676 C 0.18342 0.23269 1.01849
 C2677 C 0.17564 0.24051 1.03167
 C2678 C 0.16014 0.23550 1.03679
 H2679 H 0.09755 0.20257 1.02182
 H2680 H 0.07170 0.19145 1.03242
 H2681 H 0.08967 0.19700 1.08161
 H2682 H 0.11535 0.20829 1.07098
 H2683 H 0.15369 0.20490 1.00938
 H2684 H 0.18084 0.21356 1.00030
 H2685 H 0.18158 0.25038 1.03817
 H2686 H 0.15443 0.24154 1.04707
 C2687 C 0.60938 0.54532 0.20414
 C2688 C 0.59709 0.55058 0.21479
 C2689 C 0.58258 0.55712 0.20857
 C2690 C 0.58022 0.55849 0.19163
 C2691 C 0.59258 0.55305 0.18104
 C2692 C 0.60706 0.54651 0.18726
 C2693 C 0.62455 0.53909 0.21049
 C2694 C 0.63740 0.53406 0.21562
 C2695 C 0.65292 0.52829 0.22153
 C2696 C 0.66045 0.53600 0.23478
 C2697 C 0.67586 0.53088 0.24008
 C2698 C 0.68398 0.51796 0.23216
 C2699 C 0.67619 0.51015 0.21896
 C2700 C 0.66078 0.51530 0.21370
 H2701 H 0.59876 0.54974 0.22788
 H2702 H 0.57320 0.56117 0.21695
 H2703 H 0.59112 0.55413 0.16795
 H2704 H 0.61653 0.54254 0.17892
 H2705 H 0.65450 0.54611 0.24090
 H2706 H 0.68149 0.53721 0.25023
 H2707 H 0.68207 0.50020 0.21255
 H2708 H 0.65508 0.50927 0.20339
 C2709 C 0.60701 1.04247 0.70562
 C2710 C 0.59459 1.04719 0.71636
 C2711 C 0.57998 1.05363 0.71027
 C2712 C 0.57765 1.05543 0.69336
 C2713 C 0.59014 1.05049 0.68267
 C2714 C 0.60472 1.04405 0.68877
 C2715 C 0.62233 1.03648 0.71182
 C2716 C 0.63536 1.03170 0.71676
 C2717 C 0.65112 1.02628 0.72234
 C2718 C 0.65880 1.03421 0.73537
 C2719 C 0.67451 1.02957 0.74019
 C2720 C 0.68278 1.01691 0.73200
 C2721 C 0.67481 1.00882 0.71909
 C2722 C 0.65910 1.01350 0.71430
 H2723 H 0.59625 1.04605 0.72942
 H2724 H 0.57051 1.05730 0.71872
 H2725 H 0.58871 1.05193 0.66961
 H2726 H 0.61428 1.04051 0.68035
 H2727 H 0.65275 1.04416 0.74164
 H2728 H 0.68026 1.03608 0.75016
 H2729 H 0.68079 0.99905 0.71250
 H2730 H 0.65328 1.00731 0.70416
 C2731 C 0.89236 0.45624 0.29569
 C2732 C 0.89423 0.45473 0.31260
 C2733 C 0.90842 0.44783 0.31908
 C2734 C 0.92096 0.44235 0.30871
 C2735 C 0.91906 0.44406 0.29174
 C2736 C 0.90484 0.45096 0.28527
 C2737 C 0.87741 0.46272 0.28909
 C2738 C 0.86467 0.46788 0.28383
 C2739 C 0.84920 0.47372 0.27787
 C2740 C 0.84131 0.48665 0.28577
 C2741 C 0.82577 0.49161 0.28071
 C2742 C 0.81787 0.48365 0.26767
 C2743 C 0.82608 0.47089 0.25958
 C2744 C 0.84162 0.46596 0.26467
 H2745 H 0.88461 0.45871 0.32077
 H2746 H 0.90952 0.44649 0.33218
 H2747 H 0.92859 0.43998 0.28354
 H2748 H 0.90351 0.45204 0.27216
 H2749 H 0.84705 0.49270 0.29604
 H2750 H 0.81983 0.50145 0.28724
 H2751 H 0.82039 0.46447 0.24952
 H2752 H 0.84760 0.45590 0.25851
 C2753 C 0.89062 0.95448 0.79655
 C2754 C 0.89259 0.95287 0.81344
 C2755 C 0.90696 0.94620 0.81979
 C2756 C 0.91954 0.94104 0.80931
 C2757 C 0.91752 0.94283 0.79237
 C2758 C 0.90313 0.94950 0.78603
 C2759 C 0.87557 0.96083 0.79007
 C2760 C 0.86281 0.96596 0.78481
 C2761 C 0.84739 0.97182 0.77875
 C2762 C 0.83991 0.96410 0.76548
 C2763 C 0.82458 0.96930 0.76005
 C2764 C 0.81649 0.98231 0.76786
 C2765 C 0.82423 0.99013 0.78107
 C2766 C 0.83957 0.98490 0.78647
 H2767 H 0.88296 0.95662 0.82169
 H2768 H 0.90816 0.94479 0.83287
 H2769 H 0.92708 0.93901 0.78408
 H2770 H 0.90171 0.95067 0.77293
 H2771 H 0.84584 0.95393 0.75945
 H2772 H 0.81898 0.96296 0.74988
 H2773 H 0.81837 1.00014 0.78740
 H2774 H 0.84523 0.99093 0.79680
 C2775 C 0.35916 0.29469 0.79669
 C2776 C 0.35676 0.29598 0.81355
 C2777 C 0.34223 0.30252 0.81965
 C2778 C 0.32991 0.30786 0.80894
 C2779 C 0.33235 0.30639 0.79202
 C2780 C 0.34690 0.29985 0.78594
 C2781 C 0.37438 0.28850 0.79047
 C2782 C 0.38727 0.28351 0.78542
 C2783 C 0.40282 0.27779 0.77957
 C2784 C 0.41056 0.26463 0.78724
 C2785 C 0.42597 0.25948 0.78198
 C2786 C 0.43387 0.26746 0.76896
 C2787 C 0.42588 0.28059 0.76122
 C2788 C 0.41047 0.28570 0.76651
 H2789 H 0.36619 0.29210 0.82198
 H2790 H 0.34070 0.30370 0.83272
 H2791 H 0.32300 0.31036 0.78357
 H2792 H 0.34865 0.29893 0.77287
 H2793 H 0.40476 0.25846 0.79740
 H2794 H 0.43175 0.24938 0.78826
 H2795 H 0.43160 0.28705 0.75121
 H2796 H 0.40461 0.29594 0.76052
 C2797 C 0.85827 0.29368 0.29567
 C2798 C 0.85590 0.29521 0.31251
 C2799 C 0.84132 0.30169 0.31856
 C2800 C 0.82891 0.30673 0.30781
 C2801 C 0.83132 0.30502 0.29091
 C2802 C 0.84593 0.29854 0.28488
 C2803 C 0.87355 0.28756 0.28951
 C2804 C 0.88649 0.28263 0.28452
 C2805 C 0.90211 0.27700 0.27876
 C2806 C 0.91005 0.26413 0.28671
 C2807 C 0.92554 0.25910 0.28156
 C2808 C 0.93331 0.26691 0.26837
 C2809 C 0.92512 0.27972 0.26033
 C2810 C 0.90963 0.28472 0.26551
 H2811 H 0.86540 0.29156 0.32097
 H2812 H 0.83983 0.30305 0.33161
 H2813 H 0.82190 0.30877 0.28242
 H2814 H 0.84764 0.29743 0.27182
 H2815 H 0.90436 0.25810 0.29702
 H2816 H 0.93149 0.24924 0.28807
 H2817 H 0.93073 0.28604 0.25017
 H2818 H 0.90361 0.29473 0.25930
 C2819 C 0.39319 0.79303 0.45526
 C2820 C 0.40552 0.79841 0.46582
 C2821 C 0.41985 0.80523 0.45950
 C2822 C 0.42198 0.80678 0.44254
 C2823 C 0.40959 0.80120 0.43204
 C2824 C 0.39529 0.79438 0.43837
 C2825 C 0.37812 0.78665 0.46170
 C2826 C 0.36529 0.78157 0.46683
 C2827 C 0.34972 0.77585 0.47265
 C2828 C 0.34177 0.76300 0.46468
 C2829 C 0.32615 0.75816 0.46963
 C2830 C 0.31825 0.76616 0.48263
 C2831 C 0.32652 0.77886 0.49078
 C2832 C 0.34214 0.78366 0.48580
 H2833 H 0.40400 0.79746 0.47892
 H2834 H 0.42927 0.80939 0.46780
 H2835 H 0.41086 0.80243 0.41895
 H2836 H 0.38578 0.79034 0.43010
 H2837 H 0.34751 0.75691 0.45444
 H2838 H 0.32016 0.74837 0.46305
 H2839 H 0.32083 0.78531 0.50081
 H2840 H 0.34816 0.79367 0.49202
 C2841 C 0.39181 0.29398 0.95445
 C2842 C 0.40430 0.29920 0.96490
 C2843 C 0.41857 0.30603 0.95846
 C2844 C 0.42050 0.30774 0.94150
 C2845 C 0.40794 0.30234 0.93110
 C2846 C 0.39369 0.29551 0.93754
 C2847 C 0.37683 0.28755 0.96101
 C2848 C 0.36406 0.28241 0.96625
 C2849 C 0.34858 0.27661 0.97221
 C2850 C 0.34063 0.26371 0.96430
 C2851 C 0.32509 0.25878 0.96939
 C2852 C 0.31726 0.26673 0.98247
 C2853 C 0.32553 0.27946 0.99055
 C2854 C 0.34106 0.28437 0.98543
 H2855 H 0.40295 0.29811 0.97800
 H2856 H 0.42812 0.31005 0.96669
 H2857 H 0.40906 0.30369 0.91801
 H2858 H 0.38406 0.29159 0.92935
 H2859 H 0.34631 0.25766 0.95401
 H2860 H 0.31910 0.24895 0.96287
 H2861 H 0.31989 0.28587 1.00064
 H2862 H 0.34709 0.29440 0.99160
 C2863 C 0.79318 0.45580 0.39305
 C2864 C 0.79858 0.46642 0.40531
 C2865 C 0.80530 0.46015 0.41971
 C2866 C 0.80670 0.44319 0.42198
 C2867 C 0.80110 0.43262 0.40966
 C2868 C 0.79439 0.43890 0.39530
 C2869 C 0.78691 0.46217 0.37793
 C2870 C 0.78191 0.46726 0.36506
 C2871 C 0.77629 0.47304 0.34945
 C2872 C 0.78428 0.48604 0.34178
 C2873 C 0.77951 0.49101 0.32616
 C2874 C 0.76668 0.48298 0.31798
 C2875 C 0.75851 0.47012 0.32596
 C2876 C 0.76331 0.46518 0.34158
 H2877 H 0.79774 0.47953 0.40368
 H2878 H 0.80947 0.46851 0.42906
 H2879 H 0.80222 0.41952 0.41105
 H2880 H 0.79032 0.43057 0.38585
 H2881 H 0.79438 0.49217 0.34775
 H2882 H 0.78609 0.50093 0.32041
 H2883 H 0.74861 0.46364 0.32004
 H2884 H 0.75708 0.45506 0.34739
 C2885 C 0.79491 0.95375 0.88998
 C2886 C 0.80005 0.96446 0.90228
 C2887 C 0.80657 0.95831 0.91681
 C2888 C 0.80804 0.94136 0.91919
 C2889 C 0.80272 0.93070 0.90683
 C2890 C 0.79620 0.93687 0.89232
 C2891 C 0.78872 0.96004 0.87479
 C2892 C 0.78373 0.96514 0.86191
 C2893 C 0.77803 0.97103 0.84638
 C2894 C 0.78574 0.98432 0.83892
 C2895 C 0.78068 0.98962 0.82351
 C2896 C 0.76781 0.98166 0.81532
 C2897 C 0.76000 0.96842 0.82304
 C2898 C 0.76509 0.96315 0.83845
 H2899 H 0.79913 0.97755 0.90058
 H2900 H 0.81052 0.96674 0.92619
 H2901 H 0.80389 0.91761 0.90831
 H2902 H 0.79233 0.92847 0.88286
 H2903 H 0.79580 0.99048 0.84493
 H2904 H 0.78700 0.99982 0.81794
 H2905 H 0.75009 0.96197 0.81710
 H2906 H 0.75907 0.95281 0.84410
 C2907 C 0.29322 0.79527 0.35741
 C2908 C 0.29496 0.81217 0.35551
 C2909 C 0.30162 0.81854 0.34116
 C2910 C 0.30663 0.80807 0.32852
 C2911 C 0.30469 0.79112 0.33046
 C2912 C 0.29803 0.78476 0.34483
 C2913 C 0.28699 0.78878 0.37250
 C2914 C 0.28203 0.78359 0.38534
 C2915 C 0.27642 0.77771 0.40091
 C2916 C 0.26353 0.78558 0.40888
 C2917 C 0.25874 0.78054 0.42447
 C2918 C 0.26684 0.76756 0.43233
 C2919 C 0.27959 0.75952 0.42404
 C2920 C 0.28434 0.76459 0.40846
 H2921 H 0.29136 0.82042 0.36520
 H2922 H 0.30316 0.83163 0.34003
 H2923 H 0.30840 0.78284 0.32085
 H2924 H 0.29677 0.77165 0.34619
 H2925 H 0.25735 0.79579 0.40317
 H2926 H 0.24890 0.78703 0.43046
 H2927 H 0.28611 0.74950 0.42970
 H2928 H 0.29438 0.75844 0.40242
 C2929 C 0.29351 0.29553 0.85819
 C2930 C 0.29877 0.28508 0.84573
 C2931 C 0.30569 0.29154 0.83152
 C2932 C 0.30745 0.30852 0.82963
 C2933 C 0.30199 0.31891 0.84215
 C2934 C 0.29507 0.31245 0.85633
 C2935 C 0.28703 0.28895 0.87312
 C2936 C 0.28185 0.28370 0.88585
 C2937 C 0.27602 0.27775 0.90132
 C2938 C 0.28372 0.26447 0.90882
 C2939 C 0.27882 0.25939 0.92436
 C2940 C 0.26615 0.26756 0.93262
 C2941 C 0.25825 0.28068 0.92479
 C2942 C 0.26318 0.28573 0.90925
 H2943 H 0.29766 0.27196 0.84706
 H2944 H 0.30975 0.28331 0.82201
 H2945 H 0.30337 0.33202 0.84106
 H2946 H 0.29112 0.32064 0.86593
 H2947 H 0.29372 0.25824 0.90281
 H2948 H 0.28519 0.24927 0.93000
 H2949 H 0.24847 0.28727 0.93077
 H2950 H 0.25718 0.29606 0.90357
 C2951 C 0.45540 0.29624 0.89105
 C2952 C 0.45071 0.28565 0.90362
 C2953 C 0.44420 0.29191 0.91810
 C2954 C 0.44230 0.30886 0.92016
 C2955 C 0.44719 0.31941 0.90753
 C2956 C 0.45369 0.31313 0.89307
 C2957 C 0.46155 0.28982 0.87591
 C2958 C 0.46651 0.28463 0.86307
 C2959 C 0.47221 0.27866 0.84757
 C2960 C 0.46437 0.26546 0.84008
 C2961 C 0.46943 0.26011 0.82468
 C2962 C 0.48242 0.26794 0.81656
 C2963 C 0.49034 0.28109 0.82432
 C2964 C 0.48525 0.28640 0.83971
 H2965 H 0.45196 0.27255 0.90218
 H2966 H 0.44058 0.28357 0.92769
 H2967 H 0.44568 0.33249 0.90876
 H2968 H 0.45722 0.32143 0.88340
 H2969 H 0.45422 0.25941 0.84604
 H2970 H 0.46302 0.24999 0.81908
 H2971 H 0.50034 0.28743 0.81843
 H2972 H 0.49137 0.29668 0.84539
 C2973 C 0.95497 0.29637 0.39071
 C2974 C 0.95035 0.28573 0.40326
 C2975 C 0.94389 0.29194 0.41778
 C2976 C 0.94197 0.30887 0.41990
 C2977 C 0.94678 0.31947 0.40729
 C2978 C 0.95325 0.31325 0.39279
 C2979 C 0.96109 0.29002 0.37553
 C2980 C 0.96602 0.28486 0.36266
 C2981 C 0.97169 0.27893 0.34714
 C2982 C 0.96370 0.26586 0.33955
 C2983 C 0.96876 0.26052 0.32416
 C2984 C 0.98189 0.26820 0.31613
 C2985 C 0.98995 0.28122 0.32398
 C2986 C 0.98486 0.28653 0.33937
 H2987 H 0.95162 0.27264 0.40177
 H2988 H 0.94032 0.28356 0.42736
 H2989 H 0.94526 0.33254 0.40857
 H2990 H 0.95672 0.32159 0.38313
 H2991 H 0.95345 0.25992 0.34545
 H2992 H 0.96224 0.25050 0.31849
 H2993 H 1.00006 0.28745 0.31816
 H2994 H 0.99109 0.29669 0.34512
 C2995 C 0.45316 0.38981 0.79595
 C2996 C 0.46370 0.40227 0.80107
 C2997 C 0.45734 0.41664 0.80774
 C2998 C 0.44037 0.41870 0.80938
 C2999 C 0.42988 0.40617 0.80408
 C3000 C 0.43625 0.39182 0.79741
 C3001 C 0.45966 0.37478 0.78957
 C3002 C 0.46490 0.36202 0.78443
 C3003 C 0.47092 0.34661 0.77852
 C3004 C 0.48424 0.33911 0.78617
 C3005 C 0.48960 0.32376 0.78096
 C3006 C 0.48168 0.31568 0.76800
 C3007 C 0.46844 0.32346 0.76024
 C3008 C 0.46311 0.33881 0.76549
 H3009 H 0.47681 0.40083 0.80001
 H3010 H 0.46564 0.42616 0.81168
 H3011 H 0.41677 0.40740 0.80538
 H3012 H 0.42798 0.38222 0.79355
 H3013 H 0.49034 0.34503 0.79631
 H3014 H 0.49979 0.31815 0.78724
 H3015 H 0.46202 0.31760 0.75028
 H3016 H 0.45275 0.34448 0.75952
 C3017 C 0.95381 0.39058 0.29495
 C3018 C 0.93694 0.39301 0.29627
 C3019 C 0.93088 0.40755 0.30281
 C3020 C 0.94163 0.41986 0.30812
 C3021 C 0.95856 0.41737 0.30663
 C3022 C 0.96461 0.40281 0.30009
 C3023 C 0.95999 0.37535 0.28873
 C3024 C 0.96500 0.36245 0.28372
 C3025 C 0.97080 0.34688 0.27799
 C3026 C 0.96283 0.33899 0.26511
 C3027 C 0.96803 0.32355 0.25998
 C3028 C 0.98128 0.31578 0.26772
 C3029 C 0.98933 0.32393 0.28055
 C3030 C 0.98410 0.33936 0.28564
 H3031 H 0.92848 0.38360 0.29240
 H3032 H 0.91780 0.40911 0.30400
 H3033 H 0.96705 0.42671 0.31058
 H3034 H 0.97769 0.40104 0.29914
 H3035 H 0.95248 0.34468 0.25914
 H3036 H 0.96152 0.31764 0.25011
 H3037 H 0.99954 0.31832 0.28681
 H3038 H 0.99033 0.34535 0.29566
 C3039 C 0.29555 0.89219 0.45629
 C3040 C 0.31247 0.89412 0.45478
 C3041 C 0.31890 0.90836 0.44792
 C3042 C 0.30846 0.92087 0.44249
 C3043 C 0.29148 0.91891 0.44419
 C3044 C 0.28507 0.90464 0.45105
 C3045 C 0.28902 0.87720 0.46272
 C3046 C 0.28381 0.86441 0.46784
 C3047 C 0.27792 0.84890 0.47362
 C3048 C 0.28594 0.84094 0.48644
 C3049 C 0.28093 0.82537 0.49133
 C3050 C 0.26783 0.81750 0.48342
 C3051 C 0.25963 0.82578 0.47077
 C3052 C 0.26466 0.84136 0.46591
 H3053 H 0.32070 0.88453 0.45872
 H3054 H 0.33200 0.90951 0.44658
 H3055 H 0.28323 0.92841 0.44015
 H3056 H 0.27195 0.90325 0.45213
 H3057 H 0.29625 0.84666 0.49245
 H3058 H 0.28754 0.81938 0.50109
 H3059 H 0.24951 0.82012 0.46439
 H3060 H 0.25841 0.84739 0.45593
 C3061 C 0.29516 0.39232 0.95645
 C3062 C 0.28477 0.40481 0.95114
 C3063 C 0.29129 0.41901 0.94423
 C3064 C 0.30829 0.42085 0.94254
 C3065 C 0.31863 0.40829 0.94804
 C3066 C 0.31209 0.39412 0.95495
 C3067 C 0.28851 0.37740 0.96294
 C3068 C 0.28321 0.36467 0.96812
 C3069 C 0.27722 0.34921 0.97396
 C3070 C 0.28510 0.34133 0.98690
 C3071 C 0.28003 0.32578 0.99183
 C3072 C 0.26701 0.31788 0.98383
 C3073 C 0.25893 0.32610 0.97106
 C3074 C 0.26403 0.34165 0.96617
 H3075 H 0.27164 0.40353 0.95221
 H3076 H 0.28311 0.42856 0.94015
 H3077 H 0.33174 0.40934 0.94671
 H3078 H 0.32024 0.38449 0.95894
 H3079 H 0.29537 0.34706 0.99298
 H3080 H 0.28655 0.31983 1.00168
 H3081 H 0.24888 0.32041 0.96461
 H3082 H 0.25788 0.34763 0.95610
 C3083 C 0.79495 0.35760 0.29315
 C3084 C 0.78437 0.34505 0.29796
 C3085 C 0.79066 0.33063 0.30461
 C3086 C 0.80761 0.32860 0.30654
 C3087 C 0.81815 0.34121 0.30151
 C3088 C 0.81185 0.35560 0.29486
 C3089 C 0.78853 0.37274 0.28695
 C3090 C 0.78341 0.38562 0.28200
 C3091 C 0.77761 0.40124 0.27641
 C3092 C 0.76457 0.40889 0.28437
 C3093 C 0.75959 0.42452 0.27961
 C3094 C 0.76762 0.43273 0.26681
 C3095 C 0.78051 0.42477 0.25868
 C3096 C 0.78546 0.40915 0.26347
 H3097 H 0.77127 0.34648 0.29671
 H3098 H 0.78233 0.32105 0.30833
 H3099 H 0.83123 0.34001 0.30304
 H3100 H 0.82015 0.36526 0.29125
 H3101 H 0.75844 0.40290 0.29444
 H3102 H 0.74965 0.43026 0.28616
 H3103 H 0.78699 0.43071 0.24880
 H3104 H 0.79560 0.40335 0.25726
   
