data_POSCAR
  _audit_creation_date              2014-09-24
  _audit_creation_method            'ToBaCCo'
  _symmetry_space_group_name_H-M    'P1'
  _symmetry_Int_Tables_number       1
  _symmetry_cell_setting            triclinic
  loop_
  _symmetry_equiv_pos_as_xyz
 x,y,z
_cell_length_a 12.1226
_cell_length_b 39.6905
_cell_length_c 36.6332
_cell_angle_alpha 90.091100
_cell_angle_beta 90.889900
_cell_angle_gamma 90.074500
loop_
  _atom_site_label
  _atom_site_type_symbol
  _atom_site_fract_x
  _atom_site_fract_y
  _atom_site_fract_z
B1 B -0.05551 -0.02533 0.02201
 B2 B 0.08183 -0.02678 0.02451
 B3 B 0.01689 -0.03245 -0.01557
 B4 B -0.09521 -0.00713 -0.01741
 B5 B -0.09666 0.01494 0.02298
 B6 B 0.01369 0.00218 0.04878
 B7 B 0.09250 0.03072 -0.01272
 B8 B -0.04489 0.03224 -0.01474
 B9 B 0.02094 0.03774 0.02487
 B10 B 0.13191 0.01249 0.02673
 B11 B 0.13337 -0.00954 -0.01351
 B12 B 0.02293 0.00330 -0.03938
 B13 B 0.58268 0.48197 0.53630
 B14 B 0.44533 0.48334 0.53329
 B15 B 0.51694 0.51843 0.54141
 B16 B 0.63559 0.51715 0.51809
 B17 B 0.63497 0.47984 0.49427
 B18 B 0.51610 0.45891 0.50438
 B19 B 0.45884 0.51730 0.47118
 B20 B 0.59632 0.51606 0.47407
 B21 B 0.52441 0.48091 0.46580
 B22 B 0.40637 0.48213 0.48932
 B23 B 0.40695 0.51937 0.51300
 B24 B 0.52562 0.54031 0.50297
 B25 B 0.59663 0.03187 0.51301
 B26 B 0.45957 0.03381 0.51640
 B27 B 0.51964 0.04104 0.47656
 B28 B 0.62906 0.01541 0.47246
 B29 B 0.63532 -0.00846 0.51134
 B30 B 0.52962 0.00349 0.53854
 B31 B 0.44063 -0.02179 0.47597
 B32 B 0.57757 -0.02359 0.47284
 B33 B 0.51798 -0.03092 0.51266
 B34 B 0.40762 -0.00540 0.51671
 B35 B 0.40118 0.01866 0.47782
 B36 B 0.50725 0.00666 0.45061
 B37 B -0.07504 0.51781 0.03165
 B38 B 0.06226 0.51674 0.02979
 B39 B -0.00933 0.48131 0.03618
 B40 B -0.12787 0.48320 0.01176
 B41 B -0.12805 0.52106 -0.01063
 B42 B -0.00927 0.54178 0.00110
 B43 B 0.04755 0.48425 -0.03368
 B44 B -0.08979 0.48552 -0.03183
 B45 B -0.01842 0.52075 -0.03825
 B46 B 0.10028 0.51896 -0.01388
 B47 B 0.10052 0.48110 0.00863
 B48 B -0.01836 0.46041 -0.00319
 B49 B 0.09467 0.46665 0.48584
 B50 B -0.04291 0.46629 0.48489
 B51 B 0.02568 0.45868 0.52372
 B52 B 0.13920 0.48302 0.52574
 B53 B 0.13936 0.50657 0.48659
 B54 B 0.02571 0.49569 0.46117
 B55 B -0.04509 0.52229 0.52480
 B56 B 0.09261 0.52265 0.52584
 B57 B 0.02487 0.53043 0.48696
 B58 B -0.08948 0.50608 0.48481
 B59 B -0.08973 0.48237 0.52402
 B60 B 0.02392 0.49335 0.54943
 B61 B 0.44976 -0.01972 -0.02952
 B62 B 0.58717 -0.01910 -0.02570
 B63 B 0.51797 0.01643 -0.03396
 B64 B 0.39859 0.01556 -0.01121
 B65 B 0.39568 -0.02188 0.01199
 B66 B 0.51353 -0.04331 0.00240
 B67 B 0.57227 0.01452 0.03681
 B68 B 0.43511 0.01381 0.03294
 B69 B 0.50408 -0.02163 0.04106
 B70 B 0.62409 -0.02076 0.01849
 B71 B 0.62698 0.01672 -0.00481
 B72 B 0.50885 0.03813 0.00484
 B73 B 0.40405 0.52713 -0.02109
 B74 B 0.54050 0.53144 -0.02424
 B75 B 0.47928 0.53702 0.01570
 B76 B 0.37392 0.50945 0.01904
 B77 B 0.37211 0.48611 -0.02049
 B78 B 0.47607 0.50040 -0.04720
 B79 B 0.56877 0.47544 0.01485
 B80 B 0.43220 0.47129 0.01769
 B81 B 0.49408 0.46580 -0.02215
 B82 B 0.59919 0.49329 -0.02535
 B83 B 0.60105 0.51658 0.01410
 B84 B 0.49689 0.50232 0.04087
 B85 B 0.07286 0.01677 0.46497
 B86 B -0.06448 0.01620 0.46694
 B87 B 0.00451 -0.01933 0.45954
 B88 B 0.12384 -0.01857 0.48381
 B89 B 0.12635 0.01889 0.50734
 B90 B 0.00872 0.04039 0.49619
 B91 B -0.05177 -0.01747 0.52944
 B92 B 0.08565 -0.01690 0.52751
 B93 B 0.01645 0.01863 0.53498
 B94 B -0.10209 0.01786 0.51060
 B95 B -0.10471 -0.01954 0.48716
 B96 B 0.01270 -0.04107 0.49827
 B97 B 0.79181 0.28232 0.26793
 B98 B 0.65470 0.27861 0.26718
 B99 B 0.72072 0.28661 0.22853
 B100 B 0.84199 0.26587 0.22928
 B101 B 0.84840 0.24384 0.26954
 B102 B 0.73130 0.25225 0.29311
 B103 B 0.67110 0.22112 0.23001
 B104 B 0.80806 0.22498 0.23052
 B105 B 0.74152 0.21674 0.26891
 B106 B 0.62055 0.23763 0.26855
 B107 B 0.61400 0.25945 0.22822
 B108 B 0.73121 0.25096 0.20469
 B109 B 0.73261 0.78781 0.76633
 B110 B 0.66813 0.77961 0.72679
 B111 B 0.80524 0.78283 0.72865
 B112 B 0.85271 0.76656 0.76818
 B113 B 0.73972 0.75262 0.79098
 B114 B 0.62441 0.76134 0.76531
 B115 B 0.75217 0.71754 0.72728
 B116 B 0.81674 0.72581 0.76670
 B117 B 0.67953 0.72271 0.76502
 B118 B 0.63229 0.73886 0.72538
 B119 B 0.74541 0.75280 0.70260
 B120 B 0.86056 0.74416 0.72821
 B121 B 0.29774 0.22092 0.73122
 B122 B 0.16057 0.22349 0.73234
 B123 B 0.23254 0.21555 0.77054
 B124 B 0.35184 0.23724 0.76983
 B125 B 0.35167 0.25975 0.72988
 B126 B 0.23211 0.25073 0.70661
 B127 B 0.17782 0.28068 0.77044
 B128 B 0.31503 0.27783 0.76932
 B129 B 0.24287 0.28602 0.73131
 B130 B 0.12349 0.26423 0.73181
 B131 B 0.12365 0.24182 0.77182
 B132 B 0.24326 0.25092 0.79505
 B133 B 0.18521 0.77572 0.23195
 B134 B 0.32268 0.77412 0.23336
 B135 B 0.25358 0.78360 0.27084
 B136 B 0.13618 0.76097 0.27158
 B137 B 0.13448 0.73628 0.23297
 B138 B 0.25120 0.74517 0.20910
 B139 B 0.31465 0.71929 0.27451
 B140 B 0.17710 0.72063 0.27359
 B141 B 0.24627 0.71098 0.23573
 B142 B 0.36338 0.73391 0.23498
 B143 B 0.36484 0.75842 0.27362
 B144 B 0.24864 0.74969 0.29739
 B145 B 0.25413 0.71477 0.76968
 B146 B 0.31989 0.72376 0.73136
 B147 B 0.18267 0.72029 0.73088
 B148 B 0.13351 0.73572 0.77025
 B149 B 0.24557 0.74955 0.79494
 B150 B 0.36173 0.74157 0.77079
 B151 B 0.23375 0.78571 0.73195
 B152 B 0.16858 0.77659 0.77042
 B153 B 0.30568 0.78002 0.77044
 B154 B 0.35461 0.76466 0.73119
 B155 B 0.24292 0.75087 0.70651
 B156 B 0.12639 0.75886 0.73077
 B157 B 0.17399 0.21900 0.26756
 B158 B 0.31091 0.22242 0.26583
 B159 B 0.23787 0.21294 0.22840
 B160 B 0.11764 0.23414 0.22877
 B161 B 0.11826 0.25754 0.26815
 B162 B 0.23900 0.24959 0.29112
 B163 B 0.28995 0.27813 0.22632
 B164 B 0.15299 0.27497 0.22809
 B165 B 0.22589 0.28423 0.26572
 B166 B 0.34604 0.26312 0.26513
 B167 B 0.34545 0.23960 0.22579
 B168 B 0.22473 0.24747 0.20276
 B169 B 0.80557 0.71731 0.23085
 B170 B 0.66870 0.72141 0.23026
 B171 B 0.73681 0.71384 0.26950
 B172 B 0.85859 0.73441 0.26923
 B173 B 0.86393 0.75551 0.22845
 B174 B 0.74548 0.74695 0.20447
 B175 B 0.68869 0.77930 0.26666
 B176 B 0.82564 0.77531 0.26676
 B177 B 0.75758 0.78283 0.22790
 B178 B 0.63608 0.76236 0.22813
 B179 B 0.63065 0.74107 0.26883
 B180 B 0.74936 0.74975 0.29286
 B181 B 0.73015 0.21258 0.73246
 B182 B 0.66298 0.22136 0.77065
 B183 B 0.80034 0.21862 0.77169
 B184 B 0.84992 0.23415 0.73259
 B185 B 0.73856 0.24743 0.70734
 B186 B 0.62153 0.23892 0.73098
 B187 B 0.74558 0.28381 0.77025
 B188 B 0.81333 0.27476 0.73232
 B189 B 0.67608 0.27763 0.73146
 B190 B 0.62602 0.26210 0.77053
 B191 B 0.73743 0.24905 0.79577
 B192 B 0.85432 0.25750 0.77206
 C193 C 0.11069 0.36232 0.83648
 C194 C 0.06347 0.39349 0.82616
 C195 C 0.07055 0.42148 0.85031
 C196 C 0.12422 0.41800 0.88461
 C197 C 0.17074 0.38679 0.89512
 C198 C 0.16403 0.35883 0.87099
 C199 C 0.21124 0.32780 0.88216
 C200 C 0.26332 0.32457 0.91615
 C201 C 0.26943 0.35195 0.93979
 C202 C 0.22375 0.38276 0.92956
 C203 C 0.02272 0.45250 0.83958
 C204 C -0.03116 0.45569 0.80598
 C205 C -0.03856 0.42824 0.78253
 C206 C 0.00850 0.39745 0.79218
 C207 C 0.11666 0.44480 0.91111
 C208 C 0.09712 0.46486 0.93465
 C209 C 0.11421 0.33453 0.81087
 C210 C 0.13076 0.31077 0.79128
 H211 H 0.20831 0.30569 0.86487
 H212 H 0.29936 0.30071 0.92413
 H213 H 0.31045 0.34938 0.96610
 H214 H 0.23156 0.40344 0.94874
 H215 H 0.02647 0.47455 0.85696
 H216 H -0.06773 0.47954 0.79816
 H217 H -0.08051 0.43095 0.75665
 H218 H 0.00039 0.37680 0.77298
 C219 C 0.38780 0.64098 0.34334
 C220 C 0.33142 0.61088 0.33406
 C221 C 0.33008 0.58363 0.35898
 C222 C 0.37912 0.58754 0.39382
 C223 C 0.43007 0.61843 0.40399
 C224 C 0.43600 0.64508 0.37836
 C225 C 0.48944 0.67545 0.38859
 C226 C 0.53481 0.67950 0.42350
 C227 C 0.52805 0.65356 0.44882
 C228 C 0.47664 0.62331 0.43931
 C229 C 0.28084 0.55282 0.34806
 C230 C 0.23190 0.54956 0.31363
 C231 C 0.22573 0.57700 0.29042
 C232 C 0.27558 0.60731 0.30015
 C233 C 0.38724 0.55923 0.41825
 C234 C 0.40767 0.53780 0.44030
 C235 C 0.38512 0.66868 0.31799
 C236 C 0.36711 0.69146 0.29734
 H237 H 0.49679 0.69628 0.36974
 H238 H 0.57560 0.70286 0.43091
 H239 H 0.56342 0.65680 0.47592
 H240 H 0.47347 0.60395 0.45998
 H241 H 0.28036 0.53105 0.36581
 H242 H 0.19676 0.52594 0.30481
 H243 H 0.18049 0.57483 0.26488
 H244 H 0.26913 0.62787 0.28091
 C245 C 0.87624 0.86456 0.66359
 C246 C 0.82644 0.89598 0.67147
 C247 C 0.82020 0.92135 0.64418
 C248 C 0.86440 0.91521 0.60944
 C249 C 0.91184 0.88353 0.60123
 C250 C 0.91858 0.85823 0.62849
 C251 C 0.96785 0.82694 0.61985
 C252 C 1.00857 0.82076 0.58513
 C253 C 1.00125 0.84542 0.55833
 C254 C 0.95367 0.87648 0.56614
 C255 C 0.77049 0.95260 0.65246
 C256 C 0.72978 0.95891 0.68709
 C257 C 0.73734 0.93433 0.71395
 C258 C 0.78360 0.90299 0.70632
 C259 C 0.87428 0.94232 0.58341
 C260 C 0.89625 0.96276 0.56050
 C261 C 0.87082 0.83722 0.68965
 C262 C 0.85396 0.81332 0.70894
 H263 H 0.97609 0.80702 0.63985
 H264 H 1.04621 0.79673 0.57902
 H265 H 1.03293 0.84052 0.53137
 H266 H 0.94952 0.89476 0.54429
 H267 H 0.76293 0.97244 0.63233
 H268 H 0.69282 0.98304 0.69318
 H269 H 0.70837 0.93984 0.74095
 H270 H 0.78746 0.88464 0.72813
 C271 C 0.60648 0.13890 0.16466
 C272 C 0.55963 0.10762 0.17423
 C273 C 0.57123 0.07947 0.15066
 C274 C 0.63103 0.08278 0.11802
 C275 C 0.67475 0.11435 0.10780
 C276 C 0.66206 0.14258 0.13114
 C277 C 0.70571 0.17406 0.12021
 C278 C 0.76017 0.17746 0.08720
 C279 C 0.77243 0.14979 0.06436
 C280 C 0.73043 0.11852 0.07440
 C281 C 0.52093 0.04858 0.16013
 C282 C 0.46157 0.04556 0.19214
 C283 C 0.45034 0.07315 0.21513
 C284 C 0.49949 0.10384 0.20668
 C285 C 0.63269 0.05519 0.09238
 C286 C 0.61918 0.03443 0.06896
 C287 C 0.60773 0.16666 0.19023
 C288 C 0.62361 0.19058 0.20973
 H289 H 0.69780 0.19642 0.13688
 H290 H 0.79337 0.20169 0.07938
 H291 H 0.81539 0.15249 0.03885
 H292 H 0.74295 0.09765 0.05587
 H293 H 0.52529 0.02667 0.14265
 H294 H 0.42292 0.02184 0.19892
 H295 H 0.40316 0.07069 0.23961
 H296 H 0.48800 0.12466 0.22537
 C297 C 0.77506 0.13285 0.33679
 C298 C 0.73160 0.10022 0.33040
 C299 C 0.74515 0.07466 0.35733
 C300 C 0.80327 0.08177 0.39015
 C301 C 0.84465 0.11463 0.39690
 C302 C 0.83150 0.14012 0.37003
 C303 C 0.87719 0.17243 0.37695
 C304 C 0.93357 0.17936 0.40953
 C305 C 0.94506 0.15457 0.43602
 C306 C 0.90122 0.12257 0.42996
 C307 C 0.70200 0.04217 0.35034
 C308 C 0.64914 0.03490 0.31727
 C309 C 0.63781 0.05961 0.29068
 C310 C 0.67722 0.09210 0.29713
 C311 C 0.83316 0.05496 0.41530
 C312 C 0.86996 0.03527 0.43730
 C313 C 0.76119 0.15940 0.30987
 C314 C 0.75165 0.18336 0.28989
 H315 H 0.87055 0.19264 0.35726
 H316 H 0.96890 0.20406 0.41418
 H317 H 0.98875 0.16008 0.46133
 H318 H 0.91234 0.10421 0.45148
 H319 H 0.70932 0.02210 0.37022
 H320 H 0.61770 0.00989 0.31204
 H321 H 0.59898 0.05338 0.26486
 H322 H 0.66623 0.11057 0.27566
 C323 C 0.26931 0.36913 0.66272
 C324 C 0.23180 0.40240 0.66865
 C325 C 0.25045 0.42768 0.64190
 C326 C 0.30639 0.41949 0.60952
 C327 C 0.34094 0.38594 0.60311
 C328 C 0.32311 0.36077 0.62988
 C329 C 0.36172 0.32764 0.62331
 C330 C 0.41604 0.31964 0.59123
 C331 C 0.43285 0.34421 0.56496
 C332 C 0.39574 0.37697 0.57062
 C333 C 0.21543 0.46099 0.64881
 C334 C 0.16514 0.46921 0.68154
 C335 C 0.14712 0.44459 0.70769
 C336 C 0.17899 0.41140 0.70136
 C337 C 0.34026 0.44565 0.58440
 C338 C 0.37911 0.46476 0.56253
 C339 C 0.25571 0.34323 0.69023
 C340 C 0.24830 0.31951 0.71053
 H341 H 0.35064 0.30754 0.64282
 H342 H 0.44531 0.29423 0.58678
 H343 H 0.47542 0.33791 0.54012
 H344 H 0.41083 0.39511 0.54926
 H345 H 0.22788 0.48100 0.62924
 H346 H 0.14135 0.49491 0.68692
 H347 H 0.10932 0.45142 0.73314
 H348 H 0.16355 0.39306 0.72252
 C349 C 0.70817 0.86831 0.83802
 C350 C 0.65328 0.89888 0.83053
 C351 C 0.64513 0.92370 0.85824
 C352 C 0.69307 0.91792 0.89310
 C353 C 0.74239 0.88652 0.90127
 C354 C 0.75057 0.86164 0.87354
 C355 C 0.80002 0.83032 0.88229
 C356 C 0.83871 0.82365 0.91756
 C357 C 0.82947 0.84788 0.94479
 C358 C 0.78217 0.87906 0.93687
 C359 C 0.58481 0.95341 0.85075
 C360 C 0.53375 0.95829 0.81693
 C361 C 0.54473 0.93451 0.78952
 C362 C 0.60350 0.90499 0.79603
 C363 C 0.67761 0.94255 0.92162
 C364 C 0.64987 0.96170 0.94513
 C365 C 0.71647 0.84298 0.80982
 C366 C 0.72328 0.82035 0.78819
 H367 H 0.80908 0.81066 0.86206
 H368 H 0.87653 0.79959 0.92376
 H369 H 0.85998 0.84261 0.97211
 H370 H 0.77746 0.89722 0.95886
 H371 H 0.57338 0.97259 0.87130
 H372 H 0.48310 0.98027 0.81215
 H373 H 0.50638 0.93883 0.76322
 H374 H 0.60792 0.88690 0.77396
 C375 C 0.23984 0.62811 0.16481
 C376 C 0.20888 0.63841 0.12905
 C377 C 0.19169 0.61394 0.10107
 C378 C 0.20415 0.57925 0.10901
 C379 C 0.24277 0.56914 0.14382
 C380 C 0.26264 0.59366 0.17157
 C381 C 0.30562 0.58294 0.20552
 C382 C 0.32258 0.54879 0.21270
 C383 C 0.30036 0.52485 0.18599
 C384 C 0.26221 0.53479 0.15166
 C385 C 0.16145 0.62492 0.06558
 C386 C 0.14927 0.65908 0.05787
 C387 C 0.16551 0.68298 0.08517
 C388 C 0.19463 0.67291 0.12041
 C389 C 0.16796 0.55421 0.08235
 C390 C 0.12878 0.53533 0.05978
 C391 C 0.24459 0.65323 0.19408
 C392 C 0.24544 0.67672 0.21529
 H393 H 0.32806 0.60096 0.22645
 H394 H 0.35352 0.54063 0.23902
 H395 H 0.31440 0.49851 0.19188
 H396 H 0.24915 0.51542 0.13124
 H397 H 0.14815 0.60731 0.04336
 H398 H 0.12674 0.66707 0.03058
 H399 H 0.15562 0.70948 0.07901
 H400 H 0.20725 0.69254 0.14057
 C401 C 0.44203 0.85300 0.17132
 C402 C 0.39740 0.88505 0.17952
 C403 C 0.41251 0.91235 0.15512
 C404 C 0.46971 0.90724 0.12241
 C405 C 0.51058 0.87491 0.11341
 C406 C 0.49840 0.84780 0.13830
 C407 C 0.54165 0.81584 0.12915
 C408 C 0.59413 0.81070 0.09603
 C409 C 0.60403 0.83703 0.07131
 C410 C 0.56322 0.86886 0.07981
 C411 C 0.36834 0.94430 0.16386
 C412 C 0.30814 0.94887 0.19540
 C413 C 0.29011 0.92196 0.21860
 C414 C 0.33529 0.89047 0.21134
 C415 C 0.48367 0.93498 0.09746
 C416 C 0.49423 0.95659 0.07493
 C417 C 0.41717 0.82463 0.19455
 C418 C 0.38501 0.80156 0.21276
 H419 H 0.53570 0.79458 0.14750
 H420 H 0.62762 0.78618 0.08956
 H421 H 0.64484 0.83291 0.04561
 H422 H 0.57389 0.88863 0.05986
 H423 H 0.37914 0.96598 0.14638
 H424 H 0.27515 0.97338 0.20192
 H425 H 0.24190 0.92576 0.24256
 H426 H 0.32023 0.87050 0.23072
 C427 C 0.53928 0.35697 0.33091
 C428 C 0.55440 0.39055 0.31900
 C429 C 0.54365 0.41771 0.34396
 C430 C 0.52323 0.41115 0.38107
 C431 C 0.51113 0.37752 0.39333
 C432 C 0.51854 0.35037 0.36813
 C433 C 0.50926 0.31694 0.38116
 C434 C 0.49482 0.31050 0.41814
 C435 C 0.48751 0.33703 0.44279
 C436 C 0.49470 0.37020 0.43067
 C437 C 0.55837 0.45102 0.33140
 C438 C 0.58809 0.45732 0.29555
 C439 C 0.60248 0.43078 0.27157
 C440 C 0.58507 0.39771 0.28283
 C441 C 0.52367 0.43861 0.40724
 C442 C 0.52504 0.45966 0.43093
 C443 C 0.56097 0.32918 0.30624
 C444 C 0.59140 0.30630 0.28727
 H445 H 0.51377 0.29547 0.36299
 H446 H 0.48839 0.28478 0.42767
 H447 H 0.47531 0.33188 0.47144
 H448 H 0.48790 0.38995 0.45090
 H449 H 0.54955 0.47234 0.34940
 H450 H 0.60346 0.48275 0.28643
 H451 H 0.62950 0.43607 0.24432
 H452 H 0.59897 0.37777 0.26337
 C453 C 0.93508 0.64933 0.83376
 C454 C 0.89116 0.65060 0.86931
 C455 C 0.90325 0.62250 0.89300
 C456 C 0.95818 0.59316 0.88082
 C457 C 1.00338 0.59209 0.84561
 C458 C 0.99258 0.62042 0.82217
 C459 C 1.03955 0.61906 0.78731
 C460 C 1.09401 0.59030 0.77571
 C461 C 1.10326 0.56230 0.79824
 C462 C 1.05888 0.56309 0.83301
 C463 C 0.85840 0.62433 0.92842
 C464 C 0.80261 0.65301 0.93995
 C465 C 0.79059 0.68046 0.91674
 C466 C 0.83422 0.67942 0.88181
 C467 C 0.96888 0.56451 0.90498
 C468 C 0.97596 0.54272 0.92763
 C469 C 0.91078 0.67633 0.80824
 C470 C 0.87914 0.69849 0.78827
 H471 H 1.03606 0.64038 0.76898
 H472 H 1.12886 0.58992 0.74897
 H473 H 1.14574 0.54000 0.78889
 H474 H 1.06875 0.54089 0.84985
 H475 H 0.86502 0.60361 0.94747
 H476 H 0.76738 0.65379 0.96689
 H477 H 0.74653 0.70259 0.92574
 H478 H 0.82280 0.70144 0.86479
 C479 C 0.04160 0.14681 0.66501
 C480 C -0.01896 0.11788 0.67490
 C481 C -0.02580 0.08973 0.65085
 C482 C 0.02579 0.09107 0.61665
 C483 C 0.07813 0.12114 0.60532
 C484 C 0.08725 0.14892 0.62972
 C485 C 0.14213 0.17841 0.61804
 C486 C 0.18511 0.18060 0.58306
 C487 C 0.17483 0.15361 0.55904
 C488 C 0.12246 0.12412 0.56993
 C489 C -0.08671 0.06104 0.66139
 C490 C -0.14579 0.06115 0.69362
 C491 C -0.14328 0.08939 0.71605
 C492 C -0.07674 0.11684 0.70789
 C493 C 0.02221 0.06221 0.59232
 C494 C 0.02011 0.04034 0.56952
 C495 C 0.06450 0.17342 0.69147
 C496 C 0.09626 0.19567 0.71158
 H497 H 0.15164 0.20015 0.63565
 H498 H 0.22694 0.20332 0.57458
 H499 H 0.20849 0.15541 0.53191
 H500 H 0.11719 0.10377 0.55030
 H501 H -0.09309 0.03889 0.64420
 H502 H -0.19666 0.03975 0.70060
 H503 H -0.19585 0.09058 0.73932
 H504 H -0.07681 0.13811 0.72642
 C505 C 0.20763 0.35856 0.34428
 C506 C 0.18864 0.39348 0.34081
 C507 C 0.17856 0.41367 0.37263
 C508 C 0.19195 0.39906 0.40771
 C509 C 0.20508 0.36388 0.41122
 C510 C 0.21242 0.34349 0.37942
 C511 C 0.22157 0.30814 0.38365
 C512 C 0.22204 0.29342 0.41817
 C513 C 0.21499 0.31345 0.44921
 C514 C 0.20721 0.34833 0.44595
 C515 C 0.14953 0.44798 0.36856
 C516 C 0.12979 0.46169 0.33421
 C517 C 0.14489 0.44240 0.30301
 C518 C 0.17468 0.40862 0.30610
 C519 C 0.17715 0.42002 0.43967
 C520 C 0.15197 0.43950 0.46329
 C521 C 0.21481 0.33740 0.31210
 C522 C 0.21999 0.31668 0.28817
 H523 H 0.22742 0.29144 0.36044
 H524 H 0.22835 0.26634 0.42084
 H525 H 0.21582 0.30192 0.47597
 H526 H 0.20186 0.36291 0.47086
 H527 H 0.13786 0.46437 0.39178
 H528 H 0.10009 0.48721 0.33205
 H529 H 0.13035 0.45341 0.27638
 H530 H 0.18290 0.39428 0.28113
 C531 C 0.26793 0.63673 0.84456
 C532 C 0.32321 0.60559 0.84163
 C533 C 0.31906 0.58215 0.87066
 C534 C 0.26929 0.59135 0.90391
 C535 C 0.21553 0.62265 0.90729
 C536 C 0.21414 0.64542 0.87739
 C537 C 0.16136 0.67696 0.88155
 C538 C 0.11125 0.68560 0.91423
 C539 C 0.11184 0.66312 0.94330
 C540 C 0.16365 0.63194 0.94007
 C541 C 0.36929 0.55021 0.86620
 C542 C 0.42778 0.54257 0.83490
 C543 C 0.43829 0.56647 0.80756
 C544 C 0.38630 0.59764 0.81074
 C545 C 0.29364 0.57095 0.93557
 C546 C 0.33173 0.55238 0.95827
 C547 C 0.26694 0.66025 0.81433
 C548 C 0.26315 0.68213 0.79166
 H549 H 0.15813 0.69525 0.85970
 H550 H 0.07071 0.70975 0.91689
 H551 H 0.07086 0.66977 0.96829
 H552 H 0.16160 0.61504 0.96323
 H553 H 0.36426 0.53087 0.88685
 H554 H 0.46685 0.51825 0.83226
 H555 H 0.48709 0.56089 0.78381
 H556 H 0.39874 0.61583 0.78939
 C557 C 0.71223 0.13875 0.65252
 C558 C 0.65646 0.10750 0.65293
 C559 C 0.66454 0.08531 0.62277
 C560 C 0.71733 0.09607 0.59063
 C561 C 0.76946 0.12781 0.58943
 C562 C 0.76810 0.14915 0.62065
 C563 C 0.82054 0.18097 0.61874
 C564 C 0.87189 0.19142 0.58690
 C565 C 0.87285 0.17048 0.55642
 C566 C 0.82241 0.13894 0.55754
 C567 C 0.61586 0.05291 0.62509
 C568 C 0.55323 0.04384 0.65498
 C569 C 0.53768 0.06671 0.68307
 C570 C 0.59014 0.09802 0.68252
 C571 C 0.69866 0.07644 0.55787
 C572 C 0.66481 0.05789 0.53432
 C573 C 0.71434 0.16022 0.68470
 C574 C 0.72029 0.18060 0.70911
 H575 H 0.82199 0.19818 0.64167
 H576 H 0.91164 0.21584 0.58594
 H577 H 0.91340 0.17864 0.53183
 H578 H 0.82584 0.12327 0.53336
 H579 H 0.62511 0.03432 0.60381
 H580 H 0.51449 0.01928 0.65592
 H581 H 0.48473 0.06009 0.70547
 H582 H 0.57575 0.11513 0.70486
 C583 C 0.79228 0.85941 0.15199
 C584 C 0.75214 0.89278 0.15368
 C585 C 0.76961 0.91512 0.12406
 C586 C 0.82175 0.90335 0.09219
 C587 C 0.86006 0.86979 0.09017
 C588 C 0.84608 0.84779 0.12027
 C589 C 0.88683 0.81443 0.11783
 C590 C 0.93986 0.80323 0.08659
 C591 C 0.95355 0.82482 0.05717
 C592 C 0.91415 0.85773 0.05876
 C593 C 0.73536 0.94906 0.12729
 C594 C 0.68167 0.96021 0.15838
 C595 C 0.65927 0.93790 0.18648
 C596 C 0.69460 0.90454 0.18442
 C597 C 0.84825 0.92685 0.06354
 C598 C 0.88140 0.94738 0.04231
 C599 C 0.77793 0.83653 0.18234
 C600 C 0.76790 0.81491 0.20505
 H601 H 0.87871 0.79667 0.13999
 H602 H 0.97095 0.77771 0.08530
 H603 H 0.99529 0.81607 0.03302
 H604 H 0.92681 0.87360 0.03519
 H605 H 0.74862 0.96722 0.10578
 H606 H 0.65591 0.98617 0.16044
 H607 H 0.61420 0.94653 0.20999
 H608 H 0.67597 0.88804 0.20701
 C609 C 0.89670 0.14849 0.84978
 C610 C 0.88046 0.11346 0.84566
 C611 C 0.86584 0.09286 0.87679
 C612 C 0.87835 0.10679 0.91210
 C613 C 0.90512 0.14125 0.91642
 C614 C 0.91276 0.16231 0.88514
 C615 C 0.93877 0.19677 0.89006
 C616 C 0.95856 0.20993 0.92487
 C617 C 0.95210 0.18925 0.95540
 C618 C 0.92531 0.15526 0.95139
 C619 C 0.84208 0.05821 0.87176
 C620 C 0.84081 0.04399 0.83713
 C621 C 0.86358 0.06366 0.80693
 C622 C 0.88127 0.09823 0.81094
 C623 C 0.88549 0.08381 0.94260
 C624 C 0.90473 0.06186 0.96430
 C625 C 0.87961 0.17074 0.81867
 C626 C 0.85343 0.19062 0.79518
 H627 H 0.94648 0.21365 0.86704
 H628 H 0.97990 0.23625 0.92815
 H629 H 0.96813 0.19956 0.98234
 H630 H 0.92081 0.14009 0.97586
 H631 H 0.82512 0.04167 0.89445
 H632 H 0.82254 0.01757 0.83374
 H633 H 0.86698 0.05181 0.78040
 H634 H 0.89982 0.11296 0.78710
 C635 C 0.12864 0.64536 0.65520
 C636 C 0.08424 0.61277 0.65946
 C637 C 0.10519 0.58750 0.63306
 C638 C 0.16467 0.59562 0.60125
 C639 C 0.20690 0.62841 0.59640
 C640 C 0.18907 0.65340 0.62348
 C641 C 0.23146 0.68620 0.61783
 C642 C 0.28977 0.69398 0.58644
 C643 C 0.30754 0.66940 0.56010
 C644 C 0.26655 0.63693 0.56485
 C645 C 0.06325 0.55461 0.63880
 C646 C -0.00011 0.54731 0.66917
 C647 C -0.02341 0.57240 0.69432
 C648 C 0.01718 0.60490 0.68938
 C649 C 0.16481 0.57161 0.57155
 C650 C 0.14677 0.55044 0.54878
 C651 C 0.12404 0.66962 0.68482
 C652 C 0.13603 0.69112 0.70780
 H653 H 0.21930 0.70624 0.63738
 H654 H 0.32184 0.71918 0.58264
 H655 H 0.35380 0.67547 0.53594
 H656 H 0.28293 0.61851 0.54379
 H657 H 0.07861 0.53424 0.61993
 H658 H -0.03309 0.52222 0.67286
 H659 H -0.07432 0.56678 0.71755
 H660 H -0.00590 0.62397 0.70888
 C661 C 0.63104 0.85607 0.33895
 C662 C 0.58468 0.88831 0.33363
 C663 C 0.59197 0.91266 0.36201
 C664 C 0.64695 0.90465 0.39533
 C665 C 0.69586 0.87274 0.40031
 C666 C 0.68693 0.84819 0.37221
 C667 C 0.73475 0.81608 0.37821
 C668 C 0.79069 0.80871 0.41074
 C669 C 0.80033 0.83295 0.43801
 C670 C 0.75325 0.86464 0.43306
 C671 C 0.54288 0.94463 0.35636
 C672 C 0.48919 0.95230 0.32355
 C673 C 0.48468 0.92874 0.29553
 C674 C 0.53094 0.89693 0.30040
 C675 C 0.64234 0.92819 0.42541
 C676 C 0.62507 0.94873 0.44872
 C677 C 0.62990 0.83152 0.30968
 C678 C 0.64321 0.80944 0.28770
 H679 H 0.72963 0.79633 0.35792
 H680 H 0.82729 0.78410 0.41470
 H681 H 0.84471 0.82722 0.46310
 H682 H 0.76302 0.88277 0.45499
 H683 H 0.54553 0.96405 0.37710
 H684 H 0.45119 0.97674 0.31978
 H685 H 0.44509 0.93521 0.26992
 H686 H 0.52426 0.87925 0.27793
 C687 C 0.36266 0.35144 0.15113
 C688 C 0.30683 0.38258 0.15390
 C689 C 0.30468 0.40500 0.12377
 C690 C 0.35768 0.39597 0.09104
 C691 C 0.41198 0.36458 0.08808
 C692 C 0.41467 0.34223 0.11829
 C693 C 0.46990 0.31102 0.11487
 C694 C 0.52104 0.30216 0.08243
 C695 C 0.51837 0.32405 0.05282
 C696 C 0.46455 0.35494 0.05545
 C697 C 0.24931 0.43618 0.12723
 C698 C 0.19607 0.44465 0.15941
 C699 C 0.19862 0.42278 0.18896
 C700 C 0.25338 0.39208 0.18644
 C701 C 0.36818 0.42058 0.06228
 C702 C 0.38753 0.44224 0.04044
 C703 C 0.35540 0.32745 0.18056
 C704 C 0.33697 0.30647 0.20321
 H705 H 0.47496 0.29331 0.13727
 H706 H 0.56347 0.27827 0.08033
 H707 H 0.55858 0.31712 0.02772
 H708 H 0.46445 0.37110 0.03168
 H709 H 0.24450 0.45396 0.10489
 H710 H 0.15098 0.46807 0.16127
 H711 H 0.15678 0.42944 0.21382
 H712 H 0.25316 0.37592 0.21020
 C713 C 0.52744 0.65555 0.15428
 C714 C 0.53680 0.62017 0.15722
 C715 C 0.51977 0.59942 0.12595
 C716 C 0.49118 0.61405 0.09186
 C717 C 0.47971 0.64935 0.08892
 C718 C 0.49885 0.67020 0.12012
 C719 C 0.49186 0.70556 0.11603
 C720 C 0.46735 0.71985 0.08216
 C721 C 0.44641 0.69946 0.05193
 C722 C 0.45216 0.66454 0.05514
 C723 C 0.53422 0.56415 0.12948
 C724 C 0.56379 0.54990 0.16278
 C725 C 0.57784 0.57009 0.19335
 C726 C 0.56532 0.60486 0.19082
 C727 C 0.47943 0.59215 0.06014
 C728 C 0.47531 0.57027 0.03725
 C729 C 0.56182 0.67696 0.18480
 C730 C 0.60058 0.69557 0.20780
 H731 H 0.50623 0.72250 0.13881
 H732 H 0.46537 0.74691 0.07930
 H733 H 0.42648 0.71078 0.02580
 H734 H 0.43590 0.64960 0.03088
 H735 H 0.52346 0.54712 0.10668
 H736 H 0.57684 0.52307 0.16491
 H737 H 0.60033 0.55856 0.21902
 H738 H 0.57831 0.61958 0.21533
 C739 C 0.06583 0.84534 0.84771
 C740 C 0.01403 0.87681 0.84249
 C741 C 0.00567 0.89979 0.87220
 C742 C 0.04615 0.89073 0.90737
 C743 C 0.10003 0.85947 0.91244
 C744 C 0.11024 0.83676 0.88255
 C745 C 0.16558 0.80578 0.88833
 C746 C 0.20938 0.79749 0.92252
 C747 C 0.19885 0.81962 0.95168
 C748 C 0.14483 0.85030 0.94688
 C749 C -0.04455 0.93146 0.86594
 C750 C -0.08861 0.93958 0.83177
 C751 C -0.08319 0.91674 0.80316
 C752 C -0.03102 0.88586 0.80807
 C753 C 0.03261 0.91389 0.93790
 C754 C 0.02223 0.93533 0.96105
 C755 C 0.08166 0.82262 0.81701
 C756 C 0.10772 0.80284 0.79364
 H757 H 0.17580 0.78765 0.86660
 H758 H 0.25169 0.77372 0.92640
 H759 H 0.23274 0.81297 0.97816
 H760 H 0.13896 0.86675 0.97037
 H761 H -0.05220 0.95000 0.88743
 H762 H -0.12934 0.96341 0.82757
 H763 H -0.12097 0.92288 0.77717
 H764 H -0.02847 0.86894 0.78489
 C765 C 0.46595 0.15557 0.33652
 C766 C 0.42957 0.12172 0.33686
 C767 C 0.45277 0.10119 0.36768
 C768 C 0.50895 0.11501 0.39848
 C769 C 0.54896 0.14842 0.39762
 C770 C 0.52749 0.16881 0.36647
 C771 C 0.56600 0.20247 0.36648
 C772 C 0.62527 0.21546 0.39623
 C773 C 0.64641 0.19543 0.42667
 C774 C 0.60858 0.16225 0.42754
 C775 C 0.41553 0.06731 0.36737
 C776 C 0.35373 0.05455 0.33816
 C777 C 0.32745 0.07505 0.30865
 C778 C 0.36620 0.10811 0.30754
 C779 C 0.51946 0.09469 0.43113
 C780 C 0.52193 0.07391 0.45497
 C781 C 0.42544 0.17793 0.30821
 C782 C 0.38171 0.19703 0.28708
 H783 H 0.55104 0.21900 0.34350
 H784 H 0.65492 0.24120 0.39566
 H785 H 0.69263 0.20560 0.44969
 H786 H 0.62707 0.14751 0.45171
 H787 H 0.43230 0.05039 0.38981
 H788 H 0.32433 0.02880 0.33876
 H789 H 0.27625 0.06529 0.28659
 H790 H 0.34474 0.12295 0.28371
 C791 C 0.96255 0.34236 0.66177
 C792 C 0.92973 0.37654 0.66185
 C793 C 0.95539 0.39752 0.63180
 C794 C 1.00949 0.38383 0.60112
 C795 C 1.04460 0.34993 0.60135
 C796 C 1.02168 0.32914 0.63191
 C797 C 1.05610 0.29511 0.63133
 C798 C 1.11166 0.28205 0.60147
 C799 C 1.13366 0.30238 0.57156
 C800 C 1.10069 0.33601 0.57136
 C801 C 0.92252 0.43176 0.63267
 C802 C 0.86167 0.44444 0.66149
 C803 C 0.83224 0.42350 0.69004
 C804 C 0.86752 0.39009 0.69078
 C805 C 1.02214 0.40477 0.56906
 C806 C 1.02646 0.42581 0.54550
 C807 C 0.92241 0.31987 0.68976
 C808 C 0.88049 0.30059 0.71078
 H809 H 1.04044 0.27829 0.65388
 H810 H 1.13766 0.25600 0.60153
 H811 H 1.17695 0.29209 0.54846
 H812 H 1.11999 0.35099 0.54762
 H813 H 0.94187 0.44905 0.61094
 H814 H 0.83537 0.47047 0.66128
 H815 H 0.78152 0.43321 0.71170
 H816 H 0.84403 0.37495 0.71395
 C817 C 0.86649 0.63472 0.16678
 C818 C 0.86823 0.64266 0.12913
 C819 C 0.85872 0.61654 0.10285
 C820 C 0.85078 0.58266 0.11445
 C821 C 0.84807 0.57472 0.15195
 C822 C 0.85228 0.60100 0.17827
 C823 C 0.83842 0.59283 0.21548
 C824 C 0.82206 0.55949 0.22614
 C825 C 0.82613 0.53364 0.20067
 C826 C 0.83887 0.54098 0.16385
 C827 C 0.85775 0.62505 0.06528
 C828 C 0.86580 0.65848 0.05411
 C829 C 0.87554 0.68408 0.07985
 C830 C 0.87722 0.67642 0.11694
 C831 C 0.85713 0.55621 0.08763
 C832 C 0.87580 0.53662 0.06363
 C833 C 0.86473 0.66195 0.19288
 C834 C 0.85044 0.68613 0.21188
 H835 H 0.83646 0.61211 0.23640
 H836 H 0.80314 0.55359 0.25417
 H837 H 0.81541 0.50793 0.20944
 H838 H 0.83733 0.52013 0.14478
 H839 H 0.84995 0.60607 0.04416
 H840 H 0.86520 0.66455 0.02533
 H841 H 0.88228 0.71002 0.07105
 H842 H 0.88544 0.69727 0.13585
 C843 C 0.61047 0.35765 0.66376
 C844 C 0.66584 0.35339 0.63029
 C845 C 0.68058 0.38137 0.60681
 C846 C 0.63974 0.41331 0.61698
 C847 C 0.58104 0.41727 0.64976
 C848 C 0.56641 0.38929 0.67328
 C849 C 0.50676 0.39364 0.70576
 C850 C 0.46179 0.42482 0.71448
 C851 C 0.47709 0.45232 0.69173
 C852 C 0.53548 0.44872 0.65959
 C853 C 0.73582 0.37660 0.57343
 C854 C 0.77580 0.34502 0.56360
 C855 C 0.76179 0.31762 0.58664
 C856 C 0.70744 0.32159 0.61960
 C857 C 0.64293 0.44073 0.59124
 C858 C 0.62998 0.46160 0.56796
 C859 C 0.61122 0.33037 0.68975
 C860 C 0.62727 0.30708 0.70998
 H861 H 0.49272 0.37293 0.72434
 H862 H 0.41556 0.42781 0.73913
 H863 H 0.44301 0.47650 0.69893
 H864 H 0.54361 0.47071 0.64244
 H865 H 0.74970 0.39725 0.55477
 H866 H 0.81859 0.34186 0.53811
 H867 H 0.79343 0.29315 0.57899
 H868 H 0.69793 0.29943 0.63643
 C869 C 0.11345 0.13890 0.33555
 C870 C 0.16990 0.14318 0.36941
 C871 C 0.18102 0.11554 0.39366
 C872 C 0.13545 0.08396 0.38389
 C873 C 0.07557 0.08003 0.35073
 C874 C 0.06557 0.10755 0.32624
 C875 C 0.00648 0.10302 0.29305
 C876 C -0.04287 0.07220 0.28471
 C877 C -0.03419 0.04533 0.30879
 C878 C 0.02376 0.04913 0.34159
 C879 C 0.23695 0.12032 0.42750
 C880 C 0.28108 0.15160 0.43704
 C881 C 0.27087 0.17866 0.41321
 C882 C 0.21598 0.17467 0.37978
 C883 C 0.13596 0.05698 0.41015
 C884 C 0.12120 0.03654 0.43358
 C885 C 0.11414 0.16611 0.30945
 C886 C 0.12877 0.18940 0.28925
 H887 H -0.00355 0.12331 0.27356
 H888 H -0.08858 0.06910 0.25953
 H889 H -0.07339 0.02154 0.30217
 H890 H 0.02642 0.02774 0.35984
 H891 H 0.24794 0.09992 0.44679
 H892 H 0.32420 0.15476 0.46292
 H893 H 0.30593 0.20286 0.42062
 H894 H 0.20970 0.19656 0.36232
 C895 C 0.38022 0.86075 0.83713
 C896 C 0.33186 0.89208 0.82798
 C897 C 0.32356 0.91774 0.85486
 C898 C 0.36580 0.91205 0.89040
 C899 C 0.41391 0.88059 0.89963
 C900 C 0.42181 0.85494 0.87279
 C901 C 0.47216 0.82395 0.88231
 C902 C 0.51327 0.81842 0.91751
 C903 C 0.50487 0.84341 0.94393
 C904 C 0.45582 0.87416 0.93526
 C905 C 0.27654 0.94909 0.84505
 C906 C 0.24359 0.95538 0.80914
 C907 C 0.25350 0.93053 0.78279
 C908 C 0.29457 0.89890 0.79200
 C909 C 0.37570 0.93962 0.91605
 C910 C 0.39804 0.96037 0.93889
 C911 C 0.37402 0.83322 0.81135
 C912 C 0.35539 0.80973 0.79152
 H913 H 0.48118 0.80383 0.86260
 H914 H 0.55191 0.79462 0.92430
 H915 H 0.53675 0.83900 0.97127
 H916 H 0.45083 0.89271 0.95682
 H917 H 0.26793 0.96927 0.86471
 H918 H 0.21293 0.97987 0.80127
 H919 H 0.23187 0.93623 0.75489
 H920 H 0.30114 0.88045 0.77035
 C921 C 0.20289 0.86901 0.66349
 C922 C 0.24399 0.86286 0.62806
 C923 C 0.23664 0.88833 0.60095
 C924 C 0.19093 0.92002 0.60968
 C925 C 0.14656 0.92580 0.64460
 C926 C 0.15088 0.90000 0.67142
 C927 C 0.10112 0.90578 0.70546
 C928 C 0.05074 0.93654 0.71302
 C929 C 0.04829 0.96200 0.68709
 C930 C 0.09523 0.95679 0.65315
 C931 C 0.27435 0.88127 0.56537
 C932 C 0.31897 0.84995 0.55686
 C933 C 0.32778 0.82517 0.58350
 C934 C 0.29101 0.83140 0.61873
 C935 C 0.17492 0.94498 0.58143
 C936 C 0.14743 0.96407 0.55761
 C937 C 0.21240 0.84287 0.69103
 C938 C 0.22189 0.81922 0.71141
 H939 H 0.10108 0.88673 0.72657
 H940 H 0.01516 0.94097 0.73938
 H941 H 0.00929 0.98583 0.69322
 H942 H 0.09017 0.97723 0.63369
 H943 H 0.27029 0.89988 0.54383
 H944 H 0.34793 0.84502 0.52956
 H945 H 0.36350 0.80098 0.57687
 H946 H 0.29935 0.81124 0.63840
 C947 C 0.71884 0.63236 0.34117
 C948 C 0.76122 0.63776 0.37696
 C949 C 0.75334 0.61183 0.40358
 C950 C 0.70552 0.58043 0.39398
 C951 C 0.65681 0.57598 0.35895
 C952 C 0.66267 0.60214 0.33266
 C953 C 0.60577 0.59827 0.29900
 C954 C 0.54154 0.56993 0.29206
 C955 C 0.53675 0.54412 0.31743
 C956 C 0.59532 0.54667 0.35029
 C957 C 0.79005 0.61849 0.43973
 C958 C 0.83332 0.64987 0.44935
 C959 C 0.84261 0.67504 0.42321
 C960 C 0.80777 0.66912 0.38733
 C961 C 0.68801 0.55502 0.42171
 C962 C 0.65901 0.53549 0.44478
 C963 C 0.72511 0.65883 0.31398
 C964 C 0.72924 0.68171 0.29248
 H965 H 0.60562 0.61784 0.27854
 H966 H 0.49252 0.56856 0.26738
 H967 H 0.48409 0.52261 0.31215
 H968 H 0.58736 0.52626 0.36956
 H969 H 0.78527 0.59960 0.46094
 H970 H 0.86094 0.65456 0.47713
 H971 H 0.87747 0.69925 0.43072
 H972 H 0.81627 0.68951 0.36800
 C973 C 0.26565 0.12882 0.16181
 C974 C 0.32118 0.13667 0.12919
 C975 C 0.33695 0.11133 0.10244
 C976 C 0.29833 0.07817 0.10866
 C977 C 0.24026 0.07057 0.14076
 C978 C 0.22424 0.09599 0.16758
 C979 C 0.16932 0.08760 0.20008
 C980 C 0.13170 0.05491 0.20593
 C981 C 0.14620 0.03024 0.17952
 C982 C 0.19967 0.03778 0.14718
 C983 C 0.39345 0.11975 0.07012
 C984 C 0.43396 0.15216 0.06462
 C985 C 0.41893 0.17693 0.09086
 C986 C 0.36319 0.16946 0.12279
 C987 C 0.33044 0.05172 0.08373
 C988 C 0.36872 0.03245 0.06196
 C989 C 0.25204 0.15499 0.18891
 C990 C 0.24413 0.17904 0.20867
 H991 H 0.15603 0.10605 0.22135
 H992 H 0.09145 0.04856 0.23109
 H993 H 0.11663 0.00504 0.18433
 H994 H 0.20933 0.01772 0.12742
 H995 H 0.40711 0.10146 0.04875
 H996 H 0.47781 0.15803 0.03997
 H997 H 0.45086 0.20207 0.08651
 H998 H 0.35383 0.18968 0.14232
 C999 C 0.77060 0.36956 0.83562
 C1000 C 0.72926 0.40216 0.82800
 C1001 C 0.73730 0.42790 0.85502
 C1002 C 0.78813 0.42097 0.88914
 C1003 C 0.83010 0.38836 0.89668
 C1004 C 0.82211 0.36269 0.86976
 C1005 C 0.86807 0.33062 0.87753
 C1006 C 0.92036 0.32415 0.91090
 C1007 C 0.92735 0.34917 0.93736
 C1008 C 0.88244 0.38086 0.93057
 C1009 C 0.69682 0.46041 0.84678
 C1010 C 0.65355 0.46769 0.81227
 C1011 C 0.64799 0.44279 0.78563
 C1012 C 0.68329 0.41014 0.79341
 C1013 C 0.81164 0.44783 0.91498
 C1014 C 0.84506 0.46733 0.93780
 C1015 C 0.75969 0.34253 0.80910
 C1016 C 0.75269 0.31796 0.78986
 H1017 H 0.86514 0.31025 0.85788
 H1018 H 0.95578 0.29960 0.91621
 H1019 H 0.96822 0.34407 0.96323
 H1020 H 0.88962 0.39933 0.95220
 H1021 H 0.69982 0.48056 0.86672
 H1022 H 0.62564 0.49290 0.80591
 H1023 H 0.61752 0.44907 0.75869
 H1024 H 0.67718 0.39154 0.77182
 C1025 C 0.55201 0.14283 0.83469
 C1026 C 0.53784 0.14888 0.87239
 C1027 C 0.52870 0.12132 0.89690
 C1028 C 0.53240 0.08783 0.88345
 C1029 C 0.55044 0.08187 0.84607
 C1030 C 0.56287 0.10940 0.82177
 C1031 C 0.59217 0.10276 0.78531
 C1032 C 0.60848 0.06985 0.77339
 C1033 C 0.59219 0.04298 0.79666
 C1034 C 0.56229 0.04874 0.83261
 C1035 C 0.51983 0.12801 0.93470
 C1036 C 0.52237 0.16094 0.94791
 C1037 C 0.53113 0.18787 0.92395
 C1038 C 0.53758 0.18209 0.88655
 C1039 C 0.52673 0.05976 0.90867
 C1040 C 0.52316 0.03819 0.93168
 C1041 C 0.57215 0.17084 0.81032
 C1042 C 0.60124 0.19377 0.79128
 H1043 H 0.60717 0.12292 0.76623
 H1044 H 0.63746 0.06487 0.74636
 H1045 H 0.60732 0.01773 0.78695
 H1046 H 0.55292 0.02717 0.85013
 H1047 H 0.51250 0.10795 0.95448
 H1048 H 0.51692 0.16562 0.97690
 H1049 H 0.53222 0.21341 0.93438
 H1050 H 0.54386 0.20389 0.86898
 C1051 C 0.45025 0.64475 0.67080
 C1052 C 0.50474 0.65025 0.63747
 C1053 C 0.52073 0.62294 0.61296
 C1054 C 0.48499 0.59017 0.62252
 C1055 C 0.43214 0.58454 0.65590
 C1056 C 0.41415 0.61191 0.68006
 C1057 C 0.35985 0.60558 0.71314
 C1058 C 0.32953 0.57292 0.72271
 C1059 C 0.34617 0.54631 0.69901
 C1060 C 0.39609 0.55189 0.66573
 C1061 C 0.57205 0.62922 0.57921
 C1062 C 0.60773 0.66150 0.57013
 C1063 C 0.59360 0.68810 0.59436
 C1064 C 0.54271 0.68268 0.62770
 C1065 C 0.50000 0.56231 0.59766
 C1066 C 0.50990 0.54042 0.57532
 C1067 C 0.42030 0.67320 0.69356
 C1068 C 0.38497 0.69629 0.71129
 H1069 H 0.34137 0.62573 0.73192
 H1070 H 0.29378 0.56785 0.74882
 H1071 H 0.32044 0.52125 0.70663
 H1072 H 0.40742 0.53028 0.64812
 H1073 H 0.58561 0.60929 0.55960
 H1074 H 0.64747 0.66581 0.54429
 H1075 H 0.62233 0.71306 0.58733
 H1076 H 0.53367 0.70411 0.64572
 C1077 C 0.02171 0.34991 0.16138
 C1078 C 0.06446 0.34864 0.12565
 C1079 C 0.05141 0.37672 0.10196
 C1080 C -0.00306 0.40604 0.11435
 C1081 C -0.05333 0.40621 0.14879
 C1082 C -0.04085 0.37802 0.17239
 C1083 C -0.09429 0.37830 0.20624
 C1084 C -0.16380 0.40474 0.21539
 C1085 C -0.17412 0.43264 0.19283
 C1086 C -0.11797 0.43381 0.16007
 C1087 C 0.09434 0.37483 0.06629
 C1088 C 0.14863 0.34601 0.05439
 C1089 C 0.16223 0.31866 0.07766
 C1090 C 0.12101 0.31985 0.11294
 C1091 C -0.00671 0.43576 0.09142
 C1092 C -0.00761 0.45853 0.06978
 C1093 C 0.05041 0.32355 0.18729
 C1094 C 0.08604 0.30184 0.20719
 H1095 H -0.08876 0.35713 0.22478
 H1096 H -0.21263 0.40302 0.23955
 H1097 H -0.22942 0.45279 0.20008
 H1098 H -0.13005 0.45573 0.14294
 H1099 H 0.08614 0.39547 0.04719
 H1100 H 0.18100 0.34500 0.02703
 H1101 H 0.20534 0.29644 0.06839
 H1102 H 0.13334 0.29792 0.13002
 C1103 C 0.94996 0.85546 0.32710
 C1104 C 0.90364 0.88732 0.31862
 C1105 C 0.91583 0.91456 0.34357
 C1106 C 0.97359 0.90974 0.37685
 C1107 C 1.01668 0.87761 0.38598
 C1108 C 1.00612 0.85050 0.36078
 C1109 C 1.05052 0.81868 0.37029
 C1110 C 1.10242 0.81365 0.40404
 C1111 C 1.11144 0.84003 0.42892
 C1112 C 1.06957 0.87173 0.42009
 C1113 C 0.86830 0.94612 0.33476
 C1114 C 0.80863 0.95047 0.30243
 C1115 C 0.79503 0.92373 0.27838
 C1116 C 0.84268 0.89256 0.28592
 C1117 C 0.98610 0.93750 0.40224
 C1118 C 0.99571 0.95898 0.42522
 C1119 C 0.92507 0.82682 0.30381
 C1120 C 0.89179 0.80331 0.28601
 H1121 H 1.04570 0.79743 0.35177
 H1122 H 1.13600 0.78917 0.41087
 H1123 H 1.15197 0.83602 0.45509
 H1124 H 1.07922 0.89150 0.44027
 H1125 H 0.87600 0.96764 0.35281
 H1126 H 0.77260 0.97467 0.29597
 H1127 H 0.74782 0.92731 0.25365
 H1128 H 0.83060 0.87268 0.26598
 C1129 C 0.79115 0.63886 0.65406
 C1130 C 0.84504 0.64994 0.62216
 C1131 C 0.86321 0.62705 0.59306
 C1132 C 0.82797 0.59320 0.59607
 C1133 C 0.77542 0.58200 0.62815
 C1134 C 0.75594 0.60504 0.65710
 C1135 C 0.70409 0.59335 0.68901
 C1136 C 0.67480 0.55959 0.69266
 C1137 C 0.69518 0.53693 0.66458
 C1138 C 0.74428 0.54788 0.63253
 C1139 C 0.91880 0.63852 0.56168
 C1140 C 0.95578 0.67167 0.55921
 C1141 C 0.93784 0.69412 0.58763
 C1142 C 0.88301 0.68357 0.61875
 C1143 C 0.85840 0.56919 0.56820
 C1144 C 0.89358 0.54899 0.54683
 C1145 C 0.77412 0.66255 0.68358
 C1146 C 0.76267 0.68478 0.70555
 H1147 H 0.68667 0.61010 0.71150
 H1148 H 0.63582 0.55099 0.71735
 H1149 H 0.67259 0.51076 0.66766
 H1150 H 0.75775 0.52935 0.61135
 H1151 H 0.93473 0.62202 0.53882
 H1152 H 0.99882 0.67993 0.53513
 H1153 H 0.96692 0.71985 0.58564
 H1154 H 0.87158 0.70202 0.64012
 C1155 C 0.68841 0.36077 0.14851
 C1156 C 0.74200 0.35262 0.11548
 C1157 C 0.73950 0.37568 0.08573
 C1158 C 0.68504 0.40690 0.08940
 C1159 C 0.63065 0.41485 0.12226
 C1160 C 0.62856 0.39114 0.15120
 C1161 C 0.56430 0.39822 0.18207
 C1162 C 0.50625 0.42836 0.18486
 C1163 C 0.51275 0.45228 0.15745
 C1164 C 0.57468 0.44588 0.12660
 C1165 C 0.79085 0.36670 0.05276
 C1166 C 0.84283 0.33561 0.04910
 C1167 C 0.84568 0.31307 0.07813
 C1168 C 0.79638 0.32140 0.11106
 C1169 C 0.66869 0.42915 0.05841
 C1170 C 0.63727 0.44916 0.03589
 C1171 C 0.69694 0.33817 0.17973
 C1172 C 0.70717 0.31781 0.20404
 H1173 H 0.55503 0.37996 0.20358
 H1174 H 0.45500 0.43306 0.20825
 H1175 H 0.46694 0.47548 0.15956
 H1176 H 0.57652 0.46535 0.10607
 H1177 H 0.79134 0.38361 0.02959
 H1178 H 0.88170 0.32904 0.02368
 H1179 H 0.88676 0.28904 0.07519
 H1180 H 0.80057 0.30302 0.13282
 C1181 C 0.28771 0.86332 0.34317
 C1182 C 0.24577 0.89647 0.34109
 C1183 C 0.26415 0.91926 0.37053
 C1184 C 0.31798 0.90804 0.40283
 C1185 C 0.35917 0.87477 0.40511
 C1186 C 0.34524 0.85246 0.37503
 C1187 C 0.38958 0.81952 0.37769
 C1188 C 0.44573 0.80898 0.40911
 C1189 C 0.45882 0.83079 0.43858
 C1190 C 0.41605 0.86331 0.43678
 C1191 C 0.22866 0.95304 0.36671
 C1192 C 0.17321 0.96359 0.33518
 C1193 C 0.14948 0.94079 0.30735
 C1194 C 0.18527 0.90751 0.31014
 C1195 C 0.34261 0.93166 0.43197
 C1196 C 0.37536 0.95185 0.45410
 C1197 C 0.27092 0.83976 0.31325
 C1198 C 0.26029 0.81724 0.29138
 H1199 H 0.38194 0.80158 0.35553
 H1200 H 0.47948 0.78377 0.41056
 H1201 H 0.50276 0.82254 0.46291
 H1202 H 0.42849 0.87934 0.46042
 H1203 H 0.24276 0.97153 0.38803
 H1204 H 0.14738 0.98948 0.33245
 H1205 H 0.10323 0.94895 0.28345
 H1206 H 0.16498 0.89053 0.28787
 C1207 C 0.21899 0.14044 0.84896
 C1208 C 0.23270 0.15440 0.88447
 C1209 C 0.22469 0.13341 0.91576
 C1210 C 0.20223 0.09871 0.91143
 C1211 C 0.18367 0.08509 0.87603
 C1212 C 0.19337 0.10592 0.84470
 C1213 C 0.17311 0.09183 0.80972
 C1214 C 0.13977 0.05839 0.80588
 C1215 C 0.12688 0.03832 0.83657
 C1216 C 0.15077 0.05112 0.87116
 C1217 C 0.23608 0.14797 0.95090
 C1218 C 0.25356 0.18246 0.95509
 C1219 C 0.26113 0.20307 0.92458
 C1220 C 0.25162 0.18932 0.88964
 C1221 C 0.18327 0.07754 0.94300
 C1222 C 0.15430 0.05800 0.96609
 C1223 C 0.22421 0.16237 0.81730
 C1224 C 0.22789 0.18334 0.79358
 H1225 H 0.18004 0.10671 0.78511
 H1226 H 0.12138 0.04820 0.77905
 H1227 H 0.09648 0.01282 0.83375
 H1228 H 0.14052 0.03423 0.89398
 H1229 H 0.23096 0.13291 0.97543
 H1230 H 0.26183 0.19323 0.98216
 H1231 H 0.27524 0.22983 0.92798
 H1232 H 0.25859 0.20642 0.86684
 C1233 C 0.12554 0.85045 0.15639
 C1234 C 0.18002 0.84232 0.12353
 C1235 C 0.19363 0.86720 0.09608
 C1236 C 0.14888 0.89966 0.10092
 C1237 C 0.09390 0.90779 0.13373
 C1238 C 0.08345 0.88320 0.16169
 C1239 C 0.03012 0.89202 0.19440
 C1240 C -0.01393 0.92408 0.19907
 C1241 C -0.00696 0.94780 0.17139
 C1242 C 0.04749 0.94007 0.13925
 C1243 C 0.25120 0.85880 0.06405
 C1244 C 0.29203 0.82640 0.05885
 C1245 C 0.27519 0.80172 0.08504
 C1246 C 0.22110 0.80950 0.11720
 C1247 C 0.14717 0.92360 0.07096
 C1248 C 0.13117 0.94463 0.04777
 C1249 C 0.12298 0.82575 0.18559
 C1250 C 0.13635 0.80409 0.20825
 H1251 H 0.02118 0.87419 0.21650
 H1252 H -0.05444 0.93053 0.22415
 H1253 H -0.04412 0.97235 0.17487
 H1254 H 0.05231 0.95965 0.11884
 H1255 H 0.26549 0.87719 0.04283
 H1256 H 0.33657 0.82036 0.03434
 H1257 H 0.30390 0.77637 0.08044
 H1258 H 0.21094 0.78941 0.13677
 C1259 C 0.88307 0.35270 0.34656
 C1260 C 0.87509 0.38796 0.34251
 C1261 C 0.85995 0.40883 0.37348
 C1262 C 0.86614 0.39480 0.40887
 C1263 C 0.88165 0.35974 0.41330
 C1264 C 0.88809 0.33851 0.38204
 C1265 C 0.90094 0.30342 0.38715
 C1266 C 0.90871 0.28976 0.42213
 C1267 C 0.90402 0.31059 0.45264
 C1268 C 0.89053 0.34523 0.44843
 C1269 C 0.84069 0.44366 0.36819
 C1270 C 0.84201 0.45759 0.33337
 C1271 C 0.86672 0.43759 0.30347
 C1272 C 0.88325 0.40307 0.30796
 C1273 C 0.87781 0.41746 0.43970
 C1274 C 0.90155 0.43830 0.46236
 C1275 C 0.86775 0.33083 0.31490
 C1276 C 0.84312 0.31101 0.29106
 H1277 H 0.90670 0.28629 0.36423
 H1278 H 0.91895 0.26288 0.42559
 H1279 H 0.91059 0.29984 0.47973
 H1280 H 0.88634 0.36049 0.47289
 H1281 H 0.82343 0.46036 0.39078
 H1282 H 0.82422 0.48401 0.32960
 H1283 H 0.87241 0.44891 0.27673
 H1284 H 0.90545 0.38817 0.28457
 C1285 C 0.38268 0.14743 0.65694
 C1286 C 0.43594 0.15804 0.62482
 C1287 C 0.43649 0.13669 0.59367
 C1288 C 0.38468 0.10474 0.59497
 C1289 C 0.33367 0.09381 0.62739
 C1290 C 0.33166 0.11539 0.65836
 C1291 C 0.27918 0.10412 0.69037
 C1292 C 0.23153 0.07220 0.69190
 C1293 C 0.23495 0.05088 0.66180
 C1294 C 0.28491 0.06147 0.62978
 C1295 C 0.48967 0.14791 0.56177
 C1296 C 0.54120 0.17929 0.56075
 C1297 C 0.54087 0.20015 0.59127
 C1298 C 0.48888 0.18980 0.62301
 C1299 C 0.39424 0.08178 0.56441
 C1300 C 0.41303 0.06150 0.54088
 C1301 C 0.36910 0.17101 0.68671
 C1302 C 0.34709 0.19212 0.70900
 H1303 H 0.27529 0.11971 0.71459
 H1304 H 0.19174 0.06397 0.71657
 H1305 H 0.19782 0.02613 0.66316
 H1306 H 0.28441 0.04411 0.60695
 H1307 H 0.49210 0.13258 0.53733
 H1308 H 0.58196 0.18740 0.53619
 H1309 H 0.58152 0.22444 0.59042
 H1310 H 0.49166 0.20677 0.64616
 C1311 C 0.59456 0.64776 0.83694
 C1312 C 0.54226 0.65745 0.86958
 C1313 C 0.54511 0.63565 0.90029
 C1314 C 0.60034 0.60432 0.89812
 C1315 C 0.65062 0.59433 0.86521
 C1316 C 0.64826 0.61622 0.83458
 C1317 C 0.70018 0.60594 0.80207
 C1318 C 0.75247 0.57479 0.79982
 C1319 C 0.75456 0.55332 0.82975
 C1320 C 0.70405 0.56278 0.86211
 C1321 C 0.49228 0.64587 0.93267
 C1322 C 0.43821 0.67677 0.93462
 C1323 C 0.43573 0.69815 0.90459
 C1324 C 0.48710 0.68875 0.87238
 C1325 C 0.59604 0.58103 0.92847
 C1326 C 0.58184 0.56023 0.95178
 C1327 C 0.60622 0.67201 0.80781
 C1328 C 0.62816 0.69358 0.78611
 H1329 H 0.70072 0.62184 0.77811
 H1330 H 0.79223 0.56738 0.77481
 H1331 H 0.79665 0.52936 0.82803
 H1332 H 0.70858 0.54531 0.88474
 H1333 H 0.49209 0.63012 0.95676
 H1334 H 0.39754 0.68409 0.95950
 H1335 H 0.39314 0.72205 0.90616
 H1336 H 0.48194 0.70606 0.84960
 C1337 C 0.46315 0.34795 0.83863
 C1338 C 0.42441 0.38153 0.83747
 C1339 C 0.44272 0.40317 0.86787
 C1340 C 0.49695 0.39078 0.89970
 C1341 C 0.53949 0.35766 0.90033
 C1342 C 0.52309 0.33621 0.86957
 C1343 C 0.56486 0.30296 0.87097
 C1344 C 0.62115 0.29125 0.90189
 C1345 C 0.63670 0.31223 0.93201
 C1346 C 0.59647 0.34511 0.93138
 C1347 C 0.40235 0.43664 0.86612
 C1348 C 0.34253 0.44798 0.83582
 C1349 C 0.32205 0.42650 0.80656
 C1350 C 0.36347 0.39376 0.80699
 C1351 C 0.50284 0.41215 0.93186
 C1352 C 0.50160 0.43321 0.95556
 C1353 C 0.42574 0.32427 0.81090
 C1354 C 0.38412 0.30419 0.79020
 H1355 H 0.55484 0.28580 0.84817
 H1356 H 0.65298 0.26578 0.90245
 H1357 H 0.68065 0.30303 0.95593
 H1358 H 0.61088 0.36061 0.95534
 H1359 H 0.41504 0.45432 0.88826
 H1360 H 0.31022 0.47338 0.83531
 H1361 H 0.27333 0.43522 0.78345
 H1362 H 0.34618 0.37809 0.78337
 C1363 C 0.95861 0.15580 0.16213
 C1364 C 1.01858 0.16819 0.13206
 C1365 C 1.04153 0.14662 0.10211
 C1366 C 1.00492 0.11285 0.10258
 C1367 C 0.94917 0.10004 0.13333
 C1368 C 0.92454 0.12171 0.16296
 C1369 C 0.86217 0.10892 0.19223
 C1370 C 0.82516 0.07565 0.19213
 C1371 C 0.85271 0.05410 0.16383
 C1372 C 0.91393 0.06599 0.13472
 C1373 C 1.09916 0.15965 0.07197
 C1374 C 1.13372 0.19314 0.07148
 C1375 C 1.11144 0.21427 0.10077
 C1376 C 1.05400 0.20212 0.13068
 C1377 C 1.01803 0.09121 0.07109
 C1378 C 1.02258 0.07004 0.04765
 C1379 C 0.91843 0.17902 0.18943
 C1380 C 0.87617 0.19882 0.20982
 H1381 H 0.83994 0.12457 0.21519
 H1382 H 0.77444 0.06653 0.21408
 H1383 H 0.82490 0.02818 0.16411
 H1384 H 0.93199 0.04825 0.11321
 H1385 H 1.11858 0.14405 0.04867
 H1386 H 1.17836 0.20271 0.04832
 H1387 H 1.13867 0.24022 0.10029
 H1388 H 1.03775 0.21956 0.15265
 C1389 C 0.56405 0.84797 0.64888
 C1390 C 0.60701 0.83833 0.61455
 C1391 C 0.59736 0.86039 0.58411
 C1392 C 0.54550 0.89198 0.58815
 C1393 C 0.50695 0.90223 0.62279
 C1394 C 0.51458 0.87993 0.65307
 C1395 C 0.47166 0.89021 0.68697
 C1396 C 0.42286 0.92174 0.69082
 C1397 C 0.41838 0.94398 0.66163
 C1398 C 0.45995 0.93451 0.62794
 C1399 C 0.64120 0.85035 0.55023
 C1400 C 0.69410 0.81942 0.54652
 C1401 C 0.70388 0.79783 0.57622
 C1402 C 0.66069 0.80698 0.60984
 C1403 C 0.53301 0.91455 0.55721
 C1404 C 0.52337 0.93611 0.53428
 C1405 C 0.58006 0.82585 0.68008
 C1406 C 0.60691 0.80615 0.70361
 H1407 H 0.47380 0.87383 0.71057
 H1408 H 0.38704 0.92888 0.71644
 H1409 H 0.38052 0.96847 0.66490
 H1410 H 0.45314 0.95258 0.60595
 H1411 H 0.63573 0.86636 0.52637
 H1412 H 0.72774 0.81218 0.52046
 H1413 H 0.74519 0.77384 0.57322
 H1414 H 0.67024 0.78921 0.63199
 C1415 C 0.07184 0.65473 0.35389
 C1416 C 0.10722 0.66498 0.38934
 C1417 C 0.09728 0.64256 0.41949
 C1418 C 0.05242 0.61001 0.41407
 C1419 C 0.02089 0.59941 0.37848
 C1420 C 0.02957 0.62194 0.34849
 C1421 C 0.00013 0.61046 0.31319
 C1422 C -0.03019 0.57712 0.30742
 C1423 C -0.04022 0.55517 0.33655
 C1424 C -0.01677 0.56615 0.37184
 C1425 C 0.13343 0.65329 0.45449
 C1426 C 0.17906 0.68522 0.45964
 C1427 C 0.18954 0.70705 0.43023
 C1428 C 0.15391 0.69722 0.39545
 C1429 C 0.04111 0.58650 0.44426
 C1430 C 0.03124 0.56397 0.46608
 C1431 C 0.09079 0.67653 0.32261
 C1432 C 0.11784 0.69509 0.29821
 H1433 H 0.00654 0.62648 0.28943
 H1434 H -0.03912 0.56784 0.28002
 H1435 H -0.06274 0.52926 0.33164
 H1436 H -0.02502 0.54791 0.39353
 H1437 H 0.12704 0.63710 0.47813
 H1438 H 0.20639 0.69308 0.48660
 H1439 H 0.22534 0.73178 0.43440
 H1440 H 0.16342 0.71515 0.37350
   
