data_POSCAR
  _audit_creation_date              2014-09-24
  _audit_creation_method            'ToBaCCo'
  _symmetry_space_group_name_H-M    'P1'
  _symmetry_Int_Tables_number       1
  _symmetry_cell_setting            triclinic
  loop_
  _symmetry_equiv_pos_as_xyz
 x,y,z
_cell_length_a 62.0707
_cell_length_b 62.0645
_cell_length_c 56.6459
_cell_angle_alpha 90.367100
_cell_angle_beta 89.659200
_cell_angle_gamma 89.738100
loop_
  _atom_site_label
  _atom_site_type_symbol
  _atom_site_fract_x
  _atom_site_fract_y
  _atom_site_fract_z
C1 C 0.38619 0.02304 0.27400
 H2 H 0.38643 0.03203 0.25771
 C3 C 0.39801 0.03026 0.29338
 H4 H 0.40760 0.04474 0.29200
 C5 C 0.37298 -0.00658 0.29597
 H6 H 0.36284 -0.02063 0.29709
 C7 C 0.38454 0.00008 0.31575
 H8 H 0.38355 -0.00907 0.33194
 N9 N 0.37412 0.00484 0.27558
 C10 C 0.36406 -0.01588 0.20291
 H11 H 0.34665 -0.01655 0.20283
 C12 C 0.37573 -0.02178 0.18274
 H13 H 0.36732 -0.02680 0.16695
 C14 C 0.39636 -0.00866 0.22367
 H15 H 0.40431 -0.00388 0.23976
 C16 C 0.40866 -0.01443 0.20386
 H17 H 0.42608 -0.01374 0.20461
 Zn18 Zn 0.35713 -0.00274 0.24930
 N19 N 0.37447 -0.00928 0.22273
 C20 C 0.34091 0.03239 0.22283
 N21 N 0.33923 0.02118 0.24334
 C22 C 0.32653 0.02828 0.26145
 C23 C 0.31514 0.04761 0.25952
 C24 C 0.32979 0.05183 0.22018
 C25 C 0.35238 -0.04609 0.25886
 C26 C 0.34183 -0.06570 0.26160
 C27 C 0.30775 -0.04704 0.25751
 C28 C 0.31899 -0.02772 0.25488
 N29 N 0.34090 -0.02765 0.25557
 H30 H 0.35155 0.02679 0.20892
 H31 H 0.32591 0.01928 0.27773
 H32 H 0.30558 0.05348 0.27429
 H33 H 0.33172 0.06104 0.20413
 H34 H 0.36980 -0.04557 0.25888
 H35 H 0.35122 -0.08032 0.26384
 H36 H 0.29031 -0.04702 0.25650
 H37 H 0.31024 -0.01295 0.25167
 C38 C 0.39822 -0.02102 0.18324
 C39 C 0.39711 0.01868 0.31444
 C40 C 0.31932 -0.06622 0.26073
 C41 C 0.31706 0.05962 0.23883
 C42 C 0.11249 0.02594 0.72246
 H43 H 0.11207 0.03517 0.73872
 C44 C 0.10027 0.03256 0.70316
 H45 H 0.09020 0.04682 0.70456
 C46 C 0.12645 -0.00373 0.70050
 H47 H 0.13701 -0.01757 0.69935
 C48 C 0.11452 0.00233 0.68082
 H49 H 0.11565 -0.00709 0.66469
 N50 N 0.12510 0.00797 0.72086
 C51 C 0.13606 -0.01214 0.79331
 H52 H 0.15349 -0.01264 0.79315
 C53 C 0.12472 -0.01831 0.81347
 H54 H 0.13340 -0.02334 0.82904
 C55 C 0.10341 -0.00524 0.77306
 H56 H 0.09520 -0.00053 0.75713
 C57 C 0.09143 -0.01129 0.79288
 H58 H 0.07399 -0.01086 0.79233
 Zn59 Zn 0.14235 0.00082 0.74702
 N60 N 0.12533 -0.00561 0.77373
 C61 C 0.15866 0.03595 0.77367
 N62 N 0.16010 0.02477 0.75297
 C63 C 0.17275 0.03167 0.73487
 C64 C 0.18444 0.05070 0.73710
 C65 C 0.17009 0.05510 0.77663
 C66 C 0.14742 -0.04260 0.73747
 C67 C 0.15809 -0.06226 0.73486
 C68 C 0.19205 -0.04365 0.73876
 C69 C 0.18071 -0.02425 0.74125
 N70 N 0.15879 -0.02413 0.74063
 H71 H 0.14807 0.03050 0.78759
 H72 H 0.17321 0.02267 0.71846
 H73 H 0.19407 0.05638 0.72240
 H74 H 0.16845 0.06425 0.79290
 H75 H 0.13000 -0.04203 0.73752
 H76 H 0.14889 -0.07694 0.73281
 H77 H 0.20947 -0.04379 0.73979
 H78 H 0.18939 -0.00946 0.74439
 C79 C 0.10222 -0.01789 0.81323
 C80 C 0.10134 0.02062 0.68217
 C81 C 0.18057 -0.06282 0.73573
 C82 C 0.18290 0.06262 0.75807
 C83 C 0.61297 0.52552 0.22174
 H84 H 0.61261 0.53474 0.23802
 C85 C 0.60075 0.53222 0.20247
 H86 H 0.59075 0.54653 0.20390
 C87 C 0.62677 0.49582 0.19972
 H88 H 0.63727 0.48194 0.19852
 C89 C 0.61485 0.50196 0.18006
 H90 H 0.61593 0.49257 0.16391
 N91 N 0.62549 0.50750 0.22009
 C92 C 0.63655 0.48723 0.29248
 H93 H 0.65397 0.48663 0.29226
 C94 C 0.62523 0.48110 0.31267
 H95 H 0.63393 0.47599 0.32820
 C96 C 0.60387 0.49434 0.27236
 H97 H 0.59564 0.49913 0.25648
 C98 C 0.59192 0.48834 0.29222
 H99 H 0.57448 0.48886 0.29174
 Zn100 Zn 0.64277 0.50022 0.24620
 N101 N 0.62578 0.49385 0.27295
 C102 C 0.65930 0.53524 0.27283
 N103 N 0.66066 0.52406 0.25212
 C104 C 0.67330 0.53092 0.23399
 C105 C 0.68505 0.54993 0.23619
 C106 C 0.67079 0.55436 0.27575
 C107 C 0.64751 0.45680 0.23656
 C108 C 0.65802 0.43707 0.23380
 C109 C 0.69213 0.45542 0.23753
 C110 C 0.68095 0.47490 0.24017
 N111 N 0.65903 0.47517 0.23970
 H112 H 0.64873 0.52982 0.28677
 H113 H 0.67370 0.52192 0.21757
 H114 H 0.69464 0.55559 0.22146
 H115 H 0.66920 0.56351 0.29202
 H116 H 0.63009 0.45750 0.23673
 H117 H 0.64870 0.42246 0.23175
 H118 H 0.70956 0.45515 0.23843
 H119 H 0.68975 0.48962 0.24329
 C120 C 0.60273 0.48164 0.31252
 C121 C 0.60176 0.52032 0.18146
 C122 C 0.68050 0.43635 0.23451
 C123 C 0.68356 0.56186 0.25715
 C124 C 0.88773 0.52357 0.77576
 H125 H 0.88803 0.53265 0.75952
 C126 C 0.89954 0.53068 0.79520
 H127 H 0.90917 0.54515 0.79387
 C128 C 0.87437 0.49391 0.79754
 H129 H 0.86416 0.47991 0.79857
 C130 C 0.88591 0.50044 0.81739
 H131 H 0.88480 0.49118 0.83351
 N132 N 0.87558 0.50542 0.77722
 C133 C 0.86525 0.48511 0.70445
 H134 H 0.84784 0.48453 0.70444
 C135 C 0.87683 0.47920 0.68423
 H136 H 0.86835 0.47426 0.66845
 C137 C 0.89765 0.49209 0.72512
 H138 H 0.90568 0.49678 0.74121
 C139 C 0.90987 0.48630 0.70525
 H140 H 0.92729 0.48688 0.70594
 Zn141 Zn 0.85852 0.49807 0.75093
 N142 N 0.87575 0.49159 0.72426
 C143 C 0.84226 0.53336 0.72472
 N144 N 0.84068 0.52208 0.74518
 C145 C 0.82807 0.52910 0.76341
 C146 C 0.81664 0.54841 0.76162
 C147 C 0.83109 0.55280 0.72221
 C148 C 0.85356 0.45467 0.76023
 C149 C 0.84290 0.43513 0.76292
 C150 C 0.80894 0.45399 0.75906
 C151 C 0.82026 0.47325 0.75648
 N152 N 0.84218 0.47320 0.75708
 H153 H 0.85283 0.52781 0.71072
 H154 H 0.82752 0.52003 0.77964
 H155 H 0.80713 0.55422 0.77646
 H156 H 0.83292 0.56206 0.70619
 H157 H 0.87099 0.45509 0.76019
 H158 H 0.85210 0.42040 0.76504
 H159 H 0.79151 0.45401 0.75812
 H160 H 0.81157 0.48808 0.75337
 C161 C 0.89933 0.47982 0.68465
 C162 C 0.89855 0.51901 0.81622
 C163 C 0.82041 0.43477 0.76214
 C164 C 0.81842 0.56049 0.74096
 C165 C 0.22400 0.41614 0.97819
 H166 H 0.23858 0.41766 0.96778
 C167 C 0.20563 0.42806 0.97231
 H168 H 0.20603 0.43894 0.95744
 C169 C 0.20536 0.39986 1.01006
 H170 H 0.20505 0.38857 1.02445
 C171 C 0.18674 0.41139 1.00480
 H172 H 0.17233 0.40914 1.01538
 N173 N 0.22362 0.40263 0.99704
 C174 C 0.28947 0.39406 1.02141
 H175 H 0.28925 0.37678 1.02381
 C176 C 0.30824 0.40558 1.02582
 H177 H 0.32259 0.39718 1.03162
 C178 C 0.27127 0.42601 1.00997
 H179 H 0.25687 0.43387 1.00370
 C180 C 0.28978 0.43817 1.01413
 H181 H 0.28968 0.45534 1.01082
 Zn182 Zn 0.24841 0.38635 1.00476
 N183 N 0.27169 0.40428 1.01301
 C184 C 0.27596 0.37223 0.96783
 N185 N 0.25623 0.36952 0.97802
 C186 C 0.24144 0.35600 0.96840
 C187 C 0.24636 0.34441 0.94781
 C188 C 0.28152 0.36096 0.94729
 C189 C 0.23906 0.37997 1.05197
 C190 C 0.23353 0.36890 1.07243
 C191 C 0.23530 0.33552 1.05024
 C192 C 0.24081 0.34726 1.03010
 N193 N 0.24226 0.36912 1.03130
 H194 H 0.28730 0.38349 0.97525
 H195 H 0.22571 0.35450 0.97654
 H196 H 0.23444 0.33383 0.94010
 H197 H 0.29716 0.36342 0.93917
 H198 H 0.24050 0.39734 1.05241
 H199 H 0.23085 0.37771 1.08877
 H200 H 0.23405 0.31814 1.04923
 H201 H 0.24375 0.33892 1.01360
 C202 C 0.30851 0.42774 1.02171
 C203 C 0.18689 0.42567 0.98587
 C204 C 0.23147 0.34651 1.07151
 C205 C 0.26658 0.34700 0.93716
 C206 C 0.77588 0.08390 0.97481
 H207 H 0.76163 0.08209 0.96408
 C208 C 0.79467 0.07239 0.96910
 H209 H 0.79487 0.06155 0.95403
 C210 C 0.79327 0.10049 1.00732
 H211 H 0.79294 0.11174 1.02191
 C212 C 0.81228 0.08939 1.00226
 H213 H 0.82630 0.09197 1.01322
 N214 N 0.77543 0.09735 0.99390
 C215 C 0.70888 0.10455 1.01748
 H216 H 0.70880 0.12179 1.02041
 C217 C 0.69019 0.09271 1.02136
 H218 H 0.67562 0.10083 1.02729
 C219 C 0.72774 0.07301 1.00527
 H220 H 0.74237 0.06544 0.99891
 C221 C 0.70933 0.06054 1.00888
 H222 H 0.70974 0.04342 1.00508
 Zn223 Zn 0.75013 0.11311 1.00157
 N224 N 0.72696 0.09470 1.00897
 C225 C 0.72318 0.12709 0.96464
 N226 N 0.74264 0.13008 0.97515
 C227 C 0.75739 0.14392 0.96601
 C228 C 0.75271 0.15554 0.94559
 C229 C 0.71787 0.13838 0.94426
 C230 C 0.75804 0.11895 1.04910
 C231 C 0.76336 0.12970 1.06991
 C232 C 0.76243 0.16335 1.04867
 C233 C 0.75710 0.15194 1.02816
 N234 N 0.75539 0.13009 1.02870
 H235 H 0.71188 0.11560 0.97166
 H236 H 0.77292 0.14563 0.97437
 H237 H 0.76462 0.16635 0.93824
 H238 H 0.70246 0.13569 0.93588
 H239 H 0.75646 0.10160 1.04901
 H240 H 0.76571 0.12065 1.08600
 H241 H 0.76401 0.18072 1.04815
 H242 H 0.75465 0.16049 1.01184
 C243 C 0.69032 0.07060 1.01661
 C244 C 0.81298 0.07514 0.98309
 C245 C 0.76580 0.15205 1.06964
 C246 C 0.73279 0.15265 0.93460
 C247 C 0.27534 0.58452 0.47398
 H248 H 0.26103 0.58276 0.46333
 C249 C 0.29405 0.57292 0.46818
 H250 H 0.29419 0.56206 0.45314
 C251 C 0.29295 0.60104 0.50639
 H252 H 0.29274 0.61229 0.52098
 C253 C 0.31188 0.58984 0.50122
 H254 H 0.32599 0.59231 0.51207
 N255 N 0.27503 0.59798 0.49307
 C256 C 0.20858 0.60534 0.51692
 H257 H 0.20851 0.62259 0.51978
 C258 C 0.18990 0.59352 0.52091
 H259 H 0.17535 0.60165 0.52685
 C260 C 0.22741 0.57376 0.50478
 H261 H 0.24202 0.56616 0.49841
 C262 C 0.20900 0.56130 0.50850
 H263 H 0.20941 0.54416 0.50478
 Zn264 Zn 0.24982 0.61381 0.50087
 N265 N 0.22664 0.59546 0.50838
 C266 C 0.22278 0.62788 0.46405
 N267 N 0.24227 0.63079 0.47448
 C268 C 0.25704 0.64460 0.46530
 C269 C 0.25233 0.65626 0.44492
 C270 C 0.21743 0.63920 0.44370
 C271 C 0.25799 0.61967 0.54835
 C272 C 0.26338 0.63043 0.56913
 C273 C 0.26229 0.66408 0.54787
 C274 C 0.25691 0.65264 0.52739
 N275 N 0.25523 0.63079 0.52796
 H276 H 0.21147 0.61640 0.47109
 H277 H 0.27260 0.64627 0.47361
 H278 H 0.26424 0.66705 0.43754
 H279 H 0.20199 0.63656 0.43537
 H280 H 0.25643 0.60231 0.54828
 H281 H 0.26580 0.62140 0.58521
 H282 H 0.26384 0.68145 0.54734
 H283 H 0.25436 0.66119 0.51109
 C284 C 0.19002 0.57139 0.51624
 C285 C 0.31242 0.57559 0.48207
 C286 C 0.26576 0.65279 0.56884
 C287 C 0.23236 0.65344 0.43400
 C288 C 0.72396 0.91551 0.47688
 H289 H 0.73855 0.91704 0.46650
 C290 C 0.70558 0.92739 0.47093
 H291 H 0.70599 0.93823 0.45603
 C292 C 0.70530 0.89929 0.50877
 H293 H 0.70500 0.88804 0.52321
 C294 C 0.68667 0.91077 0.50344
 H295 H 0.67225 0.90854 0.51401
 N296 N 0.72358 0.90205 0.49578
 C297 C 0.78943 0.89371 0.52020
 H298 H 0.78927 0.87643 0.52261
 C299 C 0.80816 0.90529 0.52467
 H300 H 0.82252 0.89695 0.53051
 C301 C 0.77115 0.92560 0.50874
 H302 H 0.75673 0.93341 0.50245
 C303 C 0.78960 0.93782 0.51295
 H304 H 0.78944 0.95500 0.50967
 Zn305 Zn 0.74840 0.88585 0.50358
 N306 N 0.77163 0.90386 0.51177
 C307 C 0.77598 0.87170 0.46670
 N308 N 0.75627 0.86895 0.47692
 C309 C 0.74151 0.85534 0.46737
 C310 C 0.74645 0.84370 0.44682
 C311 C 0.78155 0.86039 0.44618
 C312 C 0.73904 0.87966 0.55081
 C313 C 0.73362 0.86866 0.57136
 C314 C 0.73559 0.83518 0.54938
 C315 C 0.74098 0.84684 0.52915
 N316 N 0.74229 0.86871 0.53020
 H317 H 0.78728 0.88302 0.47405
 H318 H 0.72580 0.85380 0.47554
 H319 H 0.73456 0.83307 0.43916
 H320 H 0.79717 0.86288 0.43803
 H321 H 0.74037 0.89704 0.55114
 H322 H 0.73092 0.87754 0.58765
 H323 H 0.73446 0.81778 0.54849
 H324 H 0.74396 0.83844 0.51269
 C325 C 0.80835 0.92746 0.52059
 C326 C 0.68683 0.92501 0.48447
 C327 C 0.73172 0.84626 0.57059
 C328 C 0.76664 0.84634 0.43611
 C329 C 0.01375 0.27878 0.41212
 H330 H 0.02795 0.26864 0.41286
 C331 C 0.01262 0.29768 0.42569
 H332 H 0.02597 0.30209 0.43693
 C333 C -0.02079 0.28578 0.39616
 H334 H -0.03362 0.28136 0.38432
 C335 C -0.02256 0.30479 0.40941
 H336 H -0.03681 0.31480 0.40784
 N337 N -0.00289 0.27310 0.39784
 C338 C 0.00241 0.20333 0.38721
 H339 H 0.00177 0.20264 0.36814
 C340 C 0.00381 0.18430 0.40016
 H341 H 0.00426 0.16892 0.39098
 C342 C 0.00238 0.22421 0.42241
 H343 H 0.00156 0.23976 0.43103
 C344 C 0.00377 0.20554 0.43606
 H345 H 0.00415 0.20685 0.45514
 Zn346 Zn -0.00003 0.24768 0.37905
 N347 N 0.00197 0.22280 0.39840
 C348 C 0.04173 0.23582 0.36251
 N349 N 0.02545 0.25045 0.36038
 C350 C 0.02751 0.26780 0.34595
 C351 C 0.04637 0.27075 0.33268
 C352 C 0.06081 0.23815 0.34959
 C353 C -0.04377 0.24023 0.37111
 C354 C -0.06279 0.23776 0.35834
 C355 C -0.04249 0.24284 0.32230
 C356 C -0.02379 0.24522 0.33577
 N357 N -0.02481 0.24419 0.35977
 H358 H 0.04014 0.22245 0.37448
 H359 H 0.01452 0.27943 0.34487
 H360 H 0.04787 0.28461 0.32128
 H361 H 0.07367 0.22644 0.35150
 H362 H -0.04410 0.23923 0.39017
 H363 H -0.07783 0.23492 0.36759
 H364 H -0.04161 0.24395 0.30324
 H365 H -0.00855 0.24795 0.32702
 C366 C 0.00458 0.18538 0.42483
 C367 C -0.00571 0.31081 0.42431
 C368 C -0.06220 0.23921 0.33371
 C369 C 0.06319 0.25577 0.33454
 C370 C 0.01356 0.72177 0.09033
 H371 H 0.02782 0.73173 0.08980
 C372 C 0.01256 0.70305 0.07648
 H373 H 0.02607 0.69860 0.06525
 C374 C -0.02127 0.71509 0.10595
 H375 H -0.03429 0.71956 0.11774
 C376 C -0.02291 0.69625 0.09241
 H377 H -0.03726 0.68644 0.09372
 N378 N -0.00329 0.72754 0.10455
 C379 C 0.00211 0.79732 0.11517
 H380 H 0.00133 0.79814 0.13424
 C381 C 0.00378 0.81625 0.10206
 H382 H 0.00429 0.83169 0.11107
 C383 C 0.00219 0.77625 0.08011
 H384 H 0.00130 0.76068 0.07157
 C385 C 0.00385 0.79482 0.06633
 H386 H 0.00437 0.79344 0.04726
 Zn387 Zn -0.00066 0.75289 0.12347
 N388 N 0.00161 0.77778 0.10411
 C389 C 0.04092 0.76428 0.14032
 N390 N 0.02462 0.74977 0.14218
 C391 C 0.02645 0.73227 0.15644
 C392 C 0.04509 0.72905 0.16981
 C393 C 0.05979 0.76166 0.15336
 C394 C -0.04457 0.76059 0.13163
 C395 C -0.06371 0.76301 0.14453
 C396 C -0.04357 0.75768 0.18043
 C397 C -0.02478 0.75536 0.16681
 N398 N -0.02566 0.75651 0.14283
 H399 H 0.03951 0.77777 0.12849
 H400 H 0.01345 0.72074 0.15731
 H401 H 0.04640 0.71507 0.18108
 H402 H 0.07267 0.77329 0.15168
 H403 H -0.04480 0.76170 0.11258
 H404 H -0.07868 0.76593 0.13527
 H405 H -0.04268 0.75643 0.19948
 H406 H -0.00957 0.75254 0.17545
 C407 C 0.00474 0.81501 0.07741
 C408 C -0.00587 0.69018 0.07751
 C409 C -0.06328 0.76140 0.16917
 C410 C 0.06193 0.74390 0.16826
 C411 C 0.51444 0.22126 0.58914
 H412 H 0.52872 0.23118 0.58857
 C413 C 0.51335 0.20256 0.57528
 H414 H 0.52680 0.19808 0.56398
 C415 C 0.47964 0.21465 0.60491
 H416 H 0.46667 0.21914 0.61675
 C417 C 0.47791 0.19583 0.59136
 H418 H 0.46355 0.18604 0.59272
 N419 N 0.49765 0.22705 0.60345
 C420 C 0.50333 0.29680 0.61421
 H421 H 0.50264 0.29757 0.63329
 C422 C 0.50495 0.31576 0.60115
 H423 H 0.50552 0.33118 0.61020
 C424 C 0.50319 0.27581 0.57909
 H425 H 0.50222 0.26027 0.57052
 C426 C 0.50480 0.29442 0.56536
 H427 H 0.50521 0.29309 0.54628
 Zn428 Zn 0.50042 0.25236 0.62241
 N429 N 0.50273 0.27729 0.60310
 C430 C 0.54206 0.26357 0.63929
 N431 N 0.52571 0.24910 0.64107
 C432 C 0.52746 0.23156 0.65528
 C433 C 0.54604 0.22828 0.66872
 C434 C 0.56088 0.26089 0.65241
 C435 C 0.45654 0.26018 0.63078
 C436 C 0.43749 0.26270 0.64380
 C437 C 0.45778 0.25739 0.67955
 C438 C 0.47650 0.25496 0.66585
 N439 N 0.47550 0.25606 0.64187
 H440 H 0.54071 0.27710 0.62751
 H441 H 0.51442 0.22008 0.65609
 H442 H 0.54727 0.21429 0.67998
 H443 H 0.57378 0.27250 0.65081
 H444 H 0.45621 0.26124 0.61172
 H445 H 0.42244 0.26565 0.63474
 H446 H 0.45866 0.25620 0.69860
 H447 H 0.49173 0.25212 0.67441
 C448 C 0.50577 0.31458 0.57649
 C449 C 0.49489 0.18972 0.57638
 C450 C 0.43806 0.26115 0.66841
 C451 C 0.56292 0.24310 0.66728
 C452 C 0.51404 0.77937 0.91058
 H453 H 0.52828 0.76928 0.91131
 C454 C 0.51284 0.79824 0.92419
 H455 H 0.52617 0.80268 0.93546
 C456 C 0.47949 0.78628 0.89461
 H457 H 0.46668 0.78184 0.88276
 C458 C 0.47765 0.80526 0.90790
 H459 H 0.46336 0.81522 0.90635
 N460 N 0.49743 0.77366 0.89628
 C461 C 0.50289 0.70390 0.88573
 H462 H 0.50229 0.70317 0.86666
 C463 C 0.50430 0.68490 0.89873
 H464 H 0.50480 0.66949 0.88965
 C465 C 0.50274 0.72484 0.92089
 H466 H 0.50186 0.74040 0.92949
 C467 C 0.50414 0.70619 0.93458
 H468 H 0.50447 0.70747 0.95365
 Zn469 Zn 0.50036 0.74824 0.87751
 N470 N 0.50239 0.72339 0.89689
 C471 C 0.54218 0.73646 0.86110
 N472 N 0.52587 0.75105 0.85888
 C473 C 0.52793 0.76840 0.84444
 C474 C 0.54684 0.77139 0.83127
 C475 C 0.56131 0.73885 0.84827
 C476 C 0.45667 0.74067 0.86957
 C477 C 0.43764 0.73818 0.85683
 C478 C 0.45787 0.74338 0.82077
 C479 C 0.47659 0.74578 0.83422
 N480 N 0.47560 0.74470 0.85821
 H481 H 0.54059 0.72311 0.87308
 H482 H 0.51492 0.77999 0.84330
 H483 H 0.54835 0.78526 0.81987
 H484 H 0.57420 0.72718 0.85026
 H485 H 0.45636 0.73963 0.88863
 H486 H 0.42262 0.73528 0.86610
 H487 H 0.45873 0.74454 0.80172
 H488 H 0.49181 0.74858 0.82546
 C489 C 0.50500 0.68603 0.92338
 C490 C 0.49446 0.81130 0.92284
 C491 C 0.43819 0.73968 0.83221
 C492 C 0.56370 0.75646 0.83322
 C493 C -0.22640 0.63774 0.97580
 H494 H -0.21743 0.63791 0.99212
 C495 C -0.21913 0.64966 0.95652
 H496 H -0.20466 0.65924 0.95799
 C497 C -0.25596 0.62462 0.95366
 H498 H -0.27000 0.61448 0.95243
 C499 C -0.24926 0.63628 0.93397
 H500 H -0.25837 0.63535 0.91775
 N501 N -0.24458 0.62567 0.97409
 C502 C -0.26542 0.61510 1.04661
 H503 H -0.26607 0.59768 1.04654
 C504 C -0.27134 0.62663 1.06687
 H505 H -0.27636 0.61806 1.08257
 C506 C -0.25821 0.64754 1.02614
 H507 H -0.25341 0.65560 1.01011
 C508 C -0.26399 0.65972 1.04603
 H509 H -0.26329 0.67715 1.04537
 Zn510 Zn -0.25218 0.60850 1.00019
 N511 N -0.25880 0.62564 1.02690
 C512 C -0.21713 0.59201 1.02665
 N513 N -0.22826 0.59059 1.00606
 C514 C -0.22113 0.57805 0.98782
 C515 C -0.20188 0.56655 0.98972
 C516 C -0.19775 0.58078 1.02927
 C517 C -0.29551 0.60362 0.99043
 C518 C -0.31503 0.59296 0.98748
 C519 C -0.29620 0.55898 0.99135
 C520 C -0.27696 0.57030 0.99419
 N521 N -0.27702 0.59223 0.99370
 H522 H -0.22276 0.60253 1.04067
 H523 H -0.23008 0.57762 0.97149
 H524 H -0.19598 0.55710 0.97486
 H525 H -0.18861 0.58249 1.04540
 H526 H -0.29510 0.62105 0.99058
 H527 H -0.32975 0.60217 0.98527
 H528 H -0.29618 0.54155 0.99220
 H529 H -0.26217 0.56160 0.99741
 C530 C -0.27058 0.64914 1.06658
 C531 C -0.23066 0.64884 0.93541
 C532 C -0.31539 0.57047 0.98813
 C533 C -0.18995 0.56818 1.01050
 C534 C -0.22434 0.36158 0.52870
 H535 H -0.21521 0.36104 0.51237
 C536 C -0.21789 0.35002 0.54726
 H537 H -0.20358 0.34002 0.54593
 C538 C -0.25448 0.37629 0.54989
 H539 H -0.26822 0.38697 0.55113
 C540 C -0.24807 0.36373 0.57070
 H541 H -0.25765 0.36490 0.58674
 N542 N -0.24333 0.37491 0.53037
 C543 C -0.26318 0.38584 0.45784
 H544 H -0.26367 0.40327 0.45796
 C545 C -0.26930 0.37446 0.43768
 H546 H -0.27428 0.38311 0.42206
 C547 C -0.25636 0.35323 0.47818
 H548 H -0.25170 0.34505 0.49415
 C549 C -0.26236 0.34121 0.45836
 H550 H -0.26195 0.32376 0.45894
 Zn551 Zn -0.25035 0.39219 0.50418
 N552 N -0.25672 0.37514 0.47747
 C553 C -0.21506 0.40832 0.47767
 N554 N -0.22631 0.40983 0.49833
 C555 C -0.21941 0.42247 0.51644
 C556 C -0.20031 0.43408 0.51428
 C557 C -0.19586 0.41966 0.47479
 C558 C -0.29379 0.39744 0.51348
 C559 C -0.31343 0.40817 0.51600
 C560 C -0.29467 0.44207 0.51218
 C561 C -0.27530 0.43065 0.50978
 N562 N -0.27527 0.40873 0.51041
 H563 H -0.22052 0.39774 0.46374
 H564 H -0.22846 0.42300 0.53282
 H565 H -0.19464 0.44370 0.52899
 H566 H -0.18668 0.41796 0.45856
 H567 H -0.29328 0.38001 0.51345
 H568 H -0.32812 0.39897 0.51800
 H569 H -0.29467 0.45950 0.51115
 H570 H -0.26047 0.43926 0.50672
 C571 C -0.26890 0.35196 0.43796
 C572 C -0.23046 0.35117 0.56947
 C573 C -0.31390 0.43067 0.51512
 C574 C -0.18833 0.43245 0.49337
 C575 C 0.27569 -0.13766 0.02805
 H576 H 0.28482 -0.13815 0.01173
 C577 C 0.28214 -0.14924 0.04659
 H578 H 0.29647 -0.15923 0.04524
 C579 C 0.24553 -0.12303 0.04927
 H580 H 0.23177 -0.11238 0.05053
 C581 C 0.25195 -0.13562 0.07006
 H582 H 0.24236 -0.13450 0.08609
 N583 N 0.25667 -0.12436 0.02975
 C584 C 0.23669 -0.11343 -0.04275
 H585 H 0.23613 -0.09600 -0.04261
 C586 C 0.23061 -0.12482 -0.06292
 H587 H 0.22558 -0.11618 -0.07852
 C588 C 0.24367 -0.14604 -0.02245
 H589 H 0.24839 -0.15420 -0.00650
 C590 C 0.23772 -0.15806 -0.04228
 H591 H 0.23821 -0.17550 -0.04172
 Zn592 Zn 0.24957 -0.10708 0.00358
 N593 N 0.24322 -0.12412 -0.02314
 C594 C 0.28476 -0.09083 -0.02296
 N595 N 0.27354 -0.08935 -0.00229
 C596 C 0.28045 -0.07670 0.01582
 C597 C 0.29953 -0.06507 0.01364
 C598 C 0.30394 -0.07946 -0.02587
 C599 C 0.20613 -0.10205 0.01296
 C600 C 0.18645 -0.09143 0.01565
 C601 C 0.20503 -0.05741 0.01200
 C602 C 0.22444 -0.06872 0.00942
 N603 N 0.22458 -0.09065 0.00990
 H604 H 0.27930 -0.10141 -0.03689
 H605 H 0.27142 -0.07619 0.03221
 H606 H 0.30521 -0.05546 0.02835
 H607 H 0.31311 -0.08116 -0.04211
 H608 H 0.20672 -0.11948 0.01280
 H609 H 0.17181 -0.10071 0.01767
 H610 H 0.20494 -0.03997 0.01113
 H611 H 0.23923 -0.06002 0.00638
 C612 C 0.23112 -0.14733 -0.06266
 C613 C 0.26956 -0.14816 0.06880
 C614 C 0.18586 -0.06892 0.01496
 C615 C 0.31149 -0.06668 -0.00729
 C616 C 0.27364 1.13730 0.47600
 H617 H 0.28267 1.13750 0.49228
 C618 C 0.28083 1.14915 0.45664
 H619 H 0.29532 1.15873 0.45802
 C620 C 0.24398 1.12413 0.45404
 H621 H 0.22994 1.11398 0.45291
 C622 C 0.25061 1.13572 0.43429
 H623 H 0.24144 1.13475 0.41811
 N624 N 0.25544 1.12522 0.47441
 C625 C 0.23492 1.11479 0.54707
 H626 H 0.23430 1.09737 0.54705
 C627 C 0.22899 1.12637 0.56728
 H628 H 0.22400 1.11789 0.58304
 C629 C 0.24199 1.14720 0.52646
 H630 H 0.24672 1.15522 0.51039
 C631 C 0.23619 1.15941 0.54632
 H632 H 0.23681 1.17683 0.54565
 Zn633 Zn 0.24794 1.10810 0.50059
 N634 N 0.24146 1.12529 0.52729
 C635 C 0.28312 1.09162 0.52684
 N636 N 0.27187 1.09016 0.50635
 C637 C 0.27887 1.07760 0.48807
 C638 C 0.29814 1.06610 0.48984
 C639 C 0.30252 1.08038 0.52933
 C640 C 0.20457 1.10332 0.49107
 C641 C 0.18501 1.09271 0.48822
 C642 C 0.20377 1.05868 0.49202
 C643 C 0.22305 1.06995 0.49477
 N644 N 0.22305 1.09188 0.49426
 H645 H 0.27759 1.10216 0.54089
 H646 H 0.26982 1.07715 0.47181
 H647 H 0.30393 1.05663 0.47495
 H648 H 0.31177 1.08212 0.54538
 H649 H 0.20503 1.12074 0.49120
 H650 H 0.17032 1.10196 0.48607
 H651 H 0.20374 1.04125 0.49288
 H652 H 0.23783 1.06121 0.49792
 C653 C 0.22965 1.14887 0.56689
 C654 C 0.26922 1.14828 0.43560
 C655 C 0.18460 1.07022 0.48888
 C656 C 0.31020 1.06776 0.51053
 C657 C 0.16549 0.47396 0.27169
 H658 H 0.16694 0.48840 0.28234
 C659 C 0.17723 0.45545 0.27750
 H660 H 0.18789 0.45561 0.29256
 C661 C 0.14952 0.45577 0.23930
 H662 H 0.13841 0.45569 0.22473
 C663 C 0.16088 0.43702 0.24448
 H664 H 0.15868 0.42274 0.23366
 N665 N 0.15220 0.47387 0.25264
 C666 C 0.14389 0.54007 0.22926
 H667 H 0.12663 0.53990 0.22671
 C668 C 0.15546 0.55887 0.22515
 H669 H 0.14712 0.57328 0.21943
 C670 C 0.17574 0.52171 0.24072
 H671 H 0.18353 0.50723 0.24688
 C672 C 0.18795 0.54024 0.23686
 H673 H 0.20510 0.54007 0.24027
 Zn674 Zn 0.13601 0.49880 0.24519
 N675 N 0.15402 0.52218 0.23750
 C676 C 0.12164 0.52587 0.28245
 N677 N 0.11900 0.50627 0.27191
 C678 C 0.10543 0.49134 0.28118
 C679 C 0.09373 0.49598 0.30176
 C680 C 0.11026 0.53114 0.30300
 C681 C 0.12993 0.49010 0.19775
 C682 C 0.11898 0.48490 0.17709
 C683 C 0.08545 0.48647 0.19906
 C684 C 0.09709 0.49164 0.21938
 N685 N 0.11895 0.49304 0.21838
 H686 H 0.13293 0.53731 0.27531
 H687 H 0.10398 0.47572 0.27277
 H688 H 0.08312 0.48395 0.30920
 H689 H 0.11266 0.54667 0.31140
 H690 H 0.14730 0.49150 0.19749
 H691 H 0.12798 0.48245 0.16082
 H692 H 0.06805 0.48528 0.20002
 H693 H 0.08867 0.49438 0.23587
 C694 C 0.17760 0.55906 0.22940
 C695 C 0.17490 0.43687 0.26365
 C696 C 0.09655 0.48290 0.17776
 C697 C 0.09625 0.51605 0.31279
 C698 C -0.16502 1.02473 0.27529
 H699 H -0.16667 1.01028 0.28571
 C700 C -0.17682 1.04326 0.28131
 H701 H -0.18772 1.04311 0.29631
 C702 C -0.14859 1.04288 0.24321
 H703 H -0.13730 1.04295 0.22866
 C704 C -0.15998 1.06165 0.24861
 H705 H -0.15762 1.07591 0.23798
 N706 N -0.15151 1.02478 0.25625
 C707 C -0.14350 0.95865 0.23154
 H708 H -0.12623 0.95873 0.22880
 C709 C -0.15516 0.93992 0.22723
 H710 H -0.14689 0.92549 0.22117
 C711 C -0.17527 0.97714 0.24367
 H712 H -0.18301 0.99164 0.25015
 C713 C -0.18757 0.95868 0.23962
 H714 H -0.20473 0.95894 0.24323
 Zn715 Zn -0.13543 0.99980 0.24817
 N716 N -0.15355 0.97656 0.24022
 C717 C -0.12135 0.97250 0.28474
 N718 N -0.11850 0.99211 0.27454
 C719 C -0.10487 1.00690 0.28401
 C720 C -0.09336 1.00211 0.30448
 C721 C -0.11017 0.96708 0.30516
 C722 C -0.12950 1.00855 0.20085
 C723 C -0.11873 1.01419 0.18016
 C724 C -0.08512 1.01311 0.20152
 C725 C -0.09657 1.00748 0.22190
 N726 N -0.11841 1.00566 0.22123
 H727 H -0.13269 0.96117 0.27747
 H728 H -0.10327 1.02254 0.27589
 H729 H -0.08274 1.01405 0.31210
 H730 H -0.11277 0.95155 0.31331
 H731 H -0.14684 1.00687 0.20085
 H732 H -0.12780 1.01667 0.16410
 H733 H -0.06775 1.01472 0.20218
 H734 H -0.08806 1.00482 0.23820
 C735 C -0.17731 0.93984 0.23173
 C736 C -0.17429 1.06182 0.26770
 C737 C -0.09637 1.01669 0.18054
 C738 C -0.09614 0.98204 0.31517
 C739 C 0.33446 0.52499 -0.22480
 H740 H 0.33271 0.51062 -0.21427
 C741 C 0.32277 0.54363 -0.21894
 H742 H 0.31184 0.54364 -0.20396
 C743 C 0.35104 0.54285 -0.25700
 H744 H 0.36234 0.54276 -0.27154
 C745 C 0.33975 0.56171 -0.25176
 H746 H 0.34220 0.57589 -0.26250
 N747 N 0.34799 0.52484 -0.24383
 C748 C 0.35630 0.45755 -0.26870
 H749 H 0.37352 0.45774 -0.27177
 C750 C 0.34510 0.43961 -0.27275
 H751 H 0.35325 0.42522 -0.27913
 C752 C 0.32487 0.47720 -0.25654
 H753 H 0.31715 0.49167 -0.24998
 C754 C 0.31185 0.45768 -0.26062
 H755 H 0.29475 0.45802 -0.25662
 Zn756 Zn 0.36392 0.49971 -0.25175
 N757 N 0.34568 0.47654 -0.25963
 C758 C 0.37789 0.47239 -0.21517
 N759 N 0.38078 0.49200 -0.22534
 C760 C 0.39444 0.50675 -0.21586
 C761 C 0.40596 0.50192 -0.19541
 C762 C 0.38907 0.46692 -0.19477
 C763 C 0.36999 0.50816 -0.29912
 C764 C 0.38082 0.51372 -0.31980
 C765 C 0.41436 0.51270 -0.29832
 C766 C 0.40286 0.50715 -0.27796
 N767 N 0.38102 0.50536 -0.27868
 H768 H 0.36654 0.46109 -0.22247
 H769 H 0.39609 0.52240 -0.22398
 H770 H 0.41662 0.51382 -0.18779
 H771 H 0.38645 0.45139 -0.18664
 H772 H 0.35264 0.50651 -0.29918
 H773 H 0.37186 0.51617 -0.33592
 H774 H 0.43171 0.51434 -0.29767
 H775 H 0.41133 0.50458 -0.26161
 C776 C 0.32169 0.43953 -0.26795
 C777 C 0.32541 0.56209 -0.23269
 C778 C 0.40316 0.51622 -0.31934
 C779 C 0.40315 0.48184 -0.18475
 C780 C 0.66746 -0.02595 -0.22738
 H781 H 0.66899 -0.01151 -0.21672
 C782 C 0.67866 -0.04373 -0.22190
 H783 H 0.68934 -0.04367 -0.20684
 C784 C 0.65059 -0.04329 -0.26017
 H785 H 0.63936 -0.04339 -0.27461
 C786 C 0.66259 -0.06312 -0.25485
 H787 H 0.66027 -0.07726 -0.26589
 N788 N 0.65329 -0.02596 -0.24743
 C789 C 0.64498 0.04031 -0.27052
 H790 H 0.62772 0.04016 -0.27306
 C791 C 0.65656 0.05912 -0.27458
 H792 H 0.64818 0.07352 -0.28027
 C793 C 0.67681 0.02190 -0.25911
 H794 H 0.68458 0.00739 -0.25299
 C795 C 0.68905 0.04042 -0.26291
 H796 H 0.70621 0.04017 -0.25949
 Zn797 Zn 0.63709 -0.00098 -0.25469
 N798 N 0.65510 0.02240 -0.26232
 C799 C 0.62284 0.02599 -0.21730
 N800 N 0.62018 0.00641 -0.22788
 C801 C 0.60661 -0.00852 -0.21862
 C802 C 0.59490 -0.00390 -0.19803
 C803 C 0.61146 0.03125 -0.19674
 C804 C 0.63083 -0.00943 -0.30216
 C805 C 0.61982 -0.01468 -0.32276
 C806 C 0.58639 -0.01333 -0.30065
 C807 C 0.59807 -0.00810 -0.28037
 N808 N 0.61992 -0.00659 -0.28146
 H809 H 0.63412 0.03744 -0.22444
 H810 H 0.60514 -0.02413 -0.22707
 H811 H 0.58427 -0.01593 -0.19063
 H812 H 0.61386 0.04677 -0.18833
 H813 H 0.64819 -0.00796 -0.30251
 H814 H 0.62867 -0.01711 -0.33911
 H815 H 0.56902 -0.01467 -0.29971
 H816 H 0.58969 -0.00546 -0.26384
 C817 C 0.67872 0.05929 -0.27033
 C818 C 0.67612 -0.06336 -0.23655
 C819 C 0.59744 -0.01683 -0.32195
 C820 C 0.59743 0.01616 -0.18699
 C821 C 0.03001 0.26484 0.83930
 H822 H 0.01989 0.27905 0.83855
 C823 C 0.04891 0.26369 0.82574
 H824 H 0.05333 0.27704 0.81450
 C825 C 0.03700 0.23031 0.85527
 H826 H 0.03258 0.21748 0.86711
 C827 C 0.05601 0.22852 0.84203
 H828 H 0.06601 0.21426 0.84361
 N829 N 0.02433 0.24821 0.85358
 C830 C -0.04545 0.25352 0.86401
 H831 H -0.04620 0.25293 0.88309
 C832 C -0.06445 0.25487 0.85099
 H833 H -0.07987 0.25533 0.86005
 C834 C -0.02449 0.25340 0.82888
 H835 H -0.00893 0.25255 0.82031
 C836 C -0.04313 0.25474 0.81517
 H837 H -0.04184 0.25506 0.79609
 Zn838 Zn -0.00112 0.25108 0.87231
 N839 N -0.02596 0.25306 0.85288
 C840 C -0.01300 0.29286 0.88882
 N841 N 0.00163 0.27658 0.89097
 C842 C 0.01896 0.27864 0.90544
 C843 C 0.02189 0.29751 0.91871
 C844 C -0.01068 0.31195 0.90175
 C845 C -0.00856 0.20735 0.88027
 C846 C -0.01105 0.18834 0.89306
 C847 C -0.00606 0.20869 0.92909
 C848 C -0.00366 0.22738 0.91560
 N849 N -0.00463 0.22632 0.89160
 H850 H -0.02635 0.29126 0.87683
 H851 H 0.03059 0.26565 0.90653
 H852 H 0.03574 0.29901 0.93014
 H853 H -0.02239 0.32481 0.89982
 H854 H -0.00952 0.20699 0.86121
 H855 H -0.01387 0.17329 0.88382
 H856 H -0.00499 0.20961 0.94815
 H857 H -0.00095 0.24263 0.92434
 C858 C -0.06330 0.25556 0.82634
 C859 C 0.06203 0.24535 0.82712
 C860 C -0.00966 0.18896 0.91769
 C861 C 0.00692 0.31433 0.91684
 C862 C 0.47069 0.26367 0.16048
 H863 H 0.48065 0.27792 0.16111
 C864 C 0.45192 0.26263 0.17423
 H865 H 0.44743 0.27610 0.18551
 C866 C 0.46405 0.22889 0.14466
 H867 H 0.46857 0.21590 0.13284
 C868 C 0.44517 0.22720 0.15811
 H869 H 0.43536 0.21287 0.15669
 N870 N 0.47650 0.24686 0.14620
 C871 C 0.54629 0.25238 0.13583
 H872 H 0.54715 0.25167 0.11676
 C873 C 0.56521 0.25397 0.14899
 H874 H 0.58066 0.25451 0.14003
 C875 C 0.52517 0.25230 0.17084
 H876 H 0.50959 0.25137 0.17933
 C877 C 0.54372 0.25389 0.18468
 H878 H 0.54231 0.25431 0.20374
 Zn879 Zn 0.50190 0.24958 0.12739
 N880 N 0.52675 0.25183 0.14684
 C881 C 0.51328 0.29120 0.11064
 N882 N 0.49878 0.27488 0.10874
 C883 C 0.48132 0.27669 0.09443
 C884 C 0.47813 0.29529 0.08100
 C885 C 0.51070 0.31004 0.09754
 C886 C 0.50964 0.20568 0.11902
 C887 C 0.51219 0.18662 0.10599
 C888 C 0.50710 0.20695 0.07022
 C889 C 0.50464 0.22567 0.08393
 N890 N 0.50562 0.22466 0.10792
 H891 H 0.52675 0.28981 0.12251
 H892 H 0.46980 0.26368 0.09352
 H893 H 0.46420 0.29657 0.06967
 H894 H 0.52232 0.32292 0.09924
 H895 H 0.51061 0.20534 0.13807
 H896 H 0.51506 0.17157 0.11504
 H897 H 0.50602 0.20785 0.05117
 H898 H 0.50187 0.24092 0.07537
 C899 C 0.56393 0.25481 0.17365
 C900 C 0.43904 0.24421 0.17305
 C901 C 0.51077 0.18721 0.08136
 C902 C 0.49299 0.31214 0.08257
 C903 C -0.02960 0.76476 0.66142
 H904 H -0.01956 0.77896 0.66200
 C905 C -0.04754 0.76384 0.67464
 H906 H -0.05198 0.77731 0.68594
 C907 C -0.03552 0.72978 0.64492
 H908 H -0.03114 0.71678 0.63307
 C909 C -0.05543 0.72806 0.65921
 H910 H -0.06519 0.71367 0.65775
 N911 N -0.02354 0.74695 0.64632
 C912 C 0.04621 0.75245 0.63574
 H913 H 0.04704 0.75170 0.61667
 C914 C 0.06514 0.75407 0.64887
 H915 H 0.08058 0.75459 0.63989
 C916 C 0.02512 0.75246 0.67077
 H917 H 0.00954 0.75156 0.67928
 C918 C 0.04368 0.75408 0.68458
 H919 H 0.04229 0.75456 0.70365
 Zn920 Zn 0.00179 0.74966 0.62739
 N921 N 0.02667 0.75192 0.64677
 C922 C 0.01313 0.79129 0.61065
 N923 N -0.00138 0.77498 0.60878
 C924 C -0.01888 0.77681 0.59452
 C925 C -0.02209 0.79544 0.58113
 C926 C 0.01052 0.81015 0.59759
 C927 C 0.00960 0.70577 0.61897
 C928 C 0.01212 0.68672 0.60593
 C929 C 0.00682 0.70703 0.57019
 C930 C 0.00440 0.72574 0.58391
 N931 N 0.00549 0.72474 0.60790
 H932 H 0.02663 0.78988 0.62247
 H933 H -0.03040 0.76381 0.59363
 H934 H -0.03606 0.79674 0.56984
 H935 H 0.02216 0.82302 0.59927
 H936 H 0.01066 0.70543 0.63802
 H937 H 0.01507 0.67167 0.61497
 H938 H 0.00565 0.70792 0.55115
 H939 H 0.00155 0.74099 0.57537
 C940 C 0.06388 0.75497 0.67353
 C941 C -0.06124 0.74441 0.67351
 C942 C 0.01059 0.68730 0.58131
 C943 C -0.00723 0.81227 0.58268
 C944 C 0.53008 0.76427 0.33780
 H945 H 0.51995 0.77848 0.33703
 C946 C 0.54898 0.76312 0.32425
 H947 H 0.55341 0.77645 0.31300
 C948 C 0.53706 0.72976 0.35383
 H949 H 0.53264 0.71695 0.36568
 C950 C 0.55608 0.72797 0.34060
 H951 H 0.56609 0.71371 0.34221
 N952 N 0.52439 0.74766 0.35210
 C953 C 0.45461 0.75299 0.36266
 H954 H 0.45391 0.75235 0.38173
 C955 C 0.43559 0.75441 0.34968
 H956 H 0.42019 0.75487 0.35878
 C957 C 0.47550 0.75294 0.32747
 H958 H 0.49105 0.75210 0.31886
 C959 C 0.45683 0.75435 0.31381
 H960 H 0.45809 0.75473 0.29474
 Zn961 Zn 0.49896 0.75055 0.37086
 N962 N 0.47408 0.75253 0.35148
 C963 C 0.48708 0.79236 0.38730
 N964 N 0.50172 0.77608 0.38949
 C965 C 0.51905 0.77817 0.40394
 C966 C 0.52198 0.79706 0.41718
 C967 C 0.48940 0.81146 0.40020
 C968 C 0.49152 0.70683 0.37890
 C969 C 0.48905 0.68783 0.39171
 C970 C 0.49409 0.70822 0.42770
 C971 C 0.49647 0.72689 0.41419
 N972 N 0.49546 0.72581 0.39019
 H973 H 0.47373 0.79074 0.37532
 H974 H 0.53069 0.76519 0.40506
 H975 H 0.53583 0.79859 0.42860
 H976 H 0.47769 0.82431 0.39825
 H977 H 0.49053 0.70644 0.35984
 H978 H 0.48622 0.67277 0.38249
 H979 H 0.49519 0.70916 0.44676
 H980 H 0.49919 0.74216 0.42290
 C981 C 0.43669 0.75517 0.32503
 C982 C 0.56211 0.74478 0.32567
 C983 C 0.49048 0.68848 0.41634
 C984 C 0.50700 0.81387 0.41528
 B985 B -0.01402 0.01298 1.01519
 B986 B -0.02574 0.00762 0.98944
 B987 B -0.00594 0.02564 0.99088
 B988 B 0.01243 0.01733 1.01069
 B989 B 0.00346 -0.00677 1.02143
 B990 B -0.02057 -0.01259 1.00825
 B991 B 0.01038 -0.01136 0.97410
 B992 B 0.02208 -0.00599 0.99983
 B993 B 0.00229 -0.02401 0.99841
 B994 B -0.01607 -0.01571 0.97858
 B995 B -0.00710 0.00840 0.96783
 B996 B 0.01691 0.01423 0.98103
 B997 B 0.48629 0.51267 0.51429
 B998 B 0.47460 0.50724 0.48854
 B999 B 0.49437 0.52530 0.48997
 B1000 B 0.51274 0.51705 0.50981
 B1001 B 0.50380 0.49296 0.52060
 B1002 B 0.47979 0.48707 0.50741
 B1003 B 0.51077 0.48829 0.47329
 B1004 B 0.52244 0.49373 0.49901
 B1005 B 0.50268 0.47567 0.49762
 B1006 B 0.48431 0.48390 0.47775
 B1007 B 0.49326 0.50801 0.46695
 B1008 B 0.51725 0.51390 0.48016
 B1009 B 0.51350 0.99063 0.51315
 B1010 B 0.52569 0.99602 0.48759
 B1011 B 0.50578 0.97810 0.48856
 B1012 B 0.48711 0.98643 0.50838
 B1013 B 0.49601 1.01044 0.51965
 B1014 B 0.52029 1.01619 0.50674
 B1015 B 0.48993 1.01524 0.47235
 B1016 B 0.47776 1.00983 0.49789
 B1017 B 0.49766 1.02776 0.49695
 B1018 B 0.51632 1.01944 0.47710
 B1019 B 0.50742 0.99542 0.46583
 B1020 B 0.48316 0.98966 0.47875
 B1021 B 0.01338 0.49109 1.01476
 B1022 B 0.02563 0.49643 0.98923
 B1023 B 0.00576 0.47848 0.99018
 B1024 B -0.01299 0.48682 1.00991
 B1025 B -0.00417 0.51088 1.02113
 B1026 B 0.02014 0.51664 1.00829
 B1027 B -0.01012 0.51554 0.97379
 B1028 B -0.02236 0.51018 0.99930
 B1029 B -0.00249 0.52814 0.99838
 B1030 B 0.01626 0.51980 0.97862
 B1031 B 0.00743 0.49573 0.96740
 B1032 B -0.01685 0.48996 0.98025
 B1033 B 0.01362 0.51114 0.48071
 B1034 B 0.02631 0.50598 0.50590
 B1035 B 0.00656 0.52427 0.50534
 B1036 B -0.01262 0.51594 0.48643
 B1037 B -0.00419 0.49155 0.47535
 B1038 B 0.02030 0.48558 0.48743
 B1039 B -0.00926 0.48774 0.52298
 B1040 B -0.02195 0.49290 0.49781
 B1041 B -0.00219 0.47463 0.49837
 B1042 B 0.01697 0.48295 0.51728
 B1043 B 0.00853 0.50733 0.52837
 B1044 B -0.01595 0.51331 0.51628
 B1045 B 0.51379 0.01130 -0.01972
 B1046 B 0.52636 0.00597 0.00549
 B1047 B 0.50670 0.02435 0.00496
 B1048 B 0.48755 0.01619 -0.01407
 B1049 B 0.49590 -0.00818 -0.02525
 B1050 B 0.52032 -0.01432 -0.01311
 B1051 B 0.49065 -0.01219 0.02234
 B1052 B 0.47807 -0.00685 -0.00285
 B1053 B 0.49774 -0.02521 -0.00231
 B1054 B 0.51688 -0.01707 0.01672
 B1055 B 0.50853 0.00730 0.02790
 B1056 B 0.48411 0.01344 0.01575
 B1057 B 0.48454 0.48707 -0.01755
 B1058 B 0.47221 0.49260 0.00800
 B1059 B 0.49206 0.47441 0.00695
 B1060 B 0.51089 0.48252 -0.01262
 B1061 B 0.50215 0.50667 -0.02359
 B1062 B 0.47781 0.51271 -0.01079
 B1063 B 0.50793 0.51135 0.02383
 B1064 B 0.52025 0.50580 -0.00169
 B1065 B 0.50041 0.52397 -0.00064
 B1066 B 0.48159 0.51589 0.01893
 B1067 B 0.49034 0.49175 0.02992
 B1068 B 0.51466 0.48570 0.01711
 B1069 B -0.01564 0.98738 0.48292
 B1070 B -0.02809 0.99287 0.50841
 B1071 B -0.00822 0.97471 0.50744
 B1072 B 0.01069 0.98285 0.48798
 B1073 B 0.00198 1.00700 0.47699
 B1074 B -0.02242 1.01301 0.48966
 B1075 B 0.00754 1.01165 0.52444
 B1076 B 0.01998 1.00613 0.49898
 B1077 B 0.00011 1.02428 0.49994
 B1078 B -0.01879 1.01616 0.51940
 B1079 B -0.01006 0.99203 0.53042
 B1080 B 0.01432 0.98601 0.51773
 B1081 B 0.76173 0.23499 0.23632
 B1082 B 0.75635 0.22344 0.26214
 B1083 B 0.77442 0.24318 0.26056
 B1084 B 0.76615 0.26146 0.24064
 B1085 B 0.74203 0.25249 0.22995
 B1086 B 0.73615 0.22856 0.24329
 B1087 B 0.73747 0.25971 0.27723
 B1088 B 0.74287 0.27124 0.25143
 B1089 B 0.72480 0.25151 0.25297
 B1090 B 0.73305 0.23324 0.27293
 B1091 B 0.75719 0.24221 0.28363
 B1092 B 0.76308 0.26613 0.27027
 B1093 B 0.74060 0.76353 0.73600
 B1094 B 0.74600 0.77611 0.76134
 B1095 B 0.72821 0.75608 0.76076
 B1096 B 0.73659 0.73719 0.74120
 B1097 B 0.76050 0.74608 0.72970
 B1098 B 0.76614 0.77057 0.74219
 B1099 B 0.76550 0.74068 0.77707
 B1100 B 0.76008 0.72812 0.75176
 B1101 B 0.77789 0.74815 0.75230
 B1102 B 0.76952 0.76704 0.77189
 B1103 B 0.74559 0.75813 0.78340
 B1104 B 0.73995 0.73367 0.77089
 B1105 B 0.26227 0.26443 0.76955
 B1106 B 0.25697 0.27691 0.74428
 B1107 B 0.27521 0.25711 0.74489
 B1108 B 0.26695 0.23812 0.76405
 B1109 B 0.24267 0.24671 0.77523
 B1110 B 0.23668 0.27112 0.76296
 B1111 B 0.23851 0.24124 0.72769
 B1112 B 0.24382 0.22876 0.75294
 B1113 B 0.22560 0.24856 0.75233
 B1114 B 0.23384 0.26754 0.73316
 B1115 B 0.25812 0.25894 0.72197
 B1116 B 0.26411 0.23455 0.73425
 B1117 B 0.23753 0.73532 0.26697
 B1118 B 0.24290 0.72283 0.24147
 B1119 B 0.22474 0.74269 0.24251
 B1120 B 0.23297 0.76164 0.26189
 B1121 B 0.25717 0.75296 0.27276
 B1122 B 0.26313 0.72854 0.26009
 B1123 B 0.26158 0.75844 0.22528
 B1124 B 0.25619 0.77093 0.25074
 B1125 B 0.27434 0.75107 0.24971
 B1126 B 0.26613 0.73213 0.23033
 B1127 B 0.24194 0.74082 0.21943
 B1128 B 0.23597 0.76523 0.23212
 B1129 B 0.26181 0.73572 0.73555
 B1130 B 0.25647 0.72400 0.76130
 B1131 B 0.27455 0.74374 0.75983
 B1132 B 0.26626 0.76215 0.74007
 B1133 B 0.24211 0.75327 0.72936
 B1134 B 0.23623 0.72925 0.74254
 B1135 B 0.23764 0.76018 0.77671
 B1136 B 0.24300 0.77188 0.75099
 B1137 B 0.22491 0.75215 0.75242
 B1138 B 0.23319 0.73374 0.77222
 B1139 B 0.25735 0.74263 0.78293
 B1140 B 0.26324 0.76662 0.76974
 B1141 B 0.23959 0.26272 0.23613
 B1142 B 0.24506 0.27513 0.26154
 B1143 B 0.22727 0.25510 0.26087
 B1144 B 0.23559 0.23634 0.24114
 B1145 B 0.25947 0.24531 0.22962
 B1146 B 0.26514 0.26972 0.24229
 B1147 B 0.26461 0.23960 0.27694
 B1148 B 0.25912 0.22721 0.25153
 B1149 B 0.27692 0.24723 0.25218
 B1150 B 0.26861 0.26599 0.27195
 B1151 B 0.24471 0.25701 0.28346
 B1152 B 0.23903 0.23262 0.27078
 B1153 B 0.76243 0.76384 0.26841
 B1154 B 0.75715 0.77630 0.24312
 B1155 B 0.77541 0.75654 0.24378
 B1156 B 0.76715 0.73754 0.26294
 B1157 B 0.74283 0.74611 0.27407
 B1158 B 0.73684 0.77050 0.26177
 B1159 B 0.73875 0.74061 0.22653
 B1160 B 0.74404 0.72814 0.25179
 B1161 B 0.72580 0.74793 0.25114
 B1162 B 0.73404 0.76690 0.23198
 B1163 B 0.75834 0.75833 0.22083
 B1164 B 0.76435 0.73395 0.23313
 B1165 B 0.73787 0.23439 0.76745
 B1166 B 0.74336 0.22196 0.74195
 B1167 B 0.72511 0.24175 0.74296
 B1168 B 0.73321 0.26070 0.76241
 B1169 B 0.75741 0.25210 0.77335
 B1170 B 0.76351 0.22772 0.76065
 B1171 B 0.76193 0.25768 0.72589
 B1172 B 0.75642 0.27010 0.75137
 B1173 B 0.77465 0.25032 0.75035
 B1174 B 0.76658 0.23137 0.73090
 B1175 B 0.74238 0.23998 0.71995
 B1176 B 0.73628 0.26435 0.73266
 C1177 C 0.40907 1.02563 0.33472
 C1178 C 0.41909 1.03060 0.35205
 C1179 C 0.43113 1.03513 0.37308
 C1180 C 0.42070 1.03511 0.39509
 C1181 C 0.43278 1.03576 0.41582
 C1182 C 0.45531 1.03647 0.41459
 C1183 C 0.46567 1.03758 0.39260
 C1184 C 0.45359 1.03693 0.37187
 C1185 C 0.46771 1.03206 0.43533
 C1186 C 0.47782 1.02614 0.45215
 H1187 H 0.40335 1.03349 0.39622
 H1188 H 0.42464 1.03448 0.43273
 H1189 H 0.48310 1.03773 0.39146
 H1190 H 0.46181 1.03673 0.35494
 C1191 C -0.09018 0.52551 0.83550
 C1192 C -0.08025 0.53049 0.85289
 C1193 C -0.06835 0.53505 0.87401
 C1194 C -0.07892 0.53508 0.89593
 C1195 C -0.06698 0.53579 0.91677
 C1196 C -0.04445 0.53652 0.91572
 C1197 C -0.03394 0.53758 0.89380
 C1198 C -0.04588 0.53687 0.87297
 C1199 C -0.03218 0.53220 0.93657
 C1200 C -0.02216 0.52635 0.95349
 H1201 H -0.09628 0.53345 0.89693
 H1202 H -0.07524 0.53455 0.93361
 H1203 H -0.01651 0.53774 0.89280
 H1204 H -0.03754 0.53664 0.85611
 C1205 C 0.09030 -0.02361 0.83407
 C1206 C 0.08043 -0.02776 0.85182
 C1207 C 0.06866 -0.03156 0.87330
 C1208 C 0.04621 -0.03362 0.87275
 C1209 C 0.03441 -0.03400 0.89384
 C1210 C 0.04504 -0.03236 0.91552
 C1211 C 0.06757 -0.03130 0.91608
 C1212 C 0.07937 -0.03093 0.89499
 C1213 C 0.03284 -0.02796 0.93662
 C1214 C 0.02275 -0.02212 0.95370
 H1215 H 0.03776 -0.03393 0.85607
 H1216 H 0.01698 -0.03442 0.89321
 H1217 H 0.07592 -0.02963 0.93274
 H1218 H 0.09671 -0.02915 0.89560
 C1219 C 0.59084 0.47595 0.33339
 C1220 C 0.58099 0.47181 0.35115
 C1221 C 0.56923 0.46802 0.37264
 C1222 C 0.54680 0.46578 0.37208
 C1223 C 0.53498 0.46542 0.39315
 C1224 C 0.54558 0.46725 0.41484
 C1225 C 0.56809 0.46848 0.41542
 C1226 C 0.57991 0.46884 0.39434
 C1227 C 0.53332 0.47166 0.43589
 C1228 C 0.52318 0.47751 0.45293
 H1229 H 0.53837 0.46532 0.35538
 H1230 H 0.51755 0.46485 0.39250
 H1231 H 0.57641 0.47031 0.43208
 H1232 H 0.59724 0.47076 0.39496
 C1233 C 0.58930 0.52657 0.16131
 C1234 C 0.57894 0.53080 0.14403
 C1235 C 0.56658 0.53433 0.12302
 C1236 C 0.54405 0.53518 0.12436
 C1237 C 0.53186 0.53483 0.10370
 C1238 C 0.54217 0.53364 0.08166
 C1239 C 0.56470 0.53384 0.08029
 C1240 C 0.57690 0.53420 0.10095
 C1241 C 0.52987 0.52854 0.06100
 C1242 C 0.51989 0.52228 0.04419
 H1243 H 0.53592 0.53504 0.14134
 H1244 H 0.51444 0.53431 0.10495
 H1245 H 0.57282 0.53255 0.06335
 H1246 H 0.59430 0.53329 0.09974
 C1247 C 0.08887 1.02680 0.66201
 C1248 C 0.07848 1.03099 0.64473
 C1249 C 0.06610 1.03450 0.62374
 C1250 C 0.04357 1.03525 0.62510
 C1251 C 0.03136 1.03491 0.60444
 C1252 C 0.04166 1.03386 0.58239
 C1253 C 0.06420 1.03415 0.58101
 C1254 C 0.07640 1.03449 0.60167
 C1255 C 0.02938 1.02880 0.56172
 C1256 C 0.01942 1.02256 0.54487
 H1257 H 0.03545 1.03501 0.64208
 H1258 H 0.01395 1.03431 0.60570
 H1259 H 0.07231 1.03297 0.56406
 H1260 H 0.09381 1.03367 0.60043
 C1261 C -0.08852 0.47452 0.66372
 C1262 C -0.07843 0.47074 0.64593
 C1263 C -0.06643 0.46739 0.62444
 C1264 C -0.07713 0.46726 0.60274
 C1265 C -0.06531 0.46720 0.58166
 C1266 C -0.04275 0.46721 0.58224
 C1267 C -0.03206 0.46639 0.60393
 C1268 C -0.04389 0.46645 0.62501
 C1269 C -0.03077 0.47163 0.56109
 C1270 C -0.02099 0.47735 0.54385
 H1271 H -0.09456 0.46817 0.60211
 H1272 H -0.07371 0.46821 0.56499
 H1273 H -0.01463 0.46677 0.60458
 H1274 H -0.03546 0.46673 0.64170
 C1275 C 0.41048 -0.02624 0.16236
 C1276 C 0.42066 -0.02993 0.14462
 C1277 C 0.43281 -0.03316 0.12321
 C1278 C 0.42226 -0.03312 0.10141
 C1279 C 0.43423 -0.03302 0.08043
 C1280 C 0.45679 -0.03302 0.08121
 C1281 C 0.46732 -0.03401 0.10298
 C1282 C 0.45534 -0.03410 0.12396
 C1283 C 0.46892 -0.02846 0.06020
 C1284 C 0.47880 -0.02265 0.04308
 H1285 H 0.40484 -0.03219 0.10065
 H1286 H 0.42595 -0.03189 0.06370
 H1287 H 0.48475 -0.03364 0.10378
 H1288 H 0.46365 -0.03395 0.14072
 C1289 C 0.32849 0.43919 0.02332
 C1290 C 0.34575 0.44795 0.02378
 C1291 C 0.36678 0.45746 0.02333
 C1292 C 0.38337 0.44854 0.03685
 C1293 C 0.40435 0.45636 0.03467
 C1294 C 0.40879 0.47310 0.01894
 C1295 C 0.39215 0.48229 0.00574
 C1296 C 0.37116 0.47447 0.00793
 C1297 C 0.43056 0.48016 0.01556
 C1298 C 0.44886 0.48579 0.01241
 H1299 H 0.38017 0.43523 0.04863
 H1300 H 0.41716 0.44908 0.04485
 H1301 H 0.39548 0.49517 -0.00656
 H1302 H 0.35848 0.48131 -0.00278
 C1303 C -0.17173 0.93900 0.52235
 C1304 C -0.15452 0.94783 0.52297
 C1305 C -0.13352 0.95743 0.52274
 C1306 C -0.11704 0.94862 0.53650
 C1307 C -0.09607 0.95652 0.53454
 C1308 C -0.09154 0.97324 0.51881
 C1309 C -0.10808 0.98232 0.50537
 C1310 C -0.12906 0.97441 0.50733
 C1311 C -0.06976 0.98036 0.51565
 C1312 C -0.05146 0.98603 0.51265
 H1313 H -0.12030 0.93533 0.54828
 H1314 H -0.08333 0.94933 0.54490
 H1315 H -0.10468 0.99517 0.49307
 H1316 H -0.14166 0.98117 0.49644
 C1317 C -0.16842 0.06419 0.97851
 C1318 C -0.15138 0.05512 0.97587
 C1319 C -0.13051 0.04512 0.97444
 C1320 C -0.12705 0.02503 0.98494
 C1321 C -0.10618 0.01664 0.98651
 C1322 C -0.08872 0.02834 0.97761
 C1323 C -0.09223 0.04815 0.96654
 C1324 C -0.11310 0.05653 0.96497
 C1325 C -0.06712 0.02072 0.98117
 C1326 C -0.04897 0.01472 0.98462
 H1327 H -0.14037 0.01622 0.99260
 H1328 H -0.10359 0.00137 0.99523
 H1329 H -0.07879 0.05737 0.95975
 H1330 H -0.11557 0.07221 0.95711
 C1331 C 0.33200 0.56393 0.47720
 C1332 C 0.34903 0.55484 0.47464
 C1333 C 0.36989 0.54479 0.47331
 C1334 C 0.37331 0.52477 0.48397
 C1335 C 0.39416 0.51635 0.48559
 C1336 C 0.41165 0.52795 0.47660
 C1337 C 0.40818 0.54769 0.46538
 C1338 C 0.38732 0.55611 0.46375
 C1339 C 0.43322 0.52031 0.48020
 C1340 C 0.45137 0.51431 0.48369
 H1341 H 0.35997 0.51604 0.49170
 H1342 H 0.39672 0.50113 0.49443
 H1343 H 0.42163 0.55684 0.45851
 H1344 H 0.38489 0.57174 0.45576
 C1345 C 0.17019 0.55963 0.51759
 C1346 C 0.15306 0.55062 0.51792
 C1347 C 0.13215 0.54084 0.51746
 C1348 C 0.12616 0.52814 0.49808
 C1349 C 0.10515 0.52031 0.49646
 C1350 C 0.09008 0.52517 0.51423
 C1351 C 0.09616 0.53756 0.53381
 C1352 C 0.11718 0.54540 0.53542
 C1353 C 0.06819 0.51824 0.51181
 C1354 C 0.04978 0.51271 0.50944
 H1355 H 0.13757 0.52472 0.48398
 H1356 H 0.10055 0.51084 0.48118
 H1357 H 0.08456 0.54149 0.54757
 H1358 H 0.12160 0.55540 0.55036
 C1359 C 0.67048 0.05885 0.01781
 C1360 C 0.65333 0.04988 0.01804
 C1361 C 0.63239 0.04017 0.01746
 C1362 C 0.62623 0.02800 -0.00227
 C1363 C 0.60518 0.02030 -0.00396
 C1364 C 0.59024 0.02475 0.01406
 C1365 C 0.59649 0.03659 0.03398
 C1366 C 0.61754 0.04431 0.03567
 C1367 C 0.56830 0.01797 0.01158
 C1368 C 0.54987 0.01256 0.00914
 H1369 H 0.63753 0.02491 -0.01656
 H1370 H 0.60043 0.01125 -0.01950
 H1371 H 0.58499 0.04021 0.04793
 H1372 H 0.62210 0.05390 0.05087
 C1373 C 0.66757 0.93695 0.47935
 C1374 C 0.65079 0.94634 0.47646
 C1375 C 0.63018 0.95678 0.47461
 C1376 C 0.62674 0.97685 0.48548
 C1377 C 0.60601 0.98570 0.48650
 C1378 C 0.58867 0.97448 0.47668
 C1379 C 0.59220 0.95469 0.46525
 C1380 C 0.61293 0.94584 0.46423
 C1381 C 0.56712 0.98249 0.47977
 C1382 C 0.54895 0.98874 0.48293
 H1383 H 0.63993 0.98529 0.49383
 H1384 H 0.60340 1.00094 0.49552
 H1385 H 0.57885 0.94583 0.45777
 H1386 H 0.61537 0.93018 0.45606
 C1387 C 0.16763 0.43764 0.98081
 C1388 C 0.15085 0.44703 0.97798
 C1389 C 0.13023 0.45745 0.97621
 C1390 C 0.12672 0.47739 0.98734
 C1391 C 0.10597 0.48619 0.98842
 C1392 C 0.08868 0.47505 0.97840
 C1393 C 0.09227 0.45539 0.96671
 C1394 C 0.11302 0.44660 0.96563
 C1395 C 0.06710 0.48300 0.98150
 C1396 C 0.04892 0.48920 0.98465
 H1397 H 0.13987 0.48577 0.99584
 H1398 H 0.10331 0.50133 0.99764
 H1399 H 0.07896 0.44659 0.95907
 H1400 H 0.11552 0.43104 0.95725
 C1401 C -0.00697 0.33078 0.43747
 C1402 C -0.00798 0.34772 0.44805
 C1403 C -0.00897 0.36827 0.46009
 C1404 C 0.00794 0.37474 0.47477
 C1405 C 0.00782 0.39537 0.48493
 C1406 C -0.00923 0.40965 0.48052
 C1407 C -0.02640 0.40300 0.46629
 C1408 C -0.02628 0.38237 0.45613
 C1409 C -0.00798 0.43171 0.48853
 C1410 C -0.00610 0.45045 0.49393
 H1411 H 0.02146 0.36405 0.47788
 H1412 H 0.02131 0.40039 0.49567
 H1413 H -0.03955 0.41397 0.46252
 H1414 H -0.03940 0.37762 0.44472
 C1415 C 0.49311 -0.16878 -0.06393
 C1416 C 0.49203 -0.15188 -0.05328
 C1417 C 0.49096 -0.13138 -0.04114
 C1418 C 0.50769 -0.12505 -0.02615
 C1419 C 0.50752 -0.10447 -0.01589
 C1420 C 0.49060 -0.09010 -0.02050
 C1421 C 0.47360 -0.09661 -0.03504
 C1422 C 0.47376 -0.11719 -0.04531
 C1423 C 0.49185 -0.06807 -0.01239
 C1424 C 0.49376 -0.04936 -0.00689
 H1425 H 0.52113 -0.13581 -0.02288
 H1426 H 0.52089 -0.09954 -0.00492
 H1427 H 0.46055 -0.08557 -0.03897
 H1428 H 0.46078 -0.12184 -0.05695
 C1429 C 0.00636 -0.16556 1.06364
 C1430 C 0.00756 -0.14906 1.05250
 C1431 C 0.00868 -0.12902 1.03975
 C1432 C -0.00811 -0.12300 1.02468
 C1433 C -0.00792 -0.10280 1.01381
 C1434 C 0.00908 -0.08849 1.01790
 C1435 C 0.02613 -0.09470 1.03251
 C1436 C 0.02595 -0.11491 1.04338
 C1437 C 0.00785 -0.06672 1.00920
 C1438 C 0.00602 -0.04815 1.00330
 H1439 H -0.02161 -0.13370 1.02181
 H1440 H -0.02134 -0.09810 1.00280
 H1441 H 0.03924 -0.08369 1.03604
 H1442 H 0.03897 -0.11930 1.05508
 C1443 C 0.50730 0.33405 0.56277
 C1444 C 0.50842 0.35058 0.55167
 C1445 C 0.50944 0.37066 0.53897
 C1446 C 0.49266 0.37658 0.52383
 C1447 C 0.49276 0.39680 0.51300
 C1448 C 0.50965 0.41123 0.51719
 C1449 C 0.52668 0.40511 0.53188
 C1450 C 0.52659 0.38488 0.54271
 C1451 C 0.50834 0.43299 0.50848
 C1452 C 0.50645 0.45155 0.50256
 H1453 H 0.47926 0.36580 0.52087
 H1454 H 0.47936 0.40142 0.50192
 H1455 H 0.53971 0.41620 0.53549
 H1456 H 0.53960 0.38056 0.55446
 C1457 C 0.49360 1.17003 0.56276
 C1458 C 0.49258 1.15334 0.55172
 C1459 C 0.49158 1.13311 0.53904
 C1460 C 0.50854 1.12680 0.52404
 C1461 C 0.50835 1.10648 0.51315
 C1462 C 0.49117 1.09235 0.51713
 C1463 C 0.47396 1.09885 0.53170
 C1464 C 0.47415 1.11917 0.54260
 C1465 C 0.49228 1.07052 0.50829
 C1466 C 0.49402 1.05191 0.50220
 H1467 H 0.52215 1.13737 0.52122
 H1468 H 0.52187 1.10157 0.50216
 H1469 H 0.46071 1.08799 0.53515
 H1470 H 0.46099 1.12380 0.55423
 C1471 C -0.00706 0.67048 1.06390
 C1472 C -0.00801 0.65378 1.05287
 C1473 C -0.00893 0.63354 1.04020
 C1474 C 0.00812 0.62723 1.02533
 C1475 C 0.00801 0.60690 1.01446
 C1476 C -0.00918 0.59276 1.01835
 C1477 C -0.02648 0.59926 1.03279
 C1478 C -0.02636 0.61959 1.04366
 C1479 C -0.00799 0.57091 1.00956
 C1480 C -0.00619 0.55230 1.00353
 H1481 H 0.02174 0.63780 1.02259
 H1482 H 0.02160 0.60198 1.00358
 H1483 H -0.03974 0.58839 1.03617
 H1484 H -0.03960 0.62422 1.05520
 C1485 C 0.50632 0.66650 -0.06301
 C1486 C 0.50725 0.64985 -0.05213
 C1487 C 0.50804 0.62959 -0.03979
 C1488 C 0.52528 0.61529 -0.04366
 C1489 C 0.52513 0.59485 -0.03333
 C1490 C 0.50776 0.58860 -0.01905
 C1491 C 0.49079 0.60310 -0.01471
 C1492 C 0.49094 0.62354 -0.02503
 C1493 C 0.50625 0.56670 -0.01089
 C1494 C 0.50424 0.54807 -0.00534
 H1495 H 0.53854 0.61972 -0.05514
 H1496 H 0.53822 0.58371 -0.03704
 H1497 H 0.47715 0.59838 -0.00393
 H1498 H 0.47746 0.63438 -0.02201
 C1499 C 0.00582 1.16687 0.43767
 C1500 C 0.00678 1.15022 0.44856
 C1501 C 0.00760 1.12996 0.46089
 C1502 C 0.02487 1.11569 0.45703
 C1503 C 0.02475 1.09524 0.46734
 C1504 C 0.00738 1.08895 0.48161
 C1505 C -0.00962 1.10342 0.48594
 C1506 C -0.00950 1.12386 0.47563
 C1507 C 0.00592 1.06704 0.48975
 C1508 C 0.00394 1.04840 0.49528
 H1509 H 0.03812 1.12015 0.44556
 H1510 H 0.03787 1.08413 0.46364
 H1511 H -0.02325 1.09866 0.49671
 H1512 H -0.02300 1.13467 0.47865
 C1513 C 0.77635 0.66085 0.91520
 C1514 C 0.78135 0.67087 0.89789
 C1515 C 0.78589 0.68288 0.87685
 C1516 C 0.78631 0.67232 0.85491
 C1517 C 0.78690 0.68429 0.83411
 C1518 C 0.78711 0.70685 0.83520
 C1519 C 0.78781 0.71735 0.85714
 C1520 C 0.78722 0.70538 0.87794
 C1521 C 0.78258 0.71902 0.81434
 C1522 C 0.77655 0.72891 0.79741
 H1523 H 0.78506 0.65494 0.85388
 H1524 H 0.78595 0.67603 0.81724
 H1525 H 0.78756 0.73479 0.85817
 H1526 H 0.78667 0.71370 0.89481
 C1527 C 0.27616 0.16021 0.41530
 C1528 C 0.28109 0.17015 0.39792
 C1529 C 0.28552 0.18204 0.37677
 C1530 C 0.28570 0.17137 0.35489
 C1531 C 0.28617 0.18324 0.33401
 C1532 C 0.28649 0.20579 0.33496
 C1533 C 0.28743 0.21640 0.35683
 C1534 C 0.28696 0.20454 0.37771
 C1535 C 0.28184 0.21789 0.31408
 C1536 C 0.27573 0.22776 0.29717
 H1537 H 0.28436 0.15399 0.35397
 H1538 H 0.28502 0.17490 0.31720
 H1539 H 0.28728 0.23385 0.35776
 H1540 H 0.28660 0.21294 0.39453
 C1541 C 0.72541 0.34000 0.41712
 C1542 C 0.72128 0.33011 0.39938
 C1543 C 0.71748 0.31830 0.37791
 C1544 C 0.71816 0.32898 0.35620
 C1545 C 0.71776 0.31715 0.33512
 C1546 C 0.71663 0.29463 0.33571
 C1547 C 0.71494 0.28403 0.35740
 C1548 C 0.71535 0.29586 0.37848
 C1549 C 0.72097 0.28237 0.31463
 C1550 C 0.72676 0.27221 0.29757
 H1551 H 0.72000 0.34632 0.35557
 H1552 H 0.71947 0.32547 0.31845
 H1553 H 0.71445 0.26660 0.35805
 H1554 H 0.71500 0.28744 0.39517
 C1555 C 0.22548 0.84071 0.91649
 C1556 C 0.22138 0.83078 0.89875
 C1557 C 0.21763 0.81893 0.87731
 C1558 C 0.21839 0.82953 0.85556
 C1559 C 0.21802 0.81764 0.83453
 C1560 C 0.21684 0.79512 0.83520
 C1561 C 0.21508 0.78460 0.85693
 C1562 C 0.21546 0.79649 0.87796
 C1563 C 0.22119 0.78280 0.81417
 C1564 C 0.22697 0.77261 0.79712
 H1565 H 0.22026 0.84687 0.85488
 H1566 H 0.21978 0.82590 0.81783
 H1567 H 0.21456 0.76716 0.85764
 H1568 H 0.21505 0.78812 0.89468
 C1569 C 0.27554 0.83996 0.08779
 C1570 C 0.27993 0.82952 0.10497
 C1571 C 0.28365 0.81707 0.12587
 C1572 C 0.28398 0.82733 0.14796
 C1573 C 0.28383 0.81509 0.16859
 C1574 C 0.28338 0.79256 0.16716
 C1575 C 0.28411 0.78229 0.14507
 C1576 C 0.28426 0.79454 0.12444
 C1577 C 0.27848 0.78026 0.18787
 C1578 C 0.27237 0.77031 0.20476
 H1579 H 0.28327 0.84475 0.14926
 H1580 H 0.28289 0.82318 0.18558
 H1581 H 0.28339 0.76489 0.14377
 H1582 H 0.28376 0.78645 0.10745
 C1583 C 0.77552 0.33934 0.58849
 C1584 C 0.77995 0.32892 0.60568
 C1585 C 0.78373 0.31651 0.62659
 C1586 C 0.78394 0.32676 0.64869
 C1587 C 0.78387 0.31451 0.66931
 C1588 C 0.78362 0.29197 0.66787
 C1589 C 0.78447 0.28173 0.64577
 C1590 C 0.78454 0.29398 0.62515
 C1591 C 0.77879 0.27964 0.68856
 C1592 C 0.77271 0.26963 0.70543
 H1593 H 0.78308 0.34417 0.64999
 H1594 H 0.78284 0.32259 0.68630
 H1595 H 0.78390 0.26431 0.64447
 H1596 H 0.78414 0.28589 0.60815
 C1597 C 0.22435 0.16104 0.58780
 C1598 C 0.22060 0.17118 0.60557
 C1599 C 0.21731 0.18329 0.62699
 C1600 C 0.21615 0.20582 0.62625
 C1601 C 0.21623 0.21780 0.64723
 C1602 C 0.21743 0.20728 0.66899
 C1603 C 0.21762 0.18472 0.66976
 C1604 C 0.21754 0.17274 0.64878
 C1605 C 0.22205 0.21944 0.68997
 C1606 C 0.22793 0.22936 0.70704
 H1607 H 0.21616 0.21413 0.60949
 H1608 H 0.21644 0.23523 0.64644
 H1609 H 0.21892 0.17645 0.68648
 H1610 H 0.21864 0.15533 0.64953
 C1611 C 0.72449 0.66062 0.08644
 C1612 C 0.72078 0.67073 0.10424
 C1613 C 0.71753 0.68279 0.12570
 C1614 C 0.71635 0.70532 0.12503
 C1615 C 0.71646 0.71725 0.14604
 C1616 C 0.71771 0.70668 0.16776
 C1617 C 0.71793 0.68413 0.16847
 C1618 C 0.71782 0.67220 0.14747
 C1619 C 0.72233 0.71882 0.18877
 C1620 C 0.72821 0.72872 0.20586
 H1621 H 0.71631 0.71367 0.10829
 H1622 H 0.71665 0.73469 0.14529
 H1623 H 0.71927 0.67582 0.18517
 H1624 H 0.71893 0.65478 0.14817
 C1625 C 0.18913 0.57901 0.22790
 C1626 C 0.19796 0.59623 0.22745
 C1627 C 0.20757 0.61723 0.22780
 C1628 C 0.22340 0.62213 0.24449
 C1629 C 0.23128 0.64313 0.24636
 C1630 C 0.22332 0.65927 0.23156
 C1631 C 0.20776 0.65430 0.21460
 C1632 C 0.19989 0.63330 0.21273
 C1633 C 0.23040 0.68109 0.23451
 C1634 C 0.23605 0.69943 0.23735
 H1635 H 0.22928 0.60986 0.25639
 H1636 H 0.24322 0.64687 0.25962
 H1637 H 0.20143 0.66672 0.20317
 H1638 H 0.18748 0.62972 0.19993
 C1639 C 0.68967 0.07816 0.72831
 C1640 C 0.69858 0.09534 0.72783
 C1641 C 0.70825 0.11631 0.72815
 C1642 C 0.70075 0.13233 0.71291
 C1643 C 0.70862 0.15333 0.71478
 C1644 C 0.72401 0.15835 0.73191
 C1645 C 0.73180 0.14226 0.74688
 C1646 C 0.72392 0.12126 0.74501
 C1647 C 0.73103 0.18019 0.73489
 C1648 C 0.73662 0.19854 0.73776
 H1649 H 0.68846 0.12870 0.69998
 H1650 H 0.70242 0.16571 0.70323
 H1651 H 0.74361 0.14604 0.76027
 H1652 H 0.72966 0.10904 0.75704
 C1653 C 0.81384 0.08122 0.27282
 C1654 C 0.80457 0.09814 0.27557
 C1655 C 0.79433 0.11889 0.27712
 C1656 C 0.77433 0.12223 0.26639
 C1657 C 0.76576 0.14304 0.26491
 C1658 C 0.77719 0.16054 0.27414
 C1659 C 0.79690 0.15714 0.28546
 C1660 C 0.80547 0.13634 0.28693
 C1661 C 0.76946 0.18210 0.27058
 C1662 C 0.76343 0.20023 0.26708
 H1663 H 0.76574 0.10889 0.25847
 H1664 H 0.75057 0.14555 0.25599
 H1665 H 0.80592 0.17062 0.29249
 H1666 H 0.82109 0.13396 0.29498
 C1667 C 0.31364 0.58158 0.77224
 C1668 C 0.30444 0.59855 0.77484
 C1669 C 0.29428 0.61935 0.77624
 C1670 C 0.27432 0.62273 0.76540
 C1671 C 0.26581 0.64355 0.76384
 C1672 C 0.27726 0.66105 0.77307
 C1673 C 0.29692 0.65761 0.78447
 C1674 C 0.30543 0.63679 0.78603
 C1675 C 0.26956 0.68261 0.76952
 C1676 C 0.26353 0.70076 0.76609
 H1677 H 0.26572 0.60938 0.75749
 H1678 H 0.25065 0.64608 0.75486
 H1679 H 0.30595 0.67108 0.79151
 H1680 H 0.32101 0.63439 0.79415
 C1681 C 0.31083 0.42060 0.73088
 C1682 C 0.30196 0.40339 0.73056
 C1683 C 0.29231 0.38242 0.73103
 C1684 C 0.29938 0.36641 0.71523
 C1685 C 0.29149 0.34543 0.71712
 C1686 C 0.27651 0.34044 0.73482
 C1687 C 0.26916 0.35653 0.75037
 C1688 C 0.27706 0.37750 0.74848
 C1689 C 0.26942 0.31865 0.73769
 C1690 C 0.26378 0.30032 0.74041
 H1691 H 0.31134 0.37001 0.70184
 H1692 H 0.29735 0.33305 0.70511
 H1693 H 0.25767 0.35277 0.76420
 H1694 H 0.27166 0.38974 0.76093
 C1695 C 0.81108 0.91994 0.23010
 C1696 C 0.80219 0.90276 0.22956
 C1697 C 0.79253 0.88179 0.22982
 C1698 C 0.77632 0.87714 0.24631
 C1699 C 0.76840 0.85618 0.24815
 C1700 C 0.77669 0.83982 0.23353
 C1701 C 0.79262 0.84453 0.21676
 C1702 C 0.80054 0.86550 0.21492
 C1703 C 0.76957 0.81804 0.23646
 C1704 C 0.76393 0.79971 0.23922
 H1705 H 0.77019 0.88959 0.25808
 H1706 H 0.75616 0.85263 0.26126
 H1707 H 0.79921 0.83194 0.20548
 H1708 H 0.81323 0.86889 0.20229
 C1709 C 0.68729 0.91831 0.76824
 C1710 C 0.69660 0.90149 0.77122
 C1711 C 0.70693 0.88083 0.77319
 C1712 C 0.69589 0.86369 0.78367
 C1713 C 0.70464 0.84290 0.78281
 C1714 C 0.72442 0.83921 0.77144
 C1715 C 0.73573 0.85643 0.76151
 C1716 C 0.72698 0.87722 0.76237
 C1717 C 0.73238 0.81760 0.76859
 C1718 C 0.73864 0.79940 0.76567
 H1719 H 0.68024 0.86626 0.79181
 H1720 H 0.69571 0.82965 0.79038
 H1721 H 0.75097 0.85369 0.75254
 H1722 H 0.73550 0.89032 0.75395
 C1723 C 0.18660 0.41744 0.26873
 C1724 C 0.19579 0.40055 0.27164
 C1725 C 0.20602 0.37984 0.27357
 C1726 C 0.19481 0.36266 0.28375
 C1727 C 0.20353 0.34187 0.28291
 C1728 C 0.22347 0.33820 0.27186
 C1729 C 0.23493 0.35546 0.26222
 C1730 C 0.22621 0.37625 0.26306
 C1731 C 0.23143 0.31659 0.26901
 C1732 C 0.23769 0.29840 0.26603
 H1733 H 0.17906 0.36523 0.29166
 H1734 H 0.19448 0.32859 0.29026
 H1735 H 0.25029 0.35274 0.25349
 H1736 H 0.23487 0.38938 0.25487
 C1737 C 0.08198 0.24406 0.81395
 C1738 C 0.09890 0.24303 0.80334
 C1739 C 0.11942 0.24202 0.79125
 C1740 C 0.12584 0.25890 0.77651
 C1741 C 0.14642 0.25875 0.76626
 C1742 C 0.16071 0.24170 0.77065
 C1743 C 0.15411 0.22456 0.78493
 C1744 C 0.13352 0.22471 0.79518
 C1745 C 0.18273 0.24290 0.76251
 C1746 C 0.20144 0.24474 0.75698
 H1747 H 0.11514 0.27242 0.77341
 H1748 H 0.15141 0.27221 0.75548
 H1749 H 0.16508 0.21141 0.78868
 H1750 H 0.12880 0.21162 0.80663
 C1751 C 0.58208 0.74349 0.31253
 C1752 C 0.59902 0.74245 0.30195
 C1753 C 0.61956 0.74142 0.28990
 C1754 C 0.62599 0.75827 0.27512
 C1755 C 0.64659 0.75810 0.26491
 C1756 C 0.66088 0.74106 0.26937
 C1757 C 0.65427 0.72396 0.28370
 C1758 C 0.63366 0.72413 0.29391
 C1759 C 0.68291 0.74225 0.26127
 C1760 C 0.70163 0.74409 0.25576
 H1761 H 0.61530 0.77177 0.27197
 H1762 H 0.65159 0.77154 0.25410
 H1763 H 0.66524 0.71082 0.28751
 H1764 H 0.62893 0.71106 0.30539
 C1765 C 0.58334 0.25632 0.18747
 C1766 C 0.59983 0.25742 0.19865
 C1767 C 0.61986 0.25840 0.21145
 C1768 C 0.63403 0.27565 0.20796
 C1769 C 0.65423 0.27571 0.21887
 C1770 C 0.66037 0.25855 0.23337
 C1771 C 0.64600 0.24157 0.23731
 C1772 C 0.62581 0.24151 0.22641
 C1773 C 0.68212 0.25721 0.24211
 C1774 C 0.70068 0.25530 0.24805
 H1775 H 0.62969 0.28875 0.19635
 H1776 H 0.66528 0.28880 0.21545
 H1777 H 0.65064 0.22808 0.24824
 H1778 H 0.61507 0.22803 0.22916
 C1779 C 0.08331 0.75655 0.68732
 C1780 C 0.09982 0.75771 0.69846
 C1781 C 0.11987 0.75879 0.71120
 C1782 C 0.12580 0.74207 0.72640
 C1783 C 0.14602 0.74222 0.73724
 C1784 C 0.16043 0.75911 0.73301
 C1785 C 0.15430 0.77610 0.71826
 C1786 C 0.13408 0.77595 0.70741
 C1787 C 0.18220 0.75783 0.74169
 C1788 C 0.20078 0.75595 0.74757
 H1789 H 0.11504 0.72866 0.72938
 H1790 H 0.15066 0.72886 0.74836
 H1791 H 0.16538 0.78911 0.71461
 H1792 H 0.12975 0.78892 0.69561
 C1793 C 0.92011 0.74344 0.68638
 C1794 C 0.90342 0.74262 0.69744
 C1795 C 0.88320 0.74181 0.71014
 C1796 C 0.87677 0.75912 0.72459
 C1797 C 0.85646 0.75906 0.73550
 C1798 C 0.84246 0.74167 0.73208
 C1799 C 0.84908 0.72414 0.71805
 C1800 C 0.86939 0.72420 0.70714
 C1801 C 0.82064 0.74284 0.74093
 C1802 C 0.80204 0.74458 0.74704
 H1803 H 0.88724 0.77288 0.72698
 H1804 H 0.85146 0.77283 0.74607
 H1805 H 0.83832 0.71071 0.71503
 H1806 H 0.87411 0.71076 0.69593
 C1807 C 0.41929 0.24298 0.18657
 C1808 C 0.40256 0.24203 0.19753
 C1809 C 0.38230 0.24112 0.21013
 C1810 C 0.37586 0.25829 0.22478
 C1811 C 0.35553 0.25816 0.23562
 C1812 C 0.34150 0.24084 0.23191
 C1813 C 0.34811 0.22344 0.21769
 C1814 C 0.36846 0.22357 0.20685
 C1815 C 0.31966 0.24196 0.24074
 C1816 C 0.30106 0.24368 0.24684
 H1817 H 0.38635 0.27199 0.22739
 H1818 H 0.35052 0.27182 0.24635
 H1819 H 0.33733 0.21007 0.21446
 H1820 H 0.37318 0.21024 0.19548
 C1821 C 0.41713 0.75654 0.31146
 C1822 C 0.40045 0.75753 0.30062
 C1823 C 0.38015 0.75840 0.28836
 C1824 C 0.36593 0.77569 0.29229
 C1825 C 0.34545 0.77562 0.28204
 C1826 C 0.33909 0.75828 0.26776
 C1827 C 0.35351 0.74126 0.26335
 C1828 C 0.37398 0.74133 0.27360
 C1829 C 0.31714 0.75685 0.25970
 C1830 C 0.29848 0.75489 0.25425
 H1831 H 0.37044 0.78892 0.30377
 H1832 H 0.33437 0.78875 0.28581
 H1833 H 0.34870 0.72764 0.25257
 H1834 H 0.38477 0.72781 0.27052
 C1835 C 0.91717 0.25680 0.81270
 C1836 C 0.90053 0.25766 0.80179
 C1837 C 0.88027 0.25837 0.78944
 C1838 C 0.87426 0.24122 0.77471
 C1839 C 0.85383 0.24099 0.76437
 C1840 C 0.83929 0.25793 0.76866
 C1841 C 0.84548 0.27535 0.78292
 C1842 C 0.86592 0.27558 0.79326
 C1843 C 0.81738 0.25634 0.76051
 C1844 C 0.79876 0.25426 0.75498
 H1845 H 0.88515 0.22777 0.77172
 H1846 H 0.84915 0.22732 0.75361
 H1847 H 0.83430 0.28842 0.78660
 H1848 H 0.87031 0.28887 0.80472
 C1849 C 0.58599 0.97790 0.65683
 C1850 C 0.57684 0.97399 0.63862
 C1851 C 0.56625 0.97036 0.61647
 C1852 C 0.54377 0.96878 0.61567
 C1853 C 0.53328 0.96839 0.59390
 C1854 C 0.54524 0.96955 0.57290
 C1855 C 0.56778 0.97016 0.57369
 C1856 C 0.57827 0.97052 0.59545
 C1857 C 0.53439 0.97393 0.55113
 C1858 C 0.52521 0.97978 0.53365
 H1859 H 0.53433 0.96881 0.63182
 H1860 H 0.51583 0.96832 0.59348
 H1861 H 0.57715 0.97146 0.55757
 H1862 H 0.59566 0.97191 0.59589
 C1863 C 0.08614 0.47828 1.15843
 C1864 C 0.07692 0.47445 1.14023
 C1865 C 0.06625 0.47090 1.11811
 C1866 C 0.04375 0.46948 1.11737
 C1867 C 0.03321 0.46913 1.09564
 C1868 C 0.04513 0.47017 1.07459
 C1869 C 0.06767 0.47064 1.07532
 C1870 C 0.07822 0.47097 1.09706
 C1871 C 0.03426 0.47452 1.05283
 C1872 C 0.02506 0.48032 1.03534
 H1873 H 0.03435 0.46959 1.13355
 H1874 H 0.01576 0.46917 1.09527
 H1875 H 0.07702 0.47184 1.05917
 H1876 H 0.09561 0.47223 1.09745
 C1877 C -0.08578 0.02218 1.16038
 C1878 C -0.07687 0.02662 1.14210
 C1879 C -0.06663 0.03091 1.11982
 C1880 C -0.04423 0.03331 1.11853
 C1881 C -0.03398 0.03434 1.09653
 C1882 C -0.04609 0.03302 1.07578
 C1883 C -0.06858 0.03161 1.07709
 C1884 C -0.07883 0.03060 1.09909
 C1885 C -0.03530 0.02914 1.05367
 C1886 C -0.02604 0.02360 1.03591
 H1887 H -0.03464 0.03340 1.13445
 H1888 H -0.01655 0.03501 1.09570
 H1889 H -0.07805 0.03016 1.06116
 H1890 H -0.09615 0.02858 1.09991
 C1891 C 0.41439 0.52202 0.65939
 C1892 C 0.42328 0.52642 0.64110
 C1893 C 0.43354 0.53069 0.61882
 C1894 C 0.45592 0.53317 0.61755
 C1895 C 0.46620 0.53419 0.59556
 C1896 C 0.45411 0.53276 0.57479
 C1897 C 0.43163 0.53126 0.57608
 C1898 C 0.42136 0.53027 0.59807
 C1899 C 0.46494 0.52886 0.55271
 C1900 C 0.47424 0.52332 0.53498
 H1901 H 0.46550 0.53335 0.63348
 H1902 H 0.48362 0.53493 0.59475
 H1903 H 0.42218 0.52973 0.56014
 H1904 H 0.40404 0.52819 0.59887
 C1905 C 0.41382 0.47691 -0.16297
 C1906 C 0.42244 0.47309 -0.14444
 C1907 C 0.43254 0.46934 -0.12205
 C1908 C 0.42029 0.47055 -0.10122
 C1909 C 0.43046 0.46967 -0.07929
 C1910 C 0.45289 0.46748 -0.07812
 C1911 C 0.46504 0.46536 -0.09894
 C1912 C 0.45488 0.46626 -0.12088
 C1913 C 0.46368 0.47120 -0.05611
 C1914 C 0.47285 0.47657 -0.03838
 H1915 H 0.40303 0.47307 -0.10194
 H1916 H 0.42096 0.47173 -0.06331
 H1917 H 0.48244 0.46408 -0.09824
 H1918 H 0.46451 0.46544 -0.13687
 C1919 C -0.08553 0.97717 0.33700
 C1920 C -0.07699 0.97339 0.35558
 C1921 C -0.06700 0.96966 0.37803
 C1922 C -0.07938 0.97082 0.39878
 C1923 C -0.06935 0.96994 0.42078
 C1924 C -0.04692 0.96780 0.42212
 C1925 C -0.03464 0.96573 0.40138
 C1926 C -0.04467 0.96662 0.37937
 C1927 C -0.03627 0.97152 0.44420
 C1928 C -0.02721 0.97688 0.46200
 H1929 H -0.09665 0.97330 0.39793
 H1930 H -0.07895 0.97197 0.43669
 H1931 H -0.01724 0.96448 0.40220
 H1932 H -0.03494 0.96584 0.36344
 C1933 C 0.08530 0.52082 0.33466
 C1934 C 0.07644 0.52452 0.35323
 C1935 C 0.06604 0.52816 0.37566
 C1936 C 0.07811 0.52737 0.39647
 C1937 C 0.06772 0.52824 0.41842
 C1938 C 0.04524 0.52999 0.41964
 C1939 C 0.03325 0.53165 0.39884
 C1940 C 0.04363 0.53077 0.37689
 C1941 C 0.03433 0.52642 0.44169
 C1942 C 0.02515 0.52126 0.45953
 H1943 H 0.09543 0.52522 0.39571
 H1944 H 0.07711 0.52654 0.43438
 H1945 H 0.01582 0.53261 0.39958
 H1946 H 0.03414 0.53127 0.36091
 C1947 C 0.58641 0.02094 -0.16517
 C1948 C 0.57747 0.02466 -0.14664
 C1949 C 0.56693 0.02833 -0.12429
 C1950 C 0.54454 0.03107 -0.12324
 C1951 C 0.53401 0.03198 -0.10137
 C1952 C 0.54584 0.03019 -0.08048
 C1953 C 0.56832 0.02832 -0.08151
 C1954 C 0.57886 0.02742 -0.10339
 C1955 C 0.53477 0.02663 -0.05853
 C1956 C 0.52545 0.02146 -0.04078
 H1957 H 0.53516 0.03166 -0.13930
 H1958 H 0.51658 0.03303 -0.10078
 H1959 H 0.57759 0.02653 -0.06548
 H1960 H 0.59617 0.02517 -0.10400
 C1961 C 0.66434 0.55947 -0.01301
 C1962 C 0.64699 0.55088 -0.01330
 C1963 C 0.62596 0.54135 -0.01288
 C1964 C 0.61152 0.54517 -0.03133
 C1965 C 0.59051 0.53724 -0.03001
 C1966 C 0.58390 0.52549 -0.01024
 C1967 C 0.59842 0.52144 0.00806
 C1968 C 0.61942 0.52936 0.00674
 C1969 C 0.56202 0.51838 -0.00814
 C1970 C 0.54365 0.51267 -0.00577
 H1971 H 0.61639 0.55458 -0.04647
 H1972 H 0.57933 0.54055 -0.04417
 H1973 H 0.59339 0.51249 0.02348
 H1974 H 0.63041 0.52649 0.02118
 C1975 C 0.16429 1.05928 0.48781
 C1976 C 0.14691 1.05077 0.48757
 C1977 C 0.12583 1.04135 0.48802
 C1978 C 0.11913 1.02966 0.50779
 C1979 C 0.09809 1.02184 0.50911
 C1980 C 0.08369 1.02570 0.49066
 C1981 C 0.09045 1.03715 0.47074
 C1982 C 0.11151 1.04497 0.46942
 C1983 C 0.06178 1.01866 0.49270
 C1984 C 0.04339 1.01300 0.49502
 H1985 H 0.13003 1.02693 0.52235
 H1986 H 0.09295 1.01312 0.52465
 H1987 H 0.07937 1.04031 0.45645
 H1988 H 0.11649 1.05416 0.45415
 C1989 C 0.16652 -0.05857 1.01571
 C1990 C 0.14902 -0.05013 1.01574
 C1991 C 0.12778 -0.04093 1.01501
 C1992 C 0.12308 -0.02463 0.99882
 C1993 C 0.10198 -0.01697 0.99668
 C1994 C 0.08554 -0.02561 1.01071
 C1995 C 0.09028 -0.04168 1.02714
 C1996 C 0.11138 -0.04934 1.02928
 C1997 C 0.06369 -0.01861 1.00752
 C1998 C 0.04538 -0.01296 1.00443
 H1999 H 0.13562 -0.01818 0.98755
 H2000 H 0.09842 -0.00462 0.98383
 H2001 H 0.07763 -0.04854 1.03796
 H2002 H 0.11483 -0.06209 1.04169
 C2003 C 0.66681 0.44112 0.51559
 C2004 C 0.64936 0.44966 0.51536
 C2005 C 0.62819 0.45900 0.51429
 C2006 C 0.62288 0.47284 0.49576
 C2007 C 0.60180 0.48049 0.49352
 C2008 C 0.58596 0.47430 0.50980
 C2009 C 0.59131 0.46071 0.52853
 C2010 C 0.61241 0.45305 0.53077
 C2011 C 0.56408 0.48122 0.50669
 C2012 C 0.54575 0.48682 0.50363
 H2013 H 0.63493 0.47736 0.48280
 H2014 H 0.59775 0.49090 0.47890
 H2015 H 0.57913 0.45575 0.54112
 H2016 H 0.61632 0.44218 0.54502
 C2017 C -0.16759 0.44252 0.49175
 C2018 C -0.14991 0.45038 0.49098
 C2019 C -0.12854 0.45915 0.49076
 C2020 C -0.12110 0.47068 0.51040
 C2021 C -0.09988 0.47805 0.51092
 C2022 C -0.08602 0.47392 0.49180
 C2023 C -0.09350 0.46260 0.47204
 C2024 C -0.11475 0.45522 0.47152
 C2025 C -0.06397 0.48066 0.49295
 C2026 C -0.04547 0.48615 0.49458
 H2027 H -0.13159 0.47366 0.52544
 H2028 H -0.09419 0.48670 0.52633
 H2029 H -0.08286 0.45924 0.45723
 H2030 H -0.12031 0.44618 0.45633
 C2031 C 0.33223 -0.05663 -0.00893
 C2032 C 0.34993 -0.04880 -0.00972
 C2033 C 0.37133 -0.04009 -0.00998
 C2034 C 0.37881 -0.02853 0.00961
 C2035 C 0.40007 -0.02125 0.01011
 C2036 C 0.41391 -0.02549 -0.00899
 C2037 C 0.40638 -0.03684 -0.02871
 C2038 C 0.38511 -0.04413 -0.02921
 C2039 C 0.43600 -0.01887 -0.00784
 C2040 C 0.45452 -0.01348 -0.00618
 H2041 H 0.36833 -0.02547 0.02464
 H2042 H 0.40579 -0.01258 0.02549
 H2043 H 0.41702 -0.04029 -0.04351
 H2044 H 0.37951 -0.05320 -0.04437
 C2045 C 0.33124 1.05812 0.51150
 C2046 C 0.34918 1.05066 0.51151
 C2047 C 0.37081 1.04238 0.51060
 C2048 C 0.38515 1.04671 0.52903
 C2049 C 0.40659 1.03982 0.52732
 C2050 C 0.41370 1.02861 0.50717
 C2051 C 0.39931 1.02411 0.48887
 C2052 C 0.37790 1.03098 0.49058
 C2053 C 0.43585 1.02218 0.50486
 C2054 C 0.45435 1.01678 0.50226
 H2055 H 0.37984 1.05566 0.54450
 H2056 H 0.41764 1.04344 0.54151
 H2057 H 0.40471 1.01553 0.47318
 H2058 H 0.36697 1.02771 0.47616
 C2059 C -0.16893 0.55852 1.01165
 C2060 C -0.15100 0.55104 1.01182
 C2061 C -0.12938 0.54273 1.01113
 C2062 C -0.11516 0.54713 1.02965
 C2063 C -0.09371 0.54022 1.02815
 C2064 C -0.08647 0.52892 1.00811
 C2065 C -0.10074 0.52435 0.98972
 C2066 C -0.12216 0.53124 0.99122
 C2067 C -0.06431 0.52250 1.00600
 C2068 C -0.04579 0.51710 1.00354
 H2069 H -0.12056 0.55615 1.04503
 H2070 H -0.08275 0.54390 1.04241
 H2071 H -0.09525 0.51570 0.97412
 H2072 H -0.13299 0.52791 0.97673
 C2073 C 0.01236 0.66759 0.56772
 C2074 C 0.01352 0.65080 0.55683
 C2075 C 0.01445 0.63038 0.54448
 C2076 C -0.00219 0.62444 0.52916
 C2077 C -0.00230 0.60389 0.51879
 C2078 C 0.01424 0.58914 0.52364
 C2079 C 0.03116 0.59526 0.53849
 C2080 C 0.03128 0.61581 0.54886
 C2081 C 0.01266 0.56714 0.51541
 C2082 C 0.01057 0.54845 0.50986
 H2083 H -0.01536 0.63547 0.52572
 H2084 H -0.01561 0.59928 0.50757
 H2085 H 0.04392 0.58394 0.54261
 H2086 H 0.04417 0.62014 0.56078
 C2087 C 0.51258 0.16751 0.06776
 C2088 C 0.51377 0.15073 0.05687
 C2089 C 0.51473 0.13032 0.04448
 C2090 C 0.49824 0.12451 0.02891
 C2091 C 0.49813 0.10398 0.01849
 C2092 C 0.51453 0.08913 0.02354
 C2093 C 0.53131 0.09513 0.03865
 C2094 C 0.53141 0.11566 0.04908
 C2095 C 0.51293 0.06716 0.01524
 C2096 C 0.51079 0.04850 0.00962
 H2097 H 0.48518 0.13563 0.02531
 H2098 H 0.48494 0.09948 0.00707
 H2099 H 0.54395 0.08372 0.04293
 H2100 H 0.54419 0.11989 0.06118
 C2101 C -0.01143 0.16928 0.93099
 C2102 C -0.01259 0.15246 0.94154
 C2103 C -0.01351 0.13197 0.95343
 C2104 C -0.03048 0.11770 0.94894
 C2105 C -0.03036 0.09706 0.95879
 C2106 C -0.01328 0.09056 0.97321
 C2107 C 0.00342 0.10500 0.97816
 C2108 C 0.00329 0.12564 0.96832
 C2109 C -0.01177 0.06851 0.98098
 C2110 C -0.00976 0.04981 0.98630
 H2111 H -0.04350 0.12233 0.93734
 H2112 H -0.04325 0.08597 0.95462
 H2113 H 0.01683 0.10010 0.98907
 H2114 H 0.01658 0.13644 0.97182
 C2115 C 0.48873 0.66881 0.42967
 C2116 C 0.48759 0.65200 0.44025
 C2117 C 0.48669 0.63153 0.45218
 C2118 C 0.50349 0.62526 0.46712
 C2119 C 0.50363 0.60465 0.47702
 C2120 C 0.48697 0.59016 0.47209
 C2121 C 0.46989 0.59661 0.45762
 C2122 C 0.46975 0.61723 0.44771
 C2123 C 0.48849 0.56814 0.47993
 C2124 C 0.49052 0.54945 0.48531
 H2125 H 0.51675 0.63609 0.47061
 H2126 H 0.51704 0.59979 0.48797
 H2127 H 0.45703 0.58549 0.45346
 H2128 H 0.45674 0.62181 0.43608
 C2129 C 0.50969 0.83377 0.42827
 C2130 C 0.51139 0.85075 0.43865
 C2131 C 0.51270 0.87139 0.45046
 C2132 C 0.52922 0.88582 0.44470
 C2133 C 0.52932 0.90659 0.45454
 C2134 C 0.51291 0.91305 0.47021
 C2135 C 0.49671 0.89845 0.47640
 C2136 C 0.49661 0.87769 0.46658
 C2137 C 0.51151 0.93517 0.47810
 C2138 C 0.50955 0.95391 0.48360
 H2139 H 0.54167 0.88122 0.43215
 H2140 H 0.54182 0.91779 0.44942
 H2141 H 0.48381 0.90331 0.48829
 H2142 H 0.48368 0.86676 0.47106
 C2143 C 0.00963 0.33420 0.92986
 C2144 C 0.01134 0.35116 0.94028
 C2145 C 0.01269 0.37178 0.95212
 C2146 C -0.00338 0.37807 0.96827
 C2147 C -0.00326 0.39882 0.97812
 C2148 C 0.01294 0.41342 0.97193
 C2149 C 0.02933 0.40696 0.95624
 C2150 C 0.02921 0.38620 0.94638
 C2151 C 0.01155 0.43554 0.97982
 C2152 C 0.00957 0.45428 0.98530
 H2153 H -0.01632 0.36715 0.97275
 H2154 H -0.01615 0.40368 0.99003
 H2155 H 0.04183 0.41816 0.95112
 H2156 H 0.04165 0.38161 0.93380
 C2157 C 0.49004 0.33171 0.06928
 C2158 C 0.48806 0.34839 0.05857
 C2159 C 0.48634 0.36867 0.04634
 C2160 C 0.46981 0.38328 0.05214
 C2161 C 0.46932 0.40374 0.04183
 C2162 C 0.48535 0.40972 0.02563
 C2163 C 0.50156 0.39492 0.01939
 C2164 C 0.50205 0.37446 0.02969
 C2165 C 0.48648 0.43164 0.01738
 C2166 C 0.48829 0.45028 0.01173
 H2167 H 0.45764 0.37907 0.06508
 H2168 H 0.45683 0.41510 0.04702
 H2169 H 0.51419 0.39941 0.00711
 H2170 H 0.51500 0.36340 0.02515
 C2171 C -0.01020 0.83187 0.56943
 C2172 C -0.01218 0.84857 0.55876
 C2173 C -0.01391 0.86888 0.54658
 C2174 C 0.00180 0.87472 0.52996
 C2175 C 0.00131 0.89519 0.51971
 C2176 C -0.01491 0.90997 0.52598
 C2177 C -0.03095 0.90395 0.54215
 C2178 C -0.03045 0.88346 0.55241
 C2179 C -0.01379 0.93191 0.51778
 C2180 C -0.01198 0.95056 0.51217
 H2181 H 0.01476 0.86367 0.52540
 H2182 H 0.01395 0.89972 0.50746
 H2183 H -0.04344 0.91530 0.54736
 H2184 H -0.04262 0.87922 0.56533
 C2185 C 0.22606 0.33499 0.09263
 C2186 C 0.22208 0.32578 0.11078
 C2187 C 0.21844 0.31514 0.13289
 C2188 C 0.21720 0.29264 0.13366
 C2189 C 0.21694 0.28213 0.15541
 C2190 C 0.21789 0.29410 0.17643
 C2191 C 0.21813 0.31665 0.17567
 C2192 C 0.21837 0.32715 0.15392
 C2193 C 0.22248 0.28332 0.19817
 C2194 C 0.22852 0.27423 0.21563
 H2195 H 0.21743 0.28320 0.11750
 H2196 H 0.21716 0.26468 0.15581
 H2197 H 0.21928 0.32603 0.19181
 H2198 H 0.21951 0.34456 0.15350
 C2199 C 0.72648 0.83481 0.59181
 C2200 C 0.72266 0.82570 0.61006
 C2201 C 0.71919 0.81518 0.63227
 C2202 C 0.71911 0.82734 0.65320
 C2203 C 0.71899 0.81699 0.67504
 C2204 C 0.71889 0.79445 0.67600
 C2205 C 0.71796 0.78232 0.65508
 C2206 C 0.71809 0.79267 0.63324
 C2207 C 0.72353 0.78384 0.69783
 C2208 C 0.72958 0.77490 0.71538
 H2209 H 0.72013 0.84475 0.65263
 H2210 H 0.72011 0.82650 0.69109
 H2211 H 0.71827 0.76487 0.65562
 H2212 H 0.71833 0.78313 0.61716
 C2213 C 0.27141 0.66395 0.59021
 C2214 C 0.27570 0.67280 0.60856
 C2215 C 0.27984 0.68303 0.63090
 C2216 C 0.27927 0.67082 0.65162
 C2217 C 0.28020 0.68108 0.67363
 C2218 C 0.28178 0.70355 0.67497
 C2219 C 0.28334 0.71565 0.65424
 C2220 C 0.28240 0.70540 0.63222
 C2221 C 0.27788 0.71437 0.69706
 C2222 C 0.27237 0.72366 0.71481
 H2223 H 0.27713 0.65352 0.65078
 H2224 H 0.27856 0.67161 0.68955
 H2225 H 0.28416 0.73308 0.65508
 H2226 H 0.28269 0.71499 0.61631
 C2227 C 0.77142 0.16318 0.09104
 C2228 C 0.77569 0.17199 0.10942
 C2229 C 0.77982 0.18217 0.13178
 C2230 C 0.78258 0.20452 0.13313
 C2231 C 0.78353 0.21475 0.15516
 C2232 C 0.78177 0.20266 0.17588
 C2233 C 0.77999 0.18020 0.17452
 C2234 C 0.77906 0.16997 0.15250
 C2235 C 0.77786 0.21350 0.19796
 C2236 C 0.77233 0.22284 0.21566
 H2237 H 0.78303 0.21412 0.11723
 H2238 H 0.78449 0.23217 0.15602
 H2239 H 0.77820 0.17074 0.19042
 H2240 H 0.77677 0.15268 0.15163
 C2241 C 0.72801 0.16344 0.91285
 C2242 C 0.72427 0.17213 0.89435
 C2243 C 0.72056 0.18229 0.87199
 C2244 C 0.72172 0.17008 0.85113
 C2245 C 0.72078 0.18029 0.82922
 C2246 C 0.71860 0.20273 0.82812
 C2247 C 0.71655 0.21484 0.84898
 C2248 C 0.71749 0.20464 0.87088
 C2249 C 0.72221 0.21355 0.80612
 C2250 C 0.72748 0.22273 0.78837
 H2251 H 0.72421 0.15281 0.85179
 H2252 H 0.72279 0.17081 0.81321
 H2253 H 0.71526 0.23224 0.84833
 H2254 H 0.71670 0.21424 0.88691
 C2255 C 0.22755 0.66427 0.41229
 C2256 C 0.22379 0.67301 0.39382
 C2257 C 0.22008 0.68324 0.37150
 C2258 C 0.22109 0.67105 0.35061
 C2259 C 0.22019 0.68130 0.32873
 C2260 C 0.21820 0.70376 0.32767
 C2261 C 0.21630 0.71585 0.34856
 C2262 C 0.21721 0.70561 0.37044
 C2263 C 0.22185 0.71457 0.30568
 C2264 C 0.22714 0.72373 0.28792
 H2265 H 0.22344 0.65375 0.35124
 H2266 H 0.22208 0.67183 0.31270
 H2267 H 0.21516 0.73327 0.34794
 H2268 H 0.21655 0.71520 0.38648
 C2269 C 0.77171 0.83549 0.41427
 C2270 C 0.77563 0.82670 0.39570
 C2271 C 0.77948 0.81638 0.37327
 C2272 C 0.77858 0.82847 0.35249
 C2273 C 0.77955 0.81811 0.33052
 C2274 C 0.78151 0.79564 0.32926
 C2275 C 0.78332 0.78365 0.35003
 C2276 C 0.78234 0.79400 0.37201
 C2277 C 0.77791 0.78473 0.30722
 C2278 C 0.77268 0.77550 0.28943
 H2279 H 0.77624 0.84577 0.35328
 H2280 H 0.77773 0.82750 0.31458
 H2281 H 0.78442 0.76623 0.34926
 H2282 H 0.78291 0.78449 0.38797
 C2283 C 0.27164 0.33616 0.91531
 C2284 C 0.27557 0.32737 0.89674
 C2285 C 0.27943 0.31703 0.87432
 C2286 C 0.27847 0.32910 0.85353
 C2287 C 0.27944 0.31873 0.83156
 C2288 C 0.28144 0.29626 0.83033
 C2289 C 0.28332 0.28429 0.85112
 C2290 C 0.28234 0.29466 0.87308
 C2291 C 0.27782 0.28531 0.80832
 C2292 C 0.27256 0.27607 0.79055
 H2293 H 0.27609 0.34640 0.85430
 H2294 H 0.27757 0.32809 0.81562
 H2295 H 0.28447 0.26687 0.85037
 H2296 H 0.28296 0.28517 0.88905
 C2297 C 0.80943 0.41448 0.76306
 C2298 C 0.80089 0.39710 0.76319
 C2299 C 0.79146 0.37602 0.76263
 C2300 C 0.77988 0.36933 0.74277
 C2301 C 0.77208 0.34829 0.74136
 C2302 C 0.77583 0.33387 0.75982
 C2303 C 0.78716 0.34062 0.77983
 C2304 C 0.79498 0.36168 0.78124
 C2305 C 0.76882 0.31195 0.75769
 C2306 C 0.76320 0.29355 0.75534
 H2307 H 0.77724 0.38025 0.72820
 H2308 H 0.76344 0.34316 0.72575
 H2309 H 0.79025 0.32952 0.79412
 H2310 H 0.80407 0.36665 0.79658
 C2311 C 0.30941 0.91530 0.26159
 C2312 C 0.30085 0.89792 0.26185
 C2313 C 0.29141 0.87684 0.26144
 C2314 C 0.29495 0.86259 0.28011
 C2315 C 0.28713 0.84152 0.27883
 C2316 C 0.27576 0.83469 0.25888
 C2317 C 0.27198 0.84902 0.24035
 C2318 C 0.27979 0.87007 0.24163
 C2319 C 0.26873 0.81276 0.25689
 C2320 C 0.26307 0.79436 0.25463
 H2321 H 0.30407 0.86763 0.29541
 H2322 H 0.29023 0.83050 0.29318
 H2323 H 0.26332 0.84383 0.22479
 H2324 H 0.27713 0.88092 0.22701
 C2325 C 0.19150 0.91676 0.73519
 C2326 C 0.19990 0.89924 0.73548
 C2327 C 0.20907 0.87800 0.73663
 C2328 C 0.20512 0.86300 0.71860
 C2329 C 0.21256 0.84181 0.72069
 C2330 C 0.22395 0.83560 0.74083
 C2331 C 0.22815 0.85067 0.75870
 C2332 C 0.22071 0.87184 0.75660
 C2333 C 0.23067 0.81363 0.74363
 C2334 C 0.23615 0.79523 0.74650
 H2335 H 0.19595 0.86757 0.70319
 H2336 H 0.20916 0.83021 0.70685
 H2337 H 0.23685 0.84597 0.77439
 H2338 H 0.22367 0.88328 0.77073
 C2339 C 0.69127 0.41584 0.23376
 C2340 C 0.69950 0.39825 0.23386
 C2341 C 0.70846 0.37691 0.23480
 C2342 C 0.69887 0.36016 0.22200
 C2343 C 0.70638 0.33903 0.22445
 C2344 C 0.72348 0.33463 0.23971
 C2345 C 0.73328 0.35142 0.25225
 C2346 C 0.72577 0.37254 0.24980
 C2347 C 0.73039 0.31281 0.24326
 C2348 C 0.73598 0.29452 0.24661
 H2349 H 0.68534 0.36336 0.21053
 H2350 H 0.69863 0.32612 0.21479
 H2351 H 0.74645 0.34812 0.26419
 H2352 H 0.73315 0.38537 0.25994
 C2353 C 0.69371 0.58256 0.25878
 C2354 C 0.70161 0.60023 0.25952
 C2355 C 0.71041 0.62159 0.25968
 C2356 C 0.70630 0.63553 0.27875
 C2357 C 0.71366 0.65678 0.27812
 C2358 C 0.72513 0.66411 0.25840
 C2359 C 0.72945 0.65010 0.23946
 C2360 C 0.72210 0.62888 0.24010
 C2361 C 0.73183 0.68617 0.25709
 C2362 C 0.73729 0.70466 0.25529
 H2363 H 0.69712 0.63008 0.29389
 H2364 H 0.71015 0.66754 0.29279
 H2365 H 0.73822 0.65568 0.22408
 H2366 H 0.72521 0.61827 0.22519
 C2367 C 0.19304 0.08332 0.75974
 C2368 C 0.20098 0.10097 0.76052
 C2369 C 0.20984 0.12231 0.76072
 C2370 C 0.22170 0.12953 0.74123
 C2371 C 0.22913 0.15073 0.74062
 C2372 C 0.22473 0.16477 0.75951
 C2373 C 0.21309 0.15750 0.77914
 C2374 C 0.20565 0.13628 0.77974
 C2375 C 0.23151 0.18681 0.75822
 C2376 C 0.23703 0.20528 0.75643
 H2377 H 0.22488 0.11889 0.72636
 H2378 H 0.23803 0.15625 0.72531
 H2379 H 0.20952 0.16830 0.79376
 H2380 H 0.19635 0.13088 0.79481
 C2381 C 0.30756 0.08073 0.23768
 C2382 C 0.30022 0.09871 0.23744
 C2383 C 0.29209 0.12042 0.23799
 C2384 C 0.30206 0.13636 0.22441
 C2385 C 0.29512 0.15778 0.22623
 C2386 C 0.27822 0.16328 0.24165
 C2387 C 0.26810 0.14730 0.25501
 C2388 C 0.27503 0.12590 0.25319
 C2389 C 0.27169 0.18537 0.24438
 C2390 C 0.26619 0.20382 0.24718
 H2391 H 0.31538 0.13230 0.21275
 H2392 H 0.30311 0.17006 0.21591
 H2393 H 0.25508 0.15143 0.26706
 H2394 H 0.26734 0.11371 0.26391
 C2395 C 0.80881 0.58156 0.73994
 C2396 C 0.80137 0.59950 0.73983
 C2397 C 0.79309 0.62115 0.74055
 C2398 C 0.78214 0.62856 0.76073
 C2399 C 0.77521 0.64997 0.76217
 C2400 C 0.77921 0.66404 0.74345
 C2401 C 0.78998 0.65661 0.72316
 C2402 C 0.79693 0.63517 0.72172
 C2403 C 0.77267 0.68619 0.74543
 C2404 C 0.76717 0.70470 0.74774
 H2405 H 0.77924 0.61788 0.77546
 H2406 H 0.76696 0.65561 0.77797
 H2407 H 0.79321 0.66742 0.70863
 H2408 H 0.80553 0.62962 0.70612
 C2409 C 0.91875 0.76286 0.18141
 C2410 C 0.90194 0.76392 0.19226
 C2411 C 0.88149 0.76472 0.20456
 C2412 C 0.86692 0.78158 0.20034
 C2413 C 0.84635 0.78136 0.21066
 C2414 C 0.84023 0.76428 0.22530
 C2415 C 0.85498 0.74770 0.22997
 C2416 C 0.87554 0.74793 0.21966
 C2417 C 0.81824 0.76264 0.23352
 C2418 C 0.79957 0.76051 0.23911
 H2419 H 0.87125 0.79459 0.18860
 H2420 H 0.83503 0.79415 0.20669
 H2421 H 0.85037 0.73429 0.24103
 H2422 H 0.88658 0.73473 0.22297
 C2423 C 0.41835 0.26291 0.68199
 C2424 C 0.40157 0.26405 0.69288
 C2425 C 0.38117 0.26495 0.70526
 C2426 C 0.36660 0.28180 0.70098
 C2427 C 0.34608 0.28167 0.71140
 C2428 C 0.33998 0.26470 0.72620
 C2429 C 0.35473 0.24813 0.73094
 C2430 C 0.37525 0.24827 0.72053
 C2431 C 0.31803 0.26313 0.73451
 C2432 C 0.29936 0.26105 0.74017
 H2433 H 0.37091 0.29473 0.68912
 H2434 H 0.33475 0.29445 0.70738
 H2435 H 0.35015 0.23479 0.74212
 H2436 H 0.38629 0.23508 0.72388
 C2437 C 0.41846 0.73793 0.81897
 C2438 C 0.40159 0.73679 0.80850
 C2439 C 0.38104 0.73590 0.79673
 C2440 C 0.37468 0.75270 0.78185
 C2441 C 0.35399 0.75287 0.77214
 C2442 C 0.33952 0.73623 0.77721
 C2443 C 0.34606 0.71915 0.79162
 C2444 C 0.36676 0.71898 0.80133
 C2445 C 0.31744 0.73778 0.76957
 C2446 C 0.29872 0.73985 0.76434
 H2447 H 0.38550 0.76595 0.77826
 H2448 H 0.34906 0.76628 0.76124
 H2449 H 0.33496 0.70630 0.79588
 H2450 H 0.37141 0.70597 0.81293
 C2451 C 0.91809 0.23747 0.32043
 C2452 C 0.90126 0.23634 0.30990
 C2453 C 0.88075 0.23545 0.29803
 C2454 C 0.86646 0.21851 0.30255
 C2455 C 0.84580 0.21867 0.29271
 C2456 C 0.83932 0.23575 0.27828
 C2457 C 0.85380 0.25240 0.27329
 C2458 C 0.87445 0.25225 0.28312
 C2459 C 0.81728 0.23728 0.27050
 C2460 C 0.79858 0.23933 0.26517
 H2461 H 0.87106 0.20550 0.31416
 H2462 H 0.83469 0.20581 0.29691
 H2463 H 0.84892 0.26581 0.26237
 H2464 H 0.88528 0.26550 0.27960
 C2465 C 0.08307 0.25849 0.32153
 C2466 C 0.10002 0.26021 0.31112
 C2467 C 0.12064 0.26158 0.29929
 C2468 C 0.13499 0.27820 0.30494
 C2469 C 0.15574 0.27837 0.29505
 C2470 C 0.16226 0.26192 0.27946
 C2471 C 0.14773 0.24561 0.27338
 C2472 C 0.12700 0.24544 0.28324
 C2473 C 0.18435 0.26062 0.27151
 C2474 C 0.20308 0.25874 0.26594
 H2475 H 0.13034 0.29069 0.31743
 H2476 H 0.16687 0.29095 0.30009
 H2477 H 0.15263 0.23268 0.26154
 H2478 H 0.11613 0.23243 0.27884
 C2479 C 0.58364 0.75926 0.82035
 C2480 C 0.60065 0.76103 0.81008
 C2481 C 0.62135 0.76246 0.79841
 C2482 C 0.63568 0.77902 0.80430
 C2483 C 0.65649 0.77923 0.79459
 C2484 C 0.66310 0.76288 0.77893
 C2485 C 0.64859 0.74662 0.77259
 C2486 C 0.62779 0.74642 0.78229
 C2487 C 0.68525 0.76160 0.77114
 C2488 C 0.70400 0.75973 0.76570
 H2489 H 0.63096 0.79144 0.81685
 H2490 H 0.66761 0.79177 0.79981
 H2491 H 0.65356 0.73377 0.76070
 H2492 H 0.61694 0.73344 0.77770
 C2493 C 0.58246 0.24005 0.68060
 C2494 C 0.59912 0.23799 0.69133
 C2495 C 0.61938 0.23616 0.70359
 C2496 C 0.62513 0.25168 0.72047
 C2497 C 0.64557 0.25111 0.73080
 C2498 C 0.66040 0.23500 0.72435
 C2499 C 0.65447 0.21914 0.70792
 C2500 C 0.63402 0.21971 0.69759
 C2501 C 0.68233 0.23610 0.73262
 C2502 C 0.70097 0.23791 0.73825
 H2503 H 0.61404 0.26456 0.72517
 H2504 H 0.65003 0.26362 0.74325
 H2505 H 0.66586 0.20673 0.70257
 H2506 H 0.62985 0.20768 0.68446
 C2507 C 0.08156 0.74089 0.18143
 C2508 C 0.09831 0.73887 0.19201
 C2509 C 0.11868 0.73710 0.20406
 C2510 C 0.13325 0.72059 0.19803
 C2511 C 0.15379 0.72007 0.20815
 C2512 C 0.15989 0.73603 0.22438
 C2513 C 0.14513 0.75221 0.23086
 C2514 C 0.12460 0.75273 0.22076
 C2515 C 0.18188 0.73713 0.23244
 C2516 C 0.20057 0.73893 0.23792
 H2517 H 0.12895 0.70849 0.18505
 H2518 H 0.16512 0.70762 0.20277
 H2519 H 0.14972 0.76478 0.24317
 H2520 H 0.11356 0.76565 0.22547
   
