data_POSCAR
  _audit_creation_date              2014-09-24
  _audit_creation_method            'ToBaCCo'
  _symmetry_space_group_name_H-M    'P1'
  _symmetry_Int_Tables_number       1
  _symmetry_cell_setting            triclinic
  loop_
  _symmetry_equiv_pos_as_xyz
 x,y,z
_cell_length_a 64.2472
_cell_length_b 64.3976
_cell_length_c 64.3801
_cell_angle_alpha 89.974000
_cell_angle_beta 89.970500
_cell_angle_gamma 89.957100
loop_
  _atom_site_label
  _atom_site_type_symbol
  _atom_site_fract_x
  _atom_site_fract_y
  _atom_site_fract_z
N1 N 0.37057 0.31242 0.32645
 N2 N 0.37039 0.32686 0.31202
 C3 C 0.38663 0.32379 0.29910
 C4 C 0.39748 0.30647 0.30589
 C5 C 0.38681 0.29965 0.32320
 H6 H 0.39028 0.33343 0.28585
 H7 H 0.39073 0.28643 0.33280
 Cu8 Cu 0.34904 0.34829 0.31203
 Cu9 Cu 0.35001 0.31136 0.34866
 Cu10 Cu 0.31218 0.34996 0.34895
 N11 N 0.32784 0.36986 0.31207
 N12 N 0.31353 0.37051 0.32666
 C13 C 0.30104 0.38698 0.32334
 C14 C 0.30796 0.39722 0.30570
 C15 C 0.32492 0.38591 0.29895
 H16 H 0.28797 0.39113 0.33306
 H17 H 0.33445 0.38926 0.28552
 N18 N 0.31359 0.32771 0.37004
 N19 N 0.32792 0.31299 0.36981
 C20 C 0.32476 0.30019 0.38605
 C21 C 0.30773 0.30716 0.39706
 C22 C 0.30097 0.32464 0.38649
 H23 H 0.33415 0.28674 0.38972
 H24 H 0.28784 0.33436 0.39041
 H25 H 0.32631 0.32621 0.33276
 H26 H 0.34351 0.34287 0.34908
 N27 N 0.37084 0.81383 -0.17350
 N28 N 0.37035 0.82830 -0.18791
 C29 C 0.38660 0.82552 -0.20088
 C30 C 0.39786 0.80846 -0.19425
 C31 C 0.38738 0.80140 -0.17678
 H32 H 0.39011 0.83517 -0.21414
 H33 H 0.39127 0.78815 -0.16725
 Cu34 Cu 0.34865 0.84945 -0.18798
 Cu35 Cu 0.35014 0.81213 -0.15140
 Cu36 Cu 0.31141 0.84970 -0.15142
 N37 N 0.32707 0.87075 -0.18758
 N38 N 0.31246 0.87058 -0.17329
 C39 C 0.29961 0.88681 -0.17634
 C40 C 0.30653 0.89785 -0.19339
 C41 C 0.32404 0.88720 -0.20018
 H42 H 0.28617 0.89036 -0.16689
 H43 H 0.33387 0.89107 -0.21320
 N44 N 0.31295 0.82737 -0.13058
 N45 N 0.32774 0.81313 -0.13044
 C46 C 0.32474 0.80042 -0.11406
 C47 C 0.30722 0.80705 -0.10342
 C48 C 0.30015 0.82407 -0.11435
 H49 H 0.33459 0.78738 -0.11018
 H50 H 0.28671 0.83344 -0.11057
 H51 H 0.32651 0.82628 -0.16776
 H52 H 0.34312 0.84333 -0.15111
 N53 N 0.86958 0.31288 -0.17304
 N54 N 0.86951 0.32728 -0.18753
 C55 C 0.88576 0.32405 -0.20041
 C56 C 0.89649 0.30667 -0.19354
 C57 C 0.88576 0.30001 -0.17621
 H58 H 0.88947 0.33358 -0.21373
 H59 H 0.88958 0.28680 -0.16656
 Cu60 Cu 0.84828 0.34893 -0.18768
 Cu61 Cu 0.84891 0.31183 -0.15092
 Cu62 Cu 0.81065 0.34978 -0.15148
 N63 N 0.82663 0.37017 -0.18789
 N64 N 0.81193 0.37023 -0.17368
 C65 C 0.79914 0.38642 -0.17699
 C66 C 0.80618 0.39723 -0.19411
 C67 C 0.82371 0.38647 -0.20074
 H68 H 0.78580 0.39025 -0.16748
 H69 H 0.83360 0.39018 -0.21381
 N70 N 0.81198 0.32783 -0.13025
 N71 N 0.82663 0.31345 -0.12993
 C72 C 0.82351 0.30099 -0.11340
 C73 C 0.80606 0.30792 -0.10286
 C74 C 0.79915 0.32487 -0.11397
 H75 H 0.83319 0.28787 -0.10941
 H76 H 0.78576 0.33437 -0.11033
 H77 H 0.82560 0.32626 -0.16754
 H78 H 0.84217 0.34315 -0.15076
 N79 N 0.87092 0.81315 0.32727
 N80 N 0.87015 0.82720 0.31245
 C81 C 0.88633 0.82433 0.29946
 C82 C 0.89783 0.80763 0.30649
 C83 C 0.88761 0.80086 0.32420
 H84 H 0.88964 0.83367 0.28590
 H85 H 0.89185 0.78796 0.33407
 Cu86 Cu 0.84833 0.84809 0.31225
 Cu87 Cu 0.85014 0.81176 0.34944
 Cu88 Cu 0.80937 0.84722 0.34646
 N89 N 0.82722 0.86973 0.31222
 N90 N 0.81211 0.86946 0.32601
 C91 C 0.79965 0.88598 0.32294
 C92 C 0.80743 0.89728 0.30629
 C93 C 0.82493 0.88650 0.29992
 H94 H 0.78593 0.88930 0.33208
 H95 H 0.83515 0.89064 0.28722
 N96 N 0.81186 0.82644 0.36888
 N97 N 0.82740 0.81304 0.37009
 C98 C 0.82465 0.80101 0.38701
 C99 C 0.80655 0.80719 0.39691
 C100 C 0.79889 0.82331 0.38502
 H101 H 0.83498 0.78861 0.39165
 H102 H 0.78483 0.83207 0.38797
 H103 H 0.82667 0.82400 0.33203
 H104 H 0.84103 0.84268 0.34883
 N105 N 0.62940 0.68757 0.32907
 N106 N 0.62943 0.67349 0.31427
 C107 C 0.61298 0.67677 0.30173
 C108 C 0.60210 0.69382 0.30914
 C109 C 0.61298 0.70027 0.32644
 H110 H 0.60919 0.66743 0.28833
 H111 H 0.60924 0.71335 0.33630
 Cu112 Cu 0.65076 0.65204 0.31360
 Cu113 Cu 0.65051 0.68847 0.35078
 Cu114 Cu 0.69075 0.65268 0.34686
 N115 N 0.67195 0.63044 0.31295
 N116 N 0.68739 0.63065 0.32636
 C117 C 0.69973 0.61411 0.32297
 C118 C 0.69158 0.60289 0.30653
 C119 C 0.67399 0.61372 0.30053
 H120 H 0.71370 0.61076 0.33169
 H121 H 0.66348 0.60961 0.28809
 N122 N 0.68890 0.67329 0.36945
 N123 N 0.67349 0.68678 0.37097
 C124 C 0.67652 0.69868 0.38787
 C125 C 0.69471 0.69236 0.39749
 C126 C 0.70212 0.67624 0.38542
 H127 H 0.66632 0.71111 0.39269
 H128 H 0.71618 0.66739 0.38811
 H129 H 0.67332 0.67590 0.33266
 H130 H 0.65922 0.65740 0.34994
 N131 N 0.63027 0.18721 -0.17246
 N132 N 0.63105 0.17345 -0.18754
 C133 C 0.61480 0.17648 -0.20040
 C134 C 0.60327 0.19300 -0.19302
 C135 C 0.61353 0.19948 -0.17524
 H136 H 0.61148 0.16736 -0.21411
 H137 H 0.60927 0.21218 -0.16512
 Cu138 Cu 0.65304 0.15278 -0.18811
 Cu139 Cu 0.65104 0.18824 -0.15027
 Cu140 Cu 0.69150 0.15237 -0.15355
 N141 N 0.67348 0.13054 -0.18816
 N142 N 0.68844 0.13034 -0.17423
 C143 C 0.70052 0.11354 -0.17732
 C144 C 0.69264 0.10258 -0.19414
 C145 C 0.67547 0.11382 -0.20057
 H146 H 0.71406 0.10984 -0.16809
 H147 H 0.66528 0.11008 -0.21339
 N148 N 0.68920 0.17299 -0.13093
 N149 N 0.67379 0.18654 -0.12964
 C150 C 0.67665 0.19844 -0.11267
 C151 C 0.69469 0.19204 -0.10280
 C152 C 0.70220 0.17591 -0.11478
 H153 H 0.66645 0.21093 -0.10799
 H154 H 0.71620 0.16703 -0.11191
 H155 H 0.67469 0.17620 -0.16753
 H156 H 0.65989 0.15731 -0.15138
 N157 N 0.13177 0.68845 -0.17435
 N158 N 0.13210 0.67407 -0.18883
 C159 C 0.11514 0.67615 -0.20092
 C160 C 0.10362 0.69276 -0.19372
 C161 C 0.11463 0.70026 -0.17680
 H162 H 0.11155 0.66651 -0.21419
 H163 H 0.11076 0.71347 -0.16719
 Cu164 Cu 0.15495 0.65447 -0.19118
 Cu165 Cu 0.15415 0.69130 -0.15414
 Cu166 Cu 0.19074 0.65176 -0.15341
 N167 N 0.17381 0.63097 -0.18892
 N168 N 0.18766 0.62983 -0.17394
 C169 C 0.19911 0.61251 -0.17644
 C170 C 0.19199 0.60223 -0.19395
 C171 C 0.17592 0.61436 -0.20143
 H172 H 0.21195 0.60810 -0.16654
 H173 H 0.16674 0.61147 -0.21521
 N174 N 0.18910 0.67322 -0.13168
 N175 N 0.17524 0.68837 -0.13201
 C176 C 0.17815 0.70057 -0.11525
 C177 C 0.19467 0.69268 -0.10389
 C178 C 0.20120 0.67540 -0.11475
 H179 H 0.16899 0.71419 -0.11171
 H180 H 0.21394 0.66524 -0.11060
 H181 H 0.17781 0.67622 -0.16954
 H182 H 0.15952 0.65985 -0.15420
 N183 N 0.13049 0.18758 0.32636
 N184 N 0.13133 0.17349 0.31159
 C185 C 0.11512 0.17628 0.29861
 C186 C 0.10357 0.19297 0.30562
 C187 C 0.11378 0.19980 0.32327
 H188 H 0.11180 0.16685 0.28512
 H189 H 0.10948 0.21266 0.33316
 Cu190 Cu 0.15318 0.15260 0.31171
 Cu191 Cu 0.15101 0.18901 0.34865
 Cu192 Cu 0.19155 0.15325 0.34661
 N193 N 0.17425 0.13090 0.31201
 N194 N 0.18912 0.13106 0.32606
 C195 C 0.20158 0.11449 0.32310
 C196 C 0.19404 0.10334 0.30630
 C197 C 0.17671 0.11419 0.29968
 H198 H 0.21516 0.11103 0.33237
 H199 H 0.16674 0.11016 0.28677
 N200 N 0.18881 0.17418 0.36890
 N201 N 0.17343 0.18779 0.36956
 C202 C 0.17591 0.20001 0.38632
 C203 C 0.19357 0.19380 0.39677
 C204 C 0.20141 0.17735 0.38533
 H205 H 0.16569 0.21263 0.39067
 H206 H 0.21529 0.16844 0.38861
 H207 H 0.17478 0.17649 0.33173
 H208 H 0.15993 0.15803 0.34837
 N209 N 0.63057 0.31128 0.67327
 N210 N 0.63048 0.32603 0.68740
 C211 C 0.61378 0.32353 0.69979
 C212 C 0.60286 0.30632 0.69313
 C213 C 0.61396 0.29887 0.67623
 H214 H 0.60980 0.33340 0.71279
 H215 H 0.61044 0.28536 0.66691
 Cu216 Cu 0.65225 0.34700 0.68779
 Cu217 Cu 0.65277 0.30892 0.65263
 Cu218 Cu 0.68867 0.34927 0.65078
 N219 N 0.67325 0.36874 0.68802
 N220 N 0.68734 0.36960 0.67322
 C221 C 0.69968 0.38617 0.67640
 C222 C 0.69293 0.39628 0.69415
 C223 C 0.67616 0.38480 0.70112
 H224 H 0.71256 0.39046 0.66649
 H225 H 0.66675 0.38807 0.71466
 N226 N 0.68738 0.32706 0.62970
 N227 N 0.67372 0.31174 0.63031
 C228 C 0.67688 0.29924 0.61381
 C229 C 0.69337 0.30707 0.60237
 C230 C 0.69962 0.32463 0.61290
 H231 H 0.66795 0.28543 0.61050
 H232 H 0.71229 0.33481 0.60859
 H233 H 0.67608 0.32544 0.66758
 H234 H 0.65757 0.34042 0.65108
 N235 N 0.63008 0.81181 1.17313
 N236 N 0.63030 0.82619 1.18761
 C237 C 0.61411 0.82315 1.20053
 C238 C 0.60316 0.80602 1.19380
 C239 C 0.61372 0.79914 1.17634
 H240 H 0.61040 0.83270 1.21384
 H241 H 0.60992 0.78592 1.16674
 Cu242 Cu 0.65155 0.84761 1.18813
 Cu243 Cu 0.65091 0.81078 1.15112
 Cu244 Cu 0.68870 0.84925 1.15142
 N245 N 0.67255 0.86929 1.18787
 N246 N 0.68703 0.86983 1.17345
 C247 C 0.69938 0.88638 1.17670
 C248 C 0.69219 0.89677 1.19411
 C249 C 0.67520 0.88550 1.20081
 H250 H 0.71260 0.89041 1.16713
 H251 H 0.66550 0.88899 1.21411
 N252 N 0.68773 0.82708 1.13042
 N253 N 0.67332 0.81247 1.13023
 C254 C 0.67668 0.79991 1.11383
 C255 C 0.69403 0.80700 1.10322
 C256 C 0.70063 0.82416 1.11418
 H257 H 0.66719 0.78664 1.10993
 H258 H 0.71385 0.83384 1.11044
 H259 H 0.67434 0.82541 1.16753
 H260 H 0.65727 0.84224 1.15113
 N261 N 0.13003 0.31311 1.17341
 N262 N 0.13035 0.32763 1.18776
 C263 C 0.11417 0.32473 1.20076
 C264 C 0.10313 0.30757 1.19415
 C265 C 0.11364 0.30056 1.17673
 H266 H 0.11061 0.33434 1.21408
 H267 H 0.10973 0.28737 1.16714
 Cu268 Cu 0.15199 0.34874 1.18816
 Cu269 Cu 0.15072 0.31156 1.15137
 Cu270 Cu 0.18907 0.34935 1.15126
 N271 N 0.17324 0.37023 1.18740
 N272 N 0.18783 0.37016 1.17307
 C273 C 0.20060 0.38640 1.17613
 C274 C 0.19368 0.39725 1.19326
 C275 C 0.17626 0.38659 1.20011
 H276 H 0.21391 0.39017 1.16655
 H277 H 0.16660 0.39036 1.21334
 N278 N 0.18768 0.32705 1.13045
 N279 N 0.17302 0.31270 1.13037
 C280 C 0.17609 0.30002 1.11400
 C281 C 0.19351 0.30679 1.10332
 C282 C 0.20046 0.32386 1.11419
 H283 H 0.16636 0.28690 1.11016
 H284 H 0.21382 0.33331 1.11035
 H285 H 0.17431 0.32591 1.16762
 H286 H 0.15750 0.34285 1.15112
 N287 N 0.13029 0.81263 0.67315
 N288 N 0.13046 0.82696 0.68771
 C289 C 0.11417 0.82385 0.70055
 C290 C 0.10328 0.80663 0.69360
 C291 C 0.11396 0.79994 0.67625
 H292 H 0.11050 0.83338 0.71385
 H293 H 0.11006 0.78678 0.66659
 Cu294 Cu 0.15186 0.84837 0.68786
 Cu295 Cu 0.15098 0.81151 0.65102
 Cu296 Cu 0.18923 0.84953 0.65145
 N297 N 0.17325 0.86979 0.68802
 N298 N 0.18782 0.87000 0.67366
 C299 C 0.20044 0.88632 0.67686
 C300 C 0.19344 0.89699 0.69407
 C301 C 0.17612 0.88609 0.70085
 H302 H 0.21372 0.89028 0.66732
 H303 H 0.16634 0.88978 0.71401
 N304 N 0.18793 0.82749 0.63029
 N305 N 0.17332 0.81309 0.63005
 C306 C 0.17648 0.80054 0.61362
 C307 C 0.19392 0.80741 0.60302
 C308 C 0.20078 0.82445 0.61404
 H309 H 0.16682 0.78740 0.60970
 H310 H 0.21416 0.83393 0.61034
 H311 H 0.17451 0.82589 0.66735
 H312 H 0.15775 0.84289 0.65086
 N313 N 0.37064 0.68671 0.67192
 N314 N 0.37047 0.67227 0.68638
 C315 C 0.38670 0.67536 0.69929
 C316 C 0.39755 0.69268 0.69248
 C317 C 0.38692 0.69943 0.67513
 H318 H 0.39023 0.66585 0.71267
 H319 H 0.39079 0.71269 0.66557
 Cu320 Cu 0.34878 0.65112 0.68704
 Cu321 Cu 0.34986 0.68808 0.64998
 Cu322 Cu 0.31153 0.65030 0.65036
 N323 N 0.32746 0.62959 0.68656
 N324 N 0.31285 0.62960 0.67227
 C325 C 0.30006 0.61339 0.67548
 C326 C 0.30697 0.60260 0.69264
 C327 C 0.32443 0.61329 0.69936
 H328 H 0.28670 0.60963 0.66599
 H329 H 0.33411 0.60958 0.71258
 N330 N 0.31279 0.67247 0.62940
 N331 N 0.32746 0.68681 0.62911
 C332 C 0.32425 0.69945 0.61273
 C333 C 0.30670 0.69268 0.60227
 C334 C 0.29985 0.67564 0.61327
 H335 H 0.33391 0.71260 0.60877
 H336 H 0.28640 0.66623 0.60965
 H337 H 0.32636 0.67384 0.66649
 H338 H 0.34309 0.65678 0.65001
 N339 N 0.36980 0.18757 1.17278
 N340 N 0.36985 0.17277 1.18687
 C341 C 0.38655 0.17528 1.19930
 C342 C 0.39743 0.19262 1.19260
 C343 C 0.38636 0.19996 1.17576
 H344 H 0.39032 0.16543 1.21236
 H345 H 0.38998 0.21356 1.16658
 Cu346 Cu 0.34784 0.15191 1.18781
 Cu347 Cu 0.34770 0.19026 1.15234
 Cu348 Cu 0.30889 0.15330 1.15266
 N349 N 0.32648 0.13042 1.18669
 N350 N 0.31143 0.13101 1.17286
 C351 C 0.29876 0.11464 1.17573
 C352 C 0.30625 0.10311 1.19218
 C353 C 0.32391 0.11354 1.19880
 H354 H 0.28497 0.11140 1.16665
 H355 H 0.33397 0.10932 1.21158
 N356 N 0.31130 0.17456 1.13081
 N357 N 0.32618 0.18868 1.13066
 C358 C 0.32372 0.20093 1.11388
 C359 C 0.30654 0.19420 1.10295
 C360 C 0.29901 0.17742 1.11410
 H361 H 0.33364 0.21388 1.10985
 H362 H 0.28557 0.16805 1.11042
 H363 H 0.32458 0.17566 1.16931
 H364 H 0.34038 0.15887 1.15158
 N365 N 0.87032 0.68763 1.17330
 N366 N 0.86990 0.67354 1.18808
 C367 C 0.88625 0.67659 1.20085
 C368 C 0.89738 0.69355 1.19362
 C369 C 0.88681 0.70013 1.17618
 H370 H 0.88971 0.66726 1.21437
 H371 H 0.89087 0.71313 1.16634
 Cu372 Cu 0.84812 0.65253 1.18901
 Cu373 Cu 0.84955 0.68887 1.15143
 Cu374 Cu 0.80899 0.65361 1.15416
 N375 N 0.82696 0.63092 1.18810
 N376 N 0.81181 0.63130 1.17438
 C377 C 0.79933 0.61478 1.17740
 C378 C 0.80716 0.60340 1.19392
 C379 C 0.82465 0.61409 1.20031
 H380 H 0.78554 0.61148 1.16836
 H381 H 0.83481 0.60991 1.21304
 N382 N 0.81155 0.67435 1.13176
 N383 N 0.82706 0.68775 1.13077
 C384 C 0.82456 0.69979 1.11385
 C385 C 0.80675 0.69365 1.10364
 C386 C 0.79884 0.67745 1.11539
 H387 H 0.83490 0.71219 1.10922
 H388 H 0.78489 0.66861 1.11234
 H389 H 0.82612 0.67650 1.16923
 H390 H 0.84059 0.65779 1.15238
 N391 N 0.87054 0.18568 0.67292
 N392 N 0.86957 0.17146 0.68755
 C393 C 0.88565 0.17411 0.70071
 C394 C 0.89729 0.19081 0.69396
 C395 C 0.88723 0.19783 0.67627
 H396 H 0.88877 0.16464 0.71423
 H397 H 0.89153 0.21089 0.66665
 Cu398 Cu 0.84758 0.15073 0.68778
 Cu399 Cu 0.84998 0.18755 0.65076
 Cu400 Cu 0.80866 0.15304 0.65303
 N401 N 0.82598 0.12961 0.68680
 N402 N 0.81083 0.13056 0.67311
 C403 C 0.79788 0.11441 0.67604
 C404 C 0.80535 0.10266 0.69238
 C405 C 0.82324 0.11274 0.69887
 H406 H 0.78391 0.11153 0.66712
 H407 H 0.83335 0.10830 0.71153
 N408 N 0.81176 0.17385 0.63081
 N409 N 0.82752 0.18695 0.62990
 C410 C 0.82525 0.19910 0.61301
 C411 C 0.80731 0.19330 0.60275
 C412 C 0.79913 0.17721 0.61445
 H413 H 0.83580 0.21135 0.60844
 H414 H 0.78504 0.16861 0.61136
 H415 H 0.82634 0.17554 0.66832
 H416 H 0.84045 0.15674 0.65125
 N417 N 0.31299 0.36993 0.67330
 N418 N 0.32748 0.36945 0.68770
 C419 C 0.32484 0.38575 0.70054
 C420 C 0.30785 0.39702 0.69381
 C421 C 0.30067 0.38653 0.67646
 H422 H 0.33453 0.38930 0.71380
 H423 H 0.28751 0.39058 0.66682
 Cu424 Cu 0.34840 0.34769 0.68780
 Cu425 Cu 0.31130 0.34912 0.65137
 Cu426 Cu 0.34912 0.31047 0.65141
 N427 N 0.36967 0.32628 0.68784
 N428 N 0.36992 0.31176 0.67349
 C429 C 0.38634 0.29917 0.67677
 C430 C 0.39692 0.30625 0.69412
 C431 C 0.38590 0.32342 0.70074
 H432 H 0.39024 0.28595 0.66719
 H433 H 0.38962 0.33311 0.71393
 N434 N 0.32670 0.31203 0.63049
 N435 N 0.31232 0.32670 0.63054
 C436 C 0.29944 0.32368 0.61433
 C437 C 0.30603 0.30640 0.60351
 C438 C 0.32335 0.29934 0.61418
 H439 H 0.28625 0.33338 0.61049
 H440 H 0.33283 0.28601 0.61038
 H441 H 0.32567 0.32531 0.66749
 H442 H 0.34270 0.34187 0.65086
 N443 N 0.31315 0.87050 0.17264
 N444 N 0.32791 0.87041 0.18678
 C445 C 0.32516 0.88678 0.19958
 C446 C 0.30776 0.89765 0.19297
 C447 C 0.30057 0.88686 0.17592
 H448 H 0.33512 0.89060 0.21255
 H449 H 0.28700 0.89055 0.16673
 Cu450 Cu 0.34923 0.84888 0.18664
 Cu451 Cu 0.31150 0.84983 0.15064
 Cu452 Cu 0.34966 0.81176 0.14999
 N453 N 0.37063 0.82746 0.18621
 N454 N 0.37061 0.81299 0.17181
 C455 C 0.38696 0.80029 0.17483
 C456 C 0.39782 0.80710 0.19199
 C457 C 0.38702 0.82440 0.19891
 H458 H 0.39054 0.78686 0.16543
 H459 H 0.39088 0.83407 0.21207
 N460 N 0.32712 0.81320 0.12933
 N461 N 0.31251 0.82762 0.12966
 C462 C 0.29952 0.82453 0.11355
 C463 C 0.30630 0.80745 0.10252
 C464 C 0.32383 0.80061 0.11297
 H465 H 0.28615 0.83407 0.10991
 H466 H 0.33350 0.78747 0.10897
 H467 H 0.32639 0.82624 0.16677
 H468 H 0.34306 0.84318 0.14994
 N469 N 0.81316 0.37035 0.17416
 N470 N 0.82850 0.37047 0.18767
 C471 C 0.82644 0.38715 0.20014
 C472 C 0.80892 0.39803 0.19410
 C473 C 0.80083 0.38690 0.17756
 H474 H 0.83683 0.39113 0.21273
 H475 H 0.78697 0.39038 0.16872
 Cu476 Cu 0.84975 0.34892 0.18746
 Cu477 Cu 0.80995 0.34836 0.15366
 Cu478 Cu 0.84985 0.31232 0.15014
 N479 N 0.87072 0.32713 0.18676
 N480 N 0.87079 0.31303 0.17199
 C481 C 0.88704 0.30015 0.17489
 C482 C 0.89777 0.30655 0.19232
 C483 C 0.88699 0.32373 0.19951
 H484 H 0.89083 0.28708 0.16505
 H485 H 0.89068 0.33305 0.21298
 N486 N 0.82710 0.31414 0.12969
 N487 N 0.81179 0.32775 0.13110
 C488 C 0.79868 0.32493 0.11502
 C489 C 0.80604 0.30878 0.10297
 C490 C 0.82410 0.30228 0.11273
 H491 H 0.78473 0.33391 0.11223
 H492 H 0.83423 0.28976 0.10798
 H493 H 0.82718 0.32514 0.16833
 H494 H 0.84154 0.34346 0.15100
 N495 N 0.81311 0.87069 0.67343
 N496 N 0.82749 0.87017 0.68793
 C497 C 0.82466 0.88639 0.70085
 C498 C 0.80765 0.89762 0.69405
 C499 C 0.80068 0.88720 0.67659
 H500 H 0.83421 0.88984 0.71424
 H501 H 0.78756 0.89123 0.66690
 Cu502 Cu 0.84854 0.84845 0.68840
 Cu503 Cu 0.81162 0.85005 0.65145
 Cu504 Cu 0.84954 0.81172 0.65113
 N505 N 0.86998 0.82713 0.68771
 N506 N 0.87032 0.81284 0.67314
 C507 C 0.88676 0.80024 0.67628
 C508 C 0.89727 0.80705 0.69378
 C509 C 0.88619 0.82410 0.70062
 H510 H 0.89070 0.78715 0.66654
 H511 H 0.88977 0.83355 0.71402
 N512 N 0.82715 0.81334 0.63022
 N513 N 0.81268 0.82790 0.63045
 C514 C 0.79976 0.82495 0.61425
 C515 C 0.80642 0.80782 0.60326
 C516 C 0.82383 0.80077 0.61381
 H517 H 0.78648 0.83459 0.61057
 H518 H 0.83336 0.78751 0.60989
 H519 H 0.82608 0.82612 0.66754
 H520 H 0.84316 0.84308 0.65130
 N521 N 0.68752 0.62913 0.67158
 N522 N 0.67308 0.62899 0.68607
 C523 C 0.67627 0.61259 0.69865
 C524 C 0.69365 0.60193 0.69167
 C525 C 0.70038 0.61290 0.67452
 H526 H 0.66671 0.60876 0.71188
 H527 H 0.71374 0.60925 0.66496
 Cu528 Cu 0.65157 0.65025 0.68688
 Cu529 Cu 0.68849 0.65014 0.64984
 Cu530 Cu 0.64993 0.68786 0.65065
 N531 N 0.62986 0.67134 0.68706
 N532 N 0.62934 0.68597 0.67279
 C533 C 0.61286 0.69838 0.67629
 C534 C 0.60242 0.69116 0.69367
 C535 C 0.61366 0.67403 0.70009
 H536 H 0.60886 0.71174 0.66694
 H537 H 0.61019 0.66430 0.71329
 N538 N 0.67217 0.68709 0.62956
 N539 N 0.68681 0.67270 0.62924
 C540 C 0.69949 0.67622 0.61294
 C541 C 0.69246 0.69366 0.60251
 C542 C 0.67518 0.70015 0.61349
 H543 H 0.71281 0.66678 0.60898
 H544 H 0.66551 0.71342 0.60991
 H545 H 0.67378 0.67334 0.66660
 H546 H 0.65692 0.65654 0.64995
 N547 N 0.68759 0.12921 0.17352
 N548 N 0.67344 0.13022 0.18826
 C549 C 0.67604 0.11408 0.20133
 C550 C 0.69268 0.10237 0.19441
 C551 C 0.69968 0.11244 0.17672
 H552 H 0.66651 0.11091 0.21481
 H553 H 0.71256 0.10800 0.16688
 Cu554 Cu 0.65275 0.15222 0.18794
 Cu555 Cu 0.68926 0.14956 0.15106
 Cu556 Cu 0.65348 0.19011 0.15269
 N557 N 0.63091 0.17310 0.18730
 N558 N 0.63111 0.18779 0.17310
 C559 C 0.61447 0.20020 0.17583
 C560 C 0.60322 0.19281 0.19264
 C561 C 0.61408 0.17562 0.19951
 H562 H 0.61104 0.21368 0.16641
 H563 H 0.60999 0.16581 0.21252
 N564 N 0.67456 0.18720 0.13056
 N565 N 0.68820 0.17185 0.13000
 C566 C 0.70052 0.17430 0.11325
 C567 C 0.69429 0.19190 0.10272
 C568 C 0.67777 0.19972 0.11410
 H569 H 0.71319 0.16410 0.10896
 H570 H 0.66883 0.21354 0.11078
 H571 H 0.67678 0.17349 0.16767
 H572 H 0.65824 0.15855 0.15123
 N573 N 0.18750 0.62983 0.17247
 N574 N 0.17315 0.63023 0.18703
 C575 C 0.17613 0.61397 0.19992
 C576 C 0.19330 0.60291 0.19298
 C577 C 0.20008 0.61344 0.17560
 H578 H 0.16661 0.61053 0.21334
 H579 H 0.21325 0.60939 0.16594
 Cu580 Cu 0.15205 0.65202 0.18760
 Cu581 Cu 0.18894 0.65037 0.15040
 Cu582 Cu 0.15334 0.69063 0.15232
 N583 N 0.13041 0.67326 0.18648
 N584 N 0.13099 0.68821 0.17257
 C585 C 0.11467 0.70097 0.17550
 C586 C 0.10319 0.69367 0.19210
 C587 C 0.11360 0.67601 0.19873
 H588 H 0.11146 0.71471 0.16639
 H589 H 0.10945 0.66610 0.21163
 N590 N 0.17431 0.68797 0.13013
 N591 N 0.18793 0.67263 0.12949
 C592 C 0.20016 0.67506 0.11268
 C593 C 0.19391 0.69265 0.10217
 C594 C 0.17745 0.70051 0.11364
 H595 H 0.21276 0.66482 0.10831
 H596 H 0.16848 0.71431 0.11033
 H597 H 0.17621 0.67380 0.16783
 H598 H 0.15778 0.65907 0.15092
 N599 N 0.18724 0.12948 0.67096
 N600 N 0.17293 0.12937 0.68558
 C601 C 0.17620 0.11296 0.69818
 C602 C 0.19349 0.10225 0.69101
 C603 C 0.20008 0.11319 0.67377
 H604 H 0.16672 0.10913 0.71151
 H605 H 0.21325 0.10950 0.66398
 Cu606 Cu 0.15141 0.15067 0.68627
 Cu607 Cu 0.18804 0.15053 0.64917
 Cu608 Cu 0.14951 0.18839 0.65038
 N609 N 0.12974 0.17183 0.68694
 N610 N 0.12911 0.18648 0.67271
 C611 C 0.11261 0.19885 0.67629
 C612 C 0.10231 0.19156 0.69372
 C613 C 0.11362 0.17444 0.70009
 H614 H 0.10848 0.21211 0.66686
 H615 H 0.11021 0.16461 0.71327
 N616 N 0.17154 0.18758 0.62908
 N617 N 0.18613 0.17314 0.62856
 C618 C 0.19863 0.17669 0.61213
 C619 C 0.19154 0.19420 0.60185
 C620 C 0.17442 0.20070 0.61303
 H621 H 0.21192 0.16726 0.60803
 H622 H 0.16477 0.21403 0.60961
 H623 H 0.17348 0.17374 0.66589
 H624 H 0.15651 0.15708 0.64932
 N625 N 0.31323 0.62899 0.32654
 N626 N 0.32796 0.62963 0.31234
 C627 C 0.32533 0.61366 0.29913
 C628 C 0.30825 0.60231 0.30552
 C629 C 0.30090 0.61252 0.32296
 H630 H 0.33528 0.61024 0.28606
 H631 H 0.28755 0.60839 0.33232
 Cu632 Cu 0.34913 0.65117 0.31303
 Cu633 Cu 0.31129 0.64923 0.34893
 Cu634 Cu 0.34914 0.68769 0.35018
 N635 N 0.37032 0.67270 0.31371
 N636 N 0.37016 0.68697 0.32834
 C637 C 0.38643 0.69980 0.32555
 C638 C 0.39737 0.69328 0.30829
 C639 C 0.38666 0.67608 0.30106
 H640 H 0.39007 0.71300 0.33529
 H641 H 0.39057 0.66659 0.28782
 N642 N 0.32654 0.68568 0.37082
 N643 N 0.31209 0.67113 0.37028
 C644 C 0.29896 0.67395 0.38635
 C645 C 0.30548 0.69100 0.39755
 C646 C 0.32300 0.69811 0.38726
 H647 H 0.28561 0.66432 0.38978
 H648 H 0.33246 0.71134 0.39137
 H649 H 0.32594 0.67319 0.33343
 H650 H 0.34267 0.65623 0.35002
 N651 N 0.31162 0.13063 0.82646
 N652 N 0.32676 0.13047 0.81270
 C653 C 0.32447 0.11383 0.80023
 C654 C 0.30698 0.10304 0.80648
 C655 C 0.29917 0.11414 0.82319
 H656 H 0.33466 0.10981 0.78748
 H657 H 0.28540 0.11070 0.83220
 Cu658 Cu 0.34797 0.15204 0.81281
 Cu659 Cu 0.30879 0.15271 0.84706
 Cu660 Cu 0.34895 0.18867 0.84964
 N661 N 0.36951 0.17327 0.81299
 N662 N 0.36975 0.18750 0.82763
 C663 C 0.38619 0.20008 0.82468
 C664 C 0.39688 0.19340 0.80734
 C665 C 0.38589 0.17631 0.80024
 H666 H 0.39014 0.21315 0.83445
 H667 H 0.38952 0.16682 0.78688
 N668 N 0.32634 0.18725 0.87029
 N669 N 0.31106 0.17356 0.86944
 C670 C 0.29826 0.17662 0.88577
 C671 C 0.30590 0.19308 0.89733
 C672 C 0.32362 0.19940 0.88706
 H673 H 0.28441 0.16764 0.88891
 H674 H 0.33372 0.21204 0.89155
 H675 H 0.32567 0.17584 0.83222
 H676 H 0.34032 0.15756 0.84930
 N677 N 0.81273 0.62913 0.82692
 N678 N 0.82746 0.62916 0.81273
 C679 C 0.82454 0.61293 0.79985
 C680 C 0.80707 0.60217 0.80641
 C681 C 0.79997 0.61291 0.82356
 H682 H 0.83443 0.60920 0.78676
 H683 H 0.78653 0.60913 0.83294
 Cu684 Cu 0.84892 0.65053 0.81295
 Cu685 Cu 0.81132 0.64973 0.84904
 Cu686 Cu 0.84977 0.68762 0.84962
 N687 N 0.87037 0.67187 0.81314
 N688 N 0.87063 0.68629 0.82761
 C689 C 0.88705 0.69891 0.82440
 C690 C 0.89761 0.69198 0.80695
 C691 C 0.88656 0.67489 0.80021
 H692 H 0.89087 0.71211 0.83403
 H693 H 0.89023 0.66531 0.78688
 N694 N 0.82724 0.68620 0.87047
 N695 N 0.81258 0.67184 0.87014
 C696 C 0.79961 0.67496 0.88629
 C697 C 0.80642 0.69199 0.89734
 C698 C 0.82398 0.69880 0.88687
 H699 H 0.78619 0.66551 0.88991
 H700 H 0.83365 0.71191 0.89087
 H701 H 0.82636 0.67332 0.83317
 H702 H 0.84287 0.65636 0.84991
 N703 N 0.81250 0.12918 0.32615
 N704 N 0.82675 0.12986 0.31149
 C705 C 0.82402 0.11365 0.29857
 C706 C 0.80723 0.10223 0.30552
 C707 C 0.80024 0.11254 0.32306
 H708 H 0.83359 0.11022 0.28517
 H709 H 0.78729 0.10833 0.33289
 Cu710 Cu 0.84768 0.15157 0.31149
 Cu711 Cu 0.81108 0.14967 0.34840
 Cu712 Cu 0.84926 0.18794 0.34859
 N713 N 0.86928 0.17260 0.31159
 N714 N 0.86989 0.18676 0.32629
 C715 C 0.88649 0.19913 0.32316
 C716 C 0.89682 0.19228 0.30555
 C717 C 0.88547 0.17547 0.29862
 H718 H 0.89065 0.21207 0.33300
 H719 H 0.88893 0.16601 0.28518
 N720 N 0.82696 0.18630 0.36967
 N721 N 0.81242 0.17181 0.36952
 C722 C 0.79957 0.17486 0.38577
 C723 C 0.80633 0.19200 0.39669
 C724 C 0.82373 0.19892 0.38605
 H725 H 0.78623 0.16533 0.38950
 H726 H 0.83329 0.21216 0.38988
 H727 H 0.82540 0.17370 0.33265
 H728 H 0.84251 0.15661 0.34861
 N729 N 0.68774 0.37011 0.32701
 N730 N 0.67318 0.37017 0.31266
 C731 C 0.67631 0.38646 0.29986
 C732 C 0.69379 0.39709 0.30663
 C733 C 0.70062 0.38626 0.32382
 H734 H 0.66665 0.39026 0.28666
 H735 H 0.71394 0.38997 0.33338
 Cu736 Cu 0.65148 0.34904 0.31252
 Cu737 Cu 0.68880 0.34935 0.34898
 Cu738 Cu 0.65041 0.31153 0.34887
 N739 N 0.63019 0.32752 0.31233
 N740 N 0.62982 0.31298 0.32668
 C741 C 0.61353 0.30033 0.32321
 C742 C 0.60309 0.30733 0.30574
 C743 C 0.61411 0.32457 0.29923
 H744 H 0.60964 0.28707 0.33273
 H745 H 0.61056 0.33421 0.28592
 N746 N 0.67263 0.31273 0.36999
 N747 N 0.68728 0.32710 0.36993
 C748 C 0.70007 0.32384 0.38616
 C749 C 0.69317 0.30670 0.39699
 C750 C 0.67573 0.29998 0.38632
 H751 H 0.71347 0.33325 0.38996
 H752 H 0.66606 0.28679 0.39010
 H753 H 0.67393 0.32604 0.33257
 H754 H 0.65728 0.34279 0.34943
 N755 N 0.68740 0.87010 0.82738
 N756 N 0.67339 0.86938 0.81250
 C757 C 0.67637 0.88552 0.79953
 C758 C 0.69311 0.89693 0.80662
 C759 C 0.69978 0.88670 0.82435
 H760 H 0.66705 0.88888 0.78596
 H761 H 0.71265 0.89091 0.83429
 Cu762 Cu 0.65231 0.84775 0.81233
 Cu763 Cu 0.68859 0.84941 0.84962
 Cu764 Cu 0.65264 0.80912 0.84676
 N765 N 0.63039 0.82693 0.81235
 N766 N 0.63046 0.81195 0.82624
 C767 C 0.61380 0.79967 0.82319
 C768 C 0.60265 0.80742 0.80647
 C769 C 0.61363 0.82470 0.79999
 H770 H 0.61027 0.78604 0.83233
 H771 H 0.60964 0.83480 0.78717
 N772 N 0.67344 0.81143 0.86917
 N773 N 0.68704 0.82676 0.87032
 C774 C 0.69908 0.82389 0.88722
 C775 C 0.69268 0.80592 0.89717
 C776 C 0.67642 0.79848 0.88533
 H777 H 0.71165 0.83403 0.89182
 H778 H 0.66751 0.78456 0.88830
 H779 H 0.67619 0.82605 0.83233
 H780 H 0.65755 0.84071 0.84897
 N781 N 0.18760 0.37009 0.82723
 N782 N 0.17344 0.36984 0.81250
 C783 C 0.17669 0.38608 0.79969
 C784 C 0.19383 0.39700 0.80684
 C785 C 0.20034 0.38639 0.82428
 H786 H 0.16732 0.38963 0.78621
 H787 H 0.21341 0.39031 0.83411
 Cu788 Cu 0.15205 0.34842 0.81161
 Cu789 Cu 0.18846 0.34945 0.84923
 Cu790 Cu 0.15216 0.30982 0.84690
 N791 N 0.13008 0.32759 0.81244
 N792 N 0.13009 0.31269 0.82641
 C793 C 0.11349 0.30035 0.82331
 C794 C 0.10244 0.30794 0.80646
 C795 C 0.11342 0.32521 0.79996
 H796 H 0.10996 0.28674 0.83249
 H797 H 0.10959 0.33515 0.78697
 N798 N 0.17298 0.31202 0.86927
 N799 N 0.18684 0.32713 0.87003
 C800 C 0.19895 0.32441 0.88686
 C801 C 0.19241 0.30687 0.89724
 C802 C 0.17587 0.29934 0.88570
 H803 H 0.21172 0.33440 0.89130
 H804 H 0.16672 0.28564 0.88890
 H805 H 0.17555 0.32621 0.83169
 H806 H 0.15715 0.34130 0.84835
 N807 N 0.18978 0.86899 0.32647
 N808 N 0.17487 0.86973 0.31251
 C809 C 0.17763 0.88662 0.30046
 C810 C 0.19527 0.89694 0.30727
 C811 C 0.20257 0.88531 0.32375
 H812 H 0.16764 0.89097 0.28768
 H813 H 0.21625 0.88846 0.33302
 Cu814 Cu 0.15341 0.84843 0.31185
 Cu815 Cu 0.19184 0.84656 0.34673
 Cu816 Cu 0.15093 0.81137 0.34826
 N817 N 0.13157 0.82753 0.31127
 N818 N 0.13063 0.81322 0.32582
 C819 C 0.11400 0.80102 0.32240
 C820 C 0.10394 0.80807 0.30474
 C821 C 0.11552 0.82488 0.29807
 H822 H 0.10965 0.78802 0.33209
 H823 H 0.11232 0.83448 0.28466
 N824 N 0.17318 0.81216 0.36935
 N825 N 0.18872 0.82555 0.36880
 C826 C 0.20117 0.82223 0.38530
 C827 C 0.19309 0.80588 0.39670
 C828 C 0.17542 0.79988 0.38614
 H829 H 0.21509 0.83101 0.38867
 H830 H 0.16501 0.78741 0.39044
 H831 H 0.17469 0.82387 0.33138
 H832 H 0.16011 0.84227 0.34840
 O833 O 0.25176 1.02020 0.22313
 O834 O 0.22494 0.97920 0.25264
 O835 O 0.22365 1.01984 0.25203
 O836 O 0.25261 0.97971 0.22341
 O837 O 0.27714 0.98005 0.24742
 O838 O 0.24864 1.02110 0.27553
 O839 O 0.24939 0.98042 0.27670
 O840 O 0.27667 1.02079 0.24674
 Cu841 Cu 0.23574 0.99965 0.23546
 Cu842 Cu 0.26545 1.00066 0.26399
 C843 C 0.26868 1.02763 0.23004
 C844 C 0.23272 0.97265 0.26957
 C845 C 0.23138 1.02763 0.26840
 C846 C 0.26960 0.97278 0.23068
 O847 O 0.25221 0.51963 0.72295
 O848 O 0.22447 0.47882 0.75193
 O849 O 0.22309 0.51944 0.75095
 O850 O 0.25314 0.47902 0.72388
 O851 O 0.27721 0.48029 0.74831
 O852 O 0.24714 0.52071 0.77541
 O853 O 0.24838 0.48015 0.77653
 O854 O 0.27611 0.52092 0.74755
 Cu855 Cu 0.23582 0.49914 0.73496
 Cu856 Cu 0.26461 0.50063 0.76441
 C857 C 0.26873 0.52742 0.73044
 C858 C 0.23189 0.47231 0.76903
 C859 C 0.23013 0.52716 0.76766
 C860 C 0.27012 0.47253 0.73163
 O861 O 0.75320 -0.02133 0.27635
 O862 O 0.72337 0.01950 0.24957
 O863 O 0.72332 -0.02101 0.24944
 O864 O 0.75337 0.01943 0.27634
 O865 O 0.77662 0.01930 0.25106
 O866 O 0.74657 -0.02112 0.22417
 O867 O 0.74660 0.01958 0.22428
 O868 O 0.77644 -0.02127 0.25107
 Cu869 Cu 0.73604 -0.00085 0.26552
 Cu870 Cu 0.76386 -0.00088 0.23507
 C871 C 0.76969 -0.02851 0.26813
 C872 C 0.73008 0.02671 0.23249
 C873 C 0.73002 -0.02817 0.23234
 C874 C 0.76991 0.02650 0.26813
 O875 O 0.77633 0.51968 0.75207
 O876 O 0.74753 0.47859 0.72434
 O877 O 0.74850 0.51920 0.72290
 O878 O 0.77632 0.47887 0.75233
 O879 O 0.75173 0.47935 0.77630
 O880 O 0.72434 0.52044 0.74727
 O881 O 0.72285 0.47983 0.74818
 O882 O 0.75210 0.51989 0.77642
 Cu883 Cu 0.76463 0.49903 0.73550
 Cu884 Cu 0.73530 0.49996 0.76444
 C885 C 0.76894 0.52691 0.76892
 C886 C 0.73037 0.47206 0.73170
 C887 C 0.73189 0.52696 0.73021
 C888 C 0.76856 0.47192 0.76909
 O889 O 0.25379 0.47957 0.27451
 O890 O 0.22477 0.52047 0.24681
 O891 O 0.22486 0.47975 0.24662
 O892 O 0.25411 0.52030 0.27429
 O893 O 0.27794 0.52014 0.24957
 O894 O 0.24860 0.47984 0.22179
 O895 O 0.24853 0.52030 0.22201
 O896 O 0.27759 0.47956 0.24976
 Cu897 Cu 0.23700 0.50003 0.26307
 Cu898 Cu 0.26555 0.49996 0.23331
 C899 C 0.27047 0.47239 0.26670
 C900 C 0.23188 0.52753 0.22979
 C901 C 0.23193 0.47271 0.22958
 C902 C 0.27085 0.52734 0.26649
 O903 O 0.75092 1.01964 0.72239
 O904 O 0.72230 0.97964 0.75141
 O905 O 0.72220 1.02029 0.75073
 O906 O 0.75186 0.97913 0.72406
 O907 O 0.77595 0.98049 0.74847
 O908 O 0.74589 1.02085 0.77556
 O909 O 0.74640 0.98003 0.77585
 O910 O 0.77450 1.02099 0.74730
 Cu911 Cu 0.73442 0.99958 0.73469
 Cu912 Cu 0.76303 1.00068 0.76431
 C913 C 0.76736 1.02739 0.73003
 C914 C 0.72966 0.97268 0.76831
 C915 C 0.72920 1.02780 0.76757
 C916 C 0.76888 0.97270 0.73182
 O917 O 0.75314 0.52062 0.22451
 O918 O 0.72477 0.47934 0.25235
 O919 O 0.72334 0.52000 0.25159
 O920 O 0.75395 0.47986 0.22469
 O921 O 0.77730 0.48041 0.24984
 O922 O 0.74713 0.52125 0.27630
 O923 O 0.74799 0.48062 0.27759
 O924 O 0.77691 0.52096 0.24927
 Cu925 Cu 0.73646 0.49986 0.23576
 Cu926 Cu 0.76466 0.50088 0.26577
 C927 C 0.76975 0.52798 0.23230
 C928 C 0.73172 0.47281 0.26964
 C929 C 0.73024 0.52776 0.26833
 C930 C 0.77060 0.47300 0.23284
 O931 O 0.24836 -0.02051 0.72328
 O932 O 0.27743 0.01976 0.75155
 O933 O 0.27644 -0.02098 0.75209
 O934 O 0.24927 0.01997 0.72268
 O935 O 0.22450 0.02065 0.74646
 O936 O 0.25214 -0.01975 0.77632
 O937 O 0.25259 0.02099 0.77523
 O938 O 0.22401 -0.02009 0.74750
 Cu939 Cu 0.26536 -0.00052 0.73504
 Cu940 Cu 0.23585 0.00054 0.76378
 C941 C 0.23145 -0.02743 0.73075
 C942 C 0.26976 0.02756 0.76796
 C943 C 0.26877 -0.02756 0.76906
 C944 C 0.23236 0.02743 0.72965
 O945 O 0.27651 0.24893 1.02009
 O946 O 0.24767 0.27715 0.97963
 O947 O 0.24789 0.27729 1.02015
 O948 O 0.27615 0.24861 0.97957
 O949 O 0.25181 0.22440 0.97972
 O950 O 0.22365 0.25300 1.02054
 O951 O 0.22341 0.25287 0.97976
 O952 O 0.25221 0.22470 1.02049
 Cu953 Cu 0.26448 0.26542 0.99982
 Cu954 Cu 0.23532 0.23630 1.00016
 C955 C 0.26913 0.23220 1.02743
 C956 C 0.23083 0.26969 0.97256
 C957 C 0.23114 0.26988 1.02750
 C958 C 0.26865 0.23181 0.97249
 O959 O 0.22326 0.75218 0.52100
 O960 O 0.24976 0.72238 0.47997
 O961 O 0.25069 0.72275 0.52048
 O962 O 0.22188 0.75150 0.48036
 O963 O 0.24706 0.77479 0.47900
 O964 O 0.27537 0.74660 0.51997
 O965 O 0.27483 0.74580 0.47930
 O966 O 0.24789 0.77604 0.51963
 Cu967 Cu 0.23387 0.73486 0.50055
 Cu968 Cu 0.26380 0.76317 0.49939
 C969 C 0.23119 0.76906 0.52749
 C970 C 0.26673 0.72916 0.47248
 C971 C 0.26773 0.72994 0.52733
 C972 C 0.22976 0.76779 0.47252
 O973 O 0.27727 0.75272 -0.02078
 O974 O 0.24942 0.72333 0.01968
 O975 O 0.24975 0.72340 -0.02095
 O976 O 0.27669 0.75290 0.02001
 O977 O 0.25163 0.77639 0.01962
 O978 O 0.22467 0.74687 -0.02125
 O979 O 0.22439 0.74684 0.01958
 O980 O 0.25222 0.77621 -0.02091
 Cu981 Cu 0.26582 0.73576 -0.00048
 Cu982 Cu 0.23568 0.76388 -0.00078
 C983 C 0.26932 0.76930 -0.02797
 C984 C 0.23235 0.73027 0.02679
 C985 C 0.23278 0.73031 -0.02832
 C986 C 0.26859 0.76950 0.02701
 O987 O 0.22337 0.24945 0.47909
 O988 O 0.25197 0.27787 0.51962
 O989 O 0.25252 0.27715 0.47894
 O990 O 0.22278 0.25007 0.51965
 O991 O 0.24642 0.22516 0.52011
 O992 O 0.27661 0.25269 0.48005
 O993 O 0.27546 0.25285 0.52073
 O994 O 0.24743 0.22494 0.47937
 Cu995 Cu 0.23530 0.26613 0.49926
 Cu996 Cu 0.26386 0.23642 0.50012
 C997 C 0.23072 0.23257 0.47204
 C998 C 0.26833 0.27001 0.52739
 C999 C 0.26949 0.26941 0.47238
 C1000 C 0.22967 0.23311 0.52699
 O1001 O 0.75160 0.72270 0.98050
 O1002 O 0.72419 0.75236 1.02107
 O1003 O 0.72299 0.75123 0.98044
 O1004 O 0.75224 0.72370 1.02120
 O1005 O 0.77674 0.74770 1.01989
 O1006 O 0.74745 0.77527 0.97913
 O1007 O 0.74852 0.77653 1.01977
 O1008 O 0.77590 0.74689 0.97920
 Cu1009 Cu 0.73531 0.73508 1.00089
 Cu1010 Cu 0.76460 0.76400 0.99938
 C1011 C 0.76826 0.72990 0.97271
 C1012 C 0.73188 0.76933 1.02758
 C1013 C 0.73035 0.76778 0.97264
 C1014 C 0.76929 0.73121 1.02776
 O1015 O 0.77747 0.24777 0.51934
 O1016 O 0.74853 0.27637 0.47920
 O1017 O 0.74899 0.27633 0.51976
 O1018 O 0.77616 0.24710 0.47867
 O1019 O 0.75183 0.22293 0.47985
 O1020 O 0.72419 0.25261 0.52020
 O1021 O 0.72412 0.25224 0.47940
 O1022 O 0.75257 0.22418 0.52055
 Cu1023 Cu 0.76526 0.26426 0.49917
 Cu1024 Cu 0.73570 0.23560 0.50005
 C1025 C 0.76978 0.23137 0.52712
 C1026 C 0.73164 0.26902 0.47216
 C1027 C 0.73208 0.26930 0.52716
 C1028 C 0.76848 0.23014 0.47209
 O1029 O 0.72422 0.24672 -0.02029
 O1030 O 0.75082 0.27701 0.02033
 O1031 O 0.75107 0.27670 -0.02024
 O1032 O 0.72423 0.24684 0.02052
 O1033 O 0.74976 0.22386 0.02056
 O1034 O 0.77659 0.25371 -0.02016
 O1035 O 0.77635 0.25405 0.02060
 O1036 O 0.74976 0.22376 -0.02005
 Cu1037 Cu 0.73498 0.26407 0.00006
 Cu1038 Cu 0.76571 0.23658 0.00026
 C1039 C 0.73260 0.23028 -0.02734
 C1040 C 0.76798 0.27051 0.02762
 C1041 C 0.76826 0.27010 -0.02737
 C1042 C 0.73258 0.23045 0.02772
 O1043 O 0.77626 0.75353 0.48003
 O1044 O 0.74783 0.72529 0.52109
 O1045 O 0.74918 0.72371 0.48050
 O1046 O 0.77623 0.75370 0.52085
 O1047 O 0.75125 0.77726 0.52031
 O1048 O 0.72459 0.74766 0.47920
 O1049 O 0.72277 0.74874 0.51976
 O1050 O 0.75163 0.77746 0.47970
 Cu1051 Cu 0.76489 0.73671 0.50070
 Cu1052 Cu 0.73507 0.76514 0.49965
 C1053 C 0.76861 0.77023 0.47272
 C1054 C 0.73050 0.73237 0.52754
 C1055 C 0.73247 0.73072 0.47272
 C1056 C 0.76818 0.77033 0.52778
 O1057 O 0.98058 0.25151 0.22222
 O1058 O 1.02052 0.22244 0.25092
 O1059 O 0.97989 0.22276 0.25046
 O1060 O 1.02124 0.25220 0.22394
 O1061 O 1.01998 0.27612 0.24848
 O1062 O 0.97943 0.24623 0.27546
 O1063 O 1.02027 0.24634 0.27551
 O1064 O 0.97932 0.27486 0.24731
 Cu1065 Cu 1.00062 0.23488 0.23438
 Cu1066 Cu 0.99967 0.26324 0.26421
 C1067 C 0.97287 0.26790 0.22999
 C1068 C 1.02753 0.22963 0.26786
 C1069 C 0.97246 0.22964 0.26740
 C1070 C 1.02780 0.26908 0.23183
 O1071 O 0.47959 0.25250 0.72475
 O1072 O 0.52001 0.22318 0.75264
 O1073 O 0.47931 0.22400 0.75297
 O1074 O 0.52044 0.25212 0.72462
 O1075 O 0.52048 0.27636 0.74887
 O1076 O 0.48020 0.24775 0.77768
 O1077 O 0.52091 0.24746 0.77683
 O1078 O 0.47985 0.27638 0.74935
 Cu1079 Cu 0.49981 0.23555 0.73627
 Cu1080 Cu 0.50040 0.26439 0.76565
 C1081 C 0.47254 0.26922 0.73250
 C1082 C 0.52760 0.23048 0.76930
 C1083 C 0.47260 0.23124 0.77007
 C1084 C 0.52760 0.26895 0.73205
 O1085 O -0.02056 0.22247 0.75024
 O1086 O 0.02059 0.25236 0.77656
 O1087 O -0.02016 0.25193 0.77776
 O1088 O 0.02008 0.22241 0.74979
 O1089 O 0.01991 0.24593 0.72483
 O1090 O -0.02125 0.27491 0.75232
 O1091 O 0.01953 0.27591 0.75165
 O1092 O -0.02089 0.24558 0.72490
 Cu1093 Cu 0.00003 0.23499 0.76614
 Cu1094 Cu -0.00073 0.26290 0.73588
 C1095 C -0.02788 0.22908 0.73316
 C1096 C 0.02725 0.26909 0.76846
 C1097 C -0.02786 0.26818 0.76967
 C1098 C 0.02714 0.22934 0.73274
 O1099 O 0.52115 0.25223 0.27481
 O1100 O 0.47955 0.22375 0.24742
 O1101 O 0.52029 0.22301 0.24717
 O1102 O 0.48044 0.25211 0.27597
 O1103 O 0.47948 0.27563 0.25101
 O1104 O 0.52089 0.24746 0.22311
 O1105 O 0.48018 0.24728 0.22247
 O1106 O 0.52020 0.27666 0.25075
 Cu1107 Cu 0.50038 0.23537 0.26381
 Cu1108 Cu 0.50015 0.26416 0.23438
 C1109 C 0.52785 0.26925 0.26733
 C1110 C 0.47273 0.23078 0.23026
 C1111 C 0.52772 0.23046 0.23050
 C1112 C 0.47284 0.26856 0.26822
 O1113 O 0.97989 0.74678 0.77606
 O1114 O 1.02103 0.77543 0.74816
 O1115 O 0.98027 0.77619 0.74854
 O1116 O 1.02076 0.74660 0.77610
 O1117 O 1.02063 0.72306 0.75117
 O1118 O 0.97943 0.75218 0.72407
 O1119 O 1.02016 0.75201 0.72312
 O1120 O 0.97999 0.72284 0.75151
 Cu1121 Cu 1.00051 0.76362 0.76472
 Cu1122 Cu 1.00003 0.73517 0.73498
 C1123 C 0.97278 0.73003 0.76839
 C1124 C 1.02774 0.76843 0.73094
 C1125 C 0.97268 0.76905 0.73181
 C1126 C 1.02788 0.73000 0.76814
 O1127 O 0.48008 0.75202 0.22422
 O1128 O 0.52024 0.72461 0.25435
 O1129 O 0.47947 0.72462 0.25374
 O1130 O 0.52079 0.75224 0.22528
 O1131 O 0.51979 0.77741 0.24855
 O1132 O 0.47929 0.74931 0.27753
 O1133 O 0.51990 0.74966 0.27776
 O1134 O 0.47907 0.77666 0.24804
 Cu1135 Cu 0.50018 0.73586 0.23704
 Cu1136 Cu 0.49946 0.76578 0.26532
 C1137 C 0.47248 0.76883 0.23117
 C1138 C 0.52719 0.73264 0.27097
 C1139 C 0.47223 0.73236 0.27040
 C1140 C 0.52748 0.76946 0.23223
 O1141 O -0.01990 0.77779 0.25044
 O1142 O 0.02053 0.74904 0.22189
 O1143 O -0.02007 0.74894 0.22236
 O1144 O 0.02074 0.77810 0.24973
 O1145 O 0.02124 0.75419 0.27432
 O1146 O -0.01984 0.72510 0.24703
 O1147 O 0.02103 0.72518 0.24654
 O1148 O -0.01959 0.75388 0.27504
 Cu1149 Cu 0.00027 0.76585 0.23364
 Cu1150 Cu 0.00076 0.73719 0.26322
 C1151 C -0.02686 0.77059 0.26743
 C1152 C 0.02789 0.73238 0.22948
 C1153 C -0.02714 0.73226 0.23013
 C1154 C 0.02818 0.77095 0.26653
 O1155 O 0.52084 0.74699 0.72413
 O1156 O 0.47952 0.77696 0.75028
 O1157 O 0.52022 0.77689 0.75096
 O1158 O 0.48016 0.74764 0.72261
 O1159 O 0.47885 0.72455 0.74794
 O1160 O 0.51988 0.75330 0.77586
 O1161 O 0.47897 0.75376 0.77554
 O1162 O 0.51959 0.72336 0.74896
 Cu1163 Cu 0.50026 0.76444 0.73448
 Cu1164 Cu 0.49923 0.73643 0.76462
 C1165 C 0.52742 0.73020 0.73220
 C1166 C 0.47203 0.77030 0.76728
 C1167 C 0.52721 0.76988 0.76800
 C1168 C 0.47242 0.73135 0.73054
 C1169 C 0.41625 0.29669 0.29710
 C1170 C 0.42635 0.30438 0.28057
 C1171 C 0.44477 0.29453 0.27083
 C1172 C 0.45577 0.27899 0.27933
 H1173 H 0.42054 0.31825 0.27308
 H1174 H 0.44925 0.30043 0.25572
 H1175 H 0.42139 0.28254 0.30449
 H1176 H 0.45193 0.27303 0.29454
 C1177 C 0.41573 0.80044 0.79616
 C1178 C 0.42596 0.78373 0.80341
 C1179 C 0.44451 0.77417 0.79360
 C1180 C 0.45471 0.78173 0.77705
 H1181 H 0.42043 0.77595 0.81724
 H1182 H 0.44969 0.75970 0.80043
 H1183 H 0.42108 0.80823 0.78228
 H1184 H 0.45003 0.79615 0.76985
 C1185 C -0.08472 0.29672 0.79783
 C1186 C -0.07455 0.30412 0.78120
 C1187 C -0.05609 0.29408 0.77169
 C1188 C -0.04502 0.27878 0.78054
 H1189 H -0.08036 0.31785 0.77345
 H1190 H -0.05160 0.29968 0.75647
 H1191 H -0.07959 0.28268 0.80545
 H1192 H -0.04886 0.27313 0.79587
 C1193 C -0.08330 0.79925 0.29648
 C1194 C -0.07262 0.78310 0.30420
 C1195 C -0.05418 0.77358 0.29416
 C1196 C -0.04395 0.78169 0.27789
 H1197 H -0.07796 0.77570 0.31832
 H1198 H -0.04904 0.75888 0.30055
 H1199 H -0.07859 0.80660 0.28215
 H1200 H -0.04849 0.79645 0.27133
 C1201 C 0.58322 0.70377 0.30076
 C1202 C 0.57295 0.69624 0.28429
 C1203 C 0.55448 0.70609 0.27469
 C1204 C 0.54431 0.72260 0.28237
 H1205 H 0.57858 0.68233 0.27675
 H1206 H 0.54932 0.69934 0.26017
 H1207 H 0.57809 0.71776 0.30845
 H1208 H 0.54892 0.72962 0.29688
 C1209 C 0.58437 0.20153 0.79722
 C1210 C 0.57370 0.21749 0.80533
 C1211 C 0.55525 0.22721 0.79555
 C1212 C 0.54473 0.21920 0.77945
 H1213 H 0.57909 0.22462 0.81955
 H1214 H 0.55033 0.24193 0.80204
 H1215 H 0.57963 0.19451 0.78274
 H1216 H 0.54899 0.20436 0.77289
 C1217 C 1.08437 0.70077 0.79673
 C1218 C 1.07411 0.71730 0.80420
 C1219 C 1.05545 0.72671 0.79448
 C1220 C 1.04516 0.71881 0.77816
 H1221 H 1.07997 0.72510 0.81787
 H1222 H 1.05028 0.74129 0.80110
 H1223 H 1.07909 0.69291 0.78291
 H1224 H 1.04979 0.70426 0.77122
 C1225 C 1.08456 0.20126 0.29582
 C1226 C 1.07383 0.21725 0.30383
 C1227 C 1.05523 0.22676 0.29412
 C1228 C 1.04470 0.21854 0.27814
 H1229 H 1.07925 0.22457 0.31794
 H1230 H 1.05023 0.24150 0.30050
 H1231 H 1.07978 0.19403 0.28147
 H1232 H 1.04911 0.20372 0.27163
 C1233 C 0.58386 0.29798 0.70292
 C1234 C 0.57379 0.28124 0.69567
 C1235 C 0.55526 0.27174 0.70560
 C1236 C 0.54475 0.27999 0.72162
 H1237 H 0.57970 0.27338 0.68204
 H1238 H 0.55036 0.25689 0.69942
 H1239 H 0.57853 0.30590 0.71671
 H1240 H 0.54910 0.29484 0.72805
 C1241 C 0.58443 0.79744 0.20383
 C1242 C 0.57416 0.78094 0.19636
 C1243 C 0.55570 0.77148 0.20638
 C1244 C 0.54470 0.78030 0.22176
 H1245 H 0.57986 0.77326 0.18255
 H1246 H 0.55114 0.75633 0.20068
 H1247 H 0.57940 0.80500 0.21793
 H1248 H 0.54862 0.79555 0.22752
 C1249 C 1.08431 0.29900 0.20406
 C1250 C 1.07422 0.28248 0.19638
 C1251 C 1.05579 0.27265 0.20602
 C1252 C 1.04504 0.28051 0.22204
 H1253 H 1.08002 0.27502 0.18250
 H1254 H 1.05109 0.25790 0.19947
 H1255 H 1.07909 0.30651 0.21812
 H1256 H 1.04918 0.29529 0.22882
 C1257 C 1.08445 0.79680 0.70226
 C1258 C 1.07441 0.80421 0.71896
 C1259 C 1.05592 0.79432 0.72857
 C1260 C 1.04486 0.77891 0.71993
 H1261 H 1.08030 0.81791 0.72668
 H1262 H 1.05148 0.80005 0.74376
 H1263 H 1.07918 0.78284 0.69462
 H1264 H 1.04870 0.77307 0.70467
 C1265 C 0.41620 0.70263 0.70136
 C1266 C 0.42611 0.69525 0.71815
 C1267 C 0.44437 0.70532 0.72798
 C1268 C 0.45544 0.72078 0.71941
 H1269 H 0.42024 0.68149 0.72579
 H1270 H 0.44867 0.69964 0.74323
 H1271 H 0.42142 0.71665 0.69379
 H1272 H 0.45176 0.72654 0.70409
 C1273 C 0.41628 0.20231 0.20134
 C1274 C 0.42641 0.19466 0.21789
 C1275 C 0.44480 0.20459 0.22765
 C1276 C 0.45566 0.22026 0.21922
 H1277 H 0.42061 0.18079 0.22539
 H1278 H 0.44934 0.19866 0.24273
 H1279 H 0.42141 0.21646 0.19394
 H1280 H 0.45172 0.22629 0.20407
 C1281 C -0.08374 0.70336 0.20211
 C1282 C -0.07360 0.69606 0.21879
 C1283 C -0.05504 0.70603 0.22813
 C1284 C -0.04434 0.72167 0.21942
 H1285 H -0.07946 0.68241 0.22666
 H1286 H -0.05024 0.70021 0.24318
 H1287 H -0.07851 0.71722 0.19426
 H1288 H -0.04855 0.72768 0.20434
 C1289 C -0.08395 0.19915 0.70419
 C1290 C -0.07329 0.21531 0.69649
 C1291 C -0.05497 0.22502 0.70647
 C1292 C -0.04507 0.21762 0.72327
 H1293 H -0.07848 0.22257 0.68227
 H1294 H -0.04959 0.23934 0.69946
 H1295 H -0.07932 0.19185 0.71857
 H1296 H -0.04986 0.20326 0.73050
 C1297 C 0.29952 0.41598 0.29558
 C1298 C 0.28322 0.42654 0.30321
 C1299 C 0.27366 0.44496 0.29323
 C1300 C 0.28163 0.45517 0.27688
 H1301 H 0.27578 0.42118 0.31729
 H1302 H 0.25901 0.45013 0.29977
 H1303 H 0.30695 0.42072 0.28131
 H1304 H 0.29632 0.45057 0.27013
 C1305 C 0.29713 -0.08428 0.79846
 C1306 C 0.30461 -0.07403 0.78188
 C1307 C 0.29482 -0.05549 0.77232
 C1308 C 0.27875 -0.04484 0.78034
 H1309 H 0.31846 -0.07961 0.77416
 H1310 H 0.30129 -0.05064 0.75755
 H1311 H 0.28311 -0.07896 0.80602
 H1312 H 0.27207 -0.04912 0.79513
 C1313 C 0.79698 0.41517 0.79780
 C1314 C 0.80452 0.42545 0.78129
 C1315 C 0.79471 0.44408 0.77194
 C1316 C 0.77867 0.45463 0.78017
 H1317 H 0.81831 0.41977 0.77349
 H1318 H 0.80109 0.44907 0.75718
 H1319 H 0.78301 0.42053 0.80546
 H1320 H 0.77204 0.45025 0.79494
 C1321 C 0.79970 -0.08457 0.29715
 C1322 C 0.78256 -0.07478 0.30403
 C1323 C 0.77322 -0.05606 0.29440
 C1324 C 0.78096 -0.04586 0.27794
 H1325 H 0.77423 -0.08086 0.31730
 H1326 H 0.75869 -0.05083 0.30116
 H1327 H 0.80812 -0.07866 0.28389
 H1328 H 0.79534 -0.05067 0.27070
 C1329 C 0.29706 0.58388 0.70135
 C1330 C 0.30479 0.57359 0.71772
 C1331 C 0.29487 0.55523 0.72743
 C1332 C 0.27894 0.54454 0.71921
 H1333 H 0.31882 0.57920 0.72513
 H1334 H 0.30109 0.55052 0.74233
 H1335 H 0.28283 0.57887 0.69398
 H1336 H 0.27259 0.54862 0.70422
 C1337 C 0.29654 1.08421 0.20069
 C1338 C 0.30468 1.07363 0.21669
 C1339 C 0.29497 1.05519 0.22643
 C1340 C 0.27865 1.04478 0.21865
 H1341 H 0.31892 1.07908 0.22379
 H1342 H 0.30168 1.05020 0.24104
 H1343 H 0.28208 1.07941 0.19363
 H1344 H 0.27176 1.04917 0.20399
 C1345 C 0.79891 0.58432 0.20358
 C1346 C 0.78193 0.57450 0.19647
 C1347 C 0.77253 0.55582 0.20615
 C1348 C 0.78076 0.54527 0.22214
 H1349 H 0.77385 0.58069 0.18309
 H1350 H 0.75771 0.55089 0.19984
 H1351 H 0.80715 0.57871 0.21707
 H1352 H 0.79550 0.54974 0.22882
 C1353 C 0.79539 1.08395 0.70107
 C1354 C 0.80343 1.07343 0.71717
 C1355 C 0.79347 1.05522 0.72708
 C1356 C 0.77773 1.04438 0.71876
 H1357 H 0.81770 1.07882 0.72427
 H1358 H 0.79956 1.05067 0.74209
 H1359 H 0.78077 1.07933 0.69420
 H1360 H 0.77167 1.04822 0.70358
 C1361 C 0.69975 0.58385 0.29670
 C1362 C 0.71685 0.57417 0.30374
 C1363 C 0.72651 0.55561 0.29418
 C1364 C 0.71869 0.54496 0.27808
 H1365 H 0.72492 0.58036 0.31710
 H1366 H 0.74128 0.55084 0.30075
 H1367 H 0.69146 0.57810 0.28331
 H1368 H 0.70401 0.54928 0.27113
 C1369 C 0.70007 1.08437 0.79659
 C1370 C 0.71693 1.07415 0.80353
 C1371 C 0.72605 1.05543 0.79375
 C1372 C 0.71804 1.04520 0.77745
 H1373 H 0.72526 1.07991 0.81692
 H1374 H 0.74062 1.05015 0.80035
 H1375 H 0.69173 1.07879 0.78315
 H1376 H 0.70354 1.04999 0.77045
 C1377 C 0.20019 0.58323 0.79620
 C1378 C 0.21642 0.57271 0.80400
 C1379 C 0.22625 0.55443 0.79410
 C1380 C 0.21855 0.54417 0.77769
 H1381 H 0.22378 0.57813 0.81809
 H1382 H 0.24090 0.54946 0.80076
 H1383 H 0.19288 0.57844 0.78188
 H1384 H 0.20384 0.54852 0.77084
 C1385 C 0.20239 1.08432 0.29661
 C1386 C 0.21927 1.07442 0.30386
 C1387 C 0.22883 1.05588 0.29409
 C1388 C 0.22025 1.04481 0.27866
 H1389 H 0.22725 1.08052 0.31733
 H1390 H 0.24399 1.05141 0.29994
 H1391 H 0.19442 1.07884 0.28290
 H1392 H 0.20506 1.04871 0.27263
 C1393 C 0.70141 0.41513 0.70405
 C1394 C 0.71769 0.42556 0.69618
 C1395 C 0.72742 0.44398 0.70591
 C1396 C 0.71911 0.45490 0.72159
 H1397 H 0.72511 0.41997 0.68217
 H1398 H 0.74241 0.44857 0.69972
 H1399 H 0.69411 0.42006 0.71834
 H1400 H 0.70403 0.45092 0.72785
 C1401 C 0.70053 -0.08440 0.20405
 C1402 C 0.71682 -0.07397 0.19627
 C1403 C 0.72640 -0.05549 0.20598
 C1404 C 0.71864 -0.04529 0.22241
 H1405 H 0.72425 -0.07950 0.18224
 H1406 H 0.74094 -0.05034 0.19919
 H1407 H 0.69299 -0.07945 0.21820
 H1408 H 0.70411 -0.04990 0.22948
 C1409 C 0.20351 0.41604 0.20181
 C1410 C 0.19574 0.42644 0.21811
 C1411 C 0.20572 0.44488 0.22754
 C1412 C 0.22124 0.45570 0.21874
 H1413 H 0.18177 0.42083 0.22564
 H1414 H 0.20000 0.44950 0.24268
 H1415 H 0.21776 0.42095 0.19439
 H1416 H 0.22704 0.45171 0.20351
 C1417 C 0.20311 -0.08414 0.70266
 C1418 C 0.19533 -0.07380 0.71899
 C1419 C 0.20513 -0.05521 0.72840
 C1420 C 0.22095 -0.04457 0.71988
 H1421 H 0.18138 -0.07950 0.72649
 H1422 H 0.19906 -0.05036 0.74333
 H1423 H 0.21727 -0.07908 0.69519
 H1424 H 0.22718 -0.04882 0.70489
 C1425 C 0.29908 0.29733 0.41587
 C1426 C 0.28281 0.30525 0.42625
 C1427 C 0.27303 0.29553 0.44467
 C1428 C 0.28094 0.27940 0.45526
 H1429 H 0.27554 0.31935 0.42069
 H1430 H 0.25828 0.30210 0.44951
 H1431 H 0.30633 0.28304 0.42083
 H1432 H 0.29575 0.27267 0.45103
 C1433 C 0.29747 0.79840 -0.08457
 C1434 C 0.30548 0.78227 -0.07407
 C1435 C 0.29574 0.77263 -0.05555
 C1436 C 0.27949 0.78056 -0.04511
 H1437 H 0.31964 0.77504 -0.07959
 H1438 H 0.30235 0.75798 -0.05054
 H1439 H 0.28311 0.80560 -0.07964
 H1440 H 0.27270 0.79525 -0.04952
 C1441 C 0.79626 0.29948 -0.08395
 C1442 C 0.80428 0.28340 -0.07340
 C1443 C 0.79465 0.27380 -0.05484
 C1444 C 0.77812 0.28143 -0.04463
 H1445 H 0.81845 0.27616 -0.07888
 H1446 H 0.80161 0.25939 -0.04960
 H1447 H 0.78196 0.30678 -0.07901
 H1448 H 0.77092 0.29584 -0.04930
 C1449 C 0.79668 0.79864 0.41577
 C1450 C 0.80495 0.78290 0.42667
 C1451 C 0.79511 0.77323 0.44513
 C1452 C 0.77893 0.78130 0.45555
 H1453 H 0.81936 0.77592 0.42149
 H1454 H 0.80162 0.75855 0.45017
 H1455 H 0.78197 0.80542 0.42025
 H1456 H 0.77236 0.79609 0.45111
 C1457 C 0.70314 0.29883 0.58334
 C1458 C 0.69604 0.28192 0.57348
 C1459 C 0.70582 0.27249 0.55487
 C1460 C 0.72203 0.28049 0.54443
 H1461 H 0.68256 0.27391 0.57956
 H1462 H 0.69933 0.25780 0.54988
 H1463 H 0.71669 0.30701 0.57774
 H1464 H 0.72888 0.29512 0.54891
 C1465 C 0.70393 0.79857 1.08434
 C1466 C 0.69625 0.78217 1.07407
 C1467 C 0.70598 0.77255 1.05557
 C1468 C 0.72191 0.78065 1.04480
 H1469 H 0.68235 0.77462 1.07979
 H1470 H 0.69958 0.75773 1.05082
 H1471 H 0.71804 0.80610 1.07920
 H1472 H 0.72848 0.79552 1.04894
 C1473 C 0.20327 0.29822 1.08445
 C1474 C 0.19536 0.28202 1.07404
 C1475 C 0.20510 0.27250 1.05548
 C1476 C 0.22086 0.28091 1.04470
 H1477 H 0.18134 0.27462 1.07968
 H1478 H 0.19892 0.25760 1.05072
 H1479 H 0.21754 0.30552 1.07946
 H1480 H 0.22715 0.29589 1.04884
 C1481 C 0.20370 0.79883 0.58416
 C1482 C 0.19576 0.78254 0.57391
 C1483 C 0.20532 0.77273 0.55543
 C1484 C 0.22143 0.78053 0.54471
 H1485 H 0.18172 0.77524 0.57961
 H1486 H 0.19863 0.75806 0.55065
 H1487 H 0.21794 0.80613 0.57904
 H1488 H 0.22828 0.79526 0.54888
 C1489 C 0.29668 0.70129 0.58357
 C1490 C 0.30450 0.71743 0.57298
 C1491 C 0.29449 0.72699 0.55458
 C1492 C 0.27820 0.71890 0.54439
 H1493 H 0.31870 0.72470 0.57829
 H1494 H 0.30092 0.74166 0.54943
 H1495 H 0.28229 0.69404 0.57887
 H1496 H 0.27161 0.70416 0.54892
 C1497 C 0.29825 0.20380 1.08387
 C1498 C 0.28156 0.19635 1.07381
 C1499 C 0.27201 0.20607 1.05526
 C1500 C 0.28027 0.22195 1.04458
 H1501 H 0.27374 0.18272 1.07978
 H1502 H 0.25710 0.19984 1.05047
 H1503 H 0.30609 0.21761 1.07850
 H1504 H 0.29519 0.22839 1.04880
 C1505 C 0.79847 0.70317 1.08450
 C1506 C 0.78142 0.69609 1.07483
 C1507 C 0.77201 0.70565 1.05611
 C1508 C 0.78044 0.72125 1.04510
 H1509 H 0.77325 0.68285 1.08119
 H1510 H 0.75701 0.69954 1.05149
 H1511 H 0.80676 0.71653 1.07866
 H1512 H 0.79541 0.72765 1.04918
 C1513 C 0.79906 0.20295 0.58365
 C1514 C 0.78175 0.19617 0.57417
 C1515 C 0.77228 0.20582 0.55552
 C1516 C 0.78088 0.22118 0.54435
 H1517 H 0.77339 0.18311 0.58065
 H1518 H 0.75709 0.20001 0.55111
 H1519 H 0.80755 0.21612 0.57768
 H1520 H 0.79603 0.22728 0.54826
 C1521 C 0.70473 0.70092 0.41623
 C1522 C 0.69647 0.71677 0.42697
 C1523 C 0.70624 0.72677 0.44520
 C1524 C 0.72261 0.71917 0.45563
 H1525 H 0.68202 0.72366 0.42180
 H1526 H 0.69940 0.74135 0.45010
 H1527 H 0.71945 0.69416 0.42073
 H1528 H 0.72952 0.70448 0.45136
 C1529 C 0.70462 0.20050 -0.08392
 C1530 C 0.69634 0.21624 -0.07303
 C1531 C 0.70605 0.22605 -0.05461
 C1532 C 0.72283 0.21877 -0.04456
 H1533 H 0.68187 0.22312 -0.07816
 H1534 H 0.69885 0.24030 -0.04928
 H1535 H 0.71929 0.19367 -0.07939
 H1536 H 0.73022 0.20447 -0.04931
 C1537 C 0.20421 0.70071 -0.08466
 C1538 C 0.19693 0.71750 -0.07469
 C1539 C 0.20646 0.72684 -0.05593
 C1540 C 0.22297 0.71913 -0.04572
 H1541 H 0.18342 0.72548 -0.08076
 H1542 H 0.19957 0.74125 -0.05064
 H1543 H 0.21774 0.69251 -0.07904
 H1544 H 0.23025 0.70481 -0.05054
 C1545 C 0.20185 0.20354 0.41577
 C1546 C 0.21879 0.19648 0.42568
 C1547 C 0.22813 0.20629 0.44431
 C1548 C 0.21981 0.22231 0.45476
 H1549 H 0.22687 0.18303 0.41965
 H1550 H 0.24296 0.20004 0.44932
 H1551 H 0.19363 0.21708 0.42129
 H1552 H 0.20502 0.22887 0.45026
 C1553 C 0.29958 0.41599 0.70362
 C1554 C 0.28318 0.42632 0.69593
 C1555 C 0.27356 0.44480 0.70563
 C1556 C 0.28156 0.45539 0.72169
 H1557 H 0.27561 0.42066 0.68205
 H1558 H 0.25877 0.44963 0.69915
 H1559 H 0.30716 0.42108 0.71769
 H1560 H 0.29638 0.45115 0.72838
 C1561 C 0.29798 0.91637 0.20185
 C1562 C 0.30597 0.92676 0.21803
 C1563 C 0.29612 0.94519 0.22775
 C1564 C 0.28007 0.95574 0.21957
 H1565 H 0.32018 0.92125 0.22514
 H1566 H 0.30249 0.95008 0.24253
 H1567 H 0.28354 0.92124 0.19480
 H1568 H 0.27361 0.95148 0.20469
 C1569 C 0.80084 0.41707 0.20397
 C1570 C 0.78394 0.42703 0.19684
 C1571 C 0.77440 0.44556 0.20656
 C1572 C 0.78210 0.45583 0.22297
 H1573 H 0.77597 0.42107 0.18332
 H1574 H 0.75980 0.45063 0.19984
 H1575 H 0.80903 0.42258 0.21752
 H1576 H 0.79662 0.45124 0.23007
 C1577 C 0.79909 0.91645 0.70391
 C1578 C 0.78273 0.92674 0.69604
 C1579 C 0.77278 0.94508 0.70571
 C1580 C 0.78048 0.95563 0.72193
 H1581 H 0.77546 0.92115 0.68197
 H1582 H 0.75807 0.94986 0.69903
 H1583 H 0.80641 0.92148 0.71814
 H1584 H 0.79525 0.95143 0.72877
 C1585 C 0.70364 0.58324 0.70041
 C1586 C 0.69593 0.57307 0.71689
 C1587 C 0.70572 0.55472 0.72676
 C1588 C 0.72182 0.54407 0.71883
 H1589 H 0.68195 0.57875 0.72431
 H1590 H 0.69927 0.55002 0.74158
 H1591 H 0.71780 0.57810 0.69299
 H1592 H 0.72842 0.54819 0.70395
 C1593 C 0.70084 0.08339 0.20433
 C1594 C 0.71678 0.07257 0.19633
 C1595 C 0.72633 0.05403 0.20603
 C1596 C 0.71873 0.04397 0.22262
 H1597 H 0.72402 0.07783 0.18210
 H1598 H 0.74070 0.04866 0.19904
 H1599 H 0.69355 0.07869 0.21870
 H1600 H 0.70432 0.04876 0.22982
 C1601 C 0.20313 0.58412 0.20163
 C1602 C 0.19558 0.57389 0.21814
 C1603 C 0.20560 0.55542 0.22762
 C1604 C 0.22126 0.54465 0.21895
 H1605 H 0.18171 0.57961 0.22577
 H1606 H 0.19976 0.55072 0.24269
 H1607 H 0.21721 0.57901 0.19405
 H1608 H 0.22722 0.54872 0.20380
 C1609 C 0.20347 0.08341 0.69953
 C1610 C 0.19595 0.07324 0.71610
 C1611 C 0.20584 0.05488 0.72589
 C1612 C 0.22227 0.04453 0.71819
 H1613 H 0.18200 0.07891 0.72362
 H1614 H 0.19919 0.04993 0.74053
 H1615 H 0.21753 0.07826 0.69191
 H1616 H 0.22915 0.04893 0.70353
 C1617 C 0.30000 0.58355 0.29532
 C1618 C 0.28349 0.57318 0.30275
 C1619 C 0.27397 0.55479 0.29283
 C1620 C 0.28207 0.54444 0.27666
 H1621 H 0.27588 0.57865 0.31669
 H1622 H 0.25923 0.54976 0.29927
 H1623 H 0.30766 0.57866 0.28122
 H1624 H 0.29683 0.54890 0.26998
 C1625 C 0.29876 0.08407 0.79660
 C1626 C 0.28174 0.07424 0.80358
 C1627 C 0.27230 0.05570 0.79374
 C1628 C 0.28084 0.04481 0.77813
 H1629 H 0.27357 0.08034 0.81694
 H1630 H 0.25722 0.05110 0.79968
 H1631 H 0.30698 0.07855 0.78305
 H1632 H 0.29591 0.04888 0.77193
 C1633 C 0.79729 0.58343 0.79760
 C1634 C 0.80516 0.57312 0.78127
 C1635 C 0.79533 0.55466 0.77160
 C1636 C 0.77944 0.54400 0.77993
 H1637 H 0.81925 0.57871 0.77398
 H1638 H 0.80151 0.54989 0.75669
 H1639 H 0.78295 0.57851 0.80480
 H1640 H 0.77316 0.54817 0.79492
 C1641 C 0.79900 0.08324 0.29578
 C1642 C 0.78304 0.07256 0.30391
 C1643 C 0.77351 0.05397 0.29437
 C1644 C 0.78125 0.04371 0.27797
 H1645 H 0.77579 0.07797 0.31807
 H1646 H 0.75905 0.04876 0.30127
 H1647 H 0.80627 0.07840 0.28145
 H1648 H 0.79575 0.04834 0.27085
 C1649 C 0.70366 0.41588 0.29800
 C1650 C 0.69607 0.42607 0.28148
 C1651 C 0.70595 0.44454 0.27191
 C1652 C 0.72135 0.45560 0.28060
 H1653 H 0.68226 0.42027 0.27385
 H1654 H 0.70015 0.44903 0.25677
 H1655 H 0.71779 0.42099 0.30550
 H1656 H 0.72719 0.45175 0.29585
 C1657 C 0.70151 0.91581 0.79672
 C1658 C 0.71756 0.92654 0.80462
 C1659 C 0.72700 0.94510 0.79476
 C1660 C 0.71873 0.95546 0.77867
 H1661 H 0.72492 0.92118 0.81875
 H1662 H 0.74172 0.95022 0.80114
 H1663 H 0.69424 0.92052 0.78236
 H1664 H 0.70394 0.95092 0.77215
 C1665 C 0.20371 0.41578 0.79824
 C1666 C 0.19623 0.42580 0.78158
 C1667 C 0.20604 0.44425 0.77193
 C1668 C 0.22178 0.45512 0.78024
 H1669 H 0.18246 0.41994 0.77391
 H1670 H 0.19989 0.44885 0.75695
 H1671 H 0.21768 0.42106 0.80592
 H1672 H 0.22810 0.45111 0.79525
 C1673 C 0.20501 0.91592 0.29891
 C1674 C 0.19700 0.92643 0.28279
 C1675 C 0.20666 0.94489 0.27307
 C1676 C 0.22281 0.95546 0.28095
 H1677 H 0.18289 0.92089 0.27551
 H1678 H 0.20002 0.94979 0.25840
 H1679 H 0.21936 0.92083 0.30613
 H1680 H 0.22960 0.95118 0.29569
 C1681 C 0.41582 0.29791 0.70404
 C1682 C 0.42629 0.28159 0.69641
 C1683 C 0.44487 0.27218 0.70625
 C1684 C 0.45529 0.28033 0.72236
 H1685 H 0.42072 0.27401 0.68250
 H1686 H 0.44993 0.25747 0.69984
 H1687 H 0.42082 0.30551 0.71812
 H1688 H 0.45080 0.29507 0.72899
 C1689 C 0.41651 0.79716 0.20083
 C1690 C 0.42661 0.80490 0.21731
 C1691 C 0.44493 0.79512 0.22728
 C1692 C 0.45544 0.77884 0.21960
 H1693 H 0.42097 0.81897 0.22452
 H1694 H 0.44975 0.80181 0.24194
 H1695 H 0.42159 0.78292 0.19356
 H1696 H 0.45122 0.77197 0.20489
 C1697 C 0.91653 0.29655 0.20091
 C1698 C 0.92655 0.30392 0.21763
 C1699 C 0.94490 0.29393 0.22734
 C1700 C 0.95587 0.27839 0.21882
 H1701 H 0.92071 0.31765 0.22535
 H1702 H 0.94933 0.29974 0.24249
 H1703 H 0.92175 0.28259 0.19323
 H1704 H 0.95206 0.27248 0.20359
 C1705 C 0.91610 0.79847 0.70367
 C1706 C 0.92641 0.78210 0.69594
 C1707 C 0.94489 0.77240 0.70570
 C1708 C 0.95547 0.78037 0.72179
 H1709 H 0.92078 0.77468 0.68196
 H1710 H 0.94975 0.75766 0.69922
 H1711 H 0.92115 0.80590 0.71782
 H1712 H 0.95118 0.79515 0.72847
 C1713 C 0.58435 0.29872 0.29568
 C1714 C 0.57413 0.28219 0.30325
 C1715 C 0.55575 0.27241 0.29340
 C1716 C 0.54504 0.28049 0.27745
 H1717 H 0.57979 0.27469 0.31718
 H1718 H 0.55103 0.25755 0.29972
 H1719 H 0.57932 0.30620 0.28153
 H1720 H 0.54917 0.29542 0.27100
 C1721 C 0.58355 0.79924 0.79675
 C1722 C 0.57348 0.78252 0.80407
 C1723 C 0.55484 0.77303 0.79437
 C1724 C 0.54444 0.78102 0.77816
 H1725 H 0.57942 0.77465 0.81768
 H1726 H 0.54981 0.75836 0.80087
 H1727 H 0.57813 0.80725 0.78305
 H1728 H 0.54900 0.79565 0.77135
 C1729 C 0.08349 0.29953 0.79663
 C1730 C 0.07356 0.28278 0.80406
 C1731 C 0.05507 0.27299 0.79445
 C1732 C 0.04451 0.28061 0.77816
 H1733 H 0.07951 0.27512 0.81778
 H1734 H 0.05021 0.25836 0.80119
 H1735 H 0.07805 0.30735 0.78281
 H1736 H 0.04887 0.29519 0.77109
 C1737 C 0.08504 0.79984 0.29470
 C1738 C 0.07443 0.78366 0.30246
 C1739 C 0.05592 0.77411 0.29267
 C1740 C 0.04545 0.78214 0.27655
 H1741 H 0.07986 0.77620 0.31649
 H1742 H 0.05092 0.75942 0.29919
 H1743 H 0.08020 0.80728 0.28046
 H1744 H 0.04988 0.79688 0.26986
 C1745 C 0.58368 0.69971 0.70388
 C1746 C 0.57349 0.71628 0.69634
 C1747 C 0.55509 0.72614 0.70607
 C1748 C 0.54467 0.71863 0.72249
 H1749 H 0.57914 0.72376 0.68241
 H1750 H 0.55016 0.74072 0.69928
 H1751 H 0.57851 0.69212 0.71794
 H1752 H 0.54905 0.70405 0.72955
 C1753 C 0.58417 0.20125 0.20220
 C1754 C 0.57420 0.21796 0.19471
 C1755 C 0.55566 0.22759 0.20443
 C1756 C 0.54485 0.21930 0.22021
 H1757 H 0.58024 0.22571 0.18107
 H1758 H 0.55100 0.24256 0.19830
 H1759 H 0.57874 0.19347 0.21603
 H1760 H 0.54892 0.20431 0.22654
 C1761 C 0.08439 0.70363 0.20072
 C1762 C 0.07392 0.69591 0.21701
 C1763 C 0.05558 0.70598 0.22672
 C1764 C 0.04493 0.72185 0.21836
 H1765 H 0.07941 0.68184 0.22439
 H1766 H 0.05088 0.69996 0.24171
 H1767 H 0.07958 0.71797 0.19347
 H1768 H 0.04904 0.72798 0.20329
 C1769 C 0.08345 0.19987 0.70385
 C1770 C 0.07306 0.21634 0.69637
 C1771 C 0.05459 0.22594 0.70625
 C1772 C 0.04432 0.21808 0.72260
 H1773 H 0.07859 0.22391 0.68243
 H1774 H 0.04948 0.24057 0.69966
 H1775 H 0.07847 0.19220 0.71792
 H1776 H 0.04892 0.20348 0.72945
 C1777 C 0.41615 0.70329 0.29977
 C1778 C 0.42640 0.69585 0.28320
 C1779 C 0.44484 0.70579 0.27359
 C1780 C 0.45506 0.72211 0.28154
 H1781 H 0.42085 0.68191 0.27566
 H1782 H 0.44998 0.69927 0.25895
 H1783 H 0.42116 0.71735 0.30738
 H1784 H 0.45049 0.72888 0.29619
 C1785 C 0.41582 0.20311 0.79882
 C1786 C 0.42599 0.19552 0.78228
 C1787 C 0.44453 0.20531 0.77271
 C1788 C 0.45543 0.22093 0.78117
 H1789 H 0.42013 0.18176 0.77464
 H1790 H 0.44916 0.19930 0.75769
 H1791 H 0.42107 0.21709 0.80644
 H1792 H 0.45142 0.22706 0.79626
 C1793 C 0.91641 0.70062 0.79700
 C1794 C 0.92665 0.71709 0.80461
 C1795 C 0.94511 0.72680 0.79478
 C1796 C 0.95563 0.71881 0.77863
 H1797 H 0.92102 0.72452 0.81860
 H1798 H 0.95000 0.74156 0.80119
 H1799 H 0.92141 0.69318 0.78280
 H1800 H 0.95130 0.70402 0.77202
 C1801 C 0.91574 0.20060 0.29564
 C1802 C 0.92637 0.21668 0.30351
 C1803 C 0.94492 0.22618 0.29373
 C1804 C 0.95516 0.21839 0.27731
 H1805 H 0.92096 0.22400 0.31763
 H1806 H 0.95014 0.24066 0.30050
 H1807 H 0.92059 0.19326 0.28136
 H1808 H 0.95054 0.20387 0.27033
 C1809 C 0.29613 0.29794 0.58467
 C1810 C 0.30370 0.28145 0.57442
 C1811 C 0.29389 0.27205 0.55584
 C1812 C 0.27859 0.28087 0.54471
 H1813 H 0.31746 0.27370 0.58021
 H1814 H 0.29968 0.25692 0.55131
 H1815 H 0.28207 0.30556 0.57953
 H1816 H 0.27273 0.29610 0.54862
 C1817 C 0.29644 0.79892 0.08367
 C1818 C 0.30442 0.78275 0.07321
 C1819 C 0.29478 0.77306 0.05470
 C1820 C 0.27843 0.78079 0.04430
 H1821 H 0.31855 0.77548 0.07873
 H1822 H 0.30161 0.75854 0.04962
 H1823 H 0.28214 0.80620 0.07872
 H1824 H 0.27140 0.79534 0.04880
 C1825 C 0.79604 0.30037 0.08411
 C1826 C 0.80428 0.28462 0.07322
 C1827 C 0.79454 0.27478 0.05484
 C1828 C 0.77776 0.28205 0.04480
 H1829 H 0.81875 0.27772 0.07830
 H1830 H 0.80171 0.26050 0.04954
 H1831 H 0.78137 0.30723 0.07961
 H1832 H 0.77040 0.29638 0.04952
 C1833 C 0.79646 0.79942 0.58442
 C1834 C 0.80416 0.78312 0.57399
 C1835 C 0.79437 0.77363 0.55546
 C1836 C 0.77809 0.78156 0.54507
 H1837 H 0.81816 0.77563 0.57954
 H1838 H 0.80104 0.75903 0.55038
 H1839 H 0.78229 0.80695 0.57943
 H1840 H 0.77119 0.79618 0.54958
 C1841 C 0.29533 0.69941 0.41630
 C1842 C 0.30307 0.71565 0.42679
 C1843 C 0.29319 0.72534 0.44515
 C1844 C 0.27663 0.71773 0.45531
 H1845 H 0.31721 0.72298 0.42140
 H1846 H 0.30004 0.73981 0.45031
 H1847 H 0.28105 0.69201 0.42113
 H1848 H 0.26955 0.70324 0.45073
 C1849 C 0.29745 0.20278 0.91627
 C1850 C 0.28043 0.19576 0.92607
 C1851 C 0.27103 0.20565 0.94464
 C1852 C 0.27957 0.22138 0.95532
 H1853 H 0.27234 0.18238 0.91994
 H1854 H 0.25600 0.19971 0.94942
 H1855 H 0.30562 0.21632 0.92183
 H1856 H 0.29458 0.22761 0.95108
 C1857 C 0.79647 0.70054 0.91615
 C1858 C 0.80422 0.71685 0.92650
 C1859 C 0.79437 0.72656 0.94490
 C1860 C 0.77832 0.71854 0.95557
 H1861 H 0.81829 0.72422 0.92095
 H1862 H 0.80082 0.74134 0.94969
 H1863 H 0.78219 0.69321 0.92111
 H1864 H 0.77172 0.70370 0.95138
 C1865 C 0.79644 0.20061 0.41549
 C1866 C 0.80418 0.21703 0.42570
 C1867 C 0.79445 0.22679 0.44414
 C1868 C 0.77845 0.21880 0.45489
 H1869 H 0.81815 0.22446 0.41998
 H1870 H 0.80092 0.24158 0.44888
 H1871 H 0.78226 0.19320 0.42061
 H1872 H 0.77183 0.20396 0.45075
 C1873 C 0.70307 0.29795 0.41573
 C1874 C 0.69533 0.28157 0.42604
 C1875 C 0.70522 0.27189 0.44448
 C1876 C 0.72123 0.28008 0.45503
 H1877 H 0.68131 0.27417 0.42043
 H1878 H 0.69894 0.25706 0.44934
 H1879 H 0.71729 0.30532 0.42072
 H1880 H 0.72767 0.29496 0.45075
 C1881 C 0.70120 0.79595 0.91598
 C1882 C 0.71724 0.80393 0.92665
 C1883 C 0.72702 0.79400 0.94498
 C1884 C 0.71901 0.77788 0.95550
 H1885 H 0.72441 0.81816 0.92136
 H1886 H 0.74179 0.80047 0.94985
 H1887 H 0.69419 0.78143 0.92060
 H1888 H 0.70413 0.77134 0.95127
 C1889 C 0.20201 0.29845 0.91625
 C1890 C 0.19475 0.28162 0.92614
 C1891 C 0.20457 0.27219 0.94474
 C1892 C 0.22037 0.28064 0.95542
 H1893 H 0.18124 0.27367 0.92006
 H1894 H 0.19854 0.25723 0.94952
 H1895 H 0.21568 0.30646 0.92176
 H1896 H 0.22666 0.29560 0.95120
 C1897 C 0.20122 0.79615 0.41576
 C1898 C 0.21828 0.80310 0.42554
 C1899 C 0.22763 0.79331 0.44414
 C1900 C 0.21877 0.77810 0.45531
 H1901 H 0.22655 0.81633 0.41930
 H1902 H 0.24289 0.79893 0.44856
 H1903 H 0.19293 0.78270 0.42141
 H1904 H 0.20349 0.77228 0.45147
 C1905 C 0.70115 0.70380 0.58386
 C1906 C 0.71786 0.69640 0.57378
 C1907 C 0.72768 0.70640 0.55551
 C1908 C 0.71926 0.72201 0.54458
 H1909 H 0.72550 0.68256 0.57949
 H1910 H 0.74283 0.70048 0.55107
 H1911 H 0.69357 0.71790 0.57880
 H1912 H 0.70404 0.72803 0.54841
 C1913 C 0.70400 0.20024 0.08371
 C1914 C 0.69672 0.21713 0.07391
 C1915 C 0.70629 0.22670 0.05529
 C1916 C 0.72279 0.21910 0.04501
 H1917 H 0.68315 0.22499 0.07999
 H1918 H 0.69942 0.24119 0.05017
 H1919 H 0.71759 0.19214 0.07806
 H1920 H 0.73008 0.20473 0.04969
 C1921 C 0.20357 0.70085 0.08306
 C1922 C 0.19633 0.71768 0.07312
 C1923 C 0.20601 0.72707 0.05444
 C1924 C 0.22226 0.71909 0.04404
 H1925 H 0.18282 0.72566 0.07919
 H1926 H 0.19944 0.74172 0.04937
 H1927 H 0.21715 0.69270 0.07748
 H1928 H 0.22919 0.70452 0.04862
 C1929 C 0.20001 0.20437 0.58315
 C1930 C 0.21629 0.19667 0.57261
 C1931 C 0.22600 0.20660 0.55427
 C1932 C 0.21825 0.22306 0.54408
 H1933 H 0.22363 0.18252 0.57793
 H1934 H 0.24058 0.19989 0.54914
 H1935 H 0.19263 0.21866 0.57838
 H1936 H 0.20363 0.22999 0.54863
   
