data_POSCAR
  _audit_creation_date              2014-09-24
  _audit_creation_method            'ToBaCCo'
  _symmetry_space_group_name_H-M    'P1'
  _symmetry_Int_Tables_number       1
  _symmetry_cell_setting            triclinic
  loop_
  _symmetry_equiv_pos_as_xyz
 x,y,z
_cell_length_a 55.1390
_cell_length_b 55.2081
_cell_length_c 55.2040
_cell_angle_alpha 90.012100
_cell_angle_beta 90.026400
_cell_angle_gamma 89.996500
loop_
  _atom_site_label
  _atom_site_type_symbol
  _atom_site_fract_x
  _atom_site_fract_y
  _atom_site_fract_z
C1 C 0.24712 1.06771 0.00112
 C2 C 0.25074 1.05550 0.02320
 C3 C 0.25279 1.03005 0.02285
 C4 C 0.24985 1.01676 0.00113
 C5 C 0.24530 1.02969 -0.02047
 C6 C 0.24482 1.05514 -0.02089
 C7 C 0.25154 0.98955 0.00082
 C8 C 0.25783 0.97704 -0.02068
 C9 C 0.25844 0.95165 -0.02145
 C10 C 0.25397 0.93860 -0.00020
 C11 C 0.24830 0.95036 0.02155
 C12 C 0.24666 0.97575 0.02186
 H13 H 0.24617 1.08730 0.00103
 H14 H 0.25693 1.02071 0.03954
 H15 H 0.24196 1.02001 -0.03715
 H16 H 0.26261 0.98683 -0.03694
 H17 H 0.25478 0.91901 -0.00064
 H18 H 0.24108 0.98451 0.03846
 C19 C 0.74677 0.56785 0.50293
 C20 C 0.75064 0.55557 0.52483
 C21 C 0.75253 0.53015 0.52456
 C22 C 0.74948 0.51688 0.50283
 C23 C 0.74479 0.52987 0.48128
 C24 C 0.74417 0.55527 0.48104
 C25 C 0.75126 0.48970 0.50243
 C26 C 0.75750 0.47730 0.48086
 C27 C 0.75823 0.45191 0.48000
 C28 C 0.75387 0.43877 0.50122
 C29 C 0.74823 0.45042 0.52303
 C30 C 0.74653 0.47582 0.52345
 H31 H 0.74585 0.58743 0.50288
 H32 H 0.75674 0.52093 0.54131
 H33 H 0.74138 0.52039 0.46451
 H34 H 0.76214 0.48718 0.46462
 H35 H 0.75475 0.41919 0.50070
 H36 H 0.74104 0.48452 0.54010
 C37 C 0.75245 1.00172 1.06900
 C38 C 0.75429 0.97982 1.05618
 C39 C 0.75404 0.98059 1.03071
 C40 C 0.75006 1.00249 1.01801
 C41 C 0.74752 1.02405 1.03159
 C42 C 0.74948 1.02401 1.05704
 C43 C 0.74842 1.00269 0.99076
 C44 C 0.75308 1.02401 0.97723
 C45 C 0.75138 1.02406 0.95182
 C46 C 0.74597 1.00241 0.93977
 C47 C 0.74172 0.98096 0.95254
 C48 C 0.74226 0.98138 0.97792
 H49 H 0.75328 1.00140 1.08859
 H50 H 0.75712 0.96396 1.02089
 H51 H 0.74376 1.04096 1.02250
 H52 H 0.75853 1.04055 0.98616
 H53 H 0.74514 1.00222 0.92018
 H54 H 0.73753 0.96495 0.98742
 C55 C 0.25152 0.50044 0.56656
 C56 C 0.25403 0.47878 0.55359
 C57 C 0.25396 0.47958 0.52817
 C58 C 0.24983 0.50150 0.51553
 C59 C 0.24678 0.52293 0.52923
 C60 C 0.24824 0.52263 0.55465
 C61 C 0.24856 0.50185 0.48828
 C62 C 0.25305 0.52333 0.47496
 C63 C 0.25172 0.52351 0.44952
 C64 C 0.24681 0.50185 0.43727
 C65 C 0.24270 0.48025 0.44985
 C66 C 0.24291 0.48052 0.47524
 H67 H 0.25206 0.50000 0.58616
 H68 H 0.25740 0.46296 0.51846
 H69 H 0.24292 0.53993 0.52035
 H70 H 0.25807 0.53990 0.48407
 H71 H 0.24624 0.50177 0.41767
 H72 H 0.23833 0.46397 0.48460
 C73 C 1.06794 0.24768 -0.00287
 C74 C 1.05568 0.25154 0.01910
 C75 C 1.03016 0.25223 0.01884
 C76 C 1.01684 0.24744 -0.00255
 C77 C 1.02986 0.24300 -0.02415
 C78 C 1.05532 0.24371 -0.02457
 C79 C 0.98954 0.24678 -0.00216
 C80 C 0.97580 0.25100 -0.02344
 C81 C 0.95026 0.24971 -0.02323
 C82 C 0.93850 0.24539 -0.00108
 C83 C 0.95153 0.24178 0.02036
 C84 C 0.97693 0.24183 0.01958
 H85 H 1.08757 0.24778 -0.00318
 H86 H 1.02077 0.25667 0.03542
 H87 H 1.02041 0.23856 -0.04071
 H88 H 0.98484 0.25558 -0.04018
 H89 H 0.91888 0.24509 -0.00032
 H90 H 0.98664 0.23762 0.03605
 C91 C 0.56705 0.75021 0.49854
 C92 C 0.55445 0.75425 0.52020
 C93 C 0.52902 0.75508 0.51972
 C94 C 0.51596 0.75057 0.49814
 C95 C 0.52923 0.74604 0.47669
 C96 C 0.55473 0.74643 0.47665
 C97 C 0.48869 0.75059 0.49812
 C98 C 0.47546 0.75552 0.47671
 C99 C 0.44999 0.75534 0.47666
 C100 C 0.43762 0.75112 0.49840
 C101 C 0.45013 0.74658 0.51999
 C102 C 0.47556 0.74577 0.51962
 H103 H 0.58668 0.75003 0.49873
 H104 H 0.51958 0.75953 0.53627
 H105 H 0.51994 0.74186 0.45998
 H106 H 0.48475 0.75997 0.46006
 H107 H 0.41799 0.75137 0.49852
 H108 H 0.48491 0.74102 0.53615
 C109 C 0.00042 0.75194 -0.06677
 C110 C 0.02249 0.74883 -0.05452
 C111 C 0.02249 0.74808 -0.02909
 C112 C 0.00094 0.75177 -0.01573
 C113 C -0.02083 0.75575 -0.02867
 C114 C -0.02149 0.75503 -0.05415
 C115 C 0.00107 0.75156 0.01153
 C116 C -0.02027 0.74612 0.02471
 C117 C -0.02069 0.74697 0.05019
 C118 C 0.00100 0.75194 0.06253
 C119 C 0.02259 0.75661 0.05008
 C120 C 0.02244 0.75691 0.02467
 H121 H 0.00040 0.75205 -0.08639
 H122 H 0.03938 0.74432 -0.01990
 H123 H -0.03740 0.75966 -0.01900
 H124 H -0.03663 0.74093 0.01527
 H125 H 0.00127 0.75196 0.08214
 H126 H 0.03899 0.76177 0.01541
 C127 C 0.50202 0.25418 0.43282
 C128 C 0.52404 0.25027 0.44496
 C129 C 0.52388 0.24768 0.47031
 C130 C 0.50216 0.25011 0.48371
 C131 C 0.48046 0.25483 0.47090
 C132 C 0.48010 0.25611 0.44551
 C133 C 0.50199 0.24752 0.51084
 C134 C 0.48053 0.24065 0.52310
 C135 C 0.47983 0.23905 0.54843
 C136 C 0.50107 0.24315 0.56165
 C137 C 0.52279 0.24946 0.55014
 C138 C 0.52307 0.25201 0.52480
 H139 H 0.50191 0.25558 0.41326
 H140 H 0.54071 0.24342 0.47938
 H141 H 0.46365 0.25774 0.48051
 H142 H 0.46426 0.23619 0.51315
 H143 H 0.50060 0.24163 0.58120
 H144 H 0.53964 0.25799 0.51624
 C145 C 1.06251 -0.00173 0.24378
 C146 C 1.05014 0.01993 0.24875
 C147 C 1.02463 0.01939 0.24994
 C148 C 1.01145 -0.00205 0.24484
 C149 C 1.02464 -0.02335 0.23947
 C150 C 1.05007 -0.02339 0.23945
 C151 C 0.98414 -0.00209 0.24490
 C152 C 0.97088 -0.02371 0.24873
 C153 C 0.94532 -0.02395 0.24792
 C154 C 0.93304 -0.00185 0.24475
 C155 C 0.94565 0.01994 0.24156
 C156 C 0.97107 0.01955 0.24091
 H157 H 1.08214 -0.00192 0.24350
 H158 H 1.01517 0.03573 0.25510
 H159 H 1.01538 -0.03996 0.23481
 H160 H 0.98031 -0.04042 0.25255
 H161 H 0.91341 -0.00150 0.24481
 H162 H 0.98047 0.03624 0.23697
 C163 C 0.56154 0.49876 0.75162
 C164 C 0.54852 0.52007 0.75593
 C165 C 0.52311 0.51943 0.75521
 C166 C 0.51053 0.49795 0.74908
 C167 C 0.52429 0.47680 0.74437
 C168 C 0.54973 0.47701 0.74606
 C169 C 0.48328 0.49772 0.74762
 C170 C 0.47007 0.47601 0.75079
 C171 C 0.44464 0.47568 0.74915
 C172 C 0.43222 0.49754 0.74547
 C173 C 0.44471 0.51949 0.74283
 C174 C 0.47017 0.51931 0.74321
 H175 H 0.58115 0.49913 0.75253
 H176 H 0.51334 0.53575 0.75982
 H177 H 0.51549 0.46018 0.73892
 H178 H 0.47936 0.45928 0.75492
 H179 H 0.41260 0.49750 0.74474
 H180 H 0.47959 0.53612 0.73982
 C181 C 0.99939 1.06186 0.75865
 C182 C 0.97715 1.05039 0.75387
 C183 C 0.97671 1.02489 0.75213
 C184 C 0.99791 1.01095 0.75617
 C185 C 1.01974 1.02327 0.76152
 C186 C 1.02070 1.04860 0.76211
 C187 C 0.99745 0.98373 0.75486
 C188 C 1.01880 0.97056 0.74958
 C189 C 1.01914 0.94507 0.74988
 C190 C 0.99720 0.93271 0.75378
 C191 C 0.97549 0.94523 0.75816
 C192 C 0.97588 0.97065 0.75925
 H193 H 1.00036 1.08143 0.75930
 H194 H 0.95991 1.01605 0.74730
 H195 H 1.03614 1.01337 0.76559
 H196 H 1.03533 0.98006 0.74512
 H197 H 0.99694 0.91311 0.75342
 H198 H 0.95935 0.98005 0.76397
 C199 C 0.49922 0.56230 0.25150
 C200 C 0.47739 0.55020 0.24691
 C201 C 0.47711 0.52476 0.24671
 C202 C 0.49836 0.51132 0.25179
 C203 C 0.51997 0.52418 0.25695
 C204 C 0.52062 0.54957 0.25629
 C205 C 0.49820 0.48410 0.25145
 C206 C 0.51974 0.47110 0.24672
 C207 C 0.52024 0.44571 0.24736
 C208 C 0.49856 0.43308 0.25135
 C209 C 0.47663 0.44536 0.25527
 C210 C 0.47670 0.47084 0.25584
 H211 H 0.49958 0.58191 0.25129
 H212 H 0.46040 0.51565 0.24205
 H213 H 0.53638 0.51467 0.26184
 H214 H 0.53629 0.48058 0.24228
 H215 H 0.49877 0.41347 0.25139
 H216 H 0.45999 0.48016 0.26007
 O217 O 0.24577 0.18670 0.22090
 O218 O 0.27339 0.18124 0.25530
 O219 O 0.18196 0.21648 0.25396
 O220 O 0.17407 0.24590 0.27923
 O221 O 0.21308 0.25035 0.19060
 O222 O 0.24475 0.27629 0.18414
 O223 O 0.24483 0.28318 0.31715
 O224 O 0.21744 0.25095 0.32368
 O225 O 0.30798 0.25116 0.28768
 O226 O 0.31448 0.22274 0.25789
 O227 O 0.27816 0.31284 0.25726
 O228 O 0.24722 0.31852 0.22638
 O229 O 0.24536 0.31242 0.28806
 O230 O 0.21446 0.31590 0.25402
 O231 O 0.30733 0.28364 0.25660
 O232 O 0.31218 0.25067 0.22523
 O233 O 0.27880 0.25174 0.31690
 O234 O 0.24514 0.22274 0.32434
 O235 O 0.24650 0.21587 0.19178
 O236 O 0.27616 0.25008 0.18812
 O237 O 0.18325 0.25025 0.21918
 O238 O 0.17849 0.27973 0.25281
 O239 O 0.21116 0.18716 0.25438
 O240 O 0.24299 0.18109 0.28260
 Zr241 Zr 0.24422 0.20630 0.25368
 O242 O 0.26675 0.22728 0.27623
 Zr243 Zr 0.20173 0.24905 0.25277
 O244 O 0.22229 0.27135 0.27611
 Zr245 Zr 0.24520 0.24887 0.21094
 O246 O 0.26695 0.27187 0.23219
 Zr247 Zr 0.24561 0.25043 0.29772
 O248 O 0.22277 0.22790 0.27663
 Zr249 Zr 0.28824 0.25061 0.25530
 O250 O 0.26806 0.22728 0.23246
 Zr251 Zr 0.24547 0.29313 0.25521
 O252 O 0.22342 0.27225 0.23177
 O253 O 0.22231 0.22656 0.23077
 O254 O 0.26802 0.27309 0.27782
 C255 C 0.24691 0.19364 0.19870
 C256 C 0.18890 0.19423 0.25477
 C257 C 0.19070 0.25104 0.19709
 C258 C 0.24482 0.30541 0.31024
 C259 C 0.30108 0.25187 0.30989
 C260 C 0.30041 0.30587 0.25742
 H261 H 0.27710 0.21644 0.28605
 H262 H 0.27708 0.28214 0.22152
 H263 H 0.21204 0.21625 0.22028
 H264 H 0.21124 0.28133 0.28611
 H265 H 0.20462 0.23995 0.31759
 H266 H 0.17744 0.25806 0.29195
 H267 H 0.32854 0.25514 0.23120
 H268 H 0.27154 0.24426 0.17175
 H269 H 0.25870 0.21150 0.32102
 H270 H 0.23165 0.18766 0.29484
 H271 H 0.25000 0.33487 0.23329
 H272 H 0.23664 0.29048 0.19150
 H273 H 0.26732 0.16493 0.25072
 H274 H 0.30920 0.20984 0.24661
 H275 H 0.16195 0.27435 0.24822
 H276 H 0.21891 0.33202 0.26056
 O277 O 0.75077 0.80786 0.21185
 O278 O 0.72567 0.81662 0.24565
 O279 O 0.81446 0.77799 0.24565
 O280 O 0.82150 0.74898 0.27143
 O281 O 0.78318 0.74387 0.18215
 O282 O 0.75095 0.71822 0.17580
 O283 O 0.74929 0.71243 0.30848
 O284 O 0.77805 0.74397 0.31489
 O285 O 0.68741 0.74436 0.27866
 O286 O 0.68101 0.77222 0.24876
 O287 O 0.71767 0.68222 0.24870
 O288 O 0.74901 0.67645 0.21805
 O289 O 0.74915 0.68272 0.27985
 O290 O 0.78122 0.67906 0.24658
 O291 O 0.68844 0.71137 0.24822
 O292 O 0.68386 0.74310 0.21589
 O293 O 0.71672 0.74433 0.30780
 O294 O 0.74686 0.77275 0.31515
 O295 O 0.75087 0.77883 0.18260
 O296 O 0.72008 0.74543 0.17926
 O297 O 0.81258 0.74399 0.21123
 O298 O 0.81723 0.71509 0.24540
 O299 O 0.78528 0.80719 0.24578
 O300 O 0.74911 0.81466 0.27273
 Zr301 Zr 0.75181 0.78862 0.24469
 O302 O 0.72896 0.76792 0.26704
 Zr303 Zr 0.79409 0.74582 0.24470
 O304 O 0.77326 0.72370 0.26789
 Zr305 Zr 0.75094 0.74598 0.20225
 O306 O 0.72898 0.72308 0.22349
 Zr307 Zr 0.74986 0.74500 0.28889
 O308 O 0.77313 0.76757 0.26827
 Zr309 Zr 0.70740 0.74447 0.24627
 O310 O 0.72780 0.76775 0.22345
 Zr311 Zr 0.75025 0.70191 0.24685
 O312 O 0.77249 0.72266 0.22351
 O313 O 0.77389 0.76822 0.22221
 O314 O 0.72758 0.72225 0.26900
 C315 C 0.75057 0.80104 0.18961
 C316 C 0.80754 0.80021 0.24635
 C317 C 0.80543 0.74304 0.18903
 C318 C 0.74880 0.69009 0.30194
 C319 C 0.69443 0.74411 0.30088
 C320 C 0.69544 0.68916 0.24916
 H321 H 0.71883 0.77893 0.27694
 H322 H 0.71896 0.71272 0.21280
 H323 H 0.78441 0.77835 0.21181
 H324 H 0.78404 0.71371 0.27817
 H325 H 0.79011 0.75626 0.30989
 H326 H 0.81750 0.73742 0.28452
 H327 H 0.66732 0.73949 0.22193
 H328 H 0.72501 0.75082 0.16284
 H329 H 0.75885 0.78530 0.31080
 H330 H 0.76405 0.81357 0.28261
 H331 H 0.74609 0.66013 0.22497
 H332 H 0.75945 0.70422 0.18310
 H333 H 0.71242 0.81170 0.23463
 H334 H 0.68364 0.78311 0.23478
 H335 H 0.83377 0.72032 0.24067
 H336 H 0.77653 0.66303 0.25316
 O337 O 0.75172 0.18797 0.78458
 O338 O 0.72434 0.18036 0.75021
 O339 O 0.81409 0.21727 0.74904
 O340 O 0.82100 0.24658 0.72313
 O341 O 0.78481 0.25194 0.81295
 O342 O 0.75250 0.27811 0.81973
 O343 O 0.74835 0.28356 0.68752
 O344 O 0.77715 0.25188 0.68054
 O345 O 0.68726 0.25138 0.71793
 O346 O 0.68132 0.22312 0.74790
 O347 O 0.71729 0.31311 0.74774
 O348 O 0.74922 0.31907 0.77804
 O349 O 0.74862 0.31301 0.71641
 O350 O 0.78098 0.31684 0.74902
 O351 O 0.68817 0.28387 0.74879
 O352 O 0.68441 0.25211 0.78092
 O353 O 0.71613 0.25118 0.68839
 O354 O 0.74966 0.22294 0.68043
 O355 O 0.75207 0.21739 0.81346
 O356 O 0.72175 0.25072 0.81751
 O357 O 0.81371 0.25128 0.78339
 O358 O 0.81741 0.28054 0.74981
 O359 O 0.78485 0.18807 0.74945
 O360 O 0.75063 0.18044 0.72397
 Zr361 Zr 0.75181 0.20708 0.75146
 O362 O 0.72878 0.22769 0.72913
 Zr363 Zr 0.79425 0.24982 0.75050
 O364 O 0.77303 0.27204 0.72771
 Zr365 Zr 0.75194 0.24997 0.79366
 O366 O 0.72938 0.27253 0.77273
 Zr367 Zr 0.74943 0.25073 0.70697
 O368 O 0.77270 0.22819 0.72751
 Zr369 Zr 0.70753 0.25106 0.75022
 O370 O 0.72833 0.22808 0.77302
 Zr371 Zr 0.75020 0.29373 0.74914
 O372 O 0.77307 0.27312 0.77197
 O373 O 0.77440 0.22756 0.77339
 O374 O 0.72732 0.27335 0.72722
 C375 C 0.75178 0.19511 0.80677
 C376 C 0.80708 0.19502 0.74850
 C377 C 0.80699 0.25241 0.80569
 C378 C 0.74795 0.30586 0.69429
 C379 C 0.69397 0.25155 0.69560
 C380 C 0.69504 0.30608 0.74774
 H381 H 0.71833 0.21665 0.71964
 H382 H 0.71947 0.28285 0.78356
 H383 H 0.78510 0.21739 0.78358
 H384 H 0.78364 0.28209 0.71732
 H385 H 0.78994 0.24054 0.68600
 H386 H 0.81759 0.25912 0.71078
 H387 H 0.66771 0.25543 0.77512
 H388 H 0.72718 0.24568 0.83389
 H389 H 0.73679 0.21118 0.68455
 H390 H 0.76110 0.18639 0.71067
 H391 H 0.74582 0.33535 0.77124
 H392 H 0.76185 0.29161 0.81255
 H393 H 0.71319 0.18363 0.76385
 H394 H 0.68427 0.21214 0.76174
 H395 H 0.83416 0.27514 0.75357
 H396 H 0.77602 0.33294 0.74284
 O397 O 0.25606 0.81838 0.78184
 O398 O 0.27800 0.82726 0.74931
 O399 O 0.19041 0.78817 0.74901
 O400 O 0.18294 0.75889 0.72383
 O401 O 0.22100 0.75553 0.81316
 O402 O 0.25238 0.72956 0.82023
 O403 O 0.25363 0.72055 0.68732
 O404 O 0.22637 0.75281 0.68032
 O405 O 0.31696 0.75233 0.71682
 O406 O 0.32356 0.78090 0.74667
 O407 O 0.28590 0.69149 0.74771
 O408 O 0.25487 0.68647 0.77860
 O409 O 0.25345 0.69172 0.71683
 O410 O 0.22226 0.68908 0.75081
 O411 O 0.31569 0.72006 0.74786
 O412 O 0.32030 0.75219 0.77962
 O413 O 0.28771 0.75146 0.68764
 O414 O 0.25837 0.78064 0.67955
 O415 O 0.25491 0.78980 0.81152
 O416 O 0.28410 0.75538 0.81611
 O417 O 0.19171 0.75518 0.78401
 O418 O 0.18676 0.72554 0.75049
 O419 O 0.21955 0.81740 0.74877
 O420 O 0.25581 0.82232 0.71976
 Zr421 Zr 0.25294 0.79833 0.74958
 O422 O 0.27572 0.77675 0.72778
 Zr423 Zr 0.21032 0.75596 0.75062
 O424 O 0.23083 0.73313 0.72793
 Zr425 Zr 0.25335 0.75650 0.79297
 O426 O 0.27504 0.73284 0.77233
 Zr427 Zr 0.25451 0.75356 0.70638
 O428 O 0.23144 0.77689 0.72651
 Zr429 Zr 0.29692 0.75339 0.74909
 O430 O 0.27668 0.77745 0.77117
 Zr431 Zr 0.25351 0.71149 0.74943
 O432 O 0.23153 0.73298 0.77230
 O433 O 0.23071 0.77872 0.77263
 O434 O 0.27647 0.73092 0.72678
 C435 C 0.25646 0.81183 0.80417
 C436 C 0.19727 0.81038 0.74819
 C437 C 0.19873 0.75471 0.80624
 C438 C 0.25331 0.69841 0.69453
 C439 C 0.30999 0.75127 0.69463
 C440 C 0.30828 0.69797 0.74729
 H441 H 0.28606 0.78729 0.71760
 H442 H 0.28489 0.72255 0.78323
 H443 H 0.22056 0.78930 0.78296
 H444 H 0.21980 0.72312 0.71795
 H445 H 0.21454 0.76539 0.68515
 H446 H 0.18692 0.74720 0.71085
 H447 H 0.33686 0.74838 0.77373
 H448 H 0.27938 0.76149 0.83235
 H449 H 0.24655 0.79351 0.68343
 H450 H 0.23997 0.82242 0.71131
 H451 H 0.25753 0.67000 0.77191
 H452 H 0.24448 0.71522 0.81293
 H453 H 0.29413 0.81991 0.74669
 H454 H 0.32072 0.79202 0.76046
 H455 H 0.17029 0.73107 0.75514
 H456 H 0.22653 0.67286 0.74440
 O457 O 0.25019 0.30586 0.71001
 O458 O 0.22498 0.31455 0.74370
 O459 O 0.31392 0.27628 0.74395
 O460 O 0.32105 0.24742 0.76979
 O461 O 0.28290 0.24171 0.68049
 O462 O 0.25071 0.21624 0.67400
 O463 O 0.24894 0.21059 0.80679
 O464 O 0.27756 0.24229 0.81321
 O465 O 0.18698 0.24228 0.77680
 O466 O 0.18055 0.27002 0.74674
 O467 O 0.21760 0.18016 0.74725
 O468 O 0.24884 0.17441 0.71648
 O469 O 0.24910 0.18083 0.77821
 O470 O 0.28116 0.17729 0.74487
 O471 O 0.18824 0.20918 0.74664
 O472 O 0.18351 0.24065 0.71407
 O473 O 0.21624 0.24235 0.80599
 O474 O 0.24624 0.27091 0.81336
 O475 O 0.25055 0.27679 0.68079
 O476 O 0.21976 0.24327 0.67750
 O477 O 0.31226 0.24211 0.70962
 O478 O 0.31698 0.21342 0.74390
 O479 O 0.28461 0.30536 0.74399
 O480 O 0.24836 0.31274 0.77084
 Zr481 Zr 0.25124 0.28666 0.74286
 O482 O 0.22845 0.26592 0.76522
 Zr483 Zr 0.29369 0.24404 0.74303
 O484 O 0.27294 0.22189 0.76624
 Zr485 Zr 0.25061 0.24396 0.70050
 O486 O 0.22873 0.22100 0.72175
 Zr487 Zr 0.24942 0.24313 0.78715
 O488 O 0.27261 0.26575 0.76652
 Zr489 Zr 0.20703 0.24234 0.74445
 O490 O 0.22736 0.26567 0.72162
 Zr491 Zr 0.25007 0.19997 0.74519
 O492 O 0.27223 0.22077 0.72184
 O493 O 0.27346 0.26631 0.72045
 O494 O 0.22728 0.22027 0.76726
 C495 C 0.25013 0.29902 0.68778
 C496 C 0.30689 0.29847 0.74463
 C497 C 0.30515 0.24092 0.68742
 C498 C 0.24863 0.18824 0.80029
 C499 C 0.19396 0.24206 0.79903
 C500 C 0.19535 0.18702 0.74777
 H501 H 0.21826 0.27691 0.77508
 H502 H 0.21877 0.21056 0.71108
 H503 H 0.28397 0.27644 0.71004
 H504 H 0.28375 0.21197 0.77655
 H505 H 0.28956 0.25464 0.80821
 H506 H 0.31708 0.23590 0.78292
 H507 H 0.16698 0.23702 0.72013
 H508 H 0.22464 0.24879 0.66111
 H509 H 0.25816 0.28352 0.80899
 H510 H 0.26328 0.31175 0.78075
 H511 H 0.24602 0.15811 0.72347
 H512 H 0.25892 0.20214 0.68143
 H513 H 0.21174 0.30953 0.73272
 H514 H 0.18310 0.28078 0.73264
 H515 H 0.33352 0.21870 0.73919
 H516 H 0.27658 0.16126 0.75153
 O517 O 0.74439 0.68784 0.72325
 O518 O 0.77210 0.68237 0.75762
 O519 O 0.68058 0.71737 0.75664
 O520 O 0.67251 0.74674 0.78174
 O521 O 0.71158 0.75151 0.69320
 O522 O 0.74316 0.77752 0.68679
 O523 O 0.74324 0.78399 0.81985
 O524 O 0.71588 0.75165 0.82624
 O525 O 0.80642 0.75218 0.79024
 O526 O 0.81301 0.72392 0.76034
 O527 O 0.77645 0.81392 0.76009
 O528 O 0.74554 0.81965 0.72922
 O529 O 0.74365 0.81333 0.79085
 O530 O 0.71275 0.81683 0.75679
 O531 O 0.80568 0.78478 0.75933
 O532 O 0.81065 0.75200 0.72782
 O533 O 0.77727 0.75257 0.81948
 O534 O 0.74368 0.72355 0.82686
 O535 O 0.74504 0.71711 0.69423
 O536 O 0.77465 0.75141 0.69072
 O537 O 0.68174 0.75120 0.72177
 O538 O 0.67693 0.78061 0.75549
 O539 O 0.70984 0.68811 0.75686
 O540 O 0.74170 0.68195 0.78488
 Zr541 Zr 0.74283 0.70732 0.75610
 O542 O 0.76527 0.72828 0.77874
 Zr543 Zr 0.70023 0.74998 0.75536
 O544 O 0.72071 0.77225 0.77878
 Zr545 Zr 0.74368 0.75003 0.71352
 O546 O 0.76536 0.77302 0.73484
 Zr547 Zr 0.74408 0.75130 0.80030
 O548 O 0.72133 0.72879 0.77913
 Zr549 Zr 0.78670 0.75172 0.75787
 O550 O 0.76660 0.72841 0.73495
 Zr551 Zr 0.74383 0.79415 0.75794
 O552 O 0.72184 0.77329 0.73442
 O553 O 0.72084 0.72760 0.73328
 O554 O 0.76643 0.77408 0.78047
 C555 C 0.74550 0.69485 0.70108
 C556 C 0.68758 0.69514 0.75743
 C557 C 0.68921 0.75211 0.69969
 C558 C 0.74314 0.80624 0.81302
 C559 C 0.79954 0.75276 0.81245
 C560 C 0.79871 0.80699 0.76025
 H561 H 0.77565 0.71742 0.78851
 H562 H 0.77546 0.78335 0.72421
 H563 H 0.71059 0.71728 0.72278
 H564 H 0.70963 0.78216 0.78881
 H565 H 0.70311 0.74062 0.82011
 H566 H 0.67590 0.75879 0.79456
 H567 H 0.82700 0.75648 0.73381
 H568 H 0.77006 0.74560 0.67433
 H569 H 0.75722 0.71231 0.82346
 H570 H 0.73046 0.68849 0.79723
 H571 H 0.74826 0.83599 0.73620
 H572 H 0.73510 0.79170 0.69423
 H573 H 0.76612 0.66607 0.75293
 H574 H 0.80781 0.71108 0.74895
 H575 H 0.66042 0.77524 0.75079
 H576 H 0.71713 0.83293 0.76342
 O577 O 0.25172 0.68820 0.28319
 O578 O 0.22437 0.68060 0.24874
 O579 O 0.31402 0.71786 0.24786
 O580 O 0.32102 0.74727 0.22226
 O581 O 0.28429 0.75236 0.31185
 O582 O 0.25182 0.77821 0.31859
 O583 O 0.24845 0.78395 0.18630
 O584 O 0.27735 0.75233 0.17942
 O585 O 0.18728 0.75161 0.21637
 O586 O 0.18135 0.72306 0.24622
 O587 O 0.21688 0.81322 0.24625
 O588 O 0.24852 0.81934 0.27686
 O589 O 0.24842 0.81335 0.21524
 O590 O 0.28055 0.81725 0.24813
 O591 O 0.18789 0.78384 0.24722
 O592 O 0.18406 0.75209 0.27931
 O593 O 0.21630 0.75168 0.18698
 O594 O 0.24991 0.72334 0.17913
 O595 O 0.25178 0.71756 0.31214
 O596 O 0.22120 0.75075 0.31606
 O597 O 0.31332 0.75185 0.28243
 O598 O 0.31709 0.78114 0.24890
 O599 O 0.28487 0.68857 0.24801
 O600 O 0.25076 0.68072 0.22265
 Zr601 Zr 0.25178 0.70739 0.25012
 O602 O 0.22881 0.72793 0.22769
 Zr603 Zr 0.29406 0.75031 0.24944
 O604 O 0.27290 0.77248 0.22659
 Zr605 Zr 0.25154 0.75018 0.29241
 O606 O 0.22901 0.77270 0.27141
 Zr607 Zr 0.24949 0.75109 0.20570
 O608 O 0.27272 0.72862 0.22633
 Zr609 Zr 0.20738 0.75114 0.24876
 O610 O 0.22812 0.72822 0.27163
 Zr611 Zr 0.24987 0.79402 0.24796
 O612 O 0.27269 0.77347 0.27087
 O613 O 0.27421 0.72790 0.27219
 O614 O 0.22721 0.77356 0.22591
 C615 C 0.25164 0.69529 0.30540
 C616 C 0.30707 0.69561 0.24708
 C617 C 0.30649 0.75301 0.30468
 C618 C 0.24791 0.80624 0.19311
 C619 C 0.19411 0.75203 0.19409
 C620 C 0.19467 0.80606 0.24608
 H621 H 0.21844 0.71688 0.21811
 H622 H 0.21899 0.78295 0.28219
 H623 H 0.28493 0.71776 0.28239
 H624 H 0.28352 0.78259 0.21628
 H625 H 0.29014 0.74100 0.18493
 H626 H 0.31755 0.75972 0.20985
 H627 H 0.16738 0.75527 0.27340
 H628 H 0.22653 0.74560 0.33245
 H629 H 0.23682 0.71172 0.18297
 H630 H 0.26100 0.68684 0.20926
 H631 H 0.24508 0.83560 0.27003
 H632 H 0.26094 0.79187 0.31141
 H633 H 0.21324 0.68375 0.26243
 H634 H 0.18419 0.71214 0.26012
 H635 H 0.33383 0.77584 0.25281
 H636 H 0.27558 0.83334 0.24190
 O637 O 0.75769 0.31949 0.28268
 O638 O 0.78216 0.32700 0.24823
 O639 O 0.69312 0.28944 0.24936
 O640 O 0.68555 0.26021 0.22421
 O641 O 0.72335 0.25664 0.31363
 O642 O 0.75472 0.23051 0.32071
 O643 O 0.75600 0.22170 0.18783
 O644 O 0.72882 0.25449 0.18094
 O645 O 0.81948 0.25311 0.21749
 O646 O 0.82605 0.28192 0.24653
 O647 O 0.78830 0.19265 0.24821
 O648 O 0.75726 0.18754 0.27905
 O649 O 0.75587 0.19287 0.21733
 O650 O 0.72463 0.19026 0.25131
 O651 O 0.81812 0.22119 0.24868
 O652 O 0.82270 0.25356 0.28026
 O653 O 0.79030 0.25235 0.18825
 O654 O 0.76132 0.28152 0.17988
 O655 O 0.75727 0.29078 0.31223
 O656 O 0.78646 0.25631 0.31676
 O657 O 0.69416 0.25640 0.28437
 O658 O 0.68921 0.22683 0.25076
 O659 O 0.72229 0.31865 0.24914
 O660 O 0.75816 0.32477 0.22153
 Zr661 Zr 0.75558 0.29949 0.25025
 O662 O 0.77819 0.27785 0.22836
 Zr663 Zr 0.71289 0.25717 0.25104
 O664 O 0.73333 0.23428 0.22838
 Zr665 Zr 0.75577 0.25755 0.29355
 O666 O 0.77745 0.23393 0.27287
 Zr667 Zr 0.75707 0.25470 0.20690
 O668 O 0.73414 0.27811 0.22704
 Zr669 Zr 0.79938 0.25451 0.24970
 O670 O 0.77923 0.27857 0.27192
 Zr671 Zr 0.75592 0.21263 0.24994
 O672 O 0.73395 0.23412 0.27278
 O673 O 0.73325 0.27982 0.27316
 O674 O 0.77894 0.23205 0.22735
 C675 C 0.75835 0.31286 0.30497
 C676 C 0.70002 0.31162 0.24849
 C677 C 0.70111 0.25590 0.30663
 C678 C 0.75568 0.19955 0.19503
 C679 C 0.81256 0.25198 0.19529
 C680 C 0.81067 0.19912 0.24794
 H681 H 0.78853 0.28842 0.21822
 H682 H 0.78729 0.22363 0.28378
 H683 H 0.72301 0.29038 0.28343
 H684 H 0.72227 0.22430 0.21839
 H685 H 0.71739 0.26749 0.18564
 H686 H 0.68968 0.24872 0.21110
 H687 H 0.83928 0.24985 0.27439
 H688 H 0.78171 0.26240 0.33300
 H689 H 0.75041 0.29500 0.18427
 H690 H 0.74312 0.32349 0.21182
 H691 H 0.75990 0.17109 0.27233
 H692 H 0.74667 0.21627 0.31339
 H693 H 0.79564 0.32194 0.25890
 H694 H 0.82384 0.29293 0.26049
 H695 H 0.67275 0.23239 0.25544
 H696 H 0.72886 0.17406 0.24486
 N697 N 0.25050 0.10625 0.06501
 C698 C 0.25300 0.09513 0.08668
 N699 N 0.25516 0.07064 0.08737
 N700 N 0.25471 0.05774 0.06690
 C701 C 0.25207 0.06884 0.04501
 N702 N 0.25004 0.09340 0.04465
 C703 C 0.25280 0.10949 0.10839
 C704 C 0.25223 0.12311 0.12548
 C705 C 0.25119 0.14086 0.14449
 N706 N 0.24994 0.13422 0.16812
 N707 N 0.24859 0.15100 0.18547
 C708 C 0.24840 0.17496 0.17976
 N709 N 0.24966 0.18148 0.15608
 N710 N 0.25101 0.16474 0.13878
 N711 N 0.75374 0.60728 0.56722
 C712 C 0.75316 0.59627 0.58911
 N713 N 0.75237 0.57172 0.59012
 N714 N 0.75202 0.55863 0.56977
 C715 C 0.75242 0.56966 0.54772
 N716 N 0.75337 0.59424 0.54696
 C717 C 0.75246 0.61086 0.61066
 C718 C 0.75155 0.62454 0.62769
 C719 C 0.75020 0.64226 0.64672
 N720 N 0.74899 0.63555 0.67033
 N721 N 0.74748 0.65227 0.68773
 C722 C 0.74708 0.67624 0.68207
 N723 N 0.74828 0.68283 0.65841
 N724 N 0.74979 0.66614 0.64106
 N725 N 0.75597 0.93660 0.10569
 C726 C 0.75613 0.91517 0.09379
 N727 N 0.75631 0.91514 0.06922
 N728 N 0.75615 0.93599 0.05698
 C729 C 0.75576 0.95763 0.06884
 N730 N 0.75578 0.95736 0.09348
 C731 C 0.75534 0.89305 0.10744
 C732 C 0.75437 0.87556 0.12050
 C733 C 0.75305 0.85617 0.13777
 N734 N 0.75304 0.83262 0.13068
 N735 N 0.75199 0.81492 0.14712
 C736 C 0.75088 0.82023 0.17115
 N737 N 0.75084 0.84381 0.17809
 N738 N 0.75188 0.86145 0.16170
 N739 N 0.25869 0.43453 0.60359
 C740 C 0.25642 0.41311 0.59189
 N741 N 0.25411 0.41303 0.56742
 N742 N 0.25391 0.43383 0.55511
 C743 C 0.25597 0.45542 0.56683
 N744 N 0.25846 0.45527 0.59131
 C745 C 0.25538 0.39109 0.60569
 C746 C 0.25425 0.37362 0.61877
 C747 C 0.25276 0.35421 0.63601
 N748 N 0.25294 0.33067 0.62889
 N749 N 0.25182 0.31294 0.64530
 C750 C 0.25045 0.31821 0.66932
 N751 N 0.25022 0.34179 0.67628
 N752 N 0.25132 0.35945 0.65993
 N753 N 0.75974 0.06456 0.89935
 C754 C 0.75721 0.08678 0.90934
 N755 N 0.75378 0.08868 0.93362
 N756 N 0.75265 0.06883 0.94741
 C757 C 0.75484 0.04644 0.93734
 N758 N 0.75857 0.04481 0.91307
 C759 C 0.75671 0.10763 0.89381
 C760 C 0.75591 0.12400 0.87937
 C761 C 0.75472 0.14234 0.86097
 N762 N 0.75427 0.16617 0.86689
 N763 N 0.75315 0.18299 0.84960
 C764 C 0.75237 0.17655 0.82584
 N765 N 0.75278 0.15267 0.82001
 N766 N 0.75391 0.13586 0.83729
 N767 N 0.26017 0.56447 0.39743
 C768 C 0.25720 0.58659 0.40754
 N769 N 0.25343 0.58827 0.43179
 N770 N 0.25240 0.56832 0.44543
 C771 C 0.25503 0.54603 0.43523
 N772 N 0.25910 0.54461 0.41100
 C773 C 0.25661 0.60753 0.39214
 C774 C 0.25578 0.62397 0.37779
 C775 C 0.25458 0.64237 0.35945
 N776 N 0.25399 0.66618 0.36545
 N777 N 0.25287 0.68305 0.34821
 C778 C 0.25224 0.67668 0.32442
 N779 N 0.25278 0.65282 0.31852
 N780 N 0.25390 0.63597 0.33575
 N781 N 0.26076 0.93615 0.91330
 C782 C 0.26602 0.91214 0.91413
 N783 N 0.26992 0.90153 0.93588
 N784 N 0.26831 0.91436 0.95620
 C785 C 0.26273 0.93832 0.95562
 N786 N 0.25920 0.94904 0.93370
 C787 C 0.26548 0.89738 0.89274
 C788 C 0.26447 0.88346 0.87594
 C789 C 0.26278 0.86541 0.85731
 N790 N 0.26129 0.84171 0.86352
 N791 N 0.25928 0.82470 0.84655
 C792 C 0.25863 0.83079 0.82274
 N793 N 0.26012 0.85457 0.81653
 N794 N 0.26213 0.87162 0.83354
 N795 N 0.76091 0.43675 0.41467
 C796 C 0.76619 0.41275 0.41541
 N797 N 0.76994 0.40202 0.43713
 N798 N 0.76818 0.41473 0.45751
 C799 C 0.76259 0.43869 0.45702
 N800 N 0.75919 0.44952 0.43514
 C801 C 0.76590 0.39812 0.39393
 C802 C 0.76514 0.38429 0.37705
 C803 C 0.76375 0.36630 0.35833
 N804 N 0.76280 0.34254 0.36444
 N805 N 0.76107 0.32558 0.34739
 C806 C 0.76019 0.33177 0.32362
 N807 N 0.76116 0.35561 0.31751
 N808 N 0.76288 0.37261 0.33460
 N809 N 0.10628 0.25428 0.06109
 C810 C 0.09488 0.25646 0.08268
 N811 N 0.07031 0.25762 0.08318
 N812 N 0.05757 0.25647 0.06264
 C813 C 0.06893 0.25406 0.04086
 N814 N 0.09357 0.25311 0.04064
 C815 C 0.10897 0.25659 0.10455
 C816 C 0.12218 0.25619 0.12196
 C817 C 0.13940 0.25527 0.14146
 N818 N 0.13208 0.25431 0.16491
 N819 N 0.14837 0.25299 0.18274
 C820 C 0.17250 0.25251 0.17768
 N821 N 0.17969 0.25347 0.15419
 N822 N 0.16343 0.25480 0.13641
 N823 N 0.60524 0.75950 0.56355
 C824 C 0.59372 0.75894 0.58519
 N825 N 0.56916 0.75756 0.58567
 N826 N 0.55656 0.75660 0.56504
 C827 C 0.56808 0.75694 0.54325
 N828 N 0.59267 0.75851 0.54300
 C829 C 0.60774 0.75864 0.60708
 C830 C 0.62089 0.75795 0.62452
 C831 C 0.63803 0.75674 0.64404
 N832 N 0.63065 0.75567 0.66746
 N833 N 0.64691 0.75418 0.68531
 C834 C 0.67104 0.75366 0.68028
 N835 N 0.67828 0.75473 0.65681
 N836 N 0.66207 0.75622 0.63902
 N837 N 0.06489 0.74454 0.89384
 C838 C 0.08678 0.74640 0.90478
 N839 N 0.08780 0.74834 0.92926
 N840 N 0.06744 0.74858 0.94235
 C841 C 0.04538 0.74693 0.93139
 N842 N 0.04462 0.74481 0.90688
 C843 C 0.10831 0.74739 0.89018
 C844 C 0.12536 0.74853 0.87654
 C845 C 0.14440 0.75011 0.85886
 N846 N 0.16806 0.75104 0.86557
 N847 N 0.18547 0.75260 0.84886
 C848 C 0.17976 0.75333 0.82490
 N849 N 0.15606 0.75243 0.81832
 N850 N 0.13870 0.75087 0.83499
 N851 N 0.58941 0.24820 0.42904
 C852 C 0.58852 0.24894 0.40448
 N853 N 0.56667 0.24962 0.39334
 N854 N 0.54632 0.24971 0.40627
 C855 C 0.54697 0.24909 0.43086
 N856 N 0.56898 0.24827 0.44201
 C857 C 0.61020 0.24965 0.39010
 C858 C 0.62736 0.25055 0.37659
 C859 C 0.64651 0.25186 0.35901
 N860 N 0.64093 0.25250 0.33511
 N861 N 0.65837 0.25386 0.31851
 C862 C 0.68205 0.25465 0.32521
 N863 N 0.68764 0.25402 0.34919
 N864 N 0.67014 0.25267 0.36583
 N865 N 0.91560 0.73785 0.06513
 C866 C 0.91630 0.73891 0.08968
 N867 N 0.93787 0.74203 0.10090
 N868 N 0.95812 0.74422 0.08806
 C869 C 0.95773 0.74340 0.06344
 N870 N 0.93597 0.74001 0.05224
 C871 C 0.89468 0.73791 0.10404
 C872 C 0.87773 0.73780 0.11779
 C873 C 0.85897 0.73837 0.13574
 N874 N 0.86503 0.73873 0.15953
 N875 N 0.84793 0.74012 0.17649
 C876 C 0.82416 0.74126 0.17023
 N877 N 0.81810 0.74086 0.14635
 N878 N 0.83524 0.73948 0.12937
 N879 N 0.41459 0.23686 0.56391
 C880 C 0.41541 0.23051 0.58764
 N881 N 0.43712 0.22574 0.59801
 N882 N 0.45746 0.22758 0.58521
 C883 C 0.45689 0.23428 0.56154
 N884 N 0.43499 0.23865 0.55106
 C885 C 0.39411 0.23108 0.60249
 C886 C 0.37733 0.23220 0.61641
 C887 C 0.35864 0.23408 0.63434
 N888 N 0.36472 0.23530 0.65810
 N889 N 0.34765 0.23753 0.67499
 C890 C 0.32388 0.23867 0.66869
 N891 N 0.31781 0.23744 0.64485
 N892 N 0.33492 0.23522 0.62793
 N893 N 0.93333 0.25720 0.91335
 C894 C 0.90879 0.25580 0.91476
 N895 N 0.89825 0.25284 0.93666
 N896 N 0.91173 0.25120 0.95655
 C897 C 0.93634 0.25242 0.95546
 N898 N 0.94687 0.25557 0.93336
 C899 C 0.89373 0.25658 0.89357
 C900 C 0.87951 0.25667 0.87698
 C901 C 0.86118 0.25623 0.85852
 N902 N 0.83744 0.25624 0.86490
 N903 N 0.82018 0.25512 0.84805
 C904 C 0.82607 0.25390 0.82422
 N905 N 0.84989 0.25392 0.81786
 N906 N 0.86717 0.25503 0.83473
 N907 N 0.43243 0.75703 0.41189
 C908 C 0.40832 0.76169 0.41346
 N909 N 0.39825 0.76527 0.43551
 N910 N 0.41174 0.76394 0.45543
 C911 C 0.43583 0.75898 0.45412
 N912 N 0.44599 0.75575 0.43189
 C913 C 0.39296 0.76113 0.39250
 C914 C 0.37866 0.76019 0.37602
 C915 C 0.36039 0.75867 0.35759
 N916 N 0.33664 0.75808 0.36393
 N917 N 0.31947 0.75626 0.34706
 C918 C 0.32546 0.75491 0.32326
 N919 N 0.34929 0.75550 0.31694
 N920 N 0.36648 0.75732 0.33384
 N921 N 0.10085 0.06153 0.25293
 C922 C 0.08960 0.08303 0.25631
 N923 N 0.06504 0.08363 0.25773
 N924 N 0.05216 0.06324 0.25567
 C925 C 0.06339 0.04156 0.25206
 N926 N 0.08802 0.04127 0.25085
 C927 C 0.10396 0.10466 0.25746
 C928 C 0.11769 0.12165 0.25782
 C929 C 0.13562 0.14048 0.25765
 N930 N 0.12918 0.16417 0.25662
 N931 N 0.14615 0.18137 0.25578
 C932 C 0.17008 0.17543 0.25586
 N933 N 0.17641 0.15169 0.25690
 N934 N 0.15947 0.13453 0.25776
 N935 N 0.59872 0.56259 0.76775
 C936 C 0.58804 0.58437 0.76419
 N937 N 0.56401 0.58527 0.75897
 N938 N 0.55113 0.56488 0.75714
 C939 C 0.56189 0.54294 0.76035
 N940 N 0.58589 0.54229 0.76587
 C941 C 0.60275 0.60576 0.76404
 C942 C 0.61659 0.62263 0.76337
 C943 C 0.63449 0.64141 0.76213
 N944 N 0.62800 0.66507 0.76105
 N945 N 0.64491 0.68227 0.75950
 C946 C 0.66883 0.67633 0.75891
 N947 N 0.67521 0.65261 0.75998
 N948 N 0.65833 0.63546 0.76153
 N949 N 0.93781 0.10292 0.75066
 C950 C 0.91582 0.09277 0.74696
 N951 N 0.91408 0.06830 0.74518
 N952 N 0.93385 0.05445 0.74714
 C953 C 0.95605 0.06460 0.75100
 N954 N 0.95746 0.08914 0.75263
 C955 C 0.89489 0.10816 0.74572
 C956 C 0.87847 0.12258 0.74528
 C957 C 0.86007 0.14097 0.74537
 N958 N 0.83624 0.13500 0.74622
 N959 N 0.81936 0.15227 0.74707
 C960 C 0.82573 0.17606 0.74716
 N961 N 0.84962 0.18195 0.74628
 N962 N 0.86648 0.16469 0.74542
 N963 N 0.41297 0.56904 0.24459
 C964 C 0.41509 0.59296 0.23931
 N965 N 0.43738 0.60243 0.23547
 N966 N 0.45700 0.58855 0.23717
 C967 C 0.45514 0.56466 0.24277
 N968 N 0.43268 0.55509 0.24624
 C969 C 0.39450 0.60879 0.23961
 C970 C 0.37826 0.62336 0.24037
 C971 C 0.35996 0.64174 0.24172
 N972 N 0.36641 0.66543 0.24243
 N973 N 0.34957 0.68266 0.24414
 C974 C 0.32571 0.67673 0.24525
 N975 N 0.31932 0.65296 0.24453
 N976 N 0.33616 0.63574 0.24282
 N977 N 0.06146 0.89483 0.74621
 C978 C 0.08299 0.90639 0.74405
 N979 N 0.08333 0.93094 0.74318
 N980 N 0.06269 0.94349 0.74461
 C981 C 0.04097 0.93199 0.74702
 N982 N 0.04090 0.90736 0.74766
 C983 C 0.10500 0.89247 0.74364
 C984 C 0.12249 0.87935 0.74382
 C985 C 0.14198 0.86209 0.74450
 N986 N 0.16552 0.86925 0.74527
 N987 N 0.18328 0.85285 0.74640
 C988 C 0.17804 0.82879 0.74686
 N989 N 0.15446 0.82178 0.74608
 N990 N 0.13676 0.83812 0.74494
 N991 N 0.58584 0.43158 0.24336
 C992 C 0.58558 0.40704 0.24225
 N993 N 0.56402 0.39531 0.24214
 N994 N 0.54333 0.40766 0.24327
 C995 C 0.54337 0.43223 0.24456
 N996 N 0.56509 0.44395 0.24447
 C997 C 0.60764 0.39328 0.24236
 C998 C 0.62519 0.38029 0.24292
 C999 C 0.64470 0.36314 0.24400
 N1000 N 0.63953 0.33918 0.24470
 N1001 N 0.65725 0.32290 0.24613
 C1002 C 0.68081 0.32998 0.24696
 N1003 N 0.68601 0.35405 0.24625
 N1004 N 0.66821 0.37038 0.24483
 N1005 N 0.93034 0.91190 0.25254
 C1006 C 0.90576 0.91259 0.25145
 N1007 N 0.89451 0.93429 0.24970
 N1008 N 0.90735 0.95467 0.24891
 C1009 C 0.93200 0.95427 0.24983
 N1010 N 0.94322 0.93237 0.25177
 C1011 C 0.89144 0.89086 0.25139
 C1012 C 0.87790 0.87370 0.25093
 C1013 C 0.86022 0.85460 0.25003
 N1014 N 0.83630 0.86024 0.24958
 N1015 N 0.81961 0.84287 0.24841
 C1016 C 0.82622 0.81920 0.24759
 N1017 N 0.85022 0.81355 0.24803
 N1018 N 0.86696 0.83098 0.24921
 N1019 N 0.39331 0.43281 0.75228
 C1020 C 0.40460 0.41105 0.75178
 N1021 N 0.42918 0.41030 0.75102
 N1022 N 0.44203 0.43079 0.75063
 C1023 C 0.43074 0.45271 0.75095
 N1024 N 0.40612 0.45321 0.75186
 C1025 C 0.39029 0.38935 0.75113
 C1026 C 0.37681 0.37218 0.75025
 C1027 C 0.35925 0.35304 0.74892
 N1028 N 0.36611 0.32945 0.74814
 N1029 N 0.34947 0.31196 0.74672
 C1030 C 0.32546 0.31752 0.74598
 N1031 N 0.31873 0.34115 0.74675
 N1032 N 0.33532 0.35859 0.74817
 N1033 N 0.10644 0.23656 0.93281
 C1034 C 0.09535 0.23804 0.91100
 N1035 N 0.07089 0.24065 0.91012
 N1036 N 0.05798 0.24191 0.93054
 C1037 C 0.06911 0.24068 0.95252
 N1038 N 0.09358 0.23786 0.95315
 C1039 C 0.10983 0.23803 0.88940
 C1040 C 0.12348 0.23840 0.87233
 C1041 C 0.14121 0.23916 0.85332
 N1042 N 0.13452 0.23970 0.82967
 N1043 N 0.15130 0.24068 0.81228
 C1044 C 0.17528 0.24121 0.81800
 N1045 N 0.18185 0.24067 0.84169
 N1046 N 0.16511 0.23969 0.85903
 N1047 N 0.60641 0.73945 0.43467
 C1048 C 0.59555 0.74060 0.41271
 N1049 N 0.57107 0.74296 0.41154
 N1050 N 0.55793 0.74428 0.43181
 C1051 C 0.56882 0.74335 0.45392
 N1052 N 0.59331 0.74080 0.45485
 C1053 C 0.61025 0.74048 0.39125
 C1054 C 0.62397 0.74076 0.37425
 C1055 C 0.64172 0.74141 0.35523
 N1056 N 0.63502 0.74198 0.33159
 N1057 N 0.65178 0.74289 0.31419
 C1058 C 0.67577 0.74331 0.31988
 N1059 N 0.68235 0.74274 0.34357
 N1060 N 0.66563 0.74183 0.36092
 N1061 N 0.93543 0.75678 0.89616
 C1062 C 0.91401 0.75845 0.90798
 N1063 N 0.91396 0.75954 0.93253
 N1064 N 0.93479 0.75881 0.94482
 C1065 C 0.95642 0.75694 0.93305
 N1066 N 0.95619 0.75603 0.90843
 C1067 C 0.89186 0.75828 0.89434
 C1068 C 0.87429 0.75770 0.88134
 C1069 C 0.85482 0.75663 0.86412
 N1070 N 0.83128 0.75605 0.87130
 N1071 N 0.81351 0.75476 0.85491
 C1072 C 0.81876 0.75394 0.83086
 N1073 N 0.84234 0.75451 0.82384
 N1074 N 0.86003 0.75581 0.84017
 N1075 N 0.43649 0.26266 0.39506
 C1076 C 0.41489 0.25985 0.40636
 N1077 N 0.41448 0.25658 0.43071
 N1078 N 0.43514 0.25598 0.44330
 C1079 C 0.45691 0.25858 0.43199
 N1080 N 0.45709 0.26203 0.40762
 C1081 C 0.39303 0.25904 0.39223
 C1082 C 0.37564 0.25799 0.37900
 C1083 C 0.35624 0.25645 0.36169
 N1084 N 0.33268 0.25601 0.36878
 N1085 N 0.31497 0.25444 0.35236
 C1086 C 0.32028 0.25320 0.32834
 N1087 N 0.34389 0.25363 0.32140
 N1088 N 0.36154 0.25521 0.33777
 N1089 N 0.08721 0.75660 0.06825
 C1090 C 0.08557 0.76242 0.09208
 N1091 N 0.06359 0.76759 0.10164
 N1092 N 0.04378 0.76660 0.08795
 C1093 C 0.04514 0.76041 0.06417
 N1094 N 0.06732 0.75566 0.05449
 C1095 C 0.10625 0.76119 0.10778
 C1096 C 0.12255 0.75972 0.12224
 C1097 C 0.14093 0.75765 0.14050
 N1098 N 0.13461 0.75667 0.16422
 N1099 N 0.15153 0.75466 0.18133
 C1100 C 0.17535 0.75349 0.17528
 N1101 N 0.18162 0.75445 0.15149
 N1102 N 0.16470 0.75645 0.13437
 N1103 N 0.58709 0.25425 0.56932
 C1104 C 0.58476 0.25636 0.59372
 N1105 N 0.56231 0.25710 0.60354
 N1106 N 0.54278 0.25551 0.58951
 C1107 C 0.54486 0.25312 0.56511
 N1108 N 0.56746 0.25269 0.55523
 C1109 C 0.60549 0.25643 0.60944
 C1110 C 0.62187 0.25599 0.62390
 C1111 C 0.64040 0.25506 0.64214
 N1112 N 0.63423 0.25464 0.66592
 N1113 N 0.65127 0.25343 0.68299
 C1114 C 0.67509 0.25253 0.67685
 N1115 N 0.68121 0.25295 0.65300
 N1116 N 0.66416 0.25416 0.63592
 N1117 N 0.90133 0.23306 0.06360
 C1118 C 0.91204 0.23801 0.08509
 N1119 N 0.93612 0.24307 0.08563
 N1120 N 0.94899 0.24343 0.06516
 C1121 C 0.93818 0.23885 0.04348
 N1122 N 0.91415 0.23348 0.04321
 C1123 C 0.89734 0.23976 0.10643
 C1124 C 0.88351 0.24168 0.12321
 C1125 C 0.86562 0.24431 0.14188
 N1126 N 0.87210 0.24600 0.16552
 N1127 N 0.85520 0.24862 0.18260
 C1128 C 0.83131 0.24970 0.17657
 N1129 N 0.82496 0.24802 0.15288
 N1130 N 0.84182 0.24540 0.13583
 N1131 N 0.39881 0.73884 0.56214
 C1132 C 0.40957 0.74143 0.58401
 N1133 N 0.43393 0.74476 0.58511
 N1134 N 0.44706 0.74569 0.56482
 C1135 C 0.43625 0.74341 0.54278
 N1136 N 0.41189 0.73981 0.54193
 C1137 C 0.39478 0.74226 0.60536
 C1138 C 0.38092 0.74344 0.62219
 C1139 C 0.36302 0.74524 0.64095
 N1140 N 0.36954 0.74680 0.66459
 N1141 N 0.35265 0.74881 0.68176
 C1142 C 0.32872 0.74941 0.67583
 N1143 N 0.32232 0.74784 0.65213
 N1144 N 0.33918 0.74583 0.63500
 N1145 N 0.24124 0.06873 0.91466
 C1146 C 0.24125 0.09329 0.91492
 N1147 N 0.24179 0.10502 0.93643
 N1148 N 0.24250 0.09264 0.95708
 C1149 C 0.24271 0.06801 0.95712
 N1150 N 0.24193 0.05633 0.93539
 C1151 C 0.24175 0.10706 0.89291
 C1152 C 0.24263 0.12008 0.87541
 C1153 C 0.24406 0.13716 0.85590
 N1154 N 0.24490 0.16115 0.86094
 N1155 N 0.24647 0.17733 0.84315
 C1156 C 0.24733 0.17009 0.81967
 N1157 N 0.24649 0.14600 0.81462
 N1158 N 0.24492 0.12978 0.83247
 N1159 N 0.73811 0.60592 0.43775
 C1160 C 0.74029 0.59458 0.41611
 N1161 N 0.74297 0.57016 0.41560
 N1162 N 0.74361 0.55753 0.43619
 C1163 C 0.74165 0.56887 0.45799
 N1164 N 0.73878 0.59331 0.45827
 C1165 C 0.74110 0.60868 0.39432
 C1166 C 0.74221 0.62184 0.37694
 C1167 C 0.74386 0.63896 0.35748
 N1168 N 0.74457 0.63162 0.33403
 N1169 N 0.74628 0.64786 0.31621
 C1170 C 0.74740 0.67192 0.32131
 N1171 N 0.74670 0.67912 0.34480
 N1172 N 0.74499 0.66293 0.36256
 N1173 N 0.74688 0.08810 0.07266
 C1174 C 0.74899 0.08716 0.09713
 N1175 N 0.75081 0.06535 0.10812
 N1176 N 0.75069 0.04508 0.09512
 C1177 C 0.74871 0.04570 0.07057
 N1178 N 0.74674 0.06773 0.05962
 C1179 C 0.74978 0.10875 0.11159
 C1180 C 0.75076 0.12582 0.12517
 C1181 C 0.75213 0.14491 0.14276
 N1182 N 0.75288 0.13935 0.16666
 N1183 N 0.75415 0.15679 0.18326
 C1184 C 0.75476 0.18043 0.17654
 N1185 N 0.75405 0.18598 0.15256
 N1186 N 0.75278 0.16849 0.13593
 N1187 N 0.24733 0.58764 0.57165
 C1188 C 0.24652 0.58633 0.59619
 N1189 N 0.24565 0.56432 0.60694
 N1190 N 0.24576 0.54423 0.59365
 C1191 C 0.24673 0.54530 0.56908
 N1192 N 0.24743 0.56747 0.55833
 C1193 C 0.24744 0.60769 0.61096
 C1194 C 0.24847 0.62466 0.62467
 C1195 C 0.24987 0.64373 0.64228
 N1196 N 0.25061 0.63818 0.66618
 N1197 N 0.25186 0.65563 0.68278
 C1198 C 0.25244 0.67927 0.67605
 N1199 N 0.25175 0.68481 0.65207
 N1200 N 0.25050 0.66732 0.63544
 N1201 N 0.73140 0.93855 0.90197
 C1202 C 0.73502 0.91677 0.91261
 N1203 N 0.73973 0.91583 0.93671
 N1204 N 0.74103 0.93618 0.94970
 C1205 C 0.73776 0.95813 0.93898
 N1206 N 0.73275 0.95882 0.91490
 C1207 C 0.73575 0.89543 0.89786
 C1208 C 0.73687 0.87860 0.88403
 C1209 C 0.73856 0.85987 0.86614
 N1210 N 0.73914 0.83617 0.87257
 N1211 N 0.74079 0.81900 0.85565
 C1212 C 0.74198 0.82500 0.83180
 N1213 N 0.74145 0.84875 0.82550
 N1214 N 0.73980 0.86588 0.84238
 N1215 N 0.23358 0.43799 0.39891
 C1216 C 0.23683 0.41617 0.40959
 N1217 N 0.24096 0.41516 0.43379
 N1218 N 0.24206 0.43547 0.44685
 C1219 C 0.23914 0.45746 0.43611
 N1220 N 0.23472 0.45823 0.41192
 C1221 C 0.23761 0.39484 0.39484
 C1222 C 0.23874 0.37799 0.38103
 C1223 C 0.24041 0.35920 0.36320
 N1224 N 0.24090 0.33552 0.36970
 N1225 N 0.24250 0.31830 0.35283
 C1226 C 0.24373 0.32423 0.32897
 N1227 N 0.24330 0.34797 0.32259
 N1228 N 0.24170 0.36515 0.33943
 N1229 N 0.24404 0.93183 0.08593
 C1230 C 0.24115 0.90750 0.08383
 N1231 N 0.23969 0.89752 0.06150
 N1232 N 0.24133 0.91133 0.04185
 C1233 C 0.24450 0.93566 0.04371
 N1234 N 0.24564 0.94570 0.06619
 C1235 C 0.24123 0.89198 0.10464
 C1236 C 0.24184 0.87767 0.12110
 C1237 C 0.24306 0.85954 0.13965
 N1238 N 0.24379 0.83577 0.13350
 N1239 N 0.24539 0.81876 0.15053
 C1240 C 0.24638 0.82496 0.17430
 N1241 N 0.24564 0.84881 0.18041
 N1242 N 0.24404 0.86582 0.16336
 N1243 N 0.74399 0.43162 0.58734
 C1244 C 0.74122 0.40728 0.58514
 N1245 N 0.73985 0.39739 0.56277
 N1246 N 0.74146 0.41128 0.54317
 C1247 C 0.74451 0.43562 0.54513
 N1248 N 0.74556 0.44557 0.56766
 C1249 C 0.74129 0.39168 0.60589
 C1250 C 0.74189 0.37733 0.62231
 C1251 C 0.74309 0.35917 0.64084
 N1252 N 0.74367 0.33540 0.63469
 N1253 N 0.74526 0.31838 0.65171
 C1254 C 0.74640 0.32458 0.67548
 N1255 N 0.74581 0.34843 0.68159
 N1256 N 0.74422 0.36545 0.66455
 N1257 N 0.08599 0.06375 0.75951
 C1258 C 0.08571 0.08761 0.76543
 N1259 N 0.06444 0.09817 0.77155
 N1260 N 0.04397 0.08544 0.77140
 C1261 C 0.04397 0.06165 0.76512
 N1262 N 0.06545 0.05097 0.75942
 C1263 C 0.10695 0.10234 0.76303
 C1264 C 0.12364 0.11618 0.76048
 C1265 C 0.14218 0.13403 0.75708
 N1266 N 0.13596 0.15768 0.75492
 N1267 N 0.15292 0.17453 0.75171
 C1268 C 0.17669 0.16828 0.75046
 N1269 N 0.18288 0.14454 0.75258
 N1270 N 0.16589 0.12767 0.75580
 N1271 N 0.58588 0.56546 0.25730
 C1272 C 0.58495 0.58968 0.26139
 N1273 N 0.56316 0.60038 0.26491
 N1274 N 0.54287 0.58740 0.26405
 C1275 C 0.54354 0.56320 0.25965
 N1276 N 0.56551 0.55242 0.25650
 C1277 C 0.60628 0.60447 0.26015
 C1278 C 0.62308 0.61834 0.25858
 C1279 C 0.64181 0.63622 0.25628
 N1280 N 0.63577 0.65997 0.25477
 N1281 N 0.65288 0.67681 0.25236
 C1282 C 0.67664 0.67046 0.25132
 N1283 N 0.68266 0.64663 0.25283
 N1284 N 0.66551 0.62977 0.25523
 N1285 N 0.10162 0.93555 0.22859
 C1286 C 0.09200 0.91362 0.23379
 N1287 N 0.06814 0.91205 0.23962
 N1288 N 0.05442 0.93195 0.24052
 C1289 C 0.06416 0.95407 0.23574
 N1290 N 0.08796 0.95537 0.22955
 C1291 C 0.10767 0.89295 0.23511
 C1292 C 0.12216 0.87670 0.23673
 C1293 C 0.14055 0.85850 0.23904
 N1294 N 0.13459 0.83475 0.24090
 N1295 N 0.15187 0.81804 0.24331
 C1296 C 0.17564 0.82453 0.24400
 N1297 N 0.18151 0.84833 0.24215
 N1298 N 0.16424 0.86502 0.23975
 N1299 N 0.56837 0.41254 0.74294
 C1300 C 0.59271 0.41462 0.73989
 N1301 N 0.60264 0.43693 0.73789
 N1302 N 0.58878 0.45659 0.73919
 C1303 C 0.56443 0.45477 0.74253
 N1304 N 0.55444 0.43230 0.74420
 C1305 C 0.60833 0.39382 0.74031
 C1306 C 0.62277 0.37744 0.74116
 C1307 C 0.64111 0.35903 0.74257
 N1308 N 0.66487 0.36537 0.74284
 N1309 N 0.68206 0.34850 0.74455
 C1310 C 0.67607 0.32471 0.74613
 N1311 N 0.65224 0.31841 0.74586
 N1312 N 0.63503 0.33529 0.74415
 N1313 N 0.93084 0.08545 0.24055
 C1314 C 0.90632 0.08497 0.23867
 N1315 N 0.89486 0.06336 0.23702
 N1316 N 0.90746 0.04281 0.23743
 C1317 C 0.93201 0.04305 0.23949
 N1318 N 0.94347 0.06483 0.24093
 C1319 C 0.89224 0.10680 0.23962
 C1320 C 0.87905 0.12417 0.24081
 C1321 C 0.86189 0.14362 0.24254
 N1322 N 0.83787 0.13853 0.24336
 N1323 N 0.82164 0.15627 0.24519
 C1324 C 0.82885 0.17975 0.24631
 N1325 N 0.85296 0.18484 0.24549
 N1326 N 0.86923 0.16705 0.24366
 N1327 N 0.42914 0.58485 0.74178
 C1328 C 0.40468 0.58411 0.73916
 N1329 N 0.39355 0.56236 0.73700
 N1330 N 0.40639 0.54196 0.73763
 C1331 C 0.43087 0.54247 0.74043
 N1332 N 0.44201 0.56438 0.74238
 C1333 C 0.39030 0.60579 0.73989
 C1334 C 0.37694 0.62307 0.74088
 C1335 C 0.35967 0.64249 0.74237
 N1336 N 0.33566 0.63736 0.74318
 N1337 N 0.31937 0.65508 0.74481
 C1338 C 0.32651 0.67860 0.74574
 N1339 N 0.35061 0.68373 0.74493
 N1340 N 0.36694 0.66596 0.74330
 N1341 N 0.91017 0.92969 0.76265
 C1342 C 0.91105 0.90519 0.76452
 N1343 N 0.93289 0.89404 0.76495
 N1344 N 0.95324 0.90687 0.76339
 C1345 C 0.95260 0.93138 0.76134
 N1346 N 0.93060 0.94257 0.76112
 C1347 C 0.88938 0.89079 0.76486
 C1348 C 0.87224 0.87722 0.76469
 C1349 C 0.85315 0.85955 0.76403
 N1350 N 0.85881 0.83568 0.76336
 N1351 N 0.84141 0.81901 0.76222
 C1352 C 0.81770 0.82561 0.76166
 N1353 N 0.81204 0.84957 0.76237
 N1354 N 0.82948 0.86628 0.76351
 N1355 N 0.43460 0.39365 0.26192
 C1356 C 0.41262 0.40453 0.26132
 N1357 N 0.41145 0.42901 0.25938
 N1358 N 0.43174 0.44214 0.25795
 C1359 C 0.45387 0.43125 0.25835
 N1360 N 0.45480 0.40674 0.26047
 C1361 C 0.39109 0.38985 0.26162
 C1362 C 0.37403 0.37616 0.26146
 C1363 C 0.35493 0.35845 0.26086
 N1364 N 0.33126 0.36517 0.26038
 N1365 N 0.31381 0.34846 0.25935
 C1366 C 0.31946 0.32449 0.25871
 N1367 N 0.34317 0.31789 0.25922
 N1368 N 0.36058 0.33457 0.26026
   
