data_POSCAR
  _audit_creation_date              2014-09-24
  _audit_creation_method            'ToBaCCo'
  _symmetry_space_group_name_H-M    'P1'
  _symmetry_Int_Tables_number       1
  _symmetry_cell_setting            triclinic
  loop_
  _symmetry_equiv_pos_as_xyz
 x,y,z
_cell_length_a 41.8955
_cell_length_b 44.6398
_cell_length_c 51.8785
_cell_angle_alpha 89.918500
_cell_angle_beta 89.969700
_cell_angle_gamma 90.041600
loop_
  _atom_site_label
  _atom_site_type_symbol
  _atom_site_fract_x
  _atom_site_fract_y
  _atom_site_fract_z
Zr1 Zr 0.24905 0.24854 0.29604
 O2 O 0.27358 0.27163 0.32568
 O3 O 0.21860 0.22052 0.31721
 O4 O 0.21790 0.27574 0.31771
 O5 O 0.30891 0.19640 0.28562
 O6 O 0.19143 0.30329 0.28736
 O7 O 0.27988 0.22016 0.31680
 O8 O 0.18916 0.19706 0.28617
 O9 O 0.20700 0.25012 0.27432
 O10 O 0.24892 0.20991 0.27329
 O11 O 0.25158 0.28877 0.27503
 O12 O 0.29188 0.24998 0.27461
 Zr13 Zr 0.25144 0.25286 0.20626
 Zr14 Zr 0.21064 0.28900 0.25187
 Zr15 Zr 0.28985 0.21226 0.25049
 Zr16 Zr 0.20807 0.21236 0.25071
 O17 O 0.34025 0.21527 0.24955
 O18 O 0.15823 0.22055 0.24999
 O19 O 0.24894 0.21222 0.22709
 O20 O 0.20904 0.25119 0.22801
 O21 O 0.25162 0.29170 0.22884
 O22 O 0.29314 0.25117 0.22835
 C23 C 0.19656 0.20252 0.30977
 C24 C 0.30171 0.20191 0.30927
 C25 C 0.19742 0.29563 0.31078
 O26 O 0.16033 0.28594 0.24956
 O27 O 0.19520 0.30852 0.21703
 O28 O 0.22284 0.28364 0.18570
 C29 C 0.20258 0.30338 0.19338
 O30 O 0.31380 0.30355 0.28668
 Zr31 Zr 0.29239 0.28890 0.25176
 O32 O 0.28167 0.28143 0.18529
 O33 O 0.21554 0.33604 0.25489
 O34 O 0.28550 0.33590 0.25379
 O35 O 0.34252 0.28270 0.24988
 O36 O 0.30804 0.30749 0.21660
 C37 C 0.30143 0.30154 0.19297
 O38 O 0.22541 0.23147 0.17652
 O39 O 0.28505 0.16506 0.25067
 O40 O 0.28021 0.22341 0.18448
 O41 O 0.30522 0.19465 0.21484
 O42 O 0.21314 0.16510 0.25138
 O43 O 0.19039 0.19371 0.21585
 C44 C 0.29907 0.20208 0.19138
 H45 H 0.24892 0.19120 0.28355
 H46 H 0.19005 0.25151 0.21667
 H47 H 0.31277 0.25087 0.21773
 H48 H 0.25217 0.30631 0.28669
 H49 H 0.14736 0.20144 0.25419
 H50 H 0.15198 0.30665 0.25087
 H51 H 0.19371 0.34454 0.25426
 H52 H 0.30618 0.34557 0.24967
 H53 H 0.19190 0.15646 0.25534
 H54 H 0.30694 0.15670 0.25120
 H55 H 0.34844 0.19448 0.24864
 H56 H 0.35227 0.30252 0.24633
 H57 H 0.17200 0.18050 0.21970
 H58 H 0.23363 0.23928 0.15987
 H59 H 0.26556 0.26379 0.34238
 H60 H 0.32850 0.32041 0.28302
 Zr61 Zr 0.75117 0.75189 0.29576
 O62 O 0.72686 0.72888 0.32564
 O63 O 0.78159 0.78016 0.31664
 O64 O 0.78249 0.72493 0.31752
 O65 O 0.69093 0.80362 0.28513
 O66 O 0.80899 0.69731 0.28729
 O67 O 0.72021 0.78024 0.31641
 O68 O 0.81081 0.80355 0.28534
 O69 O 0.79315 0.75037 0.27392
 O70 O 0.75102 0.79038 0.27275
 O71 O 0.74879 0.71152 0.27502
 O72 O 0.70829 0.75009 0.27445
 Zr73 Zr 0.74853 0.74697 0.20600
 Zr74 Zr 0.78966 0.71134 0.25174
 Zr75 Zr 0.71004 0.78768 0.25007
 Zr76 Zr 0.79180 0.78798 0.25006
 O77 O 0.65966 0.78443 0.24925
 O78 O 0.84169 0.78004 0.24921
 O79 O 0.75087 0.78775 0.22655
 O80 O 0.79097 0.74901 0.22763
 O81 O 0.74864 0.70827 0.22883
 O82 O 0.70690 0.74862 0.22820
 C83 C 0.80355 0.79819 0.30901
 C84 C 0.69822 0.79830 0.30881
 C85 C 0.80302 0.70506 0.31067
 O86 O 0.83996 0.71463 0.24937
 O87 O 0.80525 0.69178 0.21700
 O88 O 0.77734 0.71628 0.18557
 C89 C 0.79782 0.69676 0.19333
 O90 O 0.68673 0.69642 0.28693
 Zr91 Zr 0.70792 0.71103 0.25186
 O92 O 0.71834 0.71815 0.18531
 O93 O 0.78501 0.66429 0.25503
 O94 O 0.71510 0.66408 0.25414
 O95 O 0.65775 0.71702 0.25016
 O96 O 0.69215 0.69221 0.21687
 C97 C 0.69864 0.69804 0.19318
 O98 O 0.77431 0.76830 0.17601
 O99 O 0.71458 0.83489 0.24994
 O100 O 0.71956 0.77619 0.18411
 O101 O 0.69452 0.80503 0.21435
 O102 O 0.78644 0.83521 0.25044
 O103 O 0.80925 0.80652 0.21502
 C104 C 0.70066 0.79750 0.19093
 H105 H 0.75095 0.80914 0.28289
 H106 H 0.80994 0.74874 0.21624
 H107 H 0.68722 0.74878 0.21764
 H108 H 0.74833 0.69404 0.28679
 H109 H 0.85247 0.79923 0.25323
 H110 H 0.84843 0.69398 0.25079
 H111 H 0.80689 0.65589 0.25441
 H112 H 0.69446 0.65428 0.25013
 H113 H 0.80764 0.84399 0.25429
 H114 H 0.69265 0.84315 0.25046
 H115 H 0.65136 0.80517 0.24821
 H116 H 0.64807 0.69715 0.24676
 H117 H 0.82755 0.81989 0.21873
 H118 H 0.76606 0.76035 0.15944
 H119 H 0.73488 0.73687 0.34226
 H120 H 0.67212 0.67946 0.28342
 Zr121 Zr 0.75105 0.24780 -0.29584
 O122 O 0.72686 0.27069 -0.32582
 O123 O 0.78134 0.21931 -0.31662
 O124 O 0.78250 0.27450 -0.31776
 O125 O 0.69054 0.19634 -0.28493
 O126 O 0.80916 0.30223 -0.28768
 O127 O 0.71995 0.21941 -0.31634
 O128 O 0.81046 0.19605 -0.28524
 O129 O 0.79304 0.24934 -0.27405
 O130 O 0.75072 0.20946 -0.27266
 O131 O 0.74887 0.28831 -0.27530
 O132 O 0.70818 0.24987 -0.27452
 Zr133 Zr 0.74844 0.25332 -0.20612
 Zr134 Zr 0.78974 0.28853 -0.25206
 Zr135 Zr 0.70974 0.21245 -0.24997
 Zr136 Zr 0.79151 0.21189 -0.25002
 O137 O 0.65938 0.21586 -0.24909
 O138 O 0.84144 0.21968 -0.24923
 O139 O 0.75058 0.21240 -0.22648
 O140 O 0.79087 0.25100 -0.22777
 O141 O 0.74873 0.29187 -0.22914
 O142 O 0.70679 0.25165 -0.22827
 C143 C 0.80323 0.20128 -0.30893
 C144 C 0.69786 0.20148 -0.30863
 C145 C 0.80314 0.29434 -0.31102
 O146 O 0.84002 0.28509 -0.24968
 O147 O 0.80540 0.30831 -0.21742
 O148 O 0.77737 0.28408 -0.18586
 C149 C 0.79792 0.30351 -0.19373
 O150 O 0.68686 0.30351 -0.28724
 Zr151 Zr 0.70800 0.28908 -0.25212
 O152 O 0.71842 0.28239 -0.18554
 O153 O 0.78534 0.33556 -0.25561
 O154 O 0.71540 0.33600 -0.25467
 O155 O 0.65780 0.28326 -0.25029
 O156 O 0.69238 0.30823 -0.21720
 C157 C 0.69885 0.30254 -0.19349
 O158 O 0.77413 0.23213 -0.17605
 O159 O 0.71403 0.16522 -0.24963
 O160 O 0.71937 0.22433 -0.18407
 O161 O 0.69419 0.19536 -0.21415
 O162 O 0.78591 0.16467 -0.25017
 O163 O 0.80885 0.19351 -0.21490
 C164 C 0.70038 0.20301 -0.19077
 H165 H 0.75055 0.19063 -0.28271
 H166 H 0.80984 0.25131 -0.21640
 H167 H 0.68713 0.25163 -0.21768
 H168 H 0.74850 0.30571 -0.28716
 H169 H 0.85212 0.20043 -0.25316
 H170 H 0.84859 0.30571 -0.25121
 H171 H 0.80726 0.34390 -0.25504
 H172 H 0.69481 0.34589 -0.25069
 H173 H 0.80707 0.15580 -0.25400
 H174 H 0.69205 0.15703 -0.25008
 H175 H 0.65098 0.19515 -0.24794
 H176 H 0.64823 0.30319 -0.24699
 H177 H 0.82708 0.18006 -0.21856
 H178 H 0.76593 0.24021 -0.15952
 H179 H 0.73484 0.26256 -0.34241
 H180 H 0.67231 0.32050 -0.28379
 Zr181 Zr 0.24802 0.75283 -0.29587
 O182 O 0.27243 0.73003 -0.32574
 O183 O 0.21757 0.78111 -0.31678
 O184 O 0.21680 0.72577 -0.31766
 O185 O 0.30811 0.80474 -0.28515
 O186 O 0.19032 0.69796 -0.28743
 O187 O 0.27900 0.78140 -0.31647
 O188 O 0.18831 0.80431 -0.28553
 O189 O 0.20599 0.75107 -0.27407
 O190 O 0.24805 0.79122 -0.27284
 O191 O 0.25043 0.71240 -0.27509
 O192 O 0.29085 0.75106 -0.27448
 Zr193 Zr 0.25047 0.74757 -0.20605
 Zr194 Zr 0.20951 0.71198 -0.25186
 Zr195 Zr 0.28898 0.78855 -0.25011
 Zr196 Zr 0.20722 0.78860 -0.25022
 O197 O 0.33937 0.78542 -0.24926
 O198 O 0.15735 0.78047 -0.24950
 O199 O 0.24809 0.78840 -0.22664
 O200 O 0.20808 0.74957 -0.22776
 O201 O 0.25049 0.70894 -0.22889
 O202 O 0.29214 0.74944 -0.22821
 C203 C 0.19559 0.79911 -0.30921
 C204 C 0.30094 0.79955 -0.30887
 C205 C 0.19632 0.70579 -0.31082
 O206 O 0.15921 0.71513 -0.24957
 O207 O 0.19385 0.69224 -0.21712
 O208 O 0.22163 0.71669 -0.18567
 C209 C 0.20118 0.69710 -0.19341
 O210 O 0.31253 0.69743 -0.28690
 Zr211 Zr 0.29125 0.71192 -0.25187
 O212 O 0.28068 0.71875 -0.18532
 O213 O 0.21427 0.66495 -0.25514
 O214 O 0.28417 0.66496 -0.25415
 O215 O 0.34140 0.71811 -0.25011
 O216 O 0.30703 0.69303 -0.21684
 C217 C 0.30047 0.69874 -0.19315
 O218 O 0.22459 0.76870 -0.17609
 O219 O 0.28435 0.83575 -0.24993
 O220 O 0.27935 0.77683 -0.18414
 O221 O 0.30442 0.80581 -0.21436
 O222 O 0.21249 0.83585 -0.25053
 O223 O 0.18962 0.80697 -0.21521
 C224 C 0.29826 0.79820 -0.19093
 H225 H 0.24811 0.81003 -0.28297
 H226 H 0.18908 0.74919 -0.21640
 H227 H 0.31180 0.74961 -0.21762
 H228 H 0.25097 0.69496 -0.28685
 H229 H 0.14653 0.79964 -0.25354
 H230 H 0.15078 0.69445 -0.25100
 H231 H 0.19241 0.65648 -0.25453
 H232 H 0.30481 0.65520 -0.25011
 H233 H 0.19129 0.84459 -0.25442
 H234 H 0.30627 0.84408 -0.25045
 H235 H 0.34764 0.80618 -0.24819
 H236 H 0.35114 0.69828 -0.24666
 H237 H 0.17125 0.82023 -0.21895
 H238 H 0.23283 0.76071 -0.15952
 H239 H 0.26441 0.73807 -0.34236
 H240 H 0.32725 0.68058 -0.28333
 Zr241 Zr 1.25183 1.25302 0.79433
 O242 O 1.22733 1.23056 0.82442
 O243 O 1.28252 1.28142 0.81493
 O244 O 1.28282 1.22570 0.81619
 O245 O 1.19227 1.30541 0.78335
 O246 O 1.30883 1.19755 0.78603
 O247 O 1.22119 1.28195 0.81481
 O248 O 1.31165 1.30445 0.78338
 O249 O 1.29377 1.25098 0.77245
 O250 O 1.25205 1.29133 0.77108
 O251 O 1.24890 1.21258 0.77369
 O252 O 1.20892 1.25144 0.77299
 Zr253 Zr 1.24907 1.24783 0.70465
 Zr254 Zr 1.28979 1.21185 0.75044
 Zr255 Zr 1.21102 1.28890 0.74849
 Zr256 Zr 1.29276 1.28845 0.74836
 O257 O 1.16060 1.28604 0.74791
 O258 O 1.34256 1.27999 0.74779
 O259 O 1.25180 1.28866 0.72495
 O260 O 1.29155 1.24939 0.72619
 O261 O 1.24876 1.20912 0.72748
 O262 O 1.20743 1.24984 0.72677
 C263 C 1.30434 1.29947 0.80705
 C264 C 1.19953 1.30029 0.80703
 C265 C 1.30299 1.20544 0.80941
 O266 O 1.34013 1.21460 0.74821
 O267 O 1.30517 1.19225 0.71563
 O268 O 1.27736 1.21697 0.68426
 C269 C 1.29770 1.19738 0.69198
 O270 O 1.18674 1.19765 0.78546
 Zr271 Zr 1.20806 1.21229 0.75045
 O272 O 1.21863 1.21953 0.68386
 O273 O 1.28463 1.16484 0.75371
 O274 O 1.21492 1.16529 0.75255
 O275 O 1.15794 1.21874 0.74897
 O276 O 1.19188 1.19387 0.71529
 C277 C 1.19851 1.19977 0.69161
 O278 O 1.27519 1.26896 0.67474
 O279 O 1.21600 1.33608 0.74806
 O280 O 1.22038 1.27701 0.68263
 O281 O 1.19550 1.30609 0.71277
 O282 O 1.28797 1.33575 0.74829
 O283 O 1.31049 1.30640 0.71318
 C284 C 1.20157 1.29837 0.68939
 H285 H 1.25215 1.31021 0.78106
 H286 H 1.31052 1.24890 0.71481
 H287 H 1.18773 1.25017 0.71624
 H288 H 1.24822 1.19515 0.78550
 H289 H 1.35355 1.29914 0.75160
 H290 H 1.34832 1.19384 0.74953
 H291 H 1.30640 1.15623 0.75298
 H292 H 1.19425 1.15565 0.74837
 H293 H 1.30931 1.34438 0.75189
 H294 H 1.19415 1.34455 0.74849
 H295 H 1.15247 1.30683 0.74664
 H296 H 1.14805 1.19900 0.74541
 H297 H 1.32907 1.31945 0.71678
 H298 H 1.26692 1.26115 0.65813
 H299 H 1.23547 1.23867 0.84096
 H300 H 1.17213 1.18071 0.78190
 Zr301 Zr 0.74848 0.74768 0.79451
 O302 O 0.77319 0.77048 0.82421
 O303 O 0.71789 0.71958 0.81557
 O304 O 0.71761 0.77527 0.81620
 O305 O 0.80786 0.69504 0.78385
 O306 O 0.69146 0.80308 0.78585
 O307 O 0.77917 0.71894 0.81517
 O308 O 0.68853 0.69623 0.78441
 O309 O 0.70641 0.74950 0.77280
 O310 O 0.74806 0.70909 0.77169
 O311 O 0.75134 0.78787 0.77340
 O312 O 0.79127 0.74892 0.77295
 Zr313 Zr 0.75072 0.75174 0.70477
 Zr314 Zr 0.71032 0.78836 0.75033
 Zr315 Zr 0.78897 0.71116 0.74889
 Zr316 Zr 0.70722 0.71175 0.74913
 O317 O 0.83938 0.71395 0.74806
 O318 O 0.65744 0.72026 0.74869
 O319 O 0.74804 0.71116 0.72554
 O320 O 0.70836 0.75053 0.72652
 O321 O 0.75122 0.79074 0.72716
 O322 O 0.79249 0.74996 0.72672
 C323 C 0.69600 0.70147 0.80799
 C324 C 0.80074 0.70046 0.80750
 C325 C 0.69739 0.79545 0.80929
 O326 O 0.65997 0.78567 0.74835
 O327 O 0.69480 0.80755 0.71537
 O328 O 0.72238 0.78239 0.68416
 C329 C 0.70213 0.80211 0.69175
 O330 O 0.81358 0.80284 0.78472
 Zr331 Zr 0.79205 0.78779 0.74998
 O332 O 0.78109 0.77972 0.68352
 O333 O 0.71559 0.83539 0.75307
 O334 O 0.78528 0.83482 0.75154
 O335 O 0.84215 0.78126 0.74835
 O336 O 0.80806 0.80572 0.71453
 C337 C 0.80129 0.79953 0.69095
 O338 O 0.72438 0.73027 0.67524
 O339 O 0.78389 0.66399 0.74901
 O340 O 0.77924 0.72228 0.68295
 O341 O 0.80429 0.69354 0.71328
 O342 O 0.71191 0.66444 0.74960
 O343 O 0.68926 0.69340 0.71424
 C344 C 0.79810 0.70099 0.68985
 H345 H 0.74798 0.69033 0.78189
 H346 H 0.68933 0.75091 0.71523
 H347 H 0.81212 0.74947 0.71611
 H348 H 0.75210 0.80543 0.78502
 H349 H 0.64644 0.70117 0.75277
 H350 H 0.65182 0.80646 0.74945
 H351 H 0.69382 0.84403 0.75233
 H352 H 0.80594 0.84438 0.74716
 H353 H 0.69058 0.65590 0.75339
 H354 H 0.80574 0.65550 0.74943
 H355 H 0.84747 0.69313 0.74700
 H356 H 0.85205 0.80094 0.74451
 H357 H 0.67069 0.68040 0.71807
 H358 H 0.73256 0.73787 0.65850
 H359 H 0.76513 0.76260 0.84088
 H360 H 0.82819 0.81971 0.78089
 Zr361 Zr 1.25170 0.74688 0.20549
 O362 O 1.22730 0.76956 0.17552
 O363 O 1.28212 0.71837 0.18475
 O364 O 1.28285 0.77408 0.18362
 O365 O 1.19181 0.69473 0.21646
 O366 O 1.30912 0.80203 0.21377
 O367 O 1.22084 0.71815 0.18501
 O368 O 1.31114 0.69508 0.21618
 O369 O 1.29371 0.74865 0.22727
 O370 O 1.25169 0.70850 0.22865
 O371 O 1.24912 0.78728 0.22623
 O372 O 1.20884 0.74863 0.22692
 Zr373 Zr 1.24918 0.75183 0.29517
 Zr374 Zr 1.29006 0.78774 0.24938
 Zr375 Zr 1.21072 0.71107 0.25132
 Zr376 Zr 1.29248 0.71111 0.25127
 O377 O 1.16033 0.71420 0.25202
 O378 O 1.34233 0.71933 0.25172
 O379 O 1.25156 0.71105 0.27477
 O380 O 1.29160 0.75011 0.27354
 O381 O 1.24910 0.79062 0.27243
 O382 O 1.20747 0.75009 0.27315
 C383 C 1.30380 0.70016 0.19253
 C384 C 1.19908 0.69988 0.19278
 C385 C 1.30317 0.79422 0.19040
 O386 O 1.34038 0.78473 0.25150
 O387 O 1.30566 0.80715 0.28421
 O388 O 1.27771 0.78249 0.31557
 C389 C 1.29819 0.80199 0.30786
 O390 O 1.18706 0.80260 0.21462
 Zr391 Zr 1.20832 0.78771 0.24955
 O392 O 1.21897 0.78021 0.31610
 O393 O 1.28524 0.83477 0.24621
 O394 O 1.21552 0.83468 0.24756
 O395 O 1.15816 0.78150 0.25111
 O396 O 1.19232 0.80609 0.28480
 C397 C 1.19895 0.80008 0.30845
 O398 O 1.27522 0.73048 0.32496
 O399 O 1.21535 0.66387 0.25166
 O400 O 1.22035 0.72274 0.31718
 O401 O 1.19517 0.69388 0.28706
 O402 O 1.28734 0.66384 0.25129
 O403 O 1.31018 0.69298 0.28637
 C404 C 1.20136 0.70151 0.31043
 H405 H 1.25163 0.68965 0.21863
 H406 H 1.31060 0.75047 0.28487
 H407 H 1.18779 0.74983 0.28371
 H408 H 1.24854 0.80474 0.21445
 H409 H 1.35318 0.70013 0.24784
 H410 H 1.34873 0.80545 0.25019
 H411 H 1.30708 0.84327 0.24691
 H412 H 1.19494 0.84441 0.25181
 H413 H 1.30860 0.65511 0.24762
 H414 H 1.19343 0.65552 0.25127
 H415 H 1.15205 0.69345 0.25327
 H416 H 1.14841 0.80127 0.25475
 H417 H 1.32867 0.67986 0.28270
 H418 H 1.26705 0.73828 0.34161
 H419 H 1.23534 0.76147 0.15893
 H420 H 1.17256 0.81958 0.21826
 Zr421 Zr 0.74882 1.25271 0.20533
 O422 O 0.77333 1.23027 0.17532
 O423 O 0.71815 1.28109 0.18462
 O424 O 0.71782 1.22533 0.18352
 O425 O 0.80844 1.30515 0.21624
 O426 O 0.69175 1.19717 0.21374
 O427 O 0.77955 1.28168 0.18481
 O428 O 0.68901 1.30412 0.21609
 O429 O 0.70684 1.25064 0.22718
 O430 O 0.74860 1.29101 0.22849
 O431 O 0.75165 1.21227 0.22611
 O432 O 0.79168 1.25112 0.22674
 Zr433 Zr 0.75141 1.24748 0.29509
 Zr434 Zr 0.71073 1.21151 0.24932
 Zr435 Zr 0.78959 1.28860 0.25113
 Zr436 Zr 0.70785 1.28811 0.25117
 O437 O 0.84000 1.28572 0.25179
 O438 O 0.65804 1.27963 0.25171
 O439 O 0.74877 1.28830 0.27464
 O440 O 0.70898 1.24906 0.27347
 O441 O 0.75171 1.20877 0.27234
 O442 O 0.79309 1.24953 0.27299
 C443 C 0.69633 1.29914 0.19243
 C444 C 0.80124 1.30004 0.19255
 C445 C 0.69762 1.20505 0.19033
 O446 O 0.66039 1.21427 0.25144
 O447 O 0.69515 1.19194 0.28417
 O448 O 0.72295 1.21662 0.31553
 C449 C 0.70255 1.19705 0.30782
 O450 O 0.81379 1.19728 0.21445
 Zr451 Zr 0.79246 1.21198 0.24940
 O452 O 0.78184 1.21917 0.31597
 O453 O 0.71587 1.16451 0.24620
 O454 O 0.78555 1.16498 0.24743
 O455 O 0.84257 1.21851 0.25087
 O456 O 0.80863 1.19358 0.28461
 C457 C 0.80199 1.19945 0.30829
 O458 O 0.72530 1.26859 0.32494
 O459 O 0.78465 1.33577 0.25146
 O460 O 0.78008 1.27674 0.31704
 O461 O 0.80505 1.30581 0.28685
 O462 O 0.71271 1.33541 0.25114
 O463 O 0.69009 1.30608 0.28629
 C464 C 0.79893 1.29811 0.31024
 H465 H 0.74854 1.30989 0.21846
 H466 H 0.68999 1.24857 0.28482
 H467 H 0.81277 1.24988 0.28353
 H468 H 0.75233 1.19484 0.21434
 H469 H 0.64708 1.29878 0.24785
 H470 H 0.65216 1.19350 0.25015
 H471 H 0.69408 1.15588 0.24691
 H472 H 0.80620 1.15535 0.25165
 H473 H 0.69139 1.34404 0.24749
 H474 H 0.80651 1.34425 0.25102
 H475 H 0.84816 1.30651 0.25303
 H476 H 0.85247 1.19879 0.25452
 H477 H 0.67152 1.31911 0.28264
 H478 H 0.73355 1.26076 0.34157
 H479 H 0.76522 1.23838 0.15875
 H480 H 0.82843 1.18040 0.21810
 N481 N 0.55668 1.03157 0.02798
 N482 N 0.57896 1.05154 0.03358
 N483 N 0.53433 0.96851 0.04576
 N484 N 0.54115 0.94899 0.06411
 N485 N 0.55665 0.96850 0.02795
 N486 N 0.57926 0.94897 0.03377
 N487 N 0.53429 1.03152 0.04575
 N488 N 0.54072 1.05143 0.06382
 C489 C 0.56833 1.06400 0.05576
 C490 C 0.56891 0.93667 0.05612
 N491 N 0.44300 0.96848 0.02796
 N492 N 0.42087 0.94831 0.03345
 N493 N 0.46531 1.03148 0.04581
 N494 N 0.45843 1.05086 0.06422
 N495 N 0.44297 1.03155 0.02802
 N496 N 0.42031 1.05097 0.03393
 N497 N 0.46538 0.96847 0.04571
 N498 N 0.45911 0.94834 0.06367
 Mn499 Mn 0.49983 1.00000 0.04593
 C500 C 0.43158 0.93570 0.05555
 C501 C 0.43063 1.06316 0.05630
 N502 N 0.55660 0.96853 -0.02795
 N503 N 0.57887 0.94860 -0.03361
 N504 N 0.53438 1.03161 -0.04570
 N505 N 0.54116 1.05125 -0.06397
 N506 N 0.55670 1.03160 -0.02790
 N507 N 0.57926 1.05123 -0.03365
 N508 N 0.53421 0.96860 -0.04570
 N509 N 0.54063 0.94875 -0.06382
 Mn510 Mn 0.55694 1.00005 0.00002
 C511 C 0.56823 0.93618 -0.05580
 C512 C 0.56889 1.06360 -0.05595
 N513 N 0.44305 1.03173 -0.02788
 N514 N 0.42088 1.05180 -0.03344
 N515 N 0.46522 0.96869 -0.04574
 N516 N 0.45829 0.94930 -0.06412
 N517 N 0.44288 0.96866 -0.02793
 N518 N 0.42018 0.94924 -0.03379
 N519 N 0.46544 1.03171 -0.04565
 N520 N 0.45912 1.05173 -0.06369
 Mn521 Mn 0.44269 1.00011 0.00005
 Mn522 Mn 0.49981 1.00015 -0.04587
 Cl523 Cl 0.49982 1.00007 0.00003
 C524 C 0.43157 1.06434 -0.05560
 C525 C 0.43047 0.93702 -0.05617
 N526 N 1.05639 0.53161 0.52804
 N527 N 1.07830 0.55201 0.53336
 N528 N 1.03425 0.46853 0.54575
 N529 N 1.04086 0.44865 0.56383
 N530 N 1.05654 0.46862 0.52793
 N531 N 1.07893 0.44880 0.53344
 N532 N 1.03402 0.53149 0.54579
 N533 N 1.04006 0.55177 0.56363
 C534 C 1.06745 0.56461 0.55539
 C535 C 1.06846 0.43625 0.55562
 N536 N 0.94314 0.46827 0.52782
 N537 N 0.92135 0.44769 0.53295
 N538 N 0.96518 0.53125 0.54574
 N539 N 0.95845 0.55095 0.56389
 N540 N 0.94295 0.53126 0.52789
 N541 N 0.92048 0.55097 0.53345
 N542 N 0.96544 0.46830 0.54562
 N543 N 0.95947 0.44777 0.56330
 Mn544 Mn 0.99972 0.49989 0.54594
 C545 C 0.93220 0.43490 0.55491
 C546 C 0.93084 0.56335 0.55570
 N547 N 1.05662 0.46868 0.47224
 N548 N 1.07864 0.44841 0.46694
 N549 N 1.03429 0.53164 0.45448
 N550 N 1.04087 0.55157 0.43643
 N551 N 1.05651 0.53166 0.47234
 N552 N 1.07882 0.55161 0.46690
 N553 N 1.03430 0.46869 0.45445
 N554 N 1.04050 0.44846 0.43661
 Mn555 Mn 1.05683 0.50014 0.50014
 C556 C 1.06791 0.43576 0.44489
 C557 C 1.06837 0.56411 0.44471
 N558 N 0.94312 0.53150 0.47218
 N559 N 0.92118 0.55187 0.46692
 N560 N 0.96547 0.46860 0.45432
 N561 N 0.95888 0.44886 0.43616
 N562 N 0.94316 0.46850 0.47213
 N563 N 0.92078 0.44869 0.46653
 N564 N 0.96549 0.53156 0.45443
 N565 N 0.95944 0.55195 0.43665
 Mn566 Mn 0.94278 0.49988 0.50001
 Mn567 Mn 0.99989 0.50012 0.45421
 Cl568 Cl 0.99981 0.50001 0.50007
 C569 C 0.93204 0.56465 0.44493
 C570 C 0.93127 0.43634 0.44430
 N571 N 1.05776 0.46839 0.02632
 N572 N 1.08012 0.46223 0.04348
 N573 N 1.03506 0.44757 -0.02768
 N574 N 1.04132 0.42669 -0.04492
 N575 N 1.05733 0.46832 -0.02786
 N576 N 1.07937 0.46208 -0.04525
 N577 N 1.03556 0.44757 0.02647
 N578 N 1.04223 0.42672 0.04373
 C579 C 1.06980 0.43644 0.05437
 C580 C 1.06872 0.43632 -0.05591
 N581 N 0.94393 0.46810 -0.02732
 N582 N 0.92160 0.46186 -0.04447
 N583 N 0.96664 0.44741 0.02680
 N584 N 0.96031 0.42643 0.04402
 N585 N 0.94431 0.46807 0.02688
 N586 N 0.92217 0.46166 0.04418
 N587 N 0.96616 0.44735 -0.02738
 N588 N 0.95954 0.42646 -0.04458
 Mn589 Mn 1.00086 0.44724 -0.00045
 C590 C 0.93196 0.43608 -0.05527
 C591 C 0.93281 0.43590 0.05490
 N592 N 1.05738 0.53313 -0.02804
 N593 N 1.07964 0.53952 -0.04526
 N594 N 1.03530 0.55380 0.02622
 N595 N 1.04157 0.57455 0.04359
 N596 N 1.05763 0.53315 0.02616
 N597 N 1.07974 0.53932 0.04351
 N598 N 1.03514 0.55388 -0.02796
 N599 N 1.04170 0.57491 -0.04512
 Mn600 Mn 1.05781 0.50074 -0.00086
 C601 C 1.06924 0.56539 -0.05597
 C602 C 1.06906 0.56495 0.05438
 N603 N 0.94424 0.53285 0.02678
 N604 N 0.92204 0.53907 0.04406
 N605 N 0.96621 0.55360 -0.02753
 N606 N 0.95973 0.57442 -0.04483
 N607 N 0.94393 0.53285 -0.02739
 N608 N 0.92166 0.53905 -0.04460
 N609 N 0.96640 0.55371 0.02661
 N610 N 0.95985 0.57465 0.04379
 Mn611 Mn 0.94382 0.50047 -0.00026
 Mn612 Mn 1.00076 0.55399 -0.00066
 Cl613 Cl 1.00081 0.50061 -0.00056
 C614 C 0.93240 0.56494 0.05471
 C615 C 0.93219 0.56476 -0.05549
 N616 N 0.55592 1.03112 0.52812
 N617 N 0.57808 1.05117 0.53370
 N618 N 0.53401 0.96799 0.54584
 N619 N 0.54088 0.94833 0.56400
 N620 N 0.55627 0.96819 0.52798
 N621 N 0.57891 0.94866 0.53356
 N622 N 0.53359 1.03088 0.54592
 N623 N 0.53991 1.05076 0.56402
 C624 C 0.56738 1.06350 0.55589
 C625 C 0.56857 0.93616 0.55580
 N626 N 0.44277 0.96738 0.52843
 N627 N 0.42033 0.94767 0.53433
 N628 N 0.46484 1.03040 0.54609
 N629 N 0.45807 1.04993 0.56435
 N630 N 0.44248 1.03033 0.52834
 N631 N 0.41988 1.04982 0.53407
 N632 N 0.46522 0.96748 0.54611
 N633 N 0.45869 0.94787 0.56444
 Mn634 Mn 0.49942 0.99918 0.54618
 C635 C 0.43098 0.93539 0.55659
 C636 C 0.43032 1.06216 0.55630
 N637 N 0.55617 0.96825 0.47232
 N638 N 0.57851 0.94841 0.46668
 N639 N 0.53350 1.03109 0.45463
 N640 N 0.54037 1.05040 0.43615
 N641 N 0.55586 1.03120 0.47239
 N642 N 0.57855 1.05058 0.46641
 N643 N 0.53374 0.96818 0.45463
 N644 N 0.54015 0.94831 0.43655
 Mn645 Mn 0.55636 0.99969 0.50021
 C646 C 0.56781 0.93590 0.44457
 C647 C 0.56815 1.06271 0.44404
 N648 N 0.44237 1.03057 0.47266
 N649 N 0.42010 1.05056 0.46722
 N650 N 0.46499 0.96786 0.45483
 N651 N 0.45828 0.94837 0.43652
 N652 N 0.44273 0.96763 0.47268
 N653 N 0.42024 0.94800 0.46694
 N654 N 0.46473 1.03074 0.45488
 N655 N 0.45833 1.05082 0.43694
 Mn656 Mn 0.44229 0.99897 0.50052
 Mn657 Mn 0.49923 0.99947 0.45456
 Cl658 Cl 0.49932 0.99933 0.50037
 C659 C 0.43076 1.06325 0.44512
 C660 C 0.43069 0.93585 0.44462
 N661 N 1.05727 1.03050 0.52838
 N662 N 1.07939 1.05060 0.53382
 N663 N 1.03446 0.96764 0.54599
 N664 N 1.04049 0.94754 0.56400
 N665 N 1.05696 0.96758 0.52835
 N666 N 1.07898 0.94741 0.53393
 N667 N 1.03482 1.03051 0.54605
 N668 N 1.04099 1.05061 0.56398
 C669 C 1.06852 1.06319 0.55581
 C670 C 1.06799 0.93485 0.55596
 N671 N 0.94363 0.96817 0.52776
 N672 N 0.92149 0.94796 0.53288
 N673 N 0.96620 1.03086 0.54577
 N674 N 0.96006 1.05100 0.56367
 N675 N 0.94396 1.03108 0.52793
 N676 N 0.92202 1.05139 0.53326
 N677 N 0.96583 0.96800 0.54562
 N678 N 0.95947 0.94768 0.56336
 Mn679 Mn 1.00032 0.99925 0.54608
 C680 C 0.93209 0.93514 0.55488
 C681 C 0.93278 1.06386 0.55536
 N682 N 1.05730 0.96784 0.47272
 N683 N 1.07943 0.94775 0.46731
 N684 N 1.03537 1.03090 0.45499
 N685 N 1.04148 1.05142 0.43736
 N686 N 1.05763 1.03076 0.47281
 N687 N 1.07957 1.05121 0.46776
 N688 N 1.03509 0.96804 0.45487
 N689 N 1.04144 0.94810 0.43686
 Mn690 Mn 1.05764 0.99916 0.50056
 C691 C 1.06880 0.93537 0.44516
 C692 C 1.06879 1.06411 0.44582
 N693 N 0.94431 1.03126 0.47232
 N694 N 0.92216 1.05126 0.46671
 N695 N 0.96647 0.96831 0.45456
 N696 N 0.96043 0.94810 0.43670
 N697 N 0.94397 0.96834 0.47220
 N698 N 0.92195 0.94812 0.46679
 N699 N 0.96676 1.03119 0.45464
 N700 N 0.96054 1.05114 0.43656
 Mn701 Mn 0.94363 0.99972 0.50006
 Mn702 Mn 1.00093 0.99961 0.45455
 Cl703 Cl 1.00063 0.99943 0.50031
 C704 C 0.93302 1.06375 0.44463
 C705 C 0.93292 0.93546 0.44484
 N706 N 0.55625 0.46767 0.02710
 N707 N 0.57803 0.46150 0.04470
 N708 N 0.53460 0.44735 -0.02720
 N709 N 0.54098 0.42686 -0.04475
 N710 N 0.55681 0.46813 -0.02698
 N711 N 0.57895 0.46234 -0.04438
 N712 N 0.53398 0.44695 0.02685
 N713 N 0.53995 0.42613 0.04424
 C714 C 0.56718 0.43580 0.05538
 C715 C 0.56842 0.43680 -0.05545
 N716 N 0.44364 0.46791 -0.02767
 N717 N 0.42191 0.46194 -0.04535
 N718 N 0.46537 0.44685 0.02641
 N719 N 0.45918 0.42617 0.04389
 N720 N 0.44309 0.46754 0.02639
 N721 N 0.42108 0.46150 0.04385
 N722 N 0.46598 0.44728 -0.02760
 N723 N 0.46013 0.42674 -0.04521
 Mn724 Mn 0.49998 0.44683 -0.00039
 C725 C 0.43289 0.43648 -0.05627
 C726 C 0.43178 0.43589 0.05474
 N727 N 0.55663 0.53264 -0.02667
 N728 N 0.57860 0.53876 -0.04414
 N729 N 0.53386 0.55291 0.02732
 N730 N 0.53994 0.57353 0.04484
 N731 N 0.55613 0.53221 0.02739
 N732 N 0.57800 0.53818 0.04495
 N733 N 0.53428 0.55326 -0.02670
 N734 N 0.54036 0.57396 -0.04417
 Mn735 Mn 0.55679 0.50017 0.00021
 C736 C 0.56776 0.56432 -0.05502
 C737 C 0.56723 0.56373 0.05583
 N738 N 0.44297 0.53206 0.02667
 N739 N 0.42093 0.53788 0.04415
 N740 N 0.46566 0.55323 -0.02717
 N741 N 0.45949 0.57412 -0.04448
 N742 N 0.44346 0.53245 -0.02741
 N743 N 0.42154 0.53863 -0.04490
 N744 N 0.46525 0.55276 0.02688
 N745 N 0.45907 0.57322 0.04448
 Mn746 Mn 0.44295 0.49998 -0.00051
 Mn747 Mn 0.49977 0.55331 0.00008
 Cl748 Cl 0.49987 0.50007 -0.00015
 C749 C 0.43166 0.56335 0.05524
 C750 C 0.43221 0.56441 -0.05555
 C751 C 0.34587 1.15366 0.13622
 N752 N 0.37639 1.16070 0.12983
 N753 N 0.39263 1.14383 0.11317
 C754 C 0.37887 1.11937 0.10233
 N755 N 0.34833 1.11236 0.10869
 N756 N 0.33210 1.12923 0.12535
 C757 C 0.32887 1.17110 0.15512
 C758 C 0.31500 1.18541 0.17141
 C759 C 0.39693 1.10026 0.08537
 C760 C 0.41224 1.08368 0.07173
 C761 C 0.84531 0.65353 0.63469
 N762 N 0.83138 0.62978 0.62290
 N763 N 0.84788 0.61313 0.60627
 C764 C 0.87880 0.61973 0.60090
 N765 N 0.89270 0.64352 0.61265
 N766 N 0.87620 0.66017 0.62928
 C767 C 0.82808 0.67054 0.65359
 C768 C 0.81409 0.68455 0.66992
 C769 C 0.89708 0.60071 0.58419
 C770 C 0.91250 0.58407 0.57080
 C771 C 0.65368 0.84570 0.13570
 N772 N 0.66774 0.86965 0.12422
 N773 N 0.65146 0.88657 0.10760
 C774 C 0.62061 0.88010 0.10190
 N775 N 0.60657 0.85612 0.11335
 N776 N 0.62284 0.83919 0.12998
 C777 C 0.67073 0.82829 0.15460
 C778 C 0.68465 0.81404 0.17091
 C779 C 0.60255 0.89931 0.08502
 C780 C 0.58725 0.91600 0.07146
 C781 C 1.15407 0.34549 0.63414
 N782 N 1.16821 0.36873 0.62171
 N783 N 1.15163 0.38544 0.60516
 C784 C 1.12042 0.37942 0.60051
 N785 N 1.10630 0.35614 0.61289
 N786 N 1.12288 0.33942 0.62945
 C787 C 1.17139 0.32852 0.65302
 C788 C 1.18548 0.31460 0.66937
 C789 C 1.10210 0.39858 0.58393
 C790 C 1.08670 0.41536 0.57064
 C791 C 0.65347 1.15502 -0.13535
 N792 N 0.66772 1.13141 -0.12357
 N793 N 0.65148 1.11443 -0.10693
 C794 C 0.62046 1.12054 -0.10154
 N795 N 0.60622 1.14418 -0.11329
 N796 N 0.62247 1.16115 -0.12992
 C797 C 0.67048 1.17240 -0.15429
 C798 C 0.68438 1.18659 -0.17067
 C799 C 0.60244 1.10121 -0.08471
 C800 C 0.58718 1.08441 -0.07120
 C801 C 1.15386 0.65465 0.36586
 N802 N 1.16809 0.63168 0.37854
 N803 N 1.15153 0.61506 0.39521
 C804 C 1.12026 0.62093 0.39973
 N805 N 1.10606 0.64395 0.38710
 N806 N 1.12261 0.66057 0.37043
 C807 C 1.17115 0.67150 0.34688
 C808 C 1.18524 0.68533 0.33046
 C809 C 1.10198 0.60183 0.41638
 C810 C 1.08659 0.58504 0.42970
 C811 C 0.34530 0.84636 -0.13574
 N812 N 0.33149 0.87060 -0.12460
 N813 N 0.34783 0.88749 -0.10801
 C814 C 0.37851 0.88070 -0.10200
 N815 N 0.39230 0.85643 -0.11310
 N816 N 0.37597 0.83954 -0.12969
 C817 C 0.32820 0.82896 -0.15460
 C818 C 0.31426 0.81472 -0.17091
 C819 C 0.39665 0.89985 -0.08512
 C820 C 0.41202 0.91646 -0.07154
 C821 C 0.84617 0.34551 0.36546
 N822 N 0.87733 0.33951 0.37033
 N823 N 0.89378 0.35628 0.38690
 C824 C 0.87958 0.37956 0.39914
 N825 N 0.84840 0.38552 0.39432
 N826 N 0.83194 0.36875 0.37774
 C827 C 0.82896 0.32843 0.34658
 C828 C 0.81495 0.31444 0.33024
 C829 C 0.89777 0.39873 0.41581
 C830 C 0.91308 0.41550 0.42918
 C831 C 1.15504 0.35370 0.14004
 N832 N 1.15744 0.38401 0.14026
 N833 N 1.14073 0.40055 0.12363
 C834 C 1.12103 0.38728 0.10631
 N835 N 1.11865 0.35697 0.10609
 N836 N 1.13536 0.34044 0.12271
 C837 C 1.17243 0.33589 0.15839
 C838 C 1.18653 0.32098 0.17413
 C839 C 1.10295 0.40504 0.08836
 C840 C 1.08777 0.41960 0.07305
 C841 C 0.65463 0.84943 0.63686
 N842 N 0.66808 0.87351 0.62516
 N843 N 0.65158 0.88941 0.60799
 C844 C 0.62119 0.88165 0.60197
 N845 N 0.60776 0.85753 0.61363
 N846 N 0.62426 0.84163 0.63079
 C847 C 0.67188 0.83294 0.65599
 C848 C 0.68595 0.81900 0.67229
 C849 C 0.60280 0.89988 0.58479
 C850 C 0.58719 0.91597 0.57109
 C851 C 1.15451 0.64853 -0.14182
 N852 N 1.16181 0.61924 -0.13800
 N853 N 1.14504 0.60270 -0.12137
 C854 C 1.12036 0.61488 -0.10807
 N855 N 1.11307 0.64417 -0.11188
 N856 N 1.12984 0.66071 -0.12851
 C857 C 1.17212 0.66626 -0.16021
 C858 C 1.18638 0.68112 -0.17597
 C859 C 1.10226 0.59709 -0.09002
 C860 C 1.08712 0.58244 -0.07467
 C861 C 0.65458 1.14910 0.36237
 N862 N 0.66764 1.12451 0.37353
 N863 N 0.65102 1.10853 0.39062
 C864 C 0.62089 1.11669 0.39711
 N865 N 0.60786 1.14131 0.38597
 N866 N 0.62447 1.15729 0.36889
 C867 C 0.67203 1.16582 0.34336
 C868 C 0.68624 1.17994 0.32720
 C869 C 0.60243 1.09855 0.41444
 C870 C 0.58680 1.08263 0.42836
 C871 C 0.84631 0.64705 0.14018
 N872 N 0.86793 0.66032 0.12438
 N873 N 0.88495 0.64399 0.10784
 C874 C 0.88095 0.61387 0.10662
 N875 N 0.85932 0.60059 0.12241
 N876 N 0.84230 0.61692 0.13896
 C877 C 0.82854 0.66459 0.15846
 C878 C 0.81415 0.67932 0.17414
 C879 C 0.89926 0.59632 0.08868
 C880 C 0.91451 0.58183 0.07338
 C881 C 0.34493 1.14937 0.63741
 N882 N 0.33145 1.12509 0.62611
 N883 N 0.34783 1.10902 0.60900
 C884 C 0.37812 1.11680 0.60264
 N885 N 0.39158 1.14112 0.61390
 N886 N 0.37520 1.15719 0.63100
 C887 C 0.32778 1.16610 0.65644
 C888 C 0.31379 1.18025 0.67264
 C889 C 0.39635 1.09847 0.58544
 C890 C 0.41184 1.08234 0.57169
 C891 C 0.84630 0.35357 -0.14074
 N892 N 0.84028 0.38326 -0.13803
 N893 N 0.85716 0.39972 -0.12148
 C894 C 0.88066 0.38702 -0.10718
 N895 N 0.88666 0.35733 -0.10989
 N896 N 0.86978 0.34087 -0.12644
 C897 C 0.82860 0.33592 -0.15900
 C898 C 0.81425 0.32109 -0.17463
 C899 C 0.89882 0.40468 -0.08923
 C900 C 0.91403 0.41921 -0.07393
 C901 C 0.34558 0.84946 0.36270
 N902 N 0.37605 0.84196 0.36867
 N903 N 0.39237 0.85780 0.38597
 C904 C 0.37864 0.88155 0.39788
 N905 N 0.34814 0.88901 0.39194
 N906 N 0.33182 0.87317 0.37464
 C907 C 0.32844 0.83295 0.34351
 C908 C 0.31441 0.81897 0.32723
 C909 C 0.39679 0.89971 0.41527
 C910 C 0.41222 0.91573 0.42914
 C911 C 1.14873 1.15654 0.36540
 N912 N 1.11651 1.15811 0.36739
 N913 N 1.10109 1.14147 0.38473
 C914 C 1.11744 1.12286 0.40063
 N915 N 1.14967 1.12137 0.39868
 N916 N 1.16509 1.13800 0.38134
 C917 C 1.16520 1.17323 0.34591
 C918 C 1.17931 1.18679 0.32939
 C919 C 1.10065 1.10320 0.41774
 C920 C 1.08628 1.08581 0.43117
 C921 C 0.64809 0.65164 -0.13932
 N922 N 0.61581 0.64993 -0.14017
 N923 N 0.60014 0.63199 -0.12400
 C924 C 0.61635 0.61514 -0.10665
 N925 N 0.64863 0.61685 -0.10579
 N926 N 0.66429 0.63479 -0.12196
 C927 C 0.66492 0.67009 -0.15724
 C928 C 0.67910 0.68494 -0.17281
 C929 C 0.59948 0.59642 -0.08895
 C930 C 0.58509 0.58128 -0.07371
 C931 C 0.85175 1.15499 0.63609
 N932 N 0.83562 1.13685 0.61968
 N933 N 0.85133 1.12037 0.60245
 C934 C 0.88363 1.12161 0.60108
 N935 N 0.89975 1.13981 0.61745
 N936 N 0.88404 1.15629 0.63468
 C937 C 0.83492 1.17169 0.65535
 C938 C 0.82060 1.18534 0.67167
 C939 C 0.90066 1.10226 0.58389
 C940 C 0.91519 1.08518 0.57031
 C941 C 0.35150 0.64979 0.14014
 N942 N 0.38357 0.64648 0.14204
 N943 N 0.39913 0.62863 0.12579
 C944 C 0.38303 0.61345 0.10729
 N945 N 0.35095 0.61676 0.10539
 N946 N 0.33539 0.63461 0.12164
 C947 C 0.33474 0.66833 0.15802
 C948 C 0.32063 0.68333 0.17349
 C949 C 0.39986 0.59493 0.08943
 C950 C 0.41426 0.58002 0.07407
 C951 C 1.14876 0.84397 0.63740
 N952 N 1.16493 0.86220 0.62102
 N953 N 1.14929 0.87868 0.60372
 C954 C 1.11700 0.87736 0.60223
 N955 N 1.10084 0.85907 0.61856
 N956 N 1.11648 0.84259 0.63586
 C957 C 1.16553 0.82724 0.65672
 C958 C 1.17984 0.81359 0.67310
 C959 C 1.10002 0.89664 0.58489
 C960 C 1.08554 0.91364 0.57114
 C961 C 0.64793 0.34909 0.14000
 N962 N 0.61560 0.35018 0.14061
 N963 N 0.59978 0.36790 0.12438
 C964 C 0.61584 0.38514 0.10718
 N965 N 0.64817 0.38404 0.10657
 N966 N 0.66399 0.36632 0.12280
 C967 C 0.66494 0.33070 0.15791
 C968 C 0.67927 0.31584 0.17340
 C969 C 0.59881 0.40369 0.08941
 C970 C 0.58441 0.41877 0.07412
 C971 C 0.85208 0.84423 0.36409
 N972 N 0.88439 0.84322 0.36530
 N973 N 0.90009 0.85972 0.38252
 C974 C 0.88393 0.87763 0.39910
 N975 N 0.85161 0.87856 0.39794
 N976 N 0.83592 0.86207 0.38072
 C977 C 0.83527 0.82758 0.34481
 C978 C 0.82094 0.81400 0.32845
 C979 C 0.90092 0.89701 0.41628
 C980 C 0.91540 0.91412 0.42986
 C981 C 0.35256 0.34969 -0.14079
 N982 N 0.33645 0.36610 -0.12309
 N983 N 0.35217 0.38396 -0.10694
 C984 C 0.38441 0.38603 -0.10814
 N985 N 0.40052 0.36962 -0.12584
 N986 N 0.38480 0.35176 -0.14200
 C987 C 0.33564 0.33118 -0.15859
 C988 C 0.32136 0.31623 -0.17400
 C989 C 0.40135 0.40460 -0.09040
 C990 C 0.41570 0.41962 -0.07509
 C991 C 1.15087 0.35018 -0.14041
 N992 N 1.11851 0.34965 -0.13997
 N993 N 1.10243 0.36713 -0.12372
 C994 C 1.11823 0.38575 -0.10750
 N995 N 1.15059 0.38628 -0.10793
 N996 N 1.16668 0.36880 -0.12419
 C997 C 1.16813 0.33192 -0.15836
 C998 C 1.18253 0.31708 -0.17387
 C999 C 1.10091 0.40420 -0.08974
 C1000 C 1.08625 0.41923 -0.07452
 C1001 C 0.64967 0.84504 0.36370
 N1002 N 0.66561 0.86409 0.37947
 N1003 N 0.64982 0.88070 0.39657
 C1004 C 0.61759 0.87873 0.39846
 N1005 N 0.60165 0.85963 0.38273
 N1006 N 0.61745 0.84301 0.36564
 C1007 C 0.66657 0.82809 0.34456
 C1008 C 0.68090 0.81429 0.32828
 C1009 C 0.60037 0.89801 0.41569
 C1010 C 0.58567 0.91490 0.42938
 C1011 C 0.84952 0.65086 -0.13978
 N1012 N 0.88188 0.65138 -0.13947
 N1013 N 0.89802 0.63388 -0.12324
 C1014 C 0.88229 0.61526 -0.10693
 N1015 N 0.84992 0.61475 -0.10723
 N1016 N 0.83378 0.63224 -0.12346
 C1017 C 0.83221 0.66906 -0.15775
 C1018 C 0.81778 0.68382 -0.17331
 C1019 C 0.89968 0.59681 -0.08920
 C1020 C 0.91445 0.58179 -0.07404
 C1021 C 0.34972 1.15499 0.36441
 N1022 N 0.38190 1.15706 0.36662
 N1023 N 0.39748 1.14032 0.38378
 C1024 C 0.38135 1.12104 0.39928
 N1025 N 0.34917 1.11902 0.39710
 N1026 N 0.33358 1.13577 0.37995
 C1027 C 0.33306 1.17203 0.34517
 C1028 C 0.31890 1.18588 0.32882
 C1029 C 0.39837 1.10156 0.41648
 C1030 C 0.41296 1.08448 0.43010
 C1031 C 1.15053 0.65028 0.13994
 N1032 N 1.16648 0.63377 0.12219
 N1033 N 1.15057 0.61643 0.10571
 C1034 C 1.11825 0.61499 0.10656
 N1035 N 1.10231 0.63150 0.12431
 N1036 N 1.11821 0.64884 0.14078
 C1037 C 1.16766 0.66842 0.15806
 C1038 C 1.18202 0.68317 0.17365
 C1039 C 1.10108 0.59673 0.08856
 C1040 C 1.08653 0.58185 0.07316
 C1041 C 0.64911 1.15461 0.63666
 N1042 N 0.61683 1.15615 0.63513
 N1043 N 0.60102 1.13950 0.61806
 C1044 C 0.61700 1.12086 0.60196
 N1045 N 0.64928 1.11937 0.60346
 N1046 N 0.66509 1.13602 0.62053
 C1047 C 0.66606 1.17159 0.65576
 C1048 C 0.68045 1.18543 0.67198
 C1049 C 0.59981 1.10153 0.58476
 C1050 C 0.58515 1.08459 0.57107
 C1051 C 0.85018 0.34986 0.13976
 N1052 N 0.83453 0.36903 0.12388
 N1053 N 0.85070 0.38640 0.10753
 C1054 C 0.88304 0.38523 0.10663
 N1055 N 0.89869 0.36606 0.12250
 N1056 N 0.88252 0.34868 0.13885
 C1057 C 0.83282 0.33166 0.15783
 C1058 C 0.81834 0.31685 0.17340
 C1059 C 0.90048 0.40365 0.08878
 C1060 C 0.91520 0.41870 0.07353
 C1061 C 0.34825 0.84521 0.63814
 N1062 N 0.38043 0.84283 0.63606
 N1063 N 0.39639 0.85942 0.61897
 C1064 C 0.38067 0.87887 0.60338
 N1065 N 0.34848 0.88121 0.60543
 N1066 N 0.33253 0.86462 0.62252
 C1067 C 0.33116 0.82816 0.65724
 C1068 C 0.31671 0.81424 0.67348
 C1069 C 0.39809 0.89798 0.58599
 C1070 C 0.41294 0.91466 0.57210
 C1071 C 0.35073 1.15848 -0.13503
 N1072 N 0.33456 1.13926 -0.11948
 N1073 N 0.35016 1.12194 -0.10274
 C1074 C 0.38244 1.12328 -0.10099
 N1075 N 0.39861 1.14254 -0.11650
 N1076 N 0.38301 1.15986 -0.13324
 C1077 C 0.33403 1.17591 -0.15410
 C1078 C 0.31994 1.18983 -0.17053
 C1079 C 0.39945 1.10326 -0.08409
 C1080 C 0.41395 1.08585 -0.07062
 C1081 C 0.85140 0.65916 0.36624
 N1082 N 0.83522 0.64127 0.38289
 N1083 N 0.85092 0.62406 0.39964
 C1084 C 0.88329 0.62423 0.40026
 N1085 N 0.89946 0.64219 0.38366
 N1086 N 0.88377 0.65940 0.36691
 C1087 C 0.83453 0.67623 0.34713
 C1088 C 0.82024 0.68981 0.33067
 C1089 C 0.90024 0.60411 0.41698
 C1090 C 0.91464 0.58649 0.43022
 C1091 C 0.64973 1.15796 0.13496
 N1092 N 0.66576 1.13842 0.11969
 N1093 N 0.65006 1.12108 0.10304
 C1094 C 0.61781 1.12273 0.10110
 N1095 N 0.60178 1.14231 0.11634
 N1096 N 0.61748 1.15964 0.13300
 C1097 C 0.66653 1.17544 0.15394
 C1098 C 0.68067 1.18940 0.17031
 C1099 C 0.60067 1.10276 0.08426
 C1100 C 0.58607 1.08541 0.07081
 C1101 C 1.14808 0.65950 0.63377
 N1102 N 1.11572 0.65988 0.63292
 N1103 N 1.10002 0.64254 0.61630
 C1104 C 1.11619 0.62428 0.59999
 N1105 N 1.14855 0.62396 0.60080
 N1106 N 1.16425 0.64130 0.61742
 C1107 C 1.16494 0.67674 0.65278
 C1108 C 1.17919 0.69044 0.66918
 C1109 C 1.09921 0.60409 0.58336
 C1110 C 1.08481 0.58644 0.57013
 C1111 C 0.64959 0.84268 -0.13537
 N1112 N 0.61737 0.84076 -0.13321
 N1113 N 0.60169 0.85802 -0.11649
 C1114 C 0.61771 0.87774 -0.10137
 N1115 N 0.64994 0.87961 -0.10350
 N1116 N 0.66562 0.86236 -0.12022
 C1117 C 0.66636 0.82521 -0.15438
 C1118 C 0.68047 0.81122 -0.17074
 C1119 C 0.60058 0.89760 -0.08444
 C1120 C 0.58598 0.91486 -0.07092
 C1121 C 1.14904 0.34175 0.36619
 N1122 N 1.16514 0.36012 0.38246
 N1123 N 1.14937 0.37728 0.39917
 C1124 C 1.11702 0.37658 0.40016
 N1125 N 1.10094 0.35816 0.38394
 N1126 N 1.11670 0.34100 0.36722
 C1127 C 1.16595 0.32466 0.34713
 C1128 C 1.18024 0.31101 0.33072
 C1129 C 1.09995 0.39658 0.41687
 C1130 C 1.08544 0.41408 0.43014
 C1131 C 0.35093 0.84113 0.13479
 N1132 N 0.33471 0.86012 0.11911
 N1133 N 0.35029 0.87749 0.10237
 C1134 C 0.38259 0.87643 0.10076
 N1135 N 0.39881 0.85740 0.11640
 N1136 N 0.38323 0.84002 0.13314
 C1137 C 0.33425 0.82370 0.15388
 C1138 C 0.32015 0.80980 0.17033
 C1139 C 0.39955 0.89654 0.08390
 C1140 C 0.41401 0.91406 0.07049
 C1141 C 0.85168 0.33986 0.63325
 N1142 N 0.88404 0.33996 0.63282
 N1143 N 0.89977 0.35721 0.61609
 C1144 C 0.88361 0.37486 0.59927
 N1145 N 0.85124 0.37468 0.59965
 N1146 N 0.83552 0.35743 0.61637
 C1147 C 0.83476 0.32287 0.65240
 C1148 C 0.82042 0.30941 0.66891
 C1149 C 0.90055 0.39510 0.58264
 C1150 C 0.91491 0.41287 0.56949
 C1151 C 1.15090 1.15275 0.63672
 N1152 N 1.11915 1.15695 0.63326
 N1153 N 1.10324 1.14071 0.61599
 C1154 C 1.11865 1.11989 0.60164
 N1155 N 1.15042 1.11574 0.60506
 N1156 N 1.16634 1.13198 0.62233
 C1157 C 1.16775 1.16940 0.65594
 C1158 C 1.18182 1.18324 0.67224
 C1159 C 1.10117 1.10095 0.58447
 C1160 C 1.08632 1.08419 0.57087
 C1161 C 0.65042 0.64786 0.14082
 N1162 N 0.61833 0.65093 0.13874
 N1163 N 0.60189 0.63383 0.12244
 C1164 C 0.61706 0.61309 0.10783
 N1165 N 0.64916 0.61002 0.10991
 N1166 N 0.66560 0.62712 0.12621
 C1167 C 0.66791 0.66587 0.15870
 C1168 C 0.68221 0.68078 0.17416
 C1169 C 0.59946 0.59514 0.08997
 C1170 C 0.58467 0.58048 0.07463
 C1171 C 1.15153 0.84681 0.36365
 N1172 N 1.16676 0.86810 0.37763
 N1173 N 1.15085 0.88415 0.39503
 C1174 C 1.11928 0.87928 0.39902
 N1175 N 1.10407 0.85793 0.38509
 N1176 N 1.11999 0.84189 0.36769
 C1177 C 1.16835 0.83032 0.34431
 C1178 C 1.18237 0.81656 0.32791
 C1179 C 1.10172 0.89798 0.41633
 C1180 C 1.08677 0.91456 0.43003
 C1181 C 0.65127 0.35347 -0.14126
 N1182 N 0.66344 0.35937 -0.11759
 N1183 N 0.64732 0.37642 -0.10105
 C1184 C 0.61861 0.38811 -0.10771
 N1185 N 0.60645 0.38222 -0.13138
 N1186 N 0.62258 0.36517 -0.14792
 C1187 C 0.66850 0.33519 -0.15911
 C1188 C 0.68261 0.32006 -0.17453
 C1189 C 0.60097 0.40584 -0.08971
 C1190 C 0.58608 0.42030 -0.07429
 C1191 C 0.84996 1.15255 0.36322
 N1192 N 0.88175 1.15678 0.36647
 N1193 N 0.89782 1.14064 0.38374
 C1194 C 0.88253 1.11988 0.39833
 N1195 N 0.85072 1.11570 0.39512
 N1196 N 0.83465 1.13184 0.37784
 C1197 C 0.83293 1.16915 0.34401
 C1198 C 0.81874 1.18296 0.32770
 C1199 C 0.90016 1.10112 0.41561
 C1200 C 0.91512 1.08454 0.42936
 C1201 C 0.34854 0.64860 -0.14048
 N1202 N 0.33813 0.62077 -0.13419
 N1203 N 0.35469 0.60381 -0.11782
 C1204 C 0.38222 0.61417 -0.10735
 N1205 N 0.39262 0.64200 -0.11365
 N1206 N 0.37606 0.65895 -0.13001
 C1207 C 0.33115 0.66657 -0.15853
 C1208 C 0.31690 0.68146 -0.17408
 C1209 C 0.39989 0.59613 -0.08954
 C1210 C 0.41471 0.58136 -0.07425
 C1211 C 0.84894 0.84567 0.63546
 N1212 N 0.88068 0.84129 0.63203
 N1213 N 0.89671 0.85740 0.61470
 C1214 C 0.88144 0.87824 0.60023
 N1215 N 0.84968 0.88255 0.60361
 N1216 N 0.83365 0.86645 0.62094
 C1217 C 0.83203 0.82931 0.65484
 C1218 C 0.81793 0.81573 0.67133
 C1219 C 0.89910 0.89718 0.58315
 C1220 C 0.91411 0.91401 0.56969
 C1221 C 0.34906 0.35160 0.14008
 N1222 N 0.33509 0.37581 0.12904
 N1223 N 0.35141 0.39293 0.11262
 C1224 C 0.38219 0.38638 0.10687
 N1225 N 0.39615 0.36217 0.11791
 N1226 N 0.37984 0.34506 0.13432
 C1227 C 0.33184 0.33360 0.15817
 C1228 C 0.31771 0.31873 0.17379
 C1229 C 0.39961 0.40443 0.08894
 C1230 C 0.41431 0.41913 0.07355
   
