data_POSCAR
  _audit_creation_date              2014-09-24
  _audit_creation_method            'ToBaCCo'
  _symmetry_space_group_name_H-M    'P1'
  _symmetry_Int_Tables_number       1
  _symmetry_cell_setting            triclinic
  loop_
  _symmetry_equiv_pos_as_xyz
 x,y,z
_cell_length_a 51.6667
_cell_length_b 52.0285
_cell_length_c 48.3056
_cell_angle_alpha 91.186000
_cell_angle_beta 89.291000
_cell_angle_gamma 93.007600
loop_
  _atom_site_label
  _atom_site_type_symbol
  _atom_site_fract_x
  _atom_site_fract_y
  _atom_site_fract_z
C1 C 0.33569 -0.03444 0.26713
 C2 C 0.34966 -0.01120 0.26104
 C3 C 0.36291 -0.00868 0.23572
 C4 C 0.36295 -0.02926 0.21672
 C5 C 0.34892 -0.05219 0.22266
 C6 C 0.33486 -0.05543 0.24786
 C7 C 0.35266 0.01002 0.28175
 C8 C 0.37047 0.00810 0.30310
 C9 C 0.37773 0.02955 0.32025
 C10 C 0.36513 0.05261 0.31658
 C11 C 0.34801 0.05517 0.29440
 C12 C 0.34172 0.03364 0.27725
 H13 H 0.32638 -0.03612 0.28724
 H14 H 0.37379 0.00913 0.23110
 H15 H 0.37925 -0.01015 0.30566
 H16 H 0.32953 0.03555 0.25939
 H17 H 0.34801 -0.06677 0.20638
 H18 H 0.37043 0.06944 0.32923
 C19 C 0.18124 -0.03256 0.76342
 C20 C 0.17508 -0.00671 0.76670
 C21 C 0.16064 0.00099 0.78980
 C22 C 0.15175 -0.01700 0.80935
 C23 C 0.15897 -0.04253 0.80654
 C24 C 0.17296 -0.05071 0.78320
 C25 C 0.17644 0.01027 0.74278
 C26 C 0.15927 0.00440 0.72125
 C27 C 0.15510 0.02216 0.70046
 C28 C 0.16972 0.04578 0.70111
 C29 C 0.18749 0.05194 0.72259
 C30 C 0.19038 0.03406 0.74364
 H31 H 0.19061 -0.03880 0.74444
 H32 H 0.15395 0.02040 0.79081
 H33 H 0.14710 -0.01316 0.72264
 H34 H 0.20246 0.03898 0.76133
 H35 H 0.15253 -0.05637 0.82193
 H36 H 0.16769 0.05915 0.68450
 C37 C 0.66708 0.45976 0.25246
 C38 C 0.66345 0.48613 0.25698
 C39 C 0.65509 0.49494 0.28311
 C40 C 0.64946 0.47751 0.30434
 C41 C 0.65351 0.45138 0.29974
 C42 C 0.66230 0.44223 0.27389
 C43 C 0.66644 0.50430 0.23393
 C44 C 0.65199 0.49986 0.20978
 C45 C 0.65297 0.51797 0.18868
 C46 C 0.66951 0.54011 0.19130
 C47 C 0.68436 0.54492 0.21544
 C48 C 0.68229 0.52689 0.23679
 H49 H 0.67310 0.45289 0.23218
 H50 H 0.65151 0.51513 0.28640
 H51 H 0.63914 0.48278 0.20788
 H52 H 0.69258 0.53050 0.25598
 H53 H 0.64964 0.43811 0.31648
 H54 H 0.67085 0.55328 0.17424
 C55 C 0.83960 0.46909 0.76801
 C56 C 0.85896 0.48910 0.76954
 C57 C 0.88036 0.48865 0.75173
 C58 C 0.88146 0.47062 0.72995
 C59 C 0.86230 0.45053 0.72851
 C60 C 0.84176 0.44881 0.74822
 C61 C 0.85629 0.51311 0.78597
 C62 C 0.87528 0.52031 0.80569
 C63 C 0.88006 0.54637 0.81409
 C64 C 0.86454 0.56486 0.80267
 C65 C 0.84586 0.55791 0.78271
 C66 C 0.84126 0.53203 0.77500
 H67 H 0.82334 0.46928 0.78233
 H68 H 0.89534 0.50396 0.75358
 H69 H 0.88696 0.50541 0.81339
 H70 H 0.82826 0.52706 0.75804
 H71 H 0.86289 0.43675 0.71145
 H72 H 0.86857 0.58517 0.80692
 C73 C 0.23874 0.35898 1.03761
 C74 C 0.24953 0.37775 1.01988
 C75 C 0.27459 0.38839 1.02447
 C76 C 0.28952 0.37974 1.04619
 C77 C 0.27918 0.35970 1.06265
 C78 C 0.25380 0.34939 1.05858
 C79 C 0.23668 0.38267 0.99376
 C80 C 0.22054 0.40329 0.99136
 C81 C 0.20768 0.40720 0.96633
 C82 C 0.21218 0.39045 0.94356
 C83 C 0.22886 0.37022 0.94585
 C84 C 0.24078 0.36623 0.97105
 H85 H 0.21959 0.35028 1.03349
 H86 H 0.28290 0.40243 1.01019
 H87 H 0.21805 0.41605 1.00907
 H88 H 0.25327 0.35026 0.97302
 H89 H 0.29060 0.35245 1.07917
 H90 H 0.20204 0.39235 0.92429
 C91 C 0.75473 0.12787 1.03117
 C92 C 0.74215 0.11447 1.00928
 C93 C 0.71840 0.10090 1.01382
 C94 C 0.70714 0.10043 1.04038
 C95 C 0.72021 0.11343 1.06229
 C96 C 0.74396 0.12761 1.05804
 C97 C 0.75349 0.11585 0.98133
 C98 C 0.77530 0.10187 0.97457
 C99 C 0.78824 0.10555 0.94913
 C100 C 0.77905 0.12326 0.93060
 C101 C 0.75769 0.13774 0.93753
 C102 C 0.74466 0.13370 0.96274
 H103 H 0.77323 0.13797 1.02714
 H104 H 0.70848 0.09132 0.99654
 H105 H 0.78298 0.08932 0.98974
 H106 H 0.72891 0.14572 0.96874
 H107 H 0.71087 0.11357 1.08246
 H108 H 0.78939 0.12690 0.91130
 C109 C 0.25538 0.61854 0.54662
 C110 C 0.24233 0.61370 0.52162
 C111 C 0.21574 0.60717 0.52186
 C112 C 0.20213 0.60443 0.54703
 C113 C 0.21538 0.60923 0.57197
 C114 C 0.24195 0.61641 0.57191
 C115 C 0.25685 0.61328 0.49532
 C116 C 0.27618 0.59564 0.49147
 C117 C 0.29045 0.59458 0.46657
 C118 C 0.28532 0.61205 0.44579
 C119 C 0.26658 0.63038 0.44991
 C120 C 0.25178 0.63045 0.47435
 H121 H 0.27599 0.62365 0.54637
 H122 H 0.20588 0.60348 0.50240
 H123 H 0.28031 0.58311 0.50831
 H124 H 0.23737 0.64464 0.47766
 H125 H 0.20508 0.60719 0.59154
 H126 H 0.29617 0.61189 0.42648
 C127 C 0.75379 0.86369 0.52947
 C128 C 0.76533 0.88039 0.51023
 C129 C 0.79057 0.89068 0.51423
 C130 C 0.80463 0.88558 0.53840
 C131 C 0.79220 0.86882 0.55782
 C132 C 0.76726 0.85768 0.55309
 C133 C 0.75079 0.88765 0.48595
 C134 C 0.73399 0.90783 0.48833
 C135 C 0.71946 0.91511 0.46557
 C136 C 0.72203 0.90118 0.44037
 C137 C 0.73817 0.88021 0.43820
 C138 C 0.75294 0.87392 0.46096
 H139 H 0.73447 0.85519 0.52594
 H140 H 0.79893 0.90201 0.49761
 H141 H 0.73183 0.91718 0.50838
 H142 H 0.76512 0.85758 0.45970
 H143 H 0.80128 0.86425 0.57698
 H144 H 0.71125 0.90617 0.42237
 C145 C -0.03952 0.22408 0.37004
 C146 C -0.01496 0.22764 0.38147
 C147 C -0.00549 0.20894 0.39831
 C148 C -0.02105 0.18717 0.40577
 C149 C -0.04645 0.18430 0.39518
 C150 C -0.05560 0.20218 0.37618
 C151 C -0.00024 0.25238 0.37920
 C152 C -0.00912 0.27394 0.39345
 C153 C 0.00720 0.29607 0.39701
 C154 C 0.03226 0.29683 0.38544
 C155 C 0.04079 0.27564 0.37008
 C156 C 0.02449 0.25341 0.36711
 H157 H -0.04651 0.23940 0.35773
 H158 H 0.01342 0.21262 0.40749
 H159 H -0.02802 0.27284 0.40349
 H160 H 0.03156 0.23643 0.35673
 H161 H -0.05811 0.16705 0.40000
 H162 H 0.04511 0.31377 0.38847
 C163 C -0.01976 0.76513 0.12290
 C164 C -0.00127 0.76996 0.10205
 C165 C -0.00554 0.78824 0.08197
 C166 C -0.02737 0.80336 0.08374
 C167 C -0.04501 0.79938 0.10616
 C168 C -0.04216 0.77930 0.12496
 C169 C 0.02236 0.75530 0.10117
 C170 C 0.02535 0.73603 0.08097
 C171 C 0.04706 0.72058 0.08084
 C172 C 0.06622 0.72578 0.10115
 C173 C 0.06318 0.74504 0.12163
 C174 C 0.04116 0.75964 0.12154
 H175 H -0.01641 0.75042 0.13784
 H176 H 0.00816 0.79037 0.06495
 H177 H 0.01063 0.73336 0.06526
 H178 H 0.03845 0.77417 0.13757
 H179 H -0.06188 0.81081 0.10798
 H180 H 0.08293 0.71412 0.10209
 C181 C 0.46372 0.27817 0.61602
 C182 C 0.48838 0.28557 0.60530
 C183 C 0.49363 0.31111 0.59678
 C184 C 0.47422 0.32911 0.59862
 C185 C 0.44970 0.32117 0.60914
 C186 C 0.44445 0.29608 0.61812
 C187 C 0.50875 0.26663 0.60357
 C188 C 0.50512 0.24403 0.58735
 C189 C 0.52390 0.22538 0.58666
 C190 C 0.54622 0.22949 0.60303
 C191 C 0.55009 0.25207 0.61937
 C192 C 0.53135 0.27068 0.61917
 H193 H 0.45956 0.25860 0.62267
 H194 H 0.51270 0.31686 0.58878
 H195 H 0.48752 0.24088 0.57552
 H196 H 0.53385 0.28794 0.63200
 H197 H 0.43423 0.33447 0.60995
 H198 H 0.56091 0.21537 0.60260
 C199 C 0.46598 0.73016 0.87074
 C200 C 0.49180 0.72970 0.87902
 C201 C 0.50019 0.70804 0.89232
 C202 C 0.48241 0.68800 0.90024
 C203 C 0.45601 0.68965 0.89346
 C204 C 0.44806 0.71010 0.87748
 C205 C 0.50883 0.75333 0.87784
 C206 C 0.49998 0.77616 0.88961
 C207 C 0.51659 0.79810 0.89211
 C208 C 0.54224 0.79749 0.88247
 C209 C 0.55115 0.77493 0.87009
 C210 C 0.53445 0.75283 0.86790
 H211 H 0.45955 0.74674 0.86000
 H212 H 0.52018 0.70799 0.89890
 H213 H 0.48045 0.77657 0.89805
 H214 H 0.54155 0.73517 0.85910
 H215 H 0.44196 0.67439 0.89910
 H216 H 0.55521 0.81444 0.88468
 C217 C -0.28324 0.58443 1.01003
 C218 C -0.25753 0.59411 1.00800
 C219 C -0.24812 0.61302 1.02683
 C220 C -0.26412 0.62215 1.04803
 C221 C -0.28934 0.61126 1.05089
 C222 C -0.29987 0.59318 1.03129
 C223 C -0.24277 0.59032 0.98223
 C224 C -0.24637 0.60749 0.96107
 C225 C -0.22860 0.61027 0.93885
 C226 C -0.20919 0.59207 0.93648
 C227 C -0.20596 0.57376 0.95730
 C228 C -0.22268 0.57344 0.98046
 H229 H -0.29048 0.57203 0.99331
 H230 H -0.22893 0.62196 1.02355
 H231 H -0.26294 0.61930 0.96297
 H232 H -0.21932 0.56109 0.99770
 H233 H -0.30058 0.61721 1.06869
 H234 H -0.19532 0.59293 0.91960
 C235 C -0.30679 0.40206 0.50691
 C236 C -0.28582 0.38783 0.49814
 C237 C -0.28954 0.36868 0.47765
 C238 C -0.31429 0.36234 0.46726
 C239 C -0.33561 0.37490 0.47798
 C240 C -0.33200 0.39536 0.49743
 C241 C -0.26337 0.38660 0.51635
 C242 C -0.26362 0.36588 0.53412
 C243 C -0.24461 0.36394 0.55420
 C244 C -0.22393 0.38254 0.55493
 C245 C -0.22219 0.40272 0.53561
 C246 C -0.24265 0.40505 0.51684
 H247 H -0.30393 0.41634 0.52341
 H248 H -0.27332 0.35760 0.47092
 H249 H -0.27926 0.35124 0.53232
 H250 H -0.24209 0.42039 0.50200
 H251 H -0.35468 0.36989 0.46975
 H252 H -0.20929 0.38137 0.57062
 C253 C 0.20290 -0.10130 0.00061
 C254 C 0.22593 -0.11115 -0.01013
 C255 C 0.22743 -0.11818 -0.03827
 C256 C 0.20577 -0.11673 -0.05532
 C257 C 0.18294 -0.10689 -0.04444
 C258 C 0.18156 -0.09862 -0.01664
 C259 C 0.24647 -0.11852 0.00883
 C260 C 0.23989 -0.13693 0.02881
 C261 C 0.25863 -0.14625 0.04651
 C262 C 0.28421 -0.13588 0.04389
 C263 C 0.29165 -0.11838 0.02305
 C264 C 0.27249 -0.10959 0.00556
 H265 H 0.20149 -0.09612 0.02241
 H266 H 0.24473 -0.12676 -0.04633
 H267 H 0.22022 -0.14511 0.02891
 H268 H 0.27776 -0.09629 -0.01076
 H269 H 0.16616 -0.10577 -0.05752
 H270 H 0.29858 -0.14078 0.05872
 C271 C 0.24287 1.10039 0.50862
 C272 C 0.26203 1.11988 0.50394
 C273 C 0.26104 1.14343 0.51816
 C274 C 0.24245 1.14701 0.53923
 C275 C 0.22397 1.12681 0.54456
 C276 C 0.22309 1.10387 0.52835
 C277 C 0.28327 1.11535 0.48422
 C278 C 0.28576 1.12923 0.45969
 C279 C 0.30333 1.12189 0.43883
 C280 C 0.31951 1.10157 0.44383
 C281 C 0.31873 1.08936 0.46945
 C282 C 0.30023 1.09593 0.48935
 H283 H 0.24306 1.08300 0.49595
 H284 H 0.27525 1.15865 0.51297
 H285 H 0.27231 1.14404 0.45588
 H286 H 0.29881 1.08573 0.50871
 H287 H 0.21037 1.12887 0.56155
 H288 H 0.33359 1.09605 0.42828
 C289 C 0.08860 0.48686 0.22227
 C290 C 0.10937 0.48865 0.24082
 C291 C 0.12953 0.50760 0.23732
 C292 C 0.12866 0.52539 0.21577
 C293 C 0.10724 0.52374 0.19806
 C294 C 0.08742 0.50456 0.20098
 C295 C 0.10831 0.47273 0.26571
 C296 C 0.12195 0.45010 0.26682
 C297 C 0.11984 0.43430 0.29030
 C298 C 0.10388 0.44209 0.31257
 C299 C 0.08970 0.46428 0.31118
 C300 C 0.09219 0.47967 0.28787
 H301 H 0.07294 0.47242 0.22508
 H302 H 0.14544 0.50873 0.25175
 H303 H 0.13332 0.44456 0.24892
 H304 H 0.08088 0.49657 0.28652
 H305 H 0.10547 0.53783 0.18210
 H306 H 0.10202 0.43089 0.33119
 C307 C -0.08854 1.00999 0.22555
 C308 C -0.10189 0.99939 0.24850
 C309 C -0.11420 0.97474 0.24647
 C310 C -0.11301 0.95981 0.22169
 C311 C -0.09686 0.97000 0.20036
 C312 C -0.08689 0.99566 0.20075
 C313 C -0.10770 1.01595 0.27262
 C314 C -0.12474 1.03555 0.26940
 C315 C -0.13083 1.05225 0.29157
 C316 C -0.12001 1.04822 0.31760
 C317 C -0.10180 1.02920 0.32075
 C318 C -0.09632 1.01264 0.29831
 H319 H -0.08139 1.02994 0.22653
 H320 H -0.12585 0.96864 0.26403
 H321 H -0.13347 1.03756 0.24932
 H322 H -0.08209 0.99823 0.30031
 H323 H -0.09170 0.95835 0.18266
 H324 H -0.12365 1.06138 0.33472
 C325 C 0.38925 0.52298 -0.28685
 C326 C 0.37294 0.51177 -0.26672
 C327 C 0.35583 0.49118 -0.27378
 C328 C 0.35378 0.48214 -0.30133
 C329 C 0.36906 0.49483 -0.32198
 C330 C 0.38772 0.51466 -0.31475
 C331 C 0.37346 0.52174 -0.23809
 C332 C 0.35746 0.54159 -0.23029
 C333 C 0.35826 0.55237 -0.20326
 C334 C 0.37463 0.54161 -0.18389
 C335 C 0.39018 0.52118 -0.19148
 C336 C 0.38987 0.51162 -0.21877
 H337 H 0.40266 0.53876 -0.28076
 H338 H 0.34480 0.48179 -0.25732
 H339 H 0.34572 0.54959 -0.24607
 H340 H 0.40215 0.49618 -0.22491
 H341 H 0.36779 0.48805 -0.34328
 H342 H 0.37519 0.54880 -0.16269
 C343 C 0.61821 -0.02498 -0.27387
 C344 C 0.63662 -0.01620 -0.25442
 C345 C 0.65416 0.00432 -0.26061
 C346 C 0.65300 0.01705 -0.28596
 C347 C 0.63576 0.00665 -0.30618
 C348 C 0.61826 -0.01430 -0.30032
 C349 C 0.63686 -0.02763 -0.22691
 C350 C 0.65290 -0.04781 -0.22182
 C351 C 0.65334 -0.05896 -0.19547
 C352 C 0.63742 -0.04899 -0.17425
 C353 C 0.62060 -0.02940 -0.17971
 C354 C 0.62048 -0.01874 -0.20603
 H355 H 0.60464 -0.04082 -0.26872
 H356 H 0.66818 0.01062 -0.24511
 H357 H 0.66415 -0.05532 -0.23892
 H358 H 0.60723 -0.00389 -0.21043
 H359 H 0.63411 0.01616 -0.32574
 H360 H 0.63712 -0.05705 -0.15376
 C361 C -0.01097 0.22166 0.88079
 C362 C -0.01707 0.24222 0.86418
 C363 C -0.04110 0.24191 0.85141
 C364 C -0.05923 0.22139 0.85508
 C365 C -0.05318 0.20058 0.87142
 C366 C -0.02886 0.20045 0.88435
 C367 C 0.00012 0.26554 0.86206
 C368 C 0.01951 0.26755 0.84148
 C369 C 0.03373 0.29111 0.83737
 C370 C 0.02840 0.31237 0.85460
 C371 C 0.00869 0.31050 0.87483
 C372 C -0.00539 0.28711 0.87839
 H373 H 0.00742 0.22250 0.89138
 H374 H -0.04612 0.25824 0.83934
 H375 H 0.02280 0.25104 0.82811
 H376 H -0.02095 0.28576 0.89366
 H377 H -0.06735 0.18470 0.87401
 H378 H 0.03933 0.33053 0.85213
 C379 C 0.50445 0.20594 0.12845
 C380 C 0.50603 0.23203 0.13639
 C381 C 0.52721 0.24186 0.15196
 C382 C 0.54611 0.22552 0.16062
 C383 C 0.54408 0.19934 0.15309
 C384 C 0.52364 0.18962 0.13641
 C385 C 0.48557 0.24906 0.12849
 C386 C 0.45976 0.24327 0.13627
 C387 C 0.44045 0.26013 0.13009
 C388 C 0.44701 0.28277 0.11567
 C389 C 0.47292 0.28897 0.10820
 C390 C 0.49203 0.27182 0.11446
 H391 H 0.48840 0.19839 0.11595
 H392 H 0.52884 0.26216 0.15759
 H393 H 0.45477 0.22595 0.14770
 H394 H 0.51208 0.27628 0.10864
 H395 H 0.55907 0.18680 0.15907
 H396 H 0.43219 0.29620 0.11177
 C397 C 0.00867 0.71656 0.60981
 C398 C 0.01144 0.74279 0.61733
 C399 C 0.03449 0.75250 0.62981
 C400 C 0.05408 0.73581 0.63601
 C401 C 0.05077 0.70956 0.62890
 C402 C 0.02829 0.69985 0.61539
 C403 C -0.01056 0.75938 0.61330
 C404 C -0.03442 0.75324 0.62657
 C405 C -0.05659 0.76649 0.62041
 C406 C -0.05401 0.78695 0.60175
 C407 C -0.03021 0.79395 0.58870
 C408 C -0.00845 0.77986 0.59469
 H409 H -0.00907 0.70904 0.60018
 H410 H 0.03678 0.77273 0.63557
 H411 H -0.03592 0.73705 0.64038
 H412 H 0.00992 0.78409 0.58429
 H413 H 0.06592 0.69672 0.63355
 H414 H -0.07057 0.79836 0.59849
 C415 C 0.49428 0.73973 0.36835
 C416 C 0.49684 0.75848 0.34784
 C417 C 0.47681 0.76084 0.32898
 C418 C 0.45446 0.74447 0.33017
 C419 C 0.45260 0.72488 0.34978
 C420 C 0.47227 0.72247 0.36944
 C421 C 0.51941 0.77713 0.34732
 C422 C 0.53582 0.77878 0.32394
 C423 C 0.55652 0.79744 0.32293
 C424 C 0.56028 0.81474 0.34542
 C425 C 0.54386 0.81346 0.36881
 C426 C 0.52367 0.79431 0.36971
 H427 H 0.50937 0.73899 0.38362
 H428 H 0.47813 0.77618 0.31408
 H429 H 0.53247 0.76553 0.30660
 H430 H 0.51081 0.79311 0.38759
 H431 H 0.43537 0.71211 0.35011
 H432 H 0.57603 0.82932 0.34466
 B433 B -0.03914 0.00272 0.99709
 B434 B -0.04988 0.00089 0.96398
 B435 B -0.02770 0.02409 0.97399
 B436 B -0.00723 0.01182 0.99659
 B437 B -0.01702 -0.01965 1.00108
 B438 B -0.04377 -0.02612 0.98100
 B439 B -0.00313 -0.01374 0.94671
 B440 B 0.00788 -0.01160 0.97945
 B441 B -0.01444 -0.03511 0.97002
 B442 B -0.03487 -0.02285 0.94708
 B443 B -0.02499 0.00868 0.94265
 B444 B 0.00127 0.01523 0.96278
 B445 B 0.48494 0.54561 0.50622
 B446 B 0.47606 0.53909 0.47289
 B447 B 0.50149 0.55996 0.48007
 B448 B 0.51772 0.54888 0.50717
 B449 B 0.50201 0.52094 0.51699
 B450 B 0.47585 0.51523 0.49605
 B451 B 0.51955 0.51395 0.46394
 B452 B 0.52865 0.52020 0.49687
 B453 B 0.50304 0.49959 0.49026
 B454 B 0.48695 0.51053 0.46308
 B455 B 0.50290 0.53855 0.45303
 B456 B 0.52871 0.54419 0.47410
 B457 B 0.53074 0.98533 0.51830
 B458 B 0.54334 0.99640 0.48780
 B459 B 0.51653 0.97618 0.48859
 B460 B 0.49800 0.98379 0.51614
 B461 B 0.51362 1.00872 0.53306
 B462 B 0.54212 1.01631 0.51570
 B463 B 0.50187 1.02506 0.48147
 B464 B 0.48928 1.01412 0.51161
 B465 B 0.51612 1.03417 0.51179
 B466 B 0.53450 1.02682 0.48366
 B467 B 0.51882 1.00134 0.46682
 B468 B 0.49089 0.99406 0.48401
 B469 B 0.01500 0.50143 1.00956
 B470 B 0.04152 0.50664 0.98913
 B471 B 0.01716 0.48548 0.97906
 B472 B -0.01147 0.49731 0.98933
 B473 B -0.00442 0.52600 1.00566
 B474 B 0.02857 0.53150 1.00572
 B475 B 0.01285 0.52994 0.95164
 B476 B -0.01385 0.52529 0.97229
 B477 B 0.01061 0.54608 0.98271
 B478 B 0.03902 0.53420 0.97213
 B479 B 0.03186 0.50524 0.95611
 B480 B -0.00103 0.50006 0.95592
 B481 B 0.00563 0.49955 0.49668
 B482 B 0.02761 0.49892 0.52206
 B483 B 0.00107 0.51617 0.52648
 B484 B -0.02440 0.49979 0.51121
 B485 B -0.01309 0.47200 0.49782
 B486 B 0.01930 0.47179 0.50417
 B487 B -0.00639 0.47151 0.55388
 B488 B -0.02859 0.47172 0.52863
 B489 B -0.00175 0.45485 0.52397
 B490 B 0.02345 0.47124 0.53918
 B491 B 0.01206 0.49878 0.55270
 B492 B -0.02046 0.49919 0.54602
 B493 B 0.51949 -0.00077 -0.00103
 B494 B 0.53375 -0.00771 0.02897
 B495 B 0.51144 0.01483 0.02840
 B496 B 0.48814 0.00521 0.00545
 B497 B 0.49620 -0.02393 -0.00776
 B498 B 0.52467 -0.03161 0.00654
 B499 B 0.48827 -0.02902 0.04786
 B500 B 0.47419 -0.02250 0.01790
 B501 B 0.49667 -0.04479 0.01855
 B502 B 0.51980 -0.03508 0.04138
 B503 B 0.51154 -0.00622 0.05479
 B504 B 0.48319 0.00181 0.04004
 B505 B 0.46982 0.48669 -0.00555
 B506 B 0.45961 0.48913 0.02791
 B507 B 0.48211 0.46812 0.01860
 B508 B 0.50190 0.48157 -0.00582
 B509 B 0.49136 0.51145 -0.01168
 B510 B 0.46481 0.51577 0.00888
 B511 B 0.50622 0.51023 0.04239
 B512 B 0.51653 0.50798 0.00942
 B513 B 0.49379 0.52887 0.01805
 B514 B 0.47427 0.51536 0.04275
 B515 B 0.48496 0.48551 0.04869
 B516 B 0.51120 0.48113 0.02767
 B517 B 0.00037 0.99754 0.49667
 B518 B -0.02020 0.99262 0.52378
 B519 B 0.00814 0.97769 0.52205
 B520 B 0.03117 0.99830 0.50831
 B521 B 0.01677 1.02596 0.50186
 B522 B -0.01518 1.02222 0.51116
 B523 B 0.01344 1.01875 0.55762
 B524 B 0.03398 1.02387 0.53077
 B525 B 0.00551 1.03848 0.53188
 B526 B -0.01721 1.01787 0.54603
 B527 B -0.00260 0.98999 0.55265
 B528 B 0.02926 0.99408 0.54306
 B529 B 0.75468 0.21486 0.24859
 B530 B 0.75217 0.20724 0.28244
 B531 B 0.77476 0.22965 0.27249
 B532 B 0.76267 0.24673 0.24650
 B533 B 0.73163 0.23484 0.24117
 B534 B 0.72522 0.21009 0.26356
 B535 B 0.73433 0.25422 0.29415
 B536 B 0.73726 0.26174 0.26060
 B537 B 0.71450 0.23925 0.27071
 B538 B 0.72672 0.22217 0.29663
 B539 B 0.75741 0.23440 0.30195
 B540 B 0.76414 0.25877 0.27952
 B541 B 0.73713 0.76350 0.72984
 B542 B 0.74911 0.77755 0.75917
 B543 B 0.72373 0.75586 0.76055
 B544 B 0.72791 0.73256 0.73637
 B545 B 0.75651 0.73991 0.71985
 B546 B 0.76942 0.76822 0.73378
 B547 B 0.76712 0.73214 0.77405
 B548 B 0.75498 0.71819 0.74497
 B549 B 0.78053 0.74004 0.74323
 B550 B 0.77630 0.76321 0.76772
 B551 B 0.74768 0.75567 0.78432
 B552 B 0.73464 0.72776 0.77030
 B553 B 0.25284 0.29038 0.75380
 B554 B 0.24678 0.31038 0.72790
 B555 B 0.26794 0.28694 0.72307
 B556 B 0.25685 0.26047 0.74011
 B557 B 0.22838 0.26761 0.75537
 B558 B 0.22224 0.29882 0.74832
 B559 B 0.22246 0.27158 0.69925
 B560 B 0.22838 0.25103 0.72483
 B561 B 0.20716 0.27433 0.73063
 B562 B 0.21814 0.30101 0.71347
 B563 B 0.24683 0.29382 0.69812
 B564 B 0.25297 0.26264 0.70543
 B565 B 0.23669 0.72027 0.27007
 B566 B 0.23502 0.69834 0.24372
 B567 B 0.21651 0.72430 0.24361
 B568 B 0.23408 0.74993 0.25726
 B569 B 0.26364 0.73943 0.26530
 B570 B 0.26392 0.70730 0.25724
 B571 B 0.25764 0.73312 0.20931
 B572 B 0.25991 0.75501 0.23564
 B573 B 0.27796 0.72895 0.23586
 B574 B 0.26043 0.70354 0.22221
 B575 B 0.23087 0.71418 0.21410
 B576 B 0.23084 0.74627 0.22251
 B577 B 0.26523 0.72529 0.73949
 B578 B 0.25542 0.71134 0.76951
 B579 B 0.27834 0.73572 0.76971
 B580 B 0.27083 0.75711 0.74571
 B581 B 0.24276 0.74572 0.73037
 B582 B 0.23348 0.71715 0.74501
 B583 B 0.23263 0.75476 0.78536
 B584 B 0.24214 0.76849 0.75541
 B585 B 0.21942 0.74411 0.75519
 B586 B 0.22699 0.72282 0.77935
 B587 B 0.25488 0.73432 0.79462
 B588 B 0.26434 0.76287 0.77979
 B589 B 0.22326 0.25568 0.22909
 B590 B 0.23096 0.27428 0.25709
 B591 B 0.21064 0.24795 0.26019
 B592 B 0.22068 0.22455 0.23853
 B593 B 0.24793 0.23654 0.22226
 B594 B 0.25400 0.26754 0.23348
 B595 B 0.25787 0.23597 0.27759
 B596 B 0.25047 0.21749 0.24931
 B597 B 0.27061 0.24389 0.24639
 B598 B 0.26048 0.26724 0.26801
 B599 B 0.23338 0.25506 0.28455
 B600 B 0.22717 0.22400 0.27305
 B601 B 0.76559 0.77607 0.25812
 B602 B 0.76510 0.79773 0.23254
 B603 B 0.78640 0.77407 0.23109
 B604 B 0.77154 0.74686 0.24399
 B605 B 0.74084 0.75414 0.25317
 B606 B 0.73714 0.78596 0.24628
 B607 B 0.74626 0.76113 0.19726
 B608 B 0.74633 0.73918 0.22247
 B609 B 0.72532 0.76300 0.22461
 B610 B 0.74021 0.79000 0.21144
 B611 B 0.77102 0.78247 0.20220
 B612 B 0.77453 0.75093 0.20931
 B613 B 0.73104 0.22788 0.76345
 B614 B 0.73309 0.20443 0.73879
 B615 B 0.71584 0.23070 0.73313
 B616 B 0.73181 0.25681 0.74812
 B617 B 0.75890 0.24608 0.76251
 B618 B 0.75934 0.21364 0.75701
 B619 B 0.76231 0.23674 0.70667
 B620 B 0.76113 0.25999 0.73164
 B621 B 0.77751 0.23338 0.73716
 B622 B 0.76163 0.20785 0.72207
 B623 B 0.73442 0.21856 0.70770
 B624 B 0.73429 0.25122 0.71358
 C625 C 0.40100 1.04355 0.36321
 C626 C 0.42301 1.04286 0.38017
 C627 C 0.44408 1.02843 0.37120
 C628 C 0.44266 1.01435 0.34630
 C629 C 0.42048 1.01416 0.33030
 C630 C 0.39927 1.02883 0.33817
 C631 C 0.46606 1.02747 0.38763
 C632 C 0.46668 1.03918 0.41394
 C633 C 0.44568 1.05327 0.42352
 C634 C 0.42414 1.05565 0.40624
 C635 C 0.44630 1.06365 0.45064
 C636 C 0.46610 1.05766 0.46878
 C637 C 0.48584 1.04155 0.46004
 C638 C 0.48715 1.03486 0.43161
 H639 H 0.38486 1.05458 0.37019
 H640 H 0.45872 1.00323 0.33922
 H641 H 0.42075 1.00349 0.31084
 H642 H 0.48209 1.01625 0.38057
 H643 H 0.40786 1.06636 0.41356
 H644 H 0.43062 1.07493 0.45838
 H645 H 0.46487 1.06430 0.49005
 H646 H 0.50272 1.02369 0.42347
 C647 C -0.07596 0.54021 0.83119
 C648 C -0.05498 0.54768 0.84822
 C649 C -0.05609 0.56975 0.86563
 C650 C -0.07808 0.58436 0.86511
 C651 C -0.09905 0.57672 0.84823
 C652 C -0.09864 0.55423 0.83125
 C653 C -0.03590 0.57594 0.88433
 C654 C -0.01611 0.55877 0.88767
 C655 C -0.01468 0.53731 0.86940
 C656 C -0.03339 0.53255 0.84900
 C657 C 0.00419 0.51961 0.87345
 C658 C 0.01736 0.52006 0.89842
 C659 C 0.01232 0.53870 0.91940
 C660 C 0.00014 0.56068 0.91097
 H661 H -0.07413 0.52364 0.81751
 H662 H -0.07945 0.60123 0.87847
 H663 H -0.11606 0.58798 0.84960
 H664 H -0.03702 0.59256 0.89811
 H665 H -0.03242 0.51569 0.83550
 H666 H 0.00649 0.50365 0.85901
 H667 H 0.02897 0.50382 0.90219
 H668 H 0.00114 0.57793 0.92371
 C669 C 0.11051 -0.02747 0.83514
 C670 C 0.09083 -0.02091 0.85366
 C671 C 0.09203 0.00364 0.86680
 C672 C 0.11308 0.02103 0.86152
 C673 C 0.13286 0.01414 0.84336
 C674 C 0.13178 -0.01014 0.83004
 C675 C 0.07239 0.01028 0.88531
 C676 C 0.05222 -0.00772 0.89176
 C677 C 0.05117 -0.03242 0.87905
 C678 C 0.07021 -0.03869 0.85954
 C679 C 0.03147 -0.05058 0.88671
 C680 C 0.01388 -0.04471 0.90788
 C681 C 0.01526 -0.02037 0.92112
 C682 C 0.03365 -0.00158 0.91163
 H683 H 0.10899 -0.04593 0.82430
 H684 H 0.11440 0.03981 0.87170
 H685 H 0.14902 0.02781 0.83972
 H686 H 0.07323 0.02916 0.89534
 H687 H 0.06954 -0.05766 0.84975
 H688 H 0.03012 -0.06951 0.87688
 H689 H -0.00055 -0.05934 0.91406
 H690 H 0.03435 0.01776 0.92036
 C691 C 0.61348 0.47398 0.33901
 C692 C 0.60093 0.48224 0.36324
 C693 C 0.61254 0.50240 0.37966
 C694 C 0.63635 0.51416 0.37125
 C695 C 0.64840 0.50623 0.34665
 C696 C 0.63712 0.48602 0.33049
 C697 C 0.59989 0.51080 0.40381
 C698 C 0.57534 0.49997 0.41114
 C699 C 0.56357 0.48020 0.39437
 C700 C 0.57666 0.47110 0.37085
 C701 C 0.53850 0.47048 0.40083
 C702 C 0.52489 0.48071 0.42324
 C703 C 0.53647 0.50001 0.44061
 C704 C 0.56192 0.50938 0.43433
 H705 H 0.60454 0.45861 0.32633
 H706 H 0.64546 0.52972 0.38350
 H707 H 0.66662 0.51570 0.34032
 H708 H 0.60878 0.52623 0.41645
 H709 H 0.56760 0.45590 0.35802
 H710 H 0.52908 0.45551 0.38802
 H711 H 0.50518 0.47338 0.42693
 H712 H 0.57095 0.52495 0.44654
 C713 C 0.61721 0.53075 0.15767
 C714 C 0.60002 0.52507 0.13565
 C715 C 0.60283 0.50236 0.11952
 C716 C 0.62248 0.48581 0.12549
 C717 C 0.63892 0.49124 0.14774
 C718 C 0.63644 0.51360 0.16403
 C719 C 0.58558 0.49608 0.09806
 C720 C 0.56503 0.51175 0.09283
 C721 C 0.56196 0.53449 0.10862
 C722 C 0.57970 0.54121 0.12987
 C723 C 0.54099 0.54976 0.10300
 C724 C 0.52312 0.54228 0.08222
 C725 C 0.52597 0.51949 0.06660
 C726 C 0.54728 0.50454 0.07217
 H727 H 0.61506 0.54788 0.17046
 H728 H 0.62476 0.46833 0.11330
 H729 H 0.65357 0.47788 0.15242
 H730 H 0.58780 0.47860 0.08580
 H731 H 0.57739 0.55860 0.14221
 H732 H 0.53830 0.56736 0.11482
 H733 H 0.50715 0.55434 0.07834
 H734 H 0.55045 0.48703 0.06045
 C735 C 0.11957 1.03591 0.67118
 C736 C 0.09764 1.02926 0.65493
 C737 C 0.09214 1.00313 0.64747
 C738 C 0.10848 0.98427 0.65572
 C739 C 0.12966 0.99085 0.67225
 C740 C 0.13535 1.01657 0.68086
 C741 C 0.07050 0.99606 0.63156
 C742 C 0.05454 1.01477 0.62209
 C743 C 0.05947 1.04091 0.62941
 C744 C 0.08091 1.04806 0.64621
 C745 C 0.04332 1.05927 0.61883
 C746 C 0.02485 1.05199 0.59855
 C747 C 0.02269 1.02643 0.58853
 C748 C 0.03511 1.00766 0.60330
 H749 H 0.12320 1.05581 0.67768
 H750 H 0.10477 0.96428 0.64955
 H751 H 0.14184 0.97556 0.67805
 H752 H 0.06667 0.97600 0.62562
 H753 H 0.08496 1.06814 0.65180
 H754 H 0.04615 1.07940 0.62477
 H755 H 0.01408 1.06669 0.58904
 H756 H 0.03229 0.98745 0.59763
 C757 C -0.08678 0.45505 0.69327
 C758 C -0.06841 0.46065 0.67205
 C759 C -0.06203 0.48669 0.66575
 C760 C -0.07424 0.50648 0.67969
 C761 C -0.09288 0.50081 0.69977
 C762 C -0.09904 0.47523 0.70741
 C763 C -0.04439 0.49281 0.64465
 C764 C -0.03422 0.47339 0.62820
 C765 C -0.04009 0.44730 0.63394
 C766 C -0.05677 0.44097 0.65646
 C767 C -0.02986 0.42836 0.61629
 C768 C -0.01637 0.43546 0.59182
 C769 C -0.01337 0.46152 0.58460
 C770 C -0.02003 0.48014 0.60463
 H771 H -0.09152 0.43524 0.69866
 H772 H -0.06990 0.52643 0.67453
 H773 H -0.10272 0.51672 0.70914
 H774 H -0.03984 0.51286 0.63987
 H775 H -0.06158 0.42095 0.66098
 H776 H -0.03337 0.40813 0.62063
 H777 H -0.00955 0.42057 0.57807
 H778 H -0.01638 0.50047 0.60088
 C779 C 0.39695 -0.04237 0.18237
 C780 C 0.40954 -0.03972 0.15649
 C781 C 0.40085 -0.02159 0.13773
 C782 C 0.38039 -0.00612 0.14519
 C783 C 0.36858 -0.00835 0.17117
 C784 C 0.37659 -0.02651 0.18982
 C785 C 0.41304 -0.01875 0.11194
 C786 C 0.43459 -0.03288 0.10498
 C787 C 0.44387 -0.05064 0.12361
 C788 C 0.43090 -0.05439 0.14917
 C789 C 0.46643 -0.06350 0.11659
 C790 C 0.48018 -0.05786 0.09194
 C791 C 0.47113 -0.03992 0.07347
 C792 C 0.44773 -0.02826 0.08009
 H793 H 0.40316 -0.05637 0.19687
 H794 H 0.37367 0.00788 0.13100
 H795 H 0.35284 0.00383 0.17660
 H796 H 0.40631 -0.00481 0.09763
 H797 H 0.43786 -0.06806 0.16362
 H798 H 0.47403 -0.07710 0.13068
 H799 H 0.49831 -0.06682 0.08791
 H800 H 0.44015 -0.01418 0.06659
 C801 C 0.32188 0.41734 0.04759
 C802 C 0.34732 0.42774 0.05024
 C803 C 0.36744 0.41155 0.05677
 C804 C 0.36166 0.38527 0.06081
 C805 C 0.33633 0.37498 0.05768
 C806 C 0.31623 0.39084 0.05078
 C807 C 0.39309 0.42169 0.05814
 C808 C 0.39897 0.44753 0.05175
 C809 C 0.37881 0.46375 0.04553
 C810 C 0.35306 0.45391 0.04546
 C811 C 0.38487 0.48930 0.03831
 C812 C 0.41067 0.49794 0.03461
 C813 C 0.43090 0.48126 0.03848
 C814 C 0.42482 0.45692 0.04965
 H815 H 0.30652 0.42983 0.04264
 H816 H 0.37685 0.37254 0.06566
 H817 H 0.33262 0.35445 0.05993
 H818 H 0.40858 0.40917 0.06267
 H819 H 0.33765 0.46632 0.04035
 H820 H 0.36966 0.50216 0.03397
 H821 H 0.41457 0.51727 0.02724
 H822 H 0.44003 0.44463 0.05528
 C823 C -0.16017 0.91811 0.52718
 C824 C -0.13480 0.92849 0.53023
 C825 C -0.11857 0.91887 0.55038
 C826 C -0.12783 0.89821 0.56644
 C827 C -0.15281 0.88707 0.56242
 C828 C -0.16976 0.89679 0.54273
 C829 C -0.09337 0.92995 0.55389
 C830 C -0.08397 0.94986 0.53661
 C831 C -0.09998 0.95847 0.51555
 C832 C -0.12541 0.94823 0.51296
 C833 C -0.09029 0.97710 0.49719
 C834 C -0.06493 0.98718 0.49949
 C835 C -0.04870 0.97931 0.52061
 C836 C -0.05877 0.96106 0.53967
 H837 H -0.17229 0.92755 0.51294
 H838 H -0.11554 0.89023 0.58174
 H839 H -0.15804 0.87030 0.57444
 H840 H -0.08098 0.92282 0.56966
 H841 H -0.13774 0.95528 0.49708
 H842 H -0.10229 0.98377 0.48083
 H843 H -0.05827 1.00149 0.48473
 H844 H -0.04675 0.95492 0.55628
 C845 C -0.18342 0.06757 0.94812
 C846 C -0.15891 0.05729 0.94427
 C847 C -0.13766 0.07350 0.93540
 C848 C -0.14113 0.09950 0.93047
 C849 C -0.16538 0.10957 0.93447
 C850 C -0.18666 0.09382 0.94344
 C851 C -0.11294 0.06382 0.93272
 C852 C -0.10878 0.03862 0.94059
 C853 C -0.12997 0.02215 0.94885
 C854 C -0.15506 0.03138 0.95003
 C855 C -0.12541 -0.00305 0.95664
 C856 C -0.09996 -0.01070 0.95902
 C857 C -0.07872 0.00691 0.95468
 C858 C -0.08348 0.03037 0.94219
 H859 H -0.19979 0.05534 0.95509
 H860 H -0.12491 0.11227 0.92436
 H861 H -0.16730 0.12996 0.93134
 H862 H -0.09669 0.07636 0.92603
 H863 H -0.17129 0.01882 0.95667
 H864 H -0.14143 -0.01637 0.96212
 H865 H -0.09702 -0.03004 0.96576
 H866 H -0.06748 0.04310 0.93544
 C867 C 0.33502 0.58462 0.44927
 C868 C 0.35694 0.56993 0.45028
 C869 C 0.35613 0.54739 0.46616
 C870 C 0.33281 0.53868 0.47865
 C871 C 0.31092 0.55314 0.47710
 C872 C 0.31209 0.57689 0.46358
 C873 C 0.37891 0.53469 0.47048
 C874 C 0.40248 0.54448 0.45936
 C875 C 0.40290 0.56566 0.44149
 C876 C 0.38006 0.57823 0.43693
 C877 C 0.42642 0.57461 0.42957
 C878 C 0.44958 0.56448 0.43763
 C879 C 0.44965 0.54632 0.45882
 C880 C 0.42583 0.53456 0.46741
 H881 H 0.33653 0.60287 0.43885
 H882 H 0.33171 0.52112 0.49038
 H883 H 0.29327 0.54605 0.48730
 H884 H 0.37854 0.51810 0.48374
 H885 H 0.38057 0.59516 0.42416
 H886 H 0.42705 0.59018 0.41497
 H887 H 0.46754 0.57220 0.42859
 H888 H 0.42531 0.51930 0.48236
 C889 C 0.16609 0.57507 0.52904
 C890 C 0.14054 0.56480 0.53031
 C891 C 0.12315 0.57449 0.55029
 C892 C 0.13144 0.59477 0.56812
 C893 C 0.15694 0.60495 0.56666
 C894 C 0.17458 0.59500 0.54736
 C895 C 0.09790 0.56351 0.55239
 C896 C 0.08984 0.54305 0.53467
 C897 C 0.10701 0.53378 0.51425
 C898 C 0.13230 0.54469 0.51222
 C899 C 0.09868 0.51353 0.49644
 C900 C 0.07359 0.50249 0.49890
 C901 C 0.05628 0.51153 0.51920
 C902 C 0.06485 0.53162 0.53724
 H903 H 0.17959 0.56694 0.51435
 H904 H 0.11828 0.60259 0.58337
 H905 H 0.16291 0.62058 0.58070
 H906 H 0.08462 0.57074 0.56791
 H907 H 0.14560 0.53738 0.49676
 H908 H 0.11156 0.50622 0.48061
 H909 H 0.06775 0.48700 0.48465
 H910 H 0.05231 0.53829 0.55361
 C911 C 0.67412 0.06341 0.03376
 C912 C 0.64929 0.05181 0.03868
 C913 C 0.63123 0.06485 0.05532
 C914 C 0.63822 0.08911 0.06677
 C915 C 0.66276 0.10055 0.06163
 C916 C 0.68102 0.08787 0.04524
 C917 C 0.60624 0.05376 0.05976
 C918 C 0.59871 0.03014 0.04704
 C919 C 0.61668 0.01704 0.03044
 C920 C 0.64204 0.02767 0.02682
 C921 C 0.60867 -0.00602 0.01692
 C922 C 0.58269 -0.01492 0.01810
 C923 C 0.56421 -0.00125 0.03335
 C924 C 0.57300 0.02023 0.04939
 H925 H 0.68806 0.05342 0.02114
 H926 H 0.62458 0.09941 0.07945
 H927 H 0.66736 0.11960 0.07023
 H928 H 0.59234 0.06403 0.07217
 H929 H 0.65581 0.01757 0.01407
 H930 H 0.62217 -0.01648 0.00422
 H931 H 0.57700 -0.03183 0.00579
 H932 H 0.55968 0.03023 0.06248
 C933 C 0.67740 0.93487 0.45342
 C934 C 0.65791 0.95208 0.45924
 C935 C 0.66082 0.97004 0.48147
 C936 C 0.68421 0.97201 0.49587
 C937 C 0.70385 0.95530 0.48947
 C938 C 0.70031 0.93567 0.46905
 C939 C 0.64003 0.98502 0.48950
 C940 C 0.61640 0.98228 0.47540
 C941 C 0.61439 0.96584 0.45174
 C942 C 0.63508 0.95086 0.44383
 C943 C 0.59124 0.96375 0.43705
 C944 C 0.56944 0.97554 0.44730
 C945 C 0.57002 0.98881 0.47306
 C946 C 0.59429 0.99432 0.48551
 H947 H 0.67388 0.92004 0.43769
 H948 H 0.68714 0.98615 0.51247
 H949 H 0.72163 0.95753 0.50106
 H950 H 0.64185 0.99791 0.50738
 H951 H 0.63303 0.93752 0.42632
 H952 H 0.58958 0.95189 0.41837
 H953 H 0.55156 0.97230 0.43601
 H954 H 0.59548 1.00576 0.50451
 C955 C 0.17345 0.43487 0.98736
 C956 C 0.15375 0.45224 0.98469
 C957 C 0.14878 0.46227 0.95843
 C958 C 0.16468 0.45625 0.93579
 C959 C 0.18454 0.43936 0.93872
 C960 C 0.18864 0.42771 0.96424
 C961 C 0.12750 0.47748 0.95501
 C962 C 0.11113 0.48281 0.97755
 C963 C 0.11711 0.47441 1.00420
 C964 C 0.13839 0.45909 1.00764
 C965 C 0.10120 0.48089 1.02676
 C966 C 0.07835 0.49352 1.02255
 C967 C 0.07051 0.49897 0.99561
 C968 C 0.08814 0.49525 0.97349
 H969 H 0.17603 0.42612 1.00721
 H970 H 0.16149 0.46425 0.91565
 H971 H 0.19644 0.43518 0.92077
 H972 H 0.12315 0.48436 0.93463
 H973 H 0.14248 0.45186 1.02793
 H974 H 0.10600 0.47550 1.04755
 H975 H 0.06651 0.49805 1.04034
 H976 H 0.08335 0.50047 0.95265
 C977 C 0.01258 0.32606 0.43774
 C978 C 0.00409 0.34643 0.45439
 C979 C -0.01867 0.35862 0.44720
 C980 C -0.03298 0.34972 0.42414
 C981 C -0.02453 0.32928 0.40790
 C982 C -0.00155 0.31763 0.41431
 C983 C -0.02639 0.37996 0.46266
 C984 C -0.01138 0.38963 0.48487
 C985 C 0.01074 0.37694 0.49286
 C986 C 0.01823 0.35518 0.47772
 C987 C 0.02571 0.38707 0.51495
 C988 C 0.02012 0.41074 0.52733
 C989 C -0.00073 0.42452 0.51803
 C990 C -0.01721 0.41289 0.49781
 H991 H 0.03008 0.31668 0.44296
 H992 H -0.05054 0.35876 0.41850
 H993 H -0.03571 0.32274 0.39003
 H994 H -0.04345 0.38972 0.45667
 H995 H 0.03555 0.34572 0.48339
 H996 H 0.04261 0.37747 0.52157
 H997 H 0.03316 0.41898 0.54289
 H998 H -0.03351 0.42296 0.49035
 C999 C 0.51155 -0.17448 -0.06566
 C1000 C 0.50238 -0.15254 -0.05222
 C1001 C 0.48863 -0.13485 -0.06748
 C1002 C 0.48367 -0.13978 -0.09563
 C1003 C 0.49293 -0.16165 -0.10880
 C1004 C 0.50720 -0.17880 -0.09400
 C1005 C 0.48080 -0.11214 -0.05462
 C1006 C 0.48728 -0.10645 -0.02699
 C1007 C 0.50030 -0.12440 -0.01147
 C1008 C 0.50737 -0.14760 -0.02405
 C1009 C 0.50737 -0.11814 0.01588
 C1010 C 0.50383 -0.09345 0.02679
 C1011 C 0.49253 -0.07479 0.01080
 C1012 C 0.48271 -0.08221 -0.01543
 H1013 H 0.52226 -0.18810 -0.05425
 H1014 H 0.47295 -0.12656 -0.10752
 H1015 H 0.48911 -0.16516 -0.13059
 H1016 H 0.47087 -0.09828 -0.06653
 H1017 H 0.51780 -0.16121 -0.01232
 H1018 H 0.51720 -0.13175 0.02818
 H1019 H 0.51161 -0.08856 0.04700
 H1020 H 0.47350 -0.06838 -0.02800
 C1021 C -0.01157 -0.16480 1.04707
 C1022 C -0.01642 -0.14641 1.02699
 C1023 C -0.04219 -0.13992 1.02232
 C1024 C -0.06268 -0.15319 1.03597
 C1025 C -0.05779 -0.17202 1.05509
 C1026 C -0.03222 -0.17752 1.06177
 C1027 C -0.04711 -0.11964 1.00484
 C1028 C -0.02655 -0.10551 0.99220
 C1029 C -0.00096 -0.11324 0.99473
 C1030 C 0.00402 -0.13382 1.01209
 C1031 C 0.01918 -0.09931 0.98090
 C1032 C 0.01442 -0.07583 0.96852
 C1033 C -0.01025 -0.06570 0.97065
 C1034 C -0.03110 -0.08243 0.97915
 H1035 H 0.00831 -0.16843 1.05180
 H1036 H -0.08258 -0.14885 1.03202
 H1037 H -0.07424 -0.18224 1.06460
 H1038 H -0.06681 -0.11389 1.00240
 H1039 H 0.02378 -0.13923 1.01491
 H1040 H 0.03881 -0.10567 0.98117
 H1041 H 0.03049 -0.06477 0.95935
 H1042 H -0.05083 -0.07646 0.97840
 C1043 C 0.49158 0.36214 0.56431
 C1044 C 0.49175 0.38731 0.55396
 C1045 C 0.47860 0.40647 0.56888
 C1046 C 0.46701 0.40079 0.59448
 C1047 C 0.46725 0.37601 0.60474
 C1048 C 0.47856 0.35615 0.58939
 C1049 C 0.47699 0.43102 0.55795
 C1050 C 0.48906 0.43713 0.53266
 C1051 C 0.50341 0.41866 0.51832
 C1052 C 0.50436 0.39366 0.52881
 C1053 C 0.51696 0.42579 0.49410
 C1054 C 0.51668 0.45106 0.48458
 C1055 C 0.50175 0.46950 0.49817
 C1056 C 0.48758 0.46184 0.52208
 H1057 H 0.50048 0.34707 0.55232
 H1058 H 0.45734 0.41541 0.60640
 H1059 H 0.45783 0.37218 0.62449
 H1060 H 0.46650 0.44547 0.56930
 H1061 H 0.51501 0.37929 0.51757
 H1062 H 0.52866 0.41212 0.48312
 H1063 H 0.52928 0.45613 0.46752
 H1064 H 0.47628 0.47553 0.53355
 C1065 C 0.52588 1.17752 0.57992
 C1066 C 0.52247 1.15484 0.56380
 C1067 C 0.51323 1.15575 0.53644
 C1068 C 0.50728 1.17965 0.52585
 C1069 C 0.51053 1.20222 0.54215
 C1070 C 0.52003 1.20143 0.56931
 C1071 C 0.51011 1.13280 0.52032
 C1072 C 0.51595 1.10896 0.53144
 C1073 C 0.52493 1.10852 0.55900
 C1074 C 0.52817 1.13125 0.57484
 C1075 C 0.53081 1.08532 0.57054
 C1076 C 0.52777 1.06257 0.55529
 C1077 C 0.51863 1.06193 0.52773
 C1078 C 0.51312 1.08558 0.51576
 H1079 H 0.53280 1.17651 0.60095
 H1080 H 0.50014 1.18090 0.50495
 H1081 H 0.50601 1.22040 0.53335
 H1082 H 0.50313 1.13351 0.49930
 H1083 H 0.53519 1.13056 0.59588
 H1084 H 0.53789 1.08471 0.59154
 H1085 H 0.53302 1.04538 0.56560
 H1086 H 0.50695 1.08594 0.49447
 C1087 C 0.02590 0.68570 1.05320
 C1088 C 0.02702 0.66367 1.03622
 C1089 C 0.05112 0.65560 1.02622
 C1090 C 0.07385 0.66973 1.03392
 C1091 C 0.07271 0.69111 1.05197
 C1092 C 0.04867 0.69955 1.06184
 C1093 C 0.05206 0.63298 1.00977
 C1094 C 0.02935 0.61745 1.00503
 C1095 C 0.00552 0.62533 1.01612
 C1096 C 0.00434 0.64879 1.03055
 C1097 C -0.01653 0.60881 1.01456
 C1098 C -0.01483 0.58417 1.00342
 C1099 C 0.00820 0.57613 0.99058
 C1100 C 0.03029 0.59333 0.99124
 H1101 H 0.00719 0.69071 1.06143
 H1102 H 0.09259 0.66387 1.02656
 H1103 H 0.09070 0.70142 1.05747
 H1104 H 0.07056 0.62675 1.00204
 H1105 H -0.01409 0.65469 1.03887
 H1106 H -0.03473 0.61423 1.02382
 H1107 H -0.03167 0.57113 1.00577
 H1108 H 0.04866 0.58722 0.98313
 C1109 C 0.47749 0.65732 -0.06173
 C1110 C 0.48713 0.63708 -0.04662
 C1111 C 0.50944 0.62495 -0.05636
 C1112 C 0.52317 0.63477 -0.07930
 C1113 C 0.51456 0.65600 -0.09299
 C1114 C 0.49119 0.66705 -0.08504
 C1115 C 0.51748 0.60299 -0.04328
 C1116 C 0.50412 0.59358 -0.01984
 C1117 C 0.48370 0.60733 -0.00819
 C1118 C 0.47497 0.62878 -0.02193
 C1119 C 0.47157 0.59858 0.01624
 C1120 C 0.47780 0.57508 0.02736
 C1121 C 0.49580 0.55951 0.01387
 C1122 C 0.50981 0.56977 -0.00900
 H1123 H 0.46006 0.66625 -0.05458
 H1124 H 0.54064 0.62605 -0.08666
 H1125 H 0.52558 0.66298 -0.11078
 H1126 H 0.53376 0.59290 -0.05169
 H1127 H 0.45845 0.63861 -0.01376
 H1128 H 0.45630 0.60922 0.02593
 H1129 H 0.46663 0.56805 0.04501
 H1130 H 0.52338 0.55822 -0.02028
 C1131 C -0.02616 1.15706 0.44471
 C1132 C -0.01501 1.14037 0.46334
 C1133 C 0.01118 1.13431 0.45962
 C1134 C 0.02617 1.14589 0.43861
 C1135 C 0.01542 1.16326 0.42114
 C1136 C -0.01092 1.16900 0.42358
 C1137 C 0.02196 1.11631 0.47654
 C1138 C 0.00703 1.10426 0.49737
 C1139 C -0.01849 1.11150 0.50270
 C1140 C -0.02946 1.12956 0.48558
 C1141 C -0.03292 1.09938 0.52404
 C1142 C -0.02325 1.07834 0.53761
 C1143 C 0.00093 1.06886 0.52983
 C1144 C 0.01662 1.08350 0.51117
 H1145 H -0.04625 1.16166 0.44752
 H1146 H 0.04629 1.14147 0.43561
 H1147 H 0.02767 1.17146 0.40487
 H1148 H 0.04175 1.11096 0.47281
 H1149 H -0.04938 1.13455 0.48900
 H1150 H -0.05239 1.10498 0.52890
 H1151 H -0.03592 1.06787 0.55193
 H1152 H 0.03515 1.07675 0.50432
 C1153 C 0.78257 0.63229 0.89453
 C1154 C 0.78116 0.65379 0.87745
 C1155 C 0.76712 0.67501 0.88657
 C1156 C 0.75590 0.67510 0.91291
 C1157 C 0.75788 0.65415 0.92998
 C1158 C 0.77046 0.63179 0.92103
 C1159 C 0.76422 0.69580 0.86917
 C1160 C 0.77526 0.69578 0.84261
 C1161 C 0.79046 0.67529 0.83382
 C1162 C 0.79325 0.65432 0.85123
 C1163 C 0.80198 0.67587 0.80746
 C1164 C 0.79690 0.69554 0.78935
 C1165 C 0.77977 0.71474 0.79688
 C1166 C 0.77021 0.71537 0.82427
 H1167 H 0.79230 0.61583 0.88638
 H1168 H 0.74570 0.69157 0.92052
 H1169 H 0.75013 0.65639 0.95070
 H1170 H 0.75283 0.71172 0.87607
 H1171 H 0.80437 0.63828 0.84418
 H1172 H 0.81416 0.66064 0.80045
 H1173 H 0.80547 0.69475 0.76898
 H1174 H 0.75736 0.73013 0.83100
 C1175 C 0.30117 0.15982 0.40981
 C1176 C 0.29751 0.17030 0.38368
 C1177 C 0.29334 0.15353 0.36059
 C1178 C 0.29652 0.12714 0.36305
 C1179 C 0.30203 0.11707 0.38869
 C1180 C 0.30286 0.13301 0.41261
 C1181 C 0.28525 0.16330 0.33563
 C1182 C 0.28301 0.18982 0.33292
 C1183 C 0.29089 0.20701 0.35446
 C1184 C 0.29736 0.19712 0.38021
 C1185 C 0.29099 0.23362 0.35000
 C1186 C 0.28256 0.24287 0.32471
 C1187 C 0.27257 0.22574 0.30401
 C1188 C 0.27214 0.19922 0.30921
 H1189 H 0.30287 0.17245 0.42790
 H1190 H 0.29411 0.11419 0.34530
 H1191 H 0.30332 0.09642 0.39012
 H1192 H 0.28044 0.15027 0.31840
 H1193 H 0.30177 0.21014 0.39753
 H1194 H 0.29729 0.24722 0.36613
 H1195 H 0.28257 0.26348 0.32201
 H1196 H 0.26187 0.18545 0.29599
 C1197 C 0.69775 0.34824 0.42017
 C1198 C 0.69856 0.32971 0.39897
 C1199 C 0.68403 0.30604 0.40118
 C1200 C 0.66801 0.30194 0.42462
 C1201 C 0.66749 0.32065 0.44600
 C1202 C 0.68295 0.34359 0.44406
 C1203 C 0.68652 0.28683 0.38039
 C1204 C 0.70388 0.29101 0.35798
 C1205 C 0.71784 0.31509 0.35611
 C1206 C 0.71474 0.33429 0.37619
 C1207 C 0.73562 0.31955 0.33474
 C1208 C 0.74044 0.30019 0.31570
 C1209 C 0.72688 0.27589 0.31662
 C1210 C 0.70827 0.27152 0.33785
 H1211 H 0.70943 0.36612 0.41859
 H1212 H 0.65652 0.28406 0.42677
 H1213 H 0.65585 0.31685 0.46441
 H1214 H 0.67571 0.26850 0.38213
 H1215 H 0.72581 0.35254 0.37468
 H1216 H 0.74642 0.33791 0.33313
 H1217 H 0.75498 0.30473 0.30003
 H1218 H 0.69780 0.25298 0.33913
 C1219 C 0.19636 0.84735 0.91284
 C1220 C 0.20113 0.83492 0.88727
 C1221 C 0.21546 0.84843 0.86650
 C1222 C 0.22388 0.87419 0.87110
 C1223 C 0.21993 0.88603 0.89685
 C1224 C 0.20644 0.87268 0.91794
 C1225 C 0.22231 0.83567 0.84195
 C1226 C 0.21547 0.80947 0.83797
 C1227 C 0.19998 0.79615 0.85780
 C1228 C 0.19287 0.80897 0.88248
 C1229 C 0.19287 0.76999 0.85294
 C1230 C 0.20173 0.75711 0.82909
 C1231 C 0.21827 0.77000 0.80990
 C1232 C 0.22505 0.79623 0.81493
 H1233 H 0.18619 0.83688 0.92926
 H1234 H 0.23442 0.88483 0.85510
 H1235 H 0.22768 0.90557 0.90042
 H1236 H 0.23382 0.84589 0.82631
 H1237 H 0.18180 0.79855 0.89828
 H1238 H 0.18102 0.75933 0.86788
 H1239 H 0.19658 0.73678 0.82641
 H1240 H 0.23891 0.80639 0.80165
 C1241 C 0.27074 0.81782 0.07598
 C1242 C 0.26413 0.79918 0.09588
 C1243 C 0.23835 0.79668 0.10584
 C1244 C 0.21962 0.81230 0.09568
 C1245 C 0.22632 0.83093 0.07628
 C1246 C 0.25199 0.83436 0.06609
 C1247 C 0.23173 0.77929 0.12665
 C1248 C 0.25074 0.76504 0.13853
 C1249 C 0.27642 0.76659 0.12831
 C1250 C 0.28294 0.78343 0.10655
 C1251 C 0.29508 0.75209 0.14097
 C1252 C 0.28889 0.73872 0.16540
 C1253 C 0.26415 0.74021 0.17761
 C1254 C 0.24465 0.75094 0.16208
 H1255 H 0.29041 0.81887 0.06799
 H1256 H 0.19982 0.81064 0.10337
 H1257 H 0.21128 0.84340 0.07050
 H1258 H 0.21202 0.77798 0.13474
 H1259 H 0.30277 0.78516 0.09891
 H1260 H 0.31476 0.75228 0.13294
 H1261 H 0.30399 0.72925 0.17588
 H1262 H 0.22473 0.75034 0.16938
 C1263 C 0.77406 0.32974 0.58400
 C1264 C 0.77014 0.30805 0.60094
 C1265 C 0.74449 0.29865 0.60675
 C1266 C 0.72343 0.31176 0.59773
 C1267 C 0.72746 0.33380 0.58239
 C1268 C 0.75259 0.34249 0.57416
 C1269 C 0.73998 0.27694 0.62272
 C1270 C 0.76050 0.26599 0.63574
 C1271 C 0.78619 0.27559 0.63143
 C1272 C 0.79107 0.29593 0.61285
 C1273 C 0.80597 0.26546 0.64708
 C1274 C 0.79956 0.24909 0.66935
 C1275 C 0.77342 0.24268 0.67584
 C1276 C 0.75493 0.24775 0.65580
 H1277 H 0.79358 0.33638 0.57829
 H1278 H 0.70374 0.30525 0.60303
 H1279 H 0.71059 0.34387 0.57663
 H1280 H 0.72020 0.26993 0.62700
 H1281 H 0.81079 0.30331 0.60909
 H1282 H 0.82604 0.27175 0.64363
 H1283 H 0.81487 0.24290 0.68222
 H1284 H 0.73486 0.24104 0.65842
 C1285 C 0.22050 0.18105 0.56847
 C1286 C 0.22208 0.20300 0.58609
 C1287 C 0.24652 0.21588 0.59038
 C1288 C 0.26870 0.20694 0.57744
 C1289 C 0.26715 0.18468 0.56111
 C1290 C 0.24318 0.17134 0.55626
 C1291 C 0.24892 0.23657 0.60902
 C1292 C 0.22772 0.24332 0.62526
 C1293 C 0.20299 0.23143 0.62090
 C1294 C 0.20008 0.21165 0.60056
 C1295 C 0.18227 0.23881 0.63811
 C1296 C 0.18708 0.25485 0.66163
 C1297 C 0.21268 0.26277 0.66851
 C1298 C 0.23191 0.25982 0.64783
 H1299 H 0.20177 0.17134 0.56484
 H1300 H 0.28755 0.21652 0.58097
 H1301 H 0.28511 0.17759 0.55305
 H1302 H 0.26789 0.24594 0.61264
 H1303 H 0.18125 0.20194 0.59737
 H1304 H 0.16276 0.23099 0.63440
 H1305 H 0.17115 0.25936 0.67534
 H1306 H 0.25146 0.26788 0.65065
 C1307 C 0.72762 0.66380 0.07322
 C1308 C 0.73582 0.68465 0.09043
 C1309 C 0.76168 0.68640 0.09975
 C1310 C 0.77883 0.66755 0.09179
 C1311 C 0.77039 0.64669 0.07512
 C1312 C 0.74472 0.64443 0.06583
 C1313 C 0.76979 0.70631 0.11792
 C1314 C 0.75198 0.72349 0.12840
 C1315 C 0.72626 0.72239 0.11889
 C1316 C 0.71844 0.70327 0.09928
 C1317 C 0.70866 0.73952 0.13049
 C1318 C 0.71567 0.75498 0.15373
 C1319 C 0.74024 0.75315 0.16554
 C1320 C 0.75907 0.73994 0.15037
 H1321 H 0.70789 0.66257 0.06574
 H1322 H 0.79863 0.66860 0.09905
 H1323 H 0.78386 0.63203 0.06992
 H1324 H 0.78953 0.70730 0.12544
 H1325 H 0.69857 0.70195 0.09220
 H1326 H 0.68897 0.73947 0.12305
 H1327 H 0.70108 0.76594 0.16419
 H1328 H 0.77890 0.73996 0.15732
 C1329 C 0.16033 0.55951 0.23553
 C1330 C 0.17590 0.58229 0.23231
 C1331 C 0.17953 0.59281 0.20569
 C1332 C 0.16945 0.57936 0.18255
 C1333 C 0.15452 0.55650 0.18583
 C1334 C 0.14869 0.54690 0.21239
 C1335 C 0.19264 0.61689 0.20267
 C1336 C 0.20273 0.63036 0.22588
 C1337 C 0.20093 0.61898 0.25217
 C1338 C 0.18725 0.59515 0.25532
 C1339 C 0.21271 0.63177 0.27488
 C1340 C 0.22495 0.65616 0.27185
 C1341 C 0.22436 0.66895 0.24649
 C1342 C 0.21419 0.65525 0.22324
 H1343 H 0.15626 0.55247 0.25616
 H1344 H 0.17266 0.58678 0.16192
 H1345 H 0.14688 0.54672 0.16745
 H1346 H 0.19458 0.62533 0.18235
 H1347 H 0.18511 0.58684 0.27568
 H1348 H 0.21245 0.62294 0.29501
 H1349 H 0.23461 0.66496 0.28960
 H1350 H 0.21452 0.66410 0.20313
 C1351 C 0.67385 0.05869 0.73284
 C1352 C 0.68530 0.08343 0.72926
 C1353 C 0.68959 0.09289 0.70233
 C1354 C 0.68405 0.07665 0.67942
 C1355 C 0.67359 0.05158 0.68317
 C1356 C 0.66755 0.04244 0.70990
 C1357 C 0.69924 0.11840 0.69881
 C1358 C 0.70564 0.13413 0.72198
 C1359 C 0.70308 0.12387 0.74880
 C1360 C 0.69236 0.09887 0.75233
 C1361 C 0.71176 0.13862 0.77169
 C1362 C 0.72222 0.16355 0.76818
 C1363 C 0.72232 0.17518 0.74212
 C1364 C 0.71479 0.15985 0.71884
 H1365 H 0.66910 0.05269 0.75369
 H1366 H 0.68779 0.08333 0.65859
 H1367 H 0.67003 0.03955 0.66495
 H1368 H 0.70187 0.12592 0.67814
 H1369 H 0.68975 0.09135 0.77302
 H1370 H 0.71096 0.13069 0.79228
 H1371 H 0.73030 0.17364 0.78610
 H1372 H 0.71607 0.16782 0.69830
 C1373 C 0.83683 0.08391 0.30580
 C1374 C 0.82248 0.10533 0.29909
 C1375 C 0.82791 0.11769 0.27371
 C1376 C 0.84635 0.10857 0.25526
 C1377 C 0.85943 0.08695 0.26136
 C1378 C 0.85499 0.07413 0.28651
 C1379 C 0.81477 0.13912 0.26671
 C1380 C 0.79544 0.14816 0.28405
 C1381 C 0.78866 0.13590 0.30891
 C1382 C 0.80264 0.11450 0.31669
 C1383 C 0.76836 0.14570 0.32521
 C1384 C 0.75545 0.16755 0.31676
 C1385 C 0.76288 0.18004 0.29208
 C1386 C 0.78322 0.16987 0.27645
 H1387 H 0.83294 0.07425 0.32518
 H1388 H 0.85063 0.11812 0.23587
 H1389 H 0.87399 0.08098 0.24660
 H1390 H 0.81946 0.14867 0.24736
 H1391 H 0.79801 0.10504 0.33604
 H1392 H 0.76264 0.13668 0.34450
 H1393 H 0.74030 0.17504 0.32981
 H1394 H 0.79102 0.17955 0.25846
 C1395 C 0.32063 0.57883 0.79057
 C1396 C 0.30880 0.60234 0.79423
 C1397 C 0.32087 0.62207 0.81083
 C1398 C 0.34357 0.61735 0.82495
 C1399 C 0.35503 0.59376 0.82160
 C1400 C 0.34440 0.57449 0.80344
 C1401 C 0.31064 0.64648 0.81219
 C1402 C 0.28861 0.65143 0.79691
 C1403 C 0.27552 0.63129 0.78182
 C1404 C 0.28560 0.60679 0.78069
 C1405 C 0.25306 0.63632 0.76734
 C1406 C 0.24521 0.66153 0.76560
 C1407 C 0.26031 0.68222 0.77739
 C1408 C 0.28034 0.67652 0.79528
 H1409 H 0.31124 0.56395 0.77761
 H1410 H 0.35302 0.63227 0.83781
 H1411 H 0.37338 0.59161 0.83164
 H1412 H 0.32051 0.66193 0.82404
 H1413 H 0.27600 0.59153 0.76837
 H1414 H 0.24231 0.62103 0.75623
 H1415 H 0.22863 0.66493 0.75296
 H1416 H 0.29014 0.69149 0.80732
 C1417 C 0.31593 0.45087 0.70904
 C1418 C 0.30452 0.42576 0.70781
 C1419 C 0.31423 0.40766 0.68869
 C1420 C 0.33487 0.41502 0.67097
 C1421 C 0.34684 0.43968 0.67318
 C1422 C 0.33799 0.45777 0.69268
 C1423 C 0.30379 0.38226 0.68820
 C1424 C 0.28428 0.37448 0.70717
 C1425 C 0.27448 0.39245 0.72634
 C1426 C 0.28440 0.41814 0.72628
 C1427 C 0.25524 0.38425 0.74549
 C1428 C 0.24616 0.35839 0.74591
 C1429 C 0.25618 0.34023 0.72723
 C1430 C 0.27487 0.34878 0.70754
 H1431 H 0.30825 0.46468 0.72364
 H1432 H 0.34256 0.40131 0.65624
 H1433 H 0.36388 0.44400 0.66054
 H1434 H 0.31141 0.36832 0.67365
 H1435 H 0.27706 0.43196 0.74114
 H1436 H 0.24746 0.39775 0.76037
 H1437 H 0.23161 0.35256 0.76118
 H1438 H 0.28243 0.33545 0.69242
 C1439 C 0.85488 0.92556 0.23814
 C1440 C 0.83699 0.90490 0.23228
 C1441 C 0.83599 0.89392 0.20536
 C1442 C 0.85218 0.90397 0.18465
 C1443 C 0.86887 0.92519 0.19010
 C1444 C 0.87095 0.93674 0.21700
 C1445 C 0.81884 0.87298 0.19937
 C1446 C 0.80257 0.86268 0.22007
 C1447 C 0.80260 0.87408 0.24685
 C1448 C 0.81988 0.89515 0.25287
 C1449 C 0.78588 0.86361 0.26725
 C1450 C 0.77148 0.84056 0.26193
 C1451 C 0.77397 0.82745 0.23634
 C1452 C 0.78762 0.84003 0.21474
 H1453 H 0.85568 0.93253 0.25930
 H1454 H 0.85143 0.89585 0.16380
 H1455 H 0.87901 0.93256 0.17213
 H1456 H 0.81860 0.86431 0.17874
 H1457 H 0.82027 0.90365 0.27356
 H1458 H 0.78478 0.87261 0.28763
 H1459 H 0.75941 0.83252 0.27831
 H1460 H 0.78890 0.83100 0.19439
 C1461 C 0.69079 0.91310 0.79277
 C1462 C 0.70233 0.88927 0.79336
 C1463 C 0.69232 0.87011 0.81146
 C1464 C 0.67117 0.87516 0.82877
 C1465 C 0.65911 0.89847 0.82718
 C1466 C 0.66838 0.91763 0.80881
 C1467 C 0.70274 0.84579 0.81104
 C1468 C 0.72200 0.83986 0.79158
 C1469 C 0.73220 0.85895 0.77355
 C1470 C 0.72280 0.88380 0.77507
 C1471 C 0.75079 0.85246 0.75352
 C1472 C 0.75763 0.82690 0.75001
 C1473 C 0.74620 0.80742 0.76671
 C1474 C 0.72994 0.81463 0.78876
 H1475 H 0.69879 0.92771 0.77901
 H1476 H 0.66317 0.86060 0.84262
 H1477 H 0.64178 0.90081 0.83956
 H1478 H 0.69481 0.83102 0.82473
 H1479 H 0.73042 0.89842 0.76104
 H1480 H 0.75903 0.86688 0.73964
 H1481 H 0.77076 0.82224 0.73323
 H1482 H 0.72227 0.80042 0.80298
 C1483 C 0.15610 0.40519 0.27600
 C1484 C 0.16807 0.38149 0.27690
 C1485 C 0.15762 0.36191 0.29425
 C1486 C 0.13489 0.36585 0.30939
 C1487 C 0.12253 0.38894 0.30750
 C1488 C 0.13311 0.40928 0.29131
 C1489 C 0.16969 0.33847 0.29578
 C1490 C 0.19138 0.33375 0.27909
 C1491 C 0.20133 0.35283 0.26091
 C1492 C 0.19003 0.37684 0.26040
 C1493 C 0.22213 0.34732 0.24322
 C1494 C 0.23213 0.32282 0.24269
 C1495 C 0.22199 0.30340 0.26035
 C1496 C 0.20261 0.30979 0.27958
 H1497 H 0.16487 0.42035 0.26344
 H1498 H 0.12632 0.35082 0.32233
 H1499 H 0.10436 0.39048 0.31859
 H1500 H 0.16168 0.32357 0.30927
 H1501 H 0.19787 0.39160 0.24667
 H1502 H 0.23009 0.36168 0.22911
 H1503 H 0.24738 0.31901 0.22786
 H1504 H 0.19571 0.29610 0.29464
 C1505 C 0.07078 0.27350 0.81035
 C1506 C 0.09125 0.27618 0.79112
 C1507 C 0.09521 0.29907 0.77604
 C1508 C 0.07797 0.31880 0.78023
 C1509 C 0.05775 0.31614 0.79980
 C1510 C 0.05414 0.29356 0.81533
 C1511 C 0.11679 0.30207 0.75789
 C1512 C 0.13497 0.28282 0.75568
 C1513 C 0.13046 0.26003 0.77091
 C1514 C 0.10847 0.25660 0.78781
 C1515 C 0.14888 0.24155 0.77077
 C1516 C 0.17225 0.24595 0.75701
 C1517 C 0.17753 0.26806 0.74086
 C1518 C 0.15829 0.28642 0.74007
 H1519 H 0.06854 0.25614 0.82237
 H1520 H 0.08044 0.33650 0.76885
 H1521 H 0.04495 0.33180 0.80283
 H1522 H 0.12002 0.31975 0.74655
 H1523 H 0.10549 0.23913 0.79958
 H1524 H 0.14603 0.22438 0.78302
 H1525 H 0.18675 0.23227 0.76064
 H1526 H 0.16220 0.30419 0.72911
 C1527 C 0.58609 0.77528 0.29000
 C1528 C 0.60702 0.77604 0.27118
 C1529 C 0.61661 0.79980 0.26042
 C1530 C 0.60441 0.82238 0.26815
 C1531 C 0.58414 0.82157 0.28771
 C1532 C 0.57520 0.79809 0.29927
 C1533 C 0.63914 0.80073 0.24362
 C1534 C 0.65315 0.77849 0.23918
 C1535 C 0.64318 0.75487 0.24994
 C1536 C 0.61973 0.75359 0.26480
 C1537 C 0.65801 0.73331 0.24831
 C1538 C 0.68344 0.73559 0.23872
 C1539 C 0.69413 0.75868 0.22740
 C1540 C 0.67805 0.77988 0.22666
 H1541 H 0.57955 0.75713 0.29902
 H1542 H 0.61131 0.84079 0.26008
 H1543 H 0.57581 0.83939 0.29432
 H1544 H 0.64680 0.81904 0.23587
 H1545 H 0.61256 0.73545 0.27342
 H1546 H 0.65094 0.71527 0.25720
 H1547 H 0.69512 0.71959 0.24281
 H1548 H 0.68594 0.79826 0.21937
 C1549 C 0.57593 0.22741 0.20128
 C1550 C 0.59966 0.23566 0.21333
 C1551 C 0.61703 0.25238 0.19848
 C1552 C 0.60987 0.26178 0.17287
 C1553 C 0.58616 0.25382 0.16132
 C1554 C 0.56939 0.23614 0.17503
 C1555 C 0.64171 0.25865 0.20884
 C1556 C 0.64942 0.24838 0.23378
 C1557 C 0.63173 0.23319 0.24976
 C1558 C 0.60680 0.22686 0.23941
 C1559 C 0.63983 0.22366 0.27508
 C1560 C 0.66569 0.22766 0.28341
 C1561 C 0.68391 0.24111 0.26646
 C1562 C 0.67516 0.25190 0.24198
 H1563 H 0.56284 0.21384 0.21190
 H1564 H 0.62294 0.27473 0.16141
 H1565 H 0.58134 0.26062 0.14107
 H1566 H 0.65531 0.27071 0.19692
 H1567 H 0.59340 0.21440 0.25109
 H1568 H 0.62648 0.21221 0.28786
 H1569 H 0.67168 0.21890 0.30225
 H1570 H 0.68873 0.26181 0.22809
 C1571 C 0.08362 0.73741 0.67676
 C1572 C 0.10776 0.74406 0.68885
 C1573 C 0.12681 0.75855 0.67368
 C1574 C 0.12089 0.76721 0.64726
 C1575 C 0.09671 0.76073 0.63553
 C1576 C 0.07816 0.74540 0.64992
 C1577 C 0.15166 0.76346 0.68478
 C1578 C 0.15776 0.75394 0.71080
 C1579 C 0.13830 0.74068 0.72655
 C1580 C 0.11344 0.73582 0.71551
 C1581 C 0.14429 0.73171 0.75275
 C1582 C 0.16962 0.73442 0.76259
 C1583 C 0.18966 0.74609 0.74646
 C1584 C 0.18326 0.75655 0.72083
 H1585 H 0.06927 0.72556 0.68790
 H1586 H 0.13517 0.77845 0.63538
 H1587 H 0.09282 0.76687 0.61477
 H1588 H 0.16643 0.77403 0.67283
 H1589 H 0.09876 0.72497 0.72732
 H1590 H 0.12953 0.72182 0.76529
 H1591 H 0.17362 0.72629 0.78241
 H1592 H 0.19826 0.76586 0.70812
 C1593 C 0.91540 0.75141 0.65947
 C1594 C 0.89030 0.74628 0.67066
 C1595 C 0.86858 0.74676 0.65319
 C1596 C 0.87198 0.75325 0.62542
 C1597 C 0.89658 0.75992 0.61498
 C1598 C 0.91873 0.75912 0.63165
 C1599 C 0.84358 0.74176 0.66388
 C1600 C 0.83962 0.73821 0.69229
 C1601 C 0.86099 0.73874 0.71022
 C1602 C 0.88634 0.74190 0.69917
 C1603 C 0.85642 0.73739 0.73891
 C1604 C 0.83100 0.73678 0.74964
 C1605 C 0.80953 0.73584 0.73188
 C1606 C 0.81437 0.73586 0.70306
 H1607 H 0.93203 0.75118 0.67290
 H1608 H 0.85547 0.75385 0.61186
 H1609 H 0.89828 0.76493 0.59335
 H1610 H 0.82705 0.74200 0.65026
 H1611 H 0.90283 0.74220 0.71287
 H1612 H 0.87251 0.73818 0.75313
 H1613 H 0.82824 0.73790 0.77186
 H1614 H 0.79846 0.73570 0.68867
 C1615 C 0.40883 0.25331 0.16900
 C1616 C 0.38332 0.24976 0.17907
 C1617 C 0.36268 0.24695 0.16009
 C1618 C 0.36781 0.24804 0.13154
 C1619 C 0.39317 0.25238 0.12179
 C1620 C 0.41377 0.25498 0.14040
 C1621 C 0.33718 0.24370 0.16993
 C1622 C 0.33190 0.24417 0.19846
 C1623 C 0.35233 0.24739 0.21753
 C1624 C 0.37805 0.24968 0.20772
 C1625 C 0.34656 0.24893 0.24600
 C1626 C 0.32075 0.24772 0.25539
 C1627 C 0.30030 0.24416 0.23654
 C1628 C 0.30629 0.24219 0.20803
 H1629 H 0.42479 0.25553 0.18336
 H1630 H 0.35217 0.24600 0.11678
 H1631 H 0.39679 0.25362 0.09970
 H1632 H 0.32138 0.24148 0.15534
 H1633 H 0.39386 0.25211 0.22228
 H1634 H 0.36197 0.25160 0.26094
 H1635 H 0.31687 0.24964 0.27736
 H1636 H 0.29105 0.23989 0.19285
 C1637 C 0.42038 0.73221 0.29482
 C1638 C 0.39732 0.73749 0.28126
 C1639 C 0.38532 0.76082 0.28737
 C1640 C 0.39727 0.77913 0.30535
 C1641 C 0.42028 0.77391 0.31834
 C1642 C 0.43165 0.75027 0.31374
 C1643 C 0.36104 0.76511 0.27634
 C1644 C 0.34846 0.74635 0.25937
 C1645 C 0.36112 0.72392 0.25145
 C1646 C 0.38559 0.71960 0.26243
 C1647 C 0.34839 0.70562 0.23393
 C1648 C 0.32263 0.70851 0.22630
 C1649 C 0.30908 0.72976 0.23606
 C1650 C 0.32271 0.74901 0.25183
 H1651 H 0.42928 0.71402 0.29112
 H1652 H 0.38848 0.79722 0.30991
 H1653 H 0.42878 0.78799 0.33285
 H1654 H 0.35145 0.78257 0.28193
 H1655 H 0.39496 0.70194 0.25721
 H1656 H 0.35790 0.68846 0.22723
 H1657 H 0.31288 0.69322 0.21425
 H1658 H 0.31277 0.76522 0.26036
 C1659 C 0.90819 0.21398 0.81759
 C1660 C 0.88541 0.22120 0.80487
 C1661 C 0.86943 0.23871 0.81883
 C1662 C 0.87582 0.24793 0.84544
 C1663 C 0.89832 0.24057 0.85790
 C1664 C 0.91475 0.22392 0.84399
 C1665 C 0.84738 0.24696 0.80598
 C1666 C 0.84038 0.23725 0.77976
 C1667 C 0.85564 0.21915 0.76598
 C1668 C 0.87845 0.21160 0.77838
 C1669 C 0.84724 0.20838 0.74052
 C1670 C 0.82320 0.21431 0.72983
 C1671 C 0.80768 0.23194 0.74383
 C1672 C 0.81738 0.24438 0.76801
 H1673 H 0.92127 0.20157 0.80666
 H1674 H 0.86373 0.26131 0.85635
 H1675 H 0.90360 0.24878 0.87797
 H1676 H 0.83526 0.26047 0.81673
 H1677 H 0.89044 0.19794 0.76773
 H1678 H 0.85854 0.19430 0.72966
 H1679 H 0.81626 0.20418 0.71136
 H1680 H 0.80614 0.25831 0.77915
 C1681 C 0.60812 0.97299 0.65203
 C1682 C 0.58989 0.96682 0.63141
 C1683 C 0.56317 0.96617 0.63809
 C1684 C 0.55530 0.96843 0.66589
 C1685 C 0.57373 0.97298 0.68665
 C1686 C 0.60018 0.97680 0.67971
 C1687 C 0.54490 0.96445 0.61677
 C1688 C 0.55320 0.96283 0.58903
 C1689 C 0.57968 0.95994 0.58285
 C1690 C 0.59795 0.96221 0.60403
 C1691 C 0.58755 0.95631 0.55532
 C1692 C 0.57013 0.95943 0.53398
 C1693 C 0.54513 0.96766 0.53969
 C1694 C 0.53596 0.96630 0.56734
 H1695 H 0.62856 0.97479 0.64659
 H1696 H 0.53491 0.96740 0.67150
 H1697 H 0.56703 0.97564 0.70780
 H1698 H 0.52445 0.96571 0.62166
 H1699 H 0.61845 0.96168 0.59905
 H1700 H 0.60748 0.95250 0.55020
 H1701 H 0.57711 0.95700 0.51322
 H1702 H 0.51622 0.97091 0.57240
 C1703 C 0.06150 0.48425 1.16218
 C1704 C 0.04570 0.48758 1.13914
 C1705 C 0.03325 0.51099 1.13640
 C1706 C 0.03518 0.52979 1.15754
 C1707 C 0.05131 0.52655 1.17996
 C1708 C 0.06537 0.50432 1.18184
 C1709 C 0.02074 0.51612 1.11175
 C1710 C 0.02124 0.49854 1.08942
 C1711 C 0.03186 0.47437 1.09272
 C1712 C 0.04377 0.46884 1.11777
 C1713 C 0.03176 0.45683 1.07029
 C1714 C 0.02376 0.46421 1.04416
 C1715 C 0.01617 0.48939 1.03988
 C1716 C 0.01319 0.50571 1.06326
 H1717 H 0.07254 0.46717 1.16351
 H1718 H 0.02554 0.54769 1.15588
 H1719 H 0.05405 0.54210 1.19508
 H1720 H 0.01225 0.53456 1.10926
 H1721 H 0.05293 0.45072 1.11992
 H1722 H 0.03913 0.43789 1.07257
 H1723 H 0.02499 0.45054 1.02732
 H1724 H 0.00666 0.52499 1.06090
 C1725 C -0.09024 -0.00106 1.15076
 C1726 C -0.08093 0.00756 1.12520
 C1727 C -0.05841 0.02401 1.12377
 C1728 C -0.04711 0.03352 1.14855
 C1729 C -0.05708 0.02535 1.17434
 C1730 C -0.07789 0.00674 1.17564
 C1731 C -0.04730 0.02984 1.09768
 C1732 C -0.05878 0.01936 1.07332
 C1733 C -0.08264 0.00482 1.07522
 C1734 C -0.09353 -0.00095 1.10104
 C1735 C -0.09444 -0.00546 1.05138
 C1736 C -0.08145 -0.00393 1.02615
 C1737 C -0.05675 0.00863 1.02376
 C1738 C -0.04612 0.02156 1.04739
 H1739 H -0.10749 -0.01389 1.15118
 H1740 H -0.03021 0.04674 1.14796
 H1741 H -0.04739 0.03233 1.19299
 H1742 H -0.02931 0.04151 1.09642
 H1743 H -0.11106 -0.01336 1.10233
 H1744 H -0.11293 -0.01635 1.05250
 H1745 H -0.09006 -0.01481 1.00930
 H1746 H -0.02711 0.03139 1.04623
 C1747 C 0.39859 0.53031 0.63831
 C1748 C 0.41721 0.53987 0.61898
 C1749 C 0.44365 0.54206 0.62634
 C1750 C 0.45077 0.53708 0.65346
 C1751 C 0.43207 0.52918 0.67299
 C1752 C 0.40585 0.52481 0.66558
 C1753 C 0.46265 0.54856 0.60632
 C1754 C 0.45554 0.55358 0.57913
 C1755 C 0.42906 0.55428 0.57251
 C1756 C 0.40999 0.54709 0.59235
 C1757 C 0.42230 0.56125 0.54578
 C1758 C 0.44134 0.56390 0.52499
 C1759 C 0.46712 0.55818 0.53012
 C1760 C 0.47441 0.55601 0.55803
 H1761 H 0.37842 0.52794 0.63240
 H1762 H 0.47091 0.53903 0.65955
 H1763 H 0.43855 0.52488 0.69354
 H1764 H 0.48300 0.54882 0.61167
 H1765 H 0.38968 0.54639 0.58684
 H1766 H 0.40220 0.56347 0.54060
 H1767 H 0.43537 0.56892 0.50469
 H1768 H 0.49443 0.55312 0.56302
 C1769 C 0.39676 0.50087 -0.14592
 C1770 C 0.41311 0.49299 -0.12509
 C1771 C 0.44029 0.49488 -0.12926
 C1772 C 0.45056 0.50323 -0.15474
 C1773 C 0.43411 0.51085 -0.17544
 C1774 C 0.40722 0.51041 -0.17086
 C1775 C 0.45676 0.48946 -0.10752
 C1776 C 0.44639 0.48274 -0.08152
 C1777 C 0.41928 0.47947 -0.07785
 C1778 C 0.40277 0.48429 -0.09976
 C1779 C 0.40912 0.47272 -0.05186
 C1780 C 0.42541 0.47205 -0.02907
 C1781 C 0.45222 0.47791 -0.03174
 C1782 C 0.46265 0.48117 -0.05867
 H1783 H 0.37595 0.50019 -0.14256
 H1784 H 0.47131 0.50456 -0.15837
 H1785 H 0.44242 0.51802 -0.19466
 H1786 H 0.47760 0.49181 -0.11040
 H1787 H 0.38193 0.48253 -0.09666
 H1788 H 0.38843 0.46927 -0.04881
 H1789 H 0.41656 0.46756 -0.00945
 H1790 H 0.48331 0.48494 -0.06164
 C1791 C -0.07919 1.00675 0.35862
 C1792 C -0.06131 1.00747 0.38041
 C1793 C -0.04903 1.03133 0.38858
 C1794 C -0.05532 1.05400 0.37574
 C1795 C -0.07331 1.05315 0.35452
 C1796 C -0.08520 1.02961 0.34553
 C1797 C -0.03088 1.03235 0.40976
 C1798 C -0.02577 1.01010 0.42406
 C1799 C -0.03820 0.98626 0.41660
 C1800 C -0.05558 0.98494 0.39432
 C1801 C -0.03365 0.96452 0.43230
 C1802 C -0.01894 0.96704 0.45657
 C1803 C -0.00809 0.99117 0.46519
 C1804 C -0.00988 1.01202 0.44717
 H1805 H -0.08837 0.98854 0.35181
 H1806 H -0.04623 1.07242 0.38202
 H1807 H -0.07727 1.07091 0.34444
 H1808 H -0.02150 1.05072 0.41589
 H1809 H -0.06524 0.96666 0.38847
 H1810 H -0.04264 0.94590 0.42670
 H1811 H -0.01727 0.95039 0.46909
 H1812 H -0.00118 1.03085 0.45243
 C1813 C 0.07280 0.49064 0.35112
 C1814 C 0.05459 0.49388 0.37273
 C1815 C 0.03301 0.47610 0.37506
 C1816 C 0.02978 0.45570 0.35583
 C1817 C 0.04827 0.45224 0.33504
 C1818 C 0.06996 0.46942 0.33267
 C1819 C 0.01565 0.47809 0.39737
 C1820 C 0.02037 0.49661 0.41840
 C1821 C 0.04150 0.51476 0.41606
 C1822 C 0.05815 0.51374 0.39280
 C1823 C 0.04647 0.53249 0.43791
 C1824 C 0.03262 0.53018 0.46297
 C1825 C 0.01331 0.51035 0.46647
 C1826 C 0.00571 0.49543 0.44294
 H1827 H 0.08964 0.50385 0.34933
 H1828 H 0.01338 0.44193 0.35739
 H1829 H 0.04580 0.43593 0.32082
 H1830 H -0.00052 0.46406 0.39934
 H1831 H 0.07469 0.52736 0.39120
 H1832 H 0.06234 0.54687 0.43643
 H1833 H 0.03862 0.54257 0.48021
 H1834 H -0.00975 0.48064 0.44444
 C1835 C 0.60604 -0.00816 -0.13540
 C1836 C 0.58628 -0.00321 -0.11597
 C1837 C 0.56077 -0.01348 -0.12080
 C1838 C 0.55518 -0.02757 -0.14520
 C1839 C 0.57479 -0.03215 -0.16440
 C1840 C 0.60031 -0.02291 -0.15947
 C1841 C 0.54138 -0.01044 -0.10075
 C1842 C 0.54718 0.00216 -0.07555
 C1843 C 0.57214 0.01371 -0.07109
 C1844 C 0.59159 0.01116 -0.09148
 C1845 C 0.57734 0.02658 -0.04578
 C1846 C 0.55902 0.02533 -0.02413
 C1847 C 0.53549 0.01070 -0.02723
 C1848 C 0.52888 0.00145 -0.05398
 H1849 H 0.62579 -0.00092 -0.13176
 H1850 H 0.53572 -0.03548 -0.14917
 H1851 H 0.57018 -0.04345 -0.18295
 H1852 H 0.52208 -0.01907 -0.10419
 H1853 H 0.61101 0.01934 -0.08780
 H1854 H 0.59605 0.03639 -0.04219
 H1855 H 0.56406 0.03447 -0.00454
 H1856 H 0.51031 -0.00859 -0.05764
 C1857 C 0.66334 0.56318 0.01782
 C1858 C 0.63657 0.55715 0.01668
 C1859 C 0.61929 0.57357 0.03016
 C1860 C 0.62878 0.59568 0.04420
 C1861 C 0.65523 0.60189 0.04472
 C1862 C 0.67321 0.58585 0.03162
 C1863 C 0.59268 0.56775 0.02940
 C1864 C 0.58298 0.54574 0.01521
 C1865 C 0.59991 0.52927 0.00136
 C1866 C 0.62675 0.53505 0.00221
 C1867 C 0.58957 0.50715 -0.01253
 C1868 C 0.56281 0.50100 -0.01167
 C1869 C 0.54599 0.51701 0.00291
 C1870 C 0.55648 0.53967 0.01562
 H1871 H 0.67622 0.54972 0.00838
 H1872 H 0.61565 0.60859 0.05431
 H1873 H 0.66103 0.62018 0.05434
 H1874 H 0.57949 0.58029 0.04005
 H1875 H 0.63993 0.52239 -0.00823
 H1876 H 0.60221 0.49424 -0.02336
 H1877 H 0.55548 0.48325 -0.02151
 H1878 H 0.54427 0.55218 0.02743
 C1879 C 0.17603 1.09340 0.53789
 C1880 C 0.15397 1.07671 0.53729
 C1881 C 0.15568 1.05092 0.52810
 C1882 C 0.18014 1.04189 0.52140
 C1883 C 0.20236 1.05857 0.52283
 C1884 C 0.20048 1.08479 0.53037
 C1885 C 0.13288 1.03496 0.52538
 C1886 C 0.10860 1.04459 0.53233
 C1887 C 0.10764 1.07001 0.54313
 C1888 C 0.13011 1.08588 0.54527
 C1889 C 0.08412 1.07954 0.55141
 C1890 C 0.06144 1.06459 0.54805
 C1891 C 0.06119 1.03982 0.53569
 C1892 C 0.08524 1.02962 0.52849
 H1893 H 0.17368 1.11348 0.54312
 H1894 H 0.18208 1.02204 0.51484
 H1895 H 0.22090 1.05089 0.51766
 H1896 H 0.13399 1.01535 0.51760
 H1897 H 0.12898 1.10558 0.55287
 H1898 H 0.08316 1.09877 0.56030
 H1899 H 0.04406 1.07326 0.55479
 H1900 H 0.08582 1.01031 0.51974
 C1901 C 0.14935 -0.06465 0.98387
 C1902 C 0.12469 -0.05607 0.99056
 C1903 C 0.10765 -0.07106 1.00764
 C1904 C 0.11630 -0.09367 1.01905
 C1905 C 0.14104 -0.10200 1.01242
 C1906 C 0.15734 -0.08795 0.99410
 C1907 C 0.08206 -0.06366 1.01218
 C1908 C 0.07334 -0.04160 0.99959
 C1909 C 0.09113 -0.02584 0.98419
 C1910 C 0.11658 -0.03315 0.97970
 C1911 C 0.08305 -0.00326 0.97281
 C1912 C 0.05706 0.00236 0.97401
 C1913 C 0.03819 -0.01504 0.98557
 C1914 C 0.04697 -0.03564 1.00081
 H1915 H 0.16210 -0.05360 0.97004
 H1916 H 0.10370 -0.10530 1.03246
 H1917 H 0.14704 -0.11995 1.02066
 H1918 H 0.06881 -0.07555 1.02466
 H1919 H 0.12981 -0.02145 0.96693
 H1920 H 0.09674 0.00961 0.96209
 H1921 H 0.05193 0.02006 0.96467
 H1922 H 0.03318 -0.04814 1.01185
 C1923 C 0.64851 0.43579 0.50990
 C1924 C 0.62632 0.44938 0.51580
 C1925 C 0.60272 0.43574 0.52240
 C1926 C 0.60144 0.40881 0.52187
 C1927 C 0.62296 0.39546 0.51340
 C1928 C 0.64674 0.40874 0.50732
 C1929 C 0.58030 0.44912 0.52729
 C1930 C 0.58039 0.47547 0.52202
 C1931 C 0.60364 0.48902 0.51422
 C1932 C 0.62682 0.47619 0.51281
 C1933 C 0.60287 0.51465 0.50603
 C1934 C 0.57900 0.52554 0.50244
 C1935 C 0.55566 0.51134 0.50825
 C1936 C 0.55700 0.48768 0.52137
 H1937 H 0.66647 0.44635 0.50455
 H1938 H 0.58342 0.39808 0.52655
 H1939 H 0.62113 0.37464 0.51222
 H1940 H 0.56222 0.43861 0.53235
 H1941 H 0.64471 0.48660 0.50690
 H1942 H 0.62049 0.52552 0.50021
 H1943 H 0.57889 0.54454 0.49375
 H1944 H 0.53975 0.47765 0.52910
 C1945 C -0.17417 0.40978 0.53911
 C1946 C -0.15115 0.42495 0.53678
 C1947 C -0.15159 0.45081 0.52858
 C1948 C -0.17561 0.46115 0.52349
 C1949 C -0.19872 0.44589 0.52624
 C1950 C -0.19822 0.41994 0.53395
 C1951 C -0.12802 0.46557 0.52548
 C1952 C -0.10421 0.45463 0.53079
 C1953 C -0.10445 0.42887 0.53965
 C1954 C -0.12769 0.41426 0.54239
 C1955 C -0.08139 0.41776 0.54563
 C1956 C -0.05806 0.43166 0.54250
 C1957 C -0.05665 0.45706 0.53289
 C1958 C -0.08017 0.46864 0.52735
 H1959 H -0.17314 0.38971 0.54431
 H1960 H -0.17653 0.48098 0.51734
 H1961 H -0.21695 0.45446 0.52239
 H1962 H -0.12821 0.48535 0.51888
 H1963 H -0.12749 0.39442 0.54888
 H1964 H -0.08131 0.39811 0.55266
 H1965 H -0.04117 0.42173 0.54734
 H1966 H -0.07981 0.48829 0.52032
 C1967 C 0.32816 -0.08498 0.01325
 C1968 C 0.35482 -0.07745 0.01363
 C1969 C 0.37297 -0.09562 0.02072
 C1970 C 0.36459 -0.12103 0.02591
 C1971 C 0.33836 -0.12840 0.02506
 C1972 C 0.31968 -0.11038 0.01983
 C1973 C 0.39927 -0.08818 0.02271
 C1974 C 0.40801 -0.06290 0.01711
 C1975 C 0.39034 -0.04477 0.00911
 C1976 C 0.36371 -0.05207 0.00767
 C1977 C 0.39972 -0.01964 0.00307
 C1978 C 0.42630 -0.01271 0.00492
 C1979 C 0.44400 -0.03062 0.01331
 C1980 C 0.43428 -0.05560 0.01976
 H1981 H 0.31410 -0.07092 0.00882
 H1982 H 0.37832 -0.13523 0.03097
 H1983 H 0.33265 -0.14830 0.02912
 H1984 H 0.41298 -0.10211 0.02867
 H1985 H 0.34996 -0.03805 0.00208
 H1986 H 0.38649 -0.00532 -0.00294
 H1987 H 0.43286 0.00687 0.00039
 H1988 H 0.44683 -0.06947 0.02788
 C1989 C 0.35416 1.07382 0.49827
 C1990 C 0.37407 1.05704 0.50241
 C1991 C 0.37667 1.03572 0.48410
 C1992 C 0.35933 1.03144 0.46219
 C1993 C 0.34014 1.04870 0.45773
 C1994 C 0.33759 1.07005 0.47553
 C1995 C 0.39737 1.01980 0.48702
 C1996 C 0.41652 1.02595 0.50668
 C1997 C 0.41401 1.04706 0.52516
 C1998 C 0.39227 1.06203 0.52351
 C1999 C 0.43415 1.05376 0.54366
 C2000 C 0.45765 1.04152 0.54161
 C2001 C 0.46106 1.02210 0.52142
 C2002 C 0.43938 1.01283 0.50605
 H2003 H 0.35238 1.09057 0.51177
 H2004 H 0.36120 1.01527 0.44794
 H2005 H 0.32740 1.04558 0.44020
 H2006 H 0.39960 1.00376 0.47261
 H2007 H 0.39042 1.07848 0.53742
 H2008 H 0.43243 1.06962 0.55833
 H2009 H 0.47351 1.04835 0.55465
 H2010 H 0.44096 0.99718 0.49110
 C2011 C -0.15872 0.56908 0.94906
 C2012 C -0.13607 0.55586 0.95173
 C2013 C -0.13700 0.53070 0.96227
 C2014 C -0.16123 0.51898 0.96933
 C2015 C -0.18392 0.53252 0.96694
 C2016 C -0.18280 0.55787 0.95707
 C2017 C -0.11365 0.51832 0.96643
 C2018 C -0.08954 0.53142 0.96113
 C2019 C -0.08938 0.55659 0.95059
 C2020 C -0.11238 0.56828 0.94530
 C2021 C -0.06622 0.57068 0.94693
 C2022 C -0.04325 0.56039 0.95400
 C2023 C -0.04190 0.53527 0.96375
 C2024 C -0.06560 0.52058 0.96714
 H2025 H -0.15728 0.58882 0.94222
 H2026 H -0.16258 0.49969 0.97742
 H2027 H -0.20229 0.52333 0.97316
 H2028 H -0.11424 0.49912 0.97478
 H2029 H -0.11177 0.58769 0.93738
 H2030 H -0.06588 0.59036 0.93989
 H2031 H -0.02678 0.57340 0.95347
 H2032 H -0.06555 0.50134 0.97526
 C2033 C 0.01788 0.66324 0.58166
 C2034 C 0.01468 0.63667 0.57552
 C2035 C 0.01781 0.61886 0.59681
 C2036 C 0.02444 0.62769 0.62353
 C2037 C 0.02806 0.65399 0.62927
 C2038 C 0.02473 0.67199 0.60855
 C2039 C 0.01449 0.59244 0.59112
 C2040 C 0.00870 0.58339 0.56427
 C2041 C 0.00585 0.60084 0.54274
 C2042 C 0.00862 0.62751 0.54854
 C2043 C 0.00029 0.59115 0.51592
 C2044 C -0.00171 0.56445 0.51046
 C2045 C 0.00205 0.54694 0.53164
 C2046 C 0.00615 0.55694 0.55876
 H2047 H 0.01549 0.67708 0.56555
 H2048 H 0.02692 0.61424 0.64000
 H2049 H 0.03313 0.66036 0.65009
 H2050 H 0.01679 0.57887 0.60757
 H2051 H 0.00636 0.64107 0.53210
 H2052 H -0.00236 0.60422 0.49914
 H2053 H -0.00618 0.55759 0.48969
 H2054 H 0.00802 0.54419 0.57596
 C2055 C 0.52245 0.15612 0.09849
 C2056 C 0.52188 0.13022 0.08956
 C2057 C 0.52087 0.11066 0.10952
 C2058 C 0.52118 0.11718 0.13782
 C2059 C 0.52228 0.14293 0.14645
 C2060 C 0.52265 0.16250 0.12695
 C2061 C 0.51938 0.08485 0.10096
 C2062 C 0.51910 0.07820 0.07273
 C2063 C 0.52104 0.09744 0.05260
 C2064 C 0.52229 0.12350 0.06115
 C2065 C 0.52122 0.09013 0.02439
 C2066 C 0.51897 0.06400 0.01632
 C2067 C 0.51662 0.04475 0.03634
 C2068 C 0.51650 0.05238 0.06454
 H2069 H 0.52303 0.17132 0.08344
 H2070 H 0.52055 0.10236 0.15329
 H2071 H 0.52248 0.14763 0.16841
 H2072 H 0.51825 0.06989 0.11632
 H2073 H 0.52338 0.13845 0.04581
 H2074 H 0.52275 0.10462 0.00858
 H2075 H 0.51847 0.05896 -0.00551
 H2076 H 0.51429 0.03825 0.08064
 C2077 C -0.03956 0.16471 0.91831
 C2078 C -0.03247 0.14264 0.93231
 C2079 C -0.00716 0.13395 0.92841
 C2080 C 0.01080 0.14765 0.91172
 C2081 C 0.00364 0.16933 0.89793
 C2082 C -0.02159 0.17799 0.90068
 C2083 C -0.00037 0.11101 0.94018
 C2084 C -0.01870 0.09611 0.95520
 C2085 C -0.04346 0.10524 0.96093
 C2086 C -0.05026 0.12866 0.94948
 C2087 C -0.06112 0.09007 0.97691
 C2088 C -0.05526 0.06498 0.98416
 C2089 C -0.03201 0.05455 0.97481
 C2090 C -0.01303 0.07128 0.96261
 H2091 H -0.05900 0.17133 0.92090
 H2092 H 0.03027 0.14118 0.90873
 H2093 H 0.01776 0.17889 0.88435
 H2094 H 0.01881 0.10402 0.93634
 H2095 H -0.06961 0.13533 0.95286
 H2096 H -0.07993 0.09704 0.98253
 H2097 H -0.06986 0.05310 0.99487
 H2098 H 0.00577 0.06459 0.95664
 C2099 C 0.49169 0.69086 0.40123
 C2100 C 0.48930 0.67108 0.42059
 C2101 C 0.46452 0.66217 0.43010
 C2102 C 0.44260 0.67416 0.42096
 C2103 C 0.44513 0.69406 0.40186
 C2104 C 0.46965 0.70233 0.39121
 C2105 C 0.46208 0.64098 0.44783
 C2106 C 0.48418 0.62832 0.45567
 C2107 C 0.50894 0.63813 0.44702
 C2108 C 0.51137 0.65953 0.42988
 C2109 C 0.53096 0.62567 0.45460
 C2110 C 0.52843 0.60210 0.46767
 C2111 C 0.50377 0.59038 0.47376
 C2112 C 0.48193 0.60509 0.47032
 H2113 H 0.51076 0.69660 0.39326
 H2114 H 0.42344 0.66795 0.42834
 H2115 H 0.42776 0.70294 0.39548
 H2116 H 0.44301 0.63362 0.45439
 H2117 H 0.53042 0.66649 0.42279
 H2118 H 0.55015 0.63337 0.44893
 H2119 H 0.54609 0.59254 0.47152
 H2120 H 0.46301 0.59759 0.47692
 C2121 C 0.52474 0.84456 0.40237
 C2122 C 0.52723 0.86496 0.42169
 C2123 C 0.55208 0.87394 0.43069
 C2124 C 0.57403 0.86190 0.42051
 C2125 C 0.57139 0.84175 0.40094
 C2126 C 0.54676 0.83314 0.39140
 C2127 C 0.55459 0.89539 0.44882
 C2128 C 0.53261 0.90858 0.45697
 C2129 C 0.50783 0.89926 0.44814
 C2130 C 0.50523 0.87722 0.43113
 C2131 C 0.48605 0.91276 0.45548
 C2132 C 0.48894 0.93640 0.46941
 C2133 C 0.51368 0.94696 0.47692
 C2134 C 0.53512 0.93173 0.47246
 H2135 H 0.50568 0.83844 0.39483
 H2136 H 0.59325 0.86849 0.42714
 H2137 H 0.58865 0.83304 0.39304
 H2138 H 0.57367 0.90257 0.45540
 H2139 H 0.48617 0.87033 0.42417
 H2140 H 0.46685 0.90565 0.44933
 H2141 H 0.47155 0.94659 0.47355
 H2142 H 0.55402 0.93831 0.47951
 C2143 C 0.02098 0.34629 0.90788
 C2144 C 0.01514 0.36874 0.92271
 C2145 C -0.00981 0.37852 0.92077
 C2146 C -0.02883 0.36501 0.90497
 C2147 C -0.02294 0.34246 0.89056
 C2148 C 0.00211 0.33331 0.89150
 C2149 C -0.01510 0.40193 0.93408
 C2150 C 0.00430 0.41571 0.94915
 C2151 C 0.02880 0.40528 0.95201
 C2152 C 0.03405 0.38183 0.93891
 C2153 C 0.04797 0.41885 0.96727
 C2154 C 0.04366 0.44335 0.97790
 C2155 C 0.02008 0.45506 0.97362
 C2156 C -0.00001 0.44029 0.96031
 H2157 H 0.04022 0.33898 0.90886
 H2158 H -0.04811 0.37207 0.90342
 H2159 H -0.03772 0.33250 0.87806
 H2160 H -0.03401 0.40977 0.93201
 H2161 H 0.05308 0.37416 0.94068
 H2162 H 0.06667 0.41086 0.97029
 H2163 H 0.05912 0.45273 0.98939
 H2164 H -0.01861 0.44842 0.95713
 C2165 C 0.46634 0.32489 0.07510
 C2166 C 0.47366 0.34937 0.06486
 C2167 C 0.49537 0.36332 0.07629
 C2168 C 0.50959 0.35264 0.09721
 C2169 C 0.50226 0.32843 0.10717
 C2170 C 0.48061 0.31433 0.09638
 C2171 C 0.50229 0.38804 0.06716
 C2172 C 0.48764 0.39932 0.04700
 C2173 C 0.46638 0.38542 0.03485
 C2174 C 0.45953 0.36037 0.04377
 C2175 C 0.45205 0.39722 0.01459
 C2176 C 0.45795 0.42293 0.00763
 C2177 C 0.47807 0.43742 0.02102
 C2178 C 0.49343 0.42483 0.03987
 H2179 H 0.44966 0.31409 0.06660
 H2180 H 0.52618 0.36320 0.10619
 H2181 H 0.51326 0.32093 0.12386
 H2182 H 0.51870 0.39881 0.07633
 H2183 H 0.44296 0.34974 0.03481
 H2184 H 0.43576 0.38687 0.00482
 H2185 H 0.44583 0.43162 -0.00709
 H2186 H 0.50924 0.43519 0.05045
 C2187 C -0.00588 0.83233 0.56699
 C2188 C -0.00583 0.85515 0.55177
 C2189 C -0.02891 0.86232 0.53927
 C2190 C -0.05095 0.84555 0.54009
 C2191 C -0.05064 0.82260 0.55451
 C2192 C -0.02862 0.81623 0.56940
 C2193 C -0.02985 0.88647 0.52694
 C2194 C -0.00792 0.90355 0.52690
 C2195 C 0.01570 0.89553 0.53729
 C2196 C 0.01663 0.87142 0.54971
 C2197 C 0.03776 0.91225 0.53611
 C2198 C 0.03580 0.93754 0.52756
 C2199 C 0.01162 0.94697 0.52053
 C2200 C -0.00965 0.92902 0.51817
 H2201 H 0.01140 0.82790 0.57802
 H2202 H -0.06862 0.85039 0.53002
 H2203 H -0.06807 0.81011 0.55443
 H2204 H -0.04792 0.89237 0.51848
 H2205 H 0.03457 0.86576 0.55867
 H2206 H 0.05628 0.90621 0.54315
 H2207 H 0.05309 0.95020 0.52853
 H2208 H -0.02798 0.93487 0.51095
 C2209 C 0.22410 0.33004 0.09275
 C2210 C 0.21870 0.31025 0.11170
 C2211 C 0.23237 0.28739 0.10941
 C2212 C 0.25130 0.28476 0.08872
 C2213 C 0.25813 0.30535 0.07174
 C2214 C 0.24477 0.32813 0.07370
 C2215 C 0.22882 0.26849 0.12938
 C2216 C 0.21443 0.27347 0.15342
 C2217 C 0.20075 0.29617 0.15607
 C2218 C 0.20184 0.31387 0.13440
 C2219 C 0.18821 0.30172 0.18129
 C2220 C 0.19240 0.28688 0.20458
 C2221 C 0.20851 0.26590 0.20268
 C2222 C 0.21659 0.25767 0.17615
 H2223 H 0.21416 0.34786 0.09468
 H2224 H 0.26205 0.26746 0.08691
 H2225 H 0.27395 0.30353 0.05699
 H2226 H 0.23970 0.25121 0.12773
 H2227 H 0.19171 0.33155 0.13653
 H2228 H 0.17713 0.31875 0.18367
 H2229 H 0.18443 0.29295 0.22429
 H2230 H 0.22776 0.24074 0.17355
 C2231 C 0.74414 0.84507 0.59687
 C2232 C 0.73635 0.82610 0.61598
 C2233 C 0.74082 0.79998 0.60970
 C2234 C 0.75150 0.79309 0.58397
 C2235 C 0.75918 0.81205 0.56520
 C2236 C 0.75620 0.83805 0.57185
 C2237 C 0.73606 0.78133 0.62980
 C2238 C 0.72787 0.78856 0.65642
 C2239 C 0.72159 0.81421 0.66226
 C2240 C 0.72549 0.83285 0.64179
 C2241 C 0.71307 0.82092 0.68902
 C2242 C 0.71419 0.80332 0.71046
 C2243 C 0.72446 0.77912 0.70555
 C2244 C 0.72839 0.77103 0.67788
 H2245 H 0.74179 0.86525 0.60182
 H2246 H 0.75480 0.77315 0.57881
 H2247 H 0.76831 0.80652 0.54582
 H2248 H 0.74058 0.76152 0.62533
 H2249 H 0.72164 0.85277 0.64652
 H2250 H 0.70715 0.84021 0.69376
 H2251 H 0.70863 0.80939 0.73111
 H2252 H 0.73460 0.75187 0.67310
 C2253 C 0.26879 0.64631 0.60220
 C2254 C 0.27618 0.65477 0.62884
 C2255 C 0.27121 0.63850 0.65163
 C2256 C 0.25995 0.61368 0.64720
 C2257 C 0.25154 0.60592 0.62083
 C2258 C 0.25516 0.62248 0.59837
 C2259 C 0.27528 0.64809 0.67864
 C2260 C 0.28170 0.67436 0.68313
 C2261 C 0.28765 0.69033 0.66040
 C2262 C 0.28600 0.68013 0.63336
 C2263 C 0.29271 0.71674 0.66499
 C2264 C 0.28842 0.72763 0.69119
 C2265 C 0.27976 0.71220 0.71354
 C2266 C 0.27918 0.68536 0.70967
 H2267 H 0.27142 0.65921 0.58492
 H2268 H 0.25602 0.60096 0.66440
 H2269 H 0.24128 0.58736 0.61813
 H2270 H 0.27073 0.63582 0.69612
 H2271 H 0.28980 0.69261 0.61589
 H2272 H 0.29766 0.72927 0.64787
 H2273 H 0.28994 0.74840 0.69323
 H2274 H 0.27434 0.67290 0.72643
 C2275 C 0.75262 0.13365 0.10748
 C2276 C 0.76015 0.14956 0.12992
 C2277 C 0.77160 0.17438 0.12549
 C2278 C 0.77681 0.18211 0.09824
 C2279 C 0.76911 0.16611 0.07576
 C2280 C 0.75570 0.14211 0.08012
 C2281 C 0.77645 0.19127 0.14829
 C2282 C 0.76895 0.18376 0.17521
 C2283 C 0.75835 0.15843 0.17918
 C2284 C 0.75478 0.14137 0.15676
 C2285 C 0.74947 0.15094 0.20520
 C2286 C 0.74927 0.16872 0.22686
 C2287 C 0.75982 0.19417 0.22400
 C2288 C 0.77022 0.20138 0.19792
 H2289 H 0.74388 0.11468 0.11152
 H2290 H 0.78578 0.20099 0.09426
 H2291 H 0.77192 0.17356 0.05513
 H2292 H 0.78465 0.21058 0.14490
 H2293 H 0.74608 0.12221 0.16003
 H2294 H 0.74102 0.13170 0.20842
 H2295 H 0.73985 0.16239 0.24580
 H2296 H 0.77760 0.22100 0.19480
 C2297 C 0.73067 0.16077 0.90402
 C2298 C 0.72874 0.18065 0.88491
 C2299 C 0.74882 0.20021 0.88331
 C2300 C 0.76970 0.20036 0.90149
 C2301 C 0.77176 0.18031 0.91977
 C2302 C 0.75269 0.16017 0.92073
 C2303 C 0.74888 0.21815 0.86218
 C2304 C 0.73006 0.21587 0.84158
 C2305 C 0.70914 0.19747 0.84385
 C2306 C 0.70819 0.18034 0.86604
 C2307 C 0.69084 0.19517 0.82260
 C2308 C 0.69545 0.20813 0.79771
 C2309 C 0.71840 0.22339 0.79376
 C2310 C 0.73371 0.22962 0.81719
 H2311 H 0.71609 0.14503 0.90460
 H2312 H 0.78513 0.21526 0.90062
 H2313 H 0.78880 0.17994 0.93258
 H2314 H 0.76498 0.23230 0.86031
 H2315 H 0.69263 0.16559 0.86732
 H2316 H 0.67432 0.18156 0.82413
 H2317 H 0.68256 0.20373 0.78082
 H2318 H 0.75067 0.24267 0.81566
 C2319 C 0.24213 0.65453 0.41517
 C2320 C 0.24227 0.67229 0.39359
 C2321 C 0.26534 0.68714 0.38758
 C2322 C 0.28742 0.68481 0.40361
 C2323 C 0.28728 0.66676 0.42442
 C2324 C 0.26496 0.65112 0.42987
 C2325 C 0.26657 0.70303 0.36465
 C2326 C 0.24549 0.70350 0.34685
 C2327 C 0.22199 0.68977 0.35323
 C2328 C 0.22033 0.67450 0.37695
 C2329 C 0.20118 0.69052 0.33486
 C2330 C 0.20461 0.70255 0.30922
 C2331 C 0.22893 0.71383 0.30155
 C2332 C 0.24853 0.71583 0.32160
 H2333 H 0.22489 0.64243 0.41951
 H2334 H 0.30512 0.69621 0.39934
 H2335 H 0.30484 0.66455 0.43597
 H2336 H 0.28457 0.71371 0.35964
 H2337 H 0.20258 0.66326 0.38152
 H2338 H 0.18276 0.68059 0.33960
 H2339 H 0.18879 0.70135 0.29489
 H2340 H 0.26731 0.72500 0.31684
 C2341 C 0.75975 0.85460 0.40034
 C2342 C 0.75806 0.83706 0.37775
 C2343 C 0.73337 0.82722 0.36906
 C2344 C 0.71094 0.83537 0.38238
 C2345 C 0.71277 0.85319 0.40422
 C2346 C 0.73705 0.86286 0.41352
 C2347 C 0.73129 0.80977 0.34677
 C2348 C 0.75340 0.80302 0.33190
 C2349 C 0.77813 0.81299 0.33992
 C2350 C 0.78043 0.82952 0.36335
 C2351 C 0.79985 0.80689 0.32370
 C2352 C 0.79669 0.79292 0.29864
 C2353 C 0.77182 0.78455 0.28963
 C2354 C 0.75066 0.78795 0.30782
 H2355 H 0.77855 0.86205 0.40746
 H2356 H 0.69193 0.82804 0.37579
 H2357 H 0.69513 0.85897 0.41438
 H2358 H 0.71228 0.80235 0.34017
 H2359 H 0.79940 0.83719 0.36971
 H2360 H 0.81911 0.81399 0.32965
 H2361 H 0.81358 0.78952 0.28607
 H2362 H 0.73129 0.78102 0.30205
 C2363 C 0.24884 0.35902 0.90004
 C2364 C 0.25211 0.34159 0.87777
 C2365 C 0.23873 0.31715 0.87811
 C2366 C 0.22307 0.31022 0.90095
 C2367 C 0.22012 0.32755 0.92303
 C2368 C 0.23261 0.35210 0.92251
 C2369 C 0.24052 0.30029 0.85530
 C2370 C 0.25498 0.30771 0.83180
 C2371 C 0.26925 0.33159 0.83174
 C2372 C 0.26797 0.34834 0.85489
 C2373 C 0.28348 0.33876 0.80795
 C2374 C 0.28126 0.32376 0.78360
 C2375 C 0.26479 0.30132 0.78259
 C2376 C 0.25361 0.29241 0.80762
 H2377 H 0.25871 0.37793 0.89990
 H2378 H 0.21281 0.29153 0.90154
 H2379 H 0.20779 0.32197 0.94042
 H2380 H 0.22964 0.28187 0.85531
 H2381 H 0.27840 0.36698 0.85463
 H2382 H 0.29505 0.35674 0.80763
 H2383 H 0.29104 0.33082 0.76514
 H2384 H 0.24152 0.27478 0.80791
 C2385 C 0.83204 0.40163 0.73956
 C2386 C 0.81527 0.37963 0.73840
 C2387 C 0.78900 0.38099 0.74637
 C2388 C 0.77997 0.40495 0.75495
 C2389 C 0.79682 0.42710 0.75552
 C2390 C 0.82313 0.42572 0.74778
 C2391 C 0.77249 0.35839 0.74574
 C2392 C 0.78214 0.33458 0.73709
 C2393 C 0.80843 0.33393 0.72872
 C2394 C 0.82469 0.35623 0.72942
 C2395 C 0.81855 0.31083 0.72027
 C2396 C 0.80322 0.28825 0.72073
 C2397 C 0.77699 0.28764 0.72906
 C2398 C 0.76643 0.31132 0.73707
 H2399 H 0.85233 0.39979 0.73433
 H2400 H 0.75988 0.40659 0.76107
 H2401 H 0.78911 0.44531 0.76170
 H2402 H 0.75238 0.35929 0.75217
 H2403 H 0.84487 0.35530 0.72312
 H2404 H 0.83871 0.31001 0.71397
 H2405 H 0.81286 0.27121 0.71536
 H2406 H 0.74641 0.31162 0.74391
 C2407 C 0.32669 0.89806 0.23895
 C2408 C 0.31135 0.87527 0.24134
 C2409 C 0.28957 0.87416 0.25919
 C2410 C 0.28360 0.89643 0.27441
 C2411 C 0.29870 0.91953 0.27135
 C2412 C 0.32031 0.92098 0.25301
 C2413 C 0.27434 0.85087 0.26135
 C2414 C 0.28067 0.82896 0.24543
 C2415 C 0.30237 0.83078 0.22731
 C2416 C 0.31761 0.85363 0.22563
 C2417 C 0.30898 0.80959 0.21123
 C2418 C 0.29481 0.78640 0.21342
 C2419 C 0.27343 0.78340 0.23158
 C2420 C 0.26621 0.80515 0.24743
 H2421 H 0.34408 0.89740 0.22631
 H2422 H 0.26694 0.89616 0.28826
 H2423 H 0.29247 0.93639 0.28248
 H2424 H 0.25772 0.84983 0.27528
 H2425 H 0.33436 0.85462 0.21184
 H2426 H 0.32569 0.81069 0.19744
 H2427 H 0.30217 0.77042 0.20212
 H2428 H 0.24993 0.80346 0.26174
 C2429 C 0.19915 0.91259 0.76654
 C2430 C 0.20191 0.88618 0.76177
 C2431 C 0.18127 0.86840 0.76860
 C2432 C 0.15820 0.87725 0.77974
 C2433 C 0.15557 0.90350 0.78430
 C2434 C 0.17607 0.92142 0.77806
 C2435 C 0.18418 0.84201 0.76479
 C2436 C 0.20777 0.83306 0.75512
 C2437 C 0.22835 0.85069 0.74799
 C2438 C 0.22516 0.87721 0.75092
 C2439 C 0.25219 0.84144 0.73940
 C2440 C 0.25613 0.81509 0.73990
 C2441 C 0.23611 0.79746 0.74843
 C2442 C 0.21155 0.80669 0.75447
 H2443 H 0.21512 0.92620 0.76184
 H2444 H 0.14223 0.86385 0.78510
 H2445 H 0.13731 0.90977 0.79251
 H2446 H 0.16845 0.82839 0.77038
 H2447 H 0.24105 0.89078 0.74576
 H2448 H 0.26819 0.85465 0.73371
 H2449 H 0.27530 0.80881 0.73489
 H2450 H 0.19598 0.79380 0.76169
 C2451 C 0.68742 0.40493 0.25569
 C2452 C 0.69165 0.37838 0.25502
 C2453 C 0.67353 0.36120 0.26819
 C2454 C 0.65104 0.37036 0.28039
 C2455 C 0.64704 0.39657 0.28099
 C2456 C 0.66548 0.41423 0.26954
 C2457 C 0.67844 0.33517 0.26981
 C2458 C 0.70123 0.32589 0.25845
 C2459 C 0.71890 0.34241 0.24405
 C2460 C 0.71402 0.36874 0.24237
 C2461 C 0.74148 0.33233 0.23256
 C2462 C 0.74677 0.30638 0.23624
 C2463 C 0.72969 0.29009 0.25166
 C2464 C 0.70692 0.30039 0.26248
 H2465 H 0.70170 0.41837 0.24666
 H2466 H 0.63681 0.35729 0.29010
 H2467 H 0.62964 0.40313 0.29101
 H2468 H 0.66481 0.32223 0.28062
 H2469 H 0.72786 0.38174 0.23199
 H2470 H 0.75533 0.34463 0.22133
 H2471 H 0.76472 0.29940 0.22797
 H2472 H 0.69403 0.28915 0.27578
 C2473 C 0.69343 0.59186 0.20655
 C2474 C 0.70784 0.61513 0.21039
 C2475 C 0.72963 0.61667 0.22781
 C2476 C 0.73733 0.59411 0.24006
 C2477 C 0.72322 0.57063 0.23548
 C2478 C 0.70077 0.56930 0.21902
 C2479 C 0.74288 0.64075 0.23290
 C2480 C 0.73439 0.66312 0.22060
 C2481 C 0.71318 0.66071 0.20228
 C2482 C 0.70018 0.63698 0.19732
 C2483 C 0.70427 0.68225 0.18985
 C2484 C 0.71525 0.70627 0.19635
 C2485 C 0.73606 0.70997 0.21487
 C2486 C 0.74598 0.68791 0.22666
 H2487 H 0.67593 0.59172 0.19444
 H2488 H 0.75416 0.59462 0.25326
 H2489 H 0.72995 0.55356 0.24492
 H2490 H 0.75928 0.64212 0.24673
 H2491 H 0.68360 0.63563 0.18366
 H2492 H 0.68783 0.68074 0.17606
 H2493 H 0.70538 0.72208 0.18852
 H2494 H 0.76190 0.69004 0.24105
 C2495 C 0.18855 0.09945 0.71585
 C2496 C 0.20053 0.12410 0.71803
 C2497 C 0.22564 0.12780 0.72915
 C2498 C 0.23860 0.10615 0.73724
 C2499 C 0.22652 0.08139 0.73480
 C2500 C 0.20124 0.07783 0.72422
 C2501 C 0.23696 0.15303 0.73227
 C2502 C 0.22320 0.17441 0.72447
 C2503 C 0.19830 0.16998 0.71285
 C2504 C 0.18727 0.14510 0.70962
 C2505 C 0.18415 0.19051 0.70517
 C2506 C 0.19407 0.21538 0.70934
 C2507 C 0.21863 0.22105 0.72087
 C2508 C 0.23339 0.20012 0.72829
 H2509 H 0.16886 0.09729 0.70834
 H2510 H 0.25797 0.10833 0.74560
 H2511 H 0.23695 0.06504 0.74116
 H2512 H 0.25611 0.15597 0.74108
 H2513 H 0.16804 0.14213 0.70091
 H2514 H 0.16492 0.18741 0.69659
 H2515 H 0.18129 0.23017 0.70489
 H2516 H 0.25237 0.20372 0.73730
 C2517 C 0.31461 0.08460 0.27698
 C2518 C 0.30756 0.10905 0.26872
 C2519 C 0.32595 0.13014 0.27023
 C2520 C 0.35089 0.12657 0.27993
 C2521 C 0.35772 0.10233 0.28804
 C2522 C 0.33974 0.08107 0.28681
 C2523 C 0.31910 0.15460 0.26244
 C2524 C 0.29381 0.15859 0.25401
 C2525 C 0.27529 0.13771 0.25245
 C2526 C 0.28240 0.11291 0.25933
 C2527 C 0.24971 0.14233 0.24534
 C2528 C 0.24218 0.16757 0.24202
 C2529 C 0.26021 0.18870 0.24507
 C2530 C 0.28638 0.18358 0.24927
 H2531 H 0.30054 0.06842 0.27600
 H2532 H 0.36518 0.14256 0.28118
 H2533 H 0.37740 0.10013 0.29472
 H2534 H 0.33323 0.17076 0.26389
 H2535 H 0.26817 0.09684 0.25827
 H2536 H 0.23520 0.12656 0.24388
 H2537 H 0.22190 0.17053 0.23860
 H2538 H 0.30065 0.19903 0.25263
 C2539 C 0.80911 0.58387 0.76819
 C2540 C 0.80019 0.60541 0.75484
 C2541 C 0.81760 0.62094 0.73863
 C2542 C 0.84337 0.61425 0.73536
 C2543 C 0.85220 0.59325 0.74926
 C2544 C 0.83530 0.57828 0.76613
 C2545 C 0.80946 0.64375 0.72739
 C2546 C 0.78470 0.65211 0.73370
 C2547 C 0.76708 0.63625 0.74919
 C2548 C 0.77465 0.61259 0.75888
 C2549 C 0.74288 0.64524 0.75661
 C2550 C 0.73767 0.67083 0.75214
 C2551 C 0.75640 0.68774 0.73967
 C2552 C 0.77844 0.67728 0.72755
 H2553 H 0.79615 0.57235 0.78136
 H2554 H 0.85695 0.62586 0.72298
 H2555 H 0.87244 0.58895 0.74738
 H2556 H 0.82309 0.65600 0.71574
 H2557 H 0.76128 0.60077 0.77132
 H2558 H 0.72886 0.63319 0.76794
 H2559 H 0.71969 0.67771 0.76043
 H2560 H 0.79241 0.68943 0.71653
 C2561 C 0.92346 0.79046 0.15851
 C2562 C 0.90267 0.78266 0.17614
 C2563 C 0.89484 0.75627 0.17759
 C2564 C 0.90948 0.73798 0.16382
 C2565 C 0.93107 0.74571 0.14784
 C2566 C 0.93783 0.77204 0.14398
 C2567 C 0.87216 0.74863 0.19220
 C2568 C 0.85767 0.76699 0.20624
 C2569 C 0.86719 0.79290 0.20760
 C2570 C 0.88938 0.80073 0.19214
 C2571 C 0.85383 0.81059 0.22380
 C2572 C 0.82969 0.80342 0.23553
 C2573 C 0.81772 0.77891 0.23014
 C2574 C 0.83312 0.76014 0.21756
 H2575 H 0.92883 0.81078 0.15669
 H2576 H 0.90400 0.71764 0.16507
 H2577 H 0.94135 0.73093 0.13686
 H2578 H 0.86543 0.72852 0.19202
 H2579 H 0.89589 0.82089 0.19203
 H2580 H 0.86159 0.83022 0.22663
 H2581 H 0.82014 0.81763 0.24781
 H2582 H 0.82526 0.74060 0.21439
 C2583 C 0.41138 0.29009 0.65613
 C2584 C 0.38516 0.28886 0.66462
 C2585 C 0.36560 0.28656 0.64433
 C2586 C 0.37238 0.28427 0.61625
 C2587 C 0.39835 0.28551 0.60807
 C2588 C 0.41794 0.28893 0.62778
 C2589 C 0.33952 0.28717 0.65226
 C2590 C 0.33253 0.28950 0.68026
 C2591 C 0.35171 0.29062 0.70080
 C2592 C 0.37805 0.29060 0.69285
 C2593 C 0.34405 0.29132 0.72884
 C2594 C 0.31765 0.29068 0.73630
 C2595 C 0.29842 0.29058 0.71593
 C2596 C 0.30640 0.29010 0.68787
 H2597 H 0.42657 0.29318 0.67132
 H2598 H 0.35758 0.28231 0.60054
 H2599 H 0.40320 0.28497 0.58618
 H2600 H 0.32462 0.28587 0.63657
 H2601 H 0.39292 0.29193 0.70853
 H2602 H 0.35843 0.29160 0.74498
 H2603 H 0.31242 0.28956 0.75797
 H2604 H 0.29222 0.28925 0.67153
 C2605 C 0.41545 0.71333 0.84006
 C2606 C 0.39019 0.71761 0.83138
 C2607 C 0.37037 0.72073 0.85144
 C2608 C 0.37586 0.71838 0.87963
 C2609 C 0.40094 0.71365 0.88803
 C2610 C 0.42096 0.71154 0.86840
 C2611 C 0.34545 0.72641 0.84304
 C2612 C 0.33987 0.72831 0.81482
 C2613 C 0.35926 0.72400 0.79468
 C2614 C 0.38446 0.71909 0.80308
 C2615 C 0.35301 0.72462 0.76652
 C2616 C 0.32763 0.72875 0.75842
 C2617 C 0.30802 0.73272 0.77829
 C2618 C 0.31490 0.73383 0.80650
 H2619 H 0.43095 0.71175 0.82488
 H2620 H 0.36085 0.72060 0.89522
 H2621 H 0.40497 0.71264 0.90992
 H2622 H 0.33034 0.72910 0.85845
 H2623 H 0.39953 0.71631 0.78764
 H2624 H 0.36764 0.72147 0.75072
 H2625 H 0.32359 0.72889 0.73657
 H2626 H 0.30043 0.73753 0.82229
 C2627 C 0.91412 0.20963 0.33824
 C2628 C 0.88874 0.20938 0.32805
 C2629 C 0.86821 0.19876 0.34440
 C2630 C 0.87336 0.18714 0.36947
 C2631 C 0.89860 0.18713 0.37926
 C2632 C 0.91933 0.19926 0.36446
 C2633 C 0.84270 0.20047 0.33586
 C2634 C 0.83737 0.21228 0.31095
 C2635 C 0.85758 0.22134 0.29336
 C2636 C 0.88339 0.22005 0.30216
 C2637 C 0.85132 0.23197 0.26780
 C2638 C 0.82523 0.23393 0.26017
 C2639 C 0.80505 0.22581 0.27827
 C2640 C 0.81181 0.21545 0.30385
 H2641 H 0.92976 0.21780 0.32553
 H2642 H 0.85770 0.17868 0.38198
 H2643 H 0.90132 0.17919 0.39947
 H2644 H 0.82691 0.19298 0.34891
 H2645 H 0.89914 0.22775 0.28925
 H2646 H 0.86656 0.23892 0.25383
 H2647 H 0.82087 0.24229 0.24054
 H2648 H 0.79710 0.20957 0.31886
 C2649 C 0.07266 0.26899 0.33176
 C2650 C 0.09813 0.26553 0.32263
 C2651 C 0.11858 0.26790 0.34190
 C2652 C 0.11347 0.27495 0.36950
 C2653 C 0.08816 0.27880 0.37827
 C2654 C 0.06761 0.27528 0.35966
 C2655 C 0.14377 0.26293 0.33339
 C2656 C 0.14901 0.25648 0.30568
 C2657 C 0.12900 0.25534 0.28603
 C2658 C 0.10349 0.25944 0.29473
 C2659 C 0.13499 0.25019 0.25808
 C2660 C 0.16073 0.24720 0.24966
 C2661 C 0.18081 0.24902 0.26909
 C2662 C 0.17428 0.25195 0.29731
 H2663 H 0.05671 0.26638 0.31740
 H2664 H 0.12900 0.27706 0.38439
 H2665 H 0.08445 0.28347 0.39987
 H2666 H 0.15938 0.26432 0.34827
 H2667 H 0.08793 0.25808 0.27983
 H2668 H 0.11988 0.24896 0.24269
 H2669 H 0.16484 0.24357 0.22798
 H2670 H 0.18913 0.25237 0.31297
 C2671 C 0.58454 0.77300 0.83247
 C2672 C 0.61044 0.77131 0.82371
 C2673 C 0.63016 0.77016 0.84366
 C2674 C 0.62377 0.77148 0.87194
 C2675 C 0.59803 0.77354 0.88044
 C2676 C 0.57832 0.77398 0.86082
 C2677 C 0.65589 0.76746 0.83506
 C2678 C 0.66225 0.76613 0.80678
 C2679 C 0.64275 0.76809 0.78682
 C2680 C 0.61691 0.77054 0.79540
 C2681 C 0.64939 0.76700 0.75862
 C2682 C 0.67504 0.76374 0.75026
 C2683 C 0.69471 0.76177 0.76989
 C2684 C 0.68783 0.76252 0.79821
 H2685 H 0.56923 0.77354 0.81738
 H2686 H 0.63866 0.77073 0.88746
 H2687 H 0.59338 0.77432 0.90236
 H2688 H 0.67093 0.76621 0.85037
 H2689 H 0.60185 0.77161 0.78008
 H2690 H 0.63466 0.76827 0.74300
 H2691 H 0.67918 0.76202 0.72834
 H2692 H 0.70232 0.76005 0.81382
 C2693 C 0.58206 0.23641 0.65332
 C2694 C 0.60419 0.24043 0.66988
 C2695 C 0.61815 0.26455 0.66984
 C2696 C 0.60943 0.28437 0.65368
 C2697 C 0.58734 0.28026 0.63739
 C2698 C 0.57354 0.25624 0.63684
 C2699 C 0.64086 0.26830 0.68548
 C2700 C 0.65014 0.24805 0.70072
 C2701 C 0.63587 0.22416 0.70119
 C2702 C 0.61284 0.22058 0.68609
 C2703 C 0.64545 0.20386 0.71581
 C2704 C 0.66982 0.20645 0.72801
 C2705 C 0.68507 0.22969 0.72684
 C2706 C 0.67419 0.25085 0.71416
 H2707 H 0.57137 0.21791 0.65335
 H2708 H 0.61984 0.30299 0.65340
 H2709 H 0.58126 0.29580 0.62482
 H2710 H 0.65177 0.28667 0.68502
 H2711 H 0.60214 0.20208 0.68623
 H2712 H 0.63466 0.18545 0.71664
 H2713 H 0.67675 0.18964 0.73736
 H2714 H 0.68522 0.26908 0.71285
 C2715 C 0.09000 0.72932 0.16007
 C2716 C 0.10880 0.73367 0.18065
 C2717 C 0.12056 0.75863 0.18463
 C2718 C 0.11270 0.77895 0.16862
 C2719 C 0.09383 0.77448 0.14837
 C2720 C 0.08266 0.74963 0.14363
 C2721 C 0.14069 0.76267 0.20373
 C2722 C 0.14991 0.74187 0.21806
 C2723 C 0.13746 0.71719 0.21495
 C2724 C 0.11664 0.71332 0.19667
 C2725 C 0.14713 0.69648 0.22889
 C2726 C 0.17082 0.69942 0.24254
 C2727 C 0.18522 0.72316 0.24275
 C2728 C 0.17292 0.74489 0.23320
 H2729 H 0.08117 0.71017 0.15668
 H2730 H 0.12149 0.79818 0.17137
 H2731 H 0.08831 0.79035 0.13593
 H2732 H 0.15017 0.78167 0.20618
 H2733 H 0.10754 0.69421 0.19378
 H2734 H 0.13741 0.67753 0.22749
 H2735 H 0.17830 0.68255 0.25133
 H2736 H 0.18291 0.76373 0.23416
   
