data_POSCAR
  _audit_creation_date              2014-09-24
  _audit_creation_method            'ToBaCCo'
  _symmetry_space_group_name_H-M    'P1'
  _symmetry_Int_Tables_number       1
  _symmetry_cell_setting            triclinic
  loop_
  _symmetry_equiv_pos_as_xyz
 x,y,z
_cell_length_a 61.7523
_cell_length_b 63.0688
_cell_length_c 63.0215
_cell_angle_alpha 89.572700
_cell_angle_beta 89.074100
_cell_angle_gamma 89.461900
loop_
  _atom_site_label
  _atom_site_type_symbol
  _atom_site_fract_x
  _atom_site_fract_y
  _atom_site_fract_z
C1 C 0.35111 1.31713 0.31891
 C2 C 0.34910 1.29928 0.33229
 C3 C 0.33048 1.29674 0.34447
 C4 C 0.31408 1.31208 0.34408
 C5 C 0.31622 1.32997 0.33149
 C6 C 0.33479 1.33237 0.31852
 C7 C 0.36696 1.32355 0.30472
 N8 N 0.36066 1.34216 0.29559
 C9 C 0.34104 1.34778 0.30415
 C10 C 0.29858 1.34289 0.33593
 N11 N 0.28599 1.33308 0.35096
 C12 C 0.29527 1.31414 0.35573
 C13 C 0.33304 1.27884 0.35666
 N14 N 0.35293 1.27057 0.35258
 C15 C 0.36296 1.28281 0.33758
 H16 H 0.38184 1.31504 0.30097
 H17 H 0.33156 1.36165 0.29996
 H18 H 0.29558 1.35838 0.32905
 H19 H 0.28928 1.30308 0.36763
 H20 H 0.32170 1.27285 0.36849
 H21 H 0.37924 1.28029 0.33145
 C22 C 0.39004 0.87103 0.84653
 C23 C 0.38611 0.85173 0.85695
 C24 C 0.36751 0.84910 0.86925
 C25 C 0.35258 0.86603 0.87134
 C26 C 0.35679 0.88514 0.86121
 C27 C 0.37554 0.88764 0.84878
 C28 C 0.40517 0.87699 0.83143
 N29 N 0.39996 0.89680 0.82439
 C30 C 0.38206 0.90353 0.83516
 C31 C 0.33923 0.89820 0.86443
 N32 N 0.32424 0.88770 0.87626
 C33 C 0.33223 0.86792 0.88067
 C34 C 0.36758 0.82829 0.87628
 N35 N 0.38578 0.81848 0.86854
 C36 C 0.39706 0.83272 0.85669
 H37 H 0.41822 0.86712 0.82531
 H38 H 0.37344 0.91824 0.83206
 H39 H 0.33722 0.91409 0.85805
 H40 H 0.32380 0.85556 0.88934
 H41 H 0.35518 0.82096 0.88610
 H42 H 0.41212 0.82937 0.84826
 C43 C 0.85825 1.34546 0.82450
 C44 C 0.85729 1.32851 0.83892
 C45 C 0.84125 1.32779 0.85463
 C46 C 0.82558 1.34433 0.85576
 C47 C 0.82696 1.36112 0.84146
 C48 C 0.84328 1.36169 0.82589
 C49 C 0.87147 1.34965 0.80720
 N50 N 0.86470 1.36814 0.79803
 C51 C 0.84753 1.37562 0.80950
 C52 C 0.80980 1.37449 0.84520
 N53 N 0.79752 1.36649 0.86128
 C54 C 0.80699 1.34799 0.86802
 C55 C 0.84468 1.30905 0.86589
 N56 N 0.86218 1.29877 0.85715
 C57 C 0.86973 1.31052 0.84064
 H58 H 0.88476 1.33971 0.80176
 H59 H 0.83843 1.38992 0.80585
 H60 H 0.80615 1.38886 0.83636
 H61 H 0.80077 1.33772 0.88047
 H62 H 0.83498 1.30320 0.87909
 H63 H 0.88342 1.30622 0.83054
 C64 C 0.83977 0.82028 0.30708
 C65 C 0.83775 0.80084 0.31805
 C66 C 0.82542 0.79994 0.33659
 C67 C 0.81578 0.81826 0.34485
 C68 C 0.81798 0.83733 0.33427
 C69 C 0.82981 0.83830 0.31521
 C70 C 0.84983 0.82618 0.28825
 N71 N 0.84600 0.84728 0.28492
 C72 C 0.83390 0.85472 0.30142
 C73 C 0.80699 0.85241 0.34594
 N74 N 0.79834 0.84280 0.36345
 C75 C 0.80360 0.82192 0.36287
 C76 C 0.82609 0.77953 0.34407
 N77 N 0.83892 0.76799 0.33089
 C78 C 0.84627 0.78074 0.31489
 H79 H 0.85882 0.81570 0.27777
 H80 H 0.82822 0.87093 0.30313
 H81 H 0.80528 0.86898 0.34173
 H82 H 0.79872 0.81024 0.37463
 H83 H 0.81869 0.77367 0.35864
 H84 H 0.85729 0.77586 0.30228
 C85 C 0.65001 0.67736 0.30253
 C86 C 0.65519 0.69360 0.31641
 C87 C 0.67001 0.69016 0.33237
 C88 C 0.68051 0.67026 0.33399
 C89 C 0.67531 0.65422 0.32006
 C90 C 0.65978 0.65772 0.30441
 C91 C 0.63535 0.67630 0.28647
 N92 N 0.63573 0.65636 0.27860
 C93 C 0.65081 0.64484 0.28939
 C94 C 0.68790 0.63686 0.32492
 N95 N 0.70090 0.64183 0.34123
 C96 C 0.69642 0.66220 0.34706
 C97 C 0.67039 0.70861 0.34416
 N98 N 0.65639 0.72283 0.33533
 C99 C 0.64726 0.71383 0.31831
 H100 H 0.62474 0.68901 0.28121
 H101 H 0.65495 0.62835 0.28681
 H102 H 0.68798 0.62178 0.31681
 H103 H 0.70423 0.67072 0.35961
 H104 H 0.67987 0.71139 0.35815
 H105 H 0.63504 0.72126 0.30853
 C106 C 0.63533 0.15456 0.83760
 C107 C 0.63175 0.16994 0.85307
 C108 C 0.64617 0.17225 0.86938
 C109 C 0.66442 0.15882 0.87044
 C110 C 0.66798 0.14348 0.85507
 C111 C 0.65325 0.14132 0.83843
 C112 C 0.62417 0.14980 0.81971
 N113 N 0.63469 0.13388 0.80944
 C114 C 0.65257 0.12844 0.82077
 C115 C 0.68704 0.13314 0.85996
 N116 N 0.69510 0.14178 0.87793
 C117 C 0.68131 0.15746 0.88438
 C118 C 0.63873 0.18903 0.88152
 N119 N 0.62018 0.19671 0.87279
 C120 C 0.61583 0.18504 0.85548
 H121 H 0.60951 0.15760 0.81434
 H122 H 0.66447 0.11650 0.81638
 H123 H 0.69423 0.12025 0.85099
 H124 H 0.68346 0.16726 0.89821
 H125 H 0.64634 0.19513 0.89553
 H126 H 0.60220 0.18763 0.84514
 C127 C 1.11672 0.64978 0.82622
 C128 C 1.12010 0.66615 0.84062
 C129 C 1.13747 0.66517 0.85411
 C130 C 1.15169 0.64770 0.85335
 C131 C 1.14838 0.63154 0.83908
 C132 C 1.13079 0.63263 0.82534
 C133 C 1.10177 0.64723 0.81058
 N134 N 1.10653 0.62910 0.80004
 C135 C 1.12423 0.61995 0.80902
 C136 C 1.16505 0.61713 0.84138
 N137 N 1.17843 0.62411 0.85669
 C138 C 1.17034 0.64288 0.86407
 C139 C 1.13754 0.68351 0.86579
 N140 N 1.11967 0.69725 0.85978
 C141 C 1.10933 0.68501 0.84374
 H142 H 1.08877 0.65815 0.80663
 H143 H 1.13202 0.60536 0.80399
 H144 H 1.16742 0.60270 0.83239
 H145 H 1.17736 0.65265 0.87613
 H146 H 1.14940 0.68752 0.87752
 H147 H 1.09522 0.69035 0.83517
 C148 C 1.14582 0.14530 0.33605
 C149 C 1.14513 0.16009 0.35277
 C150 C 1.16079 0.15915 0.36827
 C151 C 1.17736 0.14390 0.36730
 C152 C 1.17820 0.12968 0.35083
 C153 C 1.16239 0.13034 0.33521
 C154 C 1.13303 0.14187 0.31857
 N155 N 1.14166 0.12527 0.30740
 C156 C 1.15962 0.11833 0.31748
 C157 C 1.19639 0.11726 0.35343
 N158 N 1.20663 0.12362 0.37115
 C159 C 1.19503 0.13996 0.37979
 C160 C 1.15669 0.17527 0.38225
 N161 N 1.13908 0.18629 0.37573
 C162 C 1.13176 0.17716 0.35769
 H163 H 1.11875 0.15093 0.31438
 H164 H 1.16993 0.10531 0.31230
 H165 H 1.20197 0.10470 0.34300
 H166 H 1.19922 0.14882 0.39373
 H167 H 1.16614 0.17903 0.39604
 H168 H 1.11791 0.18250 0.34874
 C169 C 0.61836 1.36449 0.66601
 C170 C 0.62222 1.34518 0.65571
 C171 C 0.63963 1.34296 0.64170
 C172 C 0.65343 1.36029 0.63780
 C173 C 0.64916 1.37941 0.64774
 C174 C 0.63164 1.38150 0.66186
 C175 C 0.60437 1.37032 0.68223
 N176 N 0.60910 1.39051 0.68804
 C177 C 0.62554 1.39750 0.67540
 C178 C 0.66550 1.39305 0.64243
 N179 N 0.67987 1.38284 0.62961
 C180 C 0.67269 1.36274 0.62655
 C181 C 0.63961 1.32220 0.63481
 N182 N 0.62257 1.31204 0.64425
 C183 C 0.61204 1.32598 0.65710
 H184 H 0.59262 1.36006 0.68984
 H185 H 0.63349 1.41265 0.67692
 H186 H 0.66729 1.40908 0.64815
 H187 H 0.68101 1.35063 0.61739
 H188 H 0.65111 1.31523 0.62372
 H189 H 0.59786 1.32237 0.66676
 C190 C 0.63595 0.84035 1.17208
 C191 C 0.63297 0.82481 1.15675
 C192 C 0.64753 0.82275 1.14009
 C193 C 0.66532 0.83633 1.13852
 C194 C 0.66841 0.85183 1.15365
 C195 C 0.65345 0.85390 1.17072
 C196 C 0.62433 0.84525 1.19009
 N197 N 0.63407 0.86153 1.19994
 C198 C 0.65198 0.86705 1.18823
 C199 C 0.68727 0.86225 1.14791
 N200 N 0.69543 0.85339 1.12975
 C201 C 0.68208 0.83758 1.12402
 C202 C 0.64078 0.80608 1.12793
 N203 N 0.62239 0.79805 1.13693
 C204 C 0.61753 0.80947 1.15454
 H205 H 0.60979 0.83738 1.19574
 H206 H 0.66328 0.87935 1.19218
 H207 H 0.69441 0.87519 1.15642
 H208 H 0.68447 0.82761 1.11025
 H209 H 0.64883 0.80031 1.11372
 H210 H 0.60384 0.80663 1.16510
 C211 C 1.12640 1.35790 1.15234
 C212 C 1.12617 1.34129 1.13749
 C213 C 1.13539 1.34435 1.11754
 C214 C 1.14498 1.36366 1.11210
 C215 C 1.14519 1.37993 1.12657
 C216 C 1.13581 1.37706 1.14675
 C217 C 1.12000 1.35946 1.17340
 N218 N 1.12531 1.37908 1.18049
 C219 C 1.13499 1.38981 1.16429
 C220 C 1.15769 1.39585 1.11789
 N221 N 1.16530 1.38938 1.09855
 C222 C 1.15733 1.36980 1.09485
 C223 C 1.13432 1.32559 1.10683
 N224 N 1.12458 1.31105 1.11956
 C225 C 1.11952 1.32040 1.13845
 H226 H 1.11245 1.34708 1.18279
 H227 H 1.14133 1.40572 1.16533
 H228 H 1.16199 1.41026 1.12591
 H229 H 1.16141 1.36014 1.08120
 H230 H 1.14055 1.32258 1.09097
 H231 H 1.11211 1.31260 1.15204
 C232 C 1.14592 0.83316 0.66906
 C233 C 1.14603 0.81874 0.65199
 C234 C 1.16126 0.82101 0.63589
 C235 C 1.17651 0.83714 0.63643
 C236 C 1.17682 0.85119 0.65315
 C237 C 1.16119 0.84926 0.66967
 C238 C 1.13270 0.83548 0.68677
 N239 N 1.13936 0.85242 0.69812
 C240 C 1.15681 0.86094 0.68777
 C241 C 1.19385 0.86495 0.64894
 N242 N 1.20341 0.85934 0.63010
 C243 C 1.19278 0.84246 0.62246
 C244 C 1.15802 0.80538 0.62134
 N245 N 1.14122 0.79330 0.62798
 C246 C 1.13361 0.80129 0.64679
 H247 H 1.11897 0.82567 0.69098
 H248 H 1.16553 0.87481 0.69268
 H249 H 1.19868 0.87808 0.65869
 H250 H 1.19674 0.83451 0.60770
 H251 H 1.16741 0.80283 0.60690
 H252 H 1.12017 0.79499 0.65600
 C253 C 0.36686 0.64752 0.65711
 C254 C 0.36935 0.66330 0.64168
 C255 C 0.35343 0.66690 0.62699
 C256 C 0.33482 0.65428 0.62735
 C257 C 0.33217 0.63852 0.64268
 C258 C 0.34836 0.63527 0.65803
 C259 C 0.37995 0.64142 0.67337
 N260 N 0.36999 0.62594 0.68465
 C261 C 0.35060 0.62189 0.67551
 C262 C 0.31268 0.62875 0.63859
 N263 N 0.30370 0.63818 0.62118
 C264 C 0.31713 0.65385 0.61446
 C265 C 0.36003 0.68387 0.61458
 N266 N 0.37956 0.69046 0.62161
 C267 C 0.38539 0.67783 0.63804
 H268 H 0.39553 0.64809 0.67707
 H269 H 0.33909 0.61018 0.68105
 H270 H 0.30592 0.61563 0.64754
 H271 H 0.31440 0.66404 0.60083
 H272 H 0.35114 0.69091 0.60161
 H273 H 0.40003 0.67952 0.64709
 C274 C 0.35979 0.15416 1.18559
 C275 C 0.35767 0.17147 1.17175
 C276 C 0.34042 0.17282 1.15795
 C277 C 0.32492 0.15643 1.15792
 C278 C 0.32736 0.13933 1.17163
 C279 C 0.34477 0.13820 1.18544
 C280 C 0.37421 0.14943 1.20141
 N281 N 0.36810 0.13091 1.21082
 C282 C 0.35019 0.12390 1.20104
 C283 C 0.31022 0.12610 1.16904
 N284 N 0.29712 0.13444 1.15408
 C285 C 0.30590 0.15308 1.14705
 C286 C 0.34271 0.19179 1.14691
 N287 N 0.36088 0.20159 1.15379
 C288 C 0.36996 0.18925 1.16895
 H289 H 0.38773 0.15910 1.20593
 H290 H 0.34133 0.10977 1.20549
 H291 H 0.30735 0.11144 1.17767
 H292 H 0.29901 0.16357 1.13524
 H293 H 0.33195 0.19787 1.13489
 H294 H 0.38453 0.19302 1.17742
 C295 C 0.84815 0.66689 1.17214
 C296 C 0.84418 0.68356 1.15799
 C297 C 0.82828 0.68201 1.14281
 C298 C 0.81556 0.66353 1.14219
 C299 C 0.81958 0.64709 1.15639
 C300 C 0.83605 0.64873 1.17135
 C301 C 0.86301 0.66472 1.18796
 N302 N 0.86100 0.64441 1.19826
 C303 C 0.84332 0.63503 1.18684
 C304 C 0.80479 0.63148 1.15278
 N305 N 0.79160 0.63788 1.13695
 C306 C 0.79807 0.65747 1.13023
 C307 C 0.82882 0.70077 1.13118
 N308 N 0.84439 0.71332 1.13938
 C309 C 0.85366 0.70298 1.15578
 H310 H 0.87480 0.67648 1.19225
 H311 H 0.83696 0.61940 1.19016
 H312 H 0.80337 0.61664 1.16142
 H313 H 0.79055 0.66681 1.11787
 H314 H 0.81858 0.70506 1.11802
 H315 H 0.86662 0.70914 1.16526
 C316 C 0.87322 0.15494 0.66844
 C317 C 0.86902 0.16693 0.65010
 C318 C 0.85431 0.15976 0.63547
 C319 C 0.84358 0.14053 0.63903
 C320 C 0.84767 0.12884 0.65718
 C321 C 0.86251 0.13609 0.67190
 C322 C 0.88627 0.15806 0.68567
 N323 N 0.88354 0.14160 0.69947
 C324 C 0.86900 0.12807 0.69104
 C325 C 0.83428 0.11158 0.65722
 N326 N 0.82218 0.11244 0.63950
 C327 C 0.82770 0.13013 0.62824
 C328 C 0.85301 0.17484 0.61965
 N329 N 0.86637 0.19100 0.62442
 C330 C 0.87634 0.18626 0.64297
 H331 H 0.89681 0.17143 0.68808
 H332 H 0.86348 0.11331 0.69792
 H333 H 0.83299 0.09955 0.66951
 H334 H 0.82017 0.13557 0.61378
 H335 H 0.84285 0.17430 0.60582
 H336 H 0.88810 0.19602 0.65073
 C337 C 1.34804 0.35881 0.67361
 C338 C 1.33141 0.36080 0.65883
 C339 C 1.33084 0.34736 0.64158
 C340 C 1.34698 0.33170 0.63892
 C341 C 1.36347 0.32999 0.65342
 C342 C 1.36399 0.34356 0.67084
 C343 C 1.35227 0.36914 0.69224
 N344 N 1.37041 0.36039 0.70076
 C345 C 1.37771 0.34483 0.68770
 C346 C 1.37644 0.31321 0.64752
 N347 N 1.36821 0.30446 0.62974
 C348 C 1.35018 0.31569 0.62438
 C349 C 1.31273 0.35278 0.63017
 N350 N 1.30241 0.36920 0.64011
 C351 C 1.31370 0.37410 0.65765
 H352 H 1.34276 0.38200 0.69893
 H353 H 1.39181 0.33492 0.69050
 H354 H 1.39030 0.30751 0.65621
 H355 H 1.33990 0.31222 0.61110
 H356 H 1.30758 0.34518 0.61582
 H357 H 1.30932 0.38649 0.66877
 C358 C 1.36358 0.87396 1.17253
 C359 C 1.34928 0.87500 1.15523
 C360 C 1.35142 0.86029 1.13903
 C361 C 1.36721 0.84430 1.13991
 C362 C 1.38089 0.84311 1.15691
 C363 C 1.37912 0.85797 1.17318
 C364 C 1.36608 0.88583 1.19077
 N365 N 1.38265 0.87716 1.20215
 C366 C 1.39045 0.86010 1.19149
 C367 C 1.39385 0.82548 1.15416
 N368 N 1.38829 0.81586 1.13588
 C369 C 1.37198 0.82736 1.12697
 C370 C 1.33567 0.86450 1.12451
 N371 N 1.32364 0.88118 1.13136
 C372 C 1.33175 0.88786 1.15015
 H373 H 1.35645 0.89952 1.19533
 H374 H 1.40367 0.84999 1.19664
 H375 H 1.40608 0.81974 1.16497
 H376 H 1.36357 0.82351 1.11260
 H377 H 1.33284 0.85574 1.11011
 H378 H 1.32542 0.90098 1.15939
 C379 C 0.83977 0.36444 1.16001
 C380 C 0.82778 0.36626 1.14137
 C381 C 0.83001 0.35103 1.12593
 C382 C 0.84371 0.33365 1.12897
 C383 C 0.85538 0.33139 1.14744
 C384 C 0.85354 0.34721 1.16317
 C385 C 0.84072 0.37706 1.17758
 N386 N 0.85482 0.36829 1.19147
 C387 C 0.86269 0.34988 1.18290
 C388 C 0.86611 0.31198 1.14601
 N389 N 0.86092 0.30284 1.12718
 C390 C 0.84736 0.31614 1.11681
 C391 C 0.81585 0.35596 1.11007
 N392 N 0.80473 0.37369 1.11561
 C393 C 0.81197 0.38029 1.13472
 H394 H 0.83185 0.39178 1.18002
 H395 H 0.87420 0.33918 1.19021
 H396 H 0.87634 0.30496 1.15799
 H397 H 0.84013 0.31298 1.10161
 H398 H 0.81305 0.34673 1.09597
 H399 H 0.80589 0.39387 1.14343
 C400 C 0.87080 0.86239 0.67207
 C401 C 0.85266 0.86250 0.65892
 C402 C 0.85108 0.84770 0.64288
 C403 C 0.86761 0.83249 0.63986
 C404 C 0.88554 0.83266 0.65271
 C405 C 0.88714 0.84762 0.66882
 C406 C 0.87630 0.87410 0.68953
 N407 N 0.89559 0.86665 0.69681
 C408 C 0.90232 0.85055 0.68416
 C409 C 0.89856 0.81587 0.64704
 N410 N 0.88899 0.80525 0.63120
 C411 C 0.87002 0.81530 0.62656
 C412 C 0.83164 0.85136 0.63300
 N413 N 0.82150 0.86805 0.64261
 C414 C 0.83416 0.87480 0.65856
 H415 H 0.86678 0.88685 0.69642
 H416 H 0.91698 0.84129 0.68632
 H417 H 0.91363 0.81123 0.65441
 H418 H 0.85859 0.81036 0.61480
 H419 H 0.82531 0.84229 0.62002
 H420 H 0.83016 0.88779 0.66911
 C421 C 0.63713 0.61508 0.65717
 C422 C 0.64924 0.61393 0.63832
 C423 C 0.65008 0.63113 0.62459
 C424 C 0.63813 0.64960 0.62940
 C425 C 0.62603 0.65064 0.64807
 C426 C 0.62569 0.63333 0.66215
 C427 C 0.63508 0.60135 0.67403
 N428 N 0.62274 0.61080 0.68925
 C429 C 0.61679 0.63039 0.68213
 C430 C 0.61667 0.67047 0.64893
 N431 N 0.62254 0.68145 0.63120
 C432 C 0.63583 0.66886 0.61919
 C433 C 0.66501 0.62613 0.60884
 N434 N 0.67300 0.60636 0.61288
 C435 C 0.66326 0.59875 0.63069
 H436 H 0.64256 0.58581 0.67544
 H437 H 0.60718 0.64191 0.69084
 H438 H 0.60620 0.67648 0.66150
 H439 H 0.64338 0.67324 0.60421
 H440 H 0.67020 0.63642 0.59595
 H441 H 0.66716 0.58376 0.63828
 C442 C 0.64602 1.14424 1.16916
 C443 C 0.66191 1.13997 1.15369
 C444 C 0.66365 1.15264 1.13573
 C445 C 0.64917 1.16978 1.13302
 C446 C 0.63334 1.17378 1.14831
 C447 C 0.63176 1.16095 1.16649
 C448 C 0.64148 1.13512 1.18855
 N449 N 0.62471 1.14598 1.19781
 C450 C 0.61856 1.16170 1.18429
 C451 C 0.62207 1.19154 1.14211
 N452 N 0.63057 1.19862 1.12331
 C453 C 0.64717 1.18537 1.11767
 C454 C 0.68105 1.14498 1.12397
 N455 N 0.68967 1.12800 1.13445
 C456 C 0.67802 1.12488 1.15256
 H457 H 0.64996 1.12161 1.19518
 H458 H 0.60576 1.17317 1.18742
 H459 H 0.60897 1.19876 1.15113
 H460 H 0.65726 1.18710 1.10355
 H461 H 0.68685 1.15136 1.10897
 H462 H 0.68122 1.11261 1.16424
 C463 C 0.10927 0.61143 1.14770
 C464 C 0.12910 0.61404 1.13694
 C465 C 0.13298 0.63223 1.12510
 C466 C 0.11685 0.64806 1.12377
 C467 C 0.09722 0.64529 1.13429
 C468 C 0.09345 0.62695 1.14638
 C469 C 0.10230 0.59675 1.16248
 N470 N 0.08268 0.60321 1.17038
 C471 C 0.07709 0.62154 1.16037
 C472 C 0.08528 0.66355 1.13172
 N473 N 0.09706 0.67750 1.11995
 C474 C 0.11648 0.66816 1.11495
 C475 C 0.15413 0.63099 1.11780
 N476 N 0.16302 0.61248 1.12495
 C477 C 0.14782 0.60211 1.13666
 H478 H 0.11174 0.58333 1.16797
 H479 H 0.06280 0.63100 1.16404
 H480 H 0.06937 0.66673 1.13853
 H481 H 0.12966 0.67543 1.10616
 H482 H 0.16235 0.64287 1.10829
 H483 H 0.15037 0.58712 1.14477
 C484 C 0.16648 1.15156 0.68008
 C485 C 0.18523 1.15257 0.66709
 C486 C 0.18558 1.16625 0.64981
 C487 C 0.16746 1.17862 0.64490
 C488 C 0.14903 1.17751 0.65744
 C489 C 0.14857 1.16395 0.67516
 C490 C 0.16143 1.14070 0.69860
 N491 N 0.14092 1.14629 0.70490
 C492 C 0.13303 1.16038 0.69055
 C493 C 0.13393 1.19147 0.64943
 N494 N 0.14268 1.20245 0.63065
 C495 C 0.16417 1.19313 0.62894
 C496 C 0.20563 1.16478 0.64033
 N497 N 0.21751 1.15028 0.65106
 C498 C 0.20530 1.14263 0.66754
 H499 H 0.17215 1.12991 0.70686
 H500 H 0.11718 1.16787 0.69147
 H501 H 0.11789 1.19427 0.65605
 H502 H 0.17594 1.19742 0.61677
 H503 H 0.21117 1.17346 0.62641
 H504 H 0.21067 1.13097 0.67904
 C505 C 1.34158 0.66008 0.32918
 C506 C 1.32586 0.65772 0.34548
 C507 C 1.32523 0.67198 0.36208
 C508 C 1.33987 0.68871 0.36266
 C509 C 1.35513 0.69117 0.34666
 C510 C 1.35603 0.67674 0.32985
 C511 C 1.34651 0.64874 0.31103
 N512 N 1.36356 0.65820 0.30081
 C513 C 1.36934 0.67532 0.31225
 C514 C 1.36688 0.70897 0.35124
 N515 N 1.35900 0.71729 0.36975
 C516 C 1.34250 0.70491 0.37678
 C517 C 1.30854 0.66638 0.37547
 N518 N 1.29874 0.64913 0.36754
 C519 C 1.30918 0.64358 0.34916
 H520 H 1.33823 0.63468 0.30593
 H521 H 1.38245 0.68596 0.30812
 H522 H 1.38003 0.71522 0.34163
 H523 H 1.33296 0.70762 0.39110
 H524 H 1.30361 0.67450 0.38986
 H525 H 1.30497 0.63047 0.33911
 C526 C 1.36142 1.13521 0.84099
 C527 C 1.34536 1.13012 0.85608
 C528 C 1.34059 1.14402 0.87234
 C529 C 1.35160 1.16321 0.87366
 C530 C 1.36740 1.16837 0.85876
 C531 C 1.37242 1.15417 0.84225
 C532 C 1.36906 1.12479 0.82332
 N533 N 1.38454 1.13689 0.81371
 C534 C 1.38667 1.15489 0.82518
 C535 C 1.37472 1.18829 0.86380
 N536 N 1.36366 1.19515 0.88141
 C537 C 1.34953 1.17985 0.88744
 C538 C 1.32372 1.13566 0.88400
 N539 N 1.31809 1.11697 0.87517
 C540 C 1.33118 1.11347 0.85804
 H541 H 1.36352 1.10954 0.81804
 H542 H 1.39770 1.16764 0.82130
 H543 H 1.38700 1.19698 0.85505
 H544 H 1.33837 1.18085 0.90085
 H545 H 1.31555 1.14323 0.89728
 H546 H 1.33000 1.10012 0.84743
 C547 C 0.84050 0.65130 0.82355
 C548 C 0.82265 0.65146 0.83793
 C549 C 0.82142 0.66691 0.85343
 C550 C 0.83769 0.68202 0.85515
 C551 C 0.85527 0.68178 0.84138
 C552 C 0.85664 0.66636 0.82543
 C553 C 0.84620 0.63888 0.80624
 N554 N 0.86526 0.64610 0.79779
 C555 C 0.87169 0.66277 0.80953
 C556 C 0.86826 0.69859 0.84680
 N557 N 0.85879 0.70885 0.86352
 C558 C 0.84009 0.69883 0.86861
 C559 C 0.80256 0.66409 0.86478
 N560 N 0.79211 0.64717 0.85697
 C561 C 0.80417 0.63921 0.84047
 H562 H 0.83713 0.62561 0.80037
 H563 H 0.88625 0.67182 0.80654
 H564 H 0.88319 0.70314 0.83887
 H565 H 0.82894 0.70356 0.88118
 H566 H 0.79676 0.67375 0.87787
 H567 H 0.79970 0.62587 0.83082
 C568 C 0.88858 1.10926 0.35333
 C569 C 0.86971 1.11148 0.36574
 C570 C 0.86644 1.12933 0.37808
 C571 C 0.88230 1.14520 0.37825
 C572 C 0.90108 1.14276 0.36617
 C573 C 0.90420 1.12476 0.35359
 C574 C 0.89425 1.09531 0.33750
 N575 N 0.91286 1.10213 0.32800
 C576 C 0.91920 1.11996 0.33796
 C577 C 0.91272 1.16107 0.36782
 N578 N 0.90156 1.17470 0.38051
 C579 C 0.88288 1.16517 0.38702
 C580 C 0.84586 1.12790 0.38682
 N581 N 0.83678 1.10960 0.38005
 C582 C 0.85127 1.09957 0.36715
 H583 H 0.88463 1.08206 0.33252
 H584 H 0.93272 1.12971 0.33298
 H585 H 0.92789 1.16458 0.35975
 H586 H 0.87036 1.17227 0.39692
 H587 H 0.83806 1.13959 0.39690
 H588 H 0.84834 1.08488 0.35894
 C589 C 0.63767 0.37776 0.33336
 C590 C 0.65091 0.37951 0.35095
 C591 C 0.65301 0.36278 0.36502
 C592 C 0.64126 0.34416 0.36188
 C593 C 0.62800 0.34238 0.34443
 C594 C 0.62636 0.35934 0.32983
 C595 C 0.63446 0.39110 0.31647
 N596 N 0.62155 0.38140 0.30245
 C597 C 0.61634 0.36189 0.31046
 C598 C 0.61923 0.32234 0.34528
 N599 N 0.62665 0.31211 0.36283
 C600 C 0.64032 0.32530 0.37294
 C601 C 0.66875 0.36829 0.37921
 N602 N 0.67604 0.38794 0.37387
 C603 C 0.66503 0.39496 0.35679
 H604 H 0.64164 0.40658 0.31420
 H605 H 0.60666 0.35015 0.30267
 H606 H 0.60820 0.31568 0.33400
 H607 H 0.64917 0.32157 0.38716
 H608 H 0.67488 0.35842 0.39193
 H609 H 0.66804 0.40975 0.34846
 C610 C 0.66153 0.85827 0.83860
 C611 C 0.67414 0.85905 0.85683
 C612 C 0.67066 0.84472 0.87311
 C613 C 0.65475 0.82928 0.87133
 C614 C 0.64235 0.82818 0.85326
 C615 C 0.64566 0.84302 0.83672
 C616 C 0.66180 0.87009 0.82026
 N617 N 0.64641 0.86269 0.80723
 C618 C 0.63644 0.84604 0.81707
 C619 C 0.62925 0.81063 0.85571
 N620 N 0.63357 0.80137 0.87480
 C621 C 0.64902 0.81277 0.88439
 C622 C 0.68584 0.84841 0.88831
 N623 N 0.69859 0.86456 0.88157
 C624 C 0.69148 0.87129 0.86232
 H625 H 0.67243 0.88323 0.81662
 H626 H 0.62364 0.83666 0.81048
 H627 H 0.61784 0.80492 0.84428
 H628 H 0.65606 0.80888 0.89957
 H629 H 0.68796 0.83952 0.90291
 H630 H 0.69853 0.88377 0.85269
 C631 C 0.14315 0.37020 0.83262
 C632 C 0.15375 0.37013 0.85215
 C633 C 0.15029 0.35375 0.86641
 C634 C 0.13656 0.33716 0.86135
 C635 C 0.12616 0.33700 0.84211
 C636 C 0.12944 0.35376 0.82759
 C637 C 0.14358 0.38396 0.81559
 N638 N 0.13048 0.37643 0.80033
 C639 C 0.12181 0.35785 0.80754
 C640 C 0.11453 0.31841 0.84151
 N641 N 0.11793 0.30740 0.85981
 C642 C 0.13127 0.31893 0.87206
 C643 C 0.16316 0.35710 0.88357
 N644 N 0.17462 0.37501 0.88006
 C645 C 0.16892 0.38323 0.86088
 H646 H 0.15278 0.39848 0.81440
 H647 H 0.11078 0.34788 0.79909
 H648 H 0.10468 0.31307 0.82857
 H649 H 0.13680 0.31460 0.88771
 H650 H 0.16471 0.34682 0.89732
 H651 H 0.17551 0.39737 0.85354
 C652 C 0.16755 0.85982 0.33549
 C653 C 0.18333 0.85875 0.35127
 C654 C 0.18384 0.84161 0.36497
 C655 C 0.16866 0.82543 0.36327
 C656 C 0.15294 0.82635 0.34786
 C657 C 0.15245 0.84379 0.33366
 C658 C 0.16365 0.87443 0.31970
 N659 N 0.14667 0.86786 0.30811
 C660 C 0.13963 0.84909 0.31655
 C661 C 0.14081 0.80804 0.35016
 N662 N 0.14902 0.79634 0.36650
 C663 C 0.16603 0.80688 0.37444
 C664 C 0.20106 0.84424 0.37819
 N665 N 0.21107 0.86263 0.37297
 C666 C 0.20037 0.87168 0.35644
 H667 H 0.17273 0.88879 0.31671
 H668 H 0.12632 0.83982 0.31082
 H669 H 0.12736 0.80348 0.34044
 H670 H 0.17591 0.80134 0.38744
 H671 H 0.20614 0.83342 0.39061
 H672 H 0.20481 0.88627 0.34844
 O673 O 0.99366 0.92753 0.89700
 O674 O 0.99522 0.90301 0.87224
 C675 C 0.98715 0.92019 0.87958
 C676 C 0.96975 0.93169 0.86819
 C677 C 0.96398 0.92594 0.84752
 H678 H 0.97273 0.91328 0.83953
 O679 O 1.02910 1.08183 0.90041
 O680 O 1.03047 1.10692 0.87588
 C681 C 1.03754 1.08950 0.88352
 C682 C 1.05586 1.07803 0.87291
 C683 C 1.06403 1.08478 0.85298
 H684 H 1.05658 1.09819 0.84504
 O685 O 0.90319 0.98210 0.92449
 O686 O 0.87939 0.98190 0.89876
 C687 C 0.88618 0.97475 0.91635
 C688 C 0.87436 0.95743 0.92720
 C689 C 0.85358 0.95193 0.92067
 H690 H 0.84589 0.96086 0.90805
 O691 O 1.11279 1.02288 0.93158
 O692 O 1.14013 1.02500 0.90873
 C693 C 1.13073 1.03092 0.92582
 C694 C 1.14081 1.04743 0.93893
 C695 C 1.16228 1.05340 0.93472
 H696 H 1.17148 1.04501 0.92265
 O697 O 0.93088 0.89368 0.97786
 O698 O 0.90643 0.86859 0.97550
 C699 C 0.92427 0.87671 0.96944
 C700 C 0.93729 0.86659 0.95219
 C701 C 0.93097 0.84709 0.94358
 H702 H 0.91700 0.83905 0.95024
 O703 O 1.07891 1.10761 0.98962
 O704 O 1.10409 1.13209 0.99111
 C705 C 1.08699 1.12496 0.98296
 C706 C 1.07673 1.13657 0.96515
 C707 C 1.08460 1.15638 0.95829
 H708 H 1.09787 1.16365 0.96651
 O709 O 0.93313 1.02419 0.89648
 O710 O 0.90948 1.02370 0.87063
 C711 C 0.92634 1.03128 0.87885
 C712 C 0.93778 1.04892 0.86812
 C713 C 0.93144 1.05596 0.84800
 H714 H 0.91858 1.04785 0.83994
 O715 O 1.08908 0.98184 0.89809
 O716 O 1.11633 0.98384 0.87518
 C717 C 1.09864 0.97549 0.88122
 C718 C 1.08923 0.95770 0.86919
 C719 C 1.09889 0.95001 0.85031
 H720 H 1.11310 0.95779 0.84378
 O721 O 1.03480 0.89954 0.92787
 O722 O 1.03693 0.87464 0.90354
 C723 C 1.04315 0.88245 0.92101
 C724 C 1.06059 0.87187 0.93324
 C725 C 1.06869 0.85201 0.92693
 H726 H 1.06130 0.84407 0.91377
 O727 O 0.98421 1.11033 0.92723
 O728 O 0.98539 1.13579 0.90310
 C729 C 0.97690 1.12774 0.91978
 C730 C 0.95810 1.13823 0.93066
 C731 C 0.94983 1.15810 0.92391
 H732 H 0.95755 1.16637 0.91075
 O733 O 0.89637 1.07852 0.97975
 O734 O 0.87031 1.10265 0.97951
 C735 C 0.87897 1.08590 0.97198
 C736 C 0.86917 1.07500 0.95375
 C737 C 0.84960 1.08224 0.94493
 H738 H 0.84151 1.09584 0.95186
 O739 O 1.11693 0.92946 0.98966
 O740 O 1.14308 0.90541 0.99002
 C741 C 1.13506 0.92256 0.98276
 C742 C 1.14654 0.93402 0.96547
 C743 C 1.16760 0.92792 0.95948
 H744 H 1.17592 0.91560 0.96836
 O745 O 0.98710 1.08128 0.89858
 O746 O 0.98814 1.10644 0.87412
 C747 C 0.98073 1.08894 0.88107
 C748 C 0.96417 1.07743 0.86914
 C749 C 0.95750 1.08445 0.84902
 H750 H 0.96523 1.09807 0.84180
 O751 O 1.03597 0.92556 0.89568
 O752 O 1.03769 0.90077 0.87123
 C753 C 1.04440 0.91807 0.87867
 C754 C 1.06257 0.92941 0.86798
 C755 C 1.07239 0.92181 0.84911
 H756 H 1.06616 0.90759 0.84208
 O757 O 1.11545 0.98186 0.92985
 O758 O 1.14281 0.98396 0.90704
 C759 C 1.13421 0.97589 0.92365
 C760 C 1.14597 0.95937 0.93593
 C761 C 1.16699 0.95266 0.92986
 H762 H 1.17495 0.95987 0.91622
 O763 O 0.90182 1.02354 0.92428
 O764 O 0.87818 1.02316 0.89842
 C765 C 0.88452 1.03052 0.91595
 C766 C 0.87196 1.04774 0.92646
 C767 C 0.85238 1.05507 0.91796
 H768 H 0.84606 1.04753 0.90399
 O769 O 0.92584 1.10731 0.98199
 O770 O 0.89986 1.13153 0.98208
 C771 C 0.91802 1.12468 0.97509
 C772 C 0.92975 1.13669 0.95825
 C773 C 0.92213 1.15662 0.95167
 H774 H 0.90818 1.16367 0.95966
 O775 O 1.08850 0.89989 0.98754
 O776 O 1.11453 0.87569 0.98771
 C777 C 1.09707 0.88310 0.98003
 C778 C 1.08685 0.87222 0.96199
 C779 C 1.09468 0.85235 0.95533
 H780 H 1.10790 0.84474 0.96367
 O781 O 1.08555 1.02334 0.90076
 O782 O 1.11271 1.02538 0.87771
 C783 C 1.09423 1.03175 0.88440
 C784 C 1.08306 1.04945 0.87328
 C785 C 1.09064 1.05624 0.85332
 H786 H 1.10411 1.04796 0.84573
 O787 O 0.93486 0.98286 0.89688
 O788 O 0.91115 0.98256 0.87108
 C789 C 0.92860 0.97574 0.87923
 C790 C 0.94146 0.95914 0.86812
 C791 C 0.93631 0.95349 0.84737
 H792 H 0.92335 0.96177 0.83926
 O793 O 1.02623 1.10939 0.93058
 O794 O 1.02779 1.13477 0.90637
 C795 C 1.03395 1.12678 0.92389
 C796 C 1.05073 1.13742 0.93632
 C797 C 1.05864 1.15723 0.92985
 H798 H 1.05122 1.16524 0.91655
 O799 O 0.99258 0.89669 0.92438
 O800 O 0.99472 0.87198 0.89986
 C801 C 0.98602 0.87933 0.91666
 C802 C 0.96767 0.86782 0.92679
 C803 C 0.96117 0.84826 0.91861
 H804 H 0.97017 0.84122 0.90550
 O805 O 1.10797 1.07765 0.99040
 O806 O 1.13327 1.10203 0.99174
 C807 C 1.12602 1.08499 0.98400
 C808 C 1.13858 1.07377 0.96720
 C809 C 1.16001 1.07968 0.96248
 H810 H 1.16746 1.09221 0.97140
 O811 O 0.90130 0.92311 0.97812
 O812 O 0.87656 0.89825 0.97587
 C813 C 0.88422 0.91602 0.96993
 C814 C 0.87343 0.92851 0.95314
 C815 C 0.85268 0.92309 0.94627
 H816 H 0.84425 0.91009 0.95395
 Cu817 Cu 1.01412 0.91475 0.91358
 Cu818 Cu 1.01628 0.88512 0.88438
 Cu819 Cu 1.00649 1.09324 0.91662
 Cu820 Cu 1.00814 1.12356 0.88744
 Cu821 Cu 0.92062 1.00320 0.91316
 Cu822 Cu 0.89217 1.00271 0.88214
 Cu823 Cu 1.09790 1.00214 0.91722
 Cu824 Cu 1.13065 1.00485 0.88979
 C825 C 0.95838 0.94835 0.87833
 H826 H 0.96237 0.95262 0.89441
 C827 C 0.94725 0.93688 0.83706
 C828 C 1.06550 1.06029 0.88287
 H829 H 1.05965 1.05518 0.89836
 C830 C 1.08143 1.07387 0.84312
 C831 C 0.88409 0.94578 0.94358
 H832 H 0.90023 0.94986 0.94854
 C833 C 0.84271 0.93474 0.92996
 C834 C 1.12910 1.05754 0.95537
 H835 H 1.11247 1.05309 0.95865
 C836 C 1.17192 1.06971 0.94620
 C837 C 0.95572 0.87679 0.94370
 H838 H 0.96049 0.89198 0.94992
 C839 C 0.94276 0.83791 0.92663
 C840 C 1.05973 1.12729 0.95408
 H841 H 1.05387 1.11185 0.95897
 C842 C 1.07585 1.16667 0.94048
 C843 C 0.95429 1.05959 0.87845
 H844 H 0.95906 1.05432 0.89411
 C845 C 0.94103 1.07374 0.83838
 C846 C 1.07095 0.94745 0.87757
 H847 H 1.06360 0.95313 0.89220
 C848 C 1.09053 0.93215 0.83993
 C849 C 1.06971 0.88184 0.95089
 H850 H 1.06374 0.89729 0.95575
 C851 C 1.08591 0.84227 0.93774
 C852 C 0.94787 1.12777 0.94786
 H853 H 0.95372 1.11232 0.95288
 C854 C 0.93181 1.16739 0.93449
 C855 C 0.88006 1.05765 0.94447
 H856 H 0.89529 1.05219 0.95095
 C857 C 0.84098 1.07222 0.92703
 C858 C 1.13594 0.94994 0.95380
 H859 H 1.11959 0.95461 0.95833
 C860 C 1.17783 0.93687 0.94164
 O861 O 1.02206 0.91966 1.11016
 O862 O 1.02089 0.89396 1.13403
 C863 C 1.02846 0.91156 1.12755
 C864 C 1.04531 0.92238 1.14006
 C865 C 1.05266 0.91338 1.15911
 H866 H 1.04538 0.89888 1.16502
 O867 O 0.97485 1.07176 1.11027
 O868 O 0.97197 1.09533 1.13590
 C869 C 0.96616 1.07806 1.12749
 C870 C 0.94923 1.06505 1.13780
 C871 C 0.94447 1.06718 1.15952
 H872 H 0.95380 1.07817 1.16865
 O873 O 0.89146 1.01659 1.07523
 O874 O 0.86478 1.01601 1.09890
 C875 C 0.87342 1.02376 1.08214
 C876 C 0.86267 1.04146 1.07060
 C877 C 0.84127 1.04774 1.07575
 H878 H 0.83230 1.03939 1.08806
 O879 O 1.10744 0.97968 1.08915
 O880 O 1.13122 0.98006 1.11488
 C881 C 1.12501 0.97305 1.09716
 C882 C 1.13811 0.95663 1.08606
 C883 C 1.15765 0.94951 1.09466
 H884 H 1.16347 0.95661 1.10908
 O885 O 1.08624 0.89780 1.02874
 O886 O 1.11221 0.87356 1.02886
 C887 C 1.09384 0.88023 1.03539
 C888 C 1.08123 0.86758 1.05102
 C889 C 1.08793 0.84703 1.05669
 H890 H 1.10228 0.84018 1.04922
 O891 O 0.92249 1.10602 1.02348
 O892 O 0.89658 1.13032 1.02366
 C893 C 0.91394 1.12271 1.03127
 C894 C 0.92433 1.13293 1.04957
 C895 C 0.91779 1.15320 1.05668
 H896 H 0.90505 1.16182 1.04863
 O897 O 0.91964 0.97397 1.10422
 O898 O 0.89291 0.97280 1.12783
 C899 C 0.91110 0.96595 1.12088
 C900 C 0.92242 0.94832 1.13200
 C901 C 0.91378 0.93947 1.15086
 H902 H 0.89891 0.94584 1.15769
 O903 O 1.07431 1.01879 1.11827
 O904 O 1.09794 1.01918 1.14411
 C905 C 1.08057 1.02602 1.13590
 C906 C 1.06782 1.04313 1.14633
 C907 C 1.07352 1.05101 1.16632
 H908 H 1.08673 1.04363 1.17481
 O909 O 0.98228 0.89082 1.07829
 O910 O 0.98107 0.86519 1.10224
 C911 C 0.97461 0.87326 1.08491
 C912 C 0.95770 0.86248 1.07247
 C913 C 0.94949 0.84253 1.07872
 H914 H 0.95573 0.83452 1.09264
 O915 O 1.01783 1.10285 1.08475
 O916 O 1.01489 1.12689 1.10990
 C917 C 1.02385 1.12009 1.09293
 C918 C 1.04172 1.13207 1.08276
 C919 C 1.04754 1.15202 1.09033
 H920 H 1.03843 1.15905 1.10338
 O921 O 0.89728 0.91955 1.01915
 O922 O 0.87273 0.89453 1.01701
 C923 C 0.87935 0.91156 1.02523
 C924 C 0.86640 0.92232 1.04214
 C925 C 0.84562 0.91521 1.04845
 H926 H 0.83859 0.90167 1.04078
 O927 O 1.10576 1.07681 1.03193
 O928 O 1.13097 1.10130 1.03307
 C929 C 1.12297 1.08399 1.03988
 C930 C 1.13362 1.07263 1.05762
 C931 C 1.15390 1.07934 1.06442
 H932 H 1.16214 1.09208 1.05605
 O933 O 1.01667 1.07365 1.11388
 O934 O 1.01359 1.09770 1.13902
 C935 C 1.02220 1.08086 1.13177
 C936 C 1.03916 1.06991 1.14411
 C937 C 1.04484 1.07740 1.16415
 H938 H 1.03618 1.09082 1.17094
 O939 O 0.97991 0.92034 1.10656
 O940 O 0.97866 0.89483 1.13066
 C941 C 0.97140 0.91223 1.12311
 C942 C 0.95237 0.92264 1.13327
 C943 C 0.94383 0.91450 1.15231
 H944 H 0.95184 0.90127 1.16009
 O945 O 1.10480 1.02086 1.08971
 O946 O 1.12874 1.02142 1.11527
 C947 C 1.12165 1.02867 1.09776
 C948 C 1.13285 1.04638 1.08652
 C949 C 1.15288 1.05402 1.09356
 H950 H 1.16044 1.04696 1.10734
 O951 O 0.89192 0.97515 1.07393
 O952 O 0.86505 0.97450 1.09741
 C953 C 0.87393 0.96773 1.08041
 C954 C 0.86366 0.95051 1.06850
 C955 C 0.84280 0.94372 1.07406
 H956 H 0.83370 0.95187 1.08645
 O957 O 1.07662 1.10655 1.03115
 O958 O 1.10170 1.13112 1.03266
 C959 C 1.08380 1.12347 1.03915
 C960 C 1.07130 1.13382 1.05657
 C961 C 1.07721 1.15368 1.06463
 H962 H 1.09072 1.16206 1.05748
 O963 O 0.92932 0.89265 1.01929
 O964 O 0.90494 0.86747 1.01706
 C965 C 0.92185 0.87494 1.02542
 C966 C 0.93247 0.86324 1.04289
 C967 C 0.92518 0.84308 1.04885
 H968 H 0.91250 0.83560 1.03995
 O969 O 1.07604 0.97728 1.11668
 O970 O 1.09965 0.97731 1.14253
 C971 C 1.08306 0.96945 1.13390
 C972 C 1.07208 0.95058 1.14337
 C973 C 1.07933 0.94115 1.16237
 H974 H 1.09278 0.94816 1.17042
 O975 O 0.91932 1.01516 1.10551
 O976 O 0.89292 1.01400 1.12950
 C977 C 0.91092 1.02133 1.12295
 C978 C 0.92228 1.03721 1.13561
 C979 C 0.91759 1.03955 1.15733
 H980 H 0.90551 1.02955 1.16492
 O981 O 0.97582 1.10233 1.08245
 O982 O 0.97295 1.12608 1.10790
 C983 C 0.96745 1.11924 1.08990
 C984 C 0.95099 1.13112 1.07778
 C985 C 0.94487 1.15158 1.08409
 H986 H 0.95278 1.15891 1.09736
 O987 O 1.02464 0.89235 1.07961
 O988 O 1.02349 0.86652 1.10336
 C989 C 1.03194 0.87491 1.08683
 C990 C 1.05082 0.86477 1.07609
 C991 C 1.05778 0.84421 1.08167
 H992 H 1.04895 0.83568 1.09390
 O993 O 1.11534 0.92719 1.03127
 O994 O 1.14140 0.90308 1.03166
 C995 C 1.13270 0.91980 1.03917
 C996 C 1.14222 0.93055 1.05771
 C997 C 1.16198 0.92365 1.06656
 H998 H 1.17082 0.91055 1.05944
 O999 O 0.89504 1.07539 1.02097
 O1000 O 0.86889 1.09945 1.02078
 C1001 C 0.87667 1.08196 1.02755
 C1002 C 0.86431 1.06945 1.04352
 C1003 C 0.84281 1.07501 1.04845
 H1004 H 0.83506 1.08799 1.04002
 Cu1005 Cu 1.00239 0.90827 1.09123
 Cu1006 Cu 1.00091 0.87761 1.12001
 Cu1007 Cu 0.99657 1.08523 1.09529
 Cu1008 Cu 0.99294 1.11394 1.12569
 Cu1009 Cu 0.91711 0.90973 0.99885
 Cu1010 Cu 0.88779 0.87963 0.99609
 Cu1011 Cu 1.09922 0.91608 1.00942
 Cu1012 Cu 1.13048 0.88708 1.00960
 Cu1013 Cu 0.91258 1.08946 1.00155
 Cu1014 Cu 0.88132 1.11844 1.00157
 Cu1015 Cu 1.08973 1.08978 1.01062
 Cu1016 Cu 1.12005 1.11906 1.01225
 Cu1017 Cu 0.90821 0.99535 1.08732
 Cu1018 Cu 0.87617 0.99431 1.11574
 Cu1019 Cu 1.08820 0.99915 1.10099
 Cu1020 Cu 1.11671 0.99954 1.13183
 C1021 C 1.05496 0.94110 1.13248
 H1022 H 1.04951 0.94798 1.11768
 C1023 C 1.06961 0.92250 1.17044
 C1024 C 0.93818 1.04995 1.12601
 H1025 H 0.94180 1.04828 1.10922
 C1026 C 0.92864 1.05443 1.16945
 C1027 C 0.87403 1.05245 1.05444
 H1028 H 0.89065 1.04809 1.05068
 C1029 C 0.83129 1.06446 1.06457
 C1030 C 1.13064 0.94724 1.06749
 H1031 H 1.11535 0.95250 1.06102
 C1032 C 1.16978 0.93321 1.08508
 C1033 C 1.06254 0.87619 1.06061
 H1034 H 1.05742 0.89214 1.05641
 C1035 C 1.07623 0.83508 1.07177
 C1036 C 0.94093 1.12204 1.06031
 H1037 H 0.94574 1.10625 1.05536
 C1038 C 0.92829 1.16261 1.07384
 C1039 C 0.94175 0.93975 1.12335
 H1040 H 0.94825 0.94605 1.10856
 C1041 C 0.92448 0.92252 1.16100
 C1042 C 1.05054 1.05264 1.13547
 H1043 H 1.04634 1.04699 1.11989
 C1044 C 1.06211 1.06830 1.17527
 C1045 C 0.94900 0.87266 1.05453
 H1046 H 0.95467 0.88826 1.04995
 C1047 C 0.93332 0.83277 1.06680
 C1048 C 1.05353 1.12323 1.06577
 H1049 H 1.04913 1.10776 1.05996
 C1050 C 1.06529 1.16285 1.08154
 C1051 C 0.87518 0.93995 1.05235
 H1052 H 0.89132 0.94520 1.04804
 C1053 C 0.83373 0.92606 1.06436
 C1054 C 1.12334 1.05591 1.06854
 H1055 H 1.10769 1.05061 1.06328
 C1056 C 1.16347 1.07041 1.08238
 O1057 O 0.97480 0.41742 0.38884
 O1058 O 0.97516 0.39226 0.36472
 C1059 C 0.96765 0.40968 0.37178
 C1060 C 0.95000 0.42066 0.36031
 C1061 C 0.94351 0.41335 0.34047
 H1062 H 0.95208 0.40017 0.33312
 O1063 O 1.02061 0.56843 0.38485
 O1064 O 1.02121 0.59186 0.35868
 C1065 C 1.02790 0.57466 0.36693
 C1066 C 1.04444 0.56172 0.35581
 C1067 C 1.04900 0.56476 0.33410
 H1068 H 1.04031 0.57691 0.32540
 O1069 O 0.88855 0.47525 0.41751
 O1070 O 0.86330 0.47524 0.39316
 C1071 C 0.87076 0.46840 0.41067
 C1072 C 0.85913 0.45200 0.42319
 C1073 C 0.83758 0.44667 0.41888
 H1074 H 0.82905 0.45513 0.40652
 O1075 O 1.10476 0.51319 0.41717
 O1076 O 1.13038 0.51264 0.39240
 C1077 C 1.12231 0.52043 0.40939
 C1078 C 1.13325 0.53841 0.41982
 C1079 C 1.15336 0.54541 0.41201
 H1080 H 1.16119 0.53725 0.39885
 O1081 O 0.91838 0.39119 0.47576
 O1082 O 0.89303 0.36678 0.47684
 C1083 C 0.91076 0.37381 0.46930
 C1084 C 0.92246 0.36188 0.45255
 C1085 C 0.91672 0.34101 0.44786
 H1086 H 0.90394 0.33335 0.45700
 O1087 O 1.07621 0.60230 0.47074
 O1088 O 1.10113 0.62708 0.46972
 C1089 C 1.08381 0.61925 0.46262
 C1090 C 1.07273 0.62931 0.44424
 C1091 C 1.07932 0.64915 0.43607
 H1092 H 1.09197 0.65771 0.44393
 O1093 O 0.92032 0.51404 0.38733
 O1094 O 0.89566 0.51425 0.36239
 C1095 C 0.91341 0.52097 0.36977
 C1096 C 0.92585 0.53740 0.35810
 C1097 C 0.92000 0.54329 0.33750
 H1098 H 0.90683 0.53524 0.32984
 O1099 O 1.07667 0.47063 0.38907
 O1100 O 1.10228 0.46982 0.36429
 C1101 C 1.08448 0.46296 0.37195
 C1102 C 1.07266 0.44583 0.36107
 C1103 C 1.07922 0.43864 0.34079
 H1104 H 1.09288 0.44597 0.33278
 O1105 O 1.01653 0.38815 0.41860
 O1106 O 1.01658 0.36303 0.39442
 C1107 C 1.02373 0.37058 0.41153
 C1108 C 1.04093 0.35899 0.42299
 C1109 C 1.04698 0.33843 0.41688
 H1110 H 1.03846 0.33072 0.40420
 O1111 O 0.97921 0.59967 0.41312
 O1112 O 0.97994 0.62332 0.38717
 C1113 C 0.97230 0.61678 0.40484
 C1114 C 0.95458 0.62873 0.41537
 C1115 C 0.94696 0.64772 0.40646
 H1116 H 0.95497 0.65435 0.39251
 O1117 O 0.89102 0.57396 0.46803
 O1118 O 0.86621 0.59935 0.46768
 C1119 C 0.87357 0.58178 0.46079
 C1120 C 0.86190 0.57066 0.44387
 C1121 C 0.84194 0.57852 0.43686
 H1122 H 0.83471 0.59232 0.44441
 O1123 O 1.10410 0.41539 0.47269
 O1124 O 1.12873 0.38986 0.47341
 C1125 C 1.12174 0.40731 0.46582
 C1126 C 1.13379 0.41840 0.44862
 C1127 C 1.15401 0.41092 0.44108
 H1128 H 1.16135 0.39707 0.44835
 O1129 O 0.97847 0.56935 0.38568
 O1130 O 0.97917 0.59293 0.35966
 C1131 C 0.97139 0.57620 0.36806
 C1132 C 0.95380 0.56470 0.35736
 C1133 C 0.94733 0.57064 0.33682
 H1134 H 0.95563 0.58335 0.32851
 O1135 O 1.01725 0.41737 0.38957
 O1136 O 1.01751 0.39234 0.36532
 C1137 C 1.02497 0.40952 0.37256
 C1138 C 1.04316 0.42017 0.36135
 C1139 C 1.04973 0.41349 0.34110
 H1140 H 1.04092 0.40099 0.33339
 O1141 O 1.10601 0.47163 0.41798
 O1142 O 1.13177 0.47110 0.39334
 C1143 C 1.12382 0.46424 0.41073
 C1144 C 1.13491 0.44687 0.42216
 C1145 C 1.15522 0.43952 0.41514
 H1146 H 1.16337 0.44741 0.40196
 O1147 O 0.88848 0.51659 0.41425
 O1148 O 0.86348 0.51683 0.38966
 C1149 C 0.87126 0.52446 0.40647
 C1150 C 0.86068 0.54295 0.41698
 C1151 C 0.84084 0.55142 0.40980
 H1152 H 0.83271 0.54401 0.39674
 O1153 O 0.92075 0.60268 0.46750
 O1154 O 0.89597 0.62806 0.46688
 C1155 C 0.91348 0.61993 0.45974
 C1156 C 0.92528 0.63014 0.44183
 C1157 C 0.91737 0.64882 0.43219
 H1158 H 0.90280 0.65643 0.43832
 O1159 O 1.07394 0.38718 0.47315
 O1160 O 1.09826 0.36138 0.47408
 C1161 C 1.08108 0.36942 0.46649
 C1162 C 1.06933 0.35836 0.44954
 C1163 C 1.07550 0.33784 0.44289
 H1164 H 1.08868 0.32965 0.45067
 O1165 O 1.07658 0.51174 0.38719
 O1166 O 1.10210 0.51086 0.36228
 C1167 C 1.08422 0.51807 0.36944
 C1168 C 1.07216 0.53407 0.35714
 C1169 C 1.07675 0.53736 0.33552
 H1170 H 1.08920 0.52793 0.32765
 O1171 O 0.91707 0.47293 0.38698
 O1172 O 0.89216 0.47283 0.36232
 C1173 C 0.90951 0.46531 0.37001
 C1174 C 0.92107 0.44738 0.35949
 C1175 C 0.91444 0.43948 0.33975
 H1176 H 0.90088 0.44682 0.33176
 O1177 O 1.02134 0.59827 0.41315
 O1178 O 1.02204 0.62187 0.38717
 C1179 C 1.02896 0.61511 0.40491
 C1180 C 1.04607 0.62697 0.41597
 C1181 C 1.05273 0.64684 0.40828
 H1182 H 1.04507 0.65364 0.39441
 O1183 O 0.97445 0.38904 0.41881
 O1184 O 0.97459 0.36373 0.39482
 C1185 C 0.96719 0.37163 0.41199
 C1186 C 0.94982 0.36078 0.42420
 C1187 C 0.94377 0.33989 0.41953
 H1188 H 0.95238 0.33140 0.40712
 O1189 O 1.10458 0.57203 0.47135
 O1190 O 1.12990 0.59643 0.47001
 C1191 C 1.12211 0.57908 0.46337
 C1192 C 1.13317 0.56718 0.44589
 C1193 C 1.15319 0.57403 0.43751
 H1194 H 1.16098 0.58758 0.44442
 O1195 O 0.88913 0.42093 0.47498
 O1196 O 0.86361 0.39667 0.47587
 C1197 C 0.87138 0.41376 0.46830
 C1198 C 0.85967 0.42537 0.45153
 C1199 C 0.83814 0.42047 0.44726
 H1200 H 0.82998 0.40831 0.45655
 Cu1201 Cu 0.99568 0.40554 0.40635
 Cu1202 Cu 0.99598 0.37539 0.37731
 Cu1203 Cu 0.99992 0.58154 0.40180
 Cu1204 Cu 1.00074 0.60991 0.37059
 Cu1205 Cu 0.90598 0.49461 0.40399
 Cu1206 Cu 0.87617 0.49481 0.37441
 Cu1207 Cu 1.08847 0.49185 0.40537
 Cu1208 Cu 1.11933 0.49107 0.37571
 C1209 C 0.93887 0.43781 0.36956
 H1210 H 0.94383 0.44345 0.38492
 C1211 C 0.92572 0.42244 0.33014
 C1212 C 1.05588 0.54616 0.36710
 H1213 H 1.05248 0.54380 0.38387
 C1214 C 1.06491 0.55230 0.32378
 C1215 C 0.86998 0.44127 0.43959
 H1216 H 0.88668 0.44502 0.44283
 C1217 C 0.82700 0.43091 0.43101
 C1218 C 1.12333 0.54929 0.43691
 H1219 H 1.10772 0.54410 0.44292
 C1220 C 1.16329 0.56328 0.42048
 C1221 C 0.93909 0.37156 0.44076
 H1222 H 0.94344 0.38776 0.44425
 C1223 C 0.92718 0.32989 0.43139
 C1224 C 1.05602 0.61844 0.43407
 H1225 H 1.05106 0.60303 0.43999
 C1226 C 1.06935 0.65801 0.41803
 C1227 C 0.94296 0.54801 0.36784
 H1228 H 0.94750 0.54361 0.38382
 C1229 C 0.93041 0.55997 0.32688
 C1230 C 1.05458 0.43647 0.37114
 H1231 H 1.04960 0.44162 0.38685
 C1232 C 1.06771 0.42245 0.33071
 C1233 C 1.05201 0.36873 0.43948
 H1234 H 1.04741 0.38466 0.44416
 C1235 C 1.06429 0.32781 0.42652
 C1236 C 0.94394 0.62029 0.43330
 H1237 H 0.94975 0.60554 0.44016
 C1238 C 0.92823 0.65758 0.41446
 C1239 C 0.87101 0.55274 0.43402
 H1240 H 0.88648 0.54668 0.43936
 C1241 C 0.83140 0.56925 0.41979
 C1242 C 1.12448 0.43644 0.43908
 H1243 H 1.10867 0.44203 0.44441
 C1244 C 1.16474 0.42146 0.42424
 O1245 O 1.01591 0.42363 0.59997
 O1246 O 1.01553 0.39956 0.62555
 C1247 C 1.02325 0.41633 0.61730
 C1248 C 1.04132 0.42709 0.62773
 C1249 C 1.04756 0.42089 0.64815
 H1250 H 1.03856 0.40870 0.65660
 O1251 O 0.97256 0.57509 0.59912
 O1252 O 0.97285 0.60008 0.62335
 C1253 C 0.96487 0.58319 0.61616
 C1254 C 0.94599 0.57315 0.62713
 C1255 C 0.93688 0.58152 0.64608
 H1256 H 0.94417 0.59523 0.65316
 O1257 O 0.88713 0.52057 0.56796
 O1258 O 0.86053 0.52149 0.59172
 C1259 C 0.86907 0.52804 0.57438
 C1260 C 0.85828 0.54471 0.56156
 C1261 C 0.83663 0.55070 0.56569
 H1262 H 0.82758 0.54249 0.57801
 O1263 O 1.10530 0.47485 0.56671
 O1264 O 1.13010 0.47457 0.59149
 C1265 C 1.12255 0.46715 0.57444
 C1266 C 1.13340 0.44893 0.56379
 C1267 C 1.15362 0.44125 0.57062
 H1268 H 1.16182 0.44952 0.58307
 O1269 O 1.07232 0.38905 0.51444
 O1270 O 1.09652 0.36314 0.51560
 C1271 C 1.07900 0.37168 0.52235
 C1272 C 1.06637 0.36168 0.53982
 C1273 C 1.07107 0.34090 0.54657
 H1274 H 1.08353 0.33183 0.53833
 O1275 O 0.92054 0.60266 0.50907
 O1276 O 0.89582 0.62811 0.50844
 C1277 C 0.91308 0.62018 0.51597
 C1278 C 0.92421 0.63118 0.53332
 C1279 C 0.91766 0.65166 0.53933
 H1280 H 0.90494 0.65977 0.53072
 O1281 O 0.91565 0.48043 0.59926
 O1282 O 0.88960 0.48096 0.62359
 C1283 C 0.90761 0.47364 0.61663
 C1284 C 0.91930 0.45675 0.62837
 C1285 C 0.91206 0.44980 0.64849
 H1286 H 0.89795 0.45718 0.65588
 O1287 O 1.07475 0.51672 0.59460
 O1288 O 1.09930 0.51658 0.61965
 C1289 C 1.08164 0.52367 0.61205
 C1290 C 1.06904 0.54013 0.62366
 C1291 C 1.07427 0.54511 0.64457
 H1292 H 1.08740 0.53672 0.65230
 O1293 O 0.97284 0.39488 0.57306
 O1294 O 0.97260 0.37097 0.59879
 C1295 C 0.96531 0.37802 0.58138
 C1296 C 0.94759 0.36672 0.57097
 C1297 C 0.93924 0.34807 0.57998
 H1298 H 0.94632 0.34155 0.59427
 O1299 O 1.01651 0.60166 0.56870
 O1300 O 1.01652 0.62655 0.59307
 C1301 C 1.02407 0.61884 0.57590
 C1302 C 1.04209 0.62987 0.56458
 C1303 C 1.04881 0.64975 0.57162
 H1304 H 1.04030 0.65729 0.58476
 O1305 O 0.88864 0.42208 0.51610
 O1306 O 0.86313 0.39780 0.51683
 C1307 C 0.87076 0.41514 0.52341
 C1308 C 0.85883 0.42705 0.54001
 C1309 C 0.83804 0.42067 0.54633
 H1310 H 0.83049 0.40747 0.53848
 O1311 O 1.10618 0.57415 0.51264
 O1312 O 1.13148 0.59856 0.51171
 C1313 C 1.12387 0.58148 0.51947
 C1314 C 1.13521 0.57001 0.53685
 C1315 C 1.15541 0.57678 0.54443
 H1316 H 1.16326 0.59036 0.53720
 O1317 O 1.01507 0.57158 0.59703
 O1318 O 1.01545 0.59634 0.62153
 C1319 C 1.02259 0.57886 0.61406
 C1320 C 1.04019 0.56703 0.62483
 C1321 C 1.04590 0.57196 0.64570
 H1322 H 1.03676 0.58397 0.65426
 O1323 O 0.97348 0.42524 0.60052
 O1324 O 0.97331 0.40126 0.62618
 C1325 C 0.96604 0.41840 0.61816
 C1326 C 0.94821 0.43002 0.62911
 C1327 C 0.94097 0.42352 0.64930
 H1328 H 0.94973 0.41105 0.65744
 O1329 O 1.10618 0.51656 0.56678
 O1330 O 1.13099 0.51634 0.59154
 C1331 C 1.12363 0.52372 0.57427
 C1332 C 1.13511 0.54126 0.56319
 C1333 C 1.15540 0.54788 0.57012
 H1334 H 1.16318 0.53944 0.58301
 O1335 O 0.88619 0.47931 0.57064
 O1336 O 0.85986 0.48008 0.59468
 C1337 C 0.86830 0.47229 0.57794
 C1338 C 0.85753 0.45465 0.56698
 C1339 C 0.83680 0.44770 0.57344
 H1340 H 0.82824 0.45573 0.58622
 O1341 O 1.07534 0.60240 0.51260
 O1342 O 1.10038 0.62707 0.51192
 C1343 C 1.08285 0.61958 0.51971
 C1344 C 1.07116 0.63042 0.53755
 C1345 C 1.07805 0.65014 0.54542
 H1346 H 1.09182 0.65800 0.53812
 O1347 O 0.91752 0.39227 0.51719
 O1348 O 0.89206 0.36797 0.51825
 C1349 C 0.90952 0.37551 0.52526
 C1350 C 0.92033 0.36524 0.54346
 C1351 C 0.91207 0.34658 0.55274
 H1352 H 0.89787 0.33938 0.54615
 O1353 O 1.07619 0.47566 0.59683
 O1354 O 1.10098 0.47558 0.62164
 C1355 C 1.08338 0.46866 0.61439
 C1356 C 1.07113 0.45222 0.62627
 C1357 C 1.07744 0.44552 0.64667
 H1358 H 1.09120 0.45279 0.65403
 O1359 O 0.91455 0.52161 0.59861
 O1360 O 0.88823 0.52245 0.62266
 C1361 C 0.90617 0.52935 0.61544
 C1362 C 0.91720 0.54681 0.62645
 C1363 C 0.90843 0.55527 0.64526
 H1364 H 0.89379 0.54849 0.65206
 O1365 O 0.97429 0.60157 0.56750
 O1366 O 0.97427 0.62683 0.59149
 C1367 C 0.96720 0.61922 0.57429
 C1368 C 0.95034 0.63069 0.56211
 C1369 C 0.94340 0.65113 0.56799
 H1370 H 0.95107 0.65888 0.58111
 O1371 O 1.01488 0.39432 0.57135
 O1372 O 1.01442 0.37016 0.59686
 C1373 C 1.02164 0.37687 0.57907
 C1374 C 1.03822 0.36431 0.56740
 C1375 C 1.04298 0.34347 0.57377
 H1376 H 1.03412 0.33640 0.58698
 O1377 O 1.10315 0.41652 0.51377
 O1378 O 1.12768 0.39090 0.51478
 C1379 C 1.12047 0.40871 0.52125
 C1380 C 1.13218 0.42031 0.53784
 C1381 C 1.15240 0.41300 0.54477
 H1382 H 1.15970 0.39905 0.53757
 O1383 O 0.89035 0.57440 0.50932
 O1384 O 0.86547 0.59973 0.50879
 C1385 C 0.87260 0.58226 0.51618
 C1386 C 0.86017 0.57108 0.53300
 C1387 C 0.83858 0.57675 0.53724
 H1388 H 0.83093 0.58913 0.52788
 Cu1389 Cu 0.99431 0.41201 0.58370
 Cu1390 Cu 0.99401 0.38313 0.61448
 Cu1391 Cu 0.99456 0.58494 0.58081
 Cu1392 Cu 0.99483 0.61490 0.60978
 Cu1393 Cu 0.90608 0.40898 0.49587
 Cu1394 Cu 0.87542 0.37980 0.49696
 Cu1395 Cu 1.08591 0.40455 0.49336
 Cu1396 Cu 1.11524 0.37370 0.49462
 Cu1397 Cu 0.90824 0.58595 0.48851
 Cu1398 Cu 0.87842 0.61641 0.48797
 Cu1399 Cu 1.08806 0.58542 0.49204
 Cu1400 Cu 1.11817 0.61477 0.49071
 Cu1401 Cu 0.90346 0.50041 0.58171
 Cu1402 Cu 0.87192 0.50137 0.61059
 Cu1403 Cu 1.08825 0.49591 0.57866
 Cu1404 Cu 1.11794 0.49589 0.60844
 C1405 C 1.05303 0.44290 0.61700
 H1406 H 1.04830 0.44765 0.60117
 C1407 C 1.06563 0.42981 0.65769
 C1408 C 0.93608 0.55569 0.61768
 H1409 H 0.94274 0.54935 0.60302
 C1410 C 0.91804 0.57254 0.65533
 C1411 C 0.86986 0.55494 0.54509
 H1412 H 0.88662 0.55063 0.54194
 C1413 C 0.82669 0.56676 0.55351
 C1414 C 1.12291 0.43840 0.54731
 H1415 H 1.10718 0.44398 0.54219
 C1416 C 1.16319 0.42319 0.56119
 C1417 C 1.04983 0.37323 0.55027
 H1418 H 1.04634 0.38940 0.54540
 C1419 C 1.05943 0.33175 0.56363
 C1420 C 0.94068 0.62089 0.54468
 H1421 H 0.94564 0.60499 0.54024
 C1422 C 0.92694 0.66165 0.55671
 C1423 C 0.93744 0.44678 0.61888
 H1424 H 0.94285 0.45168 0.60318
 C1425 C 0.92264 0.43301 0.65895
 C1426 C 1.05181 0.55101 0.61397
 H1427 H 1.04773 0.54730 0.59777
 C1428 C 1.06293 0.56099 0.65564
 C1429 C 0.93823 0.37503 0.55257
 H1430 H 0.94447 0.38959 0.54572
 C1431 C 0.92159 0.33785 0.57100
 C1432 C 1.05316 0.62046 0.54737
 H1433 H 1.04800 0.60511 0.54189
 C1434 C 1.06676 0.65990 0.56242
 C1435 C 0.86837 0.44419 0.55023
 H1436 H 0.88450 0.44909 0.54543
 C1437 C 0.82701 0.43066 0.56308
 C1438 C 1.12531 0.55224 0.54639
 H1439 H 1.10961 0.54718 0.54105
 C1440 C 1.16561 0.56563 0.56107
 O1441 O 0.49203 0.93659 0.39281
 O1442 O 0.49102 0.91387 0.36645
 C1443 C 0.48412 0.93071 0.37532
 C1444 C 0.46626 0.94335 0.36583
 C1445 C 0.45767 0.93821 0.34594
 H1446 H 0.46488 0.92539 0.33687
 O1447 O 0.53945 1.08807 0.40726
 O1448 O 0.53973 1.11448 0.38412
 C1449 C 0.54675 1.09650 0.39026
 C1450 C 0.56383 1.08534 0.37783
 C1451 C 0.57143 1.09348 0.35828
 H1452 H 0.56450 1.10808 0.35224
 O1453 O 0.40604 0.99202 0.42933
 O1454 O 0.38102 0.99613 0.40502
 C1455 C 0.38808 0.98674 0.42144
 C1456 C 0.37561 0.96917 0.43122
 C1457 C 0.35558 0.96312 0.42305
 H1458 H 0.34877 0.97184 0.40982
 O1459 O 0.62249 1.02671 0.42984
 O1460 O 0.64854 1.02776 0.40550
 C1461 C 0.64055 1.03388 0.42312
 C1462 C 0.65213 1.04966 0.43586
 C1463 C 0.67326 1.05602 0.43018
 H1464 H 0.68138 1.04882 0.41667
 O1465 O 0.43192 0.90446 0.47780
 O1466 O 0.40620 0.88058 0.47576
 C1467 C 0.42408 0.88825 0.46905
 C1468 C 0.43583 0.87839 0.45080
 C1469 C 0.42892 0.85899 0.44254
 H1470 H 0.41529 0.85096 0.44989
 O1471 O 0.59534 1.10905 0.49263
 O1472 O 0.62214 1.13180 0.49440
 C1473 C 0.60425 1.12620 0.48660
 C1474 C 0.59380 1.13922 0.46987
 C1475 C 0.60222 1.15890 0.46324
 H1476 H 0.61632 1.16523 0.47091
 O1477 O 0.43842 1.03434 0.40450
 O1478 O 0.41347 1.03839 0.38010
 C1479 C 0.43139 1.04369 0.38804
 C1480 C 0.44398 1.06111 0.37818
 C1481 C 0.43830 1.06917 0.35819
 H1482 H 0.42533 1.06182 0.34965
 O1483 O 0.59281 0.98838 0.39786
 O1484 O 0.61883 0.98943 0.37351
 C1485 C 0.60085 0.98221 0.38023
 C1486 C 0.58939 0.96612 0.36771
 C1487 C 0.59750 0.95977 0.34779
 H1488 H 0.61191 0.96718 0.34121
 O1489 O 0.53331 0.90383 0.41921
 O1490 O 0.53264 0.88089 0.39301
 C1491 C 0.54025 0.88686 0.41058
 C1492 C 0.55762 0.87434 0.42104
 C1493 C 0.56497 0.85480 0.41271
 H1494 H 0.55767 0.84843 0.39864
 O1495 O 0.49799 1.11533 0.43965
 O1496 O 0.49813 1.14177 0.41655
 C1497 C 0.49072 1.13316 0.43344
 C1498 C 0.47283 1.14363 0.44540
 C1499 C 0.46478 1.16328 0.43847
 H1500 H 0.47247 1.17133 0.42513
 O1501 O 0.41005 1.08385 0.49455
 O1502 O 0.38501 1.10893 0.49692
 C1503 C 0.39242 1.09213 0.48834
 C1504 C 0.38076 1.08243 0.47060
 C1505 C 0.36007 1.08979 0.46508
 H1506 H 0.35229 1.10227 0.47426
 O1507 O 0.61819 0.92487 0.48029
 O1508 O 0.64336 0.89997 0.47727
 C1509 C 0.63602 0.91824 0.47244
 C1510 C 0.64822 0.93163 0.45721
 C1511 C 0.66957 0.92620 0.45157
 H1512 H 0.67738 0.91320 0.45980
 O1513 O 0.49740 1.08885 0.40848
 O1514 O 0.49770 1.11520 0.38525
 C1515 C 0.49020 1.09759 0.39177
 C1516 C 0.47271 1.08735 0.37996
 C1517 C 0.46682 1.09514 0.35993
 H1518 H 0.47547 1.10837 0.35284
 O1519 O 0.53443 0.93547 0.39286
 O1520 O 0.53375 0.91274 0.36648
 C1521 C 0.54183 0.92896 0.37513
 C1522 C 0.56052 0.94002 0.36505
 C1523 C 0.56896 0.93377 0.34514
 H1524 H 0.56091 0.92146 0.33650
 O1525 O 0.62061 0.98564 0.42815
 O1526 O 0.64685 0.98667 0.40400
 C1527 C 0.63847 0.97863 0.42074
 C1528 C 0.64940 0.96081 0.43162
 C1529 C 0.67059 0.95478 0.42575
 H1530 H 0.67911 0.96338 0.41327
 O1531 O 0.40863 1.03286 0.43394
 O1532 O 0.38354 1.03691 0.40968
 C1533 C 0.39132 1.04167 0.42755
 C1534 C 0.38031 1.05785 0.44087
 C1535 C 0.35955 1.06529 0.43569
 H1536 H 0.35129 1.05818 0.42256
 O1537 O 0.43970 1.11245 0.49556
 O1538 O 0.41482 1.13770 0.49750
 C1539 C 0.43225 1.13026 0.48938
 C1540 C 0.44375 1.14207 0.47221
 C1541 C 0.43550 1.16148 0.46449
 H1542 H 0.42088 1.16828 0.47144
 O1543 O 0.58823 0.89659 0.47660
 O1544 O 0.61328 0.87158 0.47357
 C1545 C 0.59575 0.88019 0.46743
 C1546 C 0.58431 0.87113 0.44921
 C1547 C 0.59084 0.85144 0.44111
 H1548 H 0.60371 0.84255 0.44872
 O1549 O 0.59282 1.02953 0.40149
 O1550 O 0.61873 1.03072 0.37701
 C1551 C 0.60107 1.03786 0.38491
 C1552 C 0.59027 1.05644 0.37519
 C1553 C 0.59759 1.06466 0.35569
 H1554 H 0.61078 1.05678 0.34726
 O1555 O 0.43637 0.99325 0.40039
 O1556 O 0.41138 0.99739 0.37607
 C1557 C 0.42855 0.98839 0.38258
 C1558 C 0.43921 0.97174 0.36953
 C1559 C 0.43109 0.96659 0.34959
 H1560 H 0.41738 0.97538 0.34340
 O1561 O 0.54024 1.11506 0.43796
 O1562 O 0.54044 1.14157 0.41494
 C1563 C 0.54787 1.13261 0.43144
 C1564 C 0.56602 1.14226 0.44285
 C1565 C 0.57449 1.16191 0.43647
 H1566 H 0.56664 1.17068 0.42390
 O1567 O 0.49108 0.90688 0.42127
 O1568 O 0.49026 0.88384 0.39515
 C1569 C 0.48307 0.89052 0.41298
 C1570 C 0.46491 0.87937 0.42385
 C1571 C 0.45790 0.85986 0.41614
 H1572 H 0.46623 0.85264 0.40271
 O1573 O 0.62272 1.07785 0.49011
 O1574 O 0.64959 1.10050 0.49231
 C1575 C 0.64102 1.08458 0.48367
 C1576 C 0.65234 1.07412 0.46570
 C1577 C 0.67349 1.08001 0.46001
 H1578 H 0.68177 1.09179 0.46925
 O1579 O 0.40191 0.93317 0.48117
 O1580 O 0.37595 0.90954 0.47938
 C1581 C 0.38415 0.92702 0.47347
 C1582 C 0.37356 0.93999 0.45684
 C1583 C 0.35354 0.93408 0.44844
 H1584 H 0.34509 0.92066 0.45527
 Cu1585 Cu 0.51285 0.92300 0.40907
 Cu1586 Cu 0.51178 0.89556 0.37764
 Cu1587 Cu 0.51881 1.09920 0.42569
 Cu1588 Cu 0.51896 1.13098 0.39795
 Cu1589 Cu 0.42488 1.01268 0.41948
 Cu1590 Cu 0.39487 1.01769 0.39025
 Cu1591 Cu 0.60455 1.00745 0.41674
 Cu1592 Cu 0.63581 1.00869 0.38749
 C1593 C 0.45691 0.96019 0.37739
 H1594 H 0.46310 0.96400 0.39288
 C1595 C 0.43996 0.94979 0.33776
 C1596 C 0.57321 1.06671 0.38600
 H1597 H 0.56766 1.06054 0.40120
 C1598 C 0.58821 1.08304 0.34699
 C1599 C 0.38432 0.95762 0.44821
 H1600 H 0.39992 0.96202 0.45436
 C1601 C 0.34454 0.94546 0.43134
 C1602 C 0.64185 1.05879 0.45368
 H1603 H 0.62546 1.05426 0.45796
 C1604 C 0.68400 1.07125 0.44224
 C1605 C 0.45391 0.88846 0.44135
 H1606 H 0.45916 0.90358 0.44735
 C1607 C 0.43989 0.84971 0.42518
 C1608 C 0.57567 1.13118 0.45961
 H1609 H 0.56931 1.11589 0.46437
 C1610 C 0.59279 1.17027 0.44637
 C1611 C 0.46132 1.07021 0.38891
 H1612 H 0.46561 1.06426 0.40448
 C1613 C 0.44953 1.08632 0.34907
 C1614 C 0.57081 0.95628 0.37608
 H1615 H 0.56466 0.96096 0.39157
 C1616 C 0.58762 0.94350 0.33647
 C1617 C 0.56747 0.88233 0.43930
 H1618 H 0.56236 0.89756 0.44557
 C1619 C 0.58153 0.84330 0.42286
 C1620 C 0.46246 1.13329 0.46253
 H1621 H 0.46855 1.11803 0.46786
 C1622 C 0.44596 1.17203 0.44755
 C1623 C 0.39072 1.06638 0.45846
 H1624 H 0.40685 1.06087 0.46238
 C1625 C 0.34942 1.08147 0.44756
 C1626 C 0.63832 0.94915 0.44741
 H1627 H 0.62175 0.95331 0.45162
 C1628 C 0.68066 0.93730 0.43541
 O1629 O 0.53313 0.91319 0.60242
 O1630 O 0.53179 0.88662 0.62534
 C1631 C 0.53991 0.90410 0.61911
 C1632 C 0.55744 0.91394 0.63137
 C1633 C 0.56361 0.90529 0.65095
 H1634 H 0.55531 0.89147 0.65720
 O1635 O 0.49667 1.07239 0.61828
 O1636 O 0.49709 1.09460 0.64512
 C1637 C 0.48934 1.07839 0.63621
 C1638 C 0.47129 1.06662 0.64646
 C1639 C 0.46343 1.07243 0.66667
 H1640 H 0.47137 1.08493 0.67514
 O1641 O 0.40948 1.02028 0.58605
 O1642 O 0.38459 1.01879 0.61151
 C1643 C 0.39215 1.02730 0.59465
 C1644 C 0.38101 1.04591 0.58532
 C1645 C 0.36093 1.05265 0.59355
 H1646 H 0.35317 1.04365 0.60621
 O1647 O 0.62001 0.96991 0.58049
 O1648 O 0.64530 0.96698 0.60468
 C1649 C 0.63743 0.96144 0.58712
 C1650 C 0.64823 0.94456 0.57453
 C1651 C 0.66848 0.93619 0.58043
 H1652 H 0.67669 0.94304 0.59372
 O1653 O 0.58836 0.89054 0.51752
 O1654 O 0.61338 0.86552 0.51443
 C1655 C 0.59574 0.87234 0.52254
 C1656 C 0.58387 0.85941 0.53845
 C1657 C 0.59067 0.83873 0.54362
 H1658 H 0.60442 0.83172 0.53528
 O1659 O 0.44064 1.10904 0.53682
 O1660 O 0.41601 1.13453 0.53890
 C1661 C 0.43354 1.12603 0.54519
 C1662 C 0.44549 1.13566 0.56280
 C1663 C 0.43951 1.15572 0.57046
 H1664 H 0.42699 1.16456 0.56238
 O1665 O 0.43850 0.97582 0.61090
 O1666 O 0.41403 0.97458 0.63677
 C1667 C 0.43129 0.96757 0.62800
 C1668 C 0.44304 0.94947 0.63754
 C1669 C 0.44000 0.94413 0.65906
 H1670 H 0.42942 0.95392 0.66877
 O1671 O 0.59127 1.00998 0.61274
 O1672 O 0.61660 1.00698 0.63686
 C1673 C 0.59930 1.01561 0.63024
 C1674 C 0.58895 1.03290 0.64265
 C1675 C 0.59695 1.03823 0.66260
 H1676 H 0.61010 1.02904 0.66935
 O1677 O 0.48934 0.88913 0.57233
 O1678 O 0.48774 0.86243 0.59508
 C1679 C 0.48087 0.87185 0.57856
 C1680 C 0.46266 0.86299 0.56654
 C1681 C 0.45497 0.84240 0.57073
 H1682 H 0.46290 0.83261 0.58250
 O1683 O 0.53958 1.10295 0.59174
 O1684 O 0.54020 1.12553 0.61826
 C1685 C 0.54729 1.11937 0.60030
 C1686 C 0.56487 1.13097 0.58909
 C1687 C 0.57162 1.15115 0.59566
 H1688 H 0.56352 1.15868 0.60900
 O1689 O 0.40284 0.92927 0.52264
 O1690 O 0.37683 0.90566 0.52111
 C1691 C 0.38522 0.92166 0.52990
 C1692 C 0.37500 0.93140 0.54909
 C1693 C 0.35456 0.92491 0.55698
 H1694 H 0.34565 0.91298 0.54860
 O1695 O 0.62133 1.07345 0.53117
 O1696 O 0.64823 1.09608 0.53323
 C1697 C 0.63942 1.07868 0.53873
 C1698 C 0.65042 1.06444 0.55402
 C1699 C 0.67217 1.06781 0.55880
 H1700 H 0.68085 1.08066 0.55107
 O1701 O 0.53876 1.07062 0.61736
 O1702 O 0.53953 1.09285 0.64417
 C1703 C 0.54632 1.07603 0.63510
 C1704 C 0.56343 1.06273 0.64496
 C1705 C 0.57179 1.06790 0.66487
 H1706 H 0.56499 1.08123 0.67348
 O1707 O 0.49134 0.91571 0.60335
 O1708 O 0.48997 0.88927 0.62647
 C1709 C 0.48400 0.90767 0.62048
 C1710 C 0.46861 0.92003 0.63368
 C1711 C 0.46545 0.91487 0.65515
 H1712 H 0.47428 0.90162 0.66200
 O1713 O 0.61995 1.01119 0.58240
 O1714 O 0.64556 1.00825 0.60627
 C1715 C 0.63793 1.01707 0.58971
 C1716 C 0.64988 1.03448 0.57894
 C1717 C 0.67169 1.03827 0.58362
 H1718 H 0.67990 1.02798 0.59476
 O1719 O 0.40788 0.97907 0.58320
 O1720 O 0.38330 0.97765 0.60893
 C1721 C 0.39020 0.97183 0.59078
 C1722 C 0.37765 0.95622 0.57862
 C1723 C 0.35712 0.94992 0.58591
 H1724 H 0.35018 0.95699 0.60013
 O1725 O 0.59442 1.10518 0.53393
 O1726 O 0.62112 1.12805 0.53572
 C1727 C 0.60296 1.12123 0.54237
 C1728 C 0.59183 1.13182 0.56035
 C1729 C 0.59817 1.15198 0.56684
 H1730 H 0.61099 1.16012 0.55820
 O1731 O 0.43141 0.89917 0.51876
 O1732 O 0.40555 0.87541 0.51679
 C1733 C 0.42347 0.88140 0.52422
 C1734 C 0.43490 0.86773 0.53966
 C1735 C 0.42771 0.84707 0.54378
 H1736 H 0.41414 0.84090 0.53512
 O1737 O 0.58955 0.96860 0.60906
 O1738 O 0.61471 0.96551 0.63335
 C1739 C 0.59700 0.95944 0.62543
 C1740 C 0.58518 0.94110 0.63475
 C1741 C 0.59118 0.93215 0.65435
 H1742 H 0.60399 0.93947 0.66309
 O1743 O 0.43907 1.01715 0.61454
 O1744 O 0.41419 1.01568 0.64000
 C1745 C 0.43176 1.02317 0.63252
 C1746 C 0.44337 1.03949 0.64465
 C1747 C 0.43586 1.04545 0.66493
 H1748 H 0.42200 1.03751 0.67202
 O1749 O 0.49750 1.10365 0.59163
 O1750 O 0.49785 1.12619 0.61821
 C1751 C 0.49042 1.12041 0.60047
 C1752 C 0.47312 1.13294 0.59004
 C1753 C 0.46669 1.15294 0.59772
 H1754 H 0.47472 1.15957 0.61129
 O1755 O 0.53150 0.88606 0.57195
 O1756 O 0.53016 0.85931 0.59464
 C1757 C 0.53803 0.86787 0.57798
 C1758 C 0.55550 0.85716 0.56572
 C1759 C 0.56246 0.83649 0.57081
 H1760 H 0.55391 0.82777 0.58311
 O1761 O 0.61801 0.91899 0.52111
 O1762 O 0.64309 0.89402 0.51796
 C1763 C 0.63557 0.91040 0.52719
 C1764 C 0.64718 0.91945 0.54531
 C1765 C 0.66737 0.91123 0.55142
 H1766 H 0.67473 0.89830 0.54256
 O1767 O 0.40982 1.08150 0.53588
 O1768 O 0.38500 1.10675 0.53838
 C1769 C 0.39243 1.08881 0.54420
 C1770 C 0.38115 1.07634 0.56104
 C1771 C 0.36113 1.08310 0.56980
 H1772 H 0.35341 1.09735 0.56377
 Cu1773 Cu 0.51144 0.90358 0.58510
 Cu1774 Cu 0.50969 0.87166 0.61264
 Cu1775 Cu 0.51814 1.08521 0.60208
 Cu1776 Cu 0.51873 1.11200 0.63418
 Cu1777 Cu 0.41947 0.91898 0.50032
 Cu1778 Cu 0.38849 0.89047 0.49806
 Cu1779 Cu 0.60063 0.91023 0.49924
 Cu1780 Cu 0.63079 0.88025 0.49537
 Cu1781 Cu 0.42752 1.09418 0.51551
 Cu1782 Cu 0.39772 1.12453 0.51817
 Cu1783 Cu 0.60567 1.08919 0.51177
 Cu1784 Cu 0.63797 1.11639 0.51423
 Cu1785 Cu 0.42625 0.99815 0.59613
 Cu1786 Cu 0.39653 0.99647 0.62685
 Cu1787 Cu 0.60263 0.99019 0.59381
 Cu1788 Cu 0.63301 0.98673 0.62278
 C1789 C 0.56822 0.93191 0.62348
 H1790 H 0.56365 0.93854 0.60827
 C1791 C 0.58043 0.91416 0.66258
 C1792 C 0.46121 1.05007 0.63562
 H1793 H 0.46692 1.04575 0.61988
 C1794 C 0.44555 1.06202 0.67593
 C1795 C 0.39088 1.05769 0.56891
 H1796 H 0.40648 1.05258 0.56262
 C1797 C 0.35098 1.07124 0.58612
 C1798 C 0.63781 0.93615 0.55691
 H1799 H 0.62212 0.94239 0.55243
 C1800 C 0.67811 0.91935 0.56903
 C1801 C 0.56618 0.86832 0.54942
 H1802 H 0.56109 0.88439 0.54568
 C1803 C 0.58020 0.82720 0.55988
 C1804 C 0.46243 1.12449 0.57254
 H1805 H 0.46697 1.10891 0.56676
 C1806 C 0.44978 1.16438 0.58814
 C1807 C 0.45748 0.93742 0.62502
 H1808 H 0.45982 0.94142 0.60839
 C1809 C 0.45131 0.92685 0.66801
 C1810 C 0.57207 1.04512 0.63403
 H1811 H 0.56603 1.04123 0.61851
 C1812 C 0.58876 1.05581 0.67367
 C1813 C 0.45252 0.87547 0.55093
 H1814 H 0.45805 0.89147 0.54786
 C1815 C 0.43745 0.83438 0.55933
 C1816 C 0.57508 1.12155 0.57141
 H1817 H 0.57025 1.10590 0.56643
 C1818 C 0.58826 1.16180 0.58442
 C1819 C 0.38633 0.94708 0.56009
 H1820 H 0.40221 0.95190 0.55447
 C1821 C 0.34551 0.93426 0.57542
 C1822 C 0.63941 1.04759 0.56399
 H1823 H 0.62256 1.04492 0.56040
 C1824 C 0.68292 1.05491 0.57350
 O1825 O 0.46380 0.42259 0.90201
 O1826 O 0.46322 0.39710 0.87824
 C1827 C 0.45610 0.41472 0.88525
 C1828 C 0.43855 0.42613 0.87400
 C1829 C 0.43176 0.41934 0.85398
 H1830 H 0.43990 0.40604 0.84649
 O1831 O 0.50627 0.57242 0.89195
 O1832 O 0.50709 0.59595 0.86589
 C1833 C 0.51410 0.57887 0.87437
 C1834 C 0.53193 0.56683 0.86385
 C1835 C 0.53857 0.57254 0.84327
 H1836 H 0.53008 0.58509 0.83489
 O1837 O 0.37753 0.48343 0.92868
 O1838 O 0.35192 0.48272 0.90466
 C1839 C 0.35954 0.47653 0.92225
 C1840 C 0.34747 0.46088 0.93510
 C1841 C 0.32571 0.45691 0.93087
 H1842 H 0.31754 0.46593 0.91861
 O1843 O 0.59812 0.51716 0.92096
 O1844 O 0.62222 0.51528 0.89483
 C1845 C 0.61546 0.52358 0.91205
 C1846 C 0.62728 0.54143 0.92148
 C1847 C 0.64719 0.54814 0.91293
 H1848 H 0.65458 0.53948 0.89985
 O1849 O 0.40508 0.39807 0.98641
 O1850 O 0.37925 0.37416 0.98762
 C1851 C 0.39722 0.38075 0.98009
 C1852 C 0.40944 0.36845 0.96385
 C1853 C 0.40403 0.34743 0.95889
 H1854 H 0.39052 0.33980 0.96691
 O1855 O 0.56731 0.60332 0.97087
 O1856 O 0.59198 0.62835 0.96941
 C1857 C 0.57444 0.62048 0.96288
 C1858 C 0.56230 0.63120 0.94564
 C1859 C 0.56896 0.65101 0.93758
 H1860 H 0.58267 0.65880 0.94449
 O1861 O 0.40736 0.52180 0.89563
 O1862 O 0.38192 0.52059 0.87150
 C1863 C 0.39968 0.52786 0.87797
 C1864 C 0.41127 0.54394 0.86513
 C1865 C 0.40434 0.54928 0.84471
 H1866 H 0.39083 0.54095 0.83798
 O1867 O 0.56572 0.47608 0.89608
 O1868 O 0.58938 0.47424 0.86954
 C1869 C 0.57186 0.46823 0.87847
 C1870 C 0.55844 0.45194 0.86844
 C1871 C 0.56165 0.44663 0.84699
 H1872 H 0.57378 0.45495 0.83765
 O1873 O 0.50651 0.39376 0.93057
 O1874 O 0.50634 0.36832 0.90676
 C1875 C 0.51389 0.37624 0.92354
 C1876 C 0.53159 0.36529 0.93499
 C1877 C 0.53811 0.34446 0.92982
 H1878 H 0.52988 0.33599 0.91749
 O1879 O 0.46465 0.60486 0.91889
 O1880 O 0.46536 0.62868 0.89311
 C1881 C 0.45784 0.62216 0.91086
 C1882 C 0.44085 0.63446 0.92239
 C1883 C 0.43476 0.65509 0.91592
 H1884 H 0.44291 0.66239 0.90245
 O1885 O 0.37973 0.58106 0.97964
 O1886 O 0.35499 0.60652 0.97924
 C1887 C 0.36218 0.58880 0.97258
 C1888 C 0.35043 0.57732 0.95604
 C1889 C 0.32984 0.58413 0.94966
 H1890 H 0.32211 0.59755 0.95742
 O1891 O 0.59542 0.42346 0.98147
 O1892 O 0.62009 0.39798 0.98269
 C1893 C 0.61284 0.41501 0.97445
 C1894 C 0.62454 0.42481 0.95624
 C1895 C 0.64504 0.41724 0.94995
 H1896 H 0.65270 0.40462 0.95898
 O1897 O 0.46413 0.57552 0.89019
 O1898 O 0.46478 0.59910 0.86420
 C1899 C 0.45699 0.58244 0.87259
 C1900 C 0.43910 0.57104 0.86235
 C1901 C 0.43176 0.57653 0.84191
 H1902 H 0.43983 0.58896 0.83301
 O1903 O 0.50595 0.42274 0.90121
 O1904 O 0.50526 0.39749 0.87719
 C1905 C 0.51266 0.41493 0.88379
 C1906 C 0.52930 0.42614 0.87109
 C1907 C 0.53259 0.42115 0.84966
 H1908 H 0.52260 0.40929 0.84234
 O1909 O 0.59722 0.47575 0.92277
 O1910 O 0.62124 0.47354 0.89661
 C1911 C 0.61418 0.46734 0.91466
 C1912 C 0.62527 0.44998 0.92649
 C1913 C 0.64565 0.44173 0.92002
 H1914 H 0.65387 0.44832 0.90620
 O1915 O 0.37863 0.52450 0.92589
 O1916 O 0.35309 0.52371 0.90184
 C1917 C 0.36102 0.53168 0.91844
 C1918 C 0.34995 0.54962 0.92920
 C1919 C 0.32941 0.55676 0.92282
 H1920 H 0.32125 0.54859 0.91026
 O1921 O 0.41014 0.60883 0.97724
 O1922 O 0.38555 0.63443 0.97702
 C1923 C 0.40282 0.62608 0.96955
 C1924 C 0.41427 0.63631 0.95149
 C1925 C 0.40865 0.65691 0.94507
 H1926 H 0.39622 0.66560 0.95382
 O1927 O 0.56469 0.39602 0.98409
 O1928 O 0.58918 0.37036 0.98523
 C1929 C 0.57167 0.37807 0.97799
 C1930 C 0.55949 0.36622 0.96204
 C1931 C 0.56532 0.34532 0.95714
 H1932 H 0.57840 0.33757 0.96557
 O1933 O 0.56665 0.51715 0.89441
 O1934 O 0.59052 0.51546 0.86805
 C1935 C 0.57338 0.52346 0.87631
 C1936 C 0.56121 0.54034 0.86486
 C1937 C 0.56780 0.54668 0.84433
 H1938 H 0.58148 0.53888 0.83667
 O1939 O 0.40773 0.48070 0.89988
 O1940 O 0.38229 0.47955 0.87574
 C1941 C 0.39992 0.47252 0.88339
 C1942 C 0.41132 0.45451 0.87311
 C1943 C 0.40496 0.44763 0.85310
 H1944 H 0.39197 0.45586 0.84498
 O1945 O 0.50690 0.60350 0.91824
 O1946 O 0.50761 0.62724 0.89235
 C1947 C 0.51479 0.62015 0.90983
 C1948 C 0.53286 0.63111 0.92013
 C1949 C 0.53959 0.65097 0.91254
 H1950 H 0.53099 0.65861 0.89967
 O1951 O 0.46425 0.39495 0.93253
 O1952 O 0.46411 0.36931 0.90890
 C1953 C 0.45691 0.37749 0.92601
 C1954 C 0.43942 0.36684 0.93810
 C1955 C 0.43434 0.34575 0.93391
 H1956 H 0.44389 0.33690 0.92234
 O1957 O 0.59873 0.57550 0.97161
 O1958 O 0.62353 0.60038 0.97010
 C1959 C 0.61625 0.58284 0.96369
 C1960 C 0.62766 0.57088 0.94651
 C1961 C 0.64754 0.57766 0.93750
 H1962 H 0.65532 0.59154 0.94374
 O1963 O 0.37616 0.42802 0.98565
 O1964 O 0.34992 0.40452 0.98691
 C1965 C 0.35812 0.42131 0.97916
 C1966 C 0.34677 0.43333 0.96242
 C1967 C 0.32505 0.42912 0.95763
 H1968 H 0.31633 0.41700 0.96642
 Cu1969 Cu 0.48521 0.41102 0.91901
 Cu1970 Cu 0.48472 0.38047 0.89039
 Cu1971 Cu 0.48522 0.58672 0.90740
 Cu1972 Cu 0.48633 0.61508 0.87626
 Cu1973 Cu 0.39539 0.50275 0.91494
 Cu1974 Cu 0.36476 0.50148 0.88598
 Cu1975 Cu 0.57967 0.49665 0.91126
 Cu1976 Cu 0.60830 0.49441 0.87965
 C1977 C 0.42826 0.44378 0.88340
 H1978 H 0.43317 0.44896 0.89894
 C1979 C 0.41492 0.43006 0.84349
 C1980 C 0.54319 0.55053 0.87452
 H1981 H 0.53823 0.54611 0.89050
 C1982 C 0.55655 0.56284 0.83356
 C1983 C 0.35780 0.44927 0.95108
 H1984 H 0.37466 0.45231 0.95434
 C1985 C 0.31447 0.44103 0.94189
 C1986 C 0.61786 0.55273 0.93838
 H1987 H 0.60239 0.54766 0.94487
 C1988 C 0.65742 0.56626 0.92063
 C1989 C 0.42713 0.37797 0.95329
 H1990 H 0.43112 0.39430 0.95658
 C1991 C 0.41671 0.33601 0.94407
 C1992 C 0.54417 0.62141 0.93682
 H1993 H 0.53913 0.60600 0.94263
 C1994 C 0.55767 0.66092 0.92095
 C1995 C 0.42875 0.55469 0.87367
 H1996 H 0.43398 0.55064 0.88953
 C1997 C 0.41430 0.56557 0.83298
 C1998 C 0.54213 0.44169 0.88033
 H1999 H 0.53967 0.44554 0.89693
 C2000 C 0.54869 0.43124 0.83751
 C2001 C 0.54242 0.37599 0.95112
 H2002 H 0.53786 0.39217 0.95489
 C2003 C 0.55493 0.33443 0.94101
 C2004 C 0.43049 0.62530 0.94020
 H2005 H 0.43480 0.60934 0.94511
 C2006 C 0.41865 0.66642 0.92734
 C2007 C 0.36025 0.55996 0.94585
 H2008 H 0.37623 0.55475 0.95061
 C2009 C 0.31931 0.57411 0.93298
 C2010 C 0.61495 0.44132 0.94460
 H2011 H 0.59911 0.44718 0.94947
 C2012 C 0.65566 0.42539 0.93189
 O2013 O 0.50513 0.42951 1.10622
 O2014 O 0.50553 0.40582 1.13214
 C2015 C 0.51286 0.42268 1.12354
 C2016 C 0.53087 0.43399 1.13369
 C2017 C 0.53729 0.42782 1.15402
 H2018 H 0.52850 0.41552 1.16252
 O2019 O 0.46703 0.58366 1.10382
 O2020 O 0.46794 0.60962 1.12702
 C2021 C 0.45993 0.59229 1.12074
 C2022 C 0.44194 0.58206 1.13283
 C2023 C 0.43438 0.59006 1.15247
 H2024 H 0.44227 0.60363 1.15916
 O2025 O 0.37966 0.52918 1.07978
 O2026 O 0.35431 0.53074 1.10480
 C2027 C 0.36213 0.53715 1.08715
 C2028 C 0.35103 0.55420 1.07508
 C2029 C 0.33005 0.56120 1.08088
 H2030 H 0.32166 0.55356 1.09400
 O2031 O 0.59552 0.48411 1.07466
 O2032 O 0.62071 0.48435 1.09909
 C2033 C 0.61325 0.47712 1.08198
 C2034 C 0.62505 0.46009 1.07074
 C2035 C 0.64654 0.45525 1.07570
 H2036 H 0.65480 0.46460 1.08740
 O2037 O 0.56508 0.39772 1.02515
 O2038 O 0.58974 0.37223 1.02632
 C2039 C 0.57211 0.38045 1.03308
 C2040 C 0.55964 0.36981 1.05032
 C2041 C 0.56559 0.34939 1.05731
 H2042 H 0.57896 0.34126 1.04952
 O2043 O 0.41081 0.61067 1.01846
 O2044 O 0.38618 0.63623 1.01819
 C2045 C 0.40382 0.62849 1.02502
 C2046 C 0.41624 0.64010 1.04099
 C2047 C 0.41087 0.66115 1.04610
 H2048 H 0.39774 0.66914 1.03800
 O2049 O 0.40830 0.48756 1.10963
 O2050 O 0.38302 0.48883 1.13471
 C2051 C 0.40038 0.48077 1.12711
 C2052 C 0.41118 0.46286 1.13822
 C2053 C 0.40326 0.45532 1.15790
 H2054 H 0.38949 0.46313 1.16545
 O2055 O 0.56527 0.52533 1.10345
 O2056 O 0.59010 0.52513 1.12823
 C2057 C 0.57254 0.53236 1.12073
 C2058 C 0.56080 0.54954 1.13188
 C2059 C 0.56729 0.55604 1.15198
 H2060 H 0.58047 0.54780 1.15979
 O2061 O 0.46204 0.39890 1.08124
 O2062 O 0.46246 0.37505 1.10700
 C2063 C 0.45464 0.38205 1.08977
 C2064 C 0.43642 0.37102 1.07960
 C2065 C 0.42895 0.35116 1.08693
 H2066 H 0.43698 0.34326 1.09997
 O2067 O 0.51035 0.60836 1.07166
 O2068 O 0.51162 0.63443 1.09470
 C2069 C 0.51849 0.62566 1.07772
 C2070 C 0.53622 0.63559 1.06501
 C2071 C 0.54387 0.65573 1.07047
 H2072 H 0.53633 0.66419 1.08355
 O2073 O 0.37696 0.43000 1.02662
 O2074 O 0.35050 0.40674 1.02808
 C2075 C 0.35891 0.42394 1.03425
 C2076 C 0.34780 0.43713 1.05049
 C2077 C 0.32587 0.43399 1.05574
 H2078 H 0.31699 0.42168 1.04787
 O2079 O 0.59717 0.57596 1.01327
 O2080 O 0.62201 0.60085 1.01189
 C2081 C 0.61442 0.58398 1.02023
 C2082 C 0.62527 0.57411 1.03873
 C2083 C 0.64520 0.58177 1.04553
 H2084 H 0.65316 0.59430 1.03658
 O2085 O 0.50911 0.58184 1.10327
 O2086 O 0.51023 0.60770 1.12658
 C2087 C 0.51675 0.58973 1.12002
 C2088 C 0.53375 0.57795 1.13153
 C2089 C 0.54064 0.58451 1.15158
 H2090 H 0.53279 0.59793 1.15916
 O2091 O 0.46288 0.42931 1.10875
 O2092 O 0.46332 0.40552 1.13456
 C2093 C 0.45585 0.42260 1.12662
 C2094 C 0.43836 0.43443 1.13793
 C2095 C 0.43037 0.42726 1.15769
 H2096 H 0.43815 0.41381 1.16519
 O2097 O 0.59532 0.52536 1.07418
 O2098 O 0.62030 0.52570 1.09877
 C2099 C 0.61285 0.53270 1.08133
 C2100 C 0.62438 0.54962 1.06912
 C2101 C 0.64427 0.55785 1.07590
 H2102 H 0.65164 0.55148 1.09008
 O2103 O 0.37951 0.48795 1.08029
 O2104 O 0.35398 0.48956 1.10515
 C2105 C 0.36150 0.48176 1.08797
 C2106 C 0.34923 0.46531 1.07684
 C2107 C 0.32742 0.46176 1.08208
 H2108 H 0.31945 0.47122 1.09425
 O2109 O 0.56731 0.60483 1.01232
 O2110 O 0.59202 0.62984 1.01080
 C2111 C 0.57458 0.62240 1.01873
 C2112 C 0.56310 0.63413 1.03597
 C2113 C 0.57019 0.65437 1.04159
 H2114 H 0.58343 0.66167 1.03280
 O2115 O 0.40498 0.39936 1.02749
 O2116 O 0.37891 0.37570 1.02900
 C2117 C 0.39685 0.38265 1.03550
 C2118 C 0.40830 0.37144 1.05274
 C2119 C 0.40139 0.35150 1.05986
 H2120 H 0.38789 0.34394 1.05227
 O2121 O 0.56523 0.48401 1.10350
 O2122 O 0.59015 0.48373 1.12816
 C2123 C 0.57257 0.47664 1.12079
 C2124 C 0.56050 0.45964 1.13230
 C2125 C 0.56706 0.45259 1.15251
 H2126 H 0.58091 0.45968 1.15992
 O2127 O 0.41006 0.52901 1.10758
 O2128 O 0.38486 0.53042 1.13273
 C2129 C 0.40257 0.53702 1.12462
 C2130 C 0.41420 0.55464 1.13470
 C2131 C 0.40704 0.56267 1.15427
 H2132 H 0.39343 0.55531 1.16241
 O2133 O 0.46822 0.61098 1.07297
 O2134 O 0.46939 0.63716 1.09592
 C2135 C 0.46169 0.62904 1.07931
 C2136 C 0.44464 0.64040 1.06745
 C2137 C 0.43919 0.66149 1.07227
 H2138 H 0.44849 0.66973 1.08398
 O2139 O 0.50455 0.39875 1.07941
 O2140 O 0.50490 0.37490 1.10518
 C2141 C 0.51213 0.38177 1.08747
 C2142 C 0.53001 0.37026 1.07649
 C2143 C 0.53617 0.34983 1.08322
 H2144 H 0.52725 0.34214 1.09602
 O2145 O 0.59566 0.42575 1.02270
 O2146 O 0.62053 0.40045 1.02390
 C2147 C 0.61329 0.41837 1.02992
 C2148 C 0.62511 0.43088 1.04564
 C2149 C 0.64660 0.42592 1.05101
 H2150 H 0.65493 0.41293 1.04317
 O2151 O 0.38071 0.58238 1.02094
 O2152 O 0.35591 0.60778 1.02051
 C2153 C 0.36330 0.59057 1.02825
 C2154 C 0.35168 0.58013 1.04610
 C2155 C 0.33073 0.58679 1.05198
 H2156 H 0.32287 0.59937 1.04306
 Cu2157 Cu 0.48349 0.41641 1.09125
 Cu2158 Cu 0.48416 0.38797 1.12232
 Cu2159 Cu 0.48855 0.59359 1.08567
 Cu2160 Cu 0.48994 0.62488 1.11335
 Cu2161 Cu 0.39342 0.41618 1.00634
 Cu2162 Cu 0.36200 0.38787 1.00806
 Cu2163 Cu 0.57780 0.41336 1.00334
 Cu2164 Cu 0.60738 0.38268 1.00469
 Cu2165 Cu 0.39782 0.59316 0.99914
 Cu2166 Cu 0.36815 0.62381 0.99875
 Cu2167 Cu 0.58025 0.58735 0.99200
 Cu2168 Cu 0.60987 0.61732 0.99040
 Cu2169 Cu 0.39696 0.50829 1.09188
 Cu2170 Cu 0.36658 0.51000 1.12195
 Cu2171 Cu 0.57785 0.50474 1.08648
 Cu2172 Cu 0.60780 0.50471 1.11607
 C2173 C 0.54236 0.45014 1.12300
 H2174 H 0.53744 0.45502 1.10727
 C2175 C 0.55538 0.43674 1.16339
 C2176 C 0.43176 0.56429 1.12423
 H2177 H 0.43720 0.55823 1.10899
 C2178 C 0.41685 0.58037 1.16331
 C2179 C 0.36164 0.56374 1.05763
 H2180 H 0.37789 0.55865 1.05322
 C2181 C 0.31979 0.57754 1.06932
 C2182 C 0.61455 0.44803 1.05554
 H2183 H 0.59786 0.45170 1.05180
 C2184 C 0.65740 0.43820 1.06605
 C2185 C 0.54175 0.38006 1.05992
 H2186 H 0.53724 0.39591 1.05479
 C2187 C 0.55399 0.33933 1.07386
 C2188 C 0.43320 0.62991 1.05167
 H2189 H 0.43718 0.61355 1.04803
 C2190 C 0.42213 0.67191 1.06182
 C2191 C 0.42879 0.45233 1.12845
 H2192 H 0.43472 0.45776 1.11310
 C2193 C 0.41254 0.43738 1.16765
 C2194 C 0.54384 0.56037 1.12191
 H2195 H 0.53895 0.55553 1.10625
 C2196 C 0.55753 0.57360 1.16183
 C2197 C 0.42593 0.38093 1.06251
 H2198 H 0.43125 0.39638 1.05704
 C2199 C 0.41145 0.34129 1.07695
 C2200 C 0.54593 0.62490 1.04766
 H2201 H 0.54045 0.60921 1.04355
 C2202 C 0.56095 0.66510 1.05890
 C2203 C 0.35926 0.45305 1.06092
 H2204 H 0.37618 0.45559 1.05697
 C2205 C 0.31553 0.44652 1.07131
 C2206 C 0.61511 0.55791 1.05049
 H2207 H 0.59964 0.55203 1.04534
 C2208 C 0.65476 0.57398 1.06410
 C2209 C 1.13463 1.11629 1.28922
 C2210 C 1.11528 1.12182 1.27931
 C2211 C 1.10840 1.11087 1.25984
 C2212 C 1.08633 1.10746 1.25648
 C2213 C 1.07956 1.09635 1.23865
 C2214 C 1.09480 1.08881 1.22354
 C2215 C 1.11685 1.09252 1.22682
 C2216 C 1.12360 1.10351 1.24467
 C2217 C 1.08854 1.07706 1.20426
 C2218 C 1.06772 1.07768 1.19595
 H2219 H 1.10416 1.13298 1.28672
 H2220 H 1.07433 1.11296 1.26795
 H2221 H 1.06244 1.09345 1.23709
 H2222 H 1.12894 1.08704 1.21543
 H2223 H 1.14072 1.10639 1.24644
 H2224 H 1.10132 1.06911 1.19536
 H2225 H 1.14425 1.10348 1.28247
 H2226 H 1.05541 1.08736 1.20364
 C2227 C 1.09497 0.62217 0.78185
 C2228 C 1.10367 0.60734 0.76771
 C2229 C 1.09347 0.60161 0.74747
 C2230 C 1.10126 0.58364 0.73673
 C2231 C 1.09285 0.57803 0.71717
 C2232 C 1.07627 0.59028 0.70792
 C2233 C 1.06863 0.60838 0.71852
 C2234 C 1.07711 0.61405 0.73808
 C2235 C 1.06741 0.58533 0.68686
 C2236 C 1.06934 0.56537 0.67761
 H2237 H 1.11893 0.59971 0.77136
 H2238 H 1.11412 0.57400 0.74340
 H2239 H 1.09989 0.56444 0.70922
 H2240 H 1.05616 0.61830 0.71157
 H2241 H 1.07108 0.62844 0.74534
 H2242 H 1.05946 0.59804 0.67828
 H2243 H 1.07952 0.62963 0.77872
 H2244 H 1.07704 0.55254 0.68621
 C2245 C 0.62784 1.12612 0.79067
 C2246 C 0.63763 1.10911 0.78007
 C2247 C 0.62914 1.10202 0.75953
 C2248 C 0.62842 1.08034 0.75493
 C2249 C 0.61891 1.07338 0.73623
 C2250 C 0.61030 1.08811 0.72159
 C2251 C 0.61178 1.10982 0.72598
 C2252 C 0.62112 1.11672 0.74468
 C2253 C 0.59946 1.08185 0.70176
 C2254 C 0.59855 1.06113 0.69421
 H2255 H 0.65036 1.09992 0.78747
 H2256 H 0.63460 1.06876 0.76613
 H2257 H 0.61810 1.05650 0.73372
 H2258 H 0.60553 1.12155 0.71497
 H2259 H 0.62202 1.13359 0.74750
 H2260 H 0.59259 1.09448 0.69220
 H2261 H 0.61357 1.13332 0.78371
 H2262 H 0.60685 1.04848 0.70249
 C2263 C 0.62254 0.64993 1.26288
 C2264 C 0.62127 0.62889 1.25631
 C2265 C 0.60651 0.62234 1.23941
 C2266 C 0.59823 0.60172 1.23985
 C2267 C 0.58456 0.59491 1.22388
 C2268 C 0.57929 0.60852 1.20690
 C2269 C 0.58726 0.62926 1.20668
 C2270 C 0.60086 0.63609 1.22268
 C2271 C 0.56629 0.60143 1.18882
 C2272 C 0.56602 0.58031 1.18245
 H2273 H 0.63014 0.61659 1.26456
 H2274 H 0.60227 0.59090 1.25265
 H2275 H 0.57819 0.57902 1.22496
 H2276 H 0.58349 0.64001 1.19374
 H2277 H 0.60739 0.65193 1.22154
 H2278 H 0.55929 0.61349 1.17864
 H2279 H 0.61184 0.66159 1.25578
 H2280 H 0.57509 0.56860 1.19138
 C2281 C 0.85225 0.85969 1.26823
 C2282 C 0.86487 0.85236 1.25119
 C2283 C 0.87167 0.86657 1.23360
 C2284 C 0.89141 0.86256 1.22307
 C2285 C 0.89876 0.87618 1.20701
 C2286 C 0.88640 0.89407 1.20108
 C2287 C 0.86617 0.89752 1.21089
 C2288 C 0.85886 0.88396 1.22707
 C2289 C 0.89398 0.90879 1.18423
 C2290 C 0.91596 0.91219 1.18040
 H2291 H 0.87133 0.83637 1.25136
 H2292 H 0.90134 0.84904 1.22752
 H2293 H 0.91399 0.87246 1.19910
 H2294 H 0.85614 0.91089 1.20621
 H2295 H 0.84314 0.88703 1.23428
 H2296 H 0.88204 0.91664 1.17445
 H2297 H 0.84748 0.87627 1.26841
 H2298 H 0.92764 0.90475 1.19078
 C2299 C 0.87259 0.37781 0.78018
 C2300 C 0.88901 0.36900 0.76742
 C2301 C 0.89632 0.37891 0.74724
 C2302 C 0.89529 0.40096 0.74378
 C2303 C 0.90212 0.40970 0.72437
 C2304 C 0.91006 0.39653 0.70802
 C2305 C 0.91150 0.37459 0.71175
 C2306 C 0.90479 0.36589 0.73116
 C2307 C 0.91766 0.40483 0.68718
 C2308 C 0.91424 0.42557 0.67984
 H2309 H 0.89561 0.35353 0.77122
 H2310 H 0.88961 0.41156 0.75613
 H2311 H 0.90141 0.42673 0.72250
 H2312 H 0.91779 0.36408 0.69955
 H2313 H 0.90595 0.34889 0.73351
 H2314 H 0.92565 0.39358 0.67672
 H2315 H 0.86506 0.39256 0.77518
 H2316 H 0.90411 0.43638 0.68890
 C2317 C 0.40895 0.90788 0.80641
 C2318 C 0.42016 0.89721 0.79026
 C2319 C 0.42437 0.90621 0.76885
 C2320 C 0.43796 0.89483 0.75491
 C2321 C 0.44094 0.90151 0.73393
 C2322 C 0.43045 0.91994 0.72643
 C2323 C 0.41692 0.93139 0.74035
 C2324 C 0.41387 0.92466 0.76135
 C2325 C 0.43234 0.92703 0.70405
 C2326 C 0.44959 0.92109 0.69075
 H2327 H 0.42482 0.88082 0.79280
 H2328 H 0.44593 0.88037 0.76014
 H2329 H 0.45086 0.89172 0.72359
 H2330 H 0.40843 0.94547 0.73489
 H2331 H 0.40275 0.93365 0.77123
 H2332 H 0.41960 0.93719 0.69806
 H2333 H 0.40470 0.92442 0.80446
 H2334 H 0.46248 0.91131 0.69705
 C2335 C 0.37209 0.35214 1.27981
 C2336 C 0.36544 0.37133 1.27051
 C2337 C 0.37649 0.38089 1.25172
 C2338 C 0.37418 0.40273 1.24783
 C2339 C 0.38364 0.41213 1.22978
 C2340 C 0.39539 0.39974 1.21499
 C2341 C 0.39767 0.37789 1.21896
 C2342 C 0.38832 0.36854 1.23703
 C2343 C 0.40540 0.40857 1.19522
 C2344 C 0.40306 0.42955 1.18807
 H2345 H 0.35189 0.38005 1.27730
 H2346 H 0.36503 0.41258 1.25884
 H2347 H 0.38155 0.42902 1.22765
 H2348 H 0.40651 0.36788 1.20785
 H2349 H 0.38992 0.35155 1.23905
 H2350 H 0.41428 0.39747 1.18533
 H2351 H 0.38698 0.34478 1.27416
 H2352 H 0.39284 0.44047 1.19685
 C2353 C 0.89399 1.13946 0.71825
 C2354 C 0.88927 1.12309 0.73265
 C2355 C 0.90101 1.11897 0.75253
 C2356 C 0.89157 1.10508 0.76741
 C2357 C 0.90243 1.09941 0.78581
 C2358 C 0.92317 1.10736 0.78968
 C2359 C 0.93240 1.12180 0.77521
 C2360 C 0.92152 1.12744 0.75664
 C2361 C 0.93510 1.10089 0.80884
 C2362 C 0.93278 1.08059 0.81752
 H2363 H 0.87585 1.11274 0.72965
 H2364 H 0.87573 1.09844 0.76472
 H2365 H 0.89447 1.08888 0.79703
 H2366 H 0.94830 1.12824 0.77798
 H2367 H 0.92952 1.13793 0.74543
 H2368 H 0.94561 1.11232 0.81599
 H2369 H 0.90600 1.15110 0.72223
 H2370 H 0.92306 1.06929 0.80909
 C2371 C 0.87543 0.63564 0.21746
 C2372 C 0.87268 0.61564 0.22627
 C2373 C 0.88585 0.60817 0.24425
 C2374 C 0.88133 0.58842 0.25353
 C2375 C 0.89303 0.58117 0.27096
 C2376 C 0.90972 0.59350 0.27935
 C2377 C 0.91425 0.61325 0.27002
 C2378 C 0.90252 0.62052 0.25260
 C2379 C 0.92170 0.58690 0.29850
 C2380 C 0.92272 0.56593 0.30561
 H2381 H 0.86031 0.60536 0.22011
 H2382 H 0.86845 0.57871 0.24752
 H2383 H 0.88840 0.56622 0.27810
 H2384 H 0.92685 0.62315 0.27630
 H2385 H 0.90642 0.63586 0.24583
 H2386 H 0.92917 0.59918 0.30773
 H2387 H 0.86778 0.63911 0.20799
 H2388 H 0.91564 0.55354 0.29629
 C2389 C 0.37730 1.12061 0.22896
 C2390 C 0.39352 1.12976 0.24093
 C2391 C 0.40100 1.12045 0.26114
 C2392 C 0.42151 1.12580 0.26855
 C2393 C 0.42888 1.11768 0.28784
 C2394 C 0.41574 1.10404 0.30017
 C2395 C 0.39508 1.09905 0.29290
 C2396 C 0.38773 1.10716 0.27365
 C2397 C 0.42248 1.09512 0.32084
 C2398 C 0.44367 1.09529 0.32820
 H2399 H 0.40114 1.14417 0.23540
 H2400 H 0.43186 1.13632 0.25937
 H2401 H 0.44466 1.12250 0.29303
 H2402 H 0.38449 1.08887 0.30222
 H2403 H 0.37147 1.10334 0.26897
 H2404 H 0.40996 1.08805 0.33073
 H2405 H 0.37074 1.10544 0.23378
 H2406 H 0.45636 1.10289 0.31902
 C2407 C 0.37959 0.61653 0.70309
 C2408 C 0.36758 0.60854 0.72022
 C2409 C 0.37785 0.60367 0.74089
 C2410 C 0.36888 0.58819 0.75437
 C2411 C 0.37837 0.58339 0.77390
 C2412 C 0.39702 0.59415 0.78042
 C2413 C 0.40549 0.61015 0.76726
 C2414 C 0.39608 0.61487 0.74773
 C2415 C 0.40754 0.58968 0.80105
 C2416 C 0.40579 0.57018 0.81153
 H2417 H 0.35035 0.60614 0.71863
 H2418 H 0.35456 0.57970 0.74973
 H2419 H 0.37075 0.57157 0.78396
 H2420 H 0.41951 0.61901 0.77206
 H2421 H 0.40292 0.62760 0.73827
 H2422 H 0.41705 0.60210 0.80795
 H2423 H 0.39696 0.61789 0.70459
 H2424 H 0.39670 0.55772 0.80415
 C2425 C 1.12856 0.85981 0.71726
 C2426 C 1.13628 0.87646 0.72966
 C2427 C 1.12512 0.88457 0.74929
 C2428 C 1.13683 0.89688 0.76359
 C2429 C 1.12696 0.90504 0.78208
 C2430 C 1.10490 0.90132 0.78667
 C2431 C 1.09320 0.88908 0.77230
 C2432 C 1.10307 0.88089 0.75386
 C2433 C 1.09349 0.90937 0.80622
 C2434 C 1.10188 0.92438 0.82022
 H2435 H 1.15161 0.88354 0.72527
 H2436 H 1.15380 0.90007 0.76054
 H2437 H 1.13684 0.91400 0.79271
 H2438 H 1.07620 0.88591 0.77527
 H2439 H 1.09320 0.87201 0.74313
 H2440 H 1.07732 0.90354 0.80917
 H2441 H 1.11405 0.85165 0.72239
 H2442 H 1.11732 0.93148 0.81639
 C2443 C 1.12215 0.38792 0.20128
 C2444 C 1.11248 0.37688 0.21816
 C2445 C 1.10852 0.38650 0.23933
 C2446 C 1.09221 0.37808 0.25254
 C2447 C 1.08746 0.38711 0.27228
 C2448 C 1.09898 0.40485 0.27928
 C2449 C 1.11594 0.41268 0.26651
 C2450 C 1.12069 0.40365 0.24673
 C2451 C 1.09398 0.41508 0.29995
 C2452 C 1.07334 0.41442 0.30927
 H2453 H 1.10639 0.36111 0.21554
 H2454 H 1.08292 0.36459 0.24746
 H2455 H 1.07494 0.37994 0.28206
 H2456 H 1.12539 0.42598 0.27175
 H2457 H 1.13402 0.41006 0.23748
 H2458 H 1.10681 0.42346 0.30771
 H2459 H 1.12704 0.40415 0.20357
 H2460 H 1.06056 0.40662 0.30085
 C2461 C 0.62638 0.86965 0.21857
 C2462 C 0.63522 0.88706 0.22881
 C2463 C 0.62582 0.89476 0.24920
 C2464 C 0.62551 0.91652 0.25362
 C2465 C 0.61565 0.92412 0.27230
 C2466 C 0.60624 0.90996 0.28715
 C2467 C 0.60704 0.88817 0.28285
 C2468 C 0.61679 0.88063 0.26420
 C2469 C 0.59518 0.91704 0.30703
 C2470 C 0.59745 0.93719 0.31578
 H2471 H 0.64801 0.89610 0.22123
 H2472 H 0.63239 0.92771 0.24233
 H2473 H 0.61509 0.94106 0.27468
 H2474 H 0.60010 0.87687 0.29400
 H2475 H 0.61731 0.86368 0.26162
 H2476 H 0.58592 0.90532 0.31580
 H2477 H 0.61211 0.86244 0.22567
 H2478 H 0.60838 0.94832 0.30823
 C2479 C 0.60123 0.40160 0.70494
 C2480 C 0.58642 0.39321 0.71966
 C2481 C 0.58183 0.40305 0.74051
 C2482 C 0.56339 0.39672 0.75205
 C2483 C 0.55930 0.40444 0.77245
 C2484 C 0.57365 0.41878 0.78174
 C2485 C 0.59212 0.42505 0.77021
 C2486 C 0.59625 0.41727 0.74985
 C2487 C 0.57065 0.42659 0.80370
 C2488 C 0.55106 0.42547 0.81493
 H2489 H 0.57829 0.37854 0.71629
 H2490 H 0.55227 0.38547 0.74540
 H2491 H 0.54526 0.39852 0.78096
 H2492 H 0.60362 0.43578 0.77711
 H2493 H 0.61112 0.42195 0.74193
 H2494 H 0.58466 0.43307 0.81135
 H2495 H 0.60764 0.41726 0.70760
 H2496 H 0.53695 0.41908 0.80742
 C2497 C 1.27850 1.12479 1.14835
 C2498 C 1.26452 1.13251 1.13284
 C2499 C 1.24472 1.12075 1.12723
 C2500 C 1.23699 1.12207 1.10648
 C2501 C 1.21903 1.11029 1.10049
 C2502 C 1.20835 1.09690 1.11523
 C2503 C 1.21551 1.09634 1.13622
 C2504 C 1.23346 1.10812 1.14220
 C2505 C 1.18922 1.08415 1.10953
 C2506 C 1.18463 1.07878 1.08868
 H2507 H 1.26881 1.14640 1.12358
 H2508 H 1.24507 1.13201 1.09477
 H2509 H 1.21347 1.11204 1.08440
 H2510 H 1.20727 1.08664 1.14803
 H2511 H 1.23833 1.10740 1.15860
 H2512 H 1.17814 1.07928 1.12211
 H2513 H 1.27456 1.10986 1.15603
 H2514 H 1.19572 1.08324 1.07600
 C2515 C 1.28503 0.63333 0.61102
 C2516 C 1.27137 0.61664 0.61706
 C2517 C 1.25158 0.61086 0.60520
 C2518 C 1.24268 0.59067 0.60846
 C2519 C 1.22422 0.58442 0.59760
 C2520 C 1.21410 0.59824 0.58304
 C2521 C 1.22269 0.61862 0.58016
 C2522 C 1.24114 0.62491 0.59107
 C2523 C 1.19415 0.59240 0.57144
 C2524 C 1.18703 0.57153 0.56947
 H2525 H 1.27578 0.60662 0.63033
 H2526 H 1.25008 0.57962 0.61948
 H2527 H 1.21783 0.56888 0.60111
 H2528 H 1.21504 0.62980 0.56943
 H2529 H 1.24682 0.64089 0.58857
 H2530 H 1.18451 0.60509 0.56465
 H2531 H 1.28103 0.64257 0.59708
 H2532 H 1.19670 0.55873 0.57592
 C2533 C 0.80522 1.09784 0.63509
 C2534 C 0.79557 1.09701 0.61531
 C2535 C 0.77639 1.08398 0.61105
 C2536 C 0.77192 1.07883 0.58999
 C2537 C 0.75297 1.06818 0.58507
 C2538 C 0.73788 1.06284 0.60115
 C2539 C 0.74275 1.06720 0.62231
 C2540 C 0.76175 1.07781 0.62726
 C2541 C 0.71648 1.05400 0.59622
 C2542 C 0.70590 1.05951 0.57756
 H2543 H 0.80243 1.10610 0.60227
 H2544 H 0.78299 1.08334 0.57726
 H2545 H 0.75008 1.06442 0.56864
 H2546 H 0.73137 1.06324 0.63496
 H2547 H 0.76438 1.08191 0.64364
 H2548 H 0.70784 1.04558 0.60870
 H2549 H 0.80011 1.08701 0.64757
 H2550 H 0.71406 1.06983 0.56627
 C2551 C 0.77370 0.62541 1.12995
 C2552 C 0.75837 0.63274 1.11550
 C2553 C 0.73923 0.62010 1.10940
 C2554 C 0.72885 0.62492 1.09030
 C2555 C 0.71069 0.61354 1.08408
 C2556 C 0.70240 0.59700 1.09690
 C2557 C 0.71244 0.59255 1.11627
 C2558 C 0.73063 0.60391 1.12247
 C2559 C 0.68283 0.58486 1.09109
 C2560 C 0.67572 0.58329 1.07022
 H2561 H 0.76064 0.64803 1.10795
 H2562 H 0.73482 0.63756 1.08012
 H2563 H 0.70298 0.61817 1.06946
 H2564 H 0.70616 0.58023 1.12667
 H2565 H 0.73754 0.60020 1.13773
 H2566 H 0.67371 0.57718 1.10373
 H2567 H 0.77208 0.60961 1.13656
 H2568 H 0.68525 0.59052 1.05762
 C2569 C 1.30459 0.89630 0.88143
 C2570 C 1.28870 0.88579 0.89337
 C2571 C 1.26751 0.89593 0.89840
 C2572 C 1.25651 0.89028 0.91719
 C2573 C 1.23691 0.90019 0.92277
 C2574 C 1.22788 0.91596 0.90957
 C2575 C 1.23840 0.92091 0.89032
 C2576 C 1.25802 0.91103 0.88476
 C2577 C 1.20723 0.92693 0.91505
 C2578 C 1.19974 0.92901 0.93593
 H2579 H 1.29217 0.87043 0.90034
 H2580 H 1.26324 0.87837 0.92772
 H2581 H 1.22881 0.89518 0.93727
 H2582 H 1.23151 0.93259 0.87963
 H2583 H 1.26555 0.91514 0.86969
 H2584 H 1.19768 0.93339 0.90224
 H2585 H 1.30125 0.91238 0.87618
 H2586 H 1.20954 0.92293 0.94873
 C2587 C 1.26790 0.34049 0.36111
 C2588 C 1.26044 0.36137 0.35933
 C2589 C 1.24247 0.36929 0.37293
 C2590 C 1.24310 0.39009 0.38051
 C2591 C 1.22679 0.39770 0.39413
 C2592 C 1.20920 0.38474 0.40002
 C2593 C 1.20860 0.36393 0.39238
 C2594 C 1.22500 0.35628 0.37889
 C2595 C 1.19099 0.39247 0.41355
 C2596 C 1.18552 0.41391 0.41506
 H2597 H 1.26938 0.37277 0.34984
 H2598 H 1.25651 0.40031 0.37626
 H2599 H 1.22826 0.41361 0.40017
 H2600 H 1.19522 0.35365 0.39659
 H2601 H 1.22383 0.34028 0.37295
 H2602 H 1.18007 0.38083 0.42034
 H2603 H 1.25985 0.33009 0.37244
 H2604 H 1.19511 0.42545 0.40643
 C2605 C 0.78465 0.85205 0.37948
 C2606 C 0.77953 0.87361 0.37978
 C2607 C 0.76229 0.88241 0.39368
 C2608 C 0.76219 0.90413 0.39829
 C2609 C 0.74524 0.91312 0.41024
 C2610 C 0.72799 0.90045 0.41751
 C2611 C 0.72837 0.87869 0.41326
 C2612 C 0.74520 0.86976 0.40132
 C2613 C 0.70897 0.90915 0.42899
 C2614 C 0.70218 0.93026 0.42747
 H2615 H 0.78812 0.88444 0.36935
 H2616 H 0.77517 0.91418 0.39252
 H2617 H 0.74576 0.92987 0.41369
 H2618 H 0.71522 0.86862 0.41863
 H2619 H 0.74425 0.85310 0.39753
 H2620 H 0.69847 0.89771 0.43668
 H2621 H 0.77776 0.84161 0.39145
 H2622 H 0.71147 0.94132 0.41790
 C2623 C 0.77874 0.37613 0.86780
 C2624 C 0.76476 0.36827 0.88359
 C2625 C 0.74405 0.37938 0.88910
 C2626 C 0.73522 0.37739 0.90965
 C2627 C 0.71609 0.38820 0.91539
 C2628 C 0.70528 0.40129 0.90061
 C2629 C 0.71373 0.40263 0.87985
 C2630 C 0.73280 0.39180 0.87412
 C2631 C 0.68484 0.41305 0.90584
 C2632 C 0.67737 0.41655 0.92656
 H2633 H 0.76936 0.35441 0.89274
 H2634 H 0.74326 0.36761 0.92137
 H2635 H 0.70983 0.38589 0.93133
 H2636 H 0.70555 0.41213 0.86798
 H2637 H 0.73846 0.39302 0.85783
 H2638 H 0.67514 0.41884 0.89282
 H2639 H 0.77439 0.39097 0.86017
 H2640 H 0.68690 0.41097 0.93973
 C2641 C 0.71472 0.85877 1.11784
 C2642 C 0.72851 0.87517 1.12340
 C2643 C 0.74822 0.88086 1.11079
 C2644 C 0.75698 0.90112 1.11316
 C2645 C 0.77547 0.90720 1.10163
 C2646 C 0.78570 0.89309 1.08732
 C2647 C 0.77729 0.87263 1.08535
 C2648 C 0.75876 0.86654 1.09690
 C2649 C 0.80577 0.89882 1.07529
 C2650 C 0.81176 0.91980 1.07144
 H2651 H 0.72429 0.88490 1.13693
 H2652 H 0.74948 0.91234 1.12402
 H2653 H 0.78189 0.92279 1.10445
 H2654 H 0.78511 0.86127 1.07485
 H2655 H 0.75311 0.85049 1.09516
 H2656 H 0.81649 0.88616 1.07001
 H2657 H 0.71820 0.84987 1.10356
 H2658 H 0.80088 0.93249 1.07621
 C2659 C 0.69958 0.39251 0.62229
 C2660 C 0.71662 0.38130 0.61274
 C2661 C 0.73741 0.39167 0.60725
 C2662 C 0.74992 0.38404 0.59016
 C2663 C 0.76930 0.39393 0.58430
 C2664 C 0.77659 0.41167 0.59552
 C2665 C 0.76456 0.41870 0.61318
 C2666 C 0.74515 0.40886 0.61899
 C2667 C 0.79695 0.42266 0.58965
 C2668 C 0.80535 0.42259 0.56900
 H2669 H 0.71456 0.36484 0.60859
 H2670 H 0.74456 0.37054 0.58118
 H2671 H 0.77863 0.38740 0.57118
 H2672 H 0.77008 0.43198 0.62238
 H2673 H 0.73644 0.41461 0.63285
 H2674 H 0.80542 0.43095 0.60194
 H2675 H 0.70141 0.40931 0.62506
 H2676 H 0.79646 0.41473 0.55672
 C2677 C 0.22138 0.86869 0.61881
 C2678 C 0.23670 0.88162 0.62817
 C2679 C 0.25667 0.88848 0.61655
 C2680 C 0.26728 0.90691 0.62283
 C2681 C 0.28614 0.91367 0.61222
 C2682 C 0.29490 0.90204 0.59501
 C2683 C 0.28459 0.88331 0.58914
 C2684 C 0.26577 0.87657 0.59974
 C2685 C 0.31516 0.90827 0.58350
 C2686 C 0.32394 0.92858 0.58434
 H2687 H 0.23402 0.88694 0.64430
 H2688 H 0.26092 0.91615 0.63599
 H2689 H 0.29392 0.92774 0.61794
 H2690 H 0.29117 0.87377 0.57630
 H2691 H 0.25876 0.86175 0.59494
 H2692 H 0.32360 0.89626 0.57428
 H2693 H 0.22365 0.86437 0.60233
 H2694 H 0.31549 0.94072 0.59332
 C2695 C 0.18055 0.39874 1.08590
 C2696 C 0.19008 0.41810 1.09078
 C2697 C 0.21114 0.42494 1.08160
 C2698 C 0.22323 0.43965 1.09292
 C2699 C 0.24437 0.44451 1.08659
 C2700 C 0.25391 0.43464 1.06876
 C2701 C 0.24130 0.42116 1.05653
 C2702 C 0.22011 0.41633 1.06283
 C2703 C 0.27690 0.43777 1.06268
 C2704 C 0.29251 0.44378 1.07718
 H2705 H 0.18351 0.42738 1.10376
 H2706 H 0.21658 0.44687 1.10718
 H2707 H 0.25314 0.45584 1.09585
 H2708 H 0.24810 0.41380 1.04240
 H2709 H 0.21110 0.40565 1.05306
 H2710 H 0.28181 0.43429 1.04650
 H2711 H 0.18662 0.38987 1.07241
 H2712 H 0.28781 0.44734 1.09338
 C2713 C 0.71351 1.13630 0.88839
 C2714 C 0.72820 1.12084 0.88107
 C2715 C 0.74817 1.11474 0.89249
 C2716 C 0.76545 1.10561 0.88095
 C2717 C 0.78443 1.09924 0.89109
 C2718 C 0.78642 1.10147 0.91319
 C2719 C 0.76919 1.11074 0.92472
 C2720 C 0.75021 1.11722 0.91454
 C2721 C 0.80622 1.09464 0.92460
 C2722 C 0.82077 1.07944 0.91654
 H2723 H 0.72573 1.11352 0.86586
 H2724 H 0.76435 1.10359 0.86395
 H2725 H 0.79753 1.09289 0.88142
 H2726 H 0.77027 1.11271 0.94173
 H2727 H 0.73708 1.12370 0.92411
 H2728 H 0.80861 1.10108 0.94022
 H2729 H 0.71717 1.14472 0.90279
 H2730 H 0.81687 1.07170 0.90185
 C2731 C 0.71694 0.62742 0.34950
 C2732 C 0.73269 0.63349 0.36386
 C2733 C 0.75036 0.61912 0.37110
 C2734 C 0.76126 0.62410 0.38974
 C2735 C 0.77836 0.61137 0.39686
 C2736 C 0.78501 0.59323 0.38547
 C2737 C 0.77440 0.58848 0.36660
 C2738 C 0.75725 0.60121 0.35947
 C2739 C 0.80362 0.57979 0.39220
 C2740 C 0.81063 0.57896 0.41315
 H2741 H 0.73201 0.64932 0.37034
 H2742 H 0.75661 0.63799 0.39879
 H2743 H 0.78663 0.61621 0.41099
 H2744 H 0.77946 0.57489 0.35727
 H2745 H 0.74989 0.59719 0.34460
 H2746 H 0.81230 0.57078 0.38018
 H2747 H 0.71694 0.61130 0.34379
 H2748 H 0.80149 0.58750 0.42519
 C2749 C 0.22564 1.11510 0.37789
 C2750 C 0.23558 1.12125 0.39662
 C2751 C 0.25687 1.11275 0.40300
 C2752 C 0.26171 1.11131 0.42462
 C2753 C 0.28177 1.10342 0.43113
 C2754 C 0.29759 1.09722 0.41601
 C2755 C 0.29274 1.09885 0.39438
 C2756 C 0.27265 1.10659 0.38790
 C2757 C 0.31911 1.08867 0.42191
 C2758 C 0.32773 1.08997 0.44222
 H2759 H 0.22725 1.13180 0.40753
 H2760 H 0.24979 1.11603 0.43652
 H2761 H 0.28453 1.10201 0.44796
 H2762 H 0.30462 1.09424 0.38239
 H2763 H 0.26971 1.10807 0.37108
 H2764 H 0.32898 1.08200 0.40926
 H2765 H 0.23327 1.10277 0.36841
 H2766 H 0.31906 1.09868 0.45443
 C2767 C 0.19672 0.61362 0.86275
 C2768 C 0.21041 0.62120 0.87843
 C2769 C 0.23052 0.61030 0.88528
 C2770 C 0.24016 0.61703 0.90404
 C2771 C 0.25931 0.60763 0.91110
 C2772 C 0.26927 0.59109 0.89956
 C2773 C 0.25985 0.58457 0.88060
 C2774 C 0.24070 0.59403 0.87349
 C2775 C 0.28988 0.58100 0.90622
 C2776 C 0.29775 0.58222 0.92684
 H2777 H 0.20610 0.63563 0.88668
 H2778 H 0.23290 0.62975 0.91326
 H2779 H 0.26636 0.61382 0.92532
 H2780 H 0.26739 0.57213 0.87121
 H2781 H 0.23431 0.58874 0.85860
 H2782 H 0.29926 0.57259 0.89427
 H2783 H 0.20056 0.59869 0.85518
 H2784 H 0.28841 0.59045 0.93891
 C2785 C 1.12143 1.28953 1.11312
 C2786 C 1.11012 1.27462 1.12529
 C2787 C 1.10611 1.25296 1.11735
 C2788 C 1.08753 1.24218 1.12429
 C2789 C 1.08260 1.22230 1.11606
 C2790 C 1.09626 1.21276 1.10066
 C2791 C 1.11541 1.22308 1.09457
 C2792 C 1.12032 1.24294 1.10280
 C2793 C 1.09129 1.19207 1.09089
 C2794 C 1.07040 1.18387 1.09031
 H2795 H 1.10254 1.27936 1.14013
 H2796 H 1.07657 1.24935 1.13582
 H2797 H 1.06819 1.21451 1.12197
 H2798 H 1.12647 1.21588 1.08315
 H2799 H 1.13530 1.25032 1.09775
 H2800 H 1.10453 1.18325 1.08359
 H2801 H 1.12738 1.28511 1.09750
 H2802 H 1.05710 1.19268 1.09745
 C2803 C 1.13411 0.77533 0.61605
 C2804 C 1.11820 0.76118 0.62300
 C2805 C 1.11217 0.74228 0.61035
 C2806 C 1.09159 0.73340 0.61326
 C2807 C 1.08537 0.71574 0.60150
 C2808 C 1.09969 0.70646 0.58648
 C2809 C 1.12049 0.71499 0.58404
 C2810 C 1.12670 0.73263 0.59579
 C2811 C 1.09397 0.68736 0.57399
 C2812 C 1.07267 0.68081 0.57114
 H2813 H 1.10939 0.76434 0.63763
 H2814 H 1.08021 0.74020 0.62463
 H2815 H 1.06950 0.70927 0.60466
 H2816 H 1.13205 0.70794 0.57300
 H2817 H 1.14305 0.73833 0.59365
 H2818 H 1.10704 0.67787 0.56726
 H2819 H 1.14178 0.77277 0.60071
 H2820 H 1.05951 0.69037 0.57750
 C2821 C 0.61555 1.29057 0.64149
 C2822 C 0.62662 1.27594 0.62869
 C2823 C 0.61862 1.25419 0.62473
 C2824 C 0.62693 1.24311 0.60713
 C2825 C 0.61940 1.22291 0.60232
 C2826 C 0.60321 1.21328 0.61499
 C2827 C 0.59553 1.22397 0.63308
 C2828 C 0.60312 1.24418 0.63795
 C2829 C 0.59440 1.19205 0.61009
 C2830 C 0.59543 1.18341 0.58976
 H2831 H 0.64112 1.28089 0.62026
 H2832 H 0.63920 1.25020 0.59693
 H2833 H 0.62658 1.21490 0.58880
 H2834 H 0.58344 1.21674 0.64340
 H2835 H 0.59687 1.25166 0.65217
 H2836 H 0.58672 1.18318 0.62286
 H2837 H 0.60057 1.28602 0.64929
 H2838 H 0.60269 1.19254 0.57697
 C2839 C 0.60984 0.78040 1.13005
 C2840 C 0.61591 0.76795 1.11268
 C2841 C 0.60365 0.74918 1.10582
 C2842 C 0.60747 0.74133 1.08533
 C2843 C 0.59674 0.72335 1.07832
 C2844 C 0.58183 0.71279 1.09172
 C2845 C 0.57820 0.72051 1.11231
 C2846 C 0.58898 0.73847 1.11934
 C2847 C 0.57061 0.69319 1.08537
 C2848 C 0.56977 0.68600 1.06449
 H2849 H 0.63002 0.77227 1.10331
 H2850 H 0.61894 0.74907 1.07471
 H2851 H 0.60069 0.71768 1.06259
 H2852 H 0.56710 0.71250 1.12310
 H2853 H 0.58607 0.74346 1.13550
 H2854 H 0.56323 0.68373 1.09788
 H2855 H 0.59512 0.77686 1.13883
 H2856 H 0.57718 0.69510 1.05178
 C2857 C 0.87160 1.27863 0.86284
 C2858 C 0.87068 1.27019 0.88336
 C2859 C 0.88346 1.25102 0.88950
 C2860 C 0.89041 1.24874 0.91049
 C2861 C 0.90309 1.23126 0.91659
 C2862 C 0.90881 1.21536 0.90186
 C2863 C 0.90180 1.21764 0.88088
 C2864 C 0.88917 1.23514 0.87478
 C2865 C 0.92173 1.19619 0.90779
 C2866 C 0.92241 1.18831 0.92855
 H2867 H 0.86224 1.27904 0.89567
 H2868 H 0.88637 1.26076 0.92213
 H2869 H 0.90861 1.23051 0.93277
 H2870 H 0.90585 1.20565 0.86921
 H2871 H 0.88370 1.23599 0.85857
 H2872 H 0.92902 1.18686 0.89516
 H2873 H 0.88202 1.27101 0.85115
 H2874 H 0.91318 1.19646 0.94077
 C2875 C 0.84524 0.74665 0.33548
 C2876 C 0.86696 0.74164 0.33852
 C2877 C 0.87424 0.72425 0.35273
 C2878 C 0.89601 0.71780 0.35181
 C2879 C 0.90400 0.70288 0.36626
 C2880 C 0.89038 0.69431 0.38222
 C2881 C 0.86852 0.70041 0.38288
 C2882 C 0.86052 0.71534 0.36845
 C2883 C 0.89821 0.67852 0.39787
 C2884 C 0.91997 0.67633 0.40305
 H2885 H 0.87907 0.75235 0.33214
 H2886 H 0.90692 0.72445 0.33993
 H2887 H 0.92077 0.69801 0.36465
 H2888 H 0.85768 0.69395 0.39492
 H2889 H 0.84380 0.72027 0.37028
 H2890 H 0.88651 0.66789 0.40509
 H2891 H 0.83283 0.73602 0.34131
 H2892 H 0.93180 0.68700 0.39616
 C2893 C 0.36162 1.25285 0.36407
 C2894 C 0.38348 1.25142 0.36905
 C2895 C 0.39158 1.23622 0.38514
 C2896 C 0.40973 1.24157 0.39701
 C2897 C 0.41727 1.22796 0.41293
 C2898 C 0.40694 1.20854 0.41706
 C2899 C 0.38878 1.20321 0.40521
 C2900 C 0.38126 1.21679 0.38929
 C2901 C 0.41507 1.19313 0.43293
 C2902 C 0.43696 1.19142 0.43779
 H2903 H 0.39437 1.26353 0.36311
 H2904 H 0.41787 1.25650 0.39421
 H2905 H 0.43102 1.23283 0.42207
 H2906 H 0.38066 1.18826 0.40796
 H2907 H 0.36758 1.21185 0.38010
 H2908 H 0.40423 1.18074 0.43834
 H2909 H 0.35024 1.24229 0.37187
 H2910 H 0.44834 1.20230 0.43047
 C2911 C 0.39297 0.79695 0.87168
 C2912 C 0.38101 0.78194 0.88312
 C2913 C 0.38898 0.76000 0.88709
 C2914 C 0.38016 0.74853 0.90425
 C2915 C 0.38766 0.72810 0.90900
 C2916 C 0.40429 0.71863 0.89666
 C2917 C 0.41245 0.72972 0.87895
 C2918 C 0.40492 0.75017 0.87417
 C2919 C 0.41299 0.69715 0.90154
 C2920 C 0.41199 0.68838 0.92194
 H2921 H 0.36579 0.78664 0.89049
 H2922 H 0.36754 0.75550 0.91418
 H2923 H 0.38015 0.71976 0.92220
 H2924 H 0.42488 0.72261 0.86888
 H2925 H 0.41152 0.75803 0.86025
 H2926 H 0.42054 0.68823 0.88877
 H2927 H 0.40869 0.79258 0.86521
 H2928 H 0.40496 0.69769 0.93469
 C2929 C 1.11240 0.72042 0.86769
 C2930 C 1.12275 0.73095 0.88382
 C2931 C 1.11559 0.75233 0.89046
 C2932 C 1.12470 0.76152 0.90839
 C2933 C 1.11793 0.78162 0.91514
 C2934 C 1.10189 0.79287 0.90399
 C2935 C 1.09317 0.78386 0.88579
 C2936 C 1.09983 0.76377 0.87913
 C2937 C 1.09401 0.81406 0.91051
 C2938 C 1.09485 0.82142 0.93131
 H2939 H 1.13611 0.72328 0.89190
 H2940 H 1.13704 0.75311 0.91723
 H2941 H 1.12555 0.78833 0.92885
 H2942 H 1.08095 0.79230 0.87682
 H2943 H 1.09261 0.75727 0.86509
 H2944 H 1.08656 0.82386 0.89845
 H2945 H 1.11677 0.70899 0.86445
 H2946 H 1.10261 0.81186 0.94337
 C2947 C 1.13093 0.20465 0.38670
 C2948 C 1.11631 0.21908 0.37787
 C2949 C 1.10985 0.23911 0.38860
 C2950 C 1.09036 0.24913 0.38307
 C2951 C 1.08389 0.26814 0.39269
 C2952 C 1.09687 0.27760 0.40813
 C2953 C 1.11662 0.26785 0.41325
 C2954 C 1.12308 0.24886 0.40363
 C2955 C 1.09094 0.29803 0.41841
 C2956 C 1.06988 0.30626 0.41892
 H2957 H 1.10917 0.21560 0.36273
 H2958 H 1.08008 0.24222 0.37124
 H2959 H 1.06898 0.27548 0.38755
 H2960 H 1.12716 0.27499 0.42471
 H2961 H 1.13868 0.24222 0.40772
 H2962 H 1.10377 0.30699 0.42554
 H2963 H 1.13721 0.20766 0.40231
 H2964 H 1.05695 0.29729 0.41205
 C2965 C 0.65044 0.74357 0.34255
 C2966 C 0.64616 0.74765 0.36390
 C2967 C 0.63338 0.76639 0.37110
 C2968 C 0.63502 0.77301 0.39218
 C2969 C 0.62255 0.79006 0.39973
 C2970 C 0.60780 0.80066 0.38638
 C2971 C 0.60623 0.79409 0.36528
 C2972 C 0.61870 0.77705 0.35773
 C2973 C 0.59459 0.81906 0.39367
 C2974 C 0.58987 0.82277 0.41503
 H2975 H 0.65131 0.73614 0.37567
 H2976 H 0.64613 0.76507 0.40281
 H2977 H 0.62489 0.79505 0.41589
 H2978 H 0.59508 0.80199 0.35466
 H2979 H 0.61631 0.77204 0.34158
 H2980 H 0.58901 0.83037 0.38190
 H2981 H 0.64586 0.75518 0.33069
 H2982 H 0.59499 0.81134 0.42685
 C2983 C 0.60690 0.21429 0.87945
 C2984 C 0.61356 0.22908 0.89426
 C2985 C 0.60056 0.24821 0.89969
 C2986 C 0.60428 0.25838 0.91896
 C2987 C 0.59262 0.27664 0.92452
 C2988 C 0.57686 0.28515 0.91086
 C2989 C 0.57348 0.27525 0.89137
 C2990 C 0.58518 0.25699 0.88579
 C2991 C 0.56473 0.30493 0.91584
 C2992 C 0.56240 0.31266 0.93641
 H2993 H 0.62866 0.22654 0.90239
 H2994 H 0.61634 0.25221 0.92973
 H2995 H 0.59651 0.28424 0.93927
 H2996 H 0.56184 0.28175 0.88035
 H2997 H 0.58242 0.25022 0.87038
 H2998 H 0.55815 0.31405 0.90277
 H2999 H 0.59134 0.21629 0.87203
 H3000 H 0.56852 0.30346 0.94959
 C3001 C 0.85069 0.73417 1.13284
 C3002 C 0.85782 0.73829 1.11214
 C3003 C 0.87191 0.75660 1.10684
 C3004 C 0.88701 0.75478 1.09005
 C3005 C 0.90160 0.77112 1.08554
 C3006 C 0.90121 0.78982 1.09762
 C3007 C 0.88599 0.79172 1.11428
 C3008 C 0.87136 0.77541 1.11874
 C3009 C 0.91602 0.80774 1.09302
 C3010 C 0.92405 0.81202 1.07265
 H3011 H 0.85596 0.72599 1.10041
 H3012 H 0.88788 0.74043 1.08072
 H3013 H 0.91339 0.76885 1.07286
 H3014 H 0.88521 0.80601 1.12370
 H3015 H 0.85961 0.77769 1.13145
 H3016 H 0.91831 0.81944 1.10527
 H3017 H 0.85481 0.74514 1.14523
 H3018 H 0.91960 0.80178 1.05975
 C3019 C 0.86919 0.20969 0.61160
 C3020 C 0.87783 0.22818 0.61985
 C3021 C 0.88175 0.24759 0.60715
 C3022 C 0.88370 0.26689 0.61779
 C3023 C 0.88885 0.28539 0.60664
 C3024 C 0.89254 0.28486 0.58457
 C3025 C 0.88985 0.26574 0.57377
 C3026 C 0.88465 0.24719 0.58495
 C3027 C 0.89978 0.30387 0.57269
 C3028 C 0.91296 0.31890 0.58204
 H3029 H 0.88119 0.22881 0.63664
 H3030 H 0.88136 0.26765 0.63485
 H3031 H 0.89002 0.30005 0.61535
 H3032 H 0.89251 0.26500 0.55676
 H3033 H 0.88369 0.23254 0.57623
 H3034 H 0.89641 0.30488 0.55591
 H3035 H 0.86341 0.20958 0.59549
 H3036 H 0.91836 0.31602 0.59808
 C3037 C 0.39227 0.70811 0.61438
 C3038 C 0.38387 0.72442 0.60182
 C3039 C 0.39604 0.74402 0.59673
 C3040 C 0.38974 0.75644 0.57931
 C3041 C 0.40040 0.77534 0.57436
 C3042 C 0.41768 0.78225 0.58681
 C3043 C 0.42371 0.77003 0.60446
 C3044 C 0.41305 0.75114 0.60941
 C3045 C 0.42899 0.80253 0.58259
 C3046 C 0.42873 0.81288 0.56296
 H3047 H 0.36777 0.72294 0.59553
 H3048 H 0.37642 0.75155 0.56955
 H3049 H 0.39458 0.78464 0.56113
 H3050 H 0.43666 0.77518 0.61455
 H3051 H 0.41788 0.74257 0.62350
 H3052 H 0.43749 0.80963 0.59560
 H3053 H 0.40871 0.70910 0.61993
 H3054 H 0.42051 0.80568 0.54986
 C3055 C 0.37012 0.22146 1.14717
 C3056 C 0.36110 0.23479 1.13184
 C3057 C 0.37140 0.25505 1.12518
 C3058 C 0.36687 0.26359 1.10512
 C3059 C 0.37669 0.28235 1.09811
 C3060 C 0.39137 0.29306 1.11109
 C3061 C 0.39531 0.28488 1.13143
 C3062 C 0.38544 0.26616 1.13846
 C3063 C 0.40221 0.31306 1.10439
 C3064 C 0.40328 0.32018 1.08338
 H3065 H 0.34678 0.22980 1.12365
 H3066 H 0.35580 0.25562 1.09473
 H3067 H 0.37236 0.28841 1.08267
 H3068 H 0.40611 0.29299 1.14197
 H3069 H 0.38868 0.26071 1.15440
 H3070 H 0.40934 0.32267 1.11657
 H3071 H 0.38525 0.22588 1.15426
 H3072 H 0.39635 0.31073 1.07102
 C3073 C 1.12955 1.14003 0.72254
 C3074 C 1.13773 1.12598 0.73778
 C3075 C 1.12540 1.11978 0.75725
 C3076 C 1.13126 1.10102 0.76786
 C3077 C 1.12021 1.09462 0.78632
 C3078 C 1.10293 1.10690 0.79463
 C3079 C 1.09744 1.12595 0.78434
 C3080 C 1.10851 1.13236 0.76587
 C3081 C 1.09106 1.10081 0.81441
 C3082 C 1.09050 1.08000 0.82210
 H3083 H 1.15339 1.11857 0.73519
 H3084 H 1.14447 1.09124 0.76185
 H3085 H 1.12568 1.08031 0.79419
 H3086 H 1.08453 1.13594 0.79064
 H3087 H 1.10401 1.14737 0.75874
 H3088 H 1.08277 1.11321 0.82323
 H3089 H 1.11328 1.14625 0.72472
 H3090 H 1.09838 1.06757 0.81301
 C3091 C 1.07139 0.59504 0.18723
 C3092 C 1.07829 0.57707 0.19849
 C3093 C 1.07039 0.57153 0.22015
 C3094 C 1.08269 0.55713 0.23215
 C3095 C 1.07745 0.55310 0.25341
 C3096 C 1.05976 0.56353 0.26320
 C3097 C 1.04664 0.57689 0.25090
 C3098 C 1.05185 0.58090 0.22960
 C3099 C 1.05458 0.56096 0.28607
 C3100 C 1.06996 0.55473 0.30093
 H3101 H 1.09171 0.56776 0.19230
 H3102 H 1.09682 0.54937 0.22522
 H3103 H 1.08737 0.54187 0.26201
 H3104 H 1.03261 0.58472 0.25795
 H3105 H 1.04137 0.59150 0.22089
 H3106 H 1.03829 0.56487 0.29141
 H3107 H 1.05734 0.60380 0.19282
 H3108 H 1.08626 0.55072 0.29575
 C3109 C 0.61549 1.14251 0.21727
 C3110 C 0.62404 1.12799 0.23183
 C3111 C 0.61442 1.12405 0.25305
 C3112 C 0.62797 1.11680 0.26922
 C3113 C 0.61946 1.11169 0.28921
 C3114 C 0.59703 1.11322 0.29328
 C3115 C 0.58352 1.12106 0.27728
 C3116 C 0.59209 1.12636 0.25727
 C3117 C 0.58738 1.10649 0.31386
 C3118 C 0.59717 1.09102 0.32656
 H3119 H 0.63921 1.11999 0.22828
 H3120 H 0.64525 1.11507 0.26638
 H3121 H 0.63055 1.10658 0.30137
 H3122 H 0.56621 1.12252 0.28008
 H3123 H 0.58114 1.13158 0.24502
 H3124 H 0.57151 1.11266 0.31809
 H3125 H 0.60155 1.15203 0.22197
 H3126 H 0.61183 1.08337 0.32073
 C3127 C 0.61803 0.60113 0.70943
 C3128 C 0.60760 0.61195 0.72592
 C3129 C 0.60250 0.60174 0.74652
 C3130 C 0.58479 0.60935 0.75846
 C3131 C 0.57891 0.59956 0.77758
 C3132 C 0.59070 0.58195 0.78516
 C3133 C 0.60906 0.57500 0.77377
 C3134 C 0.61492 0.58475 0.75457
 C3135 C 0.58450 0.57103 0.80511
 C3136 C 0.56305 0.57040 0.81225
 H3137 H 0.60183 0.62799 0.72337
 H3138 H 0.57529 0.62271 0.75282
 H3139 H 0.56526 0.60601 0.78646
 H3140 H 0.61870 0.56181 0.77959
 H3141 H 0.62925 0.57905 0.74625
 H3142 H 0.59713 0.56350 0.81428
 H3143 H 0.62278 0.58472 0.71169
 H3144 H 0.55054 0.57748 0.80258
 C3145 C 0.90727 0.87336 0.71504
 C3146 C 0.89845 0.88719 0.73009
 C3147 C 0.90980 0.89314 0.74966
 C3148 C 0.90306 0.91150 0.76036
 C3149 C 0.91304 0.91755 0.77905
 C3150 C 0.93010 0.90532 0.78746
 C3151 C 0.93652 0.88668 0.77705
 C3152 C 0.92651 0.88061 0.75833
 C3153 C 0.94065 0.91095 0.80757
 C3154 C 0.94049 0.93156 0.81541
 H3155 H 0.88271 0.89428 0.72741
 H3156 H 0.88994 0.92119 0.75427
 H3157 H 0.90689 0.93151 0.78705
 H3158 H 0.94927 0.87673 0.78345
 H3159 H 0.93164 0.86587 0.75110
 H3160 H 0.94825 0.89835 0.81662
 H3161 H 0.92339 0.86693 0.71718
 H3162 H 0.93336 0.94422 0.80611
 C3163 C 0.85963 0.37754 0.21029
 C3164 C 0.87475 0.36935 0.22457
 C3165 C 0.88044 0.38037 0.24452
 C3166 C 0.90035 0.37568 0.25397
 C3167 C 0.90655 0.38598 0.27248
 C3168 C 0.89292 0.40136 0.28204
 C3169 C 0.87271 0.40555 0.27296
 C3170 C 0.86649 0.39520 0.25447
 C3171 C 0.89877 0.41264 0.30180
 C3172 C 0.91994 0.41369 0.30923
 H3173 H 0.88376 0.35511 0.22056
 H3174 H 0.91125 0.36405 0.24693
 H3175 H 0.92187 0.38148 0.27930
 H3176 H 0.86166 0.41693 0.28019
 H3177 H 0.85061 0.39871 0.24831
 H3178 H 0.88585 0.42015 0.31090
 H3179 H 0.85175 0.39250 0.21398
 H3180 H 0.93296 0.40646 0.30011
 C3181 C 0.39100 0.88337 0.22096
 C3182 C 0.38497 0.90189 0.23163
 C3183 C 0.39574 0.90787 0.25158
 C3184 C 0.39957 0.92928 0.25585
 C3185 C 0.41085 0.93513 0.27398
 C3186 C 0.41815 0.91960 0.28849
 C3187 C 0.41392 0.89823 0.28435
 C3188 C 0.40275 0.89241 0.26621
 C3189 C 0.43028 0.92488 0.30793
 C3190 C 0.43002 0.94499 0.31708
 H3191 H 0.37382 0.91306 0.22446
 H3192 H 0.39437 0.94148 0.24481
 H3193 H 0.41415 0.95175 0.27621
 H3194 H 0.41920 0.88594 0.29526
 H3195 H 0.39954 0.87577 0.26375
 H3196 H 0.43828 0.91199 0.31620
 H3197 H 0.40389 0.87375 0.22761
 H3198 H 0.42023 0.95738 0.31003
 C3199 C 0.38066 0.36587 0.72022
 C3200 C 0.37054 0.37873 0.73540
 C3201 C 0.38055 0.38449 0.75571
 C3202 C 0.37202 0.40192 0.76682
 C3203 C 0.38089 0.40807 0.78601
 C3204 C 0.39863 0.39691 0.79450
 C3205 C 0.40673 0.37906 0.78377
 C3206 C 0.39784 0.37288 0.76455
 C3207 C 0.40844 0.40305 0.81478
 C3208 C 0.40732 0.42376 0.82238
 H3209 H 0.35473 0.38537 0.73215
 H3210 H 0.35844 0.41087 0.76061
 H3211 H 0.37350 0.42133 0.79425
 H3212 H 0.42006 0.36993 0.79023
 H3213 H 0.40438 0.35885 0.75697
 H3214 H 0.41672 0.39089 0.82382
 H3215 H 0.39665 0.35945 0.72304
 H3216 H 0.39945 0.43590 0.81297
 C3217 C 1.13902 0.87894 1.29108
 C3218 C 1.12224 0.87195 1.27824
 C3219 C 1.11454 0.88418 1.25946
 C3220 C 1.10459 0.87336 1.24291
 C3221 C 1.09735 0.88427 1.22488
 C3222 C 1.09954 0.90645 1.22313
 C3223 C 1.10940 0.91727 1.23975
 C3224 C 1.11668 0.90635 1.25775
 C3225 C 1.09232 0.91870 1.20415
 C3226 C 1.07698 0.91121 1.18996
 H3227 H 1.11529 0.85650 1.28110
 H3228 H 1.10274 0.85631 1.24377
 H3229 H 1.09048 0.87512 1.21227
 H3230 H 1.11130 0.93431 1.23890
 H3231 H 1.12366 0.91543 1.27038
 H3232 H 1.09876 0.93445 1.20198
 H3233 H 1.14686 0.89371 1.28691
 H3234 H 1.06934 0.89622 1.19353
 C3235 C 1.12707 0.38657 0.78147
 C3236 C 1.11335 0.37878 0.76593
 C3237 C 1.10857 0.39004 0.74573
 C3238 C 1.09043 0.38374 0.73433
 C3239 C 1.08502 0.39382 0.71533
 C3240 C 1.09763 0.41060 0.70723
 C3241 C 1.11617 0.41651 0.71824
 C3242 C 1.12161 0.40639 0.73733
 C3243 C 1.09231 0.42149 0.68699
 C3244 C 1.07127 0.42219 0.67917
 H3245 H 1.10476 0.36419 0.76890
 H3246 H 1.08033 0.37094 0.74018
 H3247 H 1.07118 0.38806 0.70689
 H3248 H 1.12642 0.42906 0.71211
 H3249 H 1.13616 0.41130 0.74513
 H3250 H 1.10535 0.42882 0.67801
 H3251 H 1.13503 0.40158 0.77873
 H3252 H 1.05827 0.41541 0.68864
 C3253 C 0.64234 0.87179 0.78670
 C3254 C 0.62432 0.86681 0.77467
 C3255 C 0.61953 0.87747 0.75417
 C3256 C 0.60613 0.86734 0.73969
 C3257 C 0.60116 0.87698 0.72028
 C3258 C 0.60930 0.89718 0.71506
 C3259 C 0.62269 0.90729 0.72952
 C3260 C 0.62760 0.89770 0.74894
 C3261 C 0.60454 0.90795 0.69465
 C3262 C 0.58580 0.90409 0.68323
 H3263 H 0.61351 0.85446 0.78017
 H3264 H 0.59969 0.85178 0.74331
 H3265 H 0.59130 0.86836 0.70932
 H3266 H 0.62912 0.92286 0.72592
 H3267 H 0.63735 0.90645 0.75988
 H3268 H 0.61597 0.91965 0.68900
 H3269 H 0.65374 0.88336 0.78067
 H3270 H 0.57427 0.89282 0.68965
 C3271 C 0.61633 0.39042 1.28352
 C3272 C 0.60363 0.38070 1.26835
 C3273 C 0.59884 0.39139 1.24792
 C3274 C 0.57921 0.38735 1.23797
 C3275 C 0.57380 0.39806 1.21926
 C3276 C 0.58802 0.41303 1.21010
 C3277 C 0.60812 0.41625 1.21948
 C3278 C 0.61351 0.40558 1.23820
 C3279 C 0.58263 0.42488 1.19047
 C3280 C 0.56132 0.42885 1.18461
 H3281 H 0.59590 0.36574 1.27187
 H3282 H 0.56787 0.37615 1.24487
 H3283 H 0.55859 0.39432 1.21195
 H3284 H 0.61959 0.42725 1.21243
 H3285 H 0.62923 0.40839 1.24492
 H3286 H 0.59577 0.43036 1.18031
 H3287 H 0.62231 0.40620 1.28013
 H3288 H 0.54821 0.42380 1.19501
 C3289 C 0.92248 1.09477 1.30849
 C3290 C 0.91161 1.08125 1.29492
 C3291 C 0.91762 1.07832 1.27230
 C3292 C 0.90803 1.06178 1.26115
 C3293 C 0.91163 1.05957 1.23934
 C3294 C 0.92499 1.07394 1.22818
 C3295 C 0.93464 1.09041 1.23937
 C3296 C 0.93101 1.09264 1.26115
 C3297 C 0.92874 1.07294 1.20495
 C3298 C 0.92403 1.05536 1.19254
 H3299 H 0.89716 1.07334 1.30060
 H3300 H 0.89735 1.05075 1.26929
 H3301 H 0.90338 1.04695 1.23140
 H3302 H 0.94483 1.10182 1.23116
 H3303 H 0.93817 1.10605 1.26886
 H3304 H 0.93565 1.08683 1.19742
 H3305 H 0.93767 1.10170 1.30341
 H3306 H 0.91661 1.04159 1.19977
 C3307 C 0.87748 0.63828 0.77974
 C3308 C 0.86916 0.62409 0.76503
 C3309 C 0.88137 0.61701 0.74568
 C3310 C 0.86981 0.60911 0.72848
 C3311 C 0.88059 0.60231 0.70998
 C3312 C 0.90337 0.60288 0.70829
 C3313 C 0.91494 0.61085 0.72546
 C3314 C 0.90415 0.61770 0.74397
 C3315 C 0.91544 0.59554 0.68893
 C3316 C 0.90691 0.58091 0.67477
 H3317 H 0.85257 0.61898 0.76700
 H3318 H 0.85229 0.60845 0.72925
 H3319 H 0.87090 0.59696 0.69696
 H3320 H 0.93246 0.61152 0.72467
 H3321 H 0.91380 0.62315 0.75697
 H3322 H 0.93191 0.60089 0.68661
 H3323 H 0.89339 0.64484 0.77686
 H3324 H 0.89124 0.57424 0.67861
 C3325 C 0.39677 1.13210 0.79467
 C3326 C 0.39353 1.11350 0.78321
 C3327 C 0.40532 1.10766 0.76339
 C3328 C 0.39717 1.09099 0.75134
 C3329 C 0.40769 1.08450 0.73270
 C3330 C 0.42687 1.09440 0.72575
 C3331 C 0.43495 1.11122 0.73766
 C3332 C 0.42441 1.11773 0.75637
 C3333 C 0.43826 1.08811 0.70586
 C3334 C 0.43629 1.06800 0.69691
 H3335 H 0.38117 1.10264 0.78862
 H3336 H 0.38244 1.08301 0.75627
 H3337 H 0.40042 1.07202 0.72364
 H3338 H 0.44962 1.11920 0.73257
 H3339 H 0.43149 1.13040 0.76530
 H3340 H 0.44833 1.09987 0.69810
 H3341 H 0.40844 1.14358 0.78904
 H3342 H 0.42656 1.05621 0.70507
 C3343 C 0.37395 0.65232 1.28250
 C3344 C 0.36828 0.63459 1.27067
 C3345 C 0.37983 0.62812 1.25084
 C3346 C 0.36933 0.61456 1.23686
 C3347 C 0.37959 0.60786 1.21811
 C3348 C 0.40081 0.61436 1.21302
 C3349 C 0.41128 0.62806 1.22687
 C3350 C 0.40103 0.63473 1.24568
 C3351 C 0.41214 0.60739 1.19328
 C3352 C 0.40776 0.58792 1.18390
 H3353 H 0.35437 0.62536 1.27552
 H3354 H 0.35301 0.60926 1.24035
 H3355 H 0.37067 0.59789 1.20751
 H3356 H 0.42759 0.63332 1.22330
 H3357 H 0.41002 0.64468 1.25621
 H3358 H 0.42435 0.61768 1.18649
 H3359 H 0.38712 0.66213 1.27679
 H3360 H 0.39637 0.57754 1.19193
 C3361 C 1.10889 1.28705 0.86501
 C3362 C 1.11707 1.27463 0.88160
 C3363 C 1.10816 1.25408 0.88897
 C3364 C 1.11616 1.24528 0.90785
 C3365 C 1.10842 1.22598 0.91570
 C3366 C 1.09240 1.21502 0.90477
 C3367 C 1.08465 1.22359 0.88569
 C3368 C 1.09236 1.24295 0.87785
 C3369 C 1.08381 1.19443 0.91233
 C3370 C 1.08496 1.18721 0.93335
 H3371 H 1.13085 1.28038 0.89012
 H3372 H 1.12852 1.25337 0.91663
 H3373 H 1.11538 1.21965 0.93006
 H3374 H 1.07248 1.21531 0.87683
 H3375 H 1.08600 1.24885 0.86306
 H3376 H 1.07600 1.18473 0.90067
 H3377 H 1.09561 1.28150 0.85566
 H3378 H 1.09314 1.19655 0.94503
 C3379 C 1.14243 0.77595 0.37450
 C3380 C 1.12255 0.76672 0.37007
 C3381 C 1.11580 0.74629 0.37998
 C3382 C 1.09369 0.74224 0.38333
 C3383 C 1.08692 0.72348 0.39337
 C3384 C 1.10217 0.70814 0.40000
 C3385 C 1.12425 0.71211 0.39640
 C3386 C 1.13101 0.73084 0.38638
 C3387 C 1.09583 0.68803 0.41082
 C3388 C 1.07539 0.67897 0.40890
 H3389 H 1.11100 0.77542 0.36056
 H3390 H 1.08164 0.75385 0.37859
 H3391 H 1.06977 0.72133 0.39625
 H3392 H 1.13636 0.70057 0.40119
 H3393 H 1.14816 0.73300 0.38350
 H3394 H 1.10826 0.67930 0.41918
 H3395 H 1.15294 0.76814 0.38576
 H3396 H 1.06376 0.68658 0.39863
 C3397 C 0.62072 1.29090 0.36907
 C3398 C 0.62581 1.28234 0.38898
 C3399 C 0.61943 1.26082 0.39629
 C3400 C 0.61904 1.25634 0.41817
 C3401 C 0.61295 1.23634 0.42582
 C3402 C 0.60735 1.22021 0.41167
 C3403 C 0.60803 1.22462 0.38978
 C3404 C 0.61408 1.24462 0.38213
 C3405 C 0.59979 1.19903 0.41892
 C3406 C 0.60206 1.19093 0.43955
 H3407 H 0.63383 1.29221 0.40032
 H3408 H 0.62314 1.26849 0.42943
 H3409 H 0.61224 1.23384 0.44280
 H3410 H 0.60384 1.21251 0.37849
 H3411 H 0.61476 1.24716 0.36516
 H3412 H 0.59250 1.18912 0.40711
 H3413 H 0.61110 1.28183 0.35827
 H3414 H 0.61165 1.19939 0.45086
 C3415 C 0.62494 0.78229 0.88396
 C3416 C 0.61218 0.76814 0.87291
 C3417 C 0.60557 0.74759 0.88238
 C3418 C 0.58621 0.73826 0.87609
 C3419 C 0.57941 0.71909 0.88519
 C3420 C 0.59197 0.70885 0.90076
 C3421 C 0.61173 0.71779 0.90639
 C3422 C 0.61849 0.73693 0.89733
 C3423 C 0.58542 0.68863 0.91100
 C3424 C 0.56404 0.68169 0.91194
 H3425 H 0.60644 0.77233 0.85729
 H3426 H 0.57622 0.74593 0.86427
 H3427 H 0.56452 0.71231 0.87971
 H3428 H 0.62194 0.71000 0.91796
 H3429 H 0.63400 0.74313 0.90190
 H3430 H 0.59796 0.67902 0.91820
 H3431 H 0.62928 0.77850 0.90013
 H3432 H 0.55142 0.69123 0.90482
 C3433 C 0.86668 1.28361 1.11914
 C3434 C 0.88018 1.26894 1.12918
 C3435 C 0.88522 1.24825 1.11910
 C3436 C 0.90563 1.23884 1.12181
 C3437 C 0.91119 1.22010 1.11120
 C3438 C 0.89635 1.21035 1.09764
 C3439 C 0.87556 1.21921 1.09585
 C3440 C 0.87001 1.23791 1.10646
 C3441 C 0.90166 1.19064 1.08583
 C3442 C 0.92286 1.18404 1.08153
 H3443 H 0.88831 1.27308 1.14363
 H3444 H 0.91745 1.24623 1.13181
 H3445 H 0.92704 1.21329 1.11390
 H3446 H 0.86362 1.21176 1.08602
 H3447 H 0.85377 1.24421 1.10474
 H3448 H 0.88846 1.18084 1.08064
 H3449 H 0.86046 1.27950 1.10374
 H3450 H 0.93622 1.19375 1.08636
 C3451 C 0.89778 0.78599 0.62252
 C3452 C 0.88620 0.77278 0.60926
 C3453 C 0.89471 0.75179 0.60264
 C3454 C 0.88763 0.74294 0.58366
 C3455 C 0.89542 0.72313 0.57703
 C3456 C 0.91045 0.71175 0.58939
 C3457 C 0.91697 0.72035 0.60868
 C3458 C 0.90921 0.74011 0.61528
 C3459 C 0.91914 0.69068 0.58321
 C3460 C 0.91904 0.68307 0.56248
 H3461 H 0.87069 0.77794 0.60330
 H3462 H 0.87610 0.75142 0.57389
 H3463 H 0.88928 0.71676 0.56246
 H3464 H 0.92816 0.71174 0.61871
 H3465 H 0.91433 0.74595 0.63047
 H3466 H 0.92605 0.68090 0.59560
 H3467 H 0.91390 0.78129 0.62724
 H3468 H 0.91203 0.69263 0.54999
 C3469 C 0.37559 1.28686 0.61941
 C3470 C 0.39489 1.27646 0.62480
 C3471 C 0.40199 1.25598 0.61566
 C3472 C 0.42402 1.25042 0.61623
 C3473 C 0.43126 1.23072 0.60883
 C3474 C 0.41645 1.21598 0.60103
 C3475 C 0.39442 1.22165 0.60032
 C3476 C 0.38721 1.24139 0.60761
 C3477 C 0.42316 1.19480 0.59316
 C3478 C 0.44344 1.18542 0.59670
 H3479 H 0.40574 1.28370 0.63585
 H3480 H 0.43571 1.26139 0.62241
 H3481 H 0.44843 1.22733 0.60916
 H3482 H 0.38266 1.21063 0.59436
 H3483 H 0.37003 1.24488 0.60744
 H3484 H 0.41103 1.18586 0.58499
 H3485 H 0.36619 1.28081 0.60645
 H3486 H 0.45478 1.19310 0.60694
 C3487 C 0.39714 0.79725 1.12908
 C3488 C 0.39129 0.78753 1.11018
 C3489 C 0.39922 0.76621 1.10417
 C3490 C 0.40028 0.76075 1.08265
 C3491 C 0.40716 0.74050 1.07650
 C3492 C 0.41272 0.72518 1.09189
 C3493 C 0.41170 0.73071 1.11340
 C3494 C 0.40491 0.75094 1.11952
 C3495 C 0.41985 0.70345 1.08629
 C3496 C 0.41569 0.69400 1.06682
 H3497 H 0.38105 0.79583 1.09905
 H3498 H 0.39594 0.77225 1.07056
 H3499 H 0.40829 0.73711 1.05974
 H3500 H 0.41585 0.71921 1.12556
 H3501 H 0.40365 0.75435 1.13630
 H3502 H 0.42734 0.69410 1.09866
 H3503 H 0.40927 0.78963 1.13884
 H3504 H 0.40597 0.70241 1.05531
 C3505 C 0.86593 0.72756 0.87414
 C3506 C 0.88672 0.73582 0.87153
 C3507 C 0.89388 0.75493 0.88302
 C3508 C 0.91595 0.75743 0.88722
 C3509 C 0.92317 0.77515 0.89826
 C3510 C 0.90842 0.79100 0.90501
 C3511 C 0.88637 0.78851 0.90066
 C3512 C 0.87917 0.77079 0.88970
 C3513 C 0.91518 0.81019 0.91666
 C3514 C 0.93644 0.81765 0.91671
 H3515 H 0.89853 0.72734 0.86189
 H3516 H 0.92761 0.74545 0.88226
 H3517 H 0.94022 0.77609 0.90169
 H3518 H 0.87465 0.80047 0.90557
 H3519 H 0.86212 0.76980 0.88622
 H3520 H 0.90254 0.81965 0.92413
 H3521 H 0.85487 0.73486 0.88547
 H3522 H 0.94874 0.80946 0.90742
 C3523 C 0.90877 0.19580 0.38476
 C3524 C 0.89565 0.21111 0.39452
 C3525 C 0.90280 0.23321 0.39771
 C3526 C 0.89266 0.24536 0.41362
 C3527 C 0.89905 0.26620 0.41722
 C3528 C 0.91581 0.27537 0.40491
 C3529 C 0.92541 0.26347 0.38852
 C3530 C 0.91901 0.24263 0.38492
 C3531 C 0.92327 0.29733 0.40834
 C3532 C 0.92057 0.30775 0.42768
 H3533 H 0.87979 0.20677 0.40053
 H3534 H 0.87981 0.23865 0.42338
 H3535 H 0.89054 0.27509 0.42941
 H3536 H 0.93801 0.27030 0.37852
 H3537 H 0.92660 0.23417 0.37189
 H3538 H 0.93144 0.30526 0.39526
 H3539 H 0.92505 0.19988 0.37972
 H3540 H 0.91267 0.29962 0.44079
 C3541 C 0.36560 0.73490 0.38009
 C3542 C 0.38241 0.74779 0.37263
 C3543 C 0.38955 0.76701 0.38382
 C3544 C 0.41012 0.77511 0.37897
 C3545 C 0.41757 0.79320 0.38907
 C3546 C 0.40456 0.80361 0.40439
 C3547 C 0.38377 0.79582 0.40886
 C3548 C 0.37628 0.77776 0.39869
 C3549 C 0.41166 0.82298 0.41538
 C3550 C 0.43322 0.82934 0.41608
 H3551 H 0.39140 0.74339 0.35845
 H3552 H 0.42050 0.76740 0.36729
 H3553 H 0.43334 0.79905 0.38441
 H3554 H 0.37325 0.80376 0.42026
 H3555 H 0.35999 0.77262 0.40232
 H3556 H 0.39929 0.83271 0.42298
 H3557 H 0.35752 0.73883 0.39492
 H3558 H 0.44576 0.81984 0.40856
 C3559 C 0.36551 0.21382 0.89189
 C3560 C 0.38017 0.22957 0.88589
 C3561 C 0.38262 0.24943 0.89798
 C3562 C 0.40232 0.26018 0.89638
 C3563 C 0.40553 0.27875 0.90775
 C3564 C 0.38902 0.28701 0.92107
 C3565 C 0.36902 0.27670 0.92210
 C3566 C 0.36581 0.25805 0.91072
 C3567 C 0.39196 0.30693 0.93296
 C3568 C 0.41239 0.31384 0.93867
 H3569 H 0.39128 0.22689 0.87273
 H3570 H 0.41536 0.25414 0.88635
 H3571 H 0.42082 0.28677 0.90564
 H3572 H 0.35588 0.28305 0.93179
 H3573 H 0.35007 0.25073 0.91170
 H3574 H 0.37790 0.31681 0.93634
 H3575 H 0.35541 0.21627 0.90587
 H3576 H 0.42635 0.30368 0.93589
 C3577 C 1.08998 0.69748 1.11535
 C3578 C 1.10232 0.71238 1.10407
 C3579 C 1.09455 0.73436 1.10011
 C3580 C 1.10340 0.74587 1.08297
 C3581 C 1.09631 0.76656 1.07864
 C3582 C 1.08036 0.77626 1.09160
 C3583 C 1.07163 0.76482 1.10880
 C3584 C 1.07878 0.74420 1.11319
 C3585 C 1.07202 0.79794 1.08735
 C3586 C 1.08427 0.81343 1.07687
 H3587 H 1.11782 0.70781 1.09723
 H3588 H 1.11559 0.73870 1.07268
 H3589 H 1.10302 0.77464 1.06488
 H3590 H 1.05939 0.77196 1.11906
 H3591 H 1.07209 0.73625 1.12703
 H3592 H 1.05587 0.80167 1.09313
 H3593 H 1.07386 0.70195 1.12075
 H3594 H 1.10060 0.80946 1.07171
 C3595 C 1.13325 0.21946 0.61615
 C3596 C 1.11268 0.22800 0.61913
 C3597 C 1.10492 0.24574 0.60578
 C3598 C 1.08531 0.25584 0.61113
 C3599 C 1.07828 0.27359 0.59971
 C3600 C 1.09071 0.28146 0.58248
 C3601 C 1.11013 0.27108 0.57691
 C3602 C 1.11716 0.25336 0.58836
 C3603 C 1.08485 0.30118 0.57100
 C3604 C 1.06415 0.31019 0.57166
 H3605 H 1.10252 0.22241 0.63218
 H3606 H 1.07567 0.25034 0.62456
 H3607 H 1.06356 0.28143 0.60502
 H3608 H 1.12006 0.27688 0.56381
 H3609 H 1.13236 0.24590 0.58374
 H3610 H 1.09771 0.30931 0.56248
 H3611 H 1.13694 0.21104 0.62390
 H3612 H 1.05116 0.30205 0.57993
 C3613 C 0.61514 0.70264 0.62666
 C3614 C 0.61892 0.71268 0.60713
 C3615 C 0.61025 0.73403 0.60177
 C3616 C 0.61984 0.74538 0.58490
 C3617 C 0.61199 0.76544 0.57913
 C3618 C 0.59413 0.77448 0.59001
 C3619 C 0.58456 0.76314 0.60688
 C3620 C 0.59236 0.74308 0.61261
 C3621 C 0.58537 0.79578 0.58470
 C3622 C 0.58835 0.80560 0.56493
 H3623 H 0.62889 0.70482 0.59527
 H3624 H 0.63361 0.73879 0.57628
 H3625 H 0.62026 0.77386 0.56645
 H3626 H 0.57078 0.76973 0.61550
 H3627 H 0.58402 0.73468 0.62526
 H3628 H 0.57606 0.80382 0.59695
 H3629 H 0.60604 0.71082 0.63895
 H3630 H 0.59767 0.79755 0.55269
 C3631 C 0.62445 0.21614 1.11198
 C3632 C 0.60706 0.22922 1.11830
 C3633 C 0.60038 0.24913 1.10746
 C3634 C 0.58094 0.25889 1.11412
 C3635 C 0.57417 0.27813 1.10526
 C3636 C 0.58668 0.28811 1.08930
 C3637 C 0.60618 0.27840 1.08264
 C3638 C 0.61300 0.25913 1.09158
 C3639 C 0.58053 0.30896 1.07999
 C3640 C 0.55972 0.31782 1.08169
 H3641 H 0.59738 0.22475 1.13200
 H3642 H 0.57100 0.25173 1.12651
 H3643 H 0.55944 0.28524 1.11149
 H3644 H 0.61627 0.28586 1.07057
 H3645 H 0.62831 0.25251 1.08623
 H3646 H 0.59315 0.31770 1.07179
 H3647 H 0.63339 0.21987 1.09757
 H3648 H 0.54704 0.30914 1.08982
 C3649 C 1.29991 1.10413 0.88110
 C3650 C 1.28930 1.10648 0.90066
 C3651 C 1.26836 1.09649 0.90598
 C3652 C 1.26214 1.09438 0.92738
 C3653 C 1.24178 1.08647 0.93300
 C3654 C 1.22707 1.08088 0.91722
 C3655 C 1.23348 1.08260 0.89582
 C3656 C 1.25386 1.09043 0.89021
 C3657 C 1.20502 1.07320 0.92228
 C3658 C 1.19439 1.07664 0.94172
 H3659 H 1.29656 1.11618 0.91267
 H3660 H 1.27305 1.09897 0.93980
 H3661 H 1.23777 1.08475 0.94968
 H3662 H 1.22248 1.07835 0.88336
 H3663 H 1.25783 1.09234 0.87353
 H3664 H 1.19632 1.06599 0.90949
 H3665 H 1.29434 1.09251 0.86993
 H3666 H 1.20212 1.08602 0.95367
 C3667 C 1.28012 0.63972 0.37762
 C3668 C 1.26823 0.62342 0.36873
 C3669 C 1.24818 0.61530 0.37909
 C3670 C 1.24176 0.59440 0.37538
 C3671 C 1.22308 0.58627 0.38524
 C3672 C 1.21036 0.59901 0.39899
 C3673 C 1.21651 0.62009 0.40214
 C3674 C 1.23511 0.62818 0.39230
 C3675 C 1.19031 0.59139 0.40981
 C3676 C 1.18419 0.57015 0.41102
 H3677 H 1.27399 0.61597 0.35427
 H3678 H 1.25131 0.58428 0.36497
 H3679 H 1.21871 0.57016 0.38172
 H3680 H 1.20684 0.63040 0.41228
 H3681 H 1.23895 0.64465 0.39485
 H3682 H 1.17975 0.60324 0.41695
 H3683 H 1.27504 0.64596 0.39288
 H3684 H 1.19420 0.55807 0.40365
 C3685 C 0.81547 1.10160 0.38449
 C3686 C 0.80013 1.11240 0.39692
 C3687 C 0.77823 1.10391 0.40149
 C3688 C 0.76694 1.11089 0.41965
 C3689 C 0.74645 1.10294 0.42475
 C3690 C 0.73678 1.08777 0.41174
 C3691 C 0.74772 1.08139 0.39316
 C3692 C 0.76822 1.08934 0.38805
 C3693 C 0.71513 1.07884 0.41667
 C3694 C 0.70625 1.07837 0.43717
 H3695 H 0.80454 1.12705 0.40446
 H3696 H 0.77408 1.12243 0.43002
 H3697 H 0.73820 1.10904 0.43872
 H3698 H 0.74043 1.07011 0.38261
 H3699 H 0.77595 1.08422 0.37343
 H3700 H 0.70607 1.07240 0.40369
 H3701 H 0.81148 1.08629 0.37807
 H3702 H 0.71549 1.08451 0.45016
 C3703 C 0.77139 0.64050 0.86520
 C3704 C 0.76330 0.62005 0.86291
 C3705 C 0.74307 0.61315 0.87405
 C3706 C 0.74067 0.59180 0.88000
 C3707 C 0.72228 0.58507 0.89145
 C3708 C 0.70562 0.59957 0.89692
 C3709 C 0.70791 0.62085 0.89066
 C3710 C 0.72628 0.62755 0.87926
 C3711 C 0.68581 0.59330 0.90918
 C3712 C 0.67837 0.57245 0.91052
 H3713 H 0.77303 0.60834 0.85454
 H3714 H 0.75333 0.58036 0.87623
 H3715 H 0.72150 0.56862 0.89630
 H3716 H 0.69534 0.63236 0.89449
 H3717 H 0.72714 0.64402 0.87443
 H3718 H 0.67585 0.60582 0.91596
 H3719 H 0.76271 0.65141 0.87552
 H3720 H 0.68710 0.56022 0.90190
 C3721 C 1.30546 0.88933 1.11984
 C3722 C 1.28791 0.89954 1.12967
 C3723 C 1.26755 0.90427 1.11825
 C3724 C 1.24790 0.90479 1.12971
 C3725 C 1.22832 0.90840 1.11936
 C3726 C 1.22799 0.91199 1.09727
 C3727 C 1.24764 0.91147 1.08580
 C3728 C 1.26723 0.90782 1.09615
 C3729 C 1.20754 0.91650 1.08587
 C3730 C 1.18976 0.92617 1.09590
 H3731 H 1.28817 0.90190 1.14666
 H3732 H 1.24765 0.90197 1.14669
 H3733 H 1.21349 0.90801 1.12872
 H3734 H 1.24788 0.91424 1.06881
 H3735 H 1.28208 0.90807 1.08681
 H3736 H 1.20726 0.91401 1.06890
 H3737 H 1.30423 0.88488 1.10336
 H3738 H 1.19126 0.93075 1.11233
 C3739 C 1.28291 0.38008 0.63396
 C3740 C 1.27223 0.37573 0.61513
 C3741 C 1.25214 0.38681 0.60844
 C3742 C 1.23938 0.37733 0.59300
 C3743 C 1.22037 0.38717 0.58609
 C3744 C 1.21382 0.40694 0.59430
 C3745 C 1.22651 0.41642 0.60979
 C3746 C 1.24557 0.40660 0.61669
 C3747 C 1.19359 0.41770 0.58757
 C3748 C 1.18434 0.41427 0.56782
 H3749 H 1.27836 0.36319 0.60504
 H3750 H 1.24400 0.36209 0.58642
 H3751 H 1.21069 0.37896 0.57466
 H3752 H 1.22180 0.43162 0.61639
 H3753 H 1.25516 0.41479 0.62818
 H3754 H 1.18599 0.42863 0.59860
 H3755 H 1.27636 0.39195 0.64462
 H3756 H 1.19254 0.40376 0.55676
 C3757 C 0.80082 0.87726 0.63761
 C3758 C 0.79063 0.87356 0.61837
 C3759 C 0.76968 0.88351 0.61261
 C3760 C 0.76479 0.88610 0.59108
 C3761 C 0.74518 0.89538 0.58497
 C3762 C 0.72978 0.90192 0.60036
 C3763 C 0.73470 0.89929 0.62190
 C3764 C 0.75436 0.89011 0.62800
 C3765 C 0.70870 0.91177 0.59468
 C3766 C 0.69942 0.90998 0.57467
 H3767 H 0.79893 0.86412 0.60645
 H3768 H 0.77634 0.88119 0.57891
 H3769 H 0.74243 0.89763 0.56821
 H3770 H 0.72317 0.90417 0.63409
 H3771 H 0.75728 0.88789 0.64475
 H3772 H 0.69967 0.91963 0.60723
 H3773 H 0.79367 0.88842 0.64870
 H3774 H 0.70736 0.90016 0.56285
 C3775 C 0.78711 0.38205 1.10352
 C3776 C 0.77084 0.39466 1.11255
 C3777 C 0.75047 0.39980 1.10153
 C3778 C 0.73820 0.41736 1.10826
 C3779 C 0.71843 0.42221 1.09885
 C3780 C 0.71053 0.40953 1.08244
 C3781 C 0.72258 0.39171 1.07601
 C3782 C 0.74236 0.38687 1.08541
 C3783 C 0.68932 0.41380 1.07263
 C3784 C 0.67995 0.43398 1.07230
 H3785 H 0.77275 0.40062 1.12845
 H3786 H 0.74384 0.42727 1.12097
 H3787 H 0.70920 0.43555 1.10495
 H3788 H 0.71660 0.38145 1.06374
 H3789 H 0.75084 0.37265 1.08037
 H3790 H 0.68080 0.40059 1.06591
 H3791 H 0.78567 0.37681 1.08730
 H3792 H 0.68887 0.44719 1.07850
 C3793 C 0.70797 1.11500 1.12850
 C3794 C 0.72205 1.12016 1.11175
 C3795 C 0.74169 1.10747 1.10623
 C3796 C 0.75156 1.11060 1.08628
 C3797 C 0.77038 1.09945 1.08054
 C3798 C 0.77979 1.08474 1.09468
 C3799 C 0.77009 1.08180 1.11474
 C3800 C 0.75128 1.09302 1.12052
 C3801 C 0.80033 1.07327 1.08963
 C3802 C 0.80887 1.07155 1.06909
 H3803 H 0.71853 1.13393 1.10204
 H3804 H 0.74476 1.12188 1.07511
 H3805 H 0.77766 1.10296 1.06524
 H3806 H 0.77720 1.07092 1.12610
 H3807 H 0.74478 1.09062 1.13635
 H3808 H 0.80947 1.06674 1.10271
 H3809 H 0.71089 1.10082 1.13779
 H3810 H 0.79984 1.07772 1.05582
 C3811 C 0.69066 0.59563 0.60248
 C3812 C 0.70744 0.60664 0.59249
 C3813 C 0.72869 0.59668 0.58758
 C3814 C 0.74227 0.60614 0.57228
 C3815 C 0.76295 0.59786 0.56815
 C3816 C 0.77049 0.57992 0.57935
 C3817 C 0.75706 0.57070 0.59490
 C3818 C 0.73638 0.57894 0.59900
 C3819 C 0.79253 0.57112 0.57596
 C3820 C 0.80394 0.57358 0.55686
 H3821 H 0.70548 0.62341 0.58921
 H3822 H 0.73692 0.62011 0.56365
 H3823 H 0.77314 0.60597 0.55664
 H3824 H 0.76266 0.55715 0.60402
 H3825 H 0.72683 0.57174 0.61160
 H3826 H 0.79978 0.56249 0.58897
 H3827 H 0.69225 0.57870 0.60500
 H3828 H 0.79622 0.58177 0.54382
 C3829 C 0.23927 1.14471 0.64507
 C3830 C 0.24723 1.12407 0.64694
 C3831 C 0.26728 1.11734 0.63559
 C3832 C 0.26862 1.09685 0.62720
 C3833 C 0.28661 1.09058 0.61496
 C3834 C 0.30391 1.10461 0.61126
 C3835 C 0.30268 1.12501 0.61994
 C3836 C 0.28463 1.13130 0.63208
 C3837 C 0.32338 1.09856 0.59852
 C3838 C 0.33004 1.07753 0.59600
 H3839 H 0.23696 1.11206 0.65408
 H3840 H 0.25538 1.08588 0.62955
 H3841 H 0.28659 1.07494 0.60808
 H3842 H 0.31579 1.13609 0.61743
 H3843 H 0.28433 1.14708 0.63873
 H3844 H 0.33383 1.11109 0.59271
 H3845 H 0.24836 1.15611 0.63567
 H3846 H 0.32089 1.06513 0.60386
 C3847 C 0.18466 0.60447 1.12160
 C3848 C 0.20082 0.61603 1.11112
 C3849 C 0.22309 0.60769 1.10736
 C3850 C 0.23579 0.61682 1.09114
 C3851 C 0.25670 0.60922 1.08676
 C3852 C 0.26539 0.59218 1.09854
 C3853 C 0.25301 0.58358 1.11529
 C3854 C 0.23209 0.59121 1.11969
 C3855 C 0.28735 0.58341 1.09410
 C3856 C 0.29754 0.58519 1.07423
 H3857 H 0.19690 0.63145 1.10454
 H3858 H 0.22946 0.62982 1.08169
 H3859 H 0.26602 0.61698 1.07433
 H3860 H 0.25949 0.57078 1.12491
 H3861 H 0.22324 0.58428 1.13291
 H3862 H 0.29542 0.57504 1.10682
 H3863 H 0.18825 0.58864 1.12733
 H3864 H 0.28910 0.59317 1.06152
 C3865 C 0.71706 0.87173 0.89291
 C3866 C 0.73213 0.88566 0.88396
 C3867 C 0.75232 0.89170 0.89457
 C3868 C 0.76308 0.90999 0.88754
 C3869 C 0.78253 0.91597 0.89662
 C3870 C 0.79164 0.90372 0.91303
 C3871 C 0.78111 0.88522 0.91979
 C3872 C 0.76164 0.87923 0.91070
 C3873 C 0.81252 0.90916 0.92269
 C3874 C 0.82097 0.92960 0.92218
 H3875 H 0.72910 0.89262 0.86856
 H3876 H 0.75647 0.91963 0.87485
 H3877 H 0.79055 0.92986 0.89030
 H3878 H 0.78801 0.87530 0.93211
 H3879 H 0.75435 0.86457 0.91603
 H3880 H 0.82151 0.89649 0.93028
 H3881 H 0.71947 0.86551 0.90874
 H3882 H 0.81190 0.94232 0.91478
 C3883 C 0.69390 0.39915 0.38248
 C3884 C 0.71088 0.38873 0.39259
 C3885 C 0.73171 0.39910 0.39693
 C3886 C 0.74510 0.39036 0.41250
 C3887 C 0.76530 0.39915 0.41641
 C3888 C 0.77253 0.41692 0.40473
 C3889 C 0.75936 0.42537 0.38882
 C3890 C 0.73913 0.41661 0.38494
 C3891 C 0.79407 0.42624 0.40813
 C3892 C 0.80432 0.42479 0.42762
 H3893 H 0.70923 0.37216 0.39685
 H3894 H 0.73999 0.37658 0.42157
 H3895 H 0.77538 0.39158 0.42818
 H3896 H 0.76478 0.43875 0.37932
 H3897 H 0.72972 0.42326 0.37215
 H3898 H 0.80197 0.43416 0.39488
 H3899 H 0.69515 0.41591 0.37892
 H3900 H 0.79584 0.41745 0.44089
 C3901 C 0.23024 0.86987 0.38318
 C3902 C 0.23882 0.89006 0.37986
 C3903 C 0.25865 0.89726 0.39056
 C3904 C 0.26158 0.91899 0.39402
 C3905 C 0.28001 0.92624 0.40429
 C3906 C 0.29613 0.91184 0.41099
 C3907 C 0.29323 0.89014 0.40735
 C3908 C 0.27480 0.88291 0.39716
 C3909 C 0.31598 0.91860 0.42199
 C3910 C 0.32384 0.93933 0.42154
 H3911 H 0.23016 0.90137 0.37010
 H3912 H 0.24939 0.93038 0.38907
 H3913 H 0.28129 0.94305 0.40718
 H3914 H 0.30538 0.87869 0.41225
 H3915 H 0.27350 0.86610 0.39420
 H3916 H 0.32556 0.90630 0.42951
 H3917 H 0.23776 0.85934 0.39459
 H3918 H 0.31563 0.95123 0.41212
 C3919 C 0.19087 0.38231 0.89419
 C3920 C 0.20625 0.39729 0.88811
 C3921 C 0.22507 0.40262 0.90123
 C3922 C 0.23617 0.42144 0.89678
 C3923 C 0.25472 0.42656 0.90792
 C3924 C 0.26259 0.41291 0.92388
 C3925 C 0.25160 0.39399 0.92823
 C3926 C 0.23302 0.38885 0.91706
 C3927 C 0.28301 0.41714 0.93499
 C3928 C 0.29181 0.43735 0.93614
 H3929 H 0.20476 0.40530 0.87297
 H3930 H 0.23064 0.43210 0.88440
 H3931 H 0.26318 0.44085 0.90335
 H3932 H 0.25758 0.38300 0.94012
 H3933 H 0.22548 0.37379 0.92047
 H3934 H 0.29189 0.40375 0.94144
 H3935 H 0.19170 0.37495 0.90971
 H3936 H 0.28274 0.45084 0.93023
   
