data_POSCAR
  _audit_creation_date              2014-09-24
  _audit_creation_method            'ToBaCCo'
  _symmetry_space_group_name_H-M    'P1'
  _symmetry_Int_Tables_number       1
  _symmetry_cell_setting            triclinic
  loop_
  _symmetry_equiv_pos_as_xyz
 x,y,z
_cell_length_a 81.3356
_cell_length_b 81.3512
_cell_length_c 81.4074
_cell_angle_alpha 89.971800
_cell_angle_beta 89.989800
_cell_angle_gamma 89.999500
loop_
  _atom_site_label
  _atom_site_type_symbol
  _atom_site_fract_x
  _atom_site_fract_y
  _atom_site_fract_z
C1 C 0.19504 0.21807 0.21321
 C2 C 0.20422 0.22267 0.19937
 C3 C 0.21787 0.21359 0.19482
 C4 C 0.22251 0.19978 0.20404
 C5 C 0.21345 0.19525 0.21770
 C6 C 0.19962 0.20445 0.22231
 C7 C 0.18123 0.22459 0.22050
 N8 N 0.17734 0.21524 0.23376
 C9 C 0.18850 0.20288 0.23497
 C10 C 0.22075 0.18145 0.22423
 N11 N 0.23398 0.17752 0.21486
 C12 C 0.23516 0.18865 0.20247
 C13 C 0.22436 0.22086 0.18099
 N14 N 0.21496 0.23409 0.17706
 C15 C 0.20261 0.23529 0.18823
 H16 H 0.17450 0.23533 0.21644
 H17 H 0.18854 0.19346 0.24437
 H18 H 0.21671 0.17476 0.23500
 H19 H 0.24453 0.18865 0.19303
 H20 H 0.23510 0.21681 0.17426
 H21 H 0.19317 0.24467 0.18825
 C22 C 0.69502 0.71799 0.71341
 C23 C 0.70421 0.72260 0.69957
 C24 C 0.71786 0.71352 0.69501
 C25 C 0.72249 0.69970 0.70422
 C26 C 0.71342 0.69515 0.71787
 C27 C 0.69959 0.70435 0.72249
 C28 C 0.68121 0.72450 0.72070
 N29 N 0.67731 0.71512 0.73394
 C30 C 0.68847 0.70277 0.73514
 C31 C 0.72071 0.68135 0.72439
 N32 N 0.73394 0.67742 0.71501
 C33 C 0.73513 0.68857 0.70264
 C34 C 0.72435 0.72080 0.68119
 N35 N 0.71496 0.73403 0.67727
 C36 C 0.70261 0.73523 0.68844
 H37 H 0.67448 0.73524 0.71665
 H38 H 0.68851 0.69334 0.74452
 H39 H 0.71667 0.67463 0.73514
 H40 H 0.74451 0.68858 0.69320
 H41 H 0.73510 0.71675 0.67447
 H42 H 0.69317 0.74461 0.68845
 C43 C 0.30422 0.78216 0.71363
 C44 C 0.29505 0.77758 0.69978
 C45 C 0.28143 0.78670 0.69520
 C46 C 0.27682 0.80052 0.70440
 C47 C 0.28587 0.80504 0.71806
 C48 C 0.29967 0.79580 0.72270
 C49 C 0.31800 0.77561 0.72093
 N50 N 0.32191 0.78496 0.73418
 C51 C 0.31077 0.79734 0.73536
 C52 C 0.27860 0.81885 0.72457
 N53 N 0.26537 0.82284 0.71517
 C54 C 0.26420 0.81168 0.70280
 C55 C 0.27494 0.77944 0.68138
 N56 N 0.28430 0.76618 0.67748
 C57 C 0.29663 0.76495 0.68866
 H58 H 0.32472 0.76485 0.71689
 H59 H 0.31075 0.80677 0.74474
 H60 H 0.28268 0.82551 0.73534
 H61 H 0.25486 0.81166 0.69331
 H62 H 0.26421 0.78351 0.67464
 H63 H 0.30605 0.75554 0.68870
 C64 C 0.80503 0.28189 0.21349
 C65 C 0.79586 0.27726 0.19965
 C66 C 0.78222 0.28633 0.19505
 C67 C 0.77757 0.30016 0.20423
 C68 C 0.78662 0.30472 0.21788
 C69 C 0.80044 0.29553 0.22253
 C70 C 0.81882 0.27538 0.22081
 N71 N 0.82273 0.28476 0.23406
 C72 C 0.81153 0.29713 0.23519
 C73 C 0.77931 0.31853 0.22436
 N74 N 0.76608 0.32243 0.21497
 C75 C 0.76492 0.31128 0.20262
 C76 C 0.77575 0.27904 0.18124
 N77 N 0.78515 0.26580 0.17736
 C78 C 0.79748 0.26461 0.18854
 H79 H 0.82552 0.26461 0.21675
 H80 H 0.81144 0.30660 0.24454
 H81 H 0.78332 0.32525 0.23512
 H82 H 0.75555 0.31125 0.19317
 H83 H 0.76501 0.28308 0.17450
 H84 H 0.80693 0.25524 0.18859
 C85 C 0.80515 0.71825 0.28580
 C86 C 0.79595 0.72290 0.29961
 C87 C 0.78231 0.71382 0.30420
 C88 C 0.77770 0.69997 0.29506
 C89 C 0.78678 0.69538 0.28143
 C90 C 0.80060 0.70458 0.27678
 C91 C 0.81895 0.72476 0.27848
 N92 N 0.82289 0.71535 0.26526
 C93 C 0.81172 0.70297 0.26414
 C94 C 0.77949 0.68155 0.27498
 N95 N 0.76625 0.67765 0.28437
 C96 C 0.76506 0.68884 0.29668
 C97 C 0.77580 0.72114 0.31798
 N98 N 0.78516 0.73440 0.32185
 C99 C 0.79752 0.73558 0.31069
 H100 H 0.82563 0.73555 0.28252
 H101 H 0.81165 0.69347 0.25481
 H102 H 0.78353 0.67480 0.26425
 H103 H 0.75568 0.68889 0.30612
 H104 H 0.76505 0.71710 0.32471
 H105 H 0.80695 0.74497 0.31065
 C106 C 0.30488 0.21794 -0.21388
 C107 C 0.29564 0.22260 -0.20010
 C108 C 0.28200 0.21351 -0.19553
 C109 C 0.27743 0.19964 -0.20466
 C110 C 0.28654 0.19504 -0.21826
 C111 C 0.30037 0.20425 -0.22289
 C112 C 0.31869 0.22446 -0.22116
 N113 N 0.32269 0.21503 -0.23436
 C114 C 0.31153 0.20264 -0.23550
 C115 C 0.27929 0.18120 -0.22473
 N116 N 0.26601 0.17727 -0.21536
 C117 C 0.26479 0.18850 -0.20305
 C118 C 0.27544 0.22085 -0.18177
 N119 N 0.28478 0.23413 -0.17790
 C120 C 0.29717 0.23530 -0.18903
 H121 H 0.32535 0.23525 -0.21711
 H122 H 0.31150 0.19313 -0.24481
 H123 H 0.28341 0.17448 -0.23545
 H124 H 0.25541 0.18859 -0.19361
 H125 H 0.26468 0.21681 -0.17506
 H126 H 0.30659 0.24470 -0.18908
 C127 C 0.69510 0.28180 -0.21382
 C128 C 0.70432 0.27716 -0.20002
 C129 C 0.71795 0.28625 -0.19546
 C130 C 0.72254 0.30010 -0.20463
 C131 C 0.71345 0.30468 -0.21825
 C132 C 0.69963 0.29547 -0.22287
 C133 C 0.68129 0.27527 -0.22110
 N134 N 0.67732 0.28468 -0.23433
 C135 C 0.68849 0.29706 -0.23549
 C136 C 0.72072 0.31851 -0.22475
 N137 N 0.73399 0.32244 -0.21538
 C138 C 0.73518 0.31123 -0.20304
 C139 C 0.72449 0.27894 -0.18168
 N140 N 0.71514 0.26567 -0.17778
 C141 C 0.70277 0.26448 -0.18892
 H142 H 0.67463 0.26449 -0.21703
 H143 H 0.68853 0.30655 -0.24483
 H144 H 0.71663 0.32521 -0.23549
 H145 H 0.74455 0.31115 -0.19359
 H146 H 0.73525 0.28299 -0.17497
 H147 H 0.69334 0.25508 -0.18895
 C148 C 0.19502 0.78210 0.28608
 C149 C 0.20417 0.77749 0.29994
 C150 C 0.21779 0.78657 0.30453
 C151 C 0.22244 0.80040 0.29535
 C152 C 0.21343 0.80495 0.28167
 C153 C 0.19962 0.79575 0.27701
 C154 C 0.18124 0.77559 0.27875
 N155 N 0.17737 0.78496 0.26549
 C156 C 0.18853 0.79732 0.26433
 C157 C 0.22074 0.81876 0.27518
 N158 N 0.23397 0.82271 0.28460
 C159 C 0.23509 0.81153 0.29698
 C160 C 0.22426 0.77929 0.31836
 N161 N 0.21487 0.76604 0.32225
 C162 C 0.20255 0.76485 0.31106
 H163 H 0.17451 0.76483 0.28278
 H164 H 0.18859 0.80675 0.25495
 H165 H 0.21670 0.82544 0.26440
 H166 H 0.24441 0.81147 0.30648
 H167 H 0.23498 0.78334 0.32511
 H168 H 0.19311 0.75546 0.31100
 C169 C 0.46788 0.44506 0.46380
 C170 C 0.47251 0.45425 0.44998
 C171 C 0.46343 0.46790 0.44541
 C172 C 0.44959 0.47251 0.45459
 C173 C 0.44502 0.46344 0.46823
 C174 C 0.45422 0.44962 0.47286
 C175 C 0.47439 0.43125 0.47110
 N176 N 0.46501 0.42734 0.48434
 C177 C 0.45264 0.43850 0.48551
 C178 C 0.43121 0.47073 0.47473
 N179 N 0.42729 0.48397 0.46534
 C180 C 0.43846 0.48516 0.45300
 C181 C 0.47072 0.47441 0.43161
 N182 N 0.48397 0.46503 0.42771
 C183 C 0.48516 0.45268 0.43886
 H184 H 0.48515 0.42454 0.46708
 H185 H 0.44320 0.43852 0.49489
 H186 H 0.42448 0.46669 0.48547
 H187 H 0.43849 0.49454 0.44356
 H188 H 0.46668 0.48516 0.42488
 H189 H 0.49455 0.44324 0.43890
 C190 C -0.03201 -0.05509 0.96368
 C191 C -0.02735 -0.04586 0.94988
 C192 C -0.03641 -0.03221 0.94533
 C193 C -0.05026 -0.02760 0.95449
 C194 C -0.05486 -0.03670 0.96810
 C195 C -0.04567 -0.05054 0.97272
 C196 C -0.02551 -0.06891 0.97095
 N197 N -0.03492 -0.07288 0.98418
 C198 C -0.04729 -0.06169 0.98534
 C199 C -0.06868 -0.02941 0.97460
 N200 N -0.07259 -0.01612 0.96524
 C201 C -0.06137 -0.01494 0.95290
 C202 C -0.02908 -0.02567 0.93156
 N203 N -0.01583 -0.03504 0.92766
 C204 C -0.01467 -0.04742 0.93880
 H205 H -0.01473 -0.07559 0.96689
 H206 H -0.05679 -0.06164 0.99467
 H207 H -0.07539 -0.03351 0.98534
 H208 H -0.06127 -0.00556 0.94346
 H209 H -0.03310 -0.01490 0.92485
 H210 H -0.00528 -0.05686 0.93883
 C211 C 1.03177 0.55492 0.96381
 C212 C 1.02713 0.54571 0.95001
 C213 C 1.03622 0.53209 0.94544
 C214 C 1.05009 0.52751 0.95459
 C215 C 1.05467 0.53659 0.96820
 C216 C 1.04545 0.55040 0.97284
 C217 C 1.02523 0.56872 0.97110
 N218 N 1.03464 0.57269 0.98432
 C219 C 1.04705 0.56153 0.98547
 C220 C 1.06852 0.52932 0.97468
 N221 N 1.07245 0.51607 0.96530
 C222 C 1.06123 0.51488 0.95297
 C223 C 1.02891 0.52555 0.93167
 N224 N 1.01563 0.53489 0.92779
 C225 C 1.01444 0.54725 0.93893
 H226 H 1.01444 0.57537 0.96705
 H227 H 1.05654 0.56149 0.99479
 H228 H 1.07522 0.53341 0.98541
 H229 H 1.06115 0.50551 0.94352
 H230 H 1.03296 0.51480 0.92495
 H231 H 1.00502 0.55666 0.93898
 C232 C 0.53208 0.05456 0.46388
 C233 C 0.52745 0.04539 0.45005
 C234 C 0.53653 0.03177 0.44546
 C235 C 0.55039 0.02715 0.45461
 C236 C 0.55496 0.03619 0.46825
 C237 C 0.54575 0.05000 0.47291
 C238 C 0.52557 0.06835 0.47120
 N239 N 0.53497 0.07224 0.48442
 C240 C 0.54735 0.06110 0.48557
 C241 C 0.56879 0.02890 0.47472
 N242 N 0.57273 0.01566 0.46531
 C243 C 0.56152 0.01451 0.45298
 C244 C 0.52922 0.02527 0.43167
 N245 N 0.51595 0.03464 0.42780
 C246 C 0.51477 0.04697 0.43897
 H247 H 0.51480 0.07507 0.46720
 H248 H 0.55681 0.06106 0.49492
 H249 H 0.57549 0.03297 0.48547
 H250 H 0.56145 0.00517 0.44350
 H251 H 0.53326 0.01454 0.42493
 H252 H 0.50537 0.05640 0.43903
 C253 C -0.03198 0.05509 0.53664
 C254 C -0.02735 0.04591 0.55048
 C255 C -0.03641 0.03226 0.55504
 C256 C -0.05023 0.02761 0.54585
 C257 C -0.05480 0.03667 0.53220
 C258 C -0.04561 0.05051 0.52758
 C259 C -0.02549 0.06891 0.52934
 N260 N -0.03487 0.07280 0.51610
 C261 C -0.04721 0.06162 0.51492
 C262 C -0.06859 0.02936 0.52569
 N263 N -0.07249 0.01611 0.53507
 C264 C -0.06135 0.01494 0.54743
 C265 C -0.02912 0.02576 0.56885
 N266 N -0.01589 0.03516 0.57276
 C267 C -0.01471 0.04752 0.56160
 H268 H -0.01474 0.07565 0.53337
 H269 H -0.05664 0.06157 0.50554
 H270 H -0.07530 0.03339 0.51494
 H271 H -0.06132 0.00556 0.55687
 H272 H -0.03315 0.01501 0.57558
 H273 H -0.00534 0.05697 0.56156
 C274 C 0.46784 0.55511 0.03625
 C275 C 0.47246 0.54591 0.05008
 C276 C 0.46337 0.53227 0.05464
 C277 C 0.44954 0.52766 0.04546
 C278 C 0.44499 0.53674 0.03182
 C279 C 0.45419 0.55056 0.02719
 C280 C 0.47437 0.56891 0.02896
 N281 N 0.46499 0.57286 0.01570
 C282 C 0.45261 0.56168 0.01454
 C283 C 0.43117 0.52946 0.02531
 N284 N 0.42725 0.51622 0.03469
 C285 C 0.43840 0.51502 0.04704
 C286 C 0.47066 0.52576 0.06845
 N287 N 0.48391 0.53513 0.07235
 C288 C 0.48511 0.54749 0.06119
 H289 H 0.48515 0.57559 0.03303
 H290 H 0.44314 0.56162 0.00519
 H291 H 0.42446 0.53351 0.01456
 H292 H 0.43842 0.50563 0.05647
 H293 H 0.46660 0.51501 0.07517
 H294 H 0.49450 0.55692 0.06117
 C295 C 0.53197 -0.05495 0.03664
 C296 C 0.52738 -0.04578 0.05049
 C297 C 0.53647 -0.03215 0.05505
 C298 C 0.55030 -0.02752 0.04585
 C299 C 0.55483 -0.03657 0.03219
 C300 C 0.54561 -0.05038 0.02756
 C301 C 0.52544 -0.06874 0.02934
 N302 N 0.53480 -0.07263 0.01609
 C303 C 0.54717 -0.06148 0.01490
 C304 C 0.56864 -0.02929 0.02568
 N305 N 0.57259 -0.01607 0.03507
 C306 C 0.56144 -0.01489 0.04744
 C307 C 0.52920 -0.02567 0.06888
 N308 N 0.51596 -0.03505 0.07279
 C309 C 0.51474 -0.04738 0.06162
 H310 H 0.51468 -0.07546 0.03339
 H311 H 0.55660 -0.06145 0.00551
 H312 H 0.57535 -0.03331 0.01492
 H313 H 0.56145 -0.00553 0.05688
 H314 H 0.53326 -0.01494 0.07561
 H315 H 0.50535 -0.05681 0.06159
 C316 C 1.03192 0.44548 0.53642
 C317 C 1.02735 0.45459 0.55031
 C318 C 1.03644 0.46821 0.55490
 C319 C 1.05024 0.47289 0.54569
 C320 C 1.05475 0.46390 0.53199
 C321 C 1.04554 0.45009 0.52733
 C322 C 1.02539 0.43171 0.52909
 N323 N 1.03473 0.42787 0.51580
 C324 C 1.04708 0.43904 0.51462
 C325 C 1.06854 0.47122 0.52546
 N326 N 1.07251 0.48443 0.53489
 C327 C 1.06137 0.48553 0.54730
 C328 C 1.02918 0.47464 0.56876
 N329 N 1.01595 0.46523 0.57267
 C330 C 1.01473 0.45294 0.56145
 H331 H 1.01465 0.42496 0.53313
 H332 H 1.05649 0.43912 0.50522
 H333 H 1.07518 0.46721 0.51466
 H334 H 1.06133 0.49484 0.55681
 H335 H 1.03324 0.48535 0.57552
 H336 H 1.00535 0.44350 0.56141
 C337 C 0.40027 0.00719 0.22855
 H338 H 0.40119 0.01815 0.23603
 C339 C 0.41102 0.00490 0.21538
 H340 H 0.42016 0.01423 0.21279
 C341 C 0.38731 -0.01831 0.22311
 H342 H 0.37823 -0.02745 0.22629
 C343 C 0.39779 -0.02109 0.20981
 H344 H 0.39651 -0.03235 0.20283
 N345 N 0.38860 -0.00425 0.23205
 C346 C 0.34935 0.02161 0.25781
 H347 H 0.34838 0.01415 0.26877
 C348 C 0.33865 0.03483 0.25547
 H349 H 0.32952 0.03748 0.26477
 C350 C 0.36235 0.02695 0.23232
 H351 H 0.37143 0.02370 0.22320
 C352 C 0.35193 0.04030 0.22949
 H353 H 0.35326 0.04725 0.21822
 Zn354 Zn 0.37476 -0.00034 0.25034
 N355 N 0.36101 0.01803 0.24639
 C356 C 0.38722 0.01762 0.27763
 N357 N 0.38850 0.00354 0.26871
 C358 C 0.40012 -0.00793 0.27228
 C359 C 0.41083 -0.00564 0.28548
 C360 C 0.39765 0.02040 0.29096
 C361 C 0.34931 -0.02216 0.24272
 C362 C 0.33855 -0.03535 0.24498
 C363 C 0.35170 -0.04095 0.27099
 C364 C 0.36218 -0.02763 0.26825
 N365 N 0.36093 -0.01866 0.25420
 H366 H 0.37818 0.02678 0.27439
 H367 H 0.40104 -0.01890 0.26482
 H368 H 0.41993 -0.01499 0.28812
 H369 H 0.39637 0.03167 0.29791
 H370 H 0.34842 -0.01467 0.23177
 H371 H 0.32945 -0.03795 0.23563
 H372 H 0.35296 -0.04795 0.28224
 H373 H 0.37123 -0.02445 0.27741
 C374 C 0.33989 0.04442 0.24116
 C375 C 0.40984 -0.00939 0.20576
 C376 C 0.33970 -0.04499 0.25926
 C377 C 0.40965 0.00867 0.29507
 C378 C 0.09988 -0.00725 0.72841
 H379 H 0.09896 -0.01821 0.73589
 C380 C 0.08913 -0.00494 0.71524
 H381 H 0.07999 -0.01426 0.71265
 C382 C 0.11286 0.01825 0.72295
 H383 H 0.12195 0.02738 0.72613
 C384 C 0.10238 0.02105 0.70965
 H385 H 0.10367 0.03231 0.70267
 N386 N 0.11156 0.00419 0.73190
 C387 C 0.15082 -0.02167 0.75766
 H388 H 0.15179 -0.01420 0.76861
 C389 C 0.16151 -0.03489 0.75533
 H390 H 0.17065 -0.03754 0.76463
 C391 C 0.13778 -0.02705 0.73220
 H392 H 0.12869 -0.02382 0.72310
 C393 C 0.14819 -0.04040 0.72939
 H394 H 0.14684 -0.04737 0.71814
 Zn395 Zn 0.12539 0.00025 0.75020
 N396 N 0.13914 -0.01811 0.74625
 C397 C 0.11293 -0.01773 0.77748
 N398 N 0.11163 -0.00365 0.76856
 C399 C 0.10000 0.00781 0.77213
 C400 C 0.08929 0.00550 0.78533
 C401 C 0.10249 -0.02053 0.79081
 C402 C 0.15085 0.02210 0.74260
 C403 C 0.16160 0.03528 0.74488
 C404 C 0.14840 0.04085 0.77088
 C405 C 0.13793 0.02753 0.76811
 N406 N 0.13921 0.01858 0.75407
 H407 H 0.12198 -0.02688 0.77425
 H408 H 0.09907 0.01878 0.76467
 H409 H 0.08018 0.01483 0.78797
 H410 H 0.10378 -0.03181 0.79776
 H411 H 0.15176 0.01461 0.73166
 H412 H 0.17071 0.03789 0.73554
 H413 H 0.14713 0.04783 0.78213
 H414 H 0.12887 0.02434 0.77726
 C415 C 0.16024 -0.04451 0.74105
 C416 C 0.09032 0.00935 0.70562
 C417 C 0.16043 0.04491 0.75916
 C418 C 0.09048 -0.00882 0.79492
 C419 C 0.59946 0.49253 0.22812
 H420 H 0.59854 0.48156 0.23558
 C421 C 0.58873 0.49485 0.21494
 H422 H 0.57962 0.48551 0.21231
 C423 C 0.61239 0.51807 0.22274
 H424 H 0.62146 0.52721 0.22596
 C425 C 0.60194 0.52087 0.20943
 H426 H 0.60322 0.53215 0.20247
 N427 N 0.61111 0.50399 0.23166
 C428 C 0.65033 0.47815 0.25749
 H429 H 0.65127 0.48561 0.26845
 C430 C 0.66106 0.46495 0.25518
 H431 H 0.67018 0.46232 0.26450
 C432 C 0.63738 0.47278 0.23199
 H433 H 0.62832 0.47601 0.22285
 C434 C 0.64783 0.45945 0.22918
 H435 H 0.64654 0.45249 0.21792
 Zn436 Zn 0.62492 0.50006 0.24997
 N437 N 0.63869 0.48170 0.24605
 C438 C 0.61243 0.48207 0.27724
 N439 N 0.61115 0.49616 0.26833
 C440 C 0.59954 0.50763 0.27190
 C441 C 0.58883 0.50533 0.28512
 C442 C 0.60200 0.47928 0.29058
 C443 C 0.65036 0.52190 0.24236
 C444 C 0.66111 0.53509 0.24463
 C445 C 0.64797 0.54064 0.27065
 C446 C 0.63749 0.52732 0.26790
 N447 N 0.63874 0.51838 0.25384
 H448 H 0.62147 0.47291 0.27400
 H449 H 0.59862 0.51861 0.26445
 H450 H 0.57974 0.51468 0.28777
 H451 H 0.60328 0.46800 0.29753
 H452 H 0.65125 0.51443 0.23141
 H453 H 0.67021 0.53770 0.23527
 H454 H 0.64672 0.54761 0.28191
 H455 H 0.62844 0.52412 0.27706
 C456 C 0.65986 0.45535 0.24088
 C457 C 0.58992 0.50916 0.20534
 C458 C 0.65997 0.54470 0.25892
 C459 C 0.59001 0.49101 0.29470
 C460 C 0.90019 0.50705 0.72848
 H461 H 0.90108 0.51800 0.73597
 C462 C 0.91096 0.50478 0.71532
 H463 H 0.92008 0.51413 0.71274
 C464 C 0.88727 0.48154 0.72300
 H465 H 0.87820 0.47239 0.72617
 C466 C 0.89777 0.47878 0.70971
 H467 H 0.89651 0.46753 0.70272
 N468 N 0.88853 0.49559 0.73196
 C469 C 0.84921 0.52136 0.75769
 H470 H 0.84824 0.51388 0.76864
 C471 C 0.83850 0.53457 0.75536
 H472 H 0.82936 0.53720 0.76466
 C473 C 0.86224 0.52675 0.73222
 H474 H 0.87133 0.52353 0.72311
 C475 C 0.85181 0.54010 0.72940
 H476 H 0.85315 0.54707 0.71815
 Zn477 Zn 0.87467 0.49947 0.75024
 N478 N 0.86089 0.51781 0.74628
 C479 C 0.88706 0.51745 0.77753
 N480 N 0.88838 0.50338 0.76862
 C481 C 0.90002 0.49193 0.77221
 C482 C 0.91071 0.49424 0.78543
 C483 C 0.89747 0.52026 0.79088
 C484 C 0.84925 0.47760 0.74260
 C485 C 0.83851 0.46441 0.74485
 C486 C 0.85166 0.45882 0.77087
 C487 C 0.86212 0.47215 0.76813
 N488 N 0.86087 0.48112 0.75408
 H489 H 0.87800 0.52660 0.77428
 H490 H 0.90097 0.48096 0.76476
 H491 H 0.91982 0.48492 0.78809
 H492 H 0.89616 0.53154 0.79781
 H493 H 0.84836 0.48510 0.73165
 H494 H 0.82942 0.46180 0.73550
 H495 H 0.85291 0.45183 0.78212
 H496 H 0.87116 0.47535 0.77730
 C497 C 0.83975 0.54419 0.74107
 C498 C 0.90980 0.49050 0.70569
 C499 C 0.83966 0.45477 0.75914
 C500 C 0.90949 0.50856 0.79500
 C501 C 0.22763 0.40075 0.00710
 H502 H 0.23513 0.40164 0.01804
 C503 C 0.21444 0.41151 0.00486
 H504 H 0.21185 0.42060 0.01421
 C505 C 0.22214 0.38788 -0.01842
 H506 H 0.22532 0.37884 -0.02758
 C507 C 0.20881 0.39836 -0.02115
 H508 H 0.20181 0.39710 -0.03239
 N509 N 0.23112 0.38913 -0.00438
 C510 C 0.25704 0.34981 0.02122
 H511 H 0.26799 0.34891 0.01373
 C512 C 0.25476 0.33905 0.03440
 H513 H 0.26411 0.32993 0.03698
 C514 C 0.23153 0.36274 0.02671
 H515 H 0.22238 0.37182 0.02354
 C516 C 0.22876 0.35225 0.04001
 H517 H 0.21751 0.35353 0.04700
 Zn518 Zn 0.24947 0.37532 -0.00055
 N519 N 0.24558 0.36147 0.01774
 C520 C 0.27676 0.38774 0.01743
 N521 N 0.26782 0.38908 0.00337
 C522 C 0.27137 0.40075 -0.00805
 C523 C 0.28458 0.41146 -0.00573
 C524 C 0.29010 0.39817 0.02024
 C525 C 0.26742 0.36289 -0.02786
 C526 C 0.27021 0.35247 -0.04119
 C527 C 0.24418 0.33927 -0.03570
 C528 C 0.24188 0.34997 -0.02249
 N529 N 0.25335 0.36159 -0.01893
 H530 H 0.27354 0.37866 0.02655
 H531 H 0.26390 0.40171 -0.01900
 H532 H 0.28722 0.42060 -0.01503
 H533 H 0.29706 0.39685 0.03150
 H534 H 0.27658 0.37194 -0.02462
 H535 H 0.28149 0.35376 -0.04815
 H536 H 0.23484 0.33016 -0.03833
 H537 H 0.23091 0.34903 -0.01502
 C538 C 0.24048 0.34022 0.04404
 C539 C 0.20479 0.41036 -0.00941
 C540 C 0.25849 0.34046 -0.04529
 C541 C 0.29419 0.41022 0.00857
 C542 C 0.72863 0.09924 -0.00763
 H543 H 0.73610 0.09829 -0.01859
 C544 C 0.71542 0.08854 -0.00530
 H545 H 0.71277 0.07941 -0.01461
 C546 C 0.72326 0.11222 0.01785
 H547 H 0.72650 0.12130 0.02697
 C548 C 0.70992 0.10179 0.02068
 H549 H 0.70296 0.10311 0.03194
 N550 N 0.73219 0.11090 0.00379
 C551 C 0.73253 0.13711 -0.02743
 H552 H 0.72339 0.12806 -0.02418
 C553 C 0.72972 0.14754 -0.04077
 H554 H 0.71844 0.14624 -0.04771
 C555 C 0.75808 0.15005 -0.02212
 H556 H 0.76905 0.15099 -0.01467
 C557 C 0.75575 0.16075 -0.03533
 H558 H 0.76509 0.16986 -0.03799
 Zn559 Zn 0.75054 0.12467 -0.00017
 N560 N 0.74662 0.13842 -0.01853
 C561 C 0.77784 0.11214 -0.01809
 N562 N 0.76888 0.11087 -0.00404
 C563 C 0.77240 0.09924 0.00743
 C564 C 0.78559 0.08849 0.00515
 C565 C 0.79117 0.10168 -0.02085
 C566 C 0.74299 0.15015 0.02163
 C567 C 0.74528 0.16089 0.03480
 C568 C 0.77130 0.14768 0.04037
 C569 C 0.76852 0.13722 0.02707
 N570 N 0.75445 0.13850 0.01813
 H571 H 0.77464 0.12120 -0.02724
 H572 H 0.76491 0.09833 0.01838
 H573 H 0.78820 0.07938 0.01449
 H574 H 0.79815 0.10295 -0.03211
 H575 H 0.73203 0.15106 0.01416
 H576 H 0.73594 0.17001 0.03740
 H577 H 0.78256 0.14640 0.04734
 H578 H 0.77766 0.12814 0.02388
 C579 C 0.74143 0.15955 -0.04490
 C580 C 0.70581 0.08976 0.00900
 C581 C 0.75958 0.15971 0.04442
 C582 C 0.79522 0.08966 -0.00913
 C583 C 0.22762 0.59960 0.49248
 H584 H 0.23511 0.59866 0.48154
 C585 C 0.21442 0.58887 0.49479
 H586 H 0.21181 0.57974 0.48548
 C587 C 0.22219 0.61257 0.51796
 H588 H 0.22539 0.62164 0.52709
 C589 C 0.20885 0.60212 0.52075
 H590 H 0.20187 0.60342 0.53200
 N591 N 0.23115 0.61125 0.50391
 C592 C 0.23155 0.63751 0.47270
 H593 H 0.22240 0.62845 0.47592
 C594 C 0.22878 0.64795 0.45937
 H595 H 0.21752 0.64666 0.45240
 C596 C 0.25708 0.65044 0.47811
 H597 H 0.26804 0.65136 0.48559
 C598 C 0.25480 0.66115 0.46490
 H599 H 0.26414 0.67026 0.46228
 Zn600 Zn 0.24950 0.62503 0.50000
 N601 N 0.24561 0.63880 0.48165
 C602 C 0.27679 0.61251 0.48207
 N603 N 0.26785 0.61124 0.49613
 C604 C 0.27139 0.59962 0.50761
 C605 C 0.28460 0.58889 0.50533
 C606 C 0.29013 0.60206 0.47931
 C607 C 0.24192 0.65049 0.52182
 C608 C 0.24421 0.66123 0.53500
 C609 C 0.27023 0.64803 0.54056
 C610 C 0.26746 0.63757 0.52725
 N611 N 0.25339 0.63884 0.51831
 H612 H 0.27358 0.62156 0.47291
 H613 H 0.26391 0.59871 0.51857
 H614 H 0.28722 0.57979 0.51468
 H615 H 0.29710 0.60333 0.46805
 H616 H 0.23096 0.65140 0.51435
 H617 H 0.23487 0.67034 0.53760
 H618 H 0.28150 0.64675 0.54753
 H619 H 0.27661 0.62850 0.52406
 C620 C 0.24051 0.65996 0.45529
 C621 C 0.20479 0.59008 0.50907
 C622 C 0.25851 0.66006 0.54461
 C623 C 0.29421 0.59006 0.49104
 C624 C 0.72799 0.90052 0.50720
 H625 H 0.73548 0.90142 0.51815
 C626 C 0.71480 0.91126 0.50493
 H627 H 0.71218 0.92035 0.51427
 C628 C 0.72257 0.88765 0.48167
 H629 H 0.72577 0.87860 0.47251
 C630 C 0.70923 0.89810 0.47892
 H631 H 0.70226 0.89684 0.46766
 N632 N 0.73152 0.88890 0.49572
 C633 C 0.75738 0.84960 0.52142
 H634 H 0.76835 0.84869 0.51396
 C635 C 0.75507 0.83885 0.53459
 H636 H 0.76440 0.82974 0.53721
 C637 C 0.73184 0.86253 0.52681
 H638 H 0.72270 0.87160 0.52360
 C639 C 0.72904 0.85205 0.54012
 H640 H 0.71777 0.85333 0.54707
 Zn641 Zn 0.74986 0.87510 0.49960
 N642 N 0.74593 0.86125 0.51789
 C643 C 0.77711 0.88753 0.51765
 N644 N 0.76820 0.88887 0.50357
 C645 C 0.77177 0.90054 0.49216
 C646 C 0.78497 0.91126 0.49451
 C647 C 0.79044 0.89797 0.52049
 C648 C 0.74234 0.84975 0.47764
 C649 C 0.74467 0.83908 0.46441
 C650 C 0.77070 0.85230 0.45898
 C651 C 0.76789 0.86270 0.47233
 N652 N 0.75380 0.86138 0.48123
 H653 H 0.77387 0.87845 0.52676
 H654 H 0.76432 0.90150 0.48119
 H655 H 0.78761 0.92040 0.48521
 H656 H 0.79738 0.89665 0.53176
 H657 H 0.73136 0.84880 0.48508
 H658 H 0.73534 0.82997 0.46174
 H659 H 0.78199 0.85361 0.45205
 H660 H 0.77703 0.87174 0.47559
 C661 C 0.74076 0.84003 0.54419
 C662 C 0.70517 0.91010 0.49065
 C663 C 0.75899 0.84030 0.45484
 C664 C 0.79455 0.91003 0.50882
 C665 C 0.00725 0.22854 0.40021
 H666 H 0.01820 0.23604 0.40110
 C667 C 0.00498 0.21536 0.41096
 H668 H 0.01433 0.21277 0.42007
 C669 C -0.01828 0.22306 0.38731
 H670 H -0.02744 0.22623 0.37825
 C671 C -0.02103 0.20974 0.39779
 H672 H -0.03228 0.20274 0.39653
 N673 N -0.00423 0.23203 0.38857
 C674 C 0.02151 0.25788 0.34931
 H675 H 0.01403 0.26883 0.34836
 C676 C 0.03472 0.25557 0.33859
 H677 H 0.03733 0.26489 0.32946
 C678 C 0.02693 0.23238 0.36228
 H679 H 0.02373 0.22324 0.37136
 C680 C 0.04027 0.22958 0.35184
 H681 H 0.04724 0.21832 0.35315
 Zn682 Zn -0.00036 0.25035 0.37474
 N683 N 0.01798 0.24644 0.36096
 C684 C 0.01758 0.27768 0.38715
 N685 N 0.00352 0.26872 0.38847
 C686 C -0.00794 0.27227 0.40010
 C687 C -0.00564 0.28548 0.41080
 C688 C 0.02037 0.29102 0.39757
 C689 C -0.02223 0.24271 0.34935
 C690 C -0.03543 0.24497 0.33863
 C691 C -0.04104 0.27098 0.35179
 C692 C -0.02770 0.26823 0.36224
 N693 N -0.01872 0.25419 0.36097
 H694 H 0.02673 0.27446 0.37810
 H695 H -0.01889 0.26478 0.40105
 H696 H -0.01498 0.28810 0.41991
 H697 H 0.03163 0.29800 0.39627
 H698 H -0.01472 0.23177 0.34844
 H699 H -0.03803 0.23562 0.32953
 H700 H -0.04804 0.28222 0.35306
 H701 H -0.02451 0.27740 0.37128
 C702 C 0.04434 0.24128 0.33980
 C703 C -0.00930 0.20571 0.40981
 C704 C -0.04508 0.25924 0.33979
 C705 C 0.00865 0.29510 0.40959
 C706 C -0.00781 0.72796 0.09907
 H707 H -0.01877 0.73544 0.09812
 C708 C -0.00551 0.71474 0.08838
 H709 H -0.01484 0.71211 0.07927
 C710 C 0.01771 0.72256 0.11203
 H711 H 0.02685 0.72578 0.12108
 C712 C 0.02050 0.70921 0.10161
 H713 H 0.03176 0.70224 0.10292
 N714 N 0.00364 0.73151 0.11070
 C715 C -0.02208 0.75746 0.14990
 H716 H -0.01457 0.76840 0.15082
 C717 C -0.03526 0.75518 0.16065
 H718 H -0.03784 0.76451 0.16977
 C719 C -0.02757 0.73196 0.13698
 H720 H -0.02440 0.72282 0.12791
 C721 C -0.04089 0.72920 0.14744
 H722 H -0.04789 0.71795 0.14617
 Zn723 Zn -0.00025 0.74988 0.12445
 N724 N -0.01859 0.74600 0.13826
 C725 C -0.01821 0.77718 0.11198
 N726 N -0.00416 0.76821 0.11065
 C727 C 0.00728 0.77173 0.09898
 C728 C 0.00497 0.78493 0.08826
 C729 C -0.02100 0.79052 0.10154
 C730 C 0.02164 0.74236 0.14987
 C731 C 0.03485 0.74467 0.16058
 C732 C 0.04040 0.77065 0.14731
 C733 C 0.02706 0.76785 0.13688
 N734 N 0.01811 0.75379 0.13821
 H735 H -0.02734 0.77399 0.12106
 H736 H 0.01822 0.76423 0.09804
 H737 H 0.01429 0.78754 0.07913
 H738 H -0.03225 0.79751 0.10285
 H739 H 0.01415 0.73140 0.15083
 H740 H 0.03746 0.73535 0.16971
 H741 H 0.04738 0.78191 0.14599
 H742 H 0.02386 0.77698 0.12780
 C743 C -0.04492 0.74091 0.15948
 C744 C 0.00879 0.70512 0.08960
 C745 C 0.04447 0.75896 0.15935
 C746 C -0.00931 0.79457 0.08949
 C747 C 0.49252 0.22791 0.60014
 H748 H 0.48155 0.23539 0.59922
 C749 C 0.49481 0.21471 0.58942
 H750 H 0.48548 0.21210 0.58031
 C751 C 0.51804 0.22249 0.61307
 H752 H 0.52719 0.22570 0.62212
 C753 C 0.52083 0.20917 0.60262
 H754 H 0.53210 0.20220 0.60391
 N755 N 0.50398 0.23144 0.61177
 C756 C 0.47817 0.25731 0.65096
 H757 H 0.48565 0.26827 0.65190
 C758 C 0.46495 0.25501 0.66167
 H759 H 0.46232 0.26434 0.67078
 C760 C 0.47277 0.23180 0.63803
 H761 H 0.47600 0.22266 0.62897
 C762 C 0.45943 0.22901 0.64845
 H763 H 0.45245 0.21775 0.64715
 Zn764 Zn 0.50007 0.24978 0.62555
 N765 N 0.48172 0.24586 0.63933
 C766 C 0.48208 0.27705 0.61305
 N767 N 0.49615 0.26812 0.61176
 C768 C 0.50760 0.27165 0.60011
 C769 C 0.50529 0.28484 0.58938
 C770 C 0.47928 0.29037 0.60259
 C771 C 0.52197 0.24225 0.65096
 C772 C 0.53518 0.24456 0.66166
 C773 C 0.54071 0.27056 0.64841
 C774 C 0.52736 0.26776 0.63799
 N775 N 0.51842 0.25369 0.63931
 H776 H 0.47294 0.27384 0.62211
 H777 H 0.51857 0.26418 0.59919
 H778 H 0.51462 0.28746 0.58026
 H779 H 0.46801 0.29734 0.60387
 H780 H 0.51450 0.23129 0.65191
 H781 H 0.53782 0.23523 0.67078
 H782 H 0.54768 0.28182 0.64709
 H783 H 0.52414 0.27690 0.62892
 C784 C 0.45533 0.24071 0.66046
 C785 C 0.50912 0.20510 0.59061
 C786 C 0.54480 0.25886 0.66044
 C787 C 0.49098 0.29445 0.59056
 C788 C 0.50725 0.72795 0.90049
 H789 H 0.51820 0.73544 0.90141
 C790 C 0.50497 0.71475 0.91122
 H791 H 0.51432 0.71214 0.92033
 C792 C 0.48172 0.72250 0.88758
 H793 H 0.47257 0.72570 0.87853
 C794 C 0.47896 0.70917 0.89803
 H795 H 0.46771 0.70218 0.89676
 N796 N 0.49578 0.73147 0.88886
 C797 C 0.52149 0.75741 0.84964
 H798 H 0.51400 0.76836 0.84873
 C799 C 0.53468 0.75513 0.83890
 H800 H 0.53729 0.76447 0.82979
 C801 C 0.52694 0.73188 0.86255
 H802 H 0.52374 0.72273 0.87161
 C803 C 0.54026 0.72911 0.85209
 H804 H 0.54724 0.71785 0.85337
 Zn805 Zn 0.49965 0.74982 0.87508
 N806 N 0.51798 0.74594 0.86127
 C807 C 0.51763 0.77710 0.88754
 N808 N 0.50356 0.76816 0.88885
 C809 C 0.49211 0.77169 0.90050
 C810 C 0.49442 0.78489 0.91121
 C811 C 0.52043 0.79043 0.89798
 C812 C 0.47773 0.74227 0.84971
 C813 C 0.46451 0.74457 0.83901
 C814 C 0.45899 0.77058 0.85221
 C815 C 0.47234 0.76779 0.86263
 N816 N 0.48128 0.75372 0.86133
 H817 H 0.52677 0.77389 0.87848
 H818 H 0.48115 0.76421 0.90143
 H819 H 0.48509 0.78750 0.92033
 H820 H 0.53170 0.79739 0.89668
 H821 H 0.48521 0.73131 0.84877
 H822 H 0.46188 0.73524 0.82990
 H823 H 0.45203 0.78184 0.85350
 H824 H 0.47557 0.77693 0.87168
 C825 C 0.54431 0.74084 0.84008
 C826 C 0.49069 0.70511 0.91005
 C827 C 0.45490 0.75887 0.84020
 C828 C 0.50872 0.79450 0.91001
 C829 C 0.13795 0.22302 0.26521
 N830 N 0.14809 0.20994 0.26738
 N831 N 0.16074 0.20745 0.25729
 C832 C 0.16372 0.21793 0.24464
 N833 N 0.15357 0.23101 0.24248
 N834 N 0.14092 0.23351 0.25258
 C835 C 0.12400 0.22576 0.27634
 N836 N 0.11408 0.23904 0.27441
 N837 N 0.10143 0.24153 0.28450
 C838 C 0.09822 0.23081 0.29689
 N839 N 0.10814 0.21752 0.29881
 N840 N 0.12080 0.21505 0.28873
 C841 C 0.08427 0.23353 0.30800
 N842 N 0.08084 0.22261 0.32014
 N843 N 0.06817 0.22507 0.33021
 C844 C 0.05843 0.23855 0.32858
 N845 N 0.06191 0.24946 0.31642
 N846 N 0.07457 0.24700 0.30633
 C847 C 0.63791 0.72283 0.76540
 N848 N 0.64088 0.73335 0.75279
 N849 N 0.65352 0.73087 0.74269
 C850 C 0.66369 0.71780 0.74482
 N851 N 0.66071 0.70728 0.75745
 N852 N 0.64806 0.70975 0.76754
 C853 C 0.62396 0.72553 0.77653
 N854 N 0.62077 0.71479 0.78890
 N855 N 0.60811 0.71723 0.79899
 C856 C 0.59818 0.73052 0.79710
 N857 N 0.60137 0.74126 0.78474
 N858 N 0.61403 0.73881 0.77463
 C859 C 0.58423 0.73320 0.80823
 N860 N 0.57452 0.74667 0.80659
 N861 N 0.56187 0.74909 0.81670
 C862 C 0.55840 0.73815 0.82883
 N863 N 0.56815 0.72467 0.83043
 N864 N 0.58081 0.72225 0.82034
 C865 C 0.36126 0.77713 0.76565
 N866 N 0.35828 0.76663 0.75304
 N867 N 0.34564 0.76915 0.74294
 C868 C 0.33551 0.78225 0.74507
 N869 N 0.33850 0.79274 0.75770
 N870 N 0.35115 0.79023 0.76779
 C871 C 0.37521 0.77438 0.77678
 N872 N 0.37842 0.78510 0.78915
 N873 N 0.39108 0.78262 0.79923
 C874 C 0.40099 0.76932 0.79732
 N875 N 0.39777 0.75859 0.78497
 N876 N 0.38511 0.76108 0.77487
 C877 C 0.41495 0.76660 0.80844
 N878 N 0.42463 0.75312 0.80678
 N879 N 0.43730 0.75066 0.81686
 C880 C 0.44079 0.76159 0.82899
 N881 N 0.43107 0.77508 0.83061
 N882 N 0.41839 0.77754 0.82054
 C883 C -0.13862 0.27720 0.26505
 N884 N -0.14140 0.26684 0.25228
 N885 N -0.15402 0.26931 0.24215
 C886 C -0.16438 0.28223 0.24440
 N887 N -0.16157 0.29258 0.25721
 N888 N -0.14894 0.29011 0.26733
 C889 C -0.12469 0.27449 0.27620
 N890 N -0.12165 0.28512 0.28869
 N891 N -0.10900 0.28268 0.29880
 C892 C -0.09894 0.26952 0.29680
 N893 N -0.10198 0.25888 0.28432
 N894 N -0.11462 0.26133 0.27419
 C895 C -0.08499 0.26684 0.30794
 N896 N -0.07519 0.25345 0.30623
 N897 N -0.06254 0.25104 0.31634
 C898 C -0.05917 0.26192 0.32855
 N899 N -0.06902 0.27531 0.33022
 N900 N -0.08168 0.27773 0.32012
 C901 C -0.13843 0.72290 0.23429
 N902 N -0.14872 0.70996 0.23203
 N903 N -0.16137 0.70750 0.24214
 C904 C -0.16420 0.71787 0.25492
 N905 N -0.15386 0.73081 0.25716
 N906 N -0.14123 0.73328 0.24704
 C907 C -0.12449 0.72560 0.22314
 N908 N -0.11444 0.73878 0.22513
 N909 N -0.10180 0.74123 0.21500
 C910 C -0.09874 0.73058 0.20253
 N911 N -0.10878 0.71740 0.20055
 N912 N -0.12143 0.71496 0.21066
 C913 C -0.08480 0.73327 0.19138
 N914 N -0.08148 0.72238 0.17919
 N915 N -0.06883 0.72481 0.16908
 C916 C -0.05900 0.73821 0.17074
 N917 N -0.06236 0.74909 0.18295
 N918 N -0.07500 0.74666 0.19308
 C919 C 0.36149 0.22260 0.73483
 N920 N 0.35862 0.23298 0.74756
 N921 N 0.34594 0.23051 0.75763
 C922 C 0.33563 0.21756 0.75536
 N923 N 0.33853 0.20718 0.74260
 N924 N 0.35122 0.20965 0.73254
 C925 C 0.37548 0.22531 0.72374
 N926 N 0.37861 0.21467 0.71129
 N927 N 0.39131 0.21712 0.70124
 C928 C 0.40133 0.23032 0.70326
 N929 N 0.39819 0.24096 0.71571
 N930 N 0.38550 0.23850 0.72578
 C931 C 0.41532 0.23302 0.69218
 N932 N 0.42508 0.24643 0.69392
 N933 N 0.43777 0.24888 0.68386
 C934 C 0.44121 0.23800 0.67167
 N935 N 0.43141 0.22457 0.66997
 N936 N 0.41871 0.22213 0.68001
 C937 C 0.63856 0.27707 0.73484
 N938 N 0.64141 0.26670 0.74759
 N939 N 0.65407 0.26919 0.75767
 C940 C 0.66439 0.28213 0.75538
 N941 N 0.66151 0.29249 0.74258
 N942 N 0.64884 0.29001 0.73252
 C943 C 0.62459 0.27434 0.72374
 N944 N 0.62147 0.28496 0.71126
 N945 N 0.60879 0.28250 0.70120
 C946 C 0.59876 0.26931 0.70325
 N947 N 0.60189 0.25868 0.71573
 N948 N 0.61456 0.26115 0.72580
 C949 C 0.58478 0.26659 0.69216
 N950 N 0.57502 0.25318 0.69392
 N951 N 0.56235 0.25072 0.68385
 C952 C 0.55891 0.26158 0.67164
 N953 N 0.56871 0.27501 0.66992
 N954 N 0.58140 0.27746 0.67997
 C955 C 0.13805 0.77720 0.23397
 N956 N 0.14818 0.79028 0.23184
 N957 N 0.16082 0.79277 0.24195
 C958 C 0.16378 0.78227 0.25459
 N959 N 0.15363 0.76918 0.25672
 N960 N 0.14100 0.76669 0.24660
 C961 C 0.12411 0.77446 0.22283
 N962 N 0.11419 0.76117 0.22475
 N963 N 0.10155 0.75869 0.21464
 C964 C 0.09835 0.76942 0.20227
 N965 N 0.10827 0.78271 0.20036
 N966 N 0.12092 0.78518 0.21045
 C967 C 0.08440 0.76670 0.19114
 N968 N 0.08097 0.77762 0.17901
 N969 N 0.06830 0.77517 0.16894
 C970 C 0.05857 0.76169 0.17057
 N971 N 0.06205 0.75077 0.18272
 N972 N 0.07470 0.75323 0.19282
 C973 C 0.26542 0.13812 0.22269
 N974 N 0.25281 0.14114 0.23319
 N975 N 0.24271 0.15379 0.23067
 C976 C 0.24486 0.16390 0.21757
 N977 N 0.25749 0.16088 0.20707
 N978 N 0.26757 0.14822 0.20958
 C979 C 0.27654 0.12416 0.22546
 N980 N 0.28891 0.12091 0.21475
 N981 N 0.29898 0.10824 0.21725
 C982 C 0.29706 0.09836 0.23056
 N983 N 0.28469 0.10162 0.24128
 N984 N 0.27461 0.11429 0.23877
 C985 C 0.30816 0.08439 0.23332
 N986 N 0.30647 0.07474 0.24681
 N987 N 0.31654 0.06206 0.24930
 C988 C 0.32869 0.05853 0.23840
 N989 N 0.33034 0.06823 0.22490
 N990 N 0.32028 0.08091 0.22241
 C991 C 0.76534 0.63797 0.72277
 N992 N 0.76751 0.64810 0.70968
 N993 N 0.75744 0.66077 0.70720
 C994 C 0.74481 0.66378 0.71769
 N995 N 0.74265 0.65365 0.73078
 N996 N 0.75274 0.64098 0.73328
 C997 C 0.77645 0.62400 0.72551
 N998 N 0.77450 0.61409 0.73880
 N999 N 0.78457 0.60142 0.74128
 C1000 C 0.79694 0.59817 0.73056
 N1001 N 0.79888 0.60808 0.71727
 N1002 N 0.78882 0.62076 0.71480
 C1003 C 0.80803 0.58419 0.73329
 N1004 N 0.82016 0.58072 0.72238
 N1005 N 0.83021 0.56803 0.72484
 C1006 C 0.82855 0.55831 0.73832
 N1007 N 0.81640 0.56182 0.74923
 N1008 N 0.80633 0.57450 0.74676
 C1009 C 0.76490 0.36118 0.77707
 N1010 N 0.76722 0.35085 0.78996
 N1011 N 0.75713 0.33819 0.79243
 C1012 C 0.74431 0.33537 0.78210
 N1013 N 0.74201 0.34574 0.76920
 N1014 N 0.75212 0.35839 0.76673
 C1015 C 0.77604 0.37513 0.77437
 N1016 N 0.77402 0.38520 0.76122
 N1017 N 0.78414 0.39785 0.75878
 C1018 C 0.79663 0.40091 0.76940
 N1019 N 0.79865 0.39084 0.78256
 N1020 N 0.78855 0.37818 0.78499
 C1021 C 0.80778 0.41486 0.76673
 N1022 N 0.81997 0.41817 0.77761
 N1023 N 0.83007 0.43084 0.77520
 C1024 C 0.82840 0.44068 0.76181
 N1025 N 0.81619 0.43731 0.75093
 N1026 N 0.80607 0.42466 0.75335
 C1027 C 0.26491 -0.13858 0.27711
 N1028 N 0.25217 -0.14139 0.26672
 N1029 N 0.24205 -0.15403 0.26917
 C1030 C 0.24429 -0.16438 0.28210
 N1031 N 0.25707 -0.16153 0.29248
 N1032 N 0.26718 -0.14888 0.29004
 C1033 C 0.27606 -0.12463 0.27443
 N1034 N 0.28853 -0.12156 0.28509
 N1035 N 0.29863 -0.10890 0.28267
 C1036 C 0.29666 -0.09885 0.26949
 N1037 N 0.28420 -0.10192 0.25883
 N1038 N 0.27408 -0.11457 0.26126
 C1039 C 0.30780 -0.08490 0.26683
 N1040 N 0.30612 -0.07511 0.25344
 N1041 N 0.31624 -0.06246 0.25103
 C1042 C 0.32844 -0.05908 0.26193
 N1043 N 0.33008 -0.06891 0.27533
 N1044 N 0.31998 -0.08157 0.27774
 C1045 C 0.23457 -0.13836 0.72278
 N1046 N 0.24732 -0.14123 0.73313
 N1047 N 0.25739 -0.15390 0.73065
 C1048 C 0.25509 -0.16421 0.71771
 N1049 N 0.24229 -0.16131 0.70737
 N1050 N 0.23223 -0.14863 0.70985
 C1051 C 0.22348 -0.12437 0.72551
 N1052 N 0.21098 -0.12124 0.71491
 N1053 N 0.20094 -0.10854 0.71738
 C1054 C 0.20301 -0.09853 0.73056
 N1055 N 0.21549 -0.10167 0.74117
 N1056 N 0.22555 -0.11436 0.73869
 C1057 C 0.19193 -0.08453 0.73328
 N1058 N 0.19372 -0.07478 0.74668
 N1059 N 0.18366 -0.06209 0.74915
 C1060 C 0.17143 -0.05864 0.73831
 N1061 N 0.16968 -0.06843 0.72491
 N1062 N 0.17972 -0.08113 0.72244
 C1063 C 0.73457 0.36180 0.22267
 N1064 N 0.73245 0.35168 0.20959
 N1065 N 0.74256 0.33903 0.20711
 C1066 C 0.75518 0.33605 0.21763
 N1067 N 0.75729 0.34618 0.23071
 N1068 N 0.74717 0.35882 0.23319
 C1069 C 0.72343 0.37574 0.22539
 N1070 N 0.72532 0.38564 0.23868
 N1071 N 0.71520 0.39828 0.24116
 C1072 C 0.70284 0.40150 0.23042
 N1073 N 0.70096 0.39161 0.21713
 N1074 N 0.71106 0.37895 0.21466
 C1075 C 0.69170 0.41545 0.23314
 N1076 N 0.67959 0.41890 0.22221
 N1077 N 0.66950 0.43156 0.22466
 C1078 C 0.67110 0.44126 0.23815
 N1079 N 0.68324 0.43777 0.24908
 N1080 N 0.69335 0.42512 0.24662
 C1081 C 0.73478 0.63824 0.27678
 N1082 N 0.74738 0.64120 0.26624
 N1083 N 0.75749 0.65385 0.26868
 C1084 C 0.75537 0.66402 0.28174
 N1085 N 0.74275 0.66106 0.29226
 N1086 N 0.73265 0.64840 0.28983
 C1087 C 0.72363 0.62429 0.27410
 N1088 N 0.71127 0.62111 0.28485
 N1089 N 0.70116 0.60846 0.28243
 C1090 C 0.70303 0.59853 0.26917
 N1091 N 0.71539 0.60171 0.25841
 N1092 N 0.72551 0.61436 0.26083
 C1093 C 0.69188 0.58458 0.26650
 N1094 N 0.69349 0.57488 0.25304
 N1095 N 0.68337 0.56224 0.25063
 C1096 C 0.67124 0.55878 0.26159
 N1097 N 0.66967 0.56852 0.27506
 N1098 N 0.67978 0.58117 0.27747
 C1099 C 0.23514 0.13851 0.77713
 N1100 N 0.24794 0.14129 0.76680
 N1101 N 0.25804 0.15395 0.76926
 C1102 C 0.25571 0.16434 0.78213
 N1103 N 0.24287 0.16152 0.79245
 N1104 N 0.23279 0.14885 0.79000
 C1105 C 0.22401 0.12455 0.77443
 N1106 N 0.21149 0.12150 0.78504
 N1107 N 0.20139 0.10883 0.78261
 C1108 C 0.20344 0.09876 0.76947
 N1109 N 0.21596 0.10182 0.75886
 N1110 N 0.22606 0.11447 0.76130
 C1111 C 0.19230 0.08481 0.76679
 N1112 N 0.19404 0.07501 0.75341
 N1113 N 0.18393 0.06236 0.75099
 C1114 C 0.17169 0.05899 0.76185
 N1115 N 0.16999 0.06883 0.77523
 N1116 N 0.18009 0.08149 0.77765
 C1117 C 0.22259 0.26551 0.13762
 N1118 N 0.23312 0.25291 0.14060
 N1119 N 0.23067 0.24281 0.15326
 C1120 C 0.21760 0.24495 0.16342
 N1121 N 0.20708 0.25757 0.16044
 N1122 N 0.20952 0.26765 0.14777
 C1123 C 0.22527 0.27663 0.12366
 N1124 N 0.21452 0.28899 0.12048
 N1125 N 0.21694 0.29908 0.10781
 C1126 C 0.23021 0.29720 0.09787
 N1127 N 0.24097 0.28484 0.10106
 N1128 N 0.23854 0.27474 0.11372
 C1129 C 0.23288 0.30833 0.08392
 N1130 N 0.24634 0.30670 0.07421
 N1131 N 0.24875 0.31682 0.06156
 C1132 C 0.23780 0.32896 0.05811
 N1133 N 0.22433 0.33054 0.06787
 N1134 N 0.22192 0.32044 0.08052
 C1135 C 0.72265 0.76543 0.63783
 N1136 N 0.70957 0.76758 0.64796
 N1137 N 0.70710 0.75751 0.66063
 C1138 C 0.71762 0.74489 0.66364
 N1139 N 0.73070 0.74274 0.65348
 N1140 N 0.73317 0.75283 0.64082
 C1141 C 0.72536 0.77654 0.62386
 N1142 N 0.73864 0.77463 0.61395
 N1143 N 0.74110 0.78472 0.60128
 C1144 C 0.73035 0.79708 0.59806
 N1145 N 0.71706 0.79898 0.60797
 N1146 N 0.71461 0.78890 0.62065
 C1147 C 0.73305 0.80820 0.58410
 N1148 N 0.72210 0.82030 0.58066
 N1149 N 0.72454 0.83039 0.56799
 C1150 C 0.73803 0.82878 0.55827
 N1151 N 0.74898 0.81665 0.56176
 N1152 N 0.74653 0.80655 0.57442
 C1153 C 0.77736 0.76587 0.36119
 N1154 N 0.79046 0.76802 0.35107
 N1155 N 0.79296 0.75793 0.33843
 C1156 C 0.78246 0.74529 0.33545
 N1157 N 0.76937 0.74314 0.34558
 N1158 N 0.76686 0.75325 0.35821
 C1159 C 0.77461 0.77699 0.37513
 N1160 N 0.76130 0.77506 0.38502
 N1161 N 0.75881 0.78513 0.39767
 C1162 C 0.76953 0.79750 0.40091
 N1163 N 0.78284 0.79943 0.39102
 N1164 N 0.78533 0.78936 0.37836
 C1165 C 0.76679 0.80860 0.41487
 N1166 N 0.77772 0.82071 0.41835
 N1167 N 0.77525 0.83075 0.43103
 C1168 C 0.76174 0.82911 0.44073
 N1169 N 0.75082 0.81697 0.43720
 N1170 N 0.75329 0.80691 0.42453
 C1171 C 0.27689 0.26571 -0.13868
 N1172 N 0.29000 0.26784 -0.14878
 N1173 N 0.29253 0.25771 -0.16138
 C1174 C 0.28205 0.24505 -0.16434
 N1175 N 0.26894 0.24292 -0.15423
 N1176 N 0.26640 0.25307 -0.14163
 C1177 C 0.27411 0.27687 -0.12478
 N1178 N 0.26080 0.27498 -0.11489
 N1179 N 0.25829 0.28510 -0.10228
 C1180 C 0.26901 0.29749 -0.09908
 N1181 N 0.28232 0.29938 -0.10896
 N1182 N 0.28483 0.28927 -0.12159
 C1183 C 0.26627 0.30863 -0.08516
 N1184 N 0.27720 0.32075 -0.08172
 N1185 N 0.27473 0.33084 -0.06908
 C1186 C 0.26123 0.32923 -0.05937
 N1187 N 0.25030 0.31709 -0.06286
 N1188 N 0.25277 0.30698 -0.07550
 C1189 C 0.72299 0.23417 -0.13846
 N1190 N 0.70989 0.23202 -0.14856
 N1191 N 0.70737 0.24213 -0.16119
 C1192 C 0.71786 0.25477 -0.16419
 N1193 N 0.73096 0.25692 -0.15407
 N1194 N 0.73349 0.24680 -0.14145
 C1195 C 0.72577 0.22303 -0.12452
 N1196 N 0.73908 0.22495 -0.11465
 N1197 N 0.74159 0.21484 -0.10201
 C1198 C 0.73087 0.20246 -0.09877
 N1199 N 0.71756 0.20055 -0.10864
 N1200 N 0.71505 0.21064 -0.12130
 C1201 C 0.73362 0.19134 -0.08482
 N1202 N 0.72269 0.17922 -0.08135
 N1203 N 0.72517 0.16915 -0.06869
 C1204 C 0.73868 0.17077 -0.05900
 N1205 N 0.74960 0.18292 -0.06252
 N1206 N 0.74712 0.19301 -0.07518
 C1207 C 0.22250 0.73459 0.36166
 N1208 N 0.23302 0.74721 0.35870
 N1209 N 0.23057 0.75731 0.34605
 C1210 C 0.21751 0.75517 0.33588
 N1211 N 0.20699 0.74254 0.33884
 N1212 N 0.20944 0.73244 0.35150
 C1213 C 0.22520 0.72346 0.37561
 N1214 N 0.21446 0.71109 0.37880
 N1215 N 0.21690 0.70100 0.39147
 C1216 C 0.23017 0.70290 0.40140
 N1217 N 0.24091 0.71527 0.39820
 N1218 N 0.23847 0.72537 0.38554
 C1219 C 0.23285 0.69178 0.41535
 N1220 N 0.24632 0.69343 0.42505
 N1221 N 0.24875 0.68333 0.43771
 C1222 C 0.23781 0.67120 0.44119
 N1223 N 0.22433 0.66958 0.43145
 N1224 N 0.22191 0.67966 0.41878
 C1225 C 0.27660 0.73476 0.63809
 N1226 N 0.26609 0.74738 0.64105
 N1227 N 0.26857 0.75748 0.65369
 C1228 C 0.28163 0.75531 0.66386
 N1229 N 0.29213 0.74267 0.66089
 N1230 N 0.28966 0.73259 0.64824
 C1231 C 0.27388 0.72363 0.62415
 N1232 N 0.28461 0.71125 0.62097
 N1233 N 0.28216 0.70115 0.60832
 C1234 C 0.26888 0.70306 0.59840
 N1235 N 0.25815 0.71544 0.60158
 N1236 N 0.26061 0.72554 0.61422
 C1237 C 0.26619 0.69192 0.58446
 N1238 N 0.25272 0.69357 0.57477
 N1239 N 0.25028 0.68346 0.56213
 C1240 C 0.26122 0.67131 0.55868
 N1241 N 0.27469 0.66970 0.56841
 N1242 N 0.27713 0.67980 0.58106
 C1243 C 0.77753 0.23436 0.13797
 N1244 N 0.76700 0.24696 0.14093
 N1245 N 0.76945 0.25706 0.15357
 C1246 C 0.78251 0.25492 0.16374
 N1247 N 0.79304 0.24230 0.16078
 N1248 N 0.79060 0.23222 0.14813
 C1249 C 0.77485 0.22323 0.12402
 N1250 N 0.78560 0.21087 0.12084
 N1251 N 0.78317 0.20078 0.10818
 C1252 C 0.76990 0.20268 0.09825
 N1253 N 0.75914 0.21504 0.10144
 N1254 N 0.76158 0.22514 0.11409
 C1255 C 0.76722 0.19155 0.08430
 N1256 N 0.75376 0.19320 0.07460
 N1257 N 0.75133 0.18310 0.06195
 C1258 C 0.76228 0.17096 0.05849
 N1259 N 0.77575 0.16936 0.06823
 N1260 N 0.77818 0.17944 0.08089
 C1261 C 0.47275 0.38797 0.51582
 N1262 N 0.45966 0.39810 0.51795
 N1263 N 0.45718 0.41074 0.50785
 C1264 C 0.46769 0.41373 0.49523
 N1265 N 0.48078 0.40359 0.49310
 N1266 N 0.48327 0.39095 0.50322
 C1267 C 0.47549 0.37403 0.52697
 N1268 N 0.48879 0.36412 0.52508
 N1269 N 0.49126 0.35148 0.53519
 C1270 C 0.48052 0.34827 0.54755
 N1271 N 0.46722 0.35818 0.54944
 N1272 N 0.46475 0.37083 0.53933
 C1273 C 0.48324 0.33433 0.55869
 N1274 N 0.47230 0.33090 0.57081
 N1275 N 0.47476 0.31825 0.58091
 C1276 C 0.48826 0.30853 0.57931
 N1277 N 0.49919 0.31201 0.56717
 N1278 N 0.49673 0.32465 0.55706
 C1279 C -0.02739 0.88833 0.01501
 N1280 N -0.01702 0.89117 0.00226
 N1281 N -0.01948 0.90384 -0.00782
 C1282 C -0.03241 0.91418 -0.00553
 N1283 N -0.04277 0.91131 0.00726
 N1284 N -0.04031 0.89863 0.01732
 C1285 C -0.02469 0.87435 0.02611
 N1286 N -0.03531 0.87126 0.03860
 N1287 N -0.03287 0.85857 0.04866
 C1288 C -0.01969 0.84852 0.04662
 N1289 N -0.00906 0.85163 0.03414
 N1290 N -0.01152 0.86431 0.02406
 C1291 C -0.01700 0.83454 0.05772
 N1292 N -0.00360 0.82476 0.05596
 N1293 N -0.00116 0.81209 0.06604
 C1294 C -0.01202 0.80868 0.07827
 N1295 N -0.02543 0.81850 0.07998
 N1296 N -0.02787 0.83119 0.06992
 C1297 C 0.02702 0.61141 0.01518
 N1298 N 0.01664 0.60856 0.00244
 N1299 N 0.01914 0.59591 -0.00765
 C1300 C 0.03210 0.58560 -0.00538
 N1301 N 0.04246 0.58848 0.00741
 N1302 N 0.03997 0.60115 0.01748
 C1303 C 0.02428 0.62537 0.02628
 N1304 N 0.03491 0.62849 0.03876
 N1305 N 0.03244 0.64116 0.04882
 C1306 C 0.01924 0.65118 0.04679
 N1307 N 0.00860 0.64805 0.03432
 N1308 N 0.01108 0.63539 0.02425
 C1309 C 0.01652 0.66515 0.05788
 N1310 N 0.00310 0.67490 0.05613
 N1311 N 0.00064 0.68758 0.06620
 C1312 C 0.01151 0.69101 0.07840
 N1313 N 0.02494 0.68121 0.08011
 N1314 N 0.02739 0.66853 0.07006
 C1315 C 0.52725 0.11158 0.51593
 N1316 N 0.51672 0.10861 0.50334
 N1317 N 0.51920 0.09598 0.49322
 C1318 C 0.53230 0.08584 0.49532
 N1319 N 0.54282 0.08882 0.50793
 N1320 N 0.54035 0.10145 0.51803
 C1321 C 0.52453 0.12551 0.52707
 N1322 N 0.53528 0.12871 0.53942
 N1323 N 0.53283 0.14136 0.54952
 C1324 C 0.51952 0.15126 0.54764
 N1325 N 0.50877 0.14806 0.53530
 N1326 N 0.51123 0.13542 0.52519
 C1327 C 0.51682 0.16521 0.55878
 N1328 N 0.50333 0.17489 0.55715
 N1329 N 0.50089 0.18754 0.56725
 C1330 C 0.51183 0.19101 0.57937
 N1331 N 0.52533 0.18129 0.58096
 N1332 N 0.52777 0.16863 0.57087
 C1333 C -0.02721 0.11217 0.48460
 N1334 N -0.04027 0.10201 0.48248
 N1335 N -0.04273 0.08936 0.49259
 C1336 C -0.03221 0.08641 0.50521
 N1337 N -0.01914 0.09659 0.50732
 N1338 N -0.01668 0.10923 0.49720
 C1339 C -0.02451 0.12612 0.47345
 N1340 N -0.01124 0.13606 0.47533
 N1341 N -0.00881 0.14871 0.46521
 C1342 C -0.01956 0.15188 0.45285
 N1343 N -0.03284 0.14194 0.45098
 N1344 N -0.03526 0.12928 0.46109
 C1345 C -0.01689 0.16582 0.44170
 N1346 N -0.02785 0.16921 0.42960
 N1347 N -0.02544 0.18187 0.41949
 C1348 C -0.01198 0.19163 0.42107
 N1349 N -0.00102 0.18819 0.43320
 N1350 N -0.00343 0.17555 0.44332
 C1351 C 0.47261 0.61154 0.98476
 N1352 N 0.45968 0.60125 0.98247
 N1353 N 0.45720 0.58860 0.99257
 C1354 C 0.46754 0.58576 1.00537
 N1355 N 0.48047 0.59610 1.00765
 N1356 N 0.48296 0.60874 0.99753
 C1357 C 0.47533 0.62549 0.97362
 N1358 N 0.48851 0.63553 0.97564
 N1359 N 0.49097 0.64818 0.96552
 C1360 C 0.48034 0.65125 0.95304
 N1361 N 0.46716 0.64121 0.95103
 N1362 N 0.46471 0.62855 0.96113
 C1363 C 0.48303 0.66520 0.94190
 N1364 N 0.47215 0.66853 0.92971
 N1365 N 0.47458 0.68120 0.91961
 C1366 C 0.48799 0.69102 0.92129
 N1367 N 0.49887 0.68764 0.93351
 N1368 N 0.49644 0.67499 0.94362
 C1369 C 0.52700 0.88803 0.98462
 N1370 N 0.54009 0.89816 0.98247
 N1371 N 0.54259 0.91080 0.99257
 C1372 C 0.53210 0.91377 1.00520
 N1373 N 0.51900 0.90363 1.00735
 N1374 N 0.51650 0.89100 0.99724
 C1375 C 0.52425 0.87410 0.97349
 N1376 N 0.51095 0.86419 0.97540
 N1377 N 0.50847 0.85155 0.96530
 C1378 C 0.51919 0.84835 0.95293
 N1379 N 0.53249 0.85825 0.95102
 N1380 N 0.53497 0.87090 0.96111
 C1381 C 0.51647 0.83440 0.94181
 N1382 N 0.52740 0.83097 0.92969
 N1383 N 0.52494 0.81831 0.91961
 C1384 C 0.51145 0.80859 0.92124
 N1385 N 0.50053 0.81207 0.93338
 N1386 N 0.50299 0.82471 0.94347
 C1387 C 0.02691 0.38861 0.48424
 N1388 N 0.01643 0.39154 0.49688
 N1389 N 0.01894 0.40414 0.50702
 C1390 C 0.03202 0.41430 0.50488
 N1391 N 0.04249 0.41137 0.49222
 N1392 N 0.03999 0.39875 0.48210
 C1393 C 0.02416 0.37469 0.47309
 N1394 N 0.03487 0.37152 0.46069
 N1395 N 0.03239 0.35888 0.45059
 C1396 C 0.01910 0.34896 0.45250
 N1397 N 0.00838 0.35214 0.46489
 N1398 N 0.01087 0.36477 0.47500
 C1399 C 0.01638 0.33502 0.44137
 N1400 N 0.00290 0.32532 0.44305
 N1401 N 0.00045 0.31267 0.43295
 C1402 C 0.01137 0.30920 0.42080
 N1403 N 0.02485 0.31894 0.41917
 N1404 N 0.02730 0.33160 0.42925
 C1405 C 0.38787 0.51542 0.47303
 N1406 N 0.39086 0.50282 0.48355
 N1407 N 0.40351 0.49272 0.48108
 C1408 C 0.41367 0.49485 0.46801
 N1409 N 0.41068 0.50747 0.45749
 N1410 N 0.39801 0.51756 0.45995
 C1411 C 0.37392 0.52655 0.47573
 N1412 N 0.37071 0.53891 0.46499
 N1413 N 0.35804 0.54900 0.46743
 C1414 C 0.34812 0.54711 0.48072
 N1415 N 0.35133 0.53475 0.49147
 N1416 N 0.36400 0.52466 0.48902
 C1417 C 0.33416 0.55823 0.48340
 N1418 N 0.32446 0.55660 0.49687
 N1419 N 0.31180 0.56670 0.49930
 C1420 C 0.30831 0.57882 0.48835
 N1421 N 0.31804 0.58042 0.47487
 N1422 N 0.33072 0.57033 0.47244
 C1423 C 0.88873 0.01484 -0.02719
 N1424 N 0.89150 0.00203 -0.01686
 N1425 N 0.90413 -0.00809 -0.01934
 C1426 C 0.91450 -0.00579 -0.03223
 N1427 N 0.91170 0.00705 -0.04255
 N1428 N 0.89906 0.01716 -0.04008
 C1429 C 0.87479 0.02599 -0.02447
 N1430 N 0.87175 0.03851 -0.03508
 N1431 N 0.85910 0.04863 -0.03263
 C1432 C 0.84904 0.04660 -0.01948
 N1433 N 0.85208 0.03409 -0.00887
 N1434 N 0.86472 0.02396 -0.01132
 C1435 C 0.83510 0.05776 -0.01679
 N1436 N 0.82530 0.05603 -0.00340
 N1437 N 0.81266 0.06616 -0.00097
 C1438 C 0.80930 0.07840 -0.01183
 N1439 N 0.81913 0.08008 -0.02522
 N1440 N 0.83179 0.06997 -0.02765
 C1441 C 0.61204 0.01533 0.02731
 N1442 N 0.60193 0.01747 0.04040
 N1443 N 0.58925 0.00740 0.04289
 C1444 C 0.58622 -0.00521 0.03238
 N1445 N 0.59635 -0.00735 0.01929
 N1446 N 0.60902 0.00274 0.01679
 C1447 C 0.62601 0.02643 0.02457
 N1448 N 0.63591 0.02451 0.01127
 N1449 N 0.64859 0.03458 0.00879
 C1450 C 0.65184 0.04693 0.01951
 N1451 N 0.64195 0.04885 0.03281
 N1452 N 0.62926 0.03879 0.03529
 C1453 C 0.66582 0.05803 0.01678
 N1454 N 0.66930 0.07013 0.02770
 N1455 N 0.68199 0.08019 0.02523
 C1456 C 0.69170 0.07855 0.01174
 N1457 N 0.68817 0.06642 0.00083
 N1458 N 0.67549 0.05635 0.00330
 C1459 C 0.11120 0.51539 0.52729
 N1460 N 0.10835 0.50266 0.51690
 N1461 N 0.09571 0.49254 0.51939
 C1462 C 0.08541 0.49477 0.53235
 N1463 N 0.08829 0.50754 0.54273
 N1464 N 0.10094 0.51764 0.54025
 C1465 C 0.12514 0.52653 0.52455
 N1466 N 0.12824 0.53900 0.53519
 N1467 N 0.14090 0.54910 0.53272
 C1468 C 0.15091 0.54711 0.51952
 N1469 N 0.14780 0.53465 0.50888
 N1470 N 0.13515 0.52454 0.51136
 C1471 C 0.16486 0.55825 0.51680
 N1472 N 0.17462 0.55653 0.50339
 N1473 N 0.18728 0.56663 0.50093
 C1474 C 0.19069 0.57884 0.51179
 N1475 N 0.18090 0.58052 0.52522
 N1476 N 0.16823 0.57043 0.52767
 C1477 C 0.11121 0.48516 -0.02722
 N1478 N 0.10087 0.48285 -0.04010
 N1479 N 0.08820 0.49294 -0.04254
 C1480 C 0.08539 0.50576 -0.03220
 N1481 N 0.09577 0.50805 -0.01931
 N1482 N 0.10842 0.49794 -0.01687
 C1483 C 0.12516 0.47402 -0.02454
 N1484 N 0.13525 0.47604 -0.01140
 N1485 N 0.14790 0.46592 -0.00898
 C1486 C 0.15094 0.45343 -0.01961
 N1487 N 0.14086 0.45142 -0.03275
 N1488 N 0.12820 0.46153 -0.03516
 C1489 C 0.16489 0.44227 -0.01696
 N1490 N 0.16819 0.43008 -0.02784
 N1491 N 0.18085 0.41997 -0.02545
 C1492 C 0.19070 0.42163 -0.01207
 N1493 N 0.18735 0.43385 -0.00119
 N1494 N 0.17471 0.44398 -0.00359
 C1495 C 0.61149 0.98477 0.47278
 N1496 N 0.60117 0.98247 0.45988
 N1497 N 0.58850 0.99256 0.45745
 C1498 C 0.58566 1.00535 0.46781
 N1499 N 0.59603 1.00762 0.48071
 N1500 N 0.60869 0.99752 0.48315
 C1501 C 0.62546 0.97364 0.47546
 N1502 N 0.63552 0.97565 0.48861
 N1503 N 0.64819 0.96555 0.49104
 C1504 C 0.65126 0.95308 0.48039
 N1505 N 0.64120 0.95107 0.46724
 N1506 N 0.62853 0.96116 0.46482
 C1507 C 0.66523 0.94195 0.48305
 N1508 N 0.66857 0.92977 0.47217
 N1509 N 0.68124 0.91968 0.47457
 C1510 C 0.69107 0.92135 0.48797
 N1511 N 0.68768 0.93355 0.49885
 N1512 N 0.67502 0.94366 0.49644
 C1513 C 0.88814 0.98463 0.52728
 N1514 N 0.89113 0.99725 0.51678
 N1515 N 0.90377 1.00736 0.51928
 C1516 C 0.91390 1.00522 0.53238
 N1517 N 0.91090 0.99259 0.54287
 N1518 N 0.89825 0.98249 0.54037
 C1519 C 0.87420 0.97350 0.52452
 N1520 N 0.87097 0.96111 0.53523
 N1521 N 0.85831 0.95102 0.53273
 C1522 C 0.84842 0.95294 0.51943
 N1523 N 0.85166 0.96532 0.50871
 N1524 N 0.86431 0.97542 0.51122
 C1525 C 0.83447 0.94182 0.51667
 N1526 N 0.82482 0.94350 0.50318
 N1527 N 0.81216 0.93341 0.50069
 C1528 C 0.80864 0.92125 0.51159
 N1529 N 0.81834 0.91961 0.52509
 N1530 N 0.83100 0.92969 0.52758
 C1531 C 0.38784 0.48479 0.02691
 N1532 N 0.39084 0.49741 0.01641
 N1533 N 0.40349 0.50750 0.01891
 C1534 C 0.41362 0.50535 0.03200
 N1535 N 0.41062 0.49271 0.04249
 N1536 N 0.39796 0.48262 0.03999
 C1537 C 0.37388 0.47366 0.02416
 N1538 N 0.37066 0.46128 0.03487
 N1539 N 0.35799 0.45119 0.03238
 C1540 C 0.34810 0.45312 0.01909
 N1541 N 0.35133 0.46550 0.00838
 N1542 N 0.36398 0.47560 0.01087
 C1543 C 0.33413 0.44201 0.01636
 N1544 N 0.32446 0.44369 0.00288
 N1545 N 0.31180 0.43361 0.00040
 C1546 C 0.30829 0.42145 0.01131
 N1547 N 0.31801 0.41980 0.02479
 N1548 N 0.33068 0.42987 0.02727
 C1549 C 0.51544 0.47279 0.38833
 N1550 N 0.51758 0.45970 0.39845
 N1551 N 0.50749 0.45721 0.41110
 C1552 C 0.49486 0.46772 0.41409
 N1553 N 0.49272 0.48081 0.40396
 N1554 N 0.50283 0.48331 0.39132
 C1555 C 0.52657 0.47553 0.37438
 N1556 N 0.52466 0.48883 0.36449
 N1557 N 0.53475 0.49131 0.35183
 C1558 C 0.54711 0.48057 0.34860
 N1559 N 0.54901 0.46726 0.35850
 N1560 N 0.53893 0.46479 0.37116
 C1561 C 0.55823 0.48329 0.33464
 N1562 N 0.57033 0.47234 0.33118
 N1563 N 0.58040 0.47479 0.31851
 C1564 C 0.57879 0.48829 0.30880
 N1565 N 0.56667 0.49923 0.31231
 N1566 N 0.55658 0.49678 0.32498
 C1567 C 0.01573 -0.02720 0.88838
 N1568 N 0.01785 -0.04031 0.89848
 N1569 N 0.00773 -0.04282 0.91110
 C1570 C -0.00491 -0.03232 0.91408
 N1571 N -0.00703 -0.01921 0.90396
 N1572 N 0.00311 -0.01669 0.89135
 C1573 C 0.02689 -0.02443 0.87446
 N1574 N 0.02500 -0.01112 0.86458
 N1575 N 0.03512 -0.00861 0.85195
 C1576 C 0.04749 -0.01934 0.84874
 N1577 N 0.04938 -0.03266 0.85861
 N1578 N 0.03927 -0.03516 0.87125
 C1579 C 0.05864 -0.01660 0.83480
 N1580 N 0.07075 -0.02754 0.83135
 N1581 N 0.08085 -0.02507 0.81870
 C1582 C 0.07924 -0.01156 0.80900
 N1583 N 0.06710 -0.00063 0.81250
 N1584 N 0.05700 -0.00310 0.82515
 C1585 C 0.01558 0.02748 0.61214
 N1586 N 0.00297 0.01696 0.60917
 N1587 N -0.00714 0.01942 0.59653
 C1588 C -0.00501 0.03250 0.58637
 N1589 N 0.00761 0.04303 0.58935
 N1590 N 0.01771 0.04057 0.60200
 C1591 C 0.02671 0.02477 0.62608
 N1592 N 0.03909 0.03551 0.62926
 N1593 N 0.04919 0.03306 0.64191
 C1594 C 0.04730 0.01977 0.65183
 N1595 N 0.03493 0.00903 0.64864
 N1596 N 0.02482 0.01149 0.63600
 C1597 C 0.05844 0.01707 0.66577
 N1598 N 0.05679 0.00359 0.67546
 N1599 N 0.06691 0.00115 0.68810
 C1600 C 0.07906 0.01208 0.69155
 N1601 N 0.08067 0.02556 0.68182
 N1602 N 0.07056 0.02801 0.66917
 C1603 C 0.51533 0.52738 0.11175
 N1604 N 0.50272 0.51687 0.10877
 N1605 N 0.49262 0.51936 0.09612
 C1606 C 0.49478 0.53245 0.08597
 N1607 N 0.50741 0.54295 0.08896
 N1608 N 0.51749 0.54047 0.10162
 C1609 C 0.52645 0.52465 0.12570
 N1610 N 0.53882 0.53538 0.12891
 N1611 N 0.54890 0.53292 0.14158
 C1612 C 0.54699 0.51962 0.15148
 N1613 N 0.53462 0.50888 0.14826
 N1614 N 0.52453 0.51136 0.13561
 C1615 C 0.55811 0.51690 0.16544
 N1616 N 0.55645 0.50342 0.17511
 N1617 N 0.56654 0.50096 0.18777
 C1618 C 0.57868 0.51189 0.19126
 N1619 N 0.58030 0.52539 0.18154
 N1620 N 0.57022 0.52784 0.16888
 C1621 C 0.48454 -0.02740 0.11221
 N1622 N 0.48238 -0.04046 0.10206
 N1623 N 0.49246 -0.04291 0.08940
 C1624 C 0.50509 -0.03240 0.08642
 N1625 N 0.50725 -0.01934 0.09659
 N1626 N 0.49715 -0.01688 0.10924
 C1627 C 0.47341 -0.02470 0.12617
 N1628 N 0.47532 -0.01144 0.13610
 N1629 N 0.46522 -0.00899 0.14875
 C1630 C 0.45285 -0.01974 0.15194
 N1631 N 0.45094 -0.03300 0.14202
 N1632 N 0.46103 -0.03544 0.12935
 C1633 C 0.44171 -0.01705 0.16589
 N1634 N 0.42959 -0.02799 0.16930
 N1635 N 0.41949 -0.02556 0.18195
 C1636 C 0.42110 -0.01209 0.19169
 N1637 N 0.43325 -0.00116 0.18823
 N1638 N 0.44337 -0.00359 0.17559
 C1639 C 0.98456 0.47274 0.61213
 N1640 N 0.99716 0.48328 0.60918
 N1641 N 1.00725 0.48086 0.59652
 C1642 C 1.00510 0.46783 0.58632
 N1643 N 0.99248 0.45730 0.58928
 N1644 N 0.98241 0.45970 0.60195
 C1645 C 0.97343 0.47539 0.62610
 N1646 N 0.96107 0.46464 0.62926
 N1647 N 0.95097 0.46703 0.64193
 C1648 C 0.95286 0.48029 0.65188
 N1649 N 0.96522 0.49105 0.64871
 N1650 N 0.97533 0.48864 0.63606
 C1651 C 0.94172 0.48293 0.66583
 N1652 N 0.94335 0.49638 0.67555
 N1653 N 0.93322 0.49878 0.68819
 C1654 C 0.92108 0.48783 0.69162
 N1655 N 0.91949 0.47437 0.68186
 N1656 N 0.92960 0.47197 0.66922
 C1657 C 0.98410 0.52702 0.88851
 N1658 N 0.98194 0.54011 0.89861
 N1659 N 0.99205 0.54264 0.91123
 C1660 C 1.00472 0.53216 0.91421
 N1661 N 1.00687 0.51907 0.90409
 N1662 N 0.99674 0.51654 0.89148
 C1663 C 0.97295 0.52424 0.87459
 N1664 N 0.97488 0.51094 0.86471
 N1665 N 0.96477 0.50842 0.85208
 C1666 C 0.95238 0.51913 0.84886
 N1667 N 0.95045 0.53243 0.85873
 N1668 N 0.96055 0.53494 0.87138
 C1669 C 0.94126 0.51637 0.83492
 N1670 N 0.92913 0.52729 0.83145
 N1671 N 0.91905 0.52481 0.81879
 C1672 C 0.92070 0.51131 0.80910
 N1673 N 0.93285 0.50040 0.81262
 N1674 N 0.94294 0.50288 0.82527
 C1675 C 0.48440 0.02689 0.38851
 N1676 N 0.49704 0.01638 0.39146
 N1677 N 0.50717 0.01888 0.40407
 C1678 C 0.50504 0.03196 0.41421
 N1679 N 0.49239 0.04245 0.41126
 N1680 N 0.48227 0.03997 0.39864
 C1681 C 0.47324 0.02415 0.37459
 N1682 N 0.46086 0.03487 0.37140
 N1683 N 0.45075 0.03240 0.35877
 C1684 C 0.45264 0.01911 0.34887
 N1685 N 0.46502 0.00838 0.35207
 N1686 N 0.47514 0.01086 0.36469
 C1687 C 0.44149 0.01639 0.33494
 N1688 N 0.44314 0.00290 0.32527
 N1689 N 0.43303 0.00045 0.31264
 C1690 C 0.42089 0.01139 0.30915
 N1691 N 0.41928 0.02488 0.31886
 N1692 N 0.42938 0.02733 0.33151
   
