data_POSCAR
  _audit_creation_date              2014-09-24
  _audit_creation_method            'ToBaCCo'
  _symmetry_space_group_name_H-M    'P1'
  _symmetry_Int_Tables_number       1
  _symmetry_cell_setting            triclinic
  loop_
  _symmetry_equiv_pos_as_xyz
 x,y,z
_cell_length_a 53.7682
_cell_length_b 38.2225
_cell_length_c 37.2729
_cell_angle_alpha 88.976600
_cell_angle_beta 89.645300
_cell_angle_gamma 90.133000
loop_
  _atom_site_label
  _atom_site_type_symbol
  _atom_site_fract_x
  _atom_site_fract_y
  _atom_site_fract_z
C1 C 1.20972 0.25417 0.29994
 H2 H 1.20873 0.22612 0.29679
 C3 C 1.19165 0.27126 0.32010
 H4 H 1.17696 0.25606 0.33288
 C5 C 1.22977 0.30809 0.28613
 H6 H 1.24441 0.32233 0.27218
 C7 C 1.21209 0.32627 0.30615
 H8 H 1.21318 0.35452 0.30727
 N9 N 1.22805 0.27276 0.28304
 C10 C 1.20969 0.24030 0.20370
 H11 H 1.20715 0.26796 0.20804
 C12 C 1.19260 0.22212 0.18292
 H13 H 1.17729 0.23615 0.17067
 C14 C 1.23190 0.18802 0.21595
 H15 H 1.24665 0.17443 0.22978
 C16 C 1.21537 0.16890 0.19520
 H17 H 1.21775 0.14087 0.19325
 Zn18 Zn 1.24930 0.24845 0.25166
 N19 N 1.22886 0.22312 0.21979
 C20 C 1.28779 0.20070 0.25793
 N21 N 1.27004 0.21696 0.27746
 C22 C 1.26857 0.21230 0.31361
 C23 C 1.28580 0.19104 0.33160
 C24 C 1.30543 0.17953 0.27462
 C25 C 1.26306 0.29800 0.19601
 C26 C 1.27959 0.32058 0.17780
 C27 C 1.31060 0.30707 0.22245
 C28 C 1.29345 0.28537 0.24003
 N29 N 1.27032 0.28066 0.22639
 H30 H 1.28846 0.20471 0.22913
 H31 H 1.25451 0.22593 0.32875
 H32 H 1.28453 0.18994 0.36054
 H33 H 1.31837 0.16632 0.25723
 H34 H 1.24455 0.29427 0.18571
 H35 H 1.27334 0.33437 0.15392
 H36 H 1.32915 0.30904 0.23334
 H37 H 1.29878 0.27197 0.26455
 C38 C 1.19523 0.18587 0.17876
 C39 C 1.19240 0.30787 0.32279
 C40 C 1.30387 0.32516 0.19083
 C41 C 1.30536 0.17475 0.31242
 C42 C 0.71171 -0.23771 0.30404
 H43 H 0.71113 -0.26601 0.30402
 C44 C 0.69504 -0.21941 0.32536
 H45 H 0.68201 -0.23382 0.34229
 C46 C 0.72874 -0.18466 0.28078
 H47 H 0.74148 -0.17127 0.26265
 C48 C 0.71239 -0.16526 0.30182
 H49 H 0.71266 -0.13697 0.29970
 N50 N 0.72783 -0.22024 0.28184
 C51 C 0.73376 -0.29463 0.19452
 H52 H 0.75349 -0.29883 0.19174
 C53 C 0.71735 -0.31299 0.17276
 H54 H 0.72478 -0.33108 0.15344
 C55 C 0.70019 -0.26486 0.22155
 H56 H 0.69336 -0.24552 0.23983
 C57 C 0.68317 -0.28297 0.20087
 H58 H 0.66354 -0.27810 0.20483
 Zn59 Zn 0.74700 -0.24694 0.24943
 N60 N 0.72498 -0.27140 0.21876
 C61 C 0.78543 -0.29591 0.25608
 N62 N 0.76782 -0.27857 0.27511
 C63 C 0.76684 -0.28127 0.31157
 C64 C 0.78377 -0.30235 0.33015
 C65 C 0.80277 -0.31715 0.27357
 C66 C 0.76577 -0.21365 0.18589
 C67 C 0.78385 -0.19545 0.16587
 C68 C 0.80603 -0.18473 0.22084
 C69 C 0.78754 -0.20293 0.23976
 N70 N 0.76822 -0.21753 0.22205
 H71 H 0.78673 -0.29216 0.22736
 H72 H 0.75355 -0.26626 0.32658
 H73 H 0.78307 -0.30346 0.35919
 H74 H 0.81673 -0.33054 0.25792
 H75 H 0.75024 -0.22558 0.17242
 H76 H 0.78221 -0.19367 0.13696
 H77 H 0.82159 -0.17392 0.23530
 H78 H 0.78900 -0.20656 0.26852
 C79 C 0.69161 -0.30752 0.17604
 C80 C 0.69489 -0.18273 0.32383
 C81 C 0.80460 -0.18151 0.18334
 C82 C 0.80217 -0.32034 0.31112
 C83 C 0.71808 0.26219 -0.18593
 H84 H 0.72218 0.23531 -0.17864
 C85 C 0.70137 0.28132 -0.16530
 H86 H 0.69273 0.26919 -0.14187
 C87 C 0.72344 0.31031 -0.22634
 H88 H 0.73132 0.32101 -0.25092
 C89 C 0.70720 0.33058 -0.20609
 H90 H 0.70287 0.35698 -0.21499
 N91 N 0.72859 0.27680 -0.21593
 C92 C 0.73552 0.19484 -0.29576
 H93 H 0.75530 0.19036 -0.29827
 C94 C 0.71893 0.17573 -0.31670
 H95 H 0.72623 0.15712 -0.33558
 C96 C 0.70206 0.22498 -0.26884
 H97 H 0.69531 0.24430 -0.25046
 C98 C 0.68491 0.20617 -0.28868
 H99 H 0.66529 0.21090 -0.28437
 Zn100 Zn 0.74854 0.24781 -0.24496
 N101 N 0.72689 0.21933 -0.27270
 C102 C 0.77089 0.18512 -0.21619
 N103 N 0.76909 0.22056 -0.21419
 C104 C 0.78286 0.23870 -0.19034
 C105 C 0.80017 0.22160 -0.16867
 C106 C 0.78812 0.16688 -0.19498
 C107 C 0.77443 0.26816 -0.30950
 C108 C 0.79164 0.28766 -0.32986
 C109 C 0.79754 0.32511 -0.27920
 C110 C 0.78089 0.30415 -0.25959
 N111 N 0.76966 0.27626 -0.27479
 H112 H 0.75949 0.17101 -0.23480
 H113 H 0.78062 0.26666 -0.18839
 H114 H 0.81118 0.23673 -0.15026
 H115 H 0.79009 0.13890 -0.19796
 H116 H 0.76513 0.24638 -0.32158
 H117 H 0.79425 0.28048 -0.35756
 H118 H 0.80655 0.34596 -0.26498
 H119 H 0.77702 0.31022 -0.23193
 C120 C 0.69318 0.18153 -0.31354
 C121 C 0.69572 0.31587 -0.17549
 C122 C 0.80382 0.31689 -0.31501
 C123 C 0.80346 0.18535 -0.17147
 C124 C 1.21223 -0.24250 -0.19598
 H125 H 1.21121 -0.27073 -0.19375
 C126 C 1.19617 -0.22204 -0.17568
 H127 H 1.18290 -0.23466 -0.15769
 C128 C 1.23027 -0.19179 -0.22287
 H129 H 1.24336 -0.18004 -0.24159
 C130 C 1.21472 -0.17029 -0.20276
 H131 H 1.21580 -0.14216 -0.20651
 N132 N 1.22820 -0.22725 -0.22006
 C133 C 1.23271 -0.29656 -0.31237
 H134 H 1.25240 -0.29618 -0.31833
 C135 C 1.21647 -0.31447 -0.33489
 H136 H 1.22389 -0.32796 -0.35788
 C137 C 1.19897 -0.27797 -0.27648
 H138 H 1.19190 -0.26351 -0.25414
 C139 C 1.18217 -0.29555 -0.29805
 H140 H 1.16260 -0.29491 -0.29111
 Zn141 Zn 1.24630 -0.25665 -0.25165
 N142 N 1.22383 -0.27934 -0.28330
 C143 C 1.27636 -0.31643 -0.24211
 N144 N 1.26455 -0.29039 -0.22438
 C145 C 1.26834 -0.28560 -0.18870
 C146 C 1.28527 -0.30656 -0.16987
 C147 C 1.29356 -0.33773 -0.22442
 C148 C 1.26166 -0.20608 -0.30450
 C149 C 1.27891 -0.18455 -0.32266
 C150 C 1.31172 -0.21241 -0.28877
 C151 C 1.29395 -0.23299 -0.27111
 N152 N 1.26941 -0.22934 -0.27887
 H153 H 1.27352 -0.31953 -0.27047
 H154 H 1.25936 -0.26423 -0.17522
 H155 H 1.28897 -0.30132 -0.14195
 H156 H 1.30345 -0.35747 -0.23931
 H157 H 1.24203 -0.20367 -0.31022
 H158 H 1.27235 -0.16540 -0.34211
 H159 H 1.33113 -0.21608 -0.28214
 H160 H 1.29986 -0.25141 -0.25062
 C161 C 1.19079 -0.31432 -0.32765
 C162 C 1.19688 -0.18548 -0.17967
 C163 C 1.30434 -0.18725 -0.31443
 C164 C 1.29867 -0.33230 -0.18808
 C165 C 0.26482 0.20384 0.70111
 H166 H 0.24498 0.20004 0.69837
 C167 C 0.28144 0.18328 0.68157
 H168 H 0.27415 0.16332 0.66426
 C169 C 0.29832 0.23379 0.72790
 H170 H 0.30501 0.25310 0.74627
 C171 C 0.31547 0.21447 0.70845
 H172 H 0.33505 0.22023 0.71152
 N173 N 0.27351 0.22840 0.72388
 C174 C 0.21638 0.24632 0.80471
 H175 H 0.21629 0.27463 0.80354
 C176 C 0.19926 0.22860 0.82646
 H177 H 0.18706 0.24408 0.84296
 C178 C 0.23333 0.19292 0.78492
 H179 H 0.24639 0.17919 0.76815
 C180 C 0.21645 0.17393 0.80647
 H181 H 0.21671 0.14571 0.80498
 Zn182 Zn 0.25116 0.25630 0.75047
 N183 N 0.23243 0.22845 0.78363
 C184 C 0.20379 0.26916 0.72160
 N185 N 0.22813 0.27866 0.71850
 C186 C 0.23535 0.30343 0.69381
 C187 C 0.21760 0.32220 0.67405
 C188 C 0.18554 0.28694 0.70231
 C189 C 0.27166 0.28575 0.81322
 C190 C 0.28792 0.30663 0.83266
 C191 C 0.29991 0.33599 0.77736
 C192 C 0.28334 0.31477 0.75903
 N193 N 0.26985 0.28975 0.77691
 H194 H 0.19824 0.24789 0.73928
 H195 H 0.25477 0.30916 0.68959
 H196 H 0.22363 0.34302 0.65593
 H197 H 0.16627 0.27924 0.70587
 H198 H 0.26162 0.26507 0.82710
 H199 H 0.28997 0.30191 0.86123
 H200 H 0.31115 0.35483 0.76241
 H201 H 0.28267 0.31686 0.73025
 C202 C 0.19824 0.19170 0.82670
 C203 C 0.30723 0.18844 0.68514
 C204 C 0.30278 0.33143 0.81450
 C205 C 0.19223 0.31475 0.67917
 C206 C 0.76607 0.70042 0.70356
 H207 H 0.74642 0.69426 0.70373
 C208 C 0.78256 0.68061 0.68301
 H209 H 0.77543 0.65882 0.66800
 C210 C 0.79917 0.73599 0.72342
 H211 H 0.80561 0.75793 0.73871
 C212 C 0.81617 0.71732 0.70294
 H213 H 0.83546 0.72546 0.70271
 N214 N 0.77469 0.72700 0.72391
 C215 C 0.71887 0.74207 0.80770
 H216 H 0.71934 0.77037 0.80777
 C217 C 0.70140 0.72408 0.82874
 H218 H 0.68936 0.73922 0.84583
 C219 C 0.73471 0.68896 0.78549
 H220 H 0.74752 0.67540 0.76821
 C221 C 0.71770 0.66971 0.80661
 H222 H 0.71757 0.64156 0.80420
 Zn223 Zn 0.75265 0.75340 0.75273
 N224 N 0.73423 0.72453 0.78533
 C225 C 0.70527 0.76880 0.72516
 N226 N 0.72973 0.77761 0.72231
 C227 C 0.73739 0.80319 0.69882
 C228 C 0.71991 0.82333 0.67989
 C229 C 0.68730 0.78789 0.70663
 C230 C 0.78563 0.76983 0.80718
 C231 C 0.80192 0.79015 0.82715
 C232 C 0.78863 0.84111 0.79320
 C233 C 0.77215 0.81994 0.77444
 N234 N 0.77155 0.78477 0.78085
 H235 H 0.69946 0.74712 0.74217
 H236 H 0.75702 0.80884 0.69574
 H237 H 0.72624 0.84483 0.66285
 H238 H 0.66793 0.78064 0.70990
 H239 H 0.78472 0.74184 0.81188
 H240 H 0.81362 0.77775 0.84719
 H241 H 0.78971 0.86885 0.78690
 H242 H 0.76045 0.83165 0.75419
 C243 C 0.69976 0.68727 0.82746
 C244 C 0.80810 0.68875 0.68281
 C245 C 0.80396 0.82606 0.81953
 C246 C 0.69439 0.81640 0.68462
 C247 C 0.76524 0.19601 0.19536
 H248 H 0.74567 0.18956 0.19430
 C249 C 0.78257 0.17585 0.17658
 H250 H 0.77621 0.15362 0.16153
 C251 C 0.79742 0.23220 0.21702
 H252 H 0.80324 0.25447 0.23231
 C253 C 0.81523 0.21307 0.19859
 H254 H 0.83456 0.22090 0.20010
 N255 N 0.77305 0.22274 0.21622
 C256 C 0.71586 0.23375 0.29880
 H257 H 0.71598 0.26203 0.29965
 C258 C 0.69865 0.21477 0.31935
 H259 H 0.68562 0.22861 0.33620
 C260 C 0.73226 0.18155 0.27483
 H261 H 0.74532 0.16874 0.25735
 C262 C 0.71536 0.16142 0.29524
 H263 H 0.71525 0.13323 0.29282
 Zn264 Zn 0.75049 0.24762 0.24580
 N265 N 0.73152 0.21713 0.27602
 C266 C 0.70390 0.26488 0.21695
 N267 N 0.72832 0.27423 0.21651
 C268 C 0.73642 0.30211 0.19635
 C269 C 0.71934 0.32351 0.17809
 C270 C 0.68633 0.28529 0.19907
 C271 C 0.78412 0.25884 0.30006
 C272 C 0.80024 0.27699 0.32221
 C273 C 0.78374 0.33129 0.29839
 C274 C 0.76787 0.31201 0.27658
 N275 N 0.76894 0.27643 0.27700
 H276 H 0.69784 0.24173 0.23154
 H277 H 0.75602 0.30850 0.19553
 H278 H 0.72593 0.34657 0.16364
 H279 H 0.66695 0.27754 0.20036
 H280 H 0.78425 0.23054 0.30034
 H281 H 0.81257 0.26243 0.33978
 H282 H 0.78344 0.35959 0.29665
 H283 H 0.75517 0.32558 0.25890
 C284 C 0.69776 0.17823 0.31688
 C285 C 0.80804 0.18378 0.17894
 C286 C 0.80065 0.31371 0.32091
 C287 C 0.69381 0.31568 0.18024
 C288 C 0.26511 0.69934 0.20301
 H289 H 0.24560 0.69236 0.20378
 C290 C 0.28160 0.68064 0.18135
 H291 H 0.27467 0.65877 0.16629
 C292 C 0.29779 0.73607 0.22200
 H293 H 0.30406 0.75817 0.23718
 C294 C 0.31472 0.71866 0.20034
 H295 H 0.33379 0.72779 0.19930
 N296 N 0.27364 0.72558 0.22391
 C297 C 0.21916 0.73479 0.31098
 H298 H 0.21999 0.76292 0.31354
 C299 C 0.20166 0.71551 0.33078
 H300 H 0.18920 0.72892 0.34883
 C301 C 0.23369 0.68342 0.28312
 H302 H 0.24611 0.67098 0.26446
 C303 C 0.21653 0.66301 0.30268
 H304 H 0.21557 0.63511 0.29834
 Zn305 Zn 0.25220 0.74981 0.25569
 N306 N 0.23383 0.71886 0.28635
 C307 C 0.20484 0.77086 0.23111
 N308 N 0.22968 0.77696 0.22763
 C309 C 0.23853 0.80093 0.20329
 C310 C 0.22211 0.82007 0.18152
 C311 C 0.18785 0.78964 0.21038
 C312 C 0.28817 0.76052 0.30692
 C313 C 0.30506 0.77856 0.32797
 C314 C 0.28678 0.83281 0.30721
 C315 C 0.27045 0.81352 0.28607
 N316 N 0.27184 0.77808 0.28574
 H317 H 0.19799 0.75110 0.24966
 H318 H 0.25839 0.80491 0.20052
 H319 H 0.22957 0.83855 0.16189
 H320 H 0.16820 0.78474 0.21453
 H321 H 0.28842 0.73221 0.30682
 H322 H 0.31710 0.76294 0.34491
 H323 H 0.28573 0.86097 0.30476
 H324 H 0.25709 0.82699 0.26928
 C325 C 0.19958 0.67935 0.32572
 C326 C 0.30695 0.68979 0.18043
 C327 C 0.30526 0.81563 0.32808
 C328 C 0.19632 0.81445 0.18485
 O329 O 1.03713 0.05522 0.06770
 O330 O 1.06476 0.02698 0.03114
 C331 C 1.05959 0.04797 0.05717
 O332 O 0.96875 -0.07188 0.05682
 O333 O 0.94053 -0.03606 0.02860
 C334 C 0.94614 -0.06247 0.04937
 O335 O 1.03813 -0.06751 0.05895
 O336 O 1.06510 -0.03169 0.02742
 C337 C 1.06039 -0.05690 0.05026
 O338 O 0.96780 0.05679 0.06689
 O339 O 0.94004 0.02600 0.03313
 C340 C 0.94533 0.04845 0.05769
 Zr341 Zr 1.00239 0.03804 0.04831
 O342 O 1.00249 0.02602 0.10387
 O343 O 1.00229 0.09229 0.05849
 Zr344 Zr 1.00310 -0.04909 0.04125
 O345 O 1.00255 -0.04981 0.09796
 O346 O 1.00535 -0.10426 0.03905
 O347 O 1.02523 -0.00562 0.05112
 O348 O 0.98075 -0.00655 0.05180
 O349 O 0.96657 0.06767 -0.05610
 O350 O 0.93939 0.03068 -0.02664
 C351 C 0.94426 0.05744 -0.04745
 O352 O 1.03711 -0.05526 -0.07117
 O353 O 1.06471 -0.02651 -0.03533
 C354 C 1.05957 -0.04729 -0.06145
 O355 O 0.96768 -0.05940 -0.06756
 O356 O 0.94010 -0.03073 -0.03118
 C357 C 0.94529 -0.05210 -0.05680
 O358 O 1.03585 0.06635 -0.06170
 O359 O 1.06408 0.03227 -0.03130
 C360 C 1.05844 0.05719 -0.05387
 Zr361 Zr 1.00157 0.04657 -0.04213
 O362 O 0.99999 0.04793 -0.09878
 O363 O 1.00314 0.10183 -0.03968
 Zr364 Zr 1.00234 -0.04099 -0.04892
 O365 O 1.00029 -0.03691 -0.10552
 O366 O 1.00361 -0.09623 -0.04974
 Zr367 Zr 1.03962 -0.00035 -0.00143
 Zr368 Zr 0.96498 -0.00202 0.00046
 O369 O 0.98009 0.00299 -0.05156
 O370 O 1.02421 0.00398 -0.05312
 O371 O 0.97985 0.04888 0.00419
 O372 O 1.02450 -0.05097 -0.00489
 O373 O 1.02349 0.04943 0.00297
 O374 O 0.98054 -0.05233 -0.00387
 H375 H 0.96951 -0.00865 0.07292
 H376 H 1.03577 -0.07135 -0.00663
 H377 H 0.96874 0.00480 -0.07235
 H378 H 1.03438 0.07032 0.00402
 H379 H 0.99622 -0.11131 0.01737
 H380 H 1.00373 -0.10265 -0.07539
 H381 H 1.01079 -0.01676 -0.11303
 H382 H 0.99953 0.07301 -0.10596
 H383 H 0.99105 0.10905 -0.02113
 H384 H 1.00661 0.10442 0.03567
 H385 H 1.00166 0.04877 0.11613
 H386 H 1.00247 -0.07482 0.10542
 O387 O 1.03324 0.56055 0.55651
 O388 O 1.06007 0.52628 0.52440
 C389 C 1.05546 0.55072 0.54726
 O390 O 0.96187 0.43479 0.56141
 O391 O 0.93462 0.46973 0.52992
 C392 C 0.93961 0.44502 0.55301
 O393 O 1.03145 0.43825 0.56440
 O394 O 1.05918 0.46720 0.52733
 C395 C 1.05390 0.44600 0.55389
 O396 O 0.96367 0.56408 0.55608
 O397 O 0.93519 0.53057 0.52634
 C398 C 0.94098 0.55528 0.54826
 Zr399 Zr 0.99808 0.54253 0.53962
 O400 O 0.99835 0.53766 0.59617
 O401 O 0.99895 0.59773 0.54238
 Zr402 Zr 0.99678 0.45490 0.54394
 O403 O 0.99592 0.46101 0.60018
 O404 O 0.99822 0.39972 0.54891
 O405 O 1.01991 0.49837 0.54797
 O406 O 0.97556 0.49951 0.54891
 O407 O 0.96269 0.56028 0.43164
 O408 O 0.93505 0.52887 0.46648
 C409 C 0.94024 0.55215 0.44184
 O410 O 1.03015 0.43365 0.43324
 O411 O 1.05863 0.46533 0.46474
 C412 C 1.05284 0.44194 0.44136
 O413 O 0.96073 0.43208 0.43891
 O414 O 0.93404 0.46766 0.46952
 C415 C 0.93854 0.44219 0.44787
 O416 O 1.03207 0.55579 0.42747
 O417 O 1.05951 0.52425 0.46191
 C418 C 1.05447 0.54679 0.43657
 Zr419 Zr 0.99724 0.53998 0.44896
 O420 O 0.99410 0.53745 0.39246
 O421 O 1.00031 0.59517 0.44549
 Zr422 Zr 0.99585 0.45182 0.45373
 O423 O 0.99275 0.44871 0.39729
 O424 O 0.99625 0.39675 0.46001
 Zr425 Zr 1.03427 0.49638 0.49527
 Zr426 Zr 0.95980 0.49859 0.49748
 O427 O 0.97481 0.49630 0.44533
 O428 O 1.01873 0.49507 0.44351
 O429 O 0.97569 0.54904 0.49454
 O430 O 1.01799 0.44633 0.49852
 O431 O 1.01933 0.54721 0.49330
 O432 O 0.97399 0.44727 0.49974
 H433 H 0.96437 0.50029 0.57011
 H434 H 1.02884 0.42541 0.49939
 H435 H 0.96344 0.49585 0.42451
 H436 H 1.03073 0.56759 0.49177
 H437 H 0.98909 0.39033 0.52821
 H438 H 0.99593 0.38722 0.43547
 H439 H 1.00557 0.46436 0.38662
 H440 H 1.00848 0.52403 0.38346
 H441 H 0.98751 0.60495 0.46163
 H442 H 1.00412 0.60671 0.51847
 H443 H 0.99782 0.56185 0.60525
 H444 H 0.99539 0.43703 0.61072
 O445 O 0.53451 0.06580 0.56206
 O446 O 0.56171 0.03099 0.53124
 C447 C 0.55682 0.05558 0.55376
 O448 O 0.46450 -0.05964 0.57063
 O449 O 0.43697 -0.02855 0.53573
 C450 C 0.44211 -0.05134 0.56083
 O451 O 0.53397 -0.05625 0.57283
 O452 O 0.56162 -0.02781 0.53522
 C453 C 0.55643 -0.04853 0.56222
 O454 O 0.46509 0.06834 0.56043
 O455 O 0.43725 0.03355 0.53108
 C456 C 0.44260 0.05883 0.55252
 Zr457 Zr 0.49960 0.04690 0.54467
 O458 O 0.49941 0.04368 0.60133
 O459 O 0.49986 0.10224 0.54530
 Zr460 Zr 0.49921 -0.04056 0.55171
 O461 O 0.49841 -0.03277 0.60769
 O462 O 0.50080 -0.09560 0.55812
 O463 O 0.52184 0.00343 0.55467
 O464 O 0.47741 0.00371 0.55484
 O465 O 0.46500 0.06028 0.43539
 O466 O 0.43710 0.02995 0.47087
 C467 C 0.44251 0.05221 0.44526
 O468 O 0.53348 -0.06440 0.44181
 O469 O 0.56120 -0.03096 0.47281
 C470 C 0.55596 -0.05489 0.44984
 O471 O 0.46361 -0.06696 0.44712
 O472 O 0.43641 -0.03051 0.47590
 C473 C 0.44126 -0.05657 0.45518
 O474 O 0.53416 0.05720 0.43259
 O475 O 0.56182 0.02783 0.46861
 C476 C 0.55661 0.04915 0.44220
 Zr477 Zr 0.49946 0.04162 0.45430
 O478 O 0.49691 0.03811 0.39779
 O479 O 0.50193 0.09683 0.45007
 Zr480 Zr 0.49881 -0.04649 0.46164
 O481 O 0.49612 -0.05191 0.40539
 O482 O 0.49972 -0.10131 0.46991
 Zr483 Zr 0.53655 0.00013 0.50226
 Zr484 Zr 0.46200 0.00082 0.50327
 O485 O 0.47752 -0.00264 0.45152
 O486 O 0.52133 -0.00304 0.45046
 O487 O 0.47741 0.05152 0.49913
 O488 O 0.52073 -0.05014 0.50683
 O489 O 0.52121 0.05062 0.49862
 O490 O 0.47673 -0.05011 0.50750
 H491 H 0.46612 0.00492 0.57590
 H492 H 0.53180 -0.07080 0.50835
 H493 H 0.46640 -0.00392 0.43048
 H494 H 0.53254 0.07105 0.49670
 H495 H 0.49104 -0.10560 0.53834
 H496 H 0.49944 -0.11165 0.44572
 H497 H 0.50843 -0.03576 0.39424
 H498 H 0.51095 0.02359 0.38948
 H499 H 0.48844 0.10658 0.46504
 H500 H 0.50596 0.11052 0.52158
 H501 H 0.49884 0.06813 0.60969
 H502 H 0.49814 -0.05643 0.61901
 O503 O 0.53392 0.56770 0.05920
 O504 O 0.56172 0.53382 0.02842
 C505 C 0.55639 0.55822 0.05089
 O506 O 0.46508 0.44128 0.06638
 O507 O 0.43753 0.47186 0.03097
 C508 C 0.44270 0.44943 0.05638
 O509 O 0.53450 0.44542 0.06913
 O510 O 0.56218 0.47491 0.03243
 C511 C 0.55697 0.45373 0.05906
 O512 O 0.46458 0.56896 0.05626
 O513 O 0.43717 0.53380 0.02655
 C514 C 0.44220 0.55916 0.04809
 Zr515 Zr 0.49940 0.54805 0.04138
 O516 O 0.49878 0.54410 0.09800
 O517 O 0.49938 0.60331 0.04304
 Zr518 Zr 0.49978 0.46062 0.04756
 O519 O 0.49861 0.46769 0.10366
 O520 O 0.50173 0.40551 0.05309
 O521 O 0.52199 0.50499 0.05131
 O522 O 0.47755 0.50444 0.05077
 O523 O 0.46527 0.56194 -0.06833
 O524 O 0.43762 0.53046 -0.03347
 C525 C 0.44282 0.55324 -0.05865
 O526 O 0.53533 0.43805 -0.06131
 O527 O 0.56252 0.47173 -0.02958
 C528 C 0.55765 0.44759 -0.05254
 O529 O 0.46592 0.43508 -0.05904
 O530 O 0.43784 0.46933 -0.02927
 C531 C 0.44337 0.44444 -0.05116
 O532 O 0.53475 0.56117 -0.06947
 O533 O 0.56234 0.53083 -0.03408
 C534 C 0.55717 0.55317 -0.05958
 Zr535 Zr 0.49996 0.54377 -0.04914
 O536 O 0.49807 0.53992 -0.10568
 O537 O 0.50165 0.59903 -0.05340
 Zr538 Zr 0.50035 0.45569 -0.04257
 O539 O 0.49867 0.45089 -0.09899
 O540 O 0.50137 0.40082 -0.03461
 Zr541 Zr 0.53713 0.50256 -0.00091
 Zr542 Zr 0.46253 0.50168 -0.00105
 O543 O 0.47856 0.49913 -0.05259
 O544 O 0.52248 0.49966 -0.05306
 O545 O 0.47751 0.55270 -0.00448
 O546 O 0.52180 0.45196 0.00301
 O547 O 0.52123 0.55274 -0.00431
 O548 O 0.47779 0.45105 0.00284
 H549 H 0.46613 0.50547 0.07170
 H550 H 0.53298 0.43143 0.00467
 H551 H 0.46768 0.49793 -0.07389
 H552 H 0.53217 0.57361 -0.00575
 H553 H 0.49148 0.39567 0.03375
 H554 H 0.50168 0.39063 -0.05887
 H555 H 0.51100 0.46740 -0.10951
 H556 H 0.51304 0.52724 -0.11382
 H557 H 0.48800 0.60842 -0.03849
 H558 H 0.50357 0.61198 0.01862
 H559 H 0.49774 0.56841 0.10665
 H560 H 0.49855 0.44390 0.11469
 C561 C 1.13986 0.12449 0.12473
 C562 C 1.13275 0.15138 0.14835
 C563 C 1.15090 0.17164 0.16519
 C564 C 1.17627 0.16543 0.15930
 C565 C 1.18334 0.13877 0.13598
 C566 C 1.16543 0.11861 0.11879
 C567 C 1.11978 0.10345 0.10733
 C568 C 1.12470 0.07655 0.08285
 C569 C 1.10523 0.05820 0.06697
 C570 C 1.08038 0.06600 0.07522
 C571 C 1.07536 0.09243 0.09991
 C572 C 1.09471 0.11123 0.11573
 C573 C 1.10758 0.15771 0.15539
 C574 C 1.08898 0.13800 0.13953
 H575 H 1.10215 0.17822 0.17355
 H576 H 1.06977 0.14396 0.14589
 H577 H 1.14525 0.19175 0.18369
 H578 H 1.20284 0.13360 0.13091
 H579 H 1.10970 0.03802 0.04797
 H580 H 1.05627 0.09898 0.10646
 H581 H 1.17200 0.09850 0.10119
 H582 H 1.14339 0.06948 0.07533
 C583 C 1.13684 0.62683 0.61242
 C584 C 1.13121 0.66071 0.62487
 C585 C 1.14926 0.68018 0.64280
 C586 C 1.17289 0.66622 0.64978
 C587 C 1.17865 0.63289 0.63689
 C588 C 1.16093 0.61346 0.61835
 C589 C 1.11661 0.60650 0.59443
 C590 C 1.12020 0.57285 0.58027
 C591 C 1.10046 0.55477 0.56466
 C592 C 1.07665 0.56962 0.56313
 C593 C 1.07304 0.60327 0.57661
 C594 C 1.09273 0.62181 0.59184
 C595 C 1.10739 0.67472 0.62030
 C596 C 1.08851 0.65558 0.60443
 H597 H 1.10312 0.70067 0.62981
 H598 H 1.07027 0.66739 0.60210
 H599 H 1.14469 0.70618 0.65193
 H600 H 1.19664 0.62129 0.64214
 H601 H 1.10375 0.52889 0.55426
 H602 H 1.05483 0.61532 0.57496
 H603 H 1.16626 0.58776 0.60968
 H604 H 1.13806 0.56007 0.58099
 C605 C 0.63835 0.12534 0.62517
 C606 C 0.63460 0.16076 0.63412
 C607 C 0.65295 0.17905 0.65271
 C608 C 0.67486 0.16238 0.66418
 C609 C 0.67854 0.12721 0.65532
 C610 C 0.66063 0.10894 0.63595
 C611 C 0.61805 0.10672 0.60556
 C612 C 0.62034 0.07209 0.59353
 C613 C 0.60059 0.05572 0.57623
 C614 C 0.57800 0.07328 0.57090
 C615 C 0.57568 0.10792 0.58213
 C616 C 0.59556 0.12486 0.59883
 C617 C 0.61227 0.17757 0.62537
 C618 C 0.59305 0.15986 0.60860
 H619 H 0.60939 0.20468 0.63232
 H620 H 0.57595 0.17385 0.60307
 H621 H 0.64997 0.20640 0.65858
 H622 H 0.69502 0.11340 0.66417
 H623 H 0.60284 0.02898 0.56760
 H624 H 0.55843 0.12190 0.57746
 H625 H 0.66433 0.08184 0.63046
 H626 H 0.63721 0.05725 0.59712
 C627 C 0.63720 0.63302 0.11782
 C628 C 0.63290 0.66857 0.12577
 C629 C 0.65119 0.68808 0.14313
 C630 C 0.67350 0.67247 0.15440
 C631 C 0.67772 0.63719 0.14650
 C632 C 0.65993 0.61775 0.12829
 C633 C 0.61699 0.61301 0.09968
 C634 C 0.61983 0.57812 0.08871
 C635 C 0.60019 0.56045 0.07263
 C636 C 0.57720 0.57696 0.06752
 C637 C 0.57428 0.61179 0.07781
 C638 C 0.59403 0.63003 0.09326
 C639 C 0.61011 0.68424 0.11737
 C640 C 0.59095 0.66523 0.10197
 H641 H 0.60681 0.71144 0.12358
 H642 H 0.57347 0.67835 0.09666
 H643 H 0.64779 0.71546 0.14836
 H644 H 0.69453 0.62419 0.15535
 H645 H 0.60288 0.53361 0.06462
 H646 H 0.55670 0.62493 0.07321
 H647 H 0.66405 0.59062 0.12358
 H648 H 0.63705 0.56408 0.09208
 C649 C 0.86610 -0.13592 0.12425
 C650 C 0.84139 -0.12657 0.11537
 C651 C 0.82129 -0.14181 0.13431
 C652 C 0.82551 -0.16573 0.16262
 C653 C 0.85000 -0.17486 0.17131
 C654 C 0.87002 -0.16027 0.15245
 C655 C 0.88706 -0.11877 0.10387
 C656 C 0.91218 -0.12698 0.11023
 C657 C 0.93111 -0.10918 0.09191
 C658 C 0.92565 -0.08269 0.06665
 C659 C 0.90062 -0.07511 0.05915
 C660 C 0.88136 -0.09301 0.07745
 C661 C 0.83695 -0.10167 0.08812
 C662 C 0.85650 -0.08507 0.06975
 H663 H 0.81806 -0.09449 0.08124
 H664 H 0.85209 -0.06559 0.04930
 H665 H 0.80240 -0.13443 0.12763
 H666 H 0.85369 -0.19368 0.19269
 H667 H 0.95018 -0.11592 0.09812
 H668 H 0.89609 -0.05497 0.03943
 H669 H 0.88835 -0.16828 0.16069
 H670 H 0.91772 -0.14685 0.12940
 C671 C 0.85862 0.37513 0.62800
 C672 C 0.85403 0.33981 0.61968
 C673 C 0.83505 0.32101 0.63764
 C674 C 0.82122 0.33595 0.66596
 C675 C 0.82669 0.37105 0.67453
 C676 C 0.84478 0.39029 0.65574
 C677 C 0.87882 0.39438 0.60794
 C678 C 0.88297 0.43064 0.61127
 C679 C 0.90253 0.44711 0.59277
 C680 C 0.91859 0.42772 0.57122
 C681 C 0.91435 0.39191 0.56689
 C682 C 0.89421 0.37532 0.58435
 C683 C 0.86911 0.32292 0.59455
 C684 C 0.88914 0.34004 0.57794
 H685 H 0.86582 0.29571 0.58835
 H686 H 0.90063 0.32555 0.55943
 H687 H 0.83274 0.29371 0.63117
 H688 H 0.81627 0.38483 0.69474
 H689 H 0.90543 0.47496 0.59579
 H690 H 0.92647 0.37720 0.54936
 H691 H 0.84790 0.41690 0.66380
 H692 H 0.87121 0.44674 0.62769
 C693 C 0.36180 -0.12325 0.63625
 C694 C 0.34089 -0.13333 0.61596
 C695 C 0.32190 -0.15371 0.63210
 C696 C 0.32326 -0.16371 0.66853
 C697 C 0.34329 -0.15162 0.68891
 C698 C 0.36228 -0.13180 0.67311
 C699 C 0.38256 -0.10391 0.61762
 C700 C 0.40528 -0.09655 0.63455
 C701 C 0.42439 -0.07942 0.61593
 C702 C 0.42132 -0.06873 0.58009
 C703 C 0.39875 -0.07572 0.56286
 C704 C 0.37959 -0.09394 0.58113
 C705 C 0.33917 -0.12306 0.57976
 C706 C 0.35789 -0.10324 0.56291
 H707 H 0.32306 -0.13036 0.56423
 H708 H 0.35562 -0.09586 0.53491
 H709 H 0.30642 -0.16249 0.61607
 H710 H 0.34436 -0.15759 0.71737
 H711 H 0.44168 -0.07439 0.62973
 H712 H 0.39647 -0.06812 0.53489
 H713 H 0.37711 -0.12338 0.69031
 H714 H 0.40893 -0.10443 0.66192
 C715 C 0.36124 0.38508 0.13598
 C716 C 0.34189 0.36973 0.11608
 C717 C 0.32290 0.35076 0.13393
 C718 C 0.32244 0.34786 0.17164
 C719 C 0.34059 0.36581 0.19114
 C720 C 0.35978 0.38395 0.17367
 C721 C 0.38242 0.40208 0.11605
 C722 C 0.40428 0.41302 0.13325
 C723 C 0.42381 0.42799 0.11355
 C724 C 0.42190 0.43303 0.07637
 C725 C 0.40030 0.42212 0.05881
 C726 C 0.38088 0.40573 0.07826
 C727 C 0.34168 0.37345 0.07858
 C728 C 0.36042 0.39188 0.06016
 H729 H 0.32666 0.36223 0.06325
 H730 H 0.35927 0.39433 0.03119
 H731 H 0.30894 0.33751 0.11831
 H732 H 0.34015 0.36567 0.22018
 H733 H 0.44041 0.43610 0.12753
 H734 H 0.39904 0.42525 0.02993
 H735 H 0.37320 0.39703 0.19016
 H736 H 0.40690 0.40955 0.16176
 C737 C 0.86383 0.13463 -0.11535
 C738 C 0.84026 0.11812 -0.11690
 C739 C 0.82052 0.13464 -0.13511
 C740 C 0.82389 0.16765 -0.15165
 C741 C 0.84723 0.18391 -0.14976
 C742 C 0.86689 0.16778 -0.13190
 C743 C 0.88461 0.11587 -0.09659
 C744 C 0.90882 0.12979 -0.09463
 C745 C 0.92783 0.11089 -0.07819
 C746 C 0.92333 0.07766 -0.06292
 C747 C 0.89910 0.06384 -0.06379
 C748 C 0.87981 0.08255 -0.08078
 C749 C 0.83663 0.08524 -0.10042
 C750 C 0.85594 0.06789 -0.08266
 H751 H 0.81859 0.07260 -0.10141
 H752 H 0.85219 0.04242 -0.07057
 H753 H 0.80249 0.12197 -0.13617
 H754 H 0.85049 0.20909 -0.16275
 H755 H 0.94624 0.12243 -0.07764
 H756 H 0.89539 0.03814 -0.05215
 H757 H 0.88431 0.18175 -0.13166
 H758 H 0.91368 0.15503 -0.10596
 C759 C 0.85875 0.62251 0.36882
 C760 C 0.86510 0.64418 0.33892
 C761 C 0.84652 0.66221 0.32001
 C762 C 0.82149 0.65934 0.33048
 C763 C 0.81518 0.63793 0.36010
 C764 C 0.83351 0.61967 0.37903
 C765 C 0.87925 0.60390 0.38842
 C766 C 0.87496 0.58133 0.41816
 C767 C 0.89473 0.56469 0.43548
 C768 C 0.91931 0.57015 0.42374
 C769 C 0.92375 0.59253 0.39412
 C770 C 0.90402 0.60924 0.37640
 C771 C 0.88998 0.64810 0.32828
 C772 C 0.90902 0.63108 0.34666
 H773 H 0.89483 0.66475 0.30544
 H774 H 0.92799 0.63507 0.33741
 H775 H 0.85163 0.67923 0.29757
 H776 H 0.79596 0.63518 0.36857
 H777 H 0.89070 0.54745 0.45816
 H778 H 0.94261 0.59681 0.38453
 H779 H 0.82751 0.60372 0.40161
 H780 H 0.85652 0.57602 0.42840
 C781 C 0.36347 0.12047 0.36519
 C782 C 0.34007 0.12383 0.38212
 C783 C 0.32068 0.14187 0.36460
 C784 C 0.32382 0.15621 0.32947
 C785 C 0.34721 0.15114 0.31270
 C786 C 0.36650 0.13378 0.33011
 C787 C 0.38405 0.10266 0.38523
 C788 C 0.40853 0.10114 0.37177
 C789 C 0.42718 0.08473 0.39145
 C790 C 0.42208 0.06911 0.42503
 C791 C 0.39770 0.07030 0.43874
 C792 C 0.37881 0.08757 0.41941
 C793 C 0.33609 0.10875 0.41629
 C794 C 0.35492 0.09057 0.43429
 H795 H 0.31808 0.11088 0.42927
 H796 H 0.35085 0.07927 0.46056
 H797 H 0.30287 0.14298 0.37816
 H798 H 0.35175 0.16239 0.28668
 H799 H 0.44576 0.08417 0.38006
 H800 H 0.39356 0.05846 0.46472
 H801 H 0.38373 0.13136 0.31545
 H802 H 0.41386 0.11286 0.34636
 C803 C 0.36086 0.61747 -0.13627
 C804 C 0.33741 0.61834 -0.11880
 C805 C 0.31706 0.63460 -0.13574
 C806 C 0.31958 0.64915 -0.17042
 C807 C 0.34260 0.64708 -0.18810
 C808 C 0.36297 0.63154 -0.17134
 C809 C 0.38238 0.60132 -0.11676
 C810 C 0.40683 0.60199 -0.13057
 C811 C 0.42629 0.58663 -0.11148
 C812 C 0.42196 0.56990 -0.07822
 C813 C 0.39769 0.56929 -0.06405
 C814 C 0.37802 0.58538 -0.08273
 C815 C 0.33442 0.60277 -0.08471
 C816 C 0.35419 0.58617 -0.06732
 H817 H 0.31645 0.60313 -0.07139
 H818 H 0.35085 0.57424 -0.04113
 H819 H 0.29921 0.63568 -0.12213
 H820 H 0.34502 0.65829 -0.21479
 H821 H 0.44480 0.58758 -0.12309
 H822 H 0.39414 0.55676 -0.03822
 H823 H 0.38014 0.63083 -0.18640
 H824 H 0.41144 0.61453 -0.15589
 C825 C 1.14079 -0.12170 -0.12982
 C826 C 1.13422 -0.15235 -0.14840
 C827 C 1.15270 -0.17309 -0.16393
 C828 C 1.17784 -0.16362 -0.16199
 C829 C 1.18439 -0.13289 -0.14433
 C830 C 1.16614 -0.11224 -0.12823
 C831 C 1.12036 -0.10080 -0.11285
 C832 C 1.12481 -0.07098 -0.09202
 C833 C 1.10510 -0.05319 -0.07585
 C834 C 1.08045 -0.06440 -0.08037
 C835 C 1.07587 -0.09365 -0.10159
 C836 C 1.09549 -0.11207 -0.11734
 C837 C 1.10924 -0.16204 -0.15172
 C838 C 1.09029 -0.14218 -0.13681
 H839 H 1.10423 -0.18536 -0.16618
 H840 H 1.07124 -0.15083 -0.14015
 H841 H 1.14746 -0.19639 -0.17830
 H842 H 1.20371 -0.12502 -0.14269
 H843 H 1.10920 -0.03078 -0.05952
 H844 H 1.05696 -0.10290 -0.10498
 H845 H 1.17225 -0.08894 -0.11493
 H846 H 1.14336 -0.06135 -0.08736
 C847 C 1.13170 0.36334 0.37225
 C848 C 1.15656 0.37347 0.37891
 C849 C 1.17637 0.35532 0.36288
 C850 C 1.17177 0.32678 0.34060
 C851 C 1.14710 0.31663 0.33451
 C852 C 1.12736 0.33454 0.35004
 C853 C 1.11106 0.38360 0.38931
 C854 C 1.08579 0.37620 0.38328
 C855 C 1.06719 0.39543 0.39993
 C856 C 1.07310 0.42268 0.42316
 C857 C 1.09828 0.43062 0.42911
 C858 C 1.11723 0.41141 0.41225
 C859 C 1.16146 0.40149 0.40160
 C860 C 1.14224 0.41989 0.41808
 H861 H 1.18048 0.40923 0.40683
 H862 H 1.14704 0.44122 0.43554
 H863 H 1.19539 0.36316 0.36804
 H864 H 1.14299 0.29504 0.31706
 H865 H 1.04801 0.38861 0.39466
 H866 H 1.10317 0.45170 0.44685
 H867 H 1.10890 0.32532 0.34417
 H868 H 1.07986 0.35569 0.36579
 C869 C 0.63792 -0.12541 0.37932
 C870 C 0.63196 -0.15595 0.36021
 C871 C 0.65070 -0.17451 0.34258
 C872 C 0.67549 -0.16306 0.34327
 C873 C 0.68139 -0.13261 0.36182
 C874 C 0.66290 -0.11402 0.37974
 C875 C 0.61726 -0.10650 0.39794
 C876 C 0.62120 -0.07638 0.41843
 C877 C 0.60132 -0.05976 0.43523
 C878 C 0.57696 -0.07258 0.43194
 C879 C 0.57286 -0.10257 0.41163
 C880 C 0.59273 -0.11964 0.39488
 C881 C 0.60733 -0.16772 0.35849
 C882 C 0.58812 -0.14986 0.37531
 H883 H 0.60280 -0.19106 0.34376
 H884 H 0.56935 -0.15996 0.37305
 H885 H 0.64590 -0.19764 0.32764
 H886 H 0.70043 -0.12335 0.36275
 H887 H 0.60507 -0.03664 0.45073
 H888 H 0.55417 -0.11293 0.40910
 H889 H 0.66856 -0.09083 0.39359
 H890 H 0.63945 -0.06526 0.42196
 C891 C 0.63949 0.37441 -0.12020
 C892 C 0.63441 0.34033 -0.13261
 C893 C 0.65313 0.32110 -0.14958
 C894 C 0.67672 0.33572 -0.15566
 C895 C 0.68164 0.36973 -0.14420
 C896 C 0.66334 0.38882 -0.12643
 C897 C 0.61898 0.39392 -0.10191
 C898 C 0.62250 0.42681 -0.08614
 C899 C 0.60265 0.44406 -0.06986
 C900 C 0.57877 0.42923 -0.06931
 C901 C 0.57519 0.39625 -0.08438
 C902 C 0.59509 0.37833 -0.10008
 C903 C 0.61055 0.32597 -0.12888
 C904 C 0.59121 0.34479 -0.11348
 H905 H 0.60663 0.29999 -0.13862
 H906 H 0.57296 0.33273 -0.11176
 H907 H 0.64913 0.29508 -0.15920
 H908 H 0.69974 0.38150 -0.14894
 H909 H 0.60598 0.46926 -0.05796
 H910 H 0.55693 0.38416 -0.08335
 H911 H 0.66810 0.41493 -0.11835
 H912 H 0.64043 0.43950 -0.08582
 C913 C 1.13839 0.13725 -0.12117
 C914 C 1.16168 0.12070 -0.12530
 C915 C 1.18149 0.13861 -0.14245
 C916 C 1.17875 0.17352 -0.15489
 C917 C 1.15557 0.18985 -0.14939
 C918 C 1.13584 0.17216 -0.13293
 C919 C 1.11743 0.11702 -0.10413
 C920 C 1.09309 0.13036 -0.10174
 C921 C 1.07415 0.11067 -0.08565
 C922 C 1.07887 0.07723 -0.07128
 C923 C 1.10301 0.06346 -0.07374
 C924 C 1.12219 0.08288 -0.09057
 C925 C 1.16512 0.08654 -0.11190
 C926 C 1.14590 0.06823 -0.09446
 H927 H 1.18301 0.07384 -0.11469
 H928 H 1.14957 0.04200 -0.08433
 H929 H 1.19924 0.12550 -0.14478
 H930 H 1.15187 0.21604 -0.15940
 H931 H 1.05571 0.12195 -0.08416
 H932 H 1.10677 0.03742 -0.06316
 H933 H 1.11873 0.18645 -0.12987
 H934 H 1.08813 0.15577 -0.11239
 C935 C 1.13657 0.62300 0.36971
 C936 C 1.16080 0.60906 0.37363
 C937 C 1.18142 0.62721 0.35900
 C938 C 1.17826 0.65975 0.34155
 C939 C 1.15429 0.67375 0.33849
 C940 C 1.13373 0.65571 0.35225
 C941 C 1.11500 0.60277 0.38514
 C942 C 1.09016 0.61337 0.38042
 C943 C 1.07072 0.59459 0.39644
 C944 C 1.07538 0.56469 0.41771
 C945 C 1.10004 0.55314 0.42163
 C946 C 1.11981 0.57174 0.40517
 C947 C 1.16426 0.57749 0.39265
 C948 C 1.14426 0.55952 0.40855
 H949 H 1.18279 0.56680 0.39583
 H950 H 1.14799 0.53557 0.42355
 H951 H 1.19996 0.61644 0.36179
 H952 H 1.15138 0.69866 0.32485
 H953 H 1.05194 0.60407 0.39265
 H954 H 1.10389 0.52977 0.43753
 H955 H 1.11586 0.66808 0.34913
 H956 H 1.08525 0.63611 0.36451
 C957 C 0.63657 0.12274 0.36699
 C958 C 0.66116 0.11044 0.37181
 C959 C 0.68122 0.12811 0.35495
 C960 C 0.67706 0.15855 0.33422
 C961 C 0.65271 0.17076 0.32992
 C962 C 0.63274 0.15319 0.34593
 C963 C 0.61566 0.10330 0.38518
 C964 C 0.59059 0.11258 0.38033
 C965 C 0.57176 0.09455 0.39853
 C966 C 0.57720 0.06666 0.42218
 C967 C 0.60213 0.05653 0.42661
 C968 C 0.62134 0.07445 0.40801
 C969 C 0.66555 0.08108 0.39396
 C970 C 0.64611 0.06374 0.41199
 H971 H 0.68436 0.07167 0.39787
 H972 H 0.65055 0.04150 0.42920
 H973 H 0.70006 0.11873 0.35865
 H974 H 0.64905 0.19399 0.31375
 H975 H 0.55277 0.10301 0.39429
 H976 H 0.60660 0.03476 0.44444
 H977 H 0.61455 0.16424 0.34169
 H978 H 0.58500 0.13367 0.36262
 C979 C 0.63860 0.63237 -0.12430
 C980 C 0.66196 0.61579 -0.12740
 C981 C 0.68217 0.63380 -0.14344
 C982 C 0.67987 0.66900 -0.15517
 C983 C 0.65671 0.68554 -0.15013
 C984 C 0.63649 0.66760 -0.13519
 C985 C 0.61718 0.61194 -0.10875
 C986 C 0.59269 0.62489 -0.10851
 C987 C 0.57338 0.60528 -0.09322
 C988 C 0.57788 0.57233 -0.07746
 C989 C 0.60213 0.55876 -0.07821
 C990 C 0.62167 0.57801 -0.09445
 C991 C 0.66506 0.58161 -0.11385
 C992 C 0.64550 0.56343 -0.09704
 H993 H 0.68301 0.56890 -0.11575
 H994 H 0.64897 0.53730 -0.08647
 H995 H 0.69992 0.62060 -0.14534
 H996 H 0.65347 0.71209 -0.15944
 H997 H 0.55487 0.61640 -0.09312
 H998 H 0.60574 0.53312 -0.06656
 H999 H 0.61938 0.68196 -0.13238
 H1000 H 0.58795 0.64996 -0.12026
 C1001 C 0.86334 -0.11733 -0.13092
 C1002 C 0.84391 -0.13186 -0.10955
 C1003 C 0.82442 -0.15028 -0.12578
 C1004 C 0.82347 -0.15301 -0.16321
 C1005 C 0.84189 -0.13680 -0.18441
 C1006 C 0.86167 -0.11931 -0.16855
 C1007 C 0.88473 -0.10021 -0.11253
 C1008 C 0.90648 -0.08945 -0.13094
 C1009 C 0.92612 -0.07415 -0.11260
 C1010 C 0.92443 -0.06862 -0.07562
 C1011 C 0.90294 -0.07934 -0.05689
 C1012 C 0.88341 -0.09595 -0.07490
 C1013 C 0.84399 -0.12762 -0.07227
 C1014 C 0.86301 -0.10930 -0.05543
 H1015 H 0.82896 -0.13826 -0.05590
 H1016 H 0.86207 -0.10636 -0.02658
 H1017 H 0.80990 -0.16231 -0.10941
 H1018 H 0.84130 -0.13850 -0.21337
 H1019 H 0.94262 -0.06620 -0.12749
 H1020 H 0.90181 -0.07580 -0.02812
 H1021 H 0.87538 -0.10745 -0.18619
 H1022 H 0.90890 -0.09322 -0.15935
 C1023 C 0.85660 0.37043 0.37904
 C1024 C 0.86262 0.33932 0.36087
 C1025 C 0.84421 0.32104 0.34242
 C1026 C 0.81963 0.33320 0.34136
 C1027 C 0.81363 0.36413 0.35913
 C1028 C 0.83182 0.38250 0.37784
 C1029 C 0.87703 0.38926 0.39817
 C1030 C 0.87313 0.42016 0.41755
 C1031 C 0.89298 0.43706 0.43414
 C1032 C 0.91721 0.42367 0.43176
 C1033 C 0.92114 0.39259 0.41308
 C1034 C 0.90139 0.37538 0.39647
 C1035 C 0.88705 0.32675 0.36076
 C1036 C 0.90602 0.34445 0.37805
 H1037 H 0.89163 0.30295 0.34680
 H1038 H 0.92466 0.33377 0.37691
 H1039 H 0.84918 0.29760 0.32810
 H1040 H 0.79476 0.37397 0.35882
 H1041 H 0.88938 0.46099 0.44840
 H1042 H 0.93970 0.38169 0.41132
 H1043 H 0.82613 0.40610 0.39100
 H1044 H 0.85497 0.43180 0.42009
 C1045 C 0.35985 -0.12834 0.38532
 C1046 C 0.36424 -0.16304 0.37465
 C1047 C 0.34584 -0.18166 0.35639
 C1048 C 0.32279 -0.16620 0.34697
 C1049 C 0.31903 -0.13109 0.35714
 C1050 C 0.33706 -0.11270 0.37611
 C1051 C 0.38007 -0.10948 0.40489
 C1052 C 0.37705 -0.07570 0.41884
 C1053 C 0.39676 -0.05890 0.43581
 C1054 C 0.42003 -0.07519 0.43905
 C1055 C 0.42301 -0.10917 0.42612
 C1056 C 0.40321 -0.12651 0.40959
 C1057 C 0.38732 -0.17881 0.38126
 C1058 C 0.40648 -0.16078 0.39786
 H1059 H 0.39080 -0.20537 0.37288
 H1060 H 0.42411 -0.17397 0.40174
 H1061 H 0.35066 -0.20755 0.34744
 H1062 H 0.30168 -0.11769 0.35220
 H1063 H 0.39390 -0.03274 0.44574
 H1064 H 0.44076 -0.12227 0.42909
 H1065 H 0.33280 -0.08610 0.38310
 H1066 H 0.35966 -0.06182 0.41697
 C1067 C 0.36354 0.37935 -0.12997
 C1068 C 0.33928 0.38035 -0.11508
 C1069 C 0.31935 0.36483 -0.13324
 C1070 C 0.32319 0.34935 -0.16670
 C1071 C 0.34707 0.34969 -0.18193
 C1072 C 0.36699 0.36444 -0.16391
 C1073 C 0.38449 0.39479 -0.10929
 C1074 C 0.40947 0.39187 -0.12026
 C1075 C 0.42836 0.40738 -0.10078
 C1076 C 0.42298 0.42642 -0.06987
 C1077 C 0.39818 0.42875 -0.05806
 C1078 C 0.37899 0.41251 -0.07718
 C1079 C 0.33510 0.39717 -0.08247
 C1080 C 0.35446 0.41349 -0.06428
 H1081 H 0.31652 0.39821 -0.07111
 H1082 H 0.35021 0.42664 -0.03947
 H1083 H 0.30082 0.36507 -0.12160
 H1084 H 0.35050 0.33772 -0.20762
 H1085 H 0.44729 0.40495 -0.11051
 H1086 H 0.39381 0.44304 -0.03398
 H1087 H 0.38485 0.36399 -0.17718
 H1088 H 0.41492 0.37758 -0.14369
 C1089 C 1.14187 -0.12826 0.12221
 C1090 C 1.13793 -0.16382 0.13188
 C1091 C 1.15618 -0.18249 0.15085
 C1092 C 1.17817 -0.16608 0.16199
 C1093 C 1.18207 -0.13079 0.15236
 C1094 C 1.16426 -0.11214 0.13261
 C1095 C 1.12164 -0.10921 0.10233
 C1096 C 1.12406 -0.07436 0.08968
 C1097 C 1.10433 -0.05759 0.07222
 C1098 C 1.08163 -0.07496 0.06736
 C1099 C 1.07921 -0.10984 0.07916
 C1100 C 1.09904 -0.12715 0.09603
 C1101 C 1.11551 -0.18040 0.12349
 C1102 C 1.09636 -0.16233 0.10644
 H1103 H 1.11249 -0.20762 0.13098
 H1104 H 1.07917 -0.17616 0.10124
 H1105 H 1.15304 -0.20990 0.15732
 H1106 H 1.19863 -0.11721 0.16093
 H1107 H 1.10667 -0.03069 0.06314
 H1108 H 1.06189 -0.12369 0.07485
 H1109 H 1.16811 -0.08496 0.12655
 H1110 H 1.14101 -0.05963 0.09294
 C1111 C 1.13369 0.37526 0.62966
 C1112 C 1.15573 0.36820 0.61013
 C1113 C 1.17496 0.34872 0.62628
 C1114 C 1.17260 0.33638 0.66188
 C1115 C 1.15115 0.34480 0.68147
 C1116 C 1.13198 0.36389 0.66571
 C1117 C 1.11307 0.39444 0.61108
 C1118 C 1.08976 0.40007 0.62742
 C1119 C 1.07082 0.41706 0.60877
 C1120 C 1.07459 0.42923 0.57348
 C1121 C 1.09783 0.42419 0.55697
 C1122 C 1.11691 0.40637 0.57529
 C1123 C 1.15836 0.38056 0.57467
 C1124 C 1.13949 0.39960 0.55777
 H1125 H 1.17529 0.37546 0.55974
 H1126 H 1.14244 0.40856 0.53032
 H1127 H 1.19152 0.34258 0.61091
 H1128 H 1.14918 0.33672 0.70935
 H1129 H 1.05308 0.42069 0.62213
 H1130 H 1.10078 0.43310 0.52948
 H1131 H 1.11608 0.36950 0.68237
 H1132 H 1.08552 0.39105 0.65433
 C1133 C 0.63630 -0.12043 0.63710
 C1134 C 0.65838 -0.12701 0.61747
 C1135 C 0.67752 -0.14718 0.63304
 C1136 C 0.67501 -0.16082 0.66815
 C1137 C 0.65351 -0.15287 0.68790
 C1138 C 0.63445 -0.13305 0.67273
 C1139 C 0.61574 -0.10058 0.61900
 C1140 C 0.59242 -0.09512 0.63541
 C1141 C 0.57347 -0.07781 0.61702
 C1142 C 0.57724 -0.06508 0.58191
 C1143 C 0.60055 -0.06972 0.56545
 C1144 C 0.61964 -0.08784 0.58350
 C1145 C 0.66111 -0.11362 0.58241
 C1146 C 0.64227 -0.09416 0.56594
 H1147 H 0.67807 -0.11834 0.56741
 H1148 H 0.64528 -0.08453 0.53873
 H1149 H 0.69408 -0.15293 0.61753
 H1150 H 0.65138 -0.16198 0.71544
 H1151 H 0.55570 -0.07451 0.63036
 H1152 H 0.60355 -0.06037 0.53811
 H1153 H 0.61848 -0.12800 0.68944
 H1154 H 0.58817 -0.10457 0.66217
 C1155 C 0.63637 0.38080 0.13400
 C1156 C 0.65895 0.37572 0.11505
 C1157 C 0.67795 0.35509 0.13035
 C1158 C 0.67473 0.33934 0.16442
 C1159 C 0.65272 0.34574 0.18360
 C1160 C 0.63384 0.36611 0.16874
 C1161 C 0.61598 0.40116 0.11605
 C1162 C 0.59232 0.40549 0.13181
 C1163 C 0.57352 0.42310 0.11342
 C1164 C 0.57773 0.43725 0.07896
 C1165 C 0.60142 0.43389 0.06326
 C1166 C 0.62041 0.41554 0.08132
 C1167 C 0.66225 0.39090 0.08083
 C1168 C 0.64348 0.41060 0.06447
 H1169 H 0.67956 0.38731 0.06633
 H1170 H 0.64692 0.42154 0.03786
 H1171 H 0.69492 0.35049 0.11534
 H1172 H 0.65004 0.33485 0.21037
 H1173 H 0.55548 0.42543 0.12624
 H1174 H 0.60481 0.44441 0.03646
 H1175 H 0.61743 0.36984 0.18496
 H1176 H 0.58770 0.39492 0.15800
 C1177 C 0.86600 0.12123 0.13165
 C1178 C 0.84352 0.12692 0.11288
 C1179 C 0.82439 0.14687 0.12841
 C1180 C 0.82736 0.16116 0.16262
 C1181 C 0.84928 0.15406 0.18162
 C1182 C 0.86829 0.13446 0.16649
 C1183 C 0.88649 0.10154 0.11358
 C1184 C 0.91011 0.09699 0.12908
 C1185 C 0.92888 0.07949 0.11088
 C1186 C 0.92470 0.06572 0.07685
 C1187 C 0.90114 0.06966 0.06120
 C1188 C 0.88216 0.08793 0.07908
 C1189 C 0.84039 0.11283 0.07872
 C1190 C 0.85918 0.09345 0.06236
 H1191 H 0.82313 0.11688 0.06437
 H1192 H 0.85583 0.08319 0.03589
 H1193 H 0.80748 0.15195 0.11355
 H1194 H 0.85175 0.16370 0.20852
 H1195 H 0.94685 0.07675 0.12363
 H1196 H 0.89782 0.05950 0.03466
 H1197 H 0.88458 0.13004 0.18263
 H1198 H 0.91471 0.10720 0.15498
 C1199 C 0.86205 0.62938 0.62240
 C1200 C 0.86825 0.64365 0.65598
 C1201 C 0.85040 0.66202 0.67568
 C1202 C 0.82638 0.66767 0.66217
 C1203 C 0.82030 0.65368 0.62874
 C1204 C 0.83781 0.63471 0.60915
 C1205 C 0.88179 0.60979 0.60233
 C1206 C 0.87739 0.59290 0.56960
 C1207 C 0.89654 0.57512 0.55206
 C1208 C 0.92059 0.57412 0.56643
 C1209 C 0.92507 0.59064 0.59907
 C1210 C 0.90593 0.60794 0.61724
 C1211 C 0.89233 0.64006 0.66957
 C1212 C 0.91083 0.62297 0.65043
 H1213 H 0.89708 0.65111 0.69523
 H1214 H 0.92926 0.62128 0.66195
 H1215 H 0.85533 0.67200 0.70174
 H1216 H 0.80209 0.65800 0.61727
 H1217 H 0.89256 0.56237 0.52701
 H1218 H 0.94346 0.58945 0.61081
 H1219 H 0.83214 0.62496 0.58347
 H1220 H 0.85930 0.59287 0.55728
 C1221 C 0.36210 0.13008 0.62555
 C1222 C 0.36709 0.14148 0.66069
 C1223 C 0.34876 0.15897 0.68026
 C1224 C 0.32563 0.16715 0.66495
 C1225 C 0.32076 0.15608 0.62994
 C1226 C 0.33866 0.13762 0.61054
 C1227 C 0.38229 0.11133 0.60568
 C1228 C 0.37880 0.09643 0.57172
 C1229 C 0.39834 0.07930 0.55444
 C1230 C 0.42189 0.07721 0.57024
 C1231 C 0.42548 0.09170 0.60410
 C1232 C 0.40586 0.10803 0.62214
 C1233 C 0.39056 0.13623 0.67588
 C1234 C 0.40966 0.12043 0.65678
 H1235 H 0.39440 0.14516 0.70273
 H1236 H 0.42763 0.11754 0.66951
 H1237 H 0.35273 0.16656 0.70751
 H1238 H 0.30332 0.16244 0.61706
 H1239 H 0.39506 0.06789 0.52853
 H1240 H 0.44347 0.08941 0.61694
 H1241 H 0.33401 0.13026 0.58359
 H1242 H 0.36109 0.09732 0.55830
 C1243 C 0.36180 0.63166 0.12052
 C1244 C 0.36777 0.64672 0.15380
 C1245 C 0.34962 0.66462 0.17329
 C1246 C 0.32550 0.66920 0.15980
 C1247 C 0.31959 0.65449 0.12665
 C1248 C 0.33744 0.63585 0.10727
 C1249 C 0.38188 0.61246 0.10079
 C1250 C 0.37776 0.59453 0.06857
 C1251 C 0.39725 0.57707 0.05142
 C1252 C 0.42134 0.57755 0.06563
 C1253 C 0.42552 0.59511 0.09776
 C1254 C 0.40607 0.61198 0.11558
 C1255 C 0.39194 0.64444 0.16732
 C1256 C 0.41076 0.62787 0.14839
 H1257 H 0.39650 0.65614 0.19274
 H1258 H 0.42924 0.62722 0.15981
 H1259 H 0.35440 0.67507 0.19920
 H1260 H 0.30127 0.65792 0.11526
 H1261 H 0.39348 0.56337 0.02688
 H1262 H 0.44394 0.59503 0.10946
 H1263 H 0.33194 0.62547 0.08179
 H1264 H 0.35963 0.59340 0.05642
   
