data_POSCAR
  _audit_creation_date              2014-09-24
  _audit_creation_method            'ToBaCCo'
  _symmetry_space_group_name_H-M    'P1'
  _symmetry_Int_Tables_number       1
  _symmetry_cell_setting            triclinic
  loop_
  _symmetry_equiv_pos_as_xyz
 x,y,z
_cell_length_a 56.9963
_cell_length_b 56.9480
_cell_length_c 56.9090
_cell_angle_alpha 90.253100
_cell_angle_beta 89.961300
_cell_angle_gamma 90.096900
loop_
  _atom_site_label
  _atom_site_type_symbol
  _atom_site_fract_x
  _atom_site_fract_y
  _atom_site_fract_z
N1 N 0.18407 0.18125 0.18409
 N2 N 0.68337 0.68063 0.68406
 N3 N 0.31791 0.81748 0.68327
 N4 N 0.76658 0.26674 0.23304
 N5 N 0.82038 0.68626 0.31700
 N6 N 0.26929 0.23745 -0.23112
 N7 N 0.68809 0.31498 -0.18481
 N8 N 0.23837 0.76476 0.26328
 N9 N 0.48660 0.48441 0.48491
 N10 N -0.05991 -0.06400 0.93527
 N11 N 1.06698 0.56544 0.93254
 N12 N 0.51756 0.01792 0.48182
 N13 N -0.06678 0.06600 0.56930
 N14 N 0.43571 0.56591 0.06933
 N15 N 0.56951 -0.06743 0.06435
 N16 N 1.02100 0.48223 0.51377
 C17 C 0.41475 0.01081 0.21695
 H18 H 0.41489 0.02720 0.22664
 C19 C 0.43130 0.00683 0.19923
 H20 H 0.44420 0.02020 0.19516
 C21 C 0.39830 -0.02701 0.21084
 H22 H 0.38582 -0.04041 0.21573
 C23 C 0.41450 -0.03169 0.19304
 H24 H 0.41425 -0.04855 0.18414
 N25 N 0.39860 -0.00598 0.22230
 C26 C 0.34038 0.03009 0.25693
 H27 H 0.33919 0.01993 0.27290
 C28 C 0.32408 0.04781 0.25253
 H29 H 0.31032 0.05141 0.26518
 C30 C 0.35925 0.03731 0.22049
 H31 H 0.37265 0.03284 0.20783
 C32 C 0.34328 0.05518 0.21540
 H33 H 0.34456 0.06455 0.19892
 Zn34 Zn 0.37767 -0.00031 0.24759
 N35 N 0.35757 0.02525 0.24103
 C36 C 0.39329 0.02561 0.28770
 N37 N 0.39606 0.00572 0.27463
 C38 C 0.41249 -0.01060 0.28029
 C39 C 0.42642 -0.00765 0.30025
 C40 C 0.40687 0.02924 0.30785
 C41 C 0.34304 -0.03284 0.23503
 C42 C 0.32884 -0.05271 0.23716
 C43 C 0.34569 -0.05964 0.27547
 C44 C 0.35959 -0.03962 0.27263
 N45 N 0.35836 -0.02695 0.25243
 H46 H 0.38050 0.03862 0.28265
 H47 H 0.41454 -0.02608 0.26940
 H48 H 0.43921 -0.02092 0.30483
 H49 H 0.40436 0.04493 0.31838
 H50 H 0.34220 -0.02226 0.21931
 H51 H 0.31704 -0.05755 0.22302
 H52 H 0.34705 -0.06989 0.29140
 H53 H 0.37142 -0.03438 0.28650
 C54 C 0.32550 0.06039 0.23154
 C55 C 0.43116 -0.01465 0.18722
 C56 C 0.33036 -0.06634 0.25747
 C57 C 0.42345 0.01236 0.31424
 C58 C 0.09160 -0.00813 0.71908
 H59 H 0.09182 -0.02449 0.72866
 C60 C 0.07484 -0.00449 0.70157
 H61 H 0.06214 -0.01811 0.69755
 C62 C 0.10731 0.02998 0.71310
 H63 H 0.11959 0.04360 0.71798
 C64 C 0.09087 0.03433 0.69547
 H65 H 0.09071 0.05117 0.68670
 N66 N 0.10746 0.00897 0.72442
 C67 C 0.16595 -0.02663 0.75850
 H68 H 0.16691 -0.01674 0.77475
 C69 C 0.18230 -0.04429 0.75387
 H70 H 0.19589 -0.04811 0.76659
 C71 C 0.14747 -0.03337 0.72173
 H72 H 0.13417 -0.02877 0.70907
 C73 C 0.16347 -0.05117 0.71641
 H74 H 0.16233 -0.06037 0.69974
 Zn75 Zn 0.12835 0.00350 0.74966
 N76 N 0.14890 -0.02162 0.74257
 C77 C 0.11190 -0.02434 0.78774
 N78 N 0.10970 -0.00356 0.77622
 C79 C 0.09283 0.01223 0.78229
 C80 C 0.07736 0.00743 0.80069
 C81 C 0.09677 -0.02984 0.80626
 C82 C 0.16245 0.03660 0.73795
 C83 C 0.17652 0.05652 0.74053
 C84 C 0.15934 0.06300 0.77886
 C85 C 0.14557 0.04293 0.77557
 N86 N 0.14709 0.03042 0.75518
 H87 H 0.12501 -0.03691 0.78229
 H88 H 0.09119 0.02841 0.77253
 H89 H 0.06380 0.01997 0.80522
 H90 H 0.09840 -0.04653 0.81516
 H91 H 0.16350 0.02615 0.72206
 H92 H 0.18843 0.06153 0.72657
 H93 H 0.15783 0.07309 0.79497
 H94 H 0.13363 0.03746 0.78925
 C95 C 0.18105 -0.05664 0.73261
 C96 C 0.07445 0.01696 0.68973
 C97 C 0.17482 0.06992 0.76110
 C98 C 0.07929 -0.01384 0.81269
 C99 C 0.59143 0.49268 0.22091
 H100 H 0.59007 0.47678 0.23116
 C101 C 0.57525 0.49707 0.20305
 H102 H 0.56142 0.48450 0.19944
 C103 C 0.61060 0.52894 0.21359
 H104 H 0.62406 0.54154 0.21808
 C105 C 0.59476 0.53402 0.19559
 H106 H 0.59620 0.55043 0.18613
 N107 N 0.60871 0.50850 0.22577
 C108 C 0.66327 0.46925 0.26221
 H109 H 0.66529 0.48023 0.27764
 C110 C 0.67712 0.44924 0.25947
 H111 H 0.68983 0.44471 0.27285
 C112 C 0.64418 0.46165 0.22592
 H113 H 0.63147 0.46665 0.21281
 C114 C 0.65770 0.44146 0.22250
 H115 H 0.65521 0.43082 0.20686
 Zn116 Zn 0.62864 0.50199 0.25151
 N117 N 0.64693 0.47484 0.24575
 C118 C 0.61023 0.47718 0.29077
 N119 N 0.60920 0.49739 0.27811
 C120 C 0.59396 0.51485 0.28393
 C121 C 0.57960 0.51275 0.30371
 C122 C 0.59618 0.47437 0.31068
 C123 C 0.66601 0.53215 0.24031
 C124 C 0.68269 0.54978 0.24414
 C125 C 0.66570 0.55671 0.28246
 C126 C 0.64937 0.53897 0.27794
 N127 N 0.64971 0.52718 0.25707
 H128 H 0.62199 0.46326 0.28558
 H129 H 0.59325 0.53057 0.27335
 H130 H 0.56782 0.52690 0.30847
 H131 H 0.59736 0.45841 0.32090
 H132 H 0.66617 0.52222 0.22406
 H133 H 0.69571 0.55354 0.23080
 H134 H 0.66541 0.56588 0.29919
 H135 H 0.63676 0.53439 0.29131
 C136 C 0.67418 0.43513 0.23953
 C137 C 0.57690 0.51797 0.19035
 C138 C 0.68253 0.56212 0.26545
 C139 C 0.58089 0.49240 0.31730
 C140 C 0.91178 0.51072 0.71347
 H141 H 0.91288 0.52653 0.72402
 C142 C 0.92599 0.50816 0.69364
 H143 H 0.93805 0.52206 0.68882
 C144 C 0.89466 0.47329 0.70677
 H145 H 0.88258 0.45967 0.71205
 C146 C 0.90855 0.47003 0.68677
 H147 H 0.90699 0.45399 0.67657
 N148 N 0.89624 0.49358 0.71942
 C149 C 0.84066 0.52970 0.75771
 H150 H 0.84073 0.52004 0.77404
 C151 C 0.82401 0.54728 0.75403
 H152 H 0.81124 0.55128 0.76756
 C153 C 0.85667 0.53580 0.71973
 H154 H 0.86904 0.53095 0.70619
 C155 C 0.84034 0.55350 0.71534
 H156 H 0.84036 0.56236 0.69853
 Zn157 Zn 0.87739 0.49909 0.74627
 N158 N 0.85661 0.52438 0.74070
 C159 C 0.89644 0.52696 0.78325
 N160 N 0.89783 0.50612 0.77153
 C161 C 0.91476 0.49013 0.77670
 C162 C 0.93103 0.49473 0.79447
 C163 C 0.91237 0.53225 0.80116
 C164 C 0.84177 0.46654 0.73733
 C165 C 0.82614 0.44827 0.74213
 C166 C 0.84529 0.44278 0.77958
 C167 C 0.86058 0.46117 0.77409
 N168 N 0.85858 0.47260 0.75322
 H169 H 0.88323 0.53967 0.77854
 H170 H 0.91569 0.47388 0.76683
 H171 H 0.94453 0.48196 0.79841
 H172 H 0.91127 0.54894 0.81032
 H173 H 0.84027 0.47623 0.72109
 H174 H 0.81262 0.44376 0.72951
 H175 H 0.84676 0.43398 0.79635
 H176 H 0.87364 0.46661 0.78674
 C177 C 0.82384 0.55922 0.73261
 C178 C 0.92423 0.48771 0.68009
 C179 C 0.82786 0.43638 0.76349
 C180 C 0.92983 0.51600 0.80677
 C181 C 0.21778 0.41211 0.01443
 H182 H 0.22691 0.41245 0.03109
 C183 C 0.19993 0.42829 0.01000
 H184 H 0.19520 0.44111 0.02329
 C185 C 0.21330 0.39557 -0.02363
 H186 H 0.21889 0.38321 -0.03693
 C187 C 0.19537 0.41140 -0.02876
 H188 H 0.18707 0.41100 -0.04589
 N189 N 0.22404 0.39612 -0.00227
 C190 C 0.25886 0.33909 0.03499
 H191 H 0.27536 0.33853 0.02560
 C192 C 0.25418 0.32266 0.05253
 H193 H 0.26712 0.30943 0.05677
 C194 C 0.22146 0.35651 0.04048
 H195 H 0.20857 0.36940 0.03540
 C196 C 0.21607 0.34040 0.05813
 H197 H 0.19912 0.34105 0.06673
 Zn198 Zn 0.24967 0.37600 0.00416
 N199 N 0.24261 0.35562 0.02938
 C200 C 0.28694 0.39383 0.03248
 N201 N 0.27561 0.39547 0.01150
 C202 C 0.28152 0.41222 -0.00444
 C203 C 0.29962 0.42806 0.00035
 C204 C 0.30517 0.40935 0.03798
 C205 C 0.23943 0.34104 -0.02866
 C206 C 0.24250 0.32694 -0.04853
 C207 C 0.28030 0.34522 -0.05475
 C208 C 0.27653 0.35900 -0.03472
 N209 N 0.25613 0.35699 -0.02241
 H210 H 0.28163 0.38079 0.04515
 H211 H 0.27192 0.41340 -0.02079
 H212 H 0.30408 0.44146 -0.01236
 H213 H 0.31398 0.40811 0.05479
 H214 H 0.22353 0.33961 -0.01838
 H215 H 0.22891 0.31462 -0.05366
 H216 H 0.29636 0.34720 -0.06474
 H217 H 0.28979 0.37141 -0.02920
 C218 C 0.23255 0.32329 0.06414
 C219 C 0.18870 0.42795 -0.01184
 C220 C 0.26302 0.32921 -0.06180
 C221 C 0.31149 0.42665 0.02178
 C222 C 0.72243 0.08752 -0.01155
 H223 H 0.73201 0.08734 -0.02797
 C224 C 0.70474 0.07098 -0.00756
 H225 H 0.70058 0.05806 -0.02094
 C226 C 0.71660 0.10405 0.02634
 H227 H 0.72159 0.11657 0.03973
 C228 C 0.69882 0.08785 0.03104
 H229 H 0.69003 0.08812 0.04793
 N230 N 0.72791 0.10369 0.00526
 C231 C 0.76240 0.16135 -0.03147
 H232 H 0.77862 0.16240 -0.02165
 C233 C 0.75786 0.17749 -0.04929
 H234 H 0.77063 0.19100 -0.05331
 C235 C 0.72556 0.14292 -0.03778
 H236 H 0.71282 0.12975 -0.03292
 C237 C 0.72032 0.15872 -0.05572
 H238 H 0.70364 0.15755 -0.06478
 Zn239 Zn 0.75323 0.12442 -0.00063
 N240 N 0.74637 0.14444 -0.02614
 C241 C 0.79136 0.10730 -0.02811
 N242 N 0.77975 0.10559 -0.00727
 C243 C 0.78571 0.08911 0.00890
 C244 C 0.80410 0.07355 0.00444
 C245 C 0.80986 0.09206 -0.03327
 C246 C 0.74131 0.15931 0.03163
 C247 C 0.74357 0.17373 0.05138
 C248 C 0.78164 0.15660 0.05866
 C249 C 0.77868 0.14247 0.03872
 N250 N 0.75855 0.14378 0.02594
 H251 H 0.78599 0.12009 -0.04097
 H252 H 0.77589 0.08785 0.02512
 H253 H 0.80856 0.06030 0.01728
 H254 H 0.81884 0.09330 -0.05001
 H255 H 0.72563 0.16017 0.02097
 H256 H 0.72956 0.18573 0.05604
 H257 H 0.79751 0.15521 0.06901
 H258 H 0.79237 0.13038 0.03364
 C259 C 0.73660 0.17618 -0.06146
 C260 C 0.69289 0.07115 0.01397
 C261 C 0.76382 0.17221 0.06512
 C262 C 0.81620 0.07498 -0.01689
 C263 C 0.22180 0.58985 0.48722
 H264 H 0.23320 0.58775 0.47215
 C265 C 0.20207 0.57551 0.48968
 H266 H 0.19816 0.56235 0.47644
 C267 C 0.21287 0.60963 0.52289
 H268 H 0.21723 0.62280 0.53587
 C269 C 0.19295 0.59564 0.52602
 H270 H 0.18189 0.59823 0.54130
 N271 N 0.22660 0.60676 0.50350
 C272 C 0.26616 0.66029 0.46580
 H273 H 0.28142 0.66179 0.47701
 C274 C 0.26426 0.67430 0.44582
 H275 H 0.27812 0.68659 0.44152
 C276 C 0.22940 0.64244 0.45764
 H277 H 0.21573 0.63020 0.46240
 C278 C 0.22681 0.65613 0.43750
 H279 H 0.21128 0.65421 0.42668
 Zn280 Zn 0.25332 0.62580 0.49824
 N281 N 0.24905 0.64446 0.47109
 C282 C 0.29271 0.60648 0.47434
 N283 N 0.27944 0.60561 0.49423
 C284 C 0.28439 0.59017 0.51173
 C285 C 0.30397 0.57552 0.51005
 C286 C 0.31241 0.59213 0.47196
 C287 C 0.24222 0.66352 0.52814
 C288 C 0.24588 0.68011 0.54594
 C289 C 0.28313 0.66178 0.55436
 C290 C 0.27880 0.64556 0.53642
 N291 N 0.25854 0.64661 0.52380
 H292 H 0.28819 0.61839 0.46036
 H293 H 0.27335 0.58960 0.52719
 H294 H 0.30810 0.56365 0.52428
 H295 H 0.32315 0.59324 0.45628
 H296 H 0.22649 0.66425 0.51754
 H297 H 0.23291 0.69363 0.54917
 H298 H 0.29939 0.66094 0.56418
 H299 H 0.29186 0.63247 0.53234
 C300 C 0.24448 0.67206 0.43147
 C301 C 0.18743 0.57857 0.50916
 C302 C 0.26657 0.67924 0.55912
 C303 C 0.31821 0.57670 0.49008
 C304 C 0.71607 0.90863 0.51399
 H305 H 0.72633 0.90990 0.52994
 C306 C 0.69632 0.92276 0.51109
 H307 H 0.69126 0.93494 0.52486
 C308 C 0.71006 0.89114 0.47656
 H309 H 0.71557 0.87894 0.46308
 C310 C 0.69015 0.90497 0.47295
 H311 H 0.68025 0.90323 0.45679
 N312 N 0.72232 0.89294 0.49701
 C313 C 0.75986 0.83782 0.53421
 H314 H 0.77638 0.83783 0.52484
 C315 C 0.75578 0.82134 0.55187
 H316 H 0.76921 0.80865 0.55622
 C317 C 0.72178 0.85376 0.53947
 H318 H 0.70835 0.86602 0.53425
 C319 C 0.71699 0.83760 0.55723
 H320 H 0.70000 0.83764 0.56577
 Zn321 Zn 0.74902 0.87417 0.50300
 N322 N 0.74298 0.85366 0.52843
 C323 C 0.78560 0.89365 0.53106
 N324 N 0.77414 0.89478 0.51011
 C325 C 0.77944 0.91161 0.49404
 C326 C 0.79707 0.92805 0.49865
 C327 C 0.80336 0.90976 0.53637
 C328 C 0.74058 0.83816 0.47061
 C329 C 0.74556 0.82247 0.45237
 C330 C 0.78296 0.84178 0.44699
 C331 C 0.77729 0.85713 0.46535
 N332 N 0.75635 0.85510 0.47669
 H333 H 0.78078 0.88053 0.54383
 H334 H 0.76978 0.91234 0.47770
 H335 H 0.80109 0.94146 0.48582
 H336 H 0.81231 0.90887 0.55313
 H337 H 0.72427 0.83667 0.48022
 H338 H 0.73302 0.80887 0.44781
 H339 H 0.79977 0.84330 0.43822
 H340 H 0.78983 0.87030 0.47079
 C341 C 0.73411 0.82121 0.56341
 C342 C 0.68315 0.92079 0.49046
 C343 C 0.76698 0.82424 0.44053
 C344 C 0.80910 0.92712 0.52003
 C345 C 0.01009 0.21690 0.41282
 H346 H 0.02651 0.22646 0.41279
 C347 C 0.00603 0.19956 0.42966
 H348 H 0.01937 0.19566 0.44261
 C349 C -0.02771 0.21073 0.39649
 H350 H -0.04105 0.21546 0.38392
 C351 C -0.03247 0.19329 0.41299
 H352 H -0.04934 0.18450 0.41289
 N353 N -0.00664 0.22204 0.39659
 C354 C 0.02985 0.25501 0.33779
 H355 H 0.01983 0.27105 0.33633
 C356 C 0.04770 0.25018 0.32167
 H357 H 0.05154 0.26256 0.30778
 C358 C 0.03668 0.21890 0.35723
 H359 H 0.03203 0.20654 0.37081
 C360 C 0.05467 0.21338 0.34146
 H361 H 0.06396 0.19688 0.34306
 Zn362 Zn -0.00071 0.24682 0.37526
 N363 N 0.02478 0.23950 0.35520
 C364 C 0.02581 0.28669 0.39037
 N365 N 0.00571 0.27407 0.39332
 C366 C -0.01052 0.28035 0.40972
 C367 C -0.00724 0.30046 0.42343
 C368 C 0.02978 0.30696 0.40373
 C369 C -0.03348 0.23422 0.34084
 C370 C -0.05324 0.23656 0.32654
 C371 C -0.05937 0.27534 0.34283
 C372 C -0.03950 0.27228 0.35684
 N373 N -0.02727 0.25178 0.35592
 H374 H 0.03873 0.28115 0.37763
 H375 H -0.02618 0.26981 0.41191
 H376 H -0.02043 0.30553 0.43619
 H377 H 0.04564 0.31712 0.40108
 H378 H -0.02324 0.21825 0.34022
 H379 H -0.05832 0.22234 0.31490
 H380 H -0.06924 0.29155 0.34391
 H381 H -0.03400 0.28625 0.36847
 C382 C 0.06018 0.22915 0.32351
 C383 C -0.01548 0.18770 0.42974
 C384 C -0.06639 0.25723 0.32771
 C385 C 0.01301 0.31397 0.42028
 C386 C -0.00836 0.71935 0.08776
 H387 H -0.02458 0.72919 0.08780
 C388 C -0.00487 0.70147 0.07123
 H389 H -0.01845 0.69744 0.05852
 C390 C 0.02955 0.71305 0.10370
 H391 H 0.04315 0.71794 0.11598
 C392 C 0.03373 0.69506 0.08750
 H393 H 0.05044 0.68602 0.08753
 N394 N 0.00871 0.72470 0.10363
 C395 C -0.02656 0.76026 0.16182
 H396 H -0.01646 0.77635 0.16261
 C397 C -0.04421 0.75612 0.17833
 H398 H -0.04781 0.76907 0.19186
 C399 C -0.03378 0.72336 0.14368
 H400 H -0.02935 0.71044 0.13047
 C401 C -0.05157 0.71853 0.15985
 H402 H -0.06094 0.70198 0.15893
 Zn403 Zn 0.00351 0.75033 0.12430
 N404 N -0.02176 0.74402 0.14489
 C405 C -0.02356 0.78870 0.10745
 N406 N -0.00298 0.77676 0.10538
 C407 C 0.01298 0.78231 0.08849
 C408 C 0.00859 0.80063 0.07288
 C409 C -0.02865 0.80715 0.09217
 C410 C 0.03609 0.73841 0.15868
 C411 C 0.05604 0.74064 0.17272
 C412 C 0.06353 0.77846 0.15509
 C413 C 0.04341 0.77553 0.14135
 N414 N 0.03041 0.75553 0.14309
 H415 H -0.03627 0.78366 0.12058
 H416 H 0.02898 0.77223 0.08696
 H417 H 0.02127 0.80477 0.05932
 H418 H -0.04518 0.81640 0.09371
 H419 H 0.02526 0.72284 0.15990
 H420 H 0.06067 0.72673 0.18479
 H421 H 0.07404 0.79423 0.15337
 H422 H 0.03834 0.78915 0.12923
 C423 C -0.05677 0.73504 0.17735
 C424 C 0.01641 0.68929 0.07109
 C425 C 0.06997 0.76075 0.17076
 C426 C -0.01246 0.81307 0.07469
 C427 C 0.49022 0.21915 0.58977
 H428 H 0.47506 0.23041 0.58804
 C429 C 0.49250 0.19935 0.57540
 H430 H 0.47902 0.19526 0.56259
 C431 C 0.52632 0.21063 0.60861
 H432 H 0.53955 0.21518 0.62142
 C433 C 0.52928 0.19065 0.59458
 H434 H 0.54467 0.17974 0.59677
 N435 N 0.50681 0.22418 0.60624
 C436 C 0.47007 0.26407 0.66044
 H437 H 0.48127 0.27939 0.66157
 C438 C 0.45037 0.26227 0.67491
 H439 H 0.44628 0.27626 0.68720
 C440 C 0.46164 0.22709 0.64303
 H441 H 0.46620 0.21330 0.63079
 C442 C 0.44177 0.22458 0.65719
 H443 H 0.43094 0.20900 0.65562
 Zn444 Zn 0.50185 0.25103 0.62530
 N445 N 0.47509 0.24681 0.64460
 C446 C 0.47762 0.29022 0.60633
 N447 N 0.49748 0.27701 0.60510
 C448 C 0.51472 0.28196 0.58930
 C449 C 0.51282 0.30148 0.57464
 C450 C 0.47502 0.30987 0.59200
 C451 C 0.53242 0.24022 0.66233
 C452 C 0.55044 0.24406 0.67854
 C453 C 0.55832 0.28138 0.66006
 C454 C 0.54016 0.27686 0.64421
 N455 N 0.52771 0.25648 0.64552
 H456 H 0.46384 0.28570 0.61852
 H457 H 0.53016 0.27096 0.58845
 H458 H 0.52684 0.30562 0.56249
 H459 H 0.45938 0.32058 0.59341
 H460 H 0.52194 0.22439 0.66329
 H461 H 0.55397 0.23113 0.69199
 H462 H 0.56799 0.29774 0.65904
 H463 H 0.53578 0.28988 0.63122
 C464 C 0.43601 0.24242 0.67313
 C465 C 0.51212 0.18490 0.57795
 C466 C 0.56345 0.26487 0.67740
 C467 C 0.49288 0.31568 0.57621
 C468 C 0.50816 0.71572 0.91122
 H469 H 0.52482 0.72483 0.91153
 C470 C 0.50357 0.69803 0.92751
 H471 H 0.51676 0.69341 0.94038
 C472 C 0.47026 0.71111 0.89459
 H473 H 0.45716 0.71659 0.88207
 C474 C 0.46496 0.69331 0.91058
 H475 H 0.44785 0.68500 0.91021
 N476 N 0.49162 0.72184 0.89515
 C477 C 0.53024 0.75596 0.83859
 H478 H 0.52108 0.77257 0.83798
 C479 C 0.54800 0.75113 0.82238
 H480 H 0.55263 0.76407 0.80926
 C481 C 0.53495 0.71847 0.85597
 H482 H 0.52950 0.70561 0.86876
 C483 C 0.55282 0.71293 0.84007
 H484 H 0.56122 0.69590 0.84078
 Zn485 Zn 0.49877 0.74729 0.87510
 N486 N 0.52415 0.73975 0.85501
 C487 C 0.52783 0.78374 0.89339
 N488 N 0.50645 0.77312 0.89466
 C489 C 0.49034 0.77969 0.91108
 C490 C 0.49542 0.79773 0.92699
 C491 C 0.53361 0.80187 0.90897
 C492 C 0.46638 0.73805 0.83943
 C493 C 0.44855 0.74286 0.82335
 C494 C 0.44456 0.78149 0.84064
 C495 C 0.46248 0.77598 0.85641
 N496 N 0.47295 0.75452 0.85555
 H497 H 0.54060 0.77791 0.88062
 H498 H 0.47365 0.77067 0.91196
 H499 H 0.48258 0.80272 0.94013
 H500 H 0.55074 0.81009 0.90803
 H501 H 0.47530 0.72131 0.83887
 H502 H 0.44361 0.72976 0.81040
 H503 H 0.43650 0.79871 0.84121
 H504 H 0.46833 0.78903 0.86893
 C505 C 0.55934 0.72940 0.82310
 C506 C 0.48175 0.68680 0.92723
 C507 C 0.43763 0.76482 0.82391
 C508 C 0.51728 0.80885 0.92596
 C509 C 0.10994 0.21288 0.27411
 C510 C 0.11361 0.22828 0.25497
 C511 C 0.12965 0.22208 0.23686
 C512 C 0.14189 0.20049 0.23796
 C513 C 0.13865 0.18536 0.25737
 C514 C 0.12263 0.19158 0.27551
 C515 C 0.11962 0.17613 0.29469
 C516 C 0.13211 0.15515 0.29594
 C517 C 0.14776 0.14907 0.27819
 C518 C 0.15104 0.16392 0.25907
 C519 C 0.13299 0.23772 0.21788
 C520 C 0.12083 0.25888 0.21681
 C521 C 0.10511 0.26494 0.23450
 C522 C 0.10146 0.24988 0.25340
 C523 C 0.15732 0.19362 0.21884
 C524 C 0.16987 0.18788 0.20274
 C525 C 0.09266 0.21868 0.29198
 C526 C 0.07801 0.22346 0.30652
 H527 H 0.10767 0.18011 0.30894
 H528 H 0.12962 0.14354 0.31075
 H529 H 0.15741 0.13275 0.27923
 H530 H 0.16340 0.15844 0.24571
 H531 H 0.14507 0.23380 0.20373
 H532 H 0.12362 0.27065 0.20218
 H533 H 0.09569 0.28140 0.23359
 H534 H 0.08910 0.25539 0.26676
 C535 C 0.60863 0.71325 0.77322
 C536 C 0.60964 0.72669 0.75236
 C537 C 0.62563 0.72041 0.73422
 C538 C 0.64054 0.70077 0.73707
 C539 C 0.63991 0.68766 0.75815
 C540 C 0.62388 0.69390 0.77626
 C541 C 0.62346 0.68043 0.79711
 C542 C 0.63849 0.66139 0.79999
 C543 C 0.65420 0.65532 0.78230
 C544 C 0.65496 0.66823 0.76157
 C545 C 0.62622 0.73400 0.71346
 C546 C 0.61149 0.75329 0.71072
 C547 C 0.59588 0.75946 0.72847
 C548 C 0.59487 0.74636 0.74907
 C549 C 0.65613 0.69374 0.71814
 C550 C 0.66888 0.68772 0.70231
 C551 C 0.59152 0.71901 0.79125
 C552 C 0.57701 0.72375 0.80594
 H553 H 0.61157 0.68450 0.81139
 H554 H 0.63796 0.65130 0.81606
 H555 H 0.66586 0.64053 0.78463
 H556 H 0.66749 0.66287 0.74832
 H557 H 0.63806 0.72989 0.69916
 H558 H 0.61219 0.76350 0.69473
 H559 H 0.58447 0.77446 0.72626
 H560 H 0.58244 0.75186 0.76238
 C561 C 0.38916 0.78172 0.77368
 C562 C 0.38832 0.76852 0.75254
 C563 C 0.37292 0.77537 0.73417
 C564 C 0.35843 0.79534 0.73707
 C565 C 0.35879 0.80815 0.75845
 C566 C 0.37423 0.80134 0.77680
 C567 C 0.37442 0.81453 0.79794
 C568 C 0.35973 0.83386 0.80089
 C569 C 0.34460 0.84049 0.78297
 C570 C 0.34407 0.82785 0.76195
 C571 C 0.37252 0.76203 0.71313
 C572 C 0.38687 0.74243 0.71033
 C573 C 0.40190 0.73570 0.72830
 C574 C 0.40270 0.74854 0.74919
 C575 C 0.34363 0.80307 0.71786
 C576 C 0.33158 0.80970 0.70180
 C577 C 0.40589 0.77555 0.79186
 C578 C 0.42015 0.77059 0.80666
 H579 H 0.38585 0.81002 0.81240
 H580 H 0.36007 0.84373 0.81718
 H581 H 0.33319 0.85549 0.78536
 H582 H 0.33198 0.83365 0.74854
 H583 H 0.36113 0.76657 0.69866
 H584 H 0.38632 0.73241 0.69413
 H585 H 0.41301 0.72046 0.72605
 H586 H 0.41466 0.74260 0.76267
 C587 C -0.12683 0.26316 0.28937
 C588 C -0.13349 0.24483 0.27384
 C589 C -0.15527 0.24601 0.26177
 C590 C -0.17024 0.26555 0.26525
 C591 C -0.16335 0.28412 0.28036
 C592 C -0.14159 0.28292 0.29248
 C593 C -0.13514 0.30164 0.30761
 C594 C -0.14976 0.32101 0.31064
 C595 C -0.17102 0.32220 0.29876
 C596 C -0.17783 0.30401 0.28378
 C597 C -0.16164 0.22739 0.24648
 C598 C -0.14686 0.20820 0.24312
 C599 C -0.12554 0.20707 0.25489
 C600 C -0.11884 0.22511 0.27011
 C601 C -0.19287 0.26629 0.25361
 C602 C -0.21173 0.26662 0.24403
 C603 C -0.10516 0.26136 0.30262
 C604 C -0.08736 0.25960 0.31390
 H605 H -0.11875 0.30153 0.31720
 H606 H -0.14455 0.33518 0.32226
 H607 H -0.18231 0.33730 0.30115
 H608 H -0.19450 0.30574 0.27489
 H609 H -0.17806 0.22746 0.23697
 H610 H -0.15201 0.19413 0.23135
 H611 H -0.11411 0.19212 0.25223
 H612 H -0.10208 0.22343 0.27885
 C613 C -0.10587 0.71985 0.22761
 C614 C -0.12124 0.70053 0.22446
 C615 C -0.13711 0.69423 0.24265
 C616 C -0.13747 0.70725 0.26390
 C617 C -0.12252 0.72692 0.26683
 C618 C -0.10668 0.73325 0.24862
 C619 C -0.09183 0.75293 0.25199
 C620 C -0.09264 0.76599 0.27275
 C621 C -0.10813 0.75978 0.29055
 C622 C -0.12292 0.74047 0.28773
 C623 C -0.15228 0.67482 0.23912
 C624 C -0.15176 0.66198 0.21823
 C625 C -0.13620 0.66811 0.20046
 C626 C -0.12107 0.68714 0.20344
 C627 C -0.15278 0.70003 0.28294
 C628 C -0.16532 0.69374 0.29879
 C629 C -0.08880 0.72552 0.20956
 C630 C -0.07434 0.72998 0.19476
 H631 H -0.07951 0.75847 0.23863
 H632 H -0.08118 0.78100 0.27502
 H633 H -0.10868 0.76997 0.30665
 H634 H -0.13467 0.73633 0.30207
 H635 H -0.16472 0.66942 0.25241
 H636 H -0.16351 0.64721 0.21582
 H637 H -0.13586 0.65808 0.18426
 H638 H -0.10932 0.69126 0.18909
 C639 C 0.37584 0.23813 0.71226
 C640 C 0.35999 0.21929 0.70856
 C641 C 0.33833 0.21871 0.72094
 C642 C 0.33263 0.23699 0.73688
 C643 C 0.34872 0.25552 0.74099
 C644 C 0.37040 0.25609 0.72866
 C645 C 0.38617 0.27484 0.73300
 C646 C 0.38067 0.29252 0.74910
 C647 C 0.35946 0.29197 0.76115
 C648 C 0.34359 0.27374 0.75720
 C649 C 0.32274 0.19974 0.71693
 C650 C 0.32838 0.18185 0.70114
 C651 C 0.34954 0.18244 0.68901
 C652 C 0.36523 0.20090 0.69260
 C653 C 0.31001 0.23702 0.74860
 C654 C 0.29110 0.23718 0.75811
 C655 C 0.39741 0.23937 0.69872
 C656 C 0.41512 0.24064 0.68720
 H657 H 0.40289 0.27603 0.72407
 H658 H 0.39294 0.30672 0.75222
 H659 H 0.35526 0.30574 0.77362
 H660 H 0.32732 0.27407 0.76698
 H661 H 0.30610 0.19849 0.72599
 H662 H 0.31626 0.16746 0.69832
 H663 H 0.35384 0.16850 0.67675
 H664 H 0.38150 0.20056 0.68279
 C665 C 0.61361 0.28058 0.72651
 C666 C 0.61742 0.26563 0.74595
 C667 C 0.63356 0.27232 0.76380
 C668 C 0.64574 0.29394 0.76214
 C669 C 0.64240 0.30859 0.74240
 C670 C 0.62630 0.30189 0.72452
 C671 C 0.62317 0.31689 0.70500
 C672 C 0.63562 0.33789 0.70319
 C673 C 0.65135 0.34445 0.72069
 C674 C 0.65475 0.33005 0.74012
 C675 C 0.63704 0.25712 0.78310
 C676 C 0.62490 0.23593 0.78473
 C677 C 0.60908 0.22941 0.76729
 C678 C 0.60530 0.24403 0.74809
 C679 C 0.66122 0.30138 0.78100
 C680 C 0.67381 0.30768 0.79685
 C681 C 0.59615 0.27445 0.70895
 C682 C 0.58137 0.26980 0.69451
 H683 H 0.61116 0.31253 0.69092
 H684 H 0.63304 0.34913 0.68813
 H685 H 0.66096 0.36079 0.71922
 H686 H 0.66716 0.33590 0.75328
 H687 H 0.64920 0.26141 0.79706
 H688 H 0.62781 0.22450 0.79959
 H689 H 0.59970 0.21293 0.76864
 H690 H 0.59286 0.23818 0.73494
 C691 C 0.13087 0.76503 0.20864
 C692 C 0.13662 0.74668 0.22433
 C693 C 0.15851 0.74697 0.23627
 C694 C 0.17450 0.76562 0.23246
 C695 C 0.16851 0.78427 0.21725
 C696 C 0.14664 0.78396 0.20527
 C697 C 0.14110 0.80272 0.19002
 C698 C 0.15672 0.82128 0.18674
 C699 C 0.17809 0.82161 0.19849
 C700 C 0.18401 0.80336 0.21358
 C701 C 0.16394 0.72837 0.25175
 C702 C 0.14816 0.71002 0.25539
 C703 C 0.12675 0.70974 0.24372
 C704 C 0.12095 0.72780 0.22834
 C705 C 0.19731 0.76535 0.24377
 C706 C 0.21638 0.76507 0.25293
 C707 C 0.10908 0.76405 0.19548
 C708 C 0.09115 0.76281 0.18432
 H709 H 0.12467 0.80327 0.18053
 H710 H 0.15219 0.83550 0.17503
 H711 H 0.19014 0.83608 0.19592
 H712 H 0.20080 0.80441 0.22238
 H713 H 0.18038 0.72782 0.26121
 H714 H 0.15259 0.69595 0.26731
 H715 H 0.11455 0.69545 0.24660
 H716 H 0.10407 0.72681 0.21970
 C717 C 0.27521 0.10916 0.21589
 C718 C 0.27632 0.12176 0.19452
 C719 C 0.25787 0.13731 0.18835
 C720 C 0.23844 0.14020 0.20360
 C721 C 0.23761 0.12807 0.22524
 C722 C 0.25604 0.11248 0.23140
 C723 C 0.25474 0.10042 0.25306
 C724 C 0.23580 0.10371 0.26822
 C725 C 0.21780 0.11898 0.26221
 C726 C 0.21860 0.13106 0.24099
 C727 C 0.25928 0.14959 0.16682
 C728 C 0.27841 0.14664 0.15184
 C729 C 0.29646 0.13145 0.15789
 C730 C 0.29552 0.11909 0.17895
 C731 C 0.21905 0.15519 0.19677
 C732 C 0.20281 0.16739 0.19094
 C733 C 0.29338 0.09227 0.22159
 C734 C 0.30819 0.07792 0.22619
 H735 H 0.26834 0.08839 0.25854
 H736 H 0.23510 0.09436 0.28473
 H737 H 0.20314 0.12150 0.27406
 H738 H 0.20422 0.14278 0.23710
 H739 H 0.24565 0.16157 0.16135
 H740 H 0.27921 0.15619 0.13545
 H741 H 0.31129 0.12922 0.14619
 H742 H 0.31000 0.10749 0.18290
 C743 C 0.77315 0.60788 0.71803
 C744 C 0.77662 0.62397 0.69943
 C745 C 0.75834 0.63964 0.69305
 C746 C 0.73669 0.63908 0.70525
 C747 C 0.73343 0.62341 0.72422
 C748 C 0.75173 0.60778 0.73065
 C749 C 0.74804 0.59222 0.74963
 C750 C 0.72688 0.59212 0.76192
 C751 C 0.70898 0.60739 0.75561
 C752 C 0.71211 0.62287 0.73698
 C753 C 0.76219 0.65554 0.67438
 C754 C 0.78347 0.65593 0.66233
 C755 C 0.80133 0.64056 0.66853
 C756 C 0.79804 0.62472 0.68685
 C757 C 0.71761 0.65419 0.69789
 C758 C 0.70170 0.66655 0.69153
 C759 C 0.79131 0.59097 0.72365
 C760 C 0.80623 0.57664 0.72795
 H761 H 0.76146 0.58003 0.75521
 H762 H 0.72436 0.58012 0.77640
 H763 H 0.69257 0.60722 0.76519
 H764 H 0.69769 0.63441 0.73272
 H765 H 0.74884 0.66785 0.66896
 H766 H 0.78612 0.66822 0.64812
 H767 H 0.81783 0.64093 0.65912
 H768 H 0.81247 0.61316 0.69106
 C769 C 0.77867 0.38680 0.78059
 C770 C 0.75948 0.38277 0.76528
 C771 C 0.74122 0.36714 0.77201
 C772 C 0.74225 0.35567 0.79400
 C773 C 0.76174 0.35920 0.80902
 C774 C 0.78002 0.37480 0.80228
 C775 C 0.79928 0.37813 0.81764
 C776 C 0.80046 0.36635 0.83902
 C777 C 0.78258 0.35111 0.84561
 C778 C 0.76339 0.34753 0.83086
 C779 C 0.72217 0.36346 0.75647
 C780 C 0.72117 0.37490 0.73490
 C781 C 0.73900 0.39021 0.72834
 C782 C 0.75797 0.39418 0.74329
 C783 C 0.72296 0.34078 0.80145
 C784 C 0.70678 0.32869 0.80778
 C785 C 0.79654 0.40389 0.77438
 C786 C 0.81103 0.41848 0.76935
 H787 H 0.81364 0.38978 0.81326
 H788 H 0.81533 0.36908 0.85054
 H789 H 0.78356 0.34203 0.86225
 H790 H 0.74991 0.33553 0.83675
 H791 H 0.70792 0.35167 0.76078
 H792 H 0.70649 0.37184 0.72322
 H793 H 0.73814 0.39906 0.71157
 H794 H 0.77144 0.40620 0.73738
 C795 C 0.29274 -0.12743 0.26216
 C796 C 0.27740 -0.13392 0.24368
 C797 C 0.26568 -0.15596 0.24429
 C798 C 0.26934 -0.17134 0.26342
 C799 C 0.28424 -0.16461 0.28218
 C800 C 0.29601 -0.14260 0.28154
 C801 C 0.31094 -0.13632 0.30042
 C802 C 0.31412 -0.15135 0.31941
 C803 C 0.30257 -0.17285 0.32006
 C804 C 0.28779 -0.17950 0.30170
 C805 C 0.25057 -0.16216 0.22553
 C806 C 0.24705 -0.14697 0.20673
 C807 C 0.25847 -0.12540 0.20615
 C808 C 0.27351 -0.11887 0.22434
 C809 C 0.25812 -0.19423 0.26357
 C810 C 0.24891 -0.21330 0.26351
 C811 C 0.30571 -0.10552 0.26088
 C812 C 0.31678 -0.08752 0.25949
 H813 H 0.32026 -0.11975 0.30073
 H814 H 0.32559 -0.14626 0.33372
 H815 H 0.30507 -0.18445 0.33487
 H816 H 0.27916 -0.19638 0.30301
 H817 H 0.24132 -0.17875 0.22518
 H818 H 0.23542 -0.15198 0.19253
 H819 H 0.25568 -0.11366 0.19150
 H820 H 0.28198 -0.10190 0.22311
 C821 C 0.23046 -0.10630 0.71653
 C822 C 0.25161 -0.10718 0.72954
 C823 C 0.26942 -0.12343 0.72311
 C824 C 0.26595 -0.13874 0.70375
 C825 C 0.24459 -0.13822 0.69106
 C826 C 0.22681 -0.12193 0.69745
 C827 C 0.20567 -0.12164 0.68440
 C828 C 0.20219 -0.13704 0.66562
 C829 C 0.21957 -0.15300 0.65941
 C830 C 0.24056 -0.15365 0.67191
 C831 C 0.29048 -0.12389 0.73627
 C832 C 0.29383 -0.10876 0.75529
 C833 C 0.27640 -0.09289 0.76161
 C834 C 0.25551 -0.09202 0.74893
 C835 C 0.28451 -0.15465 0.69657
 C836 C 0.30002 -0.16768 0.69044
 C837 C 0.21272 -0.08898 0.72242
 C838 C 0.19818 -0.07435 0.72715
 H839 H 0.19162 -0.10957 0.68860
 H840 H 0.18591 -0.13659 0.65585
 H841 H 0.21678 -0.16495 0.64482
 H842 H 0.25354 -0.16640 0.66646
 H843 H 0.30454 -0.13591 0.73203
 H844 H 0.31004 -0.10935 0.76517
 H845 H 0.27909 -0.08118 0.77640
 H846 H 0.24247 -0.07939 0.75453
 C847 C 0.71199 0.37428 0.23388
 C848 C 0.70796 0.35838 0.21510
 C849 C 0.71997 0.33653 0.21444
 C850 C 0.73590 0.33069 0.23257
 C851 C 0.74037 0.34683 0.25103
 C852 C 0.72840 0.36870 0.25168
 C853 C 0.73309 0.38451 0.27037
 C854 C 0.74917 0.37887 0.28790
 C855 C 0.76086 0.35748 0.28727
 C856 C 0.75656 0.34157 0.26910
 C857 C 0.71561 0.32088 0.19554
 C858 C 0.69983 0.32665 0.17780
 C859 C 0.68806 0.34801 0.17846
 C860 C 0.69200 0.36376 0.19686
 C861 C 0.74720 0.30787 0.23257
 C862 C 0.75632 0.28878 0.23274
 C863 C 0.69879 0.39603 0.23530
 C864 C 0.68765 0.41394 0.23694
 H865 H 0.72445 0.40137 0.27162
 H866 H 0.75256 0.39118 0.30205
 H867 H 0.77332 0.35318 0.30093
 H868 H 0.76608 0.32516 0.26936
 H869 H 0.72437 0.30409 0.19424
 H870 H 0.69672 0.31449 0.16346
 H871 H 0.67582 0.35241 0.16464
 H872 H 0.68247 0.38017 0.19659
 C873 C 0.73250 0.61151 0.28106
 C874 C 0.72820 0.62783 0.29941
 C875 C 0.74606 0.64388 0.30632
 C876 C 0.76813 0.64347 0.29489
 C877 C 0.77224 0.62752 0.27618
 C878 C 0.75436 0.61151 0.26922
 C879 C 0.75890 0.59569 0.25052
 C880 C 0.78049 0.59569 0.23902
 C881 C 0.79799 0.61131 0.24585
 C882 C 0.79402 0.62706 0.26422
 C883 C 0.74139 0.66001 0.32473
 C884 C 0.71970 0.66026 0.33602
 C885 C 0.70224 0.64453 0.32931
 C886 C 0.70635 0.62846 0.31123
 C887 C 0.78675 0.65906 0.30271
 C888 C 0.80234 0.67180 0.30935
 C889 C 0.71472 0.59426 0.27492
 C890 C 0.70002 0.57971 0.27030
 H891 H 0.74582 0.58322 0.24456
 H892 H 0.78367 0.58348 0.22473
 H893 H 0.81475 0.61121 0.23688
 H894 H 0.80817 0.63885 0.26892
 H895 H 0.75440 0.67260 0.33053
 H896 H 0.71641 0.67273 0.35005
 H897 H 0.68542 0.64479 0.33814
 H898 H 0.69221 0.61662 0.30661
 C899 C 0.21321 0.13051 0.76678
 C900 C 0.22868 0.13673 0.74832
 C901 C 0.24086 0.15851 0.74917
 C902 C 0.23754 0.17392 0.76847
 C903 C 0.22255 0.16743 0.78721
 C904 C 0.21031 0.14567 0.78634
 C905 C 0.19529 0.13965 0.80520
 C906 C 0.19248 0.15467 0.82440
 C907 C 0.20449 0.17592 0.82526
 C908 C 0.21936 0.18233 0.80693
 C909 C 0.25610 0.16443 0.73045
 C910 C 0.25927 0.14923 0.71146
 C911 C 0.24738 0.12791 0.71065
 C912 C 0.23222 0.12165 0.72880
 C913 C 0.24913 0.19663 0.76880
 C914 C 0.25857 0.21559 0.76889
 C915 C 0.19983 0.10884 0.76528
 C916 C 0.18851 0.09101 0.76362
 H917 H 0.18563 0.12327 0.80535
 H918 H 0.18095 0.14977 0.83869
 H919 H 0.20228 0.18751 0.84023
 H920 H 0.22836 0.19900 0.80841
 H921 H 0.26572 0.18081 0.73029
 H922 H 0.27101 0.15403 0.69731
 H923 H 0.24990 0.11616 0.69586
 H924 H 0.22338 0.10487 0.72738
 C925 C 0.21621 0.27274 0.11246
 C926 C 0.23208 0.25409 0.11654
 C927 C 0.22577 0.23560 0.13202
 C928 C 0.20361 0.23584 0.14328
 C929 C 0.18796 0.25476 0.13962
 C930 C 0.19429 0.27328 0.12418
 C931 C 0.17832 0.29196 0.12074
 C932 C 0.15673 0.29234 0.13225
 C933 C 0.15054 0.27422 0.14733
 C934 C 0.16590 0.25559 0.15102
 C935 C 0.24189 0.21712 0.13579
 C936 C 0.26363 0.21689 0.12458
 C937 C 0.26979 0.23495 0.10941
 C938 C 0.25426 0.25337 0.10536
 C939 C 0.19671 0.21638 0.15817
 C940 C 0.19087 0.20008 0.17031
 C941 C 0.22215 0.29098 0.09571
 C942 C 0.22696 0.30586 0.08149
 H943 H 0.18236 0.30647 0.10920
 H944 H 0.14474 0.30678 0.12944
 H945 H 0.13374 0.27459 0.15621
 H946 H 0.16030 0.24190 0.16289
 H947 H 0.23791 0.20272 0.14748
 H948 H 0.27576 0.20264 0.12769
 H949 H 0.28669 0.23469 0.10073
 H950 H 0.25987 0.26704 0.09345
 C951 C 0.71840 0.77072 0.61199
 C952 C 0.73102 0.74932 0.61212
 C953 C 0.72426 0.73102 0.62763
 C954 C 0.70496 0.73426 0.64298
 C955 C 0.69274 0.75588 0.64332
 C956 C 0.69946 0.77416 0.62775
 C957 C 0.68686 0.79555 0.62828
 C958 C 0.66820 0.79882 0.64379
 C959 C 0.66167 0.78096 0.65905
 C960 C 0.67373 0.75970 0.65888
 C961 C 0.73701 0.70972 0.62730
 C962 C 0.75597 0.70660 0.61213
 C963 C 0.76261 0.72451 0.59699
 C964 C 0.75033 0.74565 0.59688
 C965 C 0.69733 0.71516 0.65799
 C966 C 0.69086 0.69915 0.67021
 C967 C 0.72439 0.78885 0.59515
 C968 C 0.72903 0.80371 0.58085
 H969 H 0.69132 0.80998 0.61679
 H970 H 0.65878 0.81530 0.64399
 H971 H 0.64719 0.78360 0.67109
 H972 H 0.66804 0.74635 0.67109
 H973 H 0.73250 0.69528 0.63874
 H974 H 0.76554 0.69020 0.61213
 H975 H 0.77734 0.72200 0.58524
 H976 H 0.75617 0.75907 0.58480
 C977 C 0.78435 0.77517 0.39067
 C978 C 0.77132 0.75401 0.38936
 C979 C 0.77828 0.73598 0.37348
 C980 C 0.79818 0.73925 0.35895
 C981 C 0.81083 0.76066 0.35980
 C982 C 0.80392 0.77866 0.37573
 C983 C 0.81695 0.79983 0.37639
 C984 C 0.83623 0.80314 0.36169
 C985 C 0.84297 0.78555 0.34609
 C986 C 0.83049 0.76451 0.34509
 C987 C 0.76510 0.71490 0.37263
 C988 C 0.74556 0.71174 0.38701
 C989 C 0.73873 0.72938 0.40251
 C990 C 0.75141 0.75030 0.40377
 C991 C 0.80598 0.72039 0.34360
 C992 C 0.81262 0.70456 0.33113
 C993 C 0.77807 0.79298 0.40789
 C994 C 0.77296 0.80743 0.42257
 H995 H 0.81235 0.81405 0.38820
 H996 H 0.84599 0.81946 0.36240
 H997 H 0.85794 0.78821 0.33469
 H998 H 0.83637 0.75136 0.33265
 H999 H 0.76974 0.70068 0.36087
 H1000 H 0.73569 0.69551 0.38612
 H1001 H 0.72354 0.72684 0.41364
 H1002 H 0.74539 0.76350 0.41609
 C1003 C 0.26897 0.29146 -0.12289
 C1004 C 0.28802 0.29517 -0.13843
 C1005 C 0.28860 0.28336 -0.16048
 C1006 C 0.27012 0.26797 -0.16686
 C1007 C 0.25137 0.26381 -0.15107
 C1008 C 0.25082 0.27557 -0.12900
 C1009 C 0.23185 0.27118 -0.11354
 C1010 C 0.21396 0.25564 -0.11971
 C1011 C 0.21448 0.24418 -0.14132
 C1012 C 0.23292 0.24817 -0.15690
 C1013 C 0.30777 0.28739 -0.17578
 C1014 C 0.32585 0.30266 -0.16948
 C1015 C 0.32526 0.31424 -0.14793
 C1016 C 0.30660 0.31061 -0.13251
 C1017 C 0.27008 0.25684 -0.18985
 C1018 C 0.26979 0.24777 -0.20903
 C1019 C 0.26757 0.30459 -0.10101
 C1020 C 0.26583 0.31571 -0.08302
 H1021 H 0.23068 0.27965 -0.09652
 H1022 H 0.19960 0.25248 -0.10767
 H1023 H 0.20052 0.23216 -0.14606
 H1024 H 0.23254 0.23888 -0.17351
 H1025 H 0.30902 0.27876 -0.19270
 H1026 H 0.34039 0.30552 -0.18138
 H1027 H 0.33934 0.32609 -0.14311
 H1028 H 0.30694 0.31996 -0.11592
 C1029 C 0.72044 0.22559 -0.11089
 C1030 C 0.73624 0.24426 -0.11537
 C1031 C 0.72991 0.26234 -0.13128
 C1032 C 0.70779 0.26166 -0.14257
 C1033 C 0.69220 0.24273 -0.13850
 C1034 C 0.69856 0.22462 -0.12263
 C1035 C 0.68265 0.20590 -0.11880
 C1036 C 0.66110 0.20509 -0.13032
 C1037 C 0.65487 0.22282 -0.14581
 C1038 C 0.67017 0.24148 -0.14991
 C1039 C 0.74597 0.28085 -0.13544
 C1040 C 0.76766 0.28150 -0.12419
 C1041 C 0.77385 0.26385 -0.10860
 C1042 C 0.75839 0.24540 -0.10416
 C1043 C 0.70087 0.28069 -0.15794
 C1044 C 0.69498 0.29661 -0.17051
 C1045 C 0.72638 0.20779 -0.09373
 C1046 C 0.73113 0.19324 -0.07917
 H1047 H 0.68672 0.19169 -0.10692
 H1048 H 0.64916 0.19064 -0.12720
 H1049 H 0.63810 0.22214 -0.15470
 H1050 H 0.66454 0.25486 -0.16209
 H1051 H 0.74196 0.29495 -0.14746
 H1052 H 0.77974 0.29578 -0.12761
 H1053 H 0.79072 0.26443 -0.09990
 H1054 H 0.76401 0.23205 -0.09193
 C1055 C 0.23985 0.70988 0.37062
 C1056 C 0.22091 0.70597 0.35498
 C1057 C 0.22018 0.71791 0.33311
 C1058 C 0.23843 0.73365 0.32700
 C1059 C 0.25709 0.73797 0.34286
 C1060 C 0.25779 0.72606 0.36475
 C1061 C 0.27666 0.73061 0.38028
 C1062 C 0.29432 0.74649 0.37436
 C1063 C 0.29364 0.75811 0.35295
 C1064 C 0.27529 0.75395 0.33730
 C1065 C 0.20111 0.71369 0.31774
 C1066 C 0.18325 0.69810 0.32379
 C1067 C 0.18397 0.68640 0.34516
 C1068 C 0.20254 0.69021 0.36064
 C1069 C 0.23825 0.74501 0.30423
 C1070 C 0.23826 0.75426 0.28520
 C1071 C 0.24122 0.69681 0.39242
 C1072 C 0.24259 0.68567 0.41033
 H1073 H 0.27795 0.72202 0.39715
 H1074 H 0.30861 0.74978 0.38646
 H1075 H 0.30741 0.77041 0.34842
 H1076 H 0.27554 0.76339 0.32085
 H1077 H 0.19976 0.72241 0.30095
 H1078 H 0.16878 0.69511 0.31183
 H1079 H 0.17006 0.67431 0.34978
 H1080 H 0.20230 0.68073 0.37708
 C1081 C 0.28181 0.72917 0.60884
 C1082 C 0.30025 0.72505 0.62497
 C1083 C 0.30707 0.74298 0.64104
 C1084 C 0.29546 0.76493 0.64084
 C1085 C 0.27662 0.76884 0.62514
 C1086 C 0.26975 0.75089 0.60911
 C1087 C 0.25093 0.75524 0.59352
 C1088 C 0.23921 0.77670 0.59377
 C1089 C 0.24594 0.79425 0.60943
 C1090 C 0.26444 0.79047 0.62496
 C1091 C 0.32559 0.73848 0.65695
 C1092 C 0.33707 0.71690 0.65698
 C1093 C 0.33044 0.69939 0.64123
 C1094 C 0.31226 0.70331 0.62537
 C1095 C 0.30331 0.78368 0.65632
 C1096 C 0.31005 0.79936 0.66894
 C1097 C 0.27580 0.71137 0.59149
 C1098 C 0.27130 0.69668 0.57685
 H1099 H 0.24504 0.74211 0.58104
 H1100 H 0.22484 0.77972 0.58175
 H1101 H 0.23681 0.81090 0.60955
 H1102 H 0.26904 0.80465 0.63680
 H1103 H 0.33134 0.75154 0.66955
 H1104 H 0.35117 0.71375 0.66929
 H1105 H 0.33941 0.68265 0.64132
 H1106 H 0.30770 0.68913 0.61350
 C1107 C 0.76795 0.21108 0.12565
 C1108 C 0.78671 0.20781 0.14159
 C1109 C 0.78686 0.22005 0.16341
 C1110 C 0.76821 0.23543 0.16917
 C1111 C 0.74976 0.23917 0.15298
 C1112 C 0.74963 0.22696 0.13114
 C1113 C 0.73094 0.23090 0.11528
 C1114 C 0.71290 0.24647 0.12083
 C1115 C 0.71303 0.25839 0.14219
 C1116 C 0.73119 0.25484 0.15816
 C1117 C 0.80577 0.21648 0.17909
 C1118 C 0.82400 0.20121 0.17341
 C1119 C 0.82383 0.18918 0.15210
 C1120 C 0.80544 0.19237 0.13630
 C1121 C 0.76770 0.24694 0.19197
 C1122 C 0.76719 0.25624 0.21103
 C1123 C 0.76707 0.19758 0.10398
 C1124 C 0.76587 0.18612 0.08616
 H1125 H 0.73008 0.22206 0.09843
 H1126 H 0.69875 0.24929 0.10849
 H1127 H 0.69897 0.27046 0.14643
 H1128 H 0.73052 0.26451 0.17454
 H1129 H 0.80670 0.22549 0.19583
 H1130 H 0.83835 0.19871 0.18559
 H1131 H 0.83804 0.17733 0.14776
 H1132 H 0.80611 0.18268 0.11992
 C1133 C 0.48793 0.37648 0.53845
 C1134 C 0.50330 0.38099 0.51943
 C1135 C 0.50247 0.40299 0.50777
 C1136 C 0.48635 0.42037 0.51525
 C1137 C 0.47061 0.41567 0.53391
 C1138 C 0.47138 0.39364 0.54553
 C1139 C 0.45551 0.38937 0.56418
 C1140 C 0.43935 0.40637 0.57115
 C1141 C 0.43863 0.42792 0.55981
 C1142 C 0.45405 0.43262 0.54141
 C1143 C 0.51803 0.40712 0.48883
 C1144 C 0.53396 0.39001 0.48162
 C1145 C 0.53480 0.36851 0.49305
 C1146 C 0.51969 0.36395 0.51176
 C1147 C 0.48630 0.44325 0.50414
 C1148 C 0.48639 0.46237 0.49513
 C1149 C 0.48962 0.35455 0.55124
 C1150 C 0.49109 0.33664 0.56235
 H1151 H 0.45537 0.37286 0.57353
 H1152 H 0.42733 0.40280 0.58544
 H1153 H 0.42607 0.44108 0.56531
 H1154 H 0.45283 0.44964 0.53315
 H1155 H 0.51800 0.42356 0.47937
 H1156 H 0.54571 0.39345 0.46708
 H1157 H 0.54721 0.35527 0.48739
 H1158 H 0.52095 0.34695 0.52007
 C1159 C -0.02815 0.86309 0.02571
 C1160 C -0.01251 0.86694 0.00676
 C1161 C -0.01869 0.88277 -0.01144
 C1162 C -0.04048 0.89463 -0.01060
 C1163 C -0.05584 0.89128 0.00866
 C1164 C -0.04965 0.87547 0.02689
 C1165 C -0.06534 0.87232 0.04591
 C1166 C -0.08653 0.88447 0.04691
 C1167 C -0.09259 0.89991 0.02908
 C1168 C -0.07750 0.90332 0.01012
 C1169 C -0.00281 0.88627 -0.03025
 C1170 C 0.01855 0.87445 -0.03107
 C1171 C 0.02458 0.85893 -0.01329
 C1172 C 0.00930 0.85514 0.00544
 C1173 C -0.04736 0.90977 -0.02985
 C1174 C -0.05316 0.92206 -0.04602
 C1175 C -0.02248 0.84583 0.04352
 C1176 C -0.01787 0.83111 0.05794
 H1177 H -0.06137 0.86052 0.06022
 H1178 H -0.09831 0.88187 0.06160
 H1179 H -0.10908 0.90928 0.02992
 H1180 H -0.08298 0.91550 -0.00333
 H1181 H -0.00671 0.89821 -0.04445
 H1182 H 0.03049 0.87736 -0.04557
 H1183 H 0.04121 0.84978 -0.01401
 H1184 H 0.01480 0.84294 0.01888
 C1185 C 0.03093 0.63961 0.02096
 C1186 C 0.04839 0.62254 0.02541
 C1187 C 0.05505 0.60652 0.00739
 C1188 C 0.04429 0.60774 -0.01498
 C1189 C 0.02634 0.62434 -0.01921
 C1190 C 0.01963 0.64033 -0.00118
 C1191 C 0.00172 0.65685 -0.00586
 C1192 C -0.00926 0.65754 -0.02772
 C1193 C -0.00269 0.64190 -0.04535
 C1194 C 0.01492 0.62548 -0.04125
 C1195 C 0.07256 0.58962 0.01223
 C1196 C 0.08323 0.58861 0.03422
 C1197 C 0.07677 0.60432 0.05182
 C1198 C 0.05956 0.62113 0.04756
 C1199 C 0.05216 0.59238 -0.03379
 C1200 C 0.05898 0.57980 -0.04945
 C1201 C 0.02519 0.65691 0.03886
 C1202 C 0.02091 0.67154 0.05362
 H1203 H -0.00402 0.66934 0.00732
 H1204 H -0.02294 0.67027 -0.03099
 H1205 H -0.01127 0.64250 -0.06230
 H1206 H 0.01941 0.61368 -0.05550
 H1207 H 0.07810 0.57698 -0.00087
 H1208 H 0.09657 0.57554 0.03762
 H1209 H 0.08511 0.60346 0.06887
 H1210 H 0.05508 0.63292 0.06184
 C1211 C 0.51708 0.12465 0.53872
 C1212 C 0.53673 0.10967 0.54107
 C1213 C 0.53745 0.08800 0.52860
 C1214 C 0.51848 0.08140 0.51393
 C1215 C 0.49912 0.09666 0.51109
 C1216 C 0.49841 0.11835 0.52352
 C1217 C 0.47880 0.13326 0.52049
 C1218 C 0.46044 0.12694 0.50558
 C1219 C 0.46115 0.10574 0.49341
 C1220 C 0.48020 0.09070 0.49608
 C1221 C 0.55727 0.07330 0.53124
 C1222 C 0.57584 0.07982 0.54579
 C1223 C 0.57511 0.10098 0.55803
 C1224 C 0.55582 0.11581 0.55577
 C1225 C 0.51856 0.05869 0.50225
 C1226 C 0.51824 0.03974 0.49270
 C1227 C 0.51575 0.14621 0.55237
 C1228 C 0.51430 0.16394 0.56393
 H1229 H 0.47747 0.14996 0.52955
 H1230 H 0.44559 0.13856 0.50345
 H1231 H 0.44685 0.10091 0.48183
 H1232 H 0.47996 0.07441 0.48622
 H1233 H 0.55864 0.05671 0.52202
 H1234 H 0.59089 0.06840 0.54756
 H1235 H 0.58958 0.10596 0.56932
 H1236 H 0.55608 0.13212 0.56560
 C1237 C -0.03142 0.13921 0.48025
 C1238 C -0.05031 0.12344 0.47647
 C1239 C -0.05717 0.10771 0.49455
 C1240 C -0.04514 0.10788 0.51631
 C1241 C -0.02593 0.12328 0.51990
 C1242 C -0.01903 0.13897 0.50180
 C1243 C 0.00019 0.15423 0.50582
 C1244 C 0.01225 0.15400 0.52711
 C1245 C 0.00547 0.13870 0.54483
 C1246 C -0.01341 0.12349 0.54137
 C1247 C -0.07612 0.09215 0.49040
 C1248 C -0.08799 0.09214 0.46900
 C1249 C -0.08131 0.10755 0.45134
 C1250 C -0.06271 0.12306 0.45493
 C1251 C -0.05284 0.09260 0.53516
 C1252 C -0.05932 0.08013 0.55098
 C1253 C -0.02524 0.15613 0.46225
 C1254 C -0.02052 0.17041 0.44739
 H1255 H 0.00613 0.16644 0.49256
 H1256 H 0.02692 0.16579 0.52989
 H1257 H 0.01486 0.13861 0.56135
 H1258 H -0.01804 0.11193 0.55568
 H1259 H -0.08193 0.07981 0.50359
 H1260 H -0.10243 0.08010 0.46612
 H1261 H -0.09059 0.10747 0.43474
 H1262 H -0.05814 0.13468 0.44064
 C1263 C 0.46620 0.63815 0.97773
 C1264 C 0.44443 0.62613 0.97734
 C1265 C 0.43849 0.61057 0.99589
 C1266 C 0.45436 0.60710 1.01469
 C1267 C 0.47636 0.61868 1.01478
 C1268 C 0.48229 0.63428 0.99626
 C1269 C 0.50432 0.64578 0.99683
 C1270 C 0.52005 0.64194 1.01515
 C1271 C 0.51426 0.62667 1.03324
 C1272 C 0.49269 0.61513 1.03315
 C1273 C 0.41657 0.59887 0.99522
 C1274 C 0.40099 0.60237 0.97671
 C1275 C 0.40681 0.61756 0.95856
 C1276 C 0.42825 0.62937 0.95879
 C1277 C 0.44783 0.59208 1.03418
 C1278 C 0.44227 0.57983 1.05050
 C1279 C 0.47176 0.65500 0.95946
 C1280 C 0.47632 0.66932 0.94458
 H1281 H 0.50965 0.65778 0.98313
 H1282 H 0.53684 0.65086 1.01530
 H1283 H 0.52655 0.62372 1.04742
 H1284 H 0.48899 0.60338 1.04758
 H1285 H 0.41125 0.58690 1.00894
 H1286 H 0.38431 0.59326 0.97646
 H1287 H 0.39465 0.62023 0.94422
 H1288 H 0.43200 0.64099 0.94426
 C1289 C 0.53476 0.85861 0.97511
 C1290 C 0.55645 0.87066 0.97352
 C1291 C 0.56324 0.88659 0.99158
 C1292 C 0.54828 0.89041 1.01109
 C1293 C 0.52632 0.87882 1.01238
 C1294 C 0.51955 0.86285 0.99435
 C1295 C 0.49758 0.85136 0.99611
 C1296 C 0.48272 0.85556 1.01513
 C1297 C 0.48933 0.87120 1.03274
 C1298 C 0.51087 0.88274 1.03148
 C1299 C 0.58507 0.89832 0.98969
 C1300 C 0.59976 0.89446 0.97048
 C1301 C 0.59312 0.87889 0.95281
 C1302 C 0.57174 0.86706 0.95423
 C1303 C 0.55572 0.90578 1.03009
 C1304 C 0.56207 0.91832 1.04600
 C1305 C 0.52840 0.84135 0.95735
 C1306 C 0.52326 0.82671 0.94288
 H1307 H 0.49163 0.83908 0.98282
 H1308 H 0.46597 0.84663 1.01619
 H1309 H 0.47772 0.87443 1.04746
 H1310 H 0.51523 0.89479 1.04557
 H1311 H 0.59101 0.91058 1.00299
 H1312 H 0.61639 0.90359 0.96931
 H1313 H 0.60459 0.87595 0.93793
 H1314 H 0.56733 0.85514 0.94004
 C1315 C 0.02032 0.37495 0.45798
 C1316 C 0.00513 0.37919 0.47724
 C1317 C 0.00610 0.40104 0.48936
 C1318 C 0.02218 0.41855 0.48211
 C1319 C 0.03781 0.41407 0.46328
 C1320 C 0.03688 0.39219 0.45118
 C1321 C 0.05260 0.38816 0.43233
 C1322 C 0.06880 0.40524 0.42565
 C1323 C 0.06970 0.42663 0.43748
 C1324 C 0.05441 0.43110 0.45608
 C1325 C -0.00928 0.40491 0.50854
 C1326 C -0.02519 0.38769 0.51552
 C1327 C -0.02618 0.36634 0.50363
 C1328 C -0.01124 0.36204 0.48470
 C1329 C 0.02215 0.44136 0.49359
 C1330 C 0.02175 0.46036 0.50302
 C1331 C 0.01835 0.35318 0.44475
 C1332 C 0.01620 0.33523 0.43364
 H1333 H 0.05259 0.37178 0.42262
 H1334 H 0.08071 0.40186 0.41121
 H1335 H 0.08231 0.43984 0.43222
 H1336 H 0.05577 0.44799 0.46475
 H1337 H -0.00912 0.42120 0.51837
 H1338 H -0.03679 0.39093 0.53024
 H1339 H -0.03857 0.35302 0.50911
 H1340 H -0.01263 0.34514 0.47605
 C1341 C 0.37900 0.53874 0.48562
 C1342 C 0.38310 0.51946 0.50068
 C1343 C 0.40505 0.50765 0.49999
 C1344 C 0.42277 0.51524 0.48431
 C1345 C 0.41848 0.53419 0.46888
 C1346 C 0.39651 0.54595 0.46951
 C1347 C 0.39266 0.56489 0.45395
 C1348 C 0.41000 0.57198 0.43823
 C1349 C 0.43149 0.56050 0.43765
 C1350 C 0.43578 0.54182 0.45277
 C1351 C 0.40877 0.48843 0.51523
 C1352 C 0.39132 0.48111 0.53073
 C1353 C 0.36988 0.49269 0.53144
 C1354 C 0.36572 0.51166 0.51663
 C1355 C 0.44557 0.50394 0.48439
 C1356 C 0.46463 0.49478 0.48459
 C1357 C 0.35709 0.55163 0.48714
 C1358 C 0.33918 0.56279 0.48847
 H1359 H 0.37621 0.57436 0.45372
 H1360 H 0.40675 0.58648 0.42644
 H1361 H 0.44493 0.56610 0.42543
 H1362 H 0.45277 0.53346 0.45168
 H1363 H 0.42514 0.47886 0.51529
 H1364 H 0.39445 0.46636 0.54224
 H1365 H 0.35638 0.48693 0.54351
 H1366 H 0.34875 0.52008 0.51778
 C1367 C 0.86642 0.02608 -0.03275
 C1368 C 0.87871 0.02715 -0.05435
 C1369 C 0.89462 0.00897 -0.06060
 C1370 C 0.89817 -0.01014 -0.04518
 C1371 C 0.88638 -0.01088 -0.02329
 C1372 C 0.87043 0.00727 -0.01707
 C1373 C 0.85872 0.00606 0.00484
 C1374 C 0.86269 -0.01253 0.02017
 C1375 C 0.87832 -0.03026 0.01409
 C1376 C 0.89006 -0.02954 -0.00737
 C1377 C 0.90657 0.01031 -0.08236
 C1378 C 0.90298 0.02913 -0.09750
 C1379 C 0.88744 0.04693 -0.09138
 C1380 C 0.87538 0.04603 -0.07009
 C1381 C 0.91347 -0.02932 -0.05208
 C1382 C 0.92593 -0.04541 -0.05791
 C1383 C 0.84907 0.04385 -0.02701
 C1384 C 0.83429 0.05825 -0.02235
 H1385 H 0.84644 0.01947 0.01038
 H1386 H 0.85360 -0.01316 0.03687
 H1387 H 0.88137 -0.04465 0.02607
 H1388 H 0.90209 -0.04370 -0.01130
 H1389 H 0.91881 -0.00312 -0.08789
 H1390 H 0.91228 0.02989 -0.11406
 H1391 H 0.88471 0.06151 -0.10320
 H1392 H 0.86349 0.06030 -0.06609
 C1393 C 0.64361 0.02134 0.02992
 C1394 C 0.63917 0.00228 0.01448
 C1395 C 0.62323 -0.01571 0.02118
 C1396 C 0.61189 -0.01456 0.04329
 C1397 C 0.61593 0.00476 0.05851
 C1398 C 0.63181 0.02278 0.05180
 C1399 C 0.63562 0.04189 0.06734
 C1400 C 0.62405 0.04315 0.08888
 C1401 C 0.60853 0.02551 0.09546
 C1402 C 0.60447 0.00648 0.08053
 C1403 C 0.61909 -0.03462 0.00548
 C1404 C 0.63039 -0.03573 -0.01621
 C1405 C 0.64602 -0.01816 -0.02274
 C1406 C 0.65043 0.00067 -0.00764
 C1407 C 0.59648 -0.03347 0.05063
 C1408 C 0.58387 -0.04925 0.05694
 C1409 C 0.66079 0.03909 0.02368
 C1410 C 0.67530 0.05376 0.01897
 H1411 H 0.64752 0.05605 0.06301
 H1412 H 0.62715 0.05790 0.10054
 H1413 H 0.59961 0.02655 0.11223
 H1414 H 0.59228 -0.00682 0.08643
 H1415 H 0.60706 -0.04867 0.00978
 H1416 H 0.62700 -0.05030 -0.02801
 H1417 H 0.65475 -0.01910 -0.03962
 H1418 H 0.66269 0.01394 -0.01351
 C1419 C 0.12721 0.53959 0.51441
 C1420 C 0.10974 0.54582 0.53100
 C1421 C 0.08811 0.53338 0.53148
 C1422 C 0.08409 0.51476 0.51540
 C1423 C 0.10179 0.50813 0.49923
 C1424 C 0.12341 0.52060 0.49871
 C1425 C 0.14077 0.51376 0.48226
 C1426 C 0.13690 0.49510 0.46681
 C1427 C 0.11577 0.48289 0.46734
 C1428 C 0.09835 0.48926 0.48332
 C1429 C 0.07084 0.54003 0.54810
 C1430 C 0.07485 0.55840 0.56385
 C1431 C 0.09601 0.57055 0.56340
 C1432 C 0.11332 0.56442 0.54719
 C1433 C 0.06156 0.50285 0.51507
 C1434 C 0.04273 0.49317 0.51455
 C1435 C 0.14877 0.55315 0.51301
 C1436 C 0.16649 0.56463 0.51147
 H1437 H 0.15751 0.52269 0.48121
 H1438 H 0.15038 0.49009 0.45436
 H1439 H 0.11286 0.46839 0.45532
 H1440 H 0.08223 0.47921 0.48310
 H1441 H 0.05410 0.53110 0.54912
 H1442 H 0.06145 0.56324 0.57646
 H1443 H 0.09905 0.58482 0.57567
 H1444 H 0.12951 0.57437 0.54754
 C1445 C 0.13950 0.47725 -0.02911
 C1446 C 0.13840 0.49882 -0.01669
 C1447 C 0.12274 0.51667 -0.02419
 C1448 C 0.10821 0.51282 -0.04401
 C1449 C 0.10882 0.49101 -0.05603
 C1450 C 0.12453 0.47318 -0.04858
 C1451 C 0.12497 0.45159 -0.06099
 C1452 C 0.11025 0.44770 -0.08017
 C1453 C 0.09485 0.46513 -0.08742
 C1454 C 0.09408 0.48657 -0.07556
 C1455 C 0.12212 0.53818 -0.01163
 C1456 C 0.13646 0.54190 0.00785
 C1457 C 0.15174 0.52442 0.01521
 C1458 C 0.15280 0.50310 0.00314
 C1459 C 0.09310 0.53149 -0.05238
 C1460 C 0.08084 0.54720 -0.05941
 C1461 C 0.15657 0.45960 -0.02243
 C1462 C 0.17106 0.44510 -0.01733
 H1463 H 0.13661 0.43748 -0.05598
 H1464 H 0.11078 0.43107 -0.08944
 H1465 H 0.08343 0.46202 -0.10231
 H1466 H 0.08180 0.49957 -0.08183
 H1467 H 0.11056 0.55231 -0.01672
 H1468 H 0.13574 0.55844 0.01726
 H1469 H 0.16286 0.52739 0.03036
 H1470 H 0.16495 0.49003 0.00954
 C1471 C 0.62308 0.95958 0.48408
 C1472 C 0.61818 0.97719 0.50103
 C1473 C 0.59663 0.98967 0.50012
 C1474 C 0.58013 0.98453 0.48221
 C1475 C 0.58520 0.96720 0.46504
 C1476 C 0.60676 0.95471 0.46595
 C1477 C 0.61139 0.93741 0.44864
 C1478 C 0.59518 0.93256 0.43094
 C1479 C 0.57408 0.94473 0.43009
 C1480 C 0.56906 0.96187 0.44689
 C1481 C 0.59202 1.00702 0.51739
 C1482 C 0.60826 1.01195 0.53503
 C1483 C 0.62936 0.99980 0.53589
 C1484 C 0.63435 0.98259 0.51914
 C1485 C 0.55778 0.99672 0.48179
 C1486 C 0.53911 1.00667 0.48170
 C1487 C 0.64456 0.94601 0.48577
 C1488 C 0.66224 0.93458 0.48764
 H1489 H 0.62757 0.92749 0.44857
 H1490 H 0.59901 0.91927 0.41784
 H1491 H 0.56153 0.94084 0.41635
 H1492 H 0.55241 0.97084 0.44552
 H1493 H 0.57584 1.01691 0.51748
 H1494 H 0.60443 1.02525 0.54812
 H1495 H 0.64192 1.00370 0.54963
 H1496 H 0.65101 0.97361 0.52055
 C1497 C 0.85844 0.97707 0.53596
 C1498 C 0.85964 0.99789 0.52248
 C1499 C 0.87567 1.01597 0.52883
 C1500 C 0.89043 1.01313 0.54861
 C1501 C 0.88964 0.99209 0.56176
 C1502 C 0.87358 0.97402 0.55543
 C1503 C 0.87300 0.95322 0.56894
 C1504 C 0.88790 0.95033 0.58812
 C1505 C 0.90364 0.96798 0.59427
 C1506 C 0.90456 0.98866 0.58131
 C1507 C 0.87645 1.03668 0.51518
 C1508 C 0.86185 1.03942 0.49576
 C1509 C 0.84619 1.02173 0.48953
 C1510 C 0.84500 1.00117 0.50268
 C1511 C 0.90601 1.03204 0.55577
 C1512 C 0.91874 1.04782 0.56197
 C1513 C 0.84126 0.95910 0.53016
 C1514 C 0.82674 0.94440 0.52548
 H1515 H 0.86108 0.93897 0.56482
 H1516 H 0.88724 0.93429 0.59824
 H1517 H 0.91520 0.96564 0.60916
 H1518 H 0.91712 1.00187 0.58675
 H1519 H 0.88833 1.05093 0.51935
 H1520 H 0.86268 1.05537 0.48551
 H1521 H 0.83488 1.02394 0.47443
 H1522 H 0.83255 0.98790 0.49712
 C1523 C 0.36154 0.47581 0.03792
 C1524 C 0.36552 0.49467 0.02226
 C1525 C 0.38159 0.51279 0.02841
 C1526 C 0.39354 0.51198 0.05019
 C1527 C 0.39002 0.49283 0.06558
 C1528 C 0.37397 0.47468 0.05942
 C1529 C 0.37067 0.45576 0.07514
 C1530 C 0.38289 0.45479 0.09632
 C1531 C 0.39857 0.47254 0.10234
 C1532 C 0.40214 0.49140 0.08722
 C1533 C 0.38524 0.53149 0.01250
 C1534 C 0.37334 0.53229 -0.00886
 C1535 C 0.35759 0.51460 -0.01485
 C1536 C 0.35365 0.49596 0.00046
 C1537 C 0.40896 0.53114 0.05700
 C1538 C 0.42150 0.54726 0.06272
 C1539 C 0.34420 0.45798 0.03219
 C1540 C 0.32946 0.44350 0.02746
 H1541 H 0.35867 0.44153 0.07121
 H1542 H 0.38017 0.44018 0.10812
 H1543 H 0.40801 0.47171 0.11881
 H1544 H 0.41451 0.50478 0.09267
 H1545 H 0.39737 0.54562 0.01636
 H1546 H 0.37638 0.54670 -0.02082
 H1547 H 0.34839 0.51529 -0.03146
 H1548 H 0.34127 0.48259 -0.00501
 C1549 C 0.54272 0.48682 0.37799
 C1550 C 0.54983 0.47059 0.39537
 C1551 C 0.53774 0.46964 0.41720
 C1552 C 0.51859 0.48487 0.42149
 C1553 C 0.51112 0.50069 0.40390
 C1554 C 0.52325 0.50169 0.38210
 C1555 C 0.51557 0.51777 0.36484
 C1556 C 0.49641 0.53239 0.36900
 C1557 C 0.48452 0.53137 0.39030
 C1558 C 0.49173 0.51574 0.40762
 C1559 C 0.54527 0.45340 0.43438
 C1560 C 0.56415 0.43847 0.43008
 C1561 C 0.57595 0.43938 0.40873
 C1562 C 0.56896 0.45523 0.39151
 C1563 C 0.50690 0.48458 0.44415
 C1564 C 0.49739 0.48447 0.46308
 C1565 C 0.55584 0.48862 0.35620
 C1566 C 0.56707 0.49028 0.33832
 H1567 H 0.52423 0.51917 0.34797
 H1568 H 0.49075 0.54456 0.35560
 H1569 H 0.46963 0.54273 0.39343
 H1570 H 0.48191 0.51555 0.42389
 H1571 H 0.53665 0.45206 0.45126
 H1572 H 0.56966 0.42616 0.44341
 H1573 H 0.59061 0.42774 0.40547
 H1574 H 0.57868 0.45526 0.37517
 C1575 C 0.03054 -0.03061 0.86278
 C1576 C 0.03193 -0.05217 0.87501
 C1577 C 0.01373 -0.05871 0.89078
 C1578 C -0.00571 -0.04365 0.89425
 C1579 C -0.00674 -0.02177 0.88257
 C1580 C 0.01142 -0.01524 0.86676
 C1581 C 0.00990 0.00663 0.85515
 C1582 C -0.00900 0.02165 0.85909
 C1583 C -0.02674 0.01527 0.87458
 C1584 C -0.02572 -0.00617 0.88622
 C1585 C 0.01541 -0.08041 0.90269
 C1586 C 0.03455 -0.09521 0.89916
 C1587 C 0.05235 -0.08880 0.88374
 C1588 C 0.05113 -0.06756 0.87173
 C1589 C -0.02495 -0.05091 0.90928
 C1590 C -0.04115 -0.05698 0.92147
 C1591 C 0.04830 -0.02459 0.84551
 C1592 C 0.06266 -0.01967 0.83077
 H1593 H 0.02330 0.01240 0.84298
 H1594 H -0.00986 0.03833 0.85008
 H1595 H -0.04136 0.02701 0.87761
 H1596 H -0.03990 -0.01033 0.89815
 H1597 H 0.00200 -0.08615 0.91485
 H1598 H 0.03557 -0.11173 0.90844
 H1599 H 0.06718 -0.10036 0.88106
 H1600 H 0.06542 -0.06333 0.85994
 C1601 C 0.02343 0.03156 0.64137
 C1602 C 0.00198 0.01897 0.64158
 C1603 C -0.01642 0.02546 0.62608
 C1604 C -0.01325 0.04447 0.61044
 C1605 C 0.00843 0.05662 0.60976
 C1606 C 0.02681 0.05017 0.62529
 C1607 C 0.04826 0.06272 0.62442
 C1608 C 0.05147 0.08106 0.60860
 C1609 C 0.03351 0.08732 0.59337
 C1610 C 0.01220 0.07531 0.59387
 C1611 C -0.03777 0.01274 0.62672
 C1612 C -0.04083 -0.00592 0.64219
 C1613 C -0.02283 -0.01228 0.65733
 C1614 C -0.00164 -0.00003 0.65713
 C1615 C -0.03244 0.05192 0.59550
 C1616 C -0.04841 0.05839 0.58326
 C1617 C 0.04169 0.02589 0.65817
 C1618 C 0.05671 0.02159 0.67241
 H1619 H 0.06277 0.05846 0.63588
 H1620 H 0.06800 0.09044 0.60815
 H1621 H 0.03610 0.10155 0.58108
 H1622 H -0.00122 0.08078 0.58164
 H1623 H -0.05227 0.01704 0.61528
 H1624 H -0.05726 -0.01547 0.64243
 H1625 H -0.02529 -0.02679 0.66932
 H1626 H 0.01186 -0.00566 0.66922
 C1627 C 0.52692 0.53370 0.14121
 C1628 C 0.50754 0.51841 0.13804
 C1629 C 0.48917 0.52466 0.12240
 C1630 C 0.49026 0.54617 0.11006
 C1631 C 0.50993 0.56116 0.11276
 C1632 C 0.52832 0.55490 0.12838
 C1633 C 0.54775 0.57022 0.13087
 C1634 C 0.54899 0.59112 0.11827
 C1635 C 0.53099 0.59725 0.10301
 C1636 C 0.51164 0.58252 0.10024
 C1637 C 0.46993 0.50915 0.11957
 C1638 C 0.46887 0.48806 0.13185
 C1639 C 0.48681 0.48196 0.14717
 C1640 C 0.50596 0.49689 0.15031
 C1641 C 0.47088 0.55316 0.09512
 C1642 C 0.45458 0.55906 0.08301
 C1643 C 0.54500 0.52796 0.15821
 C1644 C 0.55971 0.52334 0.17268
 H1645 H 0.56219 0.56620 0.14250
 H1646 H 0.56399 0.60262 0.12036
 H1647 H 0.53202 0.61351 0.09328
 H1648 H 0.49808 0.58804 0.08819
 H1649 H 0.45558 0.51310 0.10781
 H1650 H 0.45404 0.47639 0.12944
 H1651 H 0.48590 0.46556 0.15667
 H1652 H 0.51951 0.49136 0.16238
 C1653 C 0.48077 -0.03115 0.13779
 C1654 C 0.50020 -0.01621 0.13362
 C1655 C 0.51810 -0.02330 0.11771
 C1656 C 0.51649 -0.04530 0.10612
 C1657 C 0.49677 -0.05996 0.10983
 C1658 C 0.47884 -0.05286 0.12570
 C1659 C 0.45933 -0.06787 0.12920
 C1660 C 0.45759 -0.08927 0.11734
 C1661 C 0.47513 -0.09622 0.10184
 C1662 C 0.49455 -0.08182 0.09808
 C1663 C 0.53739 -0.00811 0.11385
 C1664 C 0.53897 0.01346 0.12540
 C1665 C 0.52148 0.02037 0.14099
 C1666 C 0.50228 0.00577 0.14513
 C1667 C 0.53537 -0.05311 0.09087
 C1668 C 0.55120 -0.05974 0.07844
 C1669 C 0.46313 -0.02459 0.15503
 C1670 C 0.44855 -0.01970 0.16959
 H1671 H 0.44521 -0.06323 0.14105
 H1672 H 0.44254 -0.10052 0.12020
 H1673 H 0.47371 -0.11286 0.09269
 H1674 H 0.50774 -0.08798 0.08587
 H1675 H 0.55139 -0.01270 0.10185
 H1676 H 0.55382 0.02488 0.12221
 H1677 H 0.52278 0.03715 0.14991
 H1678 H 0.48909 0.01193 0.15736
 C1679 C 0.96311 0.48209 0.61979
 C1680 C 0.98284 0.49688 0.61657
 C1681 C 0.99537 0.49634 0.59497
 C1682 C 0.98805 0.48106 0.57670
 C1683 C 0.96866 0.46587 0.58011
 C1684 C 0.95617 0.46636 0.60173
 C1685 C 0.93681 0.45106 0.60471
 C1686 C 0.92998 0.43571 0.58684
 C1687 C 0.94216 0.43526 0.56567
 C1688 C 0.96127 0.45015 0.56224
 C1689 C 1.01500 0.51132 0.59213
 C1690 C 1.02206 0.52642 0.61012
 C1691 C 1.00979 0.52699 0.63123
 C1692 C 0.99039 0.51244 0.63452
 C1693 C 1.00012 0.48133 0.55423
 C1694 C 1.00992 0.48172 0.53545
 C1695 C 0.94955 0.48357 0.64135
 C1696 C 0.93809 0.48521 0.65910
 H1697 H 0.92680 0.45075 0.62087
 H1698 H 0.91515 0.42410 0.58942
 H1699 H 0.93677 0.42334 0.55182
 H1700 H 0.97017 0.44919 0.54547
 H1701 H 1.02512 0.51146 0.57605
 H1702 H 1.03714 0.53773 0.60766
 H1703 H 1.01535 0.53876 0.64515
 H1704 H 0.98145 0.51348 0.65127
 C1705 C 0.97919 0.53200 0.85662
 C1706 C 0.97648 0.55220 0.87096
 C1707 C 0.99435 0.55851 0.88722
 C1708 C 1.01485 0.54463 0.88900
 C1709 C 1.01735 0.52416 0.87502
 C1710 C 0.99946 0.51782 0.85879
 C1711 C 1.00239 0.49732 0.84495
 C1712 C 1.02242 0.48349 0.84708
 C1713 C 1.03992 0.48972 0.86293
 C1714 C 1.03752 0.50981 0.87677
 C1715 C 0.99128 0.57881 0.90134
 C1716 C 0.97113 0.59249 0.89944
 C1717 C 0.95366 0.58633 0.88352
 C1718 C 0.95621 0.56644 0.86940
 C1719 C 1.03356 0.55173 0.90480
 C1720 C 1.04912 0.55797 0.91777
 C1721 C 0.96145 0.52614 0.83925
 C1722 C 0.94692 0.52144 0.82457
 H1723 H 0.98924 0.49173 0.83239
 H1724 H 1.02437 0.46786 0.83637
 H1725 H 1.05546 0.47893 0.86450
 H1726 H 1.05160 0.51394 0.88885
 H1727 H 1.00435 0.58429 0.91400
 H1728 H 0.96906 0.60794 0.91040
 H1729 H 0.93804 0.59701 0.88211
 H1730 H 0.94213 0.56235 0.85730
 C1731 C 0.46165 0.01862 0.37486
 C1732 C 0.45442 0.03418 0.39293
 C1733 C 0.46670 0.03470 0.41466
 C1734 C 0.48612 0.01965 0.41818
 C1735 C 0.49379 0.00461 0.39986
 C1736 C 0.48149 0.00407 0.37814
 C1737 C 0.48937 -0.01125 0.36015
 C1738 C 0.50888 -0.02557 0.36350
 C1739 C 0.52094 -0.02499 0.38472
 C1740 C 0.51354 -0.01012 0.40276
 C1741 C 0.45908 0.05031 0.43251
 C1742 C 0.43989 0.06500 0.42900
 C1743 C 0.42787 0.06448 0.40775
 C1744 C 0.43497 0.04927 0.38987
 C1745 C 0.49776 0.01916 0.44086
 C1746 C 0.50710 0.01860 0.45985
 C1747 C 0.44826 0.01701 0.35321
 C1748 C 0.43701 0.01517 0.33536
 H1749 H 0.48061 -0.01228 0.34331
 H1750 H 0.51470 -0.03715 0.34954
 H1751 H 0.53611 -0.03610 0.38721
 H1752 H 0.52350 -0.01023 0.41892
 H1753 H 0.46788 0.05137 0.44932
 H1754 H 0.43432 0.07686 0.44283
 H1755 H 0.41298 0.07594 0.40510
 H1756 H 0.42510 0.04953 0.37363
   
