data_POSCAR
  _audit_creation_date              2014-09-24
  _audit_creation_method            'ToBaCCo'
  _symmetry_space_group_name_H-M    'P1'
  _symmetry_Int_Tables_number       1
  _symmetry_cell_setting            triclinic
  loop_
  _symmetry_equiv_pos_as_xyz
 x,y,z
_cell_length_a 46.9530
_cell_length_b 47.0472
_cell_length_c 46.8895
_cell_angle_alpha 89.962200
_cell_angle_beta 89.804400
_cell_angle_gamma 90.005800
loop_
  _atom_site_label
  _atom_site_type_symbol
  _atom_site_fract_x
  _atom_site_fract_y
  _atom_site_fract_z
C1 C 0.35984 1.36022 0.32576
 N2 N 0.33316 1.36786 0.33417
 C3 C 0.32073 1.35581 0.35740
 N4 N 0.33503 1.33531 0.37183
 C5 C 0.36138 1.32684 0.36340
 N6 N 0.37389 1.33963 0.34055
 C7 C 0.35998 0.86300 0.82726
 N8 N 0.33720 0.87541 0.84022
 C9 C 0.32248 0.86131 0.86099
 N10 N 0.33104 0.83477 0.86879
 C11 C 0.35411 0.82251 0.85640
 N12 N 0.36834 0.83671 0.83564
 C13 C 0.85760 1.35988 0.82480
 N14 N 0.87043 1.33744 0.83780
 C15 C 0.85909 1.32594 0.86187
 N16 N 0.83501 1.33734 0.87326
 C17 C 0.82253 1.36044 0.86115
 N18 N 0.83386 1.37139 0.83680
 C19 C 0.85938 0.86155 0.32341
 N20 N 0.87046 0.83713 0.33423
 C21 C 0.85559 0.82155 0.35368
 N22 N 0.82963 0.83080 0.36266
 C23 C 0.81865 0.85548 0.35249
 N24 N 0.83351 0.87052 0.33276
 C25 C 0.64185 0.64351 0.32284
 N26 N 0.63004 0.66680 0.33518
 C27 C 0.64090 0.67755 0.35971
 N28 N 0.66349 0.66453 0.37223
 C29 C 0.67520 0.64094 0.36025
 N30 N 0.66452 0.63079 0.33537
 C31 C 0.63957 0.13907 0.82618
 N32 N 0.66454 0.12881 0.83675
 C33 C 0.67543 0.13902 0.86158
 N34 N 0.66166 0.16053 0.87514
 C35 C 0.63716 0.17153 0.86453
 N36 N 0.62587 0.16031 0.84038
 C37 C 1.13741 0.63662 0.82746
 N38 N 1.12541 0.66011 0.83935
 C39 C 1.13816 0.67332 0.86172
 N40 N 1.16288 0.66264 0.87233
 C41 C 1.17472 0.63885 0.86094
 N42 N 1.16191 0.62601 0.83850
 C43 C 1.14518 0.14595 0.31924
 N44 N 1.17029 0.13618 0.32971
 C45 C 1.18339 0.14946 0.35179
 N46 N 1.17128 0.17313 0.36317
 C47 C 1.14586 0.18279 0.35336
 N48 N 1.13287 0.16906 0.33151
 C49 C 0.63814 1.36378 0.67383
 N50 N 0.62568 1.34127 0.66060
 C51 C 0.63975 1.32691 0.63969
 N52 N 0.66635 1.33537 0.63189
 C53 C 0.67876 1.35827 0.64433
 N54 N 0.66451 1.37225 0.66529
 C55 C 0.64235 0.85982 1.17728
 N56 N 0.66827 0.86864 1.16785
 C57 C 0.68201 0.85437 1.14680
 N58 N 0.66992 0.83075 1.13549
 C59 C 0.64417 0.82146 1.14491
 N60 N 0.63033 0.83620 1.16572
 C61 C 1.14726 1.35577 1.18023
 N62 N 1.16665 1.37083 1.16470
 C63 C 1.17804 1.35983 1.14039
 N64 N 1.16919 1.33390 1.13128
 C65 C 1.14949 1.31888 1.14618
 N66 N 1.13890 1.32973 1.17083
 C67 C 1.13657 0.86493 0.67093
 N68 N 1.12433 0.84196 0.65839
 C69 C 1.13846 0.82745 0.63761
 N70 N 1.16496 0.83606 0.62955
 C71 C 1.17716 0.85932 0.64157
 N72 N 1.16274 0.87358 0.66219
 C73 C 0.35669 0.64302 0.67609
 N74 N 0.36869 0.66641 0.66404
 C75 C 0.35516 0.68046 0.64269
 N76 N 0.32978 0.67061 0.63305
 C77 C 0.31750 0.64726 0.64492
 N78 N 0.33094 0.63381 0.66670
 C79 C 0.35853 0.13962 1.17386
 N80 N 0.36587 0.16628 1.16548
 C81 C 0.35235 0.17905 1.14345
 N82 N 0.33100 0.16511 1.12999
 C83 C 0.32310 0.13851 1.13819
 N84 N 0.33722 0.12571 1.16005
 C85 C 0.86252 0.63701 1.17267
 N86 N 0.87447 0.66014 1.15996
 C87 C 0.86164 0.67290 1.13744
 N88 N 0.83640 0.66267 1.12788
 C89 C 0.82403 0.63978 1.14048
 N90 N 0.83727 0.62689 1.16274
 C91 C 0.85799 0.14249 0.67747
 N92 N 0.86851 0.16711 0.66656
 C93 C 0.85528 0.18047 0.64467
 N94 N 0.83114 0.16916 0.63368
 C95 C 0.82001 0.14476 0.64452
 N96 N 0.83359 0.13149 0.66643
 C97 C 1.35866 0.35947 0.67644
 N98 N 1.36933 0.33482 0.66574
 C99 C 1.35574 0.32082 0.64440
 N100 N 1.33124 0.33181 0.63365
 C101 C 1.32016 0.35625 0.64431
 N102 N 1.33390 0.36991 0.66574
 C103 C 1.35139 0.85243 1.18133
 N104 N 1.32942 0.86563 1.16799
 C105 C 1.31700 0.85355 1.14485
 N106 N 1.32712 0.82845 1.13475
 C107 C 1.34916 0.81508 1.14783
 N108 N 1.36087 0.82702 1.17140
 C109 C 0.85989 0.36312 1.17396
 N110 N 0.86792 0.33691 1.16480
 C111 C 0.85560 0.32494 1.14157
 N112 N 0.83469 0.33921 1.12759
 C113 C 0.82602 0.36516 1.13687
 N114 N 0.83881 0.37705 1.15992
 C115 C 0.85854 0.86119 0.67491
 N116 N 0.86925 0.83647 0.66450
 C117 C 0.85746 0.82396 0.64131
 N118 N 0.83495 0.83651 0.62831
 C119 C 0.82443 0.86158 0.63813
 N120 N 0.83612 0.87371 0.66164
 C121 C 0.63992 0.64104 0.67535
 N122 N 0.62920 0.66584 0.66509
 C123 C 0.64299 0.68000 0.64384
 N124 N 0.66767 0.66932 0.63307
 C125 C 0.67857 0.64463 0.64328
 N126 N 0.66460 0.63065 0.66440
 C127 C 0.63742 1.13841 1.17350
 N128 N 0.66010 1.12592 1.16040
 C129 C 0.67456 1.13988 1.13942
 N130 N 0.66601 1.16633 1.13145
 C131 C 0.64293 1.17869 1.14378
 N132 N 0.62889 1.16458 1.16476
 C133 C 0.13666 0.63609 1.17242
 N134 N 0.12615 0.66115 1.16241
 C135 C 0.14029 0.67590 1.14173
 N136 N 0.16461 0.66481 1.13051
 C137 C 0.17473 0.63935 1.13959
 N138 N 0.16088 0.62535 1.16075
 C139 C 0.13512 1.13613 0.67056
 N140 N 0.12533 1.16185 0.66172
 C141 C 0.13952 1.17671 0.64117
 N142 N 0.16337 1.16528 0.62929
 C143 C 0.17285 1.13925 0.63741
 N144 N 0.15876 1.12492 0.65821
 C145 C 1.36372 0.63782 0.32866
 N146 N 1.37432 0.66217 0.34013
 C147 C 1.36204 0.67400 0.36358
 N148 N 1.33877 0.66145 0.37548
 C149 C 1.32787 0.63723 0.36414
 N150 N 1.34055 0.62547 0.34091
 C151 C 1.36207 1.13886 0.82629
 N152 N 1.33930 1.12617 0.83905
 C153 C 1.32460 1.13980 0.86002
 N154 N 1.33302 1.16614 0.86842
 C155 C 1.35618 1.17875 0.85646
 N156 N 1.37044 1.16498 0.83536
 C157 C 0.86103 0.63792 0.82723
 N158 N 0.86950 0.66400 0.83611
 C159 C 0.85556 0.67770 0.85736
 N160 N 0.83270 0.66511 0.86985
 C161 C 0.82404 0.63881 0.86143
 N162 N 0.83835 0.62523 0.84010
 C163 C 0.86438 1.13824 0.32865
 N164 N 0.87516 1.16237 0.34034
 C165 C 0.86261 1.17464 0.36343
 N166 N 0.83883 1.16250 0.37482
 C167 C 0.82790 1.13828 0.36347
 N168 N 0.84083 1.12623 0.34051
 C169 C 0.64001 0.35882 0.32420
 N170 N 0.66442 0.36961 0.33537
 C171 C 0.67533 0.35891 0.35989
 N172 N 0.66202 0.33686 0.37300
 C173 C 0.63737 0.32606 0.36241
 N174 N 0.62632 0.33743 0.33818
 C175 C 0.64753 0.85402 0.81847
 N176 N 0.67111 0.86580 0.83026
 C177 C 0.68303 0.85415 0.85389
 N178 N 0.67135 0.83042 0.86555
 C179 C 0.64779 0.81848 0.85390
 N180 N 0.63602 0.83031 0.83031
 C181 C 0.14592 0.35454 0.81910
 N182 N 0.17097 0.36479 0.82904
 C183 C 0.18456 0.35174 0.85089
 N184 N 0.17323 0.32780 0.86245
 C185 C 0.14794 0.31740 0.85295
 N186 N 0.13432 0.33104 0.83131
 C187 C 0.13995 0.85990 0.32511
 N188 N 0.16391 0.87128 0.33669
 C189 C 0.17448 0.86105 0.36157
 N190 N 0.16124 0.83897 0.37470
 C191 C 0.13713 0.82759 0.36358
 N192 N 0.12645 0.83829 0.33893
 O193 O 1.10040 1.02789 1.14231
 O194 O 1.13377 1.02779 1.17529
 C195 C 1.11061 1.03761 1.16536
 C196 C 1.09608 1.06139 1.18010
 C197 C 1.10661 1.07175 1.20606
 H198 H 1.12369 1.06032 1.21632
 O199 O 0.89899 0.97524 1.14325
 O200 O 0.86592 0.97525 1.17676
 C201 C 0.88923 0.96576 1.16669
 C202 C 0.90458 0.94272 1.18182
 C203 C 0.89647 0.93469 1.20951
 H204 H 0.88052 0.94717 1.22049
 O205 O 1.02777 1.14401 1.10283
 O206 O 1.02816 1.17721 1.13600
 C207 C 1.03797 1.16687 1.11294
 C208 C 1.06246 1.18062 1.09845
 C209 C 1.07522 1.20501 1.11010
 H210 H 1.06548 1.21509 1.12842
 O211 O 0.97175 0.85753 1.10425
 O212 O 0.97117 0.82447 1.13760
 C213 C 0.96188 0.83442 1.11422
 C214 C 0.93915 0.81936 1.09847
 C215 C 0.92964 0.79234 1.10713
 H216 H 0.93901 0.78261 1.12577
 O217 O 1.14122 1.10101 1.02735
 O218 O 1.17527 1.13331 1.02699
 C219 C 1.16482 1.11031 1.03666
 C220 C 1.17980 1.09477 1.05964
 C221 C 1.20726 1.10294 1.06798
 H222 H 1.21813 1.11925 1.05587
 O223 O 0.86108 0.89766 1.02942
 O224 O 0.82751 0.86489 1.02977
 C225 C 0.83814 0.88763 1.03975
 C226 C 0.82399 0.90200 1.06410
 C227 C 0.79957 0.88994 1.07646
 H228 H 0.79135 0.87026 1.06788
 O229 O 0.97238 1.10526 1.14238
 O230 O 0.97277 1.13813 1.17590
 C231 C 0.96304 1.11500 1.16587
 C232 C 0.94004 1.09964 1.18114
 C233 C 0.93175 1.10774 1.20876
 H234 H 0.94382 1.12407 1.21951
 O235 O 1.02708 0.89653 1.14306
 O236 O 1.02669 0.86371 1.17665
 C237 C 1.03668 0.88662 1.16632
 C238 C 1.06015 0.90161 1.18105
 C239 C 1.07157 0.89076 1.20646
 H240 H 1.06293 0.87127 1.21514
 O241 O 1.13867 0.97191 1.10321
 O242 O 1.17203 0.97160 1.13619
 C243 C 1.16171 0.96190 1.11312
 C244 C 1.17626 0.93828 1.09807
 C245 C 1.20173 0.92696 1.10884
 H246 H 1.21086 0.93595 1.12799
 O247 O 0.85887 1.02942 1.10361
 O248 O 0.82536 1.02926 1.13667
 C249 C 0.83545 1.03886 1.11339
 C250 C 0.82027 1.06164 1.09772
 C251 C 0.79325 1.07107 1.10667
 H252 H 0.78347 1.06142 1.12522
 O253 O 0.89729 1.14296 1.02871
 O254 O 0.86380 1.17582 1.02866
 C255 C 0.88681 1.16581 1.03867
 C256 C 0.90108 1.18052 1.06260
 C257 C 0.88930 1.20539 1.07416
 H258 H 0.86988 1.21382 1.06512
 O259 O 1.10041 0.85691 1.02778
 O260 O 1.13390 0.82407 1.02753
 C261 C 1.11073 0.83389 1.03753
 C262 C 1.09622 0.81914 1.06153
 C263 C 1.10690 0.79340 1.07243
 H264 H 1.12443 0.78328 1.06144
 O265 O 0.89751 1.03072 1.14285
 O266 O 0.86421 1.03071 1.17613
 C267 C 0.88727 1.04061 1.16593
 C268 C 0.90238 1.06392 1.18083
 C269 C 0.89347 1.07321 1.20792
 H270 H 0.87482 1.06352 1.21732
 O271 O 1.10059 0.97251 1.14335
 O272 O 1.13388 0.97242 1.17641
 C273 C 1.11062 0.96285 1.16656
 C274 C 1.09573 0.93940 1.18154
 C275 C 1.10608 0.92899 1.20760
 H276 H 1.12337 0.94017 1.21778
 O277 O 1.02722 0.85774 1.10417
 O278 O 1.02690 0.82476 1.13761
 C279 C 1.03692 0.83472 1.11444
 C280 C 1.06053 0.81989 1.09956
 C281 C 1.07211 0.79471 1.11071
 H282 H 1.06342 0.78620 1.13032
 O283 O 0.97204 1.14434 1.10339
 O284 O 0.97211 1.17744 1.13665
 C285 C 0.96217 1.16732 1.11361
 C286 C 0.93811 1.18164 1.09904
 C287 C 0.92634 1.20690 1.10997
 H288 H 0.93636 1.21701 1.12806
 O289 O 0.85896 1.10338 1.02766
 O290 O 0.82539 1.13616 1.02742
 C291 C 0.83548 1.11301 1.03708
 C292 C 0.82024 1.09759 1.06009
 C293 C 0.79301 1.10627 1.06888
 H294 H 0.78252 1.12327 1.05745
 O295 O 1.13846 0.89690 1.02753
 O296 O 1.17201 0.86411 1.02734
 C297 C 1.16173 0.88711 1.03717
 C298 C 1.17645 0.90203 1.06075
 C299 C 1.20223 0.89142 1.07150
 H300 H 1.21224 0.87353 1.06102
 O301 O 0.97159 0.89736 1.14248
 O302 O 0.97102 0.86461 1.17613
 C303 C 0.96171 0.88782 1.16583
 C304 C 0.93911 0.90391 1.18100
 C305 C 0.92972 0.89535 1.20817
 H306 H 0.93875 0.87637 1.21743
 O307 O 1.02775 1.10510 1.14163
 O308 O 1.02825 1.13817 1.17494
 C309 C 1.03778 1.11503 1.16469
 C310 C 1.06113 1.09976 1.17935
 C311 C 1.07282 1.11058 1.20464
 H312 H 1.06455 1.13028 1.21317
 O313 O 0.85995 0.97388 1.10438
 O314 O 0.82670 0.97356 1.13770
 C315 C 0.83707 0.96366 1.11467
 C316 C 0.82305 0.93930 1.10034
 C317 C 0.79806 0.92734 1.11183
 H318 H 0.78804 0.93749 1.12995
 O319 O 1.14024 1.02740 1.10385
 O320 O 1.17374 1.02712 1.13669
 C321 C 1.16368 1.03682 1.11354
 C322 C 1.17905 1.05950 1.09781
 C323 C 1.20613 1.06879 1.10665
 H324 H 1.21550 1.05937 1.12544
 O325 O 0.89905 0.85781 1.02779
 O326 O 0.86549 0.82498 1.02786
 C327 C 0.88891 0.83461 1.03730
 C328 C 0.90398 0.81927 1.06029
 C329 C 0.89527 0.79199 1.06867
 H330 H 0.87861 0.78147 1.05677
 O331 O 1.10326 1.14102 1.02837
 O332 O 1.13727 1.17334 1.02815
 C333 C 1.11406 1.16372 1.03826
 C334 C 1.09998 1.17865 1.06229
 C335 C 1.11272 1.20267 1.07458
 H336 H 1.13269 1.21042 1.06598
 Cu337 Cu 1.11665 0.99998 1.11987
 Cu338 Cu 1.15670 0.99973 1.15946
 Cu339 Cu 0.88213 1.00238 1.12019
 Cu340 Cu 0.84217 1.00217 1.16012
 Cu341 Cu 0.99988 1.12145 1.11916
 Cu342 Cu 1.00029 1.16116 1.15914
 Cu343 Cu 0.99937 0.88056 1.12013
 Cu344 Cu 0.99880 0.84107 1.16038
 C345 C 1.07297 1.07519 1.16720
 H346 H 1.06476 1.06729 1.14715
 C347 C 1.09569 1.09683 1.21831
 C348 C 0.92635 0.92758 1.16799
 H349 H 0.93282 0.93375 1.14667
 C350 C 0.90854 0.91075 1.22294
 C351 C 1.07480 1.16786 1.07430
 H352 H 1.06528 1.14889 1.06538
 C353 C 1.10065 1.21603 1.09858
 C354 C 0.92624 0.83254 1.07499
 H355 H 0.93297 0.85365 1.06863
 C356 C 0.90781 0.77824 1.09217
 C357 C 1.16611 1.07267 1.07432
 H358 H 1.14492 1.06624 1.06792
 C359 C 1.22066 1.09048 1.09175
 C360 C 0.83563 0.92669 1.07620
 H361 H 0.85495 0.93565 1.06727
 C362 C 0.78630 0.90232 1.10034
 C363 C 0.92560 1.07736 1.16763
 H364 H 0.93206 1.07086 1.14642
 C365 C 0.90828 1.09488 1.22252
 C366 C 1.07240 0.92592 1.16875
 H367 H 1.06435 0.93383 1.14863
 C368 C 1.09463 0.90422 1.22009
 C369 C 1.16382 0.92571 1.07396
 H370 H 1.14379 0.93383 1.06597
 C371 C 1.21482 0.90334 1.09590
 C372 C 0.83348 1.07497 1.07435
 H373 H 0.85457 1.06828 1.06776
 C374 C 0.77926 1.09332 1.09226
 C375 C 0.92553 1.16887 1.07511
 H376 H 0.93431 1.14930 1.06668
 C377 C 0.90166 1.21887 1.09785
 C378 C 1.07273 0.83188 1.07497
 H379 H 1.06445 0.85174 1.06675
 C380 C 1.09535 0.78109 1.09739
 O381 O 1.10086 0.97265 0.85667
 O382 O 1.13409 0.97244 0.82329
 C383 C 1.11069 0.96314 0.83329
 C384 C 1.09509 0.94058 0.81793
 C385 C 1.10286 0.93310 0.79006
 H386 H 1.11922 0.94531 0.77932
 O387 O 0.89730 1.02993 0.85858
 O388 O 0.86376 1.02994 0.82578
 C389 C 0.88687 1.03984 0.83567
 C390 C 0.90174 1.06326 0.82064
 C391 C 0.89203 1.07315 0.79411
 H392 H 0.87301 1.06377 0.78529
 O393 O 0.97273 1.14321 0.89651
 O394 O 0.97296 1.17662 0.86353
 C395 C 0.96318 1.16651 0.88672
 C396 C 0.94012 1.18150 0.90234
 C397 C 0.93026 1.20825 0.89325
 H398 H 0.93974 1.21801 0.87460
 O399 O 1.02679 0.85798 0.89565
 O400 O 1.02670 0.82494 0.86233
 C401 C 1.03640 0.83483 0.88558
 C402 C 1.05940 0.81972 0.90099
 C403 C 1.06913 0.79293 0.89189
 H404 H 1.05965 0.78331 0.87325
 O405 O 1.13870 0.89679 0.97185
 O406 O 1.17232 0.86406 0.97171
 C407 C 1.16208 0.88716 0.96211
 C408 C 1.17715 0.90254 0.93891
 C409 C 1.20445 0.89393 0.93018
 H410 H 1.21500 0.87712 0.94182
 O411 O 0.85924 1.10468 0.97205
 O412 O 0.82592 1.13770 0.97189
 C413 C 0.83615 1.11469 0.96215
 C414 C 0.82122 1.09945 0.93899
 C415 C 0.79463 1.10895 0.92911
 H416 H 0.78560 1.12799 0.93830
 O417 O 1.02779 1.10392 0.85714
 O418 O 1.02802 1.13690 0.82369
 C419 C 1.03748 1.11369 0.83378
 C420 C 1.06016 1.09789 0.81853
 C421 C 1.06882 1.10590 0.79095
 H422 H 1.05899 1.12422 0.78114
 O423 O 0.97181 0.89797 0.85731
 O424 O 0.97140 0.86520 0.82370
 C425 C 0.96194 0.88833 0.83408
 C426 C 0.93875 0.90385 0.81942
 C427 C 0.92770 0.89372 0.79358
 H428 H 0.93657 0.87458 0.78435
 O429 O 1.14053 1.02754 0.89559
 O430 O 1.17392 1.02737 0.86242
 C431 C 1.16381 1.03712 0.88558
 C432 C 1.17887 1.06017 0.90093
 C433 C 1.20574 1.06983 0.89169
 H434 H 1.21545 1.06026 0.87307
 O435 O 0.85997 0.97332 0.89778
 O436 O 0.82650 0.97310 0.86490
 C437 C 0.83694 0.96329 0.88787
 C438 C 0.82248 0.93952 0.90276
 C439 C 0.79759 0.92764 0.89132
 H440 H 0.78903 0.93627 0.87174
 O441 O 1.10244 1.14132 0.97255
 O442 O 1.13629 1.17380 0.97234
 C443 C 1.11289 1.16425 0.96274
 C444 C 1.09837 1.17919 0.93902
 C445 C 1.10971 1.20450 0.92779
 H446 H 1.12758 1.21424 0.93845
 O447 O 0.89790 0.85849 0.97216
 O448 O 0.86408 0.82595 0.97239
 C449 C 0.88720 0.83573 0.96224
 C450 C 0.90121 0.82117 0.93794
 C451 C 0.88967 0.79604 0.92657
 H452 H 0.87170 0.78624 0.93719
 O453 O 0.89827 0.97443 0.85784
 O454 O 0.86484 0.97448 0.82492
 C455 C 0.88818 0.96491 0.83462
 C456 C 0.90311 0.94166 0.81940
 C457 C 0.89286 0.93168 0.79313
 H458 H 0.87541 0.94276 0.78305
 O459 O 1.10118 1.02780 0.85696
 O460 O 1.13433 1.02755 0.82351
 C461 C 1.11109 1.03722 0.83356
 C462 C 1.09571 1.06007 0.81829
 C463 C 1.10336 1.06762 0.79035
 H464 H 1.11956 1.05533 0.77949
 O465 O 0.97119 0.85858 0.89560
 O466 O 0.97081 0.82562 0.86219
 C467 C 0.96101 0.83579 0.88533
 C468 C 0.93701 0.82148 0.90008
 C469 C 0.92470 0.79688 0.88854
 H470 H 0.93320 0.78835 0.86885
 O471 O 1.02835 1.14199 0.89678
 O472 O 1.02887 1.17517 0.86355
 C473 C 1.03859 1.16484 0.88662
 C474 C 1.06253 1.17906 0.90139
 C475 C 1.07487 1.20369 0.88984
 H476 H 1.06649 1.21214 0.87014
 O477 O 0.85979 0.89832 0.97354
 O478 O 0.82600 0.86577 0.97395
 C479 C 0.83637 0.88872 0.96408
 C480 C 0.82178 0.90358 0.94038
 C481 C 0.79644 0.89252 0.92903
 H482 H 0.78644 0.87455 0.93941
 O483 O 1.14084 1.10164 0.97175
 O484 O 1.17473 1.13409 0.97164
 C485 C 1.16421 1.11120 0.96194
 C486 C 1.17903 1.09601 0.93856
 C487 C 1.20612 1.10486 0.92952
 H488 H 1.21667 1.12181 0.94097
 O489 O 1.02713 0.89688 0.85655
 O490 O 1.02693 0.86417 0.82289
 C491 C 1.03665 0.88720 0.83310
 C492 C 1.05941 0.90292 0.81791
 C493 C 1.06812 0.89500 0.79030
 H494 H 1.05824 0.87682 0.78027
 O495 O 0.97242 1.10398 0.85772
 O496 O 0.97255 1.13710 0.82442
 C497 C 0.96281 1.11396 0.83450
 C498 C 0.93947 1.09887 0.81967
 C499 C 0.93042 1.10751 0.79251
 H500 H 0.94225 1.12401 0.78165
 O501 O 0.85874 1.02877 0.89811
 O502 O 0.82506 1.02851 0.86544
 C503 C 0.83528 1.03817 0.88853
 C504 C 0.82036 1.06134 0.90381
 C505 C 0.79323 1.07029 0.89511
 H506 H 0.78242 1.05840 0.87866
 O507 O 1.13947 0.97192 0.89596
 O508 O 1.17290 0.97160 0.86283
 C509 C 1.16255 0.96191 0.88597
 C510 C 1.17723 0.93856 0.90132
 C511 C 1.20414 0.92894 0.89228
 H512 H 1.21382 0.93857 0.87369
 O513 O 1.09982 0.85754 0.97199
 O514 O 1.13328 0.82465 0.97178
 C515 C 1.11000 0.83451 0.96219
 C516 C 1.09503 0.81951 0.93884
 C517 C 1.10398 0.79249 0.92994
 H518 H 1.12087 0.78199 0.94152
 O519 O 0.89883 1.14306 0.97296
 O520 O 0.86560 1.17619 0.97297
 C521 C 0.88893 1.16627 0.96337
 C522 C 0.90421 1.18141 0.94020
 C523 C 0.89511 1.20834 0.93125
 H524 H 0.87795 1.21868 0.94270
 Cu525 Cu 1.11725 1.00003 0.87970
 Cu526 Cu 1.15724 0.99971 0.83973
 Cu527 Cu 0.88195 1.00164 0.88135
 Cu528 Cu 0.84165 1.00148 0.84198
 Cu529 Cu 1.11848 1.11804 1.00002
 Cu530 Cu 1.15923 1.15695 0.99975
 Cu531 Cu 1.11596 0.88027 0.99979
 Cu532 Cu 1.15623 0.84094 0.99951
 Cu533 Cu 0.88194 1.12023 1.00033
 Cu534 Cu 0.84187 1.15982 1.00021
 Cu535 Cu 0.88284 0.88135 1.00068
 Cu536 Cu 0.84231 0.84221 1.00106
 Cu537 Cu 1.00024 1.11999 0.88038
 Cu538 Cu 1.00058 1.15988 0.84053
 Cu539 Cu 0.99936 0.88109 0.87966
 Cu540 Cu 0.99898 0.84161 0.83944
 C541 C 1.07304 0.92572 0.83149
 H542 H 1.06696 0.93148 0.85303
 C543 C 1.08979 0.91013 0.77598
 C544 C 0.92536 1.07634 0.83325
 H545 H 0.93239 1.06940 0.85411
 C546 C 0.90643 1.09509 0.77943
 C547 C 0.92700 1.16836 0.92590
 H548 H 0.93400 1.14748 0.93263
 C549 C 0.90777 1.22200 0.90767
 C550 C 1.07246 0.83273 0.92452
 H551 H 1.06554 0.85365 0.93127
 C552 C 1.09134 0.77892 0.90637
 C553 C 1.16393 0.92520 0.92465
 H554 H 1.14289 0.93200 0.93131
 C555 C 1.21822 0.90678 0.90674
 C556 C 0.83391 1.07569 0.92614
 H557 H 0.85479 1.06880 0.93306
 C558 C 0.78009 1.09433 0.90733
 C559 C 1.07375 1.07498 0.83198
 H560 H 1.06769 1.06916 0.85352
 C561 C 1.09025 1.09068 0.77636
 C562 C 0.92636 0.92790 0.83212
 H563 H 0.93421 0.93535 0.85248
 C564 C 0.90465 0.90737 0.78018
 C565 C 1.16576 1.07339 0.92441
 H566 H 1.14480 1.06654 0.93127
 C567 C 1.21971 1.09216 0.90597
 C568 C 0.83442 0.92737 0.92734
 H569 H 0.85410 0.93587 0.93578
 C570 C 0.78443 0.90398 0.90410
 C571 C 1.07444 1.16696 0.92599
 H572 H 1.06565 1.14740 0.93446
 C573 C 1.09855 1.21674 0.90276
 C574 C 0.92513 0.83343 0.92480
 H575 H 0.93404 0.85286 0.93338
 C576 C 0.90101 0.78381 0.90158
 O577 O 0.97167 0.39954 0.35623
 O578 O 0.97176 0.36652 0.32287
 C579 C 0.96222 0.38975 0.33287
 C580 C 0.93921 0.40506 0.31780
 C581 C 0.93029 0.39631 0.29066
 H582 H 0.94187 0.37951 0.27999
 O583 O 1.02851 0.60257 0.35690
 O584 O 1.02890 0.63535 0.32326
 C585 C 1.03855 0.61238 0.33372
 C586 C 1.06173 0.59692 0.31891
 C587 C 1.07073 0.60524 0.29157
 H588 H 1.06095 0.62373 0.28210
 O589 O 0.85766 0.47274 0.39620
 O590 O 0.82418 0.47287 0.36333
 C591 C 0.83449 0.46296 0.38630
 C592 C 0.81979 0.43952 0.40149
 C593 C 0.79345 0.42914 0.39184
 H594 H 0.78395 0.43846 0.37305
 O595 O 1.14157 0.52811 0.39766
 O596 O 1.17523 0.52820 0.36475
 C597 C 1.16487 0.53785 0.38788
 C598 C 1.17967 0.56106 0.40321
 C599 C 1.20713 0.56958 0.39493
 H600 H 1.21799 0.55785 0.37831
 O601 O 0.89686 0.35976 0.47181
 O602 O 0.86377 0.32648 0.47212
 C603 C 0.88688 0.33657 0.46220
 C604 C 0.90187 0.32171 0.43866
 C605 C 0.89328 0.29447 0.42997
 H606 H 0.87687 0.28370 0.44207
 O607 O 1.10074 0.64245 0.47173
 O608 O 1.13375 0.67581 0.47144
 C609 C 1.11052 0.66568 0.46201
 C610 C 1.09511 0.68075 0.43905
 C611 C 1.10300 0.70839 0.43120
 H612 H 1.11917 0.71916 0.44351
 O613 O 0.89634 0.52871 0.35748
 O614 O 0.86303 0.52905 0.32444
 C615 C 0.88629 0.53860 0.33440
 C616 C 0.90185 0.56148 0.31913
 C617 C 0.89283 0.57083 0.29217
 H618 H 0.87376 0.56159 0.28333
 O619 O 1.10349 0.47205 0.35861
 O620 O 1.13711 0.47206 0.32564
 C621 C 1.11394 0.46218 0.33564
 C622 C 1.09938 0.43850 0.32081
 C623 C 1.11121 0.42669 0.29597
 H624 H 1.13095 0.43529 0.28768
 O625 O 1.02608 0.36003 0.39613
 O626 O 1.02622 0.32687 0.36292
 C627 C 1.03581 0.33688 0.38616
 C628 C 1.05919 0.32199 0.40120
 C629 C 1.07097 0.29703 0.38975
 H630 H 1.06230 0.28829 0.37026
 O631 O 0.97203 0.64136 0.39482
 O632 O 0.97212 0.67413 0.36117
 C633 C 0.96217 0.66424 0.38439
 C634 C 0.93845 0.67907 0.39907
 C635 C 0.92689 0.70409 0.38760
 H636 H 0.93580 0.71275 0.36812
 O637 O 0.85876 0.60408 0.47126
 O638 O 0.82539 0.63706 0.47150
 C639 C 0.83546 0.61395 0.46174
 C640 C 0.82026 0.59857 0.43879
 C641 C 0.79340 0.60780 0.42931
 H642 H 0.78397 0.62647 0.43888
 O643 O 1.14000 0.39659 0.47178
 O644 O 1.17293 0.36317 0.47169
 C645 C 1.16293 0.38621 0.46175
 C646 C 1.17776 0.40067 0.43784
 C647 C 1.20223 0.38855 0.42558
 H648 H 1.20999 0.36857 0.43389
 O649 O 0.97296 0.60210 0.35614
 O650 O 0.97331 0.63467 0.32229
 C651 C 0.96358 0.61163 0.33263
 C652 C 0.94038 0.59628 0.31779
 C653 C 0.93201 0.60425 0.29020
 H654 H 0.94441 0.62014 0.27908
 O655 O 1.02721 0.39860 0.35676
 O656 O 1.02736 0.36552 0.32347
 C657 C 1.03730 0.38844 0.33375
 C658 C 1.06163 0.40281 0.31954
 C659 C 1.07335 0.39178 0.29424
 H660 H 1.06296 0.37399 0.28403
 O661 O 1.14217 0.47252 0.39763
 O662 O 1.17582 0.47259 0.36471
 C663 C 1.16538 0.46269 0.38770
 C664 C 1.17952 0.43855 0.40226
 C665 C 1.20469 0.42675 0.39107
 H666 H 1.21502 0.43733 0.37338
 O667 O 0.85776 0.52814 0.39709
 O668 O 0.82421 0.52839 0.36429
 C669 C 0.83446 0.53784 0.38748
 C670 C 0.81963 0.56094 0.40297
 C671 C 0.79249 0.56987 0.39439
 H672 H 0.78177 0.55838 0.37757
 O673 O 0.89802 0.64276 0.47089
 O674 O 0.86477 0.67585 0.47089
 C675 C 0.88783 0.66572 0.46093
 C676 C 0.90236 0.68004 0.43674
 C677 C 0.89135 0.70531 0.42518
 H678 H 0.87329 0.71537 0.43541
 O679 O 1.10011 0.35869 0.47249
 O680 O 1.13302 0.32525 0.47226
 C681 C 1.10997 0.33557 0.46259
 C682 C 1.09521 0.32123 0.43873
 C683 C 1.10639 0.29607 0.42716
 H684 H 1.12455 0.28612 0.43723
 O685 O 1.10318 0.52740 0.35776
 O686 O 1.13659 0.52743 0.32459
 C687 C 1.11311 0.53679 0.33433
 C688 C 1.09752 0.55936 0.31879
 C689 C 1.10522 0.56699 0.29082
 H690 H 1.12138 0.55465 0.28004
 O691 O 0.89629 0.47329 0.35684
 O692 O 0.86301 0.47349 0.32376
 C693 C 0.88622 0.46374 0.33362
 C694 C 0.90153 0.44076 0.31838
 C695 C 0.89221 0.43107 0.29163
 H696 H 0.87341 0.44053 0.28236
 O697 O 1.02751 0.64203 0.39522
 O698 O 1.02779 0.67509 0.36186
 C699 C 1.03717 0.66523 0.38525
 C700 C 1.05979 0.68048 0.40102
 C701 C 1.06877 0.70779 0.39265
 H702 H 1.05915 0.71752 0.37414
 O703 O 0.97043 0.36035 0.39508
 O704 O 0.97047 0.32713 0.36194
 C705 C 0.96055 0.33730 0.38503
 C706 C 0.93721 0.32241 0.40036
 C707 C 0.92747 0.29568 0.39118
 H708 H 0.93684 0.28656 0.37222
 O709 O 1.14055 0.60419 0.47187
 O710 O 1.17377 0.63731 0.47169
 C711 C 1.16378 0.61412 0.46209
 C712 C 1.17903 0.59867 0.43908
 C713 C 1.20619 0.60749 0.42989
 H714 H 1.21572 0.62598 0.43966
 O715 O 0.85788 0.39874 0.47213
 O716 O 0.82465 0.36562 0.47238
 C717 C 0.83470 0.38872 0.46253
 C718 C 0.81978 0.40358 0.43909
 C719 C 0.79319 0.39393 0.42957
 H720 H 0.78290 0.37655 0.44072
 Cu721 Cu 0.99879 0.38294 0.37937
 Cu722 Cu 0.99891 0.34317 0.33947
 Cu723 Cu 1.00025 0.61874 0.37913
 Cu724 Cu 1.00056 0.65811 0.33876
 Cu725 Cu 0.88035 0.50069 0.38019
 Cu726 Cu 0.84022 0.50104 0.34065
 Cu727 Cu 1.11928 0.50013 0.38124
 Cu728 Cu 1.15960 0.50022 0.34165
 C729 C 0.92505 0.42763 0.33121
 H730 H 0.93185 0.43445 0.35217
 C731 C 0.90664 0.40898 0.27730
 C732 C 1.07532 0.57405 0.33236
 H733 H 1.06906 0.56811 0.35381
 C734 C 1.09218 0.59016 0.27685
 C735 C 0.83270 0.42664 0.42518
 H736 H 0.85329 0.43411 0.43236
 C737 C 0.77977 0.40643 0.40588
 C738 C 1.16601 0.57543 0.42561
 H739 H 1.14483 0.56893 0.43211
 C740 C 1.22071 0.59288 0.40799
 C741 C 0.92420 0.33523 0.42407
 H742 H 0.93105 0.35616 0.43080
 C743 C 0.90576 0.28109 0.40610
 C744 C 1.07315 0.66718 0.42421
 H745 H 1.06694 0.64583 0.43028
 C746 C 1.09031 0.72217 0.40779
 C747 C 0.92556 0.57444 0.33179
 H748 H 0.93206 0.56799 0.35297
 C749 C 0.90799 0.59197 0.27706
 C750 C 1.07456 0.42645 0.33240
 H751 H 1.06577 0.43496 0.35200
 C752 C 1.09851 0.40322 0.28245
 C753 C 1.07138 0.33386 0.42581
 H754 H 1.06292 0.35352 0.43435
 C755 C 1.09479 0.28406 0.40236
 C756 C 0.92613 0.66731 0.42372
 H757 H 0.93453 0.64765 0.43231
 C758 C 0.90321 0.71736 0.40035
 C759 C 0.83313 0.57510 0.42549
 H760 H 0.85412 0.56832 0.43217
 C761 C 0.77913 0.59345 0.40719
 C762 C 1.16654 0.42565 0.42599
 H763 H 1.14711 0.43457 0.43471
 C764 C 1.21609 0.40134 0.40218
 O765 O 1.02674 0.39880 0.64221
 O766 O 1.02658 0.36579 0.67563
 C767 C 1.03639 0.38884 0.66541
 C768 C 1.05992 0.40371 0.68007
 C769 C 1.07127 0.39273 0.70544
 H770 H 1.06214 0.37365 0.71460
 O771 O 0.97290 0.60342 0.64267
 O772 O 0.97279 0.63625 0.67624
 C773 C 0.96340 0.61301 0.66617
 C774 C 0.94063 0.59734 0.68142
 C775 C 0.93240 0.60525 0.70909
 H776 H 0.94420 0.62179 0.71986
 O777 O 0.85928 0.52878 0.60296
 O778 O 0.82586 0.52919 0.63610
 C779 C 0.83620 0.53882 0.61294
 C780 C 0.82172 0.56252 0.59797
 C781 C 0.79651 0.57412 0.60917
 H782 H 0.78757 0.56521 0.62851
 O783 O 1.14048 0.47261 0.60212
 O784 O 1.17384 0.47264 0.63510
 C785 C 1.16351 0.46268 0.61218
 C786 C 1.17795 0.43871 0.59758
 C787 C 1.20298 0.42705 0.60893
 H788 H 1.21182 0.43611 0.62817
 O789 O 1.10119 0.35799 0.52817
 O790 O 1.13411 0.32457 0.52793
 C791 C 1.11112 0.33479 0.53790
 C792 C 1.09641 0.32026 0.56184
 C793 C 1.10699 0.29455 0.57286
 H794 H 1.12451 0.28432 0.56197
 O795 O 0.89809 0.64284 0.52674
 O796 O 0.86497 0.67606 0.52681
 C797 C 0.88802 0.66590 0.53663
 C798 C 0.90257 0.68036 0.56061
 C799 C 0.89180 0.70599 0.57159
 H800 H 0.87420 0.71620 0.56085
 O801 O 0.89774 0.47375 0.64315
 O802 O 0.86434 0.47407 0.67633
 C803 C 0.88760 0.46431 0.66646
 C804 C 0.90236 0.44088 0.68148
 C805 C 0.89198 0.43054 0.70765
 H806 H 0.87469 0.44178 0.71787
 O807 O 1.10212 0.52864 0.64118
 O808 O 1.13524 0.52837 0.67443
 C809 C 1.11208 0.53811 0.66447
 C810 C 1.09693 0.56115 0.67973
 C811 C 1.10528 0.56927 0.70724
 H812 H 1.12190 0.55736 0.71780
 O813 O 0.97156 0.35997 0.60302
 O814 O 0.97122 0.32688 0.63634
 C815 C 0.96161 0.33700 0.61314
 C816 C 0.93803 0.32239 0.59828
 C817 C 0.92636 0.29735 0.60962
 H818 H 0.93516 0.28864 0.62906
 O819 O 1.02740 0.64348 0.60327
 O820 O 1.02723 0.67672 0.63640
 C821 C 1.03689 0.66676 0.61312
 C822 C 1.05979 0.68189 0.59747
 C823 C 1.06936 0.70879 0.60635
 H824 H 1.05975 0.71857 0.62491
 O825 O 0.85814 0.39871 0.52790
 O826 O 0.82490 0.36560 0.52816
 C827 C 0.83509 0.38863 0.53796
 C828 C 0.82070 0.40315 0.56213
 C829 C 0.79546 0.39198 0.57383
 H830 H 0.78541 0.37425 0.56325
 O831 O 1.13978 0.60425 0.52775
 O832 O 1.17274 0.63763 0.52767
 C833 C 1.16262 0.61464 0.53775
 C834 C 1.17715 0.60022 0.56177
 C835 C 1.20136 0.61241 0.57433
 H836 H 1.20900 0.63252 0.56624
 O837 O 1.02828 0.60427 0.64192
 O838 O 1.02828 0.63723 0.67535
 C839 C 1.03807 0.61421 0.66508
 C840 C 1.06120 0.59881 0.67991
 C841 C 1.07041 0.60725 0.70713
 H842 H 1.06065 0.62558 0.71705
 O843 O 0.97123 0.39805 0.64278
 O844 O 0.97102 0.36502 0.67618
 C845 C 0.96132 0.38805 0.66597
 C846 C 0.93787 0.40307 0.68081
 C847 C 0.92643 0.39227 0.70633
 H848 H 0.93505 0.37278 0.71493
 O849 O 1.14098 0.52831 0.60176
 O850 O 1.17419 0.52838 0.63488
 C851 C 1.16407 0.53816 0.61177
 C852 C 1.17845 0.56223 0.59720
 C853 C 1.20355 0.57390 0.60848
 H854 H 1.21364 0.56305 0.62603
 O855 O 0.85909 0.47298 0.60392
 O856 O 0.82564 0.47330 0.63703
 C857 C 0.83604 0.46310 0.61416
 C858 C 0.82159 0.43903 0.59976
 C859 C 0.79705 0.42678 0.61180
 H860 H 0.78893 0.43522 0.63166
 O861 O 1.10110 0.64338 0.52718
 O862 O 1.13405 0.67681 0.52674
 C863 C 1.11091 0.66674 0.53656
 C864 C 1.09568 0.68189 0.55968
 C865 C 1.10454 0.70898 0.56839
 H866 H 1.12159 0.71942 0.55684
 O867 O 0.89711 0.35970 0.52746
 O868 O 0.86391 0.32654 0.52772
 C869 C 0.88708 0.33660 0.53732
 C870 C 0.90188 0.32194 0.56098
 C871 C 0.89096 0.29646 0.57222
 H872 H 0.87300 0.28648 0.56187
 O873 O 1.10170 0.47336 0.64154
 O874 O 1.13504 0.47318 0.67457
 C875 C 1.11172 0.46370 0.66475
 C876 C 1.09664 0.44046 0.67985
 C877 C 1.10738 0.42950 0.70553
 H878 H 1.12560 0.43963 0.71528
 O879 O 0.89751 0.52901 0.64267
 O880 O 0.86420 0.52929 0.67595
 C881 C 0.88749 0.53876 0.66589
 C882 C 0.90303 0.56153 0.68109
 C883 C 0.89445 0.57035 0.70844
 H884 H 0.87602 0.56050 0.71818
 O885 O 0.97187 0.64207 0.60333
 O886 O 0.97146 0.67511 0.63666
 C887 C 0.96175 0.66494 0.61352
 C888 C 0.93811 0.67952 0.59858
 C889 C 0.92653 0.70472 0.60965
 H890 H 0.93518 0.71342 0.62914
 O891 O 1.02718 0.35909 0.60411
 O892 O 1.02689 0.32600 0.63744
 C893 C 1.03691 0.33605 0.61436
 C894 C 1.06057 0.32122 0.59963
 C895 C 1.07211 0.29611 0.61099
 H896 H 1.06337 0.28769 0.63062
 O897 O 1.14005 0.39728 0.52756
 O898 O 1.17303 0.36392 0.52748
 C899 C 1.16317 0.38715 0.53722
 C900 C 1.17804 0.40198 0.56077
 C901 C 1.20349 0.39102 0.57205
 H902 H 1.21328 0.37283 0.56190
 O903 O 0.85932 0.60365 0.52690
 O904 O 0.82610 0.63677 0.52714
 C905 C 0.83621 0.61365 0.53685
 C906 C 0.82153 0.59884 0.56066
 C907 C 0.79592 0.60967 0.57181
 H908 H 0.78598 0.62763 0.56143
 Cu909 Cu 0.99921 0.38228 0.61967
 Cu910 Cu 0.99890 0.34257 0.65973
 Cu911 Cu 1.00017 0.62003 0.61946
 Cu912 Cu 0.99988 0.65970 0.65948
 Cu913 Cu 0.88081 0.38256 0.49978
 Cu914 Cu 0.84095 0.34276 0.50009
 Cu915 Cu 1.11705 0.38099 0.50009
 Cu916 Cu 1.15657 0.34088 0.49984
 Cu917 Cu 0.88191 0.62007 0.49889
 Cu918 Cu 0.84203 0.65980 0.49912
 Cu919 Cu 1.11730 0.62016 0.49961
 Cu920 Cu 1.15698 0.66016 0.49926
 Cu921 Cu 0.88169 0.50112 0.61980
 Cu922 Cu 0.84153 0.50154 0.65956
 Cu923 Cu 1.11804 0.50075 0.61828
 Cu924 Cu 1.15802 0.50066 0.65797
 C925 C 1.07265 0.42768 0.66753
 H926 H 1.06447 0.43579 0.64755
 C927 C 1.09521 0.40526 0.71826
 C928 C 0.92614 0.57512 0.66782
 H929 H 0.93239 0.56892 0.64645
 C930 C 0.90915 0.59209 0.72286
 C931 C 0.83405 0.57500 0.57365
 H932 H 0.85393 0.56669 0.56536
 C933 C 0.78341 0.59780 0.59640
 C934 C 1.16570 0.42609 0.57344
 H935 H 1.14596 0.43452 0.56505
 C936 C 1.21599 0.40311 0.59647
 C937 C 1.07289 0.33311 0.57508
 H938 H 1.06467 0.35294 0.56673
 C939 C 1.09539 0.28241 0.59785
 C940 C 0.92600 0.66751 0.57401
 H941 H 0.93430 0.64765 0.56579
 C942 C 0.90329 0.71820 0.59642
 C943 C 0.92567 0.42736 0.66858
 H944 H 0.93377 0.43522 0.64840
 C945 C 0.90342 0.40578 0.72015
 C946 C 1.07460 0.57575 0.66645
 H947 H 1.06806 0.56952 0.64522
 C948 C 1.09232 0.59241 0.72124
 C949 C 0.92570 0.33449 0.57390
 H950 H 0.93407 0.35427 0.56552
 C951 C 0.90271 0.28419 0.59689
 C952 C 1.07302 0.66873 0.57405
 H953 H 1.06621 0.64774 0.56748
 C954 C 1.09169 0.72269 0.59180
 C955 C 0.83330 0.42699 0.57496
 H956 H 0.85276 0.43570 0.56609
 C957 C 0.78359 0.40322 0.59908
 C958 C 1.16578 0.57519 0.57346
 H959 H 1.14646 0.56628 0.56461
 C960 C 1.21500 0.59949 0.59774
 O961 O 0.47205 0.89888 0.35776
 O962 O 0.47222 0.86569 0.32457
 C963 C 0.46238 0.88878 0.33462
 C964 C 0.43862 0.90339 0.31996
 C965 C 0.42735 0.89226 0.29462
 H966 H 0.43770 0.87426 0.28468
 O967 O 0.52676 1.10349 0.35697
 O968 O 0.52683 1.13652 0.32355
 C969 C 0.53636 1.11331 0.33361
 C970 C 0.55939 1.09791 0.31854
 C971 C 0.56744 1.10560 0.29077
 H972 H 0.55520 1.12167 0.27977
 O973 O 0.35748 0.97434 0.39651
 O974 O 0.32399 0.97441 0.36366
 C975 C 0.33416 0.96475 0.38679
 C976 C 0.31928 0.94159 0.40225
 C977 C 0.29270 0.93151 0.39293
 H978 H 0.28303 0.94101 0.37431
 O979 O 0.64132 1.02931 0.39758
 O980 O 0.67481 1.02915 0.36449
 C981 C 0.66474 1.03874 0.38778
 C982 C 0.67987 1.06172 0.40319
 C983 C 0.70725 1.07032 0.39468
 H984 H 0.71795 1.05868 0.37788
 O985 O 0.39672 0.86061 0.47178
 O986 O 0.36352 0.82745 0.47204
 C987 C 0.38672 0.83740 0.46221
 C988 C 0.40188 0.82222 0.43899
 C989 C 0.39296 0.79512 0.43021
 H990 H 0.37582 0.78477 0.44169
 O991 O 0.60126 1.14300 0.47210
 O992 O 0.63420 1.17643 0.47169
 C993 C 0.61096 1.16625 0.46232
 C994 C 0.59547 1.18119 0.43928
 C995 C 0.60330 1.20882 0.43122
 H996 H 0.61923 1.21972 0.44367
 O997 O 0.39704 1.02872 0.35657
 O998 O 0.36404 1.02857 0.32320
 C999 C 0.38719 1.03824 0.33323
 C1000 C 0.40253 1.06131 0.31818
 C1001 C 0.39368 1.07063 0.29114
 H1002 H 0.37547 1.06061 0.28127
 O1003 O 0.60144 0.97496 0.35791
 O1004 O 0.63457 0.97503 0.32444
 C1005 C 0.61128 0.96548 0.33452
 C1006 C 0.59602 0.94243 0.31940
 C1007 C 0.60497 0.93363 0.29224
 H1008 H 0.62188 0.94521 0.28165
 O1009 O 0.52715 0.85988 0.39719
 O1010 O 0.52765 0.82674 0.36397
 C1011 C 0.53707 0.83680 0.38725
 C1012 C 0.56025 0.82193 0.40260
 C1013 C 0.57132 0.79620 0.39219
 H1014 H 0.56247 0.78715 0.37295
 O1015 O 0.47171 1.14273 0.39630
 O1016 O 0.47163 1.17615 0.36331
 C1017 C 0.46212 1.16605 0.38663
 C1018 C 0.43953 1.18124 0.40272
 C1019 C 0.43049 1.20856 0.39452
 H1020 H 0.44003 1.21840 0.37595
 O1021 O 0.35877 1.10402 0.47194
 O1022 O 0.32594 1.13753 0.47194
 C1023 C 0.33594 1.11450 0.46194
 C1024 C 0.32154 1.10041 0.43767
 C1025 C 0.29670 1.11216 0.42586
 H1026 H 0.28696 1.13011 0.43642
 O1027 O 0.64032 0.89848 0.47160
 O1028 O 0.67336 0.86518 0.47145
 C1029 C 0.66320 0.88813 0.46146
 C1030 C 0.67752 0.90238 0.43714
 C1031 C 0.70229 0.89068 0.42496
 H1032 H 0.71193 0.87225 0.43479
 O1033 O 0.47148 1.10379 0.35706
 O1034 O 0.47143 1.13693 0.32378
 C1035 C 0.46192 1.11366 0.33376
 C1036 C 0.43918 1.09813 0.31848
 C1037 C 0.43055 1.10669 0.29118
 H1038 H 0.44173 1.12395 0.28076
 O1039 O 0.52754 0.89872 0.35796
 O1040 O 0.52788 0.86578 0.32452
 C1041 C 0.53742 0.88892 0.33470
 C1042 C 0.56046 0.90451 0.31969
 C1043 C 0.57033 0.89545 0.29285
 H1044 H 0.56102 0.87672 0.28330
 O1045 O 0.64049 0.97365 0.39653
 O1046 O 0.67370 0.97347 0.36317
 C1047 C 0.66328 0.96342 0.38609
 C1048 C 0.67733 0.93901 0.40021
 C1049 C 0.70165 0.92662 0.38799
 H1050 H 0.71020 0.93541 0.36842
 O1051 O 0.35879 1.02992 0.39615
 O1052 O 0.32567 1.03017 0.36292
 C1053 C 0.33605 1.04019 0.38581
 C1054 C 0.32201 1.06455 0.40010
 C1055 C 0.29799 1.07739 0.38788
 H1056 H 0.29004 1.06918 0.36792
 O1057 O 0.39838 1.14252 0.47330
 O1058 O 0.36560 1.17608 0.47383
 C1059 C 0.38881 1.16604 0.46410
 C1060 C 0.40429 1.18138 0.44118
 C1061 C 0.39617 1.20896 0.43327
 H1062 H 0.37975 1.21962 0.44547
 O1063 O 0.60106 0.85982 0.47313
 O1064 O 0.63408 0.82648 0.47334
 C1065 C 0.61088 0.83648 0.46370
 C1066 C 0.59587 0.82148 0.44042
 C1067 C 0.60611 0.79535 0.43020
 H1068 H 0.62354 0.78515 0.44121
 O1069 O 0.60288 1.03027 0.35788
 O1070 O 0.63618 1.03031 0.32461
 C1071 C 0.61298 1.03996 0.33465
 C1072 C 0.59750 1.06271 0.31934
 C1073 C 0.60609 1.07149 0.29196
 H1074 H 0.62472 1.06184 0.28246
 O1075 O 0.39679 0.97332 0.35778
 O1076 O 0.36346 0.97307 0.32475
 C1077 C 0.38652 0.96325 0.33490
 C1078 C 0.40117 0.93939 0.32040
 C1079 C 0.38972 0.92743 0.29551
 H1080 H 0.37012 0.93590 0.28701
 O1081 O 0.52728 1.14247 0.39577
 O1082 O 0.52737 1.17579 0.36267
 C1083 C 0.53711 1.16559 0.38577
 C1084 C 0.56017 1.18058 0.40121
 C1085 C 0.56941 1.20766 0.39244
 H1086 H 0.55990 1.21694 0.37368
 O1087 O 0.47154 0.85977 0.39647
 O1088 O 0.47189 0.82639 0.36348
 C1089 C 0.46183 0.83662 0.38649
 C1090 C 0.43831 0.82190 0.40168
 C1091 C 0.42859 0.79510 0.39267
 H1092 H 0.43842 0.78533 0.37423
 O1093 O 0.64112 1.10480 0.47209
 O1094 O 0.67431 1.13794 0.47178
 C1095 C 0.66431 1.11475 0.46221
 C1096 C 0.67946 1.09930 0.43913
 C1097 C 0.70651 1.10818 0.42971
 H1098 H 0.71604 1.12671 0.43940
 O1099 O 0.35798 0.90005 0.47216
 O1100 O 0.32466 0.86701 0.47236
 C1101 C 0.33470 0.89018 0.46267
 C1102 C 0.31955 0.90538 0.43957
 C1103 C 0.29271 0.89607 0.43046
 H1104 H 0.28245 0.87875 0.44169
 Cu1105 Cu 0.49958 0.88260 0.38068
 Cu1106 Cu 0.49999 0.84281 0.34080
 Cu1107 Cu 0.49924 1.11985 0.37987
 Cu1108 Cu 0.49927 1.15972 0.34000
 Cu1109 Cu 0.38083 1.00154 0.38009
 Cu1110 Cu 0.34090 1.00152 0.34034
 Cu1111 Cu 0.61825 1.00217 0.38086
 Cu1112 Cu 0.65824 1.00205 0.34091
 C1113 C 0.42567 0.92726 0.33242
 H1114 H 0.43414 0.93585 0.35207
 C1115 C 0.40260 0.90383 0.28240
 C1116 C 0.57420 1.07610 0.33242
 H1117 H 0.56798 1.06997 0.35383
 C1118 C 0.59102 1.09281 0.27719
 C1119 C 0.33245 0.92843 0.42564
 H1120 H 0.35324 0.93561 0.43252
 C1121 C 0.27904 0.90881 0.40703
 C1122 C 0.66640 1.07603 0.42575
 H1123 H 0.64527 1.06951 0.43241
 C1124 C 0.72090 1.09363 0.40768
 C1125 C 0.42482 0.83520 0.42487
 H1126 H 0.43178 0.85611 0.43155
 C1127 C 0.40608 0.78122 0.40701
 C1128 C 0.57347 1.16748 0.42454
 H1129 H 0.56713 1.14624 0.43086
 C1130 C 0.59083 1.22234 0.40751
 C1131 C 0.42535 1.07513 0.33158
 H1132 H 0.43185 1.06848 0.35270
 C1133 C 0.40769 1.09323 0.27726
 C1134 C 0.57343 0.92805 0.33274
 H1135 H 0.56646 0.93470 0.35374
 C1136 C 0.59252 0.90998 0.27875
 C1137 C 0.57264 0.83435 0.42678
 H1138 H 0.56480 0.85463 0.43443
 C1139 C 0.59438 0.78268 0.40573
 C1140 C 0.42631 1.16791 0.42610
 H1141 H 0.43262 1.14659 0.43210
 C1142 C 0.40887 1.22281 0.40980
 C1143 C 0.33370 1.07628 0.42495
 H1144 H 0.35281 1.06709 0.43395
 C1145 C 0.28492 1.10124 0.40052
 C1146 C 0.66544 0.92677 0.42482
 H1147 H 0.64624 0.93579 0.43394
 C1148 C 0.71439 0.90240 0.40009
 O1149 O 0.52739 0.89935 0.64213
 O1150 O 0.52734 0.86609 0.67530
 C1151 C 0.53739 0.88901 0.66503
 C1152 C 0.56146 0.90334 0.67938
 C1153 C 0.57353 0.89158 0.70406
 H1154 H 0.56475 0.87211 0.71269
 O1155 O 0.47340 1.10362 0.64295
 O1156 O 0.47323 1.13652 0.67644
 C1157 C 0.46374 1.11332 0.66634
 C1158 C 0.44065 1.09789 0.68146
 C1159 C 0.43248 1.10585 0.70915
 H1160 H 0.44464 1.12206 0.72001
 O1161 O 0.35755 1.02899 0.60402
 O1162 O 0.32404 1.02923 0.63707
 C1163 C 0.33421 1.03866 0.61376
 C1164 C 0.31924 1.06147 0.59795
 C1165 C 0.29226 1.07113 0.60673
 H1166 H 0.28232 1.06165 0.62529
 O1167 O 0.64163 0.97379 0.60302
 O1168 O 0.67529 0.97374 0.63572
 C1169 C 0.66496 0.96409 0.61267
 C1170 C 0.67984 0.94109 0.59704
 C1171 C 0.70675 0.93140 0.60584
 H1172 H 0.71652 0.94088 0.62440
 O1173 O 0.60200 0.86074 0.52878
 O1174 O 0.63527 0.82767 0.52897
 C1175 C 0.61222 0.83787 0.53888
 C1176 C 0.59746 0.82330 0.56275
 C1177 C 0.60874 0.79826 0.57445
 H1178 H 0.62832 0.78975 0.56573
 O1179 O 0.39707 1.14148 0.52910
 O1180 O 0.36384 1.17460 0.52950
 C1181 C 0.38675 1.16425 0.53941
 C1182 C 0.40125 1.17861 0.56345
 C1183 C 0.38969 1.20343 0.57543
 H1184 H 0.36985 1.21145 0.56707
 O1185 O 0.39676 0.97456 0.64393
 O1186 O 0.36368 0.97472 0.67743
 C1187 C 0.38690 0.96509 0.66734
 C1188 C 0.40249 0.94230 0.68252
 C1189 C 0.39385 0.93312 0.70976
 H1190 H 0.37543 0.94287 0.71959
 O1191 O 0.60306 1.02932 0.64239
 O1192 O 0.63631 1.02907 0.67550
 C1193 C 0.61313 1.03885 0.66561
 C1194 C 0.59810 1.06210 0.68073
 C1195 C 0.60714 1.07126 0.70771
 H1196 H 0.62428 1.05997 0.71815
 O1197 O 0.47080 0.86150 0.60381
 O1198 O 0.47039 0.82838 0.63710
 C1199 C 0.46077 0.83853 0.61394
 C1200 C 0.43733 0.82383 0.59890
 C1201 C 0.42609 0.79832 0.60968
 H1202 H 0.43493 0.78934 0.62898
 O1203 O 0.52842 1.14351 0.60391
 O1204 O 0.52810 1.17683 0.63697
 C1205 C 0.53786 1.16683 0.61375
 C1206 C 0.56077 1.18201 0.59816
 C1207 C 0.57037 1.20885 0.60718
 H1208 H 0.56082 1.21851 0.62583
 O1209 O 0.35806 0.89969 0.52789
 O1210 O 0.32479 0.86661 0.52801
 C1211 C 0.33498 0.88960 0.53788
 C1212 C 0.32052 0.90400 0.56205
 C1213 C 0.29505 0.89294 0.57330
 H1214 H 0.28492 0.87547 0.56235
 O1215 O 0.64066 1.10492 0.52794
 O1216 O 0.67369 1.13824 0.52781
 C1217 C 0.66358 1.11524 0.53787
 C1218 C 0.67820 1.10054 0.56172
 C1219 C 0.70315 1.11188 0.57372
 H1220 H 0.71133 1.13168 0.56541
 O1221 O 0.52896 1.10441 0.64268
 O1222 O 0.52882 1.13753 0.67595
 C1223 C 0.53871 1.11452 0.66579
 C1224 C 0.56204 1.09947 0.68063
 C1225 C 0.57187 1.10887 0.70728
 H1226 H 0.56229 1.12751 0.71679
 O1227 O 0.47189 0.90025 0.64328
 O1228 O 0.47185 0.86727 0.67672
 C1229 C 0.46251 0.89061 0.66682
 C1230 C 0.43991 0.90628 0.68235
 C1231 C 0.43165 0.89803 0.70992
 H1232 H 0.44338 0.88127 0.72045
 O1233 O 0.64112 1.02918 0.60220
 O1234 O 0.67452 1.02917 0.63515
 C1235 C 0.66434 1.03886 0.61201
 C1236 C 0.67901 1.06252 0.59712
 C1237 C 0.70482 1.07315 0.60766
 H1238 H 0.71501 1.06170 0.62475
 O1239 O 0.35857 0.97347 0.60445
 O1240 O 0.32528 0.97341 0.63773
 C1241 C 0.33564 0.96340 0.61474
 C1242 C 0.32128 0.93941 0.60012
 C1243 C 0.29651 0.92722 0.61175
 H1244 H 0.28820 0.93552 0.63159
 O1245 O 0.60185 1.14390 0.52757
 O1246 O 0.63478 1.17734 0.52710
 C1247 C 0.61169 1.16723 0.53699
 C1248 C 0.59654 1.18225 0.56025
 C1249 C 0.60544 1.20929 0.56911
 H1250 H 0.62245 1.21980 0.55758
 O1251 O 0.39709 0.86085 0.52747
 O1252 O 0.36385 0.82774 0.52765
 C1253 C 0.38699 0.83780 0.53734
 C1254 C 0.40167 0.82318 0.56111
 C1255 C 0.39111 0.79736 0.57186
 H1256 H 0.37345 0.78718 0.56118
 O1257 O 0.60236 0.97393 0.64190
 O1258 O 0.63589 0.97360 0.67472
 C1259 C 0.61261 0.96402 0.66488
 C1260 C 0.59791 0.94033 0.67960
 C1261 C 0.60921 0.92874 0.70474
 H1262 H 0.62740 0.93887 0.71449
 O1263 O 0.39680 1.02989 0.64273
 O1264 O 0.36361 1.03018 0.67612
 C1265 C 0.38683 1.03975 0.66592
 C1266 C 0.40246 1.06264 0.68097
 C1267 C 0.39385 1.07171 0.70824
 H1268 H 0.37518 1.06217 0.71780
 O1269 O 0.47298 1.14235 0.60360
 O1270 O 0.47250 1.17545 0.63687
 C1271 C 0.46294 1.16531 0.61367
 C1272 C 0.43909 1.17970 0.59893
 C1273 C 0.42817 1.20541 0.60951
 H1274 H 0.43942 1.21565 0.62669
 O1275 O 0.52637 0.86035 0.60344
 O1276 O 0.52602 0.82704 0.63656
 C1277 C 0.53591 0.83711 0.61341
 C1278 C 0.55966 0.82244 0.59863
 C1279 C 0.57072 0.79686 0.60944
 H1280 H 0.55999 0.78673 0.62718
 O1281 O 0.64095 0.89975 0.52723
 O1282 O 0.67431 0.86675 0.52702
 C1283 C 0.66436 0.89000 0.53654
 C1284 C 0.67969 0.90535 0.55935
 C1285 C 0.70689 0.89652 0.56785
 H1286 H 0.71731 0.87960 0.55620
 O1287 O 0.35822 1.10253 0.52758
 O1288 O 0.32495 1.13562 0.52750
 C1289 C 0.33485 1.11236 0.53705
 C1290 C 0.31951 1.09711 0.56005
 C1291 C 0.29234 1.10606 0.56871
 H1292 H 0.28197 1.12306 0.55715
 Cu1293 Cu 0.49905 0.88367 0.61982
 Cu1294 Cu 0.49876 0.84384 0.65975
 Cu1295 Cu 0.50101 1.12016 0.61997
 Cu1296 Cu 0.50057 1.15992 0.65990
 Cu1297 Cu 0.38080 0.88361 0.49973
 Cu1298 Cu 0.34085 0.84390 0.49996
 Cu1299 Cu 0.61775 0.88303 0.50020
 Cu1300 Cu 0.65758 0.84317 0.50024
 Cu1301 Cu 0.38144 1.11931 0.50041
 Cu1302 Cu 0.34178 1.15931 0.50069
 Cu1303 Cu 0.61799 1.12077 0.49992
 Cu1304 Cu 0.65763 1.16078 0.49946
 Cu1305 Cu 0.38071 1.00176 0.62045
 Cu1306 Cu 0.34073 1.00197 0.66037
 Cu1307 Cu 0.61869 1.00156 0.61910
 Cu1308 Cu 0.65887 1.00142 0.65859
 C1309 C 0.57377 0.92775 0.66734
 H1310 H 0.56508 0.93646 0.64783
 C1311 C 0.59755 0.90397 0.71691
 C1312 C 0.42585 1.07590 0.66779
 H1313 H 0.43213 1.06957 0.64646
 C1314 C 0.40890 1.09316 0.72282
 C1315 C 0.33259 1.07453 0.57450
 H1316 H 0.35365 1.06768 0.56799
 C1317 C 0.27847 1.09334 0.59209
 C1318 C 0.66655 0.92795 0.57374
 H1319 H 0.64550 0.93479 0.56729
 C1320 C 0.72066 0.90920 0.59123
 C1321 C 0.57290 0.83521 0.57498
 H1322 H 0.56458 0.85499 0.56661
 C1323 C 0.59562 0.78472 0.59786
 C1324 C 0.42586 1.16679 0.57548
 H1325 H 0.43428 1.14705 0.56709
 C1326 C 0.40295 1.21733 0.59847
 C1327 C 0.42555 0.92877 0.66907
 H1328 H 0.43182 0.93519 0.64777
 C1329 C 0.40843 0.91104 0.72387
 C1330 C 0.57525 1.07606 0.66761
 H1331 H 0.56818 1.06912 0.64677
 C1332 C 0.59429 1.09475 0.72127
 C1333 C 0.42503 0.83604 0.57454
 H1334 H 0.43312 0.85609 0.56653
 C1335 C 0.40284 0.78493 0.59646
 C1336 C 0.57394 1.16900 0.57462
 H1337 H 0.56709 1.14806 0.56794
 C1338 C 0.59266 1.22285 0.59266
 C1339 C 0.33318 0.92756 0.57531
 H1340 H 0.35280 0.93620 0.56673
 C1341 C 0.28301 0.90394 0.59854
 C1342 C 0.66620 1.07595 0.57374
 H1343 H 0.64635 1.06772 0.56544
 C1344 C 0.71688 1.09839 0.59681
 O1345 O 0.47216 0.39574 0.85722
 O1346 O 0.47224 0.36273 0.82385
 C1347 C 0.46259 0.38590 0.83391
 C1348 C 0.43981 0.40155 0.81868
 C1349 C 0.42988 0.39225 0.79200
 H1350 H 0.43877 0.37304 0.78307
 O1351 O 0.52708 0.60446 0.85806
 O1352 O 0.52759 0.63762 0.82479
 C1353 C 0.53710 0.61444 0.83494
 C1354 C 0.56020 0.59896 0.81999
 C1355 C 0.56982 0.60781 0.79298
 H1356 H 0.56041 0.62648 0.78342
 O1357 O 0.36084 0.47233 0.89513
 O1358 O 0.32788 0.47204 0.86175
 C1359 C 0.33803 0.46220 0.88482
 C1360 C 0.32360 0.43818 0.89929
 C1361 C 0.29947 0.42562 0.88699
 H1362 H 0.29136 0.43396 0.86709
 O1363 O 0.63971 0.52734 0.89685
 O1364 O 0.67318 0.52740 0.86376
 C1365 C 0.66306 0.53696 0.88703
 C1366 C 0.67822 0.55981 0.90266
 C1367 C 0.70520 0.56933 0.89359
 H1368 H 0.71489 0.55979 0.87495
 O1369 O 0.39733 0.35815 0.97275
 O1370 O 0.36353 0.32561 0.97300
 C1371 C 0.38690 0.33513 0.96314
 C1372 C 0.40137 0.32018 0.93926
 C1373 C 0.38994 0.29498 0.92787
 H1374 H 0.37200 0.28525 0.93854
 O1375 O 0.60166 0.64114 0.97233
 O1376 O 0.63535 0.67379 0.97197
 C1377 C 0.61215 0.66392 0.96223
 C1378 C 0.59768 0.67874 0.93847
 C1379 C 0.60961 0.70347 0.92668
 H1380 H 0.62927 0.71170 0.93539
 O1381 O 0.39926 0.52835 0.85619
 O1382 O 0.36615 0.52821 0.82293
 C1383 C 0.38925 0.53796 0.83298
 C1384 C 0.40414 0.56131 0.81801
 C1385 C 0.39498 0.57038 0.79110
 H1386 H 0.37810 0.55879 0.78060
 O1387 O 0.60016 0.47268 0.85727
 O1388 O 0.63340 0.47282 0.82390
 C1389 C 0.61009 0.46325 0.83389
 C1390 C 0.59487 0.44027 0.81867
 C1391 C 0.60299 0.43243 0.79097
 H1392 H 0.61910 0.44486 0.78013
 O1393 O 0.52720 0.35668 0.89662
 O1394 O 0.52733 0.32326 0.86370
 C1395 C 0.53691 0.33342 0.88687
 C1396 C 0.55987 0.31848 0.90258
 C1397 C 0.56909 0.29125 0.89425
 H1398 H 0.55936 0.28133 0.87591
 O1399 O 0.47074 0.64274 0.89656
 O1400 O 0.47105 0.67610 0.86351
 C1401 C 0.46085 0.66571 0.88640
 C1402 C 0.43667 0.67992 0.90091
 C1403 C 0.42425 0.70434 0.88910
 H1404 H 0.43287 0.71285 0.86945
 O1405 O 0.35886 0.60174 0.97131
 O1406 O 0.32499 0.63422 0.97153
 C1407 C 0.33555 0.61138 0.96163
 C1408 C 0.32095 0.59636 0.93810
 C1409 C 0.29411 0.60547 0.92879
 H1410 H 0.28354 0.62257 0.94007
 O1411 O 0.63934 0.39709 0.97251
 O1412 O 0.67294 0.36435 0.97219
 C1413 C 0.66263 0.38745 0.96265
 C1414 C 0.67741 0.40276 0.93925
 C1415 C 0.70464 0.39422 0.93028
 H1416 H 0.71545 0.37791 0.94229
 O1417 O 0.47171 0.60471 0.85689
 O1418 O 0.47207 0.63790 0.82365
 C1419 C 0.46233 0.61471 0.83356
 C1420 C 0.43947 0.59931 0.81833
 C1421 C 0.42945 0.60872 0.79169
 H1422 H 0.43864 0.62760 0.78225
 O1423 O 0.52754 0.39577 0.85766
 O1424 O 0.52782 0.36271 0.82435
 C1425 C 0.53731 0.38593 0.83438
 C1426 C 0.56003 0.40177 0.81914
 C1427 C 0.56925 0.39345 0.79181
 H1428 H 0.55991 0.37478 0.78220
 O1429 O 0.63888 0.47169 0.89638
 O1430 O 0.67227 0.47168 0.86321
 C1431 C 0.66194 0.46175 0.88624
 C1432 C 0.67670 0.43828 0.90131
 C1433 C 0.70327 0.42833 0.89165
 H1434 H 0.71219 0.43765 0.87258
 O1435 O 0.35986 0.52794 0.89501
 O1436 O 0.32662 0.52771 0.86191
 C1437 C 0.33659 0.53748 0.88507
 C1438 C 0.32144 0.56053 0.90042
 C1439 C 0.29476 0.57037 0.89101
 H1440 H 0.28522 0.56086 0.87233
 O1441 O 0.39651 0.64208 0.97189
 O1442 O 0.36270 0.67460 0.97214
 C1443 C 0.38600 0.66504 0.96223
 C1444 C 0.40037 0.67995 0.93831
 C1445 C 0.38869 0.70491 0.92665
 H1446 H 0.37040 0.71447 0.93691
 O1447 O 0.60096 0.35732 0.97275
 O1448 O 0.63435 0.32435 0.97269
 C1449 C 0.61100 0.33412 0.96316
 C1450 C 0.59568 0.31876 0.94026
 C1451 C 0.60397 0.29123 0.93226
 H1452 H 0.62056 0.28074 0.94425
 O1453 O 0.60057 0.52803 0.85791
 O1454 O 0.63387 0.52807 0.82462
 C1455 C 0.61066 0.53775 0.83470
 C1456 C 0.59564 0.56101 0.81970
 C1457 C 0.60426 0.56948 0.79231
 H1458 H 0.62085 0.55758 0.78160
 O1459 O 0.39977 0.47304 0.85599
 O1460 O 0.36686 0.47303 0.82253
 C1461 C 0.39003 0.46347 0.83265
 C1462 C 0.40520 0.44021 0.81773
 C1463 C 0.39659 0.43154 0.79048
 H1464 H 0.38048 0.44380 0.77961
 O1465 O 0.52636 0.64300 0.89734
 O1466 O 0.52697 0.67639 0.86432
 C1467 C 0.53642 0.66606 0.88749
 C1468 C 0.56029 0.68020 0.90240
 C1469 C 0.57212 0.70537 0.89142
 H1470 H 0.56200 0.71560 0.87345
 O1471 O 0.47151 0.35762 0.89684
 O1472 O 0.47135 0.32442 0.86367
 C1473 C 0.46138 0.33476 0.88669
 C1474 C 0.43728 0.32054 0.90143
 C1475 C 0.42484 0.29609 0.88973
 H1476 H 0.43322 0.28790 0.86987
 O1477 O 0.64006 0.60156 0.97326
 O1478 O 0.67383 0.63414 0.97309
 C1479 C 0.66351 0.61104 0.96360
 C1480 C 0.67850 0.59556 0.94046
 C1481 C 0.70569 0.60424 0.93156
 H1482 H 0.71629 0.62112 0.94306
 O1483 O 0.35938 0.39808 0.97151
 O1484 O 0.32561 0.36549 0.97155
 C1485 C 0.33633 0.38816 0.96146
 C1486 C 0.32249 0.40237 0.93697
 C1487 C 0.29789 0.39058 0.92475
 H1488 H 0.28795 0.37243 0.93485
 Cu1489 Cu 0.49967 0.37972 0.88042
 Cu1490 Cu 0.49976 0.33985 0.84064
 Cu1491 Cu 0.49891 0.62042 0.88054
 Cu1492 Cu 0.49952 0.66047 0.84083
 Cu1493 Cu 0.38321 0.50049 0.87897
 Cu1494 Cu 0.34349 0.50025 0.83898
 Cu1495 Cu 0.61655 0.49997 0.88047
 Cu1496 Cu 0.65657 0.50003 0.84058
 C1497 C 0.42723 0.42549 0.83137
 H1498 H 0.43406 0.43221 0.85236
 C1499 C 0.40835 0.40727 0.77737
 C1500 C 0.57327 0.57555 0.83314
 H1501 H 0.56647 0.56905 0.85426
 C1502 C 0.59173 0.59304 0.77869
 C1503 C 0.33498 0.42641 0.92430
 H1504 H 0.35408 0.43547 0.93347
 C1505 C 0.28648 0.40167 0.89941
 C1506 C 0.66513 0.57304 0.92617
 H1507 H 0.64407 0.56633 0.93287
 C1508 C 0.71928 0.59151 0.90801
 C1509 C 0.42539 0.33242 0.92620
 H1510 H 0.43428 0.35184 0.93479
 C1511 C 0.40121 0.28283 0.90273
 C1512 C 0.57297 0.66728 0.92622
 H1513 H 0.56414 0.64773 0.93465
 C1514 C 0.59717 0.71692 0.90301
 C1515 C 0.42669 0.57558 0.83122
 H1516 H 0.43376 0.56865 0.85206
 C1517 C 0.40720 0.59426 0.77773
 C1518 C 0.57303 0.42517 0.83234
 H1519 H 0.56663 0.43122 0.85371
 C1520 C 0.59065 0.40881 0.77727
 C1521 C 0.57331 0.33198 0.92561
 H1522 H 0.56682 0.35322 0.93171
 C1523 C 0.59102 0.27717 0.90915
 C1524 C 0.42462 0.66795 0.92556
 H1525 H 0.43361 0.64863 0.93431
 C1526 C 0.40022 0.71717 0.90174
 C1527 C 0.33426 0.57363 0.92404
 H1528 H 0.35506 0.56660 0.93106
 C1529 C 0.28076 0.59279 0.90519
 C1530 C 0.66388 0.42522 0.92502
 H1531 H 0.64299 0.43212 0.93202
 C1532 C 0.71787 0.40648 0.90618
 O1533 O 0.52652 0.39634 1.14265
 O1534 O 0.52644 0.36328 1.17601
 C1535 C 0.53633 0.38629 1.16577
 C1536 C 0.55996 0.40117 1.18039
 C1537 C 0.57132 0.39033 1.20584
 H1538 H 0.56249 0.37099 1.21466
 O1539 O 0.47179 0.60307 1.14276
 O1540 O 0.47190 0.63608 1.17614
 C1541 C 0.46237 0.61284 1.16623
 C1542 C 0.43948 0.59747 1.18164
 C1543 C 0.43106 0.60592 1.20911
 H1544 H 0.44301 0.62246 1.21966
 O1545 O 0.35864 0.52805 1.10426
 O1546 O 0.32502 0.52808 1.13722
 C1547 C 0.33529 0.53768 1.11402
 C1548 C 0.32029 0.56056 1.09836
 C1549 C 0.29360 0.57050 1.10771
 H1550 H 0.28405 0.56129 1.12660
 O1551 O 0.63956 0.47207 1.10280
 O1552 O 0.67305 0.47199 1.13567
 C1553 C 0.66296 0.46257 1.11239
 C1554 C 0.67827 0.43992 1.09666
 C1555 C 0.70605 0.43226 1.10441
 H1556 H 0.71670 0.44443 1.12077
 O1557 O 0.60103 0.35745 1.02835
 O1558 O 0.63472 0.32480 1.02834
 C1559 C 0.61145 0.33456 1.03819
 C1560 C 0.59697 0.31988 1.06217
 C1561 C 0.60841 0.29481 1.07371
 H1562 H 0.62637 0.28505 1.06310
 O1563 O 0.39655 0.64064 1.02777
 O1564 O 0.36264 0.67307 1.02806
 C1565 C 0.38573 0.66317 1.03805
 C1566 C 0.39964 0.67749 1.06244
 C1567 C 0.38687 0.70128 1.07523
 H1568 H 0.36685 0.70892 1.06689
 O1569 O 0.39764 0.47298 1.14371
 O1570 O 0.36427 0.47288 1.17691
 C1571 C 0.38756 0.46328 1.16692
 C1572 C 0.40265 0.43999 1.18190
 C1573 C 0.39380 0.43106 1.20908
 H1574 H 0.37700 0.44266 1.21979
 O1575 O 0.60094 0.52739 1.14249
 O1576 O 0.63417 0.52721 1.17562
 C1577 C 0.61111 0.53713 1.16558
 C1578 C 0.59658 0.56103 1.18014
 C1579 C 0.60743 0.57220 1.20569
 H1580 H 0.62519 0.56167 1.21582
 O1581 O 0.47094 0.35751 1.10380
 O1582 O 0.47050 0.32440 1.13709
 C1583 C 0.46080 0.33461 1.11398
 C1584 C 0.43658 0.32059 1.09941
 C1585 C 0.42419 0.29579 1.11073
 H1586 H 0.43403 0.28568 1.12892
 O1587 O 0.52668 0.64249 1.10298
 O1588 O 0.52641 0.67583 1.13601
 C1589 C 0.53627 0.66571 1.11289
 C1590 C 0.55980 0.68050 1.09791
 C1591 C 0.57126 0.70573 1.10899
 H1592 H 0.56215 0.71473 1.12820
 O1593 O 0.35841 0.39928 1.02722
 O1594 O 0.32430 0.36705 1.02706
 C1595 C 0.33472 0.39009 1.03660
 C1596 C 0.31964 0.40567 1.05961
 C1597 C 0.29200 0.39767 1.06775
 H1598 H 0.28107 0.38177 1.05528
 O1599 O 0.63983 0.60285 1.02902
 O1600 O 0.67337 0.63566 1.02874
 C1601 C 0.66296 0.61284 1.03884
 C1602 C 0.67754 0.59811 1.06261
 C1603 C 0.70302 0.60897 1.07383
 H1604 H 0.71190 0.62820 1.06479
 O1605 O 0.52727 0.60325 1.14161
 O1606 O 0.52736 0.63653 1.17472
 C1607 C 0.53718 0.61346 1.16459
 C1608 C 0.56081 0.59869 1.17930
 C1609 C 0.57238 0.60995 1.20441
 H1610 H 0.56364 0.62943 1.21304
 O1611 O 0.47098 0.39641 1.14286
 O1612 O 0.47081 0.36347 1.17633
 C1613 C 0.46122 0.38660 1.16618
 C1614 C 0.43821 0.40210 1.18130
 C1615 C 0.42844 0.39288 1.20813
 H1616 H 0.43780 0.37408 1.21750
 O1617 O 0.64010 0.52743 1.10356
 O1618 O 0.67339 0.52727 1.13663
 C1619 C 0.66329 0.53711 1.11355
 C1620 C 0.67803 0.56075 1.09874
 C1621 C 0.70399 0.57138 1.10912
 H1622 H 0.71415 0.56061 1.12673
 O1623 O 0.35879 0.47270 1.10455
 O1624 O 0.32514 0.47254 1.13747
 C1625 C 0.33545 0.46299 1.11427
 C1626 C 0.32033 0.44031 1.09837
 C1627 C 0.29322 0.43094 1.10711
 H1628 H 0.28390 0.44005 1.12611
 O1629 O 0.60124 0.64223 1.02797
 O1630 O 0.63475 0.67507 1.02764
 C1631 C 0.61142 0.66540 1.03743
 C1632 C 0.59650 0.68050 1.06087
 C1633 C 0.60742 0.70601 1.07198
 H1634 H 0.62571 0.71572 1.06182
 O1635 O 0.39652 0.35940 1.02864
 O1636 O 0.36245 0.32714 1.02885
 C1637 C 0.38561 0.33685 1.03883
 C1638 C 0.39952 0.32216 1.06302
 C1639 C 0.38703 0.29787 1.07509
 H1640 H 0.36729 0.28993 1.06631
 O1641 O 0.60085 0.47189 1.14258
 O1642 O 0.63416 0.47164 1.17561
 C1643 C 0.61089 0.46209 1.16571
 C1644 C 0.59594 0.43862 1.18065
 C1645 C 0.60625 0.42819 1.20673
 H1646 H 0.62366 0.43923 1.21685
 O1647 O 0.39693 0.52850 1.14373
 O1648 O 0.36357 0.52854 1.17693
 C1649 C 0.38671 0.53835 1.16682
 C1650 C 0.40189 0.56167 1.18167
 C1651 C 0.39287 0.57129 1.20862
 H1652 H 0.37419 0.56170 1.21809
 O1653 O 0.47107 0.64151 1.10303
 O1654 O 0.47071 0.67462 1.13629
 C1655 C 0.46097 0.66441 1.11319
 C1656 C 0.43681 0.67855 1.09868
 C1657 C 0.42447 0.70316 1.11034
 H1658 H 0.43466 0.71305 1.12841
 O1659 O 0.52671 0.35747 1.10390
 O1660 O 0.52653 0.32430 1.13714
 C1661 C 0.53664 0.33454 1.11416
 C1662 C 0.56081 0.32023 1.09968
 C1663 C 0.57332 0.29590 1.11165
 H1664 H 0.56487 0.28771 1.13149
 O1665 O 0.63998 0.39642 1.02821
 O1666 O 0.67380 0.36389 1.02786
 C1667 C 0.66342 0.38682 1.03772
 C1668 C 0.67842 0.40244 1.06068
 C1669 C 0.70586 0.39430 1.06953
 H1670 H 0.71576 0.37606 1.05959
 O1671 O 0.35808 0.60143 1.02700
 O1672 O 0.32416 0.63387 1.02698
 C1673 C 0.33463 0.61094 1.03667
 C1674 C 0.31985 0.59583 1.06013
 C1675 C 0.29294 0.60500 1.06936
 H1676 H 0.28236 0.62194 1.05790
 Cu1677 Cu 0.49875 0.38019 1.11993
 Cu1678 Cu 0.49850 0.34047 1.15993
 Cu1679 Cu 0.49917 0.61928 1.11924
 Cu1680 Cu 0.49904 0.65914 1.15908
 Cu1681 Cu 0.38135 0.38193 1.00003
 Cu1682 Cu 0.34060 0.34305 1.00020
 Cu1683 Cu 0.61699 0.38035 1.00046
 Cu1684 Cu 0.65731 0.34105 1.00016
 Cu1685 Cu 0.38096 0.61827 0.99941
 Cu1686 Cu 0.34028 0.65726 0.99966
 Cu1687 Cu 0.61733 0.61866 1.00071
 Cu1688 Cu 0.65770 0.65794 1.00028
 Cu1689 Cu 0.38137 0.50055 1.12081
 Cu1690 Cu 0.34115 0.50045 1.16048
 Cu1691 Cu 0.61700 0.49966 1.11958
 Cu1692 Cu 0.65699 0.49939 1.15924
 C1693 C 0.57246 0.42530 1.16795
 H1694 H 0.56444 0.43323 1.14782
 C1695 C 0.59456 0.40360 1.21936
 C1696 C 0.42515 0.57497 1.16839
 H1697 H 0.43169 0.56826 1.14726
 C1698 C 0.40756 0.59323 1.22294
 C1699 C 0.33318 0.57333 1.07448
 H1700 H 0.35404 0.56627 1.06752
 C1701 C 0.27960 0.59266 1.09321
 C1702 C 0.66484 0.42525 1.07444
 H1703 H 0.64343 0.43117 1.06831
 C1704 C 0.72015 0.40927 1.09128
 C1705 C 0.57284 0.33208 1.07496
 H1706 H 0.56393 0.35142 1.06617
 C1707 C 0.59715 0.28279 1.09887
 C1708 C 0.42456 0.66622 1.07438
 H1709 H 0.43395 0.64724 1.06527
 C1710 C 0.39901 0.71447 1.09924
 C1711 C 0.42520 0.42569 1.16842
 H1712 H 0.43213 0.43246 1.14743
 C1713 C 0.40638 0.40737 1.22248
 C1714 C 0.57300 0.57418 1.16737
 H1715 H 0.56465 0.56582 1.14757
 C1716 C 0.59577 0.59698 1.21786
 C1717 C 0.42432 0.33332 1.07528
 H1718 H 0.43361 0.35253 1.06652
 C1719 C 0.39909 0.28437 1.09896
 C1720 C 0.57244 0.66819 1.07373
 H1721 H 0.56414 0.64834 1.06553
 C1722 C 0.59522 0.71865 1.09637
 C1723 C 0.33339 0.42743 1.07466
 H1724 H 0.35467 0.43382 1.06837
 C1725 C 0.27857 0.40968 1.09182
 C1726 C 0.66525 0.57399 1.07521
 H1727 H 0.64519 0.56597 1.06717
 C1728 C 0.71658 0.59583 1.09713
 C1729 C 1.10688 1.14269 1.28431
 C1730 C 1.13351 1.13404 1.29449
 C1731 C 1.14913 1.11477 1.27744
 C1732 C 1.13737 1.10330 1.25240
 C1733 C 1.10914 1.10977 1.24412
 C1734 C 1.09495 1.13062 1.26013
 C1735 C 1.06582 1.13032 1.27300
 C1736 C 1.07882 1.14370 1.29937
 H1737 H 1.17055 1.10853 1.28323
 H1738 H 1.15066 1.08924 1.23994
 H1739 H 1.05768 1.10842 1.27667
 H1740 H 1.05089 1.14480 1.26175
 H1741 H 1.07807 1.12972 1.31849
 H1742 H 1.07154 1.16588 1.30291
 C1743 C 1.14017 0.60439 0.78532
 C1744 C 1.12418 0.62257 0.80267
 C1745 C 1.09542 0.62697 0.79532
 C1746 C 1.08440 0.61604 0.76959
 C1747 C 1.10208 0.60098 0.75029
 C1748 C 1.12951 0.59409 0.75983
 C1749 C 1.15771 0.59696 0.74522
 C1750 C 1.16936 0.60819 0.77322
 H1751 H 1.08174 0.63969 0.80887
 H1752 H 1.06236 0.62035 0.76457
 H1753 H 1.15747 0.61312 0.72790
 H1754 H 1.16690 0.57603 0.73916
 H1755 H 1.17594 0.63088 0.77217
 H1756 H 1.18507 0.59366 0.78327
 C1757 C 0.64361 1.10904 0.78385
 C1758 C 0.62761 1.12701 0.80157
 C1759 C 0.59879 1.13152 0.79416
 C1760 C 0.58740 1.12001 0.76889
 C1761 C 0.60472 1.10451 0.74970
 C1762 C 0.63253 1.09846 0.75853
 C1763 C 0.65979 1.10283 0.74271
 C1764 C 0.67196 1.11444 0.77022
 H1765 H 0.58496 1.14407 0.80773
 H1766 H 0.56520 1.12397 0.76427
 H1767 H 0.65798 1.11907 0.72557
 H1768 H 0.66971 1.08241 0.73607
 H1769 H 0.67740 1.13742 0.76911
 H1770 H 0.68888 1.10060 0.77895
 C1771 C 0.60362 0.63977 1.28615
 C1772 C 0.63118 0.63325 1.29519
 C1773 C 0.64870 0.61769 1.27637
 C1774 C 0.63767 0.60663 1.25077
 C1775 C 0.60863 0.61028 1.24367
 C1776 C 0.59260 0.62839 1.26125
 C1777 C 0.56388 0.62416 1.27435
 C1778 C 0.57595 0.63672 1.30161
 H1779 H 0.67075 0.61357 1.28166
 H1780 H 0.65188 0.59478 1.23703
 H1781 H 0.55804 0.60134 1.27635
 H1782 H 0.54741 0.63788 1.26437
 H1783 H 0.57705 0.62125 1.31951
 H1784 H 0.56649 0.65766 1.30711
 C1785 C 0.85996 0.89858 1.28696
 C1786 C 0.87375 0.87688 1.30207
 C1787 C 0.90208 0.87063 1.29402
 C1788 C 0.91435 0.88317 1.26955
 C1789 C 0.89831 0.90153 1.25181
 C1790 C 0.87173 0.91027 1.26244
 C1791 C 0.84339 0.91215 1.24811
 C1792 C 0.83052 0.89944 1.27496
 H1793 H 0.91446 0.85522 1.30587
 H1794 H 0.93593 0.87727 1.26409
 H1795 H 0.84179 0.89797 1.22921
 H1796 H 0.83657 0.93448 1.24447
 H1797 H 0.82135 0.87790 1.27161
 H1798 H 0.81653 0.91450 1.28671
 C1799 C 0.89413 0.36110 0.78757
 C1800 C 0.86790 0.37012 0.79860
 C1801 C 0.85165 0.38875 0.78151
 C1802 C 0.86256 0.39953 0.75568
 C1803 C 0.89058 0.39300 0.74653
 C1804 C 0.90525 0.37246 0.76255
 C1805 C 0.93482 0.37287 0.77424
 C1806 C 0.92265 0.36037 0.80155
 H1807 H 0.83047 0.39521 0.78804
 H1808 H 0.84888 0.41328 0.74338
 H1809 H 0.94325 0.39480 0.77688
 H1810 H 0.94925 0.35794 0.76286
 H1811 H 0.92408 0.37500 0.82011
 H1812 H 0.92994 0.33828 0.80569
 C1813 C 0.39426 0.86180 0.78655
 C1814 C 0.37537 0.87724 0.80368
 C1815 C 0.37141 0.90619 0.79698
 C1816 C 0.38339 0.91791 0.77189
 C1817 C 0.39916 0.90077 0.75264
 C1818 C 0.40566 0.87313 0.76176
 C1819 C 0.40354 0.84539 0.74639
 C1820 C 0.39111 0.83297 0.77363
 H1821 H 0.35810 0.91947 0.81037
 H1822 H 0.37926 0.94003 0.76722
 H1823 H 0.42478 0.83642 0.74099
 H1824 H 0.38812 0.84605 0.72845
 H1825 H 0.40527 0.81707 0.78390
 H1826 H 0.36847 0.82637 0.77150
 C1827 C 0.35723 0.39304 1.28550
 C1828 C 0.37266 0.37385 1.30233
 C1829 C 0.40153 0.36946 1.29490
 C1830 C 0.41311 0.38149 1.26983
 C1831 C 0.39599 0.39768 1.25106
 C1832 C 0.36846 0.40438 1.26059
 C1833 C 0.34055 0.40265 1.24551
 C1834 C 0.32821 0.39028 1.27280
 H1835 H 0.41507 0.35612 1.30792
 H1836 H 0.43521 0.37722 1.26491
 H1837 H 0.34091 0.38732 1.22746
 H1838 H 0.33178 0.42397 1.24034
 H1839 H 0.32131 0.36777 1.27059
 H1840 H 0.31250 0.40456 1.28328
 C1841 C 0.89399 1.14281 0.71485
 C1842 C 0.87214 1.12899 0.70005
 C1843 C 0.86518 1.10116 0.70895
 C1844 C 0.87757 1.08930 0.73360
 C1845 C 0.89644 1.10532 0.75083
 C1846 C 0.90547 1.13153 0.73964
 C1847 C 0.90750 1.16017 0.75332
 C1848 C 0.89507 1.17247 0.72616
 H1849 H 0.84964 1.08871 0.69737
 H1850 H 0.87137 1.06794 0.73934
 H1851 H 0.92990 1.16690 0.75687
 H1852 H 0.89319 1.16236 0.77214
 H1853 H 0.91038 1.18596 0.71410
 H1854 H 0.87355 1.18190 0.72921
 C1855 C 0.89836 0.63747 0.21027
 C1856 C 0.87609 0.62393 0.19585
 C1857 C 0.86789 0.59683 0.20586
 C1858 C 0.87955 0.58549 0.23108
 C1859 C 0.89881 0.60146 0.24791
 C1860 C 0.90904 0.62681 0.23572
 C1861 C 0.91199 0.65592 0.24818
 C1862 C 0.90044 0.66751 0.22032
 H1863 H 0.85197 0.58453 0.19463
 H1864 H 0.87243 0.56464 0.23755
 H1865 H 0.93458 0.66195 0.25179
 H1866 H 0.89751 0.65946 0.26666
 H1867 H 0.91644 0.67987 0.20795
 H1868 H 0.87927 0.67789 0.22262
 C1869 C 0.39127 1.14266 0.21552
 C1870 C 0.37378 1.12628 0.19790
 C1871 C 0.37161 1.09701 0.20405
 C1872 C 0.38386 1.08568 0.22906
 C1873 C 0.39817 1.10347 0.24871
 C1874 C 0.40298 1.13163 0.24022
 C1875 C 0.39866 1.15880 0.25614
 C1876 C 0.38587 1.17090 0.22900
 H1877 H 0.35955 1.08310 0.19022
 H1878 H 0.38112 1.06325 0.23336
 H1879 H 0.41915 1.16905 0.26200
 H1880 H 0.38301 1.15667 0.27387
 H1881 H 0.39906 1.18798 0.21926
 H1882 H 0.36279 1.17586 0.23097
 C1883 C 0.35601 0.60908 0.71697
 C1884 C 0.37111 0.62794 0.69957
 C1885 C 0.40026 0.63199 0.70551
 C1886 C 0.41263 0.62002 0.73015
 C1887 C 0.39597 0.60412 0.74967
 C1888 C 0.36802 0.59768 0.74137
 C1889 C 0.34068 0.59996 0.75764
 C1890 C 0.32754 0.61240 0.73083
 H1891 H 0.41326 0.64527 0.69180
 H1892 H 0.43490 0.62414 0.73425
 H1893 H 0.34194 0.61536 0.77557
 H1894 H 0.33177 0.57880 0.76332
 H1895 H 0.32110 0.63503 0.73319
 H1896 H 0.31123 0.59833 0.72108
 C1897 C 1.13816 0.89825 0.71214
 C1898 C 1.12250 0.87986 0.69482
 C1899 C 1.09360 0.87553 0.70191
 C1900 C 1.08219 0.88661 0.72751
 C1901 C 1.09961 0.90181 0.74683
 C1902 C 1.12712 0.90876 0.73741
 C1903 C 1.15513 0.90623 0.75227
 C1904 C 1.16722 0.89475 0.72451
 H1905 H 1.08019 0.86252 0.68844
 H1906 H 1.06014 0.88218 0.73253
 H1907 H 1.15474 0.89026 0.76977
 H1908 H 1.16413 0.92727 0.75813
 H1909 H 1.17391 0.87211 0.72589
 H1910 H 1.18302 0.90924 0.71443
 C1911 C 1.14344 0.39402 0.21532
 C1912 C 1.13693 0.36641 0.20625
 C1913 C 1.12038 0.34949 0.22494
 C1914 C 1.10870 0.36098 0.25013
 C1915 C 1.11252 0.38997 0.25708
 C1916 C 1.13144 0.40546 0.23984
 C1917 C 1.12819 0.43411 0.22652
 C1918 C 1.14136 0.42161 0.19967
 H1919 H 1.11592 0.32745 0.22000
 H1920 H 1.09625 0.34709 0.26367
 H1921 H 1.14196 0.45034 0.23680
 H1922 H 1.10552 0.44037 0.22389
 H1923 H 1.16267 0.43061 0.19460
 H1924 H 1.12635 0.42066 0.18140
 C1925 C 0.64327 0.89447 0.21750
 C1926 C 0.62797 0.87554 0.20046
 C1927 C 0.59876 0.87196 0.20661
 C1928 C 0.58657 0.88439 0.23118
 C1929 C 0.60345 0.90023 0.25045
 C1930 C 0.63144 0.90631 0.24184
 C1931 C 0.65879 0.90401 0.25789
 C1932 C 0.67175 0.89109 0.23115
 H1933 H 0.58562 0.85866 0.19317
 H1934 H 0.56425 0.88057 0.23548
 H1935 H 0.65744 0.88886 0.27606
 H1936 H 0.66790 0.92516 0.26317
 H1937 H 0.67799 0.86844 0.23379
 H1938 H 0.68816 0.90488 0.22104
 C1939 C 0.63912 0.39781 0.71304
 C1940 C 0.62448 0.37780 0.69650
 C1941 C 0.59596 0.37197 0.70432
 C1942 C 0.58417 0.38329 0.72963
 C1943 C 0.60079 0.40016 0.74824
 C1944 C 0.62773 0.40841 0.73820
 C1945 C 0.65598 0.40809 0.75278
 C1946 C 0.66847 0.39651 0.72527
 H1947 H 0.58302 0.35781 0.69158
 H1948 H 0.56244 0.37778 0.73493
 H1949 H 0.65676 0.39270 0.77077
 H1950 H 0.66375 0.42982 0.75786
 H1951 H 0.67658 0.37439 0.72729
 H1952 H 0.68327 0.41161 0.71462
 C1953 C 1.28396 1.13941 1.10413
 C1954 C 1.30045 1.12484 1.12426
 C1955 C 1.29287 1.09630 1.12991
 C1956 C 1.26785 1.08439 1.11823
 C1957 C 1.24932 1.10087 1.10110
 C1958 C 1.25916 1.12790 1.09312
 C1959 C 1.24433 1.15601 1.09327
 C1960 C 1.27152 1.16863 1.10527
 H1961 H 1.30559 1.08339 1.14415
 H1962 H 1.26274 1.06262 1.12360
 H1963 H 1.22611 1.15666 1.10847
 H1964 H 1.23955 1.16379 1.07141
 H1965 H 1.26906 1.17668 1.12744
 H1966 H 1.28233 1.18345 1.09027
 C1967 C 1.27945 0.64760 0.60957
 C1968 C 1.29099 0.63761 0.63518
 C1969 C 1.27471 0.61764 0.65070
 C1970 C 1.24940 0.60629 0.63938
 C1971 C 1.24013 0.61354 0.61156
 C1972 C 1.25506 0.63565 0.59794
 C1973 C 1.26671 0.63760 0.56829
 C1974 C 1.29329 0.65076 0.58103
 H1975 H 1.28165 0.61033 0.67146
 H1976 H 1.23782 0.59133 0.65247
 H1977 H 1.25462 0.65278 0.55479
 H1978 H 1.27050 0.61638 0.55856
 H1979 H 1.29624 0.67344 0.57504
 H1980 H 1.31258 0.63724 0.57861
 C1981 C 0.78233 1.14510 0.60882
 C1982 C 0.79405 1.13441 0.63408
 C1983 C 0.77797 1.11395 0.64910
 C1984 C 0.75241 1.10319 0.63781
 C1985 C 0.74269 1.11143 0.61039
 C1986 C 0.75770 1.13368 0.59715
 C1987 C 0.76914 1.13615 0.56745
 C1988 C 0.79597 1.14874 0.58025
 H1989 H 0.78505 1.10612 0.66962
 H1990 H 0.74090 1.08808 0.65076
 H1991 H 0.75711 1.15175 0.55438
 H1992 H 0.77261 1.11510 0.55723
 H1993 H 0.79912 1.17151 0.57474
 H1994 H 0.81509 1.13506 0.57738
 C1995 C 0.78585 0.63738 1.10364
 C1996 C 0.79586 0.62997 1.13067
 C1997 C 0.77746 0.61424 1.14848
 C1998 C 0.75125 0.60392 1.13813
 C1999 C 0.74306 0.60848 1.10943
 C2000 C 0.76037 0.62675 1.09325
 C2001 C 0.77229 0.62332 1.06387
 C2002 C 0.80017 0.63506 1.07529
 H2003 H 0.78351 0.60944 1.17022
 H2004 H 0.73790 0.59196 1.15262
 H2005 H 0.76196 0.63774 1.04823
 H2006 H 0.77368 0.60068 1.05720
 H2007 H 0.80573 0.65625 1.06635
 H2008 H 0.81780 0.61927 1.07520
 C2009 C 1.28179 0.85832 0.89343
 C2010 C 1.29888 0.87390 0.87447
 C2011 C 1.29132 0.90263 0.86991
 C2012 C 1.26596 0.91393 0.88152
 C2013 C 1.24699 0.89664 0.89741
 C2014 C 1.25659 0.86927 0.90433
 C2015 C 1.24179 0.84123 0.90232
 C2016 C 1.26939 0.82923 0.89043
 H2017 H 1.30449 0.91628 0.85672
 H2018 H 1.26101 0.93594 0.87714
 H2019 H 1.22410 0.84138 0.88661
 H2020 H 1.23624 0.83240 0.92362
 H2021 H 1.26773 0.82232 0.86782
 H2022 H 1.27969 0.81365 0.90495
 C2023 C 1.28251 0.35562 0.39285
 C2024 C 1.29352 0.36435 0.36645
 C2025 C 1.27612 0.38220 0.34966
 C2026 C 1.25032 0.39314 0.36053
 C2027 C 1.24157 0.38739 0.38889
 C2028 C 1.25752 0.36703 0.40382
 C2029 C 1.26904 0.36763 0.43347
 C2030 C 1.29636 0.35509 0.42149
 H2031 H 1.28267 0.38840 0.32838
 H2032 H 1.23792 0.40673 0.34674
 H2033 H 1.25762 0.35275 0.44796
 H2034 H 1.27164 0.38961 0.44179
 H2035 H 1.30047 0.33306 0.42899
 H2036 H 1.31487 0.36977 0.42291
 C2037 C 0.78223 0.89385 0.35663
 C2038 C 0.79061 0.86590 0.36222
 C2039 C 0.77123 0.84837 0.37708
 C2040 C 0.74587 0.85976 0.38858
 C2041 C 0.73956 0.88907 0.38593
 C2042 C 0.75755 0.90512 0.36825
 C2043 C 0.77116 0.93339 0.37317
 C2044 C 0.79822 0.92101 0.36037
 H2045 H 0.77603 0.82614 0.38064
 H2046 H 0.73177 0.84564 0.40013
 H2047 H 0.77310 0.93864 0.39620
 H2048 H 0.76161 0.95036 0.35975
 H2049 H 0.81592 0.91911 0.37595
 H2050 H 0.80413 0.93081 0.33960
 C2051 C 0.78381 0.35985 0.89616
 C2052 C 0.79868 0.37322 0.87397
 C2053 C 0.78897 0.40038 0.86558
 C2054 C 0.76377 0.41199 0.87709
 C2055 C 0.74665 0.39633 0.89646
 C2056 C 0.75836 0.37077 0.90664
 C2057 C 0.74550 0.34182 0.90946
 C2058 C 0.77343 0.32994 0.89835
 H2059 H 0.80053 0.41263 0.84976
 H2060 H 0.75766 0.43292 0.86990
 H2061 H 0.72734 0.33847 0.89467
 H2062 H 0.74133 0.33582 0.93202
 H2063 H 0.77154 0.31934 0.87724
 H2064 H 0.78527 0.31777 0.91479
 C2065 C 0.71957 0.85724 1.10921
 C2066 C 0.71007 0.86407 1.13660
 C2067 C 0.72824 0.88049 1.15389
 C2068 C 0.75360 0.89210 1.14267
 C2069 C 0.76101 0.88820 1.11364
 C2070 C 0.74417 0.86916 1.09799
 C2071 C 0.73120 0.87221 1.06908
 C2072 C 0.70429 0.85906 1.08143
 H2073 H 0.72248 0.88505 1.17580
 H2074 H 0.76677 0.90468 1.15669
 H2075 H 0.74172 0.85842 1.05295
 H2076 H 0.72852 0.89480 1.06263
 H2077 H 0.69949 0.83770 1.07253
 H2078 H 0.68593 0.87398 1.08211
 C2079 C 0.71666 0.39383 0.64448
 C2080 C 0.70593 0.36745 0.63576
 C2081 C 0.72357 0.35079 0.61793
 C2082 C 0.74943 0.36166 0.60713
 C2083 C 0.75800 0.38995 0.61291
 C2084 C 0.74170 0.40484 0.63313
 C2085 C 0.72992 0.43431 0.63215
 C2086 C 0.70256 0.42230 0.64458
 H2087 H 0.71720 0.32955 0.61172
 H2088 H 0.76204 0.34791 0.59365
 H2089 H 0.72752 0.44241 0.61000
 H2090 H 0.74101 0.44894 0.64705
 H2091 H 0.68422 0.42349 0.62968
 H2092 H 0.69809 0.42998 0.66655
 C2093 C 0.21519 0.89465 0.64245
 C2094 C 0.20441 0.86844 0.63327
 C2095 C 0.22227 0.85177 0.61569
 C2096 C 0.24844 0.86254 0.60554
 C2097 C 0.25710 0.89072 0.61176
 C2098 C 0.24055 0.90554 0.63179
 C2099 C 0.22908 0.93515 0.63099
 C2100 C 0.20136 0.92325 0.64272
 H2101 H 0.21588 0.83063 0.60920
 H2102 H 0.26124 0.84881 0.59221
 H2103 H 0.22720 0.94358 0.60892
 H2104 H 0.24003 0.94945 0.64631
 H2105 H 0.18333 0.92483 0.62747
 H2106 H 0.19653 0.93061 0.66473
 C2107 C 0.21495 0.36079 1.10365
 C2108 C 0.19950 0.37436 1.12534
 C2109 C 0.20737 0.40259 1.13194
 C2110 C 0.23192 0.41499 1.11968
 C2111 C 0.24984 0.39922 1.10117
 C2112 C 0.23947 0.37270 1.09220
 C2113 C 0.25400 0.34448 1.09029
 C2114 C 0.22715 0.33146 1.10275
 H2115 H 0.19532 0.41478 1.14741
 H2116 H 0.23724 0.43646 1.12585
 H2117 H 0.27273 0.34287 1.10467
 H2118 H 0.25793 0.33779 1.06789
 H2119 H 0.23031 0.32221 1.12434
 H2120 H 0.21568 0.31754 1.08747
 C2121 C 0.71563 1.10587 0.85946
 C2122 C 0.69969 1.12656 0.87389
 C2123 C 0.70838 1.13331 0.90195
 C2124 C 0.73358 1.12185 0.91351
 C2125 C 0.75152 1.10404 0.89706
 C2126 C 0.74095 1.09540 0.87050
 C2127 C 0.75499 1.09483 0.84190
 C2128 C 0.72718 1.10583 0.82976
 H2129 H 0.69605 1.14783 0.91498
 H2130 H 0.73908 1.12775 0.93506
 H2131 H 0.76006 1.07290 0.83471
 H2132 H 0.77280 1.11032 0.84013
 H2133 H 0.71639 1.08972 0.81635
 H2134 H 0.72881 1.12749 0.82038
 C2135 C 0.71667 0.60790 0.35798
 C2136 C 0.69960 0.62650 0.37374
 C2137 C 0.70647 0.63052 0.40271
 C2138 C 0.73157 0.61873 0.41422
 C2139 C 0.75068 0.60310 0.39685
 C2140 C 0.74156 0.59673 0.36912
 C2141 C 0.75685 0.59937 0.34123
 C2142 C 0.72951 0.61155 0.32904
 H2143 H 0.69302 0.64353 0.41622
 H2144 H 0.73627 0.62274 0.43641
 H2145 H 0.76247 0.57834 0.33201
 H2146 H 0.77461 0.61499 0.34199
 H2147 H 0.71939 0.59746 0.31298
 H2148 H 0.73138 0.63425 0.32265
 C2149 C 0.22001 1.11276 0.35326
 C2150 C 0.20956 1.13927 0.36190
 C2151 C 0.22667 1.15520 0.38076
 C2152 C 0.25174 1.14355 0.39239
 C2153 C 0.25995 1.11518 0.38640
 C2154 C 0.24419 1.10097 0.36538
 C2155 C 0.23158 1.07180 0.36541
 C2156 C 0.20517 1.08470 0.35206
 H2157 H 0.22055 1.17651 0.38701
 H2158 H 0.26404 1.15683 0.40652
 H2159 H 0.22791 1.06345 0.38731
 H2160 H 0.24296 1.05708 0.35075
 H2161 H 0.18610 1.08377 0.36616
 H2162 H 0.20158 1.07757 0.32976
 C2163 C 0.21868 0.64256 0.89070
 C2164 C 0.20050 0.62626 0.87376
 C2165 C 0.20710 0.59719 0.87037
 C2166 C 0.23262 0.58584 0.88133
 C2167 C 0.25244 0.60341 0.89555
 C2168 C 0.24402 0.63148 0.90105
 C2169 C 0.25973 0.65859 0.89588
 C2170 C 0.23201 0.67074 0.88460
 H2171 H 0.19289 0.58333 0.85869
 H2172 H 0.23699 0.56351 0.87800
 H2173 H 0.27654 0.65645 0.87925
 H2174 H 0.26676 0.66876 0.91605
 H2175 H 0.23268 0.67581 0.86144
 H2176 H 0.22327 0.68778 0.89843
 C2177 C 1.14567 1.28250 1.10759
 C2178 C 1.13997 1.29090 1.13563
 C2179 C 1.12471 1.27176 1.15308
 C2180 C 1.11281 1.24678 1.14152
 C2181 C 1.11547 1.24061 1.11209
 C2182 C 1.13368 1.25815 1.09614
 C2183 C 1.12934 1.27189 1.06777
 C2184 C 1.14252 1.29858 1.08032
 H2185 H 1.12101 1.27655 1.17538
 H2186 H 1.10086 1.23293 1.15556
 H2187 H 1.10645 1.27437 1.06232
 H2188 H 1.14273 1.26207 1.05084
 H2189 H 1.12729 1.31660 1.08214
 H2190 H 1.16347 1.30403 1.07066
 C2191 C 1.14144 0.78463 0.60628
 C2192 C 1.12524 0.80262 0.62362
 C2193 C 1.09600 0.79629 0.62671
 C2194 C 1.08457 0.77095 0.61541
 C2195 C 1.10219 0.75115 0.60107
 C2196 C 1.13030 0.75961 0.59546
 C2197 C 1.15766 0.74398 0.59966
 C2198 C 1.16987 0.77145 0.61149
 H2199 H 1.08217 0.81035 0.63868
 H2200 H 1.06218 0.76661 0.61876
 H2201 H 1.16760 0.73756 0.57911
 H2202 H 1.15586 0.72678 0.61584
 H2203 H 1.18673 0.78081 0.59769
 H2204 H 1.17522 0.77020 0.63455
 C2205 C 0.64251 1.28457 0.60767
 C2206 C 0.62638 1.30238 0.62528
 C2207 C 0.59714 1.29609 0.62832
 C2208 C 0.58563 1.27091 0.61673
 C2209 C 0.60319 1.25124 0.60212
 C2210 C 0.63130 1.25972 0.59655
 C2211 C 0.65864 1.24398 0.60047
 C2212 C 0.67094 1.27127 0.61263
 H2213 H 0.58336 1.31002 0.64052
 H2214 H 0.56324 1.26657 0.62008
 H2215 H 0.66852 1.23781 0.57981
 H2216 H 0.65686 1.22657 0.61643
 H2217 H 0.68777 1.28078 0.59890
 H2218 H 0.67635 1.26971 0.63565
 C2219 C 0.60391 0.78702 1.13884
 C2220 C 0.63233 0.79450 1.13399
 C2221 C 0.64967 0.77463 1.11958
 C2222 C 0.63793 0.74966 1.10794
 C2223 C 0.60840 0.74410 1.10997
 C2224 C 0.59227 0.76261 1.12703
 C2225 C 0.56460 0.77702 1.12104
 C2226 C 0.57736 0.80374 1.13400
 H2227 H 0.67222 0.77859 1.11673
 H2228 H 0.65205 0.73511 1.09700
 H2229 H 0.54684 0.76806 1.13396
 H2230 H 0.56024 0.77896 1.09783
 H2231 H 0.56699 0.81009 1.15436
 H2232 H 0.58040 0.82124 1.11832
 C2233 C 0.85682 1.28294 0.89298
 C2234 C 0.87271 1.30124 0.87566
 C2235 C 0.90196 1.29529 0.87216
 C2236 C 0.91392 1.27018 0.88346
 C2237 C 0.89675 1.25017 0.89809
 C2238 C 0.86847 1.25805 0.90367
 C2239 C 0.84164 1.24172 0.89887
 C2240 C 0.82889 1.26894 0.88715
 H2241 H 0.91542 1.30959 0.86001
 H2242 H 0.93634 1.26618 0.87995
 H2243 H 0.83158 1.23476 0.91920
 H2244 H 0.84416 1.22476 0.88253
 H2245 H 0.81153 1.27742 0.90081
 H2246 H 0.82390 1.26785 0.86401
 C2247 C 0.89513 0.78618 0.35861
 C2248 C 0.86684 0.79400 0.36375
 C2249 C 0.84925 0.77405 0.37776
 C2250 C 0.86071 0.74871 0.38892
 C2251 C 0.89017 0.74285 0.38673
 C2252 C 0.90648 0.76139 0.36987
 C2253 C 0.93444 0.77521 0.37585
 C2254 C 0.92200 0.80238 0.36349
 H2255 H 0.82678 0.77829 0.38081
 H2256 H 0.84650 0.73417 0.39978
 H2257 H 0.95192 0.76620 0.36261
 H2258 H 0.93905 0.77664 0.39906
 H2259 H 0.93230 0.80895 0.34315
 H2260 H 0.91940 0.81962 0.37951
 C2261 C 0.35997 1.28587 0.39722
 C2262 C 0.37552 1.30315 0.37853
 C2263 C 0.40445 1.29627 0.37417
 C2264 C 0.41602 1.27095 0.38552
 C2265 C 0.39877 1.25167 0.40109
 C2266 C 0.37119 1.26088 0.40804
 C2267 C 0.34328 1.24577 0.40580
 C2268 C 0.33100 1.27320 0.39398
 H2269 H 0.41780 1.30969 0.36094
 H2270 H 0.43810 1.26612 0.38104
 H2271 H 0.33435 1.24007 0.42703
 H2272 H 0.34377 1.22816 0.39001
 H2273 H 0.31515 1.28324 0.40846
 H2274 H 0.32431 1.27151 0.37132
 C2275 C 0.39149 0.78493 0.85843
 C2276 C 0.36401 0.79410 0.86533
 C2277 C 0.34660 0.77529 0.88102
 C2278 C 0.35779 0.74968 0.89199
 C2279 C 0.38687 0.74258 0.88806
 C2280 C 0.40262 0.76006 0.86960
 C2281 C 0.43150 0.77294 0.87308
 C2282 C 0.41926 0.80018 0.86074
 H2283 H 0.32465 0.78075 0.88563
 H2284 H 0.34373 0.73606 0.90415
 H2285 H 0.44764 0.76291 0.85891
 H2286 H 0.43784 0.77490 0.89582
 H2287 H 0.42824 0.80567 0.83947
 H2288 H 0.41855 0.81801 0.87629
 C2289 C 1.14077 0.71632 0.89293
 C2290 C 1.12496 0.69859 0.87506
 C2291 C 1.09600 0.70545 0.87098
 C2292 C 1.08450 0.73091 0.88203
 C2293 C 1.10184 0.75042 0.89701
 C2294 C 1.12962 0.74156 0.90333
 C2295 C 1.15727 0.75685 0.89973
 C2296 C 1.16953 0.72915 0.88851
 H2297 H 1.08241 0.69159 0.85858
 H2298 H 1.06229 0.73550 0.87806
 H2299 H 1.16661 0.76337 0.92047
 H2300 H 1.15622 0.77391 0.88333
 H2301 H 1.18562 0.71983 0.90305
 H2302 H 1.17585 0.73009 0.86565
 C2303 C 1.10473 0.21576 0.36048
 C2304 C 1.13348 0.20928 0.36468
 C2305 C 1.15051 0.22978 0.37838
 C2306 C 1.13822 0.25453 0.38994
 C2307 C 1.10851 0.25913 0.38851
 C2308 C 1.09257 0.23997 0.37221
 C2309 C 1.06561 0.22483 0.37960
 C2310 C 1.07891 0.19829 0.36680
 H2311 H 1.17322 0.22651 0.38064
 H2312 H 1.15201 0.26965 0.40044
 H2313 H 1.04720 0.23291 0.36716
 H2314 H 1.06202 0.22330 0.40300
 H2315 H 1.06800 0.19114 0.34711
 H2316 H 1.08304 0.18128 0.38275
 C2317 C 0.60220 0.71362 0.36427
 C2318 C 0.62968 0.70453 0.37107
 C2319 C 0.64705 0.72327 0.38670
 C2320 C 0.63601 0.74901 0.39735
 C2321 C 0.60707 0.75637 0.39324
 C2322 C 0.59113 0.73867 0.37529
 C2323 C 0.56239 0.72582 0.37972
 C2324 C 0.57449 0.69840 0.36760
 H2325 H 0.66909 0.71798 0.39089
 H2326 H 0.65022 0.76278 0.40904
 H2327 H 0.54599 0.73561 0.36577
 H2328 H 0.55645 0.72424 0.40264
 H2329 H 0.56509 0.69257 0.34670
 H2330 H 0.57553 0.68083 0.38343
 C2331 C 0.63905 0.21302 0.89760
 C2332 C 0.62344 0.19587 0.87901
 C2333 C 0.59477 0.20334 0.87419
 C2334 C 0.58353 0.22898 0.88514
 C2335 C 0.60090 0.24812 0.90062
 C2336 C 0.62820 0.23844 0.90791
 C2337 C 0.65649 0.25286 0.90559
 C2338 C 0.66833 0.22497 0.89438
 H2339 H 0.58136 0.19000 0.86105
 H2340 H 0.56158 0.23407 0.88047
 H2341 H 0.66528 0.25873 0.92676
 H2342 H 0.65661 0.27021 0.88946
 H2343 H 0.68372 0.21478 0.90917
 H2344 H 0.67539 0.22610 0.87174
 C2345 C 0.85909 0.71496 1.10502
 C2346 C 0.87491 0.69767 1.12331
 C2347 C 0.90379 0.70475 1.12746
 C2348 C 0.91510 0.73021 1.11625
 C2349 C 0.89764 0.74948 1.10107
 C2350 C 0.87006 0.74019 1.09438
 C2351 C 0.84206 0.75504 1.09724
 C2352 C 0.83006 0.72733 1.10884
 H2353 H 0.91738 0.69121 1.14021
 H2354 H 0.93722 0.73507 1.12039
 H2355 H 0.83295 0.76098 1.07622
 H2356 H 0.84255 0.77243 1.11329
 H2357 H 0.81421 0.71732 1.09443
 H2358 H 0.82352 0.72862 1.13162
 C2359 C 0.89410 0.21640 0.64014
 C2360 C 0.86629 0.20783 0.63408
 C2361 C 0.84893 0.22684 0.61872
 C2362 C 0.86034 0.25212 0.60733
 C2363 C 0.88957 0.25869 0.61048
 C2364 C 0.90546 0.24099 0.62850
 C2365 C 0.93393 0.22750 0.62403
 C2366 C 0.92144 0.20055 0.63687
 H2367 H 0.82672 0.22194 0.61495
 H2368 H 0.84625 0.26603 0.59563
 H2369 H 0.95067 0.23725 0.63758
 H2370 H 0.93957 0.22537 0.60108
 H2371 H 0.93091 0.19490 0.65782
 H2372 H 0.91987 0.18271 0.62140
 C2373 C 0.39474 0.71571 0.63756
 C2374 C 0.36671 0.70756 0.63184
 C2375 C 0.34926 0.72719 0.61736
 C2376 C 0.36065 0.75269 0.60653
 C2377 C 0.38994 0.75901 0.60941
 C2378 C 0.40607 0.74063 0.62651
 C2379 C 0.43430 0.72710 0.62090
 C2380 C 0.42187 0.69979 0.63304
 H2381 H 0.32691 0.72270 0.61397
 H2382 H 0.34647 0.76708 0.59553
 H2383 H 0.45141 0.73627 0.63440
 H2384 H 0.43940 0.72576 0.59776
 H2385 H 0.43180 0.69330 0.65352
 H2386 H 0.41978 0.68255 0.61697
 C2387 C 0.35442 0.21730 1.10657
 C2388 C 0.36095 0.20770 1.13397
 C2389 C 0.37656 0.22612 1.15175
 C2390 C 0.38800 0.25169 1.14095
 C2391 C 0.38464 0.25914 1.11190
 C2392 C 0.36610 0.24217 1.09579
 C2393 C 0.36974 0.22961 1.06675
 C2394 C 0.35687 0.20240 1.07859
 H2395 H 0.38088 0.22030 1.17366
 H2396 H 0.40016 0.26495 1.15526
 H2397 H 0.39249 0.22740 1.06049
 H2398 H 0.35594 0.24008 1.05064
 H2399 H 0.37213 0.18433 1.07916
 H2400 H 0.33567 0.19734 1.06940
 C2401 C 1.13689 1.10164 0.71083
 C2402 C 1.12136 1.12100 0.69448
 C2403 C 1.09294 1.12628 0.70265
 C2404 C 1.08198 1.11504 0.72837
 C2405 C 1.09948 1.09894 0.74692
 C2406 C 1.12637 1.09112 0.73639
 C2407 C 1.15503 1.09240 0.75015
 C2408 C 1.16650 1.10383 0.72209
 H2409 H 1.07961 1.14007 0.68988
 H2410 H 1.06023 1.12010 0.73404
 H2411 H 1.16347 1.07096 0.75540
 H2412 H 1.15592 1.10810 0.76785
 H2413 H 1.18130 1.08890 0.71118
 H2414 H 1.17413 1.12617 0.72348
 C2415 C 1.13749 0.60002 0.20984
 C2416 C 1.12333 0.62172 0.19507
 C2417 C 1.09575 0.62889 0.20467
 C2418 C 1.08460 0.61706 0.23000
 C2419 C 1.10122 0.59874 0.24730
 C2420 C 1.12699 0.58921 0.23535
 C2421 C 1.15613 0.58714 0.24795
 C2422 C 1.16758 0.59885 0.22003
 H2423 H 1.08303 0.64429 0.19318
 H2424 H 1.06341 0.62347 0.23626
 H2425 H 1.16277 0.56479 0.25178
 H2426 H 1.15917 0.60178 0.26631
 H2427 H 1.18051 0.58319 0.20785
 H2428 H 1.17737 0.62027 0.22219
 C2429 C 0.60305 1.14010 0.21251
 C2430 C 0.62317 1.12511 0.19626
 C2431 C 0.62875 1.09675 0.20441
 C2432 C 0.61699 1.08541 0.22975
 C2433 C 0.60000 1.10237 0.24807
 C2434 C 0.59205 1.12917 0.23769
 C2435 C 0.59247 1.15755 0.25199
 C2436 C 0.60449 1.16953 0.22444
 H2437 H 0.64299 1.08358 0.19190
 H2438 H 0.62228 1.06375 0.23530
 H2439 H 0.60770 1.15843 0.27008
 H2440 H 0.57071 1.16557 0.25682
 H2441 H 0.62670 1.17745 0.22655
 H2442 H 0.58961 1.18431 0.21355
 C2443 C 0.64085 0.60632 0.71551
 C2444 C 0.62570 0.62582 0.69895
 C2445 C 0.59691 0.63053 0.70610
 C2446 C 0.58511 0.61861 0.73113
 C2447 C 0.60207 0.60228 0.74996
 C2448 C 0.62947 0.59507 0.74036
 C2449 C 0.65752 0.59636 0.75531
 C2450 C 0.66996 0.60859 0.72799
 H2451 H 0.58385 0.64430 0.69306
 H2452 H 0.56309 0.62324 0.73607
 H2453 H 0.66600 0.57490 0.76040
 H2454 H 0.65750 0.61165 0.77339
 H2455 H 0.68536 0.59410 0.71733
 H2456 H 0.67723 0.63098 0.73020
 C2457 C 0.89715 0.86601 0.71095
 C2458 C 0.86968 0.87278 0.70182
 C2459 C 0.85226 0.88857 0.72050
 C2460 C 0.86320 0.89931 0.74627
 C2461 C 0.89210 0.89511 0.75370
 C2462 C 0.90811 0.87712 0.73601
 C2463 C 0.93687 0.88147 0.72304
 C2464 C 0.92486 0.86925 0.69562
 H2465 H 0.83023 0.89277 0.71516
 H2466 H 0.84894 0.91109 0.76001
 H2467 H 0.95330 0.86762 0.73292
 H2468 H 0.94274 0.90431 0.72134
 H2469 H 0.93435 0.84839 0.68986
 H2470 H 0.92381 0.88494 0.67791
 C2471 C 0.89289 0.36032 0.21400
 C2472 C 0.87350 0.37570 0.19739
 C2473 C 0.86875 0.40437 0.20506
 C2474 C 0.88065 0.41580 0.23013
 C2475 C 0.89701 0.39870 0.24874
 C2476 C 0.90405 0.37139 0.23900
 C2477 C 0.90250 0.34333 0.25387
 C2478 C 0.89034 0.33120 0.22649
 H2479 H 0.85523 0.41789 0.19220
 H2480 H 0.87615 0.43777 0.23515
 H2481 H 0.88707 0.34334 0.27191
 H2482 H 0.92393 0.33471 0.25898
 H2483 H 0.86785 0.32407 0.22864
 H2484 H 0.90483 0.31577 0.21588
 C2485 C 0.36152 0.89358 0.21363
 C2486 C 0.36409 0.86488 0.20713
 C2487 C 0.37950 0.84823 0.22693
 C2488 C 0.39174 0.86069 0.25156
 C2489 C 0.38940 0.89033 0.25696
 C2490 C 0.37352 0.90567 0.23705
 C2491 C 0.36483 0.93493 0.22828
 C2492 C 0.35128 0.92107 0.20187
 H2493 H 0.38196 0.82559 0.22362
 H2494 H 0.40271 0.84689 0.26636
 H2495 H 0.38343 0.94862 0.22311
 H2496 H 0.34882 0.94451 0.24289
 H2497 H 0.36212 0.92676 0.18155
 H2498 H 0.32765 0.92238 0.20164
 C2499 C 0.35949 0.39583 0.71355
 C2500 C 0.37277 0.37377 0.69853
 C2501 C 0.40070 0.36643 0.70690
 C2502 C 0.41313 0.37856 0.73136
 C2503 C 0.39762 0.39760 0.74889
 C2504 C 0.37135 0.40708 0.73816
 C2505 C 0.34289 0.40962 0.75236
 C2506 C 0.32996 0.39743 0.72539
 H2507 H 0.41276 0.35068 0.69512
 H2508 H 0.43447 0.37198 0.73682
 H2509 H 0.33660 0.43209 0.75609
 H2510 H 0.34070 0.39538 0.77118
 H2511 H 0.31656 0.41294 0.71362
 H2512 H 0.32017 0.37613 0.72856
 C2513 C 1.10353 0.86058 1.28805
 C2514 C 1.12995 0.86942 1.29862
 C2515 C 1.14654 0.88724 1.28088
 C2516 C 1.13570 0.89762 1.25493
 C2517 C 1.10748 0.89147 1.24633
 C2518 C 1.09253 0.87153 1.26289
 C2519 C 1.06299 0.87261 1.27477
 C2520 C 1.07502 0.86056 1.30226
 H2521 H 1.16785 0.89346 1.28705
 H2522 H 1.14954 0.91085 1.24213
 H2523 H 1.04835 0.85763 1.26383
 H2524 H 1.05487 0.89471 1.27699
 H2525 H 1.06742 0.83867 1.30696
 H2526 H 1.07382 0.87562 1.32050
 C2527 C 1.10463 0.36240 0.78639
 C2528 C 1.13324 0.36687 0.79320
 C2529 C 1.15029 0.38142 0.77315
 C2530 C 1.13820 0.39338 0.74852
 C2531 C 1.10858 0.39163 0.74356
 C2532 C 1.09261 0.37468 0.76233
 C2533 C 1.06545 0.38123 0.77758
 C2534 C 1.07861 0.36783 0.80393
 H2535 H 1.17296 0.38383 0.77658
 H2536 H 1.15215 0.40423 0.73368
 H2537 H 1.04721 0.36887 0.76903
 H2538 H 1.06164 0.40446 0.77978
 H2539 H 1.06786 0.34782 0.81047
 H2540 H 1.08242 0.38324 0.82148
 C2541 C 0.60770 0.85949 0.78383
 C2542 C 0.63570 0.86548 0.79179
 C2543 C 0.65258 0.88131 0.77264
 C2544 C 0.64060 0.89312 0.74783
 C2545 C 0.61123 0.88996 0.74191
 C2546 C 0.59575 0.87160 0.75971
 C2547 C 0.56766 0.87577 0.77415
 C2548 C 0.58077 0.86245 0.80056
 H2549 H 0.67491 0.88501 0.77704
 H2550 H 0.65440 0.90508 0.73375
 H2551 H 0.55063 0.86245 0.76459
 H2552 H 0.56215 0.89859 0.77690
 H2553 H 0.57136 0.84147 0.80609
 H2554 H 0.58285 0.87751 0.81871
 C2555 C 0.60319 0.36019 1.28753
 C2556 C 0.62983 0.36863 1.29787
 C2557 C 0.64654 0.38615 1.27995
 C2558 C 0.63569 0.39661 1.25404
 C2559 C 0.60734 0.39083 1.24563
 C2560 C 0.59218 0.37121 1.26239
 C2561 C 0.56275 0.37283 1.27447
 C2562 C 0.57477 0.36071 1.30193
 H2563 H 0.66801 0.39205 1.28592
 H2564 H 0.64964 0.40957 1.24109
 H2565 H 0.54780 0.35804 1.26369
 H2566 H 0.55501 0.39507 1.27664
 H2567 H 0.56684 0.33896 1.30678
 H2568 H 0.57396 0.37586 1.32011
 C2569 C 0.89841 1.14050 1.28917
 C2570 C 0.87758 1.12585 1.30479
 C2571 C 0.87048 1.09825 1.29532
 C2572 C 0.88168 1.08740 1.26960
 C2573 C 0.89943 1.10422 1.25185
 C2574 C 0.90869 1.13020 1.26336
 C2575 C 0.90955 1.15928 1.25049
 C2576 C 0.89842 1.17050 1.27874
 H2577 H 0.85572 1.08517 1.30735
 H2578 H 0.87544 1.06617 1.26351
 H2579 H 0.89422 1.16182 1.23265
 H2580 H 0.93163 1.16647 1.24580
 H2581 H 0.87663 1.17965 1.27731
 H2582 H 0.91415 1.18387 1.29026
 C2583 C 0.89505 0.64009 0.78637
 C2584 C 0.87627 0.62424 0.80328
 C2585 C 0.87245 0.59539 0.79614
 C2586 C 0.88441 0.58420 0.77083
 C2587 C 0.90001 0.60178 0.75182
 C2588 C 0.90643 0.62927 0.76137
 C2589 C 0.90413 0.65727 0.74647
 C2590 C 0.89172 0.66913 0.77394
 H2591 H 0.85928 0.58180 0.80936
 H2592 H 0.88039 0.56213 0.76581
 H2593 H 0.88866 0.65685 0.72856
 H2594 H 0.92532 0.66642 0.74116
 H2595 H 0.86904 0.67566 0.77199
 H2596 H 0.90583 0.68492 0.78444
 C2597 C 0.39667 1.14069 0.78737
 C2598 C 0.37655 1.12567 0.80361
 C2599 C 0.37115 1.09724 0.79555
 C2600 C 0.38300 1.08588 0.77030
 C2601 C 0.39991 1.10286 0.75190
 C2602 C 0.40775 1.12973 0.76221
 C2603 C 0.40729 1.15808 0.74784
 C2604 C 0.39520 1.17009 0.77535
 H2605 H 0.35696 1.08401 0.80808
 H2606 H 0.37784 1.06416 0.76487
 H2607 H 0.39209 1.15890 0.72972
 H2608 H 0.42904 1.16613 0.74301
 H2609 H 0.37297 1.17796 0.77319
 H2610 H 0.41003 1.18491 0.78624
 C2611 C 0.39737 0.63997 1.28879
 C2612 C 0.37680 0.62535 1.30475
 C2613 C 0.36990 0.59753 1.29573
 C2614 C 0.38106 0.58638 1.27014
 C2615 C 0.39860 0.60305 1.25207
 C2616 C 0.40762 0.62933 1.26309
 C2617 C 0.40806 0.65818 1.24970
 C2618 C 0.39694 0.66977 1.27782
 H2619 H 0.35537 0.58447 1.30804
 H2620 H 0.37501 0.56499 1.26439
 H2621 H 0.39259 0.66022 1.23190
 H2622 H 0.43001 0.66555 1.24474
 H2623 H 0.37503 0.67863 1.27635
 H2624 H 0.41257 0.68354 1.28900
 C2625 C 1.10969 1.28241 0.85644
 C2626 C 1.13685 1.29200 0.86407
 C2627 C 1.15295 1.27432 0.88229
 C2628 C 1.14106 1.24947 0.89416
 C2629 C 1.11233 1.24198 0.88901
 C2630 C 1.09773 1.25839 0.86878
 C2631 C 1.06885 1.27164 0.87021
 C2632 C 1.08191 1.29787 0.85654
 H2633 H 1.17471 1.27969 0.88771
 H2634 H 1.15451 1.23662 0.90765
 H2635 H 1.06149 1.27520 0.89248
 H2636 H 1.05327 1.26080 0.85612
 H2637 H 1.08198 1.31677 0.87077
 H2638 H 1.07399 1.30179 0.83459
 C2639 C 1.13821 0.78650 0.39724
 C2640 C 1.12317 0.80331 0.37789
 C2641 C 1.09471 0.79564 0.37218
 C2642 C 1.08323 0.77005 0.38300
 C2643 C 1.10021 0.75118 0.39924
 C2644 C 1.12719 0.76109 0.40732
 C2645 C 1.15561 0.74682 0.40608
 C2646 C 1.16767 0.77478 0.39530
 H2647 H 1.08167 0.80877 0.35845
 H2648 H 1.06149 0.76478 0.37765
 H2649 H 1.15643 0.72949 0.38998
 H2650 H 1.16367 0.74100 0.42757
 H2651 H 1.17579 0.77371 0.37302
 H2652 H 1.18219 0.78501 0.41086
 C2653 C 0.63746 1.28807 0.39790
 C2654 C 0.62380 1.30325 0.37618
 C2655 C 0.59618 1.29414 0.36857
 C2656 C 0.58454 1.26892 0.38000
 C2657 C 0.60058 1.25140 0.39857
 C2658 C 0.62643 1.26277 0.40839
 C2659 C 0.65535 1.24965 0.41064
 C2660 C 0.66737 1.27742 0.39943
 H2661 H 0.58379 1.30593 0.35311
 H2662 H 0.56341 1.26295 0.37322
 H2663 H 0.65833 1.23151 0.39573
 H2664 H 0.66161 1.24541 0.43308
 H2665 H 0.67761 1.27542 0.37810
 H2666 H 0.68000 1.28912 0.41562
 C2667 C 0.64230 0.78335 0.89346
 C2668 C 0.63641 0.79169 0.86550
 C2669 C 0.62050 0.77290 0.84843
 C2670 C 0.60845 0.74813 0.86021
 C2671 C 0.61145 0.74187 0.88956
 C2672 C 0.62997 0.75925 0.90522
 C2673 C 0.62583 0.77328 0.93348
 C2674 C 0.63939 0.79969 0.92058
 H2675 H 0.61686 0.77759 0.82612
 H2676 H 0.59638 0.73436 0.84630
 H2677 H 0.63907 0.76341 0.95042
 H2678 H 0.60297 0.77612 0.93906
 H2679 H 0.66043 0.80491 0.93003
 H2680 H 0.62443 0.81791 0.91870
 C2681 C 0.85881 1.28721 1.10419
 C2682 C 0.86460 1.29648 1.13186
 C2683 C 0.87936 1.27766 1.14999
 C2684 C 0.89060 1.25193 1.13943
 C2685 C 0.88784 1.24464 1.11031
 C2686 C 0.87025 1.26213 1.09369
 C2687 C 0.87521 1.27475 1.06485
 C2688 C 0.86262 1.30221 1.07639
 H2689 H 0.88305 1.28320 1.17209
 H2690 H 0.90205 1.23832 1.15402
 H2691 H 0.86173 1.26470 1.04823
 H2692 H 0.89822 1.27643 1.05940
 H2693 H 0.84190 1.30786 1.06648
 H2694 H 0.87831 1.31989 1.07761
 C2695 C 0.89545 0.78692 0.63837
 C2696 C 0.86803 0.79613 0.63148
 C2697 C 0.85053 0.77730 0.61607
 C2698 C 0.86149 0.75149 0.60547
 C2699 C 0.89045 0.74417 0.60944
 C2700 C 0.90641 0.76180 0.62744
 C2701 C 0.93528 0.77447 0.62325
 C2702 C 0.92327 0.80196 0.63532
 H2703 H 0.82856 0.78274 0.61170
 H2704 H 0.84729 0.73776 0.59371
 H2705 H 0.94140 0.77604 0.60037
 H2706 H 0.95151 0.76456 0.63730
 H2707 H 0.92250 0.81957 0.61951
 H2708 H 0.93253 0.80767 0.65632
 C2709 C 0.35547 1.28242 0.60947
 C2710 C 0.36604 1.29467 0.63448
 C2711 C 0.38663 1.27908 0.64975
 C2712 C 0.39770 1.25347 0.63888
 C2713 C 0.38961 1.24321 0.61166
 C2714 C 0.36721 1.25775 0.59818
 C2715 C 0.36478 1.26867 0.56832
 C2716 C 0.35183 1.29552 0.58071
 H2717 H 0.39441 1.28661 0.67012
 H2718 H 0.41296 1.24241 0.65196
 H2719 H 0.34932 1.25632 0.55539
 H2720 H 0.38588 1.27218 0.55806
 H2721 H 0.32900 1.29833 0.57515
 H2722 H 0.36535 1.31469 0.57758
 C2723 C 0.35074 0.77863 1.11086
 C2724 C 0.35910 0.78891 1.13757
 C2725 C 0.37779 0.77173 1.15363
 C2726 C 0.38970 0.74687 1.14189
 C2727 C 0.38424 0.73898 1.11329
 C2728 C 0.36321 0.75464 1.09897
 C2729 C 0.36337 0.76739 1.06977
 C2730 C 0.34966 0.79359 1.08278
 H2731 H 0.38374 0.77767 1.17512
 H2732 H 0.40371 0.73452 1.15528
 H2733 H 0.34897 0.75601 1.05487
 H2734 H 0.38528 0.77124 1.06154
 H2735 H 0.32742 0.79708 1.07550
 H2736 H 0.36357 0.81272 1.08204
 C2737 C 0.89259 0.71561 0.85901
 C2738 C 0.86536 0.70609 0.86641
 C2739 C 0.84793 0.72472 0.88225
 C2740 C 0.85893 0.75057 0.89283
 C2741 C 0.88783 0.75809 0.88835
 C2742 C 0.90355 0.74071 0.86981
 C2743 C 0.93265 0.72825 0.87296
 C2744 C 0.92060 0.70076 0.86103
 H2745 H 0.82612 0.71901 0.88720
 H2746 H 0.84485 0.76407 0.90509
 H2747 H 0.93935 0.72655 0.89562
 H2748 H 0.94844 0.73841 0.85848
 H2749 H 0.92036 0.68304 0.87674
 H2750 H 0.92934 0.69525 0.83968
 C2751 C 0.85978 0.21476 0.39649
 C2752 C 0.87454 0.19906 0.37582
 C2753 C 0.90212 0.20864 0.36842
 C2754 C 0.91295 0.23435 0.37932
 C2755 C 0.89614 0.25203 0.39710
 C2756 C 0.87007 0.24059 0.40649
 C2757 C 0.84096 0.25343 0.40714
 C2758 C 0.82974 0.22518 0.39631
 H2759 H 0.91532 0.19658 0.35380
 H2760 H 0.93423 0.24043 0.37297
 H2761 H 0.83851 0.27109 0.39156
 H2762 H 0.83366 0.25831 0.42918
 H2763 H 0.82069 0.22643 0.37445
 H2764 H 0.81624 0.21383 0.41217
 C2765 C 0.35809 0.71715 0.39450
 C2766 C 0.37440 0.69974 0.37667
 C2767 C 0.40315 0.70732 0.37238
 C2768 C 0.41397 0.73312 0.38319
 C2769 C 0.39611 0.75238 0.39803
 C2770 C 0.36855 0.74280 0.40466
 C2771 C 0.34040 0.75717 0.40113
 C2772 C 0.32898 0.72905 0.39007
 H2773 H 0.41712 0.69371 0.36004
 H2774 H 0.43609 0.73811 0.37913
 H2775 H 0.34094 0.77420 0.38468
 H2776 H 0.33082 0.76347 0.42189
 H2777 H 0.32283 0.72973 0.36720
 H2778 H 0.31300 0.71917 0.40454
 C2779 C 0.39185 0.21643 0.85707
 C2780 C 0.36539 0.20561 0.86565
 C2781 C 0.34875 0.22283 0.88392
 C2782 C 0.35967 0.24846 0.89508
 C2783 C 0.38795 0.25720 0.88913
 C2784 C 0.40288 0.24121 0.86869
 C2785 C 0.43239 0.22934 0.86953
 C2786 C 0.42034 0.20228 0.85677
 H2787 H 0.32749 0.21634 0.89015
 H2788 H 0.34594 0.26077 0.90886
 H2789 H 0.44041 0.22657 0.89164
 H2790 H 0.44714 0.24059 0.85476
 H2791 H 0.42143 0.18374 0.87145
 H2792 H 0.42811 0.19816 0.83475
 C2793 C 1.10379 0.71309 1.14112
 C2794 C 1.13046 0.70265 1.13269
 C2795 C 1.14735 0.72062 1.11535
 C2796 C 1.13656 0.74652 1.10482
 C2797 C 1.10816 0.75496 1.11045
 C2798 C 1.09290 0.73826 1.13011
 C2799 C 1.06343 0.72643 1.12850
 C2800 C 1.07533 0.69894 1.14060
 H2801 H 1.16884 0.71459 1.10942
 H2802 H 1.15054 0.75940 1.09180
 H2803 H 1.05572 0.72437 1.10620
 H2804 H 1.04850 0.73726 1.14338
 H2805 H 1.07447 0.68087 1.12535
 H2806 H 1.06733 0.69411 1.16241
 C2807 C 1.10356 0.21437 0.64145
 C2808 C 1.13012 0.20380 0.63283
 C2809 C 1.14716 0.22181 0.61570
 C2810 C 1.13654 0.24787 0.60542
 C2811 C 1.10815 0.25636 0.61104
 C2812 C 1.09282 0.23968 0.63064
 C2813 C 1.06325 0.22809 0.62908
 C2814 C 1.07498 0.20044 0.64096
 H2815 H 1.16858 0.21566 0.60969
 H2816 H 1.15060 0.26076 0.59251
 H2817 H 1.05544 0.22623 0.60679
 H2818 H 1.04845 0.23894 0.64409
 H2819 H 1.07392 0.18247 0.62559
 H2820 H 1.06703 0.19553 0.66277
 C2821 C 0.63961 0.71728 0.60619
 C2822 C 0.63220 0.70749 0.63334
 C2823 C 0.61540 0.72542 0.65058
 C2824 C 0.60420 0.75098 0.63958
 C2825 C 0.60890 0.75887 0.61078
 C2826 C 0.62808 0.74207 0.59515
 C2827 C 0.62538 0.72948 0.56603
 C2828 C 0.63810 0.70237 0.57816
 H2829 H 0.61051 0.71952 0.67238
 H2830 H 0.59151 0.76405 0.65368
 H2831 H 0.63957 0.74005 0.55023
 H2832 H 0.60283 0.72710 0.55926
 H2833 H 0.65960 0.69749 0.56947
 H2834 H 0.62297 0.68418 0.57840
 C2835 C 0.60699 0.21608 1.14389
 C2836 C 0.63357 0.20565 1.13515
 C2837 C 0.65019 0.22339 1.11739
 C2838 C 0.63911 0.24912 1.10672
 C2839 C 0.61066 0.25738 1.11255
 C2840 C 0.59578 0.24096 1.13267
 C2841 C 0.56637 0.22890 1.13152
 C2842 C 0.57860 0.20170 1.14382
 H2843 H 0.67155 0.21722 1.11118
 H2844 H 0.65283 0.26186 1.09329
 H2845 H 0.55844 0.22649 1.10933
 H2846 H 0.55150 0.23977 1.14644
 H2847 H 0.57772 0.18343 1.12880
 H2848 H 0.57078 0.19708 1.16573
 C2849 C 1.28166 1.14211 0.89148
 C2850 C 1.29971 1.12626 0.87387
 C2851 C 1.29334 1.09715 0.87035
 C2852 C 1.26794 1.08552 0.88163
 C2853 C 1.24813 1.10283 0.89638
 C2854 C 1.25661 1.13079 0.90227
 C2855 C 1.24093 1.15816 0.89846
 C2856 C 1.26843 1.17056 0.88668
 H2857 H 1.30741 1.08358 0.85810
 H2858 H 1.26361 1.06324 0.87800
 H2859 H 1.23448 1.16775 0.91916
 H2860 H 1.22369 1.15661 0.88233
 H2861 H 1.27781 1.18716 0.90066
 H2862 H 1.26718 1.17628 0.86370
 C2863 C 1.28581 0.60494 0.36089
 C2864 C 1.30258 0.62350 0.37692
 C2865 C 1.29441 0.62836 0.40547
 C2866 C 1.26854 0.61735 0.41621
 C2867 C 1.24983 0.60179 0.39844
 C2868 C 1.26011 0.59460 0.37124
 C2869 C 1.24627 0.59701 0.34268
 C2870 C 1.27447 0.60825 0.33139
 H2871 H 1.30750 0.64138 0.41922
 H2872 H 1.26301 0.62191 0.43814
 H2873 H 1.22889 0.61307 0.34236
 H2874 H 1.24056 0.57593 0.33366
 H2875 H 1.27348 0.63084 0.32445
 H2876 H 1.28500 0.59357 0.31608
 C2877 C 0.78572 1.10606 0.36022
 C2878 C 0.80248 1.12469 0.37619
 C2879 C 0.79441 1.12947 0.40476
 C2880 C 0.76866 1.11832 0.41563
 C2881 C 0.74993 1.10268 0.39794
 C2882 C 0.76011 1.09558 0.37068
 C2883 C 0.74612 1.09798 0.34219
 C2884 C 0.77422 1.10937 0.33078
 H2885 H 0.80754 1.14249 0.41850
 H2886 H 0.76325 1.12280 0.43760
 H2887 H 0.72867 1.11396 0.34199
 H2888 H 0.74047 1.07688 0.33317
 H2889 H 0.77310 1.13196 0.32388
 H2890 H 0.78474 1.09476 0.31539
 C2891 C 0.78145 0.64118 0.89340
 C2892 C 0.79929 0.62531 0.87558
 C2893 C 0.79279 0.59623 0.87209
 C2894 C 0.76744 0.58467 0.88355
 C2895 C 0.74778 0.60203 0.89846
 C2896 C 0.75644 0.62995 0.90436
 C2897 C 0.74086 0.65740 0.90078
 C2898 C 0.76833 0.66971 0.88880
 H2899 H 0.80671 0.58262 0.85969
 H2900 H 0.76299 0.56242 0.87990
 H2901 H 0.73464 0.66696 0.92156
 H2902 H 0.72347 0.65600 0.88480
 H2903 H 0.77790 0.68622 0.90275
 H2904 H 0.76690 0.67551 0.86585
 C2905 C 1.28343 0.89426 1.13788
 C2906 C 1.29083 0.86593 1.13278
 C2907 C 1.27104 0.84885 1.11812
 C2908 C 1.24605 0.86070 1.10670
 C2909 C 1.24044 0.89013 1.10911
 C2910 C 1.25902 0.90606 1.12616
 C2911 C 1.27358 0.93359 1.11998
 C2912 C 1.30031 0.92068 1.13279
 H2913 H 1.27492 0.82634 1.11523
 H2914 H 1.23144 0.84673 1.09575
 H2915 H 1.26475 0.95135 1.13289
 H2916 H 1.27547 0.93795 1.09673
 H2917 H 1.30679 0.93107 1.15302
 H2918 H 1.31777 0.91755 1.11702
 C2919 C 1.28406 0.39499 0.63955
 C2920 C 1.29266 0.36715 0.63378
 C2921 C 1.27358 0.34968 0.61861
 C2922 C 1.24825 0.36094 0.60717
 C2923 C 1.24162 0.39014 0.61007
 C2924 C 1.25940 0.40620 0.62787
 C2925 C 1.27294 0.43454 0.62310
 C2926 C 1.29994 0.42223 0.63597
 H2927 H 1.27848 0.32747 0.61501
 H2928 H 1.23434 0.34673 0.59563
 H2929 H 1.26318 0.45141 0.63653
 H2930 H 1.27510 0.43989 0.60009
 H2931 H 1.30559 0.43194 0.65681
 H2932 H 1.31783 0.42048 0.62046
 C2933 C 0.78280 0.85946 0.60525
 C2934 C 0.80021 0.87517 0.62350
 C2935 C 0.79372 0.90420 0.62720
 C2936 C 0.76864 0.91588 0.61557
 C2937 C 0.74916 0.89863 0.60045
 C2938 C 0.75792 0.87079 0.59423
 C2939 C 0.74236 0.84325 0.59740
 C2940 C 0.76969 0.83086 0.60942
 H2941 H 0.80743 0.91765 0.63991
 H2942 H 0.76420 0.93811 0.61939
 H2943 H 0.73644 0.83390 0.57648
 H2944 H 0.72476 0.84443 0.61329
 H2945 H 0.77950 0.81454 0.59534
 H2946 H 0.76797 0.82478 0.63228
 C2947 C 0.78526 0.39907 1.13839
 C2948 C 0.80195 0.37982 1.12303
 C2949 C 0.79398 0.37408 1.09466
 C2950 C 0.76824 0.38487 1.08353
 C2951 C 0.74942 0.40099 1.10082
 C2952 C 0.75966 0.40913 1.12773
 C2953 C 0.74573 0.40783 1.15643
 C2954 C 0.77383 0.39691 1.16804
 H2955 H 0.80698 0.36031 1.08146
 H2956 H 0.76280 0.37951 1.06181
 H2957 H 0.72828 0.39186 1.15743
 H2958 H 0.74010 0.42924 1.16473
 H2959 H 0.77272 0.37461 1.17585
 H2960 H 0.78438 0.41212 1.18274
 C2961 C 0.71713 1.14278 1.10747
 C2962 C 0.69929 1.12661 1.12506
 C2963 C 0.70570 1.09746 1.12802
 C2964 C 0.73101 1.08608 1.11634
 C2965 C 0.75071 1.10368 1.10175
 C2966 C 0.74211 1.13170 1.09629
 C2967 C 0.75775 1.15906 1.10028
 C2968 C 0.73032 1.17120 1.11250
 H2969 H 0.69176 1.08366 1.14019
 H2970 H 0.73542 1.06375 1.11962
 H2971 H 0.76395 1.16895 1.07964
 H2972 H 0.77516 1.15735 1.11621
 H2973 H 0.72076 1.18796 1.09883
 H2974 H 0.73180 1.17661 1.13553
 C2975 C 0.71474 0.60597 0.63881
 C2976 C 0.70616 0.63377 0.63280
 C2977 C 0.72544 0.65124 0.61775
 C2978 C 0.75098 0.63998 0.60662
 C2979 C 0.75762 0.61079 0.60976
 C2980 C 0.73962 0.59477 0.62747
 C2981 C 0.72626 0.56636 0.62275
 C2982 C 0.69900 0.57865 0.63525
 H2983 H 0.72057 0.67343 0.61401
 H2984 H 0.76507 0.65416 0.59514
 H2985 H 0.73586 0.54960 0.63640
 H2986 H 0.72452 0.56086 0.59976
 H2987 H 0.69303 0.56905 0.65610
 H2988 H 0.68139 0.58026 0.61954
 C2989 C 0.21612 1.14283 0.60637
 C2990 C 0.19798 1.12646 0.62343
 C2991 C 0.20438 1.09728 0.62630
 C2992 C 0.22991 1.08603 0.61513
 C2993 C 0.24986 1.10378 0.60116
 C2994 C 0.24138 1.13184 0.59569
 C2995 C 0.25690 1.15916 0.60033
 C2996 C 0.22917 1.17119 0.61201
 H2997 H 0.19020 1.08333 0.63801
 H2998 H 0.23427 1.06367 0.61830
 H2999 H 0.26360 1.16924 0.57994
 H3000 H 0.27391 1.15730 0.61667
 H3001 H 0.21994 1.18809 0.59829
 H3002 H 0.23008 1.17636 0.63513
 C3003 C 0.21777 0.64259 1.10822
 C3004 C 0.19994 0.62650 1.12585
 C3005 C 0.20636 0.59737 1.12907
 C3006 C 0.23162 0.58589 1.11756
 C3007 C 0.25130 0.60337 1.10290
 C3008 C 0.24280 0.63140 1.09723
 C3009 C 0.25848 0.65872 1.10125
 C3010 C 0.23100 0.67098 1.11327
 H3011 H 0.19234 0.58360 1.14120
 H3012 H 0.23596 0.56356 1.12093
 H3013 H 0.26485 0.66853 1.08062
 H3014 H 0.27578 0.65700 1.11730
 H3015 H 0.22157 0.68774 1.09951
 H3016 H 0.23233 0.67643 1.13630
 C3017 C 0.71778 0.89390 0.85940
 C3018 C 0.70965 0.86597 0.86542
 C3019 C 0.72855 0.84915 0.88149
 C3020 C 0.75326 0.86111 0.89346
 C3021 C 0.75936 0.89039 0.89021
 C3022 C 0.74181 0.90582 0.87164
 C3023 C 0.72748 0.93388 0.87570
 C3024 C 0.70116 0.92079 0.86223
 H3025 H 0.72403 0.82689 0.88526
 H3026 H 0.76715 0.84736 0.90559
 H3027 H 0.73723 0.95084 0.86235
 H3028 H 0.72456 0.93941 0.89858
 H3029 H 0.69587 0.93016 0.84114
 H3030 H 0.68290 0.91876 0.87727
 C3031 C 0.71863 0.35580 0.39047
 C3032 C 0.70076 0.37179 0.37292
 C3033 C 0.70701 0.40090 0.36949
 C3034 C 0.73203 0.41264 0.38109
 C3035 C 0.75174 0.39539 0.39590
 C3036 C 0.74356 0.36723 0.40140
 C3037 C 0.75970 0.34028 0.39675
 C3038 C 0.73244 0.32777 0.38478
 H3039 H 0.69286 0.41447 0.35739
 H3040 H 0.73611 0.43503 0.37777
 H3041 H 0.76630 0.33023 0.41715
 H3042 H 0.77693 0.34257 0.38058
 H3043 H 0.72353 0.31055 0.39833
 H3044 H 0.73379 0.32273 0.36165
 C3045 C 0.21767 0.85828 0.39228
 C3046 C 0.19973 0.87417 0.37471
 C3047 C 0.20601 0.90325 0.37105
 C3048 C 0.23112 0.91504 0.38247
 C3049 C 0.25087 0.89785 0.39730
 C3050 C 0.24267 0.86974 0.40299
 C3051 C 0.25876 0.84273 0.39841
 C3052 C 0.23140 0.83019 0.38672
 H3053 H 0.19185 0.91673 0.35887
 H3054 H 0.23523 0.93739 0.37896
 H3055 H 0.26548 0.83280 0.41882
 H3056 H 0.27588 0.84490 0.38211
 H3057 H 0.22257 0.81312 0.40049
 H3058 H 0.23260 0.82495 0.36362
 C3059 C 0.22002 0.39099 0.85481
 C3060 C 0.21198 0.36305 0.86102
 C3061 C 0.23125 0.34623 0.87664
 C3062 C 0.25610 0.35831 0.88826
 C3063 C 0.26193 0.38767 0.88504
 C3064 C 0.24418 0.40299 0.86662
 C3065 C 0.22996 0.43110 0.87059
 C3066 C 0.20345 0.41793 0.85759
 H3067 H 0.22676 0.32400 0.88062
 H3068 H 0.27017 0.34470 0.90034
 H3069 H 0.23956 0.44792 0.85696
 H3070 H 0.22733 0.43685 0.89345
 H3071 H 0.19791 0.42710 0.83648
 H3072 H 0.18539 0.41606 0.87288
   
