data_POSCAR
  _audit_creation_date              2014-09-24
  _audit_creation_method            'ToBaCCo'
  _symmetry_space_group_name_H-M    'P1'
  _symmetry_Int_Tables_number       1
  _symmetry_cell_setting            triclinic
  loop_
  _symmetry_equiv_pos_as_xyz
 x,y,z
_cell_length_a 105.0137
_cell_length_b 104.8927
_cell_length_c 105.4067
_cell_angle_alpha 89.965800
_cell_angle_beta 89.971700
_cell_angle_gamma 89.946500
loop_
  _atom_site_label
  _atom_site_type_symbol
  _atom_site_fract_x
  _atom_site_fract_y
  _atom_site_fract_z
N1 N 0.35255 0.31708 0.32659
 N2 N 0.35264 0.32618 0.31803
 C3 C 0.36243 0.32422 0.31002
 C4 C 0.36888 0.31329 0.31374
 C5 C 0.36228 0.30904 0.32433
 H6 H 0.36467 0.33031 0.30206
 H7 H 0.36432 0.30070 0.32999
 Cu8 Cu 0.33988 0.33966 0.31805
 Cu9 Cu 0.33979 0.31626 0.33996
 Cu10 Cu 0.31647 0.33962 0.33989
 N11 N 0.32642 0.35243 0.31794
 N12 N 0.31731 0.35235 0.32649
 C13 C 0.30928 0.36208 0.32421
 C14 C 0.31354 0.36868 0.31362
 C15 C 0.32446 0.36223 0.30991
 H16 H 0.30094 0.36413 0.32985
 H17 H 0.33055 0.36446 0.30196
 N18 N 0.31721 0.32595 0.35267
 N19 N 0.32608 0.31704 0.35271
 C20 C 0.32399 0.30911 0.36253
 C21 C 0.31326 0.31318 0.36904
 C22 C 0.30924 0.32391 0.36248
 H23 H 0.32986 0.30095 0.36475
 H24 H 0.30110 0.32982 0.36463
 H25 H 0.32572 0.32548 0.32974
 H26 H 0.33572 0.33552 0.34046
 N27 N 0.35274 0.81736 -0.17370
 N28 N 0.35247 0.82619 -0.18253
 C29 C 0.36227 0.82432 -0.19056
 C30 C 0.36911 0.81368 -0.18659
 C31 C 0.36270 0.80957 -0.17579
 H32 H 0.36420 0.83026 -0.19871
 H33 H 0.36499 0.80149 -0.16986
 Cu34 Cu 0.33923 0.83919 -0.18272
 Cu35 Cu 0.34010 0.81650 -0.16021
 Cu36 Cu 0.31666 0.83980 -0.16010
 N37 N 0.32616 0.85235 -0.18240
 N38 N 0.31738 0.85253 -0.17354
 C39 C 0.30953 0.86247 -0.17555
 C40 C 0.31356 0.86897 -0.18633
 C41 C 0.32420 0.86220 -0.19038
 H42 H 0.30147 0.86469 -0.16958
 H43 H 0.33010 0.86420 -0.19853
 N44 N 0.31756 0.82611 -0.14732
 N45 N 0.32648 0.81724 -0.14736
 C46 C 0.32446 0.80926 -0.13755
 C47 C 0.31374 0.81326 -0.13097
 C48 C 0.30965 0.82399 -0.13749
 H49 H 0.33037 0.80111 -0.13539
 H50 H 0.30147 0.82984 -0.13529
 H51 H 0.32556 0.82535 -0.17006
 H52 H 0.33593 0.83575 -0.16009
 N53 N 0.85243 0.31725 -0.17359
 N54 N 0.85222 0.32600 -0.18251
 C55 C 0.86204 0.32399 -0.19049
 C56 C 0.86878 0.31337 -0.18638
 C57 C 0.86235 0.30938 -0.17559
 H58 H 0.86407 0.32979 -0.19871
 H59 H 0.86463 0.30133 -0.16961
 Cu60 Cu 0.83905 0.33907 -0.18285
 Cu61 Cu 0.83975 0.31656 -0.16012
 Cu62 Cu 0.81645 0.33999 -0.16027
 N63 N 0.82605 0.35232 -0.18267
 N64 N 0.81727 0.35260 -0.17381
 C65 C 0.80946 0.36255 -0.17589
 C66 C 0.81351 0.36896 -0.18671
 C67 C 0.82413 0.36212 -0.19071
 H68 H 0.80141 0.36484 -0.16993
 H69 H 0.83004 0.36404 -0.19888
 N70 N 0.81724 0.32640 -0.14738
 N71 N 0.82610 0.31749 -0.14732
 C72 C 0.82400 0.30958 -0.13748
 C73 C 0.81327 0.31368 -0.13098
 C74 C 0.80927 0.32440 -0.13757
 H75 H 0.82984 0.30140 -0.13526
 H76 H 0.80111 0.33030 -0.13545
 H77 H 0.82529 0.32540 -0.17010
 H78 H 0.83570 0.33584 -0.16020
 N79 N 0.85209 0.81733 0.32672
 N80 N 0.85220 0.82638 0.31811
 C81 C 0.86198 0.82433 0.31010
 C82 C 0.86839 0.81339 0.31388
 C83 C 0.86179 0.80924 0.32450
 H84 H 0.86423 0.83036 0.30209
 H85 H 0.86380 0.80092 0.33020
 Cu86 Cu 0.83948 0.83991 0.31810
 Cu87 Cu 0.83935 0.81659 0.34011
 Cu88 Cu 0.81609 0.84001 0.33998
 N89 N 0.82602 0.85271 0.31796
 N90 N 0.81694 0.85268 0.32653
 C91 C 0.80891 0.86240 0.32424
 C92 C 0.81311 0.86898 0.31358
 C93 C 0.82405 0.86247 0.30989
 H94 H 0.80061 0.86442 0.32995
 H95 H 0.83014 0.86459 0.30191
 N96 N 0.81681 0.82639 0.35281
 N97 N 0.82567 0.81747 0.35287
 C98 C 0.82354 0.80955 0.36271
 C99 C 0.81280 0.81365 0.36919
 C100 C 0.80882 0.82438 0.36260
 H101 H 0.82938 0.80137 0.36494
 H102 H 0.80068 0.83030 0.36472
 H103 H 0.82530 0.82581 0.32987
 H104 H 0.83533 0.83587 0.34054
 N105 N 0.64762 0.68279 0.32644
 N106 N 0.64752 0.67369 0.31789
 C107 C 0.63777 0.67569 0.30984
 C108 C 0.63136 0.68665 0.31352
 C109 C 0.63793 0.69088 0.32413
 H110 H 0.63556 0.66962 0.30187
 H111 H 0.63591 0.69924 0.32976
 Cu112 Cu 0.66022 0.66018 0.31789
 Cu113 Cu 0.66037 0.68355 0.33981
 Cu114 Cu 0.68367 0.66015 0.33967
 N115 N 0.67368 0.64742 0.31774
 N116 N 0.68281 0.64746 0.32625
 C117 C 0.69084 0.63775 0.32387
 C118 C 0.68656 0.63123 0.31326
 C119 C 0.67561 0.63769 0.30964
 H120 H 0.69921 0.63568 0.32946
 H121 H 0.66951 0.63552 0.30169
 N122 N 0.68295 0.67378 0.35249
 N123 N 0.67408 0.68270 0.35255
 C124 C 0.67619 0.69060 0.36239
 C125 C 0.68692 0.68649 0.36889
 C126 C 0.69092 0.67578 0.36229
 H127 H 0.67033 0.69876 0.36463
 H128 H 0.69905 0.66985 0.36442
 H129 H 0.67442 0.67432 0.32955
 H130 H 0.66442 0.66428 0.34029
 N131 N 0.64730 0.18247 -0.17406
 N132 N 0.64759 0.17367 -0.18292
 C133 C 0.63782 0.17558 -0.19096
 C134 C 0.63101 0.18618 -0.18697
 C135 C 0.63735 0.19028 -0.17618
 H136 H 0.63588 0.16972 -0.19915
 H137 H 0.63499 0.19836 -0.17028
 Cu138 Cu 0.66082 0.16068 -0.18313
 Cu139 Cu 0.65994 0.18327 -0.16056
 Cu140 Cu 0.68340 0.15997 -0.16058
 N141 N 0.67391 0.14754 -0.18294
 N142 N 0.68271 0.14732 -0.17409
 C143 C 0.69058 0.13742 -0.17619
 C144 C 0.68655 0.13100 -0.18700
 C145 C 0.67588 0.13777 -0.19098
 H146 H 0.69866 0.13518 -0.17026
 H147 H 0.66998 0.13582 -0.19913
 N148 N 0.68248 0.17359 -0.14773
 N149 N 0.67356 0.18245 -0.14772
 C150 C 0.67558 0.19037 -0.13787
 C151 C 0.68630 0.18634 -0.13133
 C152 C 0.69040 0.17565 -0.13790
 H153 H 0.66967 0.19851 -0.13569
 H154 H 0.69857 0.16979 -0.13573
 H155 H 0.67448 0.17448 -0.17046
 H156 H 0.66413 0.16402 -0.16050
 N157 N 0.14739 0.68300 -0.17354
 N158 N 0.14747 0.67416 -0.18235
 C159 C 0.13767 0.67622 -0.19034
 C160 C 0.13107 0.68696 -0.18634
 C161 C 0.13757 0.69098 -0.17561
 H162 H 0.13556 0.67035 -0.19849
 H163 H 0.13540 0.69913 -0.16973
 Cu164 Cu 0.16047 0.66093 -0.18259
 Cu165 Cu 0.16013 0.68366 -0.16012
 Cu166 Cu 0.18340 0.66019 -0.16036
 N167 N 0.17358 0.64781 -0.18261
 N168 N 0.18251 0.64758 -0.17390
 C169 C 0.19035 0.63769 -0.17614
 C170 C 0.18616 0.63132 -0.18687
 C171 C 0.17545 0.63806 -0.19071
 H172 H 0.19853 0.63539 -0.17036
 H173 H 0.16948 0.63606 -0.19880
 N174 N 0.18267 0.67378 -0.14746
 N175 N 0.17382 0.68270 -0.14737
 C176 C 0.17593 0.69058 -0.13752
 C177 C 0.18666 0.68645 -0.13104
 C178 C 0.19066 0.67575 -0.13766
 H179 H 0.17009 0.69875 -0.13527
 H180 H 0.19880 0.66983 -0.13556
 H181 H 0.17444 0.67468 -0.17023
 H182 H 0.16417 0.66436 -0.16003
 N183 N 0.14731 0.18275 0.32606
 N184 N 0.14751 0.17385 0.31730
 C185 C 0.13776 0.17578 0.30924
 C186 C 0.13105 0.18649 0.31312
 C187 C 0.13744 0.19064 0.32387
 H188 H 0.13575 0.16985 0.30111
 H189 H 0.13516 0.19880 0.32968
 Cu190 Cu 0.16058 0.16071 0.31723
 Cu191 Cu 0.15995 0.18353 0.33958
 Cu192 Cu 0.18334 0.16015 0.33960
 N193 N 0.17374 0.14765 0.31733
 N194 N 0.18261 0.14748 0.32611
 C195 C 0.19053 0.13763 0.32393
 C196 C 0.18644 0.13122 0.31317
 C197 C 0.17573 0.13790 0.30926
 H198 H 0.19869 0.13538 0.32976
 H199 H 0.16983 0.13587 0.30113
 N200 N 0.18246 0.17378 0.35244
 N201 N 0.17357 0.18268 0.35243
 C202 C 0.17560 0.19060 0.36228
 C203 C 0.18630 0.18652 0.36884
 C204 C 0.19036 0.17581 0.36228
 H205 H 0.16972 0.19876 0.36446
 H206 H 0.19851 0.16992 0.36447
 H207 H 0.17439 0.17459 0.32965
 H208 H 0.16410 0.16428 0.33981
 N209 N 0.64728 0.31727 0.67399
 N210 N 0.64761 0.32609 0.68282
 C211 C 0.63786 0.32421 0.69091
 C212 C 0.63102 0.31361 0.68696
 C213 C 0.63734 0.30949 0.67615
 H214 H 0.63594 0.33009 0.69910
 H215 H 0.63495 0.30141 0.67027
 Cu216 Cu 0.66084 0.33906 0.68294
 Cu217 Cu 0.65987 0.31640 0.66043
 Cu218 Cu 0.68333 0.33965 0.66024
 N219 N 0.67392 0.35219 0.68260
 N220 N 0.68267 0.35236 0.67370
 C221 C 0.69055 0.36226 0.67571
 C222 C 0.68656 0.36871 0.68649
 C223 C 0.67594 0.36200 0.69058
 H224 H 0.69860 0.36452 0.66974
 H225 H 0.67014 0.36404 0.69880
 N226 N 0.68236 0.32598 0.64745
 N227 N 0.67344 0.31714 0.64752
 C228 C 0.67542 0.30915 0.63772
 C229 C 0.68613 0.31311 0.63112
 C230 C 0.69025 0.32384 0.63761
 H231 H 0.66950 0.30101 0.63561
 H232 H 0.69843 0.32966 0.63538
 H233 H 0.67446 0.32520 0.67023
 H234 H 0.66406 0.33565 0.66030
 N235 N 0.64779 0.81735 1.17366
 N236 N 0.64809 0.82616 1.18250
 C237 C 0.63833 0.82426 1.19058
 C238 C 0.63152 0.81366 1.18661
 C239 C 0.63786 0.80955 1.17580
 H240 H 0.63640 0.83013 1.19876
 H241 H 0.63549 0.80146 1.16992
 Cu242 Cu 0.66130 0.83915 1.18265
 Cu243 Cu 0.66039 0.81652 1.16010
 Cu244 Cu 0.68380 0.83983 1.16000
 N245 N 0.67437 0.85229 1.18238
 N246 N 0.68313 0.85248 1.17349
 C247 C 0.69102 0.86237 1.17553
 C248 C 0.68703 0.86878 1.18633
 C249 C 0.67640 0.86208 1.19040
 H250 H 0.69908 0.86464 1.16958
 H251 H 0.67060 0.86410 1.19862
 N252 N 0.68288 0.82621 1.14717
 N253 N 0.67399 0.81734 1.14720
 C254 C 0.67603 0.80939 1.13737
 C255 C 0.68674 0.81343 1.13081
 C256 C 0.69080 0.82414 1.13734
 H257 H 0.67016 0.80123 1.13521
 H258 H 0.69896 0.83000 1.13516
 H259 H 0.67493 0.82531 1.16994
 H260 H 0.66453 0.83575 1.16001
 N261 N 0.14733 0.31743 1.17399
 N262 N 0.14762 0.32624 1.18283
 C263 C 0.13786 0.32434 1.19089
 C264 C 0.13105 0.31374 1.18692
 C265 C 0.13740 0.30963 1.17613
 H266 H 0.13591 0.33022 1.19908
 H267 H 0.13504 0.30154 1.17024
 Cu268 Cu 0.16083 0.33924 1.18298
 Cu269 Cu 0.15993 0.31660 1.16044
 Cu270 Cu 0.18332 0.33992 1.16032
 N271 N 0.17388 0.35240 1.18269
 N272 N 0.18264 0.35260 1.17379
 C273 C 0.19050 0.36251 1.17582
 C274 C 0.18649 0.36893 1.18660
 C275 C 0.17587 0.36220 1.19069
 H276 H 0.19855 0.36479 1.16987
 H277 H 0.17006 0.36423 1.19890
 N278 N 0.18241 0.32628 1.14751
 N279 N 0.17352 0.31741 1.14755
 C280 C 0.17554 0.30946 1.13772
 C281 C 0.18624 0.31349 1.13114
 C282 C 0.19031 0.32421 1.13766
 H283 H 0.16966 0.30130 1.13557
 H284 H 0.19847 0.33007 1.13546
 H285 H 0.17447 0.32542 1.17027
 H286 H 0.16406 0.33585 1.16034
 N287 N 0.14771 0.81719 0.67338
 N288 N 0.14792 0.82592 0.68231
 C289 C 0.13812 0.82389 0.69031
 C290 C 0.13138 0.81330 0.68619
 C291 C 0.13780 0.80933 0.67539
 H292 H 0.13610 0.82968 0.69854
 H293 H 0.13550 0.80130 0.66940
 Cu294 Cu 0.16107 0.83898 0.68263
 Cu295 Cu 0.16035 0.81655 0.65989
 Cu296 Cu 0.18365 0.83995 0.66001
 N297 N 0.17406 0.85220 0.68245
 N298 N 0.18285 0.85252 0.67359
 C299 C 0.19063 0.86247 0.67572
 C300 C 0.18654 0.86880 0.68653
 C301 C 0.17596 0.86196 0.69052
 H302 H 0.19869 0.86486 0.66981
 H303 H 0.17010 0.86389 0.69872
 N304 N 0.18284 0.82638 0.64710
 N305 N 0.17397 0.81749 0.64705
 C306 C 0.17604 0.80960 0.63720
 C307 C 0.18675 0.81367 0.63068
 C308 C 0.19079 0.82437 0.63726
 H309 H 0.17018 0.80144 0.63501
 H310 H 0.19895 0.83024 0.63512
 H311 H 0.17485 0.82536 0.66983
 H312 H 0.16442 0.83583 0.65996
 N313 N 0.35264 0.68288 0.67361
 N314 N 0.35277 0.67378 0.68217
 C315 C 0.36256 0.67578 0.69018
 C316 C 0.36894 0.68673 0.68645
 C317 C 0.36233 0.69095 0.67586
 H318 H 0.36482 0.66970 0.69814
 H319 H 0.36432 0.69930 0.67020
 Cu320 Cu 0.34008 0.66027 0.68216
 Cu321 Cu 0.33990 0.68365 0.66024
 Cu322 Cu 0.31664 0.66026 0.66033
 N323 N 0.32663 0.64752 0.68230
 N324 N 0.31751 0.64756 0.67377
 C325 C 0.30949 0.63785 0.67613
 C326 C 0.31377 0.63131 0.68675
 C327 C 0.32470 0.63777 0.69039
 H328 H 0.30113 0.63579 0.67053
 H329 H 0.33079 0.63559 0.69835
 N330 N 0.31737 0.67392 0.64751
 N331 N 0.32623 0.68283 0.64749
 C332 C 0.32417 0.69075 0.63765
 C333 C 0.31348 0.68667 0.63110
 C334 C 0.30945 0.67595 0.63767
 H335 H 0.33005 0.69889 0.63544
 H336 H 0.30133 0.67004 0.63548
 H337 H 0.32584 0.67439 0.67047
 H338 H 0.33587 0.66436 0.65975
 N339 N 0.35290 0.18303 1.17366
 N340 N 0.35268 0.17425 1.18254
 C341 C 0.36248 0.17621 1.19054
 C342 C 0.36924 0.18681 1.18648
 C343 C 0.36283 0.19087 1.17570
 H344 H 0.36448 0.17036 1.19873
 H345 H 0.36515 0.19893 1.16975
 Cu346 Cu 0.33952 0.16121 1.18285
 Cu347 Cu 0.34024 0.18374 1.16018
 Cu348 Cu 0.31693 0.16033 1.16031
 N349 N 0.32651 0.14802 1.18272
 N350 N 0.31772 0.14773 1.17388
 C351 C 0.30991 0.13779 1.17603
 C352 C 0.31400 0.13146 1.18684
 C353 C 0.32460 0.13826 1.19081
 H354 H 0.30184 0.13543 1.17014
 H355 H 0.33046 0.13632 1.19900
 N356 N 0.31775 0.17391 1.14741
 N357 N 0.32660 0.18282 1.14736
 C358 C 0.32451 0.19073 1.13751
 C359 C 0.31380 0.18663 1.13099
 C360 C 0.30980 0.17592 1.13759
 H361 H 0.33035 0.19891 1.13530
 H362 H 0.30166 0.17002 1.13545
 H363 H 0.32576 0.17490 1.17012
 H364 H 0.33617 0.16447 1.16020
 N365 N 0.85266 0.68307 1.17327
 N366 N 0.85289 0.67403 1.18188
 C367 C 0.86268 0.67614 1.18984
 C368 C 0.86898 0.68712 1.18603
 C369 C 0.86230 0.69123 1.17544
 H370 H 0.86501 0.67013 1.19784
 H371 H 0.86421 0.69957 1.16973
 Cu372 Cu 0.84028 0.66044 1.18202
 Cu373 Cu 0.83983 0.68370 1.15997
 Cu374 Cu 0.81671 0.66019 1.16035
 N375 N 0.82691 0.64760 1.18231
 N376 N 0.81774 0.64756 1.17383
 C377 C 0.80979 0.63781 1.17628
 C378 C 0.81416 0.63134 1.18690
 C379 C 0.82507 0.63788 1.19045
 H380 H 0.80141 0.63568 1.17074
 H381 H 0.83123 0.63576 1.19838
 N382 N 0.81726 0.67378 1.14746
 N383 N 0.82607 0.68273 1.14731
 C384 C 0.82386 0.69060 1.13746
 C385 C 0.81312 0.68644 1.13104
 C386 C 0.80922 0.67572 1.13769
 H387 H 0.82966 0.69878 1.13517
 H388 H 0.80111 0.66976 1.13562
 H389 H 0.82590 0.67443 1.17035
 H390 H 0.83591 0.66440 1.15962
 N391 N 0.85277 0.18300 0.67366
 N392 N 0.85256 0.17426 0.68258
 C393 C 0.86234 0.17630 0.69059
 C394 C 0.86906 0.18691 0.68648
 C395 C 0.86266 0.19088 0.67567
 H396 H 0.86436 0.17051 0.69883
 H397 H 0.86494 0.19893 0.66969
 Cu398 Cu 0.83942 0.16120 0.68290
 Cu399 Cu 0.84013 0.18367 0.66018
 Cu400 Cu 0.81684 0.16026 0.66031
 N401 N 0.82644 0.14797 0.68274
 N402 N 0.81765 0.14766 0.67388
 C403 C 0.80985 0.13772 0.67604
 C404 C 0.81393 0.13140 0.68687
 C405 C 0.82452 0.13822 0.69084
 H406 H 0.80179 0.13534 0.67014
 H407 H 0.83037 0.13630 0.69905
 N408 N 0.81765 0.17385 0.64740
 N409 N 0.82652 0.18274 0.64736
 C410 C 0.82445 0.19068 0.63754
 C411 C 0.81373 0.18663 0.63102
 C412 C 0.80970 0.17590 0.63758
 H413 H 0.83030 0.19885 0.63536
 H414 H 0.80154 0.17004 0.63544
 H415 H 0.82562 0.17482 0.67013
 H416 H 0.83606 0.16437 0.66024
 N417 N 0.31697 0.35228 0.67319
 N418 N 0.32605 0.35240 0.68174
 C419 C 0.32402 0.36218 0.68977
 C420 C 0.31306 0.36857 0.68606
 C421 C 0.30887 0.36196 0.67546
 H422 H 0.33008 0.36443 0.69774
 H423 H 0.30052 0.36395 0.66982
 Cu424 Cu 0.33959 0.33970 0.68169
 Cu425 Cu 0.31620 0.33955 0.65980
 Cu426 Cu 0.33954 0.31623 0.65985
 N427 N 0.35230 0.32616 0.68180
 N428 N 0.35221 0.31704 0.67327
 C429 C 0.36189 0.30896 0.67559
 C430 C 0.36845 0.31318 0.68619
 C431 C 0.36205 0.32415 0.68987
 H432 H 0.36391 0.30059 0.66997
 H433 H 0.36427 0.33023 0.69783
 N434 N 0.32591 0.31700 0.64705
 N435 N 0.31702 0.32588 0.64703
 C436 C 0.30909 0.32382 0.63722
 C437 C 0.31315 0.31309 0.63069
 C438 C 0.32386 0.30904 0.63723
 H439 H 0.30094 0.32971 0.63503
 H440 H 0.32976 0.30089 0.63506
 H441 H 0.32545 0.32548 0.67005
 H442 H 0.33546 0.33549 0.65929
 N443 N 0.31736 0.85232 0.17318
 N444 N 0.32645 0.85246 0.18172
 C445 C 0.32440 0.86224 0.18975
 C446 C 0.31342 0.86860 0.18604
 C447 C 0.30924 0.86198 0.17545
 H448 H 0.33046 0.86452 0.19770
 H449 H 0.30088 0.86395 0.16982
 Cu450 Cu 0.34001 0.83978 0.18166
 Cu451 Cu 0.31661 0.83961 0.15979
 Cu452 Cu 0.33993 0.81629 0.15983
 N453 N 0.35270 0.82623 0.18178
 N454 N 0.35260 0.81710 0.17326
 C455 C 0.36227 0.80901 0.17558
 C456 C 0.36885 0.81325 0.18617
 C457 C 0.36246 0.82423 0.18984
 H458 H 0.36427 0.80062 0.16998
 H459 H 0.36470 0.83033 0.19777
 N460 N 0.32632 0.81707 0.14702
 N461 N 0.31744 0.82596 0.14701
 C462 C 0.30952 0.82392 0.13717
 C463 C 0.31358 0.81320 0.13063
 C464 C 0.32428 0.80913 0.13719
 H465 H 0.30139 0.82982 0.13498
 H466 H 0.33017 0.80098 0.13501
 H467 H 0.32587 0.82555 0.17005
 H468 H 0.33587 0.83556 0.15927
 N469 N 0.81700 0.35228 0.17289
 N470 N 0.82576 0.35205 0.18178
 C471 C 0.82375 0.36184 0.18980
 C472 C 0.81313 0.36860 0.18573
 C473 C 0.80914 0.36220 0.17494
 H474 H 0.82955 0.36384 0.19801
 H475 H 0.80109 0.36450 0.16899
 Cu476 Cu 0.83880 0.33884 0.18205
 Cu477 Cu 0.81630 0.33963 0.15940
 Cu478 Cu 0.83967 0.31626 0.15944
 N479 N 0.85201 0.32580 0.18183
 N480 N 0.85227 0.31702 0.17296
 C481 C 0.86219 0.30917 0.17505
 C482 C 0.86855 0.31321 0.18585
 C483 C 0.86178 0.32383 0.18988
 H484 H 0.86452 0.30110 0.16913
 H485 H 0.86374 0.32967 0.19808
 N486 N 0.82608 0.31712 0.14657
 N487 N 0.81720 0.32602 0.14656
 C488 C 0.80928 0.32397 0.13673
 C489 C 0.81334 0.31324 0.13019
 C490 C 0.82405 0.30918 0.13674
 H491 H 0.80112 0.32984 0.13455
 H492 H 0.82992 0.30101 0.13458
 H493 H 0.82513 0.32510 0.16931
 H494 H 0.83555 0.33553 0.15939
 N495 N 0.81704 0.85265 0.67296
 N496 N 0.82608 0.85288 0.68156
 C497 C 0.82395 0.86269 0.68953
 C498 C 0.81298 0.86899 0.68572
 C499 C 0.80888 0.86230 0.67514
 H500 H 0.82995 0.86501 0.69752
 H501 H 0.80054 0.86422 0.66944
 Cu502 Cu 0.83967 0.84025 0.68170
 Cu503 Cu 0.81642 0.83980 0.65968
 Cu504 Cu 0.83991 0.81662 0.66006
 N505 N 0.85248 0.82683 0.68199
 N506 N 0.85252 0.81764 0.67354
 C507 C 0.86225 0.80966 0.67599
 C508 C 0.86870 0.81403 0.68661
 C509 C 0.86218 0.82498 0.69014
 H510 H 0.86437 0.80125 0.67046
 H511 H 0.86429 0.83114 0.69807
 N512 N 0.82634 0.81719 0.64718
 N513 N 0.81739 0.82601 0.64704
 C514 C 0.80952 0.82380 0.63721
 C515 C 0.81367 0.81302 0.63081
 C516 C 0.82439 0.80912 0.63744
 H517 H 0.80134 0.82960 0.63493
 H518 H 0.83034 0.80098 0.63538
 H519 H 0.82569 0.82585 0.67008
 H520 H 0.83570 0.83585 0.65931
 N521 N 0.68263 0.64754 0.67379
 N522 N 0.67388 0.64775 0.68271
 C523 C 0.67587 0.63791 0.69069
 C524 C 0.68647 0.63115 0.68658
 C525 C 0.69047 0.63759 0.67580
 H526 H 0.67006 0.63589 0.69890
 H527 H 0.69851 0.63529 0.66982
 Cu528 Cu 0.66083 0.66093 0.68305
 Cu529 Cu 0.68331 0.66024 0.66032
 Cu530 Cu 0.65989 0.68354 0.66045
 N531 N 0.64758 0.67393 0.68284
 N532 N 0.64728 0.68272 0.67397
 C533 C 0.63732 0.69051 0.67605
 C534 C 0.63097 0.68643 0.68685
 C535 C 0.63779 0.67584 0.69088
 H536 H 0.63496 0.69857 0.67012
 H537 H 0.63583 0.66998 0.69908
 N538 N 0.67347 0.68277 0.64757
 N539 N 0.68238 0.67391 0.64752
 C540 C 0.69029 0.67604 0.63768
 C541 C 0.68618 0.68679 0.63119
 C542 C 0.67547 0.69077 0.63777
 H543 H 0.69847 0.67021 0.63546
 H544 H 0.66956 0.69893 0.63565
 H545 H 0.67446 0.67471 0.67028
 H546 H 0.66405 0.66427 0.66039
 N547 N 0.68266 0.14728 0.17352
 N548 N 0.67352 0.14724 0.18202
 C549 C 0.67545 0.13750 0.19012
 C550 C 0.68641 0.13105 0.18652
 C551 C 0.69070 0.13758 0.17591
 H552 H 0.66933 0.13532 0.19807
 H553 H 0.69909 0.13553 0.17033
 Cu554 Cu 0.66004 0.15998 0.18186
 Cu555 Cu 0.68354 0.15999 0.16008
 Cu556 Cu 0.66024 0.18338 0.15995
 N557 N 0.64735 0.17350 0.18186
 N558 N 0.64747 0.18261 0.17331
 C559 C 0.63778 0.19069 0.17559
 C560 C 0.63118 0.18645 0.18619
 C561 C 0.63757 0.17549 0.18988
 H562 H 0.63577 0.19907 0.16997
 H563 H 0.63533 0.16940 0.19784
 N564 N 0.67396 0.18255 0.14721
 N565 N 0.68282 0.17364 0.14726
 C566 C 0.69078 0.17564 0.13745
 C567 C 0.68677 0.18636 0.13085
 C568 C 0.67605 0.19046 0.13736
 H569 H 0.69891 0.16971 0.13529
 H570 H 0.67018 0.19861 0.13513
 H571 H 0.67428 0.17413 0.17021
 H572 H 0.66430 0.16411 0.15946
 N573 N 0.18244 0.64748 0.17339
 N574 N 0.17361 0.64761 0.18221
 C575 C 0.17559 0.63778 0.19020
 C576 C 0.18627 0.63110 0.18619
 C577 C 0.19034 0.63759 0.17546
 H578 H 0.16973 0.63572 0.19837
 H579 H 0.19847 0.63537 0.16958
 Cu580 Cu 0.16054 0.66076 0.18245
 Cu581 Cu 0.18320 0.66024 0.15998
 Cu582 Cu 0.15980 0.68360 0.16010
 N583 N 0.14736 0.67381 0.18236
 N584 N 0.14713 0.68271 0.17360
 C585 C 0.13723 0.69057 0.17579
 C586 C 0.13085 0.68639 0.18655
 C587 C 0.13759 0.67570 0.19044
 H588 H 0.13494 0.69874 0.16999
 H589 H 0.13562 0.66977 0.19858
 N590 N 0.17345 0.68285 0.14725
 N591 N 0.18235 0.67396 0.14722
 C592 C 0.19028 0.67605 0.13740
 C593 C 0.18623 0.68680 0.13089
 C594 C 0.17550 0.69083 0.13745
 H595 H 0.19842 0.67017 0.13519
 H596 H 0.16962 0.69899 0.13528
 H597 H 0.17428 0.67466 0.16995
 H598 H 0.16395 0.66434 0.15986
 N599 N 0.18266 0.14703 0.67337
 N600 N 0.17359 0.14688 0.68195
 C601 C 0.17562 0.13707 0.68994
 C602 C 0.18657 0.13068 0.68618
 C603 C 0.19075 0.13733 0.67559
 H604 H 0.16959 0.13480 0.69793
 H605 H 0.19908 0.13534 0.66992
 Cu606 Cu 0.16009 0.15959 0.68203
 Cu607 Cu 0.18338 0.15986 0.66005
 Cu608 Cu 0.15998 0.18316 0.66030
 N609 N 0.14732 0.17304 0.68225
 N610 N 0.14732 0.18221 0.67376
 C611 C 0.13762 0.19023 0.67619
 C612 C 0.13114 0.18590 0.68682
 C613 C 0.13762 0.17494 0.69039
 H614 H 0.13552 0.19862 0.67062
 H615 H 0.13550 0.16881 0.69835
 N616 N 0.17360 0.18249 0.64744
 N617 N 0.18250 0.17362 0.64736
 C618 C 0.19039 0.17575 0.63752
 C619 C 0.18630 0.18650 0.63104
 C620 C 0.17559 0.19049 0.63765
 H621 H 0.19854 0.16988 0.63528
 H622 H 0.16967 0.19864 0.63551
 H623 H 0.17414 0.17390 0.67036
 H624 H 0.16411 0.16391 0.65963
 N625 N 0.31773 0.64752 0.32620
 N626 N 0.32686 0.64749 0.31768
 C627 C 0.32496 0.63772 0.30962
 C628 C 0.31404 0.63123 0.31328
 C629 C 0.30974 0.63778 0.32387
 H630 H 0.33107 0.63553 0.30166
 H631 H 0.30140 0.63570 0.32950
 Cu632 Cu 0.34029 0.66027 0.31785
 Cu633 Cu 0.31679 0.66018 0.33965
 Cu634 Cu 0.33999 0.68359 0.33982
 N635 N 0.35293 0.67384 0.31787
 N636 N 0.35275 0.68289 0.32647
 C637 C 0.36241 0.69101 0.32426
 C638 C 0.36907 0.68687 0.31367
 C639 C 0.36272 0.67591 0.30988
 H640 H 0.36437 0.69933 0.32997
 H641 H 0.36502 0.66989 0.30189
 N642 N 0.32630 0.68270 0.35255
 N643 N 0.31745 0.67379 0.35249
 C644 C 0.30946 0.67580 0.36229
 C645 C 0.31344 0.68651 0.36888
 C646 C 0.32417 0.69061 0.36239
 H647 H 0.30133 0.66988 0.36442
 H648 H 0.33003 0.69876 0.36462
 H649 H 0.32600 0.67434 0.32953
 H650 H 0.33602 0.66430 0.34026
 N651 N 0.31713 0.14751 0.82667
 N652 N 0.32589 0.14780 0.81778
 C653 C 0.32399 0.13800 0.80976
 C654 C 0.31343 0.13117 0.81381
 C655 C 0.30936 0.13753 0.82461
 H656 H 0.32984 0.13604 0.80156
 H657 H 0.30133 0.13515 0.83056
 Cu658 Cu 0.33887 0.16104 0.81751
 Cu659 Cu 0.31636 0.16013 0.84020
 Cu660 Cu 0.33967 0.18352 0.84021
 N661 N 0.35203 0.17409 0.81777
 N662 N 0.35228 0.18283 0.82668
 C663 C 0.36219 0.19068 0.82462
 C664 C 0.36856 0.18667 0.81380
 C665 C 0.36180 0.17608 0.80974
 H666 H 0.36452 0.19872 0.83058
 H667 H 0.36378 0.17027 0.80151
 N668 N 0.32609 0.18261 0.85308
 N669 N 0.31722 0.17372 0.85307
 C670 C 0.30930 0.17575 0.86292
 C671 C 0.31334 0.18646 0.86948
 C672 C 0.32404 0.19053 0.86292
 H673 H 0.30114 0.16987 0.86509
 H674 H 0.32990 0.19869 0.86510
 H675 H 0.32515 0.17470 0.83033
 H676 H 0.33560 0.16424 0.84018
 N677 N 0.81739 0.64746 0.82642
 N678 N 0.82624 0.64752 0.81761
 C679 C 0.82422 0.63770 0.80964
 C680 C 0.81351 0.63109 0.81365
 C681 C 0.80946 0.63761 0.82437
 H682 H 0.83010 0.63558 0.80150
 H683 H 0.80132 0.63543 0.83026
 Cu684 Cu 0.83943 0.66053 0.81738
 Cu685 Cu 0.81670 0.66021 0.83983
 Cu686 Cu 0.84013 0.68349 0.83959
 N687 N 0.85253 0.67364 0.81733
 N688 N 0.85274 0.68258 0.82606
 C689 C 0.86260 0.69044 0.82381
 C690 C 0.86898 0.68625 0.81307
 C691 C 0.86227 0.67553 0.80923
 H692 H 0.86488 0.69863 0.82959
 H693 H 0.86427 0.66956 0.80113
 N694 N 0.82655 0.68278 0.85248
 N695 N 0.81763 0.67394 0.85257
 C696 C 0.80974 0.67610 0.86242
 C697 C 0.81385 0.68685 0.86887
 C698 C 0.82456 0.69080 0.86226
 H699 H 0.80157 0.67027 0.86467
 H700 H 0.83046 0.69896 0.86434
 H701 H 0.82566 0.67453 0.82975
 H702 H 0.83594 0.66425 0.83994
 N703 N 0.81752 0.14739 0.32642
 N704 N 0.82669 0.14744 0.31795
 C705 C 0.82485 0.13773 0.30980
 C706 C 0.81393 0.13120 0.31335
 C707 C 0.80956 0.13766 0.32398
 H708 H 0.83101 0.13561 0.30187
 H709 H 0.80117 0.13553 0.32952
 Cu710 Cu 0.84007 0.16027 0.31822
 Cu711 Cu 0.81648 0.16001 0.33990
 Cu712 Cu 0.83959 0.18353 0.34025
 N713 N 0.85266 0.17387 0.31834
 N714 N 0.85242 0.18292 0.32695
 C715 C 0.86205 0.19108 0.32477
 C716 C 0.86874 0.18698 0.31418
 C717 C 0.86245 0.17600 0.31037
 H718 H 0.86394 0.19943 0.33046
 H719 H 0.86479 0.17000 0.30238
 N720 N 0.82583 0.18255 0.35292
 N721 N 0.81703 0.17359 0.35279
 C722 C 0.80898 0.17553 0.36255
 C723 C 0.81288 0.18625 0.36919
 C724 C 0.82362 0.19041 0.36276
 H725 H 0.80087 0.16957 0.36463
 H726 H 0.82941 0.19860 0.36504
 H727 H 0.82567 0.17426 0.32988
 H728 H 0.83568 0.16423 0.34062
 N729 N 0.68284 0.35262 0.32656
 N730 N 0.67375 0.35270 0.31801
 C731 C 0.67574 0.36246 0.30994
 C732 C 0.68668 0.36888 0.31362
 C733 C 0.69090 0.36231 0.32424
 H734 H 0.66969 0.36466 0.30195
 H735 H 0.69924 0.36434 0.32988
 Cu736 Cu 0.66028 0.33996 0.31813
 Cu737 Cu 0.68369 0.33990 0.33996
 Cu738 Cu 0.66041 0.31655 0.34004
 N739 N 0.64756 0.32648 0.31812
 N740 N 0.64766 0.31738 0.32667
 C741 C 0.63794 0.30934 0.32441
 C742 C 0.63135 0.31359 0.31382
 C743 C 0.63778 0.32452 0.31010
 H744 H 0.63590 0.30100 0.33007
 H745 H 0.63555 0.33060 0.30213
 N746 N 0.67411 0.31733 0.35278
 N747 N 0.68296 0.32624 0.35274
 C748 C 0.69095 0.32419 0.36252
 C749 C 0.68697 0.31345 0.36908
 C750 C 0.67624 0.30938 0.36259
 H751 H 0.69908 0.33010 0.36466
 H752 H 0.67040 0.30121 0.36480
 H753 H 0.67445 0.32576 0.32981
 H754 H 0.66443 0.33580 0.34054
 N755 N 0.68268 0.85253 0.82672
 N756 N 0.67365 0.85272 0.81810
 C757 C 0.67573 0.86253 0.81012
 C758 C 0.68667 0.86888 0.81393
 C759 C 0.69079 0.86221 0.82453
 H760 H 0.66974 0.86482 0.80212
 H761 H 0.69909 0.86417 0.83024
 Cu762 Cu 0.66010 0.84005 0.81805
 Cu763 Cu 0.68336 0.83971 0.84005
 Cu764 Cu 0.65989 0.81655 0.83984
 N765 N 0.64725 0.82668 0.81787
 N766 N 0.64723 0.81756 0.82641
 C767 C 0.63747 0.80961 0.82409
 C768 C 0.63095 0.81393 0.81349
 C769 C 0.63748 0.82482 0.80981
 H770 H 0.63535 0.80127 0.82973
 H771 H 0.63533 0.83093 0.80184
 N772 N 0.67350 0.81714 0.85266
 N773 N 0.68244 0.82596 0.85275
 C774 C 0.69034 0.82375 0.86256
 C775 C 0.68621 0.81300 0.86901
 C776 C 0.67548 0.80909 0.86242
 H777 H 0.69852 0.82956 0.86481
 H778 H 0.66955 0.80096 0.86452
 H779 H 0.67410 0.82572 0.82977
 H780 H 0.66408 0.83578 0.84047
 N781 N 0.18288 0.35246 0.82678
 N782 N 0.17418 0.35231 0.81784
 C783 C 0.17627 0.36213 0.80986
 C784 C 0.18688 0.36881 0.81401
 C785 C 0.19079 0.36234 0.82481
 H786 H 0.17052 0.36419 0.80162
 H787 H 0.19882 0.36458 0.83081
 Cu788 Cu 0.16110 0.33920 0.81744
 Cu789 Cu 0.18345 0.33973 0.84022
 Cu790 Cu 0.15999 0.31650 0.83995
 N791 N 0.14784 0.32626 0.81753
 N792 N 0.14746 0.31743 0.82635
 C793 C 0.13751 0.30967 0.82416
 C794 C 0.13125 0.31384 0.81333
 C795 C 0.13811 0.32442 0.80941
 H796 H 0.13509 0.30158 0.83002
 H797 H 0.13623 0.33033 0.80123
 N798 N 0.17351 0.31720 0.85290
 N799 N 0.18243 0.32605 0.85300
 C800 C 0.19028 0.32393 0.86286
 C801 C 0.18615 0.31320 0.86935
 C802 C 0.17547 0.30921 0.86272
 H803 H 0.19843 0.32976 0.86510
 H804 H 0.16956 0.30106 0.86483
 H805 H 0.17460 0.32529 0.83020
 H806 H 0.16416 0.33573 0.84009
 N807 N 0.18290 0.85246 0.32647
 N808 N 0.17417 0.85228 0.31756
 C809 C 0.17622 0.86208 0.30955
 C810 C 0.18684 0.86878 0.31364
 C811 C 0.19079 0.86235 0.32444
 H812 H 0.17043 0.86411 0.30132
 H813 H 0.19884 0.86462 0.33041
 Cu814 Cu 0.16109 0.83915 0.31726
 Cu815 Cu 0.18353 0.83978 0.33996
 Cu816 Cu 0.16011 0.81649 0.33979
 N817 N 0.14787 0.82616 0.31737
 N818 N 0.14755 0.81733 0.32621
 C819 C 0.13761 0.80955 0.32406
 C820 C 0.13129 0.81368 0.31326
 C821 C 0.13812 0.82428 0.30930
 H822 H 0.13522 0.80146 0.32995
 H823 H 0.13619 0.83018 0.30112
 N824 N 0.17365 0.81727 0.35272
 N825 N 0.18255 0.82614 0.35279
 C826 C 0.19041 0.82404 0.36266
 C827 C 0.18630 0.81332 0.36917
 C828 C 0.17562 0.80931 0.36256
 H829 H 0.19856 0.82989 0.36489
 H830 H 0.16973 0.80115 0.36468
 H831 H 0.17470 0.82531 0.33000
 H832 H 0.16427 0.83573 0.33991
 C833 C 0.25510 1.01163 0.24510
 C834 C 0.24548 1.01166 0.25450
 C835 C 0.24075 1.00001 0.25904
 C836 C 0.24537 0.98834 0.25445
 C837 C 0.25499 0.98830 0.24505
 C838 C 0.25971 0.99995 0.24050
 H839 H 0.26709 0.99993 0.23330
 H840 H 0.23338 1.00004 0.26625
 C841 C 0.25486 0.51164 0.74525
 C842 C 0.24524 0.51165 0.75466
 C843 C 0.24059 0.49999 0.75924
 C844 C 0.24526 0.48832 0.75468
 C845 C 0.25485 0.48831 0.74525
 C846 C 0.25952 0.49997 0.74068
 H847 H 0.26688 0.49997 0.73345
 H848 H 0.23323 0.49999 0.76647
 C849 C 0.75517 -0.01172 0.25477
 C850 C 0.74549 -0.01171 0.24545
 C851 C 0.74079 -0.00004 0.24091
 C852 C 0.74550 0.01162 0.24542
 C853 C 0.75520 0.01161 0.25474
 C854 C 0.75989 -0.00006 0.25928
 H855 H 0.76731 -0.00007 0.26643
 H856 H 0.73337 -0.00003 0.23376
 C857 C 0.75450 0.48816 0.75525
 C858 C 0.74583 0.48816 0.74498
 C859 C 0.74167 0.49982 0.73993
 C860 C 0.74578 0.51149 0.74499
 C861 C 0.75444 0.51148 0.75528
 C862 C 0.75859 0.49982 0.76032
 H863 H 0.76543 0.49982 0.76802
 H864 H 0.73483 0.49982 0.73223
 C865 C 0.25458 0.48842 0.25508
 C866 C 0.24584 0.48843 0.24487
 C867 C 0.24169 0.50009 0.23983
 C868 C 0.24589 0.51175 0.24482
 C869 C 0.25465 0.51174 0.25502
 C870 C 0.25878 0.50008 0.26008
 H871 H 0.26569 0.50006 0.26773
 H872 H 0.23478 0.50010 0.23218
 C873 C 0.75480 1.01180 0.74538
 C874 C 0.74525 1.01180 0.75486
 C875 C 0.74059 1.00013 0.75944
 C876 C 0.74519 0.98847 0.75480
 C877 C 0.75472 0.98847 0.74531
 C878 C 0.75939 1.00013 0.74074
 H879 H 0.76670 1.00013 0.73347
 H880 H 0.73328 1.00013 0.76671
 C881 C 0.75512 0.51165 0.24519
 C882 C 0.74541 0.51163 0.25451
 C883 C 0.74066 0.49996 0.25896
 C884 C 0.74533 0.48830 0.25437
 C885 C 0.75502 0.48832 0.24504
 C886 C 0.75978 0.49999 0.24059
 H887 H 0.76722 0.50001 0.23345
 H888 H 0.73323 0.49994 0.26611
 C889 C 0.25546 -0.01191 0.75464
 C890 C 0.24502 -0.01190 0.74616
 C891 C 0.23993 -0.00023 0.74206
 C892 C 0.24510 0.01142 0.74605
 C893 C 0.25553 0.01141 0.75455
 C894 C 0.26062 -0.00025 0.75864
 H895 H 0.26844 -0.00026 0.76536
 H896 H 0.23211 -0.00023 0.73534
 C897 C 0.24544 0.25514 1.01189
 C898 C 0.25411 0.24481 1.01190
 C899 C 0.25824 0.23971 1.00030
 C900 C 0.25409 0.24478 0.98869
 C901 C 0.24540 0.25510 0.98868
 C902 C 0.24128 0.26021 1.00028
 H903 H 0.23443 0.26795 1.00028
 H904 H 0.26509 0.23197 1.00030
 C905 C 0.24503 0.75419 0.51154
 C906 C 0.25538 0.74554 0.51153
 C907 C 0.26042 0.74139 0.49992
 C908 C 0.25528 0.74547 0.48832
 C909 C 0.24493 0.75412 0.48833
 C910 C 0.23989 0.75828 0.49994
 H911 H 0.23213 0.76511 0.49996
 H912 H 0.26818 0.73456 0.49991
 C913 C 0.25447 0.75489 -0.01176
 C914 C 0.24579 0.74457 -0.01175
 C915 C 0.24160 0.73954 -0.00014
 C916 C 0.24568 0.74466 0.01147
 C917 C 0.25437 0.75497 0.01146
 C918 C 0.25856 0.76000 -0.00015
 H919 H 0.26541 0.76773 -0.00016
 H920 H 0.23475 0.73181 -0.00013
 C921 C 0.25386 0.25495 0.48827
 C922 C 0.24520 0.24462 0.48828
 C923 C 0.24107 0.23955 0.49990
 C924 C 0.24520 0.24463 0.51150
 C925 C 0.25388 0.25495 0.51148
 C926 C 0.25800 0.26002 0.49987
 H927 H 0.26484 0.26776 0.49986
 H928 H 0.23423 0.23181 0.49991
 C929 C 0.74523 0.75456 1.01148
 C930 C 0.75480 0.74505 1.01149
 C931 C 0.75949 0.74046 0.99988
 C932 C 0.75487 0.74509 0.98827
 C933 C 0.74528 0.75458 0.98826
 C934 C 0.74061 0.75918 0.99986
 H935 H 0.73327 0.76646 0.99985
 H936 H 0.76682 0.73318 0.99989
 C937 C 0.74507 0.25466 0.51182
 C938 C 0.75455 0.24506 0.51183
 C939 C 0.75915 0.24039 0.50023
 C940 C 0.75455 0.24503 0.48862
 C941 C 0.74509 0.25464 0.48860
 C942 C 0.74048 0.25932 0.50020
 H943 H 0.73322 0.26667 0.50019
 H944 H 0.76641 0.23303 0.50024
 C945 C 0.75383 0.25501 -0.01203
 C946 C 0.74528 0.24460 -0.01203
 C947 C 0.74124 0.23943 -0.00042
 C948 C 0.74537 0.24450 0.01118
 C949 C 0.75394 0.25491 0.01118
 C950 C 0.75797 0.26008 -0.00043
 H951 H 0.76473 0.26789 -0.00043
 H952 H 0.73448 0.23163 -0.00042
 C953 C 0.75453 0.75457 0.48849
 C954 C 0.74500 0.74504 0.48850
 C955 C 0.74037 0.74042 0.50012
 C956 C 0.74502 0.74503 0.51172
 C957 C 0.75458 0.75453 0.51171
 C958 C 0.75918 0.75917 0.50010
 H959 H 0.76650 0.76646 0.50009
 H960 H 0.73306 0.73312 0.50013
 C961 C 1.01136 0.24532 0.25470
 C962 C 1.01137 0.25497 0.24532
 C963 C 0.99972 0.25969 0.24078
 C964 C 0.98807 0.25505 0.24536
 C965 C 0.98806 0.24541 0.25476
 C966 C 0.99970 0.24068 0.25929
 H967 H 0.99969 0.23329 0.26649
 H968 H 0.99973 0.26708 0.23358
 C969 C 0.51136 0.24509 0.75462
 C970 C 0.51133 0.25480 0.74529
 C971 C 0.49966 0.25949 0.74077
 C972 C 0.48803 0.25476 0.74531
 C973 C 0.48806 0.24504 0.75463
 C974 C 0.49972 0.24035 0.75914
 H975 H 0.49974 0.23291 0.76629
 H976 H 0.49964 0.26694 0.73363
 C977 C -0.01149 0.25495 0.75479
 C978 C -0.01146 0.24525 0.74547
 C979 C 0.00020 0.24051 0.74099
 C980 C 0.01184 0.24521 0.74553
 C981 C 0.01181 0.25494 0.75483
 C982 C 0.00015 0.25966 0.75933
 H983 H 0.00013 0.26711 0.76646
 H984 H 0.00021 0.23307 0.73385
 C985 C 0.48862 0.25523 0.25454
 C986 C 0.48866 0.24481 0.24602
 C987 C 0.50033 0.23969 0.24199
 C988 C 0.51196 0.24484 0.24606
 C989 C 0.51192 0.25526 0.25457
 C990 C 0.50025 0.26037 0.25861
 H991 H 0.50022 0.26819 0.26534
 H992 H 0.50036 0.23188 0.23525
 C993 C 1.01163 0.74552 0.75446
 C994 C 1.01159 0.75519 0.74509
 C995 C 0.99993 0.75990 0.74059
 C996 C 0.98829 0.75522 0.74518
 C997 C 0.98833 0.74553 0.75453
 C998 C 0.99999 0.74083 0.75904
 H999 H 1.00002 0.73341 0.76621
 H1000 H 0.99991 0.76732 0.73342
 C1001 C 0.51187 0.74551 0.25472
 C1002 C 0.51184 0.75510 0.24528
 C1003 C 0.50018 0.75975 0.24071
 C1004 C 0.48854 0.75509 0.24532
 C1005 C 0.48857 0.74550 0.25477
 C1006 C 0.50023 0.74085 0.25933
 H1007 H 0.50024 0.73349 0.26657
 H1008 H 0.50016 0.76710 0.23347
 C1009 C -0.01180 0.75517 0.25491
 C1010 C -0.01178 0.74558 0.24546
 C1011 C -0.00012 0.74090 0.24091
 C1012 C 0.01152 0.74554 0.24550
 C1013 C 0.01151 0.75515 0.25493
 C1014 C -0.00015 0.75982 0.25949
 H1015 H -0.00017 0.76717 0.26672
 H1016 H -0.00011 0.73355 0.23368
 C1017 C 0.48818 0.75485 0.75523
 C1018 C 0.48817 0.74604 0.74506
 C1019 C 0.49981 0.74178 0.74008
 C1020 C 0.51146 0.74594 0.74508
 C1021 C 0.51148 0.75476 0.75523
 C1022 C 0.49984 0.75901 0.76023
 H1023 H 0.49986 0.76596 0.76784
 H1024 H 0.49979 0.73482 0.73247
 C1025 C 0.39636 0.30724 0.29102
 C1026 C 0.40195 0.29639 0.29636
 C1027 C 0.39675 0.29102 0.30734
 C1028 C 0.38600 0.29649 0.31299
 C1029 C 0.38028 0.30743 0.30772
 C1030 C 0.38561 0.31272 0.29664
 C1031 C 0.41309 0.29083 0.29062
 C1032 C 0.42244 0.28621 0.28584
 C1033 C 0.43345 0.28085 0.28030
 C1034 C 0.44290 0.27632 0.27562
 C1035 C 0.45426 0.27097 0.27013
 C1036 C 0.45666 0.25787 0.27109
 C1037 C 0.46781 0.25271 0.26597
 C1038 C 0.47666 0.26061 0.25978
 C1039 C 0.47421 0.27375 0.25887
 C1040 C 0.46305 0.27889 0.26399
 H1041 H 0.40032 0.31148 0.28251
 H1042 H 0.40101 0.28263 0.31157
 H1043 H 0.38226 0.29211 0.32149
 H1044 H 0.38154 0.32110 0.29224
 H1045 H 0.44995 0.25166 0.27587
 H1046 H 0.46961 0.24259 0.26694
 H1047 H 0.48091 0.28000 0.25414
 H1048 H 0.46130 0.28904 0.26322
 C1049 C 0.39664 0.79191 0.80737
 C1050 C 0.40182 0.79727 0.79639
 C1051 C 0.39618 0.80808 0.79104
 C1052 C 0.38540 0.81353 0.79664
 C1053 C 0.38003 0.80823 0.80775
 C1054 C 0.38587 0.79731 0.81301
 C1055 C 0.41293 0.79168 0.79065
 C1056 C 0.42227 0.78695 0.78593
 C1057 C 0.43324 0.78140 0.78051
 C1058 C 0.44266 0.77665 0.77598
 C1059 C 0.45397 0.77101 0.77070
 C1060 C 0.45630 0.77169 0.75764
 C1061 C 0.46741 0.76638 0.75256
 C1062 C 0.47626 0.76028 0.76051
 C1063 C 0.47387 0.75965 0.77361
 C1064 C 0.46277 0.76496 0.77867
 H1065 H 0.40094 0.78353 0.81160
 H1066 H 0.40012 0.81232 0.78252
 H1067 H 0.38137 0.82188 0.79217
 H1068 H 0.38222 0.79282 0.82149
 H1069 H 0.44958 0.77639 0.75139
 H1070 H 0.46916 0.76714 0.74246
 H1071 H 0.48058 0.75499 0.77989
 H1072 H 0.46107 0.76440 0.78879
 C1073 C -0.10350 0.29088 0.80739
 C1074 C -0.09810 0.29628 0.79652
 C1075 C -0.10347 0.30726 0.79123
 C1076 C -0.11422 0.31283 0.79678
 C1077 C -0.11977 0.30749 0.80773
 C1078 C -0.11425 0.29643 0.81296
 C1079 C -0.08699 0.29059 0.79086
 C1080 C -0.07766 0.28585 0.78615
 C1081 C -0.06667 0.28038 0.78068
 C1082 C -0.05722 0.27580 0.77605
 C1083 C -0.04585 0.27048 0.77056
 C1084 C -0.03683 0.27852 0.76493
 C1085 C -0.02567 0.27344 0.75978
 C1086 C -0.02343 0.26024 0.76014
 C1087 C -0.03250 0.25221 0.76584
 C1088 C -0.04367 0.25731 0.77099
 H1089 H -0.09941 0.28238 0.81158
 H1090 H -0.09935 0.31153 0.78282
 H1091 H -0.11811 0.32132 0.79244
 H1092 H -0.11817 0.29198 0.82135
 H1093 H -0.03842 0.28873 0.76457
 H1094 H -0.01880 0.27978 0.75543
 H1095 H -0.03087 0.24203 0.76637
 H1096 H -0.05055 0.25101 0.77537
 C1097 C -0.10411 0.80705 0.29124
 C1098 C -0.09862 0.79617 0.29663
 C1099 C -0.10390 0.79089 0.30762
 C1100 C -0.11462 0.79646 0.31321
 C1101 C -0.12024 0.80743 0.30790
 C1102 C -0.11484 0.81264 0.29681
 C1103 C -0.08749 0.79050 0.29096
 C1104 C -0.07813 0.78579 0.28627
 C1105 C -0.06711 0.78036 0.28082
 C1106 C -0.05763 0.77582 0.27620
 C1107 C -0.04622 0.77055 0.27074
 C1108 C -0.04404 0.75738 0.27103
 C1109 C -0.03285 0.75232 0.26588
 C1110 C -0.02375 0.76040 0.26031
 C1111 C -0.02598 0.77361 0.26008
 C1112 C -0.03717 0.77864 0.26525
 H1113 H -0.10009 0.81123 0.28273
 H1114 H -0.09971 0.78248 0.31189
 H1115 H -0.11841 0.79213 0.32172
 H1116 H -0.11884 0.82103 0.29238
 H1117 H -0.05095 0.75103 0.27531
 H1118 H -0.03123 0.74213 0.26630
 H1119 H -0.01909 0.78000 0.25584
 H1120 H -0.03874 0.78885 0.26498
 C1121 C 0.60409 0.69280 0.29059
 C1122 C 0.59853 0.70371 0.29583
 C1123 C 0.60369 0.70909 0.30683
 C1124 C 0.61436 0.70357 0.31258
 C1125 C 0.62004 0.69256 0.30741
 C1126 C 0.61475 0.68726 0.29632
 C1127 C 0.58746 0.70930 0.29001
 C1128 C 0.57814 0.71396 0.28520
 C1129 C 0.56714 0.71937 0.27970
 C1130 C 0.55767 0.72398 0.27514
 C1131 C 0.54626 0.72948 0.26991
 C1132 C 0.53719 0.73492 0.27800
 C1133 C 0.52601 0.74014 0.27302
 C1134 C 0.52381 0.74004 0.25988
 C1135 C 0.53292 0.73451 0.25180
 C1136 C 0.54411 0.72929 0.25680
 H1137 H 0.60016 0.68854 0.28209
 H1138 H 0.59945 0.71753 0.31098
 H1139 H 0.61807 0.70796 0.32108
 H1140 H 0.61879 0.67884 0.29199
 H1141 H 0.53874 0.73510 0.28816
 H1142 H 0.51911 0.74435 0.27941
 H1143 H 0.53133 0.73417 0.24166
 H1144 H 0.55105 0.72505 0.25046
 C1145 C 0.60315 0.20839 0.80643
 C1146 C 0.59792 0.20291 0.79552
 C1147 C 0.60346 0.19197 0.79033
 C1148 C 0.61419 0.18651 0.79601
 C1149 C 0.61956 0.19194 0.80700
 C1150 C 0.61388 0.20297 0.81213
 C1151 C 0.58684 0.20848 0.78970
 C1152 C 0.57751 0.21315 0.78491
 C1153 C 0.56654 0.21862 0.77943
 C1154 C 0.55709 0.22330 0.77489
 C1155 C 0.54570 0.22888 0.76970
 C1156 C 0.54358 0.22883 0.75658
 C1157 C 0.53242 0.23412 0.75162
 C1158 C 0.52330 0.23958 0.75974
 C1159 C 0.52548 0.23956 0.77288
 C1160 C 0.53663 0.23426 0.77783
 H1161 H 0.59892 0.21686 0.81054
 H1162 H 0.59948 0.18763 0.78189
 H1163 H 0.61821 0.17805 0.79175
 H1164 H 0.61766 0.20746 0.82055
 H1165 H 0.55052 0.22464 0.75021
 H1166 H 0.53084 0.23389 0.74147
 H1167 H 0.51857 0.24372 0.77930
 H1168 H 0.53817 0.23434 0.78799
 C1169 C 1.10353 0.69327 0.79110
 C1170 C 1.09811 0.70422 0.79642
 C1171 C 1.10343 0.70952 0.80737
 C1172 C 1.11412 0.70393 0.81298
 C1173 C 1.11968 0.69290 0.80772
 C1174 C 1.11423 0.68765 0.79668
 C1175 C 1.08705 0.70994 0.79071
 C1176 C 1.07774 0.71469 0.78597
 C1177 C 1.06678 0.72016 0.78046
 C1178 C 1.05734 0.72474 0.77579
 C1179 C 1.04598 0.73005 0.77028
 C1180 C 1.04380 0.74321 0.77065
 C1181 C 1.03263 0.74830 0.76547
 C1182 C 1.02358 0.74026 0.75982
 C1183 C 1.02582 0.72706 0.75950
 C1184 C 1.03697 0.72199 0.76468
 H1185 H 1.09948 0.68907 0.78262
 H1186 H 1.09929 0.71799 0.81159
 H1187 H 1.11797 0.70829 0.82144
 H1188 H 1.11816 0.67920 0.79231
 H1189 H 1.05068 0.74953 0.77500
 H1190 H 1.03100 0.75849 0.76597
 H1191 H 1.01895 0.72070 0.75519
 H1192 H 1.03855 0.71178 0.76436
 C1193 C 1.10323 0.20874 0.30645
 C1194 C 1.09802 0.20325 0.29553
 C1195 C 1.10357 0.19231 0.29035
 C1196 C 1.11430 0.18686 0.29604
 C1197 C 1.11964 0.19228 0.30705
 C1198 C 1.11396 0.20331 0.31217
 C1199 C 1.08692 0.20880 0.28972
 C1200 C 1.07758 0.21344 0.28494
 C1201 C 1.06658 0.21887 0.27946
 C1202 C 1.05711 0.22351 0.27494
 C1203 C 1.04570 0.22906 0.26976
 C1204 C 1.04354 0.22896 0.25665
 C1205 C 1.03237 0.23426 0.25169
 C1206 C 1.02329 0.23977 0.25982
 C1207 C 1.02550 0.23978 0.27296
 C1208 C 1.03666 0.23448 0.27789
 H1209 H 1.09900 0.21721 0.31055
 H1210 H 1.09960 0.18798 0.28190
 H1211 H 1.11833 0.17841 0.29178
 H1212 H 1.11772 0.20780 0.32059
 H1213 H 1.05045 0.22474 0.25027
 H1214 H 1.03076 0.23399 0.24155
 H1215 H 1.01861 0.24398 0.27938
 H1216 H 1.03822 0.23459 0.28805
 C1217 C 0.60342 0.30796 0.70964
 C1218 C 0.59794 0.29696 0.70453
 C1219 C 0.60323 0.29140 0.69368
 C1220 C 0.61396 0.29680 0.68796
 C1221 C 0.61958 0.30788 0.69302
 C1222 C 0.61416 0.31339 0.70394
 C1223 C 0.58684 0.29143 0.71034
 C1224 C 0.57750 0.28677 0.71511
 C1225 C 0.56650 0.28131 0.72056
 C1226 C 0.55704 0.27665 0.72507
 C1227 C 0.54564 0.27108 0.73024
 C1228 C 0.53660 0.26570 0.72210
 C1229 C 0.52545 0.26039 0.72703
 C1230 C 0.52325 0.26036 0.74018
 C1231 C 0.53233 0.26582 0.74831
 C1232 C 0.54350 0.27112 0.74336
 H1233 H 0.59939 0.31236 0.71803
 H1234 H 0.59904 0.28289 0.68963
 H1235 H 0.61779 0.29224 0.67960
 H1236 H 0.61813 0.32189 0.70815
 H1237 H 0.53815 0.26563 0.71194
 H1238 H 0.51856 0.25624 0.72061
 H1239 H 0.53074 0.26604 0.75845
 H1240 H 0.55042 0.27530 0.74974
 C1241 C 0.60373 0.79142 0.19332
 C1242 C 0.59843 0.79699 0.20416
 C1243 C 0.60391 0.80799 0.20928
 C1244 C 0.61464 0.81342 0.20359
 C1245 C 0.62008 0.80791 0.19266
 C1246 C 0.61447 0.79683 0.18761
 C1247 C 0.58733 0.79145 0.20997
 C1248 C 0.57799 0.78681 0.21476
 C1249 C 0.56700 0.78137 0.22024
 C1250 C 0.55754 0.77673 0.22479
 C1251 C 0.54615 0.77120 0.23003
 C1252 C 0.53712 0.76570 0.22195
 C1253 C 0.52597 0.76045 0.22695
 C1254 C 0.52376 0.76059 0.24009
 C1255 C 0.53284 0.76617 0.24815
 C1256 C 0.54400 0.77142 0.24314
 H1257 H 0.59956 0.78291 0.18927
 H1258 H 0.59987 0.81239 0.21767
 H1259 H 0.61861 0.82193 0.20779
 H1260 H 0.61831 0.79226 0.17925
 H1261 H 0.53868 0.76549 0.21179
 H1262 H 0.51909 0.75619 0.22058
 H1263 H 0.53123 0.76653 0.25830
 H1264 H 0.55090 0.77570 0.24947
 C1265 C 1.10327 0.29149 0.19360
 C1266 C 1.09797 0.29704 0.20445
 C1267 C 1.10343 0.30804 0.20958
 C1268 C 1.11416 0.31348 0.20389
 C1269 C 1.11961 0.30799 0.19296
 C1270 C 1.11400 0.29691 0.18789
 C1271 C 1.08688 0.29148 0.21025
 C1272 C 1.07755 0.28682 0.21503
 C1273 C 1.06656 0.28135 0.22048
 C1274 C 1.05710 0.27668 0.22500
 C1275 C 1.04571 0.27112 0.23020
 C1276 C 1.04357 0.27122 0.24331
 C1277 C 1.03240 0.26595 0.24829
 C1278 C 1.02331 0.26047 0.24018
 C1279 C 1.02551 0.26044 0.22704
 C1280 C 1.03666 0.26571 0.22208
 H1281 H 1.09911 0.28298 0.18954
 H1282 H 1.09939 0.31243 0.21797
 H1283 H 1.11812 0.32199 0.20810
 H1284 H 1.11785 0.29236 0.17953
 H1285 H 1.05049 0.27542 0.24967
 H1286 H 1.03081 0.26622 0.25843
 H1287 H 1.01861 0.25626 0.22063
 H1288 H 1.03822 0.26560 0.21192
 C1289 C 1.10360 0.80724 0.70855
 C1290 C 1.09822 0.79627 0.70325
 C1291 C 1.10364 0.79087 0.69239
 C1292 C 1.11440 0.79639 0.68685
 C1293 C 1.11992 0.80743 0.69208
 C1294 C 1.11436 0.81278 0.70302
 C1295 C 1.08709 0.79062 0.70889
 C1296 C 1.07774 0.78591 0.71358
 C1297 C 1.06674 0.78047 0.71903
 C1298 C 1.05728 0.77592 0.72366
 C1299 C 1.04590 0.77063 0.72915
 C1300 C 1.04372 0.75746 0.72877
 C1301 C 1.03256 0.75239 0.73397
 C1302 C 1.02351 0.76044 0.73966
 C1303 C 1.02575 0.77364 0.73997
 C1304 C 1.03689 0.77870 0.73477
 H1305 H 1.09946 0.81151 0.71695
 H1306 H 1.09954 0.78238 0.68820
 H1307 H 1.11834 0.79194 0.67847
 H1308 H 1.11826 0.82126 0.70736
 H1309 H 1.05060 0.75114 0.72441
 H1310 H 1.03094 0.74221 0.73348
 H1311 H 1.01888 0.78001 0.74431
 H1312 H 1.03847 0.78890 0.73509
 C1313 C 0.39661 0.70918 0.69284
 C1314 C 0.40184 0.70386 0.70383
 C1315 C 0.39634 0.69298 0.70918
 C1316 C 0.38566 0.68741 0.70356
 C1317 C 0.38030 0.69265 0.69247
 C1318 C 0.38593 0.70363 0.68719
 C1319 C 0.41291 0.70954 0.70956
 C1320 C 0.42221 0.71430 0.71428
 C1321 C 0.43316 0.71986 0.71970
 C1322 C 0.44257 0.72458 0.72424
 C1323 C 0.45389 0.73017 0.72954
 C1324 C 0.45615 0.72953 0.74261
 C1325 C 0.46728 0.73474 0.74770
 C1326 C 0.47622 0.74072 0.73976
 C1327 C 0.47390 0.74131 0.72665
 C1328 C 0.46278 0.73608 0.72158
 H1329 H 0.40081 0.71760 0.68861
 H1330 H 0.40033 0.68878 0.71770
 H1331 H 0.38165 0.67901 0.70795
 H1332 H 0.38217 0.70798 0.67868
 H1333 H 0.44936 0.72492 0.74885
 H1334 H 0.46897 0.73401 0.75781
 H1335 H 0.48068 0.74586 0.72037
 H1336 H 0.46113 0.73661 0.71144
 C1337 C 0.39697 0.19257 0.20892
 C1338 C 0.40242 0.20355 0.20371
 C1339 C 0.39707 0.20906 0.19287
 C1340 C 0.38630 0.20364 0.18725
 C1341 C 0.38071 0.19258 0.19241
 C1342 C 0.38621 0.18712 0.20333
 C1343 C 0.41353 0.20911 0.20947
 C1344 C 0.42285 0.21373 0.21428
 C1345 C 0.43381 0.21909 0.21988
 C1346 C 0.44321 0.22363 0.22462
 C1347 C 0.45449 0.22900 0.23020
 C1348 C 0.45683 0.24211 0.22928
 C1349 C 0.46792 0.24729 0.23449
 C1350 C 0.47675 0.23941 0.24073
 C1351 C 0.47436 0.22626 0.24160
 C1352 C 0.46327 0.22109 0.23639
 H1353 H 0.40104 0.18821 0.21731
 H1354 H 0.40122 0.21756 0.18875
 H1355 H 0.38241 0.20816 0.17889
 H1356 H 0.38226 0.17864 0.20761
 H1357 H 0.45013 0.24830 0.22447
 H1358 H 0.46968 0.25741 0.23354
 H1359 H 0.48106 0.22002 0.24635
 H1360 H 0.46156 0.21093 0.23713
 C1361 C -0.10363 0.69370 0.20868
 C1362 C -0.09821 0.70459 0.20326
 C1363 C -0.10350 0.70981 0.19225
 C1364 C -0.11416 0.70415 0.18664
 C1365 C -0.11970 0.69316 0.19199
 C1366 C -0.11429 0.68802 0.20310
 C1367 C -0.08716 0.71034 0.20895
 C1368 C -0.07786 0.71509 0.21368
 C1369 C -0.06689 0.72053 0.21919
 C1370 C -0.05746 0.72507 0.22387
 C1371 C -0.04609 0.73031 0.22942
 C1372 C -0.04390 0.74347 0.22914
 C1373 C -0.03274 0.74849 0.23437
 C1374 C -0.02371 0.74039 0.24001
 C1375 C -0.02595 0.72719 0.24022
 C1376 C -0.03710 0.72219 0.23498
 H1377 H -0.09961 0.68957 0.21721
 H1378 H -0.09937 0.71823 0.18796
 H1379 H -0.11797 0.70842 0.17812
 H1380 H -0.11823 0.67962 0.20755
 H1381 H -0.05077 0.74984 0.22481
 H1382 H -0.03111 0.75868 0.23395
 H1383 H -0.01910 0.72078 0.24452
 H1384 H -0.03868 0.71198 0.23524
 C1385 C -0.10331 0.20945 0.69274
 C1386 C -0.09791 0.20405 0.70361
 C1387 C -0.10326 0.19306 0.70890
 C1388 C -0.11398 0.18748 0.70334
 C1389 C -0.11952 0.19282 0.69239
 C1390 C -0.11403 0.20389 0.68716
 C1391 C -0.08683 0.20975 0.70928
 C1392 C -0.07751 0.21448 0.71398
 C1393 C -0.06654 0.21995 0.71945
 C1394 C -0.05710 0.22451 0.72409
 C1395 C -0.04574 0.22980 0.72959
 C1396 C -0.03677 0.22174 0.73526
 C1397 C -0.02563 0.22681 0.74045
 C1398 C -0.02338 0.24000 0.74008
 C1399 C -0.03240 0.24804 0.73433
 C1400 C -0.04355 0.24297 0.72914
 H1401 H -0.09924 0.21796 0.68855
 H1402 H -0.09913 0.18879 0.71731
 H1403 H -0.11785 0.17898 0.70767
 H1404 H -0.11795 0.20833 0.67878
 H1405 H -0.03836 0.21155 0.73563
 H1406 H -0.01879 0.22045 0.74483
 H1407 H -0.03076 0.25822 0.73379
 H1408 H -0.05041 0.24928 0.72473
 C1409 C 0.29120 0.39649 0.30721
 C1410 C 0.29655 0.40174 0.29624
 C1411 C 0.30742 0.39621 0.29091
 C1412 C 0.31295 0.38546 0.29653
 C1413 C 0.30766 0.38008 0.30759
 C1414 C 0.29670 0.38575 0.31285
 C1415 C 0.29092 0.41287 0.29054
 C1416 C 0.28620 0.42223 0.28586
 C1417 C 0.28067 0.43325 0.28047
 C1418 C 0.27598 0.44270 0.27595
 C1419 C 0.27042 0.45407 0.27065
 C1420 C 0.27121 0.45641 0.25760
 C1421 C 0.26601 0.46756 0.25250
 C1422 C 0.25991 0.47646 0.26040
 C1423 C 0.25917 0.47406 0.27350
 C1424 C 0.26438 0.46290 0.27859
 H1425 H 0.28278 0.40071 0.31142
 H1426 H 0.31165 0.40020 0.28242
 H1427 H 0.32134 0.38142 0.29215
 H1428 H 0.29232 0.38197 0.32133
 H1429 H 0.27591 0.44966 0.25138
 H1430 H 0.26685 0.46932 0.24240
 H1431 H 0.25452 0.48080 0.27975
 H1432 H 0.26373 0.46119 0.28870
 C1433 C 0.30781 -0.10385 0.79145
 C1434 C 0.29697 -0.09830 0.79680
 C1435 C 0.29164 -0.10356 0.80776
 C1436 C 0.29710 -0.11435 0.81336
 C1437 C 0.30805 -0.12010 0.80807
 C1438 C 0.31331 -0.11463 0.79700
 C1439 C 0.29135 -0.08719 0.79108
 C1440 C 0.28668 -0.07785 0.78629
 C1441 C 0.28126 -0.06689 0.78071
 C1442 C 0.27669 -0.05747 0.77599
 C1443 C 0.27129 -0.04617 0.77042
 C1444 C 0.25821 -0.04379 0.77141
 C1445 C 0.25301 -0.03267 0.76621
 C1446 C 0.26086 -0.02386 0.75991
 C1447 C 0.27398 -0.02630 0.75897
 C1448 C 0.27916 -0.03741 0.76417
 H1449 H 0.31203 -0.09984 0.78296
 H1450 H 0.28324 -0.09933 0.81200
 H1451 H 0.29264 -0.11807 0.82182
 H1452 H 0.32169 -0.11858 0.79251
 H1453 H 0.25204 -0.05047 0.77627
 H1454 H 0.24291 -0.03088 0.76722
 H1455 H 0.28019 -0.01961 0.75417
 H1456 H 0.28930 -0.03915 0.76338
 C1457 C 0.80777 0.39606 0.79094
 C1458 C 0.79696 0.40166 0.79632
 C1459 C 0.79165 0.39644 0.80730
 C1460 C 0.79709 0.38567 0.81292
 C1461 C 0.80802 0.37987 0.80763
 C1462 C 0.81326 0.38527 0.79652
 C1463 C 0.79133 0.41279 0.79061
 C1464 C 0.78657 0.42214 0.78593
 C1465 C 0.78098 0.43312 0.78055
 C1466 C 0.77621 0.44255 0.77604
 C1467 C 0.77057 0.45388 0.77076
 C1468 C 0.76444 0.46264 0.77870
 C1469 C 0.75915 0.47377 0.77363
 C1470 C 0.75988 0.47621 0.76055
 C1471 C 0.76607 0.46738 0.75263
 C1472 C 0.77135 0.45626 0.75771
 H1473 H 0.81198 0.40003 0.78242
 H1474 H 0.78327 0.40072 0.81156
 H1475 H 0.79264 0.38199 0.82140
 H1476 H 0.82161 0.38127 0.79203
 H1477 H 0.76379 0.46090 0.78882
 H1478 H 0.75443 0.48045 0.77990
 H1479 H 0.76691 0.46917 0.74254
 H1480 H 0.77612 0.44957 0.75148
 C1481 C 0.80741 -0.10385 0.29132
 C1482 C 0.79633 -0.09854 0.29643
 C1483 C 0.79079 -0.10400 0.30718
 C1484 C 0.79630 -0.11472 0.31285
 C1485 C 0.80752 -0.12021 0.30784
 C1486 C 0.81297 -0.11458 0.29694
 C1487 C 0.79069 -0.08742 0.29071
 C1488 C 0.78599 -0.07807 0.28600
 C1489 C 0.78053 -0.06705 0.28055
 C1490 C 0.77596 -0.05757 0.27595
 C1491 C 0.77066 -0.04615 0.27051
 C1492 C 0.75751 -0.04394 0.27097
 C1493 C 0.75242 -0.03274 0.26584
 C1494 C 0.76044 -0.02368 0.26014
 C1495 C 0.77362 -0.02594 0.25975
 C1496 C 0.77869 -0.03713 0.26488
 H1497 H 0.81180 -0.09968 0.28298
 H1498 H 0.78221 -0.09995 0.31123
 H1499 H 0.79167 -0.11859 0.32115
 H1500 H 0.82153 -0.11834 0.29267
 H1501 H 0.75121 -0.05084 0.27536
 H1502 H 0.74225 -0.03110 0.26640
 H1503 H 0.77996 -0.01907 0.25540
 H1504 H 0.78888 -0.03873 0.26449
 C1505 C 0.30775 0.60401 0.70974
 C1506 C 0.29689 0.59841 0.70450
 C1507 C 0.29151 0.60355 0.69349
 C1508 C 0.29696 0.61424 0.68773
 C1509 C 0.30792 0.61996 0.69290
 C1510 C 0.31324 0.61470 0.70400
 C1511 C 0.29133 0.58731 0.71032
 C1512 C 0.28667 0.57796 0.71509
 C1513 C 0.28122 0.56695 0.72053
 C1514 C 0.27657 0.55747 0.72503
 C1515 C 0.27102 0.54605 0.73020
 C1516 C 0.26559 0.53702 0.72206
 C1517 C 0.26033 0.52584 0.72699
 C1518 C 0.26038 0.52359 0.74013
 C1519 C 0.26588 0.53266 0.74826
 C1520 C 0.27115 0.54386 0.74331
 H1521 H 0.31201 0.60010 0.71826
 H1522 H 0.28310 0.59927 0.68933
 H1523 H 0.29257 0.61793 0.67921
 H1524 H 0.32162 0.61879 0.70832
 H1525 H 0.26546 0.53861 0.71191
 H1526 H 0.25613 0.51896 0.72058
 H1527 H 0.26617 0.53103 0.75840
 H1528 H 0.27536 0.55076 0.74969
 C1529 C 0.30831 1.10381 0.20951
 C1530 C 0.29731 1.09835 0.20439
 C1531 C 0.29176 1.10367 0.19355
 C1532 C 0.29717 1.11441 0.18784
 C1533 C 0.30824 1.12001 0.19289
 C1534 C 0.31374 1.11455 0.20382
 C1535 C 0.29177 1.08723 0.21019
 C1536 C 0.28712 1.07787 0.21495
 C1537 C 0.28167 1.06685 0.22038
 C1538 C 0.27700 1.05738 0.22488
 C1539 C 0.27142 1.04597 0.23005
 C1540 C 0.26594 1.03698 0.22192
 C1541 C 0.26062 1.02582 0.22685
 C1542 C 0.26067 1.02356 0.23998
 C1543 C 0.26624 1.03260 0.24811
 C1544 C 0.27156 1.04377 0.24316
 H1545 H 0.31270 1.09976 0.21789
 H1546 H 0.28324 1.09950 0.18950
 H1547 H 0.29261 1.11826 0.17948
 H1548 H 0.32225 1.11851 0.20802
 H1549 H 0.26580 1.03858 0.21176
 H1550 H 0.25637 1.01897 0.22043
 H1551 H 0.26653 1.03096 0.25825
 H1552 H 0.27582 1.05064 0.24953
 C1553 C 0.80835 0.60410 0.21002
 C1554 C 0.79747 0.59844 0.20484
 C1555 C 0.79203 0.60353 0.19384
 C1556 C 0.79743 0.61421 0.18802
 C1557 C 0.80839 0.61999 0.19312
 C1558 C 0.81377 0.61479 0.20422
 C1559 C 0.79196 0.58735 0.21071
 C1560 C 0.78730 0.57801 0.21549
 C1561 C 0.78183 0.56700 0.22091
 C1562 C 0.77713 0.55751 0.22536
 C1563 C 0.77152 0.54608 0.23044
 C1564 C 0.76616 0.53709 0.22222
 C1565 C 0.76081 0.52591 0.22705
 C1566 C 0.76073 0.52361 0.24018
 C1567 C 0.76618 0.53263 0.24839
 C1568 C 0.77152 0.54383 0.24354
 H1569 H 0.81265 0.60023 0.21853
 H1570 H 0.78362 0.59921 0.18973
 H1571 H 0.79298 0.61785 0.17951
 H1572 H 0.82216 0.61892 0.20849
 H1573 H 0.76612 0.53873 0.21207
 H1574 H 0.75666 0.51907 0.22057
 H1575 H 0.76636 0.53096 0.25853
 H1576 H 0.77569 0.55070 0.24998
 C1577 C 0.80818 1.10381 0.70960
 C1578 C 0.79717 1.09835 0.70449
 C1579 C 0.79165 1.10365 0.69363
 C1580 C 0.79708 1.11437 0.68789
 C1581 C 0.80816 1.11997 0.69294
 C1582 C 0.81364 1.11453 0.70389
 C1583 C 0.79159 1.08727 0.71032
 C1584 C 0.78689 1.07795 0.71511
 C1585 C 0.78138 1.06698 0.72058
 C1586 C 0.77667 1.05753 0.72510
 C1587 C 0.77105 1.04615 0.73029
 C1588 C 0.76549 1.03718 0.72218
 C1589 C 0.76017 1.02603 0.72712
 C1590 C 0.76031 1.02375 0.74025
 C1591 C 0.76594 1.03276 0.74836
 C1592 C 0.77125 1.04393 0.74339
 H1593 H 0.81255 1.09978 0.71800
 H1594 H 0.78313 1.09949 0.68958
 H1595 H 0.79254 1.11821 0.67952
 H1596 H 0.82215 1.11849 0.70809
 H1597 H 0.76529 1.03880 0.71203
 H1598 H 0.75589 1.01920 0.72072
 H1599 H 0.76629 1.03110 0.75849
 H1600 H 0.77558 1.05078 0.74975
 C1601 C 0.69256 0.60394 0.29027
 C1602 C 0.70346 0.59835 0.29548
 C1603 C 0.70887 0.60349 0.30646
 C1604 C 0.70341 0.61417 0.31223
 C1605 C 0.69241 0.61989 0.30710
 C1606 C 0.68707 0.61463 0.29602
 C1607 C 0.70902 0.58726 0.28965
 C1608 C 0.71367 0.57792 0.28486
 C1609 C 0.71911 0.56691 0.27939
 C1610 C 0.72375 0.55743 0.27486
 C1611 C 0.72928 0.54601 0.26966
 C1612 C 0.73457 0.53687 0.27778
 C1613 C 0.73982 0.52570 0.27282
 C1614 C 0.73990 0.52357 0.25966
 C1615 C 0.73452 0.53276 0.25155
 C1616 C 0.72927 0.54394 0.25654
 H1617 H 0.68828 0.60003 0.28177
 H1618 H 0.71731 0.59922 0.31058
 H1619 H 0.70783 0.61786 0.32072
 H1620 H 0.67865 0.61870 0.29173
 H1621 H 0.73460 0.53837 0.28795
 H1622 H 0.74391 0.51873 0.27922
 H1623 H 0.73433 0.53122 0.24140
 H1624 H 0.72516 0.55094 0.25017
 C1625 C 0.69229 1.10398 0.79059
 C1626 C 0.70314 1.09841 0.79589
 C1627 C 0.70849 1.10360 0.80686
 C1628 C 0.70303 1.11434 0.81253
 C1629 C 0.69207 1.12012 0.80731
 C1630 C 0.68679 1.11473 0.79622
 C1631 C 0.70874 1.08730 0.79012
 C1632 C 0.71343 1.07797 0.78536
 C1633 C 0.71891 1.06698 0.77989
 C1634 C 0.72358 1.05753 0.77535
 C1635 C 0.72914 1.04614 0.77012
 C1636 C 0.73464 1.03708 0.77819
 C1637 C 0.73991 1.02593 0.77319
 C1638 C 0.73979 1.02374 0.76005
 C1639 C 0.73422 1.03285 0.75198
 C1640 C 0.72895 1.04401 0.75700
 H1641 H 0.68805 1.10002 0.78209
 H1642 H 0.71689 1.09934 0.81106
 H1643 H 0.70751 1.11802 0.82100
 H1644 H 0.67841 1.11870 0.79177
 H1645 H 0.73482 1.03863 0.78835
 H1646 H 0.74415 1.01902 0.77956
 H1647 H 0.73387 1.03126 0.74184
 H1648 H 0.72467 1.05094 0.75067
 C1649 C 0.19192 0.60383 0.79031
 C1650 C 0.20285 0.59825 0.79548
 C1651 C 0.20833 0.60344 0.80641
 C1652 C 0.20292 0.61417 0.81214
 C1653 C 0.19191 0.61989 0.80703
 C1654 C 0.18649 0.61456 0.79602
 C1655 C 0.20841 0.58715 0.78966
 C1656 C 0.21309 0.57781 0.78488
 C1657 C 0.21859 0.56683 0.77943
 C1658 C 0.22330 0.55737 0.77492
 C1659 C 0.22893 0.54599 0.76974
 C1660 C 0.23438 0.53695 0.77787
 C1661 C 0.23972 0.52581 0.77293
 C1662 C 0.23972 0.52360 0.75978
 C1663 C 0.23420 0.53269 0.75166
 C1664 C 0.22886 0.54385 0.75662
 H1665 H 0.18759 0.59987 0.78185
 H1666 H 0.21679 0.59919 0.81051
 H1667 H 0.20741 0.61792 0.82058
 H1668 H 0.17804 0.61861 0.79177
 H1669 H 0.23448 0.53851 0.78803
 H1670 H 0.24393 0.51892 0.77934
 H1671 H 0.23395 0.53109 0.74152
 H1672 H 0.22463 0.55076 0.75025
 C1673 C 0.20883 1.10350 0.30653
 C1674 C 0.20341 1.09826 0.29560
 C1675 C 0.19245 1.10375 0.29040
 C1676 C 0.18693 1.11445 0.29610
 C1677 C 0.19230 1.11983 0.30711
 C1678 C 0.20334 1.11420 0.31225
 C1679 C 0.20903 1.08719 0.28979
 C1680 C 0.21373 1.07787 0.28499
 C1681 C 0.21921 1.06690 0.27950
 C1682 C 0.22388 1.05745 0.27495
 C1683 C 0.22944 1.04606 0.26971
 C1684 C 0.22931 1.04396 0.25659
 C1685 C 0.23456 1.03277 0.25159
 C1686 C 0.24004 1.02363 0.25967
 C1687 C 0.24010 1.02579 0.27282
 C1688 C 0.23485 1.03696 0.27780
 H1689 H 0.21731 1.09931 0.31065
 H1690 H 0.18816 1.09975 0.28195
 H1691 H 0.17847 1.11843 0.29182
 H1692 H 0.20779 1.11800 0.32068
 H1693 H 0.22510 1.05091 0.25025
 H1694 H 0.23426 1.03120 0.24144
 H1695 H 0.24427 1.01886 0.27920
 H1696 H 0.23498 1.03849 0.28797
 C1697 C 0.69261 0.39647 0.70887
 C1698 C 0.70362 0.40180 0.70364
 C1699 C 0.70906 0.39637 0.69280
 C1700 C 0.70352 0.38563 0.68722
 C1701 C 0.69243 0.38015 0.69240
 C1702 C 0.68705 0.38574 0.70331
 C1703 C 0.70932 0.41289 0.70933
 C1704 C 0.71409 0.42220 0.71404
 C1705 C 0.71967 0.43315 0.71946
 C1706 C 0.72440 0.44256 0.72401
 C1707 C 0.72999 0.45388 0.72935
 C1708 C 0.73606 0.46271 0.72144
 C1709 C 0.74128 0.47383 0.72655
 C1710 C 0.74053 0.47621 0.73964
 C1711 C 0.73440 0.46731 0.74753
 C1712 C 0.72919 0.45619 0.74240
 H1713 H 0.68830 0.40062 0.71726
 H1714 H 0.71759 0.40043 0.68866
 H1715 H 0.70800 0.38168 0.67886
 H1716 H 0.67853 0.38188 0.70760
 H1717 H 0.73672 0.46103 0.71132
 H1718 H 0.74595 0.48058 0.72031
 H1719 H 0.73354 0.46905 0.75762
 H1720 H 0.72445 0.44945 0.74860
 C1721 C 0.70956 -0.10359 0.19268
 C1722 C 0.70415 -0.09819 0.20355
 C1723 C 0.69315 -0.10354 0.20880
 C1724 C 0.68758 -0.11426 0.20322
 C1725 C 0.69293 -0.11980 0.19227
 C1726 C 0.70401 -0.11430 0.18707
 C1727 C 0.70984 -0.08711 0.20925
 C1728 C 0.71458 -0.07779 0.21399
 C1729 C 0.72005 -0.06683 0.21948
 C1730 C 0.72464 -0.05740 0.22413
 C1731 C 0.72996 -0.04604 0.22964
 C1732 C 0.72194 -0.03702 0.23531
 C1733 C 0.72703 -0.02588 0.24048
 C1734 C 0.74021 -0.02365 0.24008
 C1735 C 0.74822 -0.03271 0.23435
 C1736 C 0.74311 -0.04387 0.22918
 H1737 H 0.71807 -0.09951 0.18852
 H1738 H 0.68887 -0.09943 0.21721
 H1739 H 0.67908 -0.11814 0.20752
 H1740 H 0.70845 -0.11822 0.17869
 H1741 H 0.71175 -0.03860 0.23569
 H1742 H 0.72070 -0.01900 0.24485
 H1743 H 0.75838 -0.03109 0.23379
 H1744 H 0.74940 -0.05075 0.22476
 C1745 C 0.20895 0.39661 0.19295
 C1746 C 0.20349 0.40204 0.20378
 C1747 C 0.19248 0.39669 0.20901
 C1748 C 0.18694 0.38595 0.20344
 C1749 C 0.19234 0.38038 0.19253
 C1750 C 0.20343 0.38588 0.18736
 C1751 C 0.20917 0.41313 0.20947
 C1752 C 0.21393 0.42246 0.21416
 C1753 C 0.21950 0.43342 0.21956
 C1754 C 0.22424 0.44284 0.22408
 C1755 C 0.22985 0.45416 0.22937
 C1756 C 0.22911 0.45650 0.24243
 C1757 C 0.23436 0.46762 0.24751
 C1758 C 0.24048 0.47649 0.23958
 C1759 C 0.24117 0.47409 0.22649
 C1760 C 0.23591 0.46297 0.22142
 H1761 H 0.21747 0.40069 0.18881
 H1762 H 0.18817 0.40083 0.21739
 H1763 H 0.17843 0.38208 0.20772
 H1764 H 0.20791 0.38193 0.17900
 H1765 H 0.22439 0.44978 0.24866
 H1766 H 0.23355 0.46938 0.25760
 H1767 H 0.24583 0.48081 0.22022
 H1768 H 0.23652 0.46126 0.21130
 C1769 C 0.19225 -0.10359 0.70920
 C1770 C 0.20323 -0.09810 0.70404
 C1771 C 0.20874 -0.10337 0.69316
 C1772 C 0.20333 -0.11410 0.68746
 C1773 C 0.19228 -0.11975 0.69256
 C1774 C 0.18681 -0.11433 0.70352
 C1775 C 0.20880 -0.08702 0.70988
 C1776 C 0.21346 -0.07773 0.71473
 C1777 C 0.21889 -0.06680 0.72034
 C1778 C 0.22351 -0.05742 0.72507
 C1779 C 0.22897 -0.04614 0.73062
 C1780 C 0.24208 -0.04390 0.72968
 C1781 C 0.24734 -0.03280 0.73480
 C1782 C 0.23954 -0.02385 0.74099
 C1783 C 0.22640 -0.02616 0.74189
 C1784 C 0.22115 -0.03726 0.73676
 H1785 H 0.18789 -0.09958 0.71761
 H1786 H 0.21724 -0.09918 0.68908
 H1787 H 0.20786 -0.11793 0.67907
 H1788 H 0.17833 -0.11832 0.70775
 H1789 H 0.24822 -0.05068 0.72490
 H1790 H 0.25747 -0.03112 0.73383
 H1791 H 0.22022 -0.01938 0.74661
 H1792 H 0.21099 -0.03888 0.73752
 C1793 C 0.30704 0.29084 0.39680
 C1794 C 0.29608 0.29624 0.40212
 C1795 C 0.29073 0.30715 0.39666
 C1796 C 0.29630 0.31266 0.38593
 C1797 C 0.30733 0.30733 0.38047
 C1798 C 0.31263 0.29633 0.38607
 C1799 C 0.29037 0.29062 0.41320
 C1800 C 0.28558 0.28597 0.42252
 C1801 C 0.28001 0.28058 0.43346
 C1802 C 0.27528 0.27603 0.44285
 C1803 C 0.26970 0.27068 0.45413
 C1804 C 0.26359 0.27862 0.46290
 C1805 C 0.25837 0.27348 0.47398
 C1806 C 0.25916 0.26032 0.47637
 C1807 C 0.26533 0.25241 0.46754
 C1808 C 0.27055 0.25756 0.45646
 H1809 H 0.31127 0.28239 0.40096
 H1810 H 0.28226 0.31142 0.40071
 H1811 H 0.29190 0.32109 0.38198
 H1812 H 0.32108 0.29191 0.38222
 H1813 H 0.26290 0.28878 0.46120
 H1814 H 0.25367 0.27974 0.48068
 H1815 H 0.26622 0.24227 0.46929
 H1816 H 0.27531 0.25134 0.44976
 C1817 C 0.29148 0.80713 -0.10317
 C1818 C 0.29677 0.79609 -0.09791
 C1819 C 0.30760 0.79064 -0.10343
 C1820 C 0.31312 0.79620 -0.11416
 C1821 C 0.30789 0.80733 -0.11955
 C1822 C 0.29698 0.81271 -0.11390
 C1823 C 0.29112 0.79041 -0.08683
 C1824 C 0.28637 0.78572 -0.07752
 C1825 C 0.28081 0.78032 -0.06657
 C1826 C 0.27609 0.77579 -0.05717
 C1827 C 0.27049 0.77048 -0.04588
 C1828 C 0.27131 0.75737 -0.04350
 C1829 C 0.26605 0.75226 -0.03242
 C1830 C 0.25985 0.76021 -0.02365
 C1831 C 0.25908 0.77336 -0.02608
 C1832 C 0.26435 0.77845 -0.03716
 H1833 H 0.28310 0.81144 -0.09897
 H1834 H 0.31178 0.78209 -0.09943
 H1835 H 0.32148 0.79173 -0.11817
 H1836 H 0.29264 0.82124 -0.11769
 H1837 H 0.27609 0.75112 -0.05016
 H1838 H 0.26692 0.74213 -0.03064
 H1839 H 0.25436 0.77965 -0.01943
 H1840 H 0.26368 0.78861 -0.03890
 C1841 C 0.80693 0.29130 -0.10329
 C1842 C 0.79598 0.29672 -0.09799
 C1843 C 0.79068 0.30766 -0.10342
 C1844 C 0.79628 0.31318 -0.11413
 C1845 C 0.80731 0.30783 -0.11958
 C1846 C 0.81256 0.29680 -0.11400
 C1847 C 0.79023 0.29109 -0.08693
 C1848 C 0.78542 0.28641 -0.07765
 C1849 C 0.77983 0.28098 -0.06674
 C1850 C 0.77511 0.27639 -0.05737
 C1851 C 0.76954 0.27096 -0.04612
 C1852 C 0.76336 0.27883 -0.03733
 C1853 C 0.75818 0.27361 -0.02627
 C1854 C 0.75907 0.26046 -0.02392
 C1855 C 0.76531 0.25262 -0.03277
 C1856 C 0.77048 0.25784 -0.04383
 H1857 H 0.81112 0.28283 -0.09915
 H1858 H 0.78220 0.31194 -0.09938
 H1859 H 0.79192 0.32164 -0.11807
 H1860 H 0.82101 0.29236 -0.11784
 H1861 H 0.76260 0.28899 -0.03900
 H1862 H 0.75343 0.27982 -0.01956
 H1863 H 0.76628 0.24248 -0.03105
 H1864 H 0.77530 0.25168 -0.05054
 C1865 C 0.79016 0.80766 0.39672
 C1866 C 0.79544 0.79671 0.40216
 C1867 C 0.80639 0.79128 0.39687
 C1868 C 0.81204 0.79678 0.38617
 C1869 C 0.80682 0.80781 0.38059
 C1870 C 0.79579 0.81318 0.38602
 C1871 C 0.78969 0.79109 0.41322
 C1872 C 0.78494 0.78639 0.42253
 C1873 C 0.77950 0.78090 0.43348
 C1874 C 0.77497 0.77624 0.44291
 C1875 C 0.76975 0.77068 0.45426
 C1876 C 0.77788 0.76515 0.46324
 C1877 C 0.77289 0.75989 0.47436
 C1878 C 0.75971 0.76006 0.47660
 C1879 C 0.75159 0.76567 0.46758
 C1880 C 0.75660 0.77092 0.45645
 H1881 H 0.78169 0.81196 0.40076
 H1882 H 0.81057 0.78281 0.40101
 H1883 H 0.82049 0.79233 0.38234
 H1884 H 0.79144 0.82164 0.38208
 H1885 H 0.78807 0.76494 0.46165
 H1886 H 0.77931 0.75562 0.48120
 H1887 H 0.74142 0.76605 0.46921
 H1888 H 0.75023 0.77523 0.44959
 C1889 C 0.70846 0.30670 0.60343
 C1890 C 0.70302 0.29578 0.59811
 C1891 C 0.69207 0.29051 0.60354
 C1892 C 0.68657 0.29613 0.61425
 C1893 C 0.69196 0.30713 0.61971
 C1894 C 0.70299 0.31234 0.61414
 C1895 C 0.70863 0.29003 0.58703
 C1896 C 0.71332 0.28529 0.57772
 C1897 C 0.71879 0.27983 0.56676
 C1898 C 0.72345 0.27528 0.55734
 C1899 C 0.72900 0.27002 0.54600
 C1900 C 0.72868 0.25685 0.54382
 C1901 C 0.73393 0.25180 0.53271
 C1902 C 0.73960 0.25988 0.52370
 C1903 C 0.73984 0.27308 0.52593
 C1904 C 0.73460 0.27811 0.53704
 H1905 H 0.71694 0.31087 0.59929
 H1906 H 0.68777 0.28206 0.59948
 H1907 H 0.67812 0.29180 0.61819
 H1908 H 0.70745 0.32077 0.61799
 H1909 H 0.72432 0.25050 0.55067
 H1910 H 0.73349 0.24162 0.53108
 H1911 H 0.74417 0.27947 0.51910
 H1912 H 0.73488 0.28831 0.53862
 C1913 C 0.70926 0.80729 1.10320
 C1914 C 0.70393 0.79635 1.09781
 C1915 C 0.69299 0.79098 1.10316
 C1916 C 0.68739 0.79651 1.11387
 C1917 C 0.69266 0.80753 1.11940
 C1918 C 0.70368 0.81284 1.11391
 C1919 C 0.70964 0.79070 1.08674
 C1920 C 0.71440 0.78602 1.07743
 C1921 C 0.71989 0.78059 1.06647
 C1922 C 0.72447 0.77598 1.05704
 C1923 C 0.72978 0.77050 1.04569
 C1924 C 0.72171 0.76501 1.03664
 C1925 C 0.72678 0.75981 1.02553
 C1926 C 0.73998 0.75999 1.02336
 C1927 C 0.74802 0.76557 1.03244
 C1928 C 0.74294 0.77076 1.04357
 H1929 H 0.71772 0.81154 1.09913
 H1930 H 0.68877 0.78251 1.09905
 H1931 H 0.67894 0.79210 1.11775
 H1932 H 0.70807 0.82129 1.11781
 H1933 H 0.71151 0.76477 1.03817
 H1934 H 0.72041 0.75556 1.01864
 H1935 H 0.75821 0.76597 1.03087
 H1936 H 0.74926 0.77504 1.05048
 C1937 C 0.19234 0.29109 1.10342
 C1938 C 0.20327 0.29645 1.09804
 C1939 C 0.20865 0.30736 1.10345
 C1940 C 0.20313 0.31290 1.11419
 C1941 C 0.19212 0.30760 1.11970
 C1942 C 0.18679 0.29661 1.11417
 C1943 C 0.20895 0.29081 1.08695
 C1944 C 0.21371 0.28614 1.07764
 C1945 C 0.21928 0.28075 1.06670
 C1946 C 0.22400 0.27621 1.05731
 C1947 C 0.22958 0.27086 1.04602
 C1948 C 0.23570 0.27880 1.03725
 C1949 C 0.24092 0.27366 1.02617
 C1950 C 0.24012 0.26051 1.02378
 C1951 C 0.23394 0.25260 1.03261
 C1952 C 0.22873 0.25775 1.04369
 H1953 H 0.18808 0.28264 1.09931
 H1954 H 0.21711 0.31159 1.09936
 H1955 H 0.20756 0.32132 1.11810
 H1956 H 0.17835 0.29221 1.11806
 H1957 H 0.23639 0.28896 1.03896
 H1958 H 0.24562 0.27992 1.01948
 H1959 H 0.23305 0.24247 1.03086
 H1960 H 0.22396 0.25153 1.05038
 C1961 C 0.19293 0.79122 0.60304
 C1962 C 0.20386 0.79657 0.59766
 C1963 C 0.20922 0.80751 0.60303
 C1964 C 0.20367 0.81308 0.61374
 C1965 C 0.19265 0.80778 0.61926
 C1966 C 0.18736 0.79676 0.61374
 C1967 C 0.20953 0.79086 0.58660
 C1968 C 0.21420 0.78607 0.57730
 C1969 C 0.21958 0.78048 0.56637
 C1970 C 0.22411 0.77573 0.55698
 C1971 C 0.22942 0.77013 0.54569
 C1972 C 0.24252 0.77095 0.54332
 C1973 C 0.24763 0.76572 0.53224
 C1974 C 0.23970 0.75954 0.52344
 C1975 C 0.22657 0.75878 0.52587
 C1976 C 0.22147 0.76402 0.53696
 H1977 H 0.18869 0.78275 0.59895
 H1978 H 0.21768 0.81174 0.59893
 H1979 H 0.20806 0.82153 0.61764
 H1980 H 0.17892 0.79236 0.61764
 H1981 H 0.24875 0.77571 0.54999
 H1982 H 0.25775 0.76659 0.53045
 H1983 H 0.22029 0.75407 0.51921
 H1984 H 0.21132 0.76335 0.53869
 C1985 C 0.29124 0.69268 0.60325
 C1986 C 0.29662 0.70361 0.59786
 C1987 C 0.30749 0.70901 0.60330
 C1988 C 0.31297 0.70352 0.61409
 C1989 C 0.30765 0.69251 0.61962
 C1990 C 0.29669 0.68717 0.61404
 C1991 C 0.29104 0.70925 0.58672
 C1992 C 0.28641 0.71399 0.57737
 C1993 C 0.28105 0.71952 0.56639
 C1994 C 0.27652 0.72421 0.55697
 C1995 C 0.27116 0.72975 0.54567
 C1996 C 0.27907 0.73584 0.53686
 C1997 C 0.27392 0.74103 0.52578
 C1998 C 0.26077 0.74024 0.52342
 C1999 C 0.25289 0.73408 0.53229
 C2000 C 0.25806 0.72890 0.54337
 H2001 H 0.28282 0.68841 0.59911
 H2002 H 0.31175 0.71746 0.59920
 H2003 H 0.32137 0.70796 0.61802
 H2004 H 0.29228 0.67873 0.61795
 H2005 H 0.28923 0.73654 0.53854
 H2006 H 0.28016 0.74573 0.51906
 H2007 H 0.24277 0.73319 0.53056
 H2008 H 0.25186 0.72415 0.55009
 C2009 C 0.30749 0.20900 1.10328
 C2010 C 0.29656 0.20359 1.09797
 C2011 C 0.29125 0.19266 1.10341
 C2012 C 0.29684 0.18714 1.11413
 C2013 C 0.30786 0.19249 1.11958
 C2014 C 0.31311 0.20350 1.11399
 C2015 C 0.29081 0.20922 1.08690
 C2016 C 0.28601 0.21387 1.07760
 C2017 C 0.28039 0.21925 1.06667
 C2018 C 0.27564 0.22379 1.05729
 C2019 C 0.27003 0.22913 1.04602
 C2020 C 0.26390 0.22118 1.03728
 C2021 C 0.25866 0.22630 1.02621
 C2022 C 0.25944 0.23945 1.02379
 C2023 C 0.26561 0.24738 1.03260
 C2024 C 0.27085 0.24224 1.04367
 H2025 H 0.31169 0.21746 1.09913
 H2026 H 0.28279 0.18839 1.09937
 H2027 H 0.29247 0.17870 1.11807
 H2028 H 0.32155 0.20794 1.11784
 H2029 H 0.26323 0.21102 1.03900
 H2030 H 0.25396 0.22003 1.01954
 H2031 H 0.26649 0.25751 1.03082
 H2032 H 0.27562 0.24847 1.05034
 C2033 C 0.79046 0.69222 1.10349
 C2034 C 0.79569 0.70317 1.09799
 C2035 C 0.80659 0.70866 1.10327
 C2036 C 0.81226 0.70324 1.11399
 C2037 C 0.80710 0.69221 1.11963
 C2038 C 0.79610 0.68678 1.11421
 C2039 C 0.78993 0.70872 1.08689
 C2040 C 0.78519 0.71336 1.07755
 C2041 C 0.77976 0.71881 1.06657
 C2042 C 0.77524 0.72345 1.05712
 C2043 C 0.77002 0.72897 1.04575
 C2044 C 0.77814 0.73454 1.03679
 C2045 C 0.77315 0.73978 1.02566
 C2046 C 0.75998 0.73956 1.02339
 C2047 C 0.75187 0.73392 1.03239
 C2048 C 0.75687 0.72868 1.04354
 H2049 H 0.78202 0.68788 1.09947
 H2050 H 0.81074 0.71713 1.09908
 H2051 H 0.82068 0.70775 1.11781
 H2052 H 0.79180 0.67832 1.11820
 H2053 H 0.78832 0.73481 1.03840
 H2054 H 0.77956 0.74409 1.01884
 H2055 H 0.74170 0.73350 1.03075
 H2056 H 0.75050 0.72436 1.05038
 C2057 C 0.79123 0.19296 0.60346
 C2058 C 0.79659 0.20391 0.59810
 C2059 C 0.80754 0.20922 0.60346
 C2060 C 0.81312 0.20362 0.61414
 C2061 C 0.80782 0.19258 0.61964
 C2062 C 0.79678 0.18733 0.61414
 C2063 C 0.79092 0.20965 0.58706
 C2064 C 0.78621 0.21440 0.57776
 C2065 C 0.78072 0.21988 0.56682
 C2066 C 0.77607 0.22444 0.55740
 C2067 C 0.77053 0.22971 0.54606
 C2068 C 0.77085 0.24288 0.54387
 C2069 C 0.76563 0.24793 0.53274
 C2070 C 0.75998 0.23984 0.52373
 C2071 C 0.75973 0.22664 0.52598
 C2072 C 0.76496 0.22162 0.53710
 H2073 H 0.78275 0.18875 0.59937
 H2074 H 0.81179 0.21769 0.59938
 H2075 H 0.82158 0.20799 0.61802
 H2076 H 0.79238 0.17887 0.61802
 H2077 H 0.77519 0.24923 0.55072
 H2078 H 0.76607 0.25811 0.53110
 H2079 H 0.75543 0.22026 0.51915
 H2080 H 0.76468 0.21141 0.53869
 C2081 C 0.69320 0.70875 0.39667
 C2082 C 0.70411 0.70329 0.40200
 C2083 C 0.70942 0.69236 0.39655
 C2084 C 0.70385 0.68689 0.38580
 C2085 C 0.69285 0.69229 0.38033
 C2086 C 0.68760 0.70330 0.38592
 C2087 C 0.70981 0.70886 0.41311
 C2088 C 0.71452 0.71351 0.42245
 C2089 C 0.71994 0.71894 0.43345
 C2090 C 0.72446 0.72355 0.44290
 C2091 C 0.72970 0.72904 0.45427
 C2092 C 0.72159 0.73455 0.46328
 C2093 C 0.72660 0.73977 0.47440
 C2094 C 0.73979 0.73958 0.47661
 C2095 C 0.74789 0.73400 0.46756
 C2096 C 0.74286 0.72878 0.45642
 H2097 H 0.68899 0.71721 0.40082
 H2098 H 0.71786 0.68804 0.40061
 H2099 H 0.70821 0.67845 0.38185
 H2100 H 0.67917 0.70777 0.38206
 H2101 H 0.71140 0.73479 0.46172
 H2102 H 0.72021 0.74403 0.48126
 H2103 H 0.75806 0.73360 0.46916
 H2104 H 0.74922 0.72450 0.44954
 C2105 C 0.69238 0.20875 -0.10363
 C2106 C 0.70333 0.20339 -0.09827
 C2107 C 0.70872 0.19248 -0.10368
 C2108 C 0.70320 0.18693 -0.11440
 C2109 C 0.69217 0.19223 -0.11991
 C2110 C 0.68684 0.20322 -0.11436
 C2111 C 0.70899 0.20903 -0.08718
 C2112 C 0.71373 0.21370 -0.07786
 C2113 C 0.71926 0.21908 -0.06690
 C2114 C 0.72395 0.22361 -0.05749
 C2115 C 0.72948 0.22894 -0.04619
 C2116 C 0.73570 0.22101 -0.03749
 C2117 C 0.74089 0.22612 -0.02639
 C2118 C 0.73996 0.23925 -0.02392
 C2119 C 0.73368 0.24716 -0.03268
 C2120 C 0.72850 0.24203 -0.04378
 H2121 H 0.68811 0.21720 -0.09951
 H2122 H 0.71719 0.18824 -0.09960
 H2123 H 0.70763 0.17851 -0.11832
 H2124 H 0.67838 0.20762 -0.11824
 H2125 H 0.73650 0.21086 -0.03925
 H2126 H 0.74568 0.21986 -0.01975
 H2127 H 0.73269 0.25728 -0.03087
 H2128 H 0.72366 0.24825 -0.05042
 C2129 C 0.19295 0.70872 -0.10328
 C2130 C 0.20389 0.70329 -0.09798
 C2131 C 0.20921 0.69237 -0.10345
 C2132 C 0.20363 0.68689 -0.11418
 C2133 C 0.19261 0.69226 -0.11962
 C2134 C 0.18735 0.70326 -0.11401
 C2135 C 0.20961 0.70887 -0.08689
 C2136 C 0.21437 0.71351 -0.07757
 C2137 C 0.21990 0.71889 -0.06661
 C2138 C 0.22458 0.72344 -0.05721
 C2139 C 0.23009 0.72880 -0.04591
 C2140 C 0.23611 0.72086 -0.03706
 C2141 C 0.24127 0.72602 -0.02597
 C2142 C 0.24052 0.73918 -0.02365
 C2143 C 0.23444 0.74709 -0.03255
 C2144 C 0.22929 0.74193 -0.04364
 H2145 H 0.18874 0.71717 -0.09911
 H2146 H 0.21768 0.68808 -0.09941
 H2147 H 0.20801 0.67846 -0.11814
 H2148 H 0.17890 0.70772 -0.11785
 H2149 H 0.23676 0.71069 -0.03871
 H2150 H 0.24590 0.71975 -0.01923
 H2151 H 0.23358 0.75724 -0.03085
 H2152 H 0.22460 0.74815 -0.05039
 C2153 C 0.20869 0.19255 0.39655
 C2154 C 0.20330 0.20346 0.40198
 C2155 C 0.19237 0.20885 0.39662
 C2156 C 0.18684 0.20336 0.38586
 C2157 C 0.19216 0.19237 0.38029
 C2158 C 0.20318 0.18705 0.38579
 C2159 C 0.20895 0.20906 0.41309
 C2160 C 0.21369 0.21370 0.42243
 C2161 C 0.21921 0.21907 0.43340
 C2162 C 0.22389 0.22360 0.44282
 C2163 C 0.22941 0.22894 0.45412
 C2164 C 0.22852 0.24204 0.45648
 C2165 C 0.23370 0.24718 0.46757
 C2166 C 0.23988 0.23926 0.47639
 C2167 C 0.24072 0.22611 0.47398
 C2168 C 0.23553 0.22099 0.46289
 H2169 H 0.21715 0.18829 0.40063
 H2170 H 0.18811 0.21729 0.40075
 H2171 H 0.17839 0.20778 0.38197
 H2172 H 0.20761 0.17863 0.38186
 H2173 H 0.22375 0.24827 0.44979
 H2174 H 0.23278 0.25731 0.46934
 H2175 H 0.24543 0.21985 0.48067
 H2176 H 0.23626 0.21083 0.46117
 C2177 C 0.30671 0.39602 0.70877
 C2178 C 0.29580 0.40148 0.70345
 C2179 C 0.29050 0.39620 0.69248
 C2180 C 0.29608 0.38551 0.68684
 C2181 C 0.30709 0.37992 0.69208
 C2182 C 0.31232 0.38532 0.70315
 C2183 C 0.29011 0.41258 0.70914
 C2184 C 0.28540 0.42193 0.71386
 C2185 C 0.27996 0.43295 0.71931
 C2186 C 0.27543 0.44244 0.72393
 C2187 C 0.27018 0.45387 0.72940
 C2188 C 0.25702 0.45606 0.72910
 C2189 C 0.25199 0.46727 0.73426
 C2190 C 0.26007 0.47635 0.73984
 C2191 C 0.27325 0.47410 0.74006
 C2192 C 0.27827 0.46290 0.73489
 H2193 H 0.31091 0.40004 0.71726
 H2194 H 0.28205 0.40036 0.68826
 H2195 H 0.29174 0.38171 0.67835
 H2196 H 0.32075 0.38135 0.70752
 H2197 H 0.25068 0.44916 0.72482
 H2198 H 0.24181 0.46890 0.73384
 H2199 H 0.27964 0.48098 0.74431
 H2200 H 0.28846 0.46131 0.73515
 C2201 C 0.30679 0.89584 0.20891
 C2202 C 0.29608 0.90149 0.20338
 C2203 C 0.29101 0.89640 0.19222
 C2204 C 0.29662 0.88572 0.18659
 C2205 C 0.30743 0.87995 0.19205
 C2206 C 0.31243 0.88515 0.20331
 C2207 C 0.29036 0.91258 0.20906
 C2208 C 0.28562 0.92193 0.21375
 C2209 C 0.28014 0.93294 0.21919
 C2210 C 0.27558 0.94242 0.22379
 C2211 C 0.27032 0.95385 0.22924
 C2212 C 0.25717 0.95608 0.22885
 C2213 C 0.25213 0.96729 0.23400
 C2214 C 0.26020 0.97634 0.23965
 C2215 C 0.27338 0.97405 0.23996
 C2216 C 0.27840 0.96285 0.23481
 H2217 H 0.31081 0.89971 0.21756
 H2218 H 0.28273 0.90072 0.18783
 H2219 H 0.29247 0.88209 0.17794
 H2220 H 0.32069 0.88102 0.20785
 H2221 H 0.25084 0.94921 0.22451
 H2222 H 0.24196 0.96896 0.23351
 H2223 H 0.27975 0.98090 0.24427
 H2224 H 0.28859 0.96123 0.23514
 C2225 C 0.80705 0.39632 0.20819
 C2226 C 0.79606 0.40170 0.20294
 C2227 C 0.79065 0.39631 0.19208
 C2228 C 0.79619 0.38557 0.18648
 C2229 C 0.80726 0.38004 0.19167
 C2230 C 0.81262 0.38557 0.20261
 C2231 C 0.79039 0.41281 0.20864
 C2232 C 0.78567 0.42214 0.21336
 C2233 C 0.78022 0.43314 0.21886
 C2234 C 0.77567 0.44259 0.22352
 C2235 C 0.77040 0.45398 0.22905
 C2236 C 0.75726 0.45624 0.22859
 C2237 C 0.75221 0.46741 0.23381
 C2238 C 0.76025 0.47639 0.23960
 C2239 C 0.77342 0.47406 0.23999
 C2240 C 0.77846 0.46290 0.23477
 H2241 H 0.81134 0.40043 0.21659
 H2242 H 0.78214 0.40041 0.18793
 H2243 H 0.79173 0.38166 0.17811
 H2244 H 0.82111 0.38167 0.20691
 H2245 H 0.75094 0.44942 0.22414
 H2246 H 0.74205 0.46911 0.23326
 H2247 H 0.77978 0.48087 0.24441
 H2248 H 0.78864 0.46126 0.23516
 C2249 C 0.80636 0.89642 0.70837
 C2250 C 0.79548 0.90185 0.70296
 C2251 C 0.79027 0.89655 0.69195
 C2252 C 0.79593 0.88588 0.68635
 C2253 C 0.80692 0.88032 0.69169
 C2254 C 0.81205 0.88574 0.70279
 C2255 C 0.78973 0.91292 0.70864
 C2256 C 0.78499 0.92224 0.71338
 C2257 C 0.77956 0.93323 0.71890
 C2258 C 0.77506 0.94269 0.72360
 C2259 C 0.76986 0.95408 0.72917
 C2260 C 0.75671 0.95630 0.72898
 C2261 C 0.75173 0.96749 0.73424
 C2262 C 0.75987 0.97652 0.73981
 C2263 C 0.77305 0.97424 0.73993
 C2264 C 0.77801 0.96307 0.73466
 H2265 H 0.81048 0.90045 0.71689
 H2266 H 0.78185 0.90069 0.68768
 H2267 H 0.79167 0.88206 0.67783
 H2268 H 0.82045 0.88179 0.70723
 H2269 H 0.75032 0.94943 0.72471
 H2270 H 0.74156 0.96914 0.73390
 H2271 H 0.77948 0.98109 0.74417
 H2272 H 0.78820 0.96146 0.73484
 C2273 C 0.70885 0.60333 0.69282
 C2274 C 0.70345 0.59794 0.70370
 C2275 C 0.69250 0.60336 0.70899
 C2276 C 0.68696 0.61413 0.70344
 C2277 C 0.69231 0.61966 0.69248
 C2278 C 0.70334 0.61410 0.68725
 C2279 C 0.70914 0.58683 0.70938
 C2280 C 0.71391 0.57749 0.71407
 C2281 C 0.71949 0.56652 0.71948
 C2282 C 0.72423 0.55709 0.72402
 C2283 C 0.72984 0.54577 0.72936
 C2284 C 0.72901 0.54342 0.74241
 C2285 C 0.73425 0.53230 0.74753
 C2286 C 0.74044 0.52344 0.73965
 C2287 C 0.74122 0.52584 0.72657
 C2288 C 0.73597 0.53697 0.72145
 H2289 H 0.71734 0.59921 0.68864
 H2290 H 0.68822 0.59925 0.71741
 H2291 H 0.67849 0.61805 0.70777
 H2292 H 0.70779 0.61801 0.67886
 H2293 H 0.72423 0.55014 0.74860
 H2294 H 0.73337 0.53053 0.75762
 H2295 H 0.74594 0.51913 0.72033
 H2296 H 0.73665 0.53868 0.71134
 C2297 C 0.70875 0.10335 0.19338
 C2298 C 0.70337 0.09825 0.20441
 C2299 C 0.69247 0.10386 0.20963
 C2300 C 0.68696 0.11452 0.20384
 C2301 C 0.69228 0.11974 0.19271
 C2302 C 0.70326 0.11400 0.18757
 C2303 C 0.70895 0.08720 0.21029
 C2304 C 0.71363 0.07788 0.21511
 C2305 C 0.71910 0.06689 0.22061
 C2306 C 0.72376 0.05743 0.22514
 C2307 C 0.72931 0.04602 0.23033
 C2308 C 0.72929 0.04390 0.24345
 C2309 C 0.73456 0.03271 0.24842
 C2310 C 0.73998 0.02357 0.24029
 C2311 C 0.73993 0.02574 0.22714
 C2312 C 0.73465 0.03692 0.22220
 H2313 H 0.71718 0.09907 0.18925
 H2314 H 0.68822 0.09998 0.21816
 H2315 H 0.67856 0.11861 0.20814
 H2316 H 0.70765 0.11766 0.17904
 H2317 H 0.72514 0.05086 0.24983
 H2318 H 0.73435 0.03114 0.25857
 H2319 H 0.74405 0.01881 0.22073
 H2320 H 0.73470 0.03845 0.21203
 C2321 C 0.20892 0.60359 0.19278
 C2322 C 0.20337 0.59808 0.20352
 C2323 C 0.19223 0.60331 0.20860
 C2324 C 0.18666 0.61402 0.20298
 C2325 C 0.19216 0.61968 0.19217
 C2326 C 0.20337 0.61431 0.18714
 C2327 C 0.20908 0.58701 0.20926
 C2328 C 0.21389 0.57771 0.21398
 C2329 C 0.21950 0.56676 0.21941
 C2330 C 0.22426 0.55735 0.22395
 C2331 C 0.22990 0.54604 0.22926
 C2332 C 0.22924 0.54376 0.24233
 C2333 C 0.23450 0.53263 0.24743
 C2334 C 0.24054 0.52370 0.23951
 C2335 C 0.24114 0.52605 0.22640
 C2336 C 0.23588 0.53717 0.22131
 H2337 H 0.21754 0.59961 0.18875
 H2338 H 0.18784 0.59909 0.21691
 H2339 H 0.17804 0.61780 0.20715
 H2340 H 0.20794 0.61832 0.17886
 H2341 H 0.22458 0.55052 0.24856
 H2342 H 0.23375 0.53091 0.25754
 H2343 H 0.24573 0.51928 0.22012
 H2344 H 0.23641 0.53883 0.21118
 C2345 C 0.20921 0.10314 0.69276
 C2346 C 0.20378 0.09778 0.70363
 C2347 C 0.19276 0.10314 0.70883
 C2348 C 0.18716 0.11383 0.70318
 C2349 C 0.19252 0.11932 0.69221
 C2350 C 0.20363 0.11383 0.68708
 C2351 C 0.20945 0.08671 0.70941
 C2352 C 0.21413 0.07740 0.71424
 C2353 C 0.21953 0.06645 0.71986
 C2354 C 0.22408 0.05704 0.72461
 C2355 C 0.22942 0.04572 0.73020
 C2356 C 0.22150 0.03697 0.73639
 C2357 C 0.22662 0.02584 0.74161
 C2358 C 0.23975 0.02337 0.74074
 C2359 C 0.24765 0.03218 0.73450
 C2360 C 0.24251 0.04332 0.72929
 H2361 H 0.21774 0.09905 0.68864
 H2362 H 0.18846 0.09906 0.71725
 H2363 H 0.17865 0.11772 0.70746
 H2364 H 0.20807 0.11771 0.67867
 H2365 H 0.21136 0.03873 0.73713
 H2366 H 0.22037 0.01916 0.74637
 H2367 H 0.25776 0.03037 0.73355
 H2368 H 0.24872 0.04999 0.72447
 C2369 C 0.30825 0.60356 0.29070
 C2370 C 0.29716 0.59822 0.29578
 C2371 C 0.29158 0.60366 0.30654
 C2372 C 0.29704 0.61438 0.31222
 C2373 C 0.30822 0.61984 0.30721
 C2374 C 0.31375 0.61428 0.29636
 C2375 C 0.29155 0.58712 0.29005
 C2376 C 0.28679 0.57778 0.28537
 C2377 C 0.28120 0.56680 0.28003
 C2378 C 0.27644 0.55737 0.27556
 C2379 C 0.27079 0.54603 0.27034
 C2380 C 0.26473 0.53727 0.27835
 C2381 C 0.25943 0.52614 0.27334
 C2382 C 0.26007 0.52368 0.26026
 C2383 C 0.26619 0.53250 0.25227
 C2384 C 0.27149 0.54363 0.25729
 H2385 H 0.31267 0.59941 0.28238
 H2386 H 0.28300 0.59960 0.31057
 H2387 H 0.29246 0.61830 0.32052
 H2388 H 0.32232 0.61815 0.29219
 H2389 H 0.26415 0.53902 0.28846
 H2390 H 0.25477 0.51946 0.27966
 H2391 H 0.26697 0.53069 0.24219
 H2392 H 0.27621 0.55031 0.25102
 C2393 C 0.29134 0.10320 0.80740
 C2394 C 0.29685 0.09789 0.79655
 C2395 C 0.30778 0.10341 0.79133
 C2396 C 0.31318 0.11420 0.79693
 C2397 C 0.30772 0.11966 0.80786
 C2398 C 0.29671 0.11399 0.81303
 C2399 C 0.29133 0.08675 0.79079
 C2400 C 0.28672 0.07740 0.78598
 C2401 C 0.28136 0.06642 0.78041
 C2402 C 0.27681 0.05700 0.77570
 C2403 C 0.27141 0.04568 0.77017
 C2404 C 0.27929 0.03684 0.76404
 C2405 C 0.27409 0.02572 0.75889
 C2406 C 0.26096 0.02336 0.75977
 C2407 C 0.25311 0.03227 0.76595
 C2408 C 0.25831 0.04339 0.77109
 H2409 H 0.28287 0.09899 0.81153
 H2410 H 0.31214 0.09936 0.78292
 H2411 H 0.32163 0.11820 0.79264
 H2412 H 0.29219 0.11785 0.82140
 H2413 H 0.28944 0.03851 0.76329
 H2414 H 0.28031 0.01897 0.75418
 H2415 H 0.24299 0.03055 0.76690
 H2416 H 0.25214 0.05014 0.77586
 C2417 C 0.80748 0.60328 0.79131
 C2418 C 0.79647 0.59795 0.79656
 C2419 C 0.79101 0.60342 0.80737
 C2420 C 0.79654 0.61417 0.81293
 C2421 C 0.80763 0.61964 0.80775
 C2422 C 0.81303 0.61404 0.79685
 C2423 C 0.79080 0.58684 0.79090
 C2424 C 0.78605 0.57750 0.78622
 C2425 C 0.78051 0.56652 0.78081
 C2426 C 0.77580 0.55710 0.77626
 C2427 C 0.77024 0.54577 0.77092
 C2428 C 0.76413 0.53695 0.77882
 C2429 C 0.75893 0.52583 0.77370
 C2430 C 0.75973 0.52343 0.76062
 C2431 C 0.76590 0.53231 0.75274
 C2432 C 0.77110 0.54344 0.75787
 H2433 H 0.81179 0.59911 0.78294
 H2434 H 0.78249 0.59936 0.81152
 H2435 H 0.79206 0.61814 0.82127
 H2436 H 0.82154 0.61789 0.79255
 H2437 H 0.76343 0.53866 0.78893
 H2438 H 0.75422 0.51910 0.77993
 H2439 H 0.76679 0.53056 0.74266
 H2440 H 0.77586 0.55017 0.75168
 C2441 C 0.79181 0.10339 0.30644
 C2442 C 0.79725 0.09833 0.29542
 C2443 C 0.80811 0.10400 0.29023
 C2444 C 0.81353 0.11468 0.29603
 C2445 C 0.80816 0.11986 0.30714
 C2446 C 0.79721 0.11406 0.31226
 C2447 C 0.79174 0.08724 0.28955
 C2448 C 0.78710 0.07791 0.28476
 C2449 C 0.78166 0.06690 0.27931
 C2450 C 0.77701 0.05742 0.27482
 C2451 C 0.77145 0.04600 0.26968
 C2452 C 0.77150 0.04382 0.25657
 C2453 C 0.76621 0.03263 0.25166
 C2454 C 0.76075 0.02355 0.25982
 C2455 C 0.76079 0.02578 0.27295
 C2456 C 0.76608 0.03696 0.27785
 H2457 H 0.78340 0.09906 0.31056
 H2458 H 0.81241 0.10015 0.28170
 H2459 H 0.82192 0.11883 0.29175
 H2460 H 0.79277 0.11768 0.32078
 H2461 H 0.77568 0.05074 0.25017
 H2462 H 0.76644 0.03102 0.24151
 H2463 H 0.75663 0.01889 0.27940
 H2464 H 0.76600 0.03853 0.28801
 C2465 C 0.69277 0.39642 0.29094
 C2466 C 0.70386 0.40172 0.29605
 C2467 C 0.70935 0.39630 0.30686
 C2468 C 0.70379 0.38564 0.31257
 C2469 C 0.69261 0.38021 0.30753
 C2470 C 0.68719 0.38575 0.29662
 C2471 C 0.70954 0.41278 0.29028
 C2472 C 0.71427 0.42210 0.28553
 C2473 C 0.71976 0.43307 0.28005
 C2474 C 0.72436 0.44252 0.27544
 C2475 C 0.72971 0.45390 0.26999
 C2476 C 0.74287 0.45603 0.27044
 C2477 C 0.74800 0.46722 0.26534
 C2478 C 0.74002 0.47634 0.25967
 C2479 C 0.72683 0.47415 0.25928
 C2480 C 0.72171 0.46298 0.26439
 H2481 H 0.68843 0.40055 0.28256
 H2482 H 0.71792 0.40034 0.31092
 H2483 H 0.70829 0.38172 0.32093
 H2484 H 0.67862 0.38191 0.29242
 H2485 H 0.74914 0.44910 0.27481
 H2486 H 0.75817 0.46880 0.26589
 H2487 H 0.72052 0.48108 0.25495
 H2488 H 0.71152 0.46144 0.26400
 C2489 C 0.70945 0.89630 0.80753
 C2490 C 0.70405 0.90181 0.79671
 C2491 C 0.69298 0.89657 0.79149
 C2492 C 0.68734 0.88587 0.79706
 C2493 C 0.69268 0.88024 0.80797
 C2494 C 0.70383 0.88560 0.81312
 C2495 C 0.70978 0.91289 0.79104
 C2496 C 0.71453 0.92223 0.78633
 C2497 C 0.72000 0.93322 0.78086
 C2498 C 0.72455 0.94268 0.77622
 C2499 C 0.72982 0.95408 0.77071
 C2500 C 0.72173 0.96317 0.76527
 C2501 C 0.72677 0.97434 0.76008
 C2502 C 0.73996 0.97652 0.76022
 C2503 C 0.74804 0.96738 0.76574
 C2504 C 0.74299 0.95619 0.77093
 H2505 H 0.71801 0.90029 0.81166
 H2506 H 0.68870 0.90077 0.78312
 H2507 H 0.67879 0.88209 0.79277
 H2508 H 0.70827 0.88161 0.82148
 H2509 H 0.71153 0.96164 0.76507
 H2510 H 0.72038 0.98127 0.75587
 H2511 H 0.75822 0.96895 0.76611
 H2512 H 0.74933 0.94924 0.77517
 C2513 C 0.19319 0.39651 0.79159
 C2514 C 0.20415 0.40185 0.79692
 C2515 C 0.20946 0.39644 0.80783
 C2516 C 0.20386 0.38572 0.81340
 C2517 C 0.19282 0.38024 0.80813
 C2518 C 0.18756 0.38579 0.79714
 C2519 C 0.20989 0.41292 0.79125
 C2520 C 0.21464 0.42223 0.78651
 C2521 C 0.22011 0.43320 0.78099
 C2522 C 0.22466 0.44263 0.77630
 C2523 C 0.22992 0.45400 0.77073
 C2524 C 0.24307 0.45617 0.77103
 C2525 C 0.24812 0.46733 0.76578
 C2526 C 0.24004 0.47638 0.76012
 C2527 C 0.22686 0.47415 0.75988
 C2528 C 0.22183 0.46300 0.76513
 H2529 H 0.18899 0.40063 0.78315
 H2530 H 0.21794 0.40051 0.81205
 H2531 H 0.20823 0.38179 0.82182
 H2532 H 0.17910 0.38192 0.79277
 H2533 H 0.24941 0.44928 0.77538
 H2534 H 0.25829 0.46895 0.76621
 H2535 H 0.22048 0.48101 0.75557
 H2536 H 0.21164 0.46142 0.76486
 C2537 C 0.19300 0.89648 0.29116
 C2538 C 0.20398 0.90183 0.29643
 C2539 C 0.20937 0.89642 0.30730
 C2540 C 0.20381 0.88570 0.31290
 C2541 C 0.19274 0.88021 0.30770
 C2542 C 0.18741 0.88576 0.29674
 C2543 C 0.20968 0.91292 0.29072
 C2544 C 0.21442 0.92224 0.28599
 C2545 C 0.21989 0.93322 0.28049
 C2546 C 0.22448 0.94266 0.27583
 C2547 C 0.22981 0.95402 0.27033
 C2548 C 0.24297 0.95613 0.27067
 C2549 C 0.24808 0.96729 0.26549
 C2550 C 0.24007 0.97640 0.25984
 C2551 C 0.22688 0.97424 0.25956
 C2552 C 0.22178 0.96310 0.26475
 H2553 H 0.18873 0.90061 0.28275
 H2554 H 0.21787 0.90050 0.31146
 H2555 H 0.20824 0.88177 0.32129
 H2556 H 0.17892 0.88188 0.29243
 H2557 H 0.24926 0.94920 0.27501
 H2558 H 0.25826 0.96886 0.26596
 H2559 H 0.22055 0.98116 0.25527
 H2560 H 0.21158 0.96157 0.26445
 C2561 C 0.39583 0.30691 0.70899
 C2562 C 0.40132 0.29599 0.70369
 C2563 C 0.39608 0.29065 0.69272
 C2564 C 0.38540 0.29622 0.68705
 C2565 C 0.37979 0.30724 0.69226
 C2566 C 0.38514 0.31250 0.70333
 C2567 C 0.41240 0.29032 0.70942
 C2568 C 0.42174 0.28560 0.71415
 C2569 C 0.43274 0.28014 0.71960
 C2570 C 0.44221 0.27557 0.72420
 C2571 C 0.45361 0.27026 0.72964
 C2572 C 0.45585 0.25710 0.72912
 C2573 C 0.46705 0.25201 0.73423
 C2574 C 0.47607 0.26003 0.73997
 C2575 C 0.47377 0.27322 0.74043
 C2576 C 0.46259 0.27829 0.73532
 H2577 H 0.39982 0.31113 0.71748
 H2578 H 0.40026 0.28220 0.68853
 H2579 H 0.38164 0.29185 0.67856
 H2580 H 0.38115 0.32093 0.70768
 H2581 H 0.44900 0.25081 0.72470
 H2582 H 0.46872 0.24184 0.73363
 H2583 H 0.48061 0.27956 0.74481
 H2584 H 0.46096 0.28849 0.73576
 C2585 C 0.39668 0.79093 0.19250
 C2586 C 0.40172 0.79606 0.20365
 C2587 C 0.39603 0.80679 0.20913
 C2588 C 0.38535 0.81238 0.20348
 C2589 C 0.38019 0.80731 0.19223
 C2590 C 0.38601 0.79649 0.18682
 C2591 C 0.41282 0.79041 0.20938
 C2592 C 0.42216 0.78570 0.21409
 C2593 C 0.43318 0.78027 0.21954
 C2594 C 0.44267 0.77573 0.22414
 C2595 C 0.45409 0.77047 0.22957
 C2596 C 0.46314 0.77856 0.23505
 C2597 C 0.47434 0.77353 0.24018
 C2598 C 0.47658 0.76033 0.23994
 C2599 C 0.46750 0.75225 0.23437
 C2600 C 0.45629 0.75730 0.22925
 H2601 H 0.40103 0.78264 0.18815
 H2602 H 0.39987 0.81086 0.21777
 H2603 H 0.38118 0.82064 0.20798
 H2604 H 0.38241 0.79229 0.17818
 H2605 H 0.46155 0.78877 0.23533
 H2606 H 0.48122 0.77991 0.24442
 H2607 H 0.46913 0.74206 0.23393
 H2608 H 0.44938 0.75096 0.22497
 C2609 C 0.89626 0.29077 0.19233
 C2610 C 0.90161 0.29623 0.20319
 C2611 C 0.89619 0.30723 0.20840
 C2612 C 0.88546 0.31276 0.20278
 C2613 C 0.87998 0.30736 0.19184
 C2614 C 0.88554 0.29628 0.18669
 C2615 C 0.91269 0.29058 0.20894
 C2616 C 0.92201 0.28587 0.21371
 C2617 C 0.93298 0.28043 0.21924
 C2618 C 0.94241 0.27586 0.22392
 C2619 C 0.95376 0.27055 0.22945
 C2620 C 0.96279 0.27861 0.23503
 C2621 C 0.97393 0.27353 0.24023
 C2622 C 0.97614 0.26032 0.23997
 C2623 C 0.96707 0.25228 0.23432
 C2624 C 0.95592 0.25738 0.22912
 H2625 H 0.90039 0.28226 0.18821
 H2626 H 0.90026 0.31154 0.21681
 H2627 H 0.88153 0.32127 0.20705
 H2628 H 0.88167 0.29180 0.17831
 H2629 H 0.96123 0.28882 0.23532
 H2630 H 0.98081 0.27989 0.24453
 H2631 H 0.96867 0.24209 0.23387
 H2632 H 0.94903 0.25106 0.22478
 C2633 C 0.89590 0.80820 0.70971
 C2634 C 0.90156 0.79730 0.70454
 C2635 C 0.89648 0.79183 0.69356
 C2636 C 0.88581 0.79724 0.68774
 C2637 C 0.88003 0.80824 0.69282
 C2638 C 0.88523 0.81364 0.70391
 C2639 C 0.91264 0.79179 0.71042
 C2640 C 0.92198 0.78715 0.71521
 C2641 C 0.93299 0.78170 0.72066
 C2642 C 0.94247 0.77704 0.72514
 C2643 C 0.95389 0.77147 0.73027
 C2644 C 0.96292 0.76610 0.72209
 C2645 C 0.97410 0.76080 0.72698
 C2646 C 0.97634 0.76076 0.74012
 C2647 C 0.96727 0.76622 0.74828
 C2648 C 0.95607 0.77152 0.74338
 H2649 H 0.89977 0.81252 0.71821
 H2650 H 0.90079 0.78340 0.68947
 H2651 H 0.88217 0.79278 0.67924
 H2652 H 0.88110 0.82206 0.70816
 H2653 H 0.96133 0.76603 0.71194
 H2654 H 0.98098 0.75664 0.72053
 H2655 H 0.96889 0.76644 0.75843
 H2656 H 0.94917 0.77569 0.74979
 C2657 C 0.60375 0.29111 0.30719
 C2658 C 0.59835 0.29667 0.29640
 C2659 C 0.60371 0.30772 0.29127
 C2660 C 0.61444 0.31322 0.29690
 C2661 C 0.61997 0.30773 0.30779
 C2662 C 0.61447 0.29658 0.31285
 C2663 C 0.58724 0.29109 0.29065
 C2664 C 0.57791 0.28646 0.28588
 C2665 C 0.56692 0.28107 0.28034
 C2666 C 0.55749 0.27651 0.27567
 C2667 C 0.54617 0.27112 0.27018
 C2668 C 0.53737 0.27901 0.26401
 C2669 C 0.52624 0.27383 0.25888
 C2670 C 0.52384 0.26069 0.25982
 C2671 C 0.53270 0.25283 0.26605
 C2672 C 0.54382 0.25802 0.27117
 H2673 H 0.59966 0.28255 0.31126
 H2674 H 0.59960 0.31212 0.28291
 H2675 H 0.61832 0.32177 0.29268
 H2676 H 0.61838 0.29204 0.32119
 H2677 H 0.53907 0.28916 0.26320
 H2678 H 0.51953 0.28005 0.25413
 H2679 H 0.53094 0.24271 0.26705
 H2680 H 0.55054 0.25185 0.27598
 C2681 C 0.60330 0.80819 0.79091
 C2682 C 0.59792 0.79713 0.79603
 C2683 C 0.60332 0.79154 0.80680
 C2684 C 0.61404 0.79698 0.81246
 C2685 C 0.61955 0.80813 0.80743
 C2686 C 0.61403 0.81366 0.79656
 C2687 C 0.58682 0.79153 0.79030
 C2688 C 0.57748 0.78679 0.78562
 C2689 C 0.56651 0.78121 0.78027
 C2690 C 0.55708 0.77645 0.77580
 C2691 C 0.54575 0.77082 0.77058
 C2692 C 0.53694 0.76486 0.77859
 C2693 C 0.52582 0.75957 0.77357
 C2694 C 0.52343 0.76014 0.76047
 C2695 C 0.53230 0.76616 0.75248
 C2696 C 0.54343 0.77143 0.75751
 H2697 H 0.59918 0.81261 0.78257
 H2698 H 0.59922 0.78298 0.81085
 H2699 H 0.61794 0.79240 0.82079
 H2700 H 0.61793 0.82222 0.79237
 H2701 H 0.53864 0.76435 0.78871
 H2702 H 0.51909 0.75499 0.77989
 H2703 H 0.53055 0.76687 0.74238
 H2704 H 0.55016 0.77607 0.75124
 C2705 C 0.10379 0.30824 0.79050
 C2706 C 0.09823 0.29728 0.79563
 C2707 C 0.10342 0.29173 0.80653
 C2708 C 0.11413 0.29710 0.81229
 C2709 C 0.11983 0.30814 0.80723
 C2710 C 0.11450 0.31364 0.79625
 C2711 C 0.08716 0.29175 0.78976
 C2712 C 0.07786 0.28709 0.78496
 C2713 C 0.06689 0.28161 0.77949
 C2714 C 0.05746 0.27691 0.77498
 C2715 C 0.04609 0.27129 0.76982
 C2716 C 0.03702 0.26596 0.77798
 C2717 C 0.02589 0.26062 0.77307
 C2718 C 0.02373 0.26050 0.75992
 C2719 C 0.03284 0.26591 0.75177
 C2720 C 0.04399 0.27125 0.75670
 H2721 H 0.09983 0.31263 0.78207
 H2722 H 0.09918 0.28324 0.81058
 H2723 H 0.11788 0.29254 0.82069
 H2724 H 0.11854 0.32212 0.79204
 H2725 H 0.03855 0.26597 0.78815
 H2726 H 0.01898 0.25650 0.77951
 H2727 H 0.03127 0.26607 0.74162
 H2728 H 0.05092 0.27539 0.75030
 C2729 C 0.10345 0.79152 0.30660
 C2730 C 0.09815 0.79710 0.29577
 C2731 C 0.10364 0.80809 0.29064
 C2732 C 0.11440 0.81349 0.29630
 C2733 C 0.11984 0.80797 0.30722
 C2734 C 0.11420 0.79690 0.31229
 C2735 C 0.08703 0.79158 0.28999
 C2736 C 0.07768 0.78694 0.28523
 C2737 C 0.06668 0.78150 0.27979
 C2738 C 0.05722 0.77685 0.27528
 C2739 C 0.04583 0.77130 0.27008
 C2740 C 0.04369 0.77144 0.25696
 C2741 C 0.03253 0.76617 0.25198
 C2742 C 0.02343 0.76065 0.26008
 C2743 C 0.02562 0.76060 0.27322
 C2744 C 0.03677 0.76587 0.27819
 H2745 H 0.09926 0.78301 0.31067
 H2746 H 0.09961 0.81251 0.28226
 H2747 H 0.11838 0.82200 0.29209
 H2748 H 0.11804 0.79232 0.32065
 H2749 H 0.05061 0.77566 0.25061
 H2750 H 0.03094 0.76647 0.24183
 H2751 H 0.01873 0.75640 0.27962
 H2752 H 0.03831 0.76573 0.28835
 C2753 C 0.60314 0.70873 0.69327
 C2754 C 0.59782 0.70328 0.70415
 C2755 C 0.60328 0.69231 0.70939
 C2756 C 0.61404 0.68681 0.70378
 C2757 C 0.61950 0.69222 0.69282
 C2758 C 0.61389 0.70326 0.68764
 C2759 C 0.58672 0.70892 0.70988
 C2760 C 0.57740 0.71368 0.71457
 C2761 C 0.56643 0.71928 0.71995
 C2762 C 0.55701 0.72405 0.72444
 C2763 C 0.54569 0.72972 0.72968
 C2764 C 0.54337 0.72914 0.74275
 C2765 C 0.53226 0.73446 0.74780
 C2766 C 0.52339 0.74049 0.73982
 C2767 C 0.52576 0.74102 0.72671
 C2768 C 0.53687 0.73568 0.72168
 H2769 H 0.59898 0.71722 0.68913
 H2770 H 0.59923 0.68799 0.71782
 H2771 H 0.61801 0.67833 0.70808
 H2772 H 0.61774 0.70775 0.67925
 H2773 H 0.55011 0.72449 0.74903
 H2774 H 0.53052 0.73377 0.75790
 H2775 H 0.51903 0.74560 0.72040
 H2776 H 0.53855 0.73617 0.71155
 C2777 C 0.60346 0.20886 0.19275
 C2778 C 0.59831 0.20353 0.20378
 C2779 C 0.60389 0.19266 0.20909
 C2780 C 0.61456 0.18712 0.20340
 C2781 C 0.61984 0.19237 0.19227
 C2782 C 0.61413 0.20333 0.18703
 C2783 C 0.58724 0.20915 0.20959
 C2784 C 0.57794 0.21380 0.21444
 C2785 C 0.56699 0.21918 0.22006
 C2786 C 0.55758 0.22373 0.22480
 C2787 C 0.54626 0.22909 0.23037
 C2788 C 0.53750 0.22117 0.23654
 C2789 C 0.52636 0.22632 0.24171
 C2790 C 0.52391 0.23946 0.24081
 C2791 C 0.53274 0.24735 0.23458
 C2792 C 0.54387 0.24219 0.22942
 H2793 H 0.59920 0.21727 0.18855
 H2794 H 0.59997 0.18845 0.21763
 H2795 H 0.61863 0.17873 0.20778
 H2796 H 0.61784 0.20768 0.17849
 H2797 H 0.53924 0.21102 0.23730
 H2798 H 0.51967 0.22007 0.24645
 H2799 H 0.53094 0.25747 0.23361
 H2800 H 0.55056 0.24839 0.22461
 C2801 C 0.10332 0.70889 0.19356
 C2802 C 0.09795 0.70324 0.20432
 C2803 C 0.10329 0.69208 0.20928
 C2804 C 0.11396 0.68659 0.20351
 C2805 C 0.11947 0.69219 0.19267
 C2806 C 0.11399 0.70343 0.18777
 C2807 C 0.08692 0.70885 0.21022
 C2808 C 0.07763 0.71355 0.21506
 C2809 C 0.06668 0.71904 0.22058
 C2810 C 0.05724 0.72373 0.22513
 C2811 C 0.04586 0.72933 0.23035
 C2812 C 0.04372 0.72920 0.24347
 C2813 C 0.03255 0.73449 0.24845
 C2814 C 0.02346 0.74003 0.24036
 C2815 C 0.02567 0.74008 0.22721
 C2816 C 0.03681 0.73479 0.22225
 H2817 H 0.09925 0.71753 0.18963
 H2818 H 0.09919 0.68761 0.21760
 H2819 H 0.11781 0.67795 0.20758
 H2820 H 0.11789 0.70807 0.17948
 H2821 H 0.05063 0.72494 0.24982
 H2822 H 0.03095 0.73419 0.25860
 H2823 H 0.01878 0.74429 0.22081
 H2824 H 0.03836 0.73491 0.21208
 C2825 C 0.10371 0.20845 0.69404
 C2826 C 0.09837 0.20277 0.70481
 C2827 C 0.10373 0.19161 0.70974
 C2828 C 0.11438 0.18613 0.70392
 C2829 C 0.11983 0.19174 0.69305
 C2830 C 0.11435 0.20299 0.68820
 C2831 C 0.08733 0.20834 0.71071
 C2832 C 0.07803 0.21302 0.71553
 C2833 C 0.06706 0.21852 0.72101
 C2834 C 0.05760 0.22322 0.72551
 C2835 C 0.04620 0.22884 0.73064
 C2836 C 0.04405 0.22888 0.74375
 C2837 C 0.03287 0.23422 0.74865
 C2838 C 0.02378 0.23963 0.74047
 C2839 C 0.02600 0.23951 0.72733
 C2840 C 0.03716 0.23417 0.72245
 H2841 H 0.09962 0.21709 0.69013
 H2842 H 0.09967 0.18713 0.71807
 H2843 H 0.11826 0.17750 0.70798
 H2844 H 0.11820 0.20763 0.67989
 H2845 H 0.05096 0.22473 0.75017
 H2846 H 0.03126 0.23405 0.75880
 H2847 H 0.01911 0.24363 0.72087
 H2848 H 0.03872 0.23418 0.71229
 C2849 C 0.39644 0.70969 0.30726
 C2850 C 0.40196 0.70426 0.29647
 C2851 C 0.39675 0.69317 0.29126
 C2852 C 0.38606 0.68751 0.29682
 C2853 C 0.38042 0.69288 0.30771
 C2854 C 0.38576 0.70406 0.31285
 C2855 C 0.41305 0.70999 0.29082
 C2856 C 0.42238 0.71475 0.28615
 C2857 C 0.43338 0.72023 0.28072
 C2858 C 0.44284 0.72479 0.27612
 C2859 C 0.45424 0.73008 0.27066
 C2860 C 0.46326 0.72201 0.26508
 C2861 C 0.47442 0.72706 0.25990
 C2862 C 0.47665 0.74025 0.26020
 C2863 C 0.46759 0.74831 0.26587
 C2864 C 0.45642 0.74324 0.27105
 H2865 H 0.40041 0.71827 0.31138
 H2866 H 0.40096 0.68887 0.28291
 H2867 H 0.38230 0.67894 0.29255
 H2868 H 0.38176 0.70851 0.32119
 H2869 H 0.46168 0.71181 0.26475
 H2870 H 0.48128 0.72069 0.25557
 H2871 H 0.46922 0.75850 0.26635
 H2872 H 0.44953 0.74957 0.27540
 C2873 C 0.39631 0.20905 0.80745
 C2874 C 0.40166 0.20363 0.79657
 C2875 C 0.39624 0.19268 0.79130
 C2876 C 0.38550 0.18715 0.79689
 C2877 C 0.38001 0.19251 0.80785
 C2878 C 0.38557 0.20355 0.81306
 C2879 C 0.41275 0.20929 0.79086
 C2880 C 0.42208 0.21400 0.78612
 C2881 C 0.43304 0.21948 0.78063
 C2882 C 0.44247 0.22407 0.77598
 C2883 C 0.45381 0.22942 0.77047
 C2884 C 0.46280 0.22142 0.76476
 C2885 C 0.47393 0.22653 0.75957
 C2886 C 0.47614 0.23973 0.75999
 C2887 C 0.46710 0.24772 0.76577
 C2888 C 0.45597 0.24259 0.77096
 H2889 H 0.40043 0.21754 0.81162
 H2890 H 0.40032 0.18839 0.78288
 H2891 H 0.38157 0.17867 0.79258
 H2892 H 0.38168 0.20801 0.82145
 H2893 H 0.46124 0.21122 0.76435
 H2894 H 0.48079 0.22022 0.75516
 H2895 H 0.46871 0.25790 0.76635
 H2896 H 0.44909 0.24886 0.77541
 C2897 C 0.89639 0.69211 0.79020
 C2898 C 0.90193 0.70304 0.79540
 C2899 C 0.89675 0.70849 0.80635
 C2900 C 0.88606 0.70304 0.81210
 C2901 C 0.88037 0.69203 0.80697
 C2902 C 0.88570 0.68664 0.79593
 C2903 C 0.91299 0.70863 0.78957
 C2904 C 0.92230 0.71334 0.78478
 C2905 C 0.93326 0.71885 0.77933
 C2906 C 0.94270 0.72357 0.77481
 C2907 C 0.95406 0.72919 0.76963
 C2908 C 0.96312 0.73456 0.77776
 C2909 C 0.97424 0.73991 0.77281
 C2910 C 0.97641 0.73998 0.75966
 C2911 C 0.96731 0.73452 0.75154
 C2912 C 0.95617 0.72918 0.75651
 H2913 H 0.90035 0.68781 0.78173
 H2914 H 0.90098 0.71694 0.81047
 H2915 H 0.88232 0.70750 0.82056
 H2916 H 0.88166 0.67819 0.79166
 H2917 H 0.96159 0.73460 0.78793
 H2918 H 0.98114 0.74406 0.77923
 H2919 H 0.96889 0.73432 0.74139
 H2920 H 0.94925 0.72500 0.75014
 C2921 C 0.89626 0.20968 0.30797
 C2922 C 0.90155 0.20449 0.29694
 C2923 C 0.89613 0.19361 0.29151
 C2924 C 0.88546 0.18792 0.29709
 C2925 C 0.88005 0.19304 0.30821
 C2926 C 0.88560 0.20402 0.31356
 C2927 C 0.91261 0.21024 0.29127
 C2928 C 0.92192 0.21498 0.28653
 C2929 C 0.93290 0.22042 0.28102
 C2930 C 0.94234 0.22494 0.27633
 C2931 C 0.95371 0.23017 0.27078
 C2932 C 0.96266 0.22205 0.26514
 C2933 C 0.97382 0.22704 0.25991
 C2934 C 0.97612 0.24023 0.26020
 C2935 C 0.96713 0.24834 0.26590
 C2936 C 0.95596 0.24333 0.27114
 H2937 H 0.90040 0.21809 0.31226
 H2938 H 0.90016 0.18950 0.28298
 H2939 H 0.88152 0.17954 0.29263
 H2940 H 0.88179 0.20827 0.32210
 H2941 H 0.96103 0.21186 0.26483
 H2942 H 0.98063 0.22064 0.25556
 H2943 H 0.96881 0.25851 0.26638
 H2944 H 0.94913 0.24969 0.27553
 C2945 C 0.30705 0.29068 0.60299
 C2946 C 0.29612 0.29606 0.59762
 C2947 C 0.29074 0.30698 0.60302
 C2948 C 0.29626 0.31252 0.61375
 C2949 C 0.30728 0.30720 0.61926
 C2950 C 0.31260 0.29619 0.61373
 C2951 C 0.29046 0.29042 0.58653
 C2952 C 0.28570 0.28577 0.57722
 C2953 C 0.28014 0.28040 0.56627
 C2954 C 0.27542 0.27588 0.55688
 C2955 C 0.26983 0.27057 0.54559
 C2956 C 0.26379 0.27855 0.53681
 C2957 C 0.25854 0.27344 0.52574
 C2958 C 0.25923 0.26028 0.52337
 C2959 C 0.26535 0.25233 0.53221
 C2960 C 0.27059 0.25744 0.54328
 H2961 H 0.31131 0.28222 0.59888
 H2962 H 0.28228 0.31123 0.59893
 H2963 H 0.29184 0.32095 0.61766
 H2964 H 0.32104 0.29178 0.61762
 H2965 H 0.26317 0.28872 0.53849
 H2966 H 0.25389 0.27974 0.51904
 H2967 H 0.26616 0.24218 0.53047
 H2968 H 0.27530 0.25119 0.54998
 C2969 C 0.30749 0.79087 0.10288
 C2970 C 0.29656 0.79627 0.09752
 C2971 C 0.29118 0.80718 0.10295
 C2972 C 0.29670 0.81268 0.11369
 C2973 C 0.30771 0.80735 0.11919
 C2974 C 0.31303 0.79635 0.11363
 C2975 C 0.29087 0.79065 0.08643
 C2976 C 0.28611 0.78600 0.07712
 C2977 C 0.28054 0.78061 0.06619
 C2978 C 0.27581 0.77607 0.05681
 C2979 C 0.27022 0.77071 0.04555
 C2980 C 0.26415 0.77865 0.03674
 C2981 C 0.25893 0.77351 0.02568
 C2982 C 0.25967 0.76034 0.02334
 C2983 C 0.26579 0.75242 0.03221
 C2984 C 0.27100 0.75758 0.04327
 H2985 H 0.31173 0.78242 0.09874
 H2986 H 0.28272 0.81144 0.09887
 H2987 H 0.29228 0.82111 0.11762
 H2988 H 0.32147 0.79193 0.11751
 H2989 H 0.26351 0.78883 0.03840
 H2990 H 0.25427 0.77978 0.01896
 H2991 H 0.26663 0.74228 0.03050
 H2992 H 0.27573 0.75136 0.04999
 C2993 C 0.80718 0.29080 0.10254
 C2994 C 0.79624 0.29617 0.09719
 C2995 C 0.79088 0.30711 0.10258
 C2996 C 0.79643 0.31266 0.11329
 C2997 C 0.80745 0.30735 0.11878
 C2998 C 0.81275 0.29633 0.11325
 C2999 C 0.79055 0.29052 0.08613
 C3000 C 0.78578 0.28584 0.07684
 C3001 C 0.78020 0.28044 0.06591
 C3002 C 0.77547 0.27590 0.05654
 C3003 C 0.76987 0.27057 0.04527
 C3004 C 0.76363 0.27851 0.03658
 C3005 C 0.75839 0.27339 0.02552
 C3006 C 0.75928 0.26026 0.02306
 C3007 C 0.76558 0.25234 0.03181
 C3008 C 0.77081 0.25747 0.04287
 H3009 H 0.81142 0.28233 0.09844
 H3010 H 0.78241 0.31135 0.09850
 H3011 H 0.79202 0.32111 0.11719
 H3012 H 0.82120 0.29192 0.11714
 H3013 H 0.76286 0.28865 0.03834
 H3014 H 0.75358 0.27965 0.01889
 H3015 H 0.76654 0.24222 0.03000
 H3016 H 0.77568 0.25125 0.04950
 C3017 C 0.80779 0.79023 0.60338
 C3018 C 0.79683 0.79546 0.59792
 C3019 C 0.79136 0.80641 0.60318
 C3020 C 0.79682 0.81213 0.61385
 C3021 C 0.80786 0.80696 0.61944
 C3022 C 0.81327 0.79592 0.61405
 C3023 C 0.79124 0.78966 0.58688
 C3024 C 0.78655 0.78489 0.57758
 C3025 C 0.78106 0.77944 0.56664
 C3026 C 0.77637 0.77492 0.55722
 C3027 C 0.77079 0.76971 0.54589
 C3028 C 0.76527 0.77786 0.53692
 C3029 C 0.75997 0.77289 0.52582
 C3030 C 0.76008 0.75969 0.52359
 C3031 C 0.76568 0.75154 0.53261
 C3032 C 0.77097 0.75654 0.54372
 H3033 H 0.81211 0.78175 0.59938
 H3034 H 0.78288 0.81056 0.59902
 H3035 H 0.79234 0.82058 0.61764
 H3036 H 0.82174 0.79162 0.61801
 H3037 H 0.76509 0.78807 0.53850
 H3038 H 0.75571 0.77932 0.51900
 H3039 H 0.76601 0.74135 0.53099
 H3040 H 0.77526 0.75014 0.55057
 C3041 C 0.29099 0.69248 0.39658
 C3042 C 0.29633 0.70341 0.40199
 C3043 C 0.30722 0.70884 0.39661
 C3044 C 0.31278 0.70337 0.38586
 C3045 C 0.30752 0.69235 0.38031
 C3046 C 0.29653 0.68699 0.38582
 C3047 C 0.29068 0.70903 0.41311
 C3048 C 0.28603 0.71375 0.42245
 C3049 C 0.28066 0.71928 0.43342
 C3050 C 0.27614 0.72398 0.44284
 C3051 C 0.27084 0.72955 0.45415
 C3052 C 0.27880 0.73569 0.46286
 C3053 C 0.27372 0.74092 0.47395
 C3054 C 0.26060 0.74011 0.47642
 C3055 C 0.25266 0.73390 0.46765
 C3056 C 0.25776 0.72868 0.45656
 H3057 H 0.28256 0.68820 0.40068
 H3058 H 0.31144 0.71730 0.40073
 H3059 H 0.32119 0.70782 0.38196
 H3060 H 0.29216 0.67854 0.38189
 H3061 H 0.28894 0.73640 0.46109
 H3062 H 0.28000 0.74566 0.48059
 H3063 H 0.24255 0.73300 0.46947
 H3064 H 0.25152 0.72389 0.44991
 C3065 C 0.29089 0.19260 0.89713
 C3066 C 0.29625 0.20352 0.90252
 C3067 C 0.30719 0.20888 0.89716
 C3068 C 0.31275 0.20335 0.88644
 C3069 C 0.30745 0.19235 0.88090
 C3070 C 0.29643 0.18704 0.88641
 C3071 C 0.29056 0.20917 0.91360
 C3072 C 0.28580 0.21385 0.92291
 C3073 C 0.28024 0.21925 0.93385
 C3074 C 0.27553 0.22379 0.94325
 C3075 C 0.26996 0.22912 0.95454
 C3076 C 0.27072 0.24224 0.95685
 C3077 C 0.26551 0.24737 0.96794
 C3078 C 0.25942 0.23943 0.97680
 C3079 C 0.25872 0.22627 0.97443
 C3080 C 0.26394 0.22115 0.96335
 H3081 H 0.28243 0.18835 0.90122
 H3082 H 0.31142 0.21734 0.90127
 H3083 H 0.32120 0.20776 0.88255
 H3084 H 0.29203 0.17861 0.88250
 H3085 H 0.27542 0.24848 0.95012
 H3086 H 0.26634 0.25751 0.96967
 H3087 H 0.25408 0.21998 0.98115
 H3088 H 0.26331 0.21098 0.96167
 C3089 C 0.79140 0.69345 0.89643
 C3090 C 0.79697 0.70426 0.90185
 C3091 C 0.80803 0.70940 0.89652
 C3092 C 0.81352 0.70376 0.88582
 C3093 C 0.80802 0.69286 0.88026
 C3094 C 0.79687 0.68779 0.88572
 C3095 C 0.79137 0.71001 0.91293
 C3096 C 0.78670 0.71475 0.92225
 C3097 C 0.78123 0.72019 0.93322
 C3098 C 0.77657 0.72470 0.94266
 C3099 C 0.77102 0.72991 0.95403
 C3100 C 0.77117 0.74308 0.95619
 C3101 C 0.76591 0.74807 0.96733
 C3102 C 0.76039 0.73992 0.97638
 C3103 C 0.76032 0.72672 0.97416
 C3104 C 0.76558 0.72175 0.96303
 H3105 H 0.78284 0.68938 0.90048
 H3106 H 0.81243 0.71776 0.90065
 H3107 H 0.82208 0.70798 0.88197
 H3108 H 0.79230 0.67945 0.88179
 H3109 H 0.77539 0.74948 0.94930
 H3110 H 0.76621 0.75826 0.96893
 H3111 H 0.75611 0.72028 0.98102
 H3112 H 0.76543 0.71154 0.96146
 C3113 C 0.80633 0.20848 0.39692
 C3114 C 0.79541 0.20299 0.40221
 C3115 C 0.79018 0.19205 0.39673
 C3116 C 0.79584 0.18660 0.38601
 C3117 C 0.80684 0.19203 0.38059
 C3118 C 0.81201 0.20306 0.38621
 C3119 C 0.78965 0.20855 0.41329
 C3120 C 0.78490 0.21321 0.42262
 C3121 C 0.77946 0.21867 0.43359
 C3122 C 0.77494 0.22332 0.44303
 C3123 C 0.76974 0.22886 0.45440
 C3124 C 0.75658 0.22870 0.45657
 C3125 C 0.75159 0.23396 0.46771
 C3126 C 0.75972 0.23951 0.47673
 C3127 C 0.77291 0.23960 0.47450
 C3128 C 0.77788 0.23433 0.46338
 H3129 H 0.81047 0.21695 0.40110
 H3130 H 0.78174 0.18771 0.40075
 H3131 H 0.79154 0.17814 0.38204
 H3132 H 0.82043 0.20756 0.38239
 H3133 H 0.75020 0.22445 0.44970
 H3134 H 0.74141 0.23364 0.46932
 H3135 H 0.77933 0.24382 0.48135
 H3136 H 0.78807 0.23450 0.46180
 C3137 C 0.70956 0.30744 0.39664
 C3138 C 0.70427 0.29649 0.40207
 C3139 C 0.69335 0.29106 0.39676
 C3140 C 0.68772 0.29656 0.38605
 C3141 C 0.69294 0.30759 0.38048
 C3142 C 0.70395 0.31295 0.38593
 C3143 C 0.70999 0.29089 0.41316
 C3144 C 0.71473 0.28623 0.42249
 C3145 C 0.72017 0.28080 0.43348
 C3146 C 0.72469 0.27618 0.44294
 C3147 C 0.72990 0.27069 0.45432
 C3148 C 0.74306 0.27086 0.45648
 C3149 C 0.74805 0.26563 0.46763
 C3150 C 0.73992 0.26013 0.47670
 C3151 C 0.72673 0.26004 0.47449
 C3152 C 0.72176 0.26527 0.46335
 H3153 H 0.71801 0.31173 0.40069
 H3154 H 0.68917 0.28259 0.40090
 H3155 H 0.67929 0.29211 0.38220
 H3156 H 0.70830 0.32141 0.38200
 H3157 H 0.74944 0.27507 0.44958
 H3158 H 0.75823 0.26595 0.46923
 H3159 H 0.72031 0.25584 0.48136
 H3160 H 0.71156 0.26510 0.46179
 C3161 C 0.70853 0.80645 0.89666
 C3162 C 0.70308 0.79551 0.90196
 C3163 C 0.69213 0.79027 0.89652
 C3164 C 0.68664 0.79593 0.88583
 C3165 C 0.69203 0.80696 0.88040
 C3166 C 0.70306 0.81213 0.88597
 C3167 C 0.70868 0.78973 0.91302
 C3168 C 0.71337 0.78498 0.92232
 C3169 C 0.71887 0.77953 0.93328
 C3170 C 0.72355 0.77500 0.94270
 C3171 C 0.72913 0.76979 0.95404
 C3172 C 0.72897 0.75661 0.95622
 C3173 C 0.73424 0.75161 0.96734
 C3174 C 0.73980 0.75975 0.97636
 C3175 C 0.73989 0.77295 0.97413
 C3176 C 0.73461 0.77794 0.96302
 H3177 H 0.71700 0.81060 0.90081
 H3178 H 0.68782 0.78181 0.90056
 H3179 H 0.67817 0.79163 0.88189
 H3180 H 0.70753 0.82058 0.88214
 H3181 H 0.72470 0.75023 0.94935
 H3182 H 0.73392 0.74142 0.96896
 H3183 H 0.74412 0.77938 0.98097
 H3184 H 0.73478 0.78814 0.96144
 C3185 C 0.19211 0.29069 0.89704
 C3186 C 0.20303 0.29602 0.90245
 C3187 C 0.20845 0.30693 0.89707
 C3188 C 0.20297 0.31251 0.88634
 C3189 C 0.19196 0.30726 0.88079
 C3190 C 0.18660 0.29626 0.88629
 C3191 C 0.20867 0.29036 0.91355
 C3192 C 0.21343 0.28571 0.92287
 C3193 C 0.21901 0.28037 0.93383
 C3194 C 0.22376 0.27589 0.94324
 C3195 C 0.22938 0.27061 0.95453
 C3196 C 0.23547 0.27862 0.96325
 C3197 C 0.24074 0.27355 0.97433
 C3198 C 0.24002 0.26041 0.97679
 C3199 C 0.23387 0.25243 0.96802
 C3200 C 0.22861 0.25751 0.95693
 H3201 H 0.18783 0.28224 0.90113
 H3202 H 0.21691 0.31114 0.90119
 H3203 H 0.20743 0.32094 0.88246
 H3204 H 0.17816 0.29189 0.88237
 H3205 H 0.23611 0.28878 0.96149
 H3206 H 0.24544 0.27986 0.98098
 H3207 H 0.23304 0.24230 0.96982
 H3208 H 0.22386 0.25124 0.95028
 C3209 C 0.19228 0.79077 0.39682
 C3210 C 0.20320 0.79609 0.40225
 C3211 C 0.20860 0.80702 0.39691
 C3212 C 0.20313 0.81263 0.38618
 C3213 C 0.19213 0.80738 0.38061
 C3214 C 0.18678 0.79636 0.38609
 C3215 C 0.20882 0.79036 0.41332
 C3216 C 0.21351 0.78558 0.42262
 C3217 C 0.21896 0.78004 0.43355
 C3218 C 0.22357 0.77535 0.44294
 C3219 C 0.22899 0.76982 0.45421
 C3220 C 0.24211 0.77064 0.45643
 C3221 C 0.24733 0.76548 0.46750
 C3222 C 0.23948 0.75938 0.47644
 C3223 C 0.22633 0.75861 0.47415
 C3224 C 0.22112 0.76377 0.46308
 H3225 H 0.18801 0.78230 0.40088
 H3226 H 0.21706 0.81123 0.40104
 H3227 H 0.20757 0.82108 0.38231
 H3228 H 0.17835 0.79199 0.38215
 H3229 H 0.24828 0.77535 0.44965
 H3230 H 0.25747 0.76636 0.46917
 H3231 H 0.22011 0.75395 0.48093
 H3232 H 0.21095 0.76310 0.46147
 C3233 C 0.69215 0.70941 0.60361
 C3234 C 0.70309 0.70412 0.59817
 C3235 C 0.70852 0.69318 0.60350
 C3236 C 0.70305 0.68755 0.61422
 C3237 C 0.69202 0.69277 0.61978
 C3238 C 0.68665 0.70380 0.61433
 C3239 C 0.70868 0.70985 0.58709
 C3240 C 0.71335 0.71459 0.57777
 C3241 C 0.71881 0.72004 0.56679
 C3242 C 0.72345 0.72457 0.55735
 C3243 C 0.72898 0.72980 0.54599
 C3244 C 0.73443 0.72165 0.53697
 C3245 C 0.73966 0.72664 0.52584
 C3246 C 0.73955 0.73984 0.52362
 C3247 C 0.73401 0.74798 0.53268
 C3248 C 0.72879 0.74297 0.54382
 H3249 H 0.68785 0.71788 0.59956
 H3250 H 0.71699 0.68899 0.59936
 H3251 H 0.70751 0.67910 0.61807
 H3252 H 0.67820 0.70815 0.61827
 H3253 H 0.73461 0.71144 0.53854
 H3254 H 0.74387 0.72021 0.51898
 H3255 H 0.73367 0.75817 0.53107
 H3256 H 0.72455 0.74936 0.55071
 C3257 C 0.69292 0.20857 0.10298
 C3258 C 0.70383 0.20314 0.09764
 C3259 C 0.70920 0.19225 0.10312
 C3260 C 0.70368 0.18680 0.11391
 C3261 C 0.69267 0.19216 0.11939
 C3262 C 0.68737 0.20314 0.11377
 C3263 C 0.70950 0.20869 0.08649
 C3264 C 0.71422 0.21331 0.07713
 C3265 C 0.71971 0.21868 0.06614
 C3266 C 0.72435 0.22323 0.05671
 C3267 C 0.72982 0.22862 0.04539
 C3268 C 0.73594 0.22073 0.03657
 C3269 C 0.74105 0.22592 0.02546
 C3270 C 0.74015 0.23907 0.02309
 C3271 C 0.73396 0.24693 0.03196
 C3272 C 0.72886 0.24173 0.04307
 H3273 H 0.68868 0.21701 0.09881
 H3274 H 0.71765 0.18795 0.09906
 H3275 H 0.70809 0.17838 0.11788
 H3276 H 0.67894 0.20760 0.11764
 H3277 H 0.73672 0.21057 0.03826
 H3278 H 0.74576 0.21970 0.01874
 H3279 H 0.73299 0.25706 0.03022
 H3280 H 0.72409 0.24792 0.04980
 C3281 C 0.19235 0.70922 0.10316
 C3282 C 0.20327 0.70384 0.09778
 C3283 C 0.20865 0.69292 0.10320
 C3284 C 0.20314 0.68739 0.11395
 C3285 C 0.19212 0.69270 0.11946
 C3286 C 0.18680 0.70372 0.11391
 C3287 C 0.20894 0.70945 0.08666
 C3288 C 0.21370 0.71408 0.07733
 C3289 C 0.21928 0.71942 0.06636
 C3290 C 0.22402 0.72391 0.05694
 C3291 C 0.22964 0.72918 0.04564
 C3292 C 0.23572 0.72116 0.03691
 C3293 C 0.24100 0.72622 0.02582
 C3294 C 0.24029 0.73937 0.02337
 C3295 C 0.23414 0.74736 0.03215
 C3296 C 0.22888 0.74229 0.04324
 H3297 H 0.18810 0.71768 0.09904
 H3298 H 0.21711 0.68866 0.09911
 H3299 H 0.20756 0.67896 0.11787
 H3300 H 0.17837 0.70813 0.11782
 H3301 H 0.23635 0.71100 0.03866
 H3302 H 0.24568 0.71989 0.01917
 H3303 H 0.23332 0.75749 0.03035
 H3304 H 0.22415 0.74857 0.04990
 C3305 C 0.20846 0.19258 0.60315
 C3306 C 0.20315 0.20360 0.59788
 C3307 C 0.19234 0.20906 0.60342
 C3308 C 0.18686 0.20353 0.61419
 C3309 C 0.19211 0.19242 0.61959
 C3310 C 0.20300 0.18702 0.61391
 C3311 C 0.20876 0.20924 0.58675
 C3312 C 0.21348 0.21389 0.57741
 C3313 C 0.21902 0.21925 0.56642
 C3314 C 0.22373 0.22375 0.55700
 C3315 C 0.22930 0.22905 0.54569
 C3316 C 0.22850 0.24216 0.54332
 C3317 C 0.23372 0.24726 0.53222
 C3318 C 0.23986 0.23930 0.52340
 C3319 C 0.24060 0.22615 0.52583
 C3320 C 0.23538 0.22106 0.53693
 H3321 H 0.21683 0.18826 0.59893
 H3322 H 0.18814 0.21760 0.59941
 H3323 H 0.17851 0.20801 0.61822
 H3324 H 0.20737 0.17850 0.61770
 H3325 H 0.22377 0.24842 0.55000
 H3326 H 0.23287 0.25740 0.53044
 H3327 H 0.24528 0.21985 0.51915
 H3328 H 0.23603 0.21090 0.53866
   
