data_POSCAR
  _audit_creation_date              2014-09-24
  _audit_creation_method            'ToBaCCo'
  _symmetry_space_group_name_H-M    'P1'
  _symmetry_Int_Tables_number       1
  _symmetry_cell_setting            triclinic
  loop_
  _symmetry_equiv_pos_as_xyz
 x,y,z
_cell_length_a 52.1884
_cell_length_b 51.8791
_cell_length_c 51.9618
_cell_angle_alpha 92.186500
_cell_angle_beta 90.051000
_cell_angle_gamma 90.718800
loop_
  _atom_site_label
  _atom_site_type_symbol
  _atom_site_fract_x
  _atom_site_fract_y
  _atom_site_fract_z
C1 C 0.12226 0.00176 0.24750
 C2 C 0.37629 -0.00253 0.75113
 C3 C 0.87513 0.49870 0.25050
 C4 C 0.62295 0.50246 0.74847
 C5 C 0.25124 0.12428 0.99415
 C6 C 0.74921 0.37736 1.00728
 C7 C 0.24890 0.87638 0.50779
 C8 C 0.75005 0.62394 0.49800
 C9 C 0.00000 0.25435 0.12462
 C10 C -0.00039 0.74549 0.37542
 C11 C 0.49583 0.24626 0.87364
 C12 C 0.50021 0.75533 0.62521
 C13 C 0.87252 1.00498 0.74738
 C14 C 0.37421 0.50477 0.24851
 C15 C 0.62509 0.99536 0.25141
 C16 C 0.12468 0.49406 0.75033
 C17 C 0.74841 0.87607 0.00745
 C18 C 0.24728 0.37594 0.50372
 C19 C 0.25194 0.62298 -0.00209
 C20 C 0.75140 0.12410 0.49747
 C21 C 1.00032 0.74446 0.87162
 C22 C 0.50037 0.24547 0.37244
 C23 C 0.99538 0.25435 0.62815
 C24 C 0.49909 0.75597 0.12616
 O25 O -0.07386 0.98526 0.98411
 O26 O -0.07349 1.02990 0.99762
 O27 O -0.01645 0.98606 0.92295
 O28 O 0.02475 0.99549 0.91960
 O29 O -0.01452 0.92674 0.98143
 O30 O -0.00182 0.92730 1.02518
 O31 O 0.05582 1.05081 0.99144
 O32 O 0.03358 1.05404 0.95118
 O33 O -0.00216 1.05742 1.04742
 O34 O -0.04373 1.03455 1.05426
 O35 O 0.05089 0.99744 1.05107
 O36 O 0.05584 0.95551 1.02628
 O37 O 0.07206 1.01562 1.01001
 O38 O 0.07322 0.97096 0.99638
 O39 O 0.01594 1.01693 1.06849
 O40 O -0.02870 1.00455 1.07093
 O41 O 0.01615 1.07374 1.01185
 O42 O 0.00194 1.07528 0.96935
 O43 O -0.05660 0.95003 1.00174
 O44 O -0.03366 0.94496 1.04088
 O45 O 0.00147 0.94316 0.94471
 O46 O 0.04296 0.96514 0.94035
 O47 O -0.05175 1.00396 0.94145
 O48 O -0.05740 1.04394 0.96442
 Zr49 Zr -0.04211 1.01053 0.98037
 O50 O -0.01903 1.03581 1.00333
 Zr51 Zr 0.00880 0.98235 0.95423
 O52 O 0.03410 1.00631 0.97631
 Zr53 Zr -0.01759 0.95912 1.00676
 O54 O 0.00631 0.98203 1.03110
 Zr55 Zr 0.01672 1.04170 0.98570
 O56 O -0.00766 1.01892 0.96103
 Zr57 Zr -0.01013 1.01840 1.03790
 O58 O -0.03571 0.99421 1.01621
 Zr59 Zr 0.04084 0.98997 1.01213
 O60 O 0.01799 0.96445 0.98870
 O61 O -0.02623 0.97474 0.97157
 O62 O 0.02534 1.02610 1.02111
 C63 C -0.07573 0.96268 0.99342
 C64 C -0.03921 0.99518 0.92180
 C65 C -0.00664 0.92438 0.95808
 C66 C 0.07445 1.03815 1.00086
 C67 C 0.00767 1.07609 1.03501
 C68 C 0.03851 1.00761 1.07020
 H69 H -0.02821 1.05216 1.00643
 H70 H 0.00905 0.97289 1.04719
 H71 H -0.03763 0.96353 0.96062
 H72 H 0.05009 1.00884 0.96651
 H73 H 0.02223 1.04789 0.93688
 H74 H 0.03762 1.00901 0.92430
 H75 H -0.02156 0.98744 1.07433
 H76 H -0.04530 0.95846 1.04780
 H77 H -0.01601 1.07716 0.97507
 H78 H -0.04437 1.05036 0.95230
 H79 H 0.04575 0.95098 1.04160
 H80 H 0.01562 0.92495 1.01807
 H81 H -0.07535 1.02318 1.01511
 H82 H -0.04879 1.04918 1.04379
 H83 H 0.04772 0.95190 0.95266
 H84 H 0.07622 0.97761 0.97904
 O85 O 0.48079 0.48414 0.42610
 O86 O 0.52488 0.49649 0.42382
 O87 O 0.48353 0.42654 0.48490
 O88 O 0.49550 0.42564 0.52582
 O89 O 0.42477 0.48608 0.48802
 O90 O 0.42565 0.53088 0.50048
 O91 O 0.55041 0.49857 0.55261
 O92 O 0.55299 0.45654 0.53156
 O93 O 0.55498 0.55024 0.49213
 O94 O 0.52954 0.55456 0.45137
 O95 O 0.49798 0.55873 0.54878
 O96 O 0.45584 0.53575 0.55619
 O97 O 0.51600 0.51860 0.57057
 O98 O 0.47176 0.50657 0.57400
 O99 O 0.51580 0.57378 0.51238
 O100 O 0.50125 0.57401 0.46874
 O101 O 0.57121 0.51535 0.51121
 O102 O 0.57275 0.47202 0.49826
 O103 O 0.44628 0.50375 0.44440
 O104 O 0.44142 0.54415 0.46682
 O105 O 0.44202 0.45076 0.50545
 O106 O 0.46554 0.44787 0.54530
 O107 O 0.50020 0.44255 0.44836
 O108 O 0.53967 0.46425 0.44030
 Zr109 Zr 0.50694 0.48188 0.45680
 O110 O 0.53273 0.50572 0.47809
 Zr111 Zr 0.48113 0.45952 0.50989
 O112 O 0.50556 0.48275 0.53362
 Zr113 Zr 0.45660 0.51088 0.48313
 O114 O 0.48024 0.53637 0.50532
 Zr115 Zr 0.53983 0.49012 0.51412
 O116 O 0.51665 0.46438 0.49135
 Zr117 Zr 0.51572 0.54138 0.48690
 O118 O 0.49073 0.51851 0.46307
 Zr119 Zr 0.48952 0.51947 0.54014
 O120 O 0.46352 0.49503 0.51908
 O121 O 0.47207 0.47481 0.47466
 O122 O 0.52470 0.52651 0.52255
 C123 C 0.45830 0.49384 0.42490
 C124 C 0.49187 0.42383 0.46166
 C125 C 0.42288 0.46359 0.49750
 C126 C 0.53863 0.50933 0.57184
 C127 C 0.57362 0.53766 0.50161
 C128 C 0.50783 0.57690 0.53563
 H129 H 0.54859 0.50772 0.46796
 H130 H 0.47129 0.55290 0.50816
 H131 H 0.46054 0.46340 0.46407
 H132 H 0.50874 0.47397 0.54985
 H133 H 0.54668 0.44157 0.52086
 H134 H 0.50882 0.43097 0.53856
 H135 H 0.48422 0.57775 0.47623
 H136 H 0.45454 0.55047 0.45477
 H137 H 0.57385 0.47633 0.47994
 H138 H 0.54640 0.45253 0.45323
 H139 H 0.45143 0.55093 0.54620
 H140 H 0.42401 0.52455 0.51814
 H141 H 0.51794 0.51394 0.42161
 H142 H 0.54443 0.54395 0.44621
 H143 H 0.45308 0.46115 0.55096
 H144 H 0.47846 0.48925 0.57725
 O145 O 0.51199 0.00844 0.42692
 O146 O 0.46782 -0.00150 0.42767
 O147 O 0.51502 0.07293 0.48407
 O148 O 0.50740 0.07887 0.52553
 O149 O 0.57251 0.01135 0.48555
 O150 O 0.57120 -0.03179 0.49828
 O151 O 0.45012 0.00918 0.55712
 O152 O 0.44770 0.04952 0.53664
 O153 O 0.44202 -0.04816 0.50154
 O154 O 0.46270 -0.05736 0.45837
 O155 O 0.50153 -0.05112 0.55300
 O156 O 0.54440 -0.02892 0.55733
 O157 O 0.48605 -0.00775 0.57418
 O158 O 0.53103 0.00324 0.57415
 O159 O 0.48208 -0.07013 0.51796
 O160 O 0.49319 -0.07480 0.47289
 O161 O 0.42668 -0.00999 0.51752
 O162 O 0.42697 0.03317 0.50288
 O163 O 0.54795 -0.00876 0.44370
 O164 O 0.55184 -0.04806 0.46659
 O165 O 0.55765 0.04978 0.50142
 O166 O 0.53699 0.05696 0.54372
 O167 O 0.49596 0.05373 0.44887
 O168 O 0.45491 0.03251 0.44470
 Zr169 Zr 0.48836 0.01555 0.45913
 O170 O 0.46352 -0.00542 0.48262
 Zr171 Zr 0.51869 0.04264 0.50959
 O172 O 0.49486 0.02305 0.53538
 Zr173 Zr 0.53959 -0.01237 0.48298
 O174 O 0.51705 -0.03441 0.50773
 Zr175 Zr 0.45915 0.01445 0.51827
 O176 O 0.48174 0.03705 0.49364
 Zr177 Zr 0.48039 -0.04043 0.49172
 O178 O 0.50396 -0.02089 0.46547
 Zr179 Zr 0.51049 -0.01323 0.54233
 O180 O 0.53583 0.00762 0.51874
 O181 O 0.52462 0.02326 0.47441
 O182 O 0.47414 -0.02125 0.52712
 C183 C 0.53457 -0.00100 0.42478
 C184 C 0.50561 0.07351 0.46123
 C185 C 0.57571 0.03502 0.49311
 C186 C 0.46312 0.00077 0.57599
 C187 C 0.42399 -0.03392 0.51074
 C188 C 0.49106 -0.07066 0.54092
 H189 H 0.44698 -0.00822 0.47361
 H190 H 0.52583 -0.05082 0.51062
 H191 H 0.53566 0.03316 0.46274
 H192 H 0.49283 0.03370 0.55142
 H193 H 0.45459 0.06360 0.52620
 H194 H 0.49410 0.07560 0.53858
 H195 H 0.51031 -0.07860 0.47987
 H196 H 0.53824 -0.05417 0.45446
 H197 H 0.42280 0.02474 0.48599
 H198 H 0.44985 0.04612 0.45751
 H199 H 0.54802 -0.04511 0.54740
 H200 H 0.57371 -0.02462 0.51605
 H201 H 0.47250 -0.01994 0.42678
 H202 H 0.44735 -0.04722 0.45447
 H203 H 0.55039 0.04446 0.54799
 H204 H 0.52469 0.02096 0.57734
 O205 O -0.05822 0.45300 0.99884
 O206 O -0.03853 0.44467 0.95793
 O207 O 0.00452 0.44681 1.05072
 O208 O 0.04206 0.46590 1.05884
 O209 O -0.04823 0.50995 1.05825
 O210 O -0.05227 0.54960 1.03667
 O211 O 0.07293 0.51126 0.98419
 O212 O 0.07226 0.46924 0.99737
 O213 O 0.01336 0.51377 0.92804
 O214 O -0.03107 0.50315 0.92710
 O215 O 0.01790 0.57306 0.98662
 O216 O 0.00882 0.57646 1.03127
 O217 O 0.05861 0.54937 1.00141
 O218 O 0.03816 0.55699 1.04537
 O219 O -0.00169 0.55569 0.95081
 O220 O -0.04547 0.53365 0.94700
 O221 O 0.04877 0.49479 0.94371
 O222 O 0.05168 0.45250 0.96433
 O223 O -0.07260 0.49043 1.01744
 O224 O -0.07108 0.53428 1.00372
 O225 O -0.01286 0.49110 1.07443
 O226 O 0.03258 0.50410 1.07245
 O227 O -0.01654 0.42917 1.01589
 O228 O -0.00557 0.42682 0.97109
 Zr229 Zr -0.01930 0.46018 0.99094
 O230 O 0.00393 0.48066 0.96543
 Zr231 Zr 0.01129 0.48555 1.04219
 O232 O 0.03645 0.50637 1.01882
 Zr233 Zr -0.03980 0.51447 1.01922
 O234 O -0.01690 0.53733 0.99555
 Zr235 Zr 0.03996 0.48781 0.98238
 O236 O 0.01762 0.46499 1.00698
 Zr237 Zr -0.01099 0.51751 0.96012
 O238 O -0.03628 0.49560 0.98284
 Zr239 Zr 0.02006 0.54211 1.01136
 O240 O -0.00410 0.52226 1.03695
 O241 O -0.02491 0.47854 1.02669
 O242 O 0.02564 0.52425 0.97522
 C243 C -0.07601 0.46708 1.00887
 C244 C -0.00621 0.42766 1.03825
 C245 C -0.03530 0.50084 1.07679
 C246 C 0.07630 0.53484 0.99188
 C247 C 0.03602 0.50467 0.92541
 C248 C 0.00885 0.57458 0.96378
 H249 H 0.00521 0.47074 0.94889
 H250 H -0.02547 0.55402 0.99352
 H251 H -0.03588 0.46825 1.03808
 H252 H 0.05328 0.50825 1.02747
 H253 H 0.06568 0.45583 1.00880
 H254 H 0.05763 0.47016 1.04897
 H255 H -0.04820 0.55005 0.95690
 H256 H -0.07486 0.52588 0.98670
 H257 H 0.04055 0.44861 0.94923
 H258 H 0.01208 0.42423 0.97738
 H259 H -0.00908 0.57979 1.02626
 H260 H -0.03857 0.55556 1.04876
 H261 H -0.04984 0.45840 0.95190
 H262 H -0.02663 0.48477 0.92443
 H263 H 0.02441 0.52092 1.07630
 H264 H 0.05360 0.54664 1.04836
 O265 O -0.05619 0.55001 0.50704
 O266 O -0.03438 0.55715 0.54646
 O267 O 0.00580 0.55430 0.45240
 O268 O 0.04196 0.53380 0.44397
 O269 O -0.05159 0.49443 0.44473
 O270 O -0.05848 0.45467 0.46518
 O271 O 0.06999 0.48430 0.51746
 O272 O 0.07300 0.52646 0.50462
 O273 O 0.01120 0.48420 0.57373
 O274 O -0.03318 0.49765 0.57469
 O275 O 0.01137 0.42624 0.51428
 O276 O 0.00043 0.42383 0.46988
 O277 O 0.05322 0.44819 0.49755
 O278 O 0.03034 0.44227 0.45474
 O279 O -0.00625 0.44411 0.55067
 O280 O -0.04858 0.46691 0.55547
 O281 O 0.04792 0.50144 0.55807
 O282 O 0.05399 0.54406 0.53815
 O283 O -0.07381 0.51411 0.48746
 O284 O -0.07537 0.46962 0.49876
 O285 O -0.01490 0.51135 0.42843
 O286 O 0.02951 0.49633 0.42943
 O287 O -0.01353 0.57182 0.48800
 O288 O -0.00059 0.57300 0.53252
 Zr289 Zr -0.01762 0.54080 0.51270
 O290 O 0.00420 0.51852 0.53739
 Zr291 Zr 0.00998 0.51516 0.46038
 O292 O 0.03378 0.49241 0.48285
 Zr293 Zr -0.04294 0.48846 0.48348
 O294 O -0.02152 0.46379 0.50621
 Zr295 Zr 0.03928 0.50979 0.51967
 O296 O 0.01853 0.53443 0.49592
 Zr297 Zr -0.01362 0.48249 0.54191
 O298 O -0.03736 0.50622 0.52015
 Zr299 Zr 0.01475 0.45738 0.48969
 O300 O -0.00816 0.47920 0.46503
 O301 O -0.02542 0.52373 0.47666
 O302 O 0.02218 0.47409 0.52609
 C303 C -0.07534 0.53708 0.49752
 C304 C -0.00359 0.57349 0.46548
 C305 C -0.03804 0.50284 0.42613
 C306 C 0.07191 0.46120 0.50801
 C307 C 0.03457 0.49183 0.57625
 C308 C 0.00308 0.42505 0.53746
 H309 H 0.00646 0.52798 0.55410
 H310 H -0.03121 0.44749 0.50810
 H311 H -0.03599 0.53479 0.46584
 H312 H 0.05030 0.48984 0.47387
 H313 H 0.06752 0.54056 0.49361
 H314 H 0.05733 0.52824 0.45330
 H315 H -0.05251 0.45092 0.54516
 H316 H -0.07779 0.47703 0.51641
 H317 H 0.04343 0.54823 0.55349
 H318 H 0.01690 0.57493 0.52542
 H319 H -0.01760 0.42144 0.47522
 H320 H -0.04516 0.44794 0.45324
 H321 H -0.04580 0.54368 0.55335
 H322 H -0.02520 0.51453 0.57957
 H323 H 0.01995 0.48014 0.42511
 H324 H 0.04621 0.45212 0.45117
 O325 O 0.50534 1.05596 -0.04889
 O326 O 0.54511 1.03458 -0.05502
 O327 O 0.45094 0.99408 -0.05444
 O328 O 0.44300 0.95746 -0.03461
 O329 O 0.44534 1.05191 0.00670
 O330 O 0.46758 1.06020 0.04605
 O331 O 0.51581 0.93007 0.01584
 O332 O 0.50263 0.92656 -0.02663
 O333 O 0.57345 0.98941 0.01704
 O334 O 0.57494 1.03346 0.00459
 O335 O 0.51538 0.99060 0.07443
 O336 O 0.47064 1.00172 0.07544
 O337 O 0.49860 0.94809 0.05236
 O338 O 0.45620 0.97001 0.05760
 O339 O 0.55152 1.00784 0.05735
 O340 O 0.55637 1.04998 0.03457
 O341 O 0.55687 0.95213 -0.00061
 O342 O 0.53589 0.94502 -0.04316
 O343 O 0.48695 1.07436 -0.01319
 O344 O 0.50061 1.07687 0.03106
 O345 O 0.42846 1.01535 -0.01222
 O346 O 0.42892 0.97119 0.00279
 O347 O 0.48685 1.01184 -0.07159
 O348 O 0.53097 1.00039 -0.07180
 Zr349 Zr 0.51168 1.01747 -0.03984
 O350 O 0.53640 0.99582 -0.01738
 Zr351 Zr 0.45980 0.99013 -0.01535
 O352 O 0.48233 0.96659 0.00761
 Zr353 Zr 0.48419 1.04377 0.01225
 O354 O 0.50714 1.02267 0.03704
 Zr355 Zr 0.51848 0.96066 -0.00922
 O356 O 0.49464 0.98118 -0.03406
 Zr357 Zr 0.54211 1.01437 0.01882
 O358 O 0.52020 1.03789 -0.00501
 Zr359 Zr 0.49031 0.98631 0.04286
 O360 O 0.46555 1.00893 0.02084
 O361 O 0.47631 1.02557 -0.02326
 O362 O 0.52607 0.97847 0.02669
 C363 C 0.49600 1.07538 -0.03614
 C364 C 0.46398 1.00248 -0.07344
 C365 C 0.42645 1.03846 -0.00264
 C366 C 0.50769 0.92889 0.03907
 C367 C 0.57550 0.96581 0.00907
 C368 C 0.53856 0.99898 0.07614
 H369 H 0.55276 0.99337 -0.02664
 H370 H 0.50953 1.03276 0.05340
 H371 H 0.46527 1.03589 -0.03435
 H372 H 0.47322 0.95002 0.00994
 H373 H 0.49123 0.93195 -0.04063
 H374 H 0.45153 0.94206 -0.02817
 H375 H 0.54656 1.05428 0.05040
 H376 H 0.51781 1.07930 0.02344
 H377 H 0.55099 0.95579 -0.04727
 H378 H 0.52441 0.98244 -0.07375
 H379 H 0.47765 1.01925 0.07927
 H380 H 0.45590 1.04691 0.05285
 H381 H 0.55164 1.04705 -0.04159
 H382 H 0.57830 1.02619 -0.01293
 H383 H 0.42567 0.98080 0.01926
 H384 H 0.45202 0.95422 0.04709
 O385 O 0.42864 0.51468 0.01350
 O386 O 0.42777 0.47004 0.00274
 O387 O 0.48866 0.51711 0.07284
 O388 O 0.52990 0.50805 0.07484
 O389 O 0.48828 0.57448 0.01311
 O390 O 0.49911 0.57331 -0.03099
 O391 O 0.55657 0.45078 0.00268
 O392 O 0.53692 0.44792 0.04358
 O393 O 0.49667 0.44307 -0.05069
 O394 O 0.45485 0.46546 -0.05609
 O395 O 0.55022 0.50234 -0.05735
 O396 O 0.55727 0.54494 -0.03449
 O397 O 0.57303 0.48575 -0.01676
 O398 O 0.57490 0.53125 -0.00405
 O399 O 0.51417 0.48288 -0.07349
 O400 O 0.46986 0.49518 -0.07416
 O401 O 0.51609 0.42749 -0.01552
 O402 O 0.50292 0.42737 0.02856
 O403 O 0.44544 0.55071 -0.00403
 O404 O 0.46637 0.55421 -0.04524
 O405 O 0.50581 0.55934 0.04958
 O406 O 0.54765 0.53792 0.05223
 O407 O 0.45220 0.49857 0.05641
 O408 O 0.44616 0.45704 0.03492
 Zr409 Zr 0.46033 0.49041 0.01732
 O410 O 0.48186 0.46508 -0.00637
 Zr411 Zr 0.51261 0.52004 0.04052
 O412 O 0.53649 0.49562 0.01805
 Zr413 Zr 0.48398 0.54159 -0.01136
 O414 O 0.50678 0.51856 -0.03612
 Zr415 Zr 0.51814 0.45994 0.01008
 O416 O 0.49548 0.48311 0.03542
 Zr417 Zr 0.48951 0.48203 -0.04161
 O418 O 0.46512 0.50610 -0.01918
 Zr419 Zr 0.54198 0.51119 -0.01835
 O420 O 0.52037 0.53714 0.00522
 O421 O 0.47691 0.52659 0.02450
 O422 O 0.52548 0.47489 -0.02596
 C423 C 0.42670 0.53748 0.00493
 C424 C 0.46568 0.50832 0.07520
 C425 C 0.49696 0.57757 0.03615
 C426 C 0.57516 0.46325 -0.00752
 C427 C 0.50670 0.42473 -0.03833
 C428 C 0.53703 0.49181 -0.07595
 H429 H 0.47229 0.44863 -0.00883
 H430 H 0.50904 0.52736 -0.05251
 H431 H 0.46610 0.53791 0.03564
 H432 H 0.55285 0.49336 0.02724
 H433 H 0.52717 0.45504 0.05852
 H434 H 0.54235 0.49452 0.06997
 H435 H 0.47694 0.51239 -0.07795
 H436 H 0.45357 0.54079 -0.05055
 H437 H 0.48553 0.42376 0.02167
 H438 H 0.45957 0.45174 0.04706
 H439 H 0.54624 0.54930 -0.04914
 H440 H 0.51710 0.57555 -0.02520
 H441 H 0.42567 0.47510 -0.01530
 H442 H 0.45051 0.45041 -0.04572
 H443 H 0.55163 0.55127 0.03967
 H444 H 0.57901 0.52445 0.01297
 O445 O -0.07212 0.01439 0.51072
 O446 O -0.07162 -0.03040 0.49875
 O447 O -0.01457 0.01710 0.57213
 O448 O 0.02673 0.00899 0.57575
 O449 O -0.01367 0.07506 0.51261
 O450 O -0.00081 0.07415 0.46887
 O451 O 0.05742 -0.04742 0.50392
 O452 O 0.03648 -0.05014 0.54471
 O453 O -0.00065 -0.05632 0.44882
 O454 O -0.04201 -0.03450 0.44158
 O455 O 0.05269 0.00502 0.44443
 O456 O 0.05765 0.04739 0.46790
 O457 O 0.07421 -0.01130 0.48671
 O458 O 0.07442 0.03402 0.49881
 O459 O 0.01770 -0.01558 0.42723
 O460 O -0.02687 -0.00444 0.42439
 O461 O 0.01766 -0.07112 0.48494
 O462 O 0.00381 -0.07192 0.52817
 O463 O -0.05519 0.05064 0.49376
 O464 O -0.03283 0.05457 0.45336
 O465 O 0.00240 0.05976 0.54969
 O466 O 0.04461 0.03963 0.55418
 O467 O -0.04993 -0.00209 0.55401
 O468 O -0.05487 -0.04323 0.53197
 Zr469 Zr -0.04020 -0.00959 0.51524
 O470 O -0.01711 -0.03440 0.49263
 Zr471 Zr 0.01059 0.02084 0.54081
 O472 O 0.03595 -0.00277 0.51927
 Zr473 Zr -0.01628 0.04218 0.48786
 O474 O 0.00789 0.01965 0.46404
 Zr475 Zr 0.01865 -0.03875 0.51045
 O476 O -0.00567 -0.01635 0.53481
 Zr477 Zr -0.00838 -0.01729 0.45775
 O478 O -0.03415 0.00633 0.47907
 Zr479 Zr 0.04258 0.01313 0.48318
 O480 O 0.01948 0.03839 0.50599
 O481 O -0.02453 0.02680 0.52331
 O482 O 0.02717 -0.02358 0.47476
 C483 C -0.07405 0.03724 0.50225
 C484 C -0.03743 0.00773 0.57343
 C485 C -0.00627 0.07794 0.53611
 C486 C 0.07621 -0.03411 0.49522
 C487 C 0.00902 -0.07436 0.46188
 C488 C 0.04027 -0.00574 0.42542
 H489 H -0.02627 -0.05105 0.48983
 H490 H 0.01059 0.02858 0.44779
 H491 H -0.03599 0.03776 0.53410
 H492 H 0.05197 -0.00470 0.52914
 H493 H 0.02577 -0.04360 0.55921
 H494 H 0.03996 -0.00392 0.57134
 H495 H -0.02010 0.01301 0.42106
 H496 H -0.04515 0.04090 0.44750
 H497 H -0.01374 -0.07519 0.52157
 H498 H -0.04191 -0.04854 0.54459
 H499 H 0.04700 0.05166 0.45292
 H500 H 0.01668 0.07710 0.47587
 H501 H -0.07356 -0.02439 0.48101
 H502 H -0.04713 -0.04901 0.45235
 H503 H 0.04875 0.05323 0.54193
 H504 H 0.07760 0.02773 0.51624
 O505 O 0.67805 0.23068 0.26122
 O506 O 0.67853 0.24427 0.21789
 O507 O 0.73752 0.17261 0.25779
 O508 O 0.77883 0.17092 0.24905
 O509 O 0.73613 0.23030 0.32155
 O510 O 0.74733 0.27474 0.32508
 O511 O 0.80771 0.24605 0.20038
 O512 O 0.78807 0.20407 0.19335
 O513 O 0.74807 0.29838 0.19691
 O514 O 0.70591 0.30284 0.21958
 O515 O 0.80080 0.30319 0.25751
 O516 O 0.80583 0.27978 0.29819
 O517 O 0.82336 0.26396 0.23780
 O518 O 0.82353 0.24927 0.28200
 O519 O 0.76505 0.32010 0.24011
 O520 O 0.72041 0.32032 0.25116
 O521 O 0.76747 0.26338 0.17847
 O522 O 0.75524 0.22006 0.17312
 O523 O 0.69373 0.24828 0.29881
 O524 O 0.71496 0.28912 0.30752
 O525 O 0.75512 0.19518 0.30284
 O526 O 0.79644 0.19251 0.28094
 O527 O 0.70135 0.18958 0.24119
 O528 O 0.69683 0.21191 0.20169
 Zr529 Zr 0.71029 0.22873 0.23695
 O530 O 0.73272 0.25322 0.21449
 Zr531 Zr 0.76179 0.20492 0.26446
 O532 O 0.78654 0.22829 0.24305
 Zr533 Zr 0.73272 0.25590 0.29129
 O534 O 0.75625 0.28155 0.27121
 Zr535 Zr 0.76909 0.23722 0.20820
 O536 O 0.74551 0.21105 0.22807
 Zr537 Zr 0.74009 0.28815 0.23503
 O538 O 0.71492 0.26482 0.25644
 Zr539 Zr 0.79158 0.26421 0.26265
 O540 O 0.76914 0.23969 0.28553
 O541 O 0.72602 0.22046 0.27243
 O542 O 0.77614 0.27286 0.22698
 C543 C 0.67531 0.23897 0.28467
 C544 C 0.71449 0.17064 0.24907
 C545 C 0.74580 0.20768 0.32245
 C546 C 0.82596 0.25612 0.21422
 C547 C 0.75829 0.28616 0.17757
 C548 C 0.78800 0.32203 0.24895
 H549 H 0.72360 0.25597 0.19818
 H550 H 0.75839 0.29771 0.28172
 H551 H 0.71503 0.20892 0.28256
 H552 H 0.80295 0.21935 0.24003
 H553 H 0.77747 0.18894 0.19789
 H554 H 0.79151 0.17618 0.23607
 H555 H 0.72663 0.32327 0.26903
 H556 H 0.70287 0.29513 0.29440
 H557 H 0.73708 0.22481 0.17129
 H558 H 0.70997 0.19946 0.19568
 H559 H 0.79495 0.29449 0.30357
 H560 H 0.76519 0.26888 0.32696
 H561 H 0.67590 0.26171 0.22577
 H562 H 0.70162 0.29247 0.20375
 H563 H 0.80080 0.20496 0.29525
 H564 H 0.82866 0.23320 0.27262
 O565 O 0.69393 0.76047 0.70129
 O566 O 0.71776 0.79987 0.69720
 O567 O 0.75189 0.70353 0.69265
 O568 O 0.78901 0.69457 0.71165
 O569 O 0.69698 0.69879 0.75353
 O570 O 0.69163 0.72103 0.79412
 O571 O 0.82244 0.76535 0.76660
 O572 O 0.82320 0.75184 0.72315
 O573 O 0.76710 0.82555 0.77005
 O574 O 0.72337 0.82899 0.75825
 O575 O 0.76552 0.76653 0.82449
 O576 O 0.75012 0.72203 0.82356
 O577 O 0.80471 0.74659 0.80121
 O578 O 0.77972 0.70599 0.80523
 O579 O 0.74818 0.80306 0.80980
 O580 O 0.70638 0.81027 0.78654
 O581 O 0.80216 0.80768 0.75113
 O582 O 0.80738 0.78707 0.70892
 O583 O 0.67615 0.74167 0.73592
 O584 O 0.67602 0.75477 0.78055
 O585 O 0.73155 0.68104 0.73350
 O586 O 0.77561 0.67947 0.74821
 O587 O 0.73572 0.74050 0.67735
 O588 O 0.74984 0.78434 0.67927
 Zr589 Zr 0.73306 0.76521 0.71039
 O590 O 0.75710 0.78873 0.73410
 Zr591 Zr 0.75815 0.71176 0.73204
 O592 O 0.78368 0.73300 0.75632
 Zr593 Zr 0.70738 0.73761 0.76103
 O594 O 0.73061 0.75966 0.78693
 Zr595 Zr 0.79129 0.76936 0.74143
 O596 O 0.76839 0.74679 0.71522
 Zr597 Zr 0.74047 0.79480 0.77057
 O598 O 0.71478 0.77395 0.74571
 Zr599 Zr 0.76580 0.74125 0.79187
 O600 O 0.74117 0.71751 0.76851
 O601 O 0.72358 0.72966 0.72512
 O602 O 0.77541 0.77721 0.77769
 C603 C 0.67463 0.75140 0.71361
 C604 C 0.74348 0.71717 0.67438
 C605 C 0.70894 0.67955 0.74313
 C606 C 0.82396 0.75566 0.78893
 C607 C 0.79011 0.82691 0.76144
 C608 C 0.75762 0.78975 0.82781
 H609 H 0.76018 0.80520 0.72562
 H610 H 0.72136 0.76224 0.80339
 H611 H 0.71220 0.71912 0.71353
 H612 H 0.79957 0.72308 0.75818
 H613 H 0.81650 0.74149 0.70815
 H614 H 0.80506 0.70172 0.71930
 H615 H 0.70172 0.80017 0.80166
 H616 H 0.67445 0.77236 0.77402
 H617 H 0.79598 0.80109 0.70388
 H618 H 0.76716 0.77706 0.67688
 H619 H 0.73384 0.73052 0.82831
 H620 H 0.70450 0.70884 0.80029
 H621 H 0.70594 0.80641 0.71076
 H622 H 0.72940 0.83181 0.74053
 H623 H 0.76663 0.67630 0.76459
 H624 H 0.79407 0.70051 0.79395
 O625 O 0.24518 0.19405 0.80004
 O626 O 0.20438 0.18822 0.77922
 O627 O 0.29784 0.18816 0.73774
 O628 O 0.30507 0.20765 0.70081
 O629 O 0.30495 0.24914 0.79511
 O630 O 0.28409 0.28968 0.80191
 O631 O 0.23243 0.25724 0.67312
 O632 O 0.24616 0.21465 0.67059
 O633 O 0.17602 0.25877 0.73246
 O634 O 0.17479 0.24731 0.77639
 O635 O 0.23408 0.31690 0.73219
 O636 O 0.27880 0.31859 0.74380
 O637 O 0.25019 0.29411 0.69069
 O638 O 0.29318 0.30001 0.71254
 O639 O 0.19877 0.29988 0.75086
 O640 O 0.19399 0.27708 0.79289
 O641 O 0.19190 0.24016 0.69568
 O642 O 0.21238 0.19846 0.68864
 O643 O 0.26224 0.23117 0.81791
 O644 O 0.25137 0.27569 0.81949
 O645 O 0.32092 0.23029 0.75844
 O646 O 0.32018 0.24531 0.71453
 O647 O 0.26210 0.17119 0.75598
 O648 O 0.21775 0.17045 0.74538
 Zr649 Zr 0.23772 0.20288 0.76156
 O650 O 0.21297 0.22480 0.73947
 Zr651 Zr 0.28923 0.22722 0.73343
 O652 O 0.26661 0.24988 0.70968
 Zr653 Zr 0.26617 0.25563 0.78670
 O654 O 0.24290 0.27994 0.76537
 Zr655 Zr 0.23038 0.23255 0.70412
 O656 O 0.25414 0.20808 0.72508
 Zr657 Zr 0.20771 0.26129 0.75741
 O658 O 0.22988 0.23809 0.78132
 Zr659 Zr 0.25908 0.28538 0.72891
 O660 O 0.28415 0.26375 0.75165
 O661 O 0.27334 0.21981 0.76909
 O662 O 0.22316 0.26872 0.72138
 C663 C 0.25391 0.20784 0.81927
 C664 C 0.28472 0.16925 0.74644
 C665 C 0.32339 0.23945 0.78164
 C666 C 0.24053 0.28061 0.67173
 C667 C 0.17354 0.24988 0.70918
 C668 C 0.21129 0.31873 0.74131
 H669 H 0.19652 0.21536 0.73721
 H670 H 0.24071 0.29643 0.77522
 H671 H 0.28431 0.20878 0.77954
 H672 H 0.27546 0.25207 0.69309
 H673 H 0.25706 0.20046 0.67634
 H674 H 0.29695 0.21456 0.68536
 H675 H 0.20382 0.29314 0.79703
 H676 H 0.23371 0.26907 0.82190
 H677 H 0.19831 0.19353 0.70027
 H678 H 0.22379 0.16822 0.72739
 H679 H 0.27249 0.32215 0.76151
 H680 H 0.29598 0.29565 0.78849
 H681 H 0.19874 0.20165 0.79195
 H682 H 0.17181 0.22928 0.77012
 H683 H 0.32361 0.26195 0.72393
 H684 H 0.29692 0.28948 0.69676
 O685 O 0.19899 0.80922 0.24793
 O686 O 0.19302 0.78698 0.20723
 O687 O 0.19351 0.74871 0.30103
 O688 O 0.21352 0.71239 0.30882
 O689 O 0.25492 0.80554 0.30733
 O690 O 0.29423 0.81114 0.28495
 O691 O 0.26252 0.68047 0.23373
 O692 O 0.22068 0.67911 0.24919
 O693 O 0.26303 0.73730 0.17743
 O694 O 0.25169 0.78136 0.17618
 O695 O 0.32143 0.73876 0.23517
 O696 O 0.32316 0.75158 0.27996
 O697 O 0.29865 0.69769 0.25210
 O698 O 0.30502 0.72155 0.29475
 O699 O 0.30434 0.75643 0.19988
 O700 O 0.28098 0.79831 0.19499
 O701 O 0.24456 0.70176 0.19400
 O702 O 0.20349 0.69651 0.21579
 O703 O 0.23565 0.82726 0.26458
 O704 O 0.27969 0.82746 0.25247
 O705 O 0.23593 0.77011 0.32367
 O706 O 0.25083 0.72571 0.32273
 O707 O 0.17650 0.76588 0.26529
 O708 O 0.17572 0.75413 0.22078
 Zr709 Zr 0.20793 0.77027 0.24048
 O710 O 0.22968 0.74668 0.21529
 Zr711 Zr 0.23250 0.74383 0.29197
 O712 O 0.25498 0.71859 0.26892
 Zr713 Zr 0.26026 0.79563 0.26804
 O714 O 0.28436 0.77270 0.24435
 Zr715 Zr 0.23767 0.71188 0.23280
 O716 O 0.21341 0.73433 0.25703
 Zr717 Zr 0.26581 0.76360 0.20923
 O718 O 0.24274 0.78896 0.23185
 Zr719 Zr 0.29012 0.73673 0.26065
 O720 O 0.26865 0.76107 0.28606
 O721 O 0.22478 0.77907 0.27606
 O722 O 0.27353 0.72801 0.22478
 C723 C 0.21248 0.82864 0.25640
 C724 C 0.17455 0.75685 0.28789
 C725 C 0.24570 0.79292 0.32612
 C726 C 0.28554 0.67865 0.24209
 C727 C 0.25395 0.71419 0.17523
 C728 C 0.32326 0.74736 0.21238
 H729 H 0.22015 0.74395 0.19896
 H730 H 0.30066 0.78219 0.24192
 H731 H 0.21386 0.79014 0.28733
 H732 H 0.25729 0.70226 0.27780
 H733 H 0.20660 0.68545 0.26042
 H734 H 0.21993 0.69641 0.30022
 H735 H 0.29667 0.80290 0.20493
 H736 H 0.27272 0.82935 0.23492
 H737 H 0.19857 0.70742 0.20145
 H738 H 0.17357 0.73636 0.22679
 H739 H 0.32659 0.76902 0.27360
 H740 H 0.30070 0.79802 0.29659
 H741 H 0.20631 0.79912 0.20120
 H742 H 0.23366 0.77569 0.17380
 H743 H 0.26732 0.73493 0.32589
 H744 H 0.29450 0.70629 0.29897
 O745 O 0.23795 0.67196 0.76197
 O746 O 0.28132 0.67214 0.74832
 O747 O 0.23873 0.73065 0.82311
 O748 O 0.24704 0.77209 0.82813
 O749 O 0.17912 0.72979 0.76356
 O750 O 0.17819 0.74223 0.72059
 O751 O 0.30192 0.80221 0.75687
 O752 O 0.30614 0.78200 0.79679
 O753 O 0.30692 0.74449 0.70005
 O754 O 0.28644 0.70392 0.69021
 O755 O 0.24694 0.79721 0.69764
 O756 O 0.20661 0.80277 0.72077
 O757 O 0.26585 0.81896 0.73995
 O758 O 0.22051 0.81859 0.75332
 O759 O 0.26560 0.76194 0.67896
 O760 O 0.25277 0.71504 0.67669
 O761 O 0.32382 0.76296 0.73665
 O762 O 0.32554 0.74799 0.77998
 O763 O 0.20262 0.68815 0.74318
 O764 O 0.19684 0.71085 0.70373
 O765 O 0.19525 0.74842 0.80047
 O766 O 0.21762 0.79029 0.80672
 O767 O 0.25766 0.69539 0.80458
 O768 O 0.29712 0.69025 0.78132
 Zr769 Zr 0.26275 0.70426 0.76581
 O770 O 0.28682 0.72731 0.74345
 Zr771 Zr 0.23426 0.75556 0.79248
 O772 O 0.25768 0.78085 0.77177
 Zr773 Zr 0.21082 0.72753 0.73886
 O774 O 0.23246 0.75209 0.71578
 Zr775 Zr 0.29269 0.76339 0.76235
 O776 O 0.27074 0.73935 0.78617
 Zr777 Zr 0.26856 0.73589 0.70887
 O778 O 0.24580 0.70979 0.72968
 Zr779 Zr 0.24045 0.78717 0.73599
 O780 O 0.21573 0.76382 0.75785
 O781 O 0.22709 0.71987 0.77424
 O782 O 0.27621 0.77172 0.72702
 C783 C 0.21537 0.66945 0.75223
 C784 C 0.24864 0.70815 0.82416
 C785 C 0.17663 0.73901 0.78668
 C786 C 0.28896 0.82097 0.74837
 C787 C 0.32563 0.75465 0.71314
 C788 C 0.25634 0.78472 0.67808
 H789 H 0.30308 0.71821 0.74022
 H790 H 0.22289 0.75462 0.69967
 H791 H 0.21632 0.70856 0.78484
 H792 H 0.26042 0.79705 0.78211
 H793 H 0.29985 0.77166 0.81117
 H794 H 0.26116 0.78426 0.82437
 H795 H 0.23722 0.72411 0.67129
 H796 H 0.20977 0.69827 0.69756
 H797 H 0.32982 0.73156 0.77080
 H798 H 0.30331 0.70352 0.79412
 H799 H 0.20058 0.79099 0.70655
 H800 H 0.17612 0.76010 0.72756
 H801 H 0.27443 0.67014 0.73058
 H802 H 0.29785 0.69612 0.70289
 H803 H 0.20377 0.79456 0.79462
 H804 H 0.22929 0.82358 0.76967
 O805 O 0.25314 0.20213 0.18976
 O806 O 0.29338 0.19603 0.21083
 O807 O 0.19954 0.19666 0.25125
 O808 O 0.19208 0.21658 0.28921
 O809 O 0.19483 0.25798 0.19821
 O810 O 0.21743 0.29798 0.19425
 O811 O 0.26561 0.26583 0.32159
 O812 O 0.25127 0.22326 0.32085
 O813 O 0.32336 0.26694 0.26306
 O814 O 0.32498 0.25502 0.21858
 O815 O 0.26687 0.32522 0.26626
 O816 O 0.22205 0.32671 0.25419
 O817 O 0.24951 0.30274 0.30615
 O818 O 0.20739 0.30903 0.28452
 O819 O 0.30191 0.30797 0.24678
 O820 O 0.30663 0.28437 0.20342
 O821 O 0.30651 0.24871 0.29839
 O822 O 0.28464 0.20690 0.30200
 O823 O 0.23705 0.23915 0.17454
 O824 O 0.24961 0.28335 0.17607
 O825 O 0.17765 0.23894 0.23296
 O826 O 0.17846 0.25415 0.27802
 O827 O 0.23502 0.17926 0.23241
 O828 O 0.27908 0.17850 0.24314
 Zr829 Zr 0.26025 0.21096 0.22909
 O830 O 0.28541 0.23290 0.25310
 Zr831 Zr 0.20906 0.23577 0.25819
 O832 O 0.23212 0.25842 0.28383
 Zr833 Zr 0.23377 0.26378 0.20738
 O834 O 0.25753 0.28804 0.23066
 Zr835 Zr 0.26784 0.24103 0.28878
 O836 O 0.24354 0.21660 0.26574
 Zr837 Zr 0.29205 0.26926 0.23782
 O838 O 0.26945 0.24605 0.21200
 Zr839 Zr 0.24097 0.29380 0.26724
 O840 O 0.21552 0.27219 0.24271
 O841 O 0.22520 0.22803 0.22223
 O842 O 0.27635 0.27708 0.27416
 C843 C 0.24496 0.21590 0.17146
 C844 C 0.21228 0.17754 0.24167
 C845 C 0.17580 0.24851 0.21058
 C846 C 0.25818 0.28927 0.32439
 C847 C 0.32535 0.25830 0.28579
 C848 C 0.28972 0.32699 0.25729
 H849 H 0.30156 0.22340 0.25493
 H850 H 0.26030 0.30444 0.22193
 H851 H 0.21398 0.21704 0.21088
 H852 H 0.22308 0.26075 0.30044
 H853 H 0.23985 0.20925 0.31394
 H854 H 0.20048 0.22325 0.30522
 H855 H 0.29736 0.30044 0.20016
 H856 H 0.26706 0.27651 0.17337
 H857 H 0.29905 0.20214 0.29051
 H858 H 0.27318 0.17670 0.26109
 H859 H 0.22931 0.33067 0.23719
 H860 H 0.20556 0.30425 0.20790
 H861 H 0.29966 0.20942 0.19922
 H862 H 0.32713 0.23692 0.22340
 H863 H 0.17571 0.27081 0.26981
 H864 H 0.20265 0.29808 0.29899
 O865 O 0.79822 0.69027 0.24385
 O866 O 0.80359 0.71166 0.20431
 O867 O 0.80601 0.75118 0.30055
 O868 O 0.78758 0.78919 0.30947
 O869 O 0.74500 0.69616 0.30508
 O870 O 0.70424 0.69119 0.28416
 O871 O 0.73669 0.81986 0.23919
 O872 O 0.77927 0.82073 0.25177
 O873 O 0.73294 0.76115 0.17900
 O874 O 0.74417 0.71665 0.17541
 O875 O 0.67672 0.76262 0.23797
 O876 O 0.67612 0.75025 0.28239
 O877 O 0.70029 0.80323 0.25636
 O878 O 0.69482 0.78095 0.29802
 O879 O 0.69262 0.74361 0.20144
 O880 O 0.71490 0.70092 0.19406
 O881 O 0.75165 0.79737 0.19672
 O882 O 0.79424 0.80219 0.21686
 O883 O 0.76178 0.67340 0.26077
 O884 O 0.71737 0.67341 0.25033
 O885 O 0.76316 0.73262 0.32315
 O886 O 0.75045 0.77731 0.32445
 O887 O 0.82185 0.73328 0.26330
 O888 O 0.82167 0.74479 0.21944
 Zr889 Zr 0.78977 0.72928 0.23885
 O890 O 0.76763 0.75244 0.21532
 Zr891 Zr 0.76710 0.75753 0.29233
 O892 O 0.74430 0.78236 0.27105
 Zr893 Zr 0.73785 0.70544 0.26667
 O894 O 0.71338 0.72794 0.24467
 Zr895 Zr 0.76065 0.78789 0.23471
 O896 O 0.78529 0.76578 0.25729
 Zr897 Zr 0.73113 0.73578 0.20955
 O898 O 0.75447 0.71077 0.23033
 Zr899 Zr 0.70866 0.76444 0.26290
 O900 O 0.73054 0.74063 0.28663
 O901 O 0.77376 0.72173 0.27445
 O902 O 0.72439 0.77192 0.22702
 C903 C 0.78463 0.67134 0.25180
 C904 C 0.82445 0.74221 0.28657
 C905 C 0.75416 0.70955 0.32437
 C906 C 0.71374 0.82195 0.24778
 C907 C 0.74145 0.78439 0.17768
 C908 C 0.67427 0.75370 0.21468
 H909 H 0.77660 0.75461 0.19880
 H910 H 0.69686 0.71865 0.24216
 H911 H 0.78474 0.71069 0.28486
 H912 H 0.74251 0.79893 0.28088
 H913 H 0.79360 0.81437 0.26221
 H914 H 0.78101 0.80501 0.30190
 H915 H 0.69923 0.69707 0.20397
 H916 H 0.72347 0.67107 0.23237
 H917 H 0.79809 0.79103 0.20154
 H918 H 0.82400 0.76272 0.22633
 H919 H 0.67202 0.73290 0.27484
 H920 H 0.69869 0.70470 0.29685
 H921 H 0.78988 0.69976 0.19782
 H922 H 0.76187 0.72276 0.17225
 H923 H 0.73350 0.76916 0.32732
 H924 H 0.70568 0.79618 0.30268
 O925 O 0.75149 0.30294 0.80955
 O926 O 0.79134 0.30887 0.78805
 O927 O 0.69814 0.31011 0.74709
 O928 O 0.68896 0.28992 0.70982
 O929 O 0.68937 0.24885 0.80081
 O930 O 0.71029 0.20871 0.80562
 O931 O 0.76184 0.23841 0.67844
 O932 O 0.74792 0.28128 0.67846
 O933 O 0.81808 0.23757 0.73732
 O934 O 0.81915 0.24888 0.78254
 O935 O 0.75863 0.17999 0.73323
 O936 O 0.71440 0.17886 0.74491
 O937 O 0.74161 0.20293 0.69321
 O938 O 0.69932 0.19792 0.71598
 O939 O 0.79456 0.19634 0.75268
 O940 O 0.80027 0.21880 0.79599
 O941 O 0.80244 0.25645 0.70198
 O942 O 0.78230 0.29732 0.69714
 O943 O 0.73152 0.26759 0.82500
 O944 O 0.74352 0.22309 0.82375
 O945 O 0.67379 0.26860 0.76592
 O946 O 0.67404 0.25289 0.72084
 O947 O 0.73328 0.32631 0.76818
 O948 O 0.77728 0.32637 0.75573
 Zr949 Zr 0.75743 0.29427 0.77025
 O950 O 0.78159 0.27162 0.74662
 Zr951 Zr 0.70535 0.27065 0.74087
 O952 O 0.72734 0.24735 0.71545
 Zr953 Zr 0.72818 0.24244 0.79225
 O954 O 0.75077 0.21745 0.76908
 Zr955 Zr 0.76389 0.26381 0.71081
 O956 O 0.74072 0.28899 0.73349
 Zr957 Zr 0.78633 0.23517 0.76207
 O958 O 0.76479 0.25913 0.78766
 Zr959 Zr 0.73421 0.21192 0.73235
 O960 O 0.70981 0.23425 0.75675
 O961 O 0.72153 0.27819 0.77697
 O962 O 0.77050 0.22762 0.72560
 C963 C 0.74166 0.29024 0.82795
 C964 C 0.71112 0.32880 0.75785
 C965 C 0.67109 0.25893 0.78816
 C966 C 0.75214 0.21564 0.67518
 C967 C 0.82077 0.24685 0.71490
 C968 C 0.78147 0.17770 0.74198
 H969 H 0.79814 0.28086 0.74499
 H970 H 0.75267 0.20097 0.77777
 H971 H 0.71081 0.28948 0.78821
 H972 H 0.71831 0.24520 0.69876
 H973 H 0.73758 0.29595 0.68513
 H974 H 0.69750 0.28351 0.69389
 H975 H 0.78935 0.20366 0.79966
 H976 H 0.76109 0.23006 0.82651
 H977 H 0.79518 0.30337 0.71004
 H978 H 0.77024 0.32902 0.73834
 H979 H 0.72050 0.17554 0.76248
 H980 H 0.69849 0.20235 0.79178
 H981 H 0.79734 0.29542 0.79957
 H982 H 0.82316 0.26639 0.77667
 H983 H 0.66984 0.23678 0.72963
 H984 H 0.69543 0.20837 0.70096
 C985 C 0.08206 1.00224 1.17289
 C986 C 0.10689 0.99205 1.17487
 C987 C 0.11878 0.99091 1.19903
 C988 C 0.10637 0.99923 1.22202
 C989 C 0.08144 1.00920 1.21952
 C990 C 0.06945 1.01039 1.19560
 C991 C 0.07064 1.00459 1.14658
 C992 C 0.04655 1.01566 1.14250
 C993 C 0.03664 1.01723 1.11770
 C994 C 0.05036 1.00777 1.09618
 C995 C 0.07465 0.99717 1.09998
 C996 C 0.08487 0.99561 1.12492
 C997 C 0.12005 0.98360 1.15267
 C998 C 0.10920 0.98515 1.12826
 H999 H 0.13910 0.97569 1.15418
 H1000 H 0.12015 0.97829 1.11172
 H1001 H 0.13835 0.98438 1.19964
 H1002 H 0.07156 1.01812 1.23571
 H1003 H 0.01788 1.02556 1.11550
 H1004 H 0.08553 0.98984 1.08358
 H1005 H 0.05057 1.01857 1.19536
 H1006 H 0.03495 1.02315 1.15815
 C1007 C 0.58771 0.50577 0.67203
 C1008 C 0.57369 0.51446 0.69395
 C1009 C 0.58441 0.51302 0.71882
 C1010 C 0.60871 0.50206 0.72232
 C1011 C 0.62257 0.49440 0.70006
 C1012 C 0.61227 0.49585 0.67559
 C1013 C 0.57597 0.50770 0.64587
 C1014 C 0.58873 0.49975 0.62307
 C1015 C 0.57678 0.50103 0.59920
 C1016 C 0.55176 0.51027 0.59721
 C1017 C 0.53910 0.51898 0.61978
 C1018 C 0.55101 0.51774 0.64402
 C1019 C 0.54920 0.52469 0.69078
 C1020 C 0.53806 0.52616 0.66639
 H1021 H 0.53837 0.53146 0.70743
 H1022 H 0.51896 0.53397 0.66504
 H1023 H 0.57403 0.52093 0.73526
 H1024 H 0.64198 0.48747 0.70149
 H1025 H 0.58716 0.49432 0.58224
 H1026 H 0.51976 0.52625 0.61859
 H1027 H 0.62415 0.48931 0.65977
 H1028 H 0.60786 0.49220 0.62309
 C1029 C 0.41344 -0.00128 0.67547
 C1030 C 0.42718 0.00837 0.69735
 C1031 C 0.41558 0.00865 0.72192
 C1032 C 0.39118 -0.00274 0.72535
 C1033 C 0.37795 -0.01207 0.70310
 C1034 C 0.38882 -0.01160 0.67884
 C1035 C 0.42573 -0.00038 0.64953
 C1036 C 0.41230 -0.00664 0.62652
 C1037 C 0.42457 -0.00594 0.60280
 C1038 C 0.45058 0.00063 0.60135
 C1039 C 0.46413 0.00739 0.62404
 C1040 C 0.45167 0.00759 0.64807
 C1041 C 0.45247 0.01725 0.69449
 C1042 C 0.46467 0.01622 0.67049
 H1043 H 0.46323 0.02448 0.71115
 H1044 H 0.48444 0.02273 0.66941
 H1045 H 0.42551 0.01803 0.73804
 H1046 H 0.35864 -0.01978 0.70441
 H1047 H 0.41375 -0.01096 0.58547
 H1048 H 0.48414 0.01314 0.62288
 H1049 H 0.37757 -0.01971 0.66305
 H1050 H 0.39223 -0.01179 0.62630
 C1051 C -0.08646 0.49971 1.17550
 C1052 C -0.07273 0.50856 1.19768
 C1053 C -0.08476 0.50913 1.22204
 C1054 C -0.10970 0.49881 1.22492
 C1055 C -0.12300 0.49046 1.20239
 C1056 C -0.11166 0.49065 1.17833
 C1057 C -0.07360 0.50013 1.14983
 C1058 C -0.08680 0.49436 1.12661
 C1059 C -0.07411 0.49476 1.10313
 C1060 C -0.04790 0.50057 1.10209
 C1061 C -0.03447 0.50664 1.12501
 C1062 C -0.04734 0.50710 1.14885
 C1063 C -0.04703 0.51636 1.19534
 C1064 C -0.03444 0.51505 1.17155
 H1065 H -0.03631 0.52300 1.21224
 H1066 H -0.01442 0.52077 1.17085
 H1067 H -0.07470 0.51786 1.23840
 H1068 H -0.14264 0.48360 1.20338
 H1069 H -0.08483 0.49021 1.08563
 H1070 H -0.01428 0.51173 1.12417
 H1071 H -0.12302 0.48327 1.16231
 H1072 H -0.10701 0.48986 1.12598
 C1073 C -0.08773 0.50156 0.32635
 C1074 C -0.07329 0.49348 0.30452
 C1075 C -0.08484 0.49189 0.27992
 C1076 C -0.11020 0.50020 0.27643
 C1077 C -0.12432 0.50748 0.29863
 C1078 C -0.11335 0.50845 0.32293
 C1079 C -0.07524 0.50230 0.35231
 C1080 C -0.08883 0.50798 0.37523
 C1081 C -0.07654 0.50819 0.39900
 C1082 C -0.05033 0.50318 0.40062
 C1083 C -0.03646 0.49757 0.37798
 C1084 C -0.04888 0.49654 0.35388
 C1085 C -0.04741 0.48725 0.30745
 C1086 C -0.03535 0.48921 0.33152
 H1087 H -0.03617 0.48117 0.29082
 H1088 H -0.01522 0.48452 0.33269
 H1089 H -0.07410 0.48381 0.26384
 H1090 H -0.14434 0.51251 0.29720
 H1091 H -0.08759 0.51248 0.41625
 H1092 H -0.01625 0.49317 0.37922
 H1093 H -0.12541 0.51479 0.33869
 H1094 H -0.10904 0.51193 0.37542
 C1095 C 0.41378 1.00037 -0.17315
 C1096 C 0.42843 0.99326 -0.19516
 C1097 C 0.41685 0.99178 -0.21977
 C1098 C 0.39118 0.99926 -0.22306
 C1099 C 0.37700 1.00597 -0.20073
 C1100 C 0.38801 1.00677 -0.17643
 C1101 C 0.42629 1.00081 -0.14719
 C1102 C 0.41251 1.00513 -0.12413
 C1103 C 0.42490 1.00547 -0.10039
 C1104 C 0.45139 1.00188 -0.09890
 C1105 C 0.46538 0.99733 -0.12170
 C1106 C 0.45289 0.99619 -0.14578
 C1107 C 0.45455 0.98793 -0.19238
 C1108 C 0.46662 0.98990 -0.16831
 H1109 H 0.46595 0.98263 -0.20913
 H1110 H 0.48694 0.98603 -0.16728
 H1111 H 0.42780 0.98437 -0.23601
 H1112 H 0.35687 1.01058 -0.20208
 H1113 H 0.41372 1.00888 -0.08305
 H1114 H 0.48581 0.99400 -0.12062
 H1115 H 0.37589 1.01263 -0.16054
 H1116 H 0.39209 1.00796 -0.12386
 C1117 C 0.58213 0.49482 -0.17829
 C1118 C 0.60701 0.50570 -0.17948
 C1119 C 0.61901 0.50838 -0.20320
 C1120 C 0.60685 0.50098 -0.22663
 C1121 C 0.58250 0.48911 -0.22536
 C1122 C 0.57014 0.48640 -0.20158
 C1123 C 0.57007 0.49254 -0.15216
 C1124 C 0.54519 0.48250 -0.14845
 C1125 C 0.53469 0.48163 -0.12369
 C1126 C 0.54872 0.49071 -0.10200
 C1127 C 0.57369 0.50016 -0.10553
 C1128 C 0.58433 0.50127 -0.13021
 C1129 C 0.62011 0.51371 -0.15701
 C1130 C 0.60904 0.51150 -0.13291
 H1131 H 0.63927 0.52191 -0.15807
 H1132 H 0.61994 0.51813 -0.11611
 H1133 H 0.63840 0.51613 -0.20343
 H1134 H 0.57319 0.48128 -0.24259
 H1135 H 0.51533 0.47424 -0.12163
 H1136 H 0.58484 0.50721 -0.08904
 H1137 H 0.55145 0.47729 -0.20178
 H1138 H 0.53343 0.47560 -0.16441
 C1139 C 0.08292 0.00018 0.32247
 C1140 C 0.10766 0.01114 0.32026
 C1141 C 0.11927 0.01258 0.29600
 C1142 C 0.10664 0.00387 0.27312
 C1143 C 0.08179 -0.00685 0.27585
 C1144 C 0.07008 -0.00837 0.29987
 C1145 C 0.07182 -0.00246 0.34887
 C1146 C 0.04792 -0.01440 0.35318
 C1147 C 0.03824 -0.01610 0.37805
 C1148 C 0.05202 -0.00592 0.39943
 C1149 C 0.07617 0.00546 0.39540
 C1150 C 0.08617 0.00715 0.37039
 C1151 C 0.12098 0.02012 0.34232
 C1152 C 0.11038 0.01838 0.36682
 H1153 H 0.13995 0.02863 0.34064
 H1154 H 0.12143 0.02571 0.38325
 H1155 H 0.13878 0.01970 0.29525
 H1156 H 0.07173 -0.01602 0.25975
 H1157 H 0.01958 -0.02507 0.38043
 H1158 H 0.08711 0.01333 0.41168
 H1159 H 0.05124 -0.01709 0.30029
 H1160 H 0.03627 -0.02246 0.33766
 C1161 C 0.17734 1.08212 0.99467
 C1162 C 0.17963 1.10667 0.98408
 C1163 C 0.20360 1.11901 0.98293
 C1164 C 0.22624 1.10748 0.99171
 C1165 C 0.22353 1.08286 1.00224
 C1166 C 0.19970 1.07032 1.00341
 C1167 C 0.15104 1.07034 0.99694
 C1168 C 0.14649 1.04633 1.00797
 C1169 C 0.12164 1.03627 1.00969
 C1170 C 0.10057 1.04979 1.00045
 C1171 C 0.10490 1.07385 0.98968
 C1172 C 0.12981 1.08416 0.98789
 C1173 C 0.15787 1.11928 0.97534
 C1174 C 0.13352 1.10823 0.97712
 H1175 H 0.15965 1.13812 0.96715
 H1176 H 0.11731 1.11882 0.97014
 H1177 H 0.20414 1.13837 0.97610
 H1178 H 0.23933 1.07379 1.01161
 H1179 H 0.11901 1.01762 1.01807
 H1180 H 0.08888 1.08455 0.98242
 H1181 H 0.19913 1.05179 1.01212
 H1182 H 0.16181 1.03494 1.01529
 C1183 C 0.67646 0.58141 0.49554
 C1184 C 0.67884 0.60618 0.48545
 C1185 C 0.70279 0.61867 0.48506
 C1186 C 0.72524 0.60705 0.49422
 C1187 C 0.72241 0.58212 0.50402
 C1188 C 0.69867 0.56945 0.50436
 C1189 C 0.65019 0.56957 0.49743
 C1190 C 0.64560 0.54549 0.50826
 C1191 C 0.62076 0.53549 0.50997
 C1192 C 0.59974 0.54913 0.50085
 C1193 C 0.60409 0.57321 0.49010
 C1194 C 0.62902 0.58350 0.48841
 C1195 C 0.65717 0.61885 0.47659
 C1196 C 0.63282 0.60770 0.47792
 H1197 H 0.65902 0.63784 0.46873
 H1198 H 0.61666 0.61837 0.47095
 H1199 H 0.70346 0.63821 0.47866
 H1200 H 0.73797 0.57296 0.51369
 H1201 H 0.61811 0.51683 0.51830
 H1202 H 0.58809 0.58399 0.48295
 H1203 H 0.69805 0.55071 0.51263
 H1204 H 0.66087 0.53400 0.51556
 C1205 C 0.67616 0.41738 -0.00132
 C1206 C 0.67745 0.39386 0.01143
 C1207 C 0.70104 0.38191 0.01475
 C1208 C 0.72419 0.39302 0.00620
 C1209 C 0.72252 0.41573 -0.00773
 C1210 C 0.69903 0.42798 -0.01103
 C1211 C 0.65033 0.42946 -0.00434
 C1212 C 0.64676 0.45322 -0.01607
 C1213 C 0.62233 0.46390 -0.01770
 C1214 C 0.60081 0.45115 -0.00775
 C1215 C 0.60418 0.42724 0.00346
 C1216 C 0.62858 0.41649 0.00540
 C1217 C 0.65515 0.38200 0.02047
 C1218 C 0.63125 0.39302 0.01746
 H1219 H 0.65618 0.36386 0.03009
 H1220 H 0.61459 0.38309 0.02489
 H1221 H 0.70115 0.36331 0.02354
 H1222 H 0.73936 0.42386 -0.01662
 H1223 H 0.62040 0.48240 -0.02642
 H1224 H 0.58783 0.41711 0.01130
 H1225 H 0.69913 0.44542 -0.02169
 H1226 H 0.66261 0.46404 -0.02373
 C1227 C 0.17602 -0.08133 0.50334
 C1228 C 0.17753 -0.10774 0.49618
 C1229 C 0.20094 -0.12048 0.49773
 C1230 C 0.22366 -0.10776 0.50638
 C1231 C 0.22093 -0.08227 0.51656
 C1232 C 0.19782 -0.06903 0.51435
 C1233 C 0.15074 -0.06823 0.50041
 C1234 C 0.14777 -0.04137 0.50396
 C1235 C 0.12366 -0.03022 0.50144
 C1236 C 0.10194 -0.04562 0.49575
 C1237 C 0.10481 -0.07226 0.49152
 C1238 C 0.12904 -0.08352 0.49319
 C1239 C 0.15552 -0.12162 0.48822
 C1240 C 0.13169 -0.10990 0.48733
 H1241 H 0.15663 -0.14201 0.48305
 H1242 H 0.11517 -0.12159 0.48153
 H1243 H 0.20098 -0.14082 0.49279
 H1244 H 0.23615 -0.07264 0.52738
 H1245 H 0.12186 -0.00957 0.50465
 H1246 H 0.08817 -0.08418 0.48658
 H1247 H 0.19707 -0.04950 0.52224
 H1248 H 0.16387 -0.02873 0.50849
 C1249 C 0.32418 -0.08380 0.51577
 C1250 C 0.30287 -0.07006 0.50707
 C1251 C 0.27863 -0.08229 0.50482
 C1252 C 0.27454 -0.10797 0.51247
 C1253 C 0.29642 -0.12108 0.52098
 C1254 C 0.32042 -0.10929 0.52299
 C1255 C 0.35011 -0.07101 0.51590
 C1256 C 0.37277 -0.08416 0.52170
 C1257 C 0.39659 -0.07188 0.52023
 C1258 C 0.39850 -0.04607 0.51350
 C1259 C 0.37608 -0.03253 0.50825
 C1260 C 0.35198 -0.04499 0.50880
 C1261 C 0.30602 -0.04436 0.50010
 C1262 C 0.32995 -0.03197 0.50137
 H1263 H 0.28972 -0.03362 0.49359
 H1264 H 0.33133 -0.01209 0.49579
 H1265 H 0.26360 -0.07212 0.49533
 H1266 H 0.29572 -0.14111 0.52551
 H1267 H 0.41368 -0.08266 0.52438
 H1268 H 0.37752 -0.01265 0.50261
 H1269 H 0.33584 -0.12082 0.52985
 H1270 H 0.37270 -0.10408 0.52684
 C1271 C -0.17728 0.41923 1.01437
 C1272 C -0.17869 0.39270 1.00726
 C1273 C -0.20237 0.37996 1.00595
 C1274 C -0.22550 0.39305 1.01069
 C1275 C -0.22392 0.41895 1.01974
 C1276 C -0.20019 0.43198 1.02123
 C1277 C -0.15142 0.43232 1.01408
 C1278 C -0.14766 0.45887 1.01988
 C1279 C -0.12321 0.47016 1.01843
 C1280 C -0.10192 0.45529 1.01108
 C1281 C -0.10549 0.42881 1.00565
 C1282 C -0.12985 0.41733 1.00702
 C1283 C -0.15653 0.37891 1.00104
 C1284 C -0.13262 0.39095 1.00097
 H1285 H -0.15772 0.35850 0.99581
 H1286 H -0.11608 0.37948 0.99572
 H1287 H -0.20296 0.35964 1.00028
 H1288 H -0.24090 0.42926 1.02576
 H1289 H -0.12104 0.49065 1.02280
 H1290 H -0.08926 0.41699 1.00015
 H1291 H -0.20016 0.45196 1.02777
 H1292 H -0.16337 0.47126 1.02528
 C1293 C -0.17488 0.58611 0.50247
 C1294 C -0.19596 0.57239 0.49143
 C1295 C -0.22025 0.58379 0.49092
 C1296 C -0.22446 0.60895 0.50155
 C1297 C -0.20287 0.62231 0.51198
 C1298 C -0.17882 0.61111 0.51282
 C1299 C -0.14902 0.57385 0.50160
 C1300 C -0.12689 0.58618 0.51187
 C1301 C -0.10316 0.57427 0.51021
 C1302 C -0.10071 0.54964 0.49839
 C1303 C -0.12269 0.53709 0.48818
 C1304 C -0.14674 0.54900 0.48968
 C1305 C -0.19249 0.54771 0.48014
 C1306 C -0.16843 0.53626 0.47930
 H1307 H -0.20861 0.53713 0.47161
 H1308 H -0.16677 0.51720 0.47022
 H1309 H -0.23533 0.57352 0.48041
 H1310 H -0.20402 0.64208 0.51896
 H1311 H -0.08667 0.58445 0.51843
 H1312 H -0.12115 0.51802 0.47906
 H1313 H -0.16346 0.62282 0.52104
 H1314 H -0.12735 0.60502 0.52133
 C1315 C 0.32658 1.08699 -0.00079
 C1316 C 0.30550 1.07271 -0.01109
 C1317 C 0.28109 1.08398 -0.01201
 C1318 C 0.27693 1.10956 -0.00251
 C1319 C 0.29867 1.12358 0.00664
 C1320 C 0.32273 1.11256 0.00791
 C1321 C 0.35244 1.07475 -0.00074
 C1322 C 0.37437 1.08745 0.00953
 C1323 C 0.39814 1.07562 0.00865
 C1324 C 0.40088 1.05067 -0.00232
 C1325 C 0.37905 1.03764 -0.01236
 C1326 C 0.35491 1.04948 -0.01159
 C1327 C 0.30911 1.04757 -0.02122
 C1328 C 0.33327 1.03625 -0.02155
 H1329 H 0.29304 1.03655 -0.02927
 H1330 H 0.33505 1.01685 -0.02980
 H1331 H 0.26588 1.07321 -0.02182
 H1332 H 0.29760 1.14372 0.01234
 H1333 H 0.41446 1.08616 0.01678
 H1334 H 0.38079 1.01829 -0.02075
 H1335 H 0.33815 1.12482 0.01509
 H1336 H 0.37370 1.10651 0.01847
 C1337 C 0.00356 1.17755 1.08639
 C1338 C 0.01222 1.19920 1.07291
 C1339 C 0.01085 1.22427 1.08456
 C1340 C -0.00024 1.22820 1.10916
 C1341 C -0.00808 1.20613 1.12231
 C1342 C -0.00660 1.18153 1.11116
 C1343 C 0.00568 1.15116 1.07388
 C1344 C -0.00157 1.12862 1.08643
 C1345 C -0.00019 1.10453 1.07389
 C1346 C 0.00846 1.10195 1.04838
 C1347 C 0.01659 1.12426 1.03586
 C1348 C 0.01533 1.14880 1.04849
 C1349 C 0.02224 1.19554 1.04801
 C1350 C 0.02351 1.17096 1.03598
 H1351 H 0.02893 1.21198 1.03752
 H1352 H 0.03109 1.16926 1.01659
 H1353 H 0.01893 1.24044 1.07466
 H1354 H -0.01516 1.20777 1.14187
 H1355 H -0.00634 1.08784 1.08427
 H1356 H 0.02351 1.12262 1.01622
 H1357 H -0.01339 1.16596 1.12256
 H1358 H -0.00853 1.12897 1.10594
 C1359 C 0.50779 0.68051 0.58326
 C1360 C 0.49816 0.68254 0.60862
 C1361 C 0.49586 0.70667 0.62112
 C1362 C 0.50222 0.72976 0.60894
 C1363 C 0.51340 0.72759 0.58431
 C1364 C 0.51575 0.70337 0.57146
 C1365 C 0.50926 0.65400 0.57052
 C1366 C 0.51778 0.64950 0.54503
 C1367 C 0.51787 0.62446 0.53391
 C1368 C 0.50949 0.60324 0.54787
 C1369 C 0.50151 0.60755 0.57341
 C1370 C 0.50121 0.63253 0.58469
 C1371 C 0.49087 0.66049 0.62164
 C1372 C 0.49241 0.63604 0.60997
 H1373 H 0.48367 0.66218 0.64119
 H1374 H 0.48633 0.61962 0.62083
 H1375 H 0.48898 0.70748 0.64080
 H1376 H 0.52084 0.74443 0.57508
 H1377 H 0.52413 0.62182 0.51413
 H1378 H 0.49503 0.59144 0.58452
 H1379 H 0.52415 0.70291 0.55249
 H1380 H 0.52406 0.66507 0.53329
 C1381 C -0.00149 0.67343 0.41811
 C1382 C 0.00853 0.67415 0.39291
 C1383 C 0.00909 0.69736 0.37993
 C1384 C 0.00046 0.72073 0.39157
 C1385 C -0.01038 0.71936 0.41641
 C1386 C -0.01105 0.69635 0.42953
 C1387 C -0.00221 0.64805 0.43108
 C1388 C -0.01178 0.64517 0.45618
 C1389 C -0.01227 0.62104 0.46725
 C1390 C -0.00315 0.59910 0.45367
 C1391 C 0.00656 0.60184 0.42871
 C1392 C 0.00709 0.62598 0.41740
 C1393 C 0.01755 0.65161 0.38050
 C1394 C 0.01684 0.62805 0.39247
 H1395 H 0.02520 0.65215 0.36114
 H1396 H 0.02399 0.61117 0.38199
 H1397 H 0.01589 0.69684 0.36030
 H1398 H -0.01964 0.73582 0.42555
 H1399 H -0.01979 0.61962 0.48657
 H1400 H 0.01373 0.58514 0.41794
 H1401 H -0.01972 0.69687 0.44837
 H1402 H -0.01895 0.66128 0.46764
 C1403 C 0.49532 1.17256 -0.08800
 C1404 C 0.48766 1.19501 -0.07384
 C1405 C 0.48776 1.21912 -0.08560
 C1406 C 0.49590 1.22115 -0.11133
 C1407 C 0.50201 1.19827 -0.12535
 C1408 C 0.50196 1.17459 -0.11399
 C1409 C 0.49553 1.14736 -0.07498
 C1410 C 0.50404 1.12444 -0.08739
 C1411 C 0.50394 1.10138 -0.07469
 C1412 C 0.49548 1.10031 -0.04915
 C1413 C 0.48707 1.12311 -0.03642
 C1414 C 0.48719 1.14663 -0.04913
 C1415 C 0.47970 1.19309 -0.04821
 C1416 C 0.47932 1.16940 -0.03618
 H1417 H 0.47362 1.21014 -0.03728
 H1418 H 0.47296 1.16895 -0.01635
 H1419 H 0.48100 1.23596 -0.07486
 H1420 H 0.50702 1.19876 -0.14555
 H1421 H 0.51066 1.08427 -0.08507
 H1422 H 0.48066 1.12265 -0.01661
 H1423 H 0.50696 1.15815 -0.12616
 H1424 H 0.51113 1.12377 -0.10686
 C1425 C 0.49899 0.32285 -0.08803
 C1426 C 0.51071 0.30195 -0.07614
 C1427 C 0.50917 0.27693 -0.08779
 C1428 C 0.49490 0.27215 -0.11064
 C1429 C 0.48359 0.29349 -0.12207
 C1430 C 0.48516 0.31807 -0.11087
 C1431 C 0.50189 0.34936 -0.07599
 C1432 C 0.49253 0.37135 -0.08774
 C1433 C 0.49482 0.39556 -0.07562
 C1434 C 0.50651 0.39880 -0.05138
 C1435 C 0.51682 0.37711 -0.03981
 C1436 C 0.51478 0.35245 -0.05210
 C1437 C 0.52395 0.30630 -0.05283
 C1438 C 0.52558 0.33092 -0.04087
 H1439 H 0.53291 0.29038 -0.04352
 H1440 H 0.53569 0.33319 -0.02268
 H1441 H 0.51954 0.26139 -0.07937
 H1442 H 0.47390 0.29149 -0.14047
 H1443 H 0.48694 0.41180 -0.08531
 H1444 H 0.52624 0.37934 -0.02124
 H1445 H 0.47556 0.33305 -0.12080
 H1446 H 0.48334 0.37047 -0.10632
 C1447 C 0.00344 -0.17850 0.41658
 C1448 C -0.00677 -0.18131 0.39147
 C1449 C -0.00873 -0.20578 0.37919
 C1450 C -0.00126 -0.22839 0.39141
 C1451 C 0.00925 -0.22506 0.41644
 C1452 C 0.01126 -0.20076 0.42887
 C1453 C 0.00606 -0.15182 0.42861
 C1454 C 0.01645 -0.14680 0.45336
 C1455 C 0.01806 -0.12163 0.46382
 C1456 C 0.00935 -0.10076 0.44992
 C1457 C -0.00053 -0.10554 0.42503
 C1458 C -0.00224 -0.13075 0.41436
 C1459 C -0.01453 -0.15962 0.37836
 C1460 C -0.01240 -0.13490 0.38960
 H1461 H -0.02237 -0.16178 0.35906
 H1462 H -0.01874 -0.11877 0.37867
 H1463 H -0.01539 -0.20677 0.35954
 H1464 H 0.01760 -0.24094 0.42618
 H1465 H 0.02577 -0.11860 0.48307
 H1466 H -0.00731 -0.08966 0.41400
 H1467 H 0.01971 -0.19984 0.44783
 H1468 H 0.02324 -0.16201 0.46509
 C1469 C 0.49338 -0.16918 0.59051
 C1470 C 0.48678 -0.19168 0.57554
 C1471 C 0.48874 -0.21629 0.58614
 C1472 C 0.49816 -0.21884 0.61135
 C1473 C 0.50313 -0.19600 0.62627
 C1474 C 0.50108 -0.17181 0.61611
 C1475 C 0.49175 -0.14339 0.57861
 C1476 C 0.49875 -0.12015 0.59190
 C1477 C 0.49787 -0.09668 0.57979
 C1478 C 0.48998 -0.09556 0.55407
 C1479 C 0.48237 -0.11858 0.54078
 C1480 C 0.48336 -0.14243 0.55280
 C1481 C 0.47819 -0.18937 0.55017
 C1482 C 0.47650 -0.16530 0.53906
 H1483 H 0.47290 -0.20645 0.53862
 H1484 H 0.46999 -0.16462 0.51929
 H1485 H 0.48252 -0.23317 0.57486
 H1486 H 0.50881 -0.19688 0.64626
 H1487 H 0.50378 -0.07936 0.59061
 H1488 H 0.47628 -0.11809 0.52086
 H1489 H 0.50554 -0.15550 0.62883
 H1490 H 0.50536 -0.11954 0.61155
 C1491 C -0.00391 0.32905 1.08794
 C1492 C -0.01195 0.30659 1.07366
 C1493 C -0.01083 0.28213 1.08481
 C1494 C -0.00104 0.27976 1.10994
 C1495 C 0.00551 0.30265 1.12409
 C1496 C 0.00437 0.32662 1.11338
 C1497 C -0.00491 0.35466 1.07561
 C1498 C 0.00348 0.37771 1.08831
 C1499 C 0.00261 0.40108 1.07615
 C1500 C -0.00656 0.40240 1.05086
 C1501 C -0.01519 0.37951 1.03797
 C1502 C -0.01430 0.35566 1.05015
 C1503 C -0.02122 0.30885 1.04850
 C1504 C -0.02242 0.33283 1.03704
 H1505 H -0.02759 0.29182 1.03745
 H1506 H -0.02966 0.33347 1.01752
 H1507 H -0.01806 0.26529 1.07410
 H1508 H 0.01167 0.30200 1.14396
 H1509 H 0.00939 0.41823 1.08672
 H1510 H -0.02225 0.38016 1.01838
 H1511 H 0.00991 0.34295 1.12564
 H1512 H 0.01107 0.37830 1.10760
 C1513 C 0.75428 0.33443 0.07827
 C1514 C 0.74541 0.36004 0.07840
 C1515 C 0.74343 0.37291 0.05534
 C1516 C 0.74933 0.36074 0.03137
 C1517 C 0.75869 0.33540 0.03140
 C1518 C 0.76087 0.32235 0.05442
 C1519 C 0.75650 0.32161 0.10363
 C1520 C 0.76551 0.29631 0.10590
 C1521 C 0.76667 0.28513 0.12993
 C1522 C 0.75883 0.29879 0.15238
 C1523 C 0.75032 0.32417 0.15035
 C1524 C 0.74914 0.33561 0.12633
 C1525 C 0.73875 0.37291 0.10156
 C1526 C 0.74046 0.36093 0.12499
 H1527 H 0.73198 0.39258 0.10158
 H1528 H 0.73489 0.37168 0.14234
 H1529 H 0.73745 0.39287 0.05601
 H1530 H 0.76515 0.32579 0.01381
 H1531 H 0.77333 0.26549 0.13080
 H1532 H 0.74430 0.33505 0.16748
 H1533 H 0.76813 0.30297 0.05315
 H1534 H 0.77155 0.28476 0.08936
 C1535 C 0.24873 0.83168 0.57827
 C1536 C 0.23846 0.85671 0.57809
 C1537 C 0.23727 0.86990 0.55506
 C1538 C 0.24583 0.85879 0.53138
 C1539 C 0.25578 0.83358 0.53194
 C1540 C 0.25693 0.82021 0.55478
 C1541 C 0.25132 0.81903 0.60369
 C1542 C 0.26224 0.79454 0.60622
 C1543 C 0.26435 0.78374 0.63037
 C1544 C 0.25561 0.79697 0.65270
 C1545 C 0.24492 0.82149 0.65036
 C1546 C 0.24277 0.83255 0.62621
 C1547 C 0.23017 0.86894 0.60105
 C1548 C 0.23217 0.85708 0.62455
 H1549 H 0.22220 0.88812 0.60090
 H1550 H 0.22556 0.86743 0.64176
 H1551 H 0.23069 0.88957 0.55605
 H1552 H 0.26493 0.82472 0.51526
 H1553 H 0.27262 0.76477 0.63145
 H1554 H 0.23804 0.83201 0.66736
 H1555 H 0.26528 0.80129 0.55372
 H1556 H 0.26922 0.78336 0.58984
 C1557 C 0.74217 0.66525 0.57360
 C1558 C 0.75183 0.67876 0.55252
 C1559 C 0.75433 0.66606 0.52811
 C1560 C 0.74588 0.64017 0.52370
 C1561 C 0.73681 0.62726 0.54544
 C1562 C 0.73456 0.63947 0.56952
 C1563 C 0.74140 0.67858 0.59967
 C1564 C 0.73432 0.66574 0.62207
 C1565 C 0.73493 0.67854 0.64608
 C1566 C 0.74207 0.70459 0.64848
 C1567 C 0.74871 0.71786 0.62632
 C1568 C 0.74899 0.70484 0.60201
 C1569 C 0.75936 0.70470 0.55613
 C1570 C 0.75757 0.71757 0.58022
 H1571 H 0.76666 0.71528 0.54005
 H1572 H 0.76356 0.73764 0.58193
 H1573 H 0.76446 0.67606 0.51329
 H1574 H 0.73201 0.60706 0.54456
 H1575 H 0.72970 0.66799 0.66294
 H1576 H 0.75463 0.73795 0.62818
 H1577 H 0.72715 0.62799 0.58474
 H1578 H 0.72872 0.64568 0.62171
 C1579 C 0.24610 0.16849 0.06845
 C1580 C 0.24001 0.14196 0.06627
 C1581 C 0.24088 0.12888 0.04225
 C1582 C 0.24796 0.14126 0.01948
 C1583 C 0.25607 0.16733 0.02248
 C1584 C 0.25453 0.18085 0.04628
 C1585 C 0.24508 0.18163 0.09467
 C1586 C 0.24861 0.20843 0.09879
 C1587 C 0.24812 0.21957 0.12371
 C1588 C 0.24445 0.20422 0.14510
 C1589 C 0.24034 0.17764 0.14117
 C1590 C 0.24012 0.16637 0.11620
 C1591 C 0.23415 0.12817 0.08823
 C1592 C 0.23468 0.14001 0.11270
 H1593 H 0.22968 0.10771 0.08654
 H1594 H 0.23056 0.12838 0.12912
 H1595 H 0.23721 0.10841 0.04186
 H1596 H 0.26548 0.17710 0.00708
 H1597 H 0.25112 0.24020 0.12631
 H1598 H 0.23690 0.16577 0.15758
 H1599 H 0.26124 0.20063 0.04722
 H1600 H 0.25157 0.22108 0.08301
 C1601 C 0.25547 0.16022 0.91841
 C1602 C 0.24614 0.17471 0.93990
 C1603 C 0.24444 0.16353 0.96416
 C1604 C 0.25385 0.13851 0.96822
 C1605 C 0.26267 0.12446 0.94618
 C1606 C 0.26379 0.13505 0.92204
 C1607 C 0.25556 0.17207 0.89255
 C1608 C 0.26184 0.15812 0.86963
 C1609 C 0.26117 0.16984 0.84595
 C1610 C 0.25477 0.19585 0.84451
 C1611 C 0.24852 0.21002 0.86714
 C1612 C 0.24824 0.19814 0.89103
 C1613 C 0.23840 0.20022 0.93698
 C1614 C 0.23997 0.21186 0.91320
 H1615 H 0.23137 0.21151 0.95341
 H1616 H 0.23409 0.23174 0.91205
 H1617 H 0.23436 0.17405 0.97927
 H1618 H 0.26825 0.10463 0.94703
 H1619 H 0.26593 0.15858 0.82866
 H1620 H 0.24303 0.23004 0.86600
 H1621 H 0.27113 0.12300 0.90646
 H1622 H 0.26690 0.13804 0.86943
 C1623 C 0.75544 0.66127 0.42312
 C1624 C 0.74633 0.67564 0.44479
 C1625 C 0.74444 0.66414 0.46892
 C1626 C 0.75336 0.63884 0.47256
 C1627 C 0.76218 0.62509 0.45034
 C1628 C 0.76356 0.63602 0.42642
 C1629 C 0.75552 0.67330 0.39737
 C1630 C 0.76134 0.65936 0.37431
 C1631 C 0.76072 0.67124 0.35072
 C1632 C 0.75481 0.69738 0.34951
 C1633 C 0.74896 0.71153 0.37229
 C1634 C 0.74861 0.69949 0.39610
 C1635 C 0.73897 0.70131 0.44213
 C1636 C 0.74066 0.71315 0.41845
 H1637 H 0.73214 0.71254 0.45869
 H1638 H 0.73508 0.73314 0.41750
 H1639 H 0.73449 0.67458 0.48417
 H1640 H 0.76743 0.60516 0.45075
 H1641 H 0.76515 0.65999 0.33333
 H1642 H 0.74382 0.73166 0.37132
 H1643 H 0.77088 0.62410 0.41073
 H1644 H 0.76596 0.63917 0.37390
 C1645 C 0.25109 0.84053 0.42927
 C1646 C 0.24038 0.82668 0.44961
 C1647 C 0.24050 0.83746 0.47490
 C1648 C 0.25152 0.86208 0.48085
 C1649 C 0.26149 0.87564 0.45993
 C1650 C 0.26167 0.86507 0.43492
 C1651 C 0.24985 0.82888 0.40242
 C1652 C 0.25987 0.84133 0.38090
 C1653 C 0.25813 0.82979 0.35627
 C1654 C 0.24647 0.80546 0.35228
 C1655 C 0.23635 0.79290 0.37362
 C1656 C 0.23796 0.80439 0.39853
 C1657 C 0.22895 0.80243 0.44448
 C1658 C 0.22779 0.79153 0.41952
 H1659 H 0.22064 0.79174 0.46000
 H1660 H 0.21869 0.77275 0.41660
 H1661 H 0.23051 0.82704 0.48955
 H1662 H 0.26869 0.89510 0.46231
 H1663 H 0.26623 0.83995 0.34031
 H1664 H 0.22731 0.77406 0.37093
 H1665 H 0.26964 0.87688 0.42022
 H1666 H 0.26924 0.85995 0.38258
 C1667 C 0.74691 0.34020 0.92995
 C1668 C 0.73416 0.32831 0.95048
 C1669 C 0.73510 0.33982 0.97555
 C1670 C 0.74948 0.36267 0.98075
 C1671 C 0.76087 0.37472 0.95963
 C1672 C 0.75996 0.36364 0.93496
 C1673 C 0.74554 0.32768 0.90352
 C1674 C 0.75779 0.33825 0.88216
 C1675 C 0.75612 0.32609 0.85793
 C1676 C 0.74234 0.30287 0.85407
 C1677 C 0.73000 0.29204 0.87527
 C1678 C 0.73148 0.30433 0.89994
 C1679 C 0.72040 0.30522 0.94569
 C1680 C 0.71911 0.29349 0.92100
 H1681 H 0.71050 0.29604 0.96128
 H1682 H 0.70828 0.27562 0.91836
 H1683 H 0.72441 0.33113 0.99091
 H1684 H 0.77038 0.39331 0.96196
 H1685 H 0.76602 0.33494 0.84215
 H1686 H 0.71928 0.27410 0.87263
 H1687 H 0.76936 0.37416 0.92012
 H1688 H 0.76894 0.35585 0.88356
 C1689 C 0.83894 0.42197 0.25221
 C1690 C 0.82426 0.44387 0.25932
 C1691 C 0.83572 0.46867 0.26015
 C1692 C 0.86114 0.47226 0.25169
 C1693 C 0.87565 0.45003 0.24589
 C1694 C 0.86484 0.42549 0.24593
 C1695 C 0.82627 0.39591 0.25143
 C1696 C 0.83983 0.37296 0.24622
 C1697 C 0.82722 0.34915 0.24543
 C1698 C 0.80076 0.34754 0.24942
 C1699 C 0.78697 0.37019 0.25474
 C1700 C 0.79964 0.39431 0.25628
 C1701 C 0.79816 0.44087 0.26499
 C1702 C 0.78602 0.41669 0.26305
 H1703 H 0.78679 0.45755 0.27039
 H1704 H 0.76569 0.41548 0.26711
 H1705 H 0.82473 0.48490 0.26738
 H1706 H 0.89571 0.45168 0.24082
 H1707 H 0.83822 0.33188 0.24143
 H1708 H 0.76654 0.36895 0.25838
 H1709 H 0.87713 0.40967 0.24053
 H1710 H 0.86021 0.37281 0.24295
 C1711 C 0.34005 0.92082 0.75273
 C1712 C 0.32522 0.94275 0.75935
 C1713 C 0.33668 0.96754 0.76041
 C1714 C 0.36237 0.97105 0.75277
 C1715 C 0.37707 0.94880 0.74774
 C1716 C 0.36621 0.92428 0.74754
 C1717 C 0.32728 0.89481 0.75135
 C1718 C 0.34082 0.87189 0.74597
 C1719 C 0.32817 0.84810 0.74483
 C1720 C 0.30167 0.84649 0.74862
 C1721 C 0.28786 0.86914 0.75385
 C1722 C 0.30055 0.89324 0.75568
 C1723 C 0.29897 0.93979 0.76433
 C1724 C 0.28684 0.91563 0.76219
 H1725 H 0.28750 0.95649 0.76942
 H1726 H 0.26642 0.91444 0.76580
 H1727 H 0.32547 0.98384 0.76708
 H1728 H 0.39728 0.95046 0.74329
 H1729 H 0.33918 0.83084 0.74084
 H1730 H 0.26739 0.86792 0.75726
 H1731 H 0.37869 0.90842 0.74277
 H1732 H 0.36121 0.87171 0.74281
 C1733 C 0.16123 0.92689 0.25255
 C1734 C 0.17545 0.94846 0.24440
 C1735 C 0.16334 0.97246 0.24179
 C1736 C 0.13743 0.97601 0.24908
 C1737 C 0.12348 0.95349 0.25505
 C1738 C 0.13500 0.92975 0.25716
 C1739 C 0.17435 0.90155 0.25476
 C1740 C 0.16134 0.87900 0.26211
 C1741 C 0.17400 0.85561 0.26286
 C1742 C 0.20009 0.85405 0.25698
 C1743 C 0.21357 0.87648 0.25043
 C1744 C 0.20077 0.90014 0.24888
 C1745 C 0.20156 0.94576 0.23862
 C1746 C 0.21398 0.92221 0.24100
 H1747 H 0.21262 0.96216 0.23230
 H1748 H 0.23419 0.92119 0.23637
 H1749 H 0.17396 0.98759 0.23270
 H1750 H 0.10306 0.95367 0.25766
 H1751 H 0.16330 0.83856 0.26813
 H1752 H 0.23375 0.87530 0.24563
 H1753 H 0.12272 0.91386 0.26214
 H1754 H 0.14131 0.87879 0.26709
 C1755 C 0.66492 0.43020 0.75501
 C1756 C 0.63994 0.43076 0.74461
 C1757 C 0.62745 0.45417 0.74244
 C1758 C 0.63930 0.47789 0.74976
 C1759 C 0.66371 0.47722 0.76128
 C1760 C 0.67651 0.45376 0.76353
 C1761 C 0.67750 0.40442 0.75677
 C1762 C 0.70250 0.40134 0.76640
 C1763 C 0.71335 0.37681 0.76713
 C1764 C 0.69957 0.35478 0.75826
 C1765 C 0.67459 0.35772 0.74897
 C1766 C 0.66359 0.38212 0.74808
 C1767 C 0.62722 0.40796 0.73655
 C1768 C 0.63878 0.38416 0.73828
 H1769 H 0.60799 0.40853 0.72870
 H1770 H 0.62816 0.36707 0.73168
 H1771 H 0.60801 0.45393 0.73506
 H1772 H 0.67277 0.49464 0.76913
 H1773 H 0.73270 0.37517 0.77438
 H1774 H 0.66361 0.34095 0.74212
 H1775 H 0.69524 0.45443 0.77235
 H1776 H 0.71403 0.41761 0.77321
 C1777 C 0.65870 0.57917 0.74553
 C1778 C 0.67246 0.55739 0.73627
 C1779 C 0.66146 0.53247 0.73738
 C1780 C 0.63714 0.52879 0.74857
 C1781 C 0.62338 0.55093 0.75647
 C1782 C 0.63396 0.57548 0.75533
 C1783 C 0.67088 0.60536 0.74423
 C1784 C 0.65860 0.62800 0.75322
 C1785 C 0.67085 0.65190 0.75228
 C1786 C 0.69573 0.65408 0.74241
 C1787 C 0.70804 0.63167 0.73292
 C1788 C 0.69581 0.60739 0.73382
 C1789 C 0.69698 0.56071 0.72582
 C1790 C 0.70842 0.58515 0.72467
 H1791 H 0.70758 0.54413 0.71857
 H1792 H 0.72750 0.58664 0.71660
 H1793 H 0.67169 0.51613 0.72913
 H1794 H 0.60392 0.54933 0.76348
 H1795 H 0.66077 0.66873 0.75969
 H1796 H 0.72728 0.63302 0.72521
 H1797 H 0.62215 0.59124 0.76202
 H1798 H 0.63962 0.62782 0.76133
 C1799 C 0.16098 0.07786 0.24354
 C1800 C 0.17532 0.05650 0.25116
 C1801 C 0.16331 0.03209 0.25329
 C1802 C 0.13742 0.02789 0.24585
 C1803 C 0.12346 0.05006 0.23983
 C1804 C 0.13487 0.07421 0.23828
 C1805 C 0.17392 0.10372 0.24228
 C1806 C 0.16062 0.12629 0.23649
 C1807 C 0.17328 0.15006 0.23622
 C1808 C 0.19959 0.15197 0.24112
 C1809 C 0.21324 0.12962 0.24650
 C1810 C 0.20047 0.10561 0.24764
 C1811 C 0.20147 0.05976 0.25679
 C1812 C 0.21385 0.08367 0.25469
 H1813 H 0.21264 0.04350 0.26262
 H1814 H 0.23415 0.08508 0.25903
 H1815 H 0.17398 0.01716 0.26221
 H1816 H 0.10309 0.04931 0.23681
 H1817 H 0.16243 0.16708 0.23201
 H1818 H 0.23357 0.13112 0.25071
 H1819 H 0.12263 0.08976 0.23311
 H1820 H 0.14038 0.12624 0.23244
 C1821 C 0.33359 0.06947 0.74555
 C1822 C 0.35936 0.06936 0.75373
 C1823 C 0.37215 0.04604 0.75563
 C1824 C 0.36005 0.02213 0.74934
 C1825 C 0.33543 0.02269 0.73824
 C1826 C 0.32208 0.04591 0.73705
 C1827 C 0.32019 0.09486 0.74537
 C1828 C 0.29366 0.09696 0.74099
 C1829 C 0.28207 0.12114 0.74154
 C1830 C 0.29675 0.14371 0.74594
 C1831 C 0.32309 0.14182 0.75043
 C1832 C 0.33473 0.11766 0.75086
 C1833 C 0.37253 0.09255 0.75952
 C1834 C 0.36063 0.11623 0.75754
 H1835 H 0.39246 0.09241 0.76540
 H1836 H 0.37170 0.13366 0.76196
 H1837 H 0.39197 0.04650 0.76190
 H1838 H 0.32647 0.00540 0.73000
 H1839 H 0.26162 0.12224 0.73824
 H1840 H 0.33439 0.15921 0.75448
 H1841 H 0.30309 0.04518 0.72879
 H1842 H 0.28155 0.08014 0.73763
 C1843 C 0.83273 0.57107 0.24712
 C1844 C 0.85886 0.57067 0.25403
 C1845 C 0.87160 0.54724 0.25487
 C1846 C 0.85907 0.52349 0.24889
 C1847 C 0.83398 0.52435 0.23896
 C1848 C 0.82073 0.54770 0.23874
 C1849 C 0.81944 0.59656 0.24820
 C1850 C 0.79277 0.59895 0.24500
 C1851 C 0.78136 0.62322 0.24656
 C1852 C 0.79634 0.64561 0.25089
 C1853 C 0.82281 0.64341 0.25435
 C1854 C 0.83432 0.61916 0.25365
 C1855 C 0.87237 0.59365 0.25978
 C1856 C 0.86048 0.61744 0.25905
 H1857 H 0.89255 0.59327 0.26470
 H1858 H 0.87181 0.63471 0.26340
 H1859 H 0.89165 0.54743 0.26036
 H1860 H 0.82455 0.50720 0.23097
 H1861 H 0.76082 0.62454 0.24398
 H1862 H 0.83440 0.66062 0.25828
 H1863 H 0.80136 0.54723 0.23143
 H1864 H 0.78045 0.58228 0.24168
 C1865 C 0.92711 0.25960 0.16685
 C1866 C 0.92826 0.25140 0.14066
 C1867 C 0.95182 0.25007 0.12802
 C1868 C 0.97511 0.25598 0.14083
 C1869 C 0.97380 0.26567 0.16648
 C1870 C 0.95020 0.26711 0.17943
 C1871 C 0.90126 0.26000 0.17970
 C1872 C 0.89769 0.26719 0.20587
 C1873 C 0.87324 0.26640 0.21696
 C1874 C 0.85173 0.25838 0.20229
 C1875 C 0.85510 0.25168 0.17613
 C1876 C 0.87948 0.25233 0.16485
 C1877 C 0.90594 0.24447 0.12701
 C1878 C 0.88208 0.24495 0.13883
 H1879 H 0.90693 0.23836 0.10686
 H1880 H 0.86541 0.23918 0.12745
 H1881 H 0.95210 0.24411 0.10779
 H1882 H 0.99081 0.27264 0.17652
 H1883 H 0.87129 0.27172 0.23721
 H1884 H 0.83873 0.24556 0.16446
 H1885 H 0.95038 0.27438 0.19916
 H1886 H 0.91353 0.27317 0.21813
 C1887 C 0.42486 0.75599 0.66251
 C1888 C 0.44657 0.76433 0.67709
 C1889 C 0.47119 0.76411 0.66574
 C1890 C 0.47457 0.75474 0.64012
 C1891 C 0.45246 0.74752 0.62583
 C1892 C 0.42829 0.74782 0.63673
 C1893 C 0.39900 0.75640 0.67496
 C1894 C 0.37652 0.74841 0.66174
 C1895 C 0.35295 0.74843 0.67414
 C1896 C 0.35088 0.75635 0.70014
 C1897 C 0.37312 0.76490 0.71346
 C1898 C 0.39714 0.76493 0.70105
 C1899 C 0.44341 0.77297 0.70278
 C1900 C 0.41927 0.77318 0.71452
 H1901 H 0.45988 0.77950 0.71407
 H1902 H 0.41792 0.77983 0.73449
 H1903 H 0.48739 0.77175 0.67670
 H1904 H 0.45387 0.74163 0.60566
 H1905 H 0.33625 0.74188 0.66323
 H1906 H 0.37186 0.77115 0.73356
 H1907 H 0.41261 0.74172 0.62437
 H1908 H 0.37655 0.74183 0.64184
 C1909 C 0.42351 0.23795 0.83075
 C1910 C 0.42411 0.24444 0.85739
 C1911 C 0.44748 0.24627 0.87044
 C1912 C 0.47099 0.24282 0.85752
 C1913 C 0.47024 0.23455 0.83141
 C1914 C 0.44687 0.23244 0.81812
 C1915 C 0.39797 0.23732 0.81738
 C1916 C 0.39503 0.23168 0.79079
 C1917 C 0.37084 0.23213 0.77924
 C1918 C 0.34898 0.23834 0.79386
 C1919 C 0.35172 0.24365 0.82037
 C1920 C 0.37584 0.24319 0.83216
 C1921 C 0.40147 0.24946 0.87096
 C1922 C 0.37784 0.24887 0.85861
 H1923 H 0.40204 0.25428 0.89144
 H1924 H 0.36088 0.25320 0.86992
 H1925 H 0.44750 0.25120 0.89091
 H1926 H 0.48756 0.22942 0.82116
 H1927 H 0.36931 0.22791 0.75872
 H1928 H 0.33500 0.24825 0.83197
 H1929 H 0.44751 0.22646 0.79803
 H1930 H 0.41116 0.22711 0.77856
 C1931 C 0.92583 0.74319 0.33302
 C1932 C 0.92729 0.73678 0.35908
 C1933 C 0.95104 0.73689 0.37172
 C1934 C 0.97419 0.74357 0.35930
 C1935 C 0.97185 0.75234 0.33394
 C1936 C 0.94837 0.75149 0.32083
 C1937 C 0.90002 0.74250 0.32018
 C1938 C 0.89669 0.74592 0.29361
 C1939 C 0.87216 0.74544 0.28271
 C1940 C 0.85037 0.74196 0.29805
 C1941 C 0.85350 0.73807 0.32441
 C1942 C 0.87808 0.73773 0.33540
 C1943 C 0.90492 0.73122 0.37284
 C1944 C 0.88082 0.73221 0.36140
 H1945 H 0.90600 0.72656 0.39297
 H1946 H 0.86409 0.72825 0.37302
 H1947 H 0.95095 0.73268 0.39183
 H1948 H 0.98773 0.76147 0.32443
 H1949 H 0.87019 0.74825 0.26225
 H1950 H 0.83677 0.73474 0.33626
 H1951 H 0.94802 0.75853 0.30156
 H1952 H 0.91280 0.74869 0.28096
 C1953 C 0.07376 0.74824 0.33426
 C1954 C 0.07202 0.75429 0.36086
 C1955 C 0.04826 0.75324 0.37327
 C1956 C 0.02536 0.74633 0.35998
 C1957 C 0.02815 0.73702 0.33421
 C1958 C 0.05168 0.73870 0.32135
 C1959 C 0.09941 0.75083 0.32152
 C1960 C 0.10273 0.74842 0.29464
 C1961 C 0.12709 0.75094 0.28376
 C1962 C 0.14873 0.75550 0.29941
 C1963 C 0.14557 0.75837 0.32613
 C1964 C 0.12110 0.75669 0.33719
 C1965 C 0.09410 0.76073 0.37520
 C1966 C 0.11819 0.76135 0.36371
 H1967 H 0.09281 0.76501 0.39574
 H1968 H 0.13472 0.76608 0.37571
 H1969 H 0.04804 0.75724 0.39375
 H1970 H 0.01257 0.72731 0.32402
 H1971 H 0.12908 0.74879 0.26304
 H1972 H 0.16215 0.76245 0.33829
 H1973 H 0.05245 0.73160 0.30157
 H1974 H 0.08670 0.74492 0.28178
 C1975 C 0.56973 0.25567 0.83446
 C1976 C 0.56790 0.24324 0.85811
 C1977 C 0.54413 0.24023 0.86998
 C1978 C 0.52128 0.24859 0.85859
 C1979 C 0.52351 0.26274 0.83608
 C1980 C 0.54725 0.26581 0.82390
 C1981 C 0.59566 0.25778 0.82217
 C1982 C 0.59970 0.26876 0.79809
 C1983 C 0.62420 0.26952 0.78722
 C1984 C 0.64530 0.25938 0.80007
 C1985 C 0.64146 0.24878 0.82421
 C1986 C 0.61700 0.24775 0.83518
 C1987 C 0.58979 0.23398 0.87007
 C1988 C 0.61384 0.23629 0.85891
 H1989 H 0.58832 0.22467 0.88835
 H1990 H 0.63018 0.22867 0.86887
 H1991 H 0.54356 0.23143 0.88854
 H1992 H 0.50692 0.27171 0.82793
 H1993 H 0.62654 0.27781 0.76854
 H1994 H 0.65750 0.24084 0.83441
 H1995 H 0.54764 0.27647 0.80648
 H1996 H 0.58417 0.27651 0.78720
 C1997 C 0.57521 0.75466 0.66333
 C1998 C 0.55373 0.74405 0.67598
 C1999 C 0.52922 0.74441 0.66437
 C2000 C 0.52572 0.75586 0.64043
 C2001 C 0.54777 0.76480 0.62764
 C2002 C 0.57182 0.76456 0.63887
 C2003 C 0.60095 0.75416 0.67604
 C2004 C 0.62304 0.76513 0.66511
 C2005 C 0.64668 0.76399 0.67734
 C2006 C 0.64914 0.75209 0.70097
 C2007 C 0.62713 0.74134 0.71229
 C2008 C 0.60308 0.74237 0.70001
 C2009 C 0.55706 0.73279 0.69984
 C2010 C 0.58120 0.73185 0.71153
 H2011 H 0.54077 0.72446 0.70960
 H2012 H 0.58273 0.72284 0.72993
 H2013 H 0.51319 0.73522 0.67371
 H2014 H 0.54649 0.77196 0.60839
 H2015 H 0.66311 0.77269 0.66819
 H2016 H 0.62865 0.73221 0.73063
 H2017 H 0.58748 0.77186 0.62768
 H2018 H 0.62263 0.77488 0.64719
 C2019 C 0.07602 0.25106 0.16068
 C2020 C 0.05447 0.24156 0.17405
 C2021 C 0.02977 0.24249 0.16292
 C2022 C 0.02609 0.25371 0.13888
 C2023 C 0.04816 0.26132 0.12529
 C2024 C 0.07245 0.26037 0.13598
 C2025 C 0.10192 0.25029 0.17309
 C2026 C 0.12412 0.26025 0.16147
 C2027 C 0.14781 0.25932 0.17366
 C2028 C 0.15026 0.24859 0.19789
 C2029 C 0.12819 0.23861 0.20975
 C2030 C 0.10407 0.23948 0.19755
 C2031 C 0.05786 0.23099 0.19824
 C2032 C 0.08210 0.22990 0.20969
 H2033 H 0.04150 0.22348 0.20854
 H2034 H 0.08364 0.22158 0.22844
 H2035 H 0.01366 0.23411 0.17284
 H2036 H 0.04669 0.26811 0.10591
 H2037 H 0.16430 0.26732 0.16398
 H2038 H 0.12969 0.23034 0.22853
 H2039 H 0.08813 0.26678 0.12427
 H2040 H 0.12375 0.26911 0.14307
 C2041 C -0.08898 1.00323 0.82231
 C2042 C -0.07683 0.99216 0.80028
 C2043 C -0.08849 0.99341 0.77582
 C2044 C -0.11185 1.00642 0.77275
 C2045 C -0.12378 1.01667 0.79519
 C2046 C -0.11249 1.01554 0.81925
 C2047 C -0.07665 1.00087 0.84814
 C2048 C -0.08792 1.01062 0.87105
 C2049 C -0.07584 1.00822 0.89465
 C2050 C -0.05203 0.99613 0.89634
 C2051 C -0.04066 0.98601 0.87361
 C2052 C -0.05288 0.98820 0.84958
 C2053 C -0.05338 0.97961 0.80297
 C2054 C -0.04159 0.97783 0.82704
 H2055 H -0.04395 0.97108 0.78620
 H2056 H -0.02342 0.96803 0.82803
 H2057 H -0.07970 0.98363 0.75938
 H2058 H -0.14259 1.02516 0.79443
 H2059 H -0.08521 1.01626 0.91167
 H2060 H -0.02232 0.97652 0.87458
 H2061 H -0.12295 1.02406 0.83521
 H2062 H -0.10607 1.02027 0.87137
 C2063 C 0.40954 0.50068 0.32484
 C2064 C 0.42246 0.49015 0.30302
 C2065 C 0.41164 0.49187 0.27825
 C2066 C 0.38847 0.50502 0.27465
 C2067 C 0.37560 0.51453 0.29685
 C2068 C 0.38600 0.51279 0.32128
 C2069 C 0.42127 0.49820 0.35094
 C2070 C 0.40941 0.50762 0.37369
 C2071 C 0.42126 0.50554 0.39749
 C2072 C 0.44534 0.49407 0.39948
 C2073 C 0.45713 0.48405 0.37695
 C2074 C 0.44524 0.48598 0.35276
 C2075 C 0.44595 0.47782 0.30614
 C2076 C 0.45718 0.47594 0.33044
 H2077 H 0.45593 0.46967 0.28952
 H2078 H 0.47549 0.46645 0.33177
 H2079 H 0.42106 0.48254 0.26192
 H2080 H 0.35684 0.52305 0.29553
 H2081 H 0.41156 0.51339 0.41440
 H2082 H 0.47569 0.47502 0.37815
 H2083 H 0.37495 0.52082 0.33706
 H2084 H 0.39105 0.51685 0.37369
 C2085 C 0.58257 -0.00687 0.32413
 C2086 C 0.60879 0.00002 0.32337
 C2087 C 0.62154 0.00064 0.29982
 C2088 C 0.60898 -0.00571 0.27634
 C2089 C 0.58367 -0.01533 0.27751
 C2090 C 0.57042 -0.01530 0.30099
 C2091 C 0.56932 -0.00564 0.34974
 C2092 C 0.54261 -0.00883 0.35248
 C2093 C 0.53123 -0.00704 0.37685
 C2094 C 0.54628 -0.00252 0.39898
 C2095 C 0.57279 0.00084 0.39644
 C2096 C 0.58427 -0.00005 0.37209
 C2097 C 0.62238 0.00592 0.34612
 C2098 C 0.61049 0.00534 0.37001
 H2099 H 0.64261 0.01083 0.34546
 H2100 H 0.62189 0.00981 0.38710
 H2101 H 0.64164 0.00619 0.29970
 H2102 H 0.57406 -0.02325 0.26052
 H2103 H 0.51066 -0.00952 0.37843
 H2104 H 0.58443 0.00494 0.41345
 H2105 H 0.55091 -0.02247 0.30077
 H2106 H 0.53023 -0.01226 0.33602
 C2107 C 0.08410 0.50355 0.82420
 C2108 C 0.10912 0.49356 0.82274
 C2109 C 0.12155 0.49100 0.79898
 C2110 C 0.10938 0.49718 0.77579
 C2111 C 0.08530 0.50909 0.77764
 C2112 C 0.07264 0.51182 0.80137
 C2113 C 0.07122 0.50502 0.85009
 C2114 C 0.04600 0.51382 0.85380
 C2115 C 0.03471 0.51403 0.87824
 C2116 C 0.04822 0.50542 0.89963
 C2117 C 0.07346 0.49699 0.89613
 C2118 C 0.08493 0.49664 0.87173
 C2119 C 0.12175 0.48602 0.84495
 C2120 C 0.10994 0.48757 0.86892
 H2121 H 0.14104 0.47856 0.84377
 H2122 H 0.12046 0.48126 0.88548
 H2123 H 0.14096 0.48381 0.79851
 H2124 H 0.07620 0.51654 0.76082
 H2125 H 0.01521 0.52069 0.88028
 H2126 H 0.08423 0.49037 0.91241
 H2127 H 0.05402 0.52062 0.80147
 H2128 H 0.03459 0.52033 0.83805
 C2129 C 0.08329 0.48653 0.67669
 C2130 C 0.10939 0.49397 0.67798
 C2131 C 0.12205 0.49550 0.70167
 C2132 C 0.10920 0.49080 0.72494
 C2133 C 0.08389 0.48116 0.72331
 C2134 C 0.07097 0.47944 0.69960
 C2135 C 0.07018 0.48662 0.65093
 C2136 C 0.04397 0.48062 0.64746
 C2137 C 0.03254 0.48200 0.62320
 C2138 C 0.04687 0.48948 0.60178
 C2139 C 0.07306 0.49505 0.60501
 C2140 C 0.08471 0.49378 0.62924
 C2141 C 0.12279 0.50024 0.65571
 C2142 C 0.11073 0.50009 0.63185
 H2143 H 0.14289 0.50571 0.65678
 H2144 H 0.12188 0.50542 0.61524
 H2145 H 0.14212 0.50113 0.70213
 H2146 H 0.07398 0.47481 0.74023
 H2147 H 0.01228 0.47751 0.62134
 H2148 H 0.08445 0.50069 0.58866
 H2149 H 0.05141 0.47247 0.69961
 H2150 H 0.03193 0.47515 0.66325
 C2151 C 0.58883 0.99690 0.17533
 C2152 C 0.57485 1.00541 0.19730
 C2153 C 0.58633 1.00565 0.22187
 C2154 C 0.61089 0.99526 0.22527
 C2155 C 0.62463 0.98749 0.20297
 C2156 C 0.61383 0.98802 0.17861
 C2157 C 0.57641 0.99757 0.14941
 C2158 C 0.58975 0.99196 0.12632
 C2159 C 0.57735 0.99261 0.10263
 C2160 C 0.55130 0.99845 0.10135
 C2161 C 0.53781 1.00435 0.12414
 C2162 C 0.55035 1.00455 0.14810
 C2163 C 0.54940 1.01322 0.19459
 C2164 C 0.53724 1.01223 0.17060
 H2165 H 0.53853 1.01961 0.21136
 H2166 H 0.51737 1.01794 0.16960
 H2167 H 0.57608 1.01405 0.23815
 H2168 H 0.64418 0.98093 0.20431
 H2169 H 0.58810 0.98821 0.08521
 H2170 H 0.51776 1.00948 0.12311
 H2171 H 0.62543 0.98113 0.16271
 H2172 H 0.60983 0.98735 0.12600
 C2173 C 0.41737 0.50983 0.17628
 C2174 C 0.39153 0.50145 0.17677
 C2175 C 0.37855 0.50015 0.20014
 C2176 C 0.39070 0.50628 0.22386
 C2177 C 0.41602 0.51594 0.22327
 C2178 C 0.42929 0.51739 0.19985
 C2179 C 0.43056 0.51040 0.15057
 C2180 C 0.45640 0.51797 0.14757
 C2181 C 0.46777 0.51759 0.12314
 C2182 C 0.45371 0.50960 0.10111
 C2183 C 0.42793 0.50234 0.10397
 C2184 C 0.41637 0.50263 0.12827
 C2185 C 0.37856 0.49434 0.15397
 C2186 C 0.39071 0.49492 0.13025
 H2187 H 0.35869 0.48804 0.15448
 H2188 H 0.37986 0.48906 0.11317
 H2189 H 0.35861 0.49401 0.19996
 H2190 H 0.42555 0.52283 0.24073
 H2191 H 0.48771 0.52332 0.12157
 H2192 H 0.41672 0.49623 0.08719
 H2193 H 0.44874 0.52469 0.20057
 H2194 H 0.46816 0.52403 0.16383
 C2195 C -0.08944 0.00741 0.67230
 C2196 C -0.07555 0.01568 0.69460
 C2197 C -0.08722 0.01512 0.71911
 C2198 C -0.11255 0.00574 0.72171
 C2199 C -0.12632 -0.00106 0.69906
 C2200 C -0.11507 -0.00047 0.67497
 C2201 C -0.07648 0.00771 0.64663
 C2202 C -0.08869 -0.00110 0.62371
 C2203 C -0.07596 -0.00076 0.60026
 C2204 C -0.05059 0.00828 0.59876
 C2205 C -0.03815 0.01720 0.62152
 C2206 C -0.05089 0.01685 0.64542
 C2207 C -0.05022 0.02462 0.69215
 C2208 C -0.03820 0.02528 0.66810
 H2209 H -0.03950 0.03116 0.70908
 H2210 H -0.01859 0.03230 0.66728
 H2211 H -0.07671 0.02238 0.73587
 H2212 H -0.14623 -0.00709 0.70005
 H2213 H -0.08615 -0.00781 0.58319
 H2214 H -0.01850 0.02415 0.62072
 H2215 H -0.12701 -0.00615 0.65878
 H2216 H -0.10802 -0.00861 0.62331
 C2217 C -0.17597 0.91378 1.00390
 C2218 C -0.19728 0.92523 0.99222
 C2219 C -0.22186 0.91374 0.99398
 C2220 C -0.22586 0.89132 1.00814
 C2221 C -0.20411 0.87996 1.01896
 C2222 C -0.17989 0.89108 1.01729
 C2223 C -0.14997 0.92593 1.00104
 C2224 C -0.12771 0.91531 1.01140
 C2225 C -0.10393 0.92717 1.00842
 C2226 C -0.10140 0.95012 0.99514
 C2227 C -0.12348 0.96088 0.98451
 C2228 C -0.14769 0.94885 0.98726
 C2229 C -0.19376 0.94782 0.97858
 C2230 C -0.16956 0.95946 0.97630
 H2231 H -0.20999 0.95670 0.96957
 H2232 H -0.16794 0.97696 0.96565
 H2233 H -0.23774 0.92196 0.98383
 H2234 H -0.20552 0.86173 1.02833
 H2235 H -0.08743 0.91833 1.01695
 H2236 H -0.12187 0.97855 0.97413
 H2237 H -0.16448 0.88114 1.02629
 H2238 H -0.12805 0.89784 1.02195
 C2239 C 0.32244 0.41548 0.50813
 C2240 C 0.30095 0.42888 0.49936
 C2241 C 0.27646 0.41717 0.49955
 C2242 C 0.27264 0.39185 0.50831
 C2243 C 0.29455 0.37913 0.51717
 C2244 C 0.31868 0.39073 0.51751
 C2245 C 0.34848 0.42766 0.50587
 C2246 C 0.37100 0.41527 0.51330
 C2247 C 0.39487 0.42693 0.51020
 C2248 C 0.39716 0.45138 0.49970
 C2249 C 0.37481 0.46403 0.49230
 C2250 C 0.35055 0.45231 0.49524
 C2251 C 0.30418 0.45346 0.48941
 C2252 C 0.32843 0.46495 0.48745
 H2253 H 0.28775 0.46386 0.48268
 H2254 H 0.32990 0.48387 0.47940
 H2255 H 0.26091 0.42717 0.49069
 H2256 H 0.29366 0.35948 0.52307
 H2257 H 0.41163 0.41664 0.51624
 H2258 H 0.37623 0.48297 0.48425
 H2259 H 0.33425 0.37942 0.52442
 H2260 H 0.37078 0.39652 0.52152
 C2261 C 0.32734 0.58595 0.00503
 C2262 C 0.30636 0.57129 -0.00495
 C2263 C 0.28219 0.58276 -0.00747
 C2264 C 0.27769 0.60838 0.00168
 C2265 C 0.29926 0.62253 0.01119
 C2266 C 0.32328 0.61160 0.01320
 C2267 C 0.35319 0.57380 0.00578
 C2268 C 0.37566 0.58781 0.01266
 C2269 C 0.39941 0.57586 0.01234
 C2270 C 0.40135 0.54957 0.00573
 C2271 C 0.37916 0.53529 -0.00096
 C2272 C 0.35521 0.54738 -0.00163
 C2273 C 0.30974 0.54535 -0.01261
 C2274 C 0.33350 0.53350 -0.01046
 H2275 H 0.29368 0.53392 -0.02012
 H2276 H 0.33504 0.51332 -0.01639
 H2277 H 0.26756 0.57195 -0.01808
 H2278 H 0.29819 0.64270 0.01656
 H2279 H 0.41638 0.58719 0.01747
 H2280 H 0.38073 0.51503 -0.00660
 H2281 H 0.33846 0.62382 0.02101
 H2282 H 0.37550 0.60812 0.01786
 C2283 C -0.17318 0.08659 0.50294
 C2284 C -0.19456 0.07190 0.49395
 C2285 C -0.21875 0.08351 0.49194
 C2286 C -0.22278 0.10939 0.50059
 C2287 C -0.20081 0.12358 0.50896
 C2288 C -0.17680 0.11249 0.51049
 C2289 C -0.14741 0.07419 0.50337
 C2290 C -0.12470 0.08809 0.50957
 C2291 C -0.10107 0.07590 0.50910
 C2292 C -0.09941 0.04948 0.50296
 C2293 C -0.12185 0.03529 0.49693
 C2294 C -0.14575 0.04761 0.49649
 C2295 C -0.19155 0.04577 0.48679
 C2296 C -0.16780 0.03377 0.48852
 H2297 H -0.20789 0.03432 0.48001
 H2298 H -0.16658 0.01347 0.48300
 H2299 H -0.23384 0.07255 0.48219
 H2300 H -0.20157 0.14388 0.51384
 H2301 H -0.08397 0.08718 0.51380
 H2302 H -0.12058 0.01491 0.49172
 H2303 H -0.16131 0.12479 0.51744
 H2304 H -0.12458 0.10846 0.51442
 C2305 C 0.67775 0.08089 0.49359
 C2306 C 0.67969 0.10683 0.48665
 C2307 C 0.70346 0.11960 0.48731
 C2308 C 0.72621 0.10747 0.49497
 C2309 C 0.72341 0.08225 0.50409
 C2310 C 0.69986 0.06897 0.50278
 C2311 C 0.65182 0.06801 0.49260
 C2312 C 0.64799 0.04157 0.49679
 C2313 C 0.62330 0.03075 0.49636
 C2314 C 0.60187 0.04610 0.49210
 C2315 C 0.60553 0.07225 0.48723
 C2316 C 0.63026 0.08313 0.48692
 C2317 C 0.65772 0.12042 0.48011
 C2318 C 0.63349 0.10897 0.48073
 H2319 H 0.65921 0.14044 0.47500
 H2320 H 0.61704 0.12048 0.47607
 H2321 H 0.70369 0.13970 0.48288
 H2322 H 0.73882 0.07306 0.51396
 H2323 H 0.62089 0.01043 0.49995
 H2324 H 0.58908 0.08408 0.48333
 H2325 H 0.69907 0.04982 0.51019
 H2326 H 0.66383 0.02897 0.50027
 C2327 C 0.17852 0.57980 0.99106
 C2328 C 0.18067 0.60582 0.98442
 C2329 C 0.20450 0.61849 0.98560
 C2330 C 0.22701 0.60624 0.99377
 C2331 C 0.22398 0.58079 1.00226
 C2332 C 0.20044 0.56761 1.00029
 C2333 C 0.15252 0.56717 0.98999
 C2334 C 0.14854 0.54072 0.99399
 C2335 C 0.12378 0.53017 0.99392
 C2336 C 0.10243 0.54578 0.99019
 C2337 C 0.10621 0.57190 0.98533
 C2338 C 0.13104 0.58254 0.98466
 C2339 C 0.15882 0.61961 0.97792
 C2340 C 0.13448 0.60838 0.97856
 H2341 H 0.16047 0.63969 0.97300
 H2342 H 0.11811 0.62007 0.97409
 H2343 H 0.20487 0.63865 0.98143
 H2344 H 0.23907 0.57141 1.01241
 H2345 H 0.12127 0.50985 0.99747
 H2346 H 0.08979 0.58390 0.98181
 H2347 H 0.19947 0.54837 1.00746
 H2348 H 0.16429 0.52793 0.99712
 C2349 C 0.17363 0.41667 0.50529
 C2350 C 0.17598 0.39208 0.49302
 C2351 C 0.19982 0.37999 0.49192
 C2352 C 0.22224 0.39192 0.50231
 C2353 C 0.21940 0.41638 0.51480
 C2354 C 0.19573 0.42864 0.51600
 C2355 C 0.14752 0.42843 0.50694
 C2356 C 0.14299 0.45258 0.51926
 C2357 C 0.11839 0.46280 0.52006
 C2358 C 0.09758 0.44930 0.50858
 C2359 C 0.10183 0.42502 0.49663
 C2360 C 0.12651 0.41456 0.49573
 C2361 C 0.15442 0.37932 0.48235
 C2362 C 0.13025 0.39036 0.48359
 H2363 H 0.15624 0.36044 0.47291
 H2364 H 0.11420 0.37970 0.47500
 H2365 H 0.20049 0.36065 0.48356
 H2366 H 0.23506 0.42563 0.52533
 H2367 H 0.11579 0.48156 0.52950
 H2368 H 0.08599 0.41434 0.48766
 H2369 H 0.19508 0.44715 0.52610
 H2370 H 0.15814 0.46401 0.52827
 C2371 C 0.67593 0.91818 0.01172
 C2372 C 0.67691 0.89197 0.00345
 C2373 C 0.70033 0.87926 0.00237
 C2374 C 0.72362 0.89210 0.00861
 C2375 C 0.72247 0.91787 0.01802
 C2376 C 0.69902 0.93082 0.01929
 C2377 C 0.65026 0.93105 0.01211
 C2378 C 0.64692 0.95715 0.01969
 C2379 C 0.62265 0.96828 0.01907
 C2380 C 0.60105 0.95372 0.01083
 C2381 C 0.60417 0.92763 0.00364
 C2382 C 0.62841 0.91628 0.00418
 C2383 C 0.65453 0.87839 -0.00380
 C2384 C 0.63082 0.89029 -0.00346
 H2385 H 0.65539 0.85824 -0.01003
 H2386 H 0.61410 0.87897 -0.00945
 H2387 H 0.70055 0.85903 -0.00368
 H2388 H 0.73951 0.92801 0.02487
 H2389 H 0.62090 0.98847 0.02479
 H2390 H 0.58772 0.91607 -0.00267
 H2391 H 0.69936 0.95061 0.02643
 H2392 H 0.66280 0.96935 0.02593
 C2393 C -0.00462 0.82254 0.90842
 C2394 C 0.00419 0.80201 0.92302
 C2395 C 0.00647 0.77708 0.91152
 C2396 C -0.00195 0.77143 0.88598
 C2397 C -0.00951 0.79271 0.87167
 C2398 C -0.01121 0.81746 0.88259
 C2399 C -0.00583 0.84903 0.92082
 C2400 C -0.01241 0.87098 0.90714
 C2401 C -0.01270 0.89534 0.91937
 C2402 C -0.00700 0.89842 0.94562
 C2403 C -0.00067 0.87674 0.95958
 C2404 C 0.00050 0.85219 0.94724
 C2405 C 0.01083 0.80653 0.94897
 C2406 C 0.00859 0.83098 0.96093
 H2407 H 0.01753 0.79085 0.96031
 H2408 H 0.01368 0.83339 0.98111
 H2409 H 0.01615 0.76273 0.92230
 H2410 H -0.01362 0.79081 0.85142
 H2411 H -0.01757 0.91186 0.90829
 H2412 H 0.00422 0.87915 0.97983
 H2413 H -0.01757 0.83231 0.87023
 H2414 H -0.01703 0.86995 0.88692
 C2415 C 0.49849 0.32193 0.41147
 C2416 C 0.48692 0.30072 0.42348
 C2417 C 0.48794 0.27575 0.41159
 C2418 C 0.50131 0.27142 0.38821
 C2419 C 0.51204 0.29311 0.37644
 C2420 C 0.51106 0.31761 0.38790
 C2421 C 0.49649 0.34831 0.42402
 C2422 C 0.50666 0.37044 0.41275
 C2423 C 0.50463 0.39457 0.42498
 C2424 C 0.49250 0.39767 0.44897
 C2425 C 0.48197 0.37573 0.46040
 C2426 C 0.48375 0.35110 0.44796
 C2427 C 0.47424 0.30474 0.44707
 C2428 C 0.47287 0.32932 0.45914
 H2429 H 0.46533 0.28862 0.45644
 H2430 H 0.46299 0.33131 0.47742
 H2431 H 0.47787 0.25992 0.42027
 H2432 H 0.52095 0.29137 0.35767
 H2433 H 0.51301 0.41091 0.41554
 H2434 H 0.47242 0.37778 0.47887
 H2435 H 0.52004 0.33287 0.37755
 H2436 H 0.51634 0.36976 0.39445
 C2437 C 0.00240 0.32809 0.58885
 C2438 C -0.00874 0.30646 0.57562
 C2439 C -0.01148 0.28290 0.58799
 C2440 C -0.00140 0.27959 0.61294
 C2441 C 0.00904 0.30180 0.62581
 C2442 C 0.01124 0.32531 0.61404
 C2443 C 0.00366 0.35328 0.57575
 C2444 C 0.01195 0.37643 0.58842
 C2445 C 0.01191 0.39958 0.57574
 C2446 C 0.00420 0.40020 0.54999
 C2447 C -0.00374 0.37731 0.53695
 C2448 C -0.00469 0.35398 0.54986
 C2449 C -0.01723 0.30854 0.55018
 C2450 C -0.01476 0.33164 0.53741
 H2451 H -0.02563 0.29195 0.53987
 H2452 H -0.02139 0.33218 0.51767
 H2453 H -0.02267 0.26772 0.57840
 H2454 H 0.01518 0.30160 0.64556
 H2455 H 0.01796 0.41715 0.58609
 H2456 H -0.01022 0.37791 0.51715
 H2457 H 0.01983 0.34106 0.62523
 H2458 H 0.01801 0.37729 0.60827
 C2459 C 0.50420 0.82904 0.08531
 C2460 C 0.51107 0.82792 0.11149
 C2461 C 0.51001 0.80429 0.12377
 C2462 C 0.50172 0.78120 0.11074
 C2463 C 0.49232 0.78352 0.08541
 C2464 C 0.49418 0.80669 0.07272
 C2465 C 0.50608 0.85445 0.07270
 C2466 C 0.50270 0.85689 0.04604
 C2467 C 0.50383 0.88108 0.03525
 C2468 C 0.50806 0.90344 0.05077
 C2469 C 0.51223 0.90119 0.07725
 C2470 C 0.51191 0.87681 0.08818
 C2471 C 0.51794 0.85057 0.12556
 C2472 C 0.51773 0.87457 0.11431
 H2473 H 0.52292 0.84982 0.14577
 H2474 H 0.52257 0.89159 0.12616
 H2475 H 0.51483 0.80427 0.14397
 H2476 H 0.48194 0.76793 0.07559
 H2477 H 0.50080 0.88235 0.01471
 H2478 H 0.51614 0.91837 0.08923
 H2479 H 0.48652 0.80702 0.05344
 H2480 H 0.49940 0.84034 0.03320
 C2481 C 0.49615 0.68060 0.08337
 C2482 C 0.48940 0.68293 0.10961
 C2483 C 0.48946 0.70725 0.12235
 C2484 C 0.49658 0.73002 0.10984
 C2485 C 0.50549 0.72674 0.08421
 C2486 C 0.50463 0.70277 0.07105
 C2487 C 0.49583 0.65430 0.07043
 C2488 C 0.49967 0.65024 0.04377
 C2489 C 0.49979 0.62530 0.03272
 C2490 C 0.49640 0.60383 0.04800
 C2491 C 0.49200 0.60764 0.07447
 C2492 C 0.49111 0.63268 0.08565
 C2493 C 0.48374 0.66085 0.12338
 C2494 C 0.48512 0.63622 0.11179
 H2495 H 0.47881 0.66257 0.14362
 H2496 H 0.48115 0.61973 0.12340
 H2497 H 0.48510 0.70797 0.14262
 H2498 H 0.51498 0.74216 0.07446
 H2499 H 0.50291 0.62277 0.01217
 H2500 H 0.48868 0.59110 0.08625
 H2501 H 0.51198 0.70177 0.05164
 H2502 H 0.50231 0.66607 0.03111
 C2503 C -0.01271 0.17875 0.58693
 C2504 C -0.00357 0.20012 0.57347
 C2505 C -0.00157 0.22458 0.58606
 C2506 C -0.00987 0.22880 0.61185
 C2507 C -0.01940 0.20697 0.62445
 C2508 C -0.02120 0.18277 0.61227
 C2509 C -0.01201 0.15253 0.57402
 C2510 C -0.01744 0.12983 0.58718
 C2511 C -0.01547 0.10574 0.57471
 C2512 C -0.00853 0.10363 0.54874
 C2513 C -0.00331 0.12602 0.53526
 C2514 C -0.00434 0.15041 0.54793
 C2515 C 0.00412 0.19676 0.54772
 C2516 C 0.00319 0.17252 0.53505
 H2517 H 0.01089 0.21312 0.53717
 H2518 H 0.00925 0.17095 0.51511
 H2519 H 0.00843 0.23961 0.57614
 H2520 H -0.02474 0.20781 0.64441
 H2521 H -0.01956 0.08863 0.58540
 H2522 H 0.00251 0.12436 0.51525
 H2523 H -0.02888 0.16736 0.62341
 H2524 H -0.02266 0.13010 0.60724
 C2525 C 0.50211 0.17133 0.41019
 C2526 C 0.51016 0.19393 0.42423
 C2527 C 0.50928 0.21818 0.41276
 C2528 C 0.49989 0.22030 0.38746
 C2529 C 0.49294 0.19736 0.37363
 C2530 C 0.49371 0.17351 0.38473
 C2531 C 0.50333 0.14586 0.42280
 C2532 C 0.49537 0.12254 0.41030
 C2533 C 0.49656 0.09932 0.42276
 C2534 C 0.50566 0.09847 0.44811
 C2535 C 0.51389 0.12161 0.46075
 C2536 C 0.51271 0.14525 0.44830
 C2537 C 0.51936 0.19203 0.44945
 C2538 C 0.52062 0.16825 0.46120
 H2539 H 0.52567 0.20921 0.46030
 H2540 H 0.52783 0.16789 0.48075
 H2541 H 0.51655 0.23510 0.42333
 H2542 H 0.48698 0.19786 0.35368
 H2543 H 0.49006 0.08193 0.41240
 H2544 H 0.52092 0.12133 0.48038
 H2545 H 0.48792 0.15706 0.37274
 H2546 H 0.48792 0.12166 0.39094
 C2547 C 0.00617 0.67344 0.91563
 C2548 C 0.01191 0.67365 0.88915
 C2549 C 0.01054 0.69665 0.87603
 C2550 C 0.00324 0.72022 0.88836
 C2551 C -0.00504 0.71892 0.91419
 C2552 C -0.00291 0.69624 0.92778
 C2553 C 0.00810 0.64841 0.92896
 C2554 C 0.00549 0.64656 0.95580
 C2555 C 0.00655 0.62260 0.96713
 C2556 C 0.00986 0.59994 0.95194
 C2557 C 0.01332 0.60164 0.92534
 C2558 C 0.01305 0.62569 0.91387
 C2559 C 0.01794 0.65069 0.87552
 C2560 C 0.01793 0.62713 0.88750
 H2561 H 0.02209 0.65082 0.85509
 H2562 H 0.02207 0.60983 0.87598
 H2563 H 0.01418 0.69562 0.85562
 H2564 H -0.01489 0.73475 0.92373
 H2565 H 0.00403 0.62169 0.98777
 H2566 H 0.01648 0.58423 0.91361
 H2567 H -0.00965 0.69658 0.94743
 H2568 H 0.00275 0.66340 0.96829
 C2569 C 0.25554 0.66087 0.92352
 C2570 C 0.24481 0.67417 0.94506
 C2571 C 0.24466 0.66291 0.96931
 C2572 C 0.25531 0.63831 0.97285
 C2573 C 0.26553 0.62542 0.95081
 C2574 C 0.26605 0.63650 0.92691
 C2575 C 0.25420 0.67274 0.89773
 C2576 C 0.26404 0.66064 0.87518
 C2577 C 0.26189 0.67209 0.85151
 C2578 C 0.25000 0.69603 0.84950
 C2579 C 0.24021 0.70838 0.87191
 C2580 C 0.24219 0.69690 0.89592
 C2581 C 0.23342 0.69821 0.94207
 C2582 C 0.23217 0.70934 0.91805
 H2583 H 0.22512 0.70850 0.95851
 H2584 H 0.22302 0.72788 0.91675
 H2585 H 0.23441 0.67269 0.98480
 H2586 H 0.27252 0.60601 0.95145
 H2587 H 0.26979 0.66210 0.83470
 H2588 H 0.23103 0.72693 0.87072
 H2589 H 0.27412 0.62512 0.91122
 H2590 H 0.27354 0.64232 0.87525
 C2591 C 0.75246 0.16019 0.42187
 C2592 C 0.74244 0.17394 0.44350
 C2593 C 0.74294 0.16314 0.46795
 C2594 C 0.75371 0.13863 0.47174
 C2595 C 0.76309 0.12519 0.44961
 C2596 C 0.76286 0.13578 0.42541
 C2597 C 0.75070 0.17181 0.39593
 C2598 C 0.75986 0.15936 0.37326
 C2599 C 0.75777 0.17087 0.34956
 C2600 C 0.74657 0.19518 0.34767
 C2601 C 0.73720 0.20771 0.37016
 C2602 C 0.73917 0.19622 0.39417
 C2603 C 0.73128 0.19808 0.44047
 C2604 C 0.72974 0.20900 0.41638
 H2605 H 0.72351 0.20869 0.45700
 H2606 H 0.72091 0.22770 0.41511
 H2607 H 0.73323 0.17333 0.48355
 H2608 H 0.77007 0.10580 0.45048
 H2609 H 0.76527 0.16069 0.33267
 H2610 H 0.72854 0.22652 0.36907
 H2611 H 0.77038 0.12408 0.40966
 H2612 H 0.76884 0.14077 0.37328
 C2613 C 0.25476 0.33904 0.42594
 C2614 C 0.24468 0.32460 0.44619
 C2615 C 0.24156 0.33624 0.47091
 C2616 C 0.25029 0.36176 0.47676
 C2617 C 0.25908 0.37596 0.45574
 C2618 C 0.26164 0.36489 0.43114
 C2619 C 0.25688 0.32646 0.39961
 C2620 C 0.26481 0.33996 0.37788
 C2621 C 0.26552 0.32767 0.35359
 C2622 C 0.25900 0.30151 0.35039
 C2623 C 0.25159 0.28766 0.37189
 C2624 C 0.24993 0.30008 0.39635
 C2625 C 0.23765 0.29866 0.44158
 C2626 C 0.24062 0.28656 0.41731
 H2627 H 0.23000 0.28745 0.45705
 H2628 H 0.23508 0.26641 0.41480
 H2629 H 0.23121 0.32552 0.48507
 H2630 H 0.26364 0.39618 0.45772
 H2631 H 0.27120 0.33866 0.33716
 H2632 H 0.24604 0.26751 0.36936
 H2633 H 0.26891 0.37715 0.41647
 H2634 H 0.27006 0.36012 0.37901
 C2635 C 0.75578 0.83620 0.93164
 C2636 C 0.74304 0.85999 0.93453
 C2637 C 0.74043 0.87199 0.95891
 C2638 C 0.74970 0.86069 0.98133
 C2639 C 0.76392 0.83789 0.97806
 C2640 C 0.76650 0.82555 0.95373
 C2641 C 0.75763 0.82388 0.90503
 C2642 C 0.76888 0.79966 0.89989
 C2643 C 0.76936 0.78880 0.87481
 C2644 C 0.75873 0.80182 0.85418
 C2645 C 0.74792 0.82613 0.85913
 C2646 C 0.74709 0.83706 0.88419
 C2647 C 0.73318 0.87203 0.91307
 C2648 C 0.73528 0.86088 0.88844
 H2649 H 0.72362 0.89041 0.91535
 H2650 H 0.72723 0.87096 0.87248
 H2651 H 0.73139 0.89067 0.96026
 H2652 H 0.77337 0.82968 0.99432
 H2653 H 0.77781 0.76999 0.87164
 H2654 H 0.73952 0.83643 0.84350
 H2655 H 0.77733 0.80796 0.95255
 H2656 H 0.77702 0.78865 0.91501
 C2657 C 0.74071 0.83357 0.07873
 C2658 C 0.74830 0.85981 0.07902
 C2659 C 0.75032 0.87273 0.05597
 C2660 C 0.74586 0.86002 0.03188
 C2661 C 0.73684 0.83431 0.03178
 C2662 C 0.73460 0.82118 0.05479
 C2663 C 0.73956 0.82037 0.10399
 C2664 C 0.73267 0.79418 0.10606
 C2665 C 0.73278 0.78267 0.13000
 C2666 C 0.73983 0.79692 0.15250
 C2667 C 0.74621 0.82313 0.15065
 C2668 C 0.74616 0.83486 0.12676
 C2669 C 0.75406 0.87314 0.10228
 C2670 C 0.75303 0.86094 0.12562
 H2671 H 0.75973 0.89332 0.10242
 H2672 H 0.75796 0.87206 0.14305
 H2673 H 0.75588 0.89295 0.05668
 H2674 H 0.73110 0.82431 0.01404
 H2675 H 0.72775 0.76240 0.13077
 H2676 H 0.75154 0.83448 0.16783
 H2677 H 0.72793 0.80142 0.05345
 H2678 H 0.72743 0.78218 0.08943
 C2679 C 0.24141 0.33023 0.57369
 C2680 C 0.23457 0.35642 0.57389
 C2681 C 0.23573 0.37006 0.55118
 C2682 C 0.24398 0.35857 0.52753
 C2683 C 0.25301 0.33301 0.52838
 C2684 C 0.25109 0.31889 0.55074
 C2685 C 0.23994 0.31640 0.59848
 C2686 C 0.24386 0.28968 0.59996
 C2687 C 0.24330 0.27796 0.62374
 C2688 C 0.23917 0.29265 0.64654
 C2689 C 0.23438 0.31907 0.64520
 C2690 C 0.23418 0.33088 0.62136
 C2691 C 0.22772 0.36935 0.59700
 C2692 C 0.22808 0.35700 0.62032
 H2693 H 0.22269 0.38957 0.59719
 H2694 H 0.22330 0.36802 0.63776
 H2695 H 0.23125 0.39026 0.55258
 H2696 H 0.26329 0.32416 0.51241
 H2697 H 0.24680 0.25746 0.62438
 H2698 H 0.23056 0.33038 0.66274
 H2699 H 0.25851 0.29955 0.55004
 H2700 H 0.24729 0.27758 0.58299
 C2701 C 0.74966 0.16838 0.57172
 C2702 C 0.74012 0.14283 0.56934
 C2703 C 0.73988 0.12965 0.54531
 C2704 C 0.74842 0.14129 0.52264
 C2705 C 0.75803 0.16686 0.52545
 C2706 C 0.75836 0.18022 0.54936
 C2707 C 0.75088 0.18120 0.59813
 C2708 C 0.76080 0.20633 0.60286
 C2709 C 0.76162 0.21727 0.62786
 C2710 C 0.75250 0.20353 0.64884
 C2711 C 0.74276 0.17843 0.64430
 C2712 C 0.74194 0.16723 0.61930
 C2713 C 0.73148 0.13014 0.59107
 C2714 C 0.73226 0.14211 0.61548
 H2715 H 0.72410 0.11053 0.58921
 H2716 H 0.72539 0.13141 0.63166
 H2717 H 0.73383 0.10969 0.54474
 H2718 H 0.76722 0.17622 0.50964
 H2719 H 0.76918 0.23671 0.63069
 H2720 H 0.73567 0.16751 0.66024
 H2721 H 0.76634 0.19951 0.55002
 H2722 H 0.76797 0.21789 0.58757
 C2723 C 0.24752 0.66342 0.07380
 C2724 C 0.25710 0.67679 0.05261
 C2725 C 0.25726 0.66473 0.02785
 C2726 C 0.24775 0.63922 0.02347
 C2727 C 0.23823 0.62652 0.04511
 C2728 C 0.23767 0.63838 0.06949
 C2729 C 0.24923 0.67603 0.10016
 C2730 C 0.24117 0.66361 0.12243
 C2731 C 0.24330 0.67592 0.14658
 C2732 C 0.25343 0.70104 0.14940
 C2733 C 0.26180 0.71358 0.12733
 C2734 C 0.25985 0.70122 0.10280
 C2735 C 0.26733 0.70177 0.05646
 C2736 C 0.26853 0.71377 0.08098
 H2737 H 0.27468 0.71216 0.04028
 H2738 H 0.27667 0.73307 0.08291
 H2739 H 0.26689 0.67464 0.01262
 H2740 H 0.23194 0.60667 0.04382
 H2741 H 0.23667 0.66566 0.16313
 H2742 H 0.26969 0.73299 0.12918
 H2743 H 0.23012 0.62707 0.08477
 H2744 H 0.23313 0.64438 0.12180
 C2745 C 0.16387 0.56937 0.75029
 C2746 C 0.17656 0.54833 0.76103
 C2747 C 0.16452 0.52374 0.76099
 C2748 C 0.14006 0.51974 0.74980
 C2749 C 0.12724 0.54151 0.74098
 C2750 C 0.13889 0.56560 0.74088
 C2751 C 0.17711 0.59512 0.75021
 C2752 C 0.16629 0.61655 0.73864
 C2753 C 0.17885 0.64033 0.73944
 C2754 C 0.20274 0.64362 0.75157
 C2755 C 0.21409 0.62218 0.76270
 C2756 C 0.20145 0.59795 0.76199
 C2757 C 0.20089 0.55225 0.77211
 C2758 C 0.21296 0.57654 0.77277
 H2759 H 0.21068 0.53633 0.78057
 H2760 H 0.23167 0.57856 0.78174
 H2761 H 0.17398 0.50802 0.77009
 H2762 H 0.10769 0.53997 0.73405
 H2763 H 0.16968 0.65624 0.73034
 H2764 H 0.23266 0.62431 0.77193
 H2765 H 0.12764 0.58106 0.73373
 H2766 H 0.14819 0.61548 0.72864
 C2767 C 0.66285 0.07131 0.25021
 C2768 C 0.67655 0.04924 0.24167
 C2769 C 0.66460 0.02470 0.24134
 C2770 C 0.63982 0.02143 0.25168
 C2771 C 0.62642 0.04383 0.25952
 C2772 C 0.63769 0.06814 0.25909
 C2773 C 0.67573 0.09718 0.24960
 C2774 C 0.66266 0.12032 0.25522
 C2775 C 0.67544 0.14397 0.25474
 C2776 C 0.70160 0.14525 0.24901
 C2777 C 0.71486 0.12242 0.24305
 C2778 C 0.70192 0.09843 0.24269
 C2779 C 0.70215 0.05185 0.23391
 C2780 C 0.71474 0.07582 0.23499
 H2781 H 0.71281 0.03500 0.22749
 H2782 H 0.73470 0.07673 0.22933
 H2783 H 0.67466 0.00837 0.23291
 H2784 H 0.60676 0.04260 0.26605
 H2785 H 0.66484 0.16139 0.25927
 H2786 H 0.73501 0.12341 0.23806
 H2787 H 0.62630 0.08411 0.26606
 H2788 H 0.64252 0.12073 0.25973
 C2789 C 0.82936 0.07679 0.74147
 C2790 C 0.85551 0.07673 0.74850
 C2791 C 0.86839 0.05347 0.75029
 C2792 C 0.85590 0.02943 0.74596
 C2793 C 0.83017 0.02952 0.73778
 C2794 C 0.81698 0.05284 0.73587
 C2795 C 0.81635 0.10246 0.74022
 C2796 C 0.79030 0.10510 0.73371
 C2797 C 0.77907 0.12951 0.73367
 C2798 C 0.79349 0.15189 0.74018
 C2799 C 0.81954 0.14941 0.74611
 C2800 C 0.83096 0.12512 0.74622
 C2801 C 0.86889 0.09987 0.75376
 C2802 C 0.85689 0.12354 0.75267
 H2803 H 0.88899 0.09969 0.75902
 H2804 H 0.86806 0.14088 0.75716
 H2805 H 0.88858 0.05399 0.75526
 H2806 H 0.82026 0.01174 0.73226
 H2807 H 0.75890 0.13080 0.72903
 H2808 H 0.83102 0.16647 0.75098
 H2809 H 0.79724 0.05174 0.72973
 H2810 H 0.77824 0.08857 0.72892
 C2811 C 0.33244 0.57732 0.24241
 C2812 C 0.35800 0.57675 0.25129
 C2813 C 0.37046 0.55326 0.25318
 C2814 C 0.35806 0.52950 0.24709
 C2815 C 0.33298 0.53014 0.23715
 C2816 C 0.32023 0.55367 0.23514
 C2817 C 0.31985 0.60317 0.24104
 C2818 C 0.29437 0.60621 0.23282
 C2819 C 0.28343 0.63071 0.23264
 C2820 C 0.29757 0.65283 0.24068
 C2821 C 0.32309 0.64998 0.24840
 C2822 C 0.33422 0.62554 0.24870
 C2823 C 0.37121 0.59961 0.25823
 C2824 C 0.35959 0.62347 0.25697
 H2825 H 0.39088 0.59905 0.26492
 H2826 H 0.37060 0.64058 0.26276
 H2827 H 0.39025 0.55339 0.25956
 H2828 H 0.32330 0.51264 0.23035
 H2829 H 0.26367 0.63223 0.22657
 H2830 H 0.33433 0.66682 0.25457
 H2831 H 0.30097 0.55298 0.22757
 H2832 H 0.28250 0.58992 0.22675
 C2833 C 0.33869 0.42790 0.25245
 C2834 C 0.32544 0.44962 0.26263
 C2835 C 0.33631 0.47460 0.26102
 C2836 C 0.35979 0.47847 0.24815
 C2837 C 0.37280 0.45636 0.23873
 C2838 C 0.36240 0.43178 0.24046
 C2839 C 0.32700 0.40159 0.25489
 C2840 C 0.33949 0.37893 0.24635
 C2841 C 0.32755 0.35493 0.24796
 C2842 C 0.30278 0.35261 0.25813
 C2843 C 0.29048 0.37502 0.26767
 C2844 C 0.30248 0.39944 0.26621
 C2845 C 0.30150 0.44616 0.27435
 C2846 C 0.29015 0.42167 0.27583
 H2847 H 0.29122 0.46269 0.28220
 H2848 H 0.27144 0.42012 0.28471
 H2849 H 0.32667 0.49087 0.27018
 H2850 H 0.39168 0.45788 0.23030
 H2851 H 0.33776 0.33812 0.24070
 H2852 H 0.27143 0.37357 0.27583
 H2853 H 0.37355 0.41612 0.23240
 H2854 H 0.35844 0.37914 0.23817
 C2855 C 0.83862 0.92779 0.75510
 C2856 C 0.82537 0.94957 0.76516
 C2857 C 0.83579 0.97461 0.76260
 C2858 C 0.85866 0.97847 0.74868
 C2859 C 0.87172 0.95632 0.73944
 C2860 C 0.86186 0.93167 0.74223
 C2861 C 0.82733 0.90143 0.75836
 C2862 C 0.83990 0.87873 0.75006
 C2863 C 0.82809 0.85469 0.75203
 C2864 C 0.80339 0.85242 0.76238
 C2865 C 0.79115 0.87487 0.77193
 C2866 C 0.80301 0.89930 0.77009
 C2867 C 0.80178 0.94610 0.77756
 C2868 C 0.79068 0.92156 0.77964
 H2869 H 0.79150 0.96265 0.78534
 H2870 H 0.77216 0.92000 0.78890
 H2871 H 0.82624 0.99095 0.77171
 H2872 H 0.89022 0.95788 0.73019
 H2873 H 0.83824 0.83784 0.74480
 H2874 H 0.77218 0.87346 0.78028
 H2875 H 0.87295 0.91597 0.73416
 H2876 H 0.85879 0.87896 0.74172
 C2877 C 0.66653 0.92245 0.25302
 C2878 C 0.64040 0.92326 0.24616
 C2879 C 0.62793 0.94686 0.24583
 C2880 C 0.64073 0.97031 0.25243
 C2881 C 0.66586 0.96901 0.26212
 C2882 C 0.67882 0.94551 0.26183
 C2883 C 0.67953 0.89687 0.25144
 C2884 C 0.70617 0.89424 0.25453
 C2885 C 0.71734 0.86990 0.25277
 C2886 C 0.70215 0.84768 0.24831
 C2887 C 0.67572 0.85011 0.24480
 C2888 C 0.66444 0.87448 0.24571
 C2889 C 0.62666 0.90050 0.23998
 C2890 C 0.63830 0.87655 0.24034
 H2891 H 0.60649 0.90119 0.23509
 H2892 H 0.62680 0.85945 0.23574
 H2893 H 0.60791 0.94707 0.24026
 H2894 H 0.67556 0.98595 0.27025
 H2895 H 0.73785 0.86839 0.25541
 H2896 H 0.66400 0.83300 0.24079
 H2897 H 0.69821 0.94564 0.26907
 H2898 H 0.71867 0.91075 0.25797
 C2899 C 0.16168 0.41857 0.74685
 C2900 C 0.17545 0.44030 0.73828
 C2901 C 0.16425 0.46500 0.73972
 C2902 C 0.13962 0.46848 0.75043
 C2903 C 0.12608 0.44633 0.75800
 C2904 C 0.13688 0.42207 0.75662
 C2905 C 0.17387 0.39257 0.74484
 C2906 C 0.16134 0.37000 0.75271
 C2907 C 0.17345 0.34629 0.75101
 C2908 C 0.19850 0.34416 0.74146
 C2909 C 0.21109 0.36650 0.73307
 C2910 C 0.19894 0.39065 0.73470
 C2911 C 0.20014 0.43709 0.72810
 C2912 C 0.21165 0.41285 0.72644
 H2913 H 0.21080 0.45359 0.72141
 H2914 H 0.23083 0.41147 0.71858
 H2915 H 0.17447 0.48117 0.73187
 H2916 H 0.10654 0.44771 0.76486
 H2917 H 0.16309 0.32955 0.75753
 H2918 H 0.23042 0.36520 0.72556
 H2919 H 0.12516 0.40636 0.76305
 H2920 H 0.14220 0.37006 0.76044
 C2921 C 0.07412 0.74291 0.83043
 C2922 C 0.07188 0.75430 0.85540
 C2923 C 0.04799 0.75541 0.86755
 C2924 C 0.02538 0.74586 0.85540
 C2925 C 0.02806 0.73405 0.83061
 C2926 C 0.05183 0.73290 0.81823
 C2927 C 0.10031 0.74122 0.81860
 C2928 C 0.10478 0.73001 0.79392
 C2929 C 0.12955 0.72892 0.78383
 C2930 C 0.15057 0.73900 0.79801
 C2931 C 0.14631 0.75004 0.82268
 C2932 C 0.12150 0.75124 0.83299
 C2933 C 0.09360 0.76398 0.86855
 C2934 C 0.11787 0.76251 0.85758
 H2935 H 0.09184 0.77271 0.88775
 H2936 H 0.13406 0.77022 0.86859
 H2937 H 0.04739 0.76302 0.88716
 H2938 H 0.01222 0.72397 0.82117
 H2939 H 0.13216 0.72034 0.76470
 H2940 H 0.16229 0.75799 0.83387
 H2941 H 0.05242 0.72332 0.79947
 H2942 H 0.08945 0.72210 0.78202
 C2943 C 0.57367 0.23775 0.33120
 C2944 C 0.57252 0.24518 0.35760
 C2945 C 0.54887 0.24705 0.37006
 C2946 C 0.52555 0.24257 0.35680
 C2947 C 0.52682 0.23349 0.33095
 C2948 C 0.55049 0.23144 0.31822
 C2949 C 0.59959 0.23692 0.31852
 C2950 C 0.60316 0.23042 0.29218
 C2951 C 0.62771 0.23073 0.28128
 C2952 C 0.64933 0.23760 0.29630
 C2953 C 0.64593 0.24372 0.32259
 C2954 C 0.62146 0.24348 0.33370
 C2955 C 0.59493 0.25095 0.37158
 C2956 C 0.61886 0.25011 0.35990
 H2957 H 0.59394 0.25649 0.39188
 H2958 H 0.63560 0.25501 0.37154
 H2959 H 0.54852 0.25260 0.39038
 H2960 H 0.50966 0.22765 0.32050
 H2961 H 0.62967 0.22589 0.26093
 H2962 H 0.66239 0.24893 0.33452
 H2963 H 0.55026 0.22478 0.29830
 H2964 H 0.58725 0.22531 0.27966
 C2965 C 0.57447 0.75366 0.16458
 C2966 C 0.55317 0.76289 0.17880
 C2967 C 0.52864 0.76326 0.16718
 C2968 C 0.52475 0.75401 0.14143
 C2969 C 0.54680 0.74637 0.12751
 C2970 C 0.57084 0.74577 0.13876
 C2971 C 0.60031 0.75369 0.17716
 C2972 C 0.62225 0.74417 0.16444
 C2973 C 0.64596 0.74467 0.17666
 C2974 C 0.64872 0.75448 0.20206
 C2975 C 0.62690 0.76400 0.21506
 C2976 C 0.60273 0.76358 0.20279
 C2977 C 0.55676 0.77232 0.20424
 C2978 C 0.58098 0.77274 0.21593
 H2979 H 0.54061 0.77962 0.21527
 H2980 H 0.58268 0.78030 0.23560
 H2981 H 0.51315 0.77222 0.17786
 H2982 H 0.54599 0.74137 0.10724
 H2983 H 0.66221 0.73704 0.16604
 H2984 H 0.62863 0.77150 0.23475
 H2985 H 0.58640 0.73968 0.12646
 H2986 H 0.62167 0.73596 0.14510
 C2987 C 0.07203 0.24878 0.66324
 C2988 C 0.05189 0.25998 0.67776
 C2989 C 0.02707 0.26097 0.66721
 C2990 C 0.02148 0.25055 0.64220
 C2991 C 0.04226 0.24014 0.62803
 C2992 C 0.06672 0.23886 0.63834
 C2993 C 0.09842 0.24893 0.67456
 C2994 C 0.11965 0.23841 0.66133
 C2995 C 0.14390 0.23918 0.67249
 C2996 C 0.14778 0.25031 0.69722
 C2997 C 0.12675 0.26092 0.71061
 C2998 C 0.10218 0.26031 0.69946
 C2999 C 0.05682 0.27085 0.70241
 C3000 C 0.08142 0.27098 0.71304
 H3001 H 0.04147 0.27953 0.71362
 H3002 H 0.08423 0.27969 0.73214
 H3003 H 0.01268 0.27155 0.67802
 H3004 H 0.04026 0.23350 0.60827
 H3005 H 0.15964 0.23072 0.66170
 H3006 H 0.12942 0.26956 0.72976
 H3007 H 0.08131 0.23061 0.62601
 H3008 H 0.11807 0.22936 0.64238
 C3009 C 0.92320 0.25556 0.67176
 C3010 C 0.92507 0.26646 0.64736
 C3011 C 0.94872 0.26761 0.63475
 C3012 C 0.97140 0.25827 0.64575
 C3013 C 0.96925 0.24805 0.67053
 C3014 C 0.94575 0.24698 0.68337
 C3015 C 0.89708 0.25262 0.68348
 C3016 C 0.89280 0.24087 0.70715
 C3017 C 0.86802 0.23841 0.71702
 C3018 C 0.84683 0.24758 0.70360
 C3019 C 0.85093 0.25903 0.67988
 C3020 C 0.87568 0.26158 0.66980
 C3021 C 0.90316 0.27526 0.63502
 C3022 C 0.87902 0.27298 0.64605
 H3023 H 0.90465 0.28376 0.61633
 H3024 H 0.86265 0.27993 0.63563
 H3025 H 0.94886 0.27456 0.61546
 H3026 H 0.98508 0.23841 0.67926
 H3027 H 0.86552 0.22957 0.73541
 H3028 H 0.83482 0.26627 0.66925
 H3029 H 0.94551 0.23827 0.70188
 H3030 H 0.90829 0.23352 0.71837
 C3031 C 0.42364 0.75590 0.16445
 C3032 C 0.44520 0.74712 0.17789
 C3033 C 0.46982 0.74822 0.16660
 C3034 C 0.47364 0.75844 0.14193
 C3035 C 0.45156 0.76712 0.12925
 C3036 C 0.42740 0.76632 0.14028
 C3037 C 0.39754 0.75311 0.17615
 C3038 C 0.37499 0.76009 0.16338
 C3039 C 0.35114 0.75748 0.17500
 C3040 C 0.34883 0.74787 0.19977
 C3041 C 0.37118 0.74023 0.21252
 C3042 C 0.39545 0.74267 0.20082
 C3043 C 0.44185 0.73668 0.20220
 C3044 C 0.41759 0.73474 0.21351
 H3045 H 0.45826 0.72992 0.21269
 H3046 H 0.41611 0.72665 0.23238
 H3047 H 0.48547 0.73933 0.17643
 H3048 H 0.45229 0.77390 0.10997
 H3049 H 0.33441 0.76342 0.16450
 H3050 H 0.36977 0.73265 0.23163
 H3051 H 0.41185 0.77348 0.12905
 H3052 H 0.37517 0.76768 0.14437
 C3053 C 0.42679 0.25446 0.33249
 C3054 C 0.42820 0.24253 0.35642
 C3055 C 0.45189 0.23955 0.36845
 C3056 C 0.47508 0.24745 0.35698
 C3057 C 0.47335 0.26086 0.33398
 C3058 C 0.44970 0.26391 0.32167
 C3059 C 0.40085 0.25679 0.32017
 C3060 C 0.39714 0.26760 0.29599
 C3061 C 0.37263 0.26857 0.28512
 C3062 C 0.35113 0.25883 0.29803
 C3063 C 0.35464 0.24848 0.32232
 C3064 C 0.37913 0.24726 0.33332
 C3065 C 0.40594 0.23376 0.36850
 C3066 C 0.38195 0.23613 0.35724
 H3067 H 0.40708 0.22479 0.38696
 H3068 H 0.36534 0.22887 0.36733
 H3069 H 0.45218 0.23117 0.38723
 H3070 H 0.49025 0.26940 0.32560
 H3071 H 0.37062 0.27668 0.26633
 H3072 H 0.33831 0.24083 0.33257
 H3073 H 0.44970 0.27405 0.30393
 H3074 H 0.41294 0.27506 0.28503
 C3075 C 0.92444 0.74278 0.83463
 C3076 C 0.94606 0.75054 0.82041
 C3077 C 0.97075 0.74934 0.83122
 C3078 C 0.97467 0.74045 0.85636
 C3079 C 0.95265 0.73232 0.86978
 C3080 C 0.92826 0.73303 0.85911
 C3081 C 0.89828 0.74629 0.82346
 C3082 C 0.87563 0.74034 0.83683
 C3083 C 0.85172 0.74406 0.82579
 C3084 C 0.84956 0.75378 0.80106
 C3085 C 0.87203 0.76017 0.78768
 C3086 C 0.89629 0.75656 0.79872
 C3087 C 0.94282 0.76045 0.79591
 C3088 C 0.91850 0.76324 0.78523
 H3089 H 0.95935 0.76638 0.78488
 H3090 H 0.91705 0.77108 0.76626
 H3091 H 0.98644 0.75768 0.82069
 H3092 H 0.95372 0.72631 0.88936
 H3093 H 0.83483 0.73898 0.83667
 H3094 H 0.87071 0.76769 0.76855
 H3095 H 0.91262 0.72662 0.87088
 H3096 H 0.87581 0.73277 0.85585
   
