data_POSCAR
  _audit_creation_date              2014-09-24
  _audit_creation_method            'ToBaCCo'
  _symmetry_space_group_name_H-M    'P1'
  _symmetry_Int_Tables_number       1
  _symmetry_cell_setting            triclinic
  loop_
  _symmetry_equiv_pos_as_xyz
 x,y,z
_cell_length_a 53.6877
_cell_length_b 53.6388
_cell_length_c 53.6794
_cell_angle_alpha 89.986600
_cell_angle_beta 90.014400
_cell_angle_gamma 90.047100
loop_
  _atom_site_label
  _atom_site_type_symbol
  _atom_site_fract_x
  _atom_site_fract_y
  _atom_site_fract_z
O1 O 0.27623 1.02089 0.02656
 O2 O 0.28051 0.97560 -0.02512
 O3 O 0.27777 1.02416 -0.02118
 O4 O 0.28054 0.97280 0.02384
 O5 O 0.23958 0.96929 0.02276
 O6 O 0.23680 1.02099 -0.02241
 O7 O 0.23960 0.97234 -0.02541
 O8 O 0.23526 1.01725 0.02593
 Cu9 Cu 0.28291 0.99849 0.00100
 Cu10 Cu 0.23371 0.99464 0.00001
 C11 C 0.25491 1.02678 0.03501
 C12 C 0.26070 0.96608 -0.03406
 C13 C 0.25684 1.03169 -0.02913
 C14 C 0.26059 0.96249 0.03127
 O15 O 0.78430 0.53130 0.52436
 O16 O 0.78747 0.48182 0.47704
 O17 O 0.78444 0.53029 0.47648
 O18 O 0.78666 0.48282 0.52605
 O19 O 0.74564 0.48015 0.52522
 O20 O 0.74342 0.52747 0.47585
 O21 O 0.74645 0.47905 0.47698
 O22 O 0.74326 0.52861 0.52435
 Cu23 Cu 0.78988 0.50661 0.50102
 Cu24 Cu 0.74058 0.50356 0.50057
 C25 C 0.76324 0.53859 0.53225
 C26 C 0.76752 0.47206 0.46883
 C27 C 0.76349 0.53715 0.46788
 C28 C 0.76647 0.47344 0.53415
 O29 O 0.73510 0.98207 1.02567
 O30 O 0.73868 1.02994 0.97691
 O31 O 0.73707 0.98144 0.97690
 O32 O 0.73873 1.03020 1.02557
 O33 O 0.77968 1.02756 1.02651
 O34 O 0.77816 0.98056 0.97687
 O35 O 0.77975 1.02889 0.97845
 O36 O 0.77599 0.97873 1.02573
 Cu37 Cu 0.73332 1.00606 1.00117
 Cu38 Cu 0.78249 1.00356 1.00205
 C39 C 0.75480 0.97212 1.03415
 C40 C 0.75971 1.03784 0.96952
 C41 C 0.75747 0.97308 0.96821
 C42 C 0.75960 1.03730 1.03434
 O43 O 0.23853 0.47034 0.52412
 O44 O 0.23537 0.51999 0.47666
 O45 O 0.23924 0.47146 0.47580
 O46 O 0.23391 0.51844 0.52535
 O47 O 0.27482 0.52254 0.52614
 O48 O 0.28016 0.47539 0.47636
 O49 O 0.27627 0.52389 0.47812
 O50 O 0.27942 0.47439 0.52536
 Cu51 Cu 0.23266 0.49471 0.50030
 Cu52 Cu 0.28180 0.49928 0.50152
 C53 C 0.25954 0.46410 0.53306
 C54 C 0.25531 0.53058 0.46947
 C55 C 0.26055 0.46535 0.46760
 C56 C 0.25341 0.52848 0.53427
 O57 O 1.01993 0.23099 0.02344
 O58 O 0.97125 0.23525 -0.02477
 O59 O 1.01932 0.23118 -0.02540
 O60 O 0.97181 0.23440 0.02380
 O61 O 0.97476 0.27546 0.02409
 O62 O 1.02267 0.27219 -0.02497
 O63 O 0.97411 0.27623 -0.02403
 O64 O 1.02333 0.27200 0.02356
 Cu65 Cu 0.99532 0.22885 -0.00078
 Cu66 Cu 0.99912 0.27808 -0.00031
 C67 C 1.02987 0.25080 0.03182
 C68 C 0.96416 0.25649 -0.03256
 C69 C 1.02903 0.25111 -0.03369
 C70 C 0.96507 0.25545 0.03226
 O71 O 0.51873 0.73672 0.52301
 O72 O 0.47089 0.73740 0.47406
 O73 O 0.51942 0.73797 0.47418
 O74 O 0.47054 0.73717 0.52263
 O75 O 0.47092 0.77832 0.52335
 O76 O 0.51828 0.77908 0.47391
 O77 O 0.46989 0.77852 0.47534
 O78 O 0.51967 0.77785 0.52289
 Cu79 Cu 0.49501 0.73320 0.49838
 Cu80 Cu 0.49488 0.78258 0.49897
 C81 C 0.52728 0.75710 0.53146
 C82 C 0.46193 0.75800 0.46657
 C83 C 0.52681 0.75872 0.46542
 C84 C 0.46236 0.75769 0.53119
 O85 O 0.01884 0.73660 -0.02693
 O86 O -0.03068 0.73575 0.02059
 O87 O -0.02955 0.73877 -0.02766
 O88 O 0.01739 0.73303 0.02180
 O89 O 0.01965 0.77404 0.02447
 O90 O -0.02780 0.77972 -0.02486
 O91 O -0.02882 0.77681 0.02302
 O92 O 0.02108 0.77749 -0.02383
 Cu93 Cu -0.00609 0.73193 -0.00340
 Cu94 Cu -0.00366 0.78113 -0.00010
 C95 C 0.02855 0.75721 -0.03350
 C96 C -0.03834 0.75620 0.02975
 C97 C -0.03713 0.76015 -0.03447
 C98 C 0.02639 0.75253 0.03175
 O99 O 0.52214 0.23446 0.47576
 O100 O 0.47250 0.23346 0.52312
 O101 O 0.47341 0.23466 0.47476
 O102 O 0.52051 0.23275 0.52437
 O103 O 0.52183 0.27388 0.52471
 O104 O 0.47282 0.27576 0.47668
 O105 O 0.47322 0.27460 0.52452
 O106 O 0.52135 0.27560 0.47589
 Cu107 Cu 0.49721 0.22970 0.49927
 Cu108 Cu 0.49753 0.27911 0.50055
 C109 C 0.53002 0.25524 0.46753
 C110 C 0.46439 0.25390 0.53188
 C111 C 0.46460 0.25546 0.46768
 C112 C 0.52911 0.25297 0.53314
 O113 O 1.02470 0.01671 0.27769
 O114 O 0.97666 -0.03226 0.27230
 O115 O 1.02469 -0.03191 0.27417
 O116 O 0.97576 0.01577 0.27691
 O117 O 0.97709 0.01980 0.23601
 O118 O 1.02620 -0.02829 0.23325
 O119 O 0.97742 -0.02821 0.23145
 O120 O 1.02536 0.02040 0.23675
 Cu121 Cu 1.00047 -0.00815 0.27939
 Cu122 Cu 1.00176 -0.00376 0.23026
 C123 C 1.03313 0.02701 0.25808
 C124 C 0.96861 -0.03847 0.25089
 C125 C 1.03359 -0.03852 0.25330
 C126 C 0.96782 0.02571 0.25697
 O127 O 0.52092 0.52746 0.76092
 O128 O 0.47621 0.47527 0.76045
 O129 O 0.52480 0.47926 0.76235
 O130 O 0.47273 0.52374 0.75962
 O131 O 0.47499 0.52408 0.71856
 O132 O 0.52533 0.47734 0.72129
 O133 O 0.47645 0.47565 0.71935
 O134 O 0.52276 0.52618 0.71986
 Cu135 Cu 0.49853 0.50138 0.76495
 Cu136 Cu 0.50010 0.50051 0.71563
 C137 C 0.52931 0.53586 0.74043
 C138 C 0.46830 0.46691 0.73977
 C139 C 0.53397 0.47067 0.74232
 C140 C 0.46534 0.53194 0.73868
 O141 O 0.97307 1.02575 0.72460
 O142 O 1.02401 0.97990 0.72022
 O143 O 0.97493 0.97759 0.72092
 O144 O 1.02084 1.02842 0.72348
 O145 O 1.02212 1.02515 0.76445
 O146 O 0.97612 0.97422 0.76187
 O147 O 1.02445 0.97662 0.76119
 O148 O 0.97360 1.02226 0.76552
 Cu149 Cu 0.99822 1.00301 0.71815
 Cu150 Cu 0.99927 0.99924 0.76736
 C151 C 0.96458 1.03190 0.74585
 C152 C 1.03296 0.97045 0.74001
 C153 C 0.96734 0.96752 0.74095
 C154 C 1.02906 1.03571 0.74442
 O155 O 0.47718 0.51932 0.23786
 O156 O 0.52667 0.47165 0.23827
 O157 O 0.47791 0.47134 0.23601
 O158 O 0.52549 0.52052 0.23922
 O159 O 0.52534 0.51816 0.28027
 O160 O 0.47593 0.47040 0.27708
 O161 O 0.52409 0.46950 0.27925
 O162 O 0.47689 0.51896 0.27899
 Cu163 Cu 0.50212 0.49577 0.23370
 Cu164 Cu 0.50048 0.49414 0.28302
 C165 C 0.46870 0.52735 0.25844
 C166 C 0.53350 0.46213 0.25886
 C167 C 0.46846 0.46277 0.25594
 C168 C 0.53351 0.52782 0.26024
 O169 O 0.24567 0.18426 0.21301
 O170 O 0.27161 0.17442 0.24786
 O171 O 0.18168 0.21675 0.24771
 O172 O 0.17351 0.24890 0.27276
 O173 O 0.21586 0.25207 0.18392
 O174 O 0.25176 0.27750 0.17869
 O175 O 0.24816 0.27965 0.31530
 O176 O 0.21835 0.24815 0.32042
 O177 O 0.31130 0.24246 0.28545
 O178 O 0.31889 0.21678 0.24894
 O179 O 0.28583 0.31009 0.25310
 O180 O 0.25132 0.32080 0.22504
 O181 O 0.25235 0.31050 0.28656
 O182 O 0.22423 0.32082 0.25085
 O183 O 0.31393 0.27849 0.25506
 O184 O 0.32029 0.24415 0.22358
 O185 O 0.28103 0.24598 0.31484
 O186 O 0.24503 0.21725 0.32035
 O187 O 0.24995 0.21510 0.18421
 O188 O 0.27821 0.24924 0.17896
 O189 O 0.18487 0.25181 0.21281
 O190 O 0.17988 0.28084 0.24815
 O191 O 0.20996 0.18520 0.24820
 O192 O 0.24389 0.17516 0.27496
 Zr193 Zr 0.24477 0.20323 0.24732
 O194 O 0.26862 0.22243 0.27179
 Zr195 Zr 0.20356 0.24930 0.24727
 O196 O 0.22542 0.27039 0.27227
 Zr197 Zr 0.24869 0.24832 0.20500
 O198 O 0.27240 0.26974 0.22778
 Zr199 Zr 0.24766 0.24676 0.29414
 O200 O 0.22330 0.22545 0.27150
 Zr201 Zr 0.29242 0.24590 0.25145
 O202 O 0.27074 0.22424 0.22670
 Zr203 Zr 0.25109 0.29196 0.25196
 O204 O 0.22733 0.27287 0.22681
 O205 O 0.22359 0.22573 0.22403
 O206 O 0.27269 0.26952 0.27510
 C207 C 0.24857 0.19202 0.19052
 C208 C 0.18752 0.19351 0.24840
 C209 C 0.19278 0.25303 0.19023
 C210 C 0.25057 0.30266 0.30913
 C211 C 0.30390 0.24362 0.30814
 C212 C 0.30817 0.30172 0.25492
 H213 H 0.27808 0.21020 0.28177
 H214 H 0.28353 0.27990 0.21719
 H215 H 0.21277 0.21582 0.21284
 H216 H 0.21450 0.28078 0.28284
 H217 H 0.20494 0.23721 0.31401
 H218 H 0.17917 0.25751 0.28804
 H219 H 0.31932 0.25956 0.21351
 H220 H 0.29097 0.23744 0.18511
 H221 H 0.25910 0.20569 0.31762
 H222 H 0.23334 0.18163 0.28862
 H223 H 0.26420 0.31668 0.21253
 H224 H 0.24110 0.29125 0.18483
 H225 H 0.28531 0.17980 0.23674
 H226 H 0.31357 0.20339 0.26043
 H227 H 0.18601 0.29258 0.23530
 H228 H 0.21213 0.31781 0.26441
 O229 O 0.74903 0.81526 0.21290
 O230 O 0.72191 0.82403 0.24761
 O231 O 0.81166 0.78122 0.25117
 O232 O 0.81901 0.74765 0.27407
 O233 O 0.78032 0.74793 0.18370
 O234 O 0.74372 0.72293 0.17652
 O235 O 0.74410 0.71642 0.31239
 O236 O 0.77347 0.75003 0.31883
 O237 O 0.68075 0.75368 0.28212
 O238 O 0.67526 0.78289 0.24677
 O239 O 0.70708 0.68882 0.24943
 O240 O 0.74180 0.67884 0.22055
 O241 O 0.74002 0.68679 0.28240
 O242 O 0.76844 0.67737 0.24701
 O243 O 0.67891 0.72038 0.24788
 O244 O 0.67374 0.75665 0.22000
 O245 O 0.71043 0.74899 0.31195
 O246 O 0.74059 0.77734 0.32067
 O247 O 0.74905 0.78509 0.18312
 O248 O 0.71822 0.75310 0.17613
 O249 O 0.80983 0.74630 0.21408
 O250 O 0.81356 0.71745 0.24943
 O251 O 0.78402 0.81316 0.24766
 O252 O 0.74892 0.82328 0.27481
 Zr253 Zr 0.74897 0.79542 0.24690
 O254 O 0.72436 0.77547 0.27021
 Zr255 Zr 0.78981 0.74890 0.24768
 O256 O 0.76699 0.72697 0.27080
 Zr257 Zr 0.74663 0.75161 0.20336
 O258 O 0.72172 0.72985 0.22454
 Zr259 Zr 0.74420 0.75012 0.29241
 O260 O 0.76926 0.77245 0.27158
 Zr261 Zr 0.70090 0.75296 0.24834
 O262 O 0.72368 0.77513 0.22480
 Zr263 Zr 0.74195 0.70655 0.24864
 O264 O 0.76692 0.72623 0.22529
 O265 O 0.77107 0.77324 0.22420
 O266 O 0.71971 0.72829 0.27172
 C267 C 0.74954 0.80801 0.19005
 C268 C 0.80620 0.80452 0.25030
 C269 C 0.80300 0.74599 0.19113
 C270 C 0.74170 0.69368 0.30525
 C271 C 0.68767 0.75101 0.30491
 C272 C 0.68467 0.69714 0.24891
 H273 H 0.71487 0.78722 0.28076
 H274 H 0.71090 0.72020 0.21318
 H275 H 0.78268 0.78311 0.21380
 H276 H 0.77763 0.71620 0.28129
 H277 H 0.78450 0.76428 0.31475
 H278 H 0.81157 0.74217 0.29000
 H279 H 0.67701 0.74365 0.20736
 H280 H 0.70625 0.76596 0.18173
 H281 H 0.74836 0.79267 0.31413
 H282 H 0.76287 0.81958 0.28629
 H283 H 0.72836 0.68291 0.20863
 H284 H 0.75421 0.70902 0.18256
 H285 H 0.70857 0.81892 0.23593
 H286 H 0.67953 0.79471 0.26025
 H287 H 0.80800 0.70578 0.23627
 H288 H 0.78031 0.67977 0.26090
 O289 O 0.74919 0.18702 0.78165
 O290 O 0.72270 0.17974 0.74650
 O291 O 0.81466 0.21688 0.74309
 O292 O 0.82481 0.25082 0.72177
 O293 O 0.78549 0.25248 0.81145
 O294 O 0.75042 0.27911 0.81871
 O295 O 0.75031 0.28605 0.68273
 O296 O 0.77911 0.25202 0.67626
 O297 O 0.68623 0.25190 0.71258
 O298 O 0.67878 0.22383 0.74834
 O299 O 0.71625 0.31591 0.74573
 O300 O 0.75155 0.32353 0.77467
 O301 O 0.75092 0.31601 0.71268
 O302 O 0.77841 0.32341 0.74870
 O303 O 0.68646 0.28577 0.74479
 O304 O 0.67883 0.25079 0.77463
 O305 O 0.71614 0.25474 0.68278
 O306 O 0.74533 0.22507 0.67444
 O307 O 0.75111 0.21682 0.81175
 O308 O 0.72301 0.25109 0.81864
 O309 O 0.81515 0.24972 0.78130
 O310 O 0.82071 0.28052 0.74705
 O311 O 0.78514 0.18678 0.74754
 O312 O 0.74975 0.17906 0.71977
 Zr313 Zr 0.75136 0.20676 0.74780
 O314 O 0.72822 0.22820 0.72448
 Zr315 Zr 0.79511 0.25048 0.74761
 O316 O 0.77387 0.27391 0.72442
 Zr317 Zr 0.75165 0.25053 0.79163
 O318 O 0.72830 0.27388 0.77032
 Zr319 Zr 0.74974 0.25235 0.70254
 O320 O 0.77329 0.22846 0.72337
 Zr321 Zr 0.70627 0.25207 0.74633
 O322 O 0.72741 0.22853 0.76991
 Zr323 Zr 0.75012 0.29599 0.74645
 O324 O 0.77366 0.27462 0.76989
 O325 O 0.77464 0.22731 0.77088
 O326 O 0.72668 0.27564 0.72317
 C327 C 0.74961 0.19400 0.80457
 C328 C 0.80777 0.19398 0.74444
 C329 C 0.80829 0.25129 0.80418
 C330 C 0.75076 0.30892 0.68981
 C331 C 0.69330 0.25393 0.68980
 C332 C 0.69342 0.30868 0.74462
 H333 H 0.71807 0.21703 0.71390
 H334 H 0.71799 0.28419 0.78154
 H335 H 0.78528 0.21646 0.78133
 H336 H 0.78521 0.28400 0.71397
 H337 H 0.78974 0.23748 0.68029
 H338 H 0.81789 0.25671 0.70576
 H339 H 0.68187 0.26485 0.78615
 H340 H 0.70978 0.23980 0.81247
 H341 H 0.75416 0.21006 0.68033
 H342 H 0.76420 0.18169 0.70861
 H343 H 0.73779 0.32027 0.78648
 H344 H 0.76149 0.29257 0.81264
 H345 H 0.70946 0.18557 0.75792
 H346 H 0.68217 0.21170 0.73489
 H347 H 0.81640 0.29154 0.76120
 H348 H 0.79104 0.31944 0.73589
 O349 O 0.24772 0.81164 0.78650
 O350 O 0.27485 0.81952 0.75281
 O351 O 0.18229 0.78354 0.74895
 O352 O 0.17353 0.75296 0.72223
 O353 O 0.20942 0.74725 0.81390
 O354 O 0.24278 0.71865 0.82153
 O355 O 0.25031 0.71549 0.68514
 O356 O 0.22110 0.74797 0.67789
 O357 O 0.31174 0.74551 0.71847
 O358 O 0.31912 0.77299 0.75477
 O359 O 0.27852 0.68250 0.74991
 O360 O 0.24198 0.67460 0.77507
 O361 O 0.24706 0.68466 0.71404
 O362 O 0.21606 0.67725 0.74832
 O363 O 0.30939 0.71151 0.75065
 O364 O 0.31663 0.74630 0.78105
 O365 O 0.28319 0.74860 0.68737
 O366 O 0.24939 0.77789 0.67948
 O367 O 0.24498 0.78100 0.81571
 O368 O 0.27161 0.74539 0.82269
 O369 O 0.18062 0.74718 0.78280
 O370 O 0.17553 0.72005 0.74649
 O371 O 0.21269 0.81313 0.75018
 O372 O 0.24880 0.81996 0.72409
 Zr373 Zr 0.24617 0.79252 0.75225
 O374 O 0.27011 0.77122 0.72962
 Zr375 Zr 0.20159 0.74957 0.74971
 O376 O 0.22326 0.72676 0.72621
 Zr377 Zr 0.24373 0.74774 0.79497
 O378 O 0.26698 0.72420 0.77391
 Zr379 Zr 0.24873 0.74853 0.70598
 O380 O 0.22461 0.77178 0.72681
 Zr381 Zr 0.29055 0.74595 0.75145
 O382 O 0.26906 0.76967 0.77455
 Zr383 Zr 0.24555 0.70349 0.74845
 O384 O 0.22194 0.72458 0.77198
 O385 O 0.22182 0.77183 0.77411
 O386 O 0.27043 0.72388 0.72669
 C387 C 0.24696 0.80398 0.80919
 C388 C 0.18971 0.80633 0.74909
 C389 C 0.18686 0.74658 0.80592
 C390 C 0.24931 0.69242 0.69149
 C391 C 0.30568 0.74688 0.69536
 C392 C 0.30157 0.68886 0.75033
 H393 H 0.28118 0.78252 0.72022
 H394 H 0.27645 0.71330 0.78533
 H395 H 0.21110 0.78249 0.78467
 H396 H 0.21236 0.71716 0.71487
 H397 H 0.20821 0.76017 0.68288
 H398 H 0.17913 0.74350 0.70746
 H399 H 0.31294 0.73195 0.79202
 H400 H 0.28502 0.75703 0.81765
 H401 H 0.26255 0.78983 0.68436
 H402 H 0.23700 0.81502 0.71079
 H403 H 0.25328 0.67854 0.78908
 H404 H 0.23105 0.70597 0.81503
 H405 H 0.28845 0.81240 0.76302
 H406 H 0.31661 0.78555 0.74152
 H407 H 0.17973 0.70766 0.75950
 H408 H 0.20571 0.68039 0.73340
 O409 O 0.25359 0.31128 0.71596
 O410 O 0.22682 0.32093 0.75028
 O411 O 0.31725 0.27993 0.75368
 O412 O 0.32577 0.24790 0.77799
 O413 O 0.28541 0.24453 0.68841
 O414 O 0.25020 0.21741 0.68281
 O415 O 0.24902 0.21655 0.81918
 O416 O 0.27984 0.24812 0.82436
 O417 O 0.18718 0.25053 0.78791
 O418 O 0.18000 0.27785 0.75172
 O419 O 0.21484 0.18516 0.75686
 O420 O 0.24972 0.17484 0.72914
 O421 O 0.24693 0.18568 0.79024
 O422 O 0.27654 0.17562 0.75546
 O423 O 0.18580 0.21590 0.75527
 O424 O 0.17964 0.25120 0.72554
 O425 O 0.21727 0.25196 0.81769
 O426 O 0.25258 0.27871 0.82422
 O427 O 0.25082 0.28008 0.68740
 O428 O 0.22330 0.24561 0.68160
 O429 O 0.31540 0.24359 0.71836
 O430 O 0.31992 0.21576 0.75457
 O431 O 0.28871 0.31111 0.75050
 O432 O 0.25450 0.32070 0.77804
 Zr433 Zr 0.25413 0.29256 0.75047
 O434 O 0.22999 0.27313 0.77455
 Zr435 Zr 0.29596 0.24704 0.75223
 O436 O 0.27384 0.22583 0.77679
 Zr437 Zr 0.25193 0.24715 0.70859
 O438 O 0.22796 0.22556 0.73091
 Zr439 Zr 0.25080 0.24940 0.79775
 O440 O 0.27529 0.27096 0.77555
 Zr441 Zr 0.20688 0.24907 0.75400
 O442 O 0.22888 0.27094 0.72954
 Zr443 Zr 0.24908 0.20394 0.75577
 O444 O 0.27315 0.22312 0.73114
 O445 O 0.27627 0.27009 0.72813
 O446 O 0.22655 0.22609 0.77829
 C447 C 0.25174 0.30323 0.69347
 C448 C 0.31119 0.30308 0.75246
 C449 C 0.30822 0.24293 0.69553
 C450 C 0.24715 0.19352 0.81283
 C451 C 0.19439 0.25190 0.81071
 C452 C 0.19221 0.19284 0.75656
 H453 H 0.22013 0.28528 0.78423
 H454 H 0.21730 0.21517 0.72007
 H455 H 0.28726 0.27999 0.71711
 H456 H 0.28456 0.21565 0.78778
 H457 H 0.29293 0.25977 0.81855
 H458 H 0.31974 0.24013 0.79357
 H459 H 0.18194 0.23669 0.71441
 H460 H 0.21029 0.25747 0.68709
 H461 H 0.24113 0.29208 0.81881
 H462 H 0.26639 0.31521 0.79102
 H463 H 0.23710 0.17872 0.71629
 H464 H 0.26150 0.20428 0.68915
 H465 H 0.21306 0.31482 0.73962
 H466 H 0.18446 0.29075 0.76411
 H467 H 0.31445 0.20375 0.74168
 H468 H 0.28765 0.17830 0.76993
 O469 O 0.74145 0.69044 0.71610
 O470 O 0.76904 0.68221 0.75036
 O471 O 0.67849 0.72338 0.74995
 O472 O 0.67031 0.75624 0.77423
 O473 O 0.71188 0.75779 0.68490
 O474 O 0.74793 0.78218 0.67824
 O475 O 0.74419 0.78917 0.81498
 O476 O 0.71579 0.75725 0.82163
 O477 O 0.80826 0.75139 0.78568
 O478 O 0.81569 0.72474 0.75004
 O479 O 0.78204 0.81784 0.75148
 O480 O 0.74708 0.82735 0.72336
 O481 O 0.74811 0.81917 0.78532
 O482 O 0.72038 0.82818 0.74930
 O483 O 0.81034 0.78645 0.75382
 O484 O 0.81665 0.75117 0.72378
 O485 O 0.77834 0.75629 0.81524
 O486 O 0.74275 0.72690 0.82200
 O487 O 0.74518 0.72011 0.68601
 O488 O 0.77431 0.75384 0.67962
 O489 O 0.68109 0.75793 0.71400
 O490 O 0.67599 0.78748 0.74863
 O491 O 0.70733 0.69241 0.75226
 O492 O 0.74194 0.68334 0.77806
 Zr493 Zr 0.74178 0.71063 0.74964
 O494 O 0.76566 0.73079 0.77322
 Zr495 Zr 0.70005 0.75621 0.74839
 O496 O 0.72199 0.77831 0.77243
 Zr497 Zr 0.74484 0.75412 0.70573
 O498 O 0.76852 0.77656 0.72758
 Zr499 Zr 0.74469 0.75568 0.79491
 O500 O 0.72031 0.73343 0.77324
 Zr501 Zr 0.78901 0.75370 0.75181
 O502 O 0.76733 0.73101 0.72798
 Zr503 Zr 0.74734 0.79946 0.75127
 O504 O 0.72353 0.77927 0.72698
 O505 O 0.72007 0.73209 0.72580
 O506 O 0.76939 0.77802 0.77493
 C507 C 0.74351 0.69729 0.69325
 C508 C 0.68479 0.70034 0.75204
 C509 C 0.68887 0.75898 0.69135
 C510 C 0.74603 0.81201 0.80810
 C511 C 0.80111 0.75350 0.80838
 C512 C 0.80446 0.80962 0.75301
 H513 H 0.77531 0.71897 0.78351
 H514 H 0.77945 0.78645 0.71654
 H515 H 0.70900 0.72190 0.71512
 H516 H 0.71098 0.78891 0.78269
 H517 H 0.70232 0.74619 0.81556
 H518 H 0.67607 0.76528 0.78921
 H519 H 0.81499 0.76584 0.71274
 H520 H 0.78670 0.74167 0.68581
 H521 H 0.75745 0.71597 0.82009
 H522 H 0.73197 0.69023 0.79194
 H523 H 0.76015 0.82315 0.71109
 H524 H 0.73789 0.79645 0.68419
 H525 H 0.78211 0.68712 0.73830
 H526 H 0.81030 0.71146 0.76163
 H527 H 0.68204 0.79905 0.73559
 H528 H 0.70801 0.82522 0.76263
 O529 O 0.24330 0.67790 0.28128
 O530 O 0.21652 0.67104 0.24673
 O531 O 0.31056 0.70305 0.24543
 O532 O 0.32153 0.73368 0.21945
 O533 O 0.28285 0.74248 0.30964
 O534 O 0.24948 0.77076 0.31616
 O535 O 0.24901 0.77342 0.17946
 O536 O 0.27606 0.73919 0.17354
 O537 O 0.18392 0.74504 0.21061
 O538 O 0.17459 0.71833 0.24710
 O539 O 0.21801 0.80751 0.24095
 O540 O 0.25346 0.81415 0.26989
 O541 O 0.25189 0.80425 0.20835
 O542 O 0.28043 0.81119 0.24408
 O543 O 0.18625 0.77958 0.24348
 O544 O 0.17649 0.74528 0.27272
 O545 O 0.21385 0.74360 0.18071
 O546 O 0.24603 0.71106 0.17421
 O547 O 0.24636 0.70845 0.31055
 O548 O 0.22032 0.74479 0.31638
 O549 O 0.31256 0.73824 0.27975
 O550 O 0.32003 0.76626 0.24437
 O551 O 0.27894 0.67478 0.24597
 O552 O 0.24363 0.66906 0.21913
 Zr553 Zr 0.24640 0.69672 0.24704
 O554 O 0.22426 0.71871 0.22330
 Zr555 Zr 0.29269 0.73781 0.24599
 O556 O 0.27284 0.76142 0.22170
 Zr557 Zr 0.24907 0.74163 0.28966
 O558 O 0.22736 0.76576 0.26756
 Zr559 Zr 0.24741 0.74055 0.20053
 O560 O 0.26970 0.71643 0.22235
 Zr561 Zr 0.20392 0.74461 0.24439
 O562 O 0.22369 0.72045 0.26849
 Zr563 Zr 0.25043 0.78559 0.24283
 O564 O 0.27247 0.76376 0.26726
 O565 O 0.27074 0.71654 0.26973
 O566 O 0.22571 0.76591 0.22031
 C567 C 0.24373 0.68552 0.30398
 C568 C 0.30217 0.68061 0.24539
 C569 C 0.30566 0.74072 0.30253
 C570 C 0.25072 0.79646 0.18574
 C571 C 0.19104 0.74504 0.18776
 C572 C 0.19475 0.80191 0.24173
 H573 H 0.21315 0.70782 0.21348
 H574 H 0.21780 0.77706 0.27849
 H575 H 0.28073 0.70554 0.28066
 H576 H 0.28461 0.77054 0.21085
 H577 H 0.28816 0.72650 0.17928
 H578 H 0.31683 0.74350 0.20459
 H579 H 0.18100 0.75863 0.28461
 H580 H 0.20689 0.73331 0.31105
 H581 H 0.23096 0.70096 0.17746
 H582 H 0.25512 0.67411 0.20561
 H583 H 0.23953 0.81218 0.28178
 H584 H 0.26055 0.78385 0.30934
 H585 H 0.20326 0.67835 0.25725
 H586 H 0.17708 0.70566 0.23395
 H587 H 0.31581 0.77858 0.25744
 H588 H 0.29226 0.80664 0.23071
 O589 O 0.75746 0.31209 0.29289
 O590 O 0.78467 0.31916 0.25828
 O591 O 0.69148 0.28438 0.25664
 O592 O 0.68140 0.25273 0.23172
 O593 O 0.72074 0.24638 0.32182
 O594 O 0.75521 0.21941 0.32860
 O595 O 0.75567 0.21475 0.19215
 O596 O 0.72678 0.24789 0.18595
 O597 O 0.81925 0.24609 0.22269
 O598 O 0.82772 0.27370 0.25880
 O599 O 0.78771 0.18285 0.25484
 O600 O 0.75210 0.17566 0.28343
 O601 O 0.75287 0.18447 0.22169
 O602 O 0.72556 0.17687 0.25745
 O603 O 0.81828 0.21218 0.25480
 O604 O 0.82697 0.24657 0.28463
 O605 O 0.78948 0.24792 0.19266
 O606 O 0.75571 0.27694 0.18545
 O607 O 0.75569 0.28161 0.32234
 O608 O 0.78322 0.24664 0.32853
 O609 O 0.69072 0.24964 0.29211
 O610 O 0.68409 0.22081 0.25723
 O611 O 0.72225 0.31357 0.25691
 O612 O 0.75744 0.32047 0.23080
 Zr613 Zr 0.75541 0.29276 0.25874
 O614 O 0.77809 0.27124 0.23512
 Zr615 Zr 0.71049 0.25017 0.25821
 O616 O 0.73116 0.22685 0.23431
 Zr617 Zr 0.75435 0.24826 0.30179
 O618 O 0.77689 0.22467 0.28003
 Zr619 Zr 0.75579 0.24821 0.21263
 O620 O 0.73282 0.27194 0.23424
 Zr621 Zr 0.79938 0.24633 0.25643
 O622 O 0.77895 0.27006 0.28037
 Zr623 Zr 0.75444 0.20371 0.25576
 O624 O 0.73162 0.22513 0.27979
 O625 O 0.73174 0.27242 0.28165
 O626 O 0.77837 0.22384 0.23271
 C627 C 0.75721 0.30458 0.31566
 C628 C 0.69922 0.30706 0.25599
 C629 C 0.69786 0.24743 0.31486
 C630 C 0.75387 0.19184 0.19895
 C631 C 0.81229 0.24689 0.19981
 C632 C 0.81072 0.18949 0.25425
 H633 H 0.78875 0.28246 0.22515
 H634 H 0.78692 0.21387 0.29106
 H635 H 0.72131 0.28324 0.29234
 H636 H 0.71965 0.21717 0.22367
 H637 H 0.71430 0.26028 0.19154
 H638 H 0.68633 0.24272 0.21707
 H639 H 0.82328 0.23278 0.29630
 H640 H 0.79641 0.25816 0.32274
 H641 H 0.76877 0.28916 0.18988
 H642 H 0.74616 0.31506 0.21724
 H643 H 0.76599 0.17821 0.29528
 H644 H 0.74417 0.20605 0.32227
 H645 H 0.79782 0.31259 0.26942
 H646 H 0.82474 0.28612 0.24551
 H647 H 0.68872 0.20890 0.27055
 H648 H 0.71294 0.18143 0.24481
 C649 C 0.23170 0.04524 0.07088
 C650 C 0.22948 0.06282 0.08994
 C651 C 0.24800 0.08081 0.09352
 C652 C 0.26923 0.08067 0.07820
 C653 C 0.27173 0.06275 0.05945
 C654 C 0.25285 0.04504 0.05546
 N655 N 0.24483 0.09900 0.11275
 N656 N 0.25763 0.11896 0.11335
 C657 C 0.25481 0.13700 0.13278
 C658 C 0.26514 0.16073 0.12958
 C659 C 0.26273 0.17878 0.14818
 C660 C 0.25035 0.17315 0.17056
 C661 C 0.24015 0.14923 0.17383
 C662 C 0.24217 0.13134 0.15500
 H663 H 0.21695 0.03170 0.06828
 H664 H 0.21309 0.06270 0.10171
 H665 H 0.28387 0.09431 0.08077
 H666 H 0.28818 0.06304 0.04778
 H667 H 0.27497 0.16526 0.11255
 H668 H 0.27095 0.19699 0.14523
 H669 H 0.23046 0.14440 0.19086
 H670 H 0.23414 0.11306 0.15792
 C671 C 0.78208 0.57584 0.55290
 C672 C 0.78095 0.59547 0.56995
 C673 C 0.76013 0.59836 0.58531
 C674 C 0.74010 0.58160 0.58316
 C675 C 0.74099 0.56223 0.56575
 C676 C 0.76208 0.55907 0.55059
 N677 N 0.75982 0.61838 0.60293
 N678 N 0.74427 0.61909 0.62079
 C679 C 0.74388 0.63917 0.63833
 C680 C 0.73116 0.63595 0.66082
 C681 C 0.73111 0.65484 0.67872
 C682 C 0.74337 0.67755 0.67411
 C683 C 0.75561 0.68102 0.65124
 C684 C 0.75609 0.66188 0.63356
 H685 H 0.79848 0.57396 0.54131
 H686 H 0.79646 0.60830 0.57142
 H687 H 0.72374 0.58359 0.59477
 H688 H 0.72533 0.54957 0.56434
 H689 H 0.72161 0.61857 0.66465
 H690 H 0.72133 0.65175 0.69610
 H691 H 0.76522 0.69833 0.64726
 H692 H 0.76590 0.66483 0.61619
 C693 C 0.72978 0.94906 0.06445
 C694 C 0.72776 0.93145 0.08351
 C695 C 0.74851 0.91771 0.09108
 C696 C 0.77165 0.92217 0.07968
 C697 C 0.77392 0.94034 0.06104
 C698 C 0.75293 0.95393 0.05299
 N699 N 0.74553 0.89952 0.11041
 N700 N 0.76063 0.88147 0.11326
 C701 C 0.75760 0.86349 0.13279
 C702 C 0.76876 0.84008 0.13027
 C703 C 0.76569 0.82192 0.14870
 C704 C 0.75197 0.82716 0.17038
 C705 C 0.74121 0.85086 0.17318
 C706 C 0.74371 0.86880 0.15437
 H707 H 0.71316 0.95913 0.05901
 H708 H 0.70983 0.92823 0.09219
 H709 H 0.78800 0.91185 0.08542
 H710 H 0.79205 0.94349 0.05276
 H711 H 0.77958 0.83578 0.11380
 H712 H 0.77443 0.80390 0.14621
 H713 H 0.73060 0.85537 0.18974
 H714 H 0.73508 0.88687 0.15678
 C715 C 0.28159 0.44383 0.56878
 C716 C 0.28236 0.42646 0.58820
 C717 C 0.26270 0.40969 0.59172
 C718 C 0.24204 0.41057 0.57566
 C719 C 0.24103 0.42824 0.55652
 C720 C 0.26082 0.44501 0.55287
 N721 N 0.26397 0.39226 0.61189
 N722 N 0.24940 0.37358 0.61325
 C723 C 0.25019 0.35639 0.63364
 C724 C 0.23838 0.33328 0.63112
 C725 C 0.23900 0.31595 0.65053
 C726 C 0.25099 0.32173 0.67309
 C727 C 0.26248 0.34513 0.67578
 C728 C 0.26229 0.36226 0.65612
 H729 H 0.29702 0.45664 0.56653
 H730 H 0.29834 0.42601 0.60049
 H731 H 0.22655 0.39787 0.57811
 H732 H 0.22481 0.42872 0.54453
 H733 H 0.22891 0.32860 0.61392
 H734 H 0.22987 0.29811 0.64800
 H735 H 0.27195 0.35001 0.69293
 H736 H 0.27140 0.38011 0.65854
 C737 C 0.78191 0.07291 0.94800
 C738 C 0.78249 0.09201 0.93023
 C739 C 0.76225 0.09577 0.91421
 C740 C 0.74118 0.08036 0.91635
 C741 C 0.74037 0.06161 0.93442
 C742 C 0.76076 0.05763 0.95036
 N743 N 0.76336 0.11541 0.89614
 N744 N 0.74835 0.11630 0.87779
 C745 C 0.74882 0.13610 0.85989
 C746 C 0.73674 0.13269 0.83705
 C747 C 0.73705 0.15149 0.81902
 C748 C 0.74895 0.17433 0.82384
 C749 C 0.76065 0.17794 0.84700
 C750 C 0.76081 0.15888 0.86481
 H751 H 0.79782 0.07035 0.96014
 H752 H 0.79881 0.10380 0.92881
 H753 H 0.72525 0.08300 0.90428
 H754 H 0.72386 0.05008 0.93578
 H755 H 0.72734 0.11526 0.83309
 H756 H 0.72779 0.14825 0.80138
 H757 H 0.77008 0.19532 0.85114
 H758 H 0.77010 0.16199 0.88244
 C759 C 0.27388 0.56834 0.44955
 C760 C 0.27315 0.58767 0.43214
 C761 C 0.25315 0.58975 0.41558
 C762 C 0.23346 0.57250 0.41696
 C763 C 0.23393 0.55340 0.43474
 C764 C 0.25429 0.55101 0.45103
 N765 N 0.25347 0.60936 0.39749
 N766 N 0.23899 0.60948 0.37872
 C767 C 0.23955 0.62917 0.36069
 C768 C 0.22822 0.62539 0.33753
 C769 C 0.22950 0.64375 0.31910
 C770 C 0.24169 0.66649 0.32378
 C771 C 0.25244 0.67054 0.34731
 C772 C 0.25159 0.65194 0.36556
 H773 H 0.28971 0.56707 0.46200
 H774 H 0.28839 0.60089 0.43129
 H775 H 0.21774 0.57384 0.40441
 H776 H 0.21860 0.54029 0.43548
 H777 H 0.21884 0.60795 0.33359
 H778 H 0.22091 0.64020 0.30119
 H779 H 0.26202 0.68784 0.35139
 H780 H 0.26036 0.65533 0.38340
 C781 C 0.28469 0.94269 0.93481
 C782 C 0.28561 0.92501 0.91563
 C783 C 0.26405 0.91225 0.90834
 C784 C 0.24134 0.91784 0.91998
 C785 C 0.24023 0.93590 0.93867
 C786 C 0.26193 0.94844 0.94658
 N787 N 0.26546 0.89382 0.88907
 N788 N 0.24891 0.87695 0.88696
 C789 C 0.24922 0.85879 0.86743
 C790 C 0.23540 0.83687 0.87040
 C791 C 0.23499 0.81886 0.85160
 C792 C 0.24788 0.82286 0.82918
 C793 C 0.26148 0.84505 0.82605
 C794 C 0.26240 0.86278 0.84517
 H795 H 0.30178 0.95197 0.94023
 H796 H 0.30323 0.92093 0.90672
 H797 H 0.22438 0.90840 0.91446
 H798 H 0.22232 0.93969 0.94715
 H799 H 0.22504 0.83368 0.88741
 H800 H 0.22421 0.80201 0.85440
 H801 H 0.27161 0.84853 0.80895
 H802 H 0.27300 0.87973 0.84241
 C803 C 0.78963 0.45056 0.43384
 C804 C 0.79046 0.43237 0.41519
 C805 C 0.77079 0.41548 0.41232
 C806 C 0.75001 0.41715 0.42815
 C807 C 0.74893 0.43564 0.44646
 C808 C 0.76877 0.45246 0.44955
 N809 N 0.77211 0.39706 0.39305
 N810 N 0.75789 0.37807 0.39299
 C811 C 0.75844 0.35987 0.37349
 C812 C 0.74702 0.33678 0.37750
 C813 C 0.74699 0.31866 0.35882
 C814 C 0.75793 0.32360 0.33554
 C815 C 0.76916 0.34692 0.33143
 C816 C 0.76964 0.36485 0.35035
 H817 H 0.80511 0.46339 0.43572
 H818 H 0.80652 0.43132 0.40304
 H819 H 0.73450 0.40440 0.42616
 H820 H 0.73266 0.43665 0.45833
 H821 H 0.73822 0.33280 0.39521
 H822 H 0.73799 0.30094 0.36243
 H823 H 0.77775 0.35118 0.31368
 H824 H 0.77841 0.38268 0.34680
 C825 C 0.05023 0.22817 0.06714
 C826 C 0.06782 0.22699 0.08632
 C827 C 0.08482 0.24645 0.08989
 C828 C 0.08389 0.26737 0.07415
 C829 C 0.06598 0.26881 0.05528
 C830 C 0.04903 0.24918 0.05154
 N831 N 0.10254 0.24470 0.10977
 N832 N 0.12162 0.25876 0.11092
 C833 C 0.13901 0.25736 0.13111
 C834 C 0.16263 0.26801 0.12824
 C835 C 0.18018 0.26655 0.14743
 C836 C 0.17411 0.25493 0.17010
 C837 C 0.15019 0.24470 0.17315
 C838 C 0.13284 0.24568 0.15373
 H839 H 0.03729 0.21285 0.06480
 H840 H 0.06831 0.21080 0.09838
 H841 H 0.09676 0.28272 0.07666
 H842 H 0.06548 0.28521 0.04351
 H843 H 0.16756 0.27715 0.11093
 H844 H 0.19844 0.27470 0.14463
 H845 H 0.14507 0.23552 0.19039
 H846 H 0.11461 0.23747 0.15643
 C847 C 0.54707 0.73564 0.56767
 C848 C 0.56424 0.73490 0.58720
 C849 C 0.58092 0.75459 0.59088
 C850 C 0.57996 0.77540 0.57497
 C851 C 0.56237 0.77642 0.55571
 C852 C 0.54588 0.75643 0.55177
 N853 N 0.59847 0.75294 0.61092
 N854 N 0.61767 0.76681 0.61216
 C855 C 0.63498 0.76506 0.63242
 C856 C 0.65881 0.77526 0.62963
 C857 C 0.67637 0.77316 0.64875
 C858 C 0.67015 0.76133 0.67128
 C859 C 0.64602 0.75160 0.67429
 C860 C 0.62864 0.75322 0.65492
 H861 H 0.53445 0.72006 0.56522
 H862 H 0.56474 0.71881 0.59938
 H863 H 0.59260 0.79092 0.57759
 H864 H 0.56184 0.79267 0.54373
 H865 H 0.66389 0.78449 0.61242
 H866 H 0.69478 0.78098 0.64599
 H867 H 0.64076 0.74233 0.69143
 H868 H 0.61026 0.74533 0.65756
 C869 C 0.06053 0.77991 0.94323
 C870 C 0.07975 0.78025 0.92569
 C871 C 0.08603 0.75865 0.91259
 C872 C 0.07319 0.73639 0.91755
 C873 C 0.05438 0.73580 0.93557
 C874 C 0.04763 0.75762 0.94856
 N875 N 0.10569 0.75971 0.89461
 N876 N 0.10781 0.74358 0.87736
 C877 C 0.12787 0.74442 0.85981
 C878 C 0.12525 0.73214 0.83696
 C879 C 0.14436 0.73303 0.81928
 C880 C 0.16670 0.74562 0.82456
 C881 C 0.16952 0.75749 0.84772
 C882 C 0.15014 0.75715 0.86511
 H883 H 0.05606 0.79709 0.95285
 H884 H 0.08961 0.79750 0.92207
 H885 H 0.07792 0.71940 0.90775
 H886 H 0.04495 0.71828 0.93906
 H887 H 0.10821 0.72220 0.83271
 H888 H 0.14180 0.72363 0.80160
 H889 H 0.18653 0.76740 0.85218
 H890 H 0.15262 0.76659 0.88276
 C891 C 0.55187 0.27677 0.43248
 C892 C 0.57002 0.27729 0.41383
 C893 C 0.58632 0.25720 0.41076
 C894 C 0.58401 0.23624 0.42630
 C895 C 0.56550 0.23546 0.44463
 C896 C 0.54937 0.25581 0.44800
 N897 N 0.60487 0.25848 0.39165
 N898 N 0.62355 0.24389 0.39128
 C899 C 0.64181 0.24493 0.37187
 C900 C 0.66483 0.23328 0.37554
 C901 C 0.68317 0.23426 0.35709
 C902 C 0.67851 0.24645 0.33439
 C903 C 0.65523 0.25780 0.33057
 C904 C 0.63709 0.25725 0.34925
 H905 H 0.53957 0.29263 0.43456
 H906 H 0.57157 0.29350 0.40190
 H907 H 0.59632 0.22041 0.42413
 H908 H 0.56401 0.21910 0.45636
 H909 H 0.66864 0.22366 0.39287
 H910 H 0.70090 0.22524 0.36046
 H911 H 0.65118 0.26742 0.31329
 H912 H 0.61936 0.26626 0.34595
 C913 C 0.92611 0.77718 0.05111
 C914 C 0.90660 0.77704 0.06831
 C915 C 0.90239 0.75612 0.08329
 C916 C 0.91765 0.73502 0.08059
 C917 C 0.93684 0.73493 0.06298
 C918 C 0.94134 0.75609 0.04822
 N919 N 0.88251 0.75677 0.10101
 N920 N 0.88119 0.74139 0.11900
 C921 C 0.86107 0.74203 0.13646
 C922 C 0.86402 0.73042 0.15961
 C923 C 0.84510 0.73166 0.17743
 C924 C 0.82266 0.74400 0.17206
 C925 C 0.81944 0.75501 0.14853
 C926 C 0.83861 0.75427 0.13094
 H927 H 0.92907 0.79366 0.03982
 H928 H 0.89490 0.79336 0.07020
 H929 H 0.91460 0.71859 0.09189
 H930 H 0.94834 0.71846 0.06112
 H931 H 0.88123 0.72086 0.16401
 H932 H 0.84797 0.72289 0.19539
 H933 H 0.80235 0.76469 0.14395
 H934 H 0.83587 0.76321 0.11307
 C935 C 0.42868 0.27448 0.55338
 C936 C 0.40942 0.27420 0.57085
 C937 C 0.40587 0.25345 0.58622
 C938 C 0.42156 0.23264 0.58366
 C939 C 0.44050 0.23268 0.56580
 C940 C 0.44434 0.25368 0.55064
 N941 N 0.38623 0.25396 0.60419
 N942 N 0.38538 0.23872 0.62233
 C943 C 0.36551 0.23923 0.64006
 C944 C 0.36888 0.22771 0.66319
 C945 C 0.35021 0.22885 0.68128
 C946 C 0.32760 0.24101 0.67619
 C947 C 0.32397 0.25194 0.65268
 C948 C 0.34287 0.25128 0.63482
 H949 H 0.43112 0.29082 0.54178
 H950 H 0.39739 0.29029 0.57263
 H951 H 0.41902 0.21633 0.59527
 H952 H 0.45234 0.21643 0.56406
 H953 H 0.38622 0.21830 0.66738
 H954 H 0.35340 0.22016 0.69922
 H955 H 0.30675 0.26152 0.64834
 H956 H 0.33982 0.26015 0.61697
 C957 C 0.93508 0.28144 0.94269
 C958 C 0.91606 0.28300 0.92497
 C959 C 0.90734 0.26155 0.91303
 C960 C 0.91744 0.23827 0.91943
 C961 C 0.93598 0.23655 0.93763
 C962 C 0.94526 0.25815 0.94938
 N963 N 0.88822 0.26376 0.89456
 N964 N 0.88500 0.24709 0.87802
 C965 C 0.86563 0.24871 0.85978
 C966 C 0.86795 0.23504 0.83773
 C967 C 0.84946 0.23628 0.81947
 C968 C 0.82796 0.25068 0.82334
 C969 C 0.82539 0.26404 0.84570
 C970 C 0.84427 0.26334 0.86369
 H971 H 0.94154 0.29850 0.95135
 H972 H 0.90835 0.30104 0.92023
 H973 H 0.91079 0.22141 0.91056
 H974 H 0.94325 0.21827 0.94219
 H975 H 0.88426 0.22361 0.83459
 H976 H 0.85175 0.22560 0.80249
 H977 H 0.80896 0.27525 0.84909
 H978 H 0.84203 0.27386 0.88074
 C979 C 0.42607 0.77863 0.44498
 C980 C 0.40688 0.77832 0.42735
 C981 C 0.40363 0.75771 0.41170
 C982 C 0.41965 0.73713 0.41409
 C983 C 0.43853 0.73721 0.43202
 C984 C 0.44201 0.75800 0.44757
 N985 N 0.38394 0.75799 0.39369
 N986 N 0.38321 0.74246 0.37578
 C987 C 0.36343 0.74221 0.35789
 C988 C 0.36682 0.72918 0.33558
 C989 C 0.34808 0.72883 0.31753
 C990 C 0.32533 0.74107 0.32178
 C991 C 0.32173 0.75373 0.34442
 C992 C 0.34074 0.75451 0.36226
 H993 H 0.42822 0.79483 0.45682
 H994 H 0.39462 0.79426 0.42573
 H995 H 0.41741 0.72091 0.40230
 H996 H 0.45056 0.72108 0.43358
 H997 H 0.38417 0.71952 0.33207
 H998 H 0.35128 0.71875 0.30035
 H999 H 0.30440 0.76335 0.34814
 H1000 H 0.33765 0.76454 0.37948
 C1001 C 0.06777 0.04867 0.28081
 C1002 C 0.08624 0.06708 0.28192
 C1003 C 0.08894 0.08431 0.26250
 C1004 C 0.07306 0.08282 0.24175
 C1005 C 0.05497 0.06414 0.24038
 C1006 C 0.05212 0.04689 0.25989
 N1007 N 0.10831 0.10266 0.26385
 N1008 N 0.10843 0.12177 0.24978
 C1009 C 0.12825 0.13966 0.25022
 C1010 C 0.12456 0.16297 0.23908
 C1011 C 0.14369 0.18068 0.23880
 C1012 C 0.16707 0.17506 0.24917
 C1013 C 0.17081 0.15155 0.26013
 C1014 C 0.15148 0.13407 0.26087
 H1015 H 0.06605 0.03554 0.29604
 H1016 H 0.09843 0.06797 0.29796
 H1017 H 0.07492 0.09581 0.22642
 H1018 H 0.04310 0.06326 0.22408
 H1019 H 0.10678 0.16743 0.23068
 H1020 H 0.14036 0.19858 0.23008
 H1021 H 0.18861 0.14677 0.26833
 H1022 H 0.15482 0.11608 0.26939
 C1023 C 0.54931 0.57213 0.71901
 C1024 C 0.56517 0.59280 0.71917
 C1025 C 0.57888 0.59873 0.74052
 C1026 C 0.57622 0.58397 0.76201
 C1027 C 0.56001 0.56356 0.76203
 C1028 C 0.54654 0.55734 0.74046
 N1029 N 0.59564 0.61949 0.73983
 N1030 N 0.61225 0.62254 0.75645
 C1031 C 0.62935 0.64300 0.75596
 C1032 C 0.65115 0.64131 0.77007
 C1033 C 0.66903 0.66015 0.76894
 C1034 C 0.66505 0.68137 0.75414
 C1035 C 0.64272 0.68357 0.74068
 C1036 C 0.62507 0.66434 0.74134
 H1037 H 0.53898 0.56789 0.70220
 H1038 H 0.56706 0.60404 0.70251
 H1039 H 0.58656 0.58826 0.77878
 H1040 H 0.55821 0.55251 0.77882
 H1041 H 0.65458 0.62499 0.78146
 H1042 H 0.68604 0.65812 0.77960
 H1043 H 0.63932 0.69974 0.72907
 H1044 H 0.60821 0.66607 0.73041
 C1045 C 0.93382 0.05459 0.77067
 C1046 C 0.91455 0.07203 0.77231
 C1047 C 0.90678 0.08513 0.75119
 C1048 C 0.91804 0.08017 0.72812
 C1049 C 0.93687 0.06231 0.72627
 C1050 C 0.94523 0.04943 0.74758
 N1051 N 0.88748 0.10335 0.75357
 N1052 N 0.88447 0.12043 0.73740
 C1053 C 0.86495 0.13846 0.73934
 C1054 C 0.86701 0.16077 0.72602
 C1055 C 0.84849 0.17895 0.72785
 C1056 C 0.82725 0.17473 0.74253
 C1057 C 0.82493 0.15209 0.75550
 C1058 C 0.84379 0.13417 0.75415
 H1059 H 0.93956 0.04502 0.78748
 H1060 H 0.90593 0.07565 0.79018
 H1061 H 0.91213 0.08996 0.71149
 H1062 H 0.94510 0.05892 0.70816
 H1063 H 0.88320 0.16421 0.71448
 H1064 H 0.85063 0.19619 0.71756
 H1065 H 0.80876 0.14845 0.76701
 H1066 H 0.84176 0.11694 0.76445
 C1067 C 0.44635 0.56252 0.27909
 C1068 C 0.42790 0.58086 0.27913
 C1069 C 0.41156 0.58315 0.25897
 C1070 C 0.41409 0.56713 0.23842
 C1071 C 0.43291 0.54914 0.23811
 C1072 C 0.44911 0.54659 0.25852
 N1073 N 0.39298 0.60222 0.25957
 N1074 N 0.37411 0.60198 0.24521
 C1075 C 0.35620 0.62173 0.24553
 C1076 C 0.33275 0.61789 0.23479
 C1077 C 0.31493 0.63691 0.23497
 C1078 C 0.32064 0.66027 0.24537
 C1079 C 0.34431 0.66414 0.25587
 C1080 C 0.36187 0.64498 0.25615
 H1081 H 0.45868 0.56102 0.29499
 H1082 H 0.42618 0.59321 0.29499
 H1083 H 0.40177 0.56875 0.22254
 H1084 H 0.43461 0.53701 0.22206
 H1085 H 0.32821 0.60006 0.22648
 H1086 H 0.29685 0.63351 0.22667
 H1087 H 0.34915 0.68192 0.26414
 H1088 H 0.37994 0.64843 0.26441
 C1089 C 0.06906 0.95095 0.71761
 C1090 C 0.08865 0.93374 0.71669
 C1091 C 0.09251 0.91705 0.73638
 C1092 C 0.07679 0.91805 0.75728
 C1093 C 0.05757 0.93553 0.75844
 C1094 C 0.05340 0.95206 0.73857
 N1095 N 0.11235 0.89924 0.73486
 N1096 N 0.11285 0.88024 0.74906
 C1097 C 0.13248 0.86221 0.74855
 C1098 C 0.12837 0.83905 0.75976
 C1099 C 0.14694 0.82088 0.75968
 C1100 C 0.17027 0.82580 0.74887
 C1101 C 0.17461 0.84926 0.73801
 C1102 C 0.15572 0.86729 0.73759
 H1103 H 0.06636 0.96358 0.70210
 H1104 H 0.10065 0.93320 0.70049
 H1105 H 0.07949 0.90545 0.77281
 H1106 H 0.04578 0.93592 0.77481
 H1107 H 0.11058 0.83501 0.76839
 H1108 H 0.14316 0.80306 0.76840
 H1109 H 0.19243 0.85349 0.72955
 H1110 H 0.15934 0.88519 0.72902
 C1111 C 0.55305 0.42525 0.27930
 C1112 C 0.57082 0.40629 0.27996
 C1113 C 0.58857 0.40422 0.26103
 C1114 C 0.58806 0.42109 0.24098
 C1115 C 0.56991 0.43978 0.24001
 C1116 C 0.55238 0.44216 0.25931
 N1117 N 0.60675 0.38479 0.26261
 N1118 N 0.62659 0.38492 0.24965
 C1119 C 0.64443 0.36516 0.25126
 C1120 C 0.66841 0.36894 0.24181
 C1121 C 0.68636 0.35015 0.24358
 C1122 C 0.68035 0.32702 0.25436
 C1123 C 0.65613 0.32312 0.26349
 C1124 C 0.63837 0.34211 0.26217
 H1125 H 0.53964 0.42654 0.29432
 H1126 H 0.57099 0.39333 0.29544
 H1127 H 0.60153 0.41969 0.22604
 H1128 H 0.56980 0.45259 0.22442
 H1129 H 0.67328 0.38660 0.23332
 H1130 H 0.70483 0.35359 0.23623
 H1131 H 0.65103 0.30551 0.27197
 H1132 H 0.61988 0.33871 0.26948
 C1133 C 0.93858 0.93850 0.22546
 C1134 C 0.91921 0.92120 0.22347
 C1135 C 0.91108 0.90800 0.24439
 C1136 C 0.92233 0.91249 0.26758
 C1137 C 0.94130 0.93022 0.26978
 C1138 C 0.94976 0.94346 0.24872
 N1139 N 0.89110 0.89052 0.24176
 N1140 N 0.88712 0.87354 0.25782
 C1141 C 0.86669 0.85654 0.25560
 C1142 C 0.86751 0.83397 0.26863
 C1143 C 0.84794 0.81690 0.26667
 C1144 C 0.82689 0.82252 0.25218
 C1145 C 0.82586 0.84539 0.23947
 C1146 C 0.84575 0.86218 0.24093
 H1147 H 0.94442 0.94830 0.20881
 H1148 H 0.91061 0.91792 0.20551
 H1149 H 0.91618 0.90260 0.28405
 H1150 H 0.94938 0.93343 0.28799
 H1151 H 0.88351 0.82949 0.28007
 H1152 H 0.84909 0.79945 0.27677
 H1153 H 0.80985 0.85010 0.22812
 H1154 H 0.84466 0.87964 0.23087
 C1155 C 0.43383 0.44404 0.71833
 C1156 C 0.41501 0.42604 0.71822
 C1157 C 0.41149 0.41047 0.73882
 C1158 C 0.42693 0.41323 0.75979
 C1159 C 0.44545 0.43159 0.76014
 C1160 C 0.44911 0.44714 0.73938
 N1161 N 0.39181 0.39245 0.73817
 N1162 N 0.39063 0.37441 0.75353
 C1163 C 0.37051 0.35687 0.75310
 C1164 C 0.37327 0.33405 0.76543
 C1165 C 0.35406 0.31644 0.76508
 C1166 C 0.33149 0.32169 0.75287
 C1167 C 0.32859 0.34479 0.74086
 C1168 C 0.34803 0.36216 0.74077
 H1169 H 0.43611 0.45588 0.70214
 H1170 H 0.40317 0.42415 0.70200
 H1171 H 0.42442 0.40149 0.77601
 H1172 H 0.45698 0.43357 0.77659
 H1173 H 0.39046 0.32981 0.77508
 H1174 H 0.35673 0.29883 0.77459
 H1175 H 0.31144 0.34927 0.73122
 H1176 H 0.34542 0.37977 0.73126
 C1177 C 0.04870 0.22882 0.93045
 C1178 C 0.06627 0.22754 0.91129
 C1179 C 0.08357 0.24677 0.90795
 C1180 C 0.08282 0.26765 0.92375
 C1181 C 0.06492 0.26920 0.94260
 C1182 C 0.04780 0.24971 0.94624
 N1183 N 0.10161 0.24468 0.88841
 N1184 N 0.12097 0.25836 0.88777
 C1185 C 0.13892 0.25660 0.86812
 C1186 C 0.16243 0.26727 0.87159
 C1187 C 0.18054 0.26556 0.85298
 C1188 C 0.17517 0.25361 0.83030
 C1189 C 0.15137 0.24328 0.82665
 C1190 C 0.13344 0.24455 0.84552
 H1191 H 0.03561 0.21361 0.93273
 H1192 H 0.06662 0.21140 0.89919
 H1193 H 0.09592 0.28283 0.92139
 H1194 H 0.06465 0.28549 0.95452
 H1195 H 0.16683 0.27667 0.88889
 H1196 H 0.19866 0.27384 0.85622
 H1197 H 0.14678 0.23390 0.80938
 H1198 H 0.11530 0.23630 0.84239
 C1199 C 0.54726 0.78051 0.42962
 C1200 C 0.56417 0.78098 0.40982
 C1201 C 0.57967 0.76055 0.40523
 C1202 C 0.57781 0.73933 0.42051
 C1203 C 0.56054 0.73863 0.44004
 C1204 C 0.54520 0.75929 0.44489
 N1205 N 0.59712 0.76186 0.38506
 N1206 N 0.61503 0.74647 0.38298
 C1207 C 0.63254 0.74758 0.36287
 C1208 C 0.65498 0.73458 0.36512
 C1209 C 0.67287 0.73582 0.34628
 C1210 C 0.66837 0.74969 0.32452
 C1211 C 0.64554 0.76224 0.32193
 C1212 C 0.62784 0.76143 0.34110
 H1213 H 0.53554 0.79663 0.43276
 H1214 H 0.56539 0.79742 0.39817
 H1215 H 0.58953 0.72324 0.41723
 H1216 H 0.55935 0.72205 0.45149
 H1217 H 0.65877 0.72376 0.38173
 H1218 H 0.69019 0.72574 0.34866
 H1219 H 0.64162 0.77305 0.30535
 H1220 H 0.61051 0.77149 0.33890
 C1221 C 0.93299 0.78527 0.94184
 C1222 C 0.91322 0.78680 0.92491
 C1223 C 0.90433 0.76537 0.91303
 C1224 C 0.91526 0.74222 0.91842
 C1225 C 0.93463 0.74054 0.93569
 C1226 C 0.94382 0.76204 0.94766
 N1227 N 0.88421 0.76741 0.89562
 N1228 N 0.87960 0.75002 0.88018
 C1229 C 0.85942 0.75113 0.86282
 C1230 C 0.86016 0.73565 0.84191
 C1231 C 0.84113 0.73649 0.82425
 C1232 C 0.82062 0.75236 0.82764
 C1233 C 0.81947 0.76744 0.84899
 C1234 C 0.83894 0.76707 0.86638
 H1235 H 0.93941 0.80225 0.95069
 H1236 H 0.90494 0.80476 0.92090
 H1237 H 0.90860 0.72536 0.90955
 H1238 H 0.94239 0.72231 0.93957
 H1239 H 0.87579 0.72321 0.83908
 H1240 H 0.84234 0.72459 0.80799
 H1241 H 0.80386 0.77989 0.85190
 H1242 H 0.83795 0.77903 0.88259
 C1243 C 0.42887 0.27707 0.44697
 C1244 C 0.40898 0.27716 0.43017
 C1245 C 0.40447 0.25646 0.41497
 C1246 C 0.41998 0.23545 0.41689
 C1247 C 0.43961 0.23517 0.43398
 C1248 C 0.44429 0.25600 0.44914
 N1249 N 0.38410 0.25717 0.39776
 N1250 N 0.38197 0.24114 0.38044
 C1251 C 0.36170 0.24143 0.36315
 C1252 C 0.36394 0.22781 0.34108
 C1253 C 0.34501 0.22841 0.32329
 C1254 C 0.32320 0.24221 0.32760
 C1255 C 0.32059 0.25529 0.35012
 C1256 C 0.33985 0.25513 0.36770
 H1257 H 0.43192 0.29330 0.45857
 H1258 H 0.39714 0.29344 0.42886
 H1259 H 0.41679 0.21918 0.40539
 H1260 H 0.45118 0.21869 0.43526
 H1261 H 0.38065 0.21712 0.33745
 H1262 H 0.34741 0.21805 0.30613
 H1263 H 0.30399 0.26615 0.35379
 H1264 H 0.33769 0.26565 0.38477
 C1265 C 0.04511 0.72863 0.06704
 C1266 C 0.06236 0.72637 0.08641
 C1267 C 0.07991 0.74517 0.09068
 C1268 C 0.07969 0.76666 0.07569
 C1269 C 0.06206 0.76921 0.05668
 C1270 C 0.04477 0.75011 0.05204
 N1271 N 0.09778 0.74202 0.11022
 N1272 N 0.11778 0.75475 0.11091
 C1273 C 0.13567 0.75205 0.13048
 C1274 C 0.15986 0.76089 0.12664
 C1275 C 0.17791 0.75825 0.14516
 C1276 C 0.17187 0.74728 0.16816
 C1277 C 0.14742 0.73881 0.17219
 C1278 C 0.12949 0.74091 0.15338
 H1279 H 0.03184 0.71372 0.06397
 H1280 H 0.06232 0.70976 0.09789
 H1281 H 0.09298 0.78152 0.07879
 H1282 H 0.06219 0.78594 0.04538
 H1283 H 0.16479 0.76958 0.10910
 H1284 H 0.19654 0.76510 0.14160
 H1285 H 0.14228 0.73028 0.18975
 H1286 H 0.11081 0.73412 0.15678
 C1287 C 0.54860 0.23104 0.56922
 C1288 C 0.56584 0.23003 0.58869
 C1289 C 0.58264 0.24960 0.59243
 C1290 C 0.58170 0.27059 0.57676
 C1291 C 0.56409 0.27187 0.55760
 C1292 C 0.54754 0.25199 0.55352
 N1293 N 0.60053 0.24762 0.61210
 N1294 N 0.61977 0.26145 0.61294
 C1295 C 0.63764 0.25959 0.63263
 C1296 C 0.66124 0.27004 0.62917
 C1297 C 0.67938 0.26794 0.64768
 C1298 C 0.67400 0.25584 0.67028
 C1299 C 0.65009 0.24582 0.67397
 C1300 C 0.63210 0.24744 0.65518
 H1301 H 0.53591 0.21555 0.56663
 H1302 H 0.56635 0.21380 0.60068
 H1303 H 0.59444 0.28601 0.57944
 H1304 H 0.56364 0.28822 0.54576
 H1305 H 0.66569 0.27950 0.61191
 H1306 H 0.69757 0.27601 0.64439
 H1307 H 0.64544 0.23641 0.69121
 H1308 H 0.61387 0.23938 0.65830
 C1309 C 0.93081 0.27796 0.05440
 C1310 C 0.91208 0.27874 0.07249
 C1311 C 0.90840 0.25851 0.08854
 C1312 C 0.92342 0.23721 0.08608
 C1313 C 0.94176 0.23618 0.06765
 C1314 C 0.94571 0.25660 0.05173
 N1315 N 0.88920 0.25986 0.10698
 N1316 N 0.88894 0.24534 0.12573
 C1317 C 0.86950 0.24605 0.14394
 C1318 C 0.87372 0.23529 0.16729
 C1319 C 0.85521 0.23583 0.18556
 C1320 C 0.83188 0.24656 0.18050
 C1321 C 0.82752 0.25698 0.15686
 C1322 C 0.84628 0.25697 0.13879
 H1323 H 0.93338 0.29388 0.04225
 H1324 H 0.90056 0.29521 0.07416
 H1325 H 0.92077 0.22128 0.09818
 H1326 H 0.95302 0.21952 0.06600
 H1327 H 0.89151 0.22674 0.17142
 H1328 H 0.85908 0.22762 0.20357
 H1329 H 0.80974 0.26544 0.15248
 H1330 H 0.84258 0.26521 0.12076
 C1331 C 0.42679 0.77845 0.55280
 C1332 C 0.40782 0.77850 0.57060
 C1333 C 0.40464 0.75816 0.58660
 C1334 C 0.42045 0.73740 0.58431
 C1335 C 0.43911 0.73708 0.56610
 C1336 C 0.44256 0.75770 0.55030
 N1337 N 0.38509 0.75898 0.60471
 N1338 N 0.38444 0.74434 0.62337
 C1339 C 0.36449 0.74510 0.64107
 C1340 C 0.36772 0.73385 0.66437
 C1341 C 0.34873 0.73468 0.68217
 C1342 C 0.32591 0.74631 0.67669
 C1343 C 0.32255 0.75721 0.65311
 C1344 C 0.34176 0.75684 0.63553
 H1345 H 0.42891 0.79450 0.54074
 H1346 H 0.39569 0.79455 0.57212
 H1347 H 0.41820 0.72139 0.59638
 H1348 H 0.45104 0.72088 0.56458
 H1349 H 0.38512 0.72467 0.66883
 H1350 H 0.35177 0.72597 0.70011
 H1351 H 0.30518 0.76632 0.64838
 H1352 H 0.33877 0.76551 0.61757
 C1353 C 0.27592 0.07039 0.95347
 C1354 C 0.27530 0.09101 0.93762
 C1355 C 0.25508 0.09471 0.92166
 C1356 C 0.23502 0.07783 0.92214
 C1357 C 0.23538 0.05743 0.93837
 C1358 C 0.25599 0.05337 0.95397
 N1359 N 0.25569 0.11528 0.90469
 N1360 N 0.24089 0.11661 0.88625
 C1361 C 0.24169 0.13679 0.86886
 C1362 C 0.23006 0.13374 0.84579
 C1363 C 0.23184 0.15228 0.82768
 C1364 C 0.24478 0.17453 0.83257
 C1365 C 0.25570 0.17801 0.85610
 C1366 C 0.25442 0.15912 0.87407
 H1367 H 0.29193 0.06786 0.96549
 H1368 H 0.29084 0.10390 0.93741
 H1369 H 0.21911 0.08041 0.91001
 H1370 H 0.21978 0.04462 0.93842
 H1371 H 0.22017 0.11664 0.84161
 H1372 H 0.22309 0.14920 0.80979
 H1373 H 0.26578 0.19499 0.86032
 H1374 H 0.26342 0.16189 0.89191
 C1375 C 0.78238 0.57355 0.44578
 C1376 C 0.78102 0.59275 0.42825
 C1377 C 0.76001 0.59523 0.41305
 C1378 C 0.74013 0.57839 0.41569
 C1379 C 0.74126 0.55946 0.43354
 C1380 C 0.76244 0.55683 0.44871
 N1381 N 0.75923 0.61508 0.39527
 N1382 N 0.74326 0.61563 0.37777
 C1383 C 0.74236 0.63571 0.36026
 C1384 C 0.72961 0.63231 0.33780
 C1385 C 0.72930 0.65121 0.31989
 C1386 C 0.74127 0.67406 0.32451
 C1387 C 0.75340 0.67772 0.34741
 C1388 C 0.75416 0.65860 0.36507
 H1389 H 0.79885 0.57207 0.45736
 H1390 H 0.79643 0.60567 0.42639
 H1391 H 0.72364 0.58005 0.40420
 H1392 H 0.72564 0.54681 0.43540
 H1393 H 0.72035 0.61478 0.33396
 H1394 H 0.71968 0.64797 0.30246
 H1395 H 0.76282 0.69513 0.35141
 H1396 H 0.76394 0.66169 0.38244
 C1397 C 0.78369 0.06616 0.06012
 C1398 C 0.78477 0.08507 0.07796
 C1399 C 0.76303 0.09375 0.08931
 C1400 C 0.73994 0.08369 0.08220
 C1401 C 0.73870 0.06523 0.06381
 C1402 C 0.76061 0.05603 0.05265
 N1403 N 0.76489 0.11281 0.10789
 N1404 N 0.74792 0.11619 0.12407
 C1405 C 0.74962 0.13547 0.14242
 C1406 C 0.73585 0.13317 0.16441
 C1407 C 0.73753 0.15138 0.18294
 C1408 C 0.75247 0.17260 0.17939
 C1409 C 0.76588 0.17519 0.15707
 C1410 C 0.76473 0.15659 0.13883
 H1411 H 0.80098 0.05977 0.05194
 H1412 H 0.80267 0.09275 0.08326
 H1413 H 0.72286 0.09032 0.09063
 H1414 H 0.72059 0.05799 0.05863
 H1415 H 0.72408 0.11702 0.16734
 H1416 H 0.72685 0.14907 0.19991
 H1417 H 0.77755 0.19138 0.15396
 H1418 H 0.77539 0.15881 0.12185
 C1419 C 0.22975 0.54787 0.56942
 C1420 C 0.22770 0.56540 0.58857
 C1421 C 0.24666 0.58286 0.59259
 C1422 C 0.26802 0.58234 0.57746
 C1423 C 0.27032 0.56449 0.55863
 C1424 C 0.25113 0.54719 0.55433
 N1425 N 0.24387 0.60077 0.61216
 N1426 N 0.25746 0.62017 0.61342
 C1427 C 0.25508 0.63791 0.63319
 C1428 C 0.26604 0.66141 0.63045
 C1429 C 0.26390 0.67925 0.64929
 C1430 C 0.25117 0.67362 0.67148
 C1431 C 0.24050 0.64986 0.67438
 C1432 C 0.24222 0.63220 0.65529
 H1433 H 0.21475 0.53464 0.56662
 H1434 H 0.21119 0.56557 0.60015
 H1435 H 0.28299 0.59556 0.58035
 H1436 H 0.28697 0.56441 0.54724
 H1437 H 0.27609 0.66598 0.61356
 H1438 H 0.27252 0.69733 0.64666
 H1439 H 0.23058 0.64505 0.69128
 H1440 H 0.23376 0.61406 0.65787
 C1441 C 0.77825 0.95257 0.93198
 C1442 C 0.77823 0.93564 0.91220
 C1443 C 0.75761 0.92028 0.90798
 C1444 C 0.73665 0.92236 0.92355
 C1445 C 0.73643 0.93970 0.94305
 C1446 C 0.75733 0.95482 0.94758
 N1447 N 0.75850 0.90271 0.88789
 N1448 N 0.74327 0.88459 0.88635
 C1449 C 0.74403 0.86701 0.86629
 C1450 C 0.73150 0.84432 0.86901
 C1451 C 0.73235 0.82643 0.85014
 C1452 C 0.74530 0.83118 0.82787
 C1453 C 0.75746 0.85421 0.82490
 C1454 C 0.75707 0.87191 0.84408
 H1455 H 0.79454 0.96414 0.93488
 H1456 H 0.79446 0.93426 0.90031
 H1457 H 0.72042 0.91076 0.92053
 H1458 H 0.72007 0.94107 0.95477
 H1459 H 0.72135 0.84036 0.88598
 H1460 H 0.72262 0.80894 0.85286
 H1461 H 0.76761 0.85832 0.80795
 H1462 H 0.76677 0.88942 0.84152
 C1463 C 0.28343 0.44505 0.43223
 C1464 C 0.28455 0.42747 0.41297
 C1465 C 0.26494 0.41065 0.40924
 C1466 C 0.24398 0.41175 0.42488
 C1467 C 0.24262 0.42958 0.44378
 C1468 C 0.26234 0.44638 0.44770
 N1469 N 0.26643 0.39287 0.38936
 N1470 N 0.25191 0.37413 0.38842
 C1471 C 0.25235 0.35647 0.36842
 C1472 C 0.24006 0.33369 0.37155
 C1473 C 0.23973 0.31610 0.35237
 C1474 C 0.25125 0.32128 0.32943
 C1475 C 0.26341 0.34429 0.32621
 C1476 C 0.26416 0.36169 0.34564
 H1477 H 0.29883 0.45785 0.43476
 H1478 H 0.30078 0.42687 0.40101
 H1479 H 0.22851 0.39906 0.42228
 H1480 H 0.22618 0.43012 0.45545
 H1481 H 0.23079 0.32952 0.38898
 H1482 H 0.23011 0.29860 0.35536
 H1483 H 0.27255 0.34871 0.30877
 H1484 H 0.27362 0.37929 0.34277
 C1485 C 0.28223 0.94133 0.06662
 C1486 C 0.28292 0.92327 0.08536
 C1487 C 0.26356 0.90598 0.08772
 C1488 C 0.24326 0.90703 0.07122
 C1489 C 0.24229 0.92541 0.05280
 C1490 C 0.26180 0.94269 0.05030
 N1491 N 0.26467 0.88787 0.10725
 N1492 N 0.25092 0.86855 0.10715
 C1493 C 0.25140 0.85077 0.12700
 C1494 C 0.24124 0.82712 0.12298
 C1495 C 0.24140 0.80933 0.14196
 C1496 C 0.25117 0.81517 0.16555
 C1497 C 0.26111 0.83908 0.16965
 C1498 C 0.26144 0.85668 0.15044
 H1499 H 0.29743 0.95456 0.06522
 H1500 H 0.29861 0.92267 0.09803
 H1501 H 0.22799 0.89393 0.07283
 H1502 H 0.22635 0.92606 0.04045
 H1503 H 0.23338 0.82240 0.10500
 H1504 H 0.23359 0.79110 0.13825
 H1505 H 0.26881 0.84409 0.18762
 H1506 H 0.26922 0.87497 0.15399
 C1507 C 0.78736 0.45299 0.57058
 C1508 C 0.78733 0.43547 0.58990
 C1509 C 0.76734 0.41893 0.59271
 C1510 C 0.74712 0.42031 0.57616
 C1511 C 0.74688 0.43810 0.55719
 C1512 C 0.76703 0.45455 0.55415
 N1513 N 0.76779 0.40102 0.61249
 N1514 N 0.75328 0.38225 0.61243
 C1515 C 0.75287 0.36435 0.63217
 C1516 C 0.74177 0.34118 0.62784
 C1517 C 0.74123 0.32312 0.64655
 C1518 C 0.75122 0.32823 0.67020
 C1519 C 0.76192 0.35173 0.67472
 C1520 C 0.76298 0.36960 0.65575
 H1521 H 0.80304 0.46556 0.56873
 H1522 H 0.80300 0.43462 0.60258
 H1523 H 0.73137 0.40783 0.57805
 H1524 H 0.73101 0.43886 0.54476
 H1525 H 0.73382 0.33699 0.60977
 H1526 H 0.73282 0.30522 0.64256
 H1527 H 0.76984 0.35612 0.69276
 H1528 H 0.77146 0.38752 0.65953
 C1529 C 0.04721 0.07442 0.72597
 C1530 C 0.06387 0.09442 0.72673
 C1531 C 0.08064 0.09684 0.74651
 C1532 C 0.08015 0.07933 0.76600
 C1533 C 0.06311 0.05960 0.76554
 C1534 C 0.04669 0.05681 0.74536
 N1535 N 0.09829 0.11685 0.74613
 N1536 N 0.11767 0.11655 0.75975
 C1537 C 0.13559 0.13629 0.75943
 C1538 C 0.15940 0.13164 0.76882
 C1539 C 0.17777 0.15001 0.76776
 C1540 C 0.17242 0.17370 0.75788
 C1541 C 0.14826 0.17860 0.74905
 C1542 C 0.13002 0.15992 0.74956
 H1543 H 0.03459 0.07282 0.71030
 H1544 H 0.06405 0.10782 0.71163
 H1545 H 0.09288 0.08093 0.78157
 H1546 H 0.06308 0.04629 0.78072
 H1547 H 0.16388 0.11351 0.77647
 H1548 H 0.19618 0.14565 0.77467
 H1549 H 0.14363 0.19665 0.74129
 H1550 H 0.11163 0.16393 0.74232
 C1551 C 0.56807 0.55037 0.28211
 C1552 C 0.58603 0.56926 0.28287
 C1553 C 0.58815 0.58631 0.26324
 C1554 C 0.57228 0.58408 0.24254
 C1555 C 0.55469 0.56488 0.24151
 C1556 C 0.55235 0.54789 0.26132
 N1557 N 0.60696 0.60523 0.26437
 N1558 N 0.60650 0.62437 0.25035
 C1559 C 0.62597 0.64265 0.25079
 C1560 C 0.62191 0.66596 0.23976
 C1561 C 0.64081 0.68395 0.23948
 C1562 C 0.66430 0.67860 0.24973
 C1563 C 0.66833 0.65513 0.26068
 C1564 C 0.64929 0.63739 0.26141
 H1565 H 0.56672 0.53747 0.29758
 H1566 H 0.59825 0.57072 0.29886
 H1567 H 0.57373 0.59692 0.22705
 H1568 H 0.54273 0.56347 0.22531
 H1569 H 0.60404 0.67019 0.23141
 H1570 H 0.63723 0.70184 0.23083
 H1571 H 0.68620 0.65052 0.26883
 H1572 H 0.65292 0.61944 0.26989
 C1573 C 0.05384 0.92421 0.27228
 C1574 C 0.07130 0.90497 0.27177
 C1575 C 0.08802 0.90287 0.25194
 C1576 C 0.08686 0.92009 0.23222
 C1577 C 0.06899 0.93911 0.23244
 C1578 C 0.05243 0.94143 0.25259
 N1579 N 0.10571 0.88292 0.25228
 N1580 N 0.12470 0.88237 0.23812
 C1581 C 0.14185 0.86193 0.23879
 C1582 C 0.16544 0.86471 0.22805
 C1583 C 0.18278 0.84528 0.22914
 C1584 C 0.17652 0.82252 0.24056
 C1585 C 0.15264 0.81959 0.25086
 C1586 C 0.13553 0.83919 0.25018
 H1587 H 0.04119 0.92541 0.28795
 H1588 H 0.07197 0.89175 0.28701
 H1589 H 0.09954 0.91868 0.21660
 H1590 H 0.06830 0.95214 0.21704
 H1591 H 0.17051 0.88211 0.21915
 H1592 H 0.20098 0.84797 0.22085
 H1593 H 0.14732 0.80228 0.25980
 H1594 H 0.11733 0.83653 0.25847
 C1595 C 0.57043 0.45228 0.76475
 C1596 C 0.59020 0.43541 0.76619
 C1597 C 0.59449 0.41841 0.74691
 C1598 C 0.57906 0.41887 0.72574
 C1599 C 0.55958 0.43613 0.72402
 C1600 C 0.55492 0.45283 0.74364
 N1601 N 0.61442 0.40081 0.74938
 N1602 N 0.61578 0.38142 0.73580
 C1603 C 0.63566 0.36376 0.73810
 C1604 C 0.63273 0.34012 0.72753
 C1605 C 0.65143 0.32218 0.72990
 C1606 C 0.67373 0.32781 0.74246
 C1607 C 0.67692 0.35175 0.75261
 C1608 C 0.65791 0.36953 0.75070
 H1609 H 0.56739 0.46506 0.78007
 H1610 H 0.60199 0.43529 0.78257
 H1611 H 0.58213 0.40599 0.71052
 H1612 H 0.54791 0.43613 0.70756
 H1613 H 0.61573 0.33548 0.71769
 H1614 H 0.64858 0.30398 0.72163
 H1615 H 0.69393 0.35656 0.76235
 H1616 H 0.66064 0.38778 0.75888
 C1617 C 0.93111 0.04444 0.27867
 C1618 C 0.91143 0.06146 0.27959
 C1619 C 0.90801 0.07872 0.26035
 C1620 C 0.92431 0.07851 0.23985
 C1621 C 0.94370 0.06118 0.23867
 C1622 C 0.94739 0.04409 0.25816
 N1623 N 0.88807 0.09634 0.26211
 N1624 N 0.88743 0.11571 0.24845
 C1625 C 0.86766 0.13352 0.24981
 C1626 C 0.87148 0.15718 0.23961
 C1627 C 0.85298 0.17534 0.24121
 C1628 C 0.82999 0.16993 0.25252
 C1629 C 0.82588 0.14593 0.26222
 C1630 C 0.84471 0.12790 0.26113
 H1631 H 0.93340 0.03134 0.29385
 H1632 H 0.89898 0.06141 0.29545
 H1633 H 0.92194 0.09161 0.22469
 H1634 H 0.95596 0.06131 0.22265
 H1635 H 0.88905 0.16168 0.23077
 H1636 H 0.85660 0.19361 0.23345
 H1637 H 0.80835 0.14130 0.27106
 H1638 H 0.84133 0.10962 0.26898
 C1639 C 0.44376 0.56718 0.71712
 C1640 C 0.42596 0.58618 0.71676
 C1641 C 0.40943 0.58914 0.73668
 C1642 C 0.41099 0.57292 0.75719
 C1643 C 0.42912 0.55423 0.75781
 C1644 C 0.44566 0.55116 0.73776
 N1645 N 0.39162 0.60899 0.73590
 N1646 N 0.37286 0.60952 0.75038
 C1647 C 0.35538 0.62967 0.75014
 C1648 C 0.33199 0.62616 0.76105
 C1649 C 0.31442 0.64536 0.76096
 C1650 C 0.32026 0.66866 0.75048
 C1651 C 0.34394 0.67233 0.73995
 C1652 C 0.36130 0.65289 0.73953
 H1653 H 0.45640 0.56537 0.70150
 H1654 H 0.42498 0.59862 0.70089
 H1655 H 0.39849 0.57495 0.77288
 H1656 H 0.43018 0.54214 0.77394
 H1657 H 0.32727 0.60839 0.76939
 H1658 H 0.29636 0.64209 0.76934
 H1659 H 0.34888 0.69007 0.73169
 H1660 H 0.37938 0.65607 0.73118
 C1661 C 0.93182 0.94651 0.71923
 C1662 C 0.91219 0.92937 0.71902
 C1663 C 0.90838 0.91339 0.73927
 C1664 C 0.92447 0.91472 0.75988
 C1665 C 0.94383 0.93216 0.76032
 C1666 C 0.94767 0.94825 0.74001
 N1667 N 0.88781 0.89639 0.73869
 N1668 N 0.88590 0.87849 0.75413
 C1669 C 0.86508 0.86180 0.75397
 C1670 C 0.86707 0.83902 0.76647
 C1671 C 0.84733 0.82204 0.76616
 C1672 C 0.82500 0.82791 0.75381
 C1673 C 0.82276 0.85109 0.74183
 C1674 C 0.84275 0.86783 0.74168
 H1675 H 0.93422 0.95881 0.70341
 H1676 H 0.89989 0.92854 0.70305
 H1677 H 0.92181 0.90263 0.77581
 H1678 H 0.95576 0.93309 0.77656
 H1679 H 0.88413 0.83425 0.77613
 H1680 H 0.84946 0.80438 0.77572
 H1681 H 0.80577 0.85602 0.73214
 H1682 H 0.84075 0.88547 0.73209
 C1683 C 0.43354 0.44240 0.23289
 C1684 C 0.41422 0.42501 0.23146
 C1685 C 0.40979 0.40854 0.25116
 C1686 C 0.42472 0.40986 0.27264
 C1687 C 0.44374 0.42764 0.27432
 C1688 C 0.44841 0.44397 0.25438
 N1689 N 0.38987 0.39092 0.24899
 N1690 N 0.38811 0.37197 0.26315
 C1691 C 0.36782 0.35475 0.26105
 C1692 C 0.37002 0.33111 0.27186
 C1693 C 0.35072 0.31374 0.26966
 C1694 C 0.32862 0.32001 0.25709
 C1695 C 0.32624 0.34394 0.24669
 C1696 C 0.34577 0.36109 0.24843
 H1697 H 0.43661 0.45489 0.21733
 H1698 H 0.40277 0.42422 0.21487
 H1699 H 0.42150 0.39740 0.28817
 H1700 H 0.45495 0.42845 0.29108
 H1701 H 0.38688 0.32605 0.28172
 H1702 H 0.35295 0.29551 0.27805
 H1703 H 0.30941 0.34924 0.23690
 H1704 H 0.34358 0.37934 0.24010
   
