data_POSCAR
  _audit_creation_date              2014-09-24
  _audit_creation_method            'ToBaCCo'
  _symmetry_space_group_name_H-M    'P1'
  _symmetry_Int_Tables_number       1
  _symmetry_cell_setting            triclinic
  loop_
  _symmetry_equiv_pos_as_xyz
 x,y,z
_cell_length_a 63.1366
_cell_length_b 63.4082
_cell_length_c 63.3925
_cell_angle_alpha 89.946600
_cell_angle_beta 90.126400
_cell_angle_gamma 90.013300
loop_
  _atom_site_label
  _atom_site_type_symbol
  _atom_site_fract_x
  _atom_site_fract_y
  _atom_site_fract_z
C1 C 0.32804 0.45004 0.92117
 C2 C 0.31992 0.45815 0.90220
 C3 C 0.30266 0.44833 0.89203
 C4 C 0.29384 0.43007 0.90103
 C5 C 0.30180 0.42177 0.92000
 C6 C 0.31893 0.43185 0.93014
 C7 C 0.34548 0.45962 0.93101
 C8 C 0.35412 0.45144 0.94983
 C9 C 0.34463 0.43330 0.95879
 C10 C 0.32728 0.42346 0.94899
 C11 C 0.31850 0.40499 0.95751
 C12 C 0.30147 0.39474 0.94755
 C13 C 0.29320 0.40327 0.92871
 H14 H 0.32757 0.47171 0.89520
 H15 H 0.28075 0.42224 0.89315
 H16 H 0.35250 0.47348 0.92379
 H17 H 0.35074 0.42620 0.97303
 H18 H 0.32509 0.39839 0.97189
 H19 H 0.28056 0.39532 0.92034
 C20 C 0.45436 0.82439 0.42460
 C21 C 0.46367 0.84206 0.43415
 C22 C 0.45455 0.85138 0.45224
 C23 C 0.43611 0.84220 0.46076
 C24 C 0.42671 0.82448 0.45139
 C25 C 0.43583 0.81555 0.43322
 C26 C 0.46299 0.81590 0.40609
 C27 C 0.45332 0.79860 0.39602
 C28 C 0.43487 0.78987 0.40478
 C29 C 0.42607 0.79818 0.42329
 C30 C 0.40731 0.78977 0.43167
 C31 C 0.39815 0.79854 0.44992
 C32 C 0.40797 0.81591 0.45960
 H33 H 0.47765 0.84852 0.42684
 H34 H 0.42877 0.84909 0.47459
 H35 H 0.47673 0.82341 0.39925
 H36 H 0.42719 0.77670 0.39697
 H37 H 0.39961 0.77693 0.42344
 H38 H 0.40083 0.82293 0.47347
 C39 C 0.95164 0.92290 0.82815
 C40 C 0.96054 0.90480 0.81901
 C41 C 0.95064 0.89462 0.80175
 C42 C 0.93183 0.90346 0.79356
 C43 C 0.92284 0.92165 0.80247
 C44 C 0.93272 0.93132 0.81991
 C45 C 0.96123 0.93236 0.84578
 C46 C 0.95198 0.95009 0.85567
 C47 C 0.93311 0.95837 0.84709
 C48 C 0.92350 0.94921 0.82933
 C49 C 0.90454 0.95746 0.82116
 C50 C 0.89467 0.94812 0.80352
 C51 C 0.90391 0.93011 0.79442
 H52 H 0.97496 0.89880 0.82591
 H53 H 0.92394 0.89601 0.78030
 H54 H 0.97557 0.92527 0.85176
 H55 H 0.92570 0.97197 0.85438
 H56 H 0.89737 0.97079 0.82901
 H57 H 0.89627 0.92262 0.78104
 C58 C 0.45277 -0.07609 0.32561
 C59 C 0.46163 -0.09400 0.31604
 C60 C 0.45260 -0.10266 0.29770
 C61 C 0.43490 -0.09270 0.28852
 C62 C 0.42579 -0.07489 0.29795
 C63 C 0.43470 -0.06657 0.31658
 C64 C 0.46135 -0.06793 0.34437
 C65 C 0.45207 -0.05029 0.35427
 C66 C 0.43401 -0.04103 0.34515
 C67 C 0.42528 -0.04899 0.32641
 C68 C 0.40700 -0.03993 0.31760
 C69 C 0.39799 -0.04810 0.29903
 C70 C 0.40756 -0.06563 0.28929
 H71 H 0.47534 -0.10151 0.32312
 H72 H 0.42813 -0.09860 0.27398
 H73 H 0.47477 -0.07584 0.35145
 H74 H 0.42662 -0.02763 0.35280
 H75 H 0.39960 -0.02660 0.32534
 H76 H 0.40050 -0.07274 0.27545
 C77 C 0.82568 0.29817 0.32628
 C78 C 0.81632 0.28891 0.34406
 C79 C 0.79791 0.29762 0.35302
 C80 C 0.78904 0.31584 0.34399
 C81 C 0.79823 0.32530 0.32621
 C82 C 0.81664 0.31643 0.31731
 C83 C 0.84437 0.28982 0.31781
 C84 C 0.85415 0.29941 0.30032
 C85 C 0.84505 0.31763 0.29151
 C86 C 0.82639 0.32621 0.29988
 C87 C 0.81765 0.34472 0.29142
 C88 C 0.79928 0.35368 0.30012
 C89 C 0.78968 0.34384 0.31761
 H90 H 0.82394 0.27540 0.35124
 H91 H 0.77505 0.32282 0.35102
 H92 H 0.85152 0.27629 0.32541
 H93 H 0.85266 0.32527 0.27823
 H94 H 0.82529 0.35235 0.27814
 H95 H 0.77601 0.35084 0.32512
 C96 C -0.20185 0.82500 0.82340
 C97 C -0.21069 0.84306 0.81409
 C98 C -0.20156 0.85231 0.79602
 C99 C -0.18344 0.84271 0.78717
 C100 C -0.17444 0.82470 0.79636
 C101 C -0.18363 0.81580 0.81452
 C102 C -0.21061 0.81633 0.84179
 C103 C -0.20142 0.79860 0.85148
 C104 C -0.18312 0.78959 0.84255
 C105 C -0.17422 0.79807 0.82416
 C106 C -0.15567 0.78946 0.81563
 C107 C -0.14639 0.79824 0.79754
 C108 C -0.15591 0.81591 0.78799
 H109 H -0.22458 0.85015 0.82121
 H110 H -0.17571 0.84914 0.77344
 H111 H -0.22450 0.82355 0.84878
 H112 H -0.17524 0.77650 0.85020
 H113 H -0.14825 0.77601 0.82323
 H114 H -0.14858 0.82346 0.77455
 C115 C 0.92277 0.32828 0.44950
 C116 C 0.93166 0.34639 0.45863
 C117 C 0.94949 0.35634 0.44952
 C118 C 0.95832 0.34745 0.43116
 C119 C 0.94965 0.32927 0.42194
 C120 C 0.93177 0.31967 0.43111
 C121 C 0.90461 0.31903 0.45824
 C122 C 0.89528 0.30113 0.44892
 C123 C 0.90440 0.29265 0.43057
 C124 C 0.92256 0.30176 0.42162
 C125 C 0.93142 0.29351 0.40308
 C126 C 0.94937 0.30285 0.39386
 C127 C 0.95832 0.32086 0.40339
 H128 H 0.92412 0.35259 0.47256
 H129 H 0.97197 0.35482 0.42384
 H130 H 0.89745 0.32638 0.47187
 H131 H 0.89718 0.27903 0.42312
 H132 H 0.92425 0.27983 0.39570
 H133 H 0.97161 0.32884 0.39619
 C134 C 0.42393 0.44825 0.82674
 C135 C 0.43321 0.45747 0.84461
 C136 C 0.45135 0.44864 0.85395
 C137 C 0.46015 0.43019 0.84522
 C138 C 0.45103 0.42078 0.82734
 C139 C 0.43286 0.42983 0.81805
 C140 C 0.40552 0.45687 0.81779
 C141 C 0.39587 0.44736 0.80013
 C142 C 0.40487 0.42895 0.79165
 C143 C 0.42326 0.42012 0.80047
 C144 C 0.43192 0.40148 0.79227
 C145 C 0.45006 0.39233 0.80136
 C146 C 0.45947 0.40209 0.81901
 H147 H 0.42619 0.47150 0.85143
 H148 H 0.47362 0.42264 0.85262
 H149 H 0.39849 0.47056 0.82514
 H150 H 0.39739 0.42136 0.77824
 H151 H 0.42441 0.39392 0.77885
 H152 H 0.47293 0.39495 0.82681
 C153 C 0.82477 0.92664 0.95272
 C154 C 0.81570 0.90850 0.96168
 C155 C 0.79784 0.89872 0.95249
 C156 C 0.78911 0.90775 0.93399
 C157 C 0.79810 0.92580 0.92484
 C158 C 0.81593 0.93531 0.93425
 C159 C 0.84285 0.93594 0.96171
 C160 C 0.85241 0.95385 0.95254
 C161 C 0.84322 0.96240 0.93404
 C162 C 0.82522 0.95321 0.92488
 C163 C 0.81677 0.96136 0.90607
 C164 C 0.79900 0.95190 0.89650
 C165 C 0.78980 0.93415 0.90605
 H166 H 0.82276 0.90183 0.97581
 H167 H 0.77571 0.90078 0.92604
 H168 H 0.84965 0.92901 0.97584
 H169 H 0.85003 0.97586 0.92613
 H170 H 0.82461 0.97458 0.89863
 H171 H 0.77625 0.92666 0.89865
 C172 C 0.32624 0.82687 0.29837
 C173 C 0.31672 0.84479 0.28942
 C174 C 0.29803 0.85347 0.29795
 C175 C 0.28886 0.84349 0.31569
 C176 C 0.29832 0.82571 0.32487
 C177 C 0.31703 0.81733 0.31621
 C178 C 0.34517 0.81870 0.29009
 C179 C 0.35502 0.80106 0.29949
 C180 C 0.34575 0.79182 0.31737
 C181 C 0.32686 0.79977 0.32578
 C182 C 0.31798 0.79079 0.34396
 C183 C 0.29931 0.79915 0.35274
 C184 C 0.28961 0.81655 0.34303
 H185 H 0.32410 0.85218 0.27585
 H186 H 0.27472 0.84954 0.32304
 H187 H 0.35242 0.82659 0.27681
 H188 H 0.35339 0.77844 0.32485
 H189 H 0.32615 0.77786 0.35159
 H190 H 0.27537 0.82320 0.34988
 C191 C 0.82728 0.42304 0.44987
 C192 C 0.81781 0.40509 0.45876
 C193 C 0.79987 0.39580 0.44932
 C194 C 0.79155 0.40473 0.43078
 C195 C 0.80085 0.42267 0.42172
 C196 C 0.81880 0.43185 0.43128
 C197 C 0.84547 0.43189 0.45904
 C198 C 0.85564 0.44946 0.44974
 C199 C 0.84684 0.45813 0.43120
 C200 C 0.82859 0.44950 0.42195
 C201 C 0.82028 0.45797 0.40320
 C202 C 0.80224 0.44900 0.39364
 C203 C 0.79273 0.43129 0.40300
 H204 H 0.82500 0.39805 0.47257
 H205 H 0.77790 0.39752 0.42327
 H206 H 0.85156 0.42453 0.47316
 H207 H 0.85436 0.47159 0.42374
 H208 H 0.82838 0.47110 0.39587
 H209 H 0.77901 0.42412 0.39558
 C210 C 0.95426 0.82667 -0.07639
 C211 C 0.96308 0.84491 -0.06736
 C212 C 0.95388 0.85420 -0.04940
 C213 C 0.93573 0.84497 -0.04056
 C214 C 0.92677 0.82675 -0.04935
 C215 C 0.93602 0.81758 -0.06738
 C216 C 0.96308 0.81781 -0.09466
 C217 C 0.95380 0.79993 -0.10436
 C218 C 0.93565 0.79099 -0.09498
 C219 C 0.92671 0.79967 -0.07669
 C220 C 0.90829 0.79098 -0.06787
 C221 C 0.89898 0.79993 -0.04985
 C222 C 0.90834 0.81792 -0.04072
 H223 H 0.97661 0.85214 -0.07491
 H224 H 0.92842 0.85217 -0.02687
 H225 H 0.97690 0.82538 -0.10118
 H226 H 0.92820 0.77731 -0.10212
 H227 H 0.90100 0.77732 -0.07517
 H228 H 0.90104 0.82562 -0.02737
 C229 C 0.32781 0.32673 0.80032
 C230 C 0.31879 0.34481 0.79127
 C231 C 0.30078 0.35422 0.80017
 C232 C 0.29185 0.34539 0.81850
 C233 C 0.30068 0.32730 0.82773
 C234 C 0.31873 0.31792 0.81863
 C235 C 0.34610 0.31768 0.79168
 C236 C 0.35548 0.29983 0.80110
 C237 C 0.34636 0.29124 0.81938
 C238 C 0.32808 0.30013 0.82820
 C239 C 0.31931 0.29182 0.84672
 C240 C 0.30130 0.30101 0.85588
 C241 C 0.29212 0.31885 0.84629
 H242 H 0.32591 0.35173 0.77733
 H243 H 0.27849 0.35286 0.82611
 H244 H 0.35330 0.32508 0.77808
 H245 H 0.35366 0.27768 0.82688
 H246 H 0.32663 0.27825 0.85419
 H247 H 0.27876 0.32670 0.85350
 C248 C 0.17659 0.54879 0.57304
 C249 C 0.15807 0.54046 0.56406
 C250 C 0.14843 0.55023 0.54661
 C251 C 0.15762 0.56862 0.53811
 C252 C 0.17615 0.57712 0.54693
 C253 C 0.18569 0.56717 0.56443
 C254 C 0.18578 0.53938 0.59087
 C255 C 0.20394 0.54807 0.60031
 C256 C 0.21291 0.56647 0.59165
 C257 C 0.20392 0.57602 0.57379
 C258 C 0.21248 0.59474 0.56564
 C259 C 0.20308 0.60475 0.54813
 C260 C 0.18491 0.59581 0.53893
 H261 H 0.15093 0.52647 0.57087
 H262 H 0.15007 0.57689 0.52519
 H263 H 0.17860 0.52539 0.59766
 H264 H 0.22636 0.57394 0.59913
 H265 H 0.22597 0.60174 0.57351
 H266 H 0.17743 0.60360 0.52562
 C267 C 0.57625 0.70386 0.07508
 C268 C 0.59409 0.71308 0.06573
 C269 C 0.60383 0.70366 0.04814
 C270 C 0.59487 0.68531 0.03944
 C271 C 0.57691 0.67596 0.04856
 C272 C 0.56763 0.68522 0.06652
 C273 C 0.56725 0.71276 0.09322
 C274 C 0.54970 0.70322 0.10304
 C275 C 0.54122 0.68464 0.09438
 C276 C 0.54998 0.67562 0.07617
 C277 C 0.54166 0.65688 0.06778
 C278 C 0.55068 0.64760 0.04970
 C279 C 0.56838 0.65725 0.04030
 H280 H 0.60021 0.72764 0.07222
 H281 H 0.60219 0.67805 0.02580
 H282 H 0.57456 0.72662 0.10000
 H283 H 0.52785 0.67708 0.10198
 H284 H 0.52859 0.64936 0.07582
 H285 H 0.57561 0.65005 0.02658
 C286 C 0.70243 0.17310 0.67287
 C287 C 0.71083 0.18207 0.65445
 C288 C 0.70118 0.19975 0.64499
 C289 C 0.68288 0.20830 0.65423
 C290 C 0.67429 0.19952 0.67268
 C291 C 0.68408 0.18181 0.68200
 C292 C 0.71182 0.15516 0.68189
 C293 C 0.70301 0.14546 0.69997
 C294 C 0.68472 0.15450 0.70895
 C295 C 0.67523 0.17250 0.70013
 C296 C 0.65672 0.18103 0.70891
 C297 C 0.64686 0.19875 0.69987
 C298 C 0.65576 0.20786 0.68162
 H299 H 0.72444 0.17468 0.64722
 H300 H 0.67521 0.22175 0.64691
 H301 H 0.72568 0.14883 0.67424
 H302 H 0.67761 0.14734 0.72278
 H303 H 0.64982 0.17373 0.72277
 H304 H 0.64807 0.22099 0.67385
 C305 C 1.07620 0.04985 0.17367
 C306 C 1.09498 0.04120 0.18177
 C307 C 1.10486 0.05010 0.19961
 C308 C 1.09574 0.06790 0.20915
 C309 C 1.07695 0.07672 0.20123
 C310 C 1.06713 0.06762 0.18342
 C311 C 1.06671 0.04131 0.15558
 C312 C 1.04820 0.05021 0.14687
 C313 C 1.03911 0.06788 0.15700
 C314 C 1.04855 0.07664 0.17503
 C315 C 1.03995 0.09471 0.18444
 C316 C 1.04963 0.10398 0.20211
 C317 C 1.06818 0.09483 0.21047
 H318 H 1.10211 0.02801 0.17364
 H319 H 1.10341 0.07502 0.22272
 H320 H 1.07400 0.02776 0.14808
 H321 H 1.02501 0.07539 0.15097
 H322 H 1.02581 0.10182 0.17780
 H323 H 1.07633 0.10209 0.22362
 C324 C 0.04948 0.17469 1.07583
 C325 C 0.04075 0.15643 1.06680
 C326 C 0.04987 0.14699 1.04883
 C327 C 0.06799 0.15658 1.03984
 C328 C 0.07691 0.17480 1.04878
 C329 C 0.06764 0.18389 1.06680
 C330 C 0.04062 0.18362 1.09406
 C331 C 0.04964 0.20161 1.10342
 C332 C 0.06789 0.21057 1.09436
 C333 C 0.07687 0.20189 1.07612
 C334 C 0.09534 0.21059 1.06745
 C335 C 0.10469 0.20165 1.04941
 C336 C 0.09535 0.18375 1.04023
 H337 H 0.02689 0.14938 1.07403
 H338 H 0.07572 0.15002 1.02619
 H339 H 0.02675 0.17643 1.10114
 H340 H 0.07566 0.22387 1.10174
 H341 H 0.10265 0.22388 1.07530
 H342 H 0.10263 0.17662 1.02650
 C343 C 0.17365 0.67225 0.69948
 C344 C 0.15553 0.68128 0.70860
 C345 C 0.14613 0.69938 0.69968
 C346 C 0.15504 0.70826 0.68144
 C347 C 0.17312 0.69944 0.67215
 C348 C 0.18248 0.68136 0.68119
 C349 C 0.18265 0.65386 0.70800
 C350 C 0.20050 0.64446 0.69855
 C351 C 0.20914 0.65370 0.68032
 C352 C 0.20028 0.67204 0.67157
 C353 C 0.20864 0.68092 0.65308
 C354 C 0.19949 0.69900 0.64399
 C355 C 0.18161 0.70811 0.65364
 H356 H 0.14850 0.67368 0.72217
 H357 H 0.14772 0.72202 0.67434
 H358 H 0.17520 0.64665 0.72156
 H359 H 0.22269 0.64642 0.67278
 H360 H 0.22222 0.67363 0.64560
 H361 H 0.17374 0.72151 0.64655
 C362 C 1.20202 0.17439 0.17404
 C363 C 1.21128 0.15623 0.18279
 C364 C 1.20228 0.14628 0.20066
 C365 C 1.18403 0.15527 0.20970
 C366 C 1.17470 0.17345 0.20117
 C367 C 1.18368 0.18303 0.18324
 C368 C 1.21055 0.18372 0.15585
 C369 C 1.20106 0.20155 0.14665
 C370 C 1.18272 0.21009 0.15597
 C371 C 1.17402 0.20095 0.17419
 C372 C 1.15547 0.20913 0.18318
 C373 C 1.14642 0.19975 0.20113
 C374 C 1.15616 0.18182 0.21000
 H375 H 1.22520 0.15000 0.17518
 H376 H 1.17681 0.14792 0.22338
 H377 H 1.22453 0.17692 0.14863
 H378 H 1.17467 0.22336 0.14882
 H379 H 1.14791 0.22277 0.17609
 H380 H 1.14907 0.17382 0.22331
 C381 C 0.67389 1.07661 0.54888
 C382 C 0.65536 1.06768 0.54050
 C383 C 0.64612 1.04978 0.54990
 C384 C 0.65566 1.04097 0.56790
 C385 C 0.67417 1.04975 0.57646
 C386 C 0.68333 1.06765 0.56693
 C387 C 0.68269 1.09475 0.53976
 C388 C 0.70091 1.10438 0.54853
 C389 C 0.71021 1.09511 0.56653
 C390 C 0.70160 1.07691 0.57576
 C391 C 0.71066 1.06816 0.59404
 C392 C 0.70164 1.05021 0.60362
 C393 C 0.68338 1.04119 0.59470
 H394 H 0.64786 1.07526 0.52714
 H395 H 0.64850 1.02734 0.57539
 H396 H 0.67477 1.10124 0.52613
 H397 H 0.72415 1.10224 0.57360
 H398 H 0.72425 1.07586 0.60103
 H399 H 0.67619 1.02755 0.60213
 C400 C 0.54887 0.57650 0.17245
 C401 C 0.54085 0.56800 0.15366
 C402 C 0.55021 0.55018 0.14443
 C403 C 0.56794 0.54087 0.15424
 C404 C 0.57616 0.54923 0.17304
 C405 C 0.56660 0.56710 0.18220
 C406 C 0.53983 0.59467 0.18123
 C407 C 0.54831 0.60365 0.19972
 C408 C 0.56601 0.59418 0.20930
 C409 C 0.57521 0.57598 0.20071
 C410 C 0.59329 0.56696 0.20996
 C411 C 0.60294 0.54911 0.20088
 C412 C 0.59422 0.54040 0.18243
 H413 H 0.52737 0.57540 0.14603
 H414 H 0.57591 0.52763 0.14701
 H415 H 0.52674 0.60213 0.17309
 H416 H 0.57280 0.60119 0.22338
 H417 H 0.60014 0.57442 0.22371
 H418 H 0.60173 0.52684 0.17520
 C419 C 0.67393 0.69984 0.17165
 C420 C 0.65575 0.70865 0.18084
 C421 C 0.64675 0.69978 0.19907
 C422 C 0.65615 0.68171 0.20804
 C423 C 0.67431 0.67272 0.19903
 C424 C 0.68326 0.68180 0.18080
 C425 C 0.68256 0.70845 0.15315
 C426 C 0.70049 0.69926 0.14363
 C427 C 0.70959 0.68125 0.15286
 C428 C 0.70115 0.67247 0.17135
 C429 C 0.71000 0.65417 0.18020
 C430 C 0.70117 0.64501 0.19844
 C431 C 0.68330 0.65441 0.20767
 H432 H 0.64843 0.72238 0.17367
 H433 H 0.64908 0.67407 0.22156
 H434 H 0.67478 0.72185 0.14594
 H435 H 0.72321 0.67393 0.14549
 H436 H 0.72327 0.64679 0.17235
 H437 H 0.67626 0.64729 0.22154
 C438 C 0.17446 0.05028 1.07824
 C439 C 0.15606 0.04113 1.06973
 C440 C 0.14618 0.04979 1.05161
 C441 C 0.15544 0.06766 1.04211
 C442 C 0.17387 0.07686 1.05039
 C443 C 0.18340 0.06815 1.06854
 C444 C 0.18378 0.04204 1.09662
 C445 C 0.20193 0.05138 1.10566
 C446 C 0.21087 0.06914 1.09553
 C447 C 0.20165 0.07757 1.07722
 C448 C 0.21021 0.09563 1.06774
 C449 C 0.20086 0.10449 1.04969
 C450 C 0.18262 0.09498 1.04107
 H451 H 0.14960 0.02756 1.07772
 H452 H 0.14816 0.07464 1.02825
 H453 H 0.17663 0.02839 1.10410
 H454 H 0.22473 0.07695 1.10172
 H455 H 0.22411 0.10302 1.07458
 H456 H 0.17473 0.10192 1.02759
 C457 C 0.57875 0.17084 0.55230
 C458 C 0.59707 0.18005 0.54384
 C459 C 0.60580 0.19837 0.55278
 C460 C 0.59601 0.20741 0.57054
 C461 C 0.57768 0.19840 0.57916
 C462 C 0.56900 0.18005 0.57002
 C463 C 0.57038 0.15226 0.54362
 C464 C 0.55227 0.14272 0.55244
 C465 C 0.54274 0.15200 0.57016
 C466 C 0.55095 0.17056 0.57901
 C467 C 0.54169 0.17950 0.59701
 C468 C 0.55019 0.19781 0.60620
 C469 C 0.56829 0.20712 0.59717
 H470 H 0.60469 0.17285 0.53033
 H471 H 0.60290 0.22103 0.57821
 H472 H 0.57850 0.14501 0.53049
 H473 H 0.52896 0.14461 0.57721
 H474 H 0.52795 0.17206 0.60407
 H475 H 0.57565 0.22071 0.60446
 C476 C 0.07584 0.54879 0.67352
 C477 C 0.09426 0.53993 0.68219
 C478 C 0.10392 0.54885 0.70006
 C479 C 0.09489 0.56695 0.70925
 C480 C 0.07643 0.57595 0.70079
 C481 C 0.06685 0.56685 0.68285
 C482 C 0.06662 0.54022 0.65529
 C483 C 0.04855 0.54941 0.64616
 C484 C 0.03966 0.56748 0.65558
 C485 C 0.04871 0.57623 0.67384
 C486 C 0.04030 0.59462 0.68285
 C487 C 0.04971 0.60381 0.70073
 C488 C 0.06787 0.59435 0.70958
 H489 H 0.10130 0.52618 0.67485
 H490 H 0.10249 0.57461 0.72249
 H491 H 0.07372 0.52648 0.64799
 H492 H 0.02622 0.57532 0.64844
 H493 H 0.02651 0.60199 0.67577
 H494 H 0.07591 0.60156 0.72282
 C495 C 0.67386 0.57884 0.04897
 C496 C 0.65527 0.57046 0.04019
 C497 C 0.64574 0.55238 0.04897
 C498 C 0.65503 0.54289 0.06677
 C499 C 0.67361 0.55113 0.07573
 C500 C 0.68310 0.56915 0.06677
 C501 C 0.68302 0.59715 0.04055
 C502 C 0.70133 0.60593 0.04958
 C503 C 0.71044 0.59620 0.06741
 C504 C 0.70146 0.57787 0.07601
 C505 C 0.71018 0.56853 0.09413
 C506 C 0.70085 0.55046 0.10314
 C507 C 0.68255 0.54193 0.09381
 H508 H 0.64799 0.57854 0.02701
 H509 H 0.64762 0.52915 0.07380
 H510 H 0.67577 0.60473 0.02700
 H511 H 0.72406 0.60313 0.07512
 H512 H 0.72378 0.57589 0.10148
 H513 H 0.67510 0.52820 0.10082
 C514 C 0.04914 0.67432 0.57557
 C515 C 0.03995 0.68315 0.59367
 C516 C 0.04902 0.70102 0.60334
 C517 C 0.06742 0.70991 0.59465
 C518 C 0.07676 0.70128 0.57657
 C519 C 0.06759 0.68341 0.56697
 C520 C 0.04052 0.65614 0.56632
 C521 C 0.05002 0.64689 0.54857
 C522 C 0.06846 0.65606 0.54010
 C523 C 0.07727 0.67422 0.54919
 C524 C 0.09598 0.68297 0.54113
 C525 C 0.10520 0.70080 0.55052
 C526 C 0.09548 0.70987 0.56832
 H527 H 0.02625 0.67553 0.60050
 H528 H 0.07464 0.72349 0.60218
 H529 H 0.02650 0.64898 0.57310
 H530 H 0.07654 0.64877 0.52695
 H531 H 0.10354 0.67575 0.52759
 H532 H 0.10271 0.72311 0.57632
 C533 C 0.54538 1.07203 0.67715
 C534 C 0.53644 1.06317 0.65892
 C535 C 0.54586 1.04551 0.64903
 C536 C 0.56418 1.03669 0.65824
 C537 C 0.57324 1.04540 0.67648
 C538 C 0.56385 1.06316 0.68594
 C539 C 0.53650 1.09015 0.68626
 C540 C 0.54593 1.09956 0.70407
 C541 C 0.56429 1.09056 0.71273
 C542 C 0.57329 1.07244 0.70385
 C543 C 0.59199 1.06393 0.71219
 C544 C 0.60145 1.04612 0.70289
 C545 C 0.59195 1.03700 0.68503
 H546 H 0.52244 1.07060 0.65257
 H547 H 0.57173 1.02317 0.65096
 H548 H 0.52281 1.09728 0.67886
 H549 H 0.57177 1.09790 0.72628
 H550 H 0.59946 1.07177 0.72541
 H551 H 0.59933 1.02348 0.67760
 C552 C 0.42533 0.32835 0.95092
 C553 C 0.43474 0.34638 0.95969
 C554 C 0.45308 0.35538 0.95080
 C555 C 0.46203 0.34566 0.93282
 C556 C 0.45270 0.32770 0.92382
 C557 C 0.43431 0.31900 0.93288
 C558 C 0.40676 0.31987 0.95962
 C559 C 0.39700 0.30206 0.95052
 C560 C 0.40603 0.29296 0.93244
 C561 C 0.42458 0.30128 0.92356
 C562 C 0.43329 0.29243 0.90524
 C563 C 0.45162 0.30100 0.89605
 C564 C 0.46121 0.31871 0.90548
 H565 H 0.42754 0.35358 0.97344
 H566 H 0.47590 0.35200 0.92520
 H567 H 0.39969 0.32768 0.97304
 H568 H 0.39847 0.27943 0.92517
 H569 H 0.42566 0.27895 0.89796
 H570 H 0.47485 0.32609 0.89831
 C571 C 0.92291 0.44964 0.32810
 C572 C 0.93265 0.45843 0.34596
 C573 C 0.95117 0.44953 0.35469
 C574 C 0.95997 0.43153 0.34483
 C575 C 0.95028 0.42251 0.32703
 C576 C 0.93172 0.43158 0.31863
 C577 C 0.90419 0.45839 0.31989
 C578 C 0.89413 0.44927 0.30224
 C579 C 0.90298 0.43117 0.29304
 C580 C 0.92168 0.42229 0.30104
 C581 C 0.93019 0.40398 0.29200
 C582 C 0.94877 0.39481 0.30026
 C583 C 0.95864 0.40421 0.31778
 H584 H 0.92558 0.47221 0.35324
 H585 H 0.97404 0.42399 0.35089
 H586 H 0.89727 0.47187 0.32773
 H587 H 0.89519 0.42391 0.27962
 H588 H 0.92185 0.39665 0.27902
 H589 H 0.97281 0.39708 0.32437
 C590 C 0.32338 0.95486 0.42755
 C591 C 0.31457 0.96322 0.40901
 C592 C 0.29701 0.95351 0.39932
 C593 C 0.28834 0.93527 0.40849
 C594 C 0.29699 0.92672 0.42703
 C595 C 0.31460 0.93654 0.43659
 C596 C 0.34134 0.96418 0.43669
 C597 C 0.35099 0.95528 0.45477
 C598 C 0.34182 0.93711 0.46375
 C599 C 0.32382 0.92769 0.45480
 C600 C 0.31539 0.90911 0.46342
 C601 C 0.29777 0.89919 0.45402
 C602 C 0.28872 0.90815 0.43582
 H603 H 0.32207 0.97677 0.40183
 H604 H 0.27500 0.92753 0.40096
 H605 H 0.34774 0.97801 0.42910
 H606 H 0.34896 0.92995 0.47760
 H607 H 0.32317 0.90212 0.47693
 H608 H 0.27534 0.90046 0.42831
 O609 O 0.25023 0.55389 0.71953
 O610 O 0.28725 0.54602 0.72136
 O611 O 0.22477 0.49845 0.69020
 O612 O 0.22390 0.46394 0.69641
 O613 O 0.19494 0.52487 0.74537
 O614 O 0.20292 0.52339 0.78228
 O615 O 0.27827 0.44239 0.74815
 O616 O 0.27473 0.44865 0.71143
 O617 O 0.30671 0.49560 0.77380
 O618 O 0.29945 0.53388 0.77225
 O619 O 0.25267 0.47047 0.80176
 O620 O 0.21452 0.47229 0.79425
 O621 O 0.25285 0.44255 0.77350
 O622 O 0.21400 0.45050 0.77117
 O623 O 0.27836 0.49559 0.80190
 O624 O 0.27652 0.53427 0.79420
 O625 O 0.30652 0.47010 0.74860
 O626 O 0.29970 0.47296 0.71056
 O627 O 0.22480 0.55419 0.74493
 O628 O 0.22691 0.54646 0.78222
 O629 O 0.19481 0.49963 0.71988
 O630 O 0.20279 0.46179 0.72362
 O631 O 0.25009 0.52403 0.69023
 O632 O 0.28741 0.52226 0.69830
 Zr633 Zr 0.26288 0.52317 0.72093
 O634 O 0.28314 0.50460 0.73971
 Zr635 Zr 0.22537 0.48637 0.72107
 O636 O 0.24418 0.46599 0.73949
 Zr637 Zr 0.22579 0.52362 0.75798
 O638 O 0.24425 0.50474 0.77830
 Zr639 Zr 0.27640 0.47255 0.73463
 O640 O 0.25767 0.49108 0.71401
 Zr641 Zr 0.27650 0.50954 0.77178
 O642 O 0.25806 0.53028 0.75302
 Zr643 Zr 0.23906 0.47269 0.77155
 O644 O 0.21847 0.49159 0.75310
 O645 O 0.23078 0.51828 0.72607
 O646 O 0.27131 0.47751 0.76672
 C647 C 0.23549 0.56302 0.73008
 C648 C 0.23546 0.51314 0.68119
 C649 C 0.18585 0.51430 0.73060
 C650 C 0.26797 0.43369 0.76326
 C651 C 0.31540 0.48031 0.76369
 C652 C 0.26793 0.48051 0.81061
 H653 H 0.29801 0.50807 0.73640
 H654 H 0.24078 0.50815 0.79310
 H655 H 0.22182 0.52727 0.71693
 H656 H 0.24089 0.45116 0.73597
 H657 H 0.26796 0.45503 0.69884
 H658 H 0.23266 0.45175 0.70071
 H659 H 0.26419 0.53223 0.80358
 H660 H 0.24094 0.55335 0.78123
 H661 H 0.30877 0.48550 0.71259
 H662 H 0.28651 0.50829 0.69139
 H663 H 0.21587 0.48520 0.80289
 H664 H 0.19609 0.50935 0.78185
 H665 H 0.28690 0.55259 0.73551
 H666 H 0.30829 0.53241 0.75948
 H667 H 0.19468 0.46432 0.73673
 H668 H 0.21637 0.44080 0.75919
 O669 O 0.27811 -0.05505 0.25166
 O670 O 0.27707 -0.04680 0.21504
 O671 O 0.30654 0.00029 0.27839
 O672 O 0.30003 0.03471 0.27947
 O673 O 0.25077 -0.02704 0.30673
 O674 O 0.21413 -0.02605 0.29832
 O675 O 0.24843 0.05619 0.22411
 O676 O 0.28514 0.05064 0.22797
 O677 O 0.22374 0.00262 0.19533
 O678 O 0.22513 -0.03509 0.20218
 O679 O 0.19472 0.02735 0.24920
 O680 O 0.20188 0.02564 0.28711
 O681 O 0.22278 0.05574 0.24922
 O682 O 0.22498 0.04751 0.28803
 O683 O 0.19515 0.00255 0.22334
 O684 O 0.20354 -0.03642 0.22545
 O685 O 0.24847 0.02869 0.19606
 O686 O 0.28705 0.02600 0.20350
 O687 O 0.25225 -0.05591 0.27661
 O688 O 0.21457 -0.04846 0.27396
 O689 O 0.27603 -0.00146 0.30765
 O690 O 0.27228 0.03661 0.29973
 O691 O 0.30724 -0.02491 0.25284
 O692 O 0.29966 -0.02249 0.21543
 Zr693 Zr 0.27662 -0.02420 0.23953
 O694 O 0.25772 -0.00580 0.21923
 Zr695 Zr 0.27547 0.01213 0.27725
 O696 O 0.25713 0.03251 0.25827
 Zr697 Zr 0.23879 -0.02551 0.27583
 O698 O 0.21847 -0.00658 0.25746
 Zr699 Zr 0.26238 0.02624 0.22618
 O700 O 0.28307 0.00792 0.24511
 Zr701 Zr 0.22549 -0.01116 0.22544
 O702 O 0.24441 -0.03182 0.24376
 Zr703 Zr 0.22495 0.02551 0.26293
 O704 O 0.24325 0.00650 0.28353
 O705 O 0.27087 -0.01976 0.27146
 O706 O 0.23018 0.02090 0.23084
 C707 C 0.26737 -0.06447 0.26605
 C708 C 0.31594 -0.01417 0.26775
 C709 C 0.26520 -0.01637 0.31622
 C710 C 0.23304 0.06472 0.23421
 C711 C 0.23364 0.01817 0.18694
 C712 C 0.18611 0.01736 0.23384
 H713 H 0.26127 -0.00914 0.20444
 H714 H 0.20361 -0.01017 0.26074
 H715 H 0.27995 -0.02876 0.28047
 H716 H 0.26050 0.04736 0.26164
 H717 H 0.29772 0.04464 0.23515
 H718 H 0.29604 0.04672 0.27034
 H719 H 0.19333 -0.03399 0.23700
 H720 H 0.21621 -0.05558 0.26016
 H721 H 0.28469 0.01404 0.19378
 H722 H 0.30656 -0.00854 0.21679
 H723 H 0.19349 0.01253 0.28579
 H724 H 0.21403 -0.01198 0.30506
 H725 H 0.26294 -0.05356 0.21499
 H726 H 0.23861 -0.03422 0.19432
 H727 H 0.25915 0.03377 0.30774
 H728 H 0.23677 0.05751 0.28567
 O729 O 0.55719 0.72349 0.24718
 O730 O 0.55008 0.72499 0.28451
 O731 O 0.50147 0.69380 0.22293
 O732 O 0.46647 0.69963 0.22339
 O733 O 0.52646 0.74951 0.19314
 O734 O 0.52457 0.78649 0.20154
 O735 O 0.44560 0.75102 0.27786
 O736 O 0.45196 0.71409 0.27339
 O737 O 0.49970 0.77589 0.30554
 O738 O 0.53834 0.77447 0.29698
 O739 O 0.47304 0.80474 0.25294
 O740 O 0.47459 0.79772 0.21414
 O741 O 0.44508 0.77654 0.25265
 O742 O 0.45200 0.77530 0.21432
 O743 O 0.49905 0.80467 0.27778
 O744 O 0.53732 0.79763 0.27536
 O745 O 0.47420 0.75055 0.30547
 O746 O 0.47653 0.71308 0.29819
 O747 O 0.55665 0.74929 0.22218
 O748 O 0.54866 0.78625 0.22458
 O749 O 0.50134 0.72377 0.19339
 O750 O 0.46381 0.72690 0.20190
 O751 O 0.52753 0.69384 0.24781
 O752 O 0.52687 0.70135 0.28475
 Zr753 Zr 0.52668 0.72437 0.26062
 O754 O 0.50821 0.74253 0.28136
 Zr755 Zr 0.48882 0.72451 0.22410
 O756 O 0.46863 0.74270 0.24330
 Zr757 Zr 0.52585 0.76185 0.22399
 O758 O 0.50736 0.78175 0.24316
 Zr759 Zr 0.47588 0.73740 0.27518
 O760 O 0.49437 0.71717 0.25609
 Zr761 Zr 0.51296 0.77469 0.27509
 O762 O 0.53345 0.75654 0.25592
 Zr763 Zr 0.47513 0.77490 0.23855
 O764 O 0.49358 0.75671 0.21745
 O765 O 0.52093 0.72983 0.22882
 O766 O 0.48068 0.76957 0.27050
 C767 C 0.56591 0.73440 0.23242
 C768 C 0.51650 0.68484 0.23335
 C769 C 0.51577 0.73470 0.18423
 C770 C 0.43655 0.76616 0.26783
 C771 C 0.48468 0.76542 0.31437
 C772 C 0.48350 0.81339 0.26805
 H773 H 0.51204 0.73894 0.29604
 H774 H 0.51064 0.79662 0.23986
 H775 H 0.52984 0.72089 0.21963
 H776 H 0.45368 0.73919 0.24025
 H777 H 0.45842 0.70157 0.26664
 H778 H 0.45399 0.70420 0.23159
 H779 H 0.53563 0.80649 0.26262
 H780 H 0.55572 0.78543 0.23851
 H781 H 0.48981 0.71439 0.30637
 H782 H 0.51277 0.69451 0.28442
 H783 H 0.48680 0.80726 0.21625
 H784 H 0.51036 0.78578 0.19494
 H785 H 0.55702 0.73896 0.28363
 H786 H 0.53656 0.76204 0.30626
 H787 H 0.46569 0.74045 0.19436
 H788 H 0.44310 0.76256 0.21596
 O789 O 0.05696 0.72400 0.74743
 O790 O 0.04968 0.72511 0.78434
 O791 O 0.00135 0.69420 0.72246
 O792 O -0.03335 0.69998 0.72178
 O793 O 0.02686 0.75023 0.69304
 O794 O 0.02487 0.78691 0.70133
 O795 O -0.05498 0.75028 0.77698
 O796 O -0.04808 0.71392 0.77332
 O797 O -0.00137 0.77671 0.80489
 O798 O 0.03676 0.77601 0.79731
 O799 O -0.02807 0.80486 0.75182
 O800 O -0.02678 0.79817 0.71394
 O801 O -0.05566 0.77584 0.75180
 O802 O -0.04783 0.77435 0.71294
 O803 O -0.00245 0.80502 0.77705
 O804 O 0.03673 0.79793 0.77434
 O805 O -0.02668 0.75121 0.80488
 O806 O -0.02314 0.71311 0.79763
 O807 O 0.05663 0.74986 0.72250
 O808 O 0.04821 0.78706 0.72510
 O809 O 0.00198 0.72426 0.69293
 O810 O -0.03616 0.72745 0.70134
 O811 O 0.02746 0.69424 0.74728
 O812 O 0.02598 0.70181 0.78464
 Zr813 Zr 0.02632 0.72475 0.76041
 O814 O 0.00776 0.74302 0.78103
 Zr815 Zr -0.01111 0.72489 0.72348
 O816 O -0.03156 0.74266 0.74274
 Zr817 Zr 0.02573 0.76237 0.72390
 O818 O 0.00669 0.78212 0.74268
 Zr819 Zr -0.02443 0.73751 0.77472
 O820 O -0.00587 0.71744 0.75553
 Zr821 Zr 0.01212 0.77524 0.77463
 O822 O 0.03295 0.75701 0.75589
 Zr823 Zr -0.02546 0.77489 0.73786
 O824 O -0.00645 0.75709 0.71691
 O825 O 0.02091 0.73030 0.72858
 O826 O -0.02006 0.76973 0.76987
 C827 C 0.06580 0.73495 0.73280
 C828 C 0.01640 0.68525 0.73277
 C829 C 0.01647 0.73535 0.68398
 C830 C -0.06420 0.76517 0.76680
 C831 C -0.01648 0.76637 0.81368
 C832 C -0.01793 0.81363 0.76703
 H833 H 0.01153 0.73959 0.79577
 H834 H 0.00982 0.79703 0.73935
 H835 H 0.02996 0.72142 0.71947
 H836 H -0.04643 0.73889 0.73958
 H837 H -0.04168 0.70159 0.76617
 H838 H -0.04533 0.70373 0.73106
 H839 H 0.03395 0.80783 0.76260
 H840 H 0.05544 0.78588 0.73893
 H841 H -0.01069 0.71553 0.80679
 H842 H 0.01207 0.69466 0.78376
 H843 H -0.01368 0.80666 0.71487
 H844 H 0.01062 0.78644 0.69480
 H845 H 0.05603 0.73939 0.78413
 H846 H 0.03596 0.76287 0.80568
 H847 H -0.03365 0.74047 0.69308
 H848 H -0.05743 0.76225 0.71531
 O849 O -0.00140 -0.02589 -0.05479
 O850 O 0.03585 -0.02367 -0.04735
 O851 O -0.02570 -0.05585 0.00051
 O852 O -0.02591 -0.04988 0.03526
 O853 O -0.05643 -0.00101 -0.02526
 O854 O -0.04902 0.03611 -0.02337
 O855 O 0.02768 0.00223 0.05660
 O856 O 0.02465 -0.03442 0.05009
 O857 O 0.05540 0.02844 0.00294
 O858 O 0.04749 0.02699 -0.03527
 O859 O 0.00137 0.05590 0.02882
 O860 O -0.03689 0.04792 0.02720
 O861 O 0.00213 0.02750 0.05666
 O862 O -0.03667 0.02499 0.04921
 O863 O 0.02681 0.05625 0.00352
 O864 O 0.02445 0.04888 -0.03518
 O865 O 0.05561 0.00343 0.02866
 O866 O 0.04938 -0.03478 0.02562
 O867 O -0.02692 -0.00054 -0.05484
 O868 O -0.02544 0.03657 -0.04681
 O869 O -0.05600 -0.02660 -0.00007
 O870 O -0.04769 -0.02298 0.03763
 O871 O -0.00067 -0.05537 -0.02528
 O872 O 0.03651 -0.04700 -0.02373
 Zr873 Zr 0.01176 -0.02457 -0.02426
 O874 O 0.03204 -0.00574 -0.00578
 Zr875 Zr -0.02529 -0.02508 0.01290
 O876 O -0.00648 -0.00651 0.03317
 Zr877 Zr -0.02580 0.01212 -0.02413
 O878 O -0.00728 0.03251 -0.00543
 Zr879 Zr 0.02572 -0.01102 0.02632
 O880 O 0.00704 -0.03174 0.00786
 Zr881 Zr 0.02498 0.02626 -0.01058
 O882 O 0.00644 0.00749 -0.03119
 Zr883 Zr -0.01200 0.02556 0.02664
 O884 O -0.03262 0.00694 0.00794
 O885 O -0.02032 -0.01977 -0.01902
 O886 O 0.02023 0.02102 0.02150
 C887 C -0.01631 -0.01533 -0.06377
 C888 C -0.01512 -0.06463 -0.01439
 C889 C -0.06522 -0.01599 -0.01472
 C890 C 0.01737 0.01727 0.06541
 C891 C 0.06428 0.01854 0.01828
 C892 C 0.01652 0.06486 0.01872
 H893 H 0.04690 -0.00891 -0.00940
 H894 H -0.01093 0.04729 -0.00876
 H895 H -0.02927 -0.02893 -0.02799
 H896 H -0.00956 -0.01012 0.04802
 H897 H 0.01797 -0.04703 0.04371
 H898 H -0.01734 -0.04535 0.04752
 H899 H 0.01214 0.05822 -0.03289
 H900 H -0.01138 0.03602 -0.05368
 H901 H 0.05842 -0.03243 0.01312
 H902 H 0.03602 -0.05383 -0.00969
 H903 H -0.03561 0.05681 0.01444
 H904 H -0.05578 0.03529 -0.00932
 H905 H 0.03498 -0.00960 -0.05409
 H906 H 0.05647 0.01428 -0.03395
 H907 H -0.05582 -0.00982 0.03537
 H908 H -0.03427 0.01275 0.05860
 O909 O 0.00162 0.55658 0.52640
 O910 O -0.03533 0.54857 0.52485
 O911 O 0.02730 0.50100 0.55550
 O912 O 0.02775 0.46637 0.54904
 O913 O 0.05715 0.52780 0.50066
 O914 O 0.04934 0.52662 0.46376
 O915 O -0.02650 0.44561 0.49651
 O916 O -0.02292 0.45109 0.53339
 O917 O -0.05466 0.49927 0.47174
 O918 O -0.04713 0.53748 0.47376
 O919 O -0.00095 0.47402 0.44371
 O920 O 0.03762 0.47608 0.45124
 O921 O -0.00075 0.44579 0.47150
 O922 O 0.03788 0.45363 0.47379
 O923 O -0.02630 0.49946 0.44367
 O924 O -0.02420 0.53801 0.45182
 O925 O -0.05447 0.47332 0.49651
 O926 O -0.04774 0.47556 0.53469
 O927 O 0.02721 0.55712 0.50116
 O928 O 0.02543 0.54971 0.46384
 O929 O 0.05722 0.50218 0.52583
 O930 O 0.04917 0.46447 0.52193
 O931 O 0.00207 0.52665 0.55562
 O932 O -0.03527 0.52454 0.54767
 Zr933 Zr -0.01084 0.52584 0.52496
 O934 O -0.03109 0.50758 0.50593
 Zr935 Zr 0.02660 0.48904 0.52455
 O936 O 0.00779 0.46890 0.50582
 Zr937 Zr 0.02635 0.52666 0.48794
 O938 O 0.00786 0.50810 0.46738
 Zr939 Zr -0.02442 0.47547 0.51064
 O940 O -0.00571 0.49367 0.53156
 Zr941 Zr -0.02436 0.51297 0.47394
 O942 O -0.00590 0.53337 0.49296
 Zr943 Zr 0.01296 0.47597 0.47382
 O944 O 0.03355 0.49457 0.49256
 O945 O 0.02126 0.52100 0.51980
 O946 O -0.01927 0.48086 0.47865
 C947 C 0.01635 0.56583 0.51594
 C948 C 0.01672 0.51572 0.56459
 C949 C 0.06621 0.51700 0.51530
 C950 C -0.01611 0.43698 0.48140
 C951 C -0.06334 0.48382 0.48156
 C952 C -0.01615 0.48427 0.43492
 H953 H -0.04596 0.51104 0.50926
 H954 H 0.01135 0.51168 0.45262
 H955 H 0.03023 0.52994 0.52898
 H956 H 0.01102 0.45402 0.50918
 H957 H -0.01615 0.45719 0.54611
 H958 H 0.01917 0.45415 0.54447
 H959 H -0.01194 0.53597 0.44236
 H960 H 0.01142 0.55664 0.46481
 H961 H -0.05681 0.48813 0.53277
 H962 H -0.03428 0.51050 0.55445
 H963 H 0.03574 0.48865 0.44219
 H964 H 0.05595 0.51246 0.46396
 H965 H -0.03501 0.55536 0.51078
 H966 H -0.05612 0.53577 0.48641
 H967 H 0.05716 0.46698 0.50874
 H968 H 0.03580 0.44413 0.48600
 O969 O 0.44356 -0.00236 0.47533
 O970 O 0.45163 0.03449 0.47692
 O971 O 0.49862 -0.02776 0.44515
 O972 O 0.53361 -0.02785 0.45093
 O973 O 0.47297 -0.05781 0.50026
 O974 O 0.47492 -0.05036 0.53716
 O975 O 0.55571 0.02526 0.50346
 O976 O 0.54929 0.02227 0.46669
 O977 O 0.50210 0.05320 0.52938
 O978 O 0.46379 0.04584 0.52787
 O979 O 0.52765 -0.00087 0.55687
 O980 O 0.52578 -0.03903 0.54870
 O981 O 0.55575 -0.00039 0.52854
 O982 O 0.54805 -0.03874 0.52605
 O983 O 0.50228 0.02455 0.55720
 O984 O 0.46349 0.02278 0.54953
 O985 O 0.52770 0.05340 0.50421
 O986 O 0.52491 0.04711 0.46614
 O987 O 0.44348 -0.02793 0.50056
 O988 O 0.45173 -0.02664 0.53763
 O989 O 0.49819 -0.05758 0.47468
 O990 O 0.53610 -0.04963 0.47785
 O991 O 0.47306 -0.00245 0.44553
 O992 O 0.47522 0.03461 0.45365
 Zr993 Zr 0.47444 0.01010 0.47626
 O994 O 0.49316 0.03010 0.49512
 Zr995 Zr 0.51139 -0.02712 0.47585
 O996 O 0.53196 -0.00859 0.49443
 Zr997 Zr 0.47436 -0.02726 0.51310
 O998 O 0.49332 -0.00905 0.53345
 Zr999 Zr 0.52535 0.02355 0.48994
 O1000 O 0.50664 0.00513 0.46916
 Zr1001 Zr 0.48831 0.02309 0.52712
 O1002 O 0.46748 0.00488 0.50833
 Zr1003 Zr 0.52547 -0.01406 0.52650
 O1004 O 0.50648 -0.03438 0.50789
 O1005 O 0.47939 -0.02190 0.48117
 O1006 O 0.52051 0.01810 0.52198
 C1007 C 0.43445 -0.01705 0.48599
 C1008 C 0.48370 -0.01706 0.43634
 C1009 C 0.48352 -0.06667 0.48541
 C1010 C 0.56458 0.01478 0.51843
 C1011 C 0.51736 0.06204 0.51936
 C1012 C 0.51743 0.01411 0.56586
 H1013 H 0.48962 0.04493 0.49194
 H1014 H 0.48995 -0.01268 0.54823
 H1015 H 0.47022 -0.03075 0.47211
 H1016 H 0.54683 -0.01179 0.49081
 H1017 H 0.54287 0.01567 0.45405
 H1018 H 0.54606 -0.01953 0.45546
 H1019 H 0.46568 0.01052 0.55893
 H1020 H 0.44478 -0.01266 0.53693
 H1021 H 0.51212 0.05588 0.46809
 H1022 H 0.48925 0.03383 0.44676
 H1023 H 0.51321 -0.03743 0.55784
 H1024 H 0.48903 -0.05714 0.53650
 H1025 H 0.44501 0.03397 0.49105
 H1026 H 0.46517 0.05479 0.51516
 H1027 H 0.53393 -0.05764 0.49108
 H1028 H 0.55723 -0.03662 0.51361
 O1029 O 0.47257 0.44657 -0.00234
 O1030 O 0.47374 0.45496 0.03458
 O1031 O 0.44361 0.50186 -0.02871
 O1032 O 0.45008 0.53671 -0.02880
 O1033 O 0.49892 0.47510 -0.05743
 O1034 O 0.53600 0.47658 -0.04928
 O1035 O 0.50248 0.55786 0.02537
 O1036 O 0.46535 0.55237 0.02108
 O1037 O 0.52652 0.50418 0.05405
 O1038 O 0.52443 0.46586 0.04670
 O1039 O 0.55579 0.52878 0.00063
 O1040 O 0.54827 0.52672 -0.03796
 O1041 O 0.52798 0.55733 0.00011
 O1042 O 0.52621 0.54963 -0.03812
 O1043 O 0.55519 0.50362 0.02620
 O1044 O 0.54702 0.46536 0.02449
 O1045 O 0.50148 0.52996 0.05359
 O1046 O 0.46368 0.52833 0.04620
 O1047 O 0.49819 0.44606 -0.02753
 O1048 O 0.53559 0.45343 -0.02545
 O1049 O 0.47366 0.50070 -0.05799
 O1050 O 0.47753 0.53836 -0.05033
 O1051 O 0.44332 0.47634 -0.00343
 O1052 O 0.45054 0.47873 0.03378
 Zr1053 Zr 0.47383 0.47741 0.00991
 O1054 O 0.49261 0.49587 0.03018
 Zr1055 Zr 0.47466 0.51405 -0.02757
 O1056 O 0.49338 0.53428 -0.00879
 Zr1057 Zr 0.51144 0.47650 -0.02667
 O1058 O 0.53186 0.49503 -0.00806
 Zr1059 Zr 0.48810 0.52798 0.02328
 O1060 O 0.46728 0.50958 0.00457
 Zr1061 Zr 0.52477 0.49034 0.02396
 O1062 O 0.50598 0.46985 0.00540
 Zr1063 Zr 0.52558 0.52715 -0.01342
 O1064 O 0.50689 0.50854 -0.03406
 O1065 O 0.47941 0.48214 -0.02200
 O1066 O 0.52029 0.52247 0.01866
 C1067 C 0.48323 0.43733 -0.01690
 C1068 C 0.43446 0.48703 -0.01827
 C1069 C 0.48424 0.48575 -0.06667
 C1070 C 0.51786 0.56634 0.01515
 C1071 C 0.51631 0.51945 0.06264
 C1072 C 0.56432 0.51851 0.01594
 H1073 H 0.48901 0.49248 0.04495
 H1074 H 0.54670 0.49137 -0.01133
 H1075 H 0.47033 0.47311 -0.03098
 H1076 H 0.49013 0.54916 -0.01215
 H1077 H 0.45264 0.54618 0.01431
 H1078 H 0.45494 0.54925 -0.02088
 H1079 H 0.55637 0.46698 0.01210
 H1080 H 0.53450 0.44658 -0.01146
 H1081 H 0.46464 0.51520 0.05456
 H1082 H 0.44367 0.49271 0.03255
 H1083 H 0.55744 0.51425 -0.03582
 H1084 H 0.53558 0.49057 -0.05622
 H1085 H 0.48773 0.44793 0.03425
 H1086 H 0.51179 0.46784 0.05567
 H1087 H 0.49103 0.53598 -0.05787
 H1088 H 0.51363 0.55879 -0.03660
 O1089 O 0.80502 0.25144 0.47141
 O1090 O 0.79774 0.21468 0.47374
 O1091 O 0.74853 0.27557 0.44230
 O1092 O 0.71399 0.27614 0.44890
 O1093 O 0.77551 0.30662 0.49660
 O1094 O 0.77468 0.29953 0.53354
 O1095 O 0.69403 0.22226 0.50159
 O1096 O 0.69970 0.22501 0.46497
 O1097 O 0.74850 0.19546 0.52737
 O1098 O 0.78647 0.20333 0.52553
 O1099 O 0.72238 0.24944 0.55457
 O1100 O 0.72320 0.28707 0.54649
 O1101 O 0.69399 0.24797 0.52658
 O1102 O 0.70135 0.28699 0.52325
 O1103 O 0.74803 0.22429 0.55492
 O1104 O 0.78695 0.22696 0.54668
 O1105 O 0.72251 0.19478 0.50250
 O1106 O 0.72479 0.20096 0.46408
 O1107 O 0.80536 0.27719 0.49641
 O1108 O 0.79795 0.27583 0.53394
 O1109 O 0.74980 0.30594 0.47139
 O1110 O 0.71183 0.29739 0.47587
 O1111 O 0.77469 0.25086 0.44247
 O1112 O 0.77333 0.21367 0.45119
 Zr1113 Zr 0.77439 0.23855 0.47335
 O1114 O 0.75645 0.21845 0.49277
 Zr1115 Zr 0.73688 0.27534 0.47330
 O1116 O 0.71698 0.25652 0.49219
 Zr1117 Zr 0.77481 0.27616 0.50978
 O1118 O 0.75635 0.25794 0.53063
 Zr1119 Zr 0.72412 0.22448 0.48786
 O1120 O 0.74201 0.24313 0.46670
 Zr1121 Zr 0.76170 0.22581 0.52466
 O1122 O 0.78194 0.24407 0.50527
 Zr1123 Zr 0.72397 0.26235 0.52409
 O1124 O 0.74245 0.28284 0.50516
 O1125 O 0.76908 0.27052 0.47803
 O1126 O 0.72937 0.23026 0.51980
 C1127 C 0.81416 0.26636 0.48166
 C1128 C 0.76340 0.26510 0.43333
 C1129 C 0.76459 0.31524 0.48177
 C1130 C 0.68527 0.23257 0.51662
 C1131 C 0.73320 0.18637 0.51759
 C1132 C 0.73281 0.23459 0.56359
 H1133 H 0.76018 0.20364 0.48969
 H1134 H 0.75989 0.26176 0.54532
 H1135 H 0.77788 0.27940 0.46866
 H1136 H 0.70198 0.25945 0.48874
 H1137 H 0.70563 0.23191 0.45227
 H1138 H 0.70208 0.26704 0.45331
 H1139 H 0.78443 0.23901 0.55624
 H1140 H 0.80524 0.26205 0.53299
 H1141 H 0.73730 0.19188 0.46647
 H1142 H 0.75930 0.21447 0.44423
 H1143 H 0.73658 0.28655 0.55461
 H1144 H 0.76041 0.30598 0.53327
 H1145 H 0.80449 0.21525 0.48784
 H1146 H 0.78538 0.19462 0.51264
 H1147 H 0.71460 0.30593 0.48865
 H1148 H 0.69123 0.28393 0.51171
 O1149 O 0.80772 0.75177 -0.02883
 O1150 O 0.79968 0.71505 -0.02809
 O1151 O 0.75155 0.77819 -0.05669
 O1152 O 0.71707 0.77932 -0.04979
 O1153 O 0.77962 0.80637 -0.00123
 O1154 O 0.77842 0.79766 0.03546
 O1155 O 0.69629 0.72328 0.00066
 O1156 O 0.70172 0.72791 -0.03589
 O1157 O 0.75017 0.69453 0.02472
 O1158 O 0.78861 0.70179 0.02276
 O1159 O 0.72556 0.74759 0.05454
 O1160 O 0.72694 0.78554 0.04815
 O1161 O 0.69701 0.74775 0.02685
 O1162 O 0.70494 0.78687 0.02501
 O1163 O 0.75070 0.72196 0.05359
 O1164 O 0.78937 0.72400 0.04537
 O1165 O 0.72419 0.69531 -0.00017
 O1166 O 0.72638 0.70338 -0.03821
 O1167 O 0.80869 0.77640 -0.00274
 O1168 O 0.80139 0.77353 0.03468
 O1169 O 0.75376 0.80722 -0.02626
 O1170 O 0.71558 0.79938 -0.02189
 O1171 O 0.77716 0.75295 -0.05771
 O1172 O 0.77535 0.71557 -0.05064
 Zr1173 Zr 0.77684 0.73940 -0.02738
 O1174 O 0.75854 0.71880 -0.00884
 Zr1175 Zr 0.74009 0.77689 -0.02561
 O1176 O 0.71987 0.75764 -0.00745
 Zr1177 Zr 0.77816 0.77539 0.01067
 O1178 O 0.75948 0.75655 0.03076
 Zr1179 Zr 0.72630 0.72570 -0.01329
 O1180 O 0.74452 0.74490 -0.03365
 Zr1181 Zr 0.76414 0.72462 0.02331
 O1182 O 0.78465 0.74338 0.00471
 Zr1183 Zr 0.72716 0.76186 0.02464
 O1184 O 0.74592 0.78285 0.00653
 O1185 O 0.77219 0.77123 -0.02128
 O1186 O 0.73189 0.72991 0.01884
 C1187 C 0.81721 0.76605 -0.01798
 C1188 C 0.76609 0.76773 -0.06622
 C1189 C 0.76888 0.81580 -0.01566
 C1190 C 0.68793 0.73292 0.01635
 C1191 C 0.73470 0.68612 0.01454
 C1192 C 0.73577 0.73212 0.06282
 H1193 H 0.76195 0.70408 -0.01262
 H1194 H 0.76316 0.75962 0.04560
 H1195 H 0.78114 0.78030 -0.03034
 H1196 H 0.70491 0.76099 -0.01064
 H1197 H 0.70774 0.73521 -0.04833
 H1198 H 0.70496 0.77032 -0.04568
 H1199 H 0.78750 0.73603 0.05510
 H1200 H 0.80836 0.75964 0.03312
 H1201 H 0.73875 0.69400 -0.03638
 H1202 H 0.76127 0.71681 -0.05743
 H1203 H 0.74037 0.78443 0.05613
 H1204 H 0.76431 0.80447 0.03537
 H1205 H 0.80646 0.71487 -0.01400
 H1206 H 0.78677 0.69320 0.00987
 H1207 H 0.71860 0.80723 -0.00873
 H1208 H 0.69463 0.78441 0.01351
 O1209 O 1.00056 0.19398 0.22337
 O1210 O 0.96338 0.20224 0.22493
 O1211 O 1.02616 0.24883 0.19326
 O1212 O 1.02627 0.28380 0.19910
 O1213 O 1.05614 0.22313 0.24842
 O1214 O 1.04836 0.22524 0.28555
 O1215 O 0.97284 0.30571 0.25144
 O1216 O 0.97677 0.29957 0.21444
 O1217 O 0.94435 0.25249 0.27644
 O1218 O 0.95203 0.21382 0.27477
 O1219 O 0.99814 0.27760 0.30477
 O1220 O 1.03694 0.27517 0.29713
 O1221 O 0.99863 0.30560 0.27654
 O1222 O 1.03690 0.29779 0.27481
 O1223 O 0.97260 0.25234 0.30482
 O1224 O 0.97411 0.21418 0.29762
 O1225 O 0.94455 0.27793 0.25113
 O1226 O 0.95134 0.27563 0.21356
 O1227 O 1.02625 0.19389 0.24862
 O1228 O 1.02468 0.20179 0.28562
 O1229 O 1.05612 0.24836 0.22285
 O1230 O 1.04845 0.28587 0.22606
 O1231 O 1.00072 0.22338 0.19359
 O1232 O 0.96366 0.22543 0.20132
 Zr1233 Zr 0.98806 0.22477 0.22421
 O1234 O 0.96791 0.24357 0.24271
 Zr1235 Zr 1.02556 0.26153 0.22398
 O1236 O 1.00700 0.28202 0.24251
 Zr1237 Zr 1.02539 0.22456 0.26124
 O1238 O 1.00684 0.24333 0.28145
 Zr1239 Zr 0.97477 0.27562 0.23761
 O1240 O 0.99322 0.25684 0.21704
 Zr1241 Zr 0.97458 0.23855 0.27477
 O1242 O 0.99310 0.21778 0.25630
 Zr1243 Zr 1.01208 0.27534 0.27466
 O1244 O 1.03259 0.25654 0.25610
 O1245 O 1.02018 0.22967 0.22930
 O1246 O 0.97982 0.27059 0.26971
 C1247 C 1.01536 0.18493 0.23399
 C1248 C 1.01540 0.23399 0.18444
 C1249 C 1.06513 0.23366 0.23355
 C1250 C 0.98336 0.31443 0.26649
 C1251 C 0.93563 0.26766 0.26611
 C1252 C 0.98286 0.26747 0.31354
 H1253 H 0.95304 0.24012 0.23931
 H1254 H 1.01029 0.23991 0.29628
 H1255 H 1.02908 0.22055 0.22028
 H1256 H 1.01034 0.29684 0.23900
 H1257 H 0.98319 0.29307 0.20177
 H1258 H 1.01852 0.29647 0.20389
 H1259 H 0.98700 0.21558 0.30639
 H1260 H 1.01052 0.19511 0.28500
 H1261 H 0.94297 0.26251 0.21482
 H1262 H 0.96445 0.23942 0.19441
 H1263 H 1.03471 0.26301 0.30665
 H1264 H 1.05533 0.23920 0.28471
 H1265 H 0.96411 0.19534 0.23893
 H1266 H 0.94247 0.21596 0.26258
 H1267 H 1.05611 0.28385 0.23956
 H1268 H 1.03534 0.30666 0.26206
 O1269 O 0.69338 1.02495 0.74759
 O1270 O 0.70108 1.02379 0.78467
 O1271 O 0.74894 1.05499 0.72281
 O1272 O 0.78406 1.04915 0.72355
 O1273 O 0.72356 0.99992 0.69289
 O1274 O 0.72557 0.96289 0.70067
 O1275 O 0.80496 0.99654 0.77772
 O1276 O 0.79916 1.03351 0.77361
 O1277 O 0.75084 0.97170 0.80478
 O1278 O 0.71245 0.97344 0.79649
 O1279 O 0.77686 0.94348 0.75148
 O1280 O 0.77563 0.95146 0.71294
 O1281 O 0.80528 0.97146 0.75211
 O1282 O 0.79849 0.97356 0.71380
 O1283 O 0.75120 0.94346 0.77658
 O1284 O 0.71275 0.95109 0.77409
 O1285 O 0.77638 0.99699 0.80519
 O1286 O 0.77438 1.03477 0.79808
 O1287 O 0.69369 0.99952 0.72226
 O1288 O 0.70181 0.96262 0.72379
 O1289 O 0.74882 1.02553 0.69324
 O1290 O 0.78653 1.02204 0.70167
 O1291 O 0.72299 1.05484 0.74768
 O1292 O 0.72452 1.04718 0.78473
 Zr1293 Zr 0.72413 1.02424 0.76054
 O1294 O 0.74252 1.00562 0.78106
 Zr1295 Zr 0.76167 1.02431 0.72393
 O1296 O 0.78188 1.00579 0.74299
 Zr1297 Zr 0.72453 0.98712 0.72353
 O1298 O 0.74301 0.96690 0.74239
 Zr1299 Zr 0.77486 1.01059 0.77497
 O1300 O 0.75646 1.03125 0.75604
 Zr1301 Zr 0.73754 0.97358 0.77438
 O1302 O 0.71712 0.99216 0.75550
 Zr1303 Zr 0.77526 0.97369 0.73783
 O1304 O 0.75676 0.99221 0.71694
 O1305 O 0.72957 1.01906 0.72869
 O1306 O 0.76984 0.97854 0.76986
 C1307 C 0.68448 1.01408 0.73290
 C1308 C 0.73385 1.06388 0.73313
 C1309 C 0.73415 1.01480 0.68407
 C1310 C 0.81386 0.98141 0.76754
 C1311 C 0.76583 0.98197 0.81384
 C1312 C 0.76638 0.93467 0.76646
 H1313 H 0.73878 1.00901 0.79579
 H1314 H 0.73960 0.95211 0.73887
 H1315 H 0.72050 1.02805 0.71964
 H1316 H 0.79685 1.00926 0.74003
 H1317 H 0.79298 1.04614 0.76676
 H1318 H 0.79661 1.04436 0.73160
 H1319 H 0.71482 0.94184 0.76171
 H1320 H 0.69478 0.96321 0.73772
 H1321 H 0.76120 1.03334 0.80636
 H1322 H 0.73859 1.05404 0.78413
 H1323 H 0.76323 0.94210 0.71468
 H1324 H 0.73967 0.96375 0.69394
 H1325 H 0.69424 1.00975 0.78406
 H1326 H 0.71415 0.98590 0.80570
 H1327 H 0.78447 1.00864 0.69393
 H1328 H 0.80732 0.98633 0.71555
 O1329 O 0.69287 0.52501 0.24782
 O1330 O 0.70074 0.52341 0.28472
 O1331 O 0.74802 0.55512 0.22259
 O1332 O 0.78293 0.54946 0.22230
 O1333 O 0.72230 0.49982 0.19279
 O1334 O 0.72445 0.46294 0.20046
 O1335 O 0.80494 0.49743 0.27648
 O1336 O 0.79859 0.53410 0.27289
 O1337 O 0.75155 0.47140 0.30412
 O1338 O 0.71322 0.47259 0.29662
 O1339 O 0.77729 0.44381 0.25032
 O1340 O 0.77566 0.45161 0.21226
 O1341 O 0.80521 0.47231 0.25091
 O1342 O 0.79752 0.47472 0.21224
 O1343 O 0.75192 0.44339 0.27571
 O1344 O 0.71306 0.45078 0.27367
 O1345 O 0.77698 0.49680 0.30423
 O1346 O 0.77384 0.53496 0.29743
 O1347 O 0.69289 0.49954 0.22254
 O1348 O 0.70126 0.46242 0.22422
 O1349 O 0.74744 0.52554 0.19284
 O1350 O 0.78549 0.52232 0.20096
 O1351 O 0.72239 0.55478 0.24780
 O1352 O 0.72438 0.54673 0.28497
 Zr1353 Zr 0.72371 0.52409 0.26051
 O1354 O 0.74244 0.50545 0.28073
 Zr1355 Zr 0.76074 0.52447 0.22336
 O1356 O 0.78135 0.50621 0.24218
 Zr1357 Zr 0.72379 0.48708 0.22343
 O1358 O 0.74285 0.46695 0.24185
 Zr1359 Zr 0.77461 0.51085 0.27426
 O1360 O 0.75589 0.53136 0.25555
 Zr1361 Zr 0.73776 0.47338 0.27394
 O1362 O 0.71687 0.49195 0.25552
 Zr1363 Zr 0.77499 0.47408 0.23692
 O1364 O 0.75592 0.49239 0.21636
 O1365 O 0.72875 0.51904 0.22856
 O1366 O 0.76992 0.47875 0.26903
 C1367 C 0.68384 0.51422 0.23316
 C1368 C 0.73309 0.56393 0.23319
 C1369 C 0.73274 0.51472 0.18384
 C1370 C 0.81388 0.48243 0.26619
 C1371 C 0.76675 0.48159 0.31293
 C1372 C 0.76713 0.43481 0.26535
 H1373 H 0.73886 0.50870 0.29553
 H1374 H 0.73957 0.45214 0.23830
 H1375 H 0.71958 0.52804 0.21963
 H1376 H 0.79623 0.50989 0.23904
 H1377 H 0.79223 0.54665 0.26605
 H1378 H 0.79530 0.54516 0.23086
 H1379 H 0.71534 0.44135 0.26147
 H1380 H 0.69423 0.46324 0.23814
 H1381 H 0.76137 0.53264 0.30655
 H1382 H 0.73835 0.55377 0.28414
 H1383 H 0.76284 0.44274 0.21354
 H1384 H 0.73856 0.46366 0.19371
 H1385 H 0.69421 0.50922 0.28426
 H1386 H 0.71448 0.48539 0.30543
 H1387 H 0.78317 0.50916 0.19289
 H1388 H 0.80693 0.48697 0.21458
 O1389 O 0.50102 0.19006 0.72660
 O1390 O 0.46404 0.19782 0.72794
 O1391 O 0.52586 0.24492 0.69539
 O1392 O 0.52641 0.27977 0.70082
 O1393 O 0.55655 0.21989 0.75072
 O1394 O 0.54924 0.22279 0.78773
 O1395 O 0.47220 0.30182 0.75252
 O1396 O 0.47563 0.29503 0.71597
 O1397 O 0.44477 0.24864 0.77928
 O1398 O 0.45278 0.21023 0.77824
 O1399 O 0.49858 0.27492 0.80657
 O1400 O 0.53687 0.27355 0.79879
 O1401 O 0.49786 0.30251 0.77773
 O1402 O 0.53666 0.29516 0.77549
 O1403 O 0.47330 0.24940 0.80727
 O1404 O 0.47542 0.21096 0.80051
 O1405 O 0.44440 0.27365 0.75356
 O1406 O 0.45109 0.27030 0.71547
 O1407 O 0.52665 0.19052 0.75191
 O1408 O 0.52559 0.19944 0.78881
 O1409 O 0.55616 0.24461 0.72468
 O1410 O 0.54807 0.28250 0.72781
 O1411 O 0.50089 0.21903 0.69627
 O1412 O 0.46374 0.22093 0.70429
 Zr1413 Zr 0.48836 0.22072 0.72694
 O1414 O 0.46808 0.23945 0.74535
 Zr1415 Zr 0.52554 0.25781 0.72596
 O1416 O 0.50666 0.27840 0.74408
 Zr1417 Zr 0.52592 0.22150 0.76379
 O1418 O 0.50736 0.24050 0.78375
 Zr1419 Zr 0.47446 0.27144 0.73955
 O1420 O 0.49319 0.25269 0.71924
 Zr1421 Zr 0.47513 0.23512 0.77744
 O1422 O 0.49369 0.21430 0.75912
 Zr1423 Zr 0.51206 0.27248 0.77630
 O1424 O 0.53275 0.25348 0.75811
 O1425 O 0.52047 0.22598 0.73178
 O1426 O 0.47984 0.26714 0.77171
 C1427 C 0.51575 0.18124 0.73751
 C1428 C 0.51528 0.22981 0.68686
 C1429 C 0.56535 0.23009 0.73555
 C1430 C 0.48249 0.31096 0.76740
 C1431 C 0.43578 0.26354 0.76887
 C1432 C 0.48355 0.26472 0.81567
 H1433 H 0.45322 0.23573 0.74216
 H1434 H 0.51100 0.23741 0.79860
 H1435 H 0.52933 0.21675 0.72284
 H1436 H 0.50973 0.29320 0.74024
 H1437 H 0.48252 0.28860 0.70352
 H1438 H 0.51784 0.29209 0.70507
 H1439 H 0.48800 0.21310 0.80958
 H1440 H 0.51158 0.19244 0.78835
 H1441 H 0.44208 0.25777 0.71786
 H1442 H 0.46443 0.23478 0.69710
 H1443 H 0.53570 0.26085 0.80777
 H1444 H 0.55595 0.23686 0.78666
 H1445 H 0.46457 0.19145 0.74219
 H1446 H 0.44328 0.21183 0.76592
 H1447 H 0.55619 0.28036 0.74101
 H1448 H 0.53439 0.30419 0.76297
 O1449 O 0.25101 0.77835 0.44356
 O1450 O 0.21393 0.77634 0.45169
 O1451 O 0.27638 0.80763 0.49913
 O1452 O 0.27680 0.80107 0.53387
 O1453 O 0.30679 0.75316 0.47240
 O1454 O 0.29936 0.71610 0.47370
 O1455 O 0.22350 0.74783 0.55473
 O1456 O 0.22686 0.78485 0.54925
 O1457 O 0.19536 0.72330 0.50089
 O1458 O 0.20282 0.72580 0.46251
 O1459 O 0.24966 0.69524 0.52550
 O1460 O 0.28818 0.70360 0.52376
 O1461 O 0.24933 0.72286 0.55420
 O1462 O 0.28769 0.72545 0.54674
 O1463 O 0.22407 0.69539 0.50021
 O1464 O 0.22552 0.70369 0.46208
 O1465 O 0.19525 0.74808 0.52680
 O1466 O 0.20171 0.78600 0.52507
 O1467 O 0.27679 0.75327 0.44309
 O1468 O 0.27563 0.71611 0.45043
 O1469 O 0.30666 0.77827 0.49801
 O1470 O 0.29888 0.77423 0.53560
 O1471 O 0.25092 0.80756 0.47364
 O1472 O 0.21393 0.79933 0.47541
 Zr1473 Zr 0.23855 0.77678 0.47433
 O1474 O 0.21856 0.75764 0.49269
 Zr1475 Zr 0.27608 0.77664 0.51115
 O1476 O 0.25759 0.75758 0.53127
 Zr1477 Zr 0.27616 0.74013 0.47354
 O1478 O 0.25785 0.71938 0.49194
 Zr1479 Zr 0.22530 0.76217 0.52485
 O1480 O 0.24366 0.78331 0.50655
 Zr1481 Zr 0.22555 0.72578 0.48712
 O1482 O 0.24385 0.74489 0.46675
 Zr1483 Zr 0.26300 0.72564 0.52409
 O1484 O 0.28336 0.74471 0.50562
 O1485 O 0.27073 0.77192 0.47918
 O1486 O 0.23068 0.73025 0.51929
 C1487 C 0.26578 0.76793 0.43433
 C1488 C 0.26549 0.81665 0.48449
 C1489 C 0.31573 0.76785 0.48318
 C1490 C 0.23404 0.73266 0.56320
 C1491 C 0.18651 0.73315 0.51621
 C1492 C 0.23457 0.68645 0.51507
 H1493 H 0.20365 0.76091 0.48925
 H1494 H 0.26149 0.70469 0.48824
 H1495 H 0.27955 0.78121 0.47023
 H1496 H 0.26085 0.76085 0.54617
 H1497 H 0.23339 0.79766 0.54309
 H1498 H 0.26873 0.79614 0.54628
 H1499 H 0.23827 0.69475 0.46361
 H1500 H 0.26155 0.71683 0.44356
 H1501 H 0.19300 0.78452 0.51218
 H1502 H 0.21458 0.80586 0.48957
 H1503 H 0.28633 0.69450 0.51122
 H1504 H 0.30632 0.71665 0.48770
 H1505 H 0.21464 0.76243 0.44465
 H1506 H 0.19343 0.73811 0.46458
 H1507 H 0.30673 0.76092 0.53328
 H1508 H 0.28584 0.73792 0.55591
 O1509 O 0.25084 0.19369 1.02745
 O1510 O 0.28795 0.20164 1.02622
 O1511 O 0.22505 0.24883 1.05669
 O1512 O 0.22505 0.28364 1.05061
 O1513 O 0.19566 0.22285 1.00125
 O1514 O 0.20376 0.22438 0.96447
 O1515 O 0.27948 0.30505 0.99868
 O1516 O 0.27572 0.29911 1.03546
 O1517 O 0.30760 0.25140 0.97369
 O1518 O 0.30013 0.21320 0.97559
 O1519 O 0.25386 0.27657 0.94523
 O1520 O 0.21534 0.27500 0.95282
 O1521 O 0.25417 0.30485 0.97311
 O1522 O 0.21551 0.29750 0.97522
 O1523 O 0.27929 0.25121 0.94544
 O1524 O 0.27732 0.21276 0.95345
 O1525 O 0.30752 0.27711 0.99868
 O1526 O 0.30047 0.27459 1.03683
 O1527 O 0.22537 0.19351 1.00197
 O1528 O 0.22760 0.20119 0.96473
 O1529 O 0.19546 0.24809 1.02675
 O1530 O 0.20358 0.28587 1.02324
 O1531 O 0.25053 0.22343 1.05692
 O1532 O 0.28781 0.22531 1.04934
 Zr1533 Zr 0.26350 0.22441 1.02637
 O1534 O 0.28391 0.24285 1.00771
 Zr1535 Zr 0.22613 0.26127 1.02589
 O1536 O 0.24511 0.28156 1.00747
 Zr1537 Zr 0.22653 0.22404 0.98896
 O1538 O 0.24517 0.24272 0.96877
 Zr1539 Zr 0.27732 0.27497 1.01251
 O1540 O 0.25843 0.25656 1.03312
 Zr1541 Zr 0.27733 0.23769 0.97565
 O1542 O 0.25872 0.21715 0.99429
 Zr1543 Zr 0.24012 0.27481 0.97537
 O1544 O 0.21937 0.25610 0.99377
 O1545 O 0.23145 0.22937 1.02092
 O1546 O 0.27232 0.26981 0.98045
 C1547 C 0.23607 0.18463 1.01680
 C1548 C 0.23570 0.23408 1.06579
 C1549 C 0.18653 0.23339 1.01593
 C1550 C 0.26936 0.31370 0.98335
 C1551 C 0.31636 0.26669 0.98370
 C1552 C 0.26901 0.26624 0.93654
 H1553 H 0.29876 0.23934 1.01117
 H1554 H 0.24171 0.23924 0.95396
 H1555 H 0.22241 0.22037 1.02993
 H1556 H 0.24190 0.29643 1.01089
 H1557 H 0.26878 0.29291 1.04801
 H1558 H 0.23344 0.29601 1.04609
 H1559 H 0.26496 0.21471 0.94404
 H1560 H 0.24150 0.19406 0.96596
 H1561 H 0.30958 0.26208 1.03486
 H1562 H 0.28704 0.23939 1.05603
 H1563 H 0.21711 0.26246 0.94372
 H1564 H 0.19700 0.23845 0.96485
 H1565 H 0.28755 0.19487 1.01216
 H1566 H 0.30905 0.21483 0.98832
 H1567 H 0.19579 0.28358 1.00987
 H1568 H 0.21756 0.30680 0.98757
 C1569 C 0.29272 0.37404 0.79070
 C1570 C 0.27288 0.38118 0.79331
 C1571 C 0.26543 0.40180 0.78535
 C1572 C 0.27451 0.41227 0.76937
 H1573 H 0.26164 0.37225 0.80254
 H1574 H 0.25178 0.40851 0.79320
 H1575 H 0.30390 0.38311 0.78150
 H1576 H 0.28745 0.40531 0.76066
 C1577 C 0.28993 -0.12779 0.28887
 C1578 C 0.27212 -0.11784 0.29507
 C1579 C 0.26495 -0.09700 0.28723
 C1580 C 0.27372 -0.08624 0.27124
 H1581 H 0.26220 -0.12432 0.30726
 H1582 H 0.25192 -0.08996 0.29581
 H1583 H 0.29920 -0.12084 0.27637
 H1584 H 0.28647 -0.09292 0.26210
 C1585 C 0.78945 0.87117 0.78816
 C1586 C 0.79643 0.88189 0.77116
 C1587 C 0.78836 0.90268 0.76417
 C1588 C 0.77221 0.91316 0.77301
 H1589 H 0.80931 0.87604 0.76172
 H1590 H 0.79685 0.90990 0.75120
 H1591 H 0.77628 0.87751 0.79695
 H1592 H 0.76321 0.90639 0.78579
 C1593 C 0.46205 0.87787 0.28870
 C1594 C 0.45118 0.86428 0.27653
 C1595 C 0.45958 0.84412 0.26827
 C1596 C 0.47718 0.83455 0.27530
 H1597 H 0.43488 0.86756 0.27244
 H1598 H 0.44982 0.83625 0.25660
 H1599 H 0.47825 0.87443 0.29305
 H1600 H 0.48666 0.84160 0.28763
 C1601 C -0.04166 0.87573 0.79260
 C1602 C -0.02408 0.86533 0.79883
 C1603 C -0.01684 0.84476 0.79034
 C1604 C -0.02504 0.83485 0.77350
 H1605 H -0.01431 0.87124 0.81146
 H1606 H -0.00398 0.83735 0.79893
 H1607 H -0.05103 0.86906 0.77998
 H1608 H -0.03766 0.84192 0.76438
 C1609 C -0.03831 -0.12567 -0.04026
 C1610 C -0.01873 -0.11797 -0.04328
 C1611 C -0.01180 -0.09696 -0.03580
 C1612 C -0.02085 -0.08651 -0.01978
 H1613 H -0.00739 -0.12664 -0.05260
 H1614 H 0.00138 -0.08988 -0.04413
 H1615 H -0.04955 -0.11675 -0.03102
 H1616 H -0.03331 -0.09379 -0.01063
 C1617 C -0.04143 0.37512 0.45749
 C1618 C -0.04789 0.38534 0.47496
 C1619 C -0.03945 0.40587 0.48230
 C1620 C -0.02236 0.41569 0.47444
 H1621 H -0.06063 0.37932 0.48450
 H1622 H -0.04831 0.41335 0.49484
 H1623 H -0.02859 0.38182 0.44845
 H1624 H -0.01292 0.40854 0.46219
 C1625 C 0.46240 -0.13000 0.46170
 C1626 C 0.47987 -0.11950 0.45550
 C1627 C 0.48661 -0.09871 0.46374
 C1628 C 0.47754 -0.08842 0.47985
 H1629 H 0.48977 -0.12542 0.44303
 H1630 H 0.49952 -0.09126 0.45532
 H1631 H 0.45317 -0.12362 0.47451
 H1632 H 0.46490 -0.09548 0.48888
 C1633 C 0.46109 0.37413 -0.04013
 C1634 C 0.47864 0.38438 -0.04653
 C1635 C 0.48568 0.40517 -0.03850
 C1636 C 0.47703 0.41557 -0.02223
 H1637 H 0.48841 0.37819 -0.05898
 H1638 H 0.49847 0.41250 -0.04720
 H1639 H 0.45197 0.38080 -0.02739
 H1640 H 0.46450 0.40863 -0.01296
 C1641 C 0.79036 0.37595 0.45736
 C1642 C 0.79277 0.36894 0.47723
 C1643 C 0.78533 0.34808 0.48461
 C1644 C 0.76987 0.33694 0.47530
 H1645 H 0.80162 0.37811 0.48857
 H1646 H 0.79324 0.34171 0.49839
 H1647 H 0.78149 0.36664 0.44612
 H1648 H 0.76106 0.34353 0.46220
 C1649 C 0.79009 0.87993 -0.03822
 C1650 C 0.77286 0.86922 -0.04481
 C1651 C 0.76592 0.84842 -0.03665
 C1652 C 0.77522 0.83758 -0.02095
 H1653 H 0.76308 0.87516 -0.05743
 H1654 H 0.75263 0.84139 -0.04488
 H1655 H 0.79903 0.87372 -0.02506
 H1656 H 0.78838 0.84414 -0.01226
 C1657 C 0.78851 0.28924 0.37273
 C1658 C 0.79152 0.26948 0.37978
 C1659 C 0.78428 0.26205 0.40067
 C1660 C 0.76826 0.27081 0.41137
 H1661 H 0.80082 0.25843 0.37074
 H1662 H 0.79290 0.24895 0.40751
 H1663 H 0.77926 0.30020 0.38197
 H1664 H 0.75882 0.28317 0.40428
 C1665 C 0.78961 0.79100 -0.12829
 C1666 C 0.79263 0.77143 -0.12074
 C1667 C 0.78582 0.76442 -0.09956
 C1668 C 0.77076 0.77392 -0.08812
 H1669 H 0.80154 0.76005 -0.12979
 H1670 H 0.79388 0.75073 -0.09320
 H1671 H 0.78063 0.80231 -0.11922
 H1672 H 0.76179 0.78694 -0.09461
 C1673 C 0.29415 0.45590 0.87148
 C1674 C 0.29711 0.47550 0.86393
 C1675 C 0.28980 0.48266 0.84290
 C1676 C 0.27391 0.47369 0.83207
 H1677 H 0.30604 0.48691 0.87293
 H1678 H 0.29785 0.49624 0.83633
 H1679 H 0.28525 0.44461 0.86225
 H1680 H 0.26502 0.46079 0.83886
 C1681 C 0.28837 -0.03908 0.37880
 C1682 C 0.29129 -0.01951 0.37115
 C1683 C 0.28476 -0.01274 0.34976
 C1684 C 0.26994 -0.02249 0.33815
 H1685 H 0.29982 -0.00791 0.38030
 H1686 H 0.29269 0.00103 0.34345
 H1687 H 0.27978 -0.05058 0.36955
 H1688 H 0.26108 -0.03558 0.34459
 C1689 C -0.03977 -0.04048 -0.12582
 C1690 C -0.02179 -0.04636 -0.11591
 C1691 C -0.01450 -0.03796 -0.09532
 C1692 C -0.02261 -0.02109 -0.08544
 H1693 H -0.01195 -0.05875 -0.12211
 H1694 H -0.00192 -0.04680 -0.08773
 H1695 H -0.04908 -0.02795 -0.11897
 H1696 H -0.03484 -0.01165 -0.09275
 C1697 C -0.04044 0.45875 0.37324
 C1698 C -0.02284 0.45228 0.38343
 C1699 C -0.01526 0.46087 0.40386
 C1700 C -0.02302 0.47802 0.41356
 H1701 H -0.01348 0.43939 0.37750
 H1702 H -0.00271 0.45200 0.41145
 H1703 H -0.04931 0.47172 0.37983
 H1704 H -0.03528 0.48745 0.40631
 C1705 C 0.45981 -0.04185 0.37476
 C1706 C 0.47935 -0.04521 0.38252
 C1707 C 0.48644 -0.03812 0.40366
 C1708 C 0.47748 -0.02231 0.41451
 H1709 H 0.49065 -0.05441 0.37366
 H1710 H 0.49977 -0.04650 0.41044
 H1711 H 0.44861 -0.03271 0.38384
 H1712 H 0.46481 -0.01314 0.40757
 C1713 C 0.45963 0.45833 -0.12639
 C1714 C 0.47943 0.45553 -0.11912
 C1715 C 0.48691 0.46356 -0.09851
 C1716 C 0.47814 0.47991 -0.08834
 H1717 H 0.49054 0.44596 -0.12783
 H1718 H 0.50019 0.45534 -0.09146
 H1719 H 0.44861 0.46784 -0.11747
 H1720 H 0.46555 0.48893 -0.09563
 C1721 C 0.46104 0.79017 0.37561
 C1722 C 0.48075 0.79318 0.36820
 C1723 C 0.48776 0.78631 0.34706
 C1724 C 0.47846 0.77082 0.33605
 H1725 H 0.49224 0.80189 0.37735
 H1726 H 0.50132 0.79443 0.34047
 H1727 H 0.44965 0.78153 0.36624
 H1728 H 0.46563 0.76181 0.34287
 C1729 C -0.03864 0.79090 0.87668
 C1730 C -0.02157 0.79759 0.86583
 C1731 C -0.01468 0.78921 0.84511
 C1732 C -0.02310 0.77249 0.83515
 H1733 H -0.01201 0.81047 0.87151
 H1734 H -0.00201 0.79789 0.83754
 H1735 H -0.04769 0.77788 0.87037
 H1736 H -0.03557 0.76330 0.84230
 C1737 C 0.37558 0.79252 0.29203
 C1738 C 0.38320 0.79544 0.27250
 C1739 C 0.40421 0.78791 0.26546
 C1740 C 0.41506 0.77216 0.27466
 H1741 H 0.37425 0.80447 0.26109
 H1742 H 0.41081 0.79575 0.25178
 H1743 H 0.38471 0.78353 0.30335
 H1744 H 0.40830 0.76345 0.28768
 C1745 C -0.12597 0.78953 0.79007
 C1746 C -0.11862 0.79215 0.77039
 C1747 C -0.09739 0.78530 0.76347
 C1748 C -0.08594 0.77038 0.77322
 H1749 H -0.12791 0.80059 0.75880
 H1750 H -0.09109 0.79301 0.74958
 H1751 H -0.11661 0.78105 0.80159
 H1752 H -0.09243 0.76170 0.78639
 C1753 C 0.87525 0.29180 0.45695
 C1754 C 0.86797 0.29467 0.47667
 C1755 C 0.84698 0.28741 0.48407
 C1756 C 0.83590 0.27176 0.47511
 H1757 H 0.87706 0.30375 0.48790
 H1758 H 0.84051 0.29553 0.49763
 H1759 H 0.86603 0.28267 0.44583
 H1760 H 0.84258 0.26280 0.46223
 C1761 C 0.87875 0.79093 -0.04201
 C1762 C 0.87133 0.79390 -0.02237
 C1763 C 0.85026 0.78670 -0.01511
 C1764 C 0.83903 0.77129 -0.02434
 H1765 H 0.88042 0.80294 -0.01110
 H1766 H 0.84382 0.79469 -0.00146
 H1767 H 0.86956 0.78186 -0.05320
 H1768 H 0.84562 0.76248 -0.03736
 C1769 C -0.12885 -0.03814 -0.03814
 C1770 C -0.11831 -0.02084 -0.04473
 C1771 C -0.09753 -0.01367 -0.03650
 C1772 C -0.08699 -0.02237 -0.02028
 H1773 H -0.12433 -0.01126 -0.05744
 H1774 H -0.09029 -0.00075 -0.04504
 H1775 H -0.12249 -0.04696 -0.02500
 H1776 H -0.09381 -0.03510 -0.01124
 C1777 C -0.12545 0.45846 0.45769
 C1778 C -0.11516 0.45205 0.47521
 C1779 C -0.09449 0.46042 0.48246
 C1780 C -0.08477 0.47758 0.47470
 H1781 H -0.12120 0.43937 0.48478
 H1782 H -0.08681 0.45147 0.49488
 H1783 H -0.11865 0.47114 0.44855
 H1784 H -0.09215 0.48712 0.46263
 C1785 C 0.36993 -0.03695 0.46381
 C1786 C 0.38074 -0.01994 0.45698
 C1787 C 0.40185 -0.01342 0.46487
 C1788 C 0.41242 -0.02265 0.48078
 H1789 H 0.37482 -0.01033 0.44425
 H1790 H 0.40932 -0.00064 0.45631
 H1791 H 0.37632 -0.04591 0.47683
 H1792 H 0.40542 -0.03523 0.48988
 C1793 C 0.37235 0.46137 -0.04174
 C1794 C 0.38217 0.45582 -0.02369
 C1795 C 0.40264 0.46460 -0.01628
 C1796 C 0.41272 0.48127 -0.02467
 H1797 H 0.37598 0.44341 -0.01384
 H1798 H 0.41006 0.45609 -0.00341
 H1799 H 0.37904 0.47406 -0.05096
 H1800 H 0.40560 0.49041 -0.03721
 C1801 C 0.37573 0.45529 0.79090
 C1802 C 0.36840 0.47501 0.79359
 C1803 C 0.34757 0.48243 0.78581
 C1804 C 0.33682 0.47343 0.76992
 H1805 H 0.37739 0.48629 0.80271
 H1806 H 0.34101 0.49614 0.79361
 H1807 H 0.36654 0.44413 0.78179
 H1808 H 0.34361 0.46039 0.76127
 C1809 C 0.37778 -0.03891 0.29128
 C1810 C 0.37042 -0.04134 0.27151
 C1811 C 0.34923 -0.03427 0.26443
 C1812 C 0.33789 -0.01917 0.27395
 H1813 H 0.37959 -0.04995 0.26001
 H1814 H 0.34279 -0.04212 0.25066
 H1815 H 0.36847 -0.03027 0.30267
 H1816 H 0.34451 -0.01043 0.28704
 C1817 C 0.12421 0.53974 0.70763
 C1818 C 0.13203 0.54271 0.72712
 C1819 C 0.15319 0.53537 0.73399
 C1820 C 0.16396 0.51973 0.72466
 H1821 H 0.12327 0.55186 0.73852
 H1822 H 0.16009 0.54343 0.74741
 H1823 H 0.13311 0.53060 0.69631
 H1824 H 0.15689 0.51082 0.71193
 C1825 C 0.12535 0.04218 0.20798
 C1826 C 0.13296 0.02272 0.20434
 C1827 C 0.15400 0.01541 0.21160
 C1828 C 0.16454 0.02392 0.22789
 H1829 H 0.12402 0.01166 0.19491
 H1830 H 0.16087 0.00226 0.20314
 H1831 H 0.13453 0.05315 0.21733
 H1832 H 0.15743 0.03634 0.23716
 C1833 C 0.62675 0.70896 0.20731
 C1834 C 0.61956 0.70587 0.22701
 C1835 C 0.59866 0.71321 0.23458
 C1836 C 0.58765 0.72906 0.22583
 H1837 H 0.62866 0.69656 0.23808
 H1838 H 0.59216 0.70493 0.24805
 H1839 H 0.61750 0.71827 0.19635
 H1840 H 0.59435 0.73816 0.21304
 C1841 C 0.12621 0.70867 0.70795
 C1842 C 0.11913 0.70583 0.72771
 C1843 C 0.09832 0.71347 0.73523
 C1844 C 0.08759 0.72952 0.72646
 H1845 H 0.12818 0.69650 0.73880
 H1846 H 0.09163 0.70521 0.74861
 H1847 H 0.11695 0.71794 0.69697
 H1848 H 0.09451 0.73861 0.71377
 C1849 C 0.62583 0.20672 0.54389
 C1850 C 0.63272 0.22657 0.54672
 C1851 C 0.65339 0.23434 0.53900
 C1852 C 0.66394 0.22565 0.52288
 H1853 H 0.62350 0.23763 0.55584
 H1854 H 0.65997 0.24794 0.54700
 H1855 H 0.63529 0.19575 0.53486
 H1856 H 0.65707 0.21275 0.51406
 C1857 C 0.62337 0.71245 0.03849
 C1858 C 0.63723 0.72455 0.04915
 C1859 C 0.65746 0.73267 0.04061
 C1860 C 0.66665 0.72588 0.02282
 H1861 H 0.63416 0.72865 0.06539
 H1862 H 0.66571 0.74403 0.05040
 H1863 H 0.62661 0.70798 0.02237
 H1864 H 0.65921 0.71389 0.01324
 C1865 C 0.12718 0.04185 0.04276
 C1866 C 0.11643 0.02489 0.04983
 C1867 C 0.09575 0.01757 0.04143
 C1868 C 0.08570 0.02554 0.02451
 H1869 H 0.12222 0.01576 0.06297
 H1870 H 0.08828 0.00496 0.05025
 H1871 H 0.12078 0.05046 0.02950
 H1872 H 0.09273 0.03795 0.01519
 C1873 C 0.12802 0.54158 0.53881
 C1874 C 0.12002 0.54544 0.51953
 C1875 C 0.09882 0.53831 0.51251
 C1876 C 0.08812 0.52231 0.52133
 H1877 H 0.12870 0.55510 0.50848
 H1878 H 0.09184 0.54686 0.49943
 H1879 H 0.11919 0.53196 0.54980
 H1880 H 0.09524 0.51296 0.53373
 C1881 C 0.62580 0.04072 0.54232
 C1882 C 0.61812 0.04362 0.52275
 C1883 C 0.59705 0.03622 0.51570
 C1884 C 0.58620 0.02059 0.52497
 H1885 H 0.62699 0.05267 0.51134
 H1886 H 0.59037 0.04412 0.50207
 H1887 H 0.61680 0.03164 0.55363
 H1888 H 0.59307 0.01181 0.53792
 C1889 C 0.62538 0.54377 0.04097
 C1890 C 0.61788 0.54723 0.02142
 C1891 C 0.59687 0.53999 0.01395
 C1892 C 0.58588 0.52421 0.02279
 H1893 H 0.62690 0.55656 0.01036
 H1894 H 0.59036 0.54815 0.00038
 H1895 H 0.61624 0.53444 0.05196
 H1896 H 0.59256 0.51523 0.03570
 C1897 C 0.04017 0.04137 0.12802
 C1898 C 0.02274 0.04802 0.11768
 C1899 C 0.01558 0.03985 0.09697
 C1900 C 0.02399 0.02325 0.08687
 H1901 H 0.01318 0.06071 0.12373
 H1902 H 0.00282 0.04855 0.08953
 H1903 H 0.04922 0.02858 0.12133
 H1904 H 0.03647 0.01398 0.09391
 C1905 C 0.04054 0.54054 0.62598
 C1906 C 0.02097 0.54393 0.61831
 C1907 C 0.01381 0.53673 0.59725
 C1908 C 0.02273 0.52084 0.58649
 H1909 H 0.00981 0.55336 0.62710
 H1910 H 0.00057 0.54518 0.59039
 H1911 H 0.05161 0.53117 0.61698
 H1912 H 0.03529 0.51157 0.59351
 C1913 C 0.53835 0.03668 0.62996
 C1914 C 0.52132 0.04351 0.61907
 C1915 C 0.51463 0.03552 0.59814
 C1916 C 0.52396 0.01981 0.58745
 H1917 H 0.51161 0.05617 0.62492
 H1918 H 0.50139 0.04374 0.59098
 H1919 H 0.54744 0.02376 0.62357
 H1920 H 0.53705 0.01109 0.59412
 C1921 C 0.54184 0.54278 0.12387
 C1922 C 0.54479 0.52324 0.11629
 C1923 C 0.53756 0.51636 0.09519
 C1924 C 0.52206 0.52584 0.08421
 H1925 H 0.55363 0.51176 0.12533
 H1926 H 0.54542 0.50269 0.08861
 H1927 H 0.53307 0.55419 0.11467
 H1928 H 0.51329 0.53883 0.09096
 C1929 C 0.21195 0.53850 0.62013
 C1930 C 0.23171 0.54130 0.62752
 C1931 C 0.23888 0.53391 0.64848
 C1932 C 0.22961 0.51827 0.65929
 H1933 H 0.24301 0.55051 0.61865
 H1934 H 0.25234 0.54207 0.65526
 H1935 H 0.20073 0.52929 0.62912
 H1936 H 0.21686 0.50924 0.65231
 C1937 C 0.20990 0.04279 0.12470
 C1938 C 0.22698 0.04996 0.13532
 C1939 C 0.23424 0.04186 0.15606
 C1940 C 0.22697 0.02437 0.16552
 H1941 H 0.23612 0.06307 0.12950
 H1942 H 0.24618 0.05126 0.16398
 H1943 H 0.20110 0.02977 0.13132
 H1944 H 0.21535 0.01444 0.15791
 C1945 C 0.70882 0.20884 0.62475
 C1946 C 0.72851 0.20604 0.61720
 C1947 C 0.73562 0.21340 0.59620
 C1948 C 0.72627 0.22890 0.58518
 H1949 H 0.73999 0.19709 0.62613
 H1950 H 0.74938 0.20557 0.58970
 H1951 H 0.69745 0.21784 0.61569
 H1952 H 0.71316 0.23759 0.59186
 C1953 C 0.70945 0.70709 0.12342
 C1954 C 0.70645 0.72669 0.11594
 C1955 C 0.71408 0.73409 0.09513
 C1956 C 0.72981 0.72503 0.08418
 H1957 H 0.69721 0.73791 0.12484
 H1958 H 0.70624 0.74789 0.08873
 H1959 H 0.71870 0.69597 0.11438
 H1960 H 0.73849 0.71184 0.09071
 C1961 C 0.54075 0.71118 0.12315
 C1962 C 0.54347 0.73094 0.13033
 C1963 C 0.53641 0.73807 0.15138
 C1964 C 0.52081 0.72885 0.16234
 H1965 H 0.55227 0.74232 0.12117
 H1966 H 0.54466 0.75150 0.15804
 H1967 H 0.53203 0.69991 0.13255
 H1968 H 0.51171 0.71614 0.15545
 C1969 C 0.04080 0.70997 0.62334
 C1970 C 0.02101 0.70698 0.63048
 C1971 C 0.01366 0.71426 0.65139
 C1972 C 0.02255 0.73019 0.66216
 H1973 H 0.00982 0.69781 0.62141
 H1974 H 0.00034 0.70587 0.65811
 H1975 H 0.05189 0.71905 0.63267
 H1976 H 0.03513 0.73943 0.65520
 C1977 C 0.54026 0.62374 0.20858
 C1978 C 0.52074 0.63137 0.20492
 C1979 C 0.51351 0.65236 0.21210
 C1980 C 0.52241 0.66303 0.22807
 H1981 H 0.50966 0.62258 0.19534
 H1982 H 0.50032 0.65925 0.20360
 H1983 H 0.55128 0.63267 0.21812
 H1984 H 0.53493 0.65597 0.23736
 C1985 C 0.04102 0.62404 0.70869
 C1986 C 0.04465 0.63161 0.72816
 C1987 C 0.03766 0.65268 0.73535
 C1988 C 0.02160 0.66346 0.72664
 H1989 H 0.05409 0.62270 0.73927
 H1990 H 0.04631 0.65946 0.74847
 H1991 H 0.03163 0.63314 0.69768
 H1992 H 0.01214 0.65647 0.71424
 C1993 C 0.04076 0.12807 0.04114
 C1994 C 0.04758 0.11723 0.02416
 C1995 C 0.03915 0.09656 0.01706
 C1996 C 0.02264 0.08628 0.02557
 H1997 H 0.06057 0.12294 0.01476
 H1998 H 0.04767 0.08927 0.00417
 H1999 H 0.02754 0.12181 0.04995
 H2000 H 0.01365 0.09311 0.03832
 C2001 C 0.04110 0.62683 0.54041
 C2002 C 0.04459 0.61945 0.52086
 C2003 C 0.03742 0.59851 0.51346
 C2004 C 0.02151 0.58759 0.52221
 H2005 H 0.05407 0.62842 0.50988
 H2006 H 0.04591 0.59188 0.50019
 H2007 H 0.03164 0.61773 0.55132
 H2008 H 0.01221 0.59439 0.53479
 C2009 C 0.54358 0.12245 0.54451
 C2010 C 0.54709 0.11488 0.52504
 C2011 C 0.53958 0.09404 0.51762
 C2012 C 0.52344 0.08338 0.52629
 H2013 H 0.55661 0.12373 0.51399
 H2014 H 0.54779 0.08742 0.50418
 H2015 H 0.53409 0.11344 0.55547
 H2016 H 0.51441 0.09019 0.53906
 C2017 C 0.54295 0.62726 0.04091
 C2018 C 0.52342 0.61952 0.04433
 C2019 C 0.51603 0.59862 0.03690
 C2020 C 0.52495 0.58771 0.02113
 H2021 H 0.51224 0.62830 0.05373
 H2022 H 0.50233 0.59215 0.04488
 H2023 H 0.55404 0.61840 0.03145
 H2024 H 0.53803 0.59431 0.01234
 C2025 C 0.70987 0.12323 0.54059
 C2026 C 0.70294 0.13374 0.52342
 C2027 C 0.71109 0.15440 0.51612
 C2028 C 0.72737 0.16499 0.52469
 H2029 H 0.69008 0.12775 0.51397
 H2030 H 0.70255 0.16139 0.50303
 H2031 H 0.72305 0.12968 0.54935
 H2032 H 0.73643 0.15844 0.53759
 C2033 C 0.70951 0.62601 0.04076
 C2034 C 0.72941 0.63296 0.04352
 C2035 C 0.73700 0.65372 0.03602
 C2036 C 0.72793 0.66464 0.02028
 H2037 H 0.74064 0.62372 0.05250
 H2038 H 0.75078 0.66012 0.04396
 H2039 H 0.69836 0.63543 0.03184
 H2040 H 0.71483 0.65802 0.01149
 C2041 C 0.20971 0.62428 0.70627
 C2042 C 0.20686 0.61666 0.72586
 C2043 C 0.21431 0.59565 0.73295
 C2044 C 0.23003 0.58478 0.72380
 H2045 H 0.19771 0.62547 0.73721
 H2046 H 0.20625 0.58897 0.74646
 H2047 H 0.21887 0.61529 0.69503
 H2048 H 0.23893 0.59162 0.71094
 C2049 C 0.21020 0.12741 0.20963
 C2050 C 0.22734 0.11676 0.20284
 C2051 C 0.23452 0.09614 0.21129
 C2052 C 0.22618 0.08608 0.22800
 H2053 H 0.23669 0.12254 0.18987
 H2054 H 0.24729 0.08871 0.20267
 H2055 H 0.20134 0.12099 0.22270
 H2056 H 0.21358 0.09306 0.23712
 C2057 C 0.71113 1.12673 0.70908
 C2058 C 0.72857 1.11637 0.70251
 C2059 C 0.73578 1.09565 0.71070
 C2060 C 0.72766 1.08560 0.72748
 H2061 H 0.73809 1.12239 0.68977
 H2062 H 0.74825 1.08808 0.70176
 H2063 H 0.70218 1.12014 0.72201
 H2064 H 0.71544 1.09280 0.73695
 C2065 C 0.70909 0.62490 0.20752
 C2066 C 0.72871 0.61734 0.20439
 C2067 C 0.73592 0.59642 0.21188
 C2068 C 0.72692 0.58570 0.22778
 H2069 H 0.73991 0.62615 0.19499
 H2070 H 0.74931 0.58963 0.20366
 H2071 H 0.69796 0.61594 0.21687
 H2072 H 0.71419 0.59265 0.23680
 C2073 C 0.53823 0.11971 0.71304
 C2074 C 0.51844 0.12700 0.71056
 C2075 C 0.51161 0.14814 0.71760
 C2076 C 0.52139 0.15925 0.73275
 H2077 H 0.50684 0.11788 0.70193
 H2078 H 0.49797 0.15478 0.70961
 H2079 H 0.54975 0.12901 0.72160
 H2080 H 0.53430 0.15241 0.74167
 C2081 C 1.04069 0.12403 0.21020
 C2082 C 1.04430 0.13162 0.22965
 C2083 C 1.03687 0.15254 0.23684
 C2084 C 1.02065 0.16309 0.22809
 H2085 H 1.05405 0.12289 0.24063
 H2086 H 1.04546 0.15951 0.24990
 H2087 H 1.03104 0.13297 0.19929
 H2088 H 1.01125 0.15597 0.21571
 C2089 C 0.21078 0.62525 0.53988
 C2090 C 0.23044 0.63272 0.54307
 C2091 C 0.23750 0.65386 0.53616
 C2092 C 0.22831 0.66478 0.52051
 H2093 H 0.24187 0.62360 0.55192
 H2094 H 0.25099 0.66050 0.54438
 H2095 H 0.19944 0.63458 0.53111
 H2096 H 0.21554 0.65791 0.51142
 C2097 C 0.20983 0.12445 1.04137
 C2098 C 0.20673 0.13158 1.02166
 C2099 C 0.21435 0.15235 1.01419
 C2100 C 0.23057 0.16290 1.02295
 H2101 H 0.19728 0.12259 1.01064
 H2102 H 0.20596 0.15918 1.00092
 H2103 H 0.21915 0.13369 1.05232
 H2104 H 0.23978 0.15585 1.03552
 C2105 C 0.20828 0.70702 0.62376
 C2106 C 0.20490 0.72660 0.61632
 C2107 C 0.21224 0.73416 0.59547
 C2108 C 0.22816 0.72547 0.58453
 H2109 H 0.19557 0.73768 0.62529
 H2110 H 0.20409 0.74778 0.58907
 H2111 H 0.21764 0.69605 0.61465
 H2112 H 0.23714 0.71250 0.59111
 C2113 C 0.21000 0.20974 1.12657
 C2114 C 0.20624 0.22912 1.11883
 C2115 C 0.21372 0.23645 1.09793
 C2116 C 0.23016 0.22801 1.08755
 H2117 H 0.19634 0.24001 1.12743
 H2118 H 0.20504 0.24940 1.09087
 H2119 H 0.21981 0.19893 1.11773
 H2120 H 0.23958 0.21571 1.09479
 C2121 C 0.70875 0.54096 0.12308
 C2122 C 0.72852 0.54360 0.13049
 C2123 C 0.73572 0.53600 0.15138
 C2124 C 0.72651 0.52025 0.16211
 H2125 H 0.73989 0.55273 0.12164
 H2126 H 0.74930 0.54400 0.15812
 H2127 H 0.69747 0.53183 0.13209
 H2128 H 0.71363 0.51138 0.15516
 C2129 C 0.70980 1.04121 0.62369
 C2130 C 0.72950 1.04431 0.63109
 C2131 C 0.73683 1.03670 0.65195
 C2132 C 0.72811 1.02042 0.66232
 H2133 H 0.74066 1.05374 0.62227
 H2134 H 0.75000 1.04512 0.65898
 H2135 H 0.69874 1.03191 0.63280
 H2136 H 0.71564 1.01121 0.65506
 C2137 C 0.54072 0.20576 0.62605
 C2138 C 0.54312 0.22561 0.63307
 C2139 C 0.53576 0.23294 0.65394
 C2140 C 0.52042 0.22353 0.66511
 H2141 H 0.55193 0.23696 0.62388
 H2142 H 0.54365 0.24671 0.66031
 H2143 H 0.53188 0.19448 0.63533
 H2144 H 0.51167 0.21042 0.65854
 C2145 C 1.04046 0.20963 0.12344
 C2146 C 1.04364 0.22926 0.13081
 C2147 C 1.03644 0.23662 0.15176
 C2148 C 1.02061 0.22775 0.16267
 H2149 H 1.05293 0.24040 0.12184
 H2150 H 1.04481 0.25000 0.15837
 H2151 H 1.03114 0.19858 0.13252
 H2152 H 1.01145 0.21504 0.15586
 C2153 C 0.62663 0.20633 0.70919
 C2154 C 0.61859 0.22569 0.70595
 C2155 C 0.59759 0.23269 0.71366
 C2156 C 0.58710 0.22378 0.72977
 H2157 H 0.62706 0.23693 0.69631
 H2158 H 0.59058 0.24597 0.70546
 H2159 H 0.61802 0.19520 0.71885
 H2160 H 0.59426 0.21115 0.73877
 C2161 C 1.12610 0.20834 0.20917
 C2162 C 1.11862 0.20481 0.22869
 C2163 C 1.09757 0.21202 0.23601
 C2164 C 1.08692 0.22817 0.22739
 H2165 H 1.12758 0.19540 0.23976
 H2166 H 1.09071 0.20347 0.24912
 H2167 H 1.11690 0.21767 0.19819
 H2168 H 1.09400 0.23748 0.21496
 C2169 C 0.12566 0.70855 0.54203
 C2170 C 0.13321 0.72808 0.54527
 C2171 C 0.15423 0.73529 0.53795
 C2172 C 0.16501 0.72636 0.52208
 H2173 H 0.12423 0.73931 0.55442
 H2174 H 0.16088 0.74880 0.54604
 H2175 H 0.13483 0.69741 0.53293
 H2176 H 0.15815 0.71356 0.51311
 C2177 C 0.12498 0.20953 1.04059
 C2178 C 0.13258 0.22905 1.04391
 C2179 C 0.15372 0.23621 1.03685
 C2180 C 0.16463 0.22727 1.02109
 H2181 H 0.12364 0.24024 1.05315
 H2182 H 0.16048 0.24948 1.04524
 H2183 H 0.13408 0.19843 1.03137
 H2184 H 0.15768 0.21468 1.01188
 C2185 C 0.62298 0.54001 0.20909
 C2186 C 0.63020 0.54284 0.22883
 C2187 C 0.65119 0.53541 0.23615
 C2188 C 0.66191 0.51951 0.22719
 H2189 H 0.62116 0.55200 0.24001
 H2190 H 0.65803 0.54368 0.24946
 H2191 H 0.63230 0.53097 0.19802
 H2192 H 0.65484 0.51040 0.21459
 C2193 C 0.62203 1.03761 0.71031
 C2194 C 0.62980 1.04073 0.72981
 C2195 C 0.65122 1.03409 0.73655
 C2196 C 0.66246 1.01893 0.72703
 H2197 H 0.62075 1.04947 0.74131
 H2198 H 0.65787 1.04225 0.75003
 H2199 H 0.63118 1.02886 0.69889
 H2200 H 0.65563 1.00987 0.71427
 C2201 C 0.87380 0.45729 0.29360
 C2202 C 0.86651 0.47695 0.29662
 C2203 C 0.84568 0.48437 0.28885
 C2204 C 0.83536 0.47580 0.27244
 H2205 H 0.87551 0.48808 0.30592
 H2206 H 0.83878 0.49767 0.29706
 H2207 H 0.86450 0.44626 0.28444
 H2208 H 0.84252 0.46321 0.26343
 C2209 C 0.87422 0.95593 0.79477
 C2210 C 0.86650 0.97541 0.79814
 C2211 C 0.84562 0.98284 0.79042
 C2212 C 0.83519 0.97438 0.77402
 H2213 H 0.87526 0.98652 0.80766
 H2214 H 0.83881 0.99619 0.79861
 H2215 H 0.86522 0.94493 0.78528
 H2216 H 0.84222 0.96168 0.76506
 C2217 C 0.37553 0.29057 0.79326
 C2218 C 0.38264 0.29294 0.77345
 C2219 C 0.40344 0.28516 0.76615
 C2220 C 0.41430 0.26956 0.77552
 H2221 H 0.37350 0.30180 0.76206
 H2222 H 0.40993 0.29277 0.75229
 H2223 H 0.38482 0.28173 0.80458
 H2224 H 0.40758 0.26106 0.78870
 C2225 C 0.87458 0.29177 0.29169
 C2226 C 0.88195 0.27209 0.29447
 C2227 C 0.90304 0.26495 0.28731
 C2228 C 0.91407 0.27428 0.27186
 H2229 H 0.87278 0.26063 0.30316
 H2230 H 0.90952 0.25120 0.29515
 H2231 H 0.88392 0.30314 0.28302
 H2232 H 0.90735 0.28732 0.26311
 C2233 C 0.37763 0.79106 0.45852
 C2234 C 0.36962 0.77176 0.45497
 C2235 C 0.34840 0.76490 0.46210
 C2236 C 0.33758 0.77400 0.47784
 H2237 H 0.37834 0.76052 0.44558
 H2238 H 0.34154 0.75160 0.45382
 H2239 H 0.36880 0.80224 0.46790
 H2240 H 0.34457 0.78662 0.48696
 C2241 C 0.37674 0.29325 0.95853
 C2242 C 0.36933 0.29647 0.97813
 C2243 C 0.34846 0.28890 0.98558
 C2244 C 0.33784 0.27274 0.97692
 H2245 H 0.37829 0.30583 0.98924
 H2246 H 0.34176 0.29708 0.99898
 H2247 H 0.36756 0.28395 0.94753
 H2248 H 0.34477 0.26374 0.96421
 C2249 C 0.79353 0.45677 0.37329
 C2250 C 0.79682 0.47628 0.36569
 C2251 C 0.78915 0.48359 0.34485
 C2252 C 0.77294 0.47480 0.33432
 H2253 H 0.80625 0.48744 0.37452
 H2254 H 0.79728 0.49703 0.33810
 H2255 H 0.78415 0.44569 0.36427
 H2256 H 0.76399 0.46202 0.34125
 C2257 C 0.79048 0.95910 0.87588
 C2258 C 0.79368 0.97847 0.86790
 C2259 C 0.78667 0.98515 0.84664
 C2260 C 0.77133 0.97560 0.83552
 H2261 H 0.80262 0.99001 0.87674
 H2262 H 0.79461 0.99879 0.84005
 H2263 H 0.78150 0.94765 0.86693
 H2264 H 0.76250 0.96263 0.84224
 C2265 C 0.29033 0.79132 0.37286
 C2266 C 0.29380 0.77191 0.38058
 C2267 C 0.28656 0.76486 0.40160
 C2268 C 0.27086 0.77402 0.41250
 H2269 H 0.30331 0.76079 0.37182
 H2270 H 0.29486 0.75150 0.40834
 H2271 H 0.28083 0.80239 0.38170
 H2272 H 0.26169 0.78670 0.40564
 C2273 C 0.29349 0.29232 0.87614
 C2274 C 0.27376 0.29529 0.88344
 C2275 C 0.26650 0.28790 0.90433
 C2276 C 0.27557 0.27207 0.91506
 H2277 H 0.26243 0.30431 0.87437
 H2278 H 0.25293 0.29596 0.91094
 H2279 H 0.30474 0.28335 0.88538
 H2280 H 0.28844 0.26315 0.90822
 C2281 C 0.45935 0.29184 0.87592
 C2282 C 0.47897 0.29479 0.86828
 C2283 C 0.48609 0.28708 0.84744
 C2284 C 0.47704 0.27101 0.83706
 H2285 H 0.49037 0.30406 0.87699
 H2286 H 0.49960 0.29505 0.84057
 H2287 H 0.44806 0.28260 0.86699
 H2288 H 0.46423 0.26221 0.84416
 C2289 C 0.95742 0.29405 0.37367
 C2290 C 0.97699 0.29756 0.36612
 C2291 C 0.98454 0.28994 0.34536
 C2292 C 0.97598 0.27366 0.33488
 H2293 H 0.98805 0.30717 0.37491
 H2294 H 0.99795 0.29819 0.33864
 H2295 H 0.94646 0.28448 0.36470
 H2296 H 0.96323 0.26464 0.34181
 C2297 C 0.45780 0.37195 0.79275
 C2298 C 0.47747 0.36446 0.79589
 C2299 C 0.48476 0.34348 0.78870
 C2300 C 0.47565 0.33244 0.77308
 H2301 H 0.48882 0.37347 0.80493
 H2302 H 0.49849 0.33705 0.79670
 H2303 H 0.44655 0.36279 0.78371
 H2304 H 0.46256 0.33904 0.76423
 C2305 C 0.95759 0.37474 0.29201
 C2306 C 0.95361 0.36719 0.27259
 C2307 C 0.96108 0.34642 0.26496
 C2308 C 0.97748 0.33585 0.27330
 H2309 H 0.94368 0.37595 0.26181
 H2310 H 0.95252 0.33970 0.25175
 H2311 H 0.96750 0.36583 0.30271
 H2312 H 0.98681 0.34275 0.28585
 C2313 C 0.28933 0.87869 0.46167
 C2314 C 0.29275 0.87095 0.48113
 C2315 C 0.28604 0.84963 0.48795
 C2316 C 0.27035 0.83867 0.47883
 H2317 H 0.30182 0.87988 0.49250
 H2318 H 0.29461 0.84281 0.50111
 H2319 H 0.28035 0.86952 0.45040
 H2320 H 0.26096 0.84568 0.46637
 C2321 C 0.29379 0.37453 0.95670
 C2322 C 0.27468 0.36612 0.95262
 C2323 C 0.26748 0.34532 0.96058
 C2324 C 0.27616 0.33506 0.97700
 H2325 H 0.26375 0.37423 0.94228
 H2326 H 0.25419 0.33831 0.95235
 H2327 H 0.30462 0.36633 0.96708
 H2328 H 0.28887 0.34214 0.98599
 C2329 C 0.79155 0.37399 0.29134
 C2330 C 0.77180 0.38138 0.29407
 C2331 C 0.76460 0.40234 0.28669
 C2332 C 0.77390 0.41334 0.27118
 H2333 H 0.76035 0.37232 0.30290
 H2334 H 0.75078 0.40877 0.29446
 H2335 H 0.80289 0.38323 0.28252
 H2336 H 0.78704 0.40670 0.26251
   
