data_POSCAR
  _audit_creation_date              2014-09-24
  _audit_creation_method            'ToBaCCo'
  _symmetry_space_group_name_H-M    'P1'
  _symmetry_Int_Tables_number       1
  _symmetry_cell_setting            triclinic
  loop_
  _symmetry_equiv_pos_as_xyz
 x,y,z
_cell_length_a 36.1626
_cell_length_b 36.1836
_cell_length_c 36.2281
_cell_angle_alpha 90.009400
_cell_angle_beta 90.064100
_cell_angle_gamma 89.922100
loop_
  _atom_site_label
  _atom_site_type_symbol
  _atom_site_fract_x
  _atom_site_fract_y
  _atom_site_fract_z
C1 C 0.24039 1.07270 0.03205
 C2 C 0.23736 1.09202 -0.00149
 C3 C 0.23840 1.07471 -0.03633
 C4 C 0.23389 1.03558 -0.03717
 C5 C 0.23435 1.01521 -0.00363
 C6 C 0.23479 1.03394 0.03089
 C7 C 0.22599 1.01360 0.06263
 C8 C 0.22503 0.97536 0.06187
 C9 C 0.23217 0.95580 0.02916
 C10 C 0.23338 0.97583 -0.00449
 C11 C 0.22551 1.01626 -0.06981
 C12 C 0.22487 0.97781 -0.07063
 C13 C 0.23265 0.95685 -0.03887
 C14 C 0.23641 0.91757 -0.03970
 C15 C 0.23434 0.89880 -0.00550
 C16 C 0.23543 0.91683 0.02893
 H17 H 0.21858 1.02693 0.08825
 H18 H 0.21779 0.96153 0.08724
 H19 H 0.21810 1.03053 -0.09494
 H20 H 0.21678 0.96491 -0.09626
 H21 H 0.23472 1.12179 -0.00021
 H22 H 0.23110 0.86916 -0.00582
 C23 C 0.73744 0.41940 0.46460
 C24 C 0.73814 0.40119 0.49881
 C25 C 0.74319 0.41974 0.53277
 C26 C 0.74225 0.45904 0.53226
 C27 C 0.73826 0.47808 0.49813
 C28 C 0.73317 0.45816 0.46482
 C29 C 0.72125 0.47751 0.43340
 C30 C 0.72177 0.51583 0.43259
 C31 C 0.73505 0.53600 0.46282
 C32 C 0.73901 0.51735 0.49714
 C33 C 0.74386 0.48006 0.56482
 C34 C 0.74591 0.51830 0.56380
 C35 C 0.74336 0.53776 0.53034
 C36 C 0.74441 0.57694 0.52901
 C37 C 0.74677 0.59361 0.49405
 C38 C 0.74292 0.57424 0.46073
 H39 H 0.71067 0.46326 0.40939
 H40 H 0.71060 0.52925 0.40844
 H41 H 0.74312 0.46765 0.59181
 H42 H 0.74980 0.53204 0.58991
 H43 H 0.73395 0.37172 0.49840
 H44 H 0.75217 0.62268 0.49205
 C45 C 0.75897 0.97031 1.07816
 C46 C 0.76590 1.00522 1.09328
 C47 C 0.75895 1.03802 1.07390
 C48 C 0.75916 1.03590 1.03490
 C49 C 0.75765 1.00077 1.01735
 C50 C 0.75660 0.96788 1.03904
 C51 C 0.75443 0.93373 1.02085
 C52 C 0.75243 0.93169 0.98266
 C53 C 0.75556 0.96340 0.96055
 C54 C 0.75708 0.99858 0.97804
 C55 C 0.76300 1.06753 1.01305
 C56 C 0.76053 1.06568 0.97507
 C57 C 0.75761 1.03163 0.95651
 C58 C 0.75422 1.02971 0.91730
 C59 C 0.74943 0.99423 0.90185
 C60 C 0.75541 0.96125 0.92151
 H61 H 0.75467 0.90787 1.03563
 H62 H 0.74741 0.90476 0.97100
 H63 H 0.76862 1.09433 1.02485
 H64 H 0.76075 1.09186 0.96098
 H65 H 0.77526 1.00749 1.12148
 H66 H 0.74030 0.99128 0.87377
 C67 C 0.25335 0.53464 0.41817
 C68 C 0.25130 0.50141 0.39816
 C69 C 0.25775 0.46634 0.41387
 C70 C 0.25941 0.46426 0.45315
 C71 C 0.25658 0.49713 0.47475
 C72 C 0.25319 0.53219 0.45722
 C73 C 0.24840 0.56369 0.47931
 C74 C 0.25051 0.56182 0.51736
 C75 C 0.25414 0.52788 0.53566
 C76 C 0.25672 0.49495 0.51413
 C77 C 0.26293 0.43029 0.47168
 C78 C 0.26461 0.42843 0.50993
 C79 C 0.25959 0.45993 0.53186
 C80 C 0.25950 0.45806 0.57099
 C81 C 0.26369 0.49129 0.59043
 C82 C 0.25629 0.52597 0.57478
 H83 H 0.24242 0.59050 0.46781
 H84 H 0.24954 0.58779 0.53187
 H85 H 0.26431 0.40433 0.45723
 H86 H 0.27120 0.40190 0.52179
 H87 H 0.24286 0.50317 0.36980
 H88 H 0.27192 0.48931 0.61894
 C89 C 1.07837 0.24762 0.03209
 C90 C 1.09435 0.25496 -0.00245
 C91 C 1.07621 0.24832 -0.03601
 C92 C 1.03702 0.24710 -0.03498
 C93 C 1.01837 0.24532 -0.00036
 C94 C 1.03901 0.24526 0.03327
 C95 C 1.01945 0.24480 0.06678
 C96 C 0.98121 0.24193 0.06762
 C97 C 0.96013 0.24276 0.03511
 C98 C 0.97889 0.24426 0.00058
 C99 C 1.01587 0.24990 -0.06728
 C100 C 0.97785 0.24699 -0.06652
 C101 C 0.95836 0.24485 -0.03306
 C102 C 0.91908 0.24241 -0.03231
 C103 C 0.90265 0.23525 0.00215
 C104 C 0.92092 0.24092 0.03593
 H105 H 1.03308 0.24741 0.09311
 H106 H 0.96868 0.23855 0.09440
 H107 H 1.02809 0.25532 -0.09386
 H108 H 0.96437 0.24628 -0.09303
 H109 H 1.12226 0.26555 -0.00353
 H110 H 0.87482 0.22476 0.00305
 C111 C 0.41644 0.74943 0.46683
 C112 C 0.39708 0.74836 0.50062
 C113 C 0.41461 0.74698 0.53536
 C114 C 0.45342 0.75272 0.53635
 C115 C 0.47398 0.75388 0.50295
 C116 C 0.45543 0.75413 0.46833
 C117 C 0.47632 0.76172 0.43652
 C118 C 0.51461 0.76338 0.43771
 C119 C 0.53394 0.75810 0.47087
 C120 C 0.51333 0.75615 0.50423
 C121 C 0.47208 0.76036 0.56951
 C122 C 0.51032 0.76339 0.57060
 C123 C 0.53177 0.75764 0.53890
 C124 C 0.57097 0.75686 0.54017
 C125 C 0.59017 0.76057 0.50672
 C126 C 0.57316 0.75765 0.47199
 H127 H 0.46359 0.76768 0.41027
 H128 H 0.52861 0.77028 0.41235
 H129 H 0.45741 0.76566 0.59489
 H130 H 0.52249 0.77201 0.59638
 H131 H 0.36744 0.75075 0.50010
 H132 H 0.61950 0.76594 0.50816
 C133 C 0.02694 0.75903 0.08225
 C134 C -0.00746 0.75763 0.10049
 C135 C -0.04167 0.75642 0.08140
 C136 C -0.04008 0.75030 0.04256
 C137 C -0.00638 0.75674 0.02359
 C138 C 0.02647 0.76418 0.04356
 C139 C 0.05758 0.77675 0.02411
 C140 C 0.05869 0.77502 -0.01418
 C141 C 0.02881 0.76053 -0.03415
 C142 C -0.00521 0.75499 -0.01553
 C143 C -0.07004 0.73623 0.02217
 C144 C -0.06899 0.73481 -0.01626
 C145 C -0.03782 0.74717 -0.03585
 C146 C -0.03714 0.75034 -0.07505
 C147 C -0.00212 0.74981 -0.09212
 C148 C 0.03119 0.75228 -0.07222
 H149 H 0.08136 0.78801 0.03827
 H150 H 0.08301 0.78554 -0.02790
 H151 H -0.09426 0.72519 0.03566
 H152 H -0.09251 0.72293 -0.03033
 H153 H -0.00764 0.75772 0.13033
 H154 H -0.00063 0.74731 -0.12185
 C155 C 0.53713 0.25792 0.57731
 C156 C 0.50405 0.25582 0.59751
 C157 C 0.46878 0.25173 0.58095
 C158 C 0.46706 0.25301 0.54156
 C159 C 0.49991 0.25916 0.52091
 C160 C 0.53431 0.26431 0.53909
 C161 C 0.56428 0.27788 0.51865
 C162 C 0.56327 0.27785 0.48046
 C163 C 0.53195 0.26499 0.46171
 C164 C 0.49866 0.26035 0.48172
 C165 C 0.43364 0.24902 0.52193
 C166 C 0.43274 0.24906 0.48348
 C167 C 0.46460 0.25630 0.46262
 C168 C 0.46421 0.25909 0.42335
 C169 C 0.49844 0.25665 0.40499
 C170 C 0.53247 0.25746 0.42356
 H171 H 0.58874 0.28875 0.53189
 H172 H 0.58718 0.28815 0.46584
 H173 H 0.40745 0.24572 0.53558
 H174 H 0.40677 0.24211 0.47066
 H175 H 0.50680 0.25845 0.62690
 H176 H 0.49866 0.25416 0.37528
 C177 C 0.92680 -0.03154 0.25370
 C178 C 0.90734 0.00215 0.25070
 C179 C 0.92506 0.03654 0.24694
 C180 C 0.96376 0.03632 0.24066
 C181 C 0.98423 0.00391 0.24883
 C182 C 0.96571 -0.02926 0.25847
 C183 C 0.98673 -0.05810 0.27378
 C184 C 1.02508 -0.05764 0.27187
 C185 C 1.04375 -0.02795 0.25524
 C186 C 1.02342 0.00459 0.24735
 C187 C 0.98260 0.06663 0.22545
 C188 C 1.02110 0.06730 0.22409
 C189 C 1.04209 0.03766 0.23786
 C190 C 1.08114 0.03912 0.24119
 C191 C 1.10031 0.00515 0.24286
 C192 C 1.08211 -0.02915 0.24702
 H193 H 0.97382 -0.08118 0.28762
 H194 H 1.03990 -0.08075 0.28371
 H195 H 0.96782 0.08974 0.21359
 H196 H 1.03415 0.09084 0.21121
 H197 H 0.87743 0.00160 0.25129
 H198 H 1.13018 0.00568 0.24159
 C199 C 0.42730 0.46480 0.75211
 C200 C 0.40798 0.49840 0.74909
 C201 C 0.42586 0.53283 0.74681
 C202 C 0.46480 0.53265 0.74182
 C203 C 0.48488 0.49977 0.74936
 C204 C 0.46595 0.46653 0.75754
 C205 C 0.48629 0.43666 0.77170
 C206 C 0.52465 0.43669 0.77045
 C207 C 0.54386 0.46688 0.75556
 C208 C 0.52406 0.49995 0.74849
 C209 C 0.48429 0.56330 0.72821
 C210 C 0.52282 0.56363 0.72782
 C211 C 0.54324 0.53305 0.74043
 C212 C 0.58226 0.53385 0.74423
 C213 C 0.60100 0.49955 0.74508
 C214 C 0.58226 0.46550 0.74831
 H215 H 0.47287 0.41310 0.78414
 H216 H 0.53902 0.41297 0.78159
 H217 H 0.47006 0.58690 0.71668
 H218 H 0.53637 0.58774 0.71660
 H219 H 0.37808 0.49784 0.74901
 H220 H 0.63082 0.49939 0.74362
 C221 C 1.03716 0.92140 0.76031
 C222 C 1.00283 0.90499 0.76794
 C223 C 0.96920 0.92290 0.76111
 C224 C 0.96974 0.96192 0.75903
 C225 C 1.00416 0.98102 0.75838
 C226 C 1.03801 0.96074 0.75892
 C227 C 1.07136 0.98050 0.75970
 C228 C 1.07191 1.01874 0.75717
 C229 C 1.03908 1.03962 0.75673
 C230 C 1.00464 1.02044 0.75698
 C231 C 0.93690 0.98240 0.75904
 C232 C 0.93728 1.02042 0.75572
 C233 C 0.97060 1.04041 0.75546
 C234 C 0.97090 1.07960 0.75226
 C235 C 1.00554 1.09639 0.74651
 C236 C 1.03950 1.07893 0.75445
 H237 H 1.09773 0.96689 0.76295
 H238 H 1.09879 1.03136 0.75481
 H239 H 0.91019 0.96953 0.76207
 H240 H 0.91065 1.03349 0.75291
 H241 H 1.00226 0.87687 0.77789
 H242 H 1.00631 1.12381 0.73495
 C243 C 0.53910 0.42978 0.25635
 C244 C 0.50573 0.41083 0.26134
 C245 C 0.47126 0.42696 0.25432
 C246 C 0.46966 0.46612 0.25339
 C247 C 0.50289 0.48721 0.25568
 C248 C 0.53778 0.46895 0.25692
 C249 C 0.56982 0.49035 0.26068
 C250 C 0.56829 0.52869 0.26035
 C251 C 0.53436 0.54772 0.25922
 C252 C 0.50116 0.52661 0.25685
 C253 C 0.43580 0.48484 0.25143
 C254 C 0.43428 0.52298 0.25059
 C255 C 0.46618 0.54463 0.25511
 C256 C 0.46414 0.58372 0.25661
 C257 C 0.49756 0.60348 0.25471
 C258 C 0.53266 0.58709 0.25934
 H259 H 0.59659 0.47796 0.26508
 H260 H 0.59447 0.54281 0.26078
 H261 H 0.40968 0.47055 0.25099
 H262 H 0.40737 0.53486 0.24589
 H263 H 0.50716 0.38230 0.26980
 H264 H 0.49600 0.63221 0.24751
 O265 O 0.25940 0.15382 0.18820
 O266 O 0.30383 0.14772 0.24201
 O267 O 0.16388 0.19859 0.24125
 O268 O 0.15093 0.24927 0.27684
 O269 O 0.20993 0.24987 0.14310
 O270 O 0.26301 0.29034 0.13283
 O271 O 0.25928 0.30733 0.33166
 O272 O 0.21416 0.25633 0.34146
 O273 O 0.35342 0.24946 0.29139
 O274 O 0.36066 0.20254 0.23707
 O275 O 0.31444 0.34382 0.23886
 O276 O 0.26108 0.35269 0.19106
 O277 O 0.26199 0.34827 0.28435
 O278 O 0.22440 0.36038 0.23339
 O279 O 0.35627 0.29701 0.24068
 O280 O 0.37028 0.24728 0.20395
 O281 O 0.30920 0.25824 0.33505
 O282 O 0.26224 0.21774 0.34967
 O283 O 0.25900 0.19841 0.14391
 O284 O 0.30127 0.24671 0.13222
 O285 O 0.16390 0.24833 0.18573
 O286 O 0.15429 0.29329 0.23459
 O287 O 0.20870 0.15432 0.23847
 O288 O 0.25511 0.14420 0.28139
 Zr289 Zr 0.25793 0.18414 0.23875
 O290 O 0.29105 0.21642 0.27426
 Zr291 Zr 0.19316 0.24951 0.23645
 O292 O 0.22518 0.28584 0.26956
 Zr293 Zr 0.25938 0.24795 0.17287
 O294 O 0.29492 0.28153 0.20362
 Zr295 Zr 0.25953 0.25497 0.30469
 O296 O 0.22545 0.21827 0.27363
 Zr297 Zr 0.32511 0.24893 0.24093
 O298 O 0.29419 0.21471 0.20549
 Zr299 Zr 0.26259 0.31620 0.23673
 O300 O 0.22638 0.28446 0.20339
 O301 O 0.22436 0.21461 0.20364
 O302 O 0.29560 0.28647 0.27322
 C303 C 0.25938 0.16458 0.15419
 C304 C 0.17483 0.16453 0.24091
 C305 C 0.17567 0.24881 0.15219
 C306 C 0.26084 0.34057 0.31879
 C307 C 0.34306 0.25506 0.32479
 C308 C 0.34784 0.33135 0.24029
 H309 H 0.30554 0.20007 0.29071
 H310 H 0.31125 0.29551 0.18680
 H311 H 0.20849 0.19857 0.18821
 H312 H 0.20862 0.30226 0.28381
 H313 H 0.19844 0.23473 0.33548
 H314 H 0.15858 0.26626 0.29681
 H315 H 0.36168 0.25824 0.18046
 H316 H 0.32041 0.22929 0.14120
 H317 H 0.26565 0.19282 0.33913
 H318 H 0.23726 0.15362 0.29985
 H319 H 0.28528 0.35134 0.17841
 H320 H 0.24360 0.30870 0.13883
 H321 H 0.29601 0.12300 0.23312
 H322 H 0.36076 0.18998 0.26133
 H323 H 0.16275 0.31057 0.21518
 H324 H 0.20164 0.35225 0.24610
 O325 O 0.75102 0.85790 0.21192
 O326 O 0.70711 0.86429 0.26439
 O327 O 0.84610 0.81056 0.25714
 O328 O 0.85728 0.76115 0.29732
 O329 O 0.79981 0.76360 0.16205
 O330 O 0.74571 0.72289 0.15229
 O331 O 0.74903 0.70628 0.35172
 O332 O 0.79569 0.75184 0.36185
 O333 O 0.65589 0.76125 0.31438
 O334 O 0.64937 0.81070 0.25986
 O335 O 0.69271 0.66764 0.25912
 O336 O 0.74267 0.65803 0.21165
 O337 O 0.74475 0.66327 0.30614
 O338 O 0.78758 0.65475 0.25407
 O339 O 0.65180 0.71532 0.26136
 O340 O 0.63763 0.76554 0.22657
 O341 O 0.70262 0.75601 0.35594
 O342 O 0.75390 0.79624 0.36827
 O343 O 0.74911 0.81632 0.16487
 O344 O 0.70685 0.76693 0.15268
 O345 O 0.84391 0.75768 0.20651
 O346 O 0.85409 0.71633 0.25444
 O347 O 0.80194 0.85530 0.26272
 O348 O 0.75571 0.86566 0.30425
 Zr349 Zr 0.75214 0.82676 0.26070
 O350 O 0.71836 0.79536 0.29561
 Zr351 Zr 0.81543 0.76030 0.25640
 O352 O 0.78328 0.72474 0.28949
 Zr353 Zr 0.74946 0.76496 0.19263
 O354 O 0.71361 0.73146 0.22432
 Zr355 Zr 0.75080 0.75713 0.32470
 O356 O 0.78532 0.79247 0.29410
 Zr357 Zr 0.68356 0.76323 0.26264
 O358 O 0.71512 0.79728 0.22711
 Zr359 Zr 0.74489 0.69496 0.25715
 O360 O 0.78092 0.72677 0.22320
 O361 O 0.78494 0.79665 0.22432
 O362 O 0.71349 0.72569 0.29427
 C363 C 0.74973 0.84956 0.17746
 C364 C 0.83564 0.84467 0.25979
 C365 C 0.83377 0.76029 0.17272
 C366 C 0.74692 0.67283 0.34024
 C367 C 0.66827 0.75775 0.34759
 C368 C 0.65947 0.68074 0.26073
 H369 H 0.70416 0.81192 0.31204
 H370 H 0.69662 0.71817 0.20758
 H371 H 0.80087 0.81242 0.20872
 H372 H 0.79970 0.70782 0.30338
 H373 H 0.81380 0.77131 0.35541
 H374 H 0.85151 0.74171 0.31563
 H375 H 0.64656 0.75740 0.20210
 H376 H 0.68813 0.78453 0.16212
 H377 H 0.73545 0.81590 0.36366
 H378 H 0.77041 0.85390 0.32410
 H379 H 0.72011 0.66338 0.19715
 H380 H 0.76422 0.70388 0.15906
 H381 H 0.71569 0.88926 0.25705
 H382 H 0.64742 0.82107 0.28506
 H383 H 0.84233 0.69624 0.24012
 H384 H 0.77722 0.63019 0.26049
 O385 O 0.75248 0.14966 0.79391
 O386 O 0.72076 0.13626 0.74256
 O387 O 0.85043 0.20237 0.75175
 O388 O 0.86427 0.25346 0.71880
 O389 O 0.79604 0.24781 0.84755
 O390 O 0.74460 0.27865 0.86069
 O391 O 0.75263 0.29636 0.65328
 O392 O 0.79061 0.24896 0.63949
 O393 O 0.65714 0.25116 0.69827
 O394 O 0.64184 0.21241 0.74516
 O395 O 0.70432 0.34514 0.74839
 O396 O 0.74919 0.35517 0.78866
 O397 O 0.75048 0.34256 0.69548
 O398 O 0.79855 0.34934 0.74671
 O399 O 0.65865 0.30212 0.74497
 O400 O 0.64886 0.24570 0.79140
 O401 O 0.70087 0.24800 0.65345
 O402 O 0.75806 0.20320 0.64638
 O403 O 0.75012 0.19027 0.84149
 O404 O 0.70175 0.24277 0.84815
 O405 O 0.84430 0.24940 0.80762
 O406 O 0.85352 0.29605 0.75535
 O407 O 0.80979 0.15481 0.74853
 O408 O 0.75781 0.14696 0.70035
 Zr409 Zr 0.75689 0.18184 0.74722
 O410 O 0.71960 0.21324 0.71517
 Zr411 Zr 0.81829 0.24942 0.75448
 O412 O 0.78749 0.28089 0.71645
 Zr413 Zr 0.74963 0.24325 0.81463
 O414 O 0.71879 0.28112 0.78272
 Zr415 Zr 0.75210 0.24818 0.68328
 O416 O 0.78980 0.21652 0.71505
 Zr417 Zr 0.68663 0.24976 0.74698
 O418 O 0.71726 0.21127 0.77913
 Zr419 Zr 0.75194 0.31385 0.74739
 O420 O 0.78296 0.28234 0.78603
 O421 O 0.78749 0.21209 0.78507
 O422 O 0.71753 0.28361 0.71258
 C423 C 0.75098 0.15700 0.82828
 C424 C 0.84305 0.16795 0.75014
 C425 C 0.83060 0.24917 0.84060
 C426 C 0.75167 0.33049 0.66184
 C427 C 0.66691 0.24963 0.66451
 C428 C 0.67036 0.33594 0.74602
 H429 H 0.70425 0.19652 0.69996
 H430 H 0.70361 0.29672 0.79926
 H431 H 0.80311 0.19641 0.80118
 H432 H 0.80447 0.29601 0.70130
 H433 H 0.81439 0.25704 0.65024
 H434 H 0.85642 0.24239 0.69508
 H435 H 0.64637 0.27050 0.80264
 H436 H 0.68907 0.21893 0.84372
 H437 H 0.73393 0.19044 0.64466
 H438 H 0.78175 0.15101 0.68775
 H439 H 0.76666 0.34760 0.80831
 H440 H 0.74790 0.30401 0.85108
 H441 H 0.69653 0.14483 0.75196
 H442 H 0.65239 0.18815 0.73829
 H443 H 0.84796 0.30992 0.77826
 H444 H 0.79013 0.37411 0.73849
 O445 O 0.24304 0.83490 0.80317
 O446 O 0.28668 0.84076 0.74936
 O447 O 0.14721 0.78942 0.74971
 O448 O 0.13255 0.74052 0.71443
 O449 O 0.19120 0.73880 0.84804
 O450 O 0.24511 0.69743 0.85705
 O451 O 0.24168 0.68366 0.65740
 O452 O 0.19417 0.73320 0.64949
 O453 O 0.33502 0.73716 0.69551
 O454 O 0.34392 0.78375 0.75138
 O455 O 0.29281 0.64336 0.75078
 O456 O 0.24400 0.63366 0.79611
 O457 O 0.24471 0.64216 0.70421
 O458 O 0.19790 0.63565 0.75464
 O459 O 0.33744 0.68768 0.74888
 O460 O 0.35356 0.73795 0.78386
 O461 O 0.28815 0.73561 0.65378
 O462 O 0.23990 0.77387 0.64138
 O463 O 0.24230 0.79004 0.84714
 O464 O 0.28391 0.74091 0.85804
 O465 O 0.14705 0.74070 0.80325
 O466 O 0.13716 0.69558 0.75517
 O467 O 0.19024 0.83521 0.75258
 O468 O 0.23760 0.84518 0.70988
 Zr469 Zr 0.24033 0.80500 0.75231
 O470 O 0.27303 0.77240 0.71624
 Zr471 Zr 0.17599 0.73937 0.75365
 O472 O 0.20652 0.70360 0.71966
 Zr473 Zr 0.24156 0.74054 0.81779
 O474 O 0.27635 0.70691 0.78564
 Zr475 Zr 0.24031 0.73533 0.68539
 O476 O 0.20725 0.77173 0.71715
 Zr477 Zr 0.30764 0.73802 0.74773
 O478 O 0.27688 0.77262 0.78419
 Zr479 Zr 0.24313 0.67292 0.75259
 O480 O 0.20839 0.70444 0.78713
 O481 O 0.20686 0.77425 0.78711
 O482 O 0.27623 0.70222 0.71566
 C483 C 0.24356 0.82398 0.83714
 C484 C 0.15662 0.82367 0.75056
 C485 C 0.15724 0.73958 0.83710
 C486 C 0.24378 0.65033 0.66989
 C487 C 0.32252 0.73615 0.66210
 C488 C 0.32673 0.65374 0.74992
 H489 H 0.28752 0.78889 0.70002
 H490 H 0.29267 0.69256 0.80219
 H491 H 0.19126 0.79033 0.80279
 H492 H 0.18978 0.68733 0.70542
 H493 H 0.17795 0.75431 0.65601
 H494 H 0.13907 0.72329 0.69426
 H495 H 0.34427 0.72983 0.80819
 H496 H 0.30338 0.75766 0.84867
 H497 H 0.24997 0.79732 0.65106
 H498 H 0.21990 0.83583 0.69123
 H499 H 0.26469 0.63975 0.81288
 H500 H 0.22550 0.67942 0.85074
 H501 H 0.27903 0.86569 0.75787
 H502 H 0.34402 0.79622 0.72708
 H503 H 0.14529 0.67830 0.77475
 H504 H 0.20636 0.61085 0.74652
 O505 O 0.25425 0.34657 0.70261
 O506 O 0.20714 0.35426 0.75204
 O507 O 0.34785 0.30472 0.75534
 O508 O 0.35889 0.25793 0.79828
 O509 O 0.30784 0.24960 0.66091
 O510 O 0.25505 0.20779 0.65115
 O511 O 0.25020 0.20424 0.85186
 O512 O 0.29533 0.25176 0.86030
 O513 O 0.15734 0.25078 0.80704
 O514 O 0.15149 0.29922 0.75096
 O515 O 0.19866 0.15763 0.75884
 O516 O 0.25095 0.14559 0.71585
 O517 O 0.24742 0.15823 0.80925
 O518 O 0.29444 0.14779 0.75968
 O519 O 0.15670 0.20428 0.75521
 O520 O 0.14277 0.25307 0.71813
 O521 O 0.20258 0.25288 0.85046
 O522 O 0.25185 0.29489 0.86242
 O523 O 0.25431 0.30206 0.65820
 O524 O 0.21526 0.24997 0.64706
 O525 O 0.34950 0.25012 0.70780
 O526 O 0.35853 0.21071 0.75788
 O527 O 0.30230 0.34836 0.75571
 O528 O 0.25382 0.35998 0.79413
 Zr529 Zr 0.25357 0.31831 0.75305
 O530 O 0.21932 0.28820 0.78856
 Zr531 Zr 0.31873 0.25366 0.75591
 O532 O 0.28634 0.21921 0.78986
 Zr533 Zr 0.25587 0.25226 0.68900
 O534 O 0.21961 0.21976 0.72136
 Zr535 Zr 0.25172 0.25305 0.82133
 O536 O 0.28631 0.28744 0.78998
 Zr537 Zr 0.18700 0.25293 0.75631
 O538 O 0.21906 0.28554 0.71990
 Zr539 Zr 0.25016 0.18632 0.75800
 O540 O 0.28674 0.21701 0.72350
 O541 O 0.28887 0.28700 0.72011
 O542 O 0.21657 0.21856 0.79161
 C543 C 0.25354 0.33607 0.66875
 C544 C 0.33633 0.33856 0.75531
 C545 C 0.34132 0.24868 0.67350
 C546 C 0.24847 0.17005 0.84275
 C547 C 0.16866 0.25063 0.84082
 C548 C 0.16512 0.16999 0.75759
 H549 H 0.20385 0.30520 0.80332
 H550 H 0.20380 0.20495 0.70473
 H551 H 0.30501 0.30229 0.70421
 H552 H 0.30255 0.20370 0.80552
 H553 H 0.31301 0.27143 0.85328
 H554 H 0.35295 0.23937 0.81743
 H555 H 0.15256 0.24260 0.69490
 H556 H 0.19524 0.26702 0.65468
 H557 H 0.23341 0.31388 0.85555
 H558 H 0.26826 0.35020 0.81522
 H559 H 0.23057 0.15087 0.69842
 H560 H 0.27301 0.18931 0.66042
 H561 H 0.21536 0.37917 0.74412
 H562 H 0.14675 0.30911 0.77598
 H563 H 0.34837 0.18991 0.74333
 H564 H 0.28487 0.12367 0.76852
 O565 O 0.75509 0.65537 0.68876
 O566 O 0.80199 0.64696 0.73992
 O567 O 0.66151 0.69510 0.74865
 O568 O 0.64897 0.74382 0.78699
 O569 O 0.70269 0.75410 0.65140
 O570 O 0.75548 0.79557 0.64202
 O571 O 0.75947 0.80028 0.84088
 O572 O 0.71441 0.74871 0.84945
 O573 O 0.85202 0.74588 0.79425
 O574 O 0.85766 0.70238 0.73699
 O575 O 0.80992 0.84271 0.74877
 O576 O 0.75459 0.85321 0.70303
 O577 O 0.75792 0.84374 0.79576
 O578 O 0.71988 0.85856 0.74739
 O579 O 0.85209 0.79627 0.74659
 O580 O 0.86555 0.74881 0.70628
 O581 O 0.80914 0.75076 0.83980
 O582 O 0.76227 0.70963 0.85380
 O583 O 0.75438 0.70286 0.64782
 O584 O 0.79282 0.75282 0.63628
 O585 O 0.65856 0.74753 0.69564
 O586 O 0.64998 0.78986 0.74699
 O587 O 0.70685 0.65203 0.74089
 O588 O 0.75496 0.64023 0.78125
 Zr589 Zr 0.75542 0.68265 0.74099
 O590 O 0.78930 0.71310 0.77734
 Zr591 Zr 0.68967 0.74681 0.74517
 O592 O 0.72247 0.78170 0.77903
 Zr593 Zr 0.75340 0.75057 0.67925
 O594 O 0.78992 0.78239 0.71061
 Zr595 Zr 0.75846 0.74939 0.81110
 O596 O 0.72383 0.71401 0.77913
 Zr597 Zr 0.82172 0.74795 0.74488
 O598 O 0.78988 0.71586 0.70840
 Zr599 Zr 0.75829 0.81448 0.74670
 O600 O 0.72101 0.78440 0.71312
 O601 O 0.72007 0.71462 0.70901
 O602 O 0.79298 0.78318 0.78028
 C603 C 0.75437 0.66841 0.65559
 C604 C 0.67303 0.66134 0.74578
 C605 C 0.66888 0.75125 0.66184
 C606 C 0.75949 0.83417 0.82966
 C607 C 0.84269 0.74890 0.82829
 C608 C 0.84345 0.83048 0.74829
 H609 H 0.80459 0.69595 0.79218
 H610 H 0.80545 0.79758 0.69410
 H611 H 0.70394 0.69925 0.69317
 H612 H 0.70624 0.79707 0.79476
 H613 H 0.69839 0.72755 0.84272
 H614 H 0.65689 0.76016 0.80739
 H615 H 0.85658 0.76238 0.68433
 H616 H 0.81395 0.73735 0.64430
 H617 H 0.76835 0.68578 0.84203
 H618 H 0.73839 0.64864 0.80130
 H619 H 0.77870 0.85372 0.69016
 H620 H 0.73555 0.81291 0.64920
 H621 H 0.79408 0.62259 0.73020
 H622 H 0.85891 0.68845 0.76047
 H623 H 0.65715 0.80811 0.72794
 H624 H 0.69688 0.84879 0.75842
 O625 O 0.23273 0.66015 0.30227
 O626 O 0.21329 0.63790 0.25039
 O627 O 0.33835 0.69966 0.23756
 O628 O 0.36052 0.75127 0.21764
 O629 O 0.29779 0.76375 0.34292
 O630 O 0.24553 0.78702 0.36215
 O631 O 0.24168 0.79501 0.15160
 O632 O 0.28003 0.74668 0.14024
 O633 O 0.14847 0.75664 0.20461
 O634 O 0.13605 0.71928 0.25362
 O635 O 0.20272 0.85050 0.24577
 O636 O 0.25033 0.86050 0.28392
 O637 O 0.24690 0.84298 0.19175
 O638 O 0.29724 0.85034 0.24065
 O639 O 0.15509 0.80957 0.24854
 O640 O 0.14540 0.75743 0.29830
 O641 O 0.18951 0.74860 0.15781
 O642 O 0.24318 0.70142 0.14951
 O643 O 0.25277 0.70021 0.34574
 O644 O 0.20277 0.75305 0.35242
 O645 O 0.34191 0.74541 0.30250
 O646 O 0.34907 0.79496 0.24892
 O647 O 0.29853 0.65618 0.25807
 O648 O 0.24592 0.64855 0.20749
 Zr649 Zr 0.24716 0.68537 0.25286
 O650 O 0.21009 0.71676 0.22049
 Zr651 Zr 0.31274 0.74921 0.25110
 O652 O 0.28116 0.78071 0.21357
 Zr653 Zr 0.24852 0.75135 0.31609
 O654 O 0.21684 0.78823 0.28381
 Zr655 Zr 0.24215 0.74832 0.18452
 O656 O 0.27941 0.71616 0.21611
 Zr657 Zr 0.18092 0.75652 0.25182
 O658 O 0.21179 0.71928 0.28491
 Zr659 Zr 0.24917 0.81711 0.24478
 O660 O 0.28149 0.78623 0.28263
 O661 O 0.28257 0.71565 0.28660
 O662 O 0.21128 0.78686 0.21387
 C663 C 0.24388 0.66733 0.33492
 C664 C 0.33133 0.66706 0.24899
 C665 C 0.33090 0.75395 0.33538
 C666 C 0.24431 0.82947 0.15880
 C667 C 0.15634 0.75251 0.17047
 C668 C 0.16826 0.84271 0.24637
 H669 H 0.19291 0.70000 0.20741
 H670 H 0.20352 0.80556 0.30020
 H671 H 0.29833 0.70005 0.30265
 H672 H 0.29783 0.79403 0.19649
 H673 H 0.30404 0.73934 0.15115
 H674 H 0.35161 0.75243 0.19180
 H675 H 0.14637 0.78245 0.30927
 H676 H 0.19012 0.72887 0.35046
 H677 H 0.21910 0.68865 0.15172
 H678 H 0.27050 0.64979 0.19553
 H679 H 0.26610 0.85173 0.30449
 H680 H 0.24546 0.81245 0.35204
 H681 H 0.18748 0.64704 0.24898
 H682 H 0.14662 0.69530 0.26146
 H683 H 0.34781 0.80733 0.27327
 H684 H 0.28970 0.87492 0.23114
 O685 O 0.74609 0.33994 0.30464
 O686 O 0.79152 0.34715 0.25260
 O687 O 0.65123 0.29831 0.24750
 O688 O 0.63661 0.25086 0.21006
 O689 O 0.69197 0.24286 0.34471
 O690 O 0.74524 0.20085 0.35371
 O691 O 0.74394 0.19497 0.15355
 O692 O 0.69966 0.24619 0.14636
 O693 O 0.83960 0.24429 0.19601
 O694 O 0.84771 0.28913 0.25350
 O695 O 0.79421 0.14968 0.24695
 O696 O 0.74423 0.13938 0.29052
 O697 O 0.74769 0.15164 0.19876
 O698 O 0.69932 0.14356 0.24771
 O699 O 0.83967 0.19317 0.24808
 O700 O 0.85579 0.24222 0.28473
 O701 O 0.79343 0.24408 0.15357
 O702 O 0.74639 0.28541 0.14116
 O703 O 0.74342 0.29359 0.34699
 O704 O 0.78435 0.24382 0.35717
 O705 O 0.64889 0.24756 0.29912
 O706 O 0.63926 0.20466 0.24930
 O707 O 0.69504 0.34325 0.25205
 O708 O 0.74399 0.35377 0.21173
 Zr709 Zr 0.74453 0.31210 0.25277
 O710 O 0.77761 0.28029 0.21645
 Zr711 Zr 0.67899 0.24764 0.25031
 O712 O 0.70973 0.21268 0.21588
 Zr713 Zr 0.74304 0.24530 0.31587
 O714 O 0.77807 0.21228 0.28345
 Zr715 Zr 0.74473 0.24518 0.18364
 O716 O 0.71157 0.28084 0.21583
 Zr717 Zr 0.81083 0.24412 0.24747
 O718 O 0.77972 0.27795 0.28434
 Zr719 Zr 0.74510 0.18016 0.24841
 O720 O 0.71001 0.21093 0.28320
 O721 O 0.70964 0.28076 0.28566
 O722 O 0.77947 0.21022 0.21334
 C723 C 0.74542 0.32778 0.33816
 C724 C 0.66129 0.33236 0.24889
 C725 C 0.65831 0.24465 0.33304
 C726 C 0.74585 0.16127 0.16482
 C727 C 0.82767 0.24445 0.16240
 C728 C 0.82832 0.15942 0.24772
 H729 H 0.79286 0.29703 0.20122
 H730 H 0.79370 0.19709 0.29993
 H731 H 0.69379 0.29652 0.30142
 H732 H 0.69295 0.19729 0.20075
 H733 H 0.68358 0.26713 0.15369
 H734 H 0.64350 0.23443 0.18935
 H735 H 0.84573 0.23353 0.30856
 H736 H 0.80422 0.26069 0.34889
 H737 H 0.75898 0.30748 0.15115
 H738 H 0.72751 0.34494 0.19176
 H739 H 0.76449 0.14458 0.30809
 H740 H 0.72556 0.18330 0.34639
 H741 H 0.78401 0.37186 0.26181
 H742 H 0.84891 0.30217 0.22952
 H743 H 0.64685 0.18626 0.26807
 H744 H 0.70793 0.11881 0.23968
 C745 C 0.24733 0.09420 0.06554
 C746 C 0.21132 0.11070 0.08081
 C747 C 0.21594 0.13301 0.11052
 C748 C 0.25620 0.13717 0.12311
 C749 C 0.27018 0.09761 0.12948
 C750 C 0.26646 0.07531 0.09910
 C751 C 0.27307 0.12769 0.05896
 C752 C 0.27736 0.15001 0.08864
 H753 H 0.18422 0.10523 0.06909
 H754 H 0.19281 0.14665 0.12395
 H755 H 0.28483 0.08890 0.15415
 H756 H 0.27941 0.04827 0.09813
 H757 H 0.28922 0.13191 0.03407
 H758 H 0.29649 0.17312 0.08836
 C759 C 0.74584 0.60154 0.56371
 C760 C 0.78355 0.59915 0.58356
 C761 C 0.78639 0.62052 0.61439
 C762 C 0.75150 0.64293 0.62274
 C763 C 0.74352 0.66445 0.58682
 C764 C 0.73967 0.64314 0.55666
 C765 C 0.71674 0.59316 0.59376
 C766 C 0.72010 0.61441 0.62477
 H767 H 0.80615 0.58182 0.57407
 H768 H 0.81124 0.62146 0.63118
 H769 H 0.73773 0.69382 0.58527
 H770 H 0.72736 0.65522 0.53221
 H771 H 0.69487 0.57288 0.59058
 H772 H 0.70167 0.61168 0.64817
 C773 C 0.75501 0.93725 0.10483
 C774 C 0.78962 0.91254 0.10542
 C775 C 0.78754 0.88342 0.12910
 C776 C 0.75103 0.88126 0.15050
 C777 C 0.74701 0.91911 0.16926
 C778 C 0.74846 0.94799 0.14572
 C779 C 0.72235 0.91076 0.09727
 C780 C 0.72063 0.88124 0.12079
 H781 H 0.81382 0.91758 0.08846
 H782 H 0.80995 0.86368 0.13237
 H783 H 0.73922 0.92307 0.19792
 H784 H 0.73984 0.97499 0.15535
 H785 H 0.70150 0.91558 0.07624
 H786 H 0.69874 0.86080 0.11940
 C787 C 0.25607 0.42275 0.59471
 C788 C 0.29413 0.40858 0.60724
 C789 C 0.29291 0.37954 0.63097
 C790 C 0.25371 0.36664 0.64043
 C791 C 0.23358 0.40128 0.65449
 C792 C 0.23446 0.43010 0.63079
 C793 C 0.23572 0.38835 0.57931
 C794 C 0.23519 0.35878 0.60298
 H795 H 0.32006 0.42033 0.59782
 H796 H 0.31776 0.36657 0.64178
 H797 H 0.21722 0.40224 0.67957
 H798 H 0.21835 0.45490 0.63602
 H799 H 0.21954 0.38827 0.55409
 H800 H 0.22001 0.33364 0.59694
 C801 C 0.75407 0.06268 0.89353
 C802 C 0.71974 0.08741 0.89983
 C803 C 0.71881 0.11888 0.87911
 C804 C 0.75190 0.12320 0.85322
 C805 C 0.78621 0.12040 0.87808
 C806 C 0.78780 0.08862 0.89845
 C807 C 0.75447 0.05574 0.85144
 C808 C 0.75276 0.08676 0.83083
 H809 H 0.69782 0.08056 0.91910
 H810 H 0.69632 0.13871 0.88080
 H811 H 0.80817 0.14083 0.87840
 H812 H 0.81143 0.08204 0.91577
 H813 H 0.76192 0.03015 0.83784
 H814 H 0.75632 0.08502 0.80113
 C815 C 0.25268 0.57166 0.39673
 C816 C 0.21368 0.58865 0.39555
 C817 C 0.21114 0.62080 0.37624
 C818 C 0.24776 0.63372 0.35950
 C819 C 0.27505 0.63561 0.39197
 C820 C 0.27825 0.60300 0.41095
 C821 C 0.26460 0.56855 0.35599
 C822 C 0.26183 0.60048 0.33681
 H823 H 0.18994 0.57634 0.40909
 H824 H 0.18534 0.63591 0.37343
 H825 H 0.29221 0.65937 0.39800
 H826 H 0.29857 0.59928 0.43271
 H827 H 0.27850 0.54485 0.34397
 H828 H 0.27199 0.60254 0.30870
 C829 C 0.24025 0.89525 0.92662
 C830 C 0.20243 0.88227 0.91224
 C831 C 0.20402 0.85965 0.88233
 C832 C 0.24330 0.85159 0.86861
 C833 C 0.26076 0.88972 0.86203
 C834 C 0.26001 0.91224 0.89251
 C835 C 0.26291 0.85937 0.93239
 C836 C 0.26414 0.83677 0.90259
 H837 H 0.17632 0.89038 0.92462
 H838 H 0.17933 0.84852 0.86940
 H839 H 0.27528 0.89715 0.83691
 H840 H 0.27518 0.93808 0.89308
 H841 H 0.27974 0.85368 0.95658
 H842 H 0.28122 0.81207 0.90235
 C843 C 0.74104 0.39617 0.42911
 C844 C 0.70335 0.38295 0.41479
 C845 C 0.70522 0.36116 0.38429
 C846 C 0.74466 0.35421 0.37031
 C847 C 0.76131 0.39276 0.36449
 C848 C 0.76013 0.41447 0.39539
 C849 C 0.76412 0.36061 0.43424
 C850 C 0.76583 0.33885 0.40385
 H851 H 0.67724 0.39035 0.42759
 H852 H 0.68069 0.35001 0.37107
 H853 H 0.77513 0.40131 0.33933
 H854 H 0.77389 0.44108 0.39634
 H855 H 0.78050 0.35439 0.45859
 H856 H 0.78300 0.31422 0.40305
 C857 C 0.10286 0.24598 0.06430
 C858 C 0.09438 0.21668 0.09431
 C859 C 0.11772 0.21785 0.12410
 C860 C 0.14831 0.24722 0.12075
 C861 C 0.16705 0.23789 0.08383
 C862 C 0.14363 0.23658 0.05489
 C863 C 0.10444 0.28315 0.08486
 C864 C 0.12797 0.28375 0.11415
 H865 H 0.07346 0.19538 0.09142
 H866 H 0.11608 0.19814 0.14663
 H867 H 0.19536 0.22818 0.08114
 H868 H 0.15282 0.22436 0.02913
 H869 H 0.08804 0.30708 0.07710
 H870 H 0.13164 0.30810 0.13127
 C871 C 0.59480 0.75339 0.57533
 C872 C 0.57874 0.73485 0.61040
 C873 C 0.60237 0.73466 0.63998
 C874 C 0.64047 0.75146 0.63144
 C875 C 0.65375 0.72944 0.59773
 C876 C 0.63011 0.73023 0.56875
 C877 C 0.60867 0.79143 0.58805
 C878 C 0.63244 0.79042 0.61705
 H879 H 0.55320 0.71918 0.61097
 H880 H 0.59590 0.72037 0.66551
 H881 H 0.67798 0.71186 0.59783
 H882 H 0.63466 0.71305 0.54459
 H883 H 0.60012 0.81723 0.57533
 H884 H 0.64413 0.81530 0.62906
 C885 C 0.06745 0.74736 0.90621
 C886 C 0.06455 0.71749 0.87591
 C887 C 0.09480 0.71472 0.85407
 C888 C 0.12599 0.74162 0.86428
 C889 C 0.10806 0.78006 0.86407
 C890 C 0.07773 0.78302 0.88582
 C891 C 0.10314 0.73555 0.92702
 C892 C 0.13393 0.73332 0.90511
 H893 H 0.04173 0.69818 0.87345
 H894 H 0.09721 0.69360 0.83290
 H895 H 0.11872 0.80328 0.84839
 H896 H 0.06252 0.80875 0.88864
 H897 H 0.10373 0.72615 0.95543
 H898 H 0.16038 0.72345 0.91532
 C899 C 0.56800 0.25193 0.40114
 C900 C 0.56349 0.22532 0.36815
 C901 C 0.59390 0.22252 0.34651
 C902 C 0.62667 0.24618 0.35962
 C903 C 0.61138 0.28558 0.36279
 C904 C 0.58094 0.28856 0.38432
 C905 C 0.60243 0.23577 0.42111
 C906 C 0.63335 0.23353 0.39950
 H907 H 0.53971 0.20755 0.36386
 H908 H 0.59537 0.20312 0.32368
 H909 H 0.62385 0.30934 0.34949
 H910 H 0.56737 0.31488 0.38931
 H911 H 0.60194 0.22423 0.44874
 H912 H 0.65899 0.22121 0.40911
 C913 C 0.92412 0.75886 0.10287
 C914 C 0.88834 0.77294 0.08354
 C915 C 0.85750 0.77283 0.10555
 C916 C 0.86528 0.76025 0.14532
 C917 C 0.88325 0.72204 0.14159
 C918 C 0.91365 0.72130 0.11960
 C919 C 0.92691 0.78550 0.13613
 C920 C 0.89659 0.78599 0.15810
 H921 H 0.88773 0.78531 0.05627
 H922 H 0.83110 0.78382 0.09640
 H923 H 0.87260 0.69737 0.15488
 H924 H 0.92883 0.69594 0.11426
 H925 H 0.94945 0.80483 0.14044
 H926 H 0.89401 0.80517 0.18100
 C927 C 0.43396 0.24868 0.60588
 C928 C 0.44168 0.24306 0.64743
 C929 C 0.41115 0.24311 0.66883
 C930 C 0.37441 0.24787 0.64759
 C931 C 0.37933 0.28353 0.62541
 C932 C 0.41018 0.28400 0.60391
 C933 C 0.40685 0.21661 0.59752
 C934 C 0.37550 0.21662 0.61884
 H935 H 0.46718 0.23268 0.65920
 H936 H 0.41312 0.23507 0.69764
 H937 H 0.36011 0.30657 0.62652
 H938 H 0.41713 0.30758 0.58674
 H939 H 0.41252 0.19493 0.57760
 H940 H 0.35444 0.19540 0.61662
 C941 C 0.89584 0.24544 0.93458
 C942 C 0.90406 0.27903 0.90923
 C943 C 0.88351 0.28011 0.87750
 C944 C 0.85542 0.24854 0.87434
 C945 C 0.87807 0.21294 0.87813
 C946 C 0.89887 0.21120 0.90943
 C947 C 0.85394 0.25008 0.94161
 C948 C 0.83317 0.25117 0.91066
 H949 H 0.92349 0.30077 0.91626
 H950 H 0.88581 0.30233 0.85752
 H951 H 0.87762 0.19077 0.85793
 H952 H 0.91609 0.18743 0.91581
 H953 H 0.84147 0.25790 0.96766
 H954 H 0.80398 0.25802 0.91230
 C955 C 0.39432 0.74851 0.43022
 C956 C 0.38916 0.78761 0.41430
 C957 C 0.36938 0.78907 0.38240
 C958 C 0.35607 0.75137 0.36864
 C959 C 0.39109 0.72744 0.36576
 C960 C 0.41068 0.72530 0.39811
 C961 C 0.35485 0.73268 0.43327
 C962 C 0.33512 0.73449 0.40157
 H963 H 0.40046 0.81225 0.42715
 H964 H 0.36393 0.81485 0.36805
 H965 H 0.39868 0.71182 0.34137
 H966 H 0.43456 0.70734 0.40105
 H967 H 0.34435 0.71708 0.45655
 H968 H 0.30778 0.72237 0.39945
 C969 C 0.10404 0.07506 0.24237
 C970 C 0.08519 0.11133 0.25551
 C971 C 0.10764 0.14179 0.25460
 C972 C 0.14729 0.13320 0.24205
 C973 C 0.15998 0.10231 0.26834
 C974 C 0.13754 0.07232 0.26866
 C975 C 0.12057 0.08431 0.20449
 C976 C 0.14301 0.11441 0.20432
 H977 H 0.05793 0.11261 0.26789
 H978 H 0.09883 0.16857 0.26485
 H979 H 0.18344 0.10472 0.28691
 H980 H 0.14196 0.04981 0.28799
 H981 H 0.11474 0.06858 0.17965
 H982 H 0.15621 0.12432 0.17932
 C983 C 0.60500 0.56982 0.74620
 C984 C 0.61728 0.58287 0.70784
 C985 C 0.63862 0.61375 0.70814
 C986 C 0.64635 0.62927 0.74678
 C987 C 0.60801 0.63538 0.76392
 C988 C 0.58658 0.60416 0.76426
 C989 C 0.64100 0.56596 0.76872
 C990 C 0.66241 0.59664 0.76886
 H991 H 0.60890 0.56945 0.68237
 H992 H 0.64796 0.62692 0.68292
 H993 H 0.59935 0.66106 0.77678
 H994 H 0.56012 0.60350 0.77833
 H995 H 0.64767 0.54246 0.78612
 H996 H 0.68723 0.59839 0.78565
 C997 C 0.93731 0.10246 0.75277
 C998 C 0.94393 0.14434 0.75756
 C999 C 0.91297 0.16507 0.75620
 C1000 C 0.87677 0.14285 0.75123
 C1001 C 0.88299 0.11992 0.71625
 C1002 C 0.91445 0.09911 0.71693
 C1003 C 0.90966 0.09446 0.78451
 C1004 C 0.87785 0.11498 0.78318
 H1005 H 0.96941 0.15685 0.76716
 H1006 H 0.91432 0.19430 0.76287
 H1007 H 0.86425 0.12009 0.69283
 H1008 H 0.92241 0.08160 0.69393
 H1009 H 0.91522 0.07526 0.80687
 H1010 H 0.85637 0.11284 0.80398
 C1011 C 0.42721 0.60540 0.25670
 C1012 C 0.43042 0.64620 0.26854
 C1013 C 0.39838 0.66535 0.26621
 C1014 C 0.36500 0.64256 0.25262
 C1015 C 0.37745 0.62577 0.21591
 C1016 C 0.40969 0.60653 0.21800
 C1017 C 0.39622 0.59117 0.28268
 C1018 C 0.36348 0.61011 0.27991
 H1019 H 0.45422 0.65826 0.28222
 H1020 H 0.39634 0.69350 0.27637
 H1021 H 0.36198 0.62854 0.19035
 H1022 H 0.42173 0.59300 0.19411
 H1023 H 0.40025 0.56932 0.30281
 H1024 H 0.33982 0.60401 0.29721
 C1025 C 0.06928 0.89712 0.75592
 C1026 C 0.09871 0.90797 0.72678
 C1027 C 0.12834 0.88437 0.72507
 C1028 C 0.12538 0.85132 0.75159
 C1029 C 0.11991 0.86844 0.78992
 C1030 C 0.09079 0.89213 0.79220
 C1031 C 0.05922 0.85744 0.74332
 C1032 C 0.08799 0.83377 0.74176
 H1033 H 0.09556 0.93075 0.70754
 H1034 H 0.15047 0.88764 0.70513
 H1035 H 0.13778 0.86268 0.81331
 H1036 H 0.08388 0.90648 0.81761
 H1037 H 0.03289 0.84953 0.73145
 H1038 H 0.08470 0.80635 0.73005
 C1039 C 0.57413 0.40582 0.25228
 C1040 C 0.60679 0.42000 0.22854
 C1041 C 0.63653 0.39643 0.22747
 C1042 C 0.63044 0.36038 0.24916
 C1043 C 0.62035 0.37275 0.28833
 C1044 C 0.59109 0.39626 0.28995
 C1045 C 0.56573 0.36822 0.23381
 C1046 C 0.59460 0.34463 0.23270
 H1047 H 0.60565 0.44464 0.21153
 H1048 H 0.66073 0.40172 0.21061
 H1049 H 0.63568 0.36452 0.31275
 H1050 H 0.58134 0.40785 0.31582
 H1051 H 0.54039 0.36197 0.21902
 H1052 H 0.59282 0.31867 0.21778
 C1053 C 0.90555 0.93420 0.25398
 C1054 C 0.87224 0.93495 0.22722
 C1055 C 0.85019 0.90482 0.22926
 C1056 C 0.86308 0.87575 0.25748
 C1057 C 0.90285 0.86682 0.24559
 C1058 C 0.92489 0.89745 0.24281
 C1059 C 0.88891 0.92687 0.29228
 C1060 C 0.86685 0.89663 0.29406
 H1061 H 0.86785 0.95595 0.20624
 H1062 H 0.82703 0.90087 0.21054
 H1063 H 0.91207 0.83958 0.23711
 H1064 H 0.95205 0.89574 0.23026
 H1065 H 0.89437 0.94402 0.31628
 H1066 H 0.85359 0.88799 0.31951
 C1067 C 0.40496 0.42881 0.75140
 C1068 C 0.37098 0.43069 0.72572
 C1069 C 0.34921 0.40034 0.72695
 C1070 C 0.36310 0.37011 0.75350
 C1071 C 0.40254 0.36198 0.74008
 C1072 C 0.42428 0.39283 0.73818
 C1073 C 0.38947 0.41980 0.78978
 C1074 C 0.36769 0.38934 0.79086
 H1075 H 0.36602 0.45253 0.70577
 H1076 H 0.32563 0.39710 0.70864
 H1077 H 0.41158 0.33524 0.72990
 H1078 H 0.45131 0.39202 0.72524
 H1079 H 0.39547 0.43604 0.81426
 H1080 H 0.35512 0.37954 0.81624
 C1081 C 0.09866 0.24670 0.93049
 C1082 C 0.08628 0.22075 0.89862
 C1083 C 0.10841 0.22226 0.86793
 C1084 C 0.14171 0.24824 0.87240
 C1085 C 0.12533 0.28584 0.88275
 C1086 C 0.10302 0.28508 0.91285
 C1087 C 0.13848 0.23275 0.93752
 C1088 C 0.16074 0.23399 0.90775
 H1089 H 0.06396 0.20086 0.90089
 H1090 H 0.10430 0.20443 0.84420
 H1091 H 0.13059 0.31105 0.86737
 H1092 H 0.08927 0.30972 0.92310
 H1093 H 0.14738 0.21850 0.96235
 H1094 H 0.18808 0.22153 0.90850
 C1095 C 0.59804 0.75578 0.43742
 C1096 C 0.58552 0.73001 0.40561
 C1097 C 0.60807 0.73078 0.37526
 C1098 C 0.64171 0.75634 0.37972
 C1099 C 0.62562 0.79424 0.38958
 C1100 C 0.60303 0.79397 0.41956
 C1101 C 0.63767 0.74174 0.44509
 C1102 C 0.66030 0.74246 0.41544
 H1103 H 0.56215 0.71133 0.40748
 H1104 H 0.60349 0.71332 0.35132
 H1105 H 0.63143 0.81928 0.37414
 H1106 H 0.58957 0.81883 0.42965
 H1107 H 0.64624 0.72751 0.47004
 H1108 H 0.68766 0.73010 0.41663
 C1109 C 0.93018 0.75149 0.90132
 C1110 C 0.93528 0.77513 0.86601
 C1111 C 0.90618 0.77419 0.84238
 C1112 C 0.87382 0.75032 0.85587
 C1113 C 0.89055 0.71221 0.86366
 C1114 C 0.91973 0.71279 0.88730
 C1115 C 0.89405 0.76787 0.91752
 C1116 C 0.86449 0.76648 0.89404
 H1117 H 0.95844 0.79360 0.86126
 H1118 H 0.90526 0.79111 0.81763
 H1119 H 0.88007 0.68675 0.85177
 H1120 H 0.93409 0.68772 0.89552
 H1121 H 0.89238 0.78241 0.94366
 H1122 H 0.83794 0.77860 0.90100
 C1123 C 0.42940 0.26033 0.39882
 C1124 C 0.43527 0.28191 0.36242
 C1125 C 0.40642 0.28025 0.33859
 C1126 C 0.37349 0.25774 0.35298
 C1127 C 0.38936 0.21983 0.36302
 C1128 C 0.41826 0.22117 0.38687
 C1129 C 0.39356 0.27828 0.41382
 C1130 C 0.36409 0.27617 0.39014
 H1131 H 0.45867 0.29991 0.35713
 H1132 H 0.40598 0.29604 0.31310
 H1133 H 0.37843 0.19394 0.35254
 H1134 H 0.43199 0.19634 0.39670
 H1135 H 0.39221 0.29458 0.43892
 H1136 H 0.33779 0.28937 0.39601
 C1137 C 0.06298 0.75575 0.10487
 C1138 C 0.09652 0.73716 0.08556
 C1139 C 0.12818 0.73646 0.10625
 C1140 C 0.12333 0.75299 0.14494
 C1141 C 0.10842 0.79219 0.13855
 C1142 C 0.07714 0.79361 0.11775
 C1143 C 0.05930 0.73266 0.14046
 C1144 C 0.09052 0.73135 0.16122
 H1145 H 0.09496 0.72340 0.05900
 H1146 H 0.15333 0.72305 0.09686
 H1147 H 0.12157 0.81689 0.14939
 H1148 H 0.06361 0.81953 0.11091
 H1149 H 0.03548 0.71580 0.14730
 H1150 H 0.09245 0.71415 0.18571
 C1151 C 0.57416 0.25429 0.59829
 C1152 C 0.60866 0.23947 0.57727
 C1153 C 0.64047 0.23840 0.59792
 C1154 C 0.63470 0.25062 0.63803
 C1155 C 0.61770 0.28944 0.63552
 C1156 C 0.58636 0.29131 0.61492
 C1157 C 0.57186 0.22748 0.63124
 C1158 C 0.60311 0.22563 0.65178
 H1159 H 0.60772 0.22779 0.54971
 H1160 H 0.66623 0.22709 0.58749
 H1161 H 0.62968 0.31365 0.64858
 H1162 H 0.57162 0.31709 0.61049
 H1163 H 0.54868 0.20918 0.63645
 H1164 H 0.60591 0.20613 0.67439
 C1165 C 0.89709 0.24341 0.07139
 C1166 C 0.85654 0.25430 0.06363
 C1167 C 0.83452 0.25444 0.09362
 C1168 C 0.85435 0.24458 0.13003
 C1169 C 0.87273 0.20708 0.12272
 C1170 C 0.89485 0.20645 0.09228
 C1171 C 0.90836 0.27229 0.10093
 C1172 C 0.88640 0.27242 0.13178
 H1173 H 0.84662 0.26605 0.03791
 H1174 H 0.80649 0.26506 0.09179
 H1175 H 0.86890 0.18305 0.14024
 H1176 H 0.90983 0.18183 0.08390
 H1177 H 0.93039 0.29226 0.09715
 H1178 H 0.89030 0.29185 0.15427
 C1179 C 0.39062 0.74202 0.57042
 C1180 C 0.40682 0.71768 0.60179
 C1181 C 0.38518 0.71577 0.63278
 C1182 C 0.34869 0.73732 0.62942
 C1183 C 0.36003 0.77683 0.61932
 C1184 C 0.38165 0.77928 0.58873
 C1185 C 0.35266 0.72374 0.56364
 C1186 C 0.33095 0.72159 0.59402
 H1187 H 0.43222 0.70189 0.59921
 H1188 H 0.39244 0.69890 0.65649
 H1189 H 0.35178 0.80100 0.63507
 H1190 H 0.39177 0.80557 0.57846
 H1191 H 0.34491 0.70940 0.53850
 H1192 H 0.30499 0.70653 0.59350
 C1193 C 0.24268 0.09813 0.93100
 C1194 C 0.20508 0.11070 0.91555
 C1195 C 0.20729 0.13388 0.88611
 C1196 C 0.24691 0.14281 0.87418
 C1197 C 0.26608 0.15754 0.90906
 C1198 C 0.26440 0.13433 0.93827
 C1199 C 0.26398 0.08204 0.89751
 C1200 C 0.26547 0.10511 0.86762
 H1201 H 0.17872 0.10192 0.92687
 H1202 H 0.18290 0.14487 0.87243
 H1203 H 0.28286 0.18239 0.90981
 H1204 H 0.28089 0.13966 0.96275
 H1205 H 0.27916 0.05615 0.89807
 H1206 H 0.28088 0.09825 0.84286
 C1207 C 0.74556 0.59752 0.42520
 C1208 C 0.70966 0.61968 0.41982
 C1209 C 0.71030 0.64374 0.39121
 C1210 C 0.74673 0.64384 0.36981
 C1211 C 0.77695 0.65095 0.39870
 C1212 C 0.77666 0.62672 0.42718
 C1213 C 0.75325 0.57919 0.38729
 C1214 C 0.75301 0.60339 0.35820
 H1215 H 0.68536 0.61629 0.43706
 H1216 H 0.68663 0.66081 0.38402
 H1217 H 0.79846 0.67165 0.39570
 H1218 H 0.79848 0.62665 0.44781
 H1219 H 0.76313 0.55111 0.38376
 H1220 H 0.76070 0.59506 0.33047
 C1221 C 0.75355 0.07171 0.09531
 C1222 C 0.79041 0.09085 0.10404
 C1223 C 0.78725 0.12108 0.12598
 C1224 C 0.74755 0.12985 0.13778
 C1225 C 0.72559 0.13336 0.10163
 C1226 C 0.72800 0.10258 0.07966
 C1227 C 0.73531 0.06418 0.13310
 C1228 C 0.73264 0.09403 0.15509
 H1229 H 0.81682 0.08197 0.09286
 H1230 H 0.81081 0.13820 0.13311
 H1231 H 0.70752 0.15646 0.09524
 H1232 H 0.71089 0.09950 0.05523
 H1233 H 0.72147 0.03862 0.14045
 H1234 H 0.71717 0.09281 0.18068
 C1235 C 0.25165 0.55982 0.60051
 C1236 C 0.28498 0.58624 0.59895
 C1237 C 0.28208 0.61641 0.62126
 C1238 C 0.24619 0.61783 0.64367
 C1239 C 0.21494 0.61498 0.61507
 C1240 C 0.21740 0.58441 0.59296
 C1241 C 0.24704 0.55060 0.64188
 C1242 C 0.24478 0.58045 0.66409
 H1243 H 0.30898 0.58149 0.58160
 H1244 H 0.30354 0.63730 0.62294
 H1245 H 0.19208 0.63437 0.61338
 H1246 H 0.19624 0.57769 0.57279
 H1247 H 0.23987 0.52378 0.65302
 H1248 H 0.23799 0.57716 0.69308
 C1249 C 0.75867 0.92512 0.89888
 C1250 C 0.72069 0.90748 0.89193
 C1251 C 0.72145 0.87698 0.87003
 C1252 C 0.76015 0.86619 0.85660
 C1253 C 0.77574 0.90139 0.83836
 C1254 C 0.77522 0.93162 0.86021
 C1255 C 0.78343 0.89326 0.91361
 C1256 C 0.78356 0.86220 0.89182
 H1257 H 0.69518 0.91805 0.90369
 H1258 H 0.69663 0.86158 0.86315
 H1259 H 0.78957 0.90188 0.81177
 H1260 H 0.78916 0.95682 0.85182
 H1261 H 0.80158 0.89579 0.93734
 H1262 H 0.80085 0.83840 0.89770
 C1263 C 0.26016 0.43207 0.38806
 C1264 C 0.22546 0.40755 0.39063
 C1265 C 0.22593 0.37721 0.36834
 C1266 C 0.26096 0.37354 0.34488
 C1267 C 0.26403 0.41072 0.32429
 C1268 C 0.26415 0.44078 0.34647
 C1269 C 0.29312 0.40553 0.39471
 C1270 C 0.29315 0.37477 0.37263
 H1271 H 0.20234 0.41364 0.40872
 H1272 H 0.20329 0.35755 0.36748
 H1273 H 0.27024 0.41343 0.29510
 H1274 H 0.27261 0.46712 0.33507
 H1275 H 0.31530 0.41116 0.41411
 H1276 H 0.31505 0.35425 0.37359
 C1277 C 0.23948 0.89376 0.06462
 C1278 C 0.26508 0.91007 0.09494
 C1279 C 0.26646 0.88982 0.12682
 C1280 C 0.24330 0.85436 0.12527
 C1281 C 0.20410 0.86702 0.11527
 C1282 C 0.20209 0.88736 0.08377
 C1283 C 0.25589 0.85481 0.05915
 C1284 C 0.25767 0.83442 0.09044
 H1285 H 0.28204 0.93447 0.09105
 H1286 H 0.28395 0.89733 0.14999
 H1287 H 0.17988 0.86062 0.13176
 H1288 H 0.17609 0.89821 0.07336
 H1289 H 0.26952 0.84531 0.03424
 H1290 H 0.27167 0.80786 0.09082
 C1291 C 0.74766 0.39663 0.56849
 C1292 C 0.77765 0.40892 0.59661
 C1293 C 0.77874 0.38828 0.62837
 C1294 C 0.75090 0.35626 0.62872
 C1295 C 0.71312 0.37416 0.62191
 C1296 C 0.71143 0.39507 0.59073
 C1297 C 0.75837 0.35602 0.56175
 C1298 C 0.75965 0.33520 0.59255
 H1299 H 0.79759 0.43064 0.59122
 H1300 H 0.79892 0.39298 0.65005
 H1301 H 0.68948 0.37042 0.63995
 H1302 H 0.68632 0.40929 0.58240
 H1303 H 0.77046 0.34540 0.53650
 H1304 H 0.77112 0.30748 0.59131
 C1305 C 0.07302 0.10172 0.75704
 C1306 C 0.09535 0.10185 0.72088
 C1307 C 0.12608 0.12356 0.72152
 C1308 C 0.13231 0.14379 0.75815
 C1309 C 0.09578 0.16455 0.76559
 C1310 C 0.06544 0.14292 0.76558
 C1311 C 0.10141 0.09178 0.78767
 C1312 C 0.13262 0.11332 0.78774
 H1313 H 0.08768 0.08583 0.69672
 H1314 H 0.14448 0.12599 0.69799
 H1315 H 0.09400 0.19310 0.77464
 H1316 H 0.03952 0.15379 0.77607
 H1317 H 0.09662 0.07093 0.80866
 H1318 H 0.15434 0.11028 0.80821
 C1319 C 0.56734 0.61236 0.26146
 C1320 C 0.59015 0.61118 0.22559
 C1321 C 0.62074 0.63310 0.22566
 C1322 C 0.62634 0.65488 0.26149
 C1323 C 0.58955 0.67570 0.26740
 C1324 C 0.55927 0.65383 0.26789
 C1325 C 0.59537 0.60387 0.29269
 C1326 C 0.62638 0.62563 0.29229
 H1327 H 0.58276 0.59423 0.20199
 H1328 H 0.63934 0.63478 0.20222
 H1329 H 0.58750 0.70457 0.27533
 H1330 H 0.53344 0.66502 0.27815
 H1331 H 0.59060 0.58345 0.31410
 H1332 H 0.64800 0.62336 0.31299
 C1333 C 0.10332 0.93652 0.24524
 C1334 C 0.13777 0.93806 0.22010
 C1335 C 0.15835 0.90668 0.22028
 C1336 C 0.14298 0.87585 0.24526
 C1337 C 0.13861 0.89373 0.28335
 C1338 C 0.11808 0.92518 0.28336
 C1339 C 0.08294 0.90182 0.23016
 C1340 C 0.10347 0.87004 0.23096
 H1341 H 0.14371 0.96022 0.20082
 H1342 H 0.18177 0.90309 0.20186
 H1343 H 0.15055 0.88238 0.30842
 H1344 H 0.11264 0.94063 0.30848
 H1345 H 0.05574 0.90255 0.21747
 H1346 H 0.09342 0.84407 0.21982
 C1347 C 0.60432 0.42907 0.74596
 C1348 C 0.63892 0.43125 0.72127
 C1349 C 0.65957 0.39996 0.72099
 C1350 C 0.64420 0.36850 0.74522
 C1351 C 0.63937 0.38572 0.78360
 C1352 C 0.61873 0.41710 0.78397
 C1353 C 0.58413 0.39455 0.73023
 C1354 C 0.60481 0.36277 0.73055
 H1355 H 0.64514 0.45406 0.70287
 H1356 H 0.68353 0.39708 0.70318
 H1357 H 0.65102 0.37391 0.80861
 H1358 H 0.61287 0.43206 0.80928
 H1359 H 0.55692 0.39545 0.71761
 H1360 H 0.59490 0.33692 0.71904
 C1361 C 0.90089 0.07153 0.24837
 C1362 C 0.86801 0.06818 0.27538
 C1363 C 0.84466 0.09753 0.27510
 C1364 C 0.85604 0.12836 0.24831
 C1365 C 0.89575 0.13803 0.26008
 C1366 C 0.91903 0.10823 0.26083
 C1367 C 0.88330 0.07994 0.21071
 C1368 C 0.85999 0.10941 0.21069
 H1369 H 0.86481 0.04601 0.29530
 H1370 H 0.82156 0.09963 0.29411
 H1371 H 0.90412 0.16511 0.26986
 H1372 H 0.94661 0.11027 0.27244
 H1373 H 0.88905 0.06411 0.18591
 H1374 H 0.84598 0.11874 0.18592
 C1375 C 0.40134 0.56758 0.74881
 C1376 C 0.41883 0.60465 0.76107
 C1377 C 0.39481 0.63387 0.76088
 C1378 C 0.35510 0.62328 0.74987
 C1379 C 0.35869 0.60458 0.71209
 C1380 C 0.38276 0.57573 0.71152
 C1381 C 0.36909 0.56336 0.77646
 C1382 C 0.34502 0.59211 0.77677
 H1383 H 0.44633 0.60727 0.77274
 H1384 H 0.40260 0.66102 0.77094
 H1385 H 0.34372 0.61352 0.68766
 H1386 H 0.38830 0.56006 0.68657
 H1387 H 0.36674 0.54089 0.79617
 H1388 H 0.32218 0.59350 0.79616
 C1389 C 0.93422 0.89903 0.75631
 C1390 C 0.90684 0.91058 0.72542
 C1391 C 0.87601 0.88879 0.72299
 C1392 C 0.87579 0.85669 0.75071
 C1393 C 0.91278 0.83671 0.74350
 C1394 C 0.94271 0.85858 0.74591
 C1395 C 0.91080 0.89674 0.79165
 C1396 C 0.88038 0.87477 0.78872
 H1397 H 0.91205 0.93278 0.70598
 H1398 H 0.85487 0.89290 0.70210
 H1399 H 0.91539 0.80875 0.73292
 H1400 H 0.96904 0.84860 0.73581
 H1401 H 0.91758 0.91142 0.81689
 H1402 H 0.86125 0.87066 0.81143
 C1403 C 0.43745 0.40144 0.24906
 C1404 C 0.41164 0.41070 0.21620
 C1405 C 0.38133 0.38828 0.21338
 C1406 C 0.38001 0.35779 0.24285
 C1407 C 0.41753 0.33799 0.23885
 C1408 C 0.44710 0.36050 0.24155
 C1409 C 0.41217 0.40068 0.28319
 C1410 C 0.38228 0.37808 0.27993
 H1411 H 0.41744 0.43213 0.19606
 H1412 H 0.36121 0.39094 0.19128
 H1413 H 0.42090 0.30949 0.23009
 H1414 H 0.47396 0.35030 0.23310
 H1415 H 0.41741 0.41677 0.30794
 H1416 H 0.36206 0.37490 0.30184
   
