data_POSCAR
  _audit_creation_date              2014-09-24
  _audit_creation_method            'ToBaCCo'
  _symmetry_space_group_name_H-M    'P1'
  _symmetry_Int_Tables_number       1
  _symmetry_cell_setting            triclinic
  loop_
  _symmetry_equiv_pos_as_xyz
 x,y,z
_cell_length_a 59.6382
_cell_length_b 58.9290
_cell_length_c 60.3880
_cell_angle_alpha 89.539200
_cell_angle_beta 89.540900
_cell_angle_gamma 89.864000
loop_
  _atom_site_label
  _atom_site_type_symbol
  _atom_site_fract_x
  _atom_site_fract_y
  _atom_site_fract_z
C1 C 0.18688 0.21582 0.22088
 C2 C 0.20248 0.19831 0.22453
 C3 C 0.21997 0.19433 0.20933
 C4 C 0.22166 0.20798 0.19023
 C5 C 0.20620 0.22552 0.18622
 C6 C 0.18885 0.22928 0.20163
 H7 H 0.20146 0.18823 0.23958
 H8 H 0.23480 0.20460 0.17820
 H9 H 0.17690 0.24282 0.19870
 C10 C 0.68940 0.71211 0.72125
 C11 C 0.69124 0.72571 0.70210
 C12 C 0.70821 0.72181 0.68633
 C13 C 0.72343 0.70397 0.68986
 C14 C 0.72187 0.69013 0.70885
 C15 C 0.70472 0.69423 0.72442
 H16 H 0.67949 0.73951 0.69952
 H17 H 0.73629 0.70054 0.67755
 H18 H 0.70377 0.68399 0.73937
 C19 C 0.31060 0.78632 0.72206
 C20 C 0.30781 0.77308 0.70303
 C21 C 0.29041 0.77756 0.68819
 C22 C 0.27589 0.79585 0.69220
 C23 C 0.27835 0.80983 0.71091
 C24 C 0.29566 0.80444 0.72595
 H25 H 0.31953 0.75953 0.69937
 H26 H 0.26193 0.79827 0.68110
 H27 H 0.29816 0.81475 0.74041
 C28 C 0.81175 0.28740 0.22459
 C29 C 0.80691 0.27393 0.20593
 C30 C 0.78881 0.27901 0.19196
 C31 C 0.77545 0.29806 0.19636
 C32 C 0.77988 0.31191 0.21454
 C33 C 0.79773 0.30636 0.22861
 H34 H 0.81774 0.26002 0.20128
 H35 H 0.76159 0.30218 0.18555
 H36 H 0.79976 0.31653 0.24326
 C37 C 0.81623 0.71429 0.27650
 C38 C 0.81382 0.72895 0.29461
 C39 C 0.79530 0.72716 0.30904
 C40 C 0.77905 0.71047 0.30513
 C41 C 0.78114 0.69570 0.28710
 C42 C 0.79978 0.69773 0.27288
 H43 H 0.82643 0.74175 0.29750
 H44 H 0.76505 0.70853 0.31652
 H45 H 0.80120 0.68673 0.25865
 C46 C 0.31316 0.21325 -0.22722
 C47 C 0.29716 0.19574 -0.22925
 C48 C 0.27896 0.19380 -0.21449
 C49 C 0.27661 0.20951 -0.19733
 C50 C 0.29218 0.22705 -0.19479
 C51 C 0.31027 0.22886 -0.20976
 H52 H 0.29792 0.18418 -0.24305
 H53 H 0.26258 0.20807 -0.18591
 H54 H 0.32266 0.24184 -0.20683
 C55 C 0.68161 0.28699 -0.21526
 C56 C 0.68500 0.27358 -0.19608
 C57 C 0.70236 0.27823 -0.18120
 C58 C 0.71674 0.29656 -0.18558
 C59 C 0.71382 0.31022 -0.20446
 C60 C 0.69641 0.30528 -0.21919
 H61 H 0.67488 0.25864 -0.19309
 H62 H 0.72981 0.30064 -0.17392
 H63 H 0.69413 0.31637 -0.23334
 C64 C 0.19264 0.78575 0.27987
 C65 C 0.19394 0.77186 0.29877
 C66 C 0.20995 0.77590 0.31511
 C67 C 0.22476 0.79424 0.31245
 C68 C 0.22407 0.80853 0.29354
 C69 C 0.20768 0.80394 0.27738
 H70 H 0.18246 0.75776 0.30074
 H71 H 0.23605 0.79780 0.32588
 H72 H 0.20719 0.81360 0.26209
 C73 C 0.46228 0.44016 0.46766
 C74 C 0.47655 0.44374 0.44938
 C75 C 0.47274 0.46162 0.43438
 C76 C 0.45450 0.47626 0.43804
 C77 C 0.44000 0.47303 0.45629
 C78 C 0.44410 0.45495 0.47107
 H79 H 0.49093 0.43272 0.44704
 H80 H 0.45146 0.49009 0.42653
 H81 H 0.43269 0.45187 0.48481
 C82 C -0.03770 -0.05614 0.97493
 C83 C -0.02263 -0.05159 0.95752
 C84 C -0.02506 -0.03217 0.94421
 C85 C -0.04286 -0.01717 0.94853
 C86 C -0.05829 -0.02114 0.96601
 C87 C -0.05544 -0.04096 0.97905
 H88 H -0.00858 -0.06293 0.95473
 H89 H -0.04524 -0.00299 0.93730
 H90 H -0.06652 -0.04447 0.99291
 C91 C 1.03502 0.56057 0.97122
 C92 C 1.02026 0.55783 0.95340
 C93 C 1.02383 0.54081 0.93756
 C94 C 1.04251 0.52642 0.93984
 C95 C 1.05722 0.52859 0.95773
 C96 C 1.05346 0.54583 0.97325
 H97 H 1.00591 0.56899 0.95193
 H98 H 1.04591 0.51365 0.92745
 H99 H 1.06449 0.54730 0.98733
 C100 C 0.54373 0.06718 0.46303
 C101 C 0.56058 0.05086 0.46666
 C102 C 0.56332 0.03208 0.45252
 C103 C 0.54863 0.03019 0.43443
 C104 C 0.53176 0.04635 0.43051
 C105 C 0.52929 0.06469 0.44497
 H106 H 0.57072 0.05234 0.48134
 H107 H 0.55054 0.01649 0.42275
 H108 H 0.51654 0.07739 0.44174
 C109 C -0.03472 0.05420 0.53005
 C110 C -0.05330 0.03974 0.52817
 C111 C -0.05697 0.02171 0.54330
 C112 C -0.04146 0.01881 0.56064
 C113 C -0.02277 0.03307 0.56275
 C114 C -0.01961 0.05085 0.54746
 H115 H -0.06438 0.04227 0.51428
 H116 H -0.04432 0.00606 0.57332
 H117 H -0.00497 0.06160 0.54863
 C118 C 0.46458 0.55474 0.02560
 C119 C 0.44625 0.54000 0.02358
 C120 C 0.44296 0.52208 0.03869
 C121 C 0.45824 0.51903 0.05602
 C122 C 0.47672 0.53354 0.05832
 C123 C 0.47968 0.55147 0.04308
 H124 H 0.43460 0.54239 0.01009
 H125 H 0.45547 0.50554 0.06802
 H126 H 0.49418 0.56241 0.04436
 C127 C 0.53020 -0.06140 0.02575
 C128 C 0.54906 -0.04717 0.02292
 C129 C 0.55292 -0.02876 0.03707
 C130 C 0.53797 -0.02476 0.05468
 C131 C 0.51920 -0.03869 0.05804
 C132 C 0.51549 -0.05685 0.04362
 H133 H 0.56050 -0.04971 0.00919
 H134 H 0.54050 -0.01032 0.06535
 H135 H 0.50156 -0.06804 0.04722
 C136 C 1.03573 0.43393 0.53170
 C137 C 1.02248 0.43680 0.55072
 C138 C 1.02770 0.45342 0.56633
 C139 C 1.04654 0.46732 0.56275
 C140 C 1.06035 0.46483 0.54376
 C141 C 1.05442 0.44800 0.52830
 H142 H 1.00803 0.42601 0.55342
 H143 H 1.05090 0.47918 0.57557
 H144 H 1.06355 0.44636 0.51286
 C145 C 0.40557 0.01182 0.21896
 H146 H 0.40662 0.02771 0.22774
 C147 C 0.41925 0.00804 0.20048
 H148 H 0.43058 0.02128 0.19496
 C149 C 0.38916 -0.02453 0.21543
 H150 H 0.37768 -0.03733 0.22150
 C151 C 0.40257 -0.02905 0.19690
 H152 H 0.40122 -0.04538 0.18894
 N153 N 0.39066 -0.00422 0.22584
 C154 C 0.33969 0.03483 0.26125
 H155 H 0.33967 0.02634 0.27720
 C156 C 0.32554 0.05338 0.25759
 H157 H 0.31488 0.05928 0.27096
 C158 C 0.35392 0.03754 0.22459
 H159 H 0.36467 0.03109 0.21161
 C160 C 0.34000 0.05607 0.22018
 H161 H 0.34025 0.06363 0.20378
 Zn162 Zn 0.37274 0.00247 0.25100
 N163 N 0.35380 0.02756 0.24497
 C164 C 0.39250 0.02971 0.28443
 N165 N 0.39265 0.00914 0.27434
 C166 C 0.40802 -0.00700 0.27976
 C167 C 0.42378 -0.00295 0.29621
 C168 C 0.40802 0.03451 0.30095
 C169 C 0.33819 -0.02852 0.24371
 C170 C 0.32414 -0.04699 0.24804
 C171 C 0.34288 -0.05255 0.28300
 C172 C 0.35648 -0.03390 0.27804
 N173 N 0.35418 -0.02255 0.25848
 H174 H 0.38063 0.04260 0.27945
 H175 H 0.40802 -0.02307 0.27122
 H176 H 0.43561 -0.01621 0.30049
 H177 H 0.40785 0.05110 0.30852
 H178 H 0.33654 -0.01903 0.22839
 H179 H 0.31186 -0.05178 0.23585
 H180 H 0.34497 -0.06139 0.29863
 H181 H 0.36884 -0.02856 0.28986
 C182 C 0.32570 0.06438 0.23685
 C183 C 0.41777 -0.01259 0.18909
 C184 C 0.32654 -0.05940 0.26783
 C185 C 0.42398 0.01807 0.30702
 C186 C 0.09326 -0.01037 0.72332
 H187 H 0.09285 -0.02578 0.73317
 C188 C 0.07938 -0.00811 0.70496
 H189 H 0.06815 -0.02183 0.70084
 C190 C 0.10825 0.02635 0.71699
 H191 H 0.11939 0.03981 0.72184
 C192 C 0.09449 0.02940 0.69857
 H193 H 0.09549 0.04508 0.68915
 N194 N 0.10770 0.00651 0.72868
 C195 C 0.16036 -0.03035 0.76382
 H196 H 0.16056 -0.02146 0.77942
 C197 C 0.17540 -0.04817 0.76004
 H198 H 0.18720 -0.05287 0.77282
 C199 C 0.14533 -0.03434 0.72786
 H200 H 0.13397 -0.02865 0.71515
 C201 C 0.16008 -0.05214 0.72337
 H202 H 0.15944 -0.06031 0.70739
 Zn203 Zn 0.12651 0.00122 0.75331
 N204 N 0.14559 -0.02393 0.74788
 C205 C 0.10828 -0.02374 0.79004
 N206 N 0.10760 -0.00407 0.77811
 C207 C 0.09285 0.01273 0.78326
 C208 C 0.07865 0.01056 0.80160
 C209 C 0.09420 -0.02671 0.80846
 C210 C 0.15973 0.03295 0.74211
 C211 C 0.17379 0.05159 0.74499
 C212 C 0.15809 0.05638 0.78166
 C213 C 0.14431 0.03769 0.77807
 N214 N 0.14509 0.02662 0.75839
 H215 H 0.11975 -0.03712 0.78538
 H216 H 0.09237 0.02801 0.77321
 H217 H 0.06713 0.02421 0.80552
 H218 H 0.09523 -0.04227 0.81806
 H219 H 0.16028 0.02360 0.72677
 H220 H 0.18493 0.05669 0.73162
 H221 H 0.15733 0.06483 0.79750
 H222 H 0.13317 0.03196 0.79112
 C223 C 0.17544 -0.05923 0.73952
 C224 C 0.08005 0.01189 0.69218
 C225 C 0.17298 0.06367 0.76494
 C226 C 0.07935 -0.00928 0.81458
 C227 C 0.59587 0.49242 0.21722
 H228 H 0.59599 0.47697 0.22703
 C229 C 0.58204 0.49416 0.19877
 H230 H 0.57141 0.47999 0.19454
 C231 C 0.60925 0.52982 0.21124
 H232 H 0.61969 0.54377 0.21631
 C233 C 0.59554 0.53236 0.19272
 H234 H 0.59588 0.54814 0.18343
 N235 N 0.60939 0.50995 0.22286
 C236 C 0.66216 0.47610 0.26028
 H237 H 0.66140 0.48563 0.27551
 C238 C 0.67751 0.45834 0.25803
 H239 H 0.68833 0.45411 0.27178
 C240 C 0.64864 0.46997 0.22404
 H241 H 0.63767 0.47481 0.21066
 C242 C 0.66378 0.45212 0.22105
 H243 H 0.66426 0.44343 0.20533
 Zn244 Zn 0.62756 0.50564 0.24809
 N245 N 0.64787 0.48133 0.24355
 C246 C 0.60889 0.47860 0.28269
 N247 N 0.60806 0.49909 0.27220
 C248 C 0.59246 0.51494 0.27785
 C249 C 0.57722 0.51068 0.29507
 C250 C 0.59387 0.47356 0.29987
 C251 C 0.65991 0.53829 0.23781
 C252 C 0.67377 0.55700 0.24112
 C253 C 0.65689 0.56170 0.27730
 C254 C 0.64332 0.54292 0.27327
 N255 N 0.64491 0.53178 0.25368
 H256 H 0.62096 0.46596 0.27759
 H257 H 0.59185 0.53091 0.26890
 H258 H 0.56484 0.52343 0.29926
 H259 H 0.59489 0.45723 0.30814
 H260 H 0.66108 0.52890 0.22252
 H261 H 0.68532 0.56211 0.22811
 H262 H 0.65561 0.57010 0.29314
 H263 H 0.63182 0.53707 0.28596
 C264 C 0.67841 0.44600 0.23823
 C265 C 0.58185 0.51428 0.18618
 C266 C 0.67238 0.56898 0.26111
 C267 C 0.57778 0.48972 0.30626
 C268 C 0.90715 0.50552 0.72168
 H269 H 0.90714 0.52180 0.72984
 C270 C 0.92261 0.50116 0.70476
 H271 H 0.93456 0.51416 0.70004
 C272 C 0.89200 0.46856 0.71854
 H273 H 0.88030 0.45577 0.72419
 C274 C 0.90724 0.46344 0.70161
 H275 H 0.90674 0.44685 0.69405
 N276 N 0.89208 0.48941 0.72805
 C277 C 0.83976 0.52960 0.75996
 H278 H 0.83916 0.52122 0.77596
 C279 C 0.82584 0.54817 0.75574
 H280 H 0.81479 0.55417 0.76875
 C281 C 0.85530 0.53203 0.72379
 H282 H 0.86652 0.52543 0.71126
 C283 C 0.84159 0.55061 0.71881
 H284 H 0.84244 0.55811 0.70240
 Zn285 Zn 0.87230 0.49673 0.75162
 N286 N 0.85433 0.52212 0.74419
 C287 C 0.89168 0.52506 0.78393
 N288 N 0.89031 0.50343 0.77638
 C289 C 0.90283 0.48649 0.78541
 C290 C 0.91679 0.49079 0.80334
 C291 C 0.90576 0.53021 0.80154
 C292 C 0.83869 0.46588 0.74124
 C293 C 0.82304 0.44862 0.74471
 C294 C 0.83541 0.44547 0.78260
 C295 C 0.85087 0.46279 0.77838
 N296 N 0.85240 0.47244 0.75788
 H297 H 0.88228 0.53848 0.77599
 H298 H 0.90183 0.46953 0.77875
 H299 H 0.92598 0.47681 0.81066
 H300 H 0.90696 0.54767 0.80682
 H301 H 0.83997 0.47412 0.72520
 H302 H 0.81259 0.44342 0.73109
 H303 H 0.83423 0.43825 0.79911
 H304 H 0.86128 0.46877 0.79165
 C305 C 0.82666 0.55900 0.73494
 C306 C 0.92278 0.47987 0.69447
 C307 C 0.82122 0.43817 0.76564
 C308 C 0.91849 0.51295 0.81165
 C309 C 0.21741 0.40982 0.00451
 H310 H 0.22538 0.40959 0.02055
 C311 C 0.19934 0.42438 0.00060
 H312 H 0.19329 0.43507 0.01387
 C313 C 0.21548 0.39575 -0.03206
 H314 H 0.22204 0.38486 -0.04487
 C315 C 0.19744 0.41010 -0.03672
 H316 H 0.19032 0.41003 -0.05315
 N317 N 0.22480 0.39556 -0.01157
 C318 C 0.25685 0.34063 0.02541
 H319 H 0.27306 0.34023 0.01724
 C320 C 0.25224 0.32562 0.04285
 H321 H 0.26497 0.31357 0.04794
 C322 C 0.22043 0.35654 0.02828
 H323 H 0.20797 0.36841 0.02240
 C324 C 0.21506 0.34175 0.04570
 H325 H 0.19862 0.34277 0.05337
 Zn326 Zn 0.24902 0.37595 -0.00477
 N327 N 0.24118 0.35598 0.01877
 C328 C 0.28299 0.39265 0.02361
 N329 N 0.27355 0.39440 0.00323
 C330 C 0.28107 0.40983 -0.01194
 C331 C 0.29938 0.42364 -0.00721
 C332 C 0.30129 0.40618 0.02906
 C333 C 0.24073 0.34331 -0.03702
 C334 C 0.24521 0.32954 -0.05524
 C335 C 0.28254 0.34528 -0.05723
 C336 C 0.27733 0.35878 -0.03899
 N337 N 0.25658 0.35782 -0.02950
 H338 H 0.27634 0.38085 0.03572
 H339 H 0.27302 0.41112 -0.02789
 H340 H 0.30551 0.43530 -0.01979
 H341 H 0.30851 0.40457 0.04539
 H342 H 0.22448 0.34264 -0.02896
 H343 H 0.23215 0.31852 -0.06129
 H344 H 0.29919 0.34618 -0.06445
 H345 H 0.28997 0.36985 -0.03237
 C346 C 0.23114 0.32617 0.05333
 C347 C 0.18895 0.42450 -0.02020
 C348 C 0.26632 0.33051 -0.06569
 C349 C 0.30988 0.42177 0.01347
 C350 C 0.71631 0.08996 -0.00464
 H351 H 0.72620 0.09029 -0.01974
 C352 C 0.69812 0.07523 -0.00264
 H353 H 0.69419 0.06410 -0.01625
 C354 C 0.70967 0.10399 0.03149
 H355 H 0.71430 0.11516 0.04479
 C356 C 0.69140 0.08938 0.03427
 H357 H 0.68187 0.08972 0.04960
 N358 N 0.72142 0.10431 0.01209
 C359 C 0.75495 0.15960 -0.02331
 H360 H 0.77082 0.16001 -0.01477
 C361 C 0.75075 0.17495 -0.04054
 H362 H 0.76348 0.18721 -0.04517
 C363 C 0.71880 0.14357 -0.02709
 H364 H 0.70621 0.13162 -0.02158
 C365 C 0.71385 0.15869 -0.04428
 H366 H 0.69762 0.15783 -0.05215
 Zn367 Zn 0.74569 0.12440 0.00697
 N368 N 0.73916 0.14412 -0.01712
 C369 C 0.78179 0.10778 -0.01937
 N370 N 0.77134 0.10645 0.00069
 C371 C 0.77851 0.09171 0.01658
 C372 C 0.79745 0.07821 0.01293
 C373 C 0.80069 0.09449 -0.02379
 C374 C 0.73379 0.15731 0.03798
 C375 C 0.73677 0.17249 0.05533
 C376 C 0.77453 0.15829 0.05964
 C377 C 0.77082 0.14337 0.04219
 N378 N 0.75065 0.14305 0.03184
 H379 H 0.77542 0.11899 -0.03208
 H380 H 0.76965 0.09070 0.03226
 H381 H 0.80324 0.06712 0.02607
 H382 H 0.80861 0.09569 -0.03995
 H383 H 0.71805 0.15698 0.02921
 H384 H 0.72305 0.18353 0.06007
 H385 H 0.79084 0.15860 0.06736
 H386 H 0.78427 0.13247 0.03665
 C387 C 0.72994 0.17463 -0.05124
 C388 C 0.68524 0.07500 0.01691
 C389 C 0.75741 0.17320 0.06635
 C390 C 0.80893 0.07961 -0.00745
 C391 C 0.21871 0.58595 0.49496
 H392 H 0.22840 0.58560 0.47974
 C393 C 0.20170 0.57010 0.49857
 H394 H 0.19821 0.55771 0.48592
 C395 C 0.21159 0.60259 0.52992
 H396 H 0.21578 0.61498 0.54228
 C397 C 0.19429 0.58714 0.53415
 H398 H 0.18528 0.58783 0.54977
 N399 N 0.22325 0.60184 0.51048
 C400 C 0.25548 0.65714 0.47410
 H401 H 0.27106 0.65825 0.48308
 C402 C 0.25128 0.67209 0.45657
 H403 H 0.26368 0.68479 0.45224
 C404 C 0.22016 0.63957 0.46935
 H405 H 0.20800 0.62701 0.47453
 C406 C 0.21522 0.65426 0.45177
 H407 H 0.19938 0.65257 0.44330
 Zn408 Zn 0.24729 0.62187 0.50415
 N409 N 0.24014 0.64111 0.47995
 C410 C 0.28232 0.60506 0.47670
 N411 N 0.27264 0.60378 0.49715
 C412 C 0.28003 0.58865 0.51260
 C413 C 0.29813 0.57434 0.50789
 C414 C 0.30035 0.59098 0.47125
 C415 C 0.23680 0.65575 0.53457
 C416 C 0.24040 0.67114 0.55161
 C417 C 0.27779 0.65594 0.55579
 C418 C 0.27346 0.64081 0.53866
 N419 N 0.25316 0.64089 0.52853
 H420 H 0.27589 0.61675 0.46443
 H421 H 0.27173 0.58764 0.52857
 H422 H 0.30365 0.56226 0.52032
 H423 H 0.30791 0.59236 0.45493
 H424 H 0.22094 0.65571 0.52598
 H425 H 0.22703 0.68264 0.55630
 H426 H 0.29419 0.65590 0.56336
 H427 H 0.28650 0.62936 0.53321
 C428 C 0.23094 0.67072 0.44510
 C429 C 0.18923 0.57057 0.51838
 C430 C 0.26117 0.67146 0.56240
 C431 C 0.30847 0.57535 0.48693
 C432 C 0.71741 0.90948 0.50702
 H433 H 0.72483 0.90916 0.52331
 C434 C 0.69935 0.92392 0.50265
 H435 H 0.69275 0.93440 0.51584
 C436 C 0.71690 0.89584 0.47024
 H437 H 0.72404 0.88520 0.45752
 C438 C 0.69893 0.91010 0.46511
 H439 H 0.69247 0.91022 0.44840
 N440 N 0.72550 0.89550 0.49103
 C441 C 0.75785 0.84112 0.52841
 H442 H 0.77412 0.84108 0.52037
 C443 C 0.75334 0.82583 0.54563
 H444 H 0.76623 0.81394 0.55067
 C445 C 0.72112 0.85633 0.53110
 H446 H 0.70850 0.86802 0.52520
 C447 C 0.71586 0.84127 0.54833
 H448 H 0.69933 0.84188 0.55585
 Zn449 Zn 0.74981 0.87622 0.49830
 N450 N 0.74195 0.85622 0.52176
 C451 C 0.78282 0.89360 0.52726
 N452 N 0.77406 0.89490 0.50657
 C453 C 0.78210 0.90997 0.49132
 C454 C 0.80033 0.92379 0.49630
 C455 C 0.80098 0.90719 0.53299
 C456 C 0.74210 0.84346 0.46612
 C457 C 0.74700 0.82925 0.44835
 C458 C 0.78459 0.84445 0.44728
 C459 C 0.77893 0.85847 0.46501
 N460 N 0.75788 0.85794 0.47386
 H461 H 0.77574 0.88209 0.53942
 H462 H 0.77457 0.91092 0.47509
 H463 H 0.80693 0.93510 0.48364
 H464 H 0.80765 0.90593 0.54958
 H465 H 0.72565 0.84303 0.47379
 H466 H 0.73423 0.81778 0.44247
 H467 H 0.80133 0.84531 0.44026
 H468 H 0.79145 0.86960 0.47176
 C469 C 0.73215 0.82587 0.55592
 C470 C 0.68975 0.92425 0.48148
 C471 C 0.76848 0.82966 0.43867
 C472 C 0.81017 0.92235 0.51733
 C473 C 0.01040 0.21508 0.40946
 H474 H 0.02592 0.22455 0.40948
 C475 C 0.00767 0.19647 0.42370
 H476 H 0.02135 0.19152 0.43438
 C477 C -0.02617 0.21005 0.39531
 H478 H -0.03955 0.21571 0.38466
 C479 C -0.02964 0.19141 0.40931
 H480 H -0.04570 0.18289 0.40914
 N481 N -0.00624 0.22123 0.39535
 C482 C 0.02941 0.25968 0.34411
 H483 H 0.01930 0.27495 0.34404
 C484 C 0.04773 0.25783 0.32974
 H485 H 0.05155 0.27174 0.31852
 C486 C 0.03614 0.22274 0.35841
 H487 H 0.03137 0.20897 0.36936
 C488 C 0.05457 0.22011 0.34419
 H489 H 0.06410 0.20446 0.34469
 Zn490 Zn -0.00129 0.24676 0.37668
 N491 N 0.02417 0.24242 0.35829
 C492 C 0.02262 0.28349 0.39557
 N493 N 0.00282 0.27208 0.39527
 C494 C -0.01441 0.27785 0.40900
 C495 C -0.01231 0.29608 0.42345
 C496 C 0.02548 0.30178 0.40983
 C497 C -0.03191 0.23428 0.34414
 C498 C -0.04958 0.23696 0.32933
 C499 C -0.05385 0.27565 0.34157
 C500 C -0.03635 0.27209 0.35644
 N501 N -0.02591 0.25158 0.35760
 H502 H 0.03632 0.27833 0.38494
 H503 H -0.02982 0.26820 0.40871
 H504 H -0.02616 0.30031 0.43436
 H505 H 0.04127 0.31082 0.40966
 H506 H -0.02302 0.21828 0.34508
 H507 H -0.05444 0.22265 0.31935
 H508 H -0.06149 0.29230 0.34061
 H509 H -0.03082 0.28590 0.36670
 C510 C 0.06062 0.23787 0.32970
 C511 C -0.01253 0.18426 0.42364
 C512 C -0.06083 0.25791 0.32779
 C513 C 0.00786 0.30831 0.42399
 C514 C -0.00544 0.72140 0.09182
 H515 H -0.02060 0.73151 0.09224
 C516 C -0.00377 0.70301 0.07750
 H517 H -0.01770 0.69914 0.06678
 C518 C 0.03124 0.71447 0.10512
 H519 H 0.04492 0.71911 0.11578
 C520 C 0.03370 0.69601 0.09091
 H521 H 0.04916 0.68634 0.09105
 N522 N 0.01173 0.72648 0.10559
 C523 C -0.02310 0.76146 0.15919
 H524 H -0.01411 0.77737 0.15941
 C525 C -0.04077 0.75766 0.17408
 H526 H -0.04524 0.77073 0.18583
 C527 C -0.02769 0.72481 0.14402
 H528 H -0.02234 0.71187 0.13258
 C529 C -0.04535 0.72027 0.15867
 H530 H -0.05374 0.70402 0.15793
 Zn531 Zn 0.00725 0.75128 0.12489
 N532 N -0.01714 0.74525 0.14434
 C533 C -0.01876 0.78800 0.10782
 N534 N 0.00129 0.77698 0.10685
 C535 C 0.01727 0.78303 0.09176
 C536 C 0.01350 0.80095 0.07700
 C537 C -0.02327 0.80600 0.09331
 C538 C 0.03882 0.73871 0.15649
 C539 C 0.05724 0.74097 0.17038
 C540 C 0.06269 0.77897 0.15605
 C541 C 0.04420 0.77592 0.14231
 N542 N 0.03283 0.75593 0.14262
 H543 H -0.03153 0.78252 0.11945
 H544 H 0.03294 0.77375 0.09111
 H545 H 0.02658 0.80562 0.06530
 H546 H -0.03951 0.81422 0.09403
 H547 H 0.02919 0.72317 0.15674
 H548 H 0.06164 0.72710 0.18140
 H549 H 0.07169 0.79490 0.15543
 H550 H 0.03887 0.78961 0.13156
 C551 C -0.05216 0.73682 0.17392
 C552 C 0.01592 0.68992 0.07706
 C553 C 0.06947 0.76131 0.17026
 C554 C -0.00707 0.81262 0.07754
 C555 C 0.49439 0.22187 0.58710
 H556 H 0.47877 0.23123 0.58681
 C557 C 0.49842 0.20489 0.57156
 H558 H 0.48581 0.20132 0.55927
 C559 C 0.53014 0.21584 0.60299
 H560 H 0.54262 0.22042 0.61500
 C561 C 0.53492 0.19885 0.58767
 H562 H 0.55092 0.19015 0.58838
 N563 N 0.51006 0.22683 0.60256
 C564 C 0.47202 0.26000 0.65516
 H565 H 0.48162 0.27546 0.65659
 C566 C 0.45384 0.25603 0.66934
 H567 H 0.44964 0.26851 0.68176
 C568 C 0.46661 0.22454 0.63779
 H569 H 0.47188 0.21212 0.62576
 C570 C 0.44829 0.21987 0.65163
 H571 H 0.43933 0.20406 0.64971
 Zn572 Zn 0.50367 0.25088 0.62227
 N573 N 0.47795 0.24441 0.63969
 C574 C 0.47884 0.28797 0.60444
 N575 N 0.49899 0.27711 0.60467
 C576 C 0.51602 0.28364 0.59096
 C577 C 0.51315 0.30178 0.57626
 C578 C 0.47522 0.30617 0.58993
 C579 C 0.53252 0.23755 0.65603
 C580 C 0.54917 0.23975 0.67195
 C581 C 0.55517 0.27832 0.65946
 C582 C 0.53845 0.27533 0.64366
 N583 N 0.52759 0.25514 0.64219
 H584 H 0.46532 0.28215 0.61504
 H585 H 0.53177 0.27449 0.59128
 H586 H 0.52698 0.30674 0.56557
 H587 H 0.45887 0.31418 0.58956
 H588 H 0.52338 0.22179 0.65471
 H589 H 0.55302 0.22538 0.68255
 H590 H 0.56326 0.29468 0.66068
 H591 H 0.53386 0.28932 0.63294
 C592 C 0.44171 0.23572 0.66771
 C593 C 0.51894 0.19317 0.57168
 C594 C 0.56068 0.26041 0.67395
 C595 C 0.49244 0.31316 0.57541
 C596 C 0.51038 0.71670 0.90693
 H597 H 0.52607 0.72588 0.90702
 C598 C 0.50728 0.69812 0.92112
 H599 H 0.52085 0.69289 0.93184
 C600 C 0.47380 0.71233 0.89262
 H601 H 0.46056 0.71824 0.88194
 C602 C 0.46995 0.69373 0.90657
 H603 H 0.45375 0.68549 0.90632
 N604 N 0.49394 0.72311 0.89270
 C605 C 0.53133 0.76035 0.84176
 H606 H 0.52168 0.77591 0.84136
 C607 C 0.54998 0.75788 0.82788
 H608 H 0.55452 0.77162 0.81672
 C609 C 0.53662 0.72329 0.85636
 H610 H 0.53116 0.70971 0.86721
 C611 C 0.55532 0.72005 0.84265
 H612 H 0.56436 0.70411 0.84345
 Zn613 Zn 0.49955 0.74836 0.87384
 N614 N 0.52524 0.74334 0.85590
 C615 C 0.52325 0.78554 0.89253
 N616 N 0.50364 0.77380 0.89227
 C617 C 0.48632 0.77935 0.90597
 C618 C 0.48813 0.79765 0.92036
 C619 C 0.52579 0.80399 0.90667
 C620 C 0.46873 0.73591 0.84142
 C621 C 0.45088 0.73858 0.82682
 C622 C 0.44762 0.77767 0.83812
 C623 C 0.46521 0.77408 0.85290
 N624 N 0.47520 0.75337 0.85445
 H625 H 0.53703 0.78056 0.88192
 H626 H 0.47106 0.76947 0.90569
 H627 H 0.47419 0.80162 0.93127
 H628 H 0.54139 0.81334 0.90639
 H629 H 0.47725 0.71973 0.84267
 H630 H 0.44556 0.72407 0.81736
 H631 H 0.44036 0.79447 0.83686
 H632 H 0.47110 0.78798 0.86284
 C633 C 0.56229 0.73755 0.82827
 C634 C 0.48690 0.68623 0.92092
 C635 C 0.44001 0.75972 0.82492
 C636 C 0.50805 0.81030 0.92081
 C637 C 0.13456 0.22830 0.26836
 C638 C 0.14553 0.24669 0.25804
 C639 C 0.16261 0.24262 0.24266
 C640 C 0.16877 0.22032 0.23731
 C641 C 0.15730 0.20242 0.24785
 N642 N 0.14071 0.20680 0.26280
 C643 C 0.11604 0.23145 0.28460
 N644 N 0.10188 0.21379 0.28873
 C645 C 0.08434 0.21531 0.30318
 C646 C 0.08013 0.23563 0.31445
 C647 C 0.09471 0.25394 0.31075
 C648 C 0.11270 0.25191 0.29599
 H649 H 0.17111 0.25696 0.23508
 H650 H 0.16126 0.18496 0.24398
 H651 H 0.07346 0.20079 0.30546
 H652 H 0.09237 0.26975 0.31949
 H653 H 0.14086 0.26407 0.26137
 H654 H 0.12390 0.26617 0.29392
 C655 C 0.63759 0.72567 0.76898
 C656 C 0.64917 0.74380 0.75889
 C657 C 0.66620 0.73935 0.74358
 C658 C 0.67171 0.71692 0.73804
 C659 C 0.65978 0.69928 0.74848
 N660 N 0.64321 0.70404 0.76335
 C661 C 0.61883 0.72931 0.78486
 N662 N 0.60400 0.71212 0.78854
 C663 C 0.58610 0.71420 0.80247
 C664 C 0.58218 0.73466 0.81363
 C665 C 0.59746 0.75246 0.81042
 C666 C 0.61582 0.74984 0.79622
 H667 H 0.67510 0.75349 0.73609
 H668 H 0.66327 0.68174 0.74450
 H669 H 0.57469 0.70006 0.80442
 H670 H 0.59534 0.76834 0.81911
 H671 H 0.64497 0.76129 0.76227
 H672 H 0.62753 0.76372 0.79451
 C673 C 0.36561 0.77286 0.76568
 C674 C 0.35505 0.75478 0.75508
 C675 C 0.33691 0.75910 0.74122
 C676 C 0.32944 0.78146 0.73753
 C677 C 0.34051 0.79905 0.74864
 N678 N 0.35794 0.79436 0.76233
 C679 C 0.38478 0.76903 0.78053
 N680 N 0.38638 0.78133 0.79941
 C681 C 0.40366 0.77861 0.81376
 C682 C 0.42097 0.76299 0.80928
 C683 C 0.41973 0.75047 0.78959
 C684 C 0.40162 0.75329 0.77534
 H685 H 0.32863 0.74487 0.73359
 H686 H 0.33572 0.81659 0.74614
 H687 H 0.40356 0.78845 0.82880
 H688 H 0.43287 0.73872 0.78492
 H689 H 0.36050 0.73744 0.75780
 H690 H 0.40106 0.74364 0.76017
 C691 C -0.13362 0.27230 0.26693
 C692 C -0.14234 0.25526 0.25353
 C693 C -0.16038 0.26012 0.23969
 C694 C -0.16988 0.28213 0.23879
 C695 C -0.16030 0.29867 0.25270
 N696 N -0.14290 0.29335 0.26618
 C697 C -0.11486 0.26792 0.28219
 N698 N -0.11432 0.27902 0.30184
 C699 C -0.09748 0.27600 0.31661
 C700 C -0.07951 0.26127 0.31182
 C701 C -0.07968 0.24989 0.29144
 C702 C -0.09733 0.25305 0.27669
 H703 H -0.16725 0.24613 0.23052
 H704 H -0.16582 0.31612 0.25250
 H705 H -0.09836 0.28492 0.33218
 H706 H -0.06598 0.23886 0.28663
 H707 H -0.13575 0.23814 0.25419
 H708 H -0.09695 0.24440 0.26095
 C709 C -0.12669 0.72049 0.23329
 C710 C -0.13472 0.69882 0.23914
 C711 C -0.15329 0.69681 0.25322
 C712 C -0.16405 0.71625 0.26141
 C713 C -0.15568 0.73757 0.25495
 N714 N -0.13756 0.73910 0.24124
 C715 C -0.10714 0.72388 0.21830
 N716 N -0.10436 0.74452 0.20834
 C717 C -0.08695 0.74909 0.19435
 C718 C -0.07096 0.73228 0.18957
 C719 C -0.07329 0.71098 0.19987
 C720 C -0.09122 0.70674 0.21428
 H721 H -0.15910 0.68003 0.25786
 H722 H -0.16369 0.75302 0.26054
 H723 H -0.08587 0.76572 0.18668
 H724 H -0.06105 0.69770 0.19703
 H725 H -0.12713 0.68351 0.23278
 H726 H -0.09220 0.69033 0.22235
 C727 C 0.36786 0.21926 0.72786
 C728 C 0.35787 0.19803 0.73144
 C729 C 0.33990 0.19601 0.74624
 C730 C 0.33154 0.21510 0.75769
 C731 C 0.34214 0.23610 0.75336
 N732 N 0.35954 0.23758 0.73876
 C733 C 0.38685 0.22256 0.71221
 N734 N 0.39056 0.24368 0.70364
 C735 C 0.40774 0.24822 0.68939
 C736 C 0.42262 0.23092 0.68298
 C737 C 0.41921 0.20905 0.69172
 C738 C 0.40144 0.20481 0.70634
 H739 H 0.33325 0.17919 0.74914
 H740 H 0.33617 0.25165 0.76074
 H741 H 0.40961 0.26530 0.68293
 H742 H 0.43057 0.19531 0.68766
 H743 H 0.36357 0.18307 0.72279
 H744 H 0.39962 0.18794 0.71328
 C745 C 0.62849 0.27338 0.74047
 C746 C 0.62646 0.26707 0.76287
 C747 C 0.64400 0.27138 0.77738
 C748 C 0.66376 0.28228 0.76997
 C749 C 0.66488 0.28847 0.74735
 N750 N 0.64762 0.28386 0.73355
 C751 C 0.61053 0.26942 0.72400
 N752 N 0.61281 0.27893 0.70346
 C753 C 0.59729 0.27630 0.68732
 C754 C 0.57792 0.26336 0.69135
 C755 C 0.57524 0.25330 0.71235
 C756 C 0.59145 0.25615 0.72861
 H757 H 0.64139 0.26704 0.79464
 H758 H 0.67973 0.29616 0.74021
 H759 H 0.60028 0.28410 0.67129
 H760 H 0.56047 0.24340 0.71634
 H761 H 0.61147 0.25931 0.76956
 H762 H 0.58883 0.24783 0.74440
 C763 C 0.14286 0.77254 0.23079
 C764 C 0.15445 0.75434 0.24067
 C765 C 0.17085 0.75867 0.25642
 C766 C 0.17572 0.78103 0.26257
 C767 C 0.16381 0.79873 0.25229
 N768 N 0.14787 0.79410 0.23701
 C769 C 0.12468 0.76907 0.21451
 N770 N 0.10987 0.78629 0.21079
 C771 C 0.09244 0.78438 0.19656
 C772 C 0.08897 0.76406 0.18512
 C773 C 0.10425 0.74623 0.18835
 C774 C 0.12215 0.74868 0.20287
 H775 H 0.17974 0.74449 0.26377
 H776 H 0.16681 0.81621 0.25673
 H777 H 0.08101 0.79853 0.19462
 H778 H 0.10249 0.73045 0.17946
 H779 H 0.15072 0.73689 0.23683
 H780 H 0.13386 0.73477 0.20460
 C781 C 0.26778 0.14124 0.22069
 C782 C 0.27515 0.16264 0.21319
 C783 C 0.25955 0.17991 0.20950
 C784 C 0.23666 0.17611 0.21347
 C785 C 0.23001 0.15470 0.22141
 N786 N 0.24549 0.13807 0.22471
 C787 C 0.28341 0.12202 0.22463
 N788 N 0.27619 0.10409 0.23713
 C789 C 0.28930 0.08567 0.24133
 C790 C 0.31116 0.08445 0.23260
 C791 C 0.31891 0.10267 0.21957
 C792 C 0.30514 0.12136 0.21546
 H793 H 0.26543 0.19635 0.20386
 H794 H 0.21250 0.15105 0.22461
 H795 H 0.28247 0.07187 0.25117
 H796 H 0.33571 0.10257 0.21263
 H797 H 0.29269 0.16634 0.21049
 H798 H 0.31150 0.13480 0.20490
 C799 C 0.76915 0.63618 0.71857
 C800 C 0.77666 0.65755 0.71114
 C801 C 0.76124 0.67509 0.70801
 C802 C 0.73837 0.67161 0.71245
 C803 C 0.73159 0.65020 0.72025
 N804 N 0.74690 0.63330 0.72302
 C805 C 0.78459 0.61672 0.72217
 N806 N 0.77715 0.59868 0.73437
 C807 C 0.79012 0.58016 0.73854
 C808 C 0.81213 0.57896 0.73018
 C809 C 0.82008 0.59722 0.71730
 C810 C 0.80641 0.61601 0.71317
 H811 H 0.76724 0.69152 0.70243
 H812 H 0.71410 0.64676 0.72379
 H813 H 0.78310 0.56632 0.74818
 H814 H 0.83698 0.59713 0.71062
 H815 H 0.79419 0.66104 0.70809
 H816 H 0.81297 0.62953 0.70285
 C817 C 0.75699 0.36690 0.78260
 C818 C 0.73369 0.36932 0.78001
 C819 C 0.71966 0.35088 0.78430
 C820 C 0.72863 0.33004 0.79136
 C821 C 0.75190 0.32845 0.79427
 N822 N 0.76528 0.34662 0.78984
 C823 C 0.77285 0.38574 0.77798
 N824 N 0.79375 0.38474 0.78685
 C825 C 0.80935 0.40119 0.78324
 C826 C 0.80435 0.42008 0.76982
 C827 C 0.78297 0.42136 0.76034
 C828 C 0.76726 0.40427 0.76427
 H829 H 0.70174 0.35301 0.78239
 H830 H 0.75951 0.31268 0.79967
 H831 H 0.82574 0.39930 0.79060
 H832 H 0.77829 0.43568 0.75001
 H833 H 0.72618 0.38528 0.77510
 H834 H 0.75114 0.40556 0.75630
 C835 C 0.26997 -0.13705 0.28481
 C836 C 0.27554 -0.15539 0.29868
 C837 C 0.26049 -0.17328 0.30152
 C838 C 0.23952 -0.17320 0.29080
 C839 C 0.23464 -0.15419 0.27724
 N840 N 0.24965 -0.13701 0.27476
 C841 C 0.28521 -0.11747 0.28096
 N842 N 0.27665 -0.09817 0.27173
 C843 C 0.28940 -0.07953 0.26743
 C844 C 0.31232 -0.07954 0.27252
 C845 C 0.32157 -0.09926 0.28191
 C846 C 0.30818 -0.11824 0.28603
 H847 H 0.26597 -0.18748 0.31156
 H848 H 0.21863 -0.15231 0.26919
 H849 H 0.28154 -0.06463 0.26029
 H850 H 0.33928 -0.10018 0.28564
 H851 H 0.29122 -0.15612 0.30748
 H852 H 0.31605 -0.13332 0.29268
 C853 C 0.23578 -0.13335 0.72095
 C854 C 0.23942 -0.14156 0.69950
 C855 C 0.25339 -0.16022 0.69623
 C856 C 0.26392 -0.17118 0.71425
 C857 C 0.25956 -0.16236 0.73556
 N858 N 0.24575 -0.14416 0.73826
 C859 C 0.22087 -0.11371 0.72531
 N860 N 0.21108 -0.11166 0.74566
 C861 C 0.19685 -0.09434 0.75070
 C862 C 0.19162 -0.07777 0.73470
 C863 C 0.20195 -0.07927 0.71381
 C864 C 0.21660 -0.09707 0.70908
 H865 H 0.25645 -0.16532 0.67931
 H866 H 0.26624 -0.17030 0.75028
 H867 H 0.18925 -0.09385 0.76702
 H868 H 0.19890 -0.06652 0.70117
 H869 H 0.23141 -0.13391 0.68526
 H870 H 0.22465 -0.09749 0.69298
 C871 C 0.73939 0.37080 0.22646
 C872 C 0.76281 0.37210 0.22865
 C873 C 0.77594 0.35286 0.22494
 C874 C 0.76594 0.33234 0.21884
 C875 C 0.74255 0.33177 0.21660
 N876 N 0.73009 0.35071 0.22040
 C877 C 0.72442 0.39062 0.22993
 N878 N 0.70322 0.38983 0.22176
 C879 C 0.68837 0.40718 0.22417
 C880 C 0.69450 0.42691 0.23548
 C881 C 0.71619 0.42803 0.24425
 C882 C 0.73113 0.40997 0.24161
 H883 H 0.79398 0.35414 0.22639
 H884 H 0.73414 0.31626 0.21206
 H885 H 0.67169 0.40537 0.21748
 H886 H 0.72171 0.44295 0.25299
 H887 H 0.77113 0.38778 0.23270
 H888 H 0.74753 0.41123 0.24896
 C889 C 0.73180 0.64426 0.27652
 C890 C 0.72493 0.66629 0.28232
 C891 C 0.74100 0.68304 0.28576
 C892 C 0.76390 0.67808 0.28325
 C893 C 0.77006 0.65600 0.27710
 N894 N 0.75412 0.63993 0.27397
 C895 C 0.71571 0.62555 0.27274
 N896 N 0.72308 0.60676 0.26188
 C897 C 0.70963 0.58869 0.25791
 C898 C 0.68720 0.58873 0.26516
 C899 C 0.67925 0.60784 0.27655
 C900 C 0.69340 0.62619 0.28044
 H901 H 0.73551 0.69999 0.29005
 H902 H 0.78753 0.65140 0.27512
 H903 H 0.71662 0.57417 0.24942
 H904 H 0.66205 0.60868 0.28234
 H905 H 0.70743 0.67084 0.28385
 H906 H 0.68685 0.64040 0.28968
 C907 C 0.23100 0.14054 0.77765
 C908 C 0.22355 0.16262 0.78251
 C909 C 0.23918 0.17996 0.78515
 C910 C 0.26218 0.17550 0.78279
 C911 C 0.26892 0.15331 0.77763
 N912 N 0.25341 0.13668 0.77523
 C913 C 0.21535 0.12133 0.77461
 N914 N 0.22288 0.10254 0.76384
 C915 C 0.20974 0.08409 0.76050
 C916 C 0.18753 0.08374 0.76835
 C917 C 0.17945 0.10284 0.77966
 C918 C 0.19326 0.12157 0.78290
 H919 H 0.23325 0.19695 0.78865
 H920 H 0.28651 0.14912 0.77577
 H921 H 0.21681 0.06960 0.75202
 H922 H 0.16238 0.10338 0.78588
 H923 H 0.20594 0.16676 0.78385
 H924 H 0.18666 0.13578 0.79211
 C925 C 0.21303 0.26745 0.12820
 C926 C 0.19155 0.26074 0.13542
 C927 C 0.18931 0.24700 0.15425
 C928 C 0.20832 0.23998 0.16604
 C929 C 0.22944 0.24719 0.15838
 N930 N 0.23120 0.26055 0.14002
 C931 C 0.21676 0.28229 0.10855
 N932 N 0.23709 0.29250 0.10604
 C933 C 0.24207 0.30636 0.08860
 C934 C 0.22602 0.31074 0.07224
 C935 C 0.20500 0.30025 0.07431
 C936 C 0.20033 0.28596 0.09231
 H937 H 0.17270 0.24173 0.15947
 H938 H 0.24453 0.24253 0.16717
 H939 H 0.25844 0.31422 0.08776
 H940 H 0.19229 0.30282 0.06183
 H941 H 0.17653 0.26620 0.12703
 H942 H 0.18417 0.27774 0.09310
 C943 C 0.71466 0.76498 0.62920
 C944 C 0.69322 0.75821 0.63647
 C945 C 0.69110 0.74399 0.65496
 C946 C 0.71021 0.73655 0.66636
 C947 C 0.73129 0.74376 0.65862
 N948 N 0.73293 0.75762 0.64060
 C949 C 0.71821 0.78044 0.61000
 N950 N 0.73836 0.79108 0.60788
 C951 C 0.74316 0.80550 0.59085
 C952 C 0.72712 0.81001 0.57450
 C953 C 0.70628 0.79912 0.57620
 C954 C 0.70178 0.78428 0.59381
 H955 H 0.67452 0.73874 0.66028
 H956 H 0.74645 0.73876 0.66711
 H957 H 0.75939 0.81367 0.59029
 H958 H 0.69360 0.80177 0.56371
 H959 H 0.67814 0.76405 0.62839
 H960 H 0.68578 0.77572 0.59432
 C961 C 0.78794 0.77103 0.36495
 C962 C 0.80934 0.76288 0.35906
 C963 C 0.81175 0.74860 0.34086
 C964 C 0.79301 0.74251 0.32833
 C965 C 0.77200 0.75127 0.33456
 N966 N 0.77006 0.76508 0.35238
 C967 C 0.78399 0.78615 0.38413
 N968 N 0.76397 0.79722 0.38563
 C969 C 0.75870 0.81113 0.40274
 C970 C 0.77408 0.81463 0.41982
 C971 C 0.79481 0.80337 0.41872
 C972 C 0.79980 0.78907 0.40103
 H973 H 0.82826 0.74212 0.33677
 H974 H 0.75715 0.74737 0.32516
 H975 H 0.74259 0.81962 0.40284
 H976 H 0.80698 0.80525 0.43179
 H977 H 0.82419 0.76751 0.36807
 H978 H 0.81566 0.78019 0.40106
 C979 C 0.28393 0.27387 -0.14139
 C980 C 0.29035 0.28197 -0.16248
 C981 C 0.29325 0.26669 -0.17983
 C982 C 0.28963 0.24341 -0.17636
 C983 C 0.28316 0.23604 -0.15510
 N984 N 0.28048 0.25121 -0.13847
 C985 C 0.28003 0.28912 -0.12231
 N986 N 0.26787 0.28114 -0.10473
 C987 C 0.26338 0.29391 -0.08659
 C988 C 0.27136 0.31624 -0.08530
 C989 C 0.28420 0.32475 -0.10309
 C990 C 0.28863 0.31129 -0.12153
 H991 H 0.29785 0.27314 -0.19608
 H992 H 0.28040 0.21821 -0.15164
 H993 H 0.25377 0.28648 -0.07311
 H994 H 0.29061 0.34192 -0.10288
 H995 H 0.29261 0.29985 -0.16587
 H996 H 0.29889 0.31823 -0.13476
 C997 C 0.71123 0.23604 -0.12369
 C998 C 0.68949 0.24199 -0.13050
 C999 C 0.68666 0.25593 -0.14904
 C1000 C 0.70533 0.26388 -0.16106
 C1001 C 0.72676 0.25755 -0.15374
 N1002 N 0.72911 0.24394 -0.13561
 C1003 C 0.71540 0.22077 -0.10446
 N1004 N 0.73586 0.21063 -0.10264
 C1005 C 0.74097 0.19614 -0.08577
 C1006 C 0.72490 0.19093 -0.06941
 C1007 C 0.70382 0.20145 -0.07072
 C1008 C 0.69905 0.21644 -0.08807
 H1009 H 0.66981 0.26052 -0.15395
 H1010 H 0.74162 0.26302 -0.16267
 H1011 H 0.75742 0.18836 -0.08542
 H1012 H 0.69112 0.19832 -0.05816
 H1013 H 0.67470 0.23570 -0.12205
 H1014 H 0.68282 0.22462 -0.08826
 C1015 C 0.21483 0.73175 0.37171
 C1016 C 0.19358 0.73802 0.36376
 C1017 C 0.19196 0.75256 0.34548
 C1018 C 0.21138 0.76083 0.33492
 C1019 C 0.23226 0.75410 0.34332
 N1020 N 0.23342 0.73993 0.36114
 C1021 C 0.21793 0.71607 0.39082
 N1022 N 0.23853 0.70658 0.39388
 C1023 C 0.24303 0.69215 0.41094
 C1024 C 0.22619 0.68641 0.42634
 C1025 C 0.20483 0.69604 0.42363
 C1026 C 0.20065 0.71092 0.40602
 H1027 H 0.17549 0.75742 0.33965
 H1028 H 0.24768 0.75974 0.33550
 H1029 H 0.25969 0.68498 0.41228
 H1030 H 0.19148 0.69241 0.43538
 H1031 H 0.17828 0.73160 0.37116
 H1032 H 0.18419 0.71848 0.40478
 C1033 C 0.27896 0.73514 0.63215
 C1034 C 0.27777 0.75886 0.62971
 C1035 C 0.28173 0.77267 0.64791
 C1036 C 0.28711 0.76303 0.66851
 C1037 C 0.28879 0.73932 0.67012
 N1038 N 0.28466 0.72619 0.65220
 C1039 C 0.27429 0.71949 0.61364
 N1040 N 0.28189 0.69771 0.61500
 C1041 C 0.27802 0.68219 0.59894
 C1042 C 0.26561 0.68821 0.58010
 C1043 C 0.25747 0.71051 0.57843
 C1044 C 0.26167 0.72613 0.59512
 H1045 H 0.28076 0.79092 0.64584
 H1046 H 0.29283 0.73118 0.68572
 H1047 H 0.28434 0.66510 0.60109
 H1048 H 0.24798 0.71597 0.56413
 H1049 H 0.27411 0.76685 0.61397
 H1050 H 0.25469 0.74300 0.59354
 C1051 C 0.77434 0.23657 0.13658
 C1052 C 0.77328 0.26029 0.13411
 C1053 C 0.77802 0.27412 0.15213
 C1054 C 0.78400 0.26448 0.17257
 C1055 C 0.78522 0.24074 0.17425
 N1056 N 0.78044 0.22761 0.15650
 C1057 C 0.76950 0.22091 0.11813
 N1058 N 0.77741 0.19923 0.11930
 C1059 C 0.77373 0.18379 0.10314
 C1060 C 0.76126 0.18977 0.08434
 C1061 C 0.75268 0.21193 0.08291
 C1062 C 0.75667 0.22748 0.09972
 H1063 H 0.77737 0.29237 0.14996
 H1064 H 0.78964 0.23259 0.18974
 H1065 H 0.78036 0.16679 0.10513
 H1066 H 0.74310 0.21736 0.06865
 H1067 H 0.76929 0.26826 0.11844
 H1068 H 0.74947 0.24427 0.09830
 C1069 C 0.47522 0.38431 0.51157
 C1070 C 0.47660 0.38119 0.48855
 C1071 C 0.47223 0.39936 0.47431
 C1072 C 0.46625 0.42063 0.48281
 C1073 C 0.46439 0.42292 0.50587
 N1074 N 0.46892 0.40499 0.51946
 C1075 C 0.48014 0.36573 0.52752
 N1076 N 0.47184 0.36709 0.54855
 C1077 C 0.47560 0.35072 0.56409
 C1078 C 0.48855 0.33152 0.55886
 C1079 C 0.49753 0.32994 0.53738
 C1080 C 0.49350 0.34697 0.52176
 H1081 H 0.47329 0.39672 0.45661
 H1082 H 0.45983 0.43905 0.51310
 H1083 H 0.46864 0.35283 0.58055
 H1084 H 0.50746 0.31538 0.53251
 H1085 H 0.48067 0.36491 0.48144
 H1086 H 0.50107 0.34543 0.50552
 C1087 C -0.02600 0.88550 0.01597
 C1088 C -0.02500 0.88348 -0.00720
 C1089 C -0.02909 0.90244 -0.02054
 C1090 C -0.03446 0.92339 -0.01098
 C1091 C -0.03601 0.92457 0.01218
 N1092 N -0.03172 0.90591 0.02487
 C1093 C -0.02104 0.86620 0.03112
 N1094 N -0.02804 0.86737 0.05260
 C1095 C -0.02387 0.85059 0.06762
 C1096 C -0.01178 0.83116 0.06137
 C1097 C -0.00425 0.82967 0.03935
 C1098 C -0.00872 0.84710 0.02425
 H1099 H -0.02818 0.90072 -0.03837
 H1100 H -0.04004 0.94043 0.02022
 H1101 H -0.02972 0.85264 0.08450
 H1102 H 0.00496 0.81493 0.03370
 H1103 H -0.02135 0.86751 -0.01513
 H1104 H -0.00218 0.84560 0.00759
 C1105 C 0.02385 0.61365 0.01824
 C1106 C 0.00552 0.60137 0.01009
 C1107 C 0.00920 0.58392 -0.00498
 C1108 C 0.03101 0.57869 -0.01222
 C1109 C 0.04885 0.59135 -0.00372
 N1110 N 0.04486 0.60827 0.01098
 C1111 C 0.02111 0.63279 0.03389
 N1112 N 0.03857 0.64737 0.03655
 C1113 C 0.03743 0.66550 0.05031
 C1114 C 0.01772 0.66995 0.06236
 C1115 C -0.00037 0.65500 0.06017
 C1116 C 0.00127 0.63638 0.04613
 H1117 H -0.00506 0.57447 -0.01091
 H1118 H 0.06592 0.58812 -0.00907
 H1119 H 0.05176 0.67664 0.05148
 H1120 H -0.01570 0.65752 0.06957
 H1121 H -0.01156 0.60527 0.01480
 H1122 H -0.01282 0.62495 0.04528
 C1123 C 0.53636 0.12285 0.50786
 C1124 C 0.55792 0.11551 0.50155
 C1125 C 0.56027 0.09761 0.48674
 C1126 C 0.54130 0.08675 0.47827
 C1127 C 0.52007 0.09456 0.48497
 N1128 N 0.51819 0.11205 0.49943
 C1129 C 0.53266 0.14140 0.52398
 N1130 N 0.51214 0.14334 0.53387
 C1131 C 0.50735 0.15969 0.54896
 C1132 C 0.52381 0.17539 0.55505
 C1133 C 0.54499 0.17392 0.54490
 C1134 C 0.54946 0.15711 0.52932
 H1135 H 0.57698 0.09227 0.48190
 H1136 H 0.50498 0.08650 0.47911
 H1137 H 0.49081 0.16015 0.55644
 H1138 H 0.55800 0.18602 0.54873
 H1139 H 0.57292 0.12302 0.50818
 H1140 H 0.56577 0.15686 0.52143
 C1141 C -0.02480 0.10728 0.48215
 C1142 C -0.03032 0.08533 0.47509
 C1143 C -0.03344 0.06805 0.49071
 C1144 C -0.03085 0.07239 0.51334
 C1145 C -0.02470 0.09434 0.51970
 N1146 N -0.02194 0.11099 0.50419
 C1147 C -0.02178 0.12653 0.46642
 N1148 N -0.01059 0.14529 0.47329
 C1149 C -0.00735 0.16376 0.46001
 C1150 C -0.01577 0.16417 0.43836
 C1151 C -0.02751 0.14509 0.43099
 C1152 C -0.03064 0.12636 0.44491
 H1153 H -0.03761 0.05119 0.48506
 H1154 H -0.02252 0.09839 0.53701
 H1155 H 0.00148 0.17823 0.46654
 H1156 H -0.03417 0.14455 0.41437
 H1157 H -0.03195 0.08125 0.45776
 H1158 H -0.04024 0.11221 0.43885
 C1159 C 0.47390 0.60862 0.97844
 C1160 C 0.46816 0.58683 0.97110
 C1161 C 0.46518 0.56930 0.98648
 C1162 C 0.46811 0.57324 1.00914
 C1163 C 0.47438 0.59507 1.01578
 N1164 N 0.47701 0.61195 1.00050
 C1165 C 0.47697 0.62809 0.96299
 N1166 N 0.48836 0.64664 0.97010
 C1167 C 0.49176 0.66526 0.95708
 C1168 C 0.48334 0.66604 0.93543
 C1169 C 0.47138 0.64720 0.92782
 C1170 C 0.46807 0.62832 0.94151
 H1171 H 0.46088 0.55255 0.98062
 H1172 H 0.47677 0.59883 1.03311
 H1173 H 0.50075 0.67954 0.96379
 H1174 H 0.46472 0.64696 0.91120
 H1175 H 0.46630 0.58305 0.95374
 H1176 H 0.45834 0.61435 0.93526
 C1177 C 0.51793 0.88489 0.98117
 C1178 C 0.49999 0.89473 0.99278
 C1179 C 0.50402 0.91233 1.00750
 C1180 C 0.52598 0.92042 1.01097
 C1181 C 0.54347 0.90973 0.99903
 N1182 N 0.53905 0.89252 0.98487
 C1183 C 0.51468 0.86604 0.96543
 N1184 N 0.53218 0.85182 0.96115
 C1185 C 0.53053 0.83410 0.94697
 C1186 C 0.51029 0.82984 0.93604
 C1187 C 0.49214 0.84451 0.93995
 C1188 C 0.49426 0.86261 0.95453
 H1189 H 0.48960 0.92004 1.01541
 H1190 H 0.56082 0.91424 1.00145
 H1191 H 0.54492 0.82315 0.94458
 H1192 H 0.47638 0.84222 0.93148
 H1193 H 0.48296 0.88886 0.99079
 H1194 H 0.48015 0.87393 0.95682
 C1195 C 0.02018 0.38209 0.48485
 C1196 C 0.00272 0.39481 0.49449
 C1197 C 0.00777 0.41181 0.50961
 C1198 C 0.03010 0.41616 0.51533
 C1199 C 0.04702 0.40301 0.50543
 N1200 N 0.04170 0.38655 0.49076
 C1201 C 0.01609 0.36349 0.46897
 N1202 N 0.03289 0.34830 0.46509
 C1203 C 0.03070 0.33074 0.45084
 C1204 C 0.01057 0.32758 0.43941
 C1205 C -0.00694 0.34311 0.44296
 C1206 C -0.00424 0.36111 0.45759
 H1207 H -0.00581 0.42163 0.51674
 H1208 H 0.06445 0.40551 0.50962
 H1209 H 0.04458 0.31907 0.44874
 H1210 H -0.02259 0.34157 0.43414
 H1211 H -0.01469 0.39158 0.49085
 H1212 H -0.01785 0.37307 0.45951
 C1213 C 0.38287 0.51628 0.46614
 C1214 C 0.38912 0.50986 0.44457
 C1215 C 0.40765 0.49575 0.44140
 C1216 C 0.42025 0.48813 0.45954
 C1217 C 0.41363 0.49513 0.48079
 N1218 N 0.39545 0.50882 0.48348
 C1219 C 0.36335 0.53126 0.47072
 N1220 N 0.36173 0.54135 0.49090
 C1221 C 0.34443 0.55530 0.49649
 C1222 C 0.32734 0.55993 0.48125
 C1223 C 0.32849 0.54955 0.46046
 C1224 C 0.34631 0.53515 0.45517
 H1225 H 0.41198 0.49064 0.42472
 H1226 H 0.42304 0.48997 0.49523
 H1227 H 0.34424 0.56302 0.51268
 H1228 H 0.31538 0.55224 0.44840
 H1229 H 0.38015 0.51577 0.43016
 H1230 H 0.34630 0.52699 0.43922
 C1231 C 0.88786 0.02465 -0.02290
 C1232 C 0.90807 0.03257 -0.03215
 C1233 C 0.92576 0.01752 -0.03571
 C1234 C 0.92386 -0.00563 -0.02988
 C1235 C 0.90347 -0.01263 -0.01997
 N1236 N 0.88636 0.00236 -0.01700
 C1237 C 0.86805 0.03958 -0.01922
 N1238 N 0.85040 0.03128 -0.00723
 C1239 C 0.83150 0.04361 -0.00324
 C1240 C 0.82946 0.06582 -0.01161
 C1241 C 0.84739 0.07471 -0.02408
 C1242 C 0.86656 0.06171 -0.02802
 H1243 H 0.94125 0.02447 -0.04226
 H1244 H 0.90051 -0.03017 -0.01551
 H1245 H 0.81799 0.03587 0.00617
 H1246 H 0.84673 0.09184 -0.03066
 H1247 H 0.91064 0.05020 -0.03640
 H1248 H 0.87973 0.06910 -0.03807
 C1249 C 0.60840 0.01617 0.02554
 C1250 C 0.59628 0.00775 0.00751
 C1251 C 0.57820 -0.00676 0.01129
 C1252 C 0.57219 -0.01326 0.03294
 C1253 C 0.58483 -0.00467 0.05050
 N1254 N 0.60235 0.00954 0.04641
 C1255 C 0.62785 0.03165 0.02264
 N1256 N 0.64224 0.03433 0.03983
 C1257 C 0.66049 0.04809 0.03851
 C1258 C 0.66525 0.06015 0.01889
 C1259 C 0.65050 0.05791 0.00108
 C1260 C 0.63178 0.04387 0.00289
 H1261 H 0.56880 -0.01273 -0.00277
 H1262 H 0.58100 -0.00946 0.06745
 H1263 H 0.67146 0.04930 0.05264
 H1264 H 0.65325 0.06734 -0.01417
 H1265 H 0.60070 0.01190 -0.00942
 H1266 H 0.62050 0.04306 -0.01098
 C1267 C 0.11744 0.50659 0.53308
 C1268 C 0.11631 0.48525 0.52304
 C1269 C 0.09767 0.47147 0.52671
 C1270 C 0.07963 0.47871 0.54024
 C1271 C 0.08159 0.50036 0.54994
 N1272 N 0.09999 0.51344 0.54605
 C1273 C 0.13662 0.52230 0.52949
 N1274 N 0.13405 0.54454 0.53500
 C1275 C 0.15060 0.56013 0.53192
 C1276 C 0.17124 0.55369 0.52257
 C1277 C 0.17443 0.53082 0.51709
 C1278 C 0.15732 0.51509 0.52064
 H1279 H 0.09802 0.45481 0.51936
 H1280 H 0.06823 0.50753 0.55985
 H1281 H 0.14743 0.57761 0.53635
 H1282 H 0.19030 0.52505 0.51032
 H1283 H 0.12942 0.47909 0.51220
 H1284 H 0.16061 0.49755 0.51669
 C1285 C 0.11199 0.48209 -0.03464
 C1286 C 0.09080 0.47399 -0.04081
 C1287 C 0.07304 0.48918 -0.04335
 C1288 C 0.07613 0.51241 -0.03958
 C1289 C 0.09742 0.51981 -0.03306
 N1290 N 0.11453 0.50469 -0.03081
 C1291 C 0.13153 0.46680 -0.03160
 N1292 N 0.14916 0.47416 -0.01941
 C1293 C 0.16762 0.46113 -0.01568
 C1294 C 0.16915 0.43920 -0.02452
 C1295 C 0.15132 0.43140 -0.03741
 C1296 C 0.13261 0.44511 -0.04108
 H1297 H 0.05674 0.48268 -0.04787
 H1298 H 0.10054 0.53759 -0.03005
 H1299 H 0.18114 0.46803 -0.00599
 H1300 H 0.15167 0.41456 -0.04444
 H1301 H 0.08766 0.45614 -0.04324
 H1302 H 0.11939 0.43872 -0.05144
 C1303 C 0.61465 0.98342 0.46338
 C1304 C 0.59486 0.97700 0.45270
 C1305 C 0.57799 0.99300 0.44911
 C1306 C 0.58034 1.01558 0.45632
 C1307 C 0.60035 1.02106 0.46739
 N1308 N 0.61663 1.00519 0.47042
 C1309 C 0.63350 0.96744 0.46754
 N1310 N 0.65040 0.97424 0.48098
 C1311 C 0.66839 0.96089 0.48564
 C1312 C 0.67023 0.93913 0.47651
 C1313 C 0.65310 0.93178 0.46250
 C1314 C 0.63484 0.94583 0.45789
 H1315 H 0.56272 0.98716 0.44150
 H1316 H 0.60371 1.03813 0.47283
 H1317 H 0.68136 0.96746 0.49624
 H1318 H 0.65366 0.91504 0.45525
 H1319 H 0.59195 0.95981 0.44741
 H1320 H 0.62225 0.93964 0.44672
 C1321 C 0.88793 0.97711 0.53571
 C1322 C 0.90739 0.96948 0.54641
 C1323 C 0.92541 0.98422 0.54908
 C1324 C 0.92453 1.00674 0.54101
 C1325 C 0.90463 1.01357 0.53033
 N1326 N 0.88727 0.99890 0.52810
 C1327 C 0.86815 0.96238 0.53190
 N1328 N 0.85106 0.97079 0.51941
 C1329 C 0.83243 0.95854 0.51473
 C1330 C 0.83013 0.93624 0.52276
 C1331 C 0.84740 0.92726 0.53585
 C1332 C 0.86630 0.94020 0.54053
 H1333 H 0.94040 0.97734 0.55658
 H1334 H 0.90230 1.03076 0.52440
 H1335 H 0.81940 0.96634 0.50488
 H1336 H 0.84650 0.91004 0.54219
 H1337 H 0.90923 0.95228 0.55238
 H1338 H 0.87907 0.93262 0.55077
 C1339 C 0.38755 0.47684 0.03072
 C1340 C 0.40873 0.46808 0.03630
 C1341 C 0.42672 0.48285 0.03909
 C1342 C 0.42381 0.50631 0.03617
 C1343 C 0.40246 0.51438 0.03044
 N1344 N 0.38516 0.49967 0.02788
 C1345 C 0.36782 0.46210 0.02706
 N1346 N 0.35012 0.47073 0.01561
 C1347 C 0.33150 0.45835 0.01125
 C1348 C 0.32985 0.43575 0.01861
 C1349 C 0.34774 0.42660 0.03076
 C1350 C 0.36664 0.43968 0.03511
 H1351 H 0.44303 0.47587 0.04304
 H1352 H 0.39944 0.53236 0.02818
 H1353 H 0.31795 0.46626 0.00219
 H1354 H 0.34728 0.40921 0.03666
 H1355 H 0.41173 0.45006 0.03801
 H1356 H 0.37992 0.43222 0.04483
 C1357 C 0.51612 0.47062 0.37802
 C1358 C 0.50997 0.44862 0.38487
 C1359 C 0.49571 0.44576 0.40308
 C1360 C 0.48765 0.46465 0.41474
 C1361 C 0.49426 0.48632 0.40745
 N1362 N 0.50816 0.48870 0.38962
 C1363 C 0.53156 0.47484 0.35903
 N1364 N 0.54145 0.49558 0.35704
 C1365 C 0.55600 0.50079 0.34032
 C1366 C 0.56153 0.48454 0.32431
 C1367 C 0.55130 0.46317 0.32580
 C1368 C 0.53626 0.45829 0.34297
 H1369 H 0.49090 0.42873 0.40796
 H1370 H 0.48873 0.50136 0.41612
 H1371 H 0.56356 0.51747 0.33981
 H1372 H 0.55471 0.45033 0.31349
 H1373 H 0.51628 0.43364 0.37670
 H1374 H 0.52830 0.44185 0.34327
 C1375 C 0.02089 -0.01911 0.89059
 C1376 C 0.01288 -0.00100 0.90350
 C1377 C -0.00191 -0.00530 0.92104
 C1378 C -0.00903 -0.02751 0.92575
 C1379 C -0.00077 -0.04511 0.91241
 N1380 N 0.01369 -0.04052 0.89545
 C1381 C 0.03643 -0.01582 0.87148
 N1382 N 0.03971 -0.03341 0.85728
 C1383 C 0.05343 -0.03186 0.83925
 C1384 C 0.06478 -0.01156 0.83448
 C1385 C 0.06193 0.00670 0.84899
 C1386 C 0.04795 0.00464 0.86751
 H1387 H -0.00767 0.00879 0.93100
 H1388 H -0.00606 -0.06246 0.91519
 H1389 H 0.05512 -0.04634 0.82844
 H1390 H 0.07077 0.02250 0.84615
 H1391 H 0.01753 0.01638 0.90015
 H1392 H 0.04661 0.01892 0.87853
 C1393 C 0.02335 0.02150 0.61580
 C1394 C 0.01429 0.00298 0.60441
 C1395 C -0.00043 0.00682 0.58697
 C1396 C -0.00646 0.02902 0.58086
 C1397 C 0.00295 0.04708 0.59259
 N1398 N 0.01729 0.04292 0.60957
 C1399 C 0.03858 0.01848 0.63492
 N1400 N 0.04129 0.03605 0.64917
 C1401 C 0.05457 0.03449 0.66734
 C1402 C 0.06598 0.01421 0.67215
 C1403 C 0.06377 -0.00397 0.65750
 C1404 C 0.05028 -0.00189 0.63885
 H1405 H -0.00710 -0.00763 0.57826
 H1406 H -0.00145 0.06446 0.58862
 H1407 H 0.05582 0.04892 0.67823
 H1408 H 0.07274 -0.01972 0.66031
 H1409 H 0.01798 -0.01436 0.60906
 H1410 H 0.04940 -0.01606 0.62765
 C1411 C 0.52344 0.52263 0.11094
 C1412 C 0.51452 0.50396 0.09970
 C1413 C 0.49949 0.50756 0.08246
 C1414 C 0.49306 0.52966 0.07641
 C1415 C 0.50229 0.54787 0.08808
 N1416 N 0.51692 0.54394 0.10484
 C1417 C 0.53909 0.51991 0.12975
 N1418 N 0.54159 0.53748 0.14405
 C1419 C 0.55529 0.53623 0.16192
 C1420 C 0.56742 0.51629 0.16636
 C1421 C 0.56543 0.49812 0.15165
 C1422 C 0.55145 0.49988 0.13331
 H1423 H 0.49295 0.49300 0.07380
 H1424 H 0.49757 0.56518 0.08418
 H1425 H 0.55629 0.55062 0.17287
 H1426 H 0.57491 0.48264 0.15418
 H1427 H 0.51860 0.48668 0.10429
 H1428 H 0.55072 0.48576 0.12204
 C1429 C 0.47342 -0.02754 0.11192
 C1430 C 0.46511 -0.03245 0.09078
 C1431 C 0.48004 -0.03593 0.07324
 C1432 C 0.50324 -0.03433 0.07652
 C1433 C 0.51087 -0.02880 0.09772
 N1434 N 0.49600 -0.02565 0.11463
 C1435 C 0.45846 -0.02404 0.13135
 N1436 N 0.46665 -0.01304 0.14930
 C1437 C 0.45410 -0.00924 0.16780
 C1438 C 0.43181 -0.01681 0.16909
 C1439 C 0.42309 -0.02844 0.15089
 C1440 C 0.43631 -0.03217 0.13211
 H1441 H 0.47342 -0.03963 0.05702
 H1442 H 0.52863 -0.02745 0.10098
 H1443 H 0.46167 -0.00056 0.18157
 H1444 H 0.40596 -0.03446 0.15107
 H1445 H 0.44734 -0.03331 0.08755
 H1446 H 0.42921 -0.04160 0.11861
 C1447 C 0.98520 0.46157 0.62331
 C1448 C 0.99091 0.43966 0.61614
 C1449 C 1.00505 0.43702 0.59783
 C1450 C 1.01346 0.45608 0.58646
 C1451 C 1.00748 0.47767 0.59420
 N1452 N 0.99361 0.47983 0.61205
 C1453 C 0.96956 0.46555 0.64213
 N1454 N 0.95928 0.48614 0.64374
 C1455 C 0.94450 0.49112 0.66026
 C1456 C 0.93916 0.47480 0.67651
 C1457 C 0.94976 0.45355 0.67538
 C1458 C 0.96501 0.44890 0.65835
 H1459 H 1.00936 0.42004 0.59254
 H1460 H 1.01336 0.49283 0.58577
 H1461 H 0.93664 0.50769 0.66043
 H1462 H 0.94654 0.44065 0.68786
 H1463 H 0.98421 0.42461 0.62410
 H1464 H 0.97328 0.43256 0.65826
 C1465 C 0.97794 0.53165 0.88405
 C1466 C 0.98207 0.55359 0.89183
 C1467 C 0.99717 0.55665 0.90908
 C1468 C 1.00797 0.53789 0.91885
 C1469 C 1.00329 0.51621 0.91047
 N1470 N 0.98875 0.51371 0.89346
 C1471 C 0.96245 0.52755 0.86560
 N1472 N 0.96723 0.51074 0.85099
 C1473 C 0.95364 0.50589 0.83371
 C1474 C 0.93360 0.51810 0.83051
 C1475 C 0.92827 0.53533 0.84566
 C1476 C 0.94268 0.54020 0.86307
 H1477 H 1.00062 0.57374 0.91450
 H1478 H 1.01086 0.50118 0.91761
 H1479 H 0.95875 0.49271 0.82237
 H1480 H 0.91279 0.54485 0.84434
 H1481 H 0.97413 0.56827 0.88434
 H1482 H 0.93812 0.55332 0.87473
 C1483 C 0.48861 0.03665 0.37513
 C1484 C 0.51198 0.03498 0.37228
 C1485 C 0.52601 0.03849 0.39027
 C1486 C 0.51698 0.04398 0.41105
 C1487 C 0.49365 0.04643 0.41305
 N1488 N 0.48025 0.04262 0.39534
 C1489 C 0.47272 0.03199 0.35694
 N1490 N 0.45117 0.03948 0.35885
 C1491 C 0.43545 0.03543 0.34318
 C1492 C 0.44099 0.02293 0.32419
 C1493 C 0.46308 0.01496 0.32193
 C1494 C 0.47889 0.01932 0.33821
 H1495 H 0.54398 0.03699 0.38793
 H1496 H 0.48604 0.05069 0.42881
 H1497 H 0.41855 0.04163 0.34580
 H1498 H 0.46820 0.00542 0.30749
 H1499 H 0.51954 0.03117 0.35642
 H1500 H 0.49555 0.01236 0.33617
   
