data_POSCAR
  _audit_creation_date              2014-09-24
  _audit_creation_method            'ToBaCCo'
  _symmetry_space_group_name_H-M    'P1'
  _symmetry_Int_Tables_number       1
  _symmetry_cell_setting            triclinic
  loop_
  _symmetry_equiv_pos_as_xyz
 x,y,z
_cell_length_a 43.7586
_cell_length_b 43.7137
_cell_length_c 46.7331
_cell_angle_alpha 90.000000
_cell_angle_beta 90.000100
_cell_angle_gamma 90.002300
loop_
  _atom_site_label
  _atom_site_type_symbol
  _atom_site_fract_x
  _atom_site_fract_y
  _atom_site_fract_z
C1 C 0.40319 -0.00010 0.24999
 C2 C 0.09681 0.00012 0.74999
 C3 C 0.59681 0.50009 0.24999
 C4 C 0.90319 0.49989 0.74999
 C5 C 0.24987 0.35033 1.00004
 C6 C 0.75013 0.14968 1.00003
 C7 C 0.25011 0.64968 0.50003
 C8 C 0.74991 0.85032 0.50002
 C9 C 0.00000 0.25000 0.36902
 C10 C -0.00000 0.75000 0.13099
 C11 C 0.50000 0.25000 0.63097
 C12 C 0.50000 0.75000 0.86902
 C13 C -0.25012 0.65298 1.00001
 C14 C -0.24991 0.34702 0.50001
 C15 C 0.25011 -0.15298 0.00000
 C16 C 0.24992 1.15298 0.50000
 C17 C 0.10007 0.49989 0.24997
 C18 C -0.10007 1.00010 0.24997
 C19 C 0.39993 0.50013 -0.25004
 C20 C 0.60007 -0.00012 -0.25003
 C21 C 0.00000 0.25000 0.88053
 C22 C 0.50000 0.25000 0.11948
 C23 C 0.00000 0.75000 0.61946
 C24 C 0.50000 0.75000 0.38051
 Zr25 Zr 0.02926 -0.02267 1.03881
 O26 O 0.06243 -0.00576 1.06771
 O27 O 0.02556 -0.06805 1.05171
 O28 O 0.01206 -0.02155 1.08161
 O29 O 0.08043 -0.03551 0.98339
 O30 O -0.03357 0.00346 1.07727
 O31 O 0.07288 -0.04297 1.03118
 O32 O -0.01073 -0.08777 1.02193
 O33 O -0.01782 -0.03078 1.03461
 O34 O 0.02296 -0.04514 0.99970
 O35 O 0.00845 0.02066 1.04015
 O36 O 0.04848 0.00626 1.00736
 Zr37 Zr -0.02803 0.01926 0.96322
 Zr38 Zr -0.03822 0.01252 1.03362
 Zr39 Zr 0.03960 -0.01586 0.96843
 Zr40 Zr -0.02374 -0.05170 0.99483
 O41 O 0.07689 0.00996 0.95269
 O42 O -0.06394 -0.06679 1.01587
 O43 O -0.00710 -0.02422 0.96147
 O44 O -0.04655 -0.00969 0.99473
 O45 O -0.02185 0.04207 1.00221
 O46 O 0.01899 0.02714 0.96774
 C47 C 0.00894 -0.09001 1.04228
 C48 C 0.08900 -0.04549 1.00803
 C49 C -0.01262 -0.00958 1.09206
 O50 O -0.07751 -0.01168 1.04716
 O51 O -0.07710 0.03615 1.01943
 O52 O -0.07080 0.04131 0.97126
 C53 C -0.08599 0.04561 0.99475
 O54 O 0.06187 0.05500 1.03625
 Zr55 Zr 0.02510 0.04821 1.00721
 O56 O -0.02519 0.06503 0.95117
 O57 O -0.04355 0.05330 1.05755
 O58 O 0.01231 0.08325 1.03626
 O59 O 0.06273 0.06680 0.98449
 O60 O 0.00768 0.08529 0.98394
 C61 C -0.01127 0.08754 0.96304
 O62 O -0.06222 0.00274 0.93517
 O63 O 0.04778 -0.05733 0.94627
 O64 O -0.01185 0.01621 0.92014
 O65 O 0.03247 -0.01102 0.92449
 O66 O -0.00914 -0.08849 0.96858
 O67 O -0.05647 -0.06086 0.96232
 C68 C 0.01179 0.00235 0.90958
 H69 H 0.03382 -0.06495 0.99840
 H70 H -0.06867 -0.01307 0.99161
 H71 H 0.02730 0.03997 0.95211
 H72 H 0.01243 0.03095 1.05864
 H73 H -0.06517 -0.08928 1.01341
 H74 H -0.08825 0.00161 1.06109
 H75 H -0.06268 0.05123 1.06875
 H76 H 0.02360 0.10203 1.03083
 H77 H -0.02071 -0.10694 0.97446
 H78 H 0.06694 -0.05465 0.93522
 H79 H 0.08763 -0.00318 0.93866
 H80 H 0.06290 0.08912 0.98817
 H81 H -0.06544 -0.08139 0.96542
 H82 H -0.06803 0.02003 0.92255
 H83 H 0.06833 -0.02307 1.08028
 H84 H 0.06838 0.07668 1.03573
 Zr85 Zr 0.52925 0.47734 0.53880
 O86 O 0.56242 0.49426 0.56770
 O87 O 0.52555 0.43196 0.55170
 O88 O 0.51205 0.47847 0.58160
 O89 O 0.58041 0.46450 0.48338
 O90 O 0.46642 0.50347 0.57726
 O91 O 0.57286 0.45704 0.53117
 O92 O 0.48926 0.41224 0.52193
 O93 O 0.48216 0.46923 0.53460
 O94 O 0.52294 0.45487 0.49969
 O95 O 0.50843 0.52067 0.54014
 O96 O 0.54846 0.50627 0.50735
 Zr97 Zr 0.47195 0.51927 0.46320
 Zr98 Zr 0.46177 0.51253 0.53361
 Zr99 Zr 0.53958 0.48415 0.46842
 Zr100 Zr 0.47624 0.44831 0.49482
 O101 O 0.57687 0.50997 0.45268
 O102 O 0.43605 0.43322 0.51586
 O103 O 0.49288 0.47579 0.46146
 O104 O 0.45343 0.49032 0.49472
 O105 O 0.47813 0.54208 0.50219
 O106 O 0.51897 0.52715 0.46773
 C107 C 0.50893 0.41001 0.54227
 C108 C 0.58898 0.45452 0.50802
 C109 C 0.48737 0.49044 0.59206
 O110 O 0.42247 0.48833 0.54715
 O111 O 0.42288 0.53616 0.51942
 O112 O 0.42918 0.54132 0.47125
 C113 C 0.41399 0.54562 0.49474
 O114 O 0.56186 0.55501 0.53623
 Zr115 Zr 0.52508 0.54822 0.50720
 O116 O 0.47479 0.56504 0.45116
 O117 O 0.45644 0.55332 0.55754
 O118 O 0.51230 0.58326 0.53625
 O119 O 0.56271 0.56681 0.48447
 O120 O 0.50766 0.58530 0.48392
 C121 C 0.48870 0.58755 0.46303
 O122 O 0.43776 0.50274 0.43516
 O123 O 0.54777 0.44267 0.44626
 O124 O 0.48813 0.51621 0.42013
 O125 O 0.53245 0.48898 0.42448
 O126 O 0.49085 0.41152 0.46857
 O127 O 0.44351 0.43915 0.46231
 C128 C 0.51177 0.50235 0.40957
 H129 H 0.53380 0.43506 0.49839
 H130 H 0.43131 0.48694 0.49160
 H131 H 0.52728 0.53998 0.45210
 H132 H 0.51241 0.53096 0.55863
 H133 H 0.43481 0.41073 0.51341
 H134 H 0.41173 0.50162 0.56108
 H135 H 0.43730 0.55124 0.56874
 H136 H 0.52359 0.60204 0.53082
 H137 H 0.47927 0.39307 0.47445
 H138 H 0.56693 0.44535 0.43521
 H139 H 0.58762 0.49682 0.43865
 H140 H 0.56288 0.58913 0.48815
 H141 H 0.43454 0.41862 0.46542
 H142 H 0.43195 0.52004 0.42254
 H143 H 0.56832 0.47695 0.58027
 H144 H 0.56837 0.57669 0.53571
 Zr145 Zr 0.47077 1.02266 0.53880
 O146 O 0.43759 1.00575 0.56770
 O147 O 0.47447 1.06804 0.55169
 O148 O 0.48797 1.02154 0.58159
 O149 O 0.41960 1.03551 0.48337
 O150 O 0.53360 0.99653 0.57725
 O151 O 0.42715 1.04296 0.53116
 O152 O 0.51076 1.08776 0.52192
 O153 O 0.51785 1.03077 0.53459
 O154 O 0.47707 1.04514 0.49969
 O155 O 0.49158 0.97933 0.54013
 O156 O 0.45155 0.99374 0.50734
 Zr157 Zr 0.52806 0.98074 0.46320
 Zr158 Zr 0.53825 0.98747 0.53361
 Zr159 Zr 0.46043 1.01585 0.46841
 Zr160 Zr 0.52377 1.05170 0.49482
 O161 O 0.42314 0.99003 0.45268
 O162 O 0.56397 1.06678 0.51586
 O163 O 0.50713 1.02422 0.46145
 O164 O 0.54658 1.00968 0.49472
 O165 O 0.52188 0.95793 0.50219
 O166 O 0.48104 0.97285 0.46772
 C167 C 0.49109 1.09000 0.54226
 C168 C 0.41103 1.04549 0.50801
 C169 C 0.51264 1.00957 0.59205
 O170 O 0.57754 1.01167 0.54715
 O171 O 0.57713 0.96384 0.51942
 O172 O 0.57083 0.95869 0.47124
 C173 C 0.58602 0.95438 0.49473
 O174 O 0.43816 0.94500 0.53622
 Zr175 Zr 0.47493 0.95178 0.50719
 O176 O 0.52522 0.93496 0.45115
 O177 O 0.54358 0.94669 0.55753
 O178 O 0.48772 0.91674 0.53624
 O179 O 0.43730 0.93319 0.48446
 O180 O 0.49235 0.91470 0.48392
 C181 C 0.51131 0.91245 0.46302
 O182 O 0.56225 0.99726 0.43515
 O183 O 0.45225 1.05733 0.44625
 O184 O 0.51188 0.98379 0.42012
 O185 O 0.46756 1.01102 0.42447
 O186 O 0.50917 1.08848 0.46856
 O187 O 0.55650 1.06085 0.46231
 C188 C 0.48824 0.99765 0.40956
 H189 H 0.46622 1.06495 0.49839
 H190 H 0.56870 1.01307 0.49159
 H191 H 0.47273 0.96003 0.45209
 H192 H 0.48760 0.96904 0.55862
 H193 H 0.56520 1.08927 0.51340
 H194 H 0.58828 0.99838 0.56108
 H195 H 0.56271 0.94876 0.56874
 H196 H 0.47642 0.89796 0.53081
 H197 H 0.52074 1.10693 0.47445
 H198 H 0.43309 1.05465 0.43520
 H199 H 0.41240 1.00318 0.43864
 H200 H 0.43713 0.91087 0.48814
 H201 H 0.56547 1.08138 0.46541
 H202 H 0.56806 0.97996 0.42253
 H203 H 0.43170 1.02306 0.58027
 H204 H 0.43164 0.92331 0.53570
 Zr205 Zr -0.02927 0.52267 1.03882
 O206 O -0.06245 0.50575 1.06772
 O207 O -0.02558 0.56805 1.05171
 O208 O -0.01207 0.52155 1.08161
 O209 O -0.08044 0.53551 0.98339
 O210 O 0.03356 0.49654 1.07727
 O211 O -0.07289 0.54297 1.03118
 O212 O 0.01071 0.58777 1.02194
 O213 O 0.01781 0.53078 1.03462
 O214 O -0.02297 0.54514 0.99971
 O215 O -0.00846 0.47934 1.04015
 O216 O -0.04848 0.49374 1.00737
 Zr217 Zr 0.02802 0.48074 0.96322
 Zr218 Zr 0.03821 0.48748 1.03363
 Zr219 Zr -0.03961 0.51585 0.96843
 Zr220 Zr 0.02373 0.55171 0.99484
 O221 O -0.07690 0.49003 0.95270
 O222 O 0.06393 0.56679 1.01588
 O223 O 0.00709 0.52422 0.96147
 O224 O 0.04654 0.50969 0.99474
 O225 O 0.02184 0.45794 1.00221
 O226 O -0.01899 0.47286 0.96775
 C227 C -0.00896 0.59000 1.04229
 C228 C -0.08901 0.54549 1.00803
 C229 C 0.01260 0.50958 1.09207
 O230 O 0.07750 0.51168 1.04717
 O231 O 0.07709 0.46385 1.01944
 O232 O 0.07079 0.45869 0.97127
 C233 C 0.08598 0.45439 0.99476
 O234 O -0.06188 0.44500 1.03625
 Zr235 Zr -0.02511 0.45178 1.00722
 O236 O 0.02518 0.43497 0.95118
 O237 O 0.04354 0.44670 1.05756
 O238 O -0.01232 0.41675 1.03627
 O239 O -0.06274 0.43320 0.98449
 O240 O -0.00769 0.41471 0.98394
 C241 C 0.01127 0.41246 0.96305
 O242 O 0.06221 0.49726 0.93518
 O243 O -0.04780 0.55733 0.94627
 O244 O 0.01185 0.48380 0.92014
 O245 O -0.03248 0.51102 0.92449
 O246 O 0.00912 0.58849 0.96858
 O247 O 0.05646 0.56086 0.96233
 C248 C -0.01179 0.49766 0.90959
 H249 H -0.03383 0.56495 0.99841
 H250 H 0.06866 0.51307 0.99161
 H251 H -0.02731 0.46003 0.95211
 H252 H -0.01244 0.46905 1.05865
 H253 H 0.06516 0.58928 1.01342
 H254 H 0.08824 0.49839 1.06110
 H255 H 0.06267 0.44877 1.06876
 H256 H -0.02361 0.39797 1.03084
 H257 H 0.02070 0.60694 0.97447
 H258 H -0.06695 0.55465 0.93522
 H259 H -0.08764 0.50318 0.93866
 H260 H -0.06291 0.41087 0.98817
 H261 H 0.06543 0.58139 0.96543
 H262 H 0.06802 0.47997 0.92256
 H263 H -0.06834 0.52306 1.08029
 H264 H -0.06839 0.42332 1.03573
 Zr265 Zr -0.02903 0.47735 0.46128
 O266 O -0.06220 0.49427 0.43238
 O267 O -0.02532 0.43198 0.44837
 O268 O -0.01182 0.47848 0.41849
 O269 O -0.08021 0.46448 0.51670
 O270 O 0.03379 0.50351 0.42284
 O271 O -0.07264 0.45704 0.46891
 O272 O 0.01097 0.41226 0.47813
 O273 O 0.01805 0.46924 0.46549
 O274 O -0.02273 0.45486 0.50038
 O275 O -0.00822 0.52068 0.45996
 O276 O -0.04825 0.50626 0.49274
 Zr277 Zr 0.02825 0.51926 0.53690
 Zr278 Zr 0.03844 0.51255 0.46649
 Zr279 Zr -0.03937 0.48414 0.53167
 Zr280 Zr 0.02397 0.44831 0.50526
 O281 O -0.07667 0.50995 0.54740
 O282 O 0.06418 0.43324 0.48423
 O283 O 0.00732 0.47578 0.53863
 O284 O 0.04678 0.49033 0.50537
 O285 O 0.02208 0.54208 0.49791
 O286 O -0.01876 0.52714 0.53237
 C287 C -0.00869 0.41002 0.45779
 C288 C -0.08877 0.45450 0.49205
 C289 C 0.01285 0.49047 0.40803
 O290 O 0.07774 0.48835 0.45294
 O291 O 0.07733 0.53616 0.48069
 O292 O 0.07103 0.54131 0.52886
 C293 C 0.08622 0.54561 0.50538
 O294 O -0.06165 0.55500 0.46388
 Zr295 Zr -0.02487 0.54822 0.49290
 O296 O 0.02541 0.56504 0.54894
 O297 O 0.04378 0.55334 0.44258
 O298 O -0.01210 0.58327 0.46385
 O299 O -0.06249 0.56681 0.51564
 O300 O -0.00744 0.58530 0.51617
 C301 C 0.01152 0.58755 0.53706
 O302 O 0.06244 0.50274 0.56495
 O303 O -0.04756 0.44266 0.55381
 O304 O 0.01206 0.51619 0.57997
 O305 O -0.03225 0.48895 0.57561
 O306 O 0.00936 0.41151 0.53150
 O307 O 0.05669 0.43915 0.53778
 C308 C -0.01157 0.50232 0.59052
 H309 H -0.03358 0.43505 0.50168
 H310 H 0.06890 0.48694 0.50850
 H311 H -0.02708 0.53997 0.54800
 H312 H -0.01220 0.53098 0.44147
 H313 H 0.06541 0.41075 0.48668
 H314 H 0.08848 0.50164 0.43901
 H315 H 0.06291 0.55127 0.43137
 H316 H -0.02340 0.60204 0.46929
 H317 H 0.02093 0.39306 0.52561
 H318 H -0.06672 0.44533 0.56486
 H319 H -0.08742 0.49680 0.56143
 H320 H -0.06266 0.58913 0.51197
 H321 H 0.06566 0.41862 0.53468
 H322 H 0.06824 0.52004 0.57757
 H323 H -0.06809 0.47696 0.41981
 H324 H -0.06818 0.57669 0.46441
 Zr325 Zr 0.47098 -0.02264 -0.03872
 O326 O 0.43781 -0.00572 -0.06762
 O327 O 0.47470 -0.06801 -0.05163
 O328 O 0.48819 -0.02151 -0.08151
 O329 O 0.41981 -0.03551 0.01670
 O330 O 0.53381 0.00352 -0.07716
 O331 O 0.42737 -0.04295 -0.03109
 O332 O 0.51099 -0.08773 -0.02187
 O333 O 0.51807 -0.03075 -0.03451
 O334 O 0.47728 -0.04513 0.00038
 O335 O 0.49179 0.02069 -0.04004
 O336 O 0.45176 0.00627 -0.00726
 Zr337 Zr 0.52827 0.01927 0.03690
 Zr338 Zr 0.53846 0.01256 -0.03351
 Zr339 Zr 0.46064 -0.01585 0.03167
 Zr340 Zr 0.52398 -0.05168 0.00526
 O341 O 0.42335 0.00996 0.04740
 O342 O 0.56419 -0.06675 -0.01577
 O343 O 0.50734 -0.02421 0.03863
 O344 O 0.54679 -0.00966 0.00537
 O345 O 0.52209 0.04209 -0.00209
 O346 O 0.48125 0.02715 0.03237
 C347 C 0.49133 -0.08996 -0.04222
 C348 C 0.41125 -0.04549 -0.00795
 C349 C 0.51286 -0.00952 -0.09197
 O350 O 0.57775 -0.01164 -0.04706
 O351 O 0.57735 0.03617 -0.01931
 O352 O 0.57104 0.04132 0.02887
 C353 C 0.58624 0.04562 0.00538
 O354 O 0.43836 0.05501 -0.03612
 Zr355 Zr 0.47514 0.04823 -0.00709
 O356 O 0.52543 0.06505 0.04895
 O357 O 0.54379 0.05336 -0.05742
 O358 O 0.48791 0.08328 -0.03614
 O359 O 0.43752 0.06681 0.01564
 O360 O 0.49257 0.08531 0.01617
 C361 C 0.51153 0.08756 0.03707
 O362 O 0.56245 0.00275 0.06495
 O363 O 0.45245 -0.05734 0.05381
 O364 O 0.51208 0.01620 0.07997
 O365 O 0.46776 -0.01104 0.07561
 O366 O 0.50937 -0.08848 0.03149
 O367 O 0.55670 -0.06084 0.03778
 C368 C 0.48844 0.00233 0.09052
 H369 H 0.46643 -0.06494 0.00168
 H370 H 0.56891 -0.01305 0.00850
 H371 H 0.47293 0.03997 0.04801
 H372 H 0.48782 0.03099 -0.05853
 H373 H 0.56543 -0.08924 -0.01332
 H374 H 0.58849 0.00166 -0.06099
 H375 H 0.56293 0.05129 -0.06862
 H376 H 0.47661 0.10205 -0.03071
 H377 H 0.52095 -0.10693 0.02561
 H378 H 0.43329 -0.05467 0.06486
 H379 H 0.41260 -0.00320 0.06143
 H380 H 0.43735 0.08914 0.01197
 H381 H 0.56567 -0.08137 0.03468
 H382 H 0.56825 0.02005 0.07757
 H383 H 0.43192 -0.02303 -0.08019
 H384 H 0.43183 0.07669 -0.03559
 Zr385 Zr 0.52901 0.52265 -0.03872
 O386 O 0.56218 0.50573 -0.06761
 O387 O 0.52529 0.56801 -0.05163
 O388 O 0.51180 0.52151 -0.08151
 O389 O 0.58018 0.53552 0.01670
 O390 O 0.46618 0.49648 -0.07715
 O391 O 0.57261 0.54296 -0.03109
 O392 O 0.48899 0.58774 -0.02186
 O393 O 0.48192 0.53075 -0.03451
 O394 O 0.52271 0.54513 0.00039
 O395 O 0.50820 0.47931 -0.04003
 O396 O 0.54823 0.49373 -0.00726
 Zr397 Zr 0.47172 0.48073 0.03691
 Zr398 Zr 0.46153 0.48744 -0.03350
 Zr399 Zr 0.53935 0.51586 0.03167
 Zr400 Zr 0.47601 0.55169 0.00527
 O401 O 0.57665 0.49005 0.04741
 O402 O 0.43579 0.56675 -0.01576
 O403 O 0.49265 0.52422 0.03864
 O404 O 0.45320 0.50967 0.00538
 O405 O 0.47790 0.45791 -0.00208
 O406 O 0.51874 0.47286 0.03238
 C407 C 0.50866 0.58997 -0.04221
 C408 C 0.58874 0.54550 -0.00794
 C409 C 0.48713 0.50952 -0.09196
 O410 O 0.42224 0.51164 -0.04705
 O411 O 0.42264 0.46383 -0.01930
 O412 O 0.42895 0.45869 0.02887
 C413 C 0.41375 0.45438 0.00539
 O414 O 0.56163 0.44499 -0.03611
 Zr415 Zr 0.52485 0.45177 -0.00709
 O416 O 0.47457 0.43496 0.04895
 O417 O 0.45619 0.44664 -0.05741
 O418 O 0.51208 0.41673 -0.03613
 O419 O 0.56248 0.43319 0.01565
 O420 O 0.50742 0.41470 0.01618
 C421 C 0.48846 0.41245 0.03708
 O422 O 0.43754 0.49725 0.06496
 O423 O 0.54754 0.55734 0.05382
 O424 O 0.48792 0.48380 0.07998
 O425 O 0.53223 0.51104 0.07561
 O426 O 0.49062 0.58849 0.03150
 O427 O 0.44329 0.56084 0.03779
 C428 C 0.51155 0.49767 0.09053
 H429 H 0.53356 0.56494 0.00168
 H430 H 0.43108 0.51305 0.00851
 H431 H 0.52706 0.46003 0.04801
 H432 H 0.51217 0.46901 -0.05852
 H433 H 0.43456 0.58924 -0.01331
 H434 H 0.41150 0.49834 -0.06098
 H435 H 0.43706 0.44871 -0.06861
 H436 H 0.52338 0.39795 -0.03070
 H437 H 0.47904 0.60693 0.02561
 H438 H 0.56670 0.55467 0.06487
 H439 H 0.58739 0.50320 0.06144
 H440 H 0.56264 0.41087 0.01197
 H441 H 0.43432 0.58137 0.03468
 H442 H 0.43174 0.47996 0.07758
 H443 H 0.56807 0.52304 -0.08019
 H444 H 0.56816 0.42331 -0.03558
 Zr445 Zr 0.02905 1.02265 0.46127
 O446 O 0.06222 1.00573 0.43238
 O447 O 0.02534 1.06802 0.44836
 O448 O 0.01184 1.02152 0.41848
 O449 O 0.08022 1.03551 0.51669
 O450 O -0.03378 0.99649 0.42283
 O451 O 0.07266 1.04296 0.46890
 O452 O -0.01096 1.08774 0.47813
 O453 O -0.01804 1.03076 0.46548
 O454 O 0.02275 1.04514 0.50038
 O455 O 0.00824 0.97932 0.45995
 O456 O 0.04826 0.99373 0.49273
 Zr457 Zr -0.02824 0.98074 0.53689
 Zr458 Zr -0.03843 0.98745 0.46648
 Zr459 Zr 0.03939 1.01586 0.53166
 Zr460 Zr -0.02395 1.05169 0.50525
 O461 O 0.07668 0.99004 0.54740
 O462 O -0.06416 1.06676 0.48422
 O463 O -0.00731 1.02422 0.53862
 O464 O -0.04676 1.00967 0.50537
 O465 O -0.02206 0.95792 0.49790
 O466 O 0.01878 0.97286 0.53236
 C467 C 0.00871 1.08997 0.45778
 C468 C 0.08878 1.04549 0.49205
 C469 C -0.01283 1.00953 0.40803
 O470 O -0.07772 1.01165 0.45293
 O471 O -0.07732 0.96384 0.48068
 O472 O -0.07102 0.95869 0.52885
 C473 C -0.08621 0.95439 0.50537
 O474 O 0.06167 0.94500 0.46387
 Zr475 Zr 0.02489 0.95177 0.49290
 O476 O -0.02540 0.93496 0.54894
 O477 O -0.04377 0.94666 0.44257
 O478 O 0.01212 0.91673 0.46385
 O479 O 0.06251 0.93319 0.51564
 O480 O 0.00745 0.91470 0.51616
 C481 C -0.01151 0.91245 0.53706
 O482 O -0.06242 0.99726 0.56494
 O483 O 0.04758 1.05734 0.55381
 O484 O -0.01205 0.98381 0.57996
 O485 O 0.03226 1.01104 0.57560
 O486 O -0.00934 1.08849 0.53149
 O487 O -0.05667 1.06085 0.53777
 C488 C 0.01158 0.99768 0.59052
 H489 H 0.03360 1.06495 0.50167
 H490 H -0.06888 1.01306 0.50849
 H491 H 0.02709 0.96003 0.54800
 H492 H 0.01221 0.96902 0.44146
 H493 H -0.06540 1.08925 0.48667
 H494 H -0.08846 0.99836 0.43900
 H495 H -0.06290 0.94873 0.43137
 H496 H 0.02342 0.89796 0.46928
 H497 H -0.02092 1.10694 0.52560
 H498 H 0.06674 1.05467 0.56486
 H499 H 0.08743 1.00320 0.56143
 H500 H 0.06267 0.91086 0.51196
 H501 H -0.06564 1.08138 0.53467
 H502 H -0.06823 0.97996 0.57756
 H503 H 0.06811 1.02304 0.41980
 H504 H 0.06819 0.92331 0.46441
 Zr505 Zr 0.72729 0.27920 0.21117
 O506 O 0.74409 0.31240 0.18222
 O507 O 0.68195 0.27542 0.19835
 O508 O 0.72839 0.26193 0.16840
 O509 O 0.71447 0.33047 0.26656
 O510 O 0.75345 0.21630 0.17275
 O511 O 0.70695 0.32283 0.21879
 O512 O 0.66234 0.23910 0.22819
 O513 O 0.71926 0.23206 0.21544
 O514 O 0.70491 0.27290 0.25032
 O515 O 0.77061 0.25843 0.20982
 O516 O 0.75620 0.29851 0.24257
 Zr517 Zr 0.76936 0.22200 0.28679
 Zr518 Zr 0.76256 0.21171 0.21640
 Zr519 Zr 0.73418 0.28964 0.28155
 Zr520 Zr 0.69843 0.22615 0.25525
 O521 O 0.75994 0.32702 0.29721
 O522 O 0.68339 0.18587 0.23426
 O523 O 0.72590 0.24289 0.28856
 O524 O 0.74044 0.20338 0.25532
 O525 O 0.79208 0.22818 0.24776
 O526 O 0.77717 0.26907 0.28221
 C527 C 0.66004 0.25878 0.20784
 C528 C 0.70444 0.33899 0.24193
 C529 C 0.74038 0.23724 0.15795
 O530 O 0.73842 0.17232 0.20293
 O531 O 0.78624 0.17284 0.23060
 O532 O 0.79145 0.17922 0.27876
 C533 C 0.79574 0.16400 0.25528
 O534 O 0.80482 0.31198 0.21364
 Zr535 Zr 0.79815 0.27518 0.24270
 O536 O 0.81511 0.22493 0.29876
 O537 O 0.80328 0.20641 0.19243
 O538 O 0.83313 0.26243 0.21361
 O539 O 0.81670 0.31289 0.26539
 O540 O 0.83525 0.25780 0.26592
 C541 C 0.83756 0.23884 0.28683
 O542 O 0.75296 0.18778 0.31489
 O543 O 0.69276 0.29781 0.30375
 O544 O 0.76633 0.23824 0.32986
 O545 O 0.73906 0.28256 0.32549
 O546 O 0.66170 0.24073 0.28154
 O547 O 0.68938 0.19340 0.28779
 C548 C 0.75246 0.26189 0.34040
 H549 H 0.68511 0.28374 0.25164
 H550 H 0.73709 0.18123 0.25847
 H551 H 0.78999 0.27743 0.29782
 H552 H 0.78086 0.26241 0.19131
 H553 H 0.66093 0.18460 0.23674
 H554 H 0.75170 0.16157 0.18899
 H555 H 0.80122 0.18724 0.18125
 H556 H 0.85188 0.27377 0.21901
 H557 H 0.64328 0.22911 0.27570
 H558 H 0.69543 0.31701 0.31477
 H559 H 0.74681 0.33778 0.31125
 H560 H 0.83900 0.31308 0.26168
 H561 H 0.66889 0.18437 0.28472
 H562 H 0.77026 0.18201 0.32749
 H563 H 0.72677 0.31826 0.16967
 H564 H 0.82647 0.31855 0.21414
 Zr565 Zr 0.77272 0.72079 0.71116
 O566 O 0.75591 0.68759 0.68221
 O567 O 0.81806 0.72457 0.69834
 O568 O 0.77162 0.73806 0.66839
 O569 O 0.78554 0.66952 0.76655
 O570 O 0.74656 0.78369 0.67275
 O571 O 0.79305 0.67716 0.71878
 O572 O 0.83767 0.76089 0.72818
 O573 O 0.78074 0.76793 0.71543
 O574 O 0.79510 0.72709 0.75031
 O575 O 0.72940 0.74156 0.70980
 O576 O 0.74381 0.70147 0.74256
 Zr577 Zr 0.73064 0.77798 0.78678
 Zr578 Zr 0.73745 0.78828 0.71639
 Zr579 Zr 0.76583 0.71035 0.78153
 Zr580 Zr 0.80158 0.77384 0.75524
 O581 O 0.74006 0.67296 0.79720
 O582 O 0.81662 0.81412 0.73425
 O583 O 0.77410 0.75709 0.78855
 O584 O 0.75957 0.79661 0.75531
 O585 O 0.70792 0.77181 0.74775
 O586 O 0.72284 0.73091 0.78220
 C587 C 0.83996 0.74121 0.70783
 C588 C 0.79557 0.66100 0.74191
 C589 C 0.75963 0.76275 0.65794
 O590 O 0.76159 0.82767 0.70292
 O591 O 0.71377 0.82714 0.73059
 O592 O 0.70855 0.82077 0.77875
 C593 C 0.70426 0.83599 0.75528
 O594 O 0.69519 0.68801 0.71362
 Zr595 Zr 0.70186 0.72481 0.74269
 O596 O 0.68490 0.77506 0.79875
 O597 O 0.69673 0.79358 0.69242
 O598 O 0.66688 0.73756 0.71360
 O599 O 0.68331 0.68710 0.76537
 O600 O 0.66476 0.74218 0.76591
 C601 C 0.66245 0.76114 0.78682
 O602 O 0.74705 0.81220 0.81488
 O603 O 0.80724 0.70218 0.80373
 O604 O 0.73367 0.76174 0.82984
 O605 O 0.76094 0.71742 0.82548
 O606 O 0.83831 0.75925 0.78153
 O607 O 0.81062 0.80659 0.78779
 C608 C 0.74754 0.73809 0.84039
 H609 H 0.81490 0.71625 0.75163
 H610 H 0.76291 0.81875 0.75847
 H611 H 0.71002 0.72255 0.79780
 H612 H 0.71915 0.73758 0.69129
 H613 H 0.83907 0.81539 0.73673
 H614 H 0.74831 0.83842 0.68899
 H615 H 0.69879 0.81275 0.68124
 H616 H 0.64813 0.72622 0.71899
 H617 H 0.85673 0.77088 0.77569
 H618 H 0.80458 0.68298 0.81476
 H619 H 0.75319 0.66220 0.81123
 H620 H 0.66101 0.68690 0.76166
 H621 H 0.83112 0.81561 0.78471
 H622 H 0.72974 0.81797 0.82749
 H623 H 0.77324 0.68174 0.66965
 H624 H 0.67354 0.68144 0.71412
 Zr625 Zr 0.22731 0.22104 0.78874
 O626 O 0.24411 0.18784 0.81769
 O627 O 0.18197 0.22483 0.80158
 O628 O 0.22842 0.23831 0.83152
 O629 O 0.21445 0.16976 0.73336
 O630 O 0.25350 0.28393 0.82714
 O631 O 0.20695 0.17741 0.78114
 O632 O 0.16236 0.26115 0.77174
 O633 O 0.21929 0.26818 0.78447
 O634 O 0.20491 0.22733 0.74960
 O635 O 0.27063 0.24180 0.79008
 O636 O 0.25620 0.20171 0.75734
 Zr637 Zr 0.26937 0.27821 0.71310
 Zr638 Zr 0.26259 0.28852 0.78350
 Zr639 Zr 0.23417 0.21058 0.71837
 Zr640 Zr 0.19844 0.27408 0.74466
 O641 O 0.25993 0.17319 0.70271
 O642 O 0.18342 0.31437 0.76564
 O643 O 0.22590 0.25733 0.71134
 O644 O 0.24045 0.29684 0.74457
 O645 O 0.29210 0.27204 0.75212
 O646 O 0.27716 0.23114 0.71769
 C647 C 0.16007 0.24148 0.79210
 C648 C 0.20443 0.16124 0.75800
 C649 C 0.24043 0.26300 0.84196
 O650 O 0.23846 0.32790 0.79698
 O651 O 0.28625 0.32739 0.76928
 O652 O 0.29145 0.32100 0.72112
 C653 C 0.29575 0.33623 0.74459
 O654 O 0.30482 0.18824 0.78625
 Zr655 Zr 0.29816 0.22504 0.75719
 O656 O 0.31512 0.27529 0.70113
 O657 O 0.30332 0.29382 0.80744
 O658 O 0.33314 0.23778 0.78628
 O659 O 0.31670 0.18734 0.73450
 O660 O 0.33526 0.24243 0.73398
 C661 C 0.33757 0.26138 0.71307
 O662 O 0.25296 0.31242 0.68500
 O663 O 0.19275 0.20241 0.69618
 O664 O 0.26633 0.26196 0.67004
 O665 O 0.23904 0.21765 0.67442
 O666 O 0.16170 0.25949 0.71839
 O667 O 0.18939 0.30681 0.71211
 C668 C 0.25244 0.23831 0.65950
 H669 H 0.18511 0.21649 0.74829
 H670 H 0.23711 0.31899 0.74142
 H671 H 0.28998 0.22278 0.70208
 H672 H 0.28089 0.23782 0.80859
 H673 H 0.16096 0.31564 0.76316
 H674 H 0.25174 0.33865 0.81090
 H675 H 0.30127 0.31299 0.81862
 H676 H 0.35189 0.22643 0.78088
 H677 H 0.14328 0.27111 0.72424
 H678 H 0.19541 0.18321 0.68516
 H679 H 0.24679 0.16243 0.68867
 H680 H 0.33900 0.18714 0.73820
 H681 H 0.16890 0.31584 0.71518
 H682 H 0.27027 0.31819 0.67239
 H683 H 0.22679 0.18199 0.83025
 H684 H 0.32647 0.18165 0.78574
 Zr685 Zr 0.27270 0.77898 0.28874
 O686 O 0.25589 0.81218 0.31769
 O687 O 0.31803 0.77519 0.30158
 O688 O 0.27158 0.76171 0.33152
 O689 O 0.28554 0.83025 0.23336
 O690 O 0.24651 0.71609 0.32714
 O691 O 0.29304 0.82261 0.28113
 O692 O 0.33764 0.73887 0.27174
 O693 O 0.28072 0.73184 0.28447
 O694 O 0.29509 0.77269 0.24960
 O695 O 0.22938 0.75822 0.29008
 O696 O 0.24380 0.79830 0.25733
 Zr697 Zr 0.23063 0.72180 0.21311
 Zr698 Zr 0.23742 0.71150 0.28350
 Zr699 Zr 0.26583 0.78943 0.21837
 Zr700 Zr 0.30156 0.72594 0.24467
 O701 O 0.24007 0.82682 0.20270
 O702 O 0.31659 0.68565 0.26565
 O703 O 0.27410 0.74268 0.21134
 O704 O 0.25955 0.70317 0.24458
 O705 O 0.20791 0.72797 0.25213
 O706 O 0.22284 0.76887 0.21769
 C707 C 0.33993 0.75854 0.29210
 C708 C 0.29557 0.83878 0.25800
 C709 C 0.25958 0.73702 0.34196
 O710 O 0.26155 0.67211 0.29698
 O711 O 0.21375 0.67263 0.26929
 O712 O 0.20855 0.67901 0.22112
 C713 C 0.20426 0.66378 0.24460
 O714 O 0.19518 0.81178 0.28625
 Zr715 Zr 0.20184 0.77497 0.25719
 O716 O 0.18489 0.72471 0.20113
 O717 O 0.19669 0.70619 0.30744
 O718 O 0.16686 0.76223 0.28628
 O719 O 0.18329 0.81267 0.23449
 O720 O 0.16474 0.75757 0.23398
 C721 C 0.16244 0.73862 0.21307
 O722 O 0.24704 0.68758 0.18500
 O723 O 0.30725 0.79760 0.19618
 O724 O 0.23368 0.73804 0.17004
 O725 O 0.26096 0.78236 0.17442
 O726 O 0.33830 0.74053 0.21839
 O727 O 0.31062 0.69320 0.21211
 C728 C 0.24757 0.76169 0.15950
 H729 H 0.31489 0.78352 0.24829
 H730 H 0.26290 0.68102 0.24142
 H731 H 0.21002 0.77722 0.20208
 H732 H 0.21912 0.76219 0.30859
 H733 H 0.33905 0.68438 0.26317
 H734 H 0.24827 0.66136 0.31091
 H735 H 0.19874 0.68702 0.31863
 H736 H 0.14812 0.77358 0.28088
 H737 H 0.35672 0.72890 0.22424
 H738 H 0.30459 0.81680 0.18516
 H739 H 0.25321 0.83758 0.18867
 H740 H 0.16100 0.81286 0.23820
 H741 H 0.33111 0.68418 0.21519
 H742 H 0.22974 0.68182 0.17239
 H743 H 0.27321 0.81803 0.33025
 H744 H 0.17354 0.81836 0.28574
 Zr745 Zr 0.22729 0.77922 0.71116
 O746 O 0.24409 0.81242 0.68220
 O747 O 0.18194 0.77544 0.69834
 O748 O 0.22839 0.76195 0.66838
 O749 O 0.21446 0.83049 0.76655
 O750 O 0.25344 0.71632 0.67274
 O751 O 0.20695 0.82285 0.71877
 O752 O 0.16233 0.73913 0.72818
 O753 O 0.21926 0.73208 0.71542
 O754 O 0.20490 0.77293 0.75031
 O755 O 0.27060 0.75845 0.70980
 O756 O 0.25620 0.79854 0.74256
 Zr757 Zr 0.26936 0.72203 0.78677
 Zr758 Zr 0.26255 0.71174 0.71638
 Zr759 Zr 0.23418 0.78966 0.78153
 Zr760 Zr 0.19842 0.72617 0.75523
 O761 O 0.25994 0.82705 0.79719
 O762 O 0.18338 0.68589 0.73424
 O763 O 0.22590 0.74292 0.78855
 O764 O 0.24043 0.70340 0.75531
 O765 O 0.29208 0.72820 0.74775
 O766 O 0.27716 0.76910 0.78219
 C767 C 0.16004 0.75880 0.70782
 C768 C 0.20444 0.83902 0.74191
 C769 C 0.24037 0.73726 0.65793
 O770 O 0.23842 0.67235 0.70291
 O771 O 0.28624 0.67287 0.73059
 O772 O 0.29145 0.67924 0.77875
 C773 C 0.29574 0.66402 0.75527
 O774 O 0.30481 0.81200 0.71362
 Zr775 Zr 0.29815 0.77520 0.74269
 O776 O 0.31510 0.72495 0.79874
 O777 O 0.30327 0.70643 0.69241
 O778 O 0.33312 0.76245 0.71360
 O779 O 0.31670 0.81291 0.76537
 O780 O 0.33525 0.75782 0.76591
 C781 C 0.33756 0.73887 0.78681
 O782 O 0.25295 0.68781 0.81487
 O783 O 0.19276 0.79784 0.80373
 O784 O 0.26633 0.73827 0.82984
 O785 O 0.23906 0.78259 0.82547
 O786 O 0.16170 0.74076 0.78153
 O787 O 0.18938 0.69343 0.78778
 C788 C 0.25246 0.76192 0.84039
 H789 H 0.18510 0.78376 0.75163
 H790 H 0.23709 0.68126 0.75846
 H791 H 0.28999 0.77745 0.79780
 H792 H 0.28085 0.76243 0.69129
 H793 H 0.16093 0.68463 0.73673
 H794 H 0.25169 0.66160 0.68898
 H795 H 0.30121 0.68726 0.68123
 H796 H 0.35187 0.77380 0.71899
 H797 H 0.14327 0.72914 0.77569
 H798 H 0.19543 0.81703 0.81475
 H799 H 0.24681 0.83781 0.81123
 H800 H 0.33899 0.81311 0.76165
 H801 H 0.16888 0.68440 0.78471
 H802 H 0.27026 0.68204 0.82748
 H803 H 0.22677 0.81828 0.66965
 H804 H 0.32646 0.81857 0.71411
 Zr805 Zr 0.27271 0.22079 0.21117
 O806 O 0.25590 0.18759 0.18222
 O807 O 0.31805 0.22457 0.19835
 O808 O 0.27161 0.23806 0.16839
 O809 O 0.28553 0.16952 0.26656
 O810 O 0.24655 0.28369 0.17275
 O811 O 0.29305 0.17716 0.21879
 O812 O 0.33766 0.26088 0.22819
 O813 O 0.28074 0.26793 0.21543
 O814 O 0.29509 0.22709 0.25032
 O815 O 0.22939 0.24156 0.20981
 O816 O 0.24380 0.20148 0.24257
 Zr817 Zr 0.23064 0.27799 0.28678
 Zr818 Zr 0.23744 0.28828 0.21639
 Zr819 Zr 0.26582 0.21035 0.28154
 Zr820 Zr 0.30157 0.27384 0.25524
 O821 O 0.24005 0.17297 0.29721
 O822 O 0.31661 0.31412 0.23425
 O823 O 0.27410 0.25710 0.28856
 O824 O 0.25957 0.29661 0.25532
 O825 O 0.20792 0.27181 0.24776
 O826 O 0.22283 0.23092 0.28220
 C827 C 0.33996 0.24121 0.20783
 C828 C 0.29556 0.16100 0.24192
 C829 C 0.25962 0.26275 0.15794
 O830 O 0.26158 0.32767 0.20292
 O831 O 0.21376 0.32715 0.23059
 O832 O 0.20855 0.32077 0.27876
 C833 C 0.20426 0.33600 0.25528
 O834 O 0.19518 0.18801 0.21363
 Zr835 Zr 0.20185 0.22481 0.24270
 O836 O 0.18489 0.27507 0.29876
 O837 O 0.19673 0.29358 0.19242
 O838 O 0.16687 0.23757 0.21361
 O839 O 0.18330 0.18711 0.26538
 O840 O 0.16475 0.24220 0.26592
 C841 C 0.16244 0.26115 0.28682
 O842 O 0.24705 0.31221 0.31488
 O843 O 0.30723 0.20218 0.30374
 O844 O 0.23367 0.26175 0.32985
 O845 O 0.26094 0.21743 0.32548
 O846 O 0.33830 0.25926 0.28154
 O847 O 0.31062 0.30659 0.28779
 C848 C 0.24754 0.23810 0.34040
 H849 H 0.31489 0.21625 0.25164
 H850 H 0.26291 0.31876 0.25847
 H851 H 0.21001 0.22256 0.29781
 H852 H 0.21914 0.23758 0.19130
 H853 H 0.33907 0.31538 0.23673
 H854 H 0.24831 0.33842 0.18899
 H855 H 0.19878 0.31275 0.18124
 H856 H 0.14812 0.22622 0.21900
 H857 H 0.35672 0.27088 0.27569
 H858 H 0.30457 0.18298 0.31477
 H859 H 0.25318 0.16221 0.31124
 H860 H 0.16100 0.18691 0.26167
 H861 H 0.33111 0.31561 0.28471
 H862 H 0.22974 0.31798 0.32749
 H863 H 0.27322 0.18173 0.16966
 H864 H 0.17353 0.18144 0.21413
 Zr865 Zr 0.72731 0.72101 0.28874
 O866 O 0.74412 0.68781 0.31770
 O867 O 0.68197 0.72480 0.30158
 O868 O 0.72842 0.73828 0.33152
 O869 O 0.71446 0.66974 0.23336
 O870 O 0.75349 0.78390 0.32715
 O871 O 0.70696 0.67738 0.28114
 O872 O 0.66236 0.76112 0.27175
 O873 O 0.71929 0.76815 0.28448
 O874 O 0.70491 0.72730 0.24960
 O875 O 0.77063 0.74177 0.29009
 O876 O 0.75621 0.70169 0.25734
 Zr877 Zr 0.76937 0.77820 0.21311
 Zr878 Zr 0.76258 0.78849 0.28351
 Zr879 Zr 0.73418 0.71056 0.21837
 Zr880 Zr 0.69844 0.77405 0.24467
 O881 O 0.75993 0.67318 0.20271
 O882 O 0.68341 0.81434 0.26565
 O883 O 0.72590 0.75731 0.21135
 O884 O 0.74045 0.79682 0.24458
 O885 O 0.79209 0.77202 0.25213
 O886 O 0.77717 0.73112 0.21769
 C887 C 0.66007 0.74145 0.29211
 C888 C 0.70444 0.66121 0.25800
 C889 C 0.74042 0.76297 0.34196
 O890 O 0.73845 0.82788 0.29699
 O891 O 0.78625 0.82736 0.26929
 O892 O 0.79145 0.82099 0.22113
 C893 C 0.79574 0.83621 0.24461
 O894 O 0.80482 0.68821 0.28625
 Zr895 Zr 0.79816 0.72502 0.25719
 O896 O 0.81511 0.77528 0.20113
 O897 O 0.80331 0.79380 0.30745
 O898 O 0.83314 0.73776 0.28629
 O899 O 0.81671 0.68733 0.23450
 O900 O 0.83526 0.74243 0.23399
 C901 C 0.83757 0.76138 0.21308
 O902 O 0.75296 0.81241 0.18501
 O903 O 0.69275 0.70239 0.19618
 O904 O 0.76632 0.76195 0.17005
 O905 O 0.73904 0.71763 0.17443
 O906 O 0.66170 0.75946 0.21839
 O907 O 0.68939 0.80679 0.21212
 C908 C 0.75244 0.73830 0.15950
 H909 H 0.68511 0.71647 0.24829
 H910 H 0.73711 0.81897 0.24143
 H911 H 0.78999 0.72277 0.20208
 H912 H 0.78089 0.73780 0.30860
 H913 H 0.66096 0.81561 0.26318
 H914 H 0.75173 0.83863 0.31091
 H915 H 0.80126 0.81297 0.31863
 H916 H 0.85189 0.72641 0.28089
 H917 H 0.64328 0.77109 0.22424
 H918 H 0.69541 0.68319 0.18516
 H919 H 0.74680 0.66242 0.18867
 H920 H 0.83901 0.68714 0.23820
 H921 H 0.66889 0.81581 0.21519
 H922 H 0.77026 0.81818 0.17240
 H923 H 0.72680 0.68196 0.33025
 H924 H 0.82647 0.68163 0.28574
 Zr925 Zr 0.77269 0.27898 0.78874
 O926 O 0.75588 0.31217 0.81770
 O927 O 0.81803 0.27518 0.80158
 O928 O 0.77158 0.26170 0.83152
 O929 O 0.78554 0.33025 0.73337
 O930 O 0.74650 0.21608 0.82715
 O931 O 0.79304 0.32261 0.78114
 O932 O 0.83764 0.23886 0.77175
 O933 O 0.78071 0.23184 0.78448
 O934 O 0.79509 0.27268 0.74960
 O935 O 0.72937 0.25821 0.79009
 O936 O 0.74380 0.29830 0.75734
 Zr937 Zr 0.73063 0.22180 0.71311
 Zr938 Zr 0.73741 0.21150 0.78350
 Zr939 Zr 0.76583 0.28943 0.71837
 Zr940 Zr 0.80156 0.22593 0.74467
 O941 O 0.74007 0.32682 0.70271
 O942 O 0.81658 0.18564 0.76565
 O943 O 0.77410 0.24268 0.71135
 O944 O 0.75955 0.20317 0.74458
 O945 O 0.70790 0.22797 0.75213
 O946 O 0.72284 0.26887 0.71769
 C947 C 0.83993 0.25853 0.79211
 C948 C 0.79557 0.33877 0.75801
 C949 C 0.75957 0.23701 0.84196
 O950 O 0.76154 0.17211 0.79698
 O951 O 0.71375 0.17263 0.76929
 O952 O 0.70855 0.17901 0.72112
 C953 C 0.70425 0.16378 0.74460
 O954 O 0.69518 0.31178 0.78626
 Zr955 Zr 0.70184 0.27497 0.75719
 O956 O 0.68489 0.22472 0.70113
 O957 O 0.69668 0.20619 0.80744
 O958 O 0.66685 0.26223 0.78628
 O959 O 0.68330 0.31267 0.73450
 O960 O 0.66474 0.25758 0.73398
 C961 C 0.66243 0.23862 0.71307
 O962 O 0.74704 0.18759 0.68500
 O963 O 0.80725 0.29760 0.69619
 O964 O 0.73368 0.23805 0.67005
 O965 O 0.76096 0.28236 0.67443
 O966 O 0.83830 0.24052 0.71840
 O967 O 0.81061 0.19320 0.71211
 C968 C 0.74756 0.26170 0.65950
 H969 H 0.81489 0.28352 0.74829
 H970 H 0.76289 0.18102 0.74143
 H971 H 0.71002 0.27723 0.70208
 H972 H 0.71911 0.26219 0.80860
 H973 H 0.83904 0.18437 0.76317
 H974 H 0.74826 0.16136 0.81091
 H975 H 0.69873 0.18702 0.81863
 H976 H 0.64811 0.27359 0.78088
 H977 H 0.85672 0.22890 0.72425
 H978 H 0.80460 0.31680 0.68517
 H979 H 0.75321 0.33758 0.68868
 H980 H 0.66100 0.31286 0.73820
 H981 H 0.83111 0.18417 0.71519
 H982 H 0.72974 0.18182 0.67239
 H983 H 0.77320 0.31803 0.83026
 H984 H 0.67353 0.31836 0.78574
 C985 C 0.45633 0.99999 0.32324
 C986 C 0.46845 0.97263 0.33428
 C987 C 0.48183 0.97203 0.36167
 C988 C 0.42278 1.00059 0.27572
 C989 C 0.47232 1.02637 0.36632
 C990 C 0.45923 1.02697 0.33906
 C991 C 0.43855 1.00025 0.29706
 C992 C 0.48293 0.99879 0.37829
 H993 H 0.46627 0.95152 0.32232
 H994 H 0.48924 0.95041 0.37061
 H995 H 0.47262 1.04726 0.37880
 H996 H 0.45000 1.04827 0.33092
 C997 C -0.04369 0.50000 0.82325
 C998 C -0.03156 0.47264 0.83429
 C999 C -0.01818 0.47204 0.86169
 C1000 C -0.07723 0.50059 0.77573
 C1001 C -0.02773 0.52637 0.86634
 C1002 C -0.04081 0.52697 0.83908
 C1003 C -0.06146 0.50025 0.79707
 C1004 C -0.01711 0.49880 0.87832
 H1005 H -0.03372 0.45153 0.82233
 H1006 H -0.01076 0.45042 0.87063
 H1007 H -0.02744 0.54726 0.87883
 H1008 H -0.05005 0.54827 0.83094
 C1009 C 0.04369 0.00001 0.82325
 C1010 C 0.03156 0.02737 0.83429
 C1011 C 0.01818 0.02796 0.86169
 C1012 C 0.07723 -0.00058 0.77572
 C1013 C 0.02772 -0.02637 0.86633
 C1014 C 0.04081 -0.02697 0.83907
 C1015 C 0.06146 -0.00025 0.79706
 C1016 C 0.01710 0.00121 0.87831
 H1017 H 0.03372 0.04848 0.82232
 H1018 H 0.01076 0.04958 0.87063
 H1019 H 0.02743 -0.04726 0.87882
 H1020 H 0.05004 -0.04826 0.83094
 C1021 C 0.54368 0.50000 0.32324
 C1022 C 0.53156 0.52737 0.33429
 C1023 C 0.51818 0.52797 0.36168
 C1024 C 0.57723 0.49940 0.27572
 C1025 C 0.52769 0.47363 0.36632
 C1026 C 0.54078 0.47303 0.33907
 C1027 C 0.56145 0.49974 0.29706
 C1028 C 0.51708 0.50121 0.37830
 H1029 H 0.53374 0.54848 0.32232
 H1030 H 0.51077 0.54959 0.37062
 H1031 H 0.52738 0.45274 0.37881
 H1032 H 0.55000 0.45173 0.33093
 C1033 C 0.54356 0.50010 0.17682
 C1034 C 0.54055 0.52707 0.16101
 C1035 C 0.52742 0.52644 0.13377
 C1036 C 0.57719 0.50077 0.22429
 C1037 C 0.51808 0.47207 0.13841
 C1038 C 0.53150 0.47270 0.16578
 C1039 C 0.56138 0.50040 0.20297
 C1040 C 0.51688 0.49883 0.12180
 H1041 H 0.54973 0.54839 0.16914
 H1042 H 0.52704 0.54733 0.12129
 H1043 H 0.51073 0.45043 0.12947
 H1044 H 0.53376 0.45159 0.17774
 C1045 C 0.04357 1.00012 0.67681
 C1046 C 0.04057 1.02709 0.66099
 C1047 C 0.02744 1.02645 0.63375
 C1048 C 0.07719 1.00079 0.72429
 C1049 C 0.01810 0.97208 0.63840
 C1050 C 0.03151 0.97272 0.66578
 C1051 C 0.06138 1.00042 0.70297
 C1052 C 0.01690 0.99884 0.62178
 H1053 H 0.04974 1.04841 0.66912
 H1054 H 0.02707 1.04734 0.62127
 H1055 H 0.01074 0.95044 0.62946
 H1056 H 0.03377 0.95161 0.67774
 C1057 C -0.04356 0.49989 0.67682
 C1058 C -0.04056 0.47292 0.66100
 C1059 C -0.02744 0.47355 0.63376
 C1060 C -0.07718 0.49922 0.72429
 C1061 C -0.01809 0.52792 0.63841
 C1062 C -0.03151 0.52729 0.66578
 C1063 C -0.06138 0.49959 0.70297
 C1064 C -0.01689 0.50117 0.62179
 H1065 H -0.04974 0.45160 0.66913
 H1066 H -0.02706 0.45267 0.62127
 H1067 H -0.01073 0.54956 0.62947
 H1068 H -0.03376 0.54840 0.67774
 C1069 C 0.45644 -0.00010 0.17681
 C1070 C 0.45944 -0.02707 0.16100
 C1071 C 0.47258 -0.02644 0.13376
 C1072 C 0.42281 -0.00077 0.22428
 C1073 C 0.48192 0.02793 0.13840
 C1074 C 0.46849 0.02730 0.16578
 C1075 C 0.43862 -0.00040 0.20297
 C1076 C 0.48312 0.00118 0.12179
 H1077 H 0.45027 -0.04840 0.16913
 H1078 H 0.47296 -0.04733 0.12128
 H1079 H 0.48927 0.04957 0.12946
 H1080 H 0.46623 0.04841 0.17773
 C1081 C 0.32878 0.40310 0.00383
 C1082 C 0.34654 0.40387 0.02892
 C1083 C 0.37391 0.42090 0.02995
 C1084 C 0.27774 0.36966 0.00057
 C1085 C 0.36568 0.43663 -0.01908
 C1086 C 0.33850 0.41976 -0.02002
 C1087 C 0.30090 0.38498 0.00210
 C1088 C 0.38401 0.43736 0.00581
 H1089 H 0.33940 0.39110 0.04761
 H1090 H 0.38736 0.42075 0.04939
 H1091 H 0.37240 0.44900 -0.03814
 H1092 H 0.32517 0.41953 -0.03956
 C1093 C -0.17118 0.90310 0.50381
 C1094 C -0.15342 0.90388 0.52890
 C1095 C -0.12605 0.92090 0.52992
 C1096 C -0.22222 0.86966 0.50056
 C1097 C -0.13428 0.93662 0.48090
 C1098 C -0.16145 0.91975 0.47995
 C1099 C -0.19906 0.88498 0.50208
 C1100 C -0.11596 0.93736 0.50579
 H1101 H -0.16056 0.89110 0.54759
 H1102 H -0.11261 0.92076 0.54937
 H1103 H -0.12756 0.94899 0.46183
 H1104 H -0.17478 0.91952 0.46042
 C1105 C -0.17094 0.09693 0.99630
 C1106 C -0.15319 0.09611 0.97120
 C1107 C -0.12584 0.07908 0.97018
 C1108 C -0.22199 0.13036 0.99953
 C1109 C -0.13403 0.06343 1.01923
 C1110 C -0.16120 0.08031 1.02017
 C1111 C -0.19882 0.11505 0.99801
 C1112 C -0.11573 0.06265 0.99433
 H1113 H -0.16035 0.10886 0.95249
 H1114 H -0.11240 0.07919 0.95072
 H1115 H -0.12730 0.05109 1.03831
 H1116 H -0.17452 0.08057 1.03972
 C1117 C 0.32904 0.59694 0.49629
 C1118 C 0.34679 0.59612 0.47120
 C1119 C 0.37414 0.57909 0.47017
 C1120 C 0.27799 0.63036 0.49952
 C1121 C 0.36595 0.56344 0.51922
 C1122 C 0.33878 0.58032 0.52016
 C1123 C 0.30116 0.61505 0.49801
 C1124 C 0.38425 0.56266 0.49432
 H1125 H 0.33963 0.60887 0.45248
 H1126 H 0.38758 0.57920 0.45071
 H1127 H 0.37268 0.55109 0.53830
 H1128 H 0.32546 0.58058 0.53971
 C1129 C 0.17119 0.59690 0.50381
 C1130 C 0.15343 0.59613 0.52890
 C1131 C 0.12607 0.57910 0.52993
 C1132 C 0.22224 0.63034 0.50056
 C1133 C 0.13430 0.56337 0.48091
 C1134 C 0.16147 0.58024 0.47996
 C1135 C 0.19908 0.61502 0.50209
 C1136 C 0.11597 0.56264 0.50580
 H1137 H 0.16057 0.60890 0.54760
 H1138 H 0.11262 0.57924 0.54938
 H1139 H 0.12757 0.55100 0.46184
 H1140 H 0.17480 0.58048 0.46043
 C1141 C 0.67121 0.09690 0.00382
 C1142 C 0.65345 0.09613 0.02891
 C1143 C 0.62608 0.07910 0.02994
 C1144 C 0.72226 0.13034 0.00057
 C1145 C 0.63431 0.06338 -0.01909
 C1146 C 0.66148 0.08025 -0.02003
 C1147 C 0.69909 0.11502 0.00210
 C1148 C 0.61598 0.06265 0.00581
 H1149 H 0.66059 0.10890 0.04761
 H1150 H 0.61263 0.07924 0.04939
 H1151 H 0.62759 0.05101 -0.03815
 H1152 H 0.67482 0.08048 -0.03957
 C1153 C 0.67097 0.90307 0.49629
 C1154 C 0.66123 0.91969 0.52015
 C1155 C 0.63407 0.93657 0.51921
 C1156 C 0.72202 0.86964 0.49951
 C1157 C 0.62587 0.92091 0.47016
 C1158 C 0.65323 0.90388 0.47119
 C1159 C 0.69886 0.88495 0.49800
 C1160 C 0.61576 0.93734 0.49431
 H1161 H 0.67455 0.91943 0.53970
 H1162 H 0.62733 0.94892 0.53829
 H1163 H 0.61243 0.92080 0.45071
 H1164 H 0.66038 0.89113 0.45248
 C1165 C 0.17093 0.40307 0.99631
 C1166 C 0.16119 0.41969 1.02018
 C1167 C 0.13402 0.43657 1.01924
 C1168 C 0.22198 0.36964 0.99953
 C1169 C 0.12583 0.42092 0.97019
 C1170 C 0.15319 0.40389 0.97121
 C1171 C 0.19882 0.38495 0.99802
 C1172 C 0.11572 0.43735 0.99433
 H1173 H 0.17451 0.41942 1.03972
 H1174 H 0.12729 0.44891 1.03831
 H1175 H 0.11240 0.42082 0.95073
 H1176 H 0.16034 0.39114 0.95250
 C1177 C -0.01823 0.32340 0.41818
 C1178 C -0.00146 0.32591 0.44344
 C1179 C 0.00116 0.35414 0.45677
 C1180 C -0.00924 0.27514 0.38686
 C1181 C -0.03108 0.37681 0.42007
 C1182 C -0.03355 0.34854 0.40673
 C1183 C -0.01485 0.29671 0.40148
 C1184 C -0.01297 0.37997 0.44474
 H1185 H 0.01080 0.30642 0.45203
 H1186 H 0.01488 0.35584 0.47599
 H1187 H -0.04241 0.39631 0.41048
 H1188 H -0.04614 0.34660 0.38684
 C1189 C 0.48179 -0.17659 -0.08183
 C1190 C 0.49857 -0.17408 -0.05657
 C1191 C 0.50118 -0.14585 -0.04324
 C1192 C 0.49076 -0.22485 -0.11315
 C1193 C 0.46894 -0.12318 -0.07994
 C1194 C 0.46646 -0.15145 -0.09327
 C1195 C 0.48516 -0.20328 -0.09852
 C1196 C 0.48705 -0.12002 -0.05526
 H1197 H 0.51082 -0.19357 -0.04798
 H1198 H 0.51491 -0.14415 -0.02402
 H1199 H 0.45761 -0.10368 -0.08952
 H1200 H 0.45387 -0.15339 -0.11316
 C1201 C 0.01847 -0.17666 1.08184
 C1202 C 0.00177 -0.17414 1.05653
 C1203 C -0.00083 -0.14591 1.04322
 C1204 C 0.00934 -0.22489 1.11315
 C1205 C 0.03128 -0.12323 1.08001
 C1206 C 0.03375 -0.15151 1.09333
 C1207 C 0.01502 -0.20334 1.09853
 C1208 C 0.01323 -0.12007 1.05530
 H1209 H -0.01045 -0.19364 1.04790
 H1210 H -0.01451 -0.14421 1.02397
 H1211 H 0.04257 -0.10373 1.08964
 H1212 H 0.04628 -0.15345 1.11326
 C1213 C 0.51846 0.32335 0.58182
 C1214 C 0.53374 0.34850 0.59332
 C1215 C 0.53127 0.37678 0.58001
 C1216 C 0.50934 0.27511 0.61314
 C1217 C 0.49915 0.35410 0.54321
 C1218 C 0.50176 0.32587 0.55652
 C1219 C 0.51502 0.29667 0.59852
 C1220 C 0.51322 0.37994 0.55529
 H1221 H 0.54626 0.34656 0.61325
 H1222 H 0.54255 0.39629 0.58964
 H1223 H 0.48548 0.35581 0.52396
 H1224 H 0.48954 0.30637 0.54789
 C1225 C 0.48155 1.17665 0.58182
 C1226 C 0.46627 1.15151 0.59331
 C1227 C 0.46874 1.12322 0.58000
 C1228 C 0.49067 1.22489 0.61313
 C1229 C 0.50087 1.14590 0.54321
 C1230 C 0.49826 1.17413 0.55652
 C1231 C 0.48499 1.20333 0.59851
 C1232 C 0.48680 1.12006 0.55528
 H1233 H 0.45374 1.15344 0.61324
 H1234 H 0.45746 1.10372 0.58962
 H1235 H 0.51454 1.14420 0.52396
 H1236 H 0.51048 1.19363 0.54789
 C1237 C -0.01848 0.67665 1.08184
 C1238 C -0.03376 0.65151 1.09334
 C1239 C -0.03129 0.62323 1.08003
 C1240 C -0.00935 0.72489 1.11316
 C1241 C 0.00081 0.64591 1.04322
 C1242 C -0.00179 0.67414 1.05654
 C1243 C -0.01503 0.70334 1.09854
 C1244 C -0.01325 0.62007 1.05531
 H1245 H -0.04628 0.65345 1.11327
 H1246 H -0.04257 0.60372 1.08966
 H1247 H 0.01448 0.64421 1.02397
 H1248 H 0.01042 0.69364 1.04790
 C1249 C 0.51820 0.67659 -0.08182
 C1250 C 0.53353 0.65145 -0.09326
 C1251 C 0.53105 0.62318 -0.07993
 C1252 C 0.50923 0.72486 -0.11314
 C1253 C 0.49880 0.64585 -0.04324
 C1254 C 0.50141 0.67408 -0.05657
 C1255 C 0.51483 0.70328 -0.09852
 C1256 C 0.51293 0.62002 -0.05526
 H1257 H 0.54612 0.65339 -0.11315
 H1258 H 0.54239 0.60368 -0.08951
 H1259 H 0.48507 0.64415 -0.02402
 H1260 H 0.48915 0.69357 -0.04798
 C1261 C 0.01825 1.17660 0.41817
 C1262 C 0.03356 1.15146 0.40672
 C1263 C 0.03109 1.12318 0.42005
 C1264 C 0.00925 1.22486 0.38685
 C1265 C -0.00113 1.14586 0.45677
 C1266 C 0.00148 1.17409 0.44344
 C1267 C 0.01487 1.20329 0.40147
 C1268 C 0.01299 1.12003 0.44474
 H1269 H 0.04614 1.15340 0.38683
 H1270 H 0.04241 1.10368 0.41046
 H1271 H -0.01485 1.14417 0.47599
 H1272 H -0.01077 1.19359 0.45203
 C1273 C 0.74991 0.70614 0.92673
 C1274 C 0.72256 0.71825 0.91569
 C1275 C 0.72195 0.73164 0.88829
 C1276 C 0.75054 0.67259 0.97427
 C1277 C 0.77624 0.72214 0.88364
 C1278 C 0.77685 0.70905 0.91090
 C1279 C 0.75019 0.68836 0.95293
 C1280 C 0.74868 0.73275 0.87166
 H1281 H 0.70147 0.71607 0.92765
 H1282 H 0.70035 0.73905 0.87935
 H1283 H 0.79710 0.72246 0.87115
 H1284 H 0.79813 0.69983 0.91904
 C1285 C 0.24992 0.20615 0.42674
 C1286 C 0.27687 0.20907 0.41090
 C1287 C 0.27625 0.22217 0.38364
 C1288 C 0.25058 0.17259 0.47427
 C1289 C 0.22196 0.23164 0.38829
 C1290 C 0.22257 0.21825 0.41569
 C1291 C 0.25021 0.18837 0.45293
 C1292 C 0.24868 0.23276 0.37167
 H1293 H 0.29815 0.19987 0.41904
 H1294 H 0.29711 0.22250 0.37116
 H1295 H 0.20035 0.23903 0.37936
 H1296 H 0.20149 0.21605 0.42766
 C1297 C 0.75008 0.29385 0.42674
 C1298 C 0.72314 0.29092 0.41091
 C1299 C 0.72376 0.27782 0.38365
 C1300 C 0.74943 0.32741 0.47427
 C1301 C 0.77805 0.26836 0.38830
 C1302 C 0.77744 0.28175 0.41569
 C1303 C 0.74980 0.31163 0.45293
 C1304 C 0.75132 0.26723 0.37167
 H1305 H 0.70185 0.30013 0.41905
 H1306 H 0.70289 0.27750 0.37117
 H1307 H 0.79966 0.26096 0.37936
 H1308 H 0.79852 0.28395 0.42766
 C1309 C 0.25009 0.79386 0.92673
 C1310 C 0.27744 0.78175 0.91568
 C1311 C 0.27805 0.76837 0.88828
 C1312 C 0.24945 0.82741 0.97427
 C1313 C 0.22376 0.77786 0.88363
 C1314 C 0.22315 0.79096 0.91090
 C1315 C 0.24981 0.81164 0.95292
 C1316 C 0.25132 0.76726 0.87166
 H1317 H 0.29852 0.78394 0.92765
 H1318 H 0.29965 0.76096 0.87935
 H1319 H 0.20290 0.77755 0.87115
 H1320 H 0.20187 0.80017 0.91903
 C1321 C 0.25003 0.79373 0.07320
 C1322 C 0.22264 0.78170 0.08424
 C1323 C 0.22199 0.76827 0.11162
 C1324 C 0.25076 0.82737 0.02571
 C1325 C 0.27631 0.77756 0.11627
 C1326 C 0.27697 0.79070 0.08902
 C1327 C 0.25036 0.81156 0.04704
 C1328 C 0.24872 0.76704 0.12823
 H1329 H 0.20156 0.78398 0.07228
 H1330 H 0.20036 0.76094 0.12055
 H1331 H 0.29718 0.77716 0.12875
 H1332 H 0.29828 0.79985 0.08089
 C1333 C 0.75002 0.29374 0.57321
 C1334 C 0.72263 0.28170 0.58424
 C1335 C 0.72199 0.26827 0.61162
 C1336 C 0.75074 0.32737 0.52572
 C1337 C 0.77631 0.27758 0.61627
 C1338 C 0.77696 0.29071 0.58902
 C1339 C 0.75035 0.31156 0.54704
 C1340 C 0.74871 0.26705 0.62824
 H1341 H 0.70155 0.28398 0.57228
 H1342 H 0.70036 0.26093 0.62056
 H1343 H 0.79717 0.27718 0.62875
 H1344 H 0.79827 0.29987 0.58090
 C1345 C 0.24999 0.20626 0.57320
 C1346 C 0.22305 0.20929 0.58902
 C1347 C 0.22370 0.22243 0.61626
 C1348 C 0.24928 0.17263 0.52571
 C1349 C 0.27802 0.23174 0.61162
 C1350 C 0.27737 0.21830 0.58424
 C1351 C 0.24966 0.18844 0.54704
 C1352 C 0.25129 0.23296 0.62823
 H1353 H 0.20174 0.20013 0.58089
 H1354 H 0.20283 0.22283 0.62874
 H1355 H 0.29964 0.23908 0.62055
 H1356 H 0.29846 0.21603 0.57228
 C1357 C 0.74996 0.70626 0.07320
 C1358 C 0.72303 0.70930 0.08903
 C1359 C 0.72368 0.72244 0.11627
 C1360 C 0.74924 0.67263 0.02572
 C1361 C 0.77801 0.73172 0.11162
 C1362 C 0.77735 0.71829 0.08424
 C1363 C 0.74963 0.68844 0.04704
 C1364 C 0.75128 0.73295 0.12824
 H1365 H 0.70171 0.70015 0.08090
 H1366 H 0.70282 0.72284 0.12875
 H1367 H 0.79964 0.73906 0.12055
 H1368 H 0.79844 0.71601 0.07228
 C1369 C 0.15286 0.57882 0.24616
 C1370 C 0.15359 0.59666 0.22110
 C1371 C 0.17065 0.62401 0.22007
 C1372 C 0.11939 0.52778 0.24942
 C1373 C 0.18652 0.61564 0.26903
 C1374 C 0.16961 0.58847 0.26997
 C1375 C 0.13472 0.55095 0.24789
 C1376 C 0.18720 0.63403 0.24417
 H1377 H 0.14075 0.58957 0.20243
 H1378 H 0.17047 0.63752 0.20064
 H1379 H 0.19896 0.62230 0.28806
 H1380 H 0.16942 0.57509 0.28949
 C1381 C 0.65286 0.07882 0.74615
 C1382 C 0.65359 0.09666 0.72109
 C1383 C 0.67065 0.12401 0.72006
 C1384 C 0.61939 0.02777 0.74942
 C1385 C 0.68651 0.11564 0.76903
 C1386 C 0.66961 0.08847 0.76997
 C1387 C 0.63472 0.05094 0.74788
 C1388 C 0.68720 0.13403 0.74416
 H1389 H 0.64074 0.08957 0.70242
 H1390 H 0.67047 0.13752 0.70064
 H1391 H 0.69895 0.12230 0.78806
 H1392 H 0.66942 0.07508 0.78948
 C1393 C 0.84717 0.07906 0.25373
 C1394 C 0.84641 0.09688 0.27880
 C1395 C 0.82934 0.12423 0.27983
 C1396 C 0.88063 0.02801 0.25050
 C1397 C 0.81354 0.11589 0.23084
 C1398 C 0.83046 0.08873 0.22990
 C1399 C 0.86531 0.05118 0.25202
 C1400 C 0.81282 0.13426 0.25571
 H1401 H 0.85922 0.08978 0.29749
 H1402 H 0.82948 0.13772 0.29926
 H1403 H 0.80113 0.12256 0.21179
 H1404 H 0.83068 0.07535 0.21038
 C1405 C 0.34717 0.57909 0.75372
 C1406 C 0.33046 0.58875 0.72989
 C1407 C 0.31354 0.61591 0.73082
 C1408 C 0.38063 0.52803 0.75049
 C1409 C 0.32933 0.62425 0.77981
 C1410 C 0.34640 0.59690 0.77879
 C1411 C 0.36531 0.55121 0.75201
 C1412 C 0.31282 0.63428 0.75570
 H1413 H 0.33068 0.57538 0.71036
 H1414 H 0.30113 0.62258 0.71178
 H1415 H 0.32948 0.63774 0.79925
 H1416 H 0.35921 0.58980 0.79748
 C1417 C 0.34714 0.42119 0.74615
 C1418 C 0.33039 0.41154 0.76996
 C1419 C 0.31348 0.38438 0.76902
 C1420 C 0.38061 0.47224 0.74941
 C1421 C 0.32936 0.37600 0.72006
 C1422 C 0.34642 0.40335 0.72109
 C1423 C 0.36528 0.44907 0.74787
 C1424 C 0.31280 0.36598 0.74416
 H1425 H 0.33058 0.42493 0.78947
 H1426 H 0.30104 0.37772 0.78805
 H1427 H 0.32954 0.36249 0.70064
 H1428 H 0.35926 0.41044 0.70242
 C1429 C 0.84714 0.92117 0.24616
 C1430 C 0.84641 0.90334 0.22110
 C1431 C 0.82935 0.87598 0.22007
 C1432 C 0.88061 0.97221 0.24942
 C1433 C 0.81349 0.88435 0.26904
 C1434 C 0.83040 0.91152 0.26998
 C1435 C 0.86528 0.94905 0.24789
 C1436 C 0.81280 0.86596 0.24417
 H1437 H 0.85925 0.91042 0.20243
 H1438 H 0.82953 0.86248 0.20065
 H1439 H 0.80105 0.87769 0.28807
 H1440 H 0.83059 0.92490 0.28949
 C1441 C 0.65283 0.92092 0.75373
 C1442 C 0.66954 0.91126 0.72989
 C1443 C 0.68646 0.88410 0.73083
 C1444 C 0.61937 0.97198 0.75049
 C1445 C 0.67067 0.87576 0.77982
 C1446 C 0.65360 0.90311 0.77879
 C1447 C 0.63469 0.94880 0.75201
 C1448 C 0.68719 0.86573 0.75571
 H1449 H 0.66933 0.92464 0.71037
 H1450 H 0.69888 0.87743 0.71178
 H1451 H 0.67052 0.86227 0.79925
 H1452 H 0.64079 0.91020 0.79748
 C1453 C 0.15283 0.42093 0.25373
 C1454 C 0.16954 0.41127 0.22989
 C1455 C 0.18646 0.38411 0.23083
 C1456 C 0.11937 0.47198 0.25049
 C1457 C 0.17067 0.37577 0.27982
 C1458 C 0.15360 0.40312 0.27880
 C1459 C 0.13469 0.44881 0.25201
 C1460 C 0.18718 0.36573 0.25571
 H1461 H 0.16932 0.42464 0.21037
 H1462 H 0.19887 0.37743 0.21178
 H1463 H 0.17052 0.36228 0.29926
 H1464 H 0.14079 0.41021 0.29748
 C1465 C 0.07341 0.23187 0.83145
 C1466 C 0.07601 0.24879 0.80627
 C1467 C 0.10426 0.25145 0.79304
 C1468 C 0.02513 0.24078 0.86269
 C1469 C 0.12676 0.21897 0.82966
 C1470 C 0.09847 0.21645 0.84290
 C1471 C 0.04670 0.23520 0.84809
 C1472 C 0.13001 0.23722 0.80507
 H1473 H 0.05658 0.26112 0.79768
 H1474 H 0.10603 0.26528 0.77388
 H1475 H 0.14619 0.20756 0.83925
 H1476 H 0.09645 0.20375 0.86273
 C1477 C 0.57340 0.73182 0.33144
 C1478 C 0.57601 0.74872 0.30626
 C1479 C 0.60425 0.75138 0.29302
 C1480 C 0.52512 0.74075 0.36268
 C1481 C 0.62676 0.71894 0.32967
 C1482 C 0.59847 0.71642 0.34291
 C1483 C 0.54670 0.73516 0.34808
 C1484 C 0.63000 0.73717 0.30507
 H1485 H 0.55657 0.76104 0.29765
 H1486 H 0.60602 0.76520 0.27386
 H1487 H 0.64620 0.70755 0.33927
 H1488 H 0.59646 0.70374 0.36275
 C1489 C 0.57335 0.26839 0.16855
 C1490 C 0.57596 0.25156 0.19378
 C1491 C 0.60421 0.24891 0.20700
 C1492 C 0.52509 0.25933 0.13732
 C1493 C 0.62672 0.28124 0.17026
 C1494 C 0.59842 0.28375 0.15704
 C1495 C 0.54665 0.26499 0.15191
 C1496 C 0.62997 0.26306 0.19490
 H1497 H 0.55652 0.23927 0.20241
 H1498 H 0.60598 0.23513 0.22619
 H1499 H 0.64616 0.29260 0.16062
 H1500 H 0.59640 0.29638 0.13717
 C1501 C 0.07335 0.76841 0.66853
 C1502 C 0.07596 0.75158 0.69376
 C1503 C 0.10420 0.74893 0.70698
 C1504 C 0.02509 0.75934 0.63729
 C1505 C 0.12671 0.78126 0.67024
 C1506 C 0.09841 0.78377 0.65702
 C1507 C 0.04665 0.76500 0.65189
 C1508 C 0.12996 0.76308 0.69488
 H1509 H 0.05651 0.73929 0.70239
 H1510 H 0.10598 0.73516 0.72617
 H1511 H 0.14616 0.79262 0.66060
 H1512 H 0.09640 0.79640 0.63715
 C1513 C 0.92666 0.73161 0.66854
 C1514 C 0.90159 0.71624 0.65703
 C1515 C 0.87329 0.71875 0.67025
 C1516 C 0.97491 0.74067 0.63730
 C1517 C 0.89580 0.75109 0.70698
 C1518 C 0.92405 0.74844 0.69376
 C1519 C 0.95335 0.73501 0.65189
 C1520 C 0.87004 0.73693 0.69489
 H1521 H 0.90360 0.70361 0.63716
 H1522 H 0.85385 0.70739 0.66062
 H1523 H 0.89402 0.76487 0.72617
 H1524 H 0.94349 0.76073 0.70239
 C1525 C 0.42665 0.23159 0.16855
 C1526 C 0.42404 0.24842 0.19377
 C1527 C 0.39579 0.25107 0.20700
 C1528 C 0.47491 0.24066 0.13731
 C1529 C 0.37328 0.21875 0.17025
 C1530 C 0.40158 0.21624 0.15703
 C1531 C 0.45335 0.23500 0.15191
 C1532 C 0.37003 0.23692 0.19489
 H1533 H 0.44349 0.26070 0.20242
 H1534 H 0.39402 0.26484 0.22619
 H1535 H 0.35384 0.20740 0.16061
 H1536 H 0.40359 0.20361 0.13716
 C1537 C 0.42660 0.76816 0.33144
 C1538 C 0.40154 0.78357 0.34290
 C1539 C 0.37325 0.78105 0.32966
 C1540 C 0.47488 0.75924 0.36268
 C1541 C 0.39575 0.74860 0.29302
 C1542 C 0.42399 0.75126 0.30626
 C1543 C 0.45331 0.76483 0.34808
 C1544 C 0.37000 0.76281 0.30506
 H1545 H 0.40355 0.79626 0.36274
 H1546 H 0.35381 0.79245 0.33926
 H1547 H 0.39398 0.73478 0.27386
 H1548 H 0.44343 0.73894 0.29766
 C1549 C 0.92659 0.26815 0.83146
 C1550 C 0.90153 0.28356 0.84291
 C1551 C 0.87324 0.28104 0.82968
 C1552 C 0.97487 0.25924 0.86270
 C1553 C 0.89575 0.24858 0.79304
 C1554 C 0.92399 0.25124 0.80628
 C1555 C 0.95330 0.26482 0.84810
 C1556 C 0.86999 0.26280 0.80508
 H1557 H 0.90354 0.29625 0.86275
 H1558 H 0.85380 0.29245 0.83927
 H1559 H 0.89397 0.23475 0.77388
 H1560 H 0.94342 0.23891 0.79768
 C1561 C 0.54616 1.00493 0.67743
 C1562 C 0.53943 1.03363 0.66539
 C1563 C 0.52539 1.03564 0.63837
 C1564 C 0.58040 1.00056 0.72432
 C1565 C 0.52341 0.98033 0.63611
 C1566 C 0.53722 0.97836 0.66302
 C1567 C 0.56443 1.00246 0.70319
 C1568 C 0.51807 1.00890 0.62320
 H1569 H 0.54635 1.05441 0.67623
 H1570 H 0.52229 1.05785 0.62851
 H1571 H 0.51854 0.95942 0.62452
 H1572 H 0.54230 0.95604 0.67192
 C1573 C 0.04614 0.50494 1.17744
 C1574 C 0.03717 0.47838 1.16305
 C1575 C 0.02335 0.48035 1.13614
 C1576 C 0.08039 0.50057 1.22432
 C1577 C 0.02539 0.53566 1.13838
 C1578 C 0.03944 0.53365 1.16539
 C1579 C 0.06442 0.50248 1.20320
 C1580 C 0.01804 0.50892 1.12322
 H1581 H 0.04224 0.45606 1.17195
 H1582 H 0.01846 0.45944 1.12456
 H1583 H 0.02231 0.55786 1.12851
 H1584 H 0.04638 0.55443 1.17623
 C1585 C -0.04615 -0.00495 1.17744
 C1586 C -0.03943 -0.03365 1.16539
 C1587 C -0.02539 -0.03566 1.13837
 C1588 C -0.08039 -0.00058 1.22432
 C1589 C -0.02337 0.01965 1.13614
 C1590 C -0.03719 0.02162 1.16304
 C1591 C -0.06442 -0.00248 1.20320
 C1592 C -0.01805 -0.00892 1.12322
 H1593 H -0.04637 -0.05443 1.17623
 H1594 H -0.02230 -0.05786 1.12851
 H1595 H -0.01849 0.04056 1.12455
 H1596 H -0.04226 0.04394 1.17194
 C1597 C 0.45385 0.49508 0.67743
 C1598 C 0.46057 0.46637 0.66539
 C1599 C 0.47461 0.46437 0.63837
 C1600 C 0.41961 0.49945 0.72432
 C1601 C 0.47662 0.51967 0.63612
 C1602 C 0.46280 0.52164 0.66303
 C1603 C 0.43558 0.49754 0.70319
 C1604 C 0.48194 0.49110 0.62321
 H1605 H 0.45364 0.44560 0.67623
 H1606 H 0.47770 0.44216 0.62851
 H1607 H 0.48149 0.54058 0.62454
 H1608 H 0.45773 0.54396 0.67193
 C1609 C 0.45371 0.50500 -0.17740
 C1610 C 0.46234 0.47838 -0.16291
 C1611 C 0.47610 0.48029 -0.13598
 C1612 C 0.41956 0.50078 -0.22436
 C1613 C 0.47468 0.53561 -0.13836
 C1614 C 0.46069 0.53367 -0.16541
 C1615 C 0.43549 0.50263 -0.20320
 C1616 C 0.48169 0.50884 -0.12311
 H1617 H 0.45707 0.45610 -0.17177
 H1618 H 0.48074 0.45936 -0.12433
 H1619 H 0.47799 0.55781 -0.12855
 H1620 H 0.45401 0.55448 -0.17632
 C1621 C -0.04627 1.00500 0.32260
 C1622 C -0.03758 0.97839 0.33707
 C1623 C -0.02382 0.98031 0.36400
 C1624 C -0.08043 1.00076 0.27565
 C1625 C -0.02533 1.03562 0.36164
 C1626 C -0.03933 1.03368 0.33460
 C1627 C -0.06449 1.00262 0.29680
 C1628 C -0.01827 1.00886 0.37687
 H1629 H -0.04283 0.95610 0.32821
 H1630 H -0.01914 0.95938 0.37563
 H1631 H -0.02205 1.05782 0.37146
 H1632 H -0.04605 1.05448 0.32370
 C1633 C 0.04628 0.49500 0.32260
 C1634 C 0.03761 0.52161 0.33708
 C1635 C 0.02384 0.51969 0.36401
 C1636 C 0.08043 0.49923 0.27565
 C1637 C 0.02533 0.46438 0.36165
 C1638 C 0.03933 0.46632 0.33460
 C1639 C 0.06450 0.49738 0.29681
 C1640 C 0.01829 0.49114 0.37688
 H1641 H 0.04286 0.54390 0.32821
 H1642 H 0.01917 0.54062 0.37564
 H1643 H 0.02205 0.44218 0.37146
 H1644 H 0.04604 0.44551 0.32370
 C1645 C 0.54629 -0.00499 -0.17740
 C1646 C 0.53932 -0.03367 -0.16541
 C1647 C 0.52532 -0.03561 -0.13836
 C1648 C 0.58044 -0.00077 -0.22436
 C1649 C 0.52387 0.01971 -0.13598
 C1650 C 0.53764 0.02162 -0.16291
 C1651 C 0.56451 -0.00262 -0.20320
 C1652 C 0.51830 -0.00884 -0.12312
 H1653 H 0.54601 -0.05448 -0.17632
 H1654 H 0.52202 -0.05781 -0.12855
 H1655 H 0.51922 0.04064 -0.12435
 H1656 H 0.54290 0.04391 -0.17178
 C1657 C 0.67259 0.59818 -0.00587
 C1658 C 0.66490 0.57852 0.01662
 C1659 C 0.63833 0.56073 0.01530
 C1660 C 0.72222 0.63345 -0.00152
 C1661 C 0.62691 0.58132 -0.03155
 C1662 C 0.65363 0.59924 -0.03014
 C1663 C 0.69960 0.61744 -0.00358
 C1664 C 0.61866 0.56210 -0.00862
 H1665 H 0.67925 0.57725 0.03548
 H1666 H 0.63294 0.54623 0.03340
 H1667 H 0.61230 0.58319 -0.05017
 H1668 H 0.65923 0.61428 -0.04779
 C1669 C 0.17263 1.09817 0.49413
 C1670 C 0.16494 1.07852 0.51662
 C1671 C 0.13837 1.06073 0.51530
 C1672 C 0.22227 1.13345 0.49848
 C1673 C 0.12695 1.08131 0.46844
 C1674 C 0.15368 1.09923 0.46985
 C1675 C 0.19965 1.11743 0.49642
 C1676 C 0.11870 1.06209 0.49137
 H1677 H 0.17929 1.07725 0.53548
 H1678 H 0.13297 1.04623 0.53339
 H1679 H 0.11235 1.08318 0.44982
 H1680 H 0.15928 1.11428 0.45220
 C1681 C 0.17285 -0.09815 1.00593
 C1682 C 0.16516 -0.07849 0.98345
 C1683 C 0.13859 -0.06070 0.98478
 C1684 C 0.22247 -0.13343 1.00155
 C1685 C 0.12717 -0.08131 1.03162
 C1686 C 0.15390 -0.09923 1.03020
 C1687 C 0.19986 -0.11741 1.00363
 C1688 C 0.11892 -0.06208 1.00870
 H1689 H 0.17952 -0.07720 0.96459
 H1690 H 0.13319 -0.04619 0.96669
 H1691 H 0.11256 -0.08320 1.05024
 H1692 H 0.15950 -0.11428 1.04785
 C1693 C 0.67283 0.40185 0.50592
 C1694 C 0.66514 0.42151 0.48344
 C1695 C 0.63857 0.43930 0.48477
 C1696 C 0.72245 0.36657 0.50155
 C1697 C 0.62716 0.41870 0.53162
 C1698 C 0.65388 0.40078 0.53020
 C1699 C 0.69984 0.38259 0.50362
 C1700 C 0.61890 0.43792 0.50869
 H1701 H 0.67950 0.42279 0.46458
 H1702 H 0.63317 0.45381 0.46668
 H1703 H 0.61254 0.41682 0.55024
 H1704 H 0.65948 0.38573 0.54784
 C1705 C -0.17261 0.40182 0.49413
 C1706 C -0.16493 0.42148 0.51662
 C1707 C -0.13835 0.43927 0.51530
 C1708 C -0.22225 0.36655 0.49848
 C1709 C -0.12694 0.41869 0.46844
 C1710 C -0.15366 0.40076 0.46986
 C1711 C -0.19963 0.38257 0.49642
 C1712 C -0.11868 0.43790 0.49138
 H1713 H -0.17928 0.42275 0.53548
 H1714 H -0.13296 0.45377 0.53339
 H1715 H -0.11233 0.41682 0.44982
 H1716 H -0.15927 0.38572 0.45220
 C1717 C 0.32740 -0.09818 -0.00587
 C1718 C 0.33509 -0.07852 0.01662
 C1719 C 0.36166 -0.06073 0.01530
 C1720 C 0.27777 -0.13345 -0.00152
 C1721 C 0.37308 -0.08131 -0.03156
 C1722 C 0.34636 -0.09923 -0.03014
 C1723 C 0.30039 -0.11744 -0.00358
 C1724 C 0.38133 -0.06209 -0.00862
 H1725 H 0.32074 -0.07725 0.03548
 H1726 H 0.36705 -0.04622 0.03339
 H1727 H 0.38769 -0.08318 -0.05018
 H1728 H 0.34075 -0.11428 -0.04780
 C1729 C 0.32718 1.09816 0.50592
 C1730 C 0.34614 1.09923 0.53019
 C1731 C 0.37286 1.08131 0.53161
 C1732 C 0.27756 1.13343 0.50155
 C1733 C 0.36145 1.06070 0.48476
 C1734 C 0.33487 1.07849 0.48343
 C1735 C 0.30017 1.11742 0.50362
 C1736 C 0.38112 1.06208 0.50868
 H1737 H 0.34053 1.11427 0.54784
 H1738 H 0.38747 1.08319 0.55023
 H1739 H 0.36684 1.04620 0.46667
 H1740 H 0.32052 1.07722 0.46458
 C1741 C -0.17286 0.59815 1.00593
 C1742 C -0.15391 0.59923 1.03020
 C1743 C -0.12718 0.58131 1.03163
 C1744 C -0.22248 0.63343 1.00155
 C1745 C -0.13860 0.56070 0.98478
 C1746 C -0.16518 0.57848 0.98345
 C1747 C -0.19987 0.61741 1.00363
 C1748 C -0.11893 0.56208 1.00870
 H1749 H -0.15951 0.61428 1.04785
 H1750 H -0.11257 0.58320 1.05025
 H1751 H -0.13321 0.54618 0.96670
 H1752 H -0.17953 0.57720 0.96460
 C1753 C 0.02195 0.67598 0.57236
 C1754 C 0.00859 0.67272 0.54548
 C1755 C 0.00638 0.64388 0.53331
 C1756 C 0.00963 0.72485 0.60182
 C1757 C 0.03291 0.62209 0.57424
 C1758 C 0.03500 0.65101 0.58640
 C1759 C 0.01654 0.70314 0.58788
 C1760 C 0.01743 0.61820 0.54817
 H1761 H -0.00182 0.69210 0.53478
 H1762 H -0.00513 0.64158 0.51291
 H1763 H 0.04191 0.60271 0.58596
 H1764 H 0.04502 0.65358 0.60747
 C1765 C 0.52196 0.17598 0.07237
 C1766 C 0.50859 0.17273 0.04549
 C1767 C 0.50639 0.14389 0.03332
 C1768 C 0.50963 0.22485 0.10183
 C1769 C 0.53292 0.12210 0.07425
 C1770 C 0.53501 0.15102 0.08640
 C1771 C 0.51654 0.20314 0.08789
 C1772 C 0.51744 0.11821 0.04817
 H1773 H 0.49818 0.19211 0.03479
 H1774 H 0.49487 0.14159 0.01292
 H1775 H 0.54193 0.10271 0.08596
 H1776 H 0.54504 0.15359 0.10747
 C1777 C -0.02170 0.17594 0.92768
 C1778 C -0.00823 0.17270 0.95452
 C1779 C -0.00602 0.14387 0.96671
 C1780 C -0.00953 0.22482 0.89818
 C1781 C -0.03273 0.12207 0.92588
 C1782 C -0.03483 0.15097 0.91371
 C1783 C -0.01636 0.20310 0.91213
 C1784 C -0.01716 0.11819 0.95192
 H1785 H 0.00223 0.19208 0.96516
 H1786 H 0.00556 0.14158 0.98708
 H1787 H -0.04180 0.10268 0.91422
 H1788 H -0.04493 0.15353 0.89267
 C1789 C 0.47827 0.67595 0.42767
 C1790 C 0.46515 0.65098 0.41370
 C1791 C 0.46725 0.62208 0.42587
 C1792 C 0.49046 0.72482 0.39817
 C1793 C 0.49394 0.64388 0.46670
 C1794 C 0.49173 0.67271 0.45452
 C1795 C 0.48362 0.70310 0.41213
 C1796 C 0.48281 0.61820 0.45191
 H1797 H 0.45505 0.65354 0.39266
 H1798 H 0.45818 0.60269 0.41420
 H1799 H 0.50553 0.64159 0.48707
 H1800 H 0.50220 0.69209 0.46516
 C1801 C 0.52174 0.82406 0.42766
 C1802 C 0.53485 0.84902 0.41369
 C1803 C 0.53276 0.87793 0.42586
 C1804 C 0.50955 0.77518 0.39816
 C1805 C 0.50607 0.85613 0.46670
 C1806 C 0.50828 0.82730 0.45451
 C1807 C 0.51639 0.79690 0.41212
 C1808 C 0.51720 0.88181 0.45190
 H1809 H 0.54495 0.84646 0.39264
 H1810 H 0.54182 0.89732 0.41419
 H1811 H 0.49449 0.85841 0.48707
 H1812 H 0.49782 0.80791 0.46516
 C1813 C 0.02170 0.32406 0.92769
 C1814 C 0.03483 0.34903 0.91372
 C1815 C 0.03273 0.37793 0.92589
 C1816 C 0.00953 0.27518 0.89818
 C1817 C 0.00602 0.35613 0.96671
 C1818 C 0.00823 0.32730 0.95453
 C1819 C 0.01636 0.29691 0.91214
 C1820 C 0.01716 0.38181 0.95192
 H1821 H 0.04494 0.34647 0.89268
 H1822 H 0.04181 0.39732 0.91423
 H1823 H -0.00557 0.35842 0.98708
 H1824 H -0.00224 0.30792 0.96517
 C1825 C 0.47804 0.32402 0.07238
 C1826 C 0.46500 0.34899 0.08642
 C1827 C 0.46708 0.37790 0.07426
 C1828 C 0.49037 0.27515 0.10184
 C1829 C 0.49360 0.35612 0.03333
 C1830 C 0.49140 0.32728 0.04550
 C1831 C 0.48346 0.29686 0.08790
 C1832 C 0.48256 0.38180 0.04818
 H1833 H 0.45498 0.34642 0.10749
 H1834 H 0.45808 0.39729 0.08598
 H1835 H 0.50512 0.35841 0.01292
 H1836 H 0.50181 0.30789 0.03480
 C1837 C -0.02195 0.82402 0.57235
 C1838 C -0.03500 0.84899 0.58638
 C1839 C -0.03291 0.87791 0.57423
 C1840 C -0.00963 0.77515 0.60181
 C1841 C -0.00637 0.85612 0.53330
 C1842 C -0.00858 0.82728 0.54547
 C1843 C -0.01654 0.79686 0.58787
 C1844 C -0.01742 0.88180 0.54816
 H1845 H -0.04503 0.84641 0.60746
 H1846 H -0.04191 0.89729 0.58595
 H1847 H 0.00515 0.85842 0.51290
 H1848 H 0.00183 0.80790 0.53478
 C1849 C 0.25497 0.29636 0.07258
 C1850 C 0.28366 0.28969 0.08464
 C1851 C 0.28567 0.27563 0.11165
 C1852 C 0.25057 0.33062 0.02569
 C1853 C 0.23043 0.27349 0.11386
 C1854 C 0.22845 0.28732 0.08696
 C1855 C 0.25249 0.31464 0.04681
 C1856 C 0.25898 0.26821 0.12679
 H1857 H 0.30440 0.29668 0.07381
 H1858 H 0.30786 0.27258 0.12152
 H1859 H 0.20954 0.26855 0.12543
 H1860 H 0.20615 0.29235 0.07805
 C1861 C 0.75500 0.79636 0.57257
 C1862 C 0.78368 0.78968 0.58463
 C1863 C 0.78569 0.77562 0.61165
 C1864 C 0.75061 0.83063 0.52567
 C1865 C 0.73045 0.77351 0.61386
 C1866 C 0.72847 0.78735 0.58696
 C1867 C 0.75252 0.81465 0.54681
 C1868 C 0.75899 0.76822 0.62679
 H1869 H 0.80443 0.79666 0.57380
 H1870 H 0.80787 0.77255 0.62152
 H1871 H 0.70955 0.76859 0.62543
 H1872 H 0.70617 0.79239 0.57804
 C1873 C 0.24501 0.70365 0.57257
 C1874 C 0.27154 0.71267 0.58695
 C1875 C 0.26956 0.72651 0.61385
 C1876 C 0.24941 0.66938 0.52568
 C1877 C 0.21431 0.72438 0.61164
 C1878 C 0.21632 0.71032 0.58463
 C1879 C 0.24749 0.68536 0.54680
 C1880 C 0.24101 0.73179 0.62678
 H1881 H 0.29383 0.70764 0.57803
 H1882 H 0.29045 0.73145 0.62542
 H1883 H 0.19213 0.72744 0.62152
 H1884 H 0.19558 0.70333 0.57381
 C1885 C 0.74503 0.20364 0.07258
 C1886 C 0.71634 0.21031 0.08464
 C1887 C 0.71433 0.22437 0.11165
 C1888 C 0.74943 0.16937 0.02569
 C1889 C 0.76957 0.22649 0.11387
 C1890 C 0.77155 0.21266 0.08697
 C1891 C 0.74751 0.18535 0.04681
 C1892 C 0.74103 0.23178 0.12680
 H1893 H 0.69559 0.20333 0.07381
 H1894 H 0.69214 0.22743 0.12152
 H1895 H 0.79046 0.23142 0.12544
 H1896 H 0.79385 0.20762 0.07805
 C1897 C 0.75505 0.20351 0.92739
 C1898 C 0.78370 0.21044 0.91538
 C1899 C 0.78564 0.22445 0.88834
 C1900 C 0.75080 0.16933 0.97435
 C1901 C 0.73039 0.22600 0.88599
 C1902 C 0.72847 0.21222 0.91292
 C1903 C 0.75266 0.18528 0.95319
 C1904 C 0.75891 0.23154 0.87312
 H1905 H 0.80448 0.20370 0.92628
 H1906 H 0.80782 0.22773 0.87852
 H1907 H 0.70948 0.23070 0.87437
 H1908 H 0.70620 0.20698 0.92179
 C1909 C 0.25504 0.70351 0.42739
 C1910 C 0.22847 0.71225 0.41292
 C1911 C 0.23039 0.72603 0.38599
 C1912 C 0.25078 0.66933 0.47434
 C1913 C 0.28565 0.72444 0.38833
 C1914 C 0.28370 0.71042 0.41537
 C1915 C 0.25265 0.68528 0.45319
 C1916 C 0.25892 0.73155 0.37311
 H1917 H 0.20620 0.70703 0.42180
 H1918 H 0.20949 0.73075 0.37437
 H1919 H 0.30783 0.72769 0.37851
 H1920 H 0.30448 0.70366 0.42626
 C1921 C 0.74496 0.79648 0.42739
 C1922 C 0.71631 0.78958 0.41537
 C1923 C 0.71435 0.77557 0.38833
 C1924 C 0.74923 0.83067 0.47434
 C1925 C 0.76961 0.77395 0.38600
 C1926 C 0.77153 0.78773 0.41292
 C1927 C 0.74736 0.81472 0.45319
 C1928 C 0.74108 0.76844 0.37312
 H1929 H 0.69553 0.79635 0.42626
 H1930 H 0.69217 0.77232 0.37850
 H1931 H 0.79052 0.76922 0.37438
 H1932 H 0.79381 0.79294 0.42180
 C1933 C 0.24495 0.29650 0.92739
 C1934 C 0.21630 0.28956 0.91538
 C1935 C 0.21436 0.27555 0.88834
 C1936 C 0.24920 0.33067 0.97435
 C1937 C 0.26961 0.27402 0.88599
 C1938 C 0.27153 0.28780 0.91291
 C1939 C 0.24733 0.31473 0.95319
 C1940 C 0.24109 0.26847 0.87311
 H1941 H 0.19551 0.29629 0.92628
 H1942 H 0.19217 0.27227 0.87852
 H1943 H 0.29052 0.26933 0.87436
 H1944 H 0.29380 0.29304 0.92178
 C1945 C 0.84836 0.42259 0.75592
 C1946 C 0.84947 0.40356 0.78016
 C1947 C 0.83151 0.37685 0.78158
 C1948 C 0.88367 0.47222 0.75154
 C1949 C 0.81080 0.38843 0.73481
 C1950 C 0.82863 0.41499 0.73348
 C1951 C 0.86765 0.44960 0.75362
 C1952 C 0.81221 0.36868 0.75869
 H1953 H 0.86457 0.40910 0.79777
 H1954 H 0.83341 0.36218 0.80017
 H1955 H 0.79623 0.38310 0.71676
 H1956 H 0.82732 0.42940 0.71466
 C1957 C 0.34836 0.92259 0.25591
 C1958 C 0.34946 0.90357 0.28015
 C1959 C 0.33150 0.87686 0.28158
 C1960 C 0.38367 0.97223 0.25154
 C1961 C 0.31081 0.88843 0.23480
 C1962 C 0.32863 0.91499 0.23347
 C1963 C 0.36765 0.94960 0.25362
 C1964 C 0.31221 0.86869 0.25868
 H1965 H 0.36456 0.90912 0.29777
 H1966 H 0.33340 0.86219 0.30016
 H1967 H 0.29625 0.88310 0.21674
 H1968 H 0.32734 0.92940 0.21464
 C1969 C 0.15166 0.92284 0.74402
 C1970 C 0.15054 0.90381 0.71978
 C1971 C 0.16850 0.87710 0.71835
 C1972 C 0.11635 0.97246 0.74842
 C1973 C 0.18923 0.88867 0.76511
 C1974 C 0.17141 0.91524 0.76645
 C1975 C 0.13237 0.94984 0.74633
 C1976 C 0.18781 0.86893 0.74123
 H1977 H 0.13543 0.90935 0.70217
 H1978 H 0.16658 0.86243 0.69977
 H1979 H 0.20381 0.88334 0.78316
 H1980 H 0.17272 0.92965 0.78527
 C1981 C 0.65166 0.42281 0.24403
 C1982 C 0.65055 0.40379 0.21979
 C1983 C 0.66850 0.37708 0.21836
 C1984 C 0.61635 0.47243 0.24842
 C1985 C 0.68922 0.38865 0.26513
 C1986 C 0.67140 0.41521 0.26646
 C1987 C 0.63237 0.44982 0.24633
 C1988 C 0.68781 0.36891 0.24125
 H1989 H 0.63544 0.40933 0.20218
 H1990 H 0.66659 0.36241 0.19977
 H1991 H 0.70379 0.38331 0.28318
 H1992 H 0.67271 0.42962 0.28529
 C1993 C 0.65164 0.57740 0.25592
 C1994 C 0.65054 0.59642 0.28016
 C1995 C 0.66850 0.62313 0.28158
 C1996 C 0.61634 0.52777 0.25154
 C1997 C 0.68920 0.61156 0.23480
 C1998 C 0.67137 0.58500 0.23347
 C1999 C 0.63235 0.55039 0.25362
 C2000 C 0.68780 0.63130 0.25869
 H2001 H 0.63544 0.59088 0.29778
 H2002 H 0.66660 0.63780 0.30017
 H2003 H 0.70376 0.61690 0.21674
 H2004 H 0.67267 0.57059 0.21464
 C2005 C 0.15164 0.07742 0.75592
 C2006 C 0.17137 0.08502 0.73348
 C2007 C 0.18920 0.11158 0.73481
 C2008 C 0.11633 0.02779 0.75154
 C2009 C 0.16849 0.12316 0.78158
 C2010 C 0.15053 0.09645 0.78016
 C2011 C 0.13235 0.05041 0.75362
 C2012 C 0.18779 0.13133 0.75869
 H2013 H 0.17268 0.07061 0.71465
 H2014 H 0.20377 0.11691 0.71675
 H2015 H 0.16658 0.13783 0.80016
 H2016 H 0.13543 0.09091 0.79777
 C2017 C 0.34834 0.07718 0.24403
 C2018 C 0.34945 0.09620 0.21979
 C2019 C 0.33149 0.12291 0.21836
 C2020 C 0.38365 0.02756 0.24842
 C2021 C 0.31078 0.11135 0.26513
 C2022 C 0.32860 0.08478 0.26646
 C2023 C 0.36763 0.05017 0.24633
 C2024 C 0.31219 0.13108 0.24124
 H2025 H 0.36456 0.09066 0.20217
 H2026 H 0.33340 0.13758 0.19977
 H2027 H 0.29621 0.11668 0.28318
 H2028 H 0.32729 0.07038 0.28529
 C2029 C 0.84834 0.57717 0.74402
 C2030 C 0.84946 0.59620 0.71978
 C2031 C 0.83151 0.62291 0.71835
 C2032 C 0.88365 0.52755 0.74842
 C2033 C 0.81077 0.61134 0.76511
 C2034 C 0.82859 0.58477 0.76645
 C2035 C 0.86763 0.55017 0.74633
 C2036 C 0.81220 0.63108 0.74123
 H2037 H 0.86458 0.59066 0.70217
 H2038 H 0.83343 0.63758 0.69977
 H2039 H 0.79620 0.61667 0.78316
 H2040 H 0.82728 0.57036 0.78527
 C2041 C 0.92601 0.77194 0.17804
 C2042 C 0.92268 0.75845 0.20487
 C2043 C 0.89383 0.75618 0.21694
 C2044 C 0.97488 0.75966 0.14864
 C2045 C 0.87219 0.78291 0.17605
 C2046 C 0.90111 0.78506 0.16399
 C2047 C 0.95318 0.76656 0.16257
 C2048 C 0.86822 0.76730 0.20206
 H2049 H 0.94201 0.74798 0.21557
 H2050 H 0.89147 0.74457 0.23730
 H2051 H 0.85286 0.79197 0.16432
 H2052 H 0.90375 0.79518 0.14296
 C2053 C 0.42601 0.27192 0.67802
 C2054 C 0.40111 0.28505 0.66397
 C2055 C 0.37219 0.28291 0.67603
 C2056 C 0.47488 0.25965 0.64861
 C2057 C 0.39383 0.25617 0.71692
 C2058 C 0.42267 0.25842 0.70484
 C2059 C 0.45318 0.26655 0.66254
 C2060 C 0.36822 0.26730 0.70204
 H2061 H 0.40375 0.29517 0.64294
 H2062 H 0.35286 0.29198 0.66430
 H2063 H 0.39147 0.24455 0.73727
 H2064 H 0.44200 0.24795 0.71554
 C2065 C 0.42597 0.72832 0.82192
 C2066 C 0.42265 0.74193 0.79514
 C2067 C 0.39381 0.74419 0.78304
 C2068 C 0.47485 0.74045 0.85137
 C2069 C 0.37216 0.71727 0.82382
 C2070 C 0.40107 0.71512 0.83591
 C2071 C 0.45313 0.73363 0.83742
 C2072 C 0.36820 0.73297 0.79786
 H2073 H 0.44198 0.75246 0.78449
 H2074 H 0.39147 0.75588 0.76272
 H2075 H 0.35283 0.70813 0.83550
 H2076 H 0.40370 0.70491 0.85690
 C2077 C 0.92597 0.22829 0.32193
 C2078 C 0.92265 0.24188 0.29515
 C2079 C 0.89382 0.24415 0.28305
 C2080 C 0.97485 0.24044 0.35137
 C2081 C 0.87216 0.21726 0.32384
 C2082 C 0.90108 0.21510 0.33593
 C2083 C 0.95314 0.23361 0.33743
 C2084 C 0.86821 0.23294 0.29787
 H2085 H 0.94198 0.25240 0.28449
 H2086 H 0.89147 0.25583 0.26273
 H2087 H 0.85283 0.20812 0.33553
 H2088 H 0.90370 0.20491 0.35692
 C2089 C 0.07403 0.27171 0.32192
 C2090 C 0.07735 0.25812 0.29514
 C2091 C 0.10618 0.25585 0.28304
 C2092 C 0.02515 0.25956 0.35137
 C2093 C 0.12784 0.28275 0.32383
 C2094 C 0.09892 0.28490 0.33592
 C2095 C 0.04686 0.26640 0.33743
 C2096 C 0.13179 0.26706 0.29786
 H2097 H 0.05802 0.24760 0.28448
 H2098 H 0.10853 0.24417 0.26272
 H2099 H 0.14717 0.29188 0.33552
 H2100 H 0.09630 0.29510 0.35691
 C2101 C 0.57403 0.77168 0.82193
 C2102 C 0.57735 0.75808 0.79515
 C2103 C 0.60619 0.75582 0.78305
 C2104 C 0.52515 0.75955 0.85137
 C2105 C 0.62784 0.78273 0.82383
 C2106 C 0.59893 0.78488 0.83592
 C2107 C 0.54687 0.76637 0.83743
 C2108 C 0.63180 0.76703 0.79786
 H2109 H 0.55802 0.74756 0.78450
 H2110 H 0.60853 0.74413 0.76273
 H2111 H 0.64717 0.79187 0.83551
 H2112 H 0.59631 0.79508 0.85691
 C2113 C 0.57399 0.22808 0.67802
 C2114 C 0.59889 0.21495 0.66397
 C2115 C 0.62781 0.21710 0.67604
 C2116 C 0.52512 0.24035 0.64862
 C2117 C 0.60617 0.24384 0.71693
 C2118 C 0.57733 0.24158 0.70484
 C2119 C 0.54682 0.23345 0.66254
 C2120 C 0.63178 0.23271 0.70205
 H2121 H 0.59625 0.20483 0.64295
 H2122 H 0.64714 0.20802 0.66431
 H2123 H 0.60853 0.25545 0.73728
 H2124 H 0.55800 0.25205 0.71555
 C2125 C 0.07399 0.72806 0.17803
 C2126 C 0.07733 0.74155 0.20486
 C2127 C 0.10617 0.74381 0.21694
 C2128 C 0.02512 0.74035 0.14864
 C2129 C 0.12781 0.71709 0.17604
 C2130 C 0.09889 0.71495 0.16398
 C2131 C 0.04682 0.73344 0.16256
 C2132 C 0.13178 0.73270 0.20205
 H2133 H 0.05800 0.75202 0.21557
 H2134 H 0.10853 0.75542 0.23729
 H2135 H 0.14714 0.70803 0.16430
 H2136 H 0.09625 0.70483 0.14294
   
