data_POSCAR
  _audit_creation_date              2014-09-24
  _audit_creation_method            'ToBaCCo'
  _symmetry_space_group_name_H-M    'P1'
  _symmetry_Int_Tables_number       1
  _symmetry_cell_setting            triclinic
  loop_
  _symmetry_equiv_pos_as_xyz
 x,y,z
_cell_length_a 64.4580
_cell_length_b 63.3117
_cell_length_c 62.8395
_cell_angle_alpha 90.402500
_cell_angle_beta 89.603400
_cell_angle_gamma 89.354700
loop_
  _atom_site_label
  _atom_site_type_symbol
  _atom_site_fract_x
  _atom_site_fract_y
  _atom_site_fract_z
C1 C 0.35327 0.35700 0.32536
 C2 C 0.37240 0.34963 0.31721
 C3 C 0.38199 0.33136 0.32552
 C4 C 0.37270 0.32151 0.34314
 C5 C 0.35380 0.32889 0.35159
 C6 C 0.34380 0.34646 0.34245
 C7 C 0.34328 0.37448 0.31628
 C8 C 0.32344 0.38115 0.32338
 C9 C 0.31428 0.37068 0.34075
 C10 C 0.32436 0.35344 0.35038
 C11 C 0.31518 0.34280 0.36756
 C12 C 0.32516 0.32525 0.37685
 C13 C 0.34460 0.31861 0.36882
 H14 H 0.37943 0.35812 0.30423
 H15 H 0.37985 0.30759 0.35003
 H16 H 0.35111 0.38276 0.30362
 H17 H 0.29912 0.37568 0.34655
 H18 H 0.30018 0.34807 0.37357
 H19 H 0.35287 0.30560 0.37610
 C20 C 0.36816 0.85632 -0.17033
 C21 C 0.38542 0.84738 -0.18066
 C22 C 0.39287 0.82708 -0.17538
 C23 C 0.38323 0.81651 -0.15822
 C24 C 0.36596 0.82546 -0.14752
 C25 C 0.35831 0.84538 -0.15382
 C26 C 0.36022 0.87579 -0.17707
 C27 C 0.34196 0.88453 -0.16798
 C28 C 0.33246 0.87356 -0.15107
 C29 C 0.34054 0.85420 -0.14395
 C30 C 0.33070 0.84324 -0.12752
 C31 C 0.33810 0.82334 -0.12091
 C32 C 0.35580 0.81453 -0.13114
 H33 H 0.39299 0.85674 -0.19265
 H34 H 0.38866 0.80096 -0.15354
 H35 H 0.36780 0.88306 -0.19046
 H36 H 0.31852 0.87988 -0.14352
 H37 H 0.31707 0.85023 -0.11998
 H38 H 0.36141 0.79896 -0.12692
 C39 C 0.85113 0.34138 -0.17276
 C40 C 0.86945 0.33245 -0.18183
 C41 C 0.87957 0.31493 -0.17223
 C42 C 0.87176 0.30776 -0.15258
 C43 C 0.85356 0.31608 -0.14371
 C44 C 0.84307 0.33276 -0.15381
 C45 C 0.84042 0.35837 -0.18248
 C46 C 0.82158 0.36658 -0.17371
 C47 C 0.81423 0.35765 -0.15451
 C48 C 0.82458 0.34084 -0.14477
 C49 C 0.81647 0.33181 -0.12612
 C50 C 0.82665 0.31472 -0.11634
 C51 C 0.84559 0.30748 -0.12493
 H52 H 0.87532 0.33868 -0.19669
 H53 H 0.87986 0.29579 -0.14359
 H54 H 0.84658 0.36482 -0.19712
 H55 H 0.80072 0.36394 -0.14634
 H56 H 0.80193 0.33775 -0.11953
 H57 H 0.85419 0.29498 -0.11715
 C58 C 0.85397 0.85545 0.32580
 C59 C 0.87163 0.84692 0.31559
 C60 C 0.87963 0.82694 0.32133
 C61 C 0.86984 0.81586 0.33791
 C62 C 0.85238 0.82436 0.34849
 C63 C 0.84452 0.84428 0.34248
 C64 C 0.84526 0.87471 0.31915
 C65 C 0.82714 0.88317 0.32896
 C66 C 0.81851 0.87215 0.34628
 C67 C 0.82690 0.85282 0.35283
 C68 C 0.81726 0.84154 0.36910
 C69 C 0.82459 0.82148 0.37504
 C70 C 0.84230 0.81299 0.36459
 H71 H 0.87906 0.85603 0.30327
 H72 H 0.87564 0.80041 0.34245
 H73 H 0.85249 0.88288 0.30598
 H74 H 0.80441 0.87752 0.35403
 H75 H 0.80369 0.84835 0.37693
 H76 H 0.84801 0.79735 0.36840
 C77 C 0.62321 0.63830 0.31715
 C78 C 0.60588 0.64712 0.30713
 C79 C 0.59954 0.66808 0.31146
 C80 C 0.61007 0.67975 0.32717
 C81 C 0.62726 0.67097 0.33773
 C82 C 0.63389 0.65023 0.33249
 C83 C 0.63054 0.61806 0.31135
 C84 C 0.64888 0.60982 0.32031
 C85 C 0.65868 0.62142 0.33642
 C86 C 0.65149 0.64149 0.34234
 C87 C 0.66233 0.65325 0.35733
 C88 C 0.65626 0.67401 0.36241
 C89 C 0.63843 0.68274 0.35287
 H90 H 0.59755 0.63759 0.29574
 H91 H 0.60527 0.69586 0.33073
 H92 H 0.62222 0.60918 0.29945
 H93 H 0.67273 0.61539 0.34369
 H94 H 0.67568 0.64618 0.36503
 H95 H 0.63363 0.69877 0.35681
 C96 C 0.65862 0.14844 -0.17128
 C97 C 0.64298 0.15977 -0.18203
 C98 C 0.63526 0.17916 -0.17385
 C99 C 0.64328 0.18696 -0.15457
 C100 C 0.65898 0.17604 -0.14384
 C101 C 0.66647 0.15661 -0.15205
 C102 C 0.66675 0.12925 -0.17955
 C103 C 0.68240 0.11780 -0.16865
 C104 C 0.68966 0.12629 -0.14923
 C105 C 0.68198 0.14547 -0.14107
 C106 C 0.69015 0.15390 -0.12226
 C107 C 0.68364 0.17385 -0.11453
 C108 C 0.66758 0.18454 -0.12519
 H109 H 0.63697 0.15360 -0.19687
 H110 H 0.63719 0.20144 -0.14760
 H111 H 0.66076 0.12326 -0.19446
 H112 H 0.70223 0.11891 -0.14070
 H113 H 0.70168 0.14478 -0.11380
 H114 H 0.66216 0.19979 -0.11935
 C115 C 0.13650 0.65044 -0.18431
 C116 C 0.11765 0.65727 -0.19290
 C117 C 0.10869 0.67667 -0.18668
 C118 C 0.11789 0.68820 -0.17007
 C119 C 0.13647 0.68113 -0.16081
 C120 C 0.14610 0.66243 -0.16834
 C121 C 0.14607 0.63209 -0.19212
 C122 C 0.16592 0.62575 -0.18515
 C123 C 0.17507 0.63745 -0.16841
 C124 C 0.16530 0.65573 -0.16000
 C125 C 0.17462 0.66775 -0.14383
 C126 C 0.16505 0.68642 -0.13601
 C127 C 0.14579 0.69277 -0.14452
 H128 H 0.11029 0.64753 -0.20481
 H129 H 0.11098 0.70305 -0.16481
 H130 H 0.13764 0.62297 -0.20369
 H131 H 0.19013 0.63284 -0.16231
 H132 H 0.18947 0.66271 -0.13753
 H133 H 0.13775 0.70664 -0.13841
 C134 C 0.14647 0.16542 0.33289
 C135 C 0.12894 0.17437 0.32283
 C136 C 0.11836 0.19213 0.33178
 C137 C 0.12485 0.19942 0.35190
 C138 C 0.14265 0.19135 0.36149
 C139 C 0.15367 0.17449 0.35195
 C140 C 0.15725 0.14797 0.32395
 C141 C 0.17545 0.13965 0.33353
 C142 C 0.18248 0.14950 0.35245
 C143 C 0.17188 0.16679 0.36154
 C144 C 0.17949 0.17682 0.37993
 C145 C 0.16890 0.19429 0.38900
 C146 C 0.14991 0.20065 0.38021
 H147 H 0.12403 0.16785 0.30771
 H148 H 0.11645 0.21162 0.36050
 H149 H 0.15153 0.14111 0.30931
 H150 H 0.19588 0.14370 0.36086
 H151 H 0.19398 0.17143 0.38678
 H152 H 0.14088 0.21327 0.38756
 C153 C 0.66489 0.34312 0.66804
 C154 C 0.64676 0.33714 0.67886
 C155 C 0.63608 0.31867 0.67301
 C156 C 0.64353 0.30678 0.65549
 C157 C 0.66149 0.31271 0.64441
 C158 C 0.67234 0.33085 0.65079
 C159 C 0.67581 0.36107 0.67445
 C160 C 0.69424 0.36708 0.66402
 C161 C 0.70136 0.35483 0.64649
 C162 C 0.69059 0.33671 0.63990
 C163 C 0.69786 0.32421 0.62274
 C164 C 0.68721 0.30590 0.61638
 C165 C 0.66883 0.30054 0.62719
 H166 H 0.64111 0.34708 0.69174
 H167 H 0.63558 0.29257 0.65063
 H168 H 0.67004 0.37018 0.68795
 H169 H 0.71513 0.35930 0.63778
 H170 H 0.71200 0.32859 0.61454
 H171 H 0.65994 0.28703 0.62214
 C172 C 0.63460 0.85163 1.17850
 C173 C 0.61512 0.84491 1.18544
 C174 C 0.60591 0.82648 1.17705
 C175 C 0.61709 0.81492 1.16117
 C176 C 0.63670 0.82159 1.15390
 C177 C 0.64540 0.84001 1.16273
 C178 C 0.64364 0.86962 1.18761
 C179 C 0.66362 0.87600 1.18141
 C180 C 0.67399 0.86463 1.16522
 C181 C 0.66509 0.84676 1.15598
 C182 C 0.67597 0.83531 1.14044
 C183 C 0.66791 0.81666 1.13177
 C184 C 0.64803 0.81001 1.13828
 H185 H 0.60794 0.85389 1.19819
 H186 H 0.61062 0.80067 1.15440
 H187 H 0.63499 0.87855 1.19951
 H188 H 0.68938 0.86930 1.16016
 H189 H 0.69087 0.84105 1.13506
 H190 H 0.64164 0.79571 1.13155
 C191 C 0.15327 0.35324 1.16334
 C192 C 0.13519 0.34342 1.17099
 C193 C 0.12593 0.32663 1.15956
 C194 C 0.13463 0.32097 1.13963
 C195 C 0.15279 0.33022 1.13217
 C196 C 0.16227 0.34630 1.14398
 C197 C 0.16284 0.36946 1.17498
 C198 C 0.18133 0.37876 1.16761
 C199 C 0.19003 0.37158 1.14814
 C200 C 0.18084 0.35524 1.13648
 C201 C 0.19025 0.34730 1.11772
 C202 C 0.18106 0.33070 1.10618
 C203 C 0.16195 0.32289 1.11327
 H204 H 0.12878 0.34851 1.18620
 H205 H 0.12755 0.30934 1.12948
 H206 H 0.15600 0.37466 1.18996
 H207 H 0.20383 0.37874 1.14170
 H208 H 0.20504 0.35357 1.11279
 H209 H 0.15444 0.31035 1.10448
 C210 C 0.13589 0.86217 0.68656
 C211 C 0.11629 0.85538 0.69284
 C212 C 0.10602 0.83918 0.68173
 C213 C 0.11600 0.83018 0.66358
 C214 C 0.13557 0.83733 0.65671
 C215 C 0.14562 0.85322 0.66850
 C216 C 0.14605 0.87754 0.69857
 C217 C 0.16620 0.88385 0.69317
 C218 C 0.17573 0.87520 0.67483
 C219 C 0.16554 0.86001 0.66245
 C220 C 0.17507 0.85139 0.64425
 C221 C 0.16498 0.83612 0.63177
 C222 C 0.14536 0.82885 0.63837
 H223 H 0.10996 0.86204 0.70739
 H224 H 0.10855 0.81770 0.65467
 H225 H 0.13807 0.88464 0.71208
 H226 H 0.19120 0.88011 0.67032
 H227 H 0.19055 0.85643 0.64004
 H228 H 0.13761 0.81684 0.62908
 C229 C 0.35537 0.65892 0.68089
 C230 C 0.37409 0.66820 0.68655
 C231 C 0.38228 0.68513 0.67494
 C232 C 0.37127 0.69244 0.65696
 C233 C 0.35229 0.68327 0.65109
 C234 C 0.34434 0.66645 0.66318
 C235 C 0.34755 0.64218 0.69285
 C236 C 0.32861 0.63286 0.68754
 C237 C 0.31762 0.64041 0.66982
 C238 C 0.32535 0.65716 0.65764
 C239 C 0.31430 0.66476 0.64010
 C240 C 0.32207 0.68138 0.62764
 C241 C 0.34107 0.69062 0.63340
 H242 H 0.38214 0.66226 0.70040
 H243 H 0.37726 0.70512 0.64737
 H244 H 0.35650 0.63618 0.70606
 H245 H 0.30299 0.63331 0.66556
 H246 H 0.29942 0.65790 0.63651
 H247 H 0.34718 0.70350 0.62406
 C248 C 0.35094 0.15280 1.18049
 C249 C 0.36937 0.16149 1.18822
 C250 C 0.37882 0.17887 1.17818
 C251 C 0.36949 0.18674 1.15949
 C252 C 0.35105 0.17814 1.15167
 C253 C 0.34160 0.16125 1.16229
 C254 C 0.34166 0.13595 1.19108
 C255 C 0.32257 0.12747 1.18425
 C256 C 0.31351 0.13604 1.16567
 C257 C 0.32284 0.15285 1.15474
 C258 C 0.31353 0.16171 1.13662
 C259 C 0.32275 0.17884 1.12606
 C260 C 0.34175 0.18657 1.13352
 H261 H 0.37610 0.15476 1.20243
 H262 H 0.37593 0.19987 1.15095
 H263 H 0.34990 0.12958 1.20448
 H264 H 0.29896 0.12996 1.15981
 H265 H 0.29894 0.15554 1.13096
 H266 H 0.34952 0.19915 1.12516
 C267 C 0.84807 0.64731 1.18525
 C268 C 0.86613 0.65397 1.19540
 C269 C 0.87662 0.67214 1.18863
 C270 C 0.86934 0.68283 1.17048
 C271 C 0.85144 0.67601 1.15984
 C272 C 0.84066 0.65831 1.16746
 C273 C 0.83716 0.62997 1.19301
 C274 C 0.81858 0.62323 1.18343
 C275 C 0.81151 0.63428 1.16535
 C276 C 0.82240 0.65166 1.15741
 C277 C 0.81496 0.66273 1.13978
 C278 C 0.82545 0.68044 1.13186
 C279 C 0.84392 0.68681 1.14195
 H280 H 0.87190 0.64483 1.20862
 H281 H 0.87733 0.69674 1.16492
 H282 H 0.84326 0.62186 1.20679
 H283 H 0.79725 0.63012 1.15755
 H284 H 0.80072 0.65762 1.13236
 H285 H 0.85264 0.70003 1.13600
 C286 C 0.85874 0.14863 0.67558
 C287 C 0.87519 0.15886 0.68625
 C288 C 0.88402 0.17735 0.67771
 C289 C 0.87714 0.18467 0.65792
 C290 C 0.86074 0.17507 0.64742
 C291 C 0.85131 0.15719 0.65629
 C292 C 0.84937 0.13025 0.68380
 C293 C 0.83272 0.12055 0.67301
 C294 C 0.82507 0.13010 0.65440
 C295 C 0.83433 0.14804 0.64586
 C296 C 0.82666 0.15708 0.62708
 C297 C 0.83594 0.17506 0.61823
 C298 C 0.85340 0.18354 0.62833
 H299 H 0.88067 0.15286 0.70132
 H300 H 0.88438 0.19829 0.65076
 H301 H 0.85514 0.12339 0.69839
 H302 H 0.81161 0.12375 0.64650
 H303 H 0.81328 0.15018 0.61946
 H304 H 0.86141 0.19683 0.62153
 C305 C 0.36213 0.35760 0.68247
 C306 C 0.35012 0.37380 0.69211
 C307 C 0.33186 0.38130 0.68238
 C308 C 0.32605 0.37278 0.66265
 C309 C 0.33763 0.35650 0.65308
 C310 C 0.35576 0.34889 0.66287
 C311 C 0.38010 0.34966 0.69230
 C312 C 0.39196 0.33324 0.68268
 C313 C 0.38537 0.32488 0.66302
 C314 C 0.36732 0.33242 0.65316
 C315 C 0.36039 0.32337 0.63399
 C316 C 0.34177 0.33041 0.62453
 C317 C 0.33090 0.34741 0.63407
 H318 H 0.35480 0.38035 0.70730
 H319 H 0.31250 0.37886 0.65453
 H320 H 0.38437 0.35599 0.70766
 H321 H 0.39418 0.31222 0.65540
 H322 H 0.36952 0.31077 0.62680
 H323 H 0.31662 0.35326 0.62713
 C324 C 0.33120 0.85998 0.17290
 C325 C 0.31969 0.87682 0.18185
 C326 C 0.30123 0.88416 0.17234
 C327 C 0.29442 0.87412 0.15352
 C328 C 0.30558 0.85702 0.14455
 C329 C 0.32417 0.85015 0.15414
 C330 C 0.34947 0.85258 0.18264
 C331 C 0.36110 0.83570 0.17361
 C332 C 0.35407 0.82645 0.15459
 C333 C 0.33568 0.83334 0.14501
 C334 C 0.32847 0.82325 0.12665
 C335 C 0.30938 0.82911 0.11754
 C336 C 0.29829 0.84643 0.12633
 H337 H 0.32514 0.88418 0.19637
 H338 H 0.28060 0.87958 0.14552
 H339 H 0.35414 0.85976 0.19748
 H340 H 0.36275 0.81349 0.14732
 H341 H 0.33786 0.81073 0.11961
 H342 H 0.28371 0.85135 0.11933
 C343 C 0.86088 0.37040 0.17029
 C344 C 0.85331 0.38961 0.17857
 C345 C 0.83543 0.39915 0.17016
 C346 C 0.82560 0.38956 0.15276
 C347 C 0.83322 0.37053 0.14415
 C348 C 0.85078 0.36069 0.15305
 C349 C 0.87788 0.36037 0.17963
 C350 C 0.88457 0.34026 0.17267
 C351 C 0.87479 0.33083 0.15503
 C352 C 0.85785 0.34093 0.14516
 C353 C 0.84743 0.33144 0.12797
 C354 C 0.83004 0.34147 0.11875
 C355 C 0.82295 0.36084 0.12728
 H356 H 0.86095 0.39680 0.19209
 H357 H 0.81143 0.39628 0.14643
 H358 H 0.88574 0.36825 0.19257
 H359 H 0.87995 0.31541 0.14941
 H360 H 0.85278 0.31628 0.12182
 H361 H 0.80897 0.36825 0.12126
 C362 C 0.84069 0.84673 0.65894
 C363 C 0.83200 0.86534 0.66761
 C364 C 0.81392 0.87448 0.65894
 C365 C 0.80424 0.86416 0.64168
 C366 C 0.81287 0.84566 0.63268
 C367 C 0.83132 0.83715 0.64117
 C368 C 0.85838 0.83727 0.66797
 C369 C 0.86694 0.81852 0.65923
 C370 C 0.85832 0.81012 0.64060
 C371 C 0.84034 0.81889 0.63196
 C372 C 0.83097 0.80913 0.61459
 C373 C 0.81198 0.81663 0.60673
 C374 C 0.80320 0.83524 0.61558
 H375 H 0.83946 0.87279 0.68108
 H376 H 0.78980 0.87019 0.63535
 H377 H 0.86513 0.84418 0.68212
 H378 H 0.86530 0.79643 0.63288
 H379 H 0.83851 0.79545 0.60739
 H380 H 0.78869 0.84140 0.60942
 C381 C 0.66474 0.64896 0.67794
 C382 C 0.67504 0.63051 0.68463
 C383 C 0.69165 0.62165 0.67264
 C384 C 0.69743 0.63143 0.65332
 C385 C 0.68749 0.65003 0.64650
 C386 C 0.67114 0.65876 0.65890
 C387 C 0.64839 0.65811 0.69009
 C388 C 0.63886 0.67705 0.68346
 C389 C 0.64515 0.68628 0.66438
 C390 C 0.66118 0.67744 0.65226
 C391 C 0.66751 0.68742 0.63371
 C392 C 0.68410 0.67941 0.62158
 C393 C 0.69380 0.66036 0.62769
 H394 H 0.67031 0.62326 0.69943
 H395 H 0.70958 0.62467 0.64338
 H396 H 0.64341 0.65083 0.70480
 H397 H 0.63745 0.70055 0.65888
 H398 H 0.65946 0.70167 0.62872
 H399 H 0.70654 0.65398 0.61821
 C400 C 0.63547 0.13777 0.17149
 C401 C 0.64361 0.11969 0.18129
 C402 C 0.66301 0.11128 0.17495
 C403 C 0.67355 0.12058 0.15778
 C404 C 0.66537 0.13838 0.14759
 C405 C 0.64637 0.14721 0.15463
 C406 C 0.61693 0.14696 0.17890
 C407 C 0.60931 0.16593 0.17024
 C408 C 0.62017 0.17510 0.15311
 C409 C 0.63855 0.16576 0.14518
 C410 C 0.64962 0.17504 0.12839
 C411 C 0.66846 0.16610 0.12100
 C412 C 0.67629 0.14785 0.13093
 H413 H 0.63483 0.11246 0.19397
 H414 H 0.68847 0.11430 0.15259
 H415 H 0.60879 0.13960 0.19200
 H416 H 0.61497 0.18987 0.14635
 H417 H 0.64357 0.18929 0.12112
 H418 H 0.69120 0.14126 0.12622
 C419 C 0.15052 0.65112 0.17078
 C420 C 0.15929 0.63314 0.18035
 C421 C 0.17616 0.62231 0.17076
 C422 C 0.18360 0.62934 0.15092
 C423 C 0.17537 0.64756 0.14150
 C424 C 0.15881 0.65854 0.15144
 C425 C 0.13386 0.66203 0.18048
 C426 C 0.12532 0.68034 0.17119
 C427 C 0.13378 0.68757 0.15183
 C428 C 0.15060 0.67697 0.14207
 C429 C 0.15961 0.68475 0.12329
 C430 C 0.17670 0.67432 0.11365
 C431 C 0.18388 0.65523 0.12251
 H432 H 0.15322 0.62786 0.19551
 H433 H 0.19594 0.62083 0.14271
 H434 H 0.12768 0.65634 0.19543
 H435 H 0.12725 0.70127 0.14406
 H436 H 0.15367 0.69930 0.11655
 H437 H 0.19630 0.64631 0.11490
 C438 C 0.16529 0.15311 0.68824
 C439 C 0.17458 0.13446 0.69570
 C440 C 0.19251 0.12599 0.68581
 C441 C 0.20047 0.13604 0.66767
 C442 C 0.19165 0.15495 0.66042
 C443 C 0.17406 0.16364 0.67075
 C444 C 0.14752 0.16149 0.69823
 C445 C 0.13848 0.18054 0.69127
 C446 C 0.14745 0.19107 0.67383
 C447 C 0.16527 0.18281 0.66357
 C448 C 0.17468 0.19346 0.64648
 C449 C 0.19266 0.18506 0.63650
 C450 C 0.20052 0.16543 0.64320
 H451 H 0.16804 0.12682 0.70956
 H452 H 0.21363 0.12940 0.65910
 H453 H 0.14057 0.15286 0.71122
 H454 H 0.14068 0.20581 0.66839
 H455 H 0.16828 0.20843 0.64123
 H456 H 0.21369 0.15819 0.63509
 C457 C 0.33660 0.65732 0.32556
 C458 C 0.32847 0.63962 0.31506
 C459 C 0.31081 0.62922 0.32306
 C460 C 0.30175 0.63677 0.34218
 C461 C 0.30997 0.65419 0.35308
 C462 C 0.32744 0.66453 0.34472
 C463 C 0.35366 0.66804 0.31703
 C464 C 0.36175 0.68599 0.32729
 C465 C 0.35284 0.69263 0.34680
 C466 C 0.33570 0.68212 0.35548
 C467 C 0.32661 0.68906 0.37470
 C468 C 0.30917 0.67887 0.38329
 C469 C 0.30084 0.66154 0.37213
 H470 H 0.33625 0.63404 0.30078
 H471 H 0.28818 0.62909 0.34867
 H472 H 0.36038 0.66260 0.30208
 H473 H 0.35922 0.70587 0.35544
 H474 H 0.33315 0.70249 0.38296
 H475 H 0.28701 0.65387 0.37789
 C476 C 0.37231 0.13709 0.82747
 C477 C 0.36425 0.11767 0.82079
 C478 C 0.34786 0.10825 0.83207
 C479 C 0.34032 0.11814 0.85067
 C480 C 0.34809 0.13763 0.85733
 C481 C 0.36396 0.14735 0.84560
 C482 C 0.38802 0.14677 0.81573
 C483 C 0.39509 0.16702 0.82127
 C484 C 0.38664 0.17720 0.83945
 C485 C 0.37104 0.16752 0.85164
 C486 C 0.36184 0.17794 0.86927
 C487 C 0.34580 0.16827 0.88102
 C488 C 0.33944 0.14792 0.87503
 H489 H 0.37004 0.11065 0.80614
 H490 H 0.32778 0.11103 0.85959
 H491 H 0.39471 0.13834 0.80225
 H492 H 0.39190 0.19283 0.84385
 H493 H 0.36677 0.19375 0.87320
 H494 H 0.32721 0.14016 0.88384
 C495 C 0.84558 0.65184 0.82209
 C496 C 0.83969 0.63357 0.81103
 C497 C 0.82302 0.62122 0.81823
 C498 C 0.81288 0.62710 0.83739
 C499 C 0.81879 0.64527 0.84880
 C500 C 0.83511 0.65773 0.84099
 C501 C 0.86169 0.66441 0.81434
 C502 C 0.86757 0.68296 0.82514
 C503 C 0.85726 0.68848 0.84423
 C504 C 0.84103 0.67610 0.85208
 C505 C 0.83052 0.68201 0.87080
 C506 C 0.81403 0.66994 0.87878
 C507 C 0.80848 0.65133 0.86773
 H508 H 0.84834 0.62903 0.79688
 H509 H 0.80010 0.61775 0.84326
 H510 H 0.86945 0.65987 0.79963
 H511 H 0.86190 0.70224 0.85324
 H512 H 0.83506 0.69635 0.87897
 H513 H 0.79628 0.64136 0.87371
 C514 C 0.86591 0.13929 0.30754
 C515 C 0.85814 0.12036 0.29950
 C516 C 0.84212 0.10980 0.31013
 C517 C 0.83415 0.11832 0.32930
 C518 C 0.84184 0.13732 0.33760
 C519 C 0.85768 0.14795 0.32655
 C520 C 0.88148 0.14991 0.29647
 C521 C 0.88869 0.16952 0.30373
 C522 C 0.88047 0.17808 0.32280
 C523 C 0.86503 0.16741 0.33425
 C524 C 0.85658 0.17606 0.35306
 C525 C 0.84100 0.16541 0.36453
 C526 C 0.83369 0.14607 0.35651
 H527 H 0.86400 0.11446 0.28438
 H528 H 0.82173 0.11032 0.33759
 H529 H 0.88805 0.14264 0.28228
 H530 H 0.88594 0.19316 0.32863
 H531 H 0.86190 0.19136 0.35835
 H532 H 0.82158 0.13778 0.36498
 C533 C 0.65340 0.34159 0.31819
 C534 C 0.66039 0.36085 0.31014
 C535 C 0.67916 0.36948 0.31716
 C536 C 0.69028 0.35910 0.33325
 C537 C 0.68331 0.33997 0.34161
 C538 C 0.66494 0.33099 0.33387
 C539 C 0.63519 0.33266 0.31048
 C540 C 0.62859 0.31282 0.31762
 C541 C 0.63996 0.30246 0.33361
 C542 C 0.65812 0.31144 0.34181
 C543 C 0.66977 0.30111 0.35755
 C544 C 0.68818 0.31004 0.36536
 C545 C 0.69464 0.32962 0.35739
 H546 H 0.65114 0.36897 0.29836
 H547 H 0.70470 0.36563 0.33896
 H548 H 0.62620 0.34128 0.29884
 H549 H 0.63491 0.28725 0.33936
 H550 H 0.66463 0.28603 0.36356
 H551 H 0.70835 0.33712 0.36365
 C552 C 0.66103 0.84446 0.81866
 C553 C 0.66931 0.86358 0.81123
 C554 C 0.68619 0.87319 0.82162
 C555 C 0.69498 0.86297 0.83944
 C556 C 0.68678 0.84409 0.84726
 C557 C 0.66973 0.83492 0.83688
 C558 C 0.64442 0.83445 0.80814
 C559 C 0.63678 0.81507 0.81566
 C560 C 0.64502 0.80644 0.83426
 C561 C 0.66147 0.81599 0.84465
 C562 C 0.66998 0.80639 0.86251
 C563 C 0.68738 0.81484 0.87257
 C564 C 0.69555 0.83399 0.86512
 H565 H 0.66256 0.87102 0.79738
 H566 H 0.70852 0.86935 0.84713
 H567 H 0.63786 0.84136 0.79392
 H568 H 0.63873 0.79193 0.84057
 H569 H 0.66301 0.79211 0.86854
 H570 H 0.70887 0.84076 0.87295
 C571 C 0.16202 0.35074 0.81767
 C572 C 0.17222 0.36943 0.81183
 C573 C 0.19027 0.37585 0.82254
 C574 C 0.19736 0.36391 0.83978
 C575 C 0.18772 0.34510 0.84537
 C576 C 0.17005 0.33834 0.83434
 C577 C 0.14415 0.34410 0.80696
 C578 C 0.13428 0.32512 0.81254
 C579 C 0.14262 0.31282 0.82915
 C580 C 0.16051 0.31918 0.84000
 C581 C 0.16931 0.30662 0.85616
 C582 C 0.18746 0.31312 0.86661
 C583 C 0.19598 0.33276 0.86158
 H584 H 0.16640 0.37868 0.79865
 H585 H 0.21060 0.36907 0.84888
 H586 H 0.13779 0.35394 0.79453
 H587 H 0.13531 0.29810 0.83345
 H588 H 0.16239 0.29164 0.86022
 H589 H 0.20934 0.33846 0.87017
 C590 C 0.14134 0.85732 0.32888
 C591 C 0.14827 0.87582 0.31929
 C592 C 0.16628 0.88591 0.32639
 C593 C 0.17619 0.87818 0.34475
 C594 C 0.16878 0.86003 0.35515
 C595 C 0.15157 0.84928 0.34683
 C596 C 0.12477 0.84636 0.32012
 C597 C 0.11891 0.82659 0.32806
 C598 C 0.12846 0.81902 0.34667
 C599 C 0.14470 0.83038 0.35623
 C600 C 0.15448 0.82297 0.37470
 C601 C 0.17125 0.83394 0.38376
 C602 C 0.17857 0.85221 0.37341
 H603 H 0.13970 0.88202 0.30592
 H604 H 0.18988 0.88599 0.35068
 H605 H 0.11681 0.85308 0.30659
 H606 H 0.12374 0.80404 0.35327
 H607 H 0.14892 0.80866 0.38207
 H608 H 0.19209 0.86034 0.37920
 O609 O 0.26426 0.99145 0.25257
 O610 O 0.23457 1.03472 0.27882
 O611 O 0.23719 0.99375 0.28368
 O612 O 0.26284 1.03244 0.24944
 O613 O 0.23817 1.02950 0.22544
 O614 O 0.21275 0.98986 0.25957
 O615 O 0.20968 1.03117 0.25516
 O616 O 0.23954 0.98827 0.22866
 Cu617 Cu 0.25215 1.01339 0.26852
 Cu618 Cu 0.22250 1.00939 0.23988
 C619 C 0.25692 0.98246 0.23613
 C620 C 0.21717 1.04050 0.27129
 C621 C 0.22077 0.98492 0.27732
 C622 C 0.25493 1.03777 0.23182
 O623 O 0.25950 0.52433 0.72711
 O624 O 0.22960 0.48607 0.75648
 O625 O 0.23261 0.52687 0.75838
 O626 O 0.26295 0.48366 0.73280
 O627 O 0.28693 0.48762 0.75741
 O628 O 0.25529 0.52746 0.78456
 O629 O 0.25312 0.48549 0.78184
 O630 O 0.28153 0.52785 0.75360
 Cu631 Cu 0.24400 0.50513 0.74119
 Cu632 Cu 0.27111 0.50687 0.77198
 C633 C 0.27517 0.53308 0.73517
 C634 C 0.23620 0.47888 0.77388
 C635 C 0.23886 0.53441 0.77606
 C636 C 0.28044 0.47856 0.74077
 O637 O 0.75932 -0.02466 0.26634
 O638 O 0.72737 0.01427 0.23751
 O639 O 0.72876 -0.02672 0.23944
 O640 O 0.75484 0.01609 0.26727
 O641 O 0.77916 0.01644 0.24232
 O642 O 0.75191 -0.02584 0.21340
 O643 O 0.75134 0.01505 0.21225
 O644 O 0.78243 -0.02434 0.24023
 Cu645 Cu 0.74020 -0.00540 0.25519
 Cu646 Cu 0.76858 -0.00455 0.22448
 C647 C 0.77636 -0.03112 0.25811
 C648 C 0.73406 0.02128 0.21986
 C649 C 0.73558 -0.03345 0.22166
 C650 C 0.77150 0.02348 0.25973
 O651 O 0.75975 0.46872 0.77157
 O652 O 0.72942 0.51222 0.74736
 O653 O 0.72989 0.47129 0.74402
 O654 O 0.75746 0.50975 0.77692
 O655 O 0.78072 0.51384 0.75139
 O656 O 0.75418 0.47282 0.71918
 O657 O 0.75287 0.51447 0.72175
 O658 O 0.78416 0.47237 0.74713
 Cu659 Cu 0.74183 0.49019 0.76246
 Cu660 Cu 0.77039 0.49361 0.73237
 C661 C 0.77712 0.46310 0.76348
 C662 C 0.73602 0.52080 0.73040
 C663 C 0.73727 0.46524 0.72621
 C664 C 0.77342 0.51883 0.76964
 O665 O 0.23519 0.48058 0.28927
 O666 O 0.20617 0.52085 0.25885
 O667 O 0.20773 0.47962 0.25872
 O668 O 0.23383 0.52191 0.28897
 O669 O 0.25873 0.52252 0.26470
 O670 O 0.23311 0.47988 0.23495
 O671 O 0.23138 0.52115 0.23488
 O672 O 0.26022 0.48112 0.26513
 Cu673 Cu 0.21823 0.50066 0.27639
 Cu674 Cu 0.24837 0.50118 0.24754
 C675 C 0.25261 0.47389 0.28225
 C676 C 0.21397 0.52798 0.24175
 C677 C 0.21608 0.47248 0.24170
 C678 C 0.25059 0.52963 0.28180
 O679 O 0.77872 0.97761 0.74577
 O680 O 0.74619 1.01866 0.77246
 O681 O 0.74702 0.97748 0.77135
 O682 O 0.78041 1.01931 0.75003
 O683 O 0.76119 1.02121 0.72118
 O684 O 0.72739 0.97899 0.74275
 O685 O 0.72682 1.02083 0.74373
 O686 O 0.75905 0.98009 0.71726
 Cu687 Cu 0.76510 0.99816 0.76265
 Cu688 Cu 0.74165 1.00059 0.72847
 C689 C 0.77402 0.97150 0.72707
 C690 C 0.73099 1.02683 0.76252
 C691 C 0.73178 0.97080 0.76067
 C692 C 0.77647 1.02760 0.73216
 O693 O 0.78463 0.48448 0.26666
 O694 O 0.74762 0.52001 0.29442
 O695 O 0.75397 0.47971 0.29306
 O696 O 0.77923 0.52524 0.26882
 O697 O 0.75763 0.52388 0.24173
 O698 O 0.73303 0.47741 0.26547
 O699 O 0.72631 0.51782 0.26714
 O700 O 0.76356 0.48365 0.23908
 Cu701 Cu 0.76855 0.50262 0.28350
 Cu702 Cu 0.74296 0.50050 0.25061
 C703 C 0.78033 0.47814 0.24799
 C704 C 0.73055 0.52474 0.28555
 C705 C 0.73921 0.47077 0.28341
 C706 C 0.77286 0.53229 0.25114
 O707 O 0.27793 0.01838 0.77056
 O708 O 0.25002 -0.02002 0.73854
 O709 O 0.24906 0.02090 0.74222
 O710 O 0.27609 -0.02202 0.77014
 O711 O 0.25126 -0.02212 0.79456
 O712 O 0.22360 0.01956 0.76586
 O713 O 0.22539 -0.02151 0.76308
 O714 O 0.25272 0.01892 0.79458
 Cu715 Cu 0.26571 -0.00070 0.75287
 Cu716 Cu 0.23567 -0.00131 0.78192
 C717 C 0.27028 0.02523 0.78792
 C718 C 0.23309 -0.02750 0.74532
 C719 C 0.23162 0.02749 0.74931
 C720 C 0.26840 -0.02913 0.78732
 O721 O 0.21973 0.23513 1.01342
 O722 O 0.25058 0.20475 0.97371
 O723 O 0.24712 0.20454 1.01517
 O724 O 0.21905 0.23099 0.97217
 O725 O 0.24337 0.25524 0.97059
 O726 O 0.26978 0.23043 1.01614
 O727 O 0.27457 0.22934 0.97481
 O728 O 0.24270 0.26069 1.01176
 Cu729 Cu 0.23181 0.21633 0.99365
 Cu730 Cu 0.25993 0.24638 0.99327
 C731 C 0.22604 0.25327 1.01922
 C732 C 0.26798 0.21198 0.96757
 C733 C 0.26289 0.21309 1.02335
 C734 C 0.22651 0.24742 0.96383
 O735 O 0.23325 0.78367 0.48861
 O736 O 0.26698 0.76114 0.52990
 O737 O 0.26608 0.75978 0.48808
 O738 O 0.23253 0.78325 0.53016
 O739 O 0.21381 0.75429 0.53051
 O740 O 0.24740 0.73078 0.48884
 O741 O 0.24835 0.73212 0.53031
 O742 O 0.21457 0.75465 0.48846
 Cu743 Cu 0.25160 0.77481 0.50925
 Cu744 Cu 0.22909 0.74013 0.50967
 C745 C 0.21848 0.77289 0.48112
 C746 C 0.26347 0.74287 0.53723
 C747 C 0.26219 0.74136 0.48105
 C748 C 0.21749 0.77269 0.53758
 O749 O 0.26749 0.76034 -0.02869
 O750 O 0.23661 0.73226 0.01144
 O751 O 0.24044 0.72984 -0.02986
 O752 O 0.26277 0.76289 0.01262
 O753 O 0.23740 0.78626 0.00884
 O754 O 0.21526 0.75340 -0.03376
 O755 O 0.21096 0.75531 0.00769
 O756 O 0.24202 0.78360 -0.03233
 Cu757 Cu 0.25439 0.74401 -0.00831
 Cu758 Cu 0.22384 0.77195 -0.01276
 C759 C 0.26000 0.77675 -0.03740
 C760 C 0.21864 0.73905 0.01656
 C761 C 0.22406 0.73611 -0.03914
 C762 C 0.25383 0.78011 0.01808
 O763 O 0.22451 0.26158 0.48859
 O764 O 0.25345 0.29344 0.52768
 O765 O 0.25003 0.29302 0.48655
 O766 O 0.22348 0.26593 0.52992
 O767 O 0.24888 0.24230 0.53135
 O768 O 0.27426 0.26808 0.48552
 O769 O 0.27856 0.26942 0.52686
 O770 O 0.24882 0.23679 0.49026
 Cu771 Cu 0.23538 0.28087 0.50820
 Cu772 Cu 0.26509 0.25177 0.50854
 C773 C 0.23181 0.24362 0.48289
 C774 C 0.27114 0.28677 0.53377
 C775 C 0.26641 0.28516 0.47837
 C776 C 0.23163 0.24969 0.53823
 O777 O 0.75049 0.71997 0.98416
 O778 O 0.71582 0.74527 1.02326
 O779 O 0.72420 0.75082 0.98255
 O780 O 0.74741 0.71866 1.02545
 O781 O 0.77094 0.74334 1.02999
 O782 O 0.74636 0.77624 0.98962
 O783 O 0.73954 0.76919 1.03024
 O784 O 0.77349 0.74519 0.98858
 Cu785 Cu 0.73208 0.73134 1.00344
 Cu786 Cu 0.75979 0.76096 1.01014
 C787 C 0.76760 0.72835 0.97925
 C788 C 0.72180 0.76120 1.03376
 C789 C 0.73160 0.76898 0.97869
 C790 C 0.76343 0.72563 1.03488
 O791 O 0.75304 0.25381 0.46578
 O792 O 0.78245 0.22753 0.50854
 O793 O 0.78233 0.22533 0.46696
 O794 O 0.75622 0.25887 0.50678
 O795 O 0.73243 0.23453 0.51166
 O796 O 0.75676 0.20245 0.46833
 O797 O 0.75859 0.20282 0.50994
 O798 O 0.72758 0.23123 0.47048
 Cu799 Cu 0.77099 0.24369 0.48668
 Cu800 Cu 0.74139 0.21539 0.49043
 C801 C 0.73511 0.24706 0.46106
 C802 C 0.77548 0.21055 0.51642
 C803 C 0.77389 0.20855 0.46037
 C804 C 0.74019 0.25237 0.51638
 O805 O 0.71837 0.25684 -0.00903
 O806 O 0.75134 0.28180 0.03199
 O807 O 0.74790 0.28447 -0.00891
 O808 O 0.71872 0.25745 0.03272
 O809 O 0.73986 0.22985 0.03026
 O810 O 0.77029 0.25784 -0.01062
 O811 O 0.77237 0.25403 0.03087
 O812 O 0.74101 0.23045 -0.01104
 Cu813 Cu 0.73185 0.27279 0.01201
 Cu814 Cu 0.75809 0.24039 0.00978
 C815 C 0.72451 0.23942 -0.01731
 C816 C 0.76747 0.27203 0.03839
 C817 C 0.76401 0.27586 -0.01693
 C818 C 0.72407 0.23905 0.03850
 O819 O 0.75532 0.75437 0.46260
 O820 O 0.73008 0.72155 0.50167
 O821 O 0.72441 0.72837 0.46116
 O822 O 0.75440 0.75445 0.50390
 O823 O 0.73034 0.77955 0.50546
 O824 O 0.69892 0.75122 0.46723
 O825 O 0.70688 0.74675 0.50821
 O826 O 0.72996 0.77808 0.46441
 Cu827 Cu 0.74336 0.73732 0.48198
 Cu828 Cu 0.71395 0.76607 0.48651
 C829 C 0.74725 0.77158 0.45662
 C830 C 0.71481 0.72867 0.51228
 C831 C 0.70627 0.73546 0.45717
 C832 C 0.74749 0.77193 0.51153
 O833 O 1.02515 0.28608 0.24006
 O834 O 0.98607 0.25512 0.26725
 O835 O 1.02547 0.25366 0.26439
 O836 O 0.98429 0.28192 0.23510
 O837 O 0.98722 0.25849 0.20907
 O838 O 1.02639 0.22927 0.23911
 O839 O 0.98589 0.23188 0.24085
 O840 O 1.02731 0.26223 0.21430
 Cu841 Cu 1.00475 0.27170 0.25372
 Cu842 Cu 1.00684 0.24317 0.22328
 C843 C 1.03331 0.27942 0.22288
 C844 C 0.97923 0.23834 0.25895
 C845 C 1.03277 0.23640 0.25674
 C846 C 0.97879 0.27493 0.21696
 O847 O 0.53381 0.27081 0.73934
 O848 O 0.49485 0.24600 0.77383
 O849 O 0.53514 0.24278 0.76917
 O850 O 0.49314 0.27246 0.74208
 O851 O 0.49078 0.24643 0.71872
 O852 O 0.53141 0.21644 0.74635
 O853 O 0.49122 0.22036 0.75019
 O854 O 0.53119 0.24460 0.71619
 Cu855 Cu 0.51451 0.26064 0.75842
 Cu856 Cu 0.51088 0.22938 0.73054
 C857 C 0.53940 0.26183 0.72209
 C858 C 0.48623 0.22907 0.76781
 C859 C 0.54038 0.22450 0.76233
 C860 C 0.48473 0.26431 0.72575
 O861 O 0.02537 0.25507 0.77886
 O862 O -0.01128 0.22202 0.75045
 O863 O 0.02845 0.22839 0.74789
 O864 O -0.01555 0.25674 0.77417
 O865 O -0.01408 0.28126 0.74945
 O866 O 0.02605 0.25087 0.72130
 O867 O -0.01486 0.24641 0.72581
 O868 O 0.02638 0.27784 0.75247
 Cu869 Cu 0.00650 0.23859 0.76540
 Cu870 Cu 0.00554 0.26602 0.73477
 C871 C 0.03287 0.27147 0.77052
 C872 C -0.01982 0.22857 0.73365
 C873 C 0.03471 0.23505 0.72986
 C874 C -0.02219 0.27405 0.76624
 O875 O 0.48064 0.26480 0.26844
 O876 O 0.51754 0.23180 0.23805
 O877 O 0.47758 0.23464 0.24039
 O878 O 0.52107 0.26032 0.26737
 O879 O 0.51976 0.23675 0.29308
 O880 O 0.47677 0.21057 0.26564
 O881 O 0.51718 0.20802 0.26360
 O882 O 0.47953 0.24087 0.29380
 Cu883 Cu 0.49926 0.25039 0.25110
 Cu884 Cu 0.49816 0.22163 0.28159
 C885 C 0.47363 0.25845 0.28616
 C886 C 0.52380 0.21439 0.24567
 C887 C 0.46987 0.21809 0.24836
 C888 C 0.52797 0.25282 0.28468
 O889 O 0.96704 0.75833 0.71928
 O890 O 1.00779 0.73078 0.74963
 O891 O 0.96782 0.72672 0.74570
 O892 O 1.00738 0.75535 0.71666
 O893 O 1.00705 0.78051 0.74116
 O894 O 0.96531 0.75214 0.76980
 O895 O 1.00606 0.75616 0.77392
 O896 O 0.96749 0.78440 0.74284
 Cu897 Cu 0.98758 0.74030 0.73048
 Cu898 Cu 0.98602 0.77036 0.75937
 C899 C 0.96057 0.77634 0.72588
 C900 C 1.01380 0.73892 0.76712
 C901 C 0.95974 0.73423 0.76255
 C902 C 1.01427 0.77257 0.72388
 O903 O 0.46093 0.75055 0.21271
 O904 O 0.50162 0.72403 0.24431
 O905 O 0.46248 0.72084 0.24268
 O906 O 0.50271 0.74732 0.21186
 O907 O 0.50147 0.77448 0.23409
 O908 O 0.45969 0.74813 0.26462
 O909 O 0.49999 0.75037 0.26751
 O910 O 0.46071 0.77734 0.23531
 Cu911 Cu 0.48145 0.73361 0.22529
 Cu912 Cu 0.48031 0.76529 0.25256
 C913 C 0.45378 0.76845 0.21875
 C914 C 0.50767 0.73279 0.26145
 C915 C 0.45425 0.72966 0.25889
 C916 C 0.50950 0.76505 0.21797
 O917 O 0.02157 0.74077 0.28689
 O918 O -0.01887 0.71654 0.25354
 O919 O 0.02179 0.71359 0.25520
 O920 O -0.01859 0.74292 0.28524
 O921 O -0.01706 0.76875 0.26186
 O922 O 0.02448 0.74004 0.23268
 O923 O -0.01582 0.74218 0.23013
 O924 O 0.02351 0.76687 0.26386
 Cu925 Cu 0.00131 0.72573 0.27243
 Cu926 Cu 0.00401 0.75711 0.24488
 C927 C 0.02938 0.75810 0.28093
 C928 C -0.02433 0.72530 0.23628
 C929 C 0.03022 0.72190 0.23899
 C930 C -0.02490 0.76072 0.27853
 O931 O 0.53192 0.74683 0.77681
 O932 O 0.48946 0.71589 0.75251
 O933 O 0.52922 0.71220 0.75317
 O934 O 0.49125 0.74267 0.78361
 O935 O 0.48827 0.76596 0.75779
 O936 O 0.52999 0.73706 0.72868
 O937 O 0.48840 0.73926 0.72663
 O938 O 0.52719 0.77148 0.75256
 Cu939 Cu 0.51090 0.72745 0.76912
 Cu940 Cu 0.50851 0.75535 0.73863
 C941 C 0.53652 0.76469 0.76878
 C942 C 0.48170 0.72262 0.73516
 C943 C 0.53660 0.71955 0.73614
 C944 C 0.48284 0.75907 0.77600
 C945 C 0.42685 0.29453 0.31721
 C946 C 0.43381 0.29986 0.29681
 N947 N 0.42449 0.31599 0.28634
 C948 C 0.40832 0.32696 0.29522
 C949 C 0.40097 0.32152 0.31568
 N950 N 0.41072 0.30541 0.32606
 N951 N 0.43576 0.27800 0.32749
 C952 C 0.45121 0.26637 0.31813
 C953 C 0.45802 0.27147 0.29751
 N954 N 0.44920 0.28826 0.28743
 H955 H 0.40107 0.33918 0.28590
 H956 H 0.45788 0.25313 0.32660
 C957 C 0.43464 0.78975 0.81047
 C958 C 0.44141 0.79750 0.79081
 N959 N 0.43205 0.81476 0.78250
 C960 C 0.41631 0.82484 0.79299
 C961 C 0.40937 0.81732 0.81302
 N962 N 0.41885 0.79971 0.82098
 N963 N 0.44391 0.77233 0.81872
 C964 C 0.45963 0.76228 0.80809
 C965 C 0.46636 0.76995 0.78825
 N966 N 0.45701 0.78745 0.78012
 H967 H 0.40905 0.83797 0.78503
 H968 H 0.46667 0.74836 0.81502
 C969 C -0.07462 0.30512 0.79359
 C970 C -0.06819 0.28505 0.80043
 N971 N -0.07938 0.27495 0.81539
 C972 C -0.09650 0.28407 0.82428
 C973 C -0.10293 0.30467 0.81816
 N974 N -0.09180 0.31443 0.80251
 N975 N -0.06353 0.31493 0.77818
 C976 C -0.04639 0.30553 0.76930
 C977 C -0.03995 0.28536 0.77619
 N978 N -0.05112 0.27568 0.79165
 H979 H -0.10520 0.27464 0.83535
 H980 H -0.03795 0.31367 0.75693
 C981 C -0.07465 0.79178 0.31043
 C982 C -0.06838 0.79812 0.29008
 N983 N -0.07902 0.81377 0.28016
 C984 C -0.09563 0.82346 0.28968
 C985 C -0.10197 0.81731 0.31027
 N986 N -0.09116 0.80148 0.31999
 N987 N -0.06437 0.77577 0.32018
 C988 C -0.04814 0.76569 0.31041
 C989 C -0.04181 0.77195 0.28995
 N990 N -0.05211 0.78815 0.28032
 H991 H -0.10396 0.83540 0.28089
 H992 H -0.04033 0.75288 0.31852
 C993 C 0.55542 0.70375 0.29705
 C994 C 0.55065 0.69664 0.27648
 N995 N 0.56190 0.68065 0.26757
 C996 C 0.57763 0.67125 0.27834
 C997 C 0.58234 0.67797 0.29922
 N998 N 0.57108 0.69428 0.30792
 N999 N 0.54442 0.72011 0.30572
 C1000 C 0.52889 0.72971 0.29472
 C1001 C 0.52402 0.72255 0.27411
 N1002 N 0.53508 0.70611 0.26554
 H1003 H 0.58658 0.65898 0.27037
 H1004 H 0.52042 0.74276 0.30201
 C1005 C 0.58927 0.19096 0.79216
 C1006 C 0.58676 0.21283 0.79513
 N1007 N 0.60044 0.22346 0.80734
 C1008 C 0.61636 0.21321 0.81706
 C1009 C 0.61865 0.19110 0.81479
 N1010 N 0.60503 0.18061 0.80209
 N1011 N 0.57583 0.18044 0.77948
 C1012 C 0.55999 0.19080 0.76966
 C1013 C 0.55725 0.21270 0.77284
 N1014 N 0.57081 0.22315 0.78555
 H1015 H 0.62717 0.22241 0.82624
 H1016 H 0.54954 0.18200 0.75962
 C1017 C 1.06208 0.70960 0.80135
 C1018 C 1.05763 0.70340 0.78041
 N1019 N 1.06961 0.68852 0.77062
 C1020 C 1.08588 0.67945 0.78081
 C1021 C 1.09040 0.68541 0.80197
 N1022 N 1.07829 0.70049 0.81161
 N1023 N 1.05046 0.72499 0.81090
 C1024 C 1.03463 0.73457 0.80036
 C1025 C 1.03019 0.72841 0.77933
 N1026 N 1.04180 0.71286 0.76993
 H1027 H 1.09546 0.66825 0.77205
 H1028 H 1.02568 0.74690 0.80830
 C1029 C 1.07930 0.20379 0.29099
 C1030 C 1.07129 0.22329 0.29808
 N1031 N 1.07882 0.23220 0.31595
 C1032 C 1.09393 0.22255 0.32732
 C1033 C 1.10213 0.20263 0.32064
 N1034 N 1.09446 0.19398 0.30234
 N1035 N 1.07188 0.19511 0.27277
 C1036 C 1.05685 0.20513 0.26137
 C1037 C 1.04885 0.22476 0.26852
 N1038 N 1.05635 0.23327 0.28677
 H1039 H 1.09965 0.23117 0.34084
 H1040 H 1.05124 0.19787 0.24690
 C1041 C 0.58870 0.28803 0.68664
 C1042 C 0.58383 0.29546 0.70713
 N1043 N 0.59574 0.31053 0.71617
 C1044 C 0.61238 0.31856 0.70569
 C1045 C 0.61743 0.31125 0.68498
 N1046 N 0.60526 0.29607 0.67611
 N1047 N 0.57712 0.27251 0.67780
 C1048 C 0.56094 0.26397 0.68864
 C1049 C 0.55606 0.27133 0.70927
 N1050 N 0.56766 0.28702 0.71794
 H1051 H 0.62171 0.33005 0.71388
 H1052 H 0.55209 0.25151 0.68128
 C1053 C 0.56232 0.79104 0.18790
 C1054 C 0.55033 0.80301 0.20234
 N1055 N 0.55606 0.82294 0.20718
 C1056 C 0.57354 0.83138 0.19875
 C1057 C 0.58649 0.81914 0.18492
 N1058 N 0.58001 0.79929 0.17964
 N1059 N 0.55637 0.77115 0.18281
 C1060 C 0.53910 0.76263 0.19173
 C1061 C 0.52733 0.77442 0.20671
 N1062 N 0.53326 0.79445 0.21152
 H1063 H 0.57669 0.84756 0.20284
 H1064 H 0.53490 0.74663 0.18754
 C1065 C 1.08262 0.31319 0.19500
 C1066 C 1.07566 0.29427 0.18599
 N1067 N 1.08526 0.28630 0.16847
 C1068 C 1.10148 0.29637 0.15935
 C1069 C 1.10870 0.31565 0.16815
 N1070 N 1.09889 0.32333 0.18598
 N1071 N 1.07312 0.32100 0.21277
 C1072 C 1.05704 0.31063 0.22196
 C1073 C 1.05014 0.29152 0.21299
 N1074 N 1.05968 0.28386 0.19514
 H1075 H 1.10879 0.28859 0.14594
 H1076 H 1.04984 0.31718 0.23618
 C1077 C 1.06379 0.80229 0.69191
 C1078 C 1.05249 0.81291 0.70794
 N1079 N 1.05787 0.83272 0.71366
 C1080 C 1.07454 0.84219 0.70470
 C1081 C 1.08695 0.83116 0.68944
 N1082 N 1.08067 0.81159 0.68310
 N1083 N 1.05822 0.78250 0.68603
 C1084 C 1.04203 0.77277 0.69570
 C1085 C 1.03104 0.78318 0.71224
 N1086 N 1.03651 0.80314 0.71782
 H1087 H 1.07760 0.85825 0.70946
 H1088 H 1.03810 0.75689 0.69083
 C1089 C 0.43013 0.69323 0.70687
 C1090 C 0.43736 0.71257 0.69940
 N1091 N 0.42701 0.72256 0.68357
 C1092 C 0.40960 0.71417 0.67491
 C1093 C 0.40205 0.69475 0.68248
 N1094 N 0.41282 0.68488 0.69827
 N1095 N 0.44014 0.68341 0.72305
 C1096 C 0.45704 0.69222 0.73228
 C1097 C 0.46426 0.71175 0.72497
 N1098 N 0.45422 0.72137 0.70857
 H1099 H 0.40168 0.72298 0.66273
 H1100 H 0.46460 0.68416 0.74528
 C1101 C 0.42008 0.18901 0.21664
 C1102 C 0.43008 0.20640 0.20781
 N1103 N 0.42353 0.21417 0.18896
 C1104 C 0.40723 0.20553 0.17854
 C1105 C 0.39664 0.18814 0.18747
 N1106 N 0.40376 0.18043 0.20636
 N1107 N 0.42660 0.18116 0.23552
 C1108 C 0.44270 0.19004 0.24605
 C1109 C 0.45267 0.20768 0.23733
 N1110 N 0.44608 0.21537 0.21832
 H1111 H 0.40296 0.21251 0.16361
 H1112 H 0.44753 0.18350 0.26111
 C1113 C -0.07446 0.70057 0.20133
 C1114 C -0.07136 0.69513 0.22268
 N1115 N -0.08525 0.68267 0.23266
 C1116 C -0.10205 0.67516 0.22226
 C1117 C -0.10512 0.68010 0.20060
 N1118 N -0.09116 0.69292 0.19079
 N1119 N -0.06089 0.71369 0.19160
 C1120 C -0.04442 0.72168 0.20232
 C1121 C -0.04125 0.71616 0.22372
 N1122 N -0.05485 0.70292 0.23332
 H1123 H -0.11303 0.66589 0.23114
 H1124 H -0.03395 0.73224 0.19424
 C1125 C -0.06808 0.19159 0.70773
 C1126 C -0.06819 0.21370 0.70569
 N1127 N -0.08438 0.22342 0.69608
 C1128 C -0.10027 0.21208 0.68797
 C1129 C -0.09992 0.18981 0.68905
 N1130 N -0.08384 0.18011 0.69927
 N1131 N -0.05206 0.18201 0.71792
 C1132 C -0.03623 0.19350 0.72614
 C1133 C -0.03614 0.21562 0.72380
 N1134 N -0.05223 0.22515 0.71359
 H1135 H -0.11298 0.22043 0.68048
 H1136 H -0.02377 0.18545 0.73436
 C1137 C 0.28564 0.42522 0.31366
 C1138 C 0.29069 0.43105 0.29280
 N1139 N 0.30599 0.42052 0.28215
 C1140 C 0.31668 0.40449 0.29144
 C1141 C 0.31210 0.39874 0.31262
 N1142 N 0.29644 0.40930 0.32309
 N1143 N 0.26988 0.43544 0.32404
 C1144 C 0.25894 0.45123 0.31446
 C1145 C 0.26411 0.45720 0.29357
 N1146 N 0.27994 0.44688 0.28331
 H1147 H 0.32826 0.39616 0.28203
 H1148 H 0.24642 0.45906 0.32307
 C1149 C 0.30144 -0.07666 0.81978
 C1150 C 0.31104 -0.06455 0.80406
 N1151 N 0.33119 -0.06825 0.79900
 C1152 C 0.34211 -0.08401 0.80843
 C1153 C 0.33230 -0.09720 0.82351
 N1154 N 0.31221 -0.09261 0.82902
 N1155 N 0.28130 -0.07275 0.82506
 C1156 C 0.27027 -0.05732 0.81511
 C1157 C 0.27977 -0.04552 0.79893
 N1158 N 0.30001 -0.04938 0.79392
 H1159 H 0.35824 -0.08574 0.80408
 H1160 H 0.25421 -0.05457 0.81953
 C1161 C 0.80977 0.41158 0.79114
 C1162 C 0.78957 0.41706 0.79763
 N1163 N 0.78001 0.40548 0.81270
 C1164 C 0.78976 0.38888 0.82202
 C1165 C 0.81049 0.38341 0.81625
 N1166 N 0.81972 0.39497 0.80052
 N1167 N 0.81910 0.42308 0.77566
 C1168 C 0.80911 0.43976 0.76645
 C1169 C 0.78884 0.44535 0.77310
 N1170 N 0.77964 0.43371 0.78857
 H1171 H 0.78079 0.37992 0.83323
 H1172 H 0.81693 0.44858 0.75414
 C1173 C 0.81231 -0.07676 0.29021
 C1174 C 0.79529 -0.06688 0.30025
 N1175 N 0.79005 -0.07241 0.32033
 C1176 C 0.80060 -0.08789 0.33066
 C1177 C 0.81716 -0.09882 0.32027
 N1178 N 0.82272 -0.09237 0.30037
 N1179 N 0.81768 -0.07117 0.27014
 C1180 C 0.80660 -0.05626 0.25954
 C1181 C 0.78918 -0.04667 0.26939
 N1182 N 0.78406 -0.05215 0.28964
 H1183 H 0.79596 -0.09119 0.34680
 H1184 H 0.81116 -0.05221 0.24348
 C1185 C 0.30136 0.58317 0.70059
 C1186 C 0.30548 0.58090 0.72237
 N1187 N 0.31694 0.59567 0.73252
 C1188 C 0.32456 0.61255 0.72186
 C1189 C 0.32056 0.61484 0.69994
 N1190 N 0.30894 0.59999 0.68995
 N1191 N 0.28963 0.56868 0.69044
 C1192 C 0.28158 0.55209 0.70114
 C1193 C 0.28541 0.54984 0.72304
 N1194 N 0.29743 0.56430 0.73314
 H1195 H 0.33329 0.62422 0.73056
 H1196 H 0.27207 0.54090 0.69264
 C1197 C 0.28535 1.08574 0.19735
 C1198 C 0.29256 1.07893 0.21712
 N1199 N 0.30930 1.08816 0.22586
 C1200 C 0.31941 1.10389 0.21575
 C1201 C 0.31257 1.11096 0.19556
 N1202 N 0.29544 1.10152 0.18710
 N1203 N 0.26831 1.07655 0.18883
 C1204 C 0.25817 1.06089 0.19930
 C1205 C 0.26543 1.05410 0.21922
 N1206 N 0.28252 1.06339 0.22753
 H1207 H 0.33218 1.11083 0.22411
 H1208 H 0.24458 1.05392 0.19222
 C1209 C 0.80397 0.58265 0.22169
 C1210 C 0.78669 0.57351 0.21212
 N1211 N 0.78017 0.58070 0.19301
 C1212 C 0.79005 0.59675 0.18301
 C1213 C 0.80753 0.60622 0.19257
 N1214 N 0.81386 0.59856 0.21174
 N1215 N 0.81063 0.57553 0.24079
 C1216 C 0.80076 0.55952 0.25078
 C1217 C 0.78345 0.55016 0.24118
 N1218 N 0.77684 0.55745 0.22201
 H1219 H 0.78428 0.60145 0.16768
 H1220 H 0.80648 0.55408 0.26596
 C1221 C 0.81205 1.07913 0.70978
 C1222 C 0.80142 1.06597 0.69557
 N1223 N 0.80239 1.06990 0.67443
 C1224 C 0.81302 1.08668 0.66682
 C1225 C 0.82284 1.10077 0.68100
 N1226 N 0.82236 1.09629 0.70225
 N1227 N 0.81151 1.07473 0.73091
 C1228 C 0.80068 1.05795 0.73845
 C1229 C 0.78946 1.04512 0.72429
 N1230 N 0.79022 1.04951 0.70311
 H1231 H 0.81370 1.08891 0.64980
 H1232 H 0.80041 1.05498 0.75539
 C1233 C 0.68818 0.56689 0.31511
 C1234 C 0.68472 0.55930 0.29448
 N1235 N 0.66838 0.56686 0.28324
 C1236 C 0.65560 0.58212 0.29148
 C1237 C 0.65947 0.59043 0.31196
 N1238 N 0.67558 0.58217 0.32325
 N1239 N 0.70492 0.55994 0.32614
 C1240 C 0.71861 0.54592 0.31727
 C1241 C 0.71547 0.53868 0.29636
 N1242 N 0.69840 0.54540 0.28557
 H1243 H 0.64338 0.58828 0.28156
 H1244 H 0.73196 0.54081 0.32632
 C1245 C 0.69724 1.07703 0.79194
 C1246 C 0.71093 1.06434 0.80361
 N1247 N 0.71387 1.06853 0.82450
 C1248 C 0.70428 1.08521 0.83423
 C1249 C 0.69122 1.09895 0.82244
 N1250 N 0.68779 1.09395 0.80154
 N1251 N 0.69411 1.07258 0.77103
 C1252 C 0.70428 1.05617 0.76125
 C1253 C 0.71847 1.04376 0.77282
 N1254 N 0.72129 1.04816 0.79383
 H1255 H 0.70681 1.08714 0.85106
 H1256 H 0.70165 1.05317 0.74452
 C1257 C 0.20519 0.58429 0.80558
 C1258 C 0.19854 0.57529 0.78640
 N1259 N 0.18133 0.58298 0.77689
 C1260 C 0.17027 0.59921 0.78567
 C1261 C 0.17666 0.60845 0.80519
 N1262 N 0.19422 0.60059 0.81441
 N1263 N 0.22261 0.57669 0.81497
 C1264 C 0.23369 0.56051 0.80596
 C1265 C 0.22707 0.55155 0.78661
 N1266 N 0.20958 0.55922 0.77735
 H1267 H 0.15724 0.60502 0.77672
 H1268 H 0.24756 0.55482 0.81377
 C1269 C 0.18625 1.09349 0.29906
 C1270 C 0.20569 1.08674 0.30630
 N1271 N 0.21507 1.09764 0.32205
 C1272 C 0.20589 1.11490 0.33117
 C1273 C 0.18604 1.12187 0.32430
 N1274 N 0.17697 1.11078 0.30813
 N1275 N 0.17698 1.08264 0.28306
 C1276 C 0.18636 1.06538 0.27397
 C1277 C 0.20595 1.05859 0.28119
 N1278 N 0.21508 1.06956 0.29726
 H1279 H 0.21462 1.12306 0.34316
 H1280 H 0.17865 1.05714 0.26117
 C1281 C 0.70525 0.41639 0.69453
 C1282 C 0.72621 0.41997 0.68989
 N1283 N 0.73643 0.40662 0.67631
 C1284 C 0.72670 0.38980 0.66727
 C1285 C 0.70562 0.38600 0.67205
 N1286 N 0.69558 0.39967 0.68557
 N1287 N 0.69503 0.42924 0.70851
 C1288 C 0.70490 0.44539 0.71835
 C1289 C 0.72603 0.44895 0.71407
 N1290 N 0.73618 0.43618 0.69972
 H1291 H 0.73565 0.37931 0.65707
 H1292 H 0.69635 0.45521 0.72961
 C1293 C 0.70173 -0.08130 0.19090
 C1294 C 0.69622 -0.07420 0.21134
 N1295 N 0.67996 -0.08303 0.22163
 C1296 C 0.66888 -0.09873 0.21241
 C1297 C 0.67427 -0.10598 0.19180
 N1298 N 0.69068 -0.09693 0.18167
 N1299 N 0.71826 -0.07273 0.18076
 C1300 C 0.72959 -0.05733 0.19022
 C1301 C 0.72408 -0.05017 0.21075
 N1302 N 0.70745 -0.05883 0.22075
 H1303 H 0.65648 -0.10575 0.22147
 H1304 H 0.74267 -0.05074 0.18179
 C1305 C 0.18832 0.42295 0.20670
 C1306 C 0.20915 0.42823 0.20344
 N1307 N 0.22075 0.41709 0.18911
 C1308 C 0.21244 0.40104 0.17763
 C1309 C 0.19130 0.39593 0.18028
 N1310 N 0.17988 0.40706 0.19504
 N1311 N 0.17689 0.43379 0.22148
 C1312 C 0.18537 0.44971 0.23311
 C1313 C 0.20621 0.45524 0.22964
 N1314 N 0.21755 0.44426 0.21482
 H1315 H 0.22251 0.39229 0.16688
 H1316 H 0.17590 0.45808 0.24476
 C1317 C 0.20233 -0.07343 0.70867
 C1318 C 0.19733 -0.07029 0.73023
 N1319 N 0.18273 -0.08244 0.73954
 C1320 C 0.17266 -0.09746 0.72819
 C1321 C 0.17719 -0.10035 0.70635
 N1322 N 0.19215 -0.08827 0.69726
 N1323 N 0.21729 -0.06160 0.69948
 C1324 C 0.22749 -0.04672 0.71091
 C1325 C 0.22235 -0.04338 0.73248
 N1326 N 0.20733 -0.05530 0.74161
 H1327 H 0.16150 -0.10717 0.73636
 H1328 H 0.23936 -0.03750 0.70317
 C1329 C 0.29337 0.31559 0.42548
 C1330 C 0.29824 0.29443 0.42998
 N1331 N 0.31124 0.28347 0.41682
 C1332 C 0.31984 0.29276 0.39949
 C1333 C 0.31547 0.31420 0.39514
 N1334 N 0.30210 0.32496 0.40829
 N1335 N 0.27998 0.32642 0.43836
 C1336 C 0.27120 0.31704 0.45554
 C1337 C 0.27615 0.29587 0.46021
 N1338 N 0.28963 0.28508 0.44726
 H1339 H 0.32973 0.28330 0.38916
 H1340 H 0.26051 0.32606 0.46549
 C1341 C 0.29498 0.80810 -0.08454
 C1342 C 0.30377 0.79148 -0.07295
 N1343 N 0.32373 0.78550 -0.07694
 C1344 C 0.33528 0.79530 -0.09209
 C1345 C 0.32644 0.81188 -0.10403
 N1346 N 0.30643 0.81778 -0.09970
 N1347 N 0.27514 0.81434 -0.08046
 C1348 C 0.26361 0.80466 -0.06528
 C1349 C 0.27227 0.78784 -0.05368
 N1350 N 0.29224 0.78167 -0.05785
 H1351 H 0.35122 0.79032 -0.09440
 H1352 H 0.24781 0.80996 -0.06244
 C1353 C 0.79441 0.30626 -0.06778
 C1354 C 0.79876 0.28503 -0.06310
 N1355 N 0.81207 0.27385 -0.07571
 C1356 C 0.82135 0.28292 -0.09278
 C1357 C 0.81725 0.30433 -0.09750
 N1358 N 0.80372 0.31538 -0.08479
 N1359 N 0.78068 0.31731 -0.05548
 C1360 C 0.77096 0.30804 -0.03877
 C1361 C 0.77519 0.28671 -0.03409
 N1362 N 0.78911 0.27576 -0.04639
 H1363 H 0.83136 0.27322 -0.10278
 H1364 H 0.75994 0.31719 -0.02935
 C1365 C 0.78138 0.80536 0.41083
 C1366 C 0.79007 0.78809 0.42144
 N1367 N 0.80992 0.78204 0.41717
 C1368 C 0.82154 0.79240 0.40254
 C1369 C 0.81284 0.80958 0.39144
 N1370 N 0.79289 0.81559 0.39610
 N1371 N 0.76159 0.81162 0.41544
 C1372 C 0.75006 0.80127 0.43023
 C1373 C 0.75871 0.78377 0.44071
 N1374 N 0.77855 0.77770 0.43599
 H1375 H 0.83742 0.78733 0.40000
 H1376 H 0.73434 0.80652 0.43361
 C1377 C 0.71536 0.28983 0.56665
 C1378 C 0.71032 0.26840 0.56476
 N1379 N 0.69814 0.25943 0.57978
 C1380 C 0.69059 0.27093 0.59654
 C1381 C 0.69527 0.29261 0.59839
 N1382 N 0.70773 0.30138 0.58330
 N1383 N 0.72798 0.29870 0.55193
 C1384 C 0.73590 0.28707 0.53545
 C1385 C 0.73090 0.26556 0.53346
 N1386 N 0.71812 0.25676 0.54822
 H1387 H 0.68141 0.26297 0.60842
 H1388 H 0.74604 0.29456 0.52404
 C1389 C 0.68351 0.78648 1.08284
 C1390 C 0.70524 0.78707 1.08420
 N1391 N 0.71420 0.79553 1.10166
 C1392 C 0.70246 0.80403 1.11761
 C1393 C 0.68064 0.80464 1.11590
 N1394 N 0.67167 0.79544 1.09861
 N1395 N 0.67466 0.77738 1.06554
 C1396 C 0.68657 0.76898 1.04954
 C1397 C 0.70833 0.77014 1.05063
 N1398 N 0.71709 0.77912 1.06805
 H1399 H 0.71018 0.81053 1.13137
 H1400 H 0.67914 0.76178 1.03595
 C1401 C 0.19419 0.28883 1.06640
 C1402 C 0.21116 0.29730 1.05556
 N1403 N 0.21779 0.31696 1.06076
 C1404 C 0.20836 0.32845 1.07655
 C1405 C 0.19155 0.31980 1.08789
 N1406 N 0.18496 0.30017 1.08222
 N1407 N 0.18742 0.26924 1.06125
 C1408 C 0.19704 0.25758 1.04577
 C1409 C 0.21434 0.26583 1.03510
 N1410 N 0.22091 0.28561 1.04024
 H1411 H 0.21398 0.34410 1.08000
 H1412 H 0.19144 0.24192 1.04214
 C1413 C 0.18224 0.79869 0.58877
 C1414 C 0.19635 0.81104 0.57735
 N1415 N 0.19918 0.83147 0.58310
 C1416 C 0.18887 0.84005 0.60005
 C1417 C 0.17525 0.82756 0.61217
 N1418 N 0.17207 0.80716 0.60592
 N1419 N 0.17930 0.77829 0.58279
 C1420 C 0.19000 0.76963 0.56606
 C1421 C 0.20455 0.78184 0.55489
 N1422 N 0.20723 0.80235 0.56084
 H1423 H 0.19132 0.85650 0.60392
 H1424 H 0.18746 0.75327 0.56180
 C1425 C 0.30094 0.71814 0.58660
 C1426 C 0.28670 0.70533 0.57593
 N1427 N 0.28480 0.68482 0.58163
 C1428 C 0.29621 0.67659 0.59776
 C1429 C 0.31011 0.68951 0.60908
 N1430 N 0.31222 0.71001 0.60289
 N1431 N 0.30304 0.73859 0.58068
 C1432 C 0.29146 0.74685 0.56466
 C1433 C 0.27687 0.73416 0.55414
 N1434 N 0.27495 0.71361 0.56008
 H1435 H 0.29448 0.66006 0.60149
 H1436 H 0.29342 0.76325 0.56040
 C1437 C 0.29097 0.18526 1.07709
 C1438 C 0.29466 0.20640 1.07180
 N1439 N 0.30684 0.21831 1.08449
 C1440 C 0.31577 0.21002 1.10211
 C1441 C 0.31264 0.18862 1.10727
 N1442 N 0.30005 0.17686 1.09460
 N1443 N 0.27833 0.17352 1.06463
 C1444 C 0.26919 0.18199 1.04715
 C1445 C 0.27300 0.20314 1.04172
 N1446 N 0.28571 0.21480 1.05426
 H1447 H 0.32495 0.22024 1.11207
 H1448 H 0.25911 0.17229 1.03756
 C1449 C 0.79237 0.69230 1.08483
 C1450 C 0.79823 0.71288 1.07973
 N1451 N 0.81300 0.72260 1.09139
 C1452 C 0.82227 0.71269 1.10800
 C1453 C 0.81656 0.69190 1.11327
 N1454 N 0.80165 0.68236 1.10135
 N1455 N 0.77724 0.68274 1.07344
 C1456 C 0.76763 0.69292 1.05716
 C1457 C 0.77347 0.71360 1.05201
 N1458 N 0.78872 0.72299 1.06348
 H1459 H 0.83351 0.72133 1.11715
 H1460 H 0.75557 0.68497 1.04839
 C1461 C 0.80538 0.18179 0.56850
 C1462 C 0.80950 0.20277 0.56305
 N1463 N 0.82217 0.21441 0.57549
 C1464 C 0.83100 0.20604 0.59316
 C1465 C 0.82713 0.18484 0.59869
 N1466 N 0.81427 0.17335 0.58606
 N1467 N 0.79213 0.17035 0.55646
 C1468 C 0.78265 0.17904 0.53930
 C1469 C 0.78667 0.20013 0.53384
 N1470 N 0.80014 0.21144 0.54586
 H1471 H 0.84039 0.21620 0.60291
 H1472 H 0.77197 0.16963 0.53012
 C1473 C 0.67048 0.70798 0.40842
 C1474 C 0.69209 0.70483 0.40913
 N1475 N 0.70165 0.69302 0.39384
 C1476 C 0.69056 0.68378 0.37812
 C1477 C 0.66878 0.68612 0.37779
 N1478 N 0.65930 0.69850 0.39286
 N1479 N 0.66101 0.72008 0.42360
 C1480 C 0.67215 0.72910 0.43948
 C1481 C 0.69375 0.72565 0.44042
 N1482 N 0.70318 0.71359 0.42511
 H1483 H 0.69868 0.67446 0.36613
 H1484 H 0.66420 0.73871 0.45136
 C1485 C 0.69330 0.20972 -0.06819
 C1486 C 0.71323 0.20332 -0.06205
 N1487 N 0.72321 0.18769 -0.07294
 C1488 C 0.71414 0.17793 -0.08969
 C1489 C 0.69389 0.18389 -0.09586
 N1490 N 0.68408 0.19987 -0.08488
 N1491 N 0.68366 0.22587 -0.05751
 C1492 C 0.69313 0.23588 -0.04098
 C1493 C 0.71310 0.22932 -0.03477
 N1494 N 0.72255 0.21314 -0.04555
 H1495 H 0.72307 0.16609 -0.09829
 H1496 H 0.68516 0.24872 -0.03279
 C1497 C 0.19788 0.70061 -0.08936
 C1498 C 0.19278 0.72201 -0.08630
 N1499 N 0.17947 0.73166 -0.09980
 C1500 C 0.17067 0.72082 -0.11607
 C1501 C 0.17508 0.69908 -0.11890
 N1502 N 0.18888 0.68964 -0.10546
 N1503 N 0.21166 0.69116 -0.07611
 C1504 C 0.22052 0.70216 -0.05989
 C1505 C 0.21514 0.72354 -0.05658
 N1506 N 0.20137 0.73290 -0.06998
 H1507 H 0.16058 0.72933 -0.12674
 H1508 H 0.23143 0.69423 -0.04955
 C1509 C 0.20158 0.20773 0.43576
 C1510 C 0.19639 0.22907 0.43924
 N1511 N 0.18236 0.23867 0.42651
 C1512 C 0.17315 0.22791 0.41045
 C1513 C 0.17806 0.20635 0.40694
 N1514 N 0.19234 0.19690 0.41976
 N1515 N 0.21614 0.19834 0.44811
 C1516 C 0.22586 0.20939 0.46368
 C1517 C 0.22074 0.23083 0.46713
 N1518 N 0.20600 0.24009 0.45482
 H1519 H 0.16264 0.23646 0.40024
 H1520 H 0.23754 0.20155 0.47318
 C1521 C 0.31673 0.42914 0.71386
 C1522 C 0.29538 0.43073 0.70979
 N1523 N 0.28616 0.41581 0.69768
 C1524 C 0.29736 0.39953 0.68911
 C1525 C 0.31895 0.39817 0.69253
 N1526 N 0.32802 0.41301 0.70511
 N1527 N 0.32585 0.44380 0.72645
 C1528 C 0.31455 0.45995 0.73519
 C1529 C 0.29318 0.46169 0.73096
 N1530 N 0.28413 0.44697 0.71831
 H1531 H 0.28933 0.38772 0.67989
 H1532 H 0.32220 0.47137 0.74525
 C1533 C 0.28935 0.93150 0.20645
 C1534 C 0.26868 0.93607 0.20130
 N1535 N 0.25878 0.92366 0.18701
 C1536 C 0.26861 0.90694 0.17747
 C1537 C 0.28956 0.90236 0.18227
 N1538 N 0.29925 0.91490 0.19683
 N1539 N 0.29913 0.94362 0.22111
 C1540 C 0.28915 0.96012 0.23089
 C1541 C 0.26842 0.96486 0.22569
 N1542 N 0.25873 0.95263 0.21093
 H1543 H 0.25985 0.89726 0.16664
 H1544 H 0.29735 0.96947 0.24254
 C1545 C 0.81834 0.43522 0.21379
 C1546 C 0.80423 0.44848 0.20333
 N1547 N 0.80187 0.44674 0.18198
 C1548 C 0.81254 0.43183 0.17062
 C1549 C 0.82585 0.41761 0.18118
 N1550 N 0.82866 0.42003 0.20254
 N1551 N 0.82076 0.43710 0.23517
 C1552 C 0.80937 0.45144 0.24664
 C1553 C 0.79459 0.46410 0.23626
 N1554 N 0.79256 0.46241 0.21479
 H1555 H 0.81035 0.43099 0.15359
 H1556 H 0.81129 0.45239 0.26371
 C1557 C 0.80267 0.91804 0.69801
 C1558 C 0.78875 0.93083 0.68677
 N1559 N 0.78366 0.92552 0.66654
 C1560 C 0.79161 0.90780 0.65707
 C1561 C 0.80517 0.89442 0.66843
 N1562 N 0.81047 0.90018 0.68866
 N1563 N 0.80789 0.92350 0.71822
 C1564 C 0.79959 0.94106 0.72778
 C1565 C 0.78520 0.95366 0.71671
 N1566 N 0.78026 0.94818 0.69637
 H1567 H 0.78747 0.90451 0.64076
 H1568 H 0.80377 0.94482 0.74401
 C1569 C 0.70346 0.57299 0.70411
 C1570 C 0.72342 0.56745 0.69690
 N1571 N 0.73274 0.57947 0.68191
 C1572 C 0.72303 0.59676 0.67371
 C1573 C 0.70282 0.60243 0.68070
 N1574 N 0.69368 0.59022 0.69589
 N1575 N 0.69431 0.56124 0.71948
 C1576 C 0.70427 0.54426 0.72804
 C1577 C 0.72435 0.53863 0.72088
 N1578 N 0.73337 0.55045 0.70536
 H1579 H 0.73139 0.60613 0.66228
 H1580 H 0.69661 0.53529 0.74035
 C1581 C 0.69947 0.06708 0.18654
 C1582 C 0.69414 0.06182 0.20749
 N1583 N 0.67831 0.07227 0.21741
 C1584 C 0.66759 0.08787 0.20737
 C1585 C 0.67294 0.09332 0.18629
 N1586 N 0.68881 0.08258 0.17654
 N1587 N 0.71565 0.05710 0.17674
 C1588 C 0.72690 0.04213 0.18703
 C1589 C 0.72172 0.03688 0.20812
 N1590 N 0.70533 0.04681 0.21781
 H1591 H 0.65559 0.09624 0.21616
 H1592 H 0.73979 0.03448 0.17884
 C1593 C 0.18426 0.57722 0.20798
 C1594 C 0.20473 0.57103 0.20325
 N1595 N 0.21556 0.58150 0.18817
 C1596 C 0.20686 0.59785 0.17743
 C1597 C 0.18614 0.60408 0.18180
 N1598 N 0.17546 0.59351 0.19718
 N1599 N 0.17365 0.56705 0.22353
 C1600 C 0.18265 0.55100 0.23460
 C1601 C 0.20320 0.54475 0.22984
 N1602 N 0.21366 0.55499 0.21418
 H1603 H 0.21637 0.60612 0.16607
 H1604 H 0.17389 0.54324 0.24698
 C1605 C 0.20132 0.07798 0.71851
 C1606 C 0.22210 0.07290 0.71390
 N1607 N 0.23290 0.08494 0.70007
 C1608 C 0.22389 0.10188 0.69055
 C1609 C 0.20291 0.10704 0.69495
 N1610 N 0.19226 0.09480 0.70895
 N1611 N 0.19068 0.06632 0.73286
 C1612 C 0.19996 0.04983 0.74291
 C1613 C 0.22082 0.04472 0.73834
 N1614 N 0.23134 0.05640 0.72382
 H1615 H 0.23338 0.11140 0.68025
 H1616 H 0.19114 0.04084 0.75436
 C1617 C 0.27850 0.58146 0.31302
 C1618 C 0.28406 0.57591 0.29212
 N1619 N 0.29802 0.58777 0.28145
 C1620 C 0.30685 0.60490 0.29074
 C1621 C 0.30166 0.61050 0.31195
 N1622 N 0.28743 0.59846 0.32240
 N1623 N 0.26408 0.56992 0.32350
 C1624 C 0.25491 0.55308 0.31396
 C1625 C 0.26053 0.54738 0.29300
 N1626 N 0.27506 0.55901 0.28263
 H1627 H 0.31744 0.61406 0.28129
 H1628 H 0.24340 0.54424 0.32267
 C1629 C 0.30524 0.07105 0.82026
 C1630 C 0.31442 0.05769 0.80495
 N1631 N 0.33472 0.05995 0.79978
 C1632 C 0.34624 0.07540 0.80885
 C1633 C 0.33689 0.08957 0.82352
 N1634 N 0.31660 0.08670 0.82903
 N1635 N 0.28494 0.06861 0.82556
 C1636 C 0.27329 0.05353 0.81597
 C1637 C 0.28231 0.04061 0.80008
 N1638 N 0.30274 0.04296 0.79512
 H1639 H 0.36242 0.07655 0.80446
 H1640 H 0.25709 0.05206 0.82026
 C1641 C 0.79786 0.56985 0.80508
 C1642 C 0.80222 0.56758 0.78328
 N1643 N 0.81320 0.58270 0.77319
 C1644 C 0.82014 0.59997 0.78387
 C1645 C 0.81605 0.60232 0.80589
 N1646 N 0.80485 0.58704 0.81583
 N1647 N 0.78630 0.55505 0.81505
 C1648 C 0.77873 0.53819 0.80416
 C1649 C 0.78296 0.53590 0.78224
 N1650 N 0.79475 0.55070 0.77237
 H1651 H 0.82825 0.61187 0.77496
 H1652 H 0.76934 0.52680 0.81249
 C1653 C 0.80193 0.07162 0.29364
 C1654 C 0.81282 0.05882 0.27895
 N1655 N 0.83338 0.06188 0.27574
 C1656 C 0.84348 0.07751 0.28619
 C1657 C 0.83243 0.09103 0.30028
 N1658 N 0.81190 0.08744 0.30381
 N1659 N 0.78144 0.06832 0.29716
 C1660 C 0.77131 0.05283 0.28655
 C1661 C 0.78207 0.04026 0.27148
 N1662 N 0.80265 0.04355 0.26809
 H1663 H 0.85992 0.07933 0.28339
 H1664 H 0.75495 0.05055 0.28965
 C1665 C 0.71053 0.41790 0.31088
 C1666 C 0.70552 0.42431 0.29021
 N1667 N 0.69173 0.41303 0.27872
 C1668 C 0.68269 0.39556 0.28695
 C1669 C 0.68762 0.38904 0.30775
 N1670 N 0.70152 0.40052 0.31910
 N1671 N 0.72462 0.42889 0.32226
 C1672 C 0.73405 0.44604 0.31386
 C1673 C 0.72913 0.45249 0.29310
 N1674 N 0.71488 0.44145 0.28180
 H1675 H 0.67229 0.38665 0.27701
 H1676 H 0.74526 0.45450 0.32330
 C1677 C 0.70052 0.91730 0.78489
 C1678 C 0.71277 0.92996 0.79806
 N1679 N 0.71530 0.92464 0.81873
 C1680 C 0.70654 0.90698 0.82683
 C1681 C 0.69493 0.89351 0.81355
 N1682 N 0.69200 0.89936 0.79285
 N1683 N 0.69773 0.92296 0.76426
 C1684 C 0.70687 0.94054 0.75616
 C1685 C 0.71971 0.95290 0.76918
 N1686 N 0.72220 0.94724 0.78990
 H1687 H 0.70862 0.90373 0.84353
 H1688 H 0.70463 0.94445 0.73959
 C1689 C 0.20226 0.42816 0.79891
 C1690 C 0.22372 0.42962 0.80236
 N1691 N 0.23388 0.41360 0.81212
 C1692 C 0.22359 0.39621 0.81873
 C1693 C 0.20197 0.39471 0.81559
 N1694 N 0.19192 0.41083 0.80559
 N1695 N 0.19222 0.44384 0.78844
 C1696 C 0.20272 0.46077 0.78100
 C1697 C 0.22425 0.46218 0.78422
 N1698 N 0.23422 0.44658 0.79500
 H1699 H 0.23243 0.38353 0.82585
 H1700 H 0.19439 0.47288 0.77234
 C1701 C 0.19516 0.93513 0.31322
 C1702 C 0.19069 0.93750 0.29153
 N1703 N 0.17888 0.92299 0.28155
 C1704 C 0.17105 0.90630 0.29225
 C1705 C 0.17491 0.90401 0.31423
 N1706 N 0.18715 0.91853 0.32408
 N1707 N 0.20764 0.94933 0.32295
 C1708 C 0.21591 0.96572 0.31193
 C1709 C 0.21133 0.96816 0.29020
 N1710 N 0.19874 0.95392 0.28060
 H1711 H 0.16231 0.89479 0.28339
 H1712 H 0.22596 0.97669 0.32003
 C1713 C 0.43402 0.29466 0.69573
 C1714 C 0.44456 0.30480 0.71227
 N1715 N 0.43815 0.32433 0.71873
 C1716 C 0.42155 0.33410 0.70956
 C1717 C 0.41060 0.32380 0.69316
 N1718 N 0.41741 0.30430 0.68671
 N1719 N 0.44043 0.27526 0.68900
 C1720 C 0.45688 0.26541 0.69816
 C1721 C 0.46742 0.27531 0.71500
 N1722 N 0.46097 0.29490 0.72162
 H1723 H 0.41727 0.34980 0.71495
 H1724 H 0.46149 0.24986 0.69249
 C1725 C 0.40358 0.79769 0.18704
 C1726 C 0.41405 0.80826 0.20332
 N1727 N 0.40760 0.82789 0.20937
 C1728 C 0.39095 0.83739 0.20006
 C1729 C 0.37996 0.82664 0.18401
 N1730 N 0.38687 0.80704 0.17792
 N1731 N 0.41010 0.77813 0.18081
 C1732 C 0.42657 0.76853 0.19029
 C1733 C 0.43689 0.77889 0.20696
 N1734 N 0.43035 0.79861 0.21298
 H1735 H 0.38665 0.85316 0.20515
 H1736 H 0.43127 0.75283 0.18515
 C1737 C 0.93022 0.30540 0.18378
 C1738 C 0.93344 0.30936 0.20551
 N1739 N 0.92045 0.32266 0.21623
 C1740 C 0.90451 0.33248 0.20617
 C1741 C 0.90147 0.32911 0.18419
 N1742 N 0.91438 0.31536 0.17360
 N1743 N 0.94299 0.29165 0.17323
 C1744 C 0.95882 0.28168 0.18345
 C1745 C 0.96217 0.28577 0.20521
 N1746 N 0.94933 0.29958 0.21567
 H1747 H 0.89420 0.34258 0.21543
 H1748 H 0.96871 0.27074 0.17466
 C1749 C 0.91313 0.80860 0.69311
 C1750 C 0.91652 0.78684 0.69006
 N1751 N 0.90371 0.77577 0.67729
 C1752 C 0.88772 0.78546 0.66723
 C1753 C 0.88443 0.80743 0.66980
 N1754 N 0.89726 0.81838 0.68291
 N1755 N 0.92555 0.81951 0.70650
 C1756 C 0.94115 0.80958 0.71708
 C1757 C 0.94457 0.78778 0.71400
 N1758 N 0.93216 0.77696 0.70045
 H1759 H 0.87748 0.77584 0.65781
 H1760 H 0.95075 0.81862 0.72778
 C1761 C 0.58098 0.28044 0.31196
 C1762 C 0.57495 0.28512 0.29109
 N1763 N 0.58663 0.29819 0.27911
 C1764 C 0.60400 0.30708 0.28711
 C1765 C 0.60994 0.30293 0.30826
 N1766 N 0.59827 0.28945 0.32008
 N1767 N 0.56947 0.26691 0.32370
 C1768 C 0.55220 0.25783 0.31548
 C1769 C 0.54608 0.26265 0.29459
 N1770 N 0.55768 0.27623 0.28296
 H1771 H 0.61316 0.31699 0.27684
 H1772 H 0.54336 0.24703 0.32514
 C1773 C 0.58628 0.80146 0.79096
 C1774 C 0.58768 0.77927 0.79040
 N1775 N 0.60557 0.76954 0.79614
 C1776 C 0.62197 0.78091 0.80298
 C1777 C 0.62037 0.80310 0.80463
 N1778 N 0.60256 0.81290 0.79825
 N1779 N 0.56848 0.81112 0.78463
 C1780 C 0.55208 0.79962 0.77776
 C1781 C 0.55334 0.77741 0.77763
 N1782 N 0.57120 0.76779 0.78393
 H1783 H 0.63599 0.77265 0.80764
 H1784 H 0.53816 0.80771 0.77252
 C1785 C 0.08393 0.29849 0.80240
 C1786 C 0.08016 0.30330 0.78099
 N1787 N 0.09391 0.31542 0.77025
 C1788 C 0.11124 0.32292 0.77990
 C1789 C 0.11520 0.31799 0.80139
 N1790 N 0.10126 0.30584 0.81199
 N1791 N 0.07048 0.28612 0.81315
 C1792 C 0.05355 0.27804 0.80341
 C1793 C 0.04982 0.28238 0.78180
 N1794 N 0.06324 0.29512 0.77112
 H1795 H 0.12204 0.33211 0.77066
 H1796 H 0.04329 0.26797 0.81239
 C1797 C 0.07608 0.78906 0.31589
 C1798 C 0.07376 0.79208 0.29393
 N1799 N 0.08666 0.80518 0.28345
 C1800 C 0.10156 0.81587 0.29397
 C1801 C 0.10345 0.81385 0.31624
 N1802 N 0.09078 0.80009 0.32662
 N1803 N 0.06339 0.77534 0.32608
 C1804 C 0.04841 0.76470 0.31529
 C1805 C 0.04576 0.76827 0.29340
 N1806 N 0.05863 0.78185 0.28333
 H1807 H 0.11187 0.82573 0.28486
 H1808 H 0.03843 0.75396 0.32378
 C1809 C 0.58832 0.68668 0.71065
 C1810 C 0.58787 0.70888 0.71177
 N1811 N 0.60474 0.71990 0.70566
 C1812 C 0.62187 0.70980 0.69790
 C1813 C 0.62208 0.68763 0.69572
 N1814 N 0.60531 0.67654 0.70246
 N1815 N 0.57155 0.67570 0.71735
 C1816 C 0.55442 0.68593 0.72514
 C1817 C 0.55384 0.70814 0.72585
 N1818 N 0.57066 0.71907 0.71918
 H1819 H 0.63502 0.71905 0.69285
 H1820 H 0.54137 0.67685 0.73076
 C1821 C 0.56996 0.18038 0.21156
 C1822 C 0.55919 0.19715 0.20211
 N1823 N 0.56413 0.20294 0.18197
 C1824 C 0.57966 0.19296 0.17093
 C1825 C 0.59109 0.17654 0.18062
 N1826 N 0.58561 0.17065 0.20070
 N1827 N 0.56495 0.17440 0.23163
 C1828 C 0.54972 0.18465 0.24282
 C1829 C 0.53924 0.20185 0.23360
 N1830 N 0.54420 0.20759 0.21335
 H1831 H 0.58285 0.19791 0.15484
 H1832 H 0.54620 0.17971 0.25888
 C1833 C 0.07948 0.69043 0.20660
 C1834 C 0.07478 0.71167 0.20250
 N1835 N 0.08658 0.72248 0.18844
 C1836 C 0.10285 0.71300 0.17813
 C1837 C 0.10756 0.69152 0.18191
 N1838 N 0.09564 0.68090 0.19624
 N1839 N 0.06796 0.67974 0.22103
 C1840 C 0.05193 0.68937 0.23162
 C1841 C 0.04711 0.71069 0.22752
 N1842 N 0.05872 0.72128 0.21296
 H1843 H 0.11213 0.72241 0.16752
 H1844 H 0.04307 0.68048 0.24310
 C1845 C 0.08804 0.20889 0.69970
 C1846 C 0.08379 0.20484 0.72122
 N1847 N 0.09755 0.19335 0.73272
 C1848 C 0.11527 0.18554 0.72366
 C1849 C 0.11951 0.18924 0.70194
 N1850 N 0.10570 0.20102 0.69059
 N1851 N 0.07451 0.22076 0.68831
 C1852 C 0.05700 0.22893 0.69750
 C1853 C 0.05270 0.22499 0.71910
 N1854 N 0.06626 0.21292 0.73042
 H1855 H 0.12603 0.17685 0.73350
 H1856 H 0.04662 0.23854 0.68805
 C1857 C 0.40713 0.69723 0.29218
 C1858 C 0.41110 0.71851 0.29675
 N1859 N 0.39916 0.72887 0.31142
 C1860 C 0.38343 0.71894 0.32173
 C1861 C 0.37935 0.69750 0.31724
 N1862 N 0.39147 0.68732 0.30245
 N1863 N 0.41874 0.68690 0.27725
 C1864 C 0.43410 0.69692 0.26655
 C1865 C 0.43812 0.71832 0.27094
 N1866 N 0.42650 0.72859 0.28608
 H1867 H 0.37396 0.72798 0.33282
 H1868 H 0.44301 0.68824 0.25466
 C1869 C 0.43920 0.20139 0.80535
 C1870 C 0.44182 0.19597 0.78380
 N1871 N 0.42885 0.18194 0.77467
 C1872 C 0.41354 0.17274 0.78615
 C1873 C 0.41116 0.17751 0.80802
 N1874 N 0.42403 0.19201 0.81697
 N1875 N 0.45192 0.21588 0.81428
 C1876 C 0.46717 0.22515 0.80263
 C1877 C 0.47000 0.21949 0.78110
 N1878 N 0.45715 0.20500 0.77226
 H1879 H 0.40323 0.16205 0.77807
 H1880 H 0.47707 0.23665 0.81015
 C1881 C 0.91337 0.69826 0.79267
 C1882 C 0.91576 0.71966 0.79796
 N1883 N 0.90250 0.72885 0.81221
 C1884 C 0.88698 0.71763 0.82143
 C1885 C 0.88457 0.69605 0.81623
 N1886 N 0.89799 0.68709 0.80188
 N1887 N 0.92621 0.68904 0.77812
 C1888 C 0.94132 0.70029 0.76844
 C1889 C 0.94381 0.72180 0.77356
 N1890 N 0.93096 0.73098 0.78836
 H1891 H 0.87644 0.72575 0.83223
 H1892 H 0.95130 0.69247 0.75683
 C1893 C 0.93263 0.20533 0.29201
 C1894 C 0.93591 0.20192 0.27015
 N1895 N 0.92350 0.18842 0.25945
 C1896 C 0.90809 0.17797 0.26965
 C1897 C 0.90500 0.18094 0.29174
 N1898 N 0.91738 0.19478 0.30226
 N1899 N 0.94468 0.21922 0.30265
 C1900 C 0.95985 0.22993 0.29239
 C1901 C 0.96328 0.22647 0.27048
 N1902 N 0.95120 0.21246 0.25989
 H1903 H 0.89824 0.16778 0.26039
 H1904 H 0.96919 0.24097 0.30128
 C1905 C 0.30518 0.31972 0.58025
 C1906 C 0.31178 0.29985 0.57289
 N1907 N 0.32871 0.29052 0.58165
 C1908 C 0.33926 0.30005 0.59769
 C1909 C 0.33251 0.31995 0.60549
 N1910 N 0.31563 0.32919 0.59624
 N1911 N 0.28793 0.32888 0.57193
 C1912 C 0.27680 0.31888 0.55664
 C1913 C 0.28321 0.29878 0.54940
 N1914 N 0.30069 0.28984 0.55767
 H1915 H 0.35224 0.29167 0.60451
 H1916 H 0.26301 0.32645 0.55041
 C1917 C 0.27859 0.81541 0.06923
 C1918 C 0.28491 0.79447 0.06531
 N1919 N 0.29869 0.78507 0.07848
 C1920 C 0.30669 0.79569 0.09532
 C1921 C 0.30087 0.81696 0.09918
 N1922 N 0.28671 0.82618 0.08598
 N1923 N 0.26431 0.82456 0.05632
 C1924 C 0.25607 0.81368 0.03968
 C1925 C 0.26252 0.79271 0.03563
 N1926 N 0.27685 0.78368 0.04864
 H1927 H 0.31711 0.78728 0.10574
 H1928 H 0.24467 0.82134 0.02969
 C1929 C 0.80609 0.30034 0.08430
 C1930 C 0.79399 0.31271 0.07056
 N1931 N 0.79496 0.33403 0.07175
 C1932 C 0.80708 0.34364 0.08642
 C1933 C 0.81849 0.33139 0.10104
 N1934 N 0.81791 0.30992 0.09930
 N1935 N 0.80554 0.27897 0.08262
 C1936 C 0.79336 0.26942 0.06789
 C1937 C 0.78083 0.28179 0.05447
 N1938 N 0.78153 0.30320 0.05615
 H1939 H 0.80767 0.36069 0.08659
 H1940 H 0.79322 0.25235 0.06687
 C1941 C 0.77879 0.80514 0.55987
 C1942 C 0.78209 0.78334 0.55693
 N1943 N 0.79460 0.77270 0.57048
 C1944 C 0.80418 0.78288 0.58670
 C1945 C 0.80137 0.80490 0.58946
 N1946 N 0.78850 0.81539 0.57595
 N1947 N 0.76576 0.81567 0.54672
 C1948 C 0.75578 0.80536 0.53084
 C1949 C 0.75909 0.78352 0.52782
 N1950 N 0.77228 0.77303 0.54095
 H1951 H 0.81357 0.77368 0.59748
 H1952 H 0.74535 0.81414 0.52068
 C1953 C 0.29414 0.71565 0.42766
 C1954 C 0.28073 0.70325 0.43982
 N1955 N 0.27734 0.68294 0.43395
 C1956 C 0.28649 0.67448 0.41623
 C1957 C 0.29948 0.68703 0.40343
 N1958 N 0.30308 0.70733 0.40979
 N1959 N 0.29771 0.73592 0.43368
 C1960 C 0.28824 0.74445 0.45123
 C1961 C 0.27433 0.73222 0.46317
 N1962 N 0.27104 0.71182 0.45714
 H1963 H 0.28368 0.65810 0.41247
 H1964 H 0.29114 0.76074 0.45546
 C1965 C 0.30390 0.18080 0.92027
 C1966 C 0.31135 0.19879 0.93061
 N1967 N 0.33017 0.20653 0.92502
 C1968 C 0.34186 0.19717 0.90938
 C1969 C 0.33429 0.17923 0.89864
 N1970 N 0.31544 0.17159 0.90463
 N1971 N 0.28517 0.17289 0.92587
 C1972 C 0.27339 0.18231 0.94134
 C1973 C 0.28064 0.20058 0.95157
 N1974 N 0.29955 0.20832 0.94594
 H1975 H 0.35687 0.20364 0.90568
 H1976 H 0.25844 0.17577 0.94536
 C1977 C 0.80161 0.70114 0.92799
 C1978 C 0.78188 0.69388 0.93344
 N1979 N 0.77300 0.67860 0.92144
 C1980 C 0.78292 0.67024 0.90410
 C1981 C 0.80282 0.67748 0.89838
 N1982 N 0.81155 0.69282 0.91071
 N1983 N 0.81028 0.71683 0.93970
 C1984 C 0.79996 0.72571 0.95657
 C1985 C 0.78005 0.71856 0.96199
 N1986 N 0.77159 0.70269 0.95025
 H1987 H 0.77492 0.65859 0.89472
 H1988 H 0.80714 0.73832 0.96550
 C1989 C 0.80291 0.17741 0.40815
 C1990 C 0.81335 0.19274 0.42002
 N1991 N 0.83283 0.19831 0.41428
 C1992 C 0.84230 0.18953 0.39692
 C1993 C 0.83168 0.17465 0.38435
 N1994 N 0.81224 0.16882 0.39061
 N1995 N 0.78347 0.17170 0.41413
 C1996 C 0.77390 0.18086 0.43132
 C1997 C 0.78413 0.19668 0.44290
 N1998 N 0.80371 0.20209 0.43693
 H1999 H 0.85800 0.19411 0.39321
 H2000 H 0.75830 0.17623 0.43554
 C2001 C 0.70110 0.27644 0.41197
 C2002 C 0.72243 0.27994 0.41426
 N2003 N 0.73238 0.29253 0.40024
 C2004 C 0.72193 0.30207 0.38418
 C2005 C 0.70036 0.29913 0.38211
 N2006 N 0.69058 0.28612 0.39606
 N2007 N 0.69125 0.26346 0.42575
 C2008 C 0.70178 0.25382 0.44172
 C2009 C 0.72313 0.25748 0.44419
 N2010 N 0.73292 0.27051 0.43032
 H2011 H 0.73054 0.31161 0.37308
 H2012 H 0.69354 0.24351 0.45245
 C2013 C 0.71098 0.80343 0.92536
 C2014 C 0.70989 0.78129 0.92588
 N2015 N 0.70294 0.77059 0.90868
 C2016 C 0.69652 0.78101 0.89109
 C2017 C 0.69661 0.80329 0.89073
 N2018 N 0.70419 0.81397 0.90787
 N2019 N 0.71859 0.81398 0.94245
 C2020 C 0.72515 0.80338 0.95999
 C2021 C 0.72369 0.78122 0.96064
 N2022 N 0.71609 0.77077 0.94347
 H2023 H 0.69127 0.77191 0.87757
 H2024 H 0.73135 0.81213 0.97332
 C2025 C 0.19603 0.27720 0.91261
 C2026 C 0.21760 0.27868 0.91520
 N2027 N 0.22895 0.28985 0.90111
 C2028 C 0.21969 0.30015 0.88483
 C2029 C 0.19791 0.29978 0.88274
 N2030 N 0.18662 0.28790 0.89655
 N2031 N 0.18485 0.26550 0.92653
 C2032 C 0.19426 0.25540 0.94299
 C2033 C 0.21577 0.25745 0.94593
 N2034 N 0.22689 0.26901 0.93184
 H2035 H 0.22930 0.30873 0.87376
 H2036 H 0.18499 0.24624 0.95391
 C2037 C 0.18684 0.79746 0.42766
 C2038 C 0.19986 0.81020 0.43990
 N2039 N 0.20290 0.83054 0.43418
 C2040 C 0.19378 0.83871 0.41657
 C2041 C 0.18117 0.82586 0.40365
 N2042 N 0.17791 0.80550 0.40987
 N2043 N 0.18355 0.77717 0.43364
 C2044 C 0.19291 0.76899 0.45118
 C2045 C 0.20642 0.78159 0.46321
 N2046 N 0.20944 0.80198 0.45721
 H2047 H 0.19629 0.85515 0.41305
 H2048 H 0.19023 0.75269 0.45537
 C2049 C 0.69925 0.69267 0.56606
 C2050 C 0.69879 0.71488 0.56687
 N2051 N 0.69497 0.72489 0.58561
 C2052 C 0.69117 0.71375 0.60355
 C2053 C 0.69086 0.69149 0.60275
 N2054 N 0.69517 0.68146 0.58396
 N2055 N 0.70373 0.68273 0.54736
 C2056 C 0.70795 0.69399 0.52951
 C2057 C 0.70739 0.71621 0.53031
 N2058 N 0.70278 0.72610 0.54903
 H2059 H 0.68818 0.72224 0.61828
 H2060 H 0.71196 0.68570 0.51490
 C2061 C 0.68870 0.20796 0.08540
 C2062 C 0.70321 0.19677 0.07283
 N2063 N 0.70570 0.17567 0.07560
 C2064 C 0.69455 0.16527 0.09060
 C2065 C 0.68034 0.17652 0.10372
 N2066 N 0.67772 0.19765 0.10052
 N2067 N 0.68592 0.22899 0.08238
 C2068 C 0.69703 0.23937 0.06736
 C2069 C 0.71177 0.22826 0.05486
 N2070 N 0.71447 0.20714 0.05795
 H2071 H 0.69670 0.14839 0.09199
 H2072 H 0.69449 0.25616 0.06533
 C2073 C 0.18662 0.70821 0.06626
 C2074 C 0.20731 0.70309 0.06130
 N2075 N 0.21762 0.68867 0.07318
 C2076 C 0.20822 0.67902 0.08982
 C2077 C 0.18731 0.68387 0.09491
 N2078 N 0.17713 0.69853 0.08288
 N2079 N 0.17652 0.72309 0.05465
 C2080 C 0.18625 0.73315 0.03836
 C2081 C 0.20705 0.72806 0.03340
 N2082 N 0.21699 0.71304 0.04505
 H2083 H 0.21734 0.66822 0.09924
 H2084 H 0.17787 0.74504 0.02947
 C2085 C 0.20158 0.21992 0.58977
 C2086 C 0.22282 0.21660 0.58575
 N2087 N 0.23398 0.20392 0.59874
 C2088 C 0.22482 0.19404 0.61538
 C2089 C 0.20331 0.19661 0.61911
 N2090 N 0.19229 0.20982 0.60624
 N2091 N 0.19057 0.23308 0.57702
 C2092 C 0.19985 0.24300 0.56040
 C2093 C 0.22107 0.23939 0.55614
 N2094 N 0.23203 0.22624 0.56901
 H2095 H 0.23441 0.18446 0.62564
 H2096 H 0.19070 0.25338 0.55048
   
