data_POSCAR
  _audit_creation_date              2014-09-24
  _audit_creation_method            'ToBaCCo'
  _symmetry_space_group_name_H-M    'P1'
  _symmetry_Int_Tables_number       1
  _symmetry_cell_setting            triclinic
  loop_
  _symmetry_equiv_pos_as_xyz
 x,y,z
_cell_length_a 77.4193
_cell_length_b 77.3917
_cell_length_c 77.4406
_cell_angle_alpha 90.204000
_cell_angle_beta 89.896800
_cell_angle_gamma 90.232900
loop_
  _atom_site_label
  _atom_site_type_symbol
  _atom_site_fract_x
  _atom_site_fract_y
  _atom_site_fract_z
C1 C 0.09972 0.01286 0.23212
 H2 H 0.09964 0.02307 0.24170
 C3 C 0.08975 0.01438 0.21718
 H4 H 0.08177 0.02570 0.21547
 C5 C 0.11056 -0.01413 0.22257
 H6 H 0.11906 -0.02498 0.22442
 C7 C 0.10077 -0.01316 0.20750
 H8 H 0.10187 -0.02336 0.19796
 N9 N 0.10985 -0.00124 0.23453
 C10 C 0.12126 -0.00421 0.28946
 H11 H 0.13517 -0.00522 0.28861
 C12 C 0.11315 -0.00492 0.30552
 H13 H 0.12093 -0.00662 0.31699
 C14 C 0.09428 -0.00132 0.27536
 H15 H 0.08701 -0.00007 0.26354
 C16 C 0.08561 -0.00201 0.29120
 H17 H 0.07166 -0.00100 0.29146
 Zn18 Zn 0.12455 -0.00177 0.25401
 N19 N 0.11182 -0.00223 0.27483
 C20 C 0.13744 0.03019 0.26622
 N21 N 0.13849 0.01836 0.25324
 C22 C 0.14817 0.02144 0.23890
 C23 C 0.15719 0.03703 0.23715
 C24 C 0.14623 0.04590 0.26502
 C25 C 0.12893 -0.03703 0.25590
 C26 C 0.13741 -0.05286 0.25620
 C27 C 0.16446 -0.03772 0.25238
 C28 C 0.15535 -0.02214 0.25212
 N29 N 0.13789 -0.02213 0.25368
 H30 H 0.12939 0.02773 0.27735
 H31 H 0.14848 0.01196 0.22860
 H32 H 0.16445 0.03946 0.22544
 H33 H 0.14516 0.05515 0.27549
 H34 H 0.11507 -0.03658 0.25759
 H35 H 0.12949 -0.06405 0.25885
 H36 H 0.17822 -0.03690 0.25023
 H37 H 0.16226 -0.01008 0.25058
 C38 C 0.09510 -0.00372 0.30656
 C39 C 0.09028 0.00129 0.20459
 C40 C 0.15561 -0.05371 0.25432
 C41 C 0.15607 0.04960 0.25023
 C42 C 0.39907 0.01633 0.77024
 H43 H 0.39981 0.02655 0.76078
 C44 C 0.40848 0.01763 0.78559
 H45 H 0.41667 0.02880 0.78776
 C46 C 0.38722 -0.01051 0.77906
 H47 H 0.37855 -0.02123 0.77676
 C48 C 0.39641 -0.00976 0.79450
 H49 H 0.39471 -0.01999 0.80386
 N50 N 0.38874 0.00238 0.76725
 C51 C 0.37999 -0.00121 0.71178
 H52 H 0.36604 -0.00214 0.71194
 C53 C 0.38888 -0.00225 0.69616
 H54 H 0.38164 -0.00375 0.68429
 C55 C 0.40624 0.00211 0.72715
 H56 H 0.41294 0.00357 0.73930
 C57 C 0.41569 0.00117 0.71177
 H58 H 0.42965 0.00191 0.71221
 Zn59 Zn 0.37499 0.00184 0.74704
 N60 N 0.38870 0.00108 0.72684
 C61 C 0.36306 0.03370 0.73405
 N62 N 0.36133 0.02209 0.74709
 C63 C 0.35109 0.02544 0.76098
 C64 C 0.34215 0.04107 0.76217
 C65 C 0.35437 0.04943 0.73471
 C66 C 0.37016 -0.03346 0.74502
 C67 C 0.36147 -0.04924 0.74488
 C68 C 0.33451 -0.03389 0.74794
 C69 C 0.34377 -0.01832 0.74806
 N70 N 0.36131 -0.01844 0.74685
 H71 H 0.37153 0.03101 0.72329
 H72 H 0.35023 0.01615 0.77135
 H73 H 0.33441 0.04371 0.77353
 H74 H 0.35595 0.05848 0.72419
 H75 H 0.38409 -0.03313 0.74379
 H76 H 0.36880 -0.06104 0.74336
 H77 H 0.32059 -0.03364 0.74925
 H78 H 0.33697 -0.00621 0.74921
 C79 C 0.40698 -0.00105 0.69600
 C80 C 0.40717 0.00447 0.79798
 C81 C 0.34342 -0.04963 0.74651
 C82 C 0.34392 0.05340 0.74901
 C83 C 0.89857 0.51194 0.26855
 H84 H 0.89969 0.52237 0.25935
 C85 C 0.90789 0.51259 0.28398
 H86 H 0.91656 0.52340 0.28592
 C87 C 0.88604 0.48521 0.27648
 H88 H 0.87707 0.47482 0.27382
 C89 C 0.89513 0.48526 0.29201
 H90 H 0.89251 0.47486 0.30093
 N91 N 0.88790 0.49840 0.26511
 C92 C 0.87882 0.49733 0.20962
 H93 H 0.86486 0.49674 0.20988
 C94 C 0.88755 0.49690 0.19389
 H95 H 0.88020 0.49583 0.18206
 C96 C 0.90528 0.49898 0.22491
 H97 H 0.91210 0.49967 0.23705
 C98 C 0.91457 0.49855 0.20940
 H99 H 0.92854 0.49919 0.20974
 Zn100 Zn 0.87410 0.49904 0.24497
 N101 N 0.88771 0.49859 0.22469
 C102 C 0.86334 0.53178 0.23321
 N103 N 0.86115 0.51974 0.24579
 C104 C 0.85092 0.52291 0.25974
 C105 C 0.84241 0.53874 0.26142
 C106 C 0.85511 0.54773 0.23438
 C107 C 0.86802 0.46403 0.24145
 C108 C 0.85872 0.44863 0.24033
 C109 C 0.83237 0.46481 0.24433
 C110 C 0.84222 0.47998 0.24531
 N111 N 0.85973 0.47927 0.24404
 H112 H 0.87181 0.52925 0.22242
 H113 H 0.84970 0.51327 0.26976
 H114 H 0.83464 0.54119 0.27280
 H115 H 0.85703 0.55710 0.22419
 H116 H 0.88195 0.46389 0.24035
 H117 H 0.86564 0.43661 0.23861
 H118 H 0.81844 0.46555 0.24531
 H119 H 0.83586 0.49227 0.24703
 C120 C 0.90567 0.49765 0.19362
 C121 C 0.90623 0.49917 0.29623
 C122 C 0.84065 0.44886 0.24180
 C123 C 0.84463 0.55147 0.24871
 C124 C 0.59901 0.51376 0.73089
 H125 H 0.59863 0.52394 0.74050
 C126 C 0.58898 0.51504 0.71596
 H127 H 0.58068 0.52613 0.71428
 C128 C 0.61060 0.48713 0.72125
 H129 H 0.61941 0.47652 0.72306
 C130 C 0.60079 0.48785 0.70619
 H131 H 0.60216 0.47772 0.69662
 N132 N 0.60953 0.49994 0.73326
 C133 C 0.62100 0.49720 0.78825
 H134 H 0.63493 0.49652 0.78739
 C135 C 0.61291 0.49632 0.80430
 H136 H 0.62072 0.49481 0.81577
 C137 C 0.59396 0.49946 0.77414
 H138 H 0.58665 0.50053 0.76233
 C139 C 0.58530 0.49859 0.78999
 H140 H 0.57133 0.49928 0.79025
 Zn141 Zn 0.62422 0.49971 0.75278
 N142 N 0.61151 0.49896 0.77361
 C143 C 0.63668 0.53187 0.76504
 N144 N 0.63781 0.52008 0.75202
 C145 C 0.64753 0.52323 0.73772
 C146 C 0.65664 0.53878 0.73613
 C147 C 0.64555 0.54754 0.76398
 C148 C 0.62945 0.46445 0.75437
 C149 C 0.63840 0.44888 0.75443
 C150 C 0.66506 0.46485 0.75093
 C151 C 0.65555 0.48018 0.75089
 N152 N 0.63805 0.47966 0.75240
 H153 H 0.62859 0.52935 0.77612
 H154 H 0.64791 0.51379 0.72740
 H155 H 0.66402 0.54123 0.72449
 H156 H 0.64449 0.55672 0.77450
 H157 H 0.61555 0.46447 0.75587
 H158 H 0.63129 0.43693 0.75612
 H159 H 0.67896 0.46542 0.74946
 H160 H 0.66217 0.49244 0.74968
 C161 C 0.59482 0.49710 0.80535
 C162 C 0.58987 0.50200 0.70333
 C163 C 0.65644 0.44892 0.75259
 C164 C 0.65556 0.55125 0.74931
 C165 C 0.27194 0.10003 0.98295
 H166 H 0.26230 0.09924 0.97287
 C167 C 0.28742 0.09093 0.98128
 H168 H 0.28962 0.08314 0.96985
 C169 C 0.28116 0.11194 1.00963
 H170 H 0.27892 0.12046 1.02046
 C171 C 0.29678 0.10311 1.00848
 H172 H 0.30618 0.10462 1.01871
 N173 N 0.26913 0.11031 0.99695
 C174 C 0.21376 0.11969 1.00004
 H175 H 0.21424 0.13363 1.00103
 C176 C 0.19794 0.11112 1.00080
 H177 H 0.18625 0.11857 1.00252
 C178 C 0.22862 0.09310 0.99716
 H179 H 0.24065 0.08617 0.99592
 C180 C 0.21300 0.08396 0.99793
 H181 H 0.21311 0.07000 0.99699
 Zn182 Zn 0.24904 0.12415 0.99762
 N183 N 0.22866 0.11066 0.99804
 C184 C 0.23648 0.13664 0.96581
 N185 N 0.24934 0.13818 0.97766
 C186 C 0.26324 0.14859 0.97478
 C187 C 0.26459 0.15796 0.95944
 C188 C 0.23731 0.14575 0.95034
 C189 C 0.24701 0.12845 1.03292
 C190 C 0.24638 0.13690 1.04880
 C191 C 0.24896 0.16411 1.03386
 C192 C 0.24958 0.15502 1.01822
 N193 N 0.24880 0.13750 1.01808
 H194 H 0.22573 0.12802 0.96810
 H195 H 0.27347 0.14929 0.98426
 H196 H 0.27594 0.16587 0.95718
 H197 H 0.22692 0.14434 0.94109
 H198 H 0.24593 0.11451 1.03237
 H199 H 0.24411 0.12887 1.05995
 H200 H 0.25050 0.17795 1.03314
 H201 H 0.25078 0.16201 1.00622
 C202 C 0.19739 0.09302 0.99966
 C203 C 0.30018 0.09261 0.99406
 C204 C 0.24746 0.15518 1.04979
 C205 C 0.25159 0.15643 0.94689
 C206 C 0.72991 0.39852 0.98729
 H207 H 0.73937 0.39892 0.97700
 C208 C 0.71457 0.40788 0.98583
 H209 H 0.71242 0.41570 0.97448
 C210 C 0.72105 0.38752 1.01443
 H211 H 0.72332 0.37918 1.02532
 C212 C 0.70562 0.39669 1.01353
 H213 H 0.69624 0.39530 1.02383
 N214 N 0.73286 0.38861 1.00144
 C215 C 0.78819 0.37909 1.00467
 H216 H 0.78768 0.36520 1.00612
 C217 C 0.80405 0.38764 1.00502
 H218 H 0.81572 0.38022 1.00692
 C219 C 0.77341 0.40556 1.00087
 H220 H 0.76141 0.41247 0.99936
 C221 C 0.78906 0.41468 1.00119
 H222 H 0.78898 0.42858 0.99965
 Zn223 Zn 0.75287 0.37462 1.00207
 N224 N 0.77332 0.38806 1.00238
 C225 C 0.76560 0.36199 0.97030
 N226 N 0.75260 0.36047 0.98205
 C227 C 0.73861 0.35025 0.97887
 C228 C 0.73726 0.34118 0.96326
 C229 C 0.76477 0.35318 0.95460
 C230 C 0.75514 0.37081 1.03734
 C231 C 0.75543 0.36268 1.05334
 C232 C 0.75172 0.33529 1.03879
 C233 C 0.75149 0.34406 1.02302
 N234 N 0.75296 0.36153 1.02263
 H235 H 0.77642 0.37045 0.97282
 H236 H 0.72827 0.34955 0.98826
 H237 H 0.72582 0.33350 0.96073
 H238 H 0.77525 0.35465 0.94543
 H239 H 0.75674 0.38469 1.03660
 H240 H 0.75801 0.37086 1.06437
 H241 H 0.74961 0.32150 1.03827
 H242 H 0.74994 0.33690 1.01111
 C243 C 0.80466 0.40566 1.00313
 C244 C 0.70214 0.40696 0.99905
 C245 C 0.75352 0.34450 1.05460
 C246 C 0.75035 0.34282 0.95077
 C247 C 0.22928 0.89850 0.48448
 H248 H 0.23861 0.89962 0.47412
 C249 C 0.21353 0.90722 0.48345
 H250 H 0.21082 0.91507 0.47224
 C251 C 0.22108 0.88609 0.51121
 H252 H 0.22380 0.87752 0.52181
 C253 C 0.20522 0.89454 0.51070
 H254 H 0.19615 0.89268 0.52119
 N255 N 0.23273 0.88815 0.49820
 C256 C 0.28839 0.87998 0.49984
 H257 H 0.28827 0.86604 0.50078
 C258 C 0.30404 0.88893 0.50012
 H259 H 0.31594 0.88176 0.50144
 C260 C 0.27285 0.90619 0.49744
 H261 H 0.26064 0.91283 0.49652
 C262 C 0.28827 0.91570 0.49772
 H263 H 0.28780 0.92964 0.49675
 Zn264 Zn 0.25312 0.87471 0.49809
 N265 N 0.27324 0.88864 0.49828
 C266 C 0.26531 0.86299 0.46571
 N267 N 0.25267 0.86101 0.47777
 C268 C 0.23880 0.85057 0.47480
 C269 C 0.23722 0.84170 0.45910
 C270 C 0.26424 0.85439 0.44989
 C271 C 0.25602 0.87012 0.53326
 C272 C 0.25632 0.86157 0.54905
 C273 C 0.25286 0.83447 0.53382
 C274 C 0.25259 0.84359 0.51824
 N275 N 0.25389 0.86113 0.51831
 H276 H 0.27603 0.87163 0.46808
 H277 H 0.22873 0.84951 0.48444
 H278 H 0.22587 0.83381 0.45678
 H279 H 0.27443 0.85620 0.44047
 H280 H 0.25727 0.88404 0.53289
 H281 H 0.25801 0.86902 0.56079
 H282 H 0.25142 0.82055 0.53362
 H283 H 0.25119 0.83668 0.50618
 C284 C 0.30414 0.90702 0.49892
 C285 C 0.20117 0.90509 0.49658
 C286 C 0.25452 0.84353 0.54950
 C287 C 0.24994 0.84377 0.44631
 C288 C 0.76943 0.59948 0.48492
 H289 H 0.75992 0.59914 0.47471
 C290 C 0.78452 0.58974 0.48344
 H291 H 0.78642 0.58169 0.47213
 C292 C 0.77861 0.61067 0.51193
 H293 H 0.77652 0.61919 0.52279
 C294 C 0.79383 0.60113 0.51099
 H295 H 0.80327 0.60244 0.52121
 N296 N 0.76676 0.60966 0.49902
 C297 C 0.71151 0.61965 0.50172
 H298 H 0.71196 0.63360 0.50260
 C299 C 0.69569 0.61105 0.50241
 H300 H 0.68397 0.61849 0.50395
 C301 C 0.72642 0.59306 0.49918
 H302 H 0.73846 0.58613 0.49809
 C303 C 0.71082 0.58391 0.49986
 H304 H 0.71098 0.56994 0.49899
 Zn305 Zn 0.74697 0.62390 0.49947
 N306 N 0.72644 0.61063 0.49992
 C307 C 0.73472 0.63639 0.46749
 N308 N 0.74762 0.63767 0.47933
 C309 C 0.76182 0.64764 0.47634
 C310 C 0.76344 0.65681 0.46090
 C311 C 0.73582 0.64531 0.45192
 C312 C 0.74470 0.62882 0.53479
 C313 C 0.74398 0.63769 0.55045
 C314 C 0.74751 0.66451 0.53492
 C315 C 0.74813 0.65509 0.51948
 N316 N 0.74686 0.63755 0.51974
 H317 H 0.72372 0.62811 0.46988
 H318 H 0.77206 0.64814 0.48582
 H319 H 0.77502 0.66435 0.45857
 H320 H 0.72539 0.64411 0.44268
 H321 H 0.74356 0.61488 0.53457
 H322 H 0.74253 0.63044 0.56230
 H323 H 0.74840 0.67846 0.53452
 H324 H 0.74947 0.66180 0.50735
 C325 C 0.69518 0.59294 0.50139
 C326 C 0.79700 0.59057 0.49656
 C327 C 0.74537 0.65578 0.55067
 C328 C 0.75041 0.65554 0.44836
 C329 C 0.01036 0.23079 0.10225
 H330 H 0.02090 0.23998 0.10143
 C331 C 0.01144 0.21497 0.09354
 H332 H 0.02288 0.21207 0.08602
 C333 C -0.01687 0.22300 0.11393
 H334 H -0.02770 0.22593 0.12221
 C335 C -0.01633 0.20708 0.10547
 H336 H -0.02701 0.19814 0.10703
 N337 N -0.00361 0.23446 0.11226
 C338 C -0.00470 0.29013 0.12085
 H339 H -0.00601 0.28995 0.13476
 C340 C -0.00479 0.30582 0.11211
 H341 H -0.00673 0.31739 0.11971
 C342 C -0.00194 0.27471 0.09458
 H343 H -0.00088 0.26251 0.08784
 C344 C -0.00202 0.29016 0.08523
 H345 H -0.00040 0.28933 0.07139
 Zn346 Zn -0.00344 0.25488 0.12583
 N347 N -0.00308 0.27502 0.11208
 C348 C 0.02876 0.26683 0.13842
 N349 N 0.01657 0.25420 0.13985
 C350 C 0.01911 0.24026 0.15018
 C351 C 0.03442 0.23865 0.15959
 C352 C 0.04418 0.26577 0.14762
 C353 C -0.03870 0.25844 0.13021
 C354 C -0.05448 0.25971 0.13879
 C355 C -0.03947 0.25628 0.16589
 C356 C -0.02390 0.25512 0.15676
 N357 N -0.02386 0.25603 0.13922
 H358 H 0.02680 0.27755 0.12977
 H359 H 0.00936 0.23024 0.15084
 H360 H 0.03623 0.22746 0.16773
 H361 H 0.05387 0.27576 0.14594
 H362 H -0.03824 0.25927 0.11628
 H363 H -0.06617 0.26128 0.13132
 H364 H -0.03932 0.25561 0.17985
 H365 H -0.01192 0.25354 0.16368
 C366 C -0.00331 0.30621 0.09393
 C367 C -0.00193 0.20277 0.09531
 C368 C -0.05503 0.25861 0.15687
 C369 C 0.04724 0.25148 0.15830
 C370 C 0.01821 0.77163 0.39993
 H371 H 0.02847 0.76218 0.39978
 C372 C 0.01982 0.78657 0.41003
 H373 H 0.03126 0.78841 0.41784
 C374 C -0.00903 0.78085 0.38965
 H375 H -0.02004 0.77887 0.38133
 C376 C -0.00799 0.79589 0.39956
 H377 H -0.01828 0.80528 0.39875
 N378 N 0.00393 0.76905 0.39004
 C379 C 0.00072 0.71395 0.37859
 H380 H -0.00051 0.71471 0.36470
 C381 C 0.00002 0.69794 0.38674
 H382 H -0.00190 0.68641 0.37900
 C383 C 0.00410 0.72824 0.40550
 H384 H 0.00550 0.74012 0.41275
 C385 C 0.00342 0.71245 0.41421
 H386 H 0.00460 0.71229 0.42814
 Zn387 Zn 0.00308 0.74949 0.37529
 N388 N 0.00291 0.72866 0.38799
 C389 C 0.03453 0.73735 0.36117
 N390 N 0.02280 0.75038 0.36082
 C391 C 0.02557 0.76478 0.35116
 C392 C 0.04061 0.76644 0.34128
 C393 C 0.04968 0.73844 0.35147
 C394 C -0.03236 0.74736 0.37154
 C395 C -0.04834 0.74704 0.36331
 C396 C -0.03367 0.75095 0.33607
 C397 C -0.01794 0.75123 0.34493
 N398 N -0.01761 0.74964 0.36236
 H399 H 0.03240 0.72624 0.36931
 H400 H 0.01617 0.77509 0.35134
 H401 H 0.04260 0.77797 0.33366
 H402 H 0.05901 0.72809 0.35226
 H403 H -0.03167 0.74566 0.38538
 H404 H -0.05941 0.74437 0.37137
 H405 H -0.03308 0.75315 0.32232
 H406 H -0.00601 0.75282 0.33783
 C407 C 0.00142 0.69702 0.40478
 C408 C 0.00661 0.79896 0.40987
 C409 C -0.04951 0.74896 0.34514
 C410 C 0.05294 0.75317 0.34142
 C411 C 0.51557 0.27049 0.90033
 H412 H 0.52566 0.26086 0.90039
 C413 C 0.51733 0.28548 0.91031
 H414 H 0.52870 0.28719 0.91826
 C415 C 0.48866 0.28013 0.88958
 H416 H 0.47775 0.27830 0.88111
 C417 C 0.48986 0.29524 0.89937
 H418 H 0.47977 0.30483 0.89832
 N419 N 0.50139 0.26810 0.89024
 C420 C 0.49750 0.21305 0.87880
 H421 H 0.49635 0.21384 0.86490
 C422 C 0.49667 0.19702 0.88691
 H423 H 0.49475 0.18552 0.87915
 C424 C 0.50088 0.22727 0.90575
 H425 H 0.50237 0.23912 0.91301
 C426 C 0.50009 0.21146 0.91442
 H427 H 0.50127 0.21127 0.92835
 Zn428 Zn 0.50049 0.24852 0.87554
 N429 N 0.49978 0.22772 0.88823
 C430 C 0.53199 0.23588 0.86200
 N431 N 0.52048 0.24910 0.86146
 C432 C 0.52366 0.26348 0.85190
 C433 C 0.53891 0.26492 0.84231
 C434 C 0.54734 0.23676 0.85260
 C435 C 0.46505 0.24710 0.87100
 C436 C 0.44930 0.24721 0.86234
 C437 C 0.46478 0.25079 0.83545
 C438 C 0.48029 0.25064 0.84467
 N439 N 0.48011 0.24903 0.86216
 H440 H 0.52953 0.22479 0.87006
 H441 H 0.51443 0.27393 0.85193
 H442 H 0.54121 0.27645 0.83475
 H443 H 0.55650 0.22627 0.85354
 H444 H 0.46533 0.24552 0.88488
 H445 H 0.43747 0.24556 0.86964
 H446 H 0.46510 0.25237 0.82157
 H447 H 0.49242 0.25183 0.83786
 C448 C 0.49808 0.19606 0.90495
 C449 C 0.50438 0.29814 0.90983
 C450 C 0.44901 0.24918 0.84433
 C451 C 0.55102 0.25146 0.84266
 C452 C 0.51539 0.72914 0.60117
 H453 H 0.52600 0.73827 0.60049
 C454 C 0.51615 0.71364 0.59189
 H455 H 0.52729 0.71102 0.58384
 C456 C 0.48813 0.72135 0.61279
 H457 H 0.47744 0.72411 0.62131
 C458 C 0.48833 0.70576 0.60371
 H459 H 0.47773 0.69675 0.60537
 N460 N 0.50150 0.73270 0.61134
 C461 C 0.50051 0.78833 0.62006
 H462 H 0.49946 0.78824 0.63399
 C463 C 0.50036 0.80396 0.61121
 H464 H 0.49904 0.81588 0.61844
 C465 C 0.50296 0.77273 0.59378
 H466 H 0.50382 0.76050 0.58707
 C467 C 0.50282 0.78813 0.58437
 H468 H 0.50384 0.78763 0.57043
 Zn469 Zn 0.50175 0.75301 0.62504
 N470 N 0.50201 0.77315 0.61132
 C471 C 0.53391 0.76505 0.63761
 N472 N 0.52180 0.75234 0.63901
 C473 C 0.52436 0.73845 0.64939
 C474 C 0.53957 0.73703 0.65900
 C475 C 0.54923 0.76417 0.64700
 C476 C 0.46653 0.75654 0.62957
 C477 C 0.45077 0.75768 0.63820
 C478 C 0.46587 0.75406 0.66523
 C479 C 0.48141 0.75303 0.65604
 N480 N 0.48140 0.75409 0.63851
 H481 H 0.53194 0.77572 0.62890
 H482 H 0.51467 0.72837 0.65003
 H483 H 0.54137 0.72591 0.66724
 H484 H 0.55884 0.77425 0.64540
 H485 H 0.46694 0.75749 0.61564
 H486 H 0.43905 0.75927 0.63077
 H487 H 0.46606 0.75325 0.67918
 H488 H 0.49342 0.75143 0.66292
 C489 C 0.50162 0.80402 0.59313
 C490 C 0.50251 0.70168 0.59316
 C491 C 0.45029 0.75640 0.65627
 C492 C 0.55226 0.75000 0.65782
 C493 C 0.90005 0.98748 0.73116
 H494 H 0.90111 0.97697 0.74027
 C495 C 0.90893 0.98701 0.71627
 H496 H 0.91677 0.97578 0.71364
 C497 C 0.88678 1.01420 0.72397
 H498 H 0.87783 1.02452 0.72660
 C499 C 0.89634 1.01432 0.70755
 H500 H 0.89474 1.02555 0.69946
 N501 N 0.88870 1.00165 0.73492
 C502 C 0.87889 1.00504 0.79121
 H503 H 0.86515 1.00748 0.79064
 C504 C 0.88690 1.00461 0.80644
 H505 H 0.87937 1.00738 0.81788
 C506 C 0.90502 1.00037 0.77561
 H507 H 0.91194 0.99849 0.76363
 C508 C 0.91449 0.99979 0.79217
 H509 H 0.92812 0.99689 0.79157
 Zn510 Zn 0.87483 1.00141 0.75519
 N511 N 0.88835 1.00231 0.77550
 C512 C 0.86363 0.96953 0.76865
 N513 N 0.86169 0.98065 0.75523
 C514 C 0.85152 0.97653 0.74150
 C515 C 0.84277 0.96067 0.74097
 C516 C 0.85517 0.95362 0.76864
 C517 C 0.86904 1.03650 0.75801
 C518 C 0.86021 1.05209 0.75694
 C519 C 0.83393 1.03613 0.75125
 C520 C 0.84332 1.02075 0.75242
 N521 N 0.86063 1.02127 0.75536
 H522 H 0.87202 0.97278 0.77930
 H523 H 0.85047 0.98543 0.73082
 H524 H 0.83499 0.95744 0.72980
 H525 H 0.85687 0.94504 0.77951
 H526 H 0.88279 1.03650 0.76049
 H527 H 0.86722 1.06407 0.75890
 H528 H 0.82027 1.03557 0.74833
 H529 H 0.83685 1.00850 0.75055
 C530 C 0.90586 1.00129 0.80734
 C531 C 0.90702 1.00118 0.70334
 C532 C 0.84249 1.05207 0.75318
 C533 C 0.84471 0.94890 0.75461
 C534 C 0.39952 0.48586 0.23069
 H535 H 0.39996 0.47541 0.23992
 C536 C 0.40965 0.48515 0.21572
 H537 H 0.41806 0.47419 0.21361
 C538 C 0.38782 0.51271 0.22208
 H539 H 0.37899 0.52324 0.22428
 C540 C 0.39772 0.51256 0.20704
 H541 H 0.39635 0.52302 0.19790
 N542 N 0.38897 0.49958 0.23365
 C543 C 0.37842 0.50314 0.28889
 H544 H 0.36461 0.50510 0.28819
 C545 C 0.38656 0.50262 0.30491
 H546 H 0.37895 0.50447 0.31650
 C547 C 0.40503 0.49838 0.27450
 H548 H 0.41215 0.49665 0.26261
 C549 C 0.41374 0.49777 0.29031
 H550 H 0.42751 0.49540 0.29043
 Zn551 Zn 0.37456 0.49983 0.25351
 N552 N 0.38762 0.50063 0.27413
 C553 C 0.36250 0.46814 0.26676
 N554 N 0.36100 0.47934 0.25336
 C555 C 0.35087 0.47553 0.23951
 C556 C 0.34163 0.45995 0.23888
 C557 C 0.35355 0.45249 0.26666
 C558 C 0.36928 0.53511 0.25550
 C559 C 0.36053 0.55076 0.25447
 C560 C 0.33403 0.53492 0.24947
 C561 C 0.34334 0.51951 0.25057
 N562 N 0.36071 0.51992 0.25318
 H563 H 0.37090 0.47110 0.27748
 H564 H 0.35017 0.48448 0.22884
 H565 H 0.33385 0.45698 0.22764
 H566 H 0.35488 0.44385 0.27754
 H567 H 0.38306 0.53504 0.25779
 H568 H 0.36765 0.56271 0.25623
 H569 H 0.32030 0.53442 0.24688
 H570 H 0.33673 0.50728 0.24903
 C571 C 0.40440 0.49959 0.30579
 C572 C 0.40883 0.49866 0.20367
 C573 C 0.34271 0.55083 0.25114
 C574 C 0.34306 0.44813 0.25254
 C575 C 0.60034 0.98626 0.27148
 H576 H 0.59875 0.97538 0.26279
 C577 C 0.59175 0.98667 0.28653
 H578 H 0.58295 0.97618 0.28938
 C579 C 0.61376 1.01347 0.27689
 H580 H 0.62265 1.02367 0.27351
 C581 C 0.60453 1.01457 0.29347
 H582 H 0.60755 1.02553 0.30162
 N583 N 0.61158 1.00026 0.26669
 C584 C 0.61752 1.00141 0.21072
 H585 H 0.63142 1.00279 0.21013
 C586 C 0.60788 1.00141 0.19555
 H587 H 0.61450 1.00262 0.18329
 C588 C 0.59216 0.99774 0.22752
 H589 H 0.58610 0.99645 0.24003
 C590 C 0.58198 0.99759 0.21261
 H591 H 0.56811 0.99624 0.21378
 Zn592 Zn 0.62436 0.99925 0.24575
 N593 N 0.60962 0.99940 0.22628
 C594 C 0.63525 0.96705 0.23264
 N595 N 0.63759 0.97868 0.24565
 C596 C 0.64855 0.97535 0.25893
 C597 C 0.65785 0.95989 0.25933
 C598 C 0.64424 0.95148 0.23254
 C599 C 0.63001 1.03420 0.24129
 C600 C 0.63879 1.04992 0.24164
 C601 C 0.66526 1.03448 0.24705
 C602 C 0.65588 1.01899 0.24659
 N603 N 0.63851 1.01919 0.24421
 H604 H 0.62625 0.96967 0.22237
 H605 H 0.64990 0.98464 0.26932
 H606 H 0.66634 0.95735 0.27012
 H607 H 0.64229 0.94252 0.22195
 H608 H 0.61621 1.03395 0.23911
 H609 H 0.63145 1.06144 0.23892
 H610 H 0.67888 1.03375 0.24999
 H611 H 0.66244 1.00689 0.24871
 C612 C 0.58987 0.99940 0.19635
 C613 C 0.59379 1.00173 0.29852
 C614 C 0.65670 1.05047 0.24507
 C615 C 0.65566 0.94768 0.24604
 C616 C 0.09994 0.48778 0.76840
 H617 H 0.09887 0.47717 0.75933
 C618 C 0.09057 0.48742 0.78388
 H619 H 0.08212 0.47657 0.78654
 C620 C 0.11241 0.51474 0.77606
 H621 H 0.12123 0.52519 0.77327
 C622 C 0.10329 0.51493 0.79158
 H623 H 0.10524 0.52557 0.80049
 N624 N 0.11047 0.50140 0.76472
 C625 C 0.11729 0.50453 0.70890
 H626 H 0.13117 0.50616 0.70854
 C627 C 0.10788 0.50442 0.69357
 H628 H 0.11466 0.50584 0.68142
 C629 C 0.09176 0.50012 0.72526
 H630 H 0.08553 0.49853 0.73764
 C631 C 0.08182 0.49987 0.71019
 H632 H 0.06796 0.49815 0.71114
 Zn633 Zn 0.12362 0.50139 0.74401
 N634 N 0.10920 0.50211 0.72430
 C635 C 0.13485 0.46963 0.73004
 N636 N 0.13695 0.48088 0.74342
 C637 C 0.14757 0.47711 0.75685
 C638 C 0.15670 0.46154 0.75708
 C639 C 0.14369 0.45398 0.72974
 C640 C 0.12921 0.53665 0.74151
 C641 C 0.13812 0.55229 0.74249
 C642 C 0.16459 0.53643 0.74674
 C643 C 0.15512 0.52102 0.74570
 N644 N 0.13769 0.52145 0.74354
 H645 H 0.12610 0.47259 0.71965
 H646 H 0.14873 0.48609 0.76753
 H647 H 0.16486 0.45862 0.76802
 H648 H 0.14189 0.44531 0.71889
 H649 H 0.11537 0.53659 0.73962
 H650 H 0.13106 0.56425 0.74105
 H651 H 0.17836 0.53591 0.74907
 H652 H 0.16165 0.50880 0.74706
 C653 C 0.08991 0.50189 0.69407
 C654 C 0.09216 0.50118 0.79566
 C655 C 0.15600 0.55235 0.74548
 C656 C 0.15469 0.44968 0.74344
 C657 C 0.77167 0.89858 0.01236
 H658 H 0.76254 0.89981 0.02288
 C659 C 0.78719 0.90792 0.01271
 H660 H 0.78992 0.91633 0.02358
 C661 C 0.77960 0.88545 -0.01416
 H662 H 0.77685 0.87645 -0.02447
 C663 C 0.79520 0.89450 -0.01433
 H664 H 0.80403 0.89261 -0.02502
 N665 N 0.76818 0.88761 -0.00097
 C666 C 0.71260 0.87851 -0.00341
 H667 H 0.71292 0.86461 -0.00485
 C668 C 0.69681 0.88707 -0.00313
 H669 H 0.68502 0.87966 -0.00464
 C670 C 0.72773 0.90496 0.00021
 H671 H 0.73982 0.91184 0.00157
 C672 C 0.71216 0.91409 0.00053
 H673 H 0.71241 0.92796 0.00233
 Zn674 Zn 0.74785 0.87384 -0.00048
 N675 N 0.72762 0.88745 -0.00138
 C676 C 0.73459 0.86339 0.03177
 N677 N 0.74780 0.86104 0.02040
 C678 C 0.76138 0.85066 0.02432
 C679 C 0.76192 0.84205 0.04018
 C680 C 0.73462 0.85508 0.04770
 C681 C 0.74483 0.86743 -0.03547
 C682 C 0.74507 0.85817 -0.05092
 C683 C 0.75040 0.83212 -0.03469
 C684 C 0.74997 0.84191 -0.01947
 N685 N 0.74751 0.85929 -0.02018
 H686 H 0.72410 0.87197 0.02871
 H687 H 0.77193 0.84931 0.01524
 H688 H 0.77295 0.83407 0.04322
 H689 H 0.72389 0.85708 0.05646
 H690 H 0.74286 0.88126 -0.03563
 H691 H 0.74341 0.86502 -0.06296
 H692 H 0.75250 0.81831 -0.03397
 H693 H 0.75181 0.83565 -0.00717
 C694 C 0.69642 0.90506 -0.00085
 C695 C 0.79926 0.90579 -0.00070
 C696 C 0.74803 0.84029 -0.05070
 C697 C 0.74846 0.84435 0.05217
 C698 C 0.26934 0.39802 0.51079
 H699 H 0.26030 0.39905 0.52141
 C700 C 0.28491 0.40726 0.51125
 H701 H 0.28777 0.41539 0.52230
 C702 C 0.27702 0.38545 0.48393
 H703 H 0.27414 0.37670 0.47344
 C704 C 0.29266 0.39442 0.48386
 H705 H 0.30142 0.39271 0.47308
 N706 N 0.26570 0.38737 0.49725
 C707 C 0.21012 0.37837 0.49497
 H708 H 0.21045 0.36451 0.49312
 C709 C 0.19433 0.38688 0.49567
 H710 H 0.18253 0.37950 0.49407
 C711 C 0.22524 0.40472 0.49927
 H712 H 0.23734 0.41158 0.50075
 C713 C 0.20966 0.41380 0.50004
 H714 H 0.20990 0.42761 0.50228
 Zn715 Zn 0.24536 0.37363 0.49765
 N716 N 0.22514 0.38726 0.49714
 C717 C 0.23230 0.36279 0.52981
 N718 N 0.24544 0.36054 0.51834
 C719 C 0.25905 0.35014 0.52209
 C720 C 0.25973 0.34146 0.53791
 C721 C 0.23247 0.35441 0.54569
 C722 C 0.24207 0.36776 0.46260
 C723 C 0.24213 0.35873 0.44702
 C724 C 0.24750 0.33242 0.46281
 C725 C 0.24726 0.34200 0.47818
 N726 N 0.24485 0.35939 0.47774
 H727 H 0.22178 0.37138 0.52689
 H728 H 0.26953 0.34886 0.51293
 H729 H 0.27080 0.33350 0.54083
 H730 H 0.22181 0.35637 0.55456
 H731 H 0.24014 0.38160 0.46265
 H732 H 0.24039 0.36576 0.43509
 H733 H 0.24955 0.31860 0.46331
 H734 H 0.24919 0.33555 0.49037
 C735 C 0.19393 0.40479 0.49855
 C736 C 0.29689 0.40536 0.49772
 C737 C 0.24502 0.34084 0.44695
 C738 C 0.24638 0.34372 0.55002
 C739 C 0.22933 0.60114 0.00994
 H740 H 0.23798 0.59996 0.02083
 C741 C 0.21348 0.59236 0.00998
 H742 H 0.21025 0.58481 0.02125
 C743 C 0.22293 0.61364 -0.01709
 H744 H 0.22645 0.62208 -0.02758
 C745 C 0.20703 0.60518 -0.01761
 H746 H 0.19926 0.60688 -0.02906
 N747 N 0.23377 0.61147 -0.00351
 C748 C 0.28985 0.61766 -0.00450
 H749 H 0.29039 0.63148 -0.00647
 C750 C 0.30510 0.60824 -0.00328
 H751 H 0.31736 0.61490 -0.00458
 C752 C 0.27311 0.59228 -0.00049
 H753 H 0.26061 0.58614 0.00064
 C754 C 0.28810 0.58232 0.00078
 H755 H 0.28697 0.56857 0.00308
 Zn756 Zn 0.25472 0.62430 -0.00289
 N757 N 0.27428 0.60968 -0.00270
 C758 C 0.26770 0.63629 0.02907
 N759 N 0.25468 0.63808 0.01744
 C760 C 0.24123 0.64892 0.02058
 C761 C 0.24071 0.65872 0.03579
 C762 C 0.26772 0.64585 0.04435
 C763 C 0.25869 0.62939 -0.03813
 C764 C 0.25818 0.63811 -0.05383
 C765 C 0.25349 0.66477 -0.03822
 C766 C 0.25409 0.65550 -0.02275
 N767 N 0.25620 0.63806 -0.02304
 H768 H 0.27800 0.62724 0.02670
 H769 H 0.23085 0.64986 0.01130
 H770 H 0.22999 0.66739 0.03802
 H771 H 0.27809 0.64399 0.05351
 H772 H 0.26050 0.61554 -0.03795
 H773 H 0.25992 0.63090 -0.06571
 H774 H 0.25113 0.67855 -0.03781
 H775 H 0.25236 0.66220 -0.01062
 C776 C 0.30437 0.59037 -0.00030
 C777 C 0.20180 0.59438 -0.00389
 C778 C 0.25517 0.65599 -0.05404
 C779 C 0.25413 0.65727 0.04789
 C780 C 0.72970 0.10086 0.51348
 H781 H 0.73848 0.09971 0.52426
 C782 C 0.71425 0.09140 0.51332
 H783 H 0.71132 0.08281 0.52394
 C784 C 0.72276 0.11356 0.48660
 H785 H 0.72582 0.12249 0.47637
 C786 C 0.70727 0.10436 0.48589
 H787 H 0.69866 0.10637 0.47509
 N788 N 0.73374 0.11153 0.50013
 C789 C 0.78970 0.11827 0.49868
 H790 H 0.79014 0.13214 0.49704
 C791 C 0.80501 0.10891 0.49957
 H792 H 0.81722 0.11567 0.49834
 C793 C 0.77313 0.09270 0.50221
 H794 H 0.76068 0.08646 0.50327
 C795 C 0.78818 0.08280 0.50313
 H796 H 0.78714 0.06900 0.50511
 Zn797 Zn 0.75452 0.12462 0.50069
 N798 N 0.77419 0.11016 0.50042
 C799 C 0.76776 0.13608 0.53270
 N800 N 0.75466 0.13813 0.52121
 C801 C 0.74135 0.14907 0.52460
 C802 C 0.74110 0.15876 0.53989
 C803 C 0.76806 0.14551 0.54806
 C804 C 0.75795 0.13007 0.46551
 C805 C 0.75740 0.13896 0.44990
 C806 C 0.75309 0.16550 0.46582
 C807 C 0.75372 0.15607 0.48118
 N808 N 0.75567 0.13861 0.48071
 H809 H 0.77794 0.12694 0.53015
 H810 H 0.73090 0.15022 0.51543
 H811 H 0.73051 0.16754 0.54230
 H812 H 0.77851 0.14347 0.55709
 H813 H 0.75968 0.11621 0.46553
 H814 H 0.75899 0.13185 0.43794
 H815 H 0.75089 0.17930 0.46638
 H816 H 0.75219 0.16266 0.49340
 C817 C 0.80439 0.09097 0.50213
 C818 C 0.70285 0.09304 0.49932
 C819 C 0.75457 0.15686 0.44990
 C820 C 0.75465 0.15708 0.55182
 C821 C 0.98867 0.72892 0.89874
 H822 H 0.97787 0.73763 0.90021
 C823 C 0.98863 0.71368 0.90693
 H824 H 0.97744 0.71036 0.91462
 C825 C 1.01567 0.72315 0.88518
 H826 H 1.02596 0.72652 0.87640
 C827 C 1.01627 0.70635 0.89397
 H828 H 1.02775 0.69869 0.89201
 N829 N 1.00278 0.73361 0.88761
 C830 C 1.00421 0.79047 0.88092
 H831 H 1.00654 0.79075 0.86713
 C832 C 1.00335 0.80522 0.88985
 H833 H 1.00564 0.81716 0.88299
 C834 C 1.00035 0.77330 0.90611
 H835 H 0.99899 0.76090 0.91233
 C836 C 0.99932 0.78929 0.91658
 H837 H 0.99661 0.78784 0.93019
 Zn838 Zn 1.00195 0.75449 0.87483
 N839 N 1.00214 0.77417 0.88943
 C840 C 0.96991 0.76760 0.86365
 N841 N 0.98134 0.75445 0.86161
 C842 C 0.97785 0.74094 0.85086
 C843 C 0.96248 0.74051 0.84138
 C844 C 0.95447 0.76772 0.85443
 C845 C 1.03706 0.75865 0.86870
 C846 C 1.05251 0.75865 0.85944
 C847 C 1.03623 0.75376 0.83327
 C848 C 1.02103 0.75392 0.84306
 N849 N 1.02177 0.75597 0.86050
 H850 H 0.97258 0.77797 0.87261
 H851 H 0.98700 0.73047 0.84969
 H852 H 0.95999 0.72976 0.83275
 H853 H 0.94547 0.77821 0.85647
 H854 H 1.03725 0.76029 0.88258
 H855 H 1.06458 0.76018 0.86633
 H856 H 1.03547 0.75189 0.81943
 H857 H 1.00874 0.75208 0.83674
 C858 C 1.00023 0.80496 0.90889
 C859 C 1.00324 0.70130 0.90447
 C860 C 1.05226 0.75593 0.84150
 C861 C 0.95058 0.75408 0.84308
 C862 C 0.48425 0.21973 0.38746
 H863 H 0.47335 0.22181 0.37905
 C864 C 0.48565 0.20410 0.39630
 H865 H 0.47573 0.19435 0.39458
 C866 C 0.51092 0.22939 0.39902
 H867 H 0.52084 0.23925 0.39977
 C868 C 0.51285 0.21394 0.40807
 H869 H 0.52418 0.21212 0.41602
 N870 N 0.49678 0.23200 0.38898
 C871 C 0.49287 0.28764 0.38162
 H872 H 0.49247 0.28793 0.36766
 C873 C 0.49119 0.30294 0.39102
 H874 H 0.48978 0.31502 0.38416
 C875 C 0.49525 0.27144 0.40741
 H876 H 0.49651 0.25909 0.41373
 C877 C 0.49364 0.28648 0.41735
 H878 H 0.49372 0.28555 0.43130
 Zn879 Zn 0.49595 0.25243 0.37564
 N880 N 0.49494 0.27232 0.38987
 C881 C 0.46056 0.25387 0.37060
 N882 N 0.47578 0.25269 0.36191
 C883 C 0.47630 0.25275 0.34435
 C884 C 0.46100 0.25388 0.33484
 C885 C 0.44501 0.25505 0.36165
 C886 C 0.52791 0.26587 0.36363
 C887 C 0.54362 0.26526 0.35478
 C888 C 0.53497 0.23788 0.34239
 C889 C 0.51941 0.23901 0.35149
 N890 N 0.51620 0.25283 0.36190
 H891 H 0.46055 0.25399 0.38457
 H892 H 0.48856 0.25219 0.33769
 H893 H 0.46164 0.25415 0.32088
 H894 H 0.43304 0.25577 0.36885
 H895 H 0.52531 0.27657 0.37223
 H896 H 0.55277 0.27576 0.35638
 H897 H 0.53748 0.22655 0.33455
 H898 H 0.51003 0.22865 0.35062
 C899 C 0.49150 0.30250 0.40914
 C900 C 0.50016 0.20099 0.40668
 C901 C 0.54742 0.25102 0.34415
 C902 C 0.44508 0.25514 0.34352
 C903 C 0.98739 0.27327 0.60088
 H904 H 0.97690 0.26403 0.59999
 C905 C 0.98695 0.28844 0.59110
 H906 H 0.97621 0.29015 0.58238
 C907 C 1.01412 0.28155 0.61312
 H908 H 1.02448 0.27917 0.62210
 C909 C 1.01428 0.29677 0.60358
 H910 H 1.02476 0.30574 0.60593
 N911 N 1.00092 0.27005 0.61153
 C912 C 1.00450 0.21461 0.62068
 H913 H 1.00612 0.21509 0.63455
 C914 C 1.00486 0.19876 0.61211
 H915 H 1.00660 0.18707 0.61953
 C916 C 0.99979 0.22936 0.59435
 H917 H 0.99792 0.24134 0.58750
 C918 C 0.99999 0.21371 0.58523
 H919 H 0.99834 0.21380 0.57135
 Zn920 Zn 1.00104 0.24985 0.62539
 N921 N 1.00177 0.22947 0.61180
 C922 C 0.96956 0.23605 0.63760
 N923 N 0.98072 0.24959 0.63916
 C924 C 0.97710 0.26319 0.64973
 C925 C 0.96185 0.26334 0.65948
 C926 C 0.95426 0.23566 0.64711
 C927 C 1.03627 0.24738 0.63031
 C928 C 1.05205 0.24760 0.63892
 C929 C 1.03674 0.25246 0.66567
 C930 C 1.02119 0.25205 0.65648
 N931 N 1.02128 0.24981 0.63908
 H932 H 0.97230 0.22561 0.62877
 H933 H 0.98603 0.27395 0.65052
 H934 H 0.95923 0.27420 0.66793
 H935 H 0.94547 0.22487 0.64542
 H936 H 1.03595 0.24563 0.61645
 H937 H 1.06359 0.24651 0.63113
 H938 H 1.03604 0.25389 0.67955
 H939 H 1.00910 0.25357 0.66329
 C940 C 1.00249 0.19814 0.59416
 C941 C 1.00058 0.30062 0.59223
 C942 C 1.05267 0.25031 0.65695
 C943 C 0.95022 0.24940 0.65825
 C944 C 0.48867 0.77149 0.10107
 H945 H 0.47833 0.76205 0.10072
 C946 C 0.48762 0.78643 0.09101
 H947 H 0.47652 0.78830 0.08275
 C948 C 0.51560 0.78063 0.11243
 H949 H 0.52630 0.77863 0.12109
 C950 C 0.51511 0.79566 0.10259
 H951 H 0.52549 0.80500 0.10383
 N952 N 0.50259 0.76880 0.11140
 C953 C 0.50709 0.71352 0.12103
 H954 H 0.50887 0.71402 0.13488
 C955 C 0.50729 0.69765 0.11247
 H956 H 0.50907 0.68596 0.11988
 C957 C 0.50207 0.72823 0.09474
 H958 H 0.50014 0.74020 0.08789
 C959 C 0.50212 0.71259 0.08564
 H960 H 0.50029 0.71267 0.07178
 Zn961 Zn 0.50336 0.74886 0.12556
 N962 N 0.50423 0.72836 0.11217
 C963 C 0.47216 0.73485 0.13837
 N964 N 0.48318 0.74855 0.13950
 C965 C 0.47941 0.76244 0.14962
 C966 C 0.46410 0.76281 0.15925
 C967 C 0.45680 0.73466 0.14779
 C968 C 0.53878 0.74753 0.13026
 C969 C 0.55455 0.74854 0.13884
 C970 C 0.53910 0.75283 0.16564
 C971 C 0.52355 0.75175 0.15650
 N972 N 0.52371 0.74946 0.13907
 H973 H 0.47503 0.72415 0.12989
 H974 H 0.48822 0.77331 0.15007
 H975 H 0.46133 0.77394 0.16729
 H976 H 0.44809 0.72376 0.14640
 H977 H 0.53850 0.74548 0.11643
 H978 H 0.56639 0.74703 0.13153
 H979 H 0.53879 0.75510 0.17944
 H980 H 0.51143 0.75299 0.16330
 C981 C 0.50463 0.69702 0.09455
 C982 C 0.50101 0.79873 0.09167
 C983 C 0.55488 0.75146 0.15674
 C984 C 0.45255 0.74877 0.15838
 O985 O 0.03621 1.03441 1.00228
 O986 O 0.02269 1.03689 0.97501
 O987 O -0.00600 1.04063 1.03788
 O988 O -0.03123 1.02768 1.04359
 O989 O 0.03034 0.99880 1.04436
 O990 O 0.03394 0.97160 1.03061
 O991 O -0.05120 0.99277 0.99409
 O992 O -0.05174 1.02096 1.00362
 O993 O -0.01118 0.98934 0.95730
 O994 O 0.01726 0.99816 0.95608
 O995 O -0.01391 0.95277 0.99714
 O996 O -0.00654 0.95251 1.02747
 O997 O -0.04113 0.96901 1.00796
 O998 O -0.02668 0.96562 1.03678
 O999 O -0.00006 0.96264 0.97324
 O1000 O 0.02882 0.97748 0.97017
 O1001 O -0.03533 1.00260 0.96736
 O1002 O -0.03556 1.03209 0.97966
 O1003 O 0.04637 1.01052 1.01587
 O1004 O 0.04620 0.98030 1.00829
 O1005 O 0.00650 1.01259 1.05444
 O1006 O -0.02406 1.00319 1.05376
 O1007 O 0.00888 1.05039 1.01450
 O1008 O -0.00352 1.04877 0.98488
 Zr1009 Zr 0.00994 1.02881 0.99794
 O1010 O -0.00534 1.01332 0.98155
 Zr1011 Zr -0.01005 1.01413 1.03297
 O1012 O -0.02660 0.99857 1.01790
 Zr1013 Zr 0.02477 0.99404 1.01819
 O1014 O 0.00975 0.97725 1.00288
 Zr1015 Zr -0.02948 1.00905 0.99312
 O1016 O -0.01479 1.02592 1.00900
 Zr1017 Zr 0.00538 0.98869 0.97875
 O1018 O 0.02197 1.00479 0.99344
 Zr1019 Zr -0.01503 0.97443 1.01365
 O1020 O 0.00086 0.98939 1.03030
 O1021 O 0.01416 1.01829 1.02225
 O1022 O -0.01912 0.98453 0.98913
 C1023 C 0.04843 1.02555 1.00910
 C1024 C 0.00165 1.05265 1.02930
 C1025 C 0.02154 1.00595 1.05652
 C1026 C -0.05321 0.97760 1.00053
 C1027 C -0.02651 0.99531 0.95531
 C1028 C -0.00749 0.95063 0.98197
 H1029 H -0.00648 1.01909 0.97022
 H1030 H 0.01575 0.96605 1.00181
 H1031 H 0.02158 1.02574 1.02958
 H1032 H -0.03791 0.99753 1.02378
 H1033 H -0.04788 1.03206 1.00875
 H1034 H -0.04135 1.02490 1.03633
 H1035 H 0.03110 0.96720 0.97735
 H1036 H 0.04849 0.98493 0.99661
 H1037 H -0.04702 1.03050 0.97414
 H1038 H 0.00265 1.05990 0.98654
 H1039 H 0.00513 0.94958 1.02319
 H1040 H 0.02448 0.96754 1.03822
 H1041 H 0.02762 1.04860 0.97686
 H1042 H 0.02405 1.00843 0.95962
 H1043 H -0.01821 0.99227 1.05681
 H1044 H -0.03666 0.97316 1.03930
 O1045 O 0.49359 0.53935 0.53732
 O1046 O 0.46588 0.52637 0.54030
 O1047 O 0.52835 0.49697 0.54366
 O1048 O 0.53354 0.47144 0.53123
 O1049 O 0.53477 0.53224 0.50076
 O1050 O 0.52052 0.53555 0.47389
 O1051 O 0.48318 0.45114 0.49767
 O1052 O 0.49318 0.45112 0.52571
 O1053 O 0.44703 0.49125 0.49388
 O1054 O 0.44618 0.51987 0.50219
 O1055 O 0.48641 0.48756 0.45687
 O1056 O 0.51691 0.49462 0.45598
 O1057 O 0.49681 0.46063 0.47343
 O1058 O 0.52589 0.47453 0.46926
 O1059 O 0.46284 0.50194 0.46670
 O1060 O 0.46024 0.53105 0.48113
 O1061 O 0.45691 0.46740 0.50765
 O1062 O 0.46959 0.46780 0.53692
 O1063 O 0.50702 0.54880 0.51295
 O1064 O 0.49854 0.54818 0.48297
 O1065 O 0.54474 0.50869 0.51496
 O1066 O 0.54342 0.47789 0.50637
 O1067 O 0.50525 0.51215 0.55355
 O1068 O 0.47535 0.50028 0.55272
 Zr1069 Zr 0.48846 0.51306 0.53224
 O1070 O 0.47164 0.49756 0.51742
 Zr1071 Zr 0.52302 0.49238 0.51738
 O1072 O 0.50751 0.47561 0.50252
 Zr1073 Zr 0.50843 0.52690 0.49681
 O1074 O 0.49270 0.51164 0.48065
 Zr1075 Zr 0.48282 0.47321 0.51350
 O1076 O 0.49913 0.48815 0.52971
 Zr1077 Zr 0.46865 0.50774 0.49260
 O1078 O 0.48378 0.52458 0.50806
 Zr1079 Zr 0.50312 0.48672 0.47823
 O1080 O 0.52018 0.50280 0.49248
 O1081 O 0.51270 0.51676 0.52118
 O1082 O 0.47866 0.48307 0.48884
 C1083 C 0.50068 0.55125 0.52813
 C1084 C 0.51999 0.50488 0.55568
 C1085 C 0.54692 0.52352 0.50785
 C1086 C 0.48929 0.44880 0.48238
 C1087 C 0.44491 0.47607 0.50024
 C1088 C 0.47137 0.49417 0.45475
 H1089 H 0.46037 0.49663 0.52340
 H1090 H 0.49161 0.51742 0.46935
 H1091 H 0.52030 0.52422 0.52831
 H1092 H 0.51318 0.46422 0.50161
 H1093 H 0.49849 0.45519 0.53663
 H1094 H 0.52608 0.46132 0.52886
 H1095 H 0.46746 0.53318 0.47080
 H1096 H 0.48707 0.55078 0.48798
 H1097 H 0.46389 0.45635 0.53572
 H1098 H 0.47720 0.50673 0.56365
 H1099 H 0.51261 0.50617 0.45270
 H1100 H 0.52793 0.52595 0.46984
 H1101 H 0.46795 0.53157 0.55184
 H1102 H 0.44989 0.52682 0.51228
 H1103 H 0.54639 0.48343 0.49525
 H1104 H 0.52830 0.46465 0.47694
 O1105 O 0.46412 -0.03112 0.49503
 O1106 O 0.47763 -0.03401 0.46769
 O1107 O 0.50618 -0.03662 0.53059
 O1108 O 0.53119 -0.02351 0.53651
 O1109 O 0.46976 0.00551 0.53642
 O1110 O 0.46633 0.03238 0.52220
 O1111 O 0.55175 0.01000 0.48648
 O1112 O 0.55207 -0.01795 0.49630
 O1113 O 0.51198 0.01277 0.44938
 O1114 O 0.48349 0.00431 0.44817
 O1115 O 0.51472 0.05022 0.48873
 O1116 O 0.50718 0.05141 0.51878
 O1117 O 0.54172 0.03405 0.50008
 O1118 O 0.52676 0.03808 0.52878
 O1119 O 0.50091 0.04004 0.46492
 O1120 O 0.47198 0.02525 0.46196
 O1121 O 0.53599 -0.00041 0.45970
 O1122 O 0.53597 -0.02955 0.47251
 O1123 O 0.45392 -0.00687 0.50817
 O1124 O 0.45426 0.02319 0.49991
 O1125 O 0.49343 -0.00824 0.54675
 O1126 O 0.52409 0.00116 0.54605
 O1127 O 0.49144 -0.04688 0.50732
 O1128 O 0.50376 -0.04589 0.47767
 Zr1129 Zr 0.49038 -0.02561 0.49051
 O1130 O 0.50585 -0.01054 0.47397
 Zr1131 Zr 0.51018 -0.01023 0.52540
 O1132 O 0.52693 0.00486 0.51018
 Zr1133 Zr 0.47554 0.00964 0.51019
 O1134 O 0.49079 0.02604 0.49473
 Zr1135 Zr 0.52994 -0.00615 0.48556
 O1136 O 0.51505 -0.02258 0.50164
 Zr1137 Zr 0.49529 0.01410 0.47077
 O1138 O 0.47850 -0.00164 0.48560
 Zr1139 Zr 0.51550 0.02895 0.50556
 O1140 O 0.49937 0.01447 0.52235
 O1141 O 0.48605 -0.01456 0.51466
 O1142 O 0.51975 0.01835 0.48118
 C1143 C 0.45188 -0.02210 0.50173
 C1144 C 0.49864 -0.04884 0.52214
 C1145 C 0.47841 -0.00147 0.54869
 C1146 C 0.55382 0.02522 0.49288
 C1147 C 0.52726 0.00659 0.44750
 C1148 C 0.50839 0.05215 0.47353
 H1149 H 0.50702 -0.01657 0.46274
 H1150 H 0.48487 0.03725 0.49348
 H1151 H 0.47859 -0.02185 0.52208
 H1152 H 0.53818 0.00596 0.51612
 H1153 H 0.54811 -0.02890 0.50161
 H1154 H 0.54131 -0.02129 0.52904
 H1155 H 0.46968 0.03568 0.46902
 H1156 H 0.45199 0.01820 0.48835
 H1157 H 0.54747 -0.02818 0.46701
 H1158 H 0.49749 -0.05694 0.47942
 H1159 H 0.49537 0.05404 0.51475
 H1160 H 0.47574 0.03660 0.52978
 H1161 H 0.47262 -0.04566 0.46967
 H1162 H 0.47677 -0.00596 0.45177
 H1163 H 0.51809 0.01202 0.54911
 H1164 H 0.53684 0.03072 0.53136
 O1165 O 0.01082 0.51280 0.94737
 O1166 O -0.01833 0.50372 0.94738
 O1167 O 0.01210 0.55123 0.98775
 O1168 O 0.00685 0.55274 1.01597
 O1169 O 0.05125 0.51100 0.98566
 O1170 O 0.05138 0.48146 0.99327
 O1171 O -0.03126 0.50477 1.03439
 O1172 O -0.03328 0.53191 1.02223
 O1173 O -0.03572 0.46863 0.99428
 O1174 O -0.02362 0.46551 0.96707
 O1175 O 0.00475 0.46417 1.02945
 O1176 O 0.03244 0.47859 1.03373
 O1177 O -0.00734 0.49127 1.04459
 O1178 O 0.02382 0.50018 1.04495
 O1179 O -0.00869 0.45357 1.00560
 O1180 O 0.00036 0.45380 0.97438
 O1181 O -0.04593 0.49231 1.00832
 O1182 O -0.04612 0.52164 0.99589
 O1183 O 0.03462 0.49896 0.95741
 O1184 O 0.03838 0.47172 0.97187
 O1185 O 0.04106 0.53493 0.99925
 O1186 O 0.02622 0.53742 1.02748
 O1187 O -0.00051 0.54071 0.96337
 O1188 O -0.02950 0.52671 0.96391
 Zr1189 Zr -0.00546 0.51459 0.96909
 O1190 O -0.02163 0.49858 0.98403
 Zr1191 Zr 0.01479 0.52956 1.00389
 O1192 O -0.00108 0.51470 1.02027
 Zr1193 Zr 0.02953 0.49467 0.98379
 O1194 O 0.01476 0.47820 0.99964
 Zr1195 Zr -0.02499 0.50971 1.00852
 O1196 O -0.00999 0.52665 0.99311
 Zr1197 Zr -0.00983 0.47478 0.98874
 O1198 O 0.00557 0.48987 0.97190
 Zr1199 Zr 0.00996 0.49020 1.02356
 O1200 O 0.02683 0.50571 1.00852
 O1201 O 0.01891 0.51888 0.97965
 O1202 O -0.01432 0.48546 1.01304
 C1203 C 0.02576 0.50589 0.94523
 C1204 C 0.00585 0.55311 0.97249
 C1205 C 0.05331 0.52606 0.99241
 C1206 C -0.02264 0.49746 1.04649
 C1207 C -0.04779 0.47705 1.00198
 C1208 C -0.00247 0.45188 1.02087
 H1209 H -0.03280 0.49697 0.97801
 H1210 H 0.02092 0.46713 1.00100
 H1211 H 0.02630 0.52627 0.97226
 H1212 H -0.00263 0.52088 1.03136
 H1213 H -0.03084 0.54196 1.01472
 H1214 H -0.00378 0.54999 1.02250
 H1215 H 0.01055 0.44936 0.98062
 H1216 H 0.02925 0.46800 0.96372
 H1217 H -0.05625 0.52115 1.00373
 H1218 H -0.02836 0.53415 0.95357
 H1219 H 0.03636 0.46976 1.02536
 H1220 H 0.05302 0.48542 1.00533
 H1221 H -0.01797 0.51210 0.93771
 H1222 H -0.02026 0.47300 0.95729
 H1223 H 0.03536 0.52893 1.03013
 H1224 H 0.01774 0.51062 1.04910
 O1225 O -0.00043 0.53585 0.46331
 O1226 O 0.02681 0.52218 0.46102
 O1227 O -0.03629 0.49379 0.45718
 O1228 O -0.04227 0.46871 0.47016
 O1229 O -0.04282 0.53059 0.49887
 O1230 O -0.02924 0.53447 0.52602
 O1231 O 0.00679 0.44883 0.50526
 O1232 O -0.00248 0.44803 0.47705
 O1233 O 0.04385 0.48872 0.50870
 O1234 O 0.04537 0.51706 0.49979
 O1235 O 0.00370 0.48657 0.54509
 O1236 O -0.02656 0.49406 0.54528
 O1237 O -0.00724 0.45920 0.52892
 O1238 O -0.03597 0.47390 0.53216
 O1239 O 0.02777 0.50024 0.53528
 O1240 O 0.03117 0.52893 0.52036
 O1241 O 0.03376 0.46447 0.49547
 O1242 O 0.02169 0.46398 0.46597
 O1243 O -0.01416 0.54635 0.48710
 O1244 O -0.00672 0.54647 0.51735
 O1245 O -0.05297 0.50665 0.48514
 O1246 O -0.05258 0.47615 0.49459
 O1247 O -0.01270 0.50842 0.44745
 O1248 O 0.01682 0.49588 0.44917
 Zr1249 Zr 0.00371 0.50962 0.46905
 O1250 O 0.01986 0.49442 0.48462
 Zr1251 Zr -0.03160 0.48997 0.48368
 O1252 O -0.01678 0.47349 0.49931
 Zr1253 Zr -0.01671 0.52495 0.50368
 O1254 O -0.00167 0.51001 0.52055
 Zr1255 Zr 0.00808 0.47037 0.48893
 O1256 O -0.00757 0.48497 0.47198
 Zr1257 Zr 0.02252 0.50540 0.50921
 O1258 O 0.00811 0.52191 0.49301
 Zr1259 Zr -0.01265 0.48530 0.52341
 O1260 O -0.02905 0.50114 0.50837
 O1261 O -0.02067 0.51408 0.47948
 O1262 O 0.01194 0.48098 0.51341
 C1263 C -0.00727 0.54820 0.47208
 C1264 C -0.02754 0.50127 0.44517
 C1265 C -0.05499 0.52177 0.49174
 C1266 C 0.00017 0.44699 0.52039
 C1267 C 0.04580 0.47332 0.50278
 C1268 C 0.01889 0.49298 0.54727
 H1269 H 0.03123 0.49317 0.47889
 H1270 H -0.00066 0.51613 0.53173
 H1271 H -0.02789 0.52146 0.47200
 H1272 H -0.02276 0.46223 0.50036
 H1273 H -0.00750 0.45180 0.46594
 H1274 H -0.03509 0.45858 0.47296
 H1275 H 0.02390 0.53138 0.53059
 H1276 H 0.00498 0.54870 0.51267
 H1277 H 0.02712 0.45252 0.46760
 H1278 H 0.01531 0.50195 0.43803
 H1279 H -0.02227 0.50578 0.54815
 H1280 H -0.03692 0.52508 0.53014
 H1281 H 0.02509 0.52700 0.44929
 H1282 H 0.04198 0.52375 0.48949
 H1283 H -0.05570 0.48214 0.50546
 H1284 H -0.03850 0.46382 0.52468
 O1285 O 0.50765 0.94819 0.00618
 O1286 O 0.49943 0.94828 -0.02324
 O1287 O 0.54589 0.98860 0.00889
 O1288 O 0.54761 1.01686 0.00399
 O1289 O 0.50432 0.98625 0.04679
 O1290 O 0.47479 0.99402 0.04607
 O1291 O 0.50127 1.03546 -0.03536
 O1292 O 0.52839 1.02311 -0.03672
 O1293 O 0.46508 0.99551 -0.04129
 O1294 O 0.46161 0.96811 -0.02967
 O1295 O 0.45931 1.03043 -0.00080
 O1296 O 0.47252 1.03463 0.02732
 O1297 O 0.48690 1.04558 -0.01179
 O1298 O 0.49463 1.04567 0.01972
 O1299 O 0.44913 1.00660 -0.01467
 O1300 O 0.44898 0.97532 -0.00593
 O1301 O 0.48911 1.00962 -0.05060
 O1302 O 0.51836 0.99692 -0.05014
 O1303 O 0.49293 0.95817 0.02960
 O1304 O 0.46549 0.97260 0.03255
 O1305 O 0.52863 0.99980 0.03738
 O1306 O 0.53160 1.02824 0.02301
 O1307 O 0.53585 0.96424 -0.00426
 O1308 O 0.52285 0.96479 -0.03363
 Zr1309 Zr 0.50991 0.96996 -0.00993
 O1310 O 0.49453 0.98500 -0.02645
 Zr1311 Zr 0.52417 1.00471 0.01107
 O1312 O 0.50995 1.02118 -0.00508
 Zr1313 Zr 0.48876 0.98456 0.02457
 O1314 O 0.47288 1.00051 0.00945
 Zr1315 Zr 0.50582 1.00951 -0.02923
 O1316 O 0.52215 0.99400 -0.01386
 Zr1317 Zr 0.47033 0.98971 -0.01533
 O1318 O 0.48482 0.97276 0.00037
 Zr1319 Zr 0.48507 1.02445 0.00524
 O1320 O 0.49991 1.00932 0.02245
 O1321 O 0.51332 0.98045 0.01462
 O1322 O 0.48122 1.01403 -0.01925
 C1323 C 0.50027 0.94603 0.02092
 C1324 C 0.54800 0.97335 0.00257
 C1325 C 0.51937 0.99286 0.04930
 C1326 C 0.49369 1.04755 -0.02685
 C1327 C 0.47389 1.00338 -0.05298
 C1328 C 0.44727 1.02189 -0.00846
 H1329 H 0.49330 0.97905 -0.03772
 H1330 H 0.46159 1.00186 0.01527
 H1331 H 0.52045 0.97303 0.02215
 H1332 H 0.51620 1.03227 -0.00633
 H1333 H 0.53829 1.01551 -0.03406
 H1334 H 0.54528 1.02337 -0.00671
 H1335 H 0.44421 0.98150 0.00420
 H1336 H 0.46216 0.96443 0.02327
 H1337 H 0.51823 1.00481 -0.06021
 H1338 H 0.53020 0.95442 -0.03234
 H1339 H 0.46371 1.02612 0.03102
 H1340 H 0.47877 1.00605 0.04798
 H1341 H 0.50775 0.93859 -0.02270
 H1342 H 0.46885 0.95827 -0.02606
 H1343 H 0.52286 1.03077 0.03201
 H1344 H 0.50523 1.04993 0.01395
 O1345 O 0.49343 0.50709 0.05346
 O1346 O 0.52280 0.49881 0.05336
 O1347 O 0.49125 0.54509 0.01302
 O1348 O 0.49632 0.54651 -0.01524
 O1349 O 0.45296 0.50374 0.01537
 O1350 O 0.45351 0.47411 0.00765
 O1351 O 0.53539 0.49979 -0.03376
 O1352 O 0.53689 0.52701 -0.02146
 O1353 O 0.54088 0.46394 0.00631
 O1354 O 0.52900 0.46077 0.03366
 O1355 O 0.50047 0.45798 -0.02864
 O1356 O 0.47247 0.47135 -0.03287
 O1357 O 0.51177 0.48543 -0.04385
 O1358 O 0.48033 0.49328 -0.04398
 O1359 O 0.51418 0.44801 -0.00481
 O1360 O 0.50526 0.44816 0.02642
 O1361 O 0.55042 0.48779 -0.00787
 O1362 O 0.55010 0.51717 0.00474
 O1363 O 0.46994 0.49244 0.04349
 O1364 O 0.46678 0.46494 0.02908
 O1365 O 0.46266 0.52788 0.00179
 O1366 O 0.47722 0.53051 -0.02659
 O1367 O 0.50413 0.53516 0.03739
 O1368 O 0.53342 0.52204 0.03683
 Zr1369 Zr 0.50965 0.50914 0.03169
 O1370 O 0.52615 0.49355 0.01669
 Zr1371 Zr 0.48897 0.52321 -0.00306
 O1372 O 0.50509 0.50873 -0.01950
 Zr1373 Zr 0.47506 0.48806 0.01711
 O1374 O 0.49017 0.47193 0.00122
 Zr1375 Zr 0.52915 0.50459 -0.00783
 O1376 O 0.51383 0.52116 0.00765
 Zr1377 Zr 0.51488 0.46936 0.01202
 O1378 O 0.49917 0.48408 0.02892
 Zr1379 Zr 0.49461 0.48387 -0.02272
 O1380 O 0.47743 0.49897 -0.00764
 O1381 O 0.48517 0.51260 0.02120
 O1382 O 0.51903 0.47999 -0.01230
 C1383 C 0.47864 0.49978 0.05563
 C1384 C 0.49749 0.54728 0.02826
 C1385 C 0.45061 0.51875 0.00871
 C1386 C 0.52687 0.49215 -0.04583
 C1387 C 0.55268 0.47264 -0.00156
 C1388 C 0.50800 0.44600 -0.02007
 H1389 H 0.53738 0.49233 0.02265
 H1390 H 0.48428 0.46066 -0.00011
 H1391 H 0.47766 0.51984 0.02861
 H1392 H 0.50645 0.51488 -0.03059
 H1393 H 0.53425 0.53700 -0.01388
 H1394 H 0.50700 0.54404 -0.02178
 H1395 H 0.49512 0.44340 0.02025
 H1396 H 0.47603 0.46157 0.03719
 H1397 H 0.56020 0.51692 -0.00315
 H1398 H 0.53213 0.52949 0.04718
 H1399 H 0.46867 0.46262 -0.02436
 H1400 H 0.45170 0.47802 -0.00437
 H1401 H 0.52227 0.50723 0.06304
 H1402 H 0.52535 0.46810 0.04348
 H1403 H 0.46819 0.52178 -0.02913
 H1404 H 0.48616 0.50385 -0.04820
 O1405 O -0.00670 0.00772 0.55443
 O1406 O 0.02268 -0.00049 0.55445
 O1407 O -0.00885 0.04550 0.51374
 O1408 O -0.00368 0.04679 0.48550
 O1409 O -0.04705 0.00415 0.51628
 O1410 O -0.04648 -0.02551 0.50865
 O1411 O 0.03547 0.00005 0.46734
 O1412 O 0.03694 0.02733 0.47956
 O1413 O 0.04085 -0.03566 0.50750
 O1414 O 0.02898 -0.03866 0.53491
 O1415 O 0.00063 -0.04176 0.47254
 O1416 O -0.02739 -0.02850 0.46819
 O1417 O 0.01190 -0.01440 0.45727
 O1418 O -0.01957 -0.00656 0.45703
 O1419 O 0.01424 -0.05163 0.49648
 O1420 O 0.00523 -0.05132 0.52772
 O1421 O 0.05044 -0.01187 0.49325
 O1422 O 0.05011 0.01755 0.50580
 O1423 O -0.03013 -0.00704 0.54444
 O1424 O -0.03325 -0.03459 0.53015
 O1425 O -0.03736 0.02821 0.50257
 O1426 O -0.02273 0.03071 0.47419
 O1427 O 0.00400 0.03576 0.53821
 O1428 O 0.03332 0.02264 0.53779
 Zr1429 Zr 0.00957 0.00970 0.53268
 O1430 O 0.02612 -0.00597 0.51780
 Zr1431 Zr -0.01104 0.02355 0.49779
 O1432 O 0.00515 0.00901 0.48148
 Zr1433 Zr -0.02496 -0.01152 0.51810
 O1434 O -0.00980 -0.02771 0.50233
 Zr1435 Zr 0.02918 0.00495 0.49324
 O1436 O 0.01380 0.02158 0.50858
 Zr1437 Zr 0.01488 -0.03019 0.51322
 O1438 O -0.00087 -0.01539 0.53000
 Zr1439 Zr -0.00532 -0.01588 0.47835
 O1440 O -0.02255 -0.00072 0.49330
 O1441 O -0.01488 0.01306 0.52210
 O1442 O 0.01907 -0.01967 0.48886
 C1443 C -0.02148 0.00038 0.55658
 C1444 C -0.00266 0.04781 0.52899
 C1445 C -0.04940 0.01912 0.50955
 C1446 C 0.02700 -0.00766 0.45529
 C1447 C 0.05265 -0.02702 0.49958
 C1448 C 0.00816 -0.05370 0.48119
 H1449 H 0.03734 -0.00717 0.52378
 H1450 H -0.01568 -0.03900 0.50104
 H1451 H -0.02241 0.02032 0.52946
 H1452 H 0.00652 0.01511 0.47036
 H1453 H 0.03430 0.03734 0.48710
 H1454 H 0.00705 0.04431 0.47905
 H1455 H -0.00485 -0.05615 0.52152
 H1456 H -0.02402 -0.03792 0.53830
 H1457 H 0.06023 0.01727 0.49793
 H1458 H 0.03199 0.03018 0.54808
 H1459 H -0.03122 -0.03717 0.47675
 H1460 H -0.04826 -0.02166 0.49661
 H1461 H 0.02212 0.00799 0.56407
 H1462 H 0.02533 -0.03126 0.54468
 H1463 H -0.03177 0.02198 0.47169
 H1464 H -0.01371 0.00396 0.45274
 O1465 O 0.69829 0.23775 0.26069
 O1466 O 0.69781 0.24662 0.23146
 O1467 O 0.73987 0.20098 0.26173
 O1468 O 0.76810 0.20049 0.25638
 O1469 O 0.73683 0.24172 0.30071
 O1470 O 0.74358 0.27157 0.30051
 O1471 O 0.78483 0.24844 0.21785
 O1472 O 0.77336 0.22086 0.21610
 O1473 O 0.74352 0.28303 0.21335
 O1474 O 0.71629 0.28527 0.22563
 O1475 O 0.77885 0.28946 0.25345
 O1476 O 0.78370 0.27570 0.28130
 O1477 O 0.79472 0.26271 0.24159
 O1478 O 0.79553 0.25441 0.27280
 O1479 O 0.75459 0.29890 0.24011
 O1480 O 0.72349 0.29772 0.24944
 O1481 O 0.75830 0.25977 0.20326
 O1482 O 0.74668 0.23001 0.20335
 O1483 O 0.70815 0.25229 0.28430
 O1484 O 0.72169 0.28022 0.28764
 O1485 O 0.75095 0.21811 0.29053
 O1486 O 0.77921 0.21653 0.27560
 O1487 O 0.71507 0.21045 0.24932
 O1488 O 0.71485 0.22402 0.22028
 Zr1489 Zr 0.71992 0.23668 0.24417
 O1490 O 0.73429 0.25295 0.22775
 Zr1491 Zr 0.75533 0.22330 0.26423
 O1492 O 0.77116 0.23853 0.24817
 Zr1493 Zr 0.73430 0.25764 0.27889
 O1494 O 0.74953 0.27447 0.26386
 Zr1495 Zr 0.75910 0.24270 0.22430
 O1496 O 0.74427 0.22545 0.23953
 Zr1497 Zr 0.73835 0.27709 0.23933
 O1498 O 0.72208 0.26164 0.25500
 Zr1499 Zr 0.77376 0.26332 0.25899
 O1500 O 0.75933 0.24749 0.27608
 O1501 O 0.73082 0.23314 0.26846
 O1502 O 0.76294 0.26727 0.23476
 C1503 C 0.69612 0.24470 0.27565
 C1504 C 0.72461 0.19847 0.25562
 C1505 C 0.74394 0.22689 0.30278
 C1506 C 0.79675 0.25633 0.22636
 C1507 C 0.75146 0.27474 0.20132
 C1508 C 0.76986 0.30128 0.24614
 H1509 H 0.72815 0.25415 0.21662
 H1510 H 0.75059 0.28569 0.26991
 H1511 H 0.72372 0.22555 0.27594
 H1512 H 0.78242 0.23276 0.24659
 H1513 H 0.76614 0.21059 0.21867
 H1514 H 0.77450 0.20334 0.24571
 H1515 H 0.72964 0.30250 0.25958
 H1516 H 0.71336 0.28346 0.27854
 H1517 H 0.75443 0.23064 0.19316
 H1518 H 0.70470 0.21628 0.22157
 H1519 H 0.77511 0.28433 0.28514
 H1520 H 0.75575 0.26805 0.30211
 H1521 H 0.68836 0.23792 0.23198
 H1522 H 0.70672 0.27762 0.22930
 H1523 H 0.78163 0.22524 0.28468
 H1524 H 0.79991 0.24398 0.26685
 O1525 O 0.75419 0.71662 0.71077
 O1526 O 0.78165 0.71366 0.72392
 O1527 O 0.71891 0.71070 0.75311
 O1528 O 0.71355 0.72344 0.77848
 O1529 O 0.71299 0.75302 0.71728
 O1530 O 0.72728 0.78001 0.71388
 O1531 O 0.76379 0.75699 0.79858
 O1532 O 0.75385 0.72897 0.79875
 O1533 O 0.80046 0.76050 0.75846
 O1534 O 0.80144 0.75193 0.72992
 O1535 O 0.76129 0.79762 0.76170
 O1536 O 0.73114 0.79868 0.75481
 O1537 O 0.75038 0.78117 0.78889
 O1538 O 0.72144 0.78521 0.77452
 O1539 O 0.78489 0.78763 0.74744
 O1540 O 0.78764 0.77290 0.71857
 O1541 O 0.79031 0.74702 0.78244
 O1542 O 0.77754 0.71772 0.78227
 O1543 O 0.74099 0.74089 0.70099
 O1544 O 0.74939 0.77097 0.70140
 O1545 O 0.70282 0.73909 0.74101
 O1546 O 0.70388 0.74820 0.77170
 O1547 O 0.74202 0.70061 0.73803
 O1548 O 0.77182 0.70156 0.75009
 Zr1549 Zr 0.75899 0.72192 0.73701
 O1550 O 0.77577 0.73692 0.75236
 Zr1551 Zr 0.72436 0.73702 0.75741
 O1552 O 0.73982 0.75204 0.77406
 Zr1553 Zr 0.73930 0.75723 0.72273
 O1554 O 0.75500 0.77354 0.73787
 Zr1555 Zr 0.76442 0.74107 0.77662
 O1556 O 0.74812 0.72470 0.76184
 Zr1557 Zr 0.77896 0.76165 0.74195
 O1558 O 0.76388 0.74601 0.72525
 Zr1559 Zr 0.74444 0.77624 0.76275
 O1560 O 0.72741 0.76183 0.74676
 O1561 O 0.73484 0.73295 0.73311
 O1562 O 0.76881 0.76567 0.76656
 C1563 C 0.74733 0.72570 0.69873
 C1564 C 0.72720 0.69859 0.74529
 C1565 C 0.70077 0.74593 0.72605
 C1566 C 0.75762 0.77223 0.80083
 C1567 C 0.80243 0.75429 0.77370
 C1568 C 0.77638 0.79968 0.75505
 H1569 H 0.78701 0.73094 0.75336
 H1570 H 0.75620 0.78479 0.73198
 H1571 H 0.72731 0.72571 0.72569
 H1572 H 0.73402 0.75303 0.78540
 H1573 H 0.74851 0.71802 0.79475
 H1574 H 0.72101 0.72583 0.78856
 H1575 H 0.78047 0.78319 0.71628
 H1576 H 0.76089 0.76599 0.69888
 H1577 H 0.78314 0.71903 0.79371
 H1578 H 0.76992 0.69055 0.74378
 H1579 H 0.73497 0.80136 0.74293
 H1580 H 0.71971 0.78405 0.72338
 H1581 H 0.77956 0.70204 0.71886
 H1582 H 0.79772 0.74175 0.72310
 H1583 H 0.70089 0.75917 0.76590
 H1584 H 0.71898 0.77776 0.78459
 O1585 O 0.28934 0.25564 0.78252
 O1586 O 0.27581 0.28293 0.78534
 O1587 O 0.24741 0.21975 0.78808
 O1588 O 0.22226 0.21394 0.77516
 O1589 O 0.28388 0.21403 0.74609
 O1590 O 0.28752 0.22818 0.71916
 O1591 O 0.20203 0.26369 0.74136
 O1592 O 0.20153 0.25388 0.76936
 O1593 O 0.24170 0.30085 0.73817
 O1594 O 0.27011 0.30234 0.74702
 O1595 O 0.23950 0.26129 0.70111
 O1596 O 0.24679 0.23119 0.70019
 O1597 O 0.21222 0.25021 0.71729
 O1598 O 0.22693 0.22139 0.71345
 O1599 O 0.25332 0.28520 0.71119
 O1600 O 0.28195 0.28852 0.72617
 O1601 O 0.21767 0.29044 0.75147
 O1602 O 0.21757 0.27790 0.78077
 O1603 O 0.29966 0.24238 0.75838
 O1604 O 0.29958 0.25055 0.72830
 O1605 O 0.26007 0.20360 0.75978
 O1606 O 0.22949 0.20416 0.75046
 O1607 O 0.26204 0.24319 0.79827
 O1608 O 0.24958 0.27279 0.79720
 Zr1609 Zr 0.26312 0.26000 0.77698
 O1610 O 0.24778 0.27644 0.76184
 Zr1611 Zr 0.24338 0.22493 0.76174
 O1612 O 0.22675 0.24003 0.74657
 Zr1613 Zr 0.27817 0.24024 0.74185
 O1614 O 0.26306 0.25557 0.72539
 Zr1615 Zr 0.22373 0.26469 0.75749
 O1616 O 0.23847 0.24873 0.77399
 Zr1617 Zr 0.25851 0.27958 0.73721
 O1618 O 0.27517 0.26488 0.75301
 Zr1619 Zr 0.23834 0.24462 0.72249
 O1620 O 0.25435 0.22794 0.73704
 O1621 O 0.26749 0.23582 0.76601
 O1622 O 0.23408 0.26902 0.73300
 C1623 C 0.30161 0.24890 0.77357
 C1624 C 0.25496 0.22826 0.80024
 C1625 C 0.27515 0.20172 0.75308
 C1626 C 0.20007 0.25741 0.72609
 C1627 C 0.22634 0.30263 0.74425
 C1628 C 0.24598 0.27646 0.69909
 H1629 H 0.24655 0.28771 0.76779
 H1630 H 0.26909 0.25677 0.71420
 H1631 H 0.27491 0.22845 0.77330
 H1632 H 0.21548 0.23407 0.74548
 H1633 H 0.20543 0.24868 0.78034
 H1634 H 0.21211 0.22121 0.77265
 H1635 H 0.28447 0.28129 0.71592
 H1636 H 0.30188 0.26212 0.73331
 H1637 H 0.20608 0.28333 0.77935
 H1638 H 0.25575 0.27108 0.80826
 H1639 H 0.25863 0.23524 0.69755
 H1640 H 0.27817 0.22046 0.71502
 H1641 H 0.28071 0.28101 0.79700
 H1642 H 0.27683 0.29880 0.75725
 H1643 H 0.23545 0.20118 0.73953
 H1644 H 0.21676 0.21887 0.72078
 O1645 O 0.26273 0.74144 0.19860
 O1646 O 0.25414 0.77073 0.19853
 O1647 O 0.30031 0.73981 0.23950
 O1648 O 0.30140 0.74492 0.26777
 O1649 O 0.25934 0.70112 0.23669
 O1650 O 0.22971 0.70132 0.24406
 O1651 O 0.25391 0.78375 0.28559
 O1652 O 0.28131 0.78542 0.27377
 O1653 O 0.21864 0.78858 0.24500
 O1654 O 0.21572 0.77649 0.21776
 O1655 O 0.21274 0.74829 0.28013
 O1656 O 0.22638 0.72041 0.28456
 O1657 O 0.23980 0.75997 0.29560
 O1658 O 0.24810 0.72863 0.29593
 O1659 O 0.20286 0.76184 0.25616
 O1660 O 0.20341 0.75265 0.22492
 O1661 O 0.24223 0.79855 0.25936
 O1662 O 0.27179 0.79836 0.24731
 O1663 O 0.24817 0.71785 0.20845
 O1664 O 0.22055 0.71450 0.22257
 O1665 O 0.28324 0.71101 0.25058
 O1666 O 0.28545 0.72578 0.27898
 O1667 O 0.29052 0.75252 0.21499
 O1668 O 0.27707 0.78166 0.21533
 Zr1669 Zr 0.26439 0.75777 0.22035
 O1670 O 0.24845 0.77414 0.23513
 Zr1671 Zr 0.27830 0.73734 0.25532
 O1672 O 0.26349 0.75342 0.27154
 Zr1673 Zr 0.24348 0.72302 0.23476
 O1674 O 0.22706 0.73800 0.25045
 Zr1675 Zr 0.25920 0.77740 0.25977
 O1676 O 0.27609 0.76216 0.24454
 Zr1677 Zr 0.22435 0.76262 0.23953
 O1678 O 0.23941 0.74704 0.22284
 Zr1679 Zr 0.23872 0.74268 0.27451
 O1680 O 0.25413 0.72559 0.25964
 O1681 O 0.26798 0.73336 0.23095
 O1682 O 0.23468 0.76701 0.26396
 C1683 C 0.25556 0.72657 0.19637
 C1684 C 0.30261 0.74604 0.22428
 C1685 C 0.27427 0.69889 0.24354
 C1686 C 0.24623 0.77521 0.29759
 C1687 C 0.22713 0.80056 0.25282
 C1688 C 0.20077 0.75571 0.27143
 H1689 H 0.24718 0.78533 0.22910
 H1690 H 0.21584 0.73199 0.25167
 H1691 H 0.27536 0.72589 0.22363
 H1692 H 0.26950 0.75491 0.28271
 H1693 H 0.29144 0.78284 0.26638
 H1694 H 0.29880 0.75567 0.27417
 H1695 H 0.19860 0.74259 0.23117
 H1696 H 0.21721 0.72365 0.21434
 H1697 H 0.27135 0.80852 0.25514
 H1698 H 0.28464 0.78042 0.20506
 H1699 H 0.21773 0.71652 0.27599
 H1700 H 0.23344 0.69964 0.25616
 H1701 H 0.26266 0.77024 0.18896
 H1702 H 0.22330 0.77303 0.20807
 H1703 H 0.27679 0.71666 0.28143
 H1704 H 0.25852 0.73464 0.30029
 O1705 O 0.28943 0.74801 0.71561
 O1706 O 0.27624 0.72040 0.71288
 O1707 O 0.24698 0.78293 0.70977
 O1708 O 0.22173 0.78829 0.72269
 O1709 O 0.28313 0.78961 0.75200
 O1710 O 0.28684 0.77551 0.77893
 O1711 O 0.20189 0.73850 0.75667
 O1712 O 0.20149 0.74805 0.72861
 O1713 O 0.24210 0.70190 0.75984
 O1714 O 0.27055 0.70101 0.75112
 O1715 O 0.23920 0.74146 0.79694
 O1716 O 0.24640 0.77195 0.79763
 O1717 O 0.21191 0.75215 0.78073
 O1718 O 0.22614 0.78100 0.78473
 O1719 O 0.25326 0.71780 0.78684
 O1720 O 0.28206 0.71508 0.77201
 O1721 O 0.21793 0.71187 0.74668
 O1722 O 0.21780 0.72429 0.71735
 O1723 O 0.29938 0.76158 0.73975
 O1724 O 0.29930 0.75349 0.76976
 O1725 O 0.25934 0.79949 0.73813
 O1726 O 0.22879 0.79839 0.74732
 O1727 O 0.26198 0.75976 0.69975
 O1728 O 0.24997 0.72994 0.70090
 Zr1729 Zr 0.26321 0.74310 0.72111
 O1730 O 0.24794 0.72642 0.73625
 Zr1731 Zr 0.24294 0.77782 0.73617
 O1732 O 0.22645 0.76245 0.75142
 Zr1733 Zr 0.27779 0.76328 0.75621
 O1734 O 0.26282 0.74763 0.77268
 Zr1735 Zr 0.22372 0.73771 0.74057
 O1736 O 0.23839 0.75387 0.72402
 Zr1737 Zr 0.25860 0.72353 0.76087
 O1738 O 0.27518 0.73855 0.74510
 Zr1739 Zr 0.23799 0.75813 0.77554
 O1740 O 0.25380 0.77509 0.76091
 O1741 O 0.26721 0.76742 0.73199
 O1742 O 0.23403 0.73362 0.76508
 C1743 C 0.30154 0.75507 0.72459
 C1744 C 0.25465 0.77448 0.69765
 C1745 C 0.27430 0.80172 0.74497
 C1746 C 0.19984 0.74482 0.77191
 C1747 C 0.22677 0.69983 0.75381
 C1748 C 0.24579 0.72638 0.79893
 H1749 H 0.24686 0.71512 0.73031
 H1750 H 0.26882 0.74656 0.78387
 H1751 H 0.27456 0.77493 0.72469
 H1752 H 0.21513 0.76822 0.75249
 H1753 H 0.20539 0.75329 0.71762
 H1754 H 0.21163 0.78090 0.72534
 H1755 H 0.28441 0.72234 0.78229
 H1756 H 0.30169 0.74189 0.76489
 H1757 H 0.20637 0.71864 0.71878
 H1758 H 0.25621 0.73169 0.68986
 H1759 H 0.25801 0.76764 0.80067
 H1760 H 0.27735 0.78301 0.78307
 H1761 H 0.28123 0.72239 0.70124
 H1762 H 0.27739 0.70470 0.74097
 H1763 H 0.23454 0.80139 0.75834
 H1764 H 0.21629 0.78360 0.77707
 O1765 O 0.25090 0.21660 0.20868
 O1766 O 0.27835 0.21409 0.22189
 O1767 O 0.21565 0.21057 0.25105
 O1768 O 0.21011 0.22350 0.27630
 O1769 O 0.20911 0.25252 0.21483
 O1770 O 0.22308 0.27961 0.21112
 O1771 O 0.25984 0.25794 0.29606
 O1772 O 0.25033 0.22976 0.29650
 O1773 O 0.29648 0.26166 0.25594
 O1774 O 0.29759 0.25260 0.22749
 O1775 O 0.25689 0.29815 0.25882
 O1776 O 0.22664 0.29871 0.25179
 O1777 O 0.24612 0.28185 0.28614
 O1778 O 0.21719 0.28541 0.27174
 O1779 O 0.28059 0.28830 0.24463
 O1780 O 0.28353 0.27337 0.21590
 O1781 O 0.28648 0.24834 0.28008
 O1782 O 0.27424 0.21877 0.28016
 O1783 O 0.23735 0.24056 0.19861
 O1784 O 0.24528 0.27074 0.19874
 O1785 O 0.19913 0.23870 0.23869
 O1786 O 0.20009 0.24803 0.26928
 O1787 O 0.23891 0.20068 0.23608
 O1788 O 0.26866 0.20216 0.24818
 Zr1789 Zr 0.25557 0.22220 0.23487
 O1790 O 0.27215 0.23757 0.25006
 Zr1791 Zr 0.22072 0.23702 0.25509
 O1792 O 0.23597 0.25243 0.27158
 Zr1793 Zr 0.23538 0.25708 0.22021
 O1794 O 0.25087 0.27376 0.23518
 Zr1795 Zr 0.26072 0.24182 0.27426
 O1796 O 0.24465 0.22508 0.25966
 Zr1797 Zr 0.27499 0.26222 0.23938
 O1798 O 0.26011 0.24622 0.22285
 Zr1799 Zr 0.24028 0.27658 0.26003
 O1800 O 0.22344 0.26176 0.24420
 O1801 O 0.23126 0.23284 0.23083
 O1802 O 0.26477 0.26636 0.26394
 C1803 C 0.24397 0.22547 0.19652
 C1804 C 0.22414 0.19850 0.24337
 C1805 C 0.19697 0.24542 0.22370
 C1806 C 0.25347 0.27311 0.29817
 C1807 C 0.29849 0.25574 0.27129
 C1808 C 0.27197 0.30031 0.25217
 H1809 H 0.28347 0.23178 0.25114
 H1810 H 0.25194 0.28496 0.22918
 H1811 H 0.22382 0.22544 0.22347
 H1812 H 0.23015 0.25346 0.28291
 H1813 H 0.24518 0.21868 0.29260
 H1814 H 0.21757 0.22606 0.28633
 H1815 H 0.27623 0.28354 0.21352
 H1816 H 0.25686 0.26594 0.19630
 H1817 H 0.27983 0.22031 0.29157
 H1818 H 0.26692 0.19106 0.24199
 H1819 H 0.23062 0.30146 0.23997
 H1820 H 0.21554 0.28371 0.22061
 H1821 H 0.27641 0.20239 0.21696
 H1822 H 0.29395 0.24243 0.22061
 H1823 H 0.19699 0.25894 0.26344
 H1824 H 0.21476 0.27796 0.28181
 O1825 O 0.78635 0.71281 0.24757
 O1826 O 0.78896 0.72643 0.22025
 O1827 O 0.79165 0.75477 0.28345
 O1828 O 0.77845 0.77963 0.28954
 O1829 O 0.74979 0.71776 0.28894
 O1830 O 0.72290 0.71396 0.27472
 O1831 O 0.74445 0.79984 0.23970
 O1832 O 0.77247 0.80060 0.24963
 O1833 O 0.74183 0.76026 0.20237
 O1834 O 0.75057 0.73191 0.20082
 O1835 O 0.70461 0.76218 0.24187
 O1836 O 0.70375 0.75442 0.27199
 O1837 O 0.72054 0.78933 0.25321
 O1838 O 0.71679 0.77445 0.28186
 O1839 O 0.71478 0.74865 0.21788
 O1840 O 0.72981 0.71993 0.21458
 O1841 O 0.75492 0.78440 0.21289
 O1842 O 0.78413 0.78477 0.22565
 O1843 O 0.76222 0.70223 0.26066
 O1844 O 0.73217 0.70209 0.25232
 O1845 O 0.76340 0.74157 0.29954
 O1846 O 0.75382 0.77212 0.29912
 O1847 O 0.80192 0.74033 0.25998
 O1848 O 0.80073 0.75273 0.23043
 Zr1849 Zr 0.78059 0.73901 0.24320
 O1850 O 0.76535 0.75433 0.22684
 Zr1851 Zr 0.76523 0.75845 0.27833
 O1852 O 0.74995 0.77505 0.26329
 Zr1853 Zr 0.74554 0.72357 0.26279
 O1854 O 0.72898 0.73862 0.24752
 Zr1855 Zr 0.76084 0.77832 0.23868
 O1856 O 0.77743 0.76360 0.25457
 Zr1857 Zr 0.74079 0.74341 0.22358
 O1858 O 0.75670 0.72679 0.23821
 Zr1859 Zr 0.72594 0.76324 0.25862
 O1860 O 0.74060 0.74727 0.27522
 O1861 O 0.76966 0.73443 0.26733
 O1862 O 0.73642 0.76774 0.23426
 C1863 C 0.77745 0.70043 0.25425
 C1864 C 0.80387 0.74744 0.27489
 C1865 C 0.75674 0.72644 0.30130
 C1866 C 0.72918 0.80159 0.24600
 C1867 C 0.74786 0.77566 0.20063
 C1868 C 0.70266 0.75591 0.22661
 H1869 H 0.77132 0.75566 0.21560
 H1870 H 0.71781 0.73253 0.24625
 H1871 H 0.77703 0.72707 0.27468
 H1872 H 0.74878 0.78627 0.26930
 H1873 H 0.78347 0.79680 0.25486
 H1874 H 0.77600 0.78978 0.28225
 H1875 H 0.71943 0.71744 0.22163
 H1876 H 0.73718 0.69993 0.24075
 H1877 H 0.78265 0.79627 0.22026
 H1878 H 0.81182 0.74660 0.23209
 H1879 H 0.70098 0.74272 0.26760
 H1880 H 0.71865 0.72327 0.28242
 H1881 H 0.80064 0.72158 0.22217
 H1882 H 0.76090 0.72533 0.20431
 H1883 H 0.74297 0.76599 0.30208
 H1884 H 0.72413 0.78461 0.28450
 O1885 O 0.71816 0.28956 0.74775
 O1886 O 0.71552 0.27621 0.72030
 O1887 O 0.71177 0.24734 0.78298
 O1888 O 0.72448 0.22208 0.78850
 O1889 O 0.75396 0.28359 0.78957
 O1890 O 0.78113 0.28715 0.77570
 O1891 O 0.75875 0.20206 0.73874
 O1892 O 0.73066 0.20163 0.74834
 O1893 O 0.76255 0.24206 0.70218
 O1894 O 0.75404 0.27056 0.70113
 O1895 O 0.79926 0.23934 0.74190
 O1896 O 0.79987 0.24642 0.77212
 O1897 O 0.78272 0.21202 0.75256
 O1898 O 0.78640 0.22654 0.78152
 O1899 O 0.78952 0.25335 0.71815
 O1900 O 0.77485 0.28210 0.71521
 O1901 O 0.74898 0.21799 0.71213
 O1902 O 0.71959 0.21791 0.72454
 O1903 O 0.74221 0.29968 0.76132
 O1904 O 0.77239 0.29948 0.75349
 O1905 O 0.73996 0.25977 0.79952
 O1906 O 0.74911 0.22916 0.79858
 O1907 O 0.70203 0.26225 0.75971
 O1908 O 0.70336 0.24998 0.72997
 Zr1909 Zr 0.72353 0.26333 0.74309
 O1910 O 0.73875 0.24803 0.72653
 Zr1911 Zr 0.73818 0.24324 0.77794
 O1912 O 0.75343 0.22666 0.76270
 Zr1913 Zr 0.75853 0.27806 0.76332
 O1914 O 0.77506 0.26298 0.74786
 Zr1915 Zr 0.74278 0.22386 0.73794
 O1916 O 0.72619 0.23857 0.75400
 Zr1917 Zr 0.76349 0.25867 0.72371
 O1918 O 0.74765 0.27530 0.73858
 Zr1919 Zr 0.77767 0.23816 0.75843
 O1920 O 0.76301 0.25410 0.77526
 O1921 O 0.73422 0.26747 0.76740
 O1922 O 0.76742 0.23412 0.73391
 C1923 C 0.72713 0.30175 0.75470
 C1924 C 0.69978 0.25503 0.77448
 C1925 C 0.74675 0.27481 0.80168
 C1926 C 0.77390 0.19997 0.74514
 C1927 C 0.75633 0.22676 0.70011
 C1928 C 0.80148 0.24591 0.72683
 H1929 H 0.73291 0.24693 0.71522
 H1930 H 0.78631 0.26896 0.74682
 H1931 H 0.72688 0.27488 0.77481
 H1932 H 0.75438 0.21534 0.76850
 H1933 H 0.71964 0.20553 0.75354
 H1934 H 0.72708 0.21196 0.78114
 H1935 H 0.78505 0.28450 0.72253
 H1936 H 0.76763 0.30185 0.74188
 H1937 H 0.72098 0.20644 0.71895
 H1938 H 0.69232 0.25620 0.73170
 H1939 H 0.80265 0.25827 0.76825
 H1940 H 0.78508 0.27771 0.78331
 H1941 H 0.70387 0.28117 0.72222
 H1942 H 0.74383 0.27733 0.70472
 H1943 H 0.76005 0.23504 0.80169
 H1944 H 0.77888 0.21646 0.78392
 C1945 C 0.06419 1.00541 1.15586
 C1946 C 0.06437 0.98965 1.16465
 C1947 C 0.07250 0.98839 1.18069
 C1948 C 0.08059 1.00291 1.18815
 C1949 C 0.08002 1.01880 1.17939
 C1950 C 0.07189 1.02002 1.16333
 C1951 C 0.05667 1.00637 1.13892
 C1952 C 0.05059 1.00688 1.12462
 C1953 C 0.04349 1.00715 1.10746
 C1954 C 0.05270 0.99979 1.09375
 C1955 C 0.04567 0.99955 1.07714
 C1956 C 0.02927 1.00668 1.07402
 C1957 C 0.02018 1.01421 1.08789
 C1958 C 0.02726 1.01442 1.10449
 H1959 H 0.05843 0.97827 1.15900
 H1960 H 0.07254 0.97605 1.18722
 H1961 H 0.08632 1.03015 1.18469
 H1962 H 0.07188 1.03227 1.15660
 H1963 H 0.06528 0.99411 1.09591
 H1964 H 0.05303 0.99366 1.06679
 H1965 H 0.00754 1.01982 1.08598
 H1966 H 0.02001 1.02014 1.11503
 C1967 C 0.56350 0.50539 0.65468
 C1968 C 0.56419 0.48963 0.66345
 C1969 C 0.57241 0.48861 0.67946
 C1970 C 0.58008 0.50335 0.68692
 C1971 C 0.57900 0.51922 0.67818
 C1972 C 0.57079 0.52021 0.66214
 C1973 C 0.55586 0.50614 0.63778
 C1974 C 0.54967 0.50648 0.62352
 C1975 C 0.54243 0.50654 0.60642
 C1976 C 0.55118 0.49840 0.59284
 C1977 C 0.54399 0.49800 0.57630
 C1978 C 0.52789 0.50575 0.57310
 C1979 C 0.51928 0.51406 0.58683
 C1980 C 0.52650 0.51443 0.60337
 H1981 H 0.55857 0.47808 0.65781
 H1982 H 0.57284 0.47626 0.68598
 H1983 H 0.58497 0.53075 0.68348
 H1984 H 0.57038 0.53246 0.65543
 H1985 H 0.56352 0.49223 0.59507
 H1986 H 0.55100 0.49150 0.56607
 H1987 H 0.50688 0.52017 0.58486
 H1988 H 0.51961 0.52076 0.61379
 C1989 C 0.43357 -0.00276 0.64727
 C1990 C 0.41985 -0.01410 0.65052
 C1991 C 0.41141 -0.01376 0.66648
 C1992 C 0.41658 -0.00201 0.67941
 C1993 C 0.43060 0.00913 0.67614
 C1994 C 0.43902 0.00878 0.66014
 C1995 C 0.44169 -0.00266 0.63054
 C1996 C 0.44821 -0.00255 0.61640
 C1997 C 0.45577 -0.00237 0.59941
 C1998 C 0.44679 0.00503 0.58564
 C1999 C 0.45410 0.00526 0.56912
 C2000 C 0.47052 -0.00192 0.56615
 C2001 C 0.47940 -0.00940 0.58010
 C2002 C 0.47206 -0.00961 0.59660
 H2003 H 0.41556 -0.02311 0.64067
 H2004 H 0.40083 -0.02267 0.66870
 H2005 H 0.43475 0.01843 0.68577
 H2006 H 0.44960 0.01765 0.65773
 H2007 H 0.43415 0.01064 0.58768
 H2008 H 0.44689 0.01112 0.55872
 H2009 H 0.49206 -0.01505 0.57830
 H2010 H 0.47911 -0.01539 0.60717
 C2011 C -0.06800 0.49645 1.14474
 C2012 C -0.08289 0.50641 1.14685
 C2013 C -0.09130 0.50695 1.16280
 C2014 C -0.08493 0.49751 1.17690
 C2015 C -0.06980 0.48772 1.17474
 C2016 C -0.06141 0.48717 1.15872
 C2017 C -0.05971 0.49572 1.12811
 C2018 C -0.05314 0.49537 1.11400
 C2019 C -0.04565 0.49532 1.09699
 C2020 C -0.05485 0.50228 1.08315
 C2021 C -0.04748 0.50277 1.06667
 C2022 C -0.03074 0.49629 1.06381
 C2023 C -0.02168 0.48910 1.07780
 C2024 C -0.02910 0.48864 1.09428
 H2025 H -0.08806 0.51370 1.13613
 H2026 H -0.10276 0.51483 1.16413
 H2027 H -0.06469 0.48019 1.18531
 H2028 H -0.04988 0.47941 1.15721
 H2029 H -0.06768 0.50748 1.08512
 H2030 H -0.05484 0.50836 1.05623
 H2031 H -0.00879 0.48399 1.07609
 H2032 H -0.02187 0.48322 1.10491
 C2033 C -0.06930 0.50117 0.34538
 C2034 C -0.07392 0.48528 0.33811
 C2035 C -0.08166 0.48457 0.32185
 C2036 C -0.08506 0.49982 0.31241
 C2037 C -0.07989 0.51576 0.31988
 C2038 C -0.07217 0.51637 0.33619
 C2039 C -0.06199 0.50181 0.36245
 C2040 C -0.05604 0.50212 0.37682
 C2041 C -0.04905 0.50225 0.39403
 C2042 C -0.05819 0.49442 0.40752
 C2043 C -0.05129 0.49421 0.42419
 C2044 C -0.03510 0.50183 0.42759
 C2045 C -0.02608 0.50979 0.41393
 C2046 C -0.03302 0.50998 0.39727
 H2047 H -0.07157 0.47339 0.34506
 H2048 H -0.08449 0.47190 0.31663
 H2049 H -0.08253 0.52796 0.31370
 H2050 H -0.06871 0.52878 0.34175
 H2051 H -0.07062 0.48839 0.40514
 H2052 H -0.05860 0.48798 0.43436
 H2053 H -0.01360 0.51580 0.41605
 H2054 H -0.02583 0.51608 0.38692
 C2055 C 0.43199 1.00742 -0.15250
 C2056 C 0.43164 0.99180 -0.16165
 C2057 C 0.42392 0.99094 -0.17792
 C2058 C 0.41643 1.00571 -0.18529
 C2059 C 0.41718 1.02145 -0.17616
 C2060 C 0.42489 1.02228 -0.15985
 C2061 C 0.43916 1.00796 -0.13538
 C2062 C 0.44502 1.00799 -0.12097
 C2063 C 0.45195 1.00756 -0.10374
 C2064 C 0.46827 1.01457 -0.10032
 C2065 C 0.47531 1.01345 -0.08375
 C2066 C 0.46611 1.00524 -0.07036
 C2067 C 0.44958 0.99846 -0.07390
 C2068 C 0.44258 0.99961 -0.09048
 H2069 H 0.43714 0.98023 -0.15611
 H2070 H 0.42375 0.97869 -0.18473
 H2071 H 0.41134 1.03299 -0.18139
 H2072 H 0.42505 1.03443 -0.15285
 H2073 H 0.47564 1.02073 -0.11051
 H2074 H 0.48804 1.01884 -0.08151
 H2075 H 0.44212 0.99209 -0.06392
 H2076 H 0.42994 0.99411 -0.09300
 C2077 C 0.57036 0.49404 -0.14489
 C2078 C 0.58531 0.50401 -0.14709
 C2079 C 0.59312 0.50515 -0.16331
 C2080 C 0.58609 0.49632 -0.17759
 C2081 C 0.57093 0.48649 -0.17531
 C2082 C 0.56313 0.48535 -0.15904
 C2083 C 0.56261 0.49274 -0.12805
 C2084 C 0.55641 0.49191 -0.11379
 C2085 C 0.54925 0.49128 -0.09665
 C2086 C 0.55846 0.49843 -0.08281
 C2087 C 0.55132 0.49845 -0.06623
 C2088 C 0.53483 0.49132 -0.06325
 C2089 C 0.52580 0.48390 -0.07722
 C2090 C 0.53297 0.48391 -0.09381
 H2091 H 0.59096 0.51085 -0.13625
 H2092 H 0.60463 0.51303 -0.16471
 H2093 H 0.56532 0.47941 -0.18602
 H2094 H 0.55156 0.47759 -0.15746
 H2095 H 0.57108 0.50416 -0.08488
 H2096 H 0.55866 0.50424 -0.05580
 H2097 H 0.51309 0.47830 -0.07542
 H2098 H 0.52574 0.47834 -0.10444
 C2099 C 0.07061 -0.00633 0.35631
 C2100 C 0.08574 0.00333 0.35411
 C2101 C 0.09357 0.00434 0.33789
 C2102 C 0.08635 -0.00433 0.32361
 C2103 C 0.07100 -0.01385 0.32588
 C2104 C 0.06319 -0.01486 0.34216
 C2105 C 0.06285 -0.00751 0.37315
 C2106 C 0.05664 -0.00825 0.38740
 C2107 C 0.04946 -0.00878 0.40453
 C2108 C 0.05862 -0.00151 0.41833
 C2109 C 0.05146 -0.00140 0.43490
 C2110 C 0.03498 -0.00857 0.43790
 C2111 C 0.02600 -0.01611 0.42396
 C2112 C 0.03320 -0.01618 0.40739
 H2113 H 0.09154 0.01005 0.36496
 H2114 H 0.10523 0.01199 0.33649
 H2115 H 0.06524 -0.02081 0.31517
 H2116 H 0.05147 -0.02239 0.34373
 H2117 H 0.07123 0.00425 0.41625
 H2118 H 0.05876 0.00448 0.44531
 H2119 H 0.01330 -0.02175 0.42578
 H2120 H 0.02601 -0.02185 0.39678
 C2121 C 0.14809 1.06761 1.00325
 C2122 C 0.15000 1.08249 0.99322
 C2123 C 0.16610 1.09054 0.99180
 C2124 C 0.18055 1.08382 1.00044
 C2125 C 0.17860 1.06866 1.01024
 C2126 C 0.16244 1.06063 1.01166
 C2127 C 0.13128 1.05984 1.00508
 C2128 C 0.11699 1.05374 1.00640
 C2129 C 0.09976 1.04685 1.00766
 C2130 C 0.08586 1.05631 1.00118
 C2131 C 0.06913 1.04952 1.00189
 C2132 C 0.06606 1.03312 1.00911
 C2133 C 0.08012 1.02380 1.01581
 C2134 C 0.09685 1.03064 1.01507
 H2135 H 0.13899 1.08796 0.98659
 H2136 H 0.16725 1.10204 0.98395
 H2137 H 0.18946 1.06330 1.01716
 H2138 H 0.16108 1.04912 1.01948
 H2139 H 0.08797 1.06889 0.99543
 H2140 H 0.05864 1.05706 0.99662
 H2141 H 0.07825 1.01115 1.02145
 H2142 H 0.10753 1.02322 1.02013
 C2143 C 0.64610 0.56696 0.50404
 C2144 C 0.66038 0.56013 0.51270
 C2145 C 0.67645 0.56842 0.51167
 C2146 C 0.67838 0.58366 0.50199
 C2147 C 0.66399 0.59026 0.49316
 C2148 C 0.64798 0.58196 0.49420
 C2149 C 0.62942 0.55883 0.50538
 C2150 C 0.61523 0.55243 0.50628
 C2151 C 0.59809 0.54524 0.50705
 C2152 C 0.59520 0.52910 0.51464
 C2153 C 0.57852 0.52208 0.51507
 C2154 C 0.56453 0.53112 0.50789
 C2155 C 0.56760 0.54741 0.50042
 C2156 C 0.58426 0.55439 0.50002
 H2157 H 0.65905 0.54853 0.52039
 H2158 H 0.68724 0.56313 0.51874
 H2159 H 0.66513 0.60182 0.48540
 H2160 H 0.63703 0.58731 0.48739
 H2161 H 0.60582 0.52192 0.52013
 H2162 H 0.57664 0.50952 0.52092
 H2163 H 0.55717 0.55475 0.49479
 H2164 H 0.58637 0.56690 0.49412
 C2165 C 0.65242 0.43119 -0.00449
 C2166 C 0.65991 0.42368 -0.01916
 C2167 C 0.67629 0.41617 -0.01815
 C2168 C 0.68535 0.41604 -0.00241
 C2169 C 0.67785 0.42394 0.01216
 C2170 C 0.66150 0.43145 0.01111
 C2171 C 0.63523 0.43816 -0.00521
 C2172 C 0.62078 0.44390 -0.00541
 C2173 C 0.60352 0.45074 -0.00521
 C2174 C 0.60015 0.46691 -0.01245
 C2175 C 0.58355 0.47391 -0.01153
 C2176 C 0.57007 0.46483 -0.00328
 C2177 C 0.57355 0.44844 0.00371
 C2178 C 0.59016 0.44147 0.00276
 H2179 H 0.65297 0.42337 -0.03129
 H2180 H 0.68162 0.41001 -0.02953
 H2181 H 0.68460 0.42424 0.02439
 H2182 H 0.65586 0.43727 0.02254
 H2183 H 0.61039 0.47420 -0.01863
 H2184 H 0.58136 0.48653 -0.01708
 H2185 H 0.56351 0.44107 0.01012
 H2186 H 0.59264 0.42895 0.00843
 C2187 C 0.15108 -0.07128 0.49399
 C2188 C 0.16576 -0.06197 0.48884
 C2189 C 0.18208 -0.06967 0.48950
 C2190 C 0.18389 -0.08674 0.49540
 C2191 C 0.16902 -0.09601 0.50034
 C2192 C 0.15276 -0.08832 0.49965
 C2193 C 0.13431 -0.06334 0.49390
 C2194 C 0.12012 -0.05699 0.49422
 C2195 C 0.10308 -0.04966 0.49503
 C2196 C 0.09995 -0.03327 0.48818
 C2197 C 0.08350 -0.02597 0.48949
 C2198 C 0.06995 -0.03498 0.49770
 C2199 C 0.07322 -0.05155 0.50436
 C2200 C 0.08968 -0.05881 0.50303
 H2201 H 0.16460 -0.04874 0.48447
 H2202 H 0.19330 -0.06217 0.48573
 H2203 H 0.16995 -0.10927 0.50465
 H2204 H 0.14149 -0.09565 0.50362
 H2205 H 0.11024 -0.02608 0.48197
 H2206 H 0.08146 -0.01322 0.48419
 H2207 H 0.06312 -0.05887 0.51073
 H2208 H 0.09197 -0.07151 0.50838
 C2209 C 0.35287 -0.06621 0.50008
 C2210 C 0.33869 -0.05945 0.50905
 C2211 C 0.32271 -0.06797 0.50847
 C2212 C 0.32078 -0.08338 0.49896
 C2213 C 0.33506 -0.08988 0.48978
 C2214 C 0.35098 -0.08136 0.49036
 C2215 C 0.36951 -0.05791 0.50102
 C2216 C 0.38368 -0.05141 0.50159
 C2217 C 0.40079 -0.04410 0.50200
 C2218 C 0.40361 -0.02760 0.50889
 C2219 C 0.42025 -0.02048 0.50898
 C2220 C 0.43430 -0.02980 0.50214
 C2221 C 0.43131 -0.04645 0.49536
 C2222 C 0.41467 -0.05352 0.49530
 H2223 H 0.34003 -0.04774 0.51664
 H2224 H 0.31199 -0.06274 0.51579
 H2225 H 0.33392 -0.10156 0.48213
 H2226 H 0.36185 -0.08666 0.48332
 H2227 H 0.39295 -0.02020 0.51412
 H2228 H 0.42207 -0.00764 0.51430
 H2229 H 0.44178 -0.05400 0.49000
 H2230 H 0.41263 -0.06632 0.48994
 C2231 C -0.14605 0.43141 1.00394
 C2232 C -0.16023 0.43886 1.01235
 C2233 C -0.17636 0.43064 1.01193
 C2234 C -0.17846 0.41483 1.00313
 C2235 C -0.16416 0.40759 0.99455
 C2236 C -0.14809 0.41582 0.99498
 C2237 C -0.12935 0.43960 1.00452
 C2238 C -0.11519 0.44613 1.00475
 C2239 C -0.09817 0.45366 1.00468
 C2240 C -0.09536 0.47005 1.01183
 C2241 C -0.07891 0.47756 1.01122
 C2242 C -0.06503 0.46876 1.00341
 C2243 C -0.06797 0.45215 0.99650
 C2244 C -0.08442 0.44468 0.99713
 H2245 H -0.15879 0.45093 1.01934
 H2246 H -0.18709 0.43644 1.01879
 H2247 H -0.16543 0.39558 0.98744
 H2248 H -0.13723 0.40999 0.98835
 H2249 H -0.10592 0.47710 1.01771
 H2250 H -0.07714 0.49035 1.01668
 H2251 H -0.05761 0.44499 0.99042
 H2252 H -0.08646 0.43197 0.99158
 C2253 C -0.15411 0.56477 0.49249
 C2254 C -0.16296 0.56508 0.50825
 C2255 C -0.17902 0.57316 0.50951
 C2256 C -0.18645 0.58106 0.49498
 C2257 C -0.17760 0.58040 0.47910
 C2258 C -0.16151 0.57232 0.47789
 C2259 C -0.13719 0.55722 0.49149
 C2260 C -0.12292 0.55108 0.49094
 C2261 C -0.10580 0.54392 0.49061
 C2262 C -0.09203 0.55317 0.49787
 C2263 C -0.07547 0.54607 0.49807
 C2264 C -0.07244 0.52957 0.49100
 C2265 C -0.08636 0.52045 0.48356
 C2266 C -0.10292 0.52759 0.48339
 H2267 H -0.15735 0.55925 0.51963
 H2268 H -0.18562 0.57327 0.52185
 H2269 H -0.18287 0.58655 0.46775
 H2270 H -0.15473 0.57221 0.46564
 H2271 H -0.09413 0.56583 0.50351
 H2272 H -0.06508 0.55346 0.50389
 H2273 H -0.08452 0.50773 0.47801
 H2274 H -0.11350 0.52032 0.47775
 C2275 C 0.34955 1.06780 -0.01075
 C2276 C 0.34847 1.08480 -0.00466
 C2277 C 0.33243 1.09286 -0.00322
 C2278 C 0.31720 1.08402 -0.00783
 C2279 C 0.31841 1.06699 -0.01415
 C2280 C 0.33450 1.05892 -0.01556
 C2281 C 0.36612 1.05949 -0.01161
 C2282 C 0.38018 1.05287 -0.01190
 C2283 C 0.39712 1.04529 -0.01173
 C2284 C 0.41091 1.05436 -0.00429
 C2285 C 0.42727 1.04686 -0.00344
 C2286 C 0.43008 1.03012 -0.01002
 C2287 C 0.41616 1.02120 -0.01771
 C2288 C 0.39980 1.02874 -0.01853
 H2289 H 0.36003 1.09180 -0.00095
 H2290 H 0.33197 1.10608 0.00139
 H2291 H 0.30689 1.05982 -0.01767
 H2292 H 0.33520 1.04573 -0.02023
 H2293 H 0.40897 1.06718 0.00102
 H2294 H 0.43766 1.05413 0.00253
 H2295 H 0.41784 1.00831 -0.02291
 H2296 H 0.38920 1.02160 -0.02430
 C2297 C 0.00152 1.15229 1.07214
 C2298 C 0.00711 1.16684 1.06296
 C2299 C 0.00607 1.18329 1.07046
 C2300 C -0.00064 1.18537 1.08724
 C2301 C -0.00611 1.17063 1.09638
 C2302 C -0.00505 1.15424 1.08887
 C2303 C 0.00228 1.13534 1.06446
 C2304 C 0.00264 1.12102 1.05830
 C2305 C 0.00277 1.10381 1.05117
 C2306 C -0.00509 1.09025 1.06019
 C2307 C -0.00534 1.07358 1.05317
 C2308 C 0.00229 1.07024 1.03698
 C2309 C 0.01029 1.08397 1.02809
 C2310 C 0.01051 1.10063 1.03515
 H2311 H 0.01218 1.16547 1.04998
 H2312 H 0.01026 1.19439 1.06306
 H2313 H -0.01105 1.17175 1.10942
 H2314 H -0.00936 1.14307 1.09612
 H2315 H -0.01113 1.09258 1.07261
 H2316 H -0.01160 1.06336 1.06038
 H2317 H 0.01630 1.08190 1.01562
 H2318 H 0.01663 1.11104 1.02806
 C2319 C 0.50398 0.65166 0.56892
 C2320 C 0.51902 0.65875 0.57610
 C2321 C 0.51867 0.67520 0.58363
 C2322 C 0.50323 0.68474 0.58412
 C2323 C 0.48828 0.67762 0.57657
 C2324 C 0.48867 0.66120 0.56904
 C2325 C 0.50408 0.63444 0.56187
 C2326 C 0.50391 0.61995 0.55609
 C2327 C 0.50346 0.60265 0.54925
 C2328 C 0.49590 0.58931 0.55883
 C2329 C 0.49509 0.57255 0.55205
 C2330 C 0.50182 0.56893 0.53553
 C2331 C 0.50951 0.58244 0.52606
 C2332 C 0.51030 0.59917 0.53288
 H2333 H 0.53093 0.65146 0.57611
 H2334 H 0.53033 0.68023 0.58952
 H2335 H 0.47627 0.68474 0.57655
 H2336 H 0.47697 0.65585 0.56347
 H2337 H 0.49055 0.59187 0.57152
 H2338 H 0.48910 0.56249 0.55971
 H2339 H 0.51484 0.58014 0.51332
 H2340 H 0.51617 0.60941 0.52534
 C2341 C -0.00193 0.64740 0.42936
 C2342 C 0.00765 0.64939 0.41416
 C2343 C 0.00893 0.66557 0.40632
 C2344 C 0.00063 0.68002 0.41358
 C2345 C -0.00878 0.67796 0.42901
 C2346 C -0.01006 0.66173 0.43683
 C2347 C -0.00352 0.63059 0.43707
 C2348 C -0.00470 0.61634 0.44323
 C2349 C -0.00584 0.59921 0.45030
 C2350 C 0.00081 0.58519 0.44102
 C2351 C 0.00014 0.56857 0.44798
 C2352 C -0.00721 0.56573 0.46438
 C2353 C -0.01405 0.57991 0.47352
 C2354 C -0.01335 0.59653 0.46652
 H2355 H 0.01405 0.63840 0.40831
 H2356 H 0.01647 0.66679 0.39460
 H2357 H -0.01546 0.68880 0.43480
 H2358 H -0.01753 0.66032 0.44859
 H2359 H 0.00664 0.58713 0.42844
 H2360 H 0.00552 0.55798 0.44057
 H2361 H -0.01979 0.57822 0.48617
 H2362 H -0.01855 0.60730 0.47381
 C2363 C 0.49541 1.14642 -0.07047
 C2364 C 0.50482 1.14850 -0.08576
 C2365 C 0.50583 1.16468 -0.09362
 C2366 C 0.49742 1.17903 -0.08630
 C2367 C 0.48815 1.17687 -0.07080
 C2368 C 0.48714 1.16064 -0.06295
 C2369 C 0.49424 1.12962 -0.06264
 C2370 C 0.49350 1.11540 -0.05639
 C2371 C 0.49295 1.09830 -0.04919
 C2372 C 0.50014 1.08446 -0.05834
 C2373 C 0.50016 1.06791 -0.05121
 C2374 C 0.49297 1.06495 -0.03476
 C2375 C 0.48554 1.07893 -0.02576
 C2376 C 0.48555 1.09549 -0.03294
 H2377 H 0.51134 1.13759 -0.09163
 H2378 H 0.51328 1.16598 -0.10539
 H2379 H 0.48140 1.18764 -0.06496
 H2380 H 0.47981 1.15916 -0.05111
 H2381 H 0.50589 1.08650 -0.07094
 H2382 H 0.50596 1.05747 -0.05851
 H2383 H 0.47989 1.07715 -0.01309
 H2384 H 0.47994 1.10611 -0.02575
 C2385 C 0.50901 0.34695 -0.06394
 C2386 C 0.49320 0.33815 -0.06410
 C2387 C 0.49178 0.32208 -0.07226
 C2388 C 0.50620 0.31459 -0.08042
 C2389 C 0.52215 0.32337 -0.07987
 C2390 C 0.52352 0.33947 -0.07170
 C2391 C 0.51010 0.36393 -0.05637
 C2392 C 0.51060 0.37824 -0.05020
 C2393 C 0.51073 0.39539 -0.04295
 C2394 C 0.51779 0.39838 -0.02659
 C2395 C 0.51717 0.41490 -0.01925
 C2396 C 0.50943 0.42867 -0.02818
 C2397 C 0.50261 0.42555 -0.04476
 C2398 C 0.50326 0.40902 -0.05206
 H2399 H 0.48189 0.34381 -0.05810
 H2400 H 0.47939 0.31554 -0.07228
 H2401 H 0.53342 0.31805 -0.08621
 H2402 H 0.53582 0.34621 -0.07171
 H2403 H 0.52359 0.38791 -0.01942
 H2404 H 0.52257 0.41682 -0.00649
 H2405 H 0.49658 0.43582 -0.05202
 H2406 H 0.49773 0.40684 -0.06473
 C2407 C 0.01055 -0.15251 0.43675
 C2408 C -0.00508 -0.16164 0.43665
 C2409 C -0.00626 -0.17761 0.42826
 C2410 C 0.00821 -0.18468 0.41982
 C2411 C 0.02398 -0.17558 0.42033
 C2412 C 0.02512 -0.15958 0.42871
 C2413 C 0.01136 -0.13561 0.44453
 C2414 C 0.01163 -0.12134 0.45084
 C2415 C 0.01147 -0.10424 0.45820
 C2416 C 0.01830 -0.10126 0.47466
 C2417 C 0.01746 -0.08477 0.48206
 C2418 C 0.00972 -0.07103 0.47308
 C2419 C 0.00311 -0.07414 0.45643
 C2420 C 0.00397 -0.09064 0.44907
 H2421 H -0.01644 -0.15630 0.44285
 H2422 H -0.01851 -0.18440 0.42829
 H2423 H 0.03529 -0.18058 0.41378
 H2424 H 0.03727 -0.15258 0.42866
 H2425 H 0.02412 -0.11171 0.48185
 H2426 H 0.02271 -0.08285 0.49488
 H2427 H -0.00291 -0.06390 0.44913
 H2428 H -0.00138 -0.09281 0.43633
 C2429 C 0.50039 -0.14734 0.56659
 C2430 C 0.49145 -0.16159 0.55982
 C2431 C 0.49206 -0.17754 0.56826
 C2432 C 0.50157 -0.17937 0.58361
 C2433 C 0.51071 -0.16502 0.59013
 C2434 C 0.51011 -0.14913 0.58168
 C2435 C 0.49944 -0.13075 0.55834
 C2436 C 0.49883 -0.11664 0.55184
 C2437 C 0.49840 -0.09961 0.54448
 C2438 C 0.49066 -0.09686 0.52842
 C2439 C 0.49055 -0.08032 0.52121
 C2440 C 0.49821 -0.06628 0.52999
 C2441 C 0.50581 -0.06919 0.54622
 C2442 C 0.50589 -0.08573 0.55339
 H2443 H 0.48387 -0.16033 0.54815
 H2444 H 0.48476 -0.18831 0.56303
 H2445 H 0.51836 -0.16609 0.60177
 H2446 H 0.51713 -0.13820 0.58699
 H2447 H 0.48480 -0.10752 0.52142
 H2448 H 0.48458 -0.07857 0.50870
 H2449 H 0.51181 -0.05873 0.55336
 H2450 H 0.51190 -0.08772 0.56585
 C2451 C -0.00379 0.35423 1.06728
 C2452 C -0.00870 0.33907 1.05872
 C2453 C -0.00840 0.32321 1.06735
 C2454 C -0.00325 0.32219 1.08486
 C2455 C 0.00188 0.33773 1.09314
 C2456 C 0.00157 0.35349 1.08444
 C2457 C -0.00423 0.37064 1.05861
 C2458 C -0.00440 0.38463 1.05180
 C2459 C -0.00434 0.40153 1.04412
 C2460 C -0.01119 0.40403 1.02762
 C2461 C -0.01079 0.42044 1.02011
 C2462 C -0.00349 0.43459 1.02903
 C2463 C 0.00320 0.43193 1.04570
 C2464 C 0.00277 0.41552 1.05316
 H2465 H -0.01296 0.33952 1.04541
 H2466 H -0.01297 0.31199 1.06036
 H2467 H 0.00677 0.33787 1.10620
 H2468 H 0.00562 0.36514 1.09114
 H2469 H -0.01675 0.39329 1.02051
 H2470 H -0.01606 0.42200 1.00727
 H2471 H 0.00889 0.44249 1.05296
 H2472 H 0.00809 0.41373 1.06596
 C2473 C 0.75379 0.31975 0.10307
 C2474 C 0.75043 0.33737 0.10195
 C2475 C 0.75024 0.34557 0.08592
 C2476 C 0.75349 0.33633 0.07035
 C2477 C 0.75667 0.31832 0.07191
 C2478 C 0.75685 0.31023 0.08805
 C2479 C 0.75396 0.31155 0.11972
 C2480 C 0.75396 0.30506 0.13385
 C2481 C 0.75374 0.29762 0.15085
 C2482 C 0.74580 0.30644 0.16449
 C2483 C 0.74524 0.29913 0.18096
 C2484 C 0.75263 0.28283 0.18402
 C2485 C 0.76077 0.27416 0.17022
 C2486 C 0.76131 0.28151 0.15376
 H2487 H 0.74777 0.34484 0.11351
 H2488 H 0.74665 0.35903 0.08607
 H2489 H 0.75995 0.31033 0.06095
 H2490 H 0.75957 0.29653 0.08880
 H2491 H 0.73993 0.31894 0.16238
 H2492 H 0.73889 0.30619 0.19125
 H2493 H 0.76661 0.26161 0.17208
 H2494 H 0.76752 0.27458 0.14329
 C2495 C 0.25462 0.81800 0.59870
 C2496 C 0.24554 0.83342 0.59654
 C2497 C 0.24534 0.84156 0.58048
 C2498 C 0.25425 0.83440 0.56633
 C2499 C 0.26313 0.81873 0.56854
 C2500 C 0.26333 0.81060 0.58466
 C2501 C 0.25510 0.81001 0.61545
 C2502 C 0.25535 0.80370 0.62965
 C2503 C 0.25544 0.79646 0.64674
 C2504 C 0.24747 0.80531 0.66036
 C2505 C 0.24733 0.79826 0.67695
 C2506 C 0.25517 0.78221 0.68016
 C2507 C 0.26326 0.77347 0.66637
 C2508 C 0.26338 0.78057 0.64979
 H2509 H 0.23869 0.83922 0.60730
 H2510 H 0.23816 0.85345 0.57912
 H2511 H 0.27022 0.81299 0.55793
 H2512 H 0.27041 0.79866 0.58621
 H2513 H 0.24130 0.81765 0.65814
 H2514 H 0.24099 0.80535 0.68723
 H2515 H 0.26943 0.76110 0.66834
 H2516 H 0.26960 0.77361 0.63934
 C2517 C 0.74432 0.68227 0.59951
 C2518 C 0.75582 0.68762 0.58660
 C2519 C 0.75596 0.67924 0.57056
 C2520 C 0.74464 0.66535 0.56729
 C2521 C 0.73293 0.66029 0.58026
 C2522 C 0.73279 0.66869 0.59625
 C2523 C 0.74468 0.69027 0.61630
 C2524 C 0.74501 0.69663 0.63052
 C2525 C 0.74548 0.70393 0.64762
 C2526 C 0.73877 0.72040 0.65074
 C2527 C 0.73928 0.72747 0.66737
 C2528 C 0.74653 0.71812 0.68113
 C2529 C 0.75319 0.70153 0.67784
 C2530 C 0.75265 0.69450 0.66120
 H2531 H 0.76483 0.69809 0.58902
 H2532 H 0.76523 0.68331 0.56090
 H2533 H 0.72388 0.64981 0.57804
 H2534 H 0.72381 0.66446 0.60614
 H2535 H 0.73316 0.72780 0.64031
 H2536 H 0.73404 0.74027 0.66942
 H2537 H 0.75886 0.69396 0.68809
 H2538 H 0.75787 0.68172 0.65892
 C2539 C 0.24543 0.18094 0.09782
 C2540 C 0.24207 0.18997 0.08264
 C2541 C 0.24286 0.18154 0.06664
 C2542 C 0.24697 0.16369 0.06539
 C2543 C 0.25052 0.15498 0.08112
 C2544 C 0.24972 0.16350 0.09700
 C2545 C 0.24457 0.18943 0.11435
 C2546 C 0.24403 0.19603 0.12845
 C2547 C 0.24366 0.20339 0.14552
 C2548 C 0.23665 0.21979 0.14835
 C2549 C 0.23657 0.22694 0.16497
 C2550 C 0.24353 0.21774 0.17898
 C2551 C 0.25042 0.20119 0.17598
 C2552 C 0.25047 0.19409 0.15937
 H2553 H 0.23863 0.20352 0.08316
 H2554 H 0.23930 0.18911 0.05553
 H2555 H 0.25480 0.14173 0.08149
 H2556 H 0.25262 0.15644 0.10870
 H2557 H 0.23133 0.22709 0.13771
 H2558 H 0.23118 0.23970 0.16679
 H2559 H 0.25587 0.19373 0.18643
 H2560 H 0.25591 0.18137 0.15732
 C2561 C 0.25551 0.18221 0.89796
 C2562 C 0.26049 0.19084 0.91308
 C2563 C 0.25934 0.18246 0.92904
 C2564 C 0.25312 0.16538 0.93002
 C2565 C 0.24830 0.15681 0.91471
 C2566 C 0.24947 0.16518 0.89881
 C2567 C 0.25627 0.19077 0.88151
 C2568 C 0.25656 0.19755 0.86753
 C2569 C 0.25650 0.20521 0.85064
 C2570 C 0.26389 0.22151 0.84795
 C2571 C 0.26351 0.22900 0.83154
 C2572 C 0.25568 0.22025 0.81759
 C2573 C 0.24838 0.20382 0.82045
 C2574 C 0.24880 0.19638 0.83685
 H2575 H 0.26514 0.20404 0.91256
 H2576 H 0.26302 0.18942 0.94062
 H2577 H 0.24375 0.14356 0.91499
 H2578 H 0.24564 0.15837 0.88717
 H2579 H 0.26988 0.22846 0.85855
 H2580 H 0.26925 0.24165 0.82982
 H2581 H 0.24228 0.19670 0.81004
 H2582 H 0.24303 0.18375 0.83880
 C2583 C 0.75526 0.68074 0.39920
 C2584 C 0.74863 0.66394 0.40019
 C2585 C 0.74712 0.65576 0.41617
 C2586 C 0.75221 0.66429 0.43142
 C2587 C 0.75899 0.68115 0.43030
 C2588 C 0.76048 0.68933 0.41427
 C2589 C 0.75642 0.68912 0.38268
 C2590 C 0.75705 0.69579 0.36865
 C2591 C 0.75741 0.70340 0.35173
 C2592 C 0.75042 0.69434 0.33771
 C2593 C 0.75033 0.70176 0.32129
 C2594 C 0.75724 0.71840 0.31866
 C2595 C 0.76438 0.72735 0.33284
 C2596 C 0.76445 0.71988 0.34926
 H2597 H 0.74460 0.65716 0.38861
 H2598 H 0.74214 0.64268 0.41656
 H2599 H 0.76288 0.68809 0.44182
 H2600 H 0.76558 0.70237 0.41364
 H2601 H 0.74493 0.68157 0.33949
 H2602 H 0.74474 0.69449 0.31070
 H2603 H 0.76981 0.74017 0.33129
 H2604 H 0.76988 0.72701 0.36004
 C2605 C 0.24512 0.81991 0.39629
 C2606 C 0.25113 0.83692 0.39780
 C2607 C 0.25259 0.84466 0.41405
 C2608 C 0.24809 0.83549 0.42907
 C2609 C 0.24188 0.81844 0.42743
 C2610 C 0.24045 0.81070 0.41112
 C2611 C 0.24417 0.81194 0.37949
 C2612 C 0.24375 0.80555 0.36527
 C2613 C 0.24370 0.79817 0.34818
 C2614 C 0.25109 0.80731 0.33446
 C2615 C 0.25169 0.79997 0.31795
 C2616 C 0.24491 0.78332 0.31493
 C2617 C 0.23727 0.77434 0.32880
 C2618 C 0.23669 0.78172 0.34530
 H2619 H 0.25474 0.84418 0.38641
 H2620 H 0.25710 0.85790 0.41484
 H2621 H 0.23844 0.81102 0.43875
 H2622 H 0.23583 0.79750 0.41010
 H2623 H 0.25655 0.82006 0.33655
 H2624 H 0.25764 0.80728 0.30761
 H2625 H 0.23191 0.76152 0.32697
 H2626 H 0.23095 0.77453 0.35584
 C2627 C 0.74635 0.31867 0.90082
 C2628 C 0.75265 0.33556 0.90237
 C2629 C 0.75384 0.34340 0.91859
 C2630 C 0.74876 0.33443 0.93356
 C2631 C 0.74225 0.31751 0.93188
 C2632 C 0.74109 0.30967 0.91559
 C2633 C 0.74559 0.31065 0.88403
 C2634 C 0.74530 0.30428 0.86980
 C2635 C 0.74530 0.29698 0.85268
 C2636 C 0.75283 0.30614 0.83903
 C2637 C 0.75320 0.29901 0.82243
 C2638 C 0.74604 0.28256 0.81922
 C2639 C 0.73838 0.27350 0.83304
 C2640 C 0.73804 0.28068 0.84964
 H2641 H 0.75670 0.34268 0.89102
 H2642 H 0.75860 0.35655 0.91940
 H2643 H 0.73836 0.31025 0.94317
 H2644 H 0.73622 0.29656 0.91453
 H2645 H 0.75850 0.31878 0.84125
 H2646 H 0.75918 0.30635 0.81214
 H2647 H 0.73274 0.26083 0.83107
 H2648 H 0.73219 0.27347 0.86011
 C2649 C 0.81339 0.40042 0.24069
 C2650 C 0.82675 0.40360 0.22892
 C2651 C 0.83533 0.41951 0.22901
 C2652 C 0.83068 0.43247 0.24092
 C2653 C 0.81695 0.42932 0.25242
 C2654 C 0.80839 0.41336 0.25233
 C2655 C 0.80537 0.38363 0.24125
 C2656 C 0.79902 0.36940 0.24183
 C2657 C 0.79176 0.35228 0.24266
 C2658 C 0.80118 0.33891 0.25022
 C2659 C 0.79414 0.32229 0.25123
 C2660 C 0.77752 0.31881 0.24470
 C2661 C 0.76821 0.33234 0.23700
 C2662 C 0.77529 0.34896 0.23600
 H2663 H 0.83070 0.39368 0.21984
 H2664 H 0.84567 0.42164 0.21983
 H2665 H 0.81320 0.43898 0.26184
 H2666 H 0.79810 0.41100 0.26154
 H2667 H 0.81396 0.34135 0.25539
 H2668 H 0.80169 0.31221 0.25722
 H2669 H 0.75540 0.33014 0.23182
 H2670 H 0.76790 0.35922 0.23010
 C2671 C 0.31746 0.90118 0.74610
 C2672 C 0.31030 0.91518 0.73727
 C2673 C 0.31855 0.93132 0.73761
 C2674 C 0.33410 0.93357 0.74673
 C2675 C 0.34101 0.91947 0.75578
 C2676 C 0.33275 0.90340 0.75545
 C2677 C 0.30942 0.88440 0.74541
 C2678 C 0.30310 0.87015 0.74499
 C2679 C 0.29593 0.85297 0.74470
 C2680 C 0.27974 0.84987 0.73730
 C2681 C 0.27275 0.83318 0.73725
 C2682 C 0.28189 0.81934 0.74462
 C2683 C 0.29822 0.82261 0.75192
 C2684 C 0.30517 0.83930 0.75195
 H2685 H 0.29847 0.91359 0.72998
 H2686 H 0.31300 0.94189 0.73040
 H2687 H 0.35282 0.92087 0.76315
 H2688 H 0.33837 0.89267 0.76238
 H2689 H 0.27249 0.86037 0.73164
 H2690 H 0.26015 0.83117 0.73152
 H2691 H 0.30562 0.81229 0.75770
 H2692 H 0.31773 0.84156 0.75770
 C2693 C 0.18147 0.89843 0.25524
 C2694 C 0.19063 0.91372 0.25817
 C2695 C 0.18216 0.92966 0.25776
 C2696 C 0.16414 0.93074 0.25447
 C2697 C 0.15528 0.91491 0.25136
 C2698 C 0.16384 0.89909 0.25178
 C2699 C 0.19003 0.88198 0.25561
 C2700 C 0.19672 0.86795 0.25570
 C2701 C 0.20424 0.85100 0.25549
 C2702 C 0.22062 0.84823 0.26253
 C2703 C 0.22800 0.83177 0.26190
 C2704 C 0.21907 0.81786 0.25418
 C2705 C 0.20250 0.82078 0.24734
 C2706 C 0.19517 0.83723 0.24799
 H2707 H 0.20433 0.91333 0.26097
 H2708 H 0.18989 0.94086 0.26096
 H2709 H 0.14184 0.91440 0.24770
 H2710 H 0.15666 0.88731 0.24921
 H2711 H 0.22774 0.85880 0.26838
 H2712 H 0.24076 0.83000 0.26730
 H2713 H 0.19524 0.81040 0.24133
 H2714 H 0.18246 0.83924 0.24253
 C2715 C 0.68330 0.40048 0.75341
 C2716 C 0.69026 0.41484 0.76202
 C2717 C 0.68171 0.43073 0.76154
 C2718 C 0.66605 0.43238 0.75249
 C2719 C 0.65934 0.41792 0.74368
 C2720 C 0.66790 0.40210 0.74416
 C2721 C 0.69163 0.38393 0.75428
 C2722 C 0.69813 0.36983 0.75480
 C2723 C 0.70538 0.35275 0.75513
 C2724 C 0.72177 0.34997 0.76214
 C2725 C 0.72882 0.33335 0.76217
 C2726 C 0.71953 0.31930 0.75516
 C2727 C 0.70299 0.32227 0.74827
 C2728 C 0.69600 0.33887 0.74826
 H2729 H 0.70216 0.41370 0.76925
 H2730 H 0.68710 0.44159 0.76857
 H2731 H 0.64746 0.41886 0.73639
 H2732 H 0.66244 0.39108 0.73740
 H2733 H 0.72914 0.36064 0.76750
 H2734 H 0.74157 0.33155 0.76758
 H2735 H 0.69546 0.31179 0.74278
 H2736 H 0.68328 0.34089 0.74282
 C2737 C 0.68091 0.60057 0.74494
 C2738 C 0.66416 0.59946 0.75165
 C2739 C 0.65592 0.58344 0.75297
 C2740 C 0.66433 0.56825 0.74761
 C2741 C 0.68112 0.56949 0.74072
 C2742 C 0.68937 0.58557 0.73943
 C2743 C 0.68939 0.61712 0.74406
 C2744 C 0.69614 0.63117 0.74369
 C2745 C 0.70385 0.64811 0.74368
 C2746 C 0.69520 0.66188 0.75157
 C2747 C 0.70273 0.67831 0.75199
 C2748 C 0.71907 0.68122 0.74450
 C2749 C 0.72760 0.66729 0.73647
 C2750 C 0.72003 0.65085 0.73608
 H2751 H 0.65748 0.61099 0.75592
 H2752 H 0.64289 0.58296 0.75805
 H2753 H 0.68798 0.55802 0.73662
 H2754 H 0.70236 0.58628 0.73425
 H2755 H 0.68267 0.65989 0.75751
 H2756 H 0.69577 0.68870 0.75826
 H2757 H 0.74018 0.66905 0.73057
 H2758 H 0.72684 0.64027 0.72994
 C2759 C 0.18022 0.09942 0.24493
 C2760 C 0.16359 0.09801 0.25187
 C2761 C 0.15576 0.08182 0.25351
 C2762 C 0.16447 0.06676 0.24826
 C2763 C 0.18114 0.06830 0.24114
 C2764 C 0.18898 0.08455 0.23953
 C2765 C 0.18826 0.11616 0.24369
 C2766 C 0.19463 0.13038 0.24302
 C2767 C 0.20189 0.14751 0.24264
 C2768 C 0.19297 0.16120 0.25035
 C2769 C 0.20011 0.17781 0.25045
 C2770 C 0.21633 0.18097 0.24283
 C2771 C 0.22514 0.16712 0.23495
 C2772 C 0.21796 0.15051 0.23488
 H2773 H 0.15668 0.10943 0.25605
 H2774 H 0.14279 0.08111 0.25875
 H2775 H 0.18820 0.05693 0.23710
 H2776 H 0.20189 0.08550 0.23417
 H2777 H 0.18052 0.15902 0.25640
 H2778 H 0.19295 0.18814 0.25661
 H2779 H 0.23764 0.16906 0.22896
 H2780 H 0.22498 0.13999 0.22888
 C2781 C 0.31968 0.10318 0.75264
 C2782 C 0.33657 0.10174 0.74638
 C2783 C 0.34443 0.08557 0.74526
 C2784 C 0.33549 0.07056 0.75038
 C2785 C 0.31855 0.07213 0.75680
 C2786 C 0.31069 0.08836 0.75789
 C2787 C 0.31163 0.11990 0.75344
 C2788 C 0.30518 0.13405 0.75382
 C2789 C 0.29775 0.15106 0.75398
 C2790 C 0.30682 0.16492 0.74671
 C2791 C 0.29955 0.18142 0.74651
 C2792 C 0.28304 0.18429 0.75360
 C2793 C 0.27408 0.17027 0.76100
 C2794 C 0.28139 0.15378 0.76117
 H2795 H 0.34366 0.11313 0.74234
 H2796 H 0.35759 0.08483 0.74056
 H2797 H 0.31130 0.06081 0.76071
 H2798 H 0.29758 0.08934 0.76272
 H2799 H 0.31950 0.16295 0.74110
 H2800 H 0.30683 0.19188 0.74072
 H2801 H 0.26136 0.17199 0.76658
 H2802 H 0.27425 0.14313 0.76683
 C2803 C 0.82132 0.60161 0.25337
 C2804 C 0.83829 0.60001 0.24740
 C2805 C 0.84588 0.58373 0.24600
 C2806 C 0.83657 0.56876 0.25055
 C2807 C 0.81956 0.57049 0.25673
 C2808 C 0.81197 0.58683 0.25810
 C2809 C 0.81351 0.61843 0.25432
 C2810 C 0.80721 0.63264 0.25481
 C2811 C 0.79989 0.64970 0.25507
 C2812 C 0.80916 0.66361 0.24815
 C2813 C 0.80195 0.68014 0.24800
 C2814 C 0.78531 0.68299 0.25477
 C2815 C 0.77615 0.66891 0.26184
 C2816 C 0.78340 0.65239 0.26197
 H2817 H 0.84566 0.61137 0.24375
 H2818 H 0.85909 0.58286 0.24149
 H2819 H 0.81202 0.55920 0.26020
 H2820 H 0.79880 0.58792 0.26270
 H2821 H 0.82194 0.66166 0.24277
 H2822 H 0.80938 0.69064 0.24247
 H2823 H 0.76333 0.67061 0.26717
 H2824 H 0.77610 0.64171 0.26735
 C2825 C 0.89562 0.26056 0.18231
 C2826 C 0.90826 0.24904 0.18802
 C2827 C 0.92447 0.24863 0.18000
 C2828 C 0.92819 0.25971 0.16612
 C2829 C 0.91549 0.27147 0.16070
 C2830 C 0.89933 0.27187 0.16874
 C2831 C 0.87868 0.26045 0.18999
 C2832 C 0.86440 0.26022 0.19621
 C2833 C 0.84731 0.25976 0.20354
 C2834 C 0.83378 0.25187 0.19446
 C2835 C 0.81726 0.25097 0.20175
 C2836 C 0.81406 0.25794 0.21826
 C2837 C 0.82773 0.26605 0.22717
 C2838 C 0.84423 0.26693 0.21985
 H2839 H 0.90551 0.24019 0.19849
 H2840 H 0.93390 0.23932 0.18435
 H2841 H 0.91806 0.28035 0.15021
 H2842 H 0.88966 0.28088 0.16424
 H2843 H 0.83602 0.24629 0.18181
 H2844 H 0.80707 0.24465 0.19451
 H2845 H 0.82576 0.27157 0.23989
 H2846 H 0.85461 0.27308 0.22698
 C2847 C 0.40099 0.75782 0.68179
 C2848 C 0.40464 0.76934 0.66838
 C2849 C 0.42079 0.76911 0.66032
 C2850 C 0.43353 0.75732 0.66556
 C2851 C 0.42987 0.74602 0.67929
 C2852 C 0.41368 0.74626 0.68733
 C2853 C 0.38406 0.75756 0.68946
 C2854 C 0.36976 0.75729 0.69563
 C2855 C 0.35262 0.75691 0.70282
 C2856 C 0.34950 0.76390 0.71921
 C2857 C 0.33287 0.76341 0.72624
 C2858 C 0.31910 0.75589 0.71697
 C2859 C 0.32239 0.74898 0.70044
 C2860 C 0.33904 0.74950 0.69344
 H2861 H 0.39493 0.77837 0.66402
 H2862 H 0.42331 0.77814 0.64996
 H2863 H 0.43934 0.73669 0.68349
 H2864 H 0.41096 0.73725 0.69767
 H2865 H 0.35993 0.76968 0.72657
 H2866 H 0.33084 0.76885 0.73898
 H2867 H 0.31212 0.74311 0.69294
 H2868 H 0.34132 0.74407 0.68073
 C2869 C 0.40016 0.24918 0.81808
 C2870 C 0.40213 0.25815 0.83366
 C2871 C 0.41808 0.25832 0.84206
 C2872 C 0.43229 0.24949 0.83499
 C2873 C 0.43026 0.24069 0.81918
 C2874 C 0.41426 0.24052 0.81080
 C2875 C 0.38354 0.24869 0.80982
 C2876 C 0.36943 0.24842 0.80328
 C2877 C 0.35242 0.24830 0.79584
 C2878 C 0.33855 0.25521 0.80512
 C2879 C 0.32201 0.25531 0.79794
 C2880 C 0.31910 0.24847 0.78132
 C2881 C 0.33315 0.24144 0.77213
 C2882 C 0.34969 0.24137 0.77935
 H2883 H 0.39132 0.26494 0.83938
 H2884 H 0.41931 0.26543 0.85407
 H2885 H 0.44091 0.23364 0.81351
 H2886 H 0.41285 0.23351 0.79875
 H2887 H 0.34052 0.26060 0.81791
 H2888 H 0.31152 0.26081 0.80540
 H2889 H 0.33141 0.23607 0.75932
 H2890 H 0.36035 0.23597 0.77206
 C2891 C 0.90221 0.74805 0.31994
 C2892 C 0.90317 0.75143 0.33759
 C2893 C 0.91912 0.75184 0.34594
 C2894 C 0.93480 0.74881 0.33684
 C2895 C 0.93340 0.74558 0.31880
 C2896 C 0.91734 0.74518 0.31055
 C2897 C 0.88564 0.74757 0.31158
 C2898 C 0.87156 0.74728 0.30496
 C2899 C 0.85458 0.74710 0.29744
 C2900 C 0.84076 0.75459 0.30635
 C2901 C 0.82425 0.75460 0.29909
 C2902 C 0.82132 0.74709 0.28276
 C2903 C 0.83531 0.73949 0.27395
 C2904 C 0.85182 0.73951 0.28125
 H2905 H 0.89151 0.75392 0.34495
 H2906 H 0.91885 0.75541 0.35942
 H2907 H 0.94445 0.74243 0.31089
 H2908 H 0.91672 0.74243 0.29684
 H2909 H 0.84276 0.76048 0.31891
 H2910 H 0.81382 0.76055 0.30626
 H2911 H 0.83355 0.73360 0.26137
 H2912 H 0.86243 0.73365 0.27425
 C2913 C 0.10174 0.75730 0.31516
 C2914 C 0.09259 0.74168 0.31497
 C2915 C 0.07654 0.74043 0.32317
 C2916 C 0.06942 0.75483 0.33171
 C2917 C 0.07855 0.77059 0.33152
 C2918 C 0.09463 0.77180 0.32332
 C2919 C 0.11868 0.75820 0.30753
 C2920 C 0.13297 0.75856 0.30132
 C2921 C 0.15010 0.75853 0.29407
 C2922 C 0.16373 0.75117 0.30328
 C2923 C 0.18026 0.75047 0.29604
 C2924 C 0.18340 0.75710 0.27941
 C2925 C 0.16963 0.76471 0.27035
 C2926 C 0.15311 0.76539 0.27764
 H2927 H 0.09796 0.73038 0.30867
 H2928 H 0.06973 0.72819 0.32290
 H2929 H 0.07352 0.78184 0.33815
 H2930 H 0.10164 0.78394 0.32360
 H2931 H 0.16154 0.74581 0.31601
 H2932 H 0.19053 0.74455 0.30340
 H2933 H 0.17156 0.76997 0.25755
 H2934 H 0.14264 0.77111 0.27039
 C2935 C 0.60030 0.25503 0.81726
 C2936 C 0.59324 0.26959 0.82535
 C2937 C 0.57703 0.26856 0.83329
 C2938 C 0.56770 0.25291 0.83327
 C2939 C 0.57478 0.23845 0.82483
 C2940 C 0.59097 0.23951 0.81689
 C2941 C 0.61731 0.25580 0.80980
 C2942 C 0.63165 0.25617 0.80372
 C2943 C 0.64882 0.25630 0.79658
 C2944 C 0.65200 0.26409 0.78061
 C2945 C 0.66860 0.26382 0.77348
 C2946 C 0.68227 0.25572 0.78224
 C2947 C 0.67894 0.24805 0.79838
 C2948 C 0.66233 0.24835 0.80547
 H2949 H 0.60038 0.28165 0.82576
 H2950 H 0.57203 0.27985 0.83987
 H2951 H 0.56782 0.22629 0.82441
 H2952 H 0.59630 0.22818 0.81063
 H2953 H 0.64163 0.27028 0.77361
 H2954 H 0.67068 0.26986 0.76105
 H2955 H 0.68912 0.24172 0.80549
 H2956 H 0.65999 0.24227 0.81784
 C2957 C 0.60134 0.74643 0.68339
 C2958 C 0.59264 0.76222 0.68280
 C2959 C 0.57651 0.76331 0.67482
 C2960 C 0.56886 0.74858 0.66729
 C2961 C 0.57755 0.73268 0.66826
 C2962 C 0.59371 0.73163 0.67624
 C2963 C 0.61832 0.74560 0.69087
 C2964 C 0.63264 0.74519 0.69695
 C2965 C 0.64978 0.74500 0.70410
 C2966 C 0.66351 0.75248 0.69497
 C2967 C 0.68011 0.75269 0.70203
 C2968 C 0.68323 0.74541 0.71837
 C2969 C 0.66934 0.73780 0.72738
 C2970 C 0.65274 0.73762 0.72028
 H2971 H 0.59841 0.77375 0.68834
 H2972 H 0.57004 0.77568 0.67449
 H2973 H 0.57210 0.72117 0.66240
 H2974 H 0.60036 0.71935 0.67658
 H2975 H 0.66135 0.75825 0.68244
 H2976 H 0.69047 0.75864 0.69472
 H2977 H 0.67124 0.73207 0.73996
 H2978 H 0.64221 0.73181 0.72746
 C2979 C 0.09685 0.24701 0.18271
 C2980 C 0.08837 0.26294 0.18243
 C2981 C 0.07206 0.26432 0.17485
 C2982 C 0.06401 0.24976 0.16740
 C2983 C 0.07250 0.23372 0.16806
 C2984 C 0.08882 0.23238 0.17564
 C2985 C 0.11399 0.24587 0.18978
 C2986 C 0.12843 0.24520 0.19556
 C2987 C 0.14571 0.24473 0.20237
 C2988 C 0.15936 0.25210 0.19305
 C2989 C 0.17608 0.25215 0.19987
 C2990 C 0.17937 0.24483 0.21615
 C2991 C 0.16555 0.23728 0.22533
 C2992 C 0.14885 0.23725 0.21847
 H2993 H 0.09444 0.27434 0.18790
 H2994 H 0.06578 0.27679 0.17474
 H2995 H 0.06675 0.22233 0.16225
 H2996 H 0.09530 0.22000 0.17574
 H2997 H 0.15707 0.25793 0.18058
 H2998 H 0.18637 0.25807 0.19244
 H2999 H 0.16759 0.23153 0.23788
 H3000 H 0.13838 0.23153 0.22580
 C3001 C -0.06969 0.99626 0.85624
 C3002 C -0.05993 1.00092 0.84179
 C3003 C -0.06782 1.00250 0.82562
 C3004 C -0.08578 0.99952 0.82360
 C3005 C -0.09531 0.99467 0.83843
 C3006 C -0.08735 0.99309 0.85450
 C3007 C -0.06180 0.99512 0.87301
 C3008 C -0.05560 0.99436 0.88725
 C3009 C -0.04855 0.99379 0.90442
 C3010 C -0.03210 0.98697 0.90728
 C3011 C -0.02506 0.98709 0.92390
 C3012 C -0.03439 0.99408 0.93790
 C3013 C -0.05107 1.00060 0.93490
 C3014 C -0.05807 1.00045 0.91828
 H3015 H -0.04623 1.00356 0.84303
 H3016 H -0.05982 1.00676 0.81500
 H3017 H -0.10888 0.99141 0.83775
 H3018 H -0.09502 0.98933 0.86560
 H3019 H -0.02463 0.98177 0.89664
 H3020 H -0.01220 0.98196 0.92572
 H3021 H -0.05864 1.00606 0.94533
 H3022 H -0.07083 1.00574 0.91621
 C3023 C 0.42877 0.49516 0.35541
 C3024 C 0.43719 0.50396 0.34202
 C3025 C 0.42938 0.50530 0.32579
 C3026 C 0.41301 0.49792 0.32281
 C3027 C 0.40478 0.48894 0.33632
 C3028 C 0.41260 0.48760 0.35248
 C3029 C 0.43643 0.49423 0.37229
 C3030 C 0.44251 0.49358 0.38659
 C3031 C 0.44950 0.49305 0.40378
 C3032 C 0.46562 0.48556 0.40680
 C3033 C 0.47261 0.48559 0.42344
 C3034 C 0.46354 0.49315 0.43731
 C3035 C 0.44718 0.50038 0.43416
 C3036 C 0.44024 0.50032 0.41751
 H3037 H 0.44969 0.50991 0.34417
 H3038 H 0.43597 0.51240 0.31570
 H3039 H 0.39232 0.48286 0.33434
 H3040 H 0.40599 0.48074 0.36274
 H3041 H 0.47289 0.47987 0.39626
 H3042 H 0.48522 0.47991 0.42538
 H3043 H 0.43983 0.50629 0.44449
 H3044 H 0.42773 0.50612 0.41532
 C3045 C 0.56936 0.00358 0.34777
 C3046 C 0.57421 0.01884 0.33953
 C3047 C 0.58196 0.01831 0.32325
 C3048 C 0.58515 0.00238 0.31476
 C3049 C 0.57969 -0.01291 0.32316
 C3050 C 0.57197 -0.01229 0.33950
 C3051 C 0.56205 0.00427 0.36485
 C3052 C 0.55611 0.00506 0.37923
 C3053 C 0.54914 0.00604 0.39645
 C3054 C 0.53295 0.01351 0.39932
 C3055 C 0.52599 0.01407 0.41598
 C3056 C 0.53514 0.00713 0.43003
 C3057 C 0.55156 -0.00007 0.42703
 C3058 C 0.55848 -0.00061 0.41035
 H3059 H 0.57204 0.03123 0.34572
 H3060 H 0.58493 0.03056 0.31725
 H3061 H 0.58210 -0.02554 0.31767
 H3062 H 0.56830 -0.02422 0.34582
 H3063 H 0.52564 0.01875 0.38865
 H3064 H 0.51333 0.01971 0.41779
 H3065 H 0.55897 -0.00554 0.43750
 H3066 H 0.57105 -0.00638 0.40828
 C3067 C 0.06678 0.50190 0.84505
 C3068 C 0.06763 0.51691 0.83509
 C3069 C 0.07551 0.51657 0.81885
 C3070 C 0.08268 0.50118 0.81235
 C3071 C 0.08141 0.48604 0.82228
 C3072 C 0.07353 0.48642 0.83856
 C3073 C 0.05950 0.50257 0.86215
 C3074 C 0.05362 0.50332 0.87656
 C3075 C 0.04677 0.50429 0.89382
 C3076 C 0.03081 0.51216 0.89687
 C3077 C 0.02407 0.51294 0.91362
 C3078 C 0.03324 0.50582 0.92758
 C3079 C 0.04938 0.49810 0.92436
 C3080 C 0.05607 0.49735 0.90760
 H3081 H 0.06240 0.52895 0.83997
 H3082 H 0.07607 0.52837 0.81140
 H3083 H 0.08697 0.47405 0.81771
 H3084 H 0.07298 0.47473 0.84619
 H3085 H 0.02352 0.51762 0.88629
 H3086 H 0.01162 0.51896 0.91560
 H3087 H 0.05679 0.49248 0.93476
 H3088 H 0.06846 0.49127 0.90539
 C3089 C 0.06240 0.49777 0.64607
 C3090 C 0.05818 0.48680 0.65979
 C3091 C 0.06684 0.48838 0.67557
 C3092 C 0.07987 0.50094 0.67777
 C3093 C 0.08375 0.51211 0.66400
 C3094 C 0.07507 0.51052 0.64827
 C3095 C 0.05418 0.49574 0.62953
 C3096 C 0.04777 0.49434 0.61541
 C3097 C 0.04067 0.49314 0.59829
 C3098 C 0.02403 0.48654 0.59561
 C3099 C 0.01702 0.48611 0.57897
 C3100 C 0.02659 0.49234 0.56479
 C3101 C 0.04343 0.49866 0.56763
 C3102 C 0.05039 0.49905 0.58424
 H3103 H 0.04842 0.47686 0.65821
 H3104 H 0.06371 0.47947 0.68587
 H3105 H 0.09354 0.52205 0.66537
 H3106 H 0.07840 0.51912 0.63775
 H3107 H 0.01640 0.48193 0.60641
 H3108 H 0.00402 0.48118 0.57726
 H3109 H 0.05120 0.50352 0.55705
 H3110 H 0.06329 0.50417 0.58617
 C3111 C 0.56163 0.99670 0.14870
 C3112 C 0.55729 0.98564 0.16232
 C3113 C 0.56616 0.98678 0.17802
 C3114 C 0.57955 0.99895 0.18022
 C3115 C 0.58353 1.01024 0.16657
 C3116 C 0.57464 1.00910 0.15094
 C3117 C 0.55331 0.99505 0.13218
 C3118 C 0.54695 0.99397 0.11801
 C3119 C 0.54005 0.99313 0.10079
 C3120 C 0.52358 0.98625 0.09773
 C3121 C 0.51689 0.98591 0.08094
 C3122 C 0.52660 0.99249 0.06702
 C3123 C 0.54322 0.99920 0.07028
 C3124 C 0.54986 0.99951 0.08702
 H3125 H 0.54727 0.97596 0.16070
 H3126 H 0.56293 0.97781 0.18824
 H3127 H 0.59359 1.01990 0.16796
 H3128 H 0.57808 1.01775 0.14050
 H3129 H 0.51588 0.98127 0.10830
 H3130 H 0.50406 0.98067 0.07892
 H3131 H 0.55108 1.00437 0.05991
 H3132 H 0.56262 1.00486 0.08925
 C3133 C 0.43602 0.49794 0.15524
 C3134 C 0.43505 0.51321 0.16490
 C3135 C 0.42660 0.51334 0.18086
 C3136 C 0.41897 0.49816 0.18738
 C3137 C 0.42038 0.48276 0.17778
 C3138 C 0.42883 0.48268 0.16179
 C3139 C 0.44377 0.49814 0.13833
 C3140 C 0.44999 0.49849 0.12405
 C3141 C 0.45715 0.49897 0.10689
 C3142 C 0.47306 0.50707 0.10386
 C3143 C 0.47999 0.50750 0.08717
 C3144 C 0.47108 0.49983 0.07325
 C3145 C 0.45502 0.49183 0.07645
 C3146 C 0.44813 0.49141 0.09315
 H3147 H 0.44060 0.52510 0.15998
 H3148 H 0.42593 0.52534 0.18806
 H3149 H 0.41448 0.47092 0.18237
 H3150 H 0.42946 0.47079 0.15439
 H3151 H 0.48013 0.51300 0.11440
 H3152 H 0.49237 0.51377 0.08521
 H3153 H 0.44780 0.48578 0.06609
 H3154 H 0.43578 0.48515 0.09534
 C3155 C -0.06647 0.00012 0.65511
 C3156 C -0.06008 -0.00919 0.66913
 C3157 C -0.06879 -0.00891 0.68500
 C3158 C -0.08410 0.00080 0.68721
 C3159 C -0.09034 0.01001 0.67273
 C3160 C -0.08161 0.00966 0.65696
 C3161 C -0.05777 -0.00018 0.63867
 C3162 C -0.05100 -0.00019 0.62464
 C3163 C -0.04344 -0.00008 0.60764
 C3164 C -0.02747 0.00793 0.60474
 C3165 C -0.02034 0.00821 0.58812
 C3166 C -0.02914 0.00049 0.57416
 C3167 C -0.04524 -0.00748 0.57725
 C3168 C -0.05231 -0.00774 0.59386
 H3169 H -0.04831 -0.01660 0.66785
 H3170 H -0.06301 -0.01585 0.69560
 H3171 H -0.10238 0.01702 0.67313
 H3172 H -0.08681 0.01673 0.64610
 H3173 H -0.02052 0.01396 0.61531
 H3174 H -0.00793 0.01444 0.58624
 H3175 H -0.05238 -0.01357 0.56686
 H3176 H -0.06473 -0.01391 0.59594
 C3177 C -0.15156 0.93186 0.99960
 C3178 C -0.16643 0.94065 1.00495
 C3179 C -0.18245 0.93218 1.00500
 C3180 C -0.18377 0.91483 0.99964
 C3181 C -0.16871 0.90612 0.99442
 C3182 C -0.15275 0.91458 0.99440
 C3183 C -0.13500 0.94040 0.99950
 C3184 C -0.12093 0.94713 0.99937
 C3185 C -0.10392 0.95474 0.99932
 C3186 C -0.10114 0.97108 0.99212
 C3187 C -0.08461 0.97845 0.99227
 C3188 C -0.07062 0.96956 0.99966
 C3189 C -0.07356 0.95304 1.00669
 C3190 C -0.09009 0.94572 1.00651
 H3191 H -0.16564 0.95403 1.00902
 H3192 H -0.19383 0.93927 1.00895
 H3193 H -0.16923 0.89268 0.99052
 H3194 H -0.14131 0.90761 0.99034
 H3195 H -0.11176 0.97815 0.98647
 H3196 H -0.08283 0.99117 0.98675
 H3197 H -0.06314 0.94581 1.01247
 H3198 H -0.09208 0.93304 1.01207
 C3199 C 0.34630 0.43095 0.49847
 C3200 C 0.33154 0.43975 0.50408
 C3201 C 0.31543 0.43144 0.50397
 C3202 C 0.31393 0.41424 0.49819
 C3203 C 0.32889 0.40551 0.49270
 C3204 C 0.34494 0.41382 0.49284
 C3205 C 0.36293 0.43934 0.49853
 C3206 C 0.37706 0.44596 0.49854
 C3207 C 0.39410 0.45347 0.49863
 C3208 C 0.39699 0.46987 0.49161
 C3209 C 0.41355 0.47716 0.49190
 C3210 C 0.42747 0.46812 0.49924
 C3211 C 0.42443 0.45154 0.50609
 C3212 C 0.40787 0.44430 0.50577
 H3213 H 0.33246 0.45302 0.50848
 H3214 H 0.30414 0.43854 0.50813
 H3215 H 0.32823 0.39217 0.48847
 H3216 H 0.35629 0.40685 0.48858
 H3217 H 0.38642 0.47706 0.48600
 H3218 H 0.41541 0.48993 0.48651
 H3219 H 0.43480 0.44420 0.51182
 H3220 H 0.40579 0.43157 0.51119
 C3221 C 0.35174 0.56225 0.00577
 C3222 C 0.34974 0.57848 0.01349
 C3223 C 0.33426 0.58748 0.01167
 C3224 C 0.32054 0.58040 0.00205
 C3225 C 0.32253 0.56392 -0.00542
 C3226 C 0.33808 0.55493 -0.00361
 C3227 C 0.36813 0.55361 0.00689
 C3228 C 0.38219 0.54700 0.00768
 C3229 C 0.39931 0.53985 0.00833
 C3230 C 0.41321 0.54945 0.00188
 C3231 C 0.42989 0.54266 0.00220
 C3232 C 0.43294 0.52610 0.00900
 C3233 C 0.41888 0.51659 0.01563
 C3234 C 0.40216 0.52343 0.01528
 H3235 H 0.36022 0.58427 0.02077
 H3236 H 0.33302 0.60000 0.01783
 H3237 H 0.31225 0.55820 -0.01300
 H3238 H 0.33953 0.54240 -0.00972
 H3239 H 0.41116 0.56218 -0.00350
 H3240 H 0.44036 0.55037 -0.00300
 H3241 H 0.42074 0.50381 0.02094
 H3242 H 0.39148 0.51590 0.02033
 C3243 C -0.14815 0.06286 0.50732
 C3244 C -0.15014 0.07892 0.51539
 C3245 C -0.16563 0.08794 0.51383
 C3246 C -0.17939 0.08103 0.50412
 C3247 C -0.17739 0.06473 0.49628
 C3248 C -0.16182 0.05572 0.49783
 C3249 C -0.13177 0.05419 0.50824
 C3250 C -0.11773 0.04755 0.50887
 C3251 C -0.10064 0.04033 0.50935
 C3252 C -0.08678 0.04982 0.50267
 C3253 C -0.07012 0.04299 0.50290
 C3254 C -0.06705 0.02649 0.50985
 C3255 C -0.08108 0.01708 0.51668
 C3256 C -0.09777 0.02397 0.51643
 H3257 H -0.13964 0.08457 0.52276
 H3258 H -0.16688 0.10031 0.52027
 H3259 H -0.18770 0.05914 0.48862
 H3260 H -0.16037 0.04333 0.49145
 H3261 H -0.08885 0.06251 0.49720
 H3262 H -0.05967 0.05062 0.49753
 H3263 H -0.07920 0.00435 0.52211
 H3264 H -0.10843 0.01652 0.52167
 C3265 C 0.65369 0.06716 0.49694
 C3266 C 0.66407 0.06833 0.48218
 C3267 C 0.68023 0.07638 0.48306
 C3268 C 0.68624 0.08341 0.49874
 C3269 C 0.67589 0.08183 0.51360
 C3270 C 0.65970 0.07378 0.51269
 C3271 C 0.63667 0.05972 0.49576
 C3272 C 0.62231 0.05374 0.49471
 C3273 C 0.60506 0.04682 0.49358
 C3274 C 0.60216 0.03054 0.48618
 C3275 C 0.58544 0.02364 0.48558
 C3276 C 0.57138 0.03296 0.49239
 C3277 C 0.57444 0.04946 0.49951
 C3278 C 0.59115 0.05631 0.50009
 H3279 H 0.65957 0.06321 0.46994
 H3280 H 0.68800 0.07718 0.47145
 H3281 H 0.68007 0.08728 0.52580
 H3282 H 0.65174 0.07299 0.52418
 H3283 H 0.61284 0.02309 0.48106
 H3284 H 0.58358 0.01091 0.48001
 H3285 H 0.56396 0.05701 0.50487
 H3286 H 0.59325 0.06895 0.50580
 C3287 C 0.15257 0.56965 0.99526
 C3288 C 0.16594 0.56273 1.00512
 C3289 C 0.18214 0.57085 1.00552
 C3290 C 0.18533 0.58609 0.99595
 C3291 C 0.17149 0.59288 0.98618
 C3292 C 0.15538 0.58474 0.98585
 C3293 C 0.13583 0.56149 0.99482
 C3294 C 0.12163 0.55506 0.99428
 C3295 C 0.10450 0.54779 0.99358
 C3296 C 0.10171 0.53149 0.98618
 C3297 C 0.08503 0.52449 0.98557
 C3298 C 0.07091 0.53371 0.99237
 C3299 C 0.07388 0.55016 0.99964
 C3300 C 0.09055 0.55712 1.00023
 H3301 H 0.16390 0.55098 1.01242
 H3302 H 0.19221 0.56464 1.01285
 H3303 H 0.17266 0.60491 0.97922
 H3304 H 0.14503 0.59035 0.97834
 H3305 H 0.11242 0.52418 0.98094
 H3306 H 0.08324 0.51180 0.97990
 H3307 H 0.06335 0.55764 1.00501
 H3308 H 0.09256 0.56978 1.00593
 C3309 C 0.14479 0.43008 0.50305
 C3310 C 0.15830 0.43809 0.49403
 C3311 C 0.17440 0.43002 0.49272
 C3312 C 0.17712 0.41379 0.50036
 C3313 C 0.16352 0.40600 0.50962
 C3314 C 0.14748 0.41408 0.51092
 C3315 C 0.12798 0.43790 0.50383
 C3316 C 0.11373 0.44409 0.50434
 C3317 C 0.09658 0.45117 0.50469
 C3318 C 0.09367 0.46764 0.51159
 C3319 C 0.07708 0.47471 0.51133
 C3320 C 0.06316 0.46540 0.50412
 C3321 C 0.06620 0.44871 0.49750
 C3322 C 0.08279 0.44168 0.49779
 H3323 H 0.15633 0.45045 0.48784
 H3324 H 0.18459 0.43626 0.48542
 H3325 H 0.16530 0.39366 0.51589
 H3326 H 0.13713 0.40779 0.51796
 H3327 H 0.10425 0.47508 0.51698
 H3328 H 0.07523 0.48758 0.51654
 H3329 H 0.05582 0.44117 0.49187
 H3330 H 0.08490 0.42890 0.49244
 C3331 C 0.64732 0.93065 0.00219
 C3332 C 0.66097 0.93832 -0.00691
 C3333 C 0.67706 0.93015 -0.00776
 C3334 C 0.67962 0.91417 0.00043
 C3335 C 0.66586 0.90671 0.00973
 C3336 C 0.64984 0.91489 0.01058
 C3337 C 0.63055 0.93859 0.00260
 C3338 C 0.61631 0.94484 0.00291
 C3339 C 0.59915 0.95192 0.00316
 C3340 C 0.59617 0.96832 0.01017
 C3341 C 0.57950 0.97523 0.01019
 C3342 C 0.56557 0.96579 0.00317
 C3343 C 0.56871 0.94922 -0.00369
 C3344 C 0.58538 0.94236 -0.00368
 H3345 H 0.65913 0.95050 -0.01350
 H3346 H 0.68736 0.93613 -0.01512
 H3347 H 0.66751 0.89457 0.01642
 H3348 H 0.63938 0.90886 0.01769
 H3349 H 0.60674 0.97582 0.01553
 H3350 H 0.57758 0.98801 0.01557
 H3351 H 0.55832 0.94159 -0.00919
 H3352 H 0.58754 0.92962 -0.00911
 C3353 C -0.00570 0.85232 0.93639
 C3354 C -0.00055 0.83746 0.94516
 C3355 C 0.00129 0.82179 0.93627
 C3356 C -0.00189 0.82068 0.91828
 C3357 C -0.00728 0.83588 0.90977
 C3358 C -0.00913 0.85145 0.91873
 C3359 C -0.00695 0.86867 0.94522
 C3360 C -0.00776 0.88268 0.95203
 C3361 C -0.00833 0.89974 0.95949
 C3362 C -0.01496 0.90238 0.97612
 C3363 C -0.01500 0.91898 0.98338
 C3364 C -0.00835 0.93314 0.97408
 C3365 C -0.00196 0.93033 0.95727
 C3366 C -0.00196 0.91377 0.95006
 H3367 H 0.00230 0.83804 0.95884
 H3368 H 0.00595 0.81086 0.94352
 H3369 H -0.01072 0.83586 0.89626
 H3370 H -0.01325 0.86286 0.91182
 H3371 H -0.01995 0.89160 0.98353
 H3372 H -0.02000 0.92066 0.99634
 H3373 H 0.00322 0.94090 0.94970
 H3374 H 0.00317 0.91188 0.93717
 C3375 C 0.48702 0.35015 0.43748
 C3376 C 0.49857 0.33745 0.44299
 C3377 C 0.49982 0.32179 0.43400
 C3378 C 0.48958 0.31869 0.41931
 C3379 C 0.47777 0.33142 0.41409
 C3380 C 0.47653 0.34704 0.42311
 C3381 C 0.48650 0.36672 0.44598
 C3382 C 0.48632 0.38082 0.45264
 C3383 C 0.48649 0.39791 0.46005
 C3384 C 0.47998 0.40085 0.47667
 C3385 C 0.48063 0.41745 0.48390
 C3386 C 0.48785 0.43132 0.47458
 C3387 C 0.49416 0.42820 0.45779
 C3388 C 0.49348 0.41164 0.45061
 H3389 H 0.50683 0.33976 0.45405
 H3390 H 0.50914 0.31231 0.43823
 H3391 H 0.46951 0.32932 0.40300
 H3392 H 0.46754 0.35678 0.41872
 H3393 H 0.47452 0.39031 0.48409
 H3394 H 0.47565 0.41936 0.49684
 H3395 H 0.49978 0.43853 0.45020
 H3396 H 0.49854 0.40951 0.43773
 C3397 C 0.00031 0.34846 0.56521
 C3398 C -0.01520 0.33972 0.56840
 C3399 C -0.01516 0.32381 0.57695
 C3400 C 0.00047 0.31633 0.58268
 C3401 C 0.01603 0.32526 0.57891
 C3402 C 0.01590 0.34110 0.57033
 C3403 C 0.00029 0.36520 0.55714
 C3404 C 0.00044 0.37935 0.55065
 C3405 C 0.00067 0.39635 0.54314
 C3406 C 0.00828 0.39906 0.52696
 C3407 C 0.00835 0.41557 0.51964
 C3408 C 0.00079 0.42961 0.52842
 C3409 C -0.00666 0.42674 0.54477
 C3410 C -0.00671 0.41024 0.55205
 H3411 H -0.02738 0.34536 0.56455
 H3412 H -0.02756 0.31800 0.57977
 H3413 H 0.02850 0.31994 0.58209
 H3414 H 0.02802 0.34766 0.56776
 H3415 H 0.01408 0.38841 0.51997
 H3416 H 0.01420 0.41728 0.50705
 H3417 H -0.01260 0.43721 0.55192
 H3418 H -0.01259 0.40830 0.56461
 C3419 C 0.49941 0.84686 0.06419
 C3420 C 0.48432 0.84013 0.07162
 C3421 C 0.48470 0.82424 0.08019
 C3422 C 0.50022 0.81494 0.08149
 C3423 C 0.51521 0.82165 0.07365
 C3424 C 0.51480 0.83750 0.06507
 C3425 C 0.49931 0.86365 0.05626
 C3426 C 0.49943 0.87785 0.04990
 C3427 C 0.49968 0.89493 0.04258
 C3428 C 0.50776 0.89791 0.02669
 C3429 C 0.50807 0.91454 0.01967
 C3430 C 0.50030 0.92844 0.02848
 C3431 C 0.49227 0.92528 0.04451
 C3432 C 0.49198 0.90865 0.05149
 H3433 H 0.47235 0.84730 0.07106
 H3434 H 0.47300 0.81952 0.08626
 H3435 H 0.52729 0.81467 0.07422
 H3436 H 0.52654 0.84256 0.05934
 H3437 H 0.51380 0.88738 0.01971
 H3438 H 0.51435 0.91647 0.00732
 H3439 H 0.48615 0.93563 0.05166
 H3440 H 0.48573 0.90649 0.06383
 C3441 C 0.50174 0.64739 0.06961
 C3442 C 0.51444 0.65064 0.08205
 C3443 C 0.51562 0.66689 0.08989
 C3444 C 0.50407 0.68013 0.08541
 C3445 C 0.49155 0.67684 0.07264
 C3446 C 0.49039 0.66055 0.06482
 C3447 C 0.50018 0.63040 0.06214
 C3448 C 0.49905 0.61603 0.05620
 C3449 C 0.49801 0.59873 0.04939
 C3450 C 0.50435 0.58491 0.05907
 C3451 C 0.50391 0.56814 0.05233
 C3452 C 0.49711 0.56494 0.03577
 C3453 C 0.49051 0.57891 0.02625
 C3454 C 0.49098 0.59568 0.03302
 H3455 H 0.52333 0.64056 0.08581
 H3456 H 0.52554 0.66909 0.09950
 H3457 H 0.48236 0.68670 0.06906
 H3458 H 0.48048 0.65816 0.05523
 H3459 H 0.50981 0.58713 0.07176
 H3460 H 0.50909 0.55773 0.06004
 H3461 H 0.48519 0.57694 0.01347
 H3462 H 0.48603 0.60629 0.02543
 C3463 C 0.00050 0.14837 0.56941
 C3464 C 0.01303 0.15186 0.58195
 C3465 C 0.01393 0.16817 0.58970
 C3466 C 0.00228 0.18124 0.58501
 C3467 C -0.01004 0.17774 0.57211
 C3468 C -0.01093 0.16138 0.56438
 C3469 C -0.00082 0.13129 0.56210
 C3470 C -0.00174 0.11683 0.55631
 C3471 C -0.00256 0.09946 0.54967
 C3472 C 0.00405 0.08581 0.55941
 C3473 C 0.00376 0.06897 0.55283
 C3474 C -0.00314 0.06553 0.53635
 C3475 C -0.00998 0.07934 0.52676
 C3476 C -0.00967 0.09617 0.53338
 H3477 H 0.02199 0.14191 0.58589
 H3478 H 0.02371 0.17053 0.59941
 H3479 H -0.01930 0.18748 0.56837
 H3480 H -0.02070 0.15881 0.55470
 H3481 H 0.00957 0.08821 0.57204
 H3482 H 0.00913 0.05869 0.56058
 H3483 H -0.01539 0.07719 0.51405
 H3484 H -0.01483 0.10664 0.52574
 C3485 C 0.50592 0.15143 0.43091
 C3486 C 0.52026 0.15971 0.42361
 C3487 C 0.51846 0.17595 0.41597
 C3488 C 0.50225 0.18411 0.41550
 C3489 C 0.48796 0.17576 0.42307
 C3490 C 0.48979 0.15954 0.43071
 C3491 C 0.50757 0.13443 0.43820
 C3492 C 0.50865 0.12011 0.44418
 C3493 C 0.50949 0.10293 0.45120
 C3494 C 0.50262 0.08900 0.44188
 C3495 C 0.50260 0.07242 0.44898
 C3496 C 0.50943 0.06953 0.46556
 C3497 C 0.51662 0.08360 0.47469
 C3498 C 0.51661 0.10018 0.46755
 H3499 H 0.53279 0.15352 0.42363
 H3500 H 0.52966 0.18192 0.41006
 H3501 H 0.47536 0.18179 0.42311
 H3502 H 0.47860 0.15325 0.43635
 H3503 H 0.49706 0.09098 0.42922
 H3504 H 0.49698 0.06192 0.44157
 H3505 H 0.52199 0.08187 0.48746
 H3506 H 0.52195 0.11088 0.47488
 C3507 C 0.00369 0.65218 0.92909
 C3508 C 0.01322 0.65485 0.91404
 C3509 C 0.01308 0.67092 0.90592
 C3510 C 0.00336 0.68487 0.91271
 C3511 C -0.00634 0.68182 0.92791
 C3512 C -0.00612 0.66567 0.93601
 C3513 C 0.00392 0.63548 0.93723
 C3514 C 0.00432 0.62131 0.94364
 C3515 C 0.00487 0.60422 0.95089
 C3516 C -0.00142 0.59015 0.94138
 C3517 C -0.00093 0.57351 0.94831
 C3518 C 0.00590 0.57069 0.96491
 C3519 C 0.01232 0.58493 0.97432
 C3520 C 0.01180 0.60158 0.96734
 H3521 H 0.02069 0.64442 0.90843
 H3522 H 0.02014 0.67196 0.89391
 H3523 H -0.01364 0.69197 0.93411
 H3524 H -0.01352 0.66375 0.94773
 H3525 H -0.00677 0.59205 0.92861
 H3526 H -0.00600 0.56289 0.94069
 H3527 H 0.01765 0.58326 0.98712
 H3528 H 0.01677 0.61237 0.97480
 C3529 C 0.24940 0.68220 0.89745
 C3530 C 0.24209 0.66583 0.89987
 C3531 C 0.24393 0.65738 0.91566
 C3532 C 0.25315 0.66518 0.92928
 C3533 C 0.26030 0.68174 0.92680
 C3534 C 0.25846 0.69017 0.91095
 C3535 C 0.24796 0.69047 0.88090
 C3536 C 0.24689 0.69694 0.86680
 C3537 C 0.24591 0.70418 0.84974
 C3538 C 0.25228 0.69479 0.83566
 C3539 C 0.25191 0.70187 0.81910
 C3540 C 0.24515 0.71850 0.81636
 C3541 C 0.23848 0.72773 0.83058
 C3542 C 0.23888 0.72060 0.84716
 H3543 H 0.23504 0.65955 0.88952
 H3544 H 0.23800 0.64479 0.91726
 H3545 H 0.26757 0.68801 0.93700
 H3546 H 0.26424 0.70281 0.90918
 H3547 H 0.25771 0.68205 0.83750
 H3548 H 0.25713 0.69437 0.80848
 H3549 H 0.23320 0.74056 0.82896
 H3550 H 0.23389 0.72797 0.85798
 C3551 C 0.74911 0.18350 0.40160
 C3552 C 0.74152 0.16725 0.40395
 C3553 C 0.74323 0.15869 0.41968
 C3554 C 0.75261 0.16624 0.43333
 C3555 C 0.76003 0.18269 0.43094
 C3556 C 0.75832 0.19125 0.41514
 C3557 C 0.74781 0.19186 0.38509
 C3558 C 0.74677 0.19833 0.37099
 C3559 C 0.74572 0.20550 0.35391
 C3560 C 0.75244 0.19625 0.33990
 C3561 C 0.75166 0.20311 0.32326
 C3562 C 0.74414 0.21938 0.32038
 C3563 C 0.73726 0.22852 0.33455
 C3564 C 0.73806 0.22161 0.35121
 H3565 H 0.73434 0.16115 0.39357
 H3566 H 0.73710 0.14618 0.42121
 H3567 H 0.76743 0.18877 0.44116
 H3568 H 0.76431 0.20380 0.41343
 H3569 H 0.75836 0.18375 0.34184
 H3570 H 0.75709 0.19570 0.31269
 H3571 H 0.73139 0.24107 0.33282
 H3572 H 0.73279 0.22886 0.36197
 C3573 C 0.24895 0.31502 0.39790
 C3574 C 0.23588 0.32713 0.40081
 C3575 C 0.23433 0.33518 0.41690
 C3576 C 0.24587 0.33126 0.43033
 C3577 C 0.25872 0.31876 0.42743
 C3578 C 0.26026 0.31072 0.41128
 C3579 C 0.25092 0.30745 0.38101
 C3580 C 0.25228 0.30149 0.36667
 C3581 C 0.25347 0.29469 0.34939
 C3582 C 0.24670 0.30412 0.33561
 C3583 C 0.24707 0.29729 0.31888
 C3584 C 0.25421 0.28088 0.31570
 C3585 C 0.26133 0.27166 0.32962
 C3586 C 0.26093 0.27853 0.34635
 H3587 H 0.22701 0.33050 0.39056
 H3588 H 0.22417 0.34457 0.41881
 H3589 H 0.26789 0.31561 0.43746
 H3590 H 0.27044 0.30138 0.40916
 H3591 H 0.24091 0.31665 0.33782
 H3592 H 0.24149 0.30476 0.30851
 H3593 H 0.26693 0.25900 0.32766
 H3594 H 0.26622 0.27113 0.35693
 C3595 C 0.75259 0.81387 0.90063
 C3596 C 0.73941 0.82591 0.90327
 C3597 C 0.73765 0.83415 0.91924
 C3598 C 0.74908 0.83048 0.93283
 C3599 C 0.76204 0.81803 0.93021
 C3600 C 0.76380 0.80980 0.91417
 C3601 C 0.75480 0.80617 0.88382
 C3602 C 0.75631 0.80018 0.86951
 C3603 C 0.75762 0.79346 0.85221
 C3604 C 0.75140 0.80320 0.83838
 C3605 C 0.75179 0.79647 0.82162
 C3606 C 0.75842 0.77985 0.81843
 C3607 C 0.76501 0.77030 0.83238
 C3608 C 0.76458 0.77707 0.84916
 H3609 H 0.73062 0.82911 0.89289
 H3610 H 0.72741 0.84349 0.92093
 H3611 H 0.77114 0.81507 0.94037
 H3612 H 0.77406 0.80052 0.91226
 H3613 H 0.74599 0.81591 0.84060
 H3614 H 0.74663 0.80421 0.81123
 H3615 H 0.77020 0.75747 0.83042
 H3616 H 0.76944 0.76942 0.85977
 C3617 C 0.74858 0.82016 0.10209
 C3618 C 0.75421 0.81094 0.08754
 C3619 C 0.75440 0.81883 0.07130
 C3620 C 0.74889 0.83602 0.06941
 C3621 C 0.74346 0.84521 0.08416
 C3622 C 0.74330 0.83732 0.10035
 C3623 C 0.74813 0.81213 0.11882
 C3624 C 0.74767 0.80571 0.13299
 C3625 C 0.74718 0.79833 0.15002
 C3626 C 0.74024 0.78182 0.15261
 C3627 C 0.74013 0.77455 0.16912
 C3628 C 0.74699 0.78372 0.18330
 C3629 C 0.75370 0.80044 0.18057
 C3630 C 0.75378 0.80767 0.16406
 H3631 H 0.75833 0.79764 0.08875
 H3632 H 0.75851 0.81139 0.06017
 H3633 H 0.73943 0.85855 0.08320
 H3634 H 0.73902 0.84462 0.11153
 H3635 H 0.73505 0.77450 0.14184
 H3636 H 0.73487 0.76167 0.17072
 H3637 H 0.75908 0.80789 0.19115
 H3638 H 0.75914 0.82048 0.16221
 C3639 C 0.24702 0.31972 0.60000
 C3640 C 0.24177 0.33688 0.59827
 C3641 C 0.24177 0.34470 0.58205
 C3642 C 0.24701 0.33544 0.56728
 C3643 C 0.25252 0.31825 0.56916
 C3644 C 0.25249 0.31043 0.58544
 C3645 C 0.24668 0.31176 0.61677
 C3646 C 0.24626 0.30547 0.63099
 C3647 C 0.24577 0.29831 0.64812
 C3648 C 0.25265 0.30769 0.66198
 C3649 C 0.25245 0.30073 0.67861
 C3650 C 0.24534 0.28423 0.68162
 C3651 C 0.23824 0.27499 0.66760
 C3652 C 0.23847 0.28200 0.65098
 H3653 H 0.23761 0.34423 0.60945
 H3654 H 0.23775 0.35805 0.58108
 H3655 H 0.25651 0.31077 0.55802
 H3656 H 0.25660 0.29712 0.58665
 H3657 H 0.25829 0.32036 0.65992
 H3658 H 0.25802 0.30822 0.68905
 H3659 H 0.23268 0.26227 0.66943
 H3660 H 0.23305 0.27464 0.64034
 C3661 C 0.75550 0.18357 0.60070
 C3662 C 0.77064 0.18203 0.59095
 C3663 C 0.77028 0.17377 0.57488
 C3664 C 0.75474 0.16690 0.56833
 C3665 C 0.73950 0.16886 0.57805
 C3666 C 0.73990 0.17711 0.59415
 C3667 C 0.75610 0.19125 0.61765
 C3668 C 0.75666 0.19743 0.63195
 C3669 C 0.75721 0.20458 0.64913
 C3670 C 0.76433 0.22098 0.65203
 C3671 C 0.76440 0.22808 0.66867
 C3672 C 0.75731 0.21885 0.68265
 C3673 C 0.75045 0.20224 0.67961
 C3674 C 0.75040 0.19518 0.66297
 H3675 H 0.78278 0.18702 0.59587
 H3676 H 0.78218 0.17269 0.56759
 H3677 H 0.72738 0.16355 0.57345
 H3678 H 0.72810 0.17820 0.60162
 H3679 H 0.76967 0.22836 0.64140
 H3680 H 0.76978 0.24089 0.67051
 H3681 H 0.74490 0.19474 0.69003
 H3682 H 0.74490 0.18245 0.66088
 C3683 C 0.25398 0.68395 0.09668
 C3684 C 0.26927 0.68257 0.08713
 C3685 C 0.26923 0.67426 0.07109
 C3686 C 0.25387 0.66717 0.06436
 C3687 C 0.23848 0.66896 0.07387
 C3688 C 0.23855 0.67727 0.08995
 C3689 C 0.25429 0.69165 0.11362
 C3690 C 0.25467 0.69784 0.12793
 C3691 C 0.25515 0.70498 0.14512
 C3692 C 0.26309 0.72097 0.14819
 C3693 C 0.26343 0.72793 0.16488
 C3694 C 0.25581 0.71895 0.17876
 C3695 C 0.24799 0.70280 0.17552
 C3696 C 0.24767 0.69589 0.15882
 H3697 H 0.28128 0.68773 0.09219
 H3698 H 0.28124 0.67330 0.06396
 H3699 H 0.22650 0.66347 0.06914
 H3700 H 0.22665 0.67821 0.09726
 H3701 H 0.26896 0.72810 0.13767
 H3702 H 0.26955 0.74038 0.16688
 H3703 H 0.24199 0.69553 0.18585
 H3704 H 0.24153 0.68348 0.15660
 C3705 C 0.18259 0.60087 0.75151
 C3706 C 0.16637 0.59834 0.75907
 C3707 C 0.15785 0.58251 0.75723
 C3708 C 0.16541 0.56896 0.74774
 C3709 C 0.18185 0.57151 0.74039
 C3710 C 0.19037 0.58741 0.74223
 C3711 C 0.19086 0.61752 0.75279
 C3712 C 0.19731 0.63169 0.75371
 C3713 C 0.20453 0.64884 0.75448
 C3714 C 0.19500 0.66280 0.74824
 C3715 C 0.20208 0.67942 0.74836
 C3716 C 0.21887 0.68235 0.75474
 C3717 C 0.22824 0.66826 0.76129
 C3718 C 0.22111 0.65162 0.76114
 H3719 H 0.16024 0.60865 0.76629
 H3720 H 0.14534 0.58085 0.76331
 H3721 H 0.18794 0.56137 0.73291
 H3722 H 0.20290 0.58927 0.73625
 H3723 H 0.18214 0.66080 0.74309
 H3724 H 0.19448 0.68993 0.74324
 H3725 H 0.24119 0.67003 0.76629
 H3726 H 0.22859 0.64090 0.76603
 C3727 C 0.68288 0.09864 0.25058
 C3728 C 0.66514 0.09748 0.25350
 C3729 C 0.65657 0.08170 0.25168
 C3730 C 0.66557 0.06654 0.24683
 C3731 C 0.68361 0.06796 0.24409
 C3732 C 0.69212 0.08387 0.24590
 C3733 C 0.69132 0.11516 0.25209
 C3734 C 0.69767 0.12936 0.25324
 C3735 C 0.70446 0.14666 0.25433
 C3736 C 0.69432 0.16048 0.24877
 C3737 C 0.70078 0.17733 0.24945
 C3738 C 0.71753 0.18064 0.25572
 C3739 C 0.72757 0.16666 0.26150
 C3740 C 0.72105 0.14978 0.26079
 H3741 H 0.65787 0.10883 0.25727
 H3742 H 0.64296 0.08148 0.25481
 H3743 H 0.69122 0.05706 0.23986
 H3744 H 0.70589 0.08466 0.24346
 H3745 H 0.68144 0.15821 0.24379
 H3746 H 0.69267 0.18773 0.24490
 H3747 H 0.74051 0.16873 0.26638
 H3748 H 0.72899 0.13916 0.26516
 C3749 C 0.81655 0.10069 0.74720
 C3750 C 0.83298 0.09821 0.74012
 C3751 C 0.84126 0.08234 0.74189
 C3752 C 0.83325 0.06867 0.75083
 C3753 C 0.81658 0.07115 0.75765
 C3754 C 0.80830 0.08710 0.75588
 C3755 C 0.80856 0.11740 0.74606
 C3756 C 0.80235 0.13164 0.74525
 C3757 C 0.79540 0.14884 0.74457
 C3758 C 0.80486 0.16266 0.75146
 C3759 C 0.79803 0.17934 0.75133
 C3760 C 0.78158 0.18245 0.74431
 C3761 C 0.77228 0.16848 0.73713
 C3762 C 0.77915 0.15179 0.73729
 H3763 H 0.83946 0.10862 0.73336
 H3764 H 0.85396 0.08073 0.73622
 H3765 H 0.81014 0.06092 0.76469
 H3766 H 0.79560 0.08891 0.76148
 H3767 H 0.81747 0.16052 0.75709
 H3768 H 0.80556 0.18975 0.75695
 H3769 H 0.75959 0.17038 0.73162
 H3770 H 0.77173 0.14118 0.73189
 C3771 C 0.31665 0.59948 0.24610
 C3772 C 0.33290 0.59705 0.23859
 C3773 C 0.34124 0.58117 0.24007
 C3774 C 0.33345 0.56746 0.24913
 C3775 C 0.31697 0.56990 0.25639
 C3776 C 0.30864 0.58585 0.25492
 C3777 C 0.30858 0.61617 0.24519
 C3778 C 0.30230 0.63038 0.24453
 C3779 C 0.29530 0.64756 0.24394
 C3780 C 0.30475 0.66137 0.25087
 C3781 C 0.29800 0.67808 0.25056
 C3782 C 0.28166 0.68123 0.24330
 C3783 C 0.27232 0.66725 0.23621
 C3784 C 0.27911 0.65053 0.23655
 H3785 H 0.33921 0.60750 0.23172
 H3786 H 0.35379 0.57960 0.23408
 H3787 H 0.31071 0.55963 0.26355
 H3788 H 0.29608 0.58762 0.26084
 H3789 H 0.31731 0.65921 0.25660
 H3790 H 0.30556 0.68850 0.25613
 H3791 H 0.25971 0.66919 0.23053
 H3792 H 0.27171 0.63993 0.23112
 C3793 C 0.31705 0.39894 0.25209
 C3794 C 0.30852 0.41366 0.24607
 C3795 C 0.31700 0.42968 0.24601
 C3796 C 0.33408 0.43114 0.25203
 C3797 C 0.34256 0.41621 0.25785
 C3798 C 0.33410 0.40025 0.25789
 C3799 C 0.30850 0.38239 0.25231
 C3800 C 0.30181 0.36830 0.25258
 C3801 C 0.29433 0.35125 0.25283
 C3802 C 0.27795 0.34846 0.25998
 C3803 C 0.27073 0.33185 0.26004
 C3804 C 0.27984 0.31780 0.25290
 C3805 C 0.29640 0.32076 0.24592
 C3806 C 0.30356 0.33736 0.24589
 H3807 H 0.29532 0.41277 0.24153
 H3808 H 0.31010 0.44097 0.24158
 H3809 H 0.35581 0.41684 0.26228
 H3810 H 0.34086 0.38893 0.26246
 H3811 H 0.27071 0.35913 0.26544
 H3812 H 0.25797 0.33006 0.26550
 H3813 H 0.30380 0.31029 0.24033
 H3814 H 0.31628 0.33936 0.24038
 C3815 C 0.82040 0.89883 0.75435
 C3816 C 0.81134 0.91325 0.74839
 C3817 C 0.81926 0.92955 0.74826
 C3818 C 0.83632 0.93160 0.75415
 C3819 C 0.84535 0.91697 0.75992
 C3820 C 0.83744 0.90073 0.76003
 C3821 C 0.81235 0.88203 0.75472
 C3822 C 0.80597 0.86780 0.75513
 C3823 C 0.79868 0.85066 0.75558
 C3824 C 0.78244 0.84779 0.76301
 C3825 C 0.77529 0.83115 0.76315
 C3826 C 0.78432 0.81715 0.75582
 C3827 C 0.80076 0.82018 0.74860
 C3828 C 0.80786 0.83681 0.74848
 H3829 H 0.79813 0.91191 0.74395
 H3830 H 0.81194 0.94059 0.74387
 H3831 H 0.85861 0.91806 0.76425
 H3832 H 0.84462 0.88965 0.76456
 H3833 H 0.77525 0.85842 0.76859
 H3834 H 0.76262 0.82932 0.76881
 H3835 H 0.80808 0.80974 0.74285
 H3836 H 0.82047 0.83888 0.74274
 C3837 C 0.68240 0.89908 0.24588
 C3838 C 0.66503 0.89985 0.24104
 C3839 C 0.65634 0.91562 0.24124
 C3840 C 0.66490 0.93090 0.24629
 C3841 C 0.68234 0.92998 0.25131
 C3842 C 0.69104 0.91415 0.25108
 C3843 C 0.69120 0.88273 0.24558
 C3844 C 0.69813 0.86880 0.24531
 C3845 C 0.70591 0.85195 0.24511
 C3846 C 0.69684 0.83785 0.25189
 C3847 C 0.70432 0.82145 0.25196
 C3848 C 0.72103 0.81890 0.24524
 C3849 C 0.72998 0.83314 0.23826
 C3850 C 0.72246 0.84956 0.23821
 H3851 H 0.65819 0.88825 0.23711
 H3852 H 0.64285 0.91584 0.23759
 H3853 H 0.68931 0.94153 0.25511
 H3854 H 0.70449 0.91369 0.25488
 H3855 H 0.68401 0.83954 0.25721
 H3856 H 0.69703 0.81082 0.25742
 H3857 H 0.74286 0.83166 0.23298
 H3858 H 0.72957 0.86039 0.23289
 C3859 C 0.18041 0.40052 0.74321
 C3860 C 0.18918 0.41532 0.74893
 C3861 C 0.18083 0.43133 0.74915
 C3862 C 0.16360 0.43271 0.74358
 C3863 C 0.15488 0.41771 0.73798
 C3864 C 0.16324 0.40176 0.73780
 C3865 C 0.18885 0.38398 0.74298
 C3866 C 0.19556 0.36994 0.74277
 C3867 C 0.20319 0.35301 0.74266
 C3868 C 0.21980 0.35052 0.73595
 C3869 C 0.22726 0.33408 0.73618
 C3870 C 0.21819 0.31991 0.74316
 C3871 C 0.20140 0.32256 0.74966
 C3872 C 0.19398 0.33898 0.74940
 H3873 H 0.20248 0.41449 0.75317
 H3874 H 0.18792 0.44266 0.75338
 H3875 H 0.14153 0.41828 0.73390
 H3876 H 0.15628 0.39037 0.73345
 H3877 H 0.22702 0.36129 0.73066
 H3878 H 0.24019 0.33253 0.73108
 H3879 H 0.19401 0.31198 0.75511
 H3880 H 0.18110 0.34076 0.75458
 C3881 C 0.10072 0.75095 0.81482
 C3882 C 0.09848 0.76395 0.82721
 C3883 C 0.08260 0.76585 0.83558
 C3884 C 0.06871 0.75474 0.83168
 C3885 C 0.07096 0.74195 0.81891
 C3886 C 0.08689 0.74005 0.81056
 C3887 C 0.11739 0.74858 0.80691
 C3888 C 0.13158 0.74688 0.80071
 C3889 C 0.14876 0.74534 0.79375
 C3890 C 0.16285 0.75124 0.80341
 C3891 C 0.17950 0.75065 0.79649
 C3892 C 0.18233 0.74414 0.77972
 C3893 C 0.16811 0.73784 0.77024
 C3894 C 0.15143 0.73847 0.77722
 H3895 H 0.10909 0.77249 0.83057
 H3896 H 0.08121 0.77596 0.84518
 H3897 H 0.06057 0.73307 0.81577
 H3898 H 0.08849 0.72992 0.80101
 H3899 H 0.16093 0.75657 0.81623
 H3900 H 0.19011 0.75558 0.80418
 H3901 H 0.16980 0.73275 0.75731
 H3902 H 0.14060 0.73385 0.76962
 C3903 C 0.59713 0.24660 0.31962
 C3904 C 0.58220 0.24157 0.31072
 C3905 C 0.56599 0.24303 0.31864
 C3906 C 0.56454 0.24959 0.33556
 C3907 C 0.57965 0.25459 0.34437
 C3908 C 0.59581 0.25310 0.33645
 C3909 C 0.61386 0.24527 0.31157
 C3910 C 0.62805 0.24446 0.30518
 C3911 C 0.64518 0.24391 0.29792
 C3912 C 0.64805 0.23647 0.28167
 C3913 C 0.66465 0.23647 0.27450
 C3914 C 0.67862 0.24396 0.28350
 C3915 C 0.67559 0.25120 0.29993
 C3916 C 0.65900 0.25117 0.30706
 H3917 H 0.58307 0.23657 0.29767
 H3918 H 0.55460 0.23922 0.31147
 H3919 H 0.57902 0.25940 0.35750
 H3920 H 0.60728 0.25700 0.34347
 H3921 H 0.63743 0.23081 0.27448
 H3922 H 0.66650 0.23079 0.26183
 H3923 H 0.68600 0.25706 0.30724
 H3924 H 0.65693 0.25696 0.31965
 C3925 C 0.60388 0.75573 0.18250
 C3926 C 0.60137 0.76361 0.16648
 C3927 C 0.58538 0.76239 0.15824
 C3928 C 0.57164 0.75322 0.16589
 C3929 C 0.57418 0.74556 0.18214
 C3930 C 0.59023 0.74678 0.19036
 C3931 C 0.62062 0.75641 0.19052
 C3932 C 0.63482 0.75685 0.19689
 C3933 C 0.65190 0.75715 0.20419
 C3934 C 0.65471 0.76416 0.22063
 C3935 C 0.67127 0.76402 0.22783
 C3936 C 0.68525 0.75682 0.21868
 C3937 C 0.68230 0.75001 0.20205
 C3938 C 0.66574 0.75018 0.19489
 H3939 H 0.61183 0.77059 0.16029
 H3940 H 0.58374 0.76867 0.14588
 H3941 H 0.56391 0.73829 0.18828
 H3942 H 0.59205 0.74057 0.20274
 H3943 H 0.64409 0.76961 0.22793
 H3944 H 0.67305 0.76938 0.24065
 H3945 H 0.69273 0.74438 0.19462
 H3946 H 0.66372 0.74473 0.18214
 C3947 C 0.10117 0.25389 0.68255
 C3948 C 0.08659 0.26168 0.68979
 C3949 C 0.07054 0.26027 0.68160
 C3950 C 0.06875 0.25111 0.66583
 C3951 C 0.08367 0.24305 0.65897
 C3952 C 0.09962 0.24447 0.66723
 C3953 C 0.11783 0.25560 0.69061
 C3954 C 0.13201 0.25675 0.69692
 C3955 C 0.14916 0.25769 0.70402
 C3956 C 0.16309 0.25107 0.69460
 C3957 C 0.17970 0.25130 0.70162
 C3958 C 0.18263 0.25815 0.71824
 C3959 C 0.16856 0.26507 0.72749
 C3960 C 0.15194 0.26481 0.72042
 H3961 H 0.08767 0.26906 0.70166
 H3962 H 0.05984 0.26716 0.68734
 H3963 H 0.08313 0.23512 0.64747
 H3964 H 0.11080 0.23818 0.66163
 H3965 H 0.16108 0.24554 0.68188
 H3966 H 0.19019 0.24588 0.69412
 H3967 H 0.17032 0.27045 0.74029
 H3968 H 0.14124 0.26999 0.72782
 C3969 C 0.90128 0.24823 0.68457
 C3970 C 0.90752 0.26375 0.67769
 C3971 C 0.92365 0.26428 0.66951
 C3972 C 0.93371 0.24924 0.66806
 C3973 C 0.92746 0.23380 0.67537
 C3974 C 0.91136 0.23330 0.68355
 C3975 C 0.88428 0.24743 0.69213
 C3976 C 0.86994 0.24671 0.69820
 C3977 C 0.85270 0.24594 0.70520
 C3978 C 0.83890 0.25277 0.69583
 C3979 C 0.82220 0.25245 0.70271
 C3980 C 0.81904 0.24529 0.71912
 C3981 C 0.83298 0.23820 0.72832
 C3982 C 0.84969 0.23854 0.72140
 H3983 H 0.89980 0.27538 0.67837
 H3984 H 0.92800 0.27632 0.66385
 H3985 H 0.93500 0.22206 0.67467
 H3986 H 0.90669 0.22123 0.68887
 H3987 H 0.84108 0.25849 0.68326
 H3988 H 0.81182 0.25802 0.69524
 H3989 H 0.83105 0.23260 0.74098
 H3990 H 0.86027 0.23318 0.72875
 C3991 C 0.40314 0.74850 0.18380
 C3992 C 0.41326 0.73356 0.18354
 C3993 C 0.42951 0.73377 0.17566
 C3994 C 0.43587 0.74894 0.16789
 C3995 C 0.42578 0.76401 0.16858
 C3996 C 0.40950 0.76376 0.17646
 C3997 C 0.38601 0.74796 0.19106
 C3998 C 0.37157 0.74739 0.19690
 C3999 C 0.35424 0.74671 0.20366
 C4000 C 0.35106 0.73965 0.21998
 C4001 C 0.33424 0.73919 0.22661
 C4002 C 0.32035 0.74582 0.21698
 C4003 C 0.32370 0.75272 0.20050
 C4004 C 0.34052 0.75316 0.19392
 H4005 H 0.40849 0.72169 0.18922
 H4006 H 0.43708 0.72204 0.17555
 H4007 H 0.43022 0.77582 0.16255
 H4008 H 0.40175 0.77539 0.17654
 H4009 H 0.36158 0.73458 0.22762
 H4010 H 0.33217 0.73379 0.23932
 H4011 H 0.31336 0.75794 0.19273
 H4012 H 0.34283 0.75862 0.18125
 C4013 C 0.39678 0.25857 0.31643
 C4014 C 0.39975 0.26874 0.33110
 C4015 C 0.41555 0.26782 0.33973
 C4016 C 0.42862 0.25666 0.33383
 C4017 C 0.42563 0.24671 0.31888
 C4018 C 0.40979 0.24764 0.31026
 C4019 C 0.38014 0.25889 0.30816
 C4020 C 0.36603 0.25897 0.30159
 C4021 C 0.34902 0.25875 0.29412
 C4022 C 0.34628 0.26523 0.27750
 C4023 C 0.32979 0.26453 0.27014
 C4024 C 0.31582 0.25728 0.27932
 C4025 C 0.31871 0.25102 0.29612
 C4026 C 0.33518 0.25175 0.30343
 H4027 H 0.38978 0.27726 0.33597
 H4028 H 0.41754 0.27586 0.35104
 H4029 H 0.43537 0.23788 0.31412
 H4030 H 0.40760 0.23964 0.29896
 H4031 H 0.35690 0.27069 0.27018
 H4032 H 0.32805 0.26947 0.25720
 H4033 H 0.30829 0.24538 0.30358
 H4034 H 0.33715 0.24672 0.31631
 C4035 C 0.90159 0.75428 0.81701
 C4036 C 0.91131 0.76950 0.81835
 C4037 C 0.92739 0.76935 0.82651
 C4038 C 0.93399 0.75396 0.83347
 C4039 C 0.92428 0.73864 0.83175
 C4040 C 0.90817 0.73882 0.82359
 C4041 C 0.88467 0.75465 0.80935
 C4042 C 0.87040 0.75502 0.80314
 C4043 C 0.85328 0.75536 0.79594
 C4044 C 0.85047 0.76249 0.77960
 C4045 C 0.83388 0.76244 0.77247
 C4046 C 0.81986 0.75523 0.78159
 C4047 C 0.82282 0.74833 0.79813
 C4048 C 0.83941 0.74840 0.80522
 H4049 H 0.90636 0.78153 0.81327
 H4050 H 0.93466 0.78131 0.82741
 H4051 H 0.92892 0.72663 0.83714
 H4052 H 0.90073 0.72697 0.82267
 H4053 H 0.86112 0.76795 0.77232
 H4054 H 0.83210 0.76786 0.75973
 H4055 H 0.81236 0.74268 0.80554
 H4056 H 0.84143 0.74288 0.81789
   
