data_POSCAR
  _audit_creation_date              2014-09-24
  _audit_creation_method            'ToBaCCo'
  _symmetry_space_group_name_H-M    'P1'
  _symmetry_Int_Tables_number       1
  _symmetry_cell_setting            triclinic
  loop_
  _symmetry_equiv_pos_as_xyz
 x,y,z
_cell_length_a 48.3894
_cell_length_b 48.6111
_cell_length_c 48.1200
_cell_angle_alpha 90.040900
_cell_angle_beta 89.942300
_cell_angle_gamma 89.292400
loop_
  _atom_site_label
  _atom_site_type_symbol
  _atom_site_fract_x
  _atom_site_fract_y
  _atom_site_fract_z
O1 O 0.23361 1.03922 0.02233
 O2 O 0.23023 0.98690 -0.03262
 O3 O 0.22843 0.98584 0.02147
 O4 O 0.23537 1.03991 -0.03129
 O5 O 0.28079 1.03475 -0.03043
 O6 O 0.27390 0.98195 0.02384
 O7 O 0.27552 0.98125 -0.03034
 O8 O 0.27914 1.03523 0.02308
 Cu9 Cu 0.22732 1.01336 -0.00512
 Cu10 Cu 0.28193 1.00765 -0.00334
 C11 C 0.25696 1.04656 0.03161
 C12 C 0.25228 0.97503 -0.04076
 C13 C 0.24999 0.97483 0.03179
 C14 C 0.25923 1.04667 -0.03971
 O15 O 0.75594 0.53337 0.52061
 O16 O 0.74630 0.48150 0.46634
 O17 O 0.75439 0.48007 0.52024
 O18 O 0.74959 0.53476 0.46716
 O19 O 0.79481 0.53214 0.46111
 O20 O 0.79966 0.47821 0.51443
 O21 O 0.79150 0.47844 0.46041
 O22 O 0.80116 0.53159 0.51434
 Cu23 Cu 0.74701 0.50751 0.49417
 Cu24 Cu 0.80133 0.50463 0.48687
 C25 C 0.78003 0.54152 0.52661
 C26 C 0.76714 0.47127 0.45397
 C27 C 0.77799 0.47025 0.52673
 C28 C 0.77152 0.54293 0.45536
 O29 O 0.71558 0.98448 1.01680
 O30 O 0.73122 1.03670 0.96400
 O31 O 0.72122 0.98435 0.96299
 O32 O 0.72626 1.03724 1.01766
 O33 O 0.77103 1.02873 1.02133
 O34 O 0.76559 0.97451 0.96816
 O35 O 0.77581 1.02721 0.96791
 O36 O 0.76021 0.97623 1.02223
 Cu37 Cu 0.71909 1.01155 0.99000
 Cu38 Cu 0.77261 1.00061 0.99538
 C39 C 0.73520 0.97148 1.02860
 C40 C 0.75613 1.04090 0.95699
 C41 C 0.74255 0.97036 0.95634
 C42 C 0.74965 1.04243 1.02838
 O43 O 0.24033 0.48507 0.52497
 O44 O 0.24501 0.54202 0.47448
 O45 O 0.23584 0.48943 0.47082
 O46 O 0.24778 0.53782 0.52830
 O47 O 0.29286 0.53124 0.52429
 O48 O 0.28075 0.48155 0.46742
 O49 O 0.28997 0.53441 0.47076
 O50 O 0.28546 0.47847 0.52173
 Cu51 Cu 0.23771 0.51419 0.49994
 Cu52 Cu 0.29174 0.50551 0.49559
 C53 C 0.26231 0.47245 0.53231
 C54 C 0.26842 0.54801 0.46425
 C55 C 0.25616 0.47730 0.45927
 C56 C 0.27229 0.54294 0.53599
 O57 O 1.02628 0.24425 0.02626
 O58 O 0.97186 0.25263 -0.02622
 O59 O 0.97288 0.24674 0.02727
 O60 O 1.02542 0.24722 -0.02873
 O61 O 1.02280 0.20201 -0.03177
 O62 O 0.97015 0.20158 0.02323
 O63 O 0.96930 0.20754 -0.03078
 O64 O 1.02352 0.19907 0.02306
 Cu65 Cu 0.99963 0.25221 -0.00006
 Cu66 Cu 0.99632 0.19806 -0.00453
 C67 C 1.03348 0.22040 0.03441
 C68 C 0.96127 0.23168 -0.03749
 C69 C 0.96271 0.22391 0.03480
 C70 C 1.03260 0.22460 -0.04014
 O71 O 0.53068 0.76808 0.54817
 O72 O 0.48014 0.78123 0.49240
 O73 O 0.47746 0.77437 0.54541
 O74 O 0.53408 0.77629 0.49458
 O75 O 0.52998 0.73168 0.48720
 O76 O 0.47418 0.72942 0.53955
 O77 O 0.47621 0.73643 0.48616
 O78 O 0.52734 0.72335 0.54108
 Cu79 Cu 0.50617 0.77949 0.52071
 Cu80 Cu 0.50170 0.72570 0.51272
 C81 C 0.53729 0.74346 0.55437
 C82 C 0.46916 0.76096 0.48019
 C83 C 0.46623 0.75164 0.55119
 C84 C 0.54151 0.75447 0.48203
 O85 O 0.02980 0.71955 -0.00861
 O86 O -0.02463 0.72376 0.04432
 O87 O -0.02440 0.72400 -0.00978
 O88 O 0.02866 0.72209 0.04537
 O89 O 0.03075 0.76743 0.04384
 O90 O -0.02242 0.76934 -0.01036
 O91 O -0.02290 0.76916 0.04351
 O92 O 0.03174 0.76486 -0.01017
 Cu93 Cu 0.00216 0.71779 0.01770
 Cu94 Cu 0.00452 0.77224 0.01644
 C95 C 0.04040 0.74131 -0.01814
 C96 C -0.03288 0.74702 0.05313
 C97 C -0.03283 0.74714 -0.01904
 C98 C 0.03858 0.74459 0.05408
 O99 O 0.52910 0.29753 0.47888
 O100 O 0.46868 0.29753 0.52542
 O101 O 0.52218 0.29210 0.53224
 O102 O 0.47515 0.30140 0.47243
 O103 O 0.47306 0.25628 0.46771
 O104 O 0.51844 0.24703 0.52824
 O105 O 0.46542 0.25250 0.52043
 O106 O 0.52671 0.25238 0.47487
 Cu107 Cu 0.49921 0.30167 0.50264
 Cu108 Cu 0.49581 0.24752 0.49731
 C109 C 0.53840 0.27497 0.46921
 C110 C 0.45639 0.27514 0.53034
 C111 C 0.52818 0.26790 0.54045
 C112 C 0.46556 0.28032 0.46036
 O113 O 1.01114 0.02488 0.22678
 O114 O 0.96380 -0.03328 0.23585
 O115 O 0.95846 0.01941 0.23481
 O116 O 1.01667 -0.02890 0.22628
 O117 O 1.02458 -0.02756 0.27146
 O118 O 0.96503 0.01984 0.28022
 O119 O 0.97203 -0.03319 0.28097
 O120 O 1.01809 0.02583 0.27211
 Cu121 Cu 0.98698 -0.00459 0.22634
 Cu122 Cu 0.99578 -0.00363 0.28073
 C123 C 1.02246 0.03544 0.24799
 C124 C 0.95963 -0.04298 0.26002
 C125 C 0.95151 0.02753 0.25892
 C126 C 1.03049 -0.03655 0.24734
 O127 O 0.52134 0.51706 0.70884
 O128 O 0.47329 0.45867 0.71350
 O129 O 0.46792 0.51162 0.71390
 O130 O 0.52622 0.46330 0.70555
 O131 O 0.53246 0.46239 0.75100
 O132 O 0.47295 0.51026 0.75949
 O133 O 0.47979 0.45717 0.75893
 O134 O 0.52672 0.51579 0.75437
 Cu135 Cu 0.49678 0.48785 0.70588
 Cu136 Cu 0.50363 0.48646 0.76050
 C137 C 0.53222 0.52633 0.73092
 C138 C 0.46839 0.44805 0.73713
 C139 C 0.46009 0.51874 0.73802
 C140 C 0.53908 0.45435 0.72670
 O141 O 0.96914 1.01001 0.73889
 O142 O 1.02929 0.96391 0.73400
 O143 O 0.97662 0.95683 0.73992
 O144 O 1.02226 1.01737 0.73779
 O145 O 1.02435 1.01673 0.78363
 O146 O 0.98056 0.95593 0.78565
 O147 O 1.03305 0.96322 0.77974
 O148 O 0.97117 1.00890 0.78468
 Cu149 Cu 0.99910 0.98716 0.73310
 Cu150 Cu 1.00269 0.98623 0.78797
 C151 C 0.95972 1.01736 0.76240
 C152 C 1.04113 0.95525 0.75582
 C153 C 0.97118 0.94594 0.76331
 C154 C 1.03066 1.02757 0.76060
 O155 O 0.45919 0.51783 0.20135
 O156 O 0.51772 0.46909 0.19926
 O157 O 0.46497 0.46513 0.20763
 O158 O 0.51238 0.52287 0.19542
 O159 O 0.51813 0.52676 0.24076
 O160 O 0.47071 0.46991 0.25293
 O161 O 0.52312 0.47341 0.24463
 O162 O 0.46488 0.52283 0.24662
 Cu163 Cu 0.48813 0.49332 0.19631
 Cu164 Cu 0.49483 0.49882 0.25076
 C165 C 0.45204 0.52860 0.22429
 C166 C 0.52996 0.46245 0.22160
 C167 C 0.45991 0.45771 0.23244
 C168 C 0.52324 0.53470 0.21620
 O169 O 0.24123 0.18044 0.21568
 O170 O 0.27587 0.17376 0.25051
 O171 O 0.17161 0.21225 0.25975
 O172 O 0.16294 0.24694 0.28847
 O173 O 0.19891 0.25359 0.18470
 O174 O 0.23543 0.28049 0.17202
 O175 O 0.24905 0.29010 0.32480
 O176 O 0.21912 0.25392 0.33605
 O177 O 0.31685 0.25463 0.28445
 O178 O 0.32450 0.22611 0.24563
 O179 O 0.27671 0.32446 0.25112
 O180 O 0.23499 0.32918 0.22101
 O181 O 0.24446 0.32359 0.29201
 O182 O 0.20709 0.32990 0.25761
 O183 O 0.31131 0.29260 0.24756
 O184 O 0.31708 0.25240 0.21394
 O185 O 0.28720 0.25498 0.32117
 O186 O 0.25054 0.22098 0.33268
 O187 O 0.23772 0.21325 0.18208
 O188 O 0.26782 0.25284 0.17244
 O189 O 0.16781 0.25006 0.22000
 O190 O 0.16370 0.28254 0.25998
 O191 O 0.20754 0.17935 0.25857
 O192 O 0.24910 0.17381 0.28498
 Zr193 Zr 0.24316 0.20293 0.25284
 O194 O 0.27047 0.22729 0.27586
 Zr195 Zr 0.19267 0.24971 0.25637
 O196 O 0.21758 0.27567 0.28088
 Zr197 Zr 0.23748 0.25083 0.20404
 O198 O 0.26338 0.27793 0.22557
 Zr199 Zr 0.24762 0.25288 0.30272
 O200 O 0.22005 0.22642 0.28155
 Zr201 Zr 0.29123 0.25451 0.24943
 O202 O 0.26692 0.22723 0.22585
 Zr203 Zr 0.24048 0.30130 0.25455
 O204 O 0.21381 0.27689 0.23010
 O205 O 0.21454 0.22469 0.22902
 O206 O 0.26989 0.27948 0.27757
 C207 C 0.23940 0.18808 0.19023
 C208 C 0.18030 0.18552 0.26079
 C209 C 0.17419 0.25261 0.19412
 C210 C 0.24789 0.31541 0.31723
 C211 C 0.31163 0.25510 0.31055
 C212 C 0.30219 0.31751 0.24822
 H213 H 0.28355 0.21518 0.28599
 H214 H 0.27270 0.28993 0.21196
 H215 H 0.20203 0.21265 0.21838
 H216 H 0.20593 0.28630 0.29403
 H217 H 0.20423 0.24099 0.33120
 H218 H 0.16998 0.25752 0.30447
 H219 H 0.31331 0.26889 0.20247
 H220 H 0.28150 0.23800 0.17621
 H221 H 0.26695 0.20943 0.32830
 H222 H 0.23724 0.17985 0.30068
 H223 H 0.24136 0.34766 0.22677
 H224 H 0.22745 0.29734 0.18051
 H225 H 0.28859 0.18023 0.23584
 H226 H 0.31980 0.20977 0.25683
 H227 H 0.16725 0.29530 0.24439
 H228 H 0.19651 0.32596 0.27470
 O229 O 0.72923 0.83401 0.21488
 O230 O 0.69769 0.83603 0.25351
 O231 O 0.80259 0.80076 0.25158
 O232 O 0.81521 0.76331 0.27510
 O233 O 0.77218 0.76826 0.17407
 O234 O 0.73583 0.73718 0.16258
 O235 O 0.73488 0.71367 0.31263
 O236 O 0.76433 0.75076 0.32488
 O237 O 0.66227 0.74965 0.28250
 O238 O 0.65193 0.78486 0.24643
 O239 O 0.70156 0.68563 0.24110
 O240 O 0.73787 0.68632 0.20430
 O241 O 0.73754 0.68420 0.27588
 O242 O 0.77124 0.68324 0.23700
 O243 O 0.66470 0.71742 0.24086
 O244 O 0.65458 0.75917 0.21355
 O245 O 0.69509 0.74835 0.31629
 O246 O 0.73039 0.78078 0.32894
 O247 O 0.73115 0.80464 0.17803
 O248 O 0.70308 0.76555 0.16592
 O249 O 0.80515 0.76682 0.20777
 O250 O 0.81362 0.73132 0.24340
 O251 O 0.76721 0.83200 0.25365
 O252 O 0.72810 0.83417 0.28496
 Zr253 Zr 0.73135 0.80813 0.24987
 O254 O 0.70688 0.78059 0.27266
 Zr255 Zr 0.78310 0.76288 0.24531
 O256 O 0.76109 0.73360 0.26840
 Zr257 Zr 0.73477 0.76527 0.19614
 O258 O 0.71091 0.73561 0.21686
 Zr259 Zr 0.73255 0.75320 0.29480
 O260 O 0.75717 0.78285 0.27449
 Zr261 Zr 0.68457 0.75546 0.24538
 O262 O 0.70634 0.78547 0.22250
 Zr263 Zr 0.73676 0.71034 0.24115
 O264 O 0.76109 0.73779 0.21767
 O265 O 0.75859 0.78955 0.22207
 O266 O 0.70891 0.72859 0.26881
 C267 C 0.72946 0.82889 0.18869
 C268 C 0.79302 0.82543 0.25398
 C269 C 0.79744 0.76834 0.18224
 C270 C 0.73654 0.68939 0.30203
 C271 C 0.66989 0.74746 0.30797
 C272 C 0.67416 0.69089 0.24045
 H273 H 0.69443 0.79114 0.28510
 H274 H 0.70065 0.72454 0.20315
 H275 H 0.76971 0.80307 0.21170
 H276 H 0.77416 0.72204 0.27918
 H277 H 0.77744 0.76566 0.32061
 H278 H 0.80969 0.75105 0.29047
 H279 H 0.65980 0.74624 0.19850
 H280 H 0.68810 0.77759 0.17320
 H281 H 0.71585 0.79471 0.32505
 H282 H 0.74165 0.82717 0.29872
 H283 H 0.73373 0.66694 0.20909
 H284 H 0.74915 0.72246 0.16778
 H285 H 0.68361 0.82998 0.23998
 H286 H 0.65464 0.79673 0.26288
 H287 H 0.80943 0.71990 0.22692
 H288 H 0.78317 0.68534 0.25352
 O289 O 0.75662 0.17463 0.76821
 O290 O 0.72685 0.16992 0.72967
 O291 O 0.83153 0.20133 0.72527
 O292 O 0.84485 0.23731 0.70049
 O293 O 0.80444 0.24064 0.80229
 O294 O 0.76941 0.27432 0.81245
 O295 O 0.76252 0.28583 0.66097
 O296 O 0.79192 0.24744 0.65085
 O297 O 0.69141 0.25579 0.69621
 O298 O 0.68152 0.22412 0.73542
 O299 O 0.73217 0.32074 0.73326
 O300 O 0.77232 0.32139 0.76674
 O301 O 0.76732 0.31833 0.69470
 O302 O 0.80170 0.32231 0.73113
 O303 O 0.69613 0.29120 0.73426
 O304 O 0.68582 0.25223 0.76592
 O305 O 0.72323 0.25345 0.66145
 O306 O 0.75794 0.21752 0.65087
 O307 O 0.76212 0.20633 0.80255
 O308 O 0.73578 0.24781 0.81232
 O309 O 0.83635 0.23702 0.76768
 O310 O 0.84397 0.27088 0.72977
 O311 O 0.79600 0.17134 0.72947
 O312 O 0.75672 0.16869 0.69817
 Zr313 Zr 0.76058 0.19709 0.73119
 O314 O 0.73571 0.22371 0.70709
 Zr315 Zr 0.81314 0.24034 0.73068
 O316 O 0.79079 0.26862 0.70593
 Zr317 Zr 0.76646 0.24390 0.78120
 O318 O 0.74238 0.27281 0.75892
 Zr319 Zr 0.76117 0.24813 0.68212
 O320 O 0.78607 0.21930 0.70395
 Zr321 Zr 0.71479 0.25192 0.73292
 O322 O 0.73688 0.22295 0.75739
 Zr323 Zr 0.76767 0.29520 0.73179
 O324 O 0.79240 0.26859 0.75669
 O325 O 0.78895 0.21648 0.75669
 O326 O 0.73880 0.27578 0.70665
 C327 C 0.75785 0.18171 0.79387
 C328 C 0.82175 0.17692 0.72642
 C329 C 0.82941 0.23788 0.79347
 C330 C 0.76472 0.31084 0.66917
 C331 C 0.69837 0.25624 0.67043
 C332 C 0.70625 0.31550 0.73423
 H333 H 0.72266 0.21280 0.69596
 H334 H 0.73283 0.28522 0.77221
 H335 H 0.79981 0.20310 0.76784
 H336 H 0.80358 0.27871 0.69371
 H337 H 0.80521 0.23260 0.65587
 H338 H 0.83855 0.24775 0.68400
 H339 H 0.69122 0.26677 0.77917
 H340 H 0.72010 0.23636 0.80632
 H341 H 0.74224 0.20556 0.65554
 H342 H 0.77034 0.17404 0.68386
 H343 H 0.76640 0.34032 0.76158
 H344 H 0.78307 0.28780 0.80582
 H345 H 0.71218 0.17823 0.74143
 H346 H 0.68294 0.21137 0.71944
 H347 H 0.84036 0.28336 0.74567
 H348 H 0.81449 0.31630 0.71624
 O349 O 0.26363 0.81144 0.80766
 O350 O 0.29648 0.81503 0.77031
 O351 O 0.19092 0.78540 0.76410
 O352 O 0.18052 0.75023 0.73502
 O353 O 0.21473 0.74568 0.83974
 O354 O 0.24945 0.71135 0.85105
 O355 O 0.26162 0.69903 0.70062
 O356 O 0.23257 0.73824 0.68975
 O357 O 0.33196 0.72964 0.73796
 O358 O 0.34006 0.76264 0.77713
 O359 O 0.29088 0.66540 0.77282
 O360 O 0.24974 0.66507 0.80659
 O361 O 0.25493 0.66727 0.73465
 O362 O 0.22160 0.66283 0.77034
 O363 O 0.32622 0.69542 0.77742
 O364 O 0.33572 0.73464 0.80737
 O365 O 0.30145 0.73264 0.70215
 O366 O 0.26805 0.76624 0.68913
 O367 O 0.25828 0.77955 0.84183
 O368 O 0.28247 0.73807 0.85326
 O369 O 0.18443 0.74884 0.80369
 O370 O 0.17756 0.71636 0.76601
 O371 O 0.22708 0.81475 0.76717
 O372 O 0.26723 0.81764 0.73813
 Zr373 Zr 0.26198 0.78877 0.77050
 O374 O 0.28729 0.76197 0.74711
 Zr375 Zr 0.20926 0.74597 0.76792
 O376 O 0.23246 0.71701 0.74462
 Zr377 Zr 0.25379 0.74211 0.82036
 O378 O 0.27906 0.71337 0.79916
 Zr379 Zr 0.26279 0.73716 0.72148
 O380 O 0.23752 0.76666 0.74221
 Zr381 Zr 0.30739 0.73423 0.77389
 O382 O 0.28439 0.76300 0.79773
 Zr383 Zr 0.25493 0.69070 0.77134
 O384 O 0.22888 0.71755 0.79473
 O385 O 0.23257 0.76957 0.79493
 O386 O 0.28456 0.70986 0.74689
 C387 C 0.26215 0.80425 0.83332
 C388 C 0.20122 0.80970 0.76480
 C389 C 0.19016 0.74809 0.82972
 C390 C 0.25816 0.67421 0.70912
 C391 C 0.32598 0.72983 0.71196
 C392 C 0.31661 0.67105 0.77592
 H393 H 0.30063 0.77283 0.73626
 H394 H 0.28825 0.70115 0.81283
 H395 H 0.22136 0.78292 0.80581
 H396 H 0.22000 0.70669 0.73226
 H397 H 0.22003 0.75397 0.69393
 H398 H 0.18575 0.73682 0.72042
 H399 H 0.32921 0.72139 0.82145
 H400 H 0.29895 0.74865 0.84777
 H401 H 0.28007 0.78097 0.69617
 H402 H 0.25437 0.81237 0.72311
 H403 H 0.25695 0.64639 0.80212
 H404 H 0.23506 0.69868 0.84433
 H405 H 0.30963 0.80753 0.78419
 H406 H 0.33958 0.77459 0.76051
 H407 H 0.18100 0.70311 0.78128
 H408 H 0.20774 0.67007 0.75707
 O409 O 0.23452 0.32204 0.69767
 O410 O 0.20566 0.32932 0.73794
 O411 O 0.30955 0.29099 0.73366
 O412 O 0.32151 0.25685 0.76262
 O413 O 0.27490 0.25093 0.66310
 O414 O 0.23635 0.21956 0.65735
 O415 O 0.24210 0.21282 0.80812
 O416 O 0.27471 0.25026 0.81392
 O417 O 0.16979 0.24870 0.77905
 O418 O 0.15871 0.28004 0.73919
 O419 O 0.20446 0.17866 0.73822
 O420 O 0.24186 0.17527 0.70265
 O421 O 0.24065 0.17975 0.77462
 O422 O 0.27325 0.17258 0.73661
 O423 O 0.16875 0.21161 0.74077
 O424 O 0.15790 0.25022 0.71009
 O425 O 0.20476 0.25065 0.81050
 O426 O 0.24052 0.28049 0.81826
 O427 O 0.23367 0.28860 0.66458
 O428 O 0.20569 0.24966 0.65768
 O429 O 0.30911 0.25061 0.69556
 O430 O 0.31868 0.22120 0.73453
 O431 O 0.27511 0.32330 0.73419
 O432 O 0.23805 0.33069 0.76688
 Zr433 Zr 0.23850 0.30033 0.73538
 O434 O 0.21476 0.27632 0.76268
 Zr435 Zr 0.28867 0.25329 0.73388
 O436 O 0.26705 0.22713 0.76084
 Zr437 Zr 0.23815 0.25168 0.68695
 O438 O 0.21419 0.22570 0.71215
 Zr439 Zr 0.24070 0.25045 0.78631
 O440 O 0.26477 0.27722 0.76167
 Zr441 Zr 0.18999 0.24919 0.73995
 O442 O 0.21151 0.27543 0.71233
 Zr443 Zr 0.24055 0.20211 0.73747
 O444 O 0.26471 0.22603 0.71027
 O445 O 0.26389 0.27794 0.70861
 O446 O 0.21479 0.22398 0.76467
 C447 C 0.23268 0.31387 0.67232
 C448 C 0.30073 0.31606 0.73376
 C449 C 0.30048 0.24974 0.67041
 C450 C 0.24143 0.18758 0.80005
 C451 C 0.17910 0.24983 0.80409
 C452 C 0.17725 0.18481 0.73918
 H453 H 0.20352 0.28868 0.77460
 H454 H 0.20289 0.21380 0.70009
 H455 H 0.27472 0.28973 0.69598
 H456 H 0.28021 0.21629 0.77222
 H457 H 0.28694 0.26542 0.80814
 H458 H 0.31709 0.24522 0.77884
 H459 H 0.16224 0.23614 0.69585
 H460 H 0.19036 0.26110 0.66521
 H461 H 0.23064 0.29692 0.81112
 H462 H 0.25273 0.32548 0.78027
 H463 H 0.23609 0.15661 0.70846
 H464 H 0.25130 0.20629 0.66205
 H465 H 0.19078 0.32241 0.72579
 H466 H 0.16236 0.29309 0.75449
 H467 H 0.31216 0.20674 0.72171
 H468 H 0.28620 0.17655 0.75193
 O469 O 0.76067 0.66362 0.72340
 O470 O 0.79207 0.65621 0.76109
 O471 O 0.68756 0.69529 0.76208
 O472 O 0.67793 0.72866 0.79244
 O473 O 0.71999 0.73650 0.69080
 O474 O 0.75753 0.76478 0.68154
 O475 O 0.76069 0.77219 0.83431
 O476 O 0.72969 0.73588 0.84288
 O477 O 0.83102 0.73617 0.79881
 O478 O 0.84111 0.70812 0.75980
 O479 O 0.79372 0.80682 0.76346
 O480 O 0.75431 0.81171 0.72991
 O481 O 0.75793 0.80576 0.80143
 O482 O 0.72437 0.81311 0.76464
 O483 O 0.82846 0.77497 0.76167
 O484 O 0.83659 0.73515 0.72854
 O485 O 0.79874 0.73551 0.83318
 O486 O 0.76139 0.70319 0.84203
 O487 O 0.75957 0.69691 0.69017
 O488 O 0.78929 0.73634 0.68271
 O489 O 0.68686 0.73488 0.72434
 O490 O 0.67983 0.76516 0.76448
 O491 O 0.72321 0.66210 0.76305
 O492 O 0.76239 0.65594 0.79309
 Zr493 Zr 0.75943 0.68553 0.76101
 O494 O 0.78513 0.70951 0.78627
 Zr495 Zr 0.70919 0.73255 0.76196
 O496 O 0.73244 0.75821 0.78822
 Zr497 Zr 0.75736 0.73411 0.71265
 O498 O 0.78204 0.76066 0.73626
 Zr499 Zr 0.76068 0.73500 0.81186
 O500 O 0.73462 0.70875 0.78854
 Zr501 Zr 0.80803 0.73692 0.76187
 O502 O 0.78515 0.71014 0.73620
 Zr503 Zr 0.75728 0.78383 0.76375
 O504 O 0.73208 0.75989 0.73743
 O505 O 0.73265 0.70782 0.73563
 O506 O 0.78491 0.76176 0.78874
 C507 C 0.76089 0.67164 0.69800
 C508 C 0.69588 0.66847 0.76292
 C509 C 0.69474 0.73693 0.69889
 C510 C 0.75946 0.79753 0.82678
 C511 C 0.82386 0.73551 0.82445
 C512 C 0.81932 0.79990 0.76206
 H513 H 0.79733 0.69712 0.79711
 H514 H 0.79235 0.77274 0.72350
 H515 H 0.72098 0.69605 0.72377
 H516 H 0.71993 0.76882 0.80057
 H517 H 0.71540 0.72267 0.83703
 H518 H 0.68325 0.74013 0.80851
 H519 H 0.83326 0.75141 0.71660
 H520 H 0.80341 0.72236 0.68792
 H521 H 0.77644 0.69009 0.83721
 H522 H 0.74909 0.66170 0.80768
 H523 H 0.76092 0.83002 0.73592
 H524 H 0.74683 0.78058 0.68907
 H525 H 0.80603 0.66283 0.74768
 H526 H 0.83584 0.69200 0.77105
 H527 H 0.68486 0.77877 0.75011
 H528 H 0.71172 0.80836 0.78000
 O529 O 0.25946 0.69280 0.28558
 O530 O 0.23060 0.68985 0.24556
 O531 O 0.33450 0.72483 0.24882
 O532 O 0.34581 0.76193 0.22382
 O533 O 0.30351 0.75896 0.32533
 O534 O 0.26612 0.79003 0.33649
 O535 O 0.26503 0.81154 0.18640
 O536 O 0.29607 0.77420 0.17495
 O537 O 0.19341 0.77430 0.21616
 O538 O 0.18383 0.74091 0.25390
 O539 O 0.22992 0.83981 0.25869
 O540 O 0.26811 0.83961 0.29465
 O541 O 0.26778 0.84150 0.22267
 O542 O 0.29916 0.84429 0.26101
 O543 O 0.19524 0.80881 0.25618
 O544 O 0.18496 0.76830 0.28498
 O545 O 0.22652 0.77688 0.18273
 O546 O 0.26221 0.74474 0.17036
 O547 O 0.26239 0.72249 0.32204
 O548 O 0.23434 0.76180 0.33376
 O549 O 0.33638 0.75878 0.29147
 O550 O 0.34431 0.79402 0.25633
 O551 O 0.29980 0.69368 0.24739
 O552 O 0.26166 0.69097 0.21561
 Zr553 Zr 0.26343 0.71778 0.25016
 O554 O 0.23864 0.74502 0.22681
 Zr555 Zr 0.31416 0.76286 0.25422
 O556 O 0.29161 0.79209 0.23094
 Zr557 Zr 0.26588 0.76147 0.30333
 O558 O 0.24122 0.79067 0.28214
 Zr559 Zr 0.26381 0.77222 0.20455
 O560 O 0.28883 0.74262 0.22526
 Zr561 Zr 0.21558 0.77049 0.25362
 O562 O 0.23796 0.74099 0.27714
 Zr563 Zr 0.26647 0.81581 0.25771
 O564 O 0.29157 0.78857 0.28139
 O565 O 0.29015 0.73653 0.27787
 O566 O 0.23935 0.79720 0.22998
 C567 C 0.25946 0.69830 0.31168
 C568 C 0.32548 0.70018 0.24696
 C569 C 0.32877 0.75811 0.31700
 C570 C 0.26673 0.83593 0.19661
 C571 C 0.20125 0.77663 0.19075
 C572 C 0.20426 0.83347 0.25801
 H573 H 0.22657 0.73424 0.21447
 H574 H 0.23061 0.80180 0.29577
 H575 H 0.30120 0.72298 0.28863
 H576 H 0.30449 0.80353 0.22014
 H577 H 0.30911 0.75890 0.17920
 H578 H 0.34065 0.77526 0.20914
 H579 H 0.18977 0.78159 0.29973
 H580 H 0.21893 0.75101 0.32600
 H581 H 0.24935 0.72983 0.17512
 H582 H 0.27514 0.69784 0.20184
 H583 H 0.26143 0.85856 0.29057
 H584 H 0.27969 0.80428 0.33151
 H585 H 0.21587 0.69601 0.25851
 H586 H 0.18643 0.72894 0.23744
 H587 H 0.33941 0.80592 0.27234
 H588 H 0.31331 0.83940 0.24696
 O589 O 0.75374 0.31873 0.28890
 O590 O 0.78185 0.32543 0.24806
 O591 O 0.67711 0.29281 0.25111
 O592 O 0.66376 0.25886 0.22296
 O593 O 0.71042 0.24961 0.32216
 O594 O 0.74760 0.21567 0.32688
 O595 O 0.74168 0.21211 0.17617
 O596 O 0.71026 0.25176 0.17134
 O597 O 0.81528 0.24510 0.20616
 O598 O 0.82692 0.27447 0.24711
 O599 O 0.78007 0.17589 0.24278
 O600 O 0.74360 0.17253 0.28072
 O601 O 0.73972 0.17861 0.20916
 O602 O 0.71107 0.17153 0.24836
 O603 O 0.81490 0.20682 0.24140
 O604 O 0.82733 0.24316 0.27461
 O605 O 0.78053 0.24805 0.17450
 O606 O 0.74573 0.27966 0.16704
 O607 O 0.75334 0.28466 0.32130
 O608 O 0.77936 0.24394 0.32742
 O609 O 0.67622 0.25262 0.28983
 O610 O 0.66576 0.22347 0.25077
 O611 O 0.71251 0.32315 0.25263
 O612 O 0.74905 0.32951 0.22024
 Zr613 Zr 0.74818 0.29824 0.25074
 O614 O 0.77101 0.27369 0.22271
 Zr615 Zr 0.69674 0.25388 0.25144
 O616 O 0.71767 0.22702 0.22402
 Zr617 Zr 0.74709 0.24860 0.29817
 O618 O 0.77054 0.22206 0.27238
 Zr619 Zr 0.74445 0.24938 0.19865
 O620 O 0.72128 0.27695 0.22402
 Zr621 Zr 0.79501 0.24513 0.24501
 O622 O 0.77432 0.27160 0.27334
 Zr623 Zr 0.74374 0.20016 0.24659
 O624 O 0.71998 0.22477 0.27426
 O625 O 0.72218 0.27678 0.27717
 O626 O 0.76971 0.22145 0.21970
 C627 C 0.75575 0.30991 0.31402
 C628 C 0.68675 0.31735 0.25183
 C629 C 0.68480 0.25055 0.31495
 C630 C 0.73957 0.18683 0.18385
 C631 C 0.80616 0.24653 0.18111
 C632 C 0.80572 0.18223 0.24102
 H633 H 0.78252 0.28574 0.21104
 H634 H 0.78169 0.20934 0.28399
 H635 H 0.71182 0.28907 0.28999
 H636 H 0.70403 0.21701 0.21270
 H637 H 0.69870 0.26760 0.17748
 H638 H 0.66822 0.24766 0.20635
 H639 H 0.82330 0.22800 0.28763
 H640 H 0.79548 0.25359 0.31957
 H641 H 0.75506 0.29588 0.17485
 H642 H 0.73460 0.32502 0.20646
 H643 H 0.75019 0.15418 0.27431
 H644 H 0.73230 0.20336 0.32166
 H645 H 0.79644 0.31799 0.26045
 H646 H 0.82390 0.28792 0.23197
 H647 H 0.67130 0.20913 0.26434
 H648 H 0.69602 0.17834 0.23620
 C649 C 0.25864 0.06894 0.05195
 C650 C 0.23510 0.08054 0.06407
 C651 C 0.23654 0.10407 0.08329
 C652 C 0.21773 0.10584 0.10537
 C653 C 0.21904 0.12760 0.12424
 C654 C 0.23888 0.14822 0.12094
 C655 C 0.25688 0.14713 0.09814
 C656 C 0.25593 0.12506 0.07956
 C657 C 0.24105 0.17086 0.14112
 C658 C 0.23799 0.16610 0.16946
 H659 H 0.21516 0.07127 0.06048
 H660 H 0.20234 0.09011 0.10831
 H661 H 0.20443 0.12840 0.14129
 H662 H 0.27205 0.16305 0.09506
 H663 H 0.27014 0.12459 0.06217
 H664 H 0.24701 0.19102 0.13383
 H665 H 0.27888 0.07651 0.05740
 H666 H 0.23498 0.14529 0.17682
 C667 C 0.78355 0.56284 0.54791
 C668 C 0.76148 0.57128 0.56463
 C669 C 0.76369 0.59276 0.58615
 C670 C 0.74579 0.59187 0.60904
 C671 C 0.74684 0.61206 0.62961
 C672 C 0.76564 0.63377 0.62745
 C673 C 0.78304 0.63512 0.60419
 C674 C 0.78228 0.61465 0.58377
 C675 C 0.76670 0.65554 0.64878
 C676 C 0.76167 0.65003 0.67672
 H677 H 0.74195 0.56075 0.56284
 H678 H 0.73100 0.57544 0.61105
 H679 H 0.73254 0.61094 0.64687
 H680 H 0.79737 0.65192 0.60194
 H681 H 0.79576 0.61635 0.56592
 H682 H 0.77266 0.67605 0.64254
 H683 H 0.80388 0.57140 0.55091
 H684 H 0.75857 0.62902 0.68340
 C685 C 0.72885 0.95164 0.04844
 C686 C 0.74909 0.93794 0.06400
 C687 C 0.74230 0.91611 0.08412
 C688 C 0.75803 0.91345 0.10843
 C689 C 0.75253 0.89252 0.12747
 C690 C 0.73153 0.87348 0.12219
 C691 C 0.71616 0.87578 0.09759
 C692 C 0.72125 0.89711 0.07883
 C693 C 0.72662 0.85021 0.14121
 C694 C 0.72948 0.85275 0.16992
 H695 H 0.77043 0.94430 0.06252
 H696 H 0.77459 0.92764 0.11271
 H697 H 0.76524 0.89078 0.14591
 H698 H 0.70019 0.86106 0.09292
 H699 H 0.70927 0.89827 0.05988
 H700 H 0.72045 0.83071 0.13240
 H701 H 0.70729 0.94710 0.05212
 H702 H 0.73288 0.87286 0.17892
 C703 C 0.26155 0.45111 0.55389
 C704 C 0.23697 0.44090 0.56463
 C705 C 0.23674 0.42097 0.58781
 C706 C 0.21636 0.40072 0.58871
 C707 C 0.21611 0.38139 0.61024
 C708 C 0.23595 0.38240 0.63154
 C709 C 0.25563 0.40331 0.63120
 C710 C 0.25621 0.42229 0.60942
 C711 C 0.23647 0.36211 0.65439
 C712 C 0.22974 0.33461 0.65026
 H713 H 0.21750 0.44675 0.55508
 H714 H 0.20089 0.39961 0.57250
 H715 H 0.20021 0.36592 0.61037
 H716 H 0.27089 0.40468 0.64760
 H717 H 0.27167 0.43820 0.60972
 H718 H 0.24487 0.36836 0.67426
 H719 H 0.28112 0.44326 0.56165
 H720 H 0.22409 0.32761 0.62968
 C721 C 0.76249 0.06217 0.93633
 C722 C 0.74165 0.07584 0.92163
 C723 C 0.74714 0.09796 0.90142
 C724 C 0.72854 0.10213 0.87946
 C725 C 0.73285 0.12301 0.86010
 C726 C 0.75570 0.14042 0.86259
 C727 C 0.77385 0.13684 0.88503
 C728 C 0.76978 0.11564 0.90419
 C729 C 0.76052 0.16269 0.84236
 C730 C 0.75394 0.15973 0.81434
 H731 H 0.72047 0.06926 0.92410
 H732 H 0.71071 0.08906 0.87719
 H733 H 0.71801 0.12580 0.84349
 H734 H 0.79135 0.15029 0.88755
 H735 H 0.78401 0.11350 0.92140
 H736 H 0.77083 0.18112 0.84933
 H737 H 0.78396 0.06687 0.93247
 H738 H 0.74639 0.14020 0.80686
 C739 C 0.27116 0.57126 0.44502
 C740 C 0.24842 0.58465 0.43324
 C741 C 0.25158 0.60850 0.41456
 C742 C 0.23315 0.61216 0.39238
 C743 C 0.23611 0.63428 0.37411
 C744 C 0.25730 0.65343 0.37811
 C745 C 0.27506 0.65036 0.40092
 C746 C 0.27242 0.62796 0.41887
 C747 C 0.26092 0.67699 0.35915
 C748 C 0.25582 0.67500 0.33072
 H749 H 0.22793 0.57650 0.43649
 H750 H 0.21669 0.59763 0.38895
 H751 H 0.22161 0.63659 0.35714
 H752 H 0.29126 0.66511 0.40460
 H753 H 0.28644 0.62610 0.43630
 H754 H 0.26958 0.69573 0.36745
 H755 H 0.29183 0.57769 0.43962
 H756 H 0.24982 0.65546 0.32191
 C757 C 0.25055 0.95499 0.93869
 C758 C 0.27327 0.93912 0.93025
 C759 C 0.27082 0.91750 0.90892
 C760 C 0.28659 0.89325 0.91147
 C761 C 0.28409 0.87218 0.89190
 C762 C 0.26611 0.87532 0.86916
 C763 C 0.25112 0.89998 0.86607
 C764 C 0.25324 0.92083 0.88590
 C765 C 0.26322 0.85357 0.84804
 C766 C 0.26493 0.82568 0.85461
 H767 H 0.29284 0.94105 0.94098
 H768 H 0.30055 0.89046 0.92886
 H769 H 0.29652 0.85368 0.89435
 H770 H 0.23748 0.90296 0.84846
 H771 H 0.24141 0.93967 0.88302
 H772 H 0.25790 0.85968 0.82704
 H773 H 0.23046 0.95106 0.92968
 H774 H 0.26746 0.81934 0.87604
 C775 C 0.76239 0.45135 0.43160
 C776 C 0.78351 0.43556 0.41972
 C777 C 0.77801 0.41608 0.39687
 C778 C 0.79270 0.39108 0.39562
 C779 C 0.78712 0.37199 0.37467
 C780 C 0.76707 0.37789 0.35430
 C781 C 0.75322 0.40338 0.35490
 C782 C 0.75843 0.42223 0.37614
 C783 C 0.76072 0.35813 0.33195
 C784 C 0.76137 0.32978 0.33629
 H785 H 0.80410 0.43619 0.42851
 H786 H 0.80816 0.38612 0.41116
 H787 H 0.79873 0.35282 0.37423
 H788 H 0.73803 0.40851 0.33916
 H789 H 0.74736 0.44172 0.37613
 H790 H 0.75378 0.36613 0.31210
 H791 H 0.74132 0.44864 0.42465
 H792 H 0.76577 0.32179 0.35684
 C793 C 0.05273 0.21738 0.05805
 C794 C 0.06079 0.24025 0.07360
 C795 C 0.07765 0.23915 0.09935
 C796 C 0.08957 0.26361 0.10879
 C797 C 0.10549 0.26396 0.13295
 C798 C 0.10985 0.23978 0.14842
 C799 C 0.09710 0.21547 0.13969
 C800 C 0.08125 0.21506 0.11528
 C801 C 0.12841 0.23951 0.17297
 C802 C 0.15236 0.25515 0.17308
 H803 H 0.05441 0.26048 0.06640
 H804 H 0.08672 0.28258 0.09727
 H805 H 0.11437 0.28323 0.13953
 H806 H 0.09993 0.19664 0.15143
 H807 H 0.07173 0.19598 0.10921
 H808 H 0.12514 0.22461 0.18934
 H809 H 0.05937 0.19688 0.06394
 H810 H 0.15736 0.26704 0.15477
 C811 C 0.55628 0.73780 0.57750
 C812 C 0.56960 0.75879 0.59171
 C813 C 0.58844 0.75335 0.61522
 C814 C 0.61095 0.77072 0.61931
 C815 C 0.62956 0.76575 0.64091
 C816 C 0.62568 0.74353 0.65913
 C817 C 0.60248 0.72686 0.65585
 C818 C 0.58410 0.73155 0.63388
 C819 C 0.64568 0.73763 0.68152
 C820 C 0.67391 0.74055 0.67705
 H821 H 0.56750 0.77977 0.58431
 H822 H 0.61442 0.78790 0.60545
 H823 H 0.64689 0.77940 0.64347
 H824 H 0.59892 0.70989 0.66993
 H825 H 0.56640 0.71831 0.63173
 H826 H 0.63828 0.72960 0.70113
 H827 H 0.56002 0.71656 0.58328
 H828 H 0.68120 0.74582 0.65645
 C829 C 0.06209 0.73875 0.96294
 C830 C 0.07496 0.76122 0.95063
 C831 C 0.09921 0.75770 0.93219
 C832 C 0.10258 0.77547 0.90954
 C833 C 0.12511 0.77218 0.89156
 C834 C 0.14497 0.75132 0.89628
 C835 C 0.14218 0.73426 0.91956
 C836 C 0.11938 0.73722 0.93724
 C837 C 0.16888 0.74731 0.87749
 C838 C 0.16668 0.75139 0.84891
 H839 H 0.06641 0.78173 0.95352
 H840 H 0.08753 0.79166 0.90553
 H841 H 0.12715 0.78617 0.87422
 H842 H 0.15746 0.71834 0.92382
 H843 H 0.11777 0.72374 0.95504
 H844 H 0.18806 0.73933 0.88606
 H845 H 0.06929 0.71818 0.95774
 H846 H 0.14677 0.75678 0.84006
 C847 C 0.56326 0.27536 0.45158
 C848 C 0.57402 0.25164 0.43908
 C849 C 0.59874 0.25179 0.42096
 C850 C 0.60092 0.23229 0.39958
 C851 C 0.62346 0.23239 0.38144
 C852 C 0.64454 0.25180 0.38460
 C853 C 0.64312 0.27044 0.40682
 C854 C 0.62030 0.27063 0.42475
 C855 C 0.66770 0.25311 0.36457
 C856 C 0.66315 0.24906 0.33629
 H857 H 0.56288 0.23255 0.44117
 H858 H 0.58483 0.21728 0.39654
 H859 H 0.62441 0.21724 0.36494
 H860 H 0.65932 0.28532 0.40986
 H861 H 0.61968 0.28535 0.44162
 H862 H 0.68785 0.25952 0.37172
 H863 H 0.57301 0.29498 0.44804
 H864 H 0.64224 0.24567 0.32912
 C865 C 0.94603 0.74775 0.07504
 C866 C 0.93157 0.77162 0.08238
 C867 C 0.91035 0.77145 0.10444
 C868 C 0.88654 0.78795 0.10172
 C869 C 0.86567 0.78706 0.12182
 C870 C 0.86857 0.76995 0.14523
 C871 C 0.89294 0.75441 0.14852
 C872 C 0.91356 0.75496 0.12823
 C873 C 0.84688 0.76819 0.16673
 C874 C 0.81881 0.77102 0.16070
 H875 H 0.93444 0.79025 0.07041
 H876 H 0.88386 0.80111 0.08374
 H877 H 0.84747 0.79995 0.11915
 H878 H 0.89580 0.74144 0.16661
 H879 H 0.93210 0.74263 0.13128
 H880 H 0.85313 0.76252 0.18760
 H881 H 0.94104 0.72849 0.08506
 H882 H 0.81219 0.77442 0.13948
 C883 C 0.43101 0.27585 0.54712
 C884 C 0.41622 0.25212 0.55300
 C885 C 0.39026 0.25261 0.56916
 C886 C 0.38398 0.22996 0.58591
 C887 C 0.36028 0.23028 0.60247
 C888 C 0.34216 0.25310 0.60216
 C889 C 0.34755 0.27509 0.58422
 C890 C 0.37156 0.27499 0.56798
 C891 C 0.31853 0.25473 0.62153
 C892 C 0.32201 0.24695 0.64913
 H893 H 0.42476 0.23229 0.54694
 H894 H 0.39783 0.21230 0.58676
 H895 H 0.35622 0.21278 0.61572
 H896 H 0.33367 0.29273 0.58350
 H897 H 0.37542 0.29237 0.55454
 H898 H 0.29952 0.26481 0.61502
 H899 H 0.42370 0.29560 0.55476
 H900 H 0.34227 0.24009 0.65602
 C901 C 0.94073 0.23586 0.94260
 C902 C 0.92958 0.21474 0.92663
 C903 C 0.90828 0.22038 0.90525
 C904 C 0.90855 0.20531 0.88038
 C905 C 0.88899 0.21081 0.85964
 C906 C 0.86847 0.23117 0.86369
 C907 C 0.86766 0.24558 0.88894
 C908 C 0.88751 0.24044 0.90945
 C909 C 0.84694 0.23691 0.84258
 C910 C 0.85163 0.23415 0.81408
 H911 H 0.93809 0.19408 0.92823
 H912 H 0.92415 0.18951 0.87686
 H913 H 0.88964 0.19875 0.84073
 H914 H 0.85176 0.26102 0.89272
 H915 H 0.88632 0.25187 0.92874
 H916 H 0.82702 0.24451 0.84974
 H917 H 0.93397 0.25684 0.93871
 H918 H 0.87214 0.22889 0.80659
 C919 C 0.44755 0.76614 0.45936
 C920 C 0.43622 0.74480 0.44392
 C921 C 0.41325 0.74897 0.42415
 C922 C 0.41116 0.73127 0.40128
 C923 C 0.38960 0.73446 0.38227
 C924 C 0.36947 0.75523 0.38606
 C925 C 0.37097 0.77233 0.40945
 C926 C 0.39283 0.76942 0.42827
 C927 C 0.34672 0.75906 0.36598
 C928 C 0.35090 0.75513 0.33762
 H929 H 0.44519 0.72433 0.44558
 H930 H 0.42639 0.71506 0.39799
 H931 H 0.38850 0.72043 0.36484
 H932 H 0.35544 0.78820 0.41295
 H933 H 0.39340 0.78282 0.44622
 H934 H 0.32691 0.76669 0.37340
 H935 H 0.44039 0.78710 0.45629
 H936 H 0.37149 0.75034 0.33002
 C937 C 0.04066 0.05921 0.24437
 C938 C 0.05707 0.06891 0.26600
 C939 C 0.07562 0.09269 0.26307
 C940 C 0.09960 0.09365 0.27936
 C941 C 0.11758 0.11583 0.27726
 C942 C 0.11160 0.13781 0.25916
 C943 C 0.08726 0.13719 0.24335
 C944 C 0.06949 0.11475 0.24512
 C945 C 0.13038 0.16144 0.25649
 C946 C 0.15785 0.15941 0.26459
 H947 H 0.05754 0.05770 0.28546
 H948 H 0.10460 0.07703 0.29356
 H949 H 0.13601 0.11583 0.28999
 H950 H 0.08211 0.15398 0.22943
 H951 H 0.05077 0.11498 0.23284
 H952 H 0.12300 0.18013 0.24651
 H953 H 0.04174 0.06865 0.22404
 H954 H 0.16814 0.17283 0.26271
 C955 C 0.55145 0.54955 0.72921
 C956 C 0.56796 0.55686 0.75177
 C957 C 0.58799 0.57963 0.75113
 C958 C 0.61099 0.57839 0.76883
 C959 C 0.63014 0.59967 0.76927
 C960 C 0.62638 0.62297 0.75232
 C961 C 0.60312 0.62446 0.73494
 C962 C 0.58415 0.60293 0.73419
 C963 C 0.64623 0.64590 0.75258
 C964 C 0.67271 0.64270 0.76335
 H965 H 0.56730 0.54435 0.77039
 H966 H 0.61426 0.56078 0.78228
 H967 H 0.64770 0.59799 0.78312
 H968 H 0.59967 0.64227 0.72182
 H969 H 0.56627 0.60487 0.72083
 H970 H 0.64045 0.66524 0.74283
 H971 H 0.55345 0.56018 0.70957
 H972 H 0.68362 0.65576 0.76309
 C973 C 0.93683 0.03515 0.76381
 C974 C 0.92467 0.04609 0.73975
 C975 C 0.90194 0.06676 0.73967
 C976 C 0.89890 0.08374 0.71627
 C977 C 0.87799 0.10374 0.71516
 C978 C 0.85939 0.10700 0.73738
 C979 C 0.86173 0.08940 0.76041
 C980 C 0.88296 0.06956 0.76169
 C981 C 0.83757 0.12860 0.73690
 C982 C 0.84193 0.15416 0.72457
 H983 H 0.93351 0.04074 0.71972
 H984 H 0.91299 0.08173 0.69885
 H985 H 0.87625 0.11645 0.69676
 H986 H 0.84740 0.09133 0.77763
 H987 H 0.88419 0.05629 0.77969
 H988 H 0.81879 0.12536 0.74869
 H989 H 0.92923 0.04130 0.78407
 H990 H 0.86197 0.15864 0.71574
 C991 C 0.42865 0.54808 0.22454
 C992 C 0.42257 0.56446 0.24755
 C993 C 0.40067 0.58584 0.24695
 C994 C 0.40408 0.60984 0.26266
 C995 C 0.38432 0.63098 0.26161
 C996 C 0.36058 0.62829 0.24504
 C997 C 0.35656 0.60379 0.23030
 C998 C 0.37652 0.58278 0.23105
 C999 C 0.33948 0.65042 0.24349
 C1000 C 0.34637 0.67809 0.24556
 H1001 H 0.43588 0.56333 0.26563
 H1002 H 0.42232 0.61244 0.27539
 H1003 H 0.38752 0.64924 0.27402
 H1004 H 0.33815 0.60109 0.21785
 H1005 H 0.37290 0.56411 0.21941
 H1006 H 0.31819 0.64481 0.23980
 H1007 H 0.41705 0.55074 0.20549
 H1008 H 0.36789 0.68384 0.24687
 C1009 C 0.06359 0.93484 0.75265
 C1010 C 0.07844 0.92389 0.77491
 C1011 C 0.09792 0.90047 0.77113
 C1012 C 0.12197 0.89882 0.78731
 C1013 C 0.14054 0.87675 0.78402
 C1014 C 0.13506 0.85563 0.76485
 C1015 C 0.11059 0.85686 0.74932
 C1016 C 0.09231 0.87918 0.75220
 C1017 C 0.15387 0.83160 0.76164
 C1018 C 0.18243 0.83375 0.76448
 H1019 H 0.07616 0.93294 0.79537
 H1020 H 0.12648 0.91475 0.80233
 H1021 H 0.15884 0.87594 0.79693
 H1022 H 0.10571 0.84060 0.73478
 H1023 H 0.07350 0.87945 0.74004
 H1024 H 0.14506 0.81193 0.75621
 H1025 H 0.06782 0.92731 0.73186
 H1026 H 0.19139 0.85383 0.76753
 C1027 C 0.55155 0.44101 0.22063
 C1028 C 0.56542 0.43220 0.24445
 C1029 C 0.58433 0.40813 0.24454
 C1030 C 0.60590 0.40705 0.26393
 C1031 C 0.62392 0.38439 0.26473
 C1032 C 0.62040 0.36222 0.24634
 C1033 C 0.59825 0.36286 0.22760
 C1034 C 0.58045 0.38569 0.22654
 C1035 C 0.63934 0.33819 0.24651
 C1036 C 0.66734 0.34077 0.25245
 H1037 H 0.56264 0.44353 0.26367
 H1038 H 0.60893 0.42386 0.27836
 H1039 H 0.64032 0.38410 0.28002
 H1040 H 0.59492 0.34581 0.21354
 H1041 H 0.56340 0.38545 0.21201
 H1042 H 0.63153 0.31847 0.23979
 H1043 H 0.55580 0.43122 0.20084
 H1044 H 0.67572 0.36094 0.25647
 C1045 C 0.94105 0.93571 0.26399
 C1046 C 0.92396 0.92623 0.24276
 C1047 C 0.90278 0.90514 0.24751
 C1048 C 0.87794 0.90668 0.23260
 C1049 C 0.85749 0.88703 0.23659
 C1050 C 0.86179 0.86516 0.25525
 C1051 C 0.88690 0.86324 0.26968
 C1052 C 0.90716 0.88321 0.26609
 C1053 C 0.84121 0.84321 0.25851
 C1054 C 0.81287 0.84802 0.25568
 H1055 H 0.92435 0.93625 0.22265
 H1056 H 0.87429 0.92323 0.21794
 H1057 H 0.83869 0.88858 0.22449
 H1058 H 0.89083 0.84628 0.28379
 H1059 H 0.92643 0.88110 0.27733
 H1060 H 0.84865 0.82264 0.26330
 H1061 H 0.93880 0.92741 0.28475
 H1062 H 0.80507 0.86890 0.25357
 C1063 C 0.44930 0.42494 0.73977
 C1064 C 0.43094 0.41787 0.71872
 C1065 C 0.41041 0.39587 0.72224
 C1066 C 0.38480 0.39825 0.70878
 C1067 C 0.36472 0.37811 0.71230
 C1068 C 0.37009 0.35499 0.72910
 C1069 C 0.39606 0.35214 0.74176
 C1070 C 0.41599 0.37247 0.73856
 C1071 C 0.34949 0.33310 0.73285
 C1072 C 0.32107 0.33823 0.73209
 H1073 H 0.43005 0.43029 0.70005
 H1074 H 0.38021 0.41591 0.69579
 H1075 H 0.34524 0.38047 0.70148
 H1076 H 0.40083 0.33425 0.75437
 H1077 H 0.43586 0.36962 0.74853
 H1078 H 0.35697 0.31246 0.73730
 H1079 H 0.44848 0.41443 0.75958
 H1080 H 0.31338 0.35914 0.72999
 C1081 C 0.05171 0.22401 0.93601
 C1082 C 0.06288 0.24768 0.92436
 C1083 C 0.08003 0.24694 0.89880
 C1084 C 0.10053 0.26674 0.89512
 C1085 C 0.11727 0.26636 0.87140
 C1086 C 0.11353 0.24636 0.85062
 C1087 C 0.09226 0.22727 0.85371
 C1088 C 0.07578 0.22739 0.87767
 C1089 C 0.13165 0.24510 0.82577
 C1090 C 0.15971 0.25095 0.82766
 H1091 H 0.05975 0.26724 0.93477
 H1092 H 0.10387 0.28232 0.91084
 H1093 H 0.13298 0.28188 0.86924
 H1094 H 0.08872 0.21194 0.83781
 H1095 H 0.05952 0.21240 0.87940
 H1096 H 0.12335 0.23751 0.80636
 H1097 H 0.05647 0.20415 0.92686
 H1098 H 0.16834 0.25570 0.84785
 C1099 C 0.56385 0.75611 0.46138
 C1100 C 0.56948 0.73507 0.44239
 C1101 C 0.59121 0.73740 0.42087
 C1102 C 0.58790 0.72391 0.39532
 C1103 C 0.60785 0.72626 0.37440
 C1104 C 0.63172 0.74189 0.37886
 C1105 C 0.63546 0.75456 0.40477
 C1106 C 0.61537 0.75250 0.42553
 C1107 C 0.65340 0.74480 0.35738
 C1108 C 0.64803 0.74361 0.32889
 H1109 H 0.55628 0.71722 0.44200
 H1110 H 0.56966 0.71181 0.39141
 H1111 H 0.60472 0.71549 0.35499
 H1112 H 0.65388 0.76633 0.40887
 H1113 H 0.61900 0.76242 0.44530
 H1114 H 0.67407 0.74977 0.36426
 H1115 H 0.57515 0.77515 0.46017
 H1116 H 0.62709 0.74087 0.32160
 C1117 C 0.94592 0.74879 0.96152
 C1118 C 0.93346 0.72575 0.94993
 C1119 C 0.90982 0.72846 0.93070
 C1120 C 0.90773 0.71043 0.90810
 C1121 C 0.88590 0.71315 0.88925
 C1122 C 0.86545 0.73362 0.89310
 C1123 C 0.86690 0.75089 0.91636
 C1124 C 0.88906 0.74856 0.93488
 C1125 C 0.84239 0.73696 0.87328
 C1126 C 0.84644 0.73379 0.84479
 H1127 H 0.94204 0.70541 0.95380
 H1128 H 0.92329 0.69455 0.90475
 H1129 H 0.88486 0.69905 0.87186
 H1130 H 0.85114 0.76653 0.91991
 H1131 H 0.88977 0.76226 0.95261
 H1132 H 0.82234 0.74354 0.88105
 H1133 H 0.93876 0.76908 0.95528
 H1134 H 0.86714 0.72999 0.83696
 C1135 C 0.44445 0.28386 0.43860
 C1136 C 0.43288 0.26123 0.42529
 C1137 C 0.40821 0.26299 0.40722
 C1138 C 0.40418 0.24234 0.38733
 C1139 C 0.38048 0.24241 0.37080
 C1140 C 0.36008 0.26301 0.37408
 C1141 C 0.36373 0.28333 0.39441
 C1142 C 0.38770 0.28349 0.41072
 C1143 C 0.33487 0.26330 0.35669
 C1144 C 0.33583 0.25519 0.32894
 H1145 H 0.44221 0.24108 0.42838
 H1146 H 0.41941 0.22604 0.38462
 H1147 H 0.37791 0.22600 0.35584
 H1148 H 0.34812 0.29921 0.39752
 H1149 H 0.38973 0.29921 0.42650
 H1150 H 0.31582 0.27168 0.36523
 H1151 H 0.43682 0.30442 0.43424
 H1152 H 0.35562 0.24990 0.31970
 C1153 C 0.05916 0.74404 0.07652
 C1154 C 0.07263 0.76786 0.08491
 C1155 C 0.09293 0.76840 0.10780
 C1156 C 0.11339 0.78859 0.10761
 C1157 C 0.13292 0.78978 0.12891
 C1158 C 0.13210 0.77093 0.15102
 C1159 C 0.11106 0.75136 0.15174
 C1160 C 0.09172 0.74994 0.13024
 C1161 C 0.15275 0.77133 0.17359
 C1162 C 0.18008 0.77891 0.16902
 H1163 H 0.06908 0.78675 0.07343
 H1164 H 0.11440 0.80334 0.09078
 H1165 H 0.14838 0.80566 0.12819
 H1166 H 0.10982 0.73689 0.16880
 H1167 H 0.07565 0.73471 0.13150
 H1168 H 0.14697 0.76306 0.19365
 H1169 H 0.06403 0.72449 0.08620
 H1170 H 0.18673 0.78457 0.14832
 C1171 C 0.54686 0.26352 0.56415
 C1172 C 0.56466 0.28386 0.57351
 C1173 C 0.58565 0.27846 0.59521
 C1174 C 0.61114 0.29180 0.59367
 C1175 C 0.63180 0.28631 0.61326
 C1176 C 0.62712 0.26767 0.63505
 C1177 C 0.60123 0.25521 0.63726
 C1178 C 0.58073 0.26033 0.61738
 C1179 C 0.64862 0.26152 0.65604
 C1180 C 0.67671 0.26093 0.64946
 H1181 H 0.56508 0.30342 0.56273
 H1182 H 0.61525 0.30613 0.57698
 H1183 H 0.65126 0.29692 0.61151
 H1184 H 0.59702 0.24115 0.65416
 H1185 H 0.56098 0.25033 0.61955
 H1186 H 0.64209 0.25604 0.67683
 H1187 H 0.54825 0.24302 0.57288
 H1188 H 0.68316 0.26394 0.62813
 C1189 C 0.94258 0.22276 0.05765
 C1190 C 0.93074 0.24627 0.06948
 C1191 C 0.91137 0.24482 0.09319
 C1192 C 0.88981 0.26424 0.09531
 C1193 C 0.87099 0.26307 0.11732
 C1194 C 0.87375 0.24271 0.13792
 C1195 C 0.89592 0.22393 0.13638
 C1196 C 0.91445 0.22479 0.11408
 C1197 C 0.85409 0.24108 0.16137
 C1198 C 0.82607 0.24716 0.15804
 H1199 H 0.93460 0.26617 0.06020
 H1200 H 0.88732 0.28011 0.07968
 H1201 H 0.85454 0.27833 0.11841
 H1202 H 0.89866 0.20835 0.15225
 H1203 H 0.93138 0.21004 0.11344
 H1204 H 0.86150 0.23341 0.18118
 H1205 H 0.93676 0.20266 0.06521
 H1206 H 0.81821 0.25210 0.13754
 C1207 C 0.44351 0.75159 0.57138
 C1208 C 0.43424 0.72761 0.58396
 C1209 C 0.41122 0.72816 0.60410
 C1210 C 0.41174 0.71029 0.62697
 C1211 C 0.39050 0.71119 0.64670
 C1212 C 0.36814 0.72967 0.64350
 C1213 C 0.36713 0.74674 0.62005
 C1214 C 0.38856 0.74619 0.60063
 C1215 C 0.34528 0.73125 0.66378
 C1216 C 0.34895 0.72659 0.69215
 H1217 H 0.44523 0.70837 0.58037
 H1218 H 0.42884 0.69598 0.62979
 H1219 H 0.39142 0.69721 0.66418
 H1220 H 0.34988 0.76082 0.61696
 H1221 H 0.38724 0.75965 0.58275
 H1222 H 0.32531 0.73841 0.65637
 H1223 H 0.43450 0.77125 0.57727
 H1224 H 0.36931 0.72172 0.70021
 C1225 C 0.26212 0.06895 0.93997
 C1226 C 0.23913 0.08118 0.92743
 C1227 C 0.24128 0.10426 0.90773
 C1228 C 0.22154 0.10685 0.88658
 C1229 C 0.22305 0.12832 0.86744
 C1230 C 0.24413 0.14785 0.86943
 C1231 C 0.26323 0.14595 0.89124
 C1232 C 0.26201 0.12415 0.91013
 C1233 C 0.24629 0.17029 0.84899
 C1234 C 0.24075 0.16574 0.82100
 H1235 H 0.21886 0.07266 0.93110
 H1236 H 0.20512 0.09202 0.88466
 H1237 H 0.20757 0.12978 0.85126
 H1238 H 0.27938 0.16104 0.89333
 H1239 H 0.27700 0.12314 0.92679
 H1240 H 0.25384 0.19009 0.85573
 H1241 H 0.28271 0.07572 0.93476
 H1242 H 0.23607 0.14513 0.81399
 C1243 C 0.77046 0.56561 0.43522
 C1244 C 0.74576 0.57544 0.42391
 C1245 C 0.74494 0.59924 0.40486
 C1246 C 0.72579 0.59984 0.38302
 C1247 C 0.72489 0.62210 0.36462
 C1248 C 0.74279 0.64439 0.36818
 C1249 C 0.76126 0.64421 0.39059
 C1250 C 0.76256 0.62172 0.40863
 C1251 C 0.74211 0.66830 0.34927
 C1252 C 0.73702 0.66562 0.32090
 H1253 H 0.72674 0.56461 0.42802
 H1254 H 0.71175 0.58291 0.38000
 H1255 H 0.70990 0.62204 0.34793
 H1256 H 0.77496 0.66136 0.39393
 H1257 H 0.77701 0.62215 0.42578
 H1258 H 0.74763 0.68823 0.35756
 H1259 H 0.78983 0.57463 0.42888
 H1260 H 0.73426 0.64536 0.31202
 C1261 C 0.75240 0.06362 0.04768
 C1262 C 0.72996 0.07929 0.05729
 C1263 C 0.73337 0.10256 0.07671
 C1264 C 0.71289 0.10786 0.09669
 C1265 C 0.71579 0.12946 0.11561
 C1266 C 0.73901 0.14653 0.11445
 C1267 C 0.75894 0.14198 0.09374
 C1268 C 0.75633 0.11998 0.07518
 C1269 C 0.74271 0.16900 0.13475
 C1270 C 0.73604 0.16540 0.16266
 H1271 H 0.70914 0.07352 0.05163
 H1272 H 0.69483 0.09496 0.09796
 H1273 H 0.69977 0.13295 0.13097
 H1274 H 0.77681 0.15510 0.09229
 H1275 H 0.77206 0.11686 0.05944
 H1276 H 0.75278 0.18769 0.12817
 H1277 H 0.77290 0.06799 0.05544
 H1278 H 0.72895 0.14549 0.16960
 C1279 C 0.27714 0.56284 0.55851
 C1280 C 0.25558 0.57284 0.57514
 C1281 C 0.25934 0.59345 0.59746
 C1282 C 0.24050 0.59417 0.61964
 C1283 C 0.24274 0.61393 0.64062
 C1284 C 0.26373 0.63365 0.63963
 C1285 C 0.28230 0.63324 0.61720
 C1286 C 0.28029 0.61322 0.59639
 C1287 C 0.26582 0.65558 0.66089
 C1288 C 0.25735 0.65195 0.68837
 H1289 H 0.23513 0.56440 0.57243
 H1290 H 0.22393 0.57942 0.62071
 H1291 H 0.22755 0.61414 0.65714
 H1292 H 0.29839 0.64848 0.61577
 H1293 H 0.29467 0.61377 0.57918
 H1294 H 0.27526 0.67481 0.65495
 H1295 H 0.29815 0.56914 0.56243
 H1296 H 0.25050 0.63194 0.69520
 C1297 C 0.74019 0.94926 0.93455
 C1298 C 0.76149 0.93047 0.92884
 C1299 C 0.75950 0.90900 0.90711
 C1300 C 0.77527 0.88474 0.90986
 C1301 C 0.77404 0.86409 0.88965
 C1302 C 0.75718 0.86747 0.86608
 C1303 C 0.74198 0.89204 0.86296
 C1304 C 0.74297 0.91257 0.88332
 C1305 C 0.75583 0.84631 0.84398
 C1306 C 0.76026 0.81832 0.84903
 H1307 H 0.77983 0.93058 0.94175
 H1308 H 0.78850 0.88171 0.92777
 H1309 H 0.78676 0.84582 0.89231
 H1310 H 0.72921 0.89532 0.84476
 H1311 H 0.73123 0.93137 0.88005
 H1312 H 0.74994 0.85288 0.82328
 H1313 H 0.72079 0.94800 0.92347
 H1314 H 0.76384 0.81120 0.87004
 C1315 C 0.25065 0.45839 0.43603
 C1316 C 0.27100 0.44134 0.42442
 C1317 C 0.26526 0.42199 0.40135
 C1318 C 0.28082 0.39753 0.39931
 C1319 C 0.27567 0.37863 0.37806
 C1320 C 0.25505 0.38402 0.35812
 C1321 C 0.24019 0.40894 0.35953
 C1322 C 0.24506 0.42768 0.38106
 C1323 C 0.24922 0.36422 0.33548
 C1324 C 0.25165 0.33587 0.33946
 H1325 H 0.29140 0.44086 0.43369
 H1326 H 0.29680 0.39288 0.41441
 H1327 H 0.28813 0.36002 0.37706
 H1328 H 0.22453 0.41375 0.34415
 H1329 H 0.23328 0.44675 0.38150
 H1330 H 0.24174 0.37204 0.31576
 H1331 H 0.22962 0.45731 0.42849
 H1332 H 0.25671 0.32812 0.35995
 C1333 C 0.24693 0.95334 0.05295
 C1334 C 0.26928 0.94371 0.06854
 C1335 C 0.26668 0.92157 0.08933
 C1336 C 0.28443 0.92119 0.11235
 C1337 C 0.28268 0.90030 0.13219
 C1338 C 0.26337 0.87915 0.12906
 C1339 C 0.24609 0.87916 0.10569
 C1340 C 0.24756 0.90027 0.08607
 C1341 C 0.26162 0.85626 0.14910
 C1342 C 0.26785 0.85923 0.17722
 H1343 H 0.28912 0.95360 0.06638
 H1344 H 0.29961 0.93717 0.11504
 H1345 H 0.29689 0.90041 0.14954
 H1346 H 0.23136 0.86283 0.10264
 H1347 H 0.23417 0.89951 0.06809
 H1348 H 0.25396 0.83673 0.14167
 H1349 H 0.22644 0.94548 0.05677
 H1350 H 0.27293 0.87927 0.18547
 C1351 C 0.78080 0.44985 0.54915
 C1352 C 0.75805 0.43815 0.56219
 C1353 C 0.76098 0.41843 0.58543
 C1354 C 0.74152 0.39752 0.58841
 C1355 C 0.74400 0.37832 0.60990
 C1356 C 0.76577 0.38002 0.62915
 C1357 C 0.78458 0.40161 0.62688
 C1358 C 0.78240 0.42052 0.60505
 C1359 C 0.76893 0.35959 0.65173
 C1360 C 0.76324 0.33191 0.64730
 H1361 H 0.73752 0.44243 0.55418
 H1362 H 0.72459 0.39578 0.57381
 H1363 H 0.72871 0.36234 0.61161
 H1364 H 0.80126 0.40353 0.64172
 H1365 H 0.79724 0.43695 0.60378
 H1366 H 0.77731 0.36611 0.67150
 H1367 H 0.80147 0.44383 0.55547
 H1368 H 0.75755 0.32518 0.62664
 C1369 C 0.04739 0.05257 0.76101
 C1370 C 0.05889 0.06397 0.73719
 C1371 C 0.07567 0.08913 0.73850
 C1372 C 0.09894 0.09140 0.72135
 C1373 C 0.11581 0.11446 0.72312
 C1374 C 0.10931 0.13601 0.74167
 C1375 C 0.08538 0.13423 0.75800
 C1376 C 0.06882 0.11089 0.75664
 C1377 C 0.12722 0.16028 0.74422
 C1378 C 0.15506 0.15830 0.73762
 H1379 H 0.05733 0.05313 0.71758
 H1380 H 0.10442 0.07501 0.70703
 H1381 H 0.13390 0.11545 0.70991
 H1382 H 0.07981 0.15069 0.77221
 H1383 H 0.05057 0.10995 0.76962
 H1384 H 0.11882 0.17937 0.75254
 H1385 H 0.05127 0.06201 0.78101
 H1386 H 0.16470 0.17229 0.73855
 C1387 C 0.54165 0.55816 0.21184
 C1388 C 0.55726 0.56861 0.23370
 C1389 C 0.57509 0.59290 0.23130
 C1390 C 0.59794 0.59486 0.24902
 C1391 C 0.61472 0.61796 0.24834
 C1392 C 0.60865 0.63991 0.23023
 C1393 C 0.58554 0.63817 0.21274
 C1394 C 0.56897 0.61476 0.21309
 C1395 C 0.62600 0.66472 0.22969
 C1396 C 0.65286 0.66365 0.23966
 H1397 H 0.55724 0.55785 0.25342
 H1398 H 0.60285 0.57840 0.26344
 H1399 H 0.63219 0.61878 0.26235
 H1400 H 0.58036 0.65491 0.19877
 H1401 H 0.55105 0.61413 0.19968
 H1402 H 0.61800 0.68359 0.22057
 H1403 H 0.54314 0.56702 0.19126
 H1404 H 0.66211 0.67791 0.23993
 C1405 C 0.05324 0.94356 0.24343
 C1406 C 0.07138 0.93646 0.26481
 C1407 C 0.09322 0.91518 0.26151
 C1408 C 0.11734 0.91686 0.27753
 C1409 C 0.13811 0.89673 0.27521
 C1410 C 0.13491 0.87434 0.25702
 C1411 C 0.11053 0.87236 0.24147
 C1412 C 0.08992 0.89263 0.24354
 C1413 C 0.15591 0.85213 0.25476
 C1414 C 0.18398 0.85619 0.25964
 H1415 H 0.07015 0.94750 0.28436
 H1416 H 0.12012 0.93381 0.29184
 H1417 H 0.15628 0.89844 0.28815
 H1418 H 0.10741 0.85505 0.22766
 H1419 H 0.07119 0.89022 0.23156
 H1420 H 0.14913 0.83208 0.24786
 H1421 H 0.05585 0.93449 0.22302
 H1422 H 0.19148 0.87661 0.26410
 C1423 C 0.56136 0.43391 0.72255
 C1424 C 0.57868 0.42506 0.74398
 C1425 C 0.59945 0.40277 0.74011
 C1426 C 0.62379 0.40288 0.75592
 C1427 C 0.64348 0.38173 0.75303
 C1428 C 0.63890 0.35981 0.73456
 C1429 C 0.61429 0.35942 0.71921
 C1430 C 0.59483 0.38076 0.72177
 C1431 C 0.65866 0.33649 0.73190
 C1432 C 0.68707 0.33920 0.73583
 H1433 H 0.57757 0.43531 0.76396
 H1434 H 0.62759 0.41940 0.77049
 H1435 H 0.66187 0.38224 0.76579
 H1436 H 0.61012 0.34253 0.70517
 H1437 H 0.57589 0.37960 0.70991
 H1438 H 0.65067 0.31675 0.72548
 H1439 H 0.56412 0.42555 0.70185
 H1440 H 0.69565 0.35932 0.73960
 C1441 C 0.92737 0.04588 0.26226
 C1442 C 0.91305 0.05597 0.23919
 C1443 C 0.88909 0.07492 0.24119
 C1444 C 0.88409 0.09325 0.21924
 C1445 C 0.86206 0.11197 0.22053
 C1446 C 0.84434 0.11241 0.24366
 C1447 C 0.84848 0.09323 0.26505
 C1448 C 0.87086 0.07474 0.26399
 C1449 C 0.82201 0.13321 0.24596
 C1450 C 0.82647 0.16027 0.23782
 H1451 H 0.92080 0.05117 0.21859
 H1452 H 0.89759 0.09343 0.20127
 H1453 H 0.85888 0.12611 0.20341
 H1454 H 0.83483 0.09306 0.28290
 H1455 H 0.87369 0.06025 0.28083
 H1456 H 0.80300 0.12793 0.25649
 H1457 H 0.92120 0.05189 0.28305
 H1458 H 0.84674 0.16605 0.23043
 C1459 C 0.43551 0.53667 0.74046
 C1460 C 0.42489 0.54563 0.76590
 C1461 C 0.40008 0.56367 0.76781
 C1462 C 0.39787 0.58250 0.78980
 C1463 C 0.37553 0.60095 0.79123
 C1464 C 0.35474 0.60068 0.77080
 C1465 C 0.35607 0.58076 0.74974
 C1466 C 0.37861 0.56251 0.74812
 C1467 C 0.33218 0.62152 0.77058
 C1468 C 0.33713 0.64864 0.77828
 H1469 H 0.43608 0.54076 0.78480
 H1470 H 0.41386 0.58343 0.80551
 H1471 H 0.37462 0.61551 0.80825
 H1472 H 0.34008 0.57989 0.73404
 H1473 H 0.37915 0.54755 0.73146
 H1474 H 0.31246 0.61628 0.76147
 H1475 H 0.42556 0.54311 0.72136
 H1476 H 0.35778 0.65430 0.78458
 C1477 C 0.95424 0.92119 0.76516
 C1478 C 0.93954 0.91077 0.74273
 C1479 C 0.92194 0.88637 0.74578
 C1480 C 0.89673 0.88540 0.73156
 C1481 C 0.87895 0.86332 0.73550
 C1482 C 0.88635 0.84159 0.75341
 C1483 C 0.91220 0.84186 0.76650
 C1484 C 0.92978 0.86419 0.76294
 C1485 C 0.86751 0.81845 0.75841
 C1486 C 0.83900 0.82253 0.75981
 H1487 H 0.93903 0.92206 0.72333
 H1488 H 0.89049 0.90208 0.71794
 H1489 H 0.85948 0.86320 0.72443
 H1490 H 0.91849 0.82509 0.77998
 H1491 H 0.94950 0.86406 0.77354
 H1492 H 0.87626 0.79818 0.76219
 H1493 H 0.95258 0.91136 0.78528
 H1494 H 0.83059 0.84325 0.75847
 C1495 C 0.44168 0.43449 0.23796
 C1496 C 0.42516 0.42300 0.21747
 C1497 C 0.40648 0.40008 0.22363
 C1498 C 0.38069 0.39914 0.21049
 C1499 C 0.36220 0.37823 0.21682
 C1500 C 0.36948 0.35763 0.23606
 C1501 C 0.39573 0.35790 0.24830
 C1502 C 0.41403 0.37911 0.24235
 C1503 C 0.35028 0.33535 0.24298
 C1504 C 0.32186 0.33992 0.24446
 H1505 H 0.42428 0.43240 0.19707
 H1506 H 0.37466 0.41490 0.19570
 H1507 H 0.34239 0.37801 0.20641
 H1508 H 0.40189 0.34193 0.26280
 H1509 H 0.43415 0.37894 0.25219
 H1510 H 0.35878 0.31520 0.24789
 H1511 H 0.44054 0.42688 0.25908
 H1512 H 0.31362 0.36061 0.24214
   
