data_POSCAR
  _audit_creation_date              2014-09-24
  _audit_creation_method            'ToBaCCo'
  _symmetry_space_group_name_H-M    'P1'
  _symmetry_Int_Tables_number       1
  _symmetry_cell_setting            triclinic
  loop_
  _symmetry_equiv_pos_as_xyz
 x,y,z
_cell_length_a 72.2525
_cell_length_b 71.9763
_cell_length_c 72.7525
_cell_angle_alpha 90.027500
_cell_angle_beta 90.025000
_cell_angle_gamma 90.100400
loop_
  _atom_site_label
  _atom_site_type_symbol
  _atom_site_fract_x
  _atom_site_fract_y
  _atom_site_fract_z
N1 N 0.17580 0.22092 0.22585
 N2 N 0.18076 0.20607 0.23509
 C3 C 0.16905 0.20366 0.24929
 C4 C 0.15600 0.21777 0.24895
 C5 C 0.16078 0.22845 0.23383
 H6 H 0.17006 0.19256 0.25922
 H7 H 0.15383 0.24074 0.22886
 Cu8 Cu 0.20209 0.19137 0.22771
 Cu9 Cu 0.18914 0.22943 0.20416
 Cu10 Cu 0.22767 0.20403 0.19115
 N11 N 0.22405 0.17755 0.22047
 N12 N 0.23395 0.18257 0.20616
 C13 C 0.24821 0.17075 0.20418
 C14 C 0.24728 0.15753 0.21801
 C15 C 0.23172 0.16235 0.22810
 H16 H 0.25855 0.17182 0.19350
 H17 H 0.22629 0.15525 0.24001
 N18 N 0.21910 0.22616 0.17770
 N19 N 0.20442 0.23582 0.18263
 C20 C 0.20214 0.24998 0.17075
 C21 C 0.21606 0.24924 0.15768
 C22 C 0.22654 0.23393 0.16257
 H23 H 0.19120 0.26015 0.17165
 H24 H 0.23862 0.22869 0.15554
 H25 H 0.19960 0.20384 0.19663
 H26 H 0.21443 0.21853 0.21186
 N27 N 0.68339 0.72916 0.73231
 N28 N 0.68849 0.71444 0.74170
 C29 C 0.67680 0.71207 0.75594
 C30 C 0.66369 0.72610 0.75548
 C31 C 0.66837 0.73669 0.74027
 H32 H 0.67779 0.70101 0.76592
 H33 H 0.66119 0.74879 0.73515
 Cu34 Cu 0.70976 0.69974 0.73416
 Cu35 Cu 0.69635 0.73731 0.71025
 Cu36 Cu 0.73451 0.71147 0.69684
 N37 N 0.73135 0.68547 0.72667
 N38 N 0.74077 0.68999 0.71188
 C39 C 0.75455 0.67768 0.70944
 C40 C 0.75381 0.66475 0.72350
 C41 C 0.73891 0.67017 0.73421
 H42 H 0.76444 0.67818 0.69831
 H43 H 0.73376 0.66324 0.74636
 N44 N 0.72598 0.73365 0.68344
 N45 N 0.71129 0.74332 0.68837
 C46 C 0.70883 0.75730 0.67631
 C47 C 0.72269 0.75646 0.66322
 C48 C 0.73331 0.74131 0.66820
 H49 H 0.69788 0.76747 0.67709
 H50 H 0.74533 0.73606 0.66106
 H51 H 0.70658 0.71157 0.70291
 H52 H 0.72181 0.72651 0.71749
 N53 N 0.31914 0.77528 0.73127
 N54 N 0.31435 0.79030 0.74036
 C55 C 0.32589 0.79254 0.75474
 C56 C 0.33863 0.77815 0.75468
 C57 C 0.33386 0.76747 0.73954
 H58 H 0.32501 0.80377 0.76455
 H59 H 0.34067 0.75505 0.73470
 Cu60 Cu 0.29356 0.80550 0.73245
 Cu61 Cu 0.30609 0.76700 0.70933
 Cu62 Cu 0.26844 0.79324 0.69545
 N63 N 0.27209 0.81982 0.72469
 N64 N 0.26236 0.81492 0.71023
 C65 C 0.24843 0.82705 0.70786
 C66 C 0.24937 0.84043 0.72161
 C67 C 0.26466 0.83527 0.73205
 H68 H 0.23843 0.82609 0.69686
 H69 H 0.27006 0.84218 0.74409
 N70 N 0.27674 0.77085 0.68227
 N71 N 0.29112 0.76090 0.68749
 C72 C 0.29337 0.74670 0.67564
 C73 C 0.27973 0.74772 0.66230
 C74 C 0.26945 0.76323 0.66699
 H75 H 0.30409 0.73631 0.67672
 H76 H 0.25766 0.76873 0.65966
 H77 H 0.29640 0.79279 0.70149
 H78 H 0.28094 0.77854 0.71648
 N79 N 0.82105 0.27840 0.22492
 N80 N 0.81350 0.28984 0.23681
 C81 C 0.82467 0.29137 0.25156
 C82 C 0.84028 0.28052 0.24866
 C83 C 0.83744 0.27255 0.23150
 H84 H 0.82189 0.30020 0.26325
 H85 H 0.84628 0.26273 0.22452
 Cu86 Cu 0.79055 0.30274 0.23110
 Cu87 Cu 0.80844 0.27072 0.20250
 Cu88 Cu 0.76678 0.29241 0.19271
 N89 N 0.76757 0.31539 0.22500
 N90 N 0.75857 0.31151 0.20977
 C91 C 0.74405 0.32306 0.20814
 C92 C 0.74389 0.33488 0.22315
 C93 C 0.75901 0.32955 0.23361
 H94 H 0.73449 0.32303 0.19671
 H95 H 0.76385 0.33604 0.24613
 N96 N 0.77738 0.27274 0.17714
 N97 N 0.79340 0.26473 0.18066
 C98 C 0.79659 0.25161 0.16784
 C99 C 0.78184 0.25129 0.15568
 C100 C 0.76996 0.26493 0.16202
 H101 H 0.80847 0.24251 0.16773
 H102 H 0.75678 0.26879 0.15615
 H103 H 0.79460 0.29547 0.19861
 H104 H 0.78197 0.27681 0.21132
 N105 N 0.82219 0.72452 0.27329
 N106 N 0.81718 0.70966 0.26405
 C107 C 0.82911 0.70703 0.25007
 C108 C 0.84235 0.72099 0.25055
 C109 C 0.83745 0.73184 0.26553
 H110 H 0.82812 0.69584 0.24021
 H111 H 0.84448 0.74409 0.27054
 Cu112 Cu 0.79558 0.69518 0.27119
 Cu113 Cu 0.80858 0.73331 0.29470
 Cu114 Cu 0.76959 0.70821 0.30727
 N115 N 0.77343 0.68149 0.27820
 N116 N 0.76338 0.68663 0.29235
 C117 C 0.74907 0.67481 0.29428
 C118 C 0.75014 0.66147 0.28057
 C119 C 0.76581 0.66621 0.27061
 H120 H 0.73862 0.67595 0.30483
 H121 H 0.77138 0.65895 0.25885
 N122 N 0.77812 0.73044 0.32065
 N123 N 0.79299 0.73996 0.31592
 C124 C 0.79521 0.75418 0.32777
 C125 C 0.78104 0.75363 0.34059
 C126 C 0.77049 0.73836 0.33560
 H127 H 0.80627 0.76428 0.32703
 H128 H 0.75826 0.73324 0.34248
 H129 H 0.79775 0.70785 0.30223
 H130 H 0.78330 0.72253 0.28670
 N131 N 0.32275 0.22403 -0.22571
 N132 N 0.31823 0.20891 -0.23477
 C133 C 0.33015 0.20653 -0.24878
 C134 C 0.34295 0.22098 -0.24858
 C135 C 0.33769 0.23181 -0.23364
 H136 H 0.32941 0.19515 -0.25842
 H137 H 0.34419 0.24441 -0.22875
 Cu138 Cu 0.29706 0.19380 -0.22764
 Cu139 Cu 0.30901 0.23243 -0.20426
 Cu140 Cu 0.27055 0.20656 -0.19174
 N141 N 0.27497 0.17995 -0.22079
 N142 N 0.26466 0.18501 -0.20680
 C143 C 0.25032 0.17318 -0.20520
 C144 C 0.25162 0.15992 -0.21897
 C145 C 0.26749 0.16472 -0.22860
 H146 H 0.23966 0.17429 -0.19485
 H147 H 0.27322 0.15764 -0.24038
 N148 N 0.27872 0.22881 -0.17820
 N149 N 0.29336 0.23867 -0.18295
 C150 C 0.29539 0.25283 -0.17100
 C151 C 0.28134 0.25188 -0.15807
 C152 C 0.27105 0.23644 -0.16313
 H153 H 0.30626 0.26312 -0.17173
 H154 H 0.25897 0.23100 -0.15623
 H155 H 0.29875 0.20674 -0.19667
 H156 H 0.28405 0.22097 -0.21241
 N157 N 0.67789 0.27461 -0.22767
 N158 N 0.68300 0.28933 -0.23704
 C159 C 0.67083 0.29221 -0.25076
 C160 C 0.65728 0.27848 -0.25006
 C161 C 0.66234 0.26757 -0.23512
 H162 H 0.67194 0.30339 -0.26060
 H163 H 0.65535 0.25537 -0.22995
 Cu164 Cu 0.70530 0.30308 -0.23058
 Cu165 Cu 0.69187 0.26548 -0.20664
 Cu166 Cu 0.73191 0.28951 -0.19517
 N167 N 0.72765 0.31660 -0.22385
 N168 N 0.73799 0.31119 -0.21000
 C169 C 0.75235 0.32297 -0.20814
 C170 C 0.75101 0.33654 -0.22158
 C171 C 0.73512 0.33200 -0.23131
 H172 H 0.76300 0.32170 -0.19778
 H173 H 0.72928 0.33951 -0.24277
 N174 N 0.72338 0.26728 -0.18180
 N175 N 0.70791 0.25840 -0.18588
 C176 C 0.70558 0.24432 -0.17391
 C177 C 0.72034 0.24425 -0.16179
 C178 C 0.73136 0.25898 -0.16724
 H179 H 0.69408 0.23469 -0.17407
 H180 H 0.74406 0.26354 -0.16079
 H181 H 0.70365 0.29065 -0.19945
 H182 H 0.71723 0.27546 -0.21526
 N183 N 0.17937 0.77670 0.27253
 N184 N 0.18453 0.79126 0.26292
 C185 C 0.17268 0.79357 0.24881
 C186 C 0.15935 0.77970 0.24959
 C187 C 0.16410 0.76926 0.26488
 H188 H 0.17378 0.80445 0.23864
 H189 H 0.15698 0.75719 0.27017
 Cu190 Cu 0.20623 0.80572 0.26986
 Cu191 Cu 0.19288 0.76829 0.29413
 Cu192 Cu 0.23211 0.79329 0.30620
 N193 N 0.22836 0.81957 0.27671
 N194 N 0.23831 0.81470 0.29102
 C195 C 0.25250 0.82666 0.29297
 C196 C 0.25152 0.83987 0.27907
 C197 C 0.23594 0.83479 0.26900
 H198 H 0.26271 0.82568 0.30376
 H199 H 0.23034 0.84171 0.25707
 N200 N 0.22356 0.77125 0.31986
 N201 N 0.20843 0.76195 0.31547
 C202 C 0.20609 0.74796 0.32755
 C203 C 0.22049 0.74840 0.34009
 C204 C 0.23130 0.76334 0.33476
 H205 H 0.19487 0.73802 0.32712
 H206 H 0.24375 0.76825 0.34144
 H207 H 0.20399 0.79379 0.30116
 H208 H 0.21828 0.77863 0.28595
 N209 N 0.47308 0.43030 0.47700
 N210 N 0.45829 0.43519 0.48630
 C211 C 0.45582 0.42323 0.50032
 C212 C 0.46982 0.41007 0.49980
 C213 C 0.48051 0.41507 0.48476
 H214 H 0.44473 0.42413 0.51022
 H215 H 0.49275 0.40814 0.47971
 Cu216 Cu 0.44371 0.45674 0.47920
 Cu217 Cu 0.48166 0.44402 0.45558
 Cu218 Cu 0.45648 0.48297 0.44309
 N219 N 0.43000 0.47891 0.47225
 N220 N 0.43506 0.48907 0.45814
 C221 C 0.42328 0.50340 0.45631
 C222 C 0.41002 0.50223 0.47005
 C223 C 0.41480 0.48646 0.47991
 H224 H 0.42431 0.51383 0.44568
 H225 H 0.40778 0.48085 0.49178
 N226 N 0.47857 0.47454 0.42959
 N227 N 0.48813 0.45970 0.43433
 C228 C 0.50228 0.45756 0.42248
 C229 C 0.50164 0.47173 0.40960
 C230 C 0.48638 0.48222 0.41460
 H231 H 0.51222 0.44639 0.42312
 H232 H 0.48134 0.49460 0.40789
 H233 H 0.47084 0.46933 0.46363
 H234 H 0.45622 0.45472 0.44812
 N235 N -0.02404 -0.07159 0.97716
 N236 N -0.03869 -0.06647 0.98655
 C237 C -0.04126 -0.07841 1.00056
 C238 C -0.02748 -0.09178 0.99994
 C239 C -0.01680 -0.08694 0.98485
 H240 H -0.05229 -0.07737 1.01053
 H241 H -0.00475 -0.09411 0.97969
 Cu242 Cu -0.05300 -0.04473 0.97947
 Cu243 Cu -0.01544 -0.05809 0.95559
 Cu244 Cu -0.04030 -0.01896 0.94306
 N245 N -0.06654 -0.02246 0.97252
 N246 N -0.06153 -0.01252 0.95822
 C247 C -0.07322 0.00187 0.95629
 C248 C -0.08633 0.00098 0.97015
 C249 C -0.08160 -0.01467 0.98021
 H250 H -0.07215 0.01225 0.94562
 H251 H -0.08875 -0.02012 0.99209
 N252 N -0.01842 -0.02770 0.92947
 N253 N -0.00894 -0.04258 0.93422
 C254 C 0.00509 -0.04491 0.92227
 C255 C 0.00446 -0.03080 0.90933
 C256 C -0.01067 -0.02017 0.91438
 H257 H 0.01510 -0.05602 0.92301
 H258 H -0.01579 -0.00792 0.90750
 H259 H -0.02587 -0.03262 0.96355
 H260 H -0.04081 -0.04719 0.94831
 N261 N 1.02296 0.56790 0.97781
 N262 N 1.03562 0.56118 0.98892
 C263 C 1.03821 0.57309 1.00296
 C264 C 1.02646 0.58811 1.00059
 C265 C 1.01700 0.58429 0.98443
 H266 H 1.04776 0.57082 1.01417
 H267 H 1.00652 0.59275 0.97795
 Cu268 Cu 1.04745 0.53749 0.98414
 Cu269 Cu 1.01466 0.55457 0.95599
 Cu270 Cu 1.03579 0.51223 0.94717
 N271 N 1.06338 0.51787 0.97494
 N272 N 1.05878 0.50802 0.96044
 C273 C 1.07183 0.49506 0.95744
 C274 C 1.08545 0.49689 0.97077
 C275 C 1.07957 0.51159 0.98163
 H276 H 1.07120 0.48488 0.94653
 H277 H 1.08645 0.51730 0.99356
 N278 N 1.01601 0.52253 0.93162
 N279 N 1.00816 0.53876 0.93477
 C280 C 0.99527 0.54187 0.92177
 C281 C 0.99499 0.52690 0.90977
 C282 C 1.00839 0.51494 0.91649
 H283 H 0.98671 0.55414 0.92111
 H284 H 1.01226 0.50158 0.91090
 H285 H 1.02052 0.52854 0.96541
 H286 H 1.03918 0.54008 0.95187
 N287 N 0.52584 0.07222 0.47635
 N288 N 0.54012 0.06693 0.48622
 C289 C 0.54232 0.07879 0.50037
 C290 C 0.52868 0.09227 0.49937
 C291 C 0.51847 0.08760 0.48390
 H292 H 0.55302 0.07761 0.51068
 H293 H 0.50665 0.09489 0.47838
 Cu294 Cu 0.55451 0.04509 0.47960
 Cu295 Cu 0.51793 0.05887 0.45442
 Cu296 Cu 0.54381 0.02045 0.44173
 N297 N 0.56916 0.02378 0.47198
 N298 N 0.56492 0.01423 0.45717
 C299 C 0.57723 0.00039 0.45504
 C300 C 0.58995 0.00125 0.46929
 C301 C 0.58434 0.01633 0.47977
 H302 H 0.57683 -0.00961 0.44397
 H303 H 0.59090 0.02161 0.49205
 N304 N 0.52196 0.02894 0.42787
 N305 N 0.51212 0.04356 0.43269
 C306 C 0.49819 0.04577 0.42058
 C307 C 0.49927 0.03185 0.40745
 C308 C 0.51455 0.02145 0.41257
 H309 H 0.48793 0.05663 0.42137
 H310 H 0.51998 0.00938 0.40560
 H311 H 0.52830 0.03324 0.46195
 H312 H 0.54381 0.04849 0.44800
 N313 N -0.02547 0.07036 0.52105
 N314 N -0.03817 0.06377 0.50988
 C315 C -0.04117 0.07612 0.49631
 C316 C -0.02962 0.09126 0.49905
 C317 C -0.01985 0.08708 0.51492
 H318 H -0.05077 0.07404 0.48509
 H319 H -0.00935 0.09550 0.52147
 Cu320 Cu -0.04932 0.03956 0.51384
 Cu321 Cu -0.01644 0.05638 0.54212
 Cu322 Cu -0.03538 0.01253 0.54870
 N323 N -0.06428 0.01887 0.52247
 N324 N -0.05873 0.00825 0.53605
 C325 C -0.07126 -0.00530 0.53880
 C326 C -0.08561 -0.00305 0.52629
 C327 C -0.08063 0.01252 0.51616
 H328 H -0.06987 -0.01603 0.54909
 H329 H -0.08818 0.01877 0.50494
 N330 N -0.01582 0.02293 0.56452
 N331 N -0.00905 0.03983 0.56242
 C332 C 0.00360 0.04300 0.57564
 C333 C 0.00489 0.02734 0.58661
 C334 C -0.00765 0.01489 0.57911
 H335 H 0.01155 0.05566 0.57700
 H336 H -0.01085 0.00111 0.58409
 H337 H -0.02140 0.03079 0.53117
 H338 H -0.04015 0.04042 0.54594
 N339 N 0.47447 0.56817 0.02266
 N340 N 0.45909 0.56396 0.01396
 C341 C 0.45693 0.57566 -0.00032
 C342 C 0.47177 0.58788 -0.00061
 C343 C 0.48263 0.58266 0.01420
 H344 H 0.44548 0.57524 -0.00987
 H345 H 0.49538 0.58909 0.01871
 Cu346 Cu 0.44336 0.54358 0.02208
 Cu347 Cu 0.48257 0.55488 0.04451
 Cu348 Cu 0.45535 0.51799 0.05893
 N349 N 0.42868 0.52234 0.02999
 N350 N 0.43342 0.51242 0.04439
 C351 C 0.42103 0.49865 0.04673
 C352 C 0.40776 0.49992 0.03303
 C353 C 0.41312 0.51516 0.02265
 H354 H 0.42180 0.48835 0.05751
 H355 H 0.40618 0.52068 0.01069
 N356 N 0.47806 0.52577 0.07184
 N357 N 0.48844 0.53979 0.06632
 C358 C 0.50278 0.54175 0.07799
 C359 C 0.50141 0.52833 0.09158
 C360 C 0.48553 0.51845 0.08717
 H361 H 0.51344 0.55221 0.07667
 H362 H 0.47968 0.50692 0.09470
 H363 H 0.47000 0.52999 0.03759
 H364 H 0.45666 0.54601 0.05282
 N365 N 0.52461 -0.06862 0.02017
 N366 N 0.53997 -0.06431 0.01146
 C367 C 0.54259 -0.07649 -0.00235
 C368 C 0.52806 -0.08905 -0.00236
 C369 C 0.51689 -0.08358 0.01212
 H370 H 0.55411 -0.07616 -0.01181
 H371 H 0.50429 -0.09025 0.01671
 Cu372 Cu 0.55497 -0.04311 0.01882
 Cu373 Cu 0.51624 -0.05502 0.04174
 Cu374 Cu 0.54236 -0.01690 0.05506
 N375 N 0.56881 -0.02103 0.02592
 N376 N 0.56392 -0.01093 0.04016
 C377 C 0.57584 0.00334 0.04201
 C378 C 0.58891 0.00220 0.02812
 C379 C 0.58396 -0.01345 0.01817
 H380 H 0.57491 0.01387 0.05256
 H381 H 0.59099 -0.01902 0.00628
 N382 N 0.52006 -0.02513 0.06837
 N383 N 0.51006 -0.03957 0.06324
 C384 C 0.49595 -0.04177 0.07514
 C385 C 0.49708 -0.02803 0.08846
 C386 C 0.51257 -0.01774 0.08366
 H387 H 0.48564 -0.05260 0.07418
 H388 H 0.51816 -0.00590 0.09091
 H389 H 0.52799 -0.02995 0.03411
 H390 H 0.54190 -0.04513 0.04968
 N391 N 1.02601 0.42949 0.52230
 N392 N 1.04106 0.43419 0.51329
 C393 C 1.04344 0.42239 0.49912
 C394 C 1.02911 0.40956 0.49922
 C395 C 1.01831 0.41455 0.51417
 H396 H 1.05468 0.42320 0.48937
 H397 H 1.00586 0.40776 0.51895
 Cu398 Cu 1.05609 0.45530 0.52088
 Cu399 Cu 1.01761 0.44298 0.54394
 Cu400 Cu 1.04364 0.48114 0.55737
 N401 N 1.07021 0.47709 0.52830
 N402 N 1.06528 0.48712 0.54256
 C403 C 1.07732 0.50124 0.54465
 C404 C 1.09058 0.50008 0.53092
 C405 C 1.08556 0.48453 0.52080
 H406 H 1.07637 0.51164 0.55532
 H407 H 1.09261 0.47896 0.50893
 N408 N 1.02129 0.47290 0.57058
 N409 N 1.01137 0.45838 0.56548
 C410 C 0.99715 0.45627 0.57725
 C411 C 0.99811 0.47012 0.59046
 C412 C 1.01363 0.48039 0.58574
 H413 H 0.98682 0.44545 0.57622
 H414 H 1.01910 0.49235 0.59290
 H415 H 1.02914 0.46818 0.53645
 H416 H 1.04325 0.45297 0.55181
 C417 C 0.40282 0.00928 0.22405
 H418 H 0.40372 0.02173 0.23235
 C419 C 0.41460 0.00697 0.20902
 H420 H 0.42465 0.01769 0.20590
 C421 C 0.38893 -0.02003 0.21845
 H422 H 0.37903 -0.03060 0.22226
 C423 C 0.40046 -0.02292 0.20332
 H424 H 0.39904 -0.03560 0.19543
 N425 N 0.39015 -0.00403 0.22833
 C426 C 0.34617 0.02469 0.25793
 H427 H 0.34553 0.01642 0.27032
 C428 C 0.33387 0.03943 0.25545
 H429 H 0.32371 0.04236 0.26599
 C430 C 0.35982 0.03044 0.22887
 H431 H 0.36977 0.02676 0.21842
 C432 C 0.34777 0.04526 0.22581
 H433 H 0.34887 0.05308 0.21314
 Zn434 Zn 0.37478 0.00010 0.24900
 N435 N 0.35894 0.02062 0.24481
 C436 C 0.38906 0.02069 0.27926
 N437 N 0.39041 0.00466 0.26943
 C438 C 0.40345 -0.00830 0.27354
 C439 C 0.41546 -0.00562 0.28835
 C440 C 0.40080 0.02393 0.29417
 C441 C 0.34627 -0.02475 0.24057
 C442 C 0.33436 -0.03984 0.24298
 C443 C 0.34970 -0.04656 0.27173
 C444 C 0.36125 -0.03126 0.26882
 N445 N 0.35950 -0.02086 0.25331
 H446 H 0.37900 0.03108 0.27549
 H447 H 0.40441 -0.02079 0.26533
 H448 H 0.42548 -0.01629 0.29161
 H449 H 0.39960 0.03684 0.30172
 H450 H 0.34504 -0.01610 0.22847
 H451 H 0.32409 -0.04288 0.23256
 H452 H 0.35123 -0.05464 0.28419
 H453 H 0.37151 -0.02770 0.27902
 C454 C 0.33459 0.04995 0.23921
 C455 C 0.41346 -0.00928 0.19838
 C456 C 0.33606 -0.05102 0.25870
 C457 C 0.41418 0.01064 0.29895
 C458 C 0.09190 0.00178 0.72935
 H459 H 0.08589 -0.00201 0.74239
 C460 C 0.08033 0.00417 0.71416
 H461 H 0.06553 0.00270 0.71593
 C462 C 0.11833 0.00809 0.71116
 H463 H 0.13315 0.00922 0.70990
 C464 C 0.10727 0.01052 0.69560
 H465 H 0.11381 0.01353 0.68255
 N466 N 0.11055 0.00397 0.72771
 C467 C 0.15594 -0.02268 0.75669
 H468 H 0.15808 -0.01299 0.76787
 C469 C 0.16788 -0.03774 0.75448
 H470 H 0.17911 -0.03967 0.76415
 C471 C 0.13841 -0.03207 0.73075
 H472 H 0.12685 -0.02982 0.72159
 C473 C 0.15000 -0.04733 0.72803
 H474 H 0.14739 -0.05657 0.71657
 Zn475 Zn 0.12601 0.00055 0.74870
 N476 N 0.14156 -0.02015 0.74491
 C477 C 0.11256 -0.01989 0.77926
 N478 N 0.11101 -0.00366 0.76979
 C479 C 0.09861 0.00955 0.77494
 C480 C 0.08731 0.00682 0.79025
 C481 C 0.10149 -0.02321 0.79465
 C482 C 0.15513 0.02513 0.74005
 C483 C 0.16708 0.04022 0.74238
 C484 C 0.15113 0.04777 0.77054
 C485 C 0.13950 0.03253 0.76768
 N486 N 0.14145 0.02171 0.75245
 H487 H 0.12233 -0.03033 0.77489
 H488 H 0.09742 0.02222 0.76703
 H489 H 0.07738 0.01743 0.79398
 H490 H 0.10309 -0.03611 0.80213
 H491 H 0.15708 0.01591 0.72851
 H492 H 0.17771 0.04280 0.73221
 H493 H 0.14944 0.05605 0.78285
 H494 H 0.12914 0.02930 0.77784
 C495 C 0.16498 -0.05033 0.73999
 C496 C 0.08798 0.00864 0.69698
 C497 C 0.16511 0.05183 0.75777
 C498 C 0.08868 -0.00974 0.80034
 C499 C 0.59688 0.49132 0.22654
 H500 H 0.59516 0.47952 0.23551
 C501 C 0.58493 0.49353 0.21161
 H502 H 0.57429 0.48322 0.20914
 C503 C 0.61184 0.51975 0.21961
 H504 H 0.62201 0.53020 0.22289
 C505 C 0.60017 0.52252 0.20456
 H506 H 0.60191 0.53486 0.19622
 N507 N 0.61025 0.50418 0.23011
 C508 C 0.65967 0.48027 0.24788
 H509 H 0.66628 0.49354 0.25000
 C510 C 0.67066 0.46450 0.24564
 H511 H 0.68557 0.46605 0.24554
 C512 C 0.63244 0.46210 0.24561
 H513 H 0.61756 0.46108 0.24615
 C514 C 0.64291 0.44595 0.24347
 H515 H 0.63585 0.43273 0.24224
 Zn516 Zn 0.62597 0.50054 0.25086
 N517 N 0.64088 0.47891 0.24759
 C518 C 0.61491 0.48391 0.28431
 N519 N 0.61080 0.49725 0.27174
 C520 C 0.59575 0.50837 0.27374
 C521 C 0.58394 0.50612 0.28877
 C522 C 0.60349 0.48118 0.29955
 C523 C 0.65351 0.52670 0.24094
 C524 C 0.66520 0.54197 0.24333
 C525 C 0.65177 0.54682 0.27334
 C526 C 0.64036 0.53142 0.27039
 N527 N 0.64140 0.52170 0.25439
 H528 H 0.62711 0.47542 0.28258
 H529 H 0.59283 0.51889 0.26352
 H530 H 0.57182 0.51486 0.28992
 H531 H 0.60709 0.47060 0.30950
 H532 H 0.65414 0.51873 0.22834
 H533 H 0.67462 0.54579 0.23239
 H534 H 0.65093 0.55420 0.28628
 H535 H 0.63078 0.52717 0.28099
 C536 C 0.66231 0.44702 0.24337
 C537 C 0.58654 0.50927 0.20034
 C538 C 0.66445 0.55224 0.25972
 C539 C 0.58771 0.49230 0.30188
 C540 C 0.90160 0.50866 0.72426
 H541 H 0.90305 0.52074 0.73292
 C542 C 0.91358 0.50633 0.70937
 H543 H 0.92397 0.51683 0.70663
 C544 C 0.88733 0.47970 0.71808
 H545 H 0.87744 0.46908 0.72166
 C546 C 0.89904 0.47680 0.70309
 H547 H 0.89759 0.46419 0.69509
 N548 N 0.88857 0.49558 0.72819
 C549 C 0.83884 0.51897 0.74583
 H550 H 0.83247 0.50560 0.74806
 C551 C 0.82755 0.53451 0.74350
 H552 H 0.81267 0.53268 0.74343
 C553 C 0.86572 0.53761 0.74338
 H554 H 0.88058 0.53892 0.74388
 C555 C 0.85495 0.55355 0.74116
 H556 H 0.86176 0.56689 0.73986
 Zn557 Zn 0.87285 0.49927 0.74893
 N558 N 0.85761 0.52067 0.74551
 C559 C 0.88428 0.51656 0.78205
 N560 N 0.88807 0.50284 0.76977
 C561 C 0.90285 0.49140 0.77204
 C562 C 0.91462 0.49361 0.78712
 C563 C 0.89568 0.51926 0.79733
 C564 C 0.84570 0.47264 0.73916
 C565 C 0.83423 0.45721 0.74159
 C566 C 0.84760 0.45281 0.77171
 C567 C 0.85879 0.46836 0.76871
 N568 N 0.85768 0.47793 0.75262
 H569 H 0.87236 0.52538 0.78006
 H570 H 0.90547 0.48053 0.76210
 H571 H 0.92620 0.48425 0.78879
 H572 H 0.89257 0.53042 0.80682
 H573 H 0.84503 0.48048 0.72649
 H574 H 0.82493 0.45315 0.73063
 H575 H 0.84851 0.44554 0.78470
 H576 H 0.86824 0.47285 0.77934
 C577 C 0.83556 0.55213 0.74112
 C578 C 0.91235 0.49025 0.69852
 C579 C 0.83508 0.44708 0.75806
 C580 C 0.91112 0.50773 0.80000
 C581 C 0.22240 0.40387 0.00900
 H582 H 0.23027 0.40460 0.02164
 C583 C 0.20740 0.41576 0.00628
 H584 H 0.20364 0.42545 0.01703
 C585 C 0.21774 0.39019 -0.02027
 H586 H 0.22199 0.38045 -0.03073
 C587 C 0.20263 0.40180 -0.02356
 H588 H 0.19542 0.40083 -0.03657
 N589 N 0.22712 0.39124 -0.00408
 C590 C 0.25615 0.34726 0.02537
 H591 H 0.26886 0.34668 0.01753
 C592 C 0.25342 0.33508 0.04006
 H593 H 0.26423 0.32532 0.04359
 C594 C 0.22673 0.36086 0.03029
 H595 H 0.21621 0.37068 0.02625
 C596 C 0.22341 0.34894 0.04508
 H597 H 0.21032 0.34976 0.05227
 Zn598 Zn 0.24775 0.37576 0.00064
 N599 N 0.24299 0.35997 0.02092
 C600 C 0.27767 0.39030 0.02172
 N601 N 0.26822 0.39147 0.00559
 C602 C 0.27275 0.40436 -0.00731
 C603 C 0.28764 0.41641 -0.00445
 C604 C 0.29267 0.40207 0.02514
 C605 C 0.23968 0.34755 -0.02458
 C606 C 0.24255 0.33569 -0.03950
 C607 C 0.27245 0.34999 -0.04417
 C608 C 0.26899 0.36160 -0.02918
 N609 N 0.25271 0.36035 -0.01988
 H610 H 0.27356 0.38033 0.03203
 H611 H 0.26483 0.40516 -0.01991
 H612 H 0.29126 0.42631 -0.01507
 H613 H 0.29994 0.40100 0.03811
 H614 H 0.22701 0.34661 -0.01672
 H615 H 0.23204 0.32554 -0.04297
 H616 H 0.28536 0.35142 -0.05160
 H617 H 0.27937 0.37156 -0.02500
 C618 C 0.23688 0.33587 0.05018
 C619 C 0.19723 0.41475 -0.01015
 C620 C 0.25910 0.33687 -0.04956
 C621 C 0.29788 0.41530 0.01192
 C622 C 0.73301 0.08903 0.00541
 H623 H 0.74657 0.08285 0.00588
 C624 C 0.71750 0.07771 0.00776
 H625 H 0.71945 0.06305 0.01043
 C626 C 0.71396 0.11544 0.00134
 H627 H 0.71266 0.13008 -0.00167
 C628 C 0.69805 0.10461 0.00355
 H629 H 0.68460 0.11110 0.00233
 N630 N 0.73105 0.10762 0.00259
 C631 C 0.74934 0.15721 -0.01985
 H632 H 0.75307 0.16341 -0.00684
 C633 C 0.74619 0.16859 -0.03506
 H634 H 0.74725 0.18350 -0.03341
 C635 C 0.74297 0.13032 -0.03758
 H636 H 0.74175 0.11536 -0.03838
 C637 C 0.73990 0.14117 -0.05320
 H638 H 0.73658 0.13437 -0.06606
 Zn639 Zn 0.75207 0.12324 -0.00062
 N640 N 0.74777 0.13845 -0.02139
 C641 C 0.78302 0.10949 -0.02054
 N642 N 0.77370 0.10866 -0.00432
 C643 C 0.77969 0.09762 0.00964
 C644 C 0.79524 0.08638 0.00736
 C645 C 0.79866 0.09849 -0.02341
 C646 C 0.74086 0.14779 0.02773
 C647 C 0.74334 0.15979 0.04262
 C648 C 0.77599 0.15272 0.04221
 C649 C 0.77290 0.14091 0.02729
 N650 N 0.75554 0.13860 0.02038
 H651 H 0.77839 0.11867 -0.03133
 H652 H 0.77224 0.09744 0.02253
 H653 H 0.79947 0.07735 0.01849
 H654 H 0.80590 0.09939 -0.03640
 H655 H 0.72723 0.14602 0.02196
 H656 H 0.73146 0.16691 0.04832
 H657 H 0.78995 0.15462 0.04728
 H658 H 0.78451 0.13394 0.02098
 C659 C 0.74154 0.16061 -0.05209
 C660 C 0.69970 0.08547 0.00691
 C661 C 0.76110 0.16242 0.05001
 C662 C 0.80486 0.08660 -0.00940
 C663 C 0.22523 0.59700 0.49188
 H664 H 0.23384 0.59568 0.47984
 C665 C 0.21033 0.58485 0.49426
 H666 H 0.20751 0.57447 0.48384
 C667 C 0.21923 0.61109 0.52066
 H668 H 0.22290 0.62096 0.53119
 C669 C 0.20424 0.59921 0.52361
 H670 H 0.19630 0.60052 0.53616
 N671 N 0.22924 0.61003 0.50484
 C672 C 0.24661 0.66033 0.48203
 H673 H 0.24928 0.66653 0.49526
 C674 C 0.24388 0.67189 0.46688
 H675 H 0.24393 0.68680 0.46889
 C676 C 0.24348 0.63362 0.46332
 H677 H 0.24385 0.61872 0.46183
 C678 C 0.24084 0.64467 0.44776
 H679 H 0.23911 0.63803 0.43451
 Zn680 Zn 0.24999 0.62599 0.50106
 N681 N 0.24613 0.64152 0.48012
 C682 C 0.28301 0.61477 0.48326
 N683 N 0.27095 0.61088 0.49709
 C684 C 0.27351 0.59604 0.50835
 C685 C 0.28865 0.58429 0.50583
 C686 C 0.29833 0.60338 0.48025
 C687 C 0.24038 0.65288 0.52772
 C688 C 0.24299 0.66432 0.54299
 C689 C 0.27348 0.65117 0.54684
 C690 C 0.27030 0.63999 0.53146
 N691 N 0.25395 0.64101 0.52224
 H692 H 0.28083 0.62679 0.47464
 H693 H 0.26369 0.59329 0.51923
 H694 H 0.29027 0.57236 0.51474
 H695 H 0.30789 0.60681 0.46930
 H696 H 0.22752 0.65350 0.52013
 H697 H 0.23195 0.67354 0.54720
 H698 H 0.28669 0.65036 0.55383
 H699 H 0.28100 0.63063 0.52681
 C700 C 0.24093 0.66411 0.44942
 C701 C 0.19956 0.58591 0.51028
 C702 C 0.25974 0.66359 0.55275
 C703 C 0.30128 0.58786 0.49158
 C704 C 0.72479 0.90546 0.50968
 H705 H 0.73298 0.90651 0.52202
 C706 C 0.70974 0.91736 0.50726
 H707 H 0.70621 0.92705 0.51809
 C708 C 0.71971 0.89205 0.48039
 H709 H 0.72387 0.88263 0.46966
 C710 C 0.70456 0.90367 0.47742
 H711 H 0.69723 0.90287 0.46446
 N712 N 0.72932 0.89285 0.49648
 C713 C 0.74593 0.84278 0.51958
 H714 H 0.74792 0.83645 0.50630
 C715 C 0.74324 0.83136 0.53486
 H716 H 0.74269 0.81646 0.53291
 C717 C 0.74438 0.86963 0.53828
 H718 H 0.74542 0.88451 0.53971
 C719 C 0.74183 0.85872 0.55396
 H720 H 0.74078 0.86545 0.56722
 Zn721 Zn 0.75008 0.87698 0.50037
 N722 N 0.74623 0.86160 0.52144
 C723 C 0.78341 0.88812 0.51778
 N724 N 0.77113 0.89212 0.50418
 C725 C 0.77364 0.90696 0.49290
 C726 C 0.78897 0.91859 0.49515
 C727 C 0.79893 0.89938 0.52052
 C728 C 0.74029 0.85013 0.47362
 C729 C 0.74292 0.83858 0.45844
 C730 C 0.77370 0.85125 0.45502
 C731 C 0.77049 0.86255 0.47030
 N732 N 0.75399 0.86181 0.47928
 H733 H 0.78125 0.87613 0.52646
 H734 H 0.76372 0.90973 0.48211
 H735 H 0.79084 0.93021 0.48589
 H736 H 0.80842 0.89611 0.53156
 H737 H 0.72729 0.84975 0.48100
 H738 H 0.73177 0.82951 0.45409
 H739 H 0.78703 0.85183 0.44825
 H740 H 0.78129 0.87177 0.47508
 C741 C 0.74116 0.83929 0.55237
 C742 C 0.69931 0.91647 0.49100
 C743 C 0.75983 0.83900 0.44895
 C744 C 0.80187 0.91487 0.50913
 C745 C 0.00677 0.22609 0.40257
 H746 H 0.01972 0.23365 0.40250
 C747 C 0.00411 0.21152 0.41497
 H748 H 0.01520 0.20778 0.42427
 C749 C -0.02338 0.22179 0.39045
 H750 H -0.03429 0.22614 0.38130
 C751 C -0.02658 0.20707 0.40254
 H752 H -0.03989 0.20013 0.40238
 N753 N -0.00675 0.23070 0.39039
 C754 C 0.02385 0.25856 0.34658
 H755 H 0.01606 0.27136 0.34577
 C756 C 0.03885 0.25568 0.33485
 H757 H 0.04243 0.26630 0.32493
 C758 C 0.02817 0.22897 0.36015
 H759 H 0.02381 0.21848 0.36984
 C760 C 0.04326 0.22548 0.34865
 H761 H 0.05060 0.21245 0.34990
 Zn762 Zn -0.00177 0.25067 0.37409
 N763 N 0.01896 0.24540 0.35907
 C764 C 0.01945 0.28071 0.38861
 N765 N 0.00280 0.27187 0.38880
 C766 C -0.01102 0.27742 0.40021
 C767 C -0.00847 0.29261 0.41189
 C768 C 0.02260 0.29596 0.40007
 C769 C -0.02867 0.24066 0.34801
 C770 C -0.04358 0.24325 0.33609
 C771 C -0.04349 0.27584 0.34396
 C772 C -0.02896 0.27248 0.35618
 N773 N -0.02202 0.25506 0.35814
 H774 H 0.03040 0.27585 0.37973
 H775 H -0.02402 0.26993 0.40029
 H776 H -0.01957 0.29665 0.42104
 H777 H 0.03588 0.30294 0.39959
 H778 H -0.02255 0.22703 0.34944
 H779 H -0.04909 0.23129 0.32895
 H780 H -0.04831 0.28996 0.34232
 H781 H -0.02300 0.28391 0.36381
 C782 C 0.04882 0.23898 0.33583
 C783 C -0.01269 0.20169 0.41492
 C784 C -0.05126 0.26108 0.33383
 C785 C 0.00853 0.30209 0.41193
 C786 C -0.00852 0.72387 0.09666
 H787 H -0.02078 0.73243 0.09583
 C788 C -0.00634 0.70889 0.08467
 H789 H -0.01696 0.70610 0.07454
 C790 C 0.02050 0.71762 0.11050
 H791 H 0.03104 0.72120 0.12041
 C792 C 0.02324 0.70249 0.09879
 H793 H 0.03575 0.69434 0.10013
 N794 N 0.00471 0.72783 0.10937
 C795 C -0.02388 0.75796 0.15292
 H796 H -0.01548 0.77040 0.15358
 C797 C -0.03874 0.75569 0.16498
 H798 H -0.04162 0.76644 0.17500
 C799 C -0.02987 0.72860 0.13940
 H800 H -0.02625 0.71798 0.12956
 C801 C -0.04482 0.72574 0.15123
 H802 H -0.05279 0.71304 0.15009
 Zn803 Zn 0.00071 0.74868 0.12473
 N804 N -0.01987 0.74461 0.14032
 C805 C -0.01947 0.77933 0.11032
 N806 N -0.00354 0.76934 0.10921
 C807 C 0.00960 0.77341 0.09645
 C808 C 0.00721 0.78834 0.08445
 C809 C -0.02243 0.79438 0.09858
 C810 C 0.02578 0.73988 0.15272
 C811 C 0.04073 0.74246 0.16463
 C812 C 0.04635 0.77230 0.15050
 C813 C 0.03132 0.76913 0.13884
 N814 N 0.02150 0.75303 0.14001
 H815 H -0.02999 0.77558 0.12018
 H816 H 0.02202 0.76508 0.09571
 H817 H 0.01801 0.79157 0.07464
 H818 H -0.03526 0.80206 0.09957
 H819 H 0.01751 0.72737 0.15362
 H820 H 0.04382 0.73188 0.17475
 H821 H 0.05416 0.78508 0.14916
 H822 H 0.02747 0.77962 0.12896
 C823 C -0.04946 0.73942 0.16420
 C824 C 0.00969 0.69791 0.08568
 C825 C 0.05126 0.75884 0.16359
 C826 C -0.00896 0.79910 0.08546
 C827 C 0.49017 0.22633 0.59671
 H828 H 0.47785 0.23481 0.59583
 C829 C 0.49256 0.21142 0.58466
 H830 H 0.48204 0.20858 0.57444
 C831 C 0.51912 0.22021 0.61076
 H832 H 0.52955 0.22380 0.62079
 C833 C 0.52209 0.20520 0.59896
 H834 H 0.53467 0.19717 0.60031
 N835 N 0.50327 0.23031 0.60956
 C836 C 0.47487 0.25995 0.65354
 H837 H 0.48348 0.27223 0.65450
 C838 C 0.46013 0.25752 0.66572
 H839 H 0.45758 0.26796 0.67612
 C840 C 0.46828 0.23113 0.63920
 H841 H 0.47163 0.22075 0.62902
 C842 C 0.45339 0.22815 0.65107
 H843 H 0.44520 0.21562 0.64960
 Zn844 Zn 0.49921 0.25106 0.62504
 N845 N 0.47856 0.24692 0.64052
 C846 C 0.47922 0.28194 0.61095
 N847 N 0.49508 0.27187 0.60968
 C848 C 0.50815 0.27592 0.59684
 C849 C 0.50573 0.29088 0.58489
 C850 C 0.47622 0.29701 0.59924
 C851 C 0.52359 0.24206 0.65346
 C852 C 0.53842 0.24436 0.66555
 C853 C 0.54536 0.27365 0.65088
 C854 C 0.53035 0.27082 0.63910
 N855 N 0.51994 0.25511 0.64046
 H856 H 0.46882 0.27829 0.62097
 H857 H 0.52047 0.26744 0.59589
 H858 H 0.51623 0.29379 0.57467
 H859 H 0.46363 0.30503 0.60065
 H860 H 0.51488 0.22986 0.65445
 H861 H 0.54093 0.23389 0.67594
 H862 H 0.55367 0.28608 0.64935
 H863 H 0.52704 0.28122 0.62894
 C864 C 0.44914 0.24144 0.66457
 C865 C 0.50870 0.20061 0.58570
 C866 C 0.54958 0.26031 0.66434
 C867 C 0.48959 0.30168 0.58602
 C868 C 0.51215 0.71982 0.89981
 H869 H 0.52552 0.72640 0.89861
 C870 C 0.51016 0.70429 0.91113
 H871 H 0.52213 0.69890 0.91831
 C872 C 0.48030 0.71889 0.89218
 H873 H 0.46855 0.72489 0.88519
 C874 C 0.47770 0.70329 0.90328
 H875 H 0.46397 0.69740 0.90461
 N876 N 0.49734 0.72680 0.89055
 C877 C 0.51933 0.74385 0.84191
 H878 H 0.50577 0.74327 0.83577
 C879 C 0.53487 0.74213 0.83065
 H880 H 0.53295 0.73981 0.81607
 C881 C 0.53835 0.74761 0.86815
 H882 H 0.53963 0.75028 0.88271
 C883 C 0.55428 0.74601 0.85739
 H884 H 0.56771 0.74734 0.86386
 Zn885 Zn 0.50023 0.74855 0.87595
 N886 N 0.52127 0.74622 0.86037
 C887 C 0.50862 0.78586 0.88383
 N888 N 0.50415 0.76925 0.89152
 C889 C 0.50255 0.76732 0.91004
 C890 C 0.50534 0.78255 0.92161
 C891 C 0.51132 0.80151 0.89487
 C892 C 0.47269 0.73844 0.85023
 C893 C 0.45701 0.74080 0.83925
 C894 C 0.45305 0.77136 0.85237
 C895 C 0.46879 0.76841 0.86311
 N896 N 0.47845 0.75226 0.86167
 H897 H 0.50985 0.78698 0.86905
 H898 H 0.49905 0.75398 0.91590
 H899 H 0.50426 0.78060 0.93632
 H900 H 0.51437 0.81470 0.88839
 H901 H 0.48040 0.72559 0.84954
 H902 H 0.45295 0.72980 0.82993
 H903 H 0.44555 0.78430 0.85375
 H904 H 0.47324 0.77907 0.87257
 C905 C 0.55266 0.74312 0.83837
 C906 C 0.49274 0.69583 0.91299
 C907 C 0.44705 0.75751 0.84013
 C908 C 0.50965 0.80001 0.91407
 C909 C 0.11060 0.22656 0.28651
 C910 C 0.11549 0.24025 0.27363
 C911 C 0.13018 0.23740 0.26148
 C912 C 0.14038 0.22078 0.26190
 C913 C 0.13548 0.20708 0.27480
 C914 C 0.12076 0.20993 0.28695
 C915 C 0.09495 0.22961 0.29939
 C916 C 0.08250 0.21516 0.30346
 C917 C 0.06761 0.21815 0.31536
 C918 C 0.06483 0.23566 0.32345
 C919 C 0.07736 0.25007 0.31948
 C920 C 0.09224 0.24708 0.30760
 H921 H 0.13353 0.24833 0.25183
 H922 H 0.14290 0.19407 0.27554
 H923 H 0.05805 0.20684 0.31794
 H924 H 0.07578 0.26362 0.32574
 H925 H 0.11746 0.19919 0.29684
 H926 H 0.08405 0.20162 0.29715
 H927 H 0.10779 0.25311 0.27278
 H928 H 0.10177 0.25840 0.30499
 C929 C 0.61725 0.73417 0.79183
 C930 C 0.62663 0.71708 0.79137
 C931 C 0.64179 0.71451 0.77971
 C932 C 0.64788 0.72894 0.76818
 C933 C 0.63858 0.74607 0.76874
 C934 C 0.62347 0.74866 0.78045
 C935 C 0.60087 0.73677 0.80393
 C936 C 0.58541 0.74680 0.79771
 C937 C 0.56987 0.74900 0.80893
 C938 C 0.56938 0.74116 0.82662
 C939 C 0.58489 0.73124 0.83289
 C940 C 0.60045 0.72908 0.82168
 H941 H 0.64847 0.70107 0.77951
 H942 H 0.64303 0.75758 0.76026
 H943 H 0.55827 0.75692 0.80376
 H944 H 0.58490 0.72488 0.84638
 H945 H 0.61676 0.76210 0.78070
 H946 H 0.58519 0.75273 0.78404
 H947 H 0.62202 0.70554 0.79974
 H948 H 0.61221 0.72146 0.82697
 C949 C 0.38400 0.76920 0.79223
 C950 C 0.37879 0.75534 0.77964
 C951 C 0.36404 0.75821 0.76754
 C952 C 0.35412 0.77501 0.76774
 C953 C 0.35928 0.78881 0.78045
 C954 C 0.37404 0.78595 0.79253
 C955 C 0.39993 0.76629 0.80481
 C956 C 0.41257 0.78074 0.80824
 C957 C 0.42776 0.77792 0.81979
 C958 C 0.43067 0.76058 0.82817
 C959 C 0.41797 0.74616 0.82484
 C960 C 0.40277 0.74898 0.81329
 H961 H 0.36046 0.74719 0.75807
 H962 H 0.35206 0.80195 0.78102
 H963 H 0.43747 0.78922 0.82184
 H964 H 0.41967 0.73273 0.83132
 H965 H 0.37759 0.79681 0.80222
 H966 H 0.41094 0.79414 0.80168
 H967 H 0.38632 0.74237 0.77892
 H968 H 0.39311 0.73766 0.81114
 C969 C -0.11373 0.27288 0.28434
 C970 C -0.11276 0.26769 0.26571
 C971 C -0.12797 0.26994 0.25406
 C972 C -0.14446 0.27807 0.26047
 C973 C -0.14530 0.28364 0.27901
 C974 C -0.13030 0.28079 0.29081
 C975 C -0.09762 0.26998 0.29694
 C976 C -0.09470 0.28166 0.31219
 C977 C -0.07990 0.27866 0.32419
 C978 C -0.06716 0.26423 0.32103
 C979 C -0.06987 0.25279 0.30556
 C980 C -0.08500 0.25542 0.29390
 H981 H -0.12645 0.26577 0.23985
 H982 H -0.15774 0.28965 0.28472
 H983 H -0.07866 0.28762 0.33607
 H984 H -0.06026 0.24177 0.30227
 H985 H -0.13194 0.28454 0.30512
 H986 H -0.10377 0.29329 0.31491
 H987 H -0.10017 0.26209 0.25993
 H988 H -0.08682 0.24582 0.28260
 C989 C -0.11146 0.72886 0.21371
 C990 C -0.12217 0.71257 0.21293
 C991 C -0.13713 0.71002 0.22485
 C992 C -0.14175 0.72371 0.23786
 C993 C -0.13101 0.74001 0.23862
 C994 C -0.11606 0.74255 0.22669
 C995 C -0.09557 0.73157 0.20103
 C996 C -0.09218 0.74900 0.19301
 C997 C -0.07724 0.75155 0.18108
 C998 C -0.06534 0.73671 0.17689
 C999 C -0.06873 0.71927 0.18491
 C1000 C -0.08366 0.71673 0.19685
 H1001 H -0.14496 0.69725 0.22383
 H1002 H -0.13412 0.75091 0.24836
 H1003 H -0.07517 0.76507 0.17489
 H1004 H -0.05964 0.70765 0.18219
 H1005 H -0.10795 0.75517 0.22779
 H1006 H -0.10128 0.76063 0.19572
 H1007 H -0.11912 0.70185 0.20293
 H1008 H -0.08573 0.70321 0.20304
 C1009 C 0.38789 0.22981 0.71475
 C1010 C 0.37645 0.21416 0.71290
 C1011 C 0.36164 0.21127 0.72491
 C1012 C 0.35788 0.22395 0.73922
 C1013 C 0.36947 0.23964 0.74100
 C1014 C 0.38423 0.24254 0.72891
 C1015 C 0.40362 0.23283 0.70197
 C1016 C 0.40737 0.25060 0.69490
 C1017 C 0.42210 0.25340 0.68276
 C1018 C 0.43346 0.23848 0.67746
 C1019 C 0.42973 0.22072 0.68460
 C1020 C 0.41497 0.21792 0.69669
 H1021 H 0.35327 0.19900 0.72281
 H1022 H 0.36730 0.24984 0.75169
 H1023 H 0.42441 0.26719 0.67729
 H1024 H 0.43841 0.20900 0.68107
 H1025 H 0.39295 0.25464 0.73080
 H1026 H 0.39870 0.26230 0.69852
 H1027 H 0.37880 0.20422 0.70197
 H1028 H 0.41259 0.20412 0.70213
 C1029 C 0.61150 0.27097 0.71398
 C1030 C 0.61488 0.25830 0.72823
 C1031 C 0.62987 0.26081 0.74013
 C1032 C 0.64200 0.27604 0.73805
 C1033 C 0.63847 0.28873 0.72369
 C1034 C 0.62341 0.28624 0.71188
 C1035 C 0.59563 0.26825 0.70131
 C1036 C 0.58455 0.28336 0.69604
 C1037 C 0.56961 0.28079 0.68409
 C1038 C 0.56545 0.26306 0.67707
 C1039 C 0.57658 0.24795 0.68234
 C1040 C 0.59146 0.25052 0.69435
 H1041 H 0.63182 0.25063 0.75087
 H1042 H 0.64723 0.30068 0.72141
 H1043 H 0.56113 0.29266 0.68058
 H1044 H 0.57396 0.23417 0.67695
 H1045 H 0.62124 0.29614 0.70089
 H1046 H 0.58727 0.29714 0.70139
 H1047 H 0.60579 0.24651 0.73031
 H1048 H 0.59993 0.23866 0.69796
 C1049 C 0.11333 0.77085 0.21274
 C1050 C 0.12388 0.78724 0.21176
 C1051 C 0.13879 0.79011 0.22368
 C1052 C 0.14352 0.77666 0.23688
 C1053 C 0.13295 0.76026 0.23783
 C1054 C 0.11805 0.75739 0.22591
 C1055 C 0.09747 0.76779 0.20009
 C1056 C 0.09425 0.75020 0.19231
 C1057 C 0.07928 0.74730 0.18048
 C1058 C 0.06718 0.76193 0.17615
 C1059 C 0.07041 0.77953 0.18392
 C1060 C 0.08537 0.78242 0.19575
 H1061 H 0.14651 0.80294 0.22253
 H1062 H 0.13615 0.74953 0.24772
 H1063 H 0.07733 0.73366 0.17449
 H1064 H 0.06116 0.79100 0.18109
 H1065 H 0.11006 0.74471 0.22715
 H1066 H 0.10349 0.73872 0.19515
 H1067 H 0.12073 0.79778 0.20162
 H1068 H 0.08730 0.79606 0.20176
 C1069 C 0.28438 0.11153 0.22727
 C1070 C 0.28543 0.12199 0.21101
 C1071 C 0.27343 0.13690 0.20802
 C1072 C 0.26006 0.14171 0.22123
 C1073 C 0.25904 0.13124 0.23751
 C1074 C 0.27106 0.11634 0.24050
 C1075 C 0.29712 0.09567 0.23039
 C1076 C 0.30501 0.09263 0.24779
 C1077 C 0.31712 0.07778 0.25067
 C1078 C 0.32161 0.06565 0.23621
 C1079 C 0.31366 0.06865 0.21883
 C1080 C 0.30156 0.08349 0.21596
 H1081 H 0.27465 0.14452 0.19528
 H1082 H 0.24902 0.13452 0.24806
 H1083 H 0.32323 0.07600 0.26415
 H1084 H 0.31659 0.05936 0.20749
 H1085 H 0.26977 0.10842 0.25309
 H1086 H 0.30208 0.10194 0.25912
 H1087 H 0.29569 0.11879 0.20064
 H1088 H 0.29546 0.08527 0.20247
 C1089 C 0.78916 0.61723 0.73141
 C1090 C 0.78744 0.62553 0.71400
 C1091 C 0.77608 0.64102 0.71147
 C1092 C 0.76604 0.64848 0.72626
 C1093 C 0.76771 0.64020 0.74365
 C1094 C 0.77920 0.62481 0.74622
 C1095 C 0.80117 0.60066 0.73406
 C1096 C 0.79580 0.58629 0.74601
 C1097 C 0.80699 0.57065 0.74839
 C1098 C 0.82377 0.56891 0.73877
 C1099 C 0.82916 0.58330 0.72683
 C1100 C 0.81803 0.59899 0.72456
 H1101 H 0.77492 0.64691 0.69784
 H1102 H 0.76034 0.64576 0.75538
 H1103 H 0.80252 0.55999 0.75790
 H1104 H 0.84188 0.58234 0.71904
 H1105 H 0.78045 0.61900 0.75989
 H1106 H 0.78280 0.58698 0.75338
 H1107 H 0.79462 0.61986 0.70221
 H1108 H 0.82273 0.60990 0.71543
 C1109 C 0.78726 0.38336 0.76955
 C1110 C 0.77443 0.37799 0.75603
 C1111 C 0.76272 0.36279 0.75888
 C1112 C 0.76358 0.35256 0.77531
 C1113 C 0.77650 0.35788 0.78880
 C1114 C 0.78818 0.37310 0.78596
 C1115 C 0.79955 0.39967 0.76660
 C1116 C 0.81814 0.39927 0.77232
 C1117 C 0.82966 0.41464 0.76957
 C1118 C 0.82286 0.43075 0.76101
 C1119 C 0.80429 0.43115 0.75530
 C1120 C 0.79276 0.41580 0.75808
 H1121 H 0.75314 0.35899 0.74808
 H1122 H 0.77744 0.35049 0.80171
 H1123 H 0.84398 0.41382 0.77389
 H1124 H 0.79857 0.44347 0.74894
 H1125 H 0.79773 0.37705 0.79676
 H1126 H 0.82386 0.38695 0.77868
 H1127 H 0.77359 0.38542 0.74311
 H1128 H 0.77843 0.41668 0.75381
 C1129 C 0.28745 -0.11417 0.27006
 C1130 C 0.27289 -0.11797 0.25782
 C1131 C 0.26106 -0.13307 0.26076
 C1132 C 0.26351 -0.14491 0.27601
 C1133 C 0.27823 -0.14107 0.28818
 C1134 C 0.28997 -0.12591 0.28526
 C1135 C 0.29994 -0.09801 0.26702
 C1136 C 0.31898 -0.09935 0.27078
 C1137 C 0.33068 -0.08411 0.26812
 C1138 C 0.32363 -0.06720 0.26152
 C1139 C 0.30462 -0.06585 0.25767
 C1140 C 0.29290 -0.08106 0.26043
 H1141 H 0.25013 -0.13538 0.25087
 H1142 H 0.28075 -0.14955 0.30017
 H1143 H 0.34531 -0.08563 0.27095
 H1144 H 0.29876 -0.05292 0.25281
 H1145 H 0.30087 -0.12321 0.29512
 H1146 H 0.32491 -0.11228 0.27556
 H1147 H 0.27074 -0.10938 0.24580
 H1148 H 0.27826 -0.07945 0.25770
 C1149 C 0.21368 -0.11338 0.72965
 C1150 C 0.22857 -0.11657 0.74163
 C1151 C 0.24031 -0.13176 0.73903
 C1152 C 0.23751 -0.14422 0.72431
 C1153 C 0.22251 -0.14090 0.71233
 C1154 C 0.21080 -0.12572 0.71498
 C1155 C 0.20121 -0.09725 0.73240
 C1156 C 0.18201 -0.09912 0.72988
 C1157 C 0.17027 -0.08391 0.73235
 C1158 C 0.17746 -0.06649 0.73740
 C1159 C 0.19666 -0.06462 0.73996
 C1160 C 0.20840 -0.07983 0.73749
 H1161 H 0.25152 -0.13359 0.74870
 H1162 H 0.21967 -0.14990 0.70078
 H1163 H 0.15551 -0.08587 0.73057
 H1164 H 0.20265 -0.05132 0.74358
 H1165 H 0.19958 -0.12349 0.70536
 H1166 H 0.17602 -0.11242 0.72625
 H1167 H 0.23102 -0.10742 0.75321
 H1168 H 0.22315 -0.07788 0.73926
 C1169 C 0.70780 0.38149 0.23277
 C1170 C 0.70954 0.37379 0.21510
 C1171 C 0.72104 0.35851 0.21205
 C1172 C 0.73119 0.35066 0.22656
 C1173 C 0.72938 0.35826 0.24426
 C1174 C 0.71777 0.37346 0.24734
 C1175 C 0.69589 0.39804 0.23588
 C1176 C 0.70146 0.41216 0.24804
 C1177 C 0.69051 0.42794 0.25060
 C1178 C 0.67376 0.43004 0.24097
 C1179 C 0.66813 0.41585 0.22891
 C1180 C 0.67902 0.40002 0.22644
 H1181 H 0.72228 0.35318 0.19820
 H1182 H 0.73683 0.35239 0.25578
 H1183 H 0.69515 0.43845 0.26020
 H1184 H 0.65541 0.41709 0.22113
 H1185 H 0.71649 0.37884 0.26118
 H1186 H 0.71446 0.41120 0.25537
 H1187 H 0.70235 0.37982 0.20350
 H1188 H 0.67419 0.38931 0.21715
 C1189 C 0.71331 0.61513 0.27142
 C1190 C 0.71257 0.62528 0.28790
 C1191 C 0.72447 0.64031 0.29085
 C1192 C 0.73742 0.64557 0.27739
 C1193 C 0.73811 0.63543 0.26087
 C1194 C 0.72620 0.62040 0.25793
 C1195 C 0.70075 0.59906 0.26835
 C1196 C 0.70728 0.58283 0.25980
 C1197 C 0.69550 0.56767 0.25698
 C1198 C 0.67692 0.56839 0.26265
 C1199 C 0.67039 0.58462 0.27120
 C1200 C 0.68216 0.59978 0.27400
 H1201 H 0.72363 0.64762 0.30382
 H1202 H 0.74772 0.63917 0.25009
 H1203 H 0.70103 0.55526 0.25063
 H1204 H 0.65608 0.58570 0.27548
 H1205 H 0.72692 0.61304 0.24496
 H1206 H 0.72160 0.58172 0.25556
 H1207 H 0.70299 0.62139 0.29868
 H1208 H 0.67664 0.61219 0.28037
 C1209 C 0.21458 0.11401 0.77051
 C1210 C 0.21268 0.12483 0.78647
 C1211 C 0.22467 0.13969 0.78988
 C1212 C 0.23886 0.14412 0.77739
 C1213 C 0.24073 0.13328 0.76140
 C1214 C 0.22874 0.11840 0.75802
 C1215 C 0.20188 0.09817 0.76696
 C1216 C 0.20867 0.08134 0.75989
 C1217 C 0.19674 0.06634 0.75680
 C1218 C 0.17775 0.06785 0.76071
 C1219 C 0.17095 0.08474 0.76766
 C1220 C 0.18287 0.09972 0.77076
 H1221 H 0.22284 0.14754 0.80241
 H1222 H 0.25134 0.13629 0.75136
 H1223 H 0.20246 0.05343 0.75172
 H1224 H 0.15634 0.08644 0.77052
 H1225 H 0.23041 0.11047 0.74548
 H1226 H 0.22328 0.07963 0.75708
 H1227 H 0.20207 0.12162 0.79649
 H1228 H 0.17718 0.11261 0.77593
 C1229 C 0.22478 0.28621 0.11178
 C1230 C 0.20821 0.28682 0.12186
 C1231 C 0.20538 0.27485 0.13673
 C1232 C 0.21906 0.26200 0.14190
 C1233 C 0.23565 0.26144 0.13180
 C1234 C 0.23847 0.27339 0.11693
 C1235 C 0.22779 0.29891 0.09597
 C1236 C 0.23638 0.29249 0.07984
 C1237 C 0.23929 0.30445 0.06499
 C1238 C 0.23370 0.32312 0.06592
 C1239 C 0.22508 0.32954 0.08203
 C1240 C 0.22216 0.31757 0.09688
 H1241 H 0.19235 0.27561 0.14400
 H1242 H 0.24662 0.25191 0.13544
 H1243 H 0.24569 0.29900 0.05267
 H1244 H 0.22087 0.34391 0.08329
 H1245 H 0.25150 0.27278 0.10962
 H1246 H 0.24060 0.27812 0.07860
 H1247 H 0.19729 0.29636 0.11807
 H1248 H 0.21576 0.32301 0.10922
 C1249 C 0.73075 0.79237 0.61649
 C1250 C 0.74556 0.78205 0.62374
 C1251 C 0.74293 0.77040 0.63888
 C1252 C 0.72548 0.76893 0.64726
 C1253 C 0.71071 0.77939 0.64017
 C1254 C 0.71329 0.79091 0.62492
 C1255 C 0.73348 0.80448 0.60013
 C1256 C 0.72430 0.82163 0.59869
 C1257 C 0.72677 0.83290 0.58323
 C1258 C 0.73855 0.82734 0.56887
 C1259 C 0.74781 0.81024 0.57037
 C1260 C 0.74524 0.79893 0.58576
 H1261 H 0.75466 0.76275 0.64415
 H1262 H 0.69704 0.77841 0.64617
 H1263 H 0.71926 0.84588 0.58244
 H1264 H 0.75720 0.80563 0.55972
 H1265 H 0.70150 0.79841 0.61952
 H1266 H 0.71532 0.82646 0.60959
 H1267 H 0.75927 0.78311 0.61784
 H1268 H 0.75234 0.78570 0.58628
 C1269 C 0.77205 0.79048 0.38650
 C1270 C 0.78896 0.79068 0.37696
 C1271 C 0.79186 0.77880 0.36204
 C1272 C 0.77792 0.76643 0.35630
 C1273 C 0.76098 0.76632 0.36579
 C1274 C 0.75808 0.77820 0.38070
 C1275 C 0.76901 0.80293 0.40251
 C1276 C 0.75962 0.79644 0.41817
 C1277 C 0.75667 0.80814 0.43320
 C1278 C 0.76303 0.82660 0.43295
 C1279 C 0.77248 0.83308 0.41732
 C1280 C 0.77542 0.82138 0.40227
 H1281 H 0.80515 0.77918 0.35521
 H1282 H 0.74981 0.75720 0.36166
 H1283 H 0.74964 0.80263 0.44517
 H1284 H 0.77732 0.84730 0.41661
 H1285 H 0.74479 0.77793 0.38757
 H1286 H 0.75480 0.78221 0.41891
 H1287 H 0.80008 0.79980 0.38125
 H1288 H 0.78246 0.82687 0.39030
 C1289 C 0.27191 0.28837 -0.11192
 C1290 C 0.28844 0.28944 -0.12202
 C1291 C 0.29149 0.27766 -0.13699
 C1292 C 0.27808 0.26449 -0.14222
 C1293 C 0.26153 0.26346 -0.13210
 C1294 C 0.25848 0.27525 -0.11714
 C1295 C 0.26866 0.30086 -0.09598
 C1296 C 0.25114 0.30875 -0.09300
 C1297 C 0.24804 0.32042 -0.07795
 C1298 C 0.26241 0.32447 -0.06554
 C1299 C 0.27994 0.31661 -0.06854
 C1300 C 0.28303 0.30493 -0.08358
 H1301 H 0.30444 0.27887 -0.14434
 H1302 H 0.25081 0.25361 -0.13570
 H1303 H 0.23446 0.32650 -0.07619
 H1304 H 0.29121 0.31923 -0.05907
 H1305 H 0.24569 0.27392 -0.10951
 H1306 H 0.23986 0.30613 -0.10247
 H1307 H 0.29897 0.29955 -0.11847
 H1308 H 0.29661 0.29883 -0.08533
 C1309 C 0.72955 0.20762 -0.11588
 C1310 C 0.71160 0.21043 -0.12281
 C1311 C 0.70863 0.22213 -0.13786
 C1312 C 0.72351 0.23146 -0.14618
 C1313 C 0.74146 0.22863 -0.13933
 C1314 C 0.74446 0.21676 -0.12444
 C1315 C 0.73271 0.19543 -0.09966
 C1316 C 0.74624 0.20001 -0.08651
 C1317 C 0.74919 0.18866 -0.07123
 C1318 C 0.73854 0.17252 -0.06855
 C1319 C 0.72499 0.16793 -0.08168
 C1320 C 0.72216 0.17919 -0.09707
 H1321 H 0.69461 0.22419 -0.14268
 H1322 H 0.75325 0.23540 -0.14562
 H1323 H 0.75994 0.19250 -0.06158
 H1324 H 0.71637 0.15573 -0.07997
 H1325 H 0.75852 0.21463 -0.11974
 H1326 H 0.75445 0.21253 -0.08789
 H1327 H 0.69975 0.20390 -0.11639
 H1328 H 0.71179 0.17509 -0.10702
 C1329 C 0.22951 0.71181 0.38608
 C1330 C 0.24428 0.72186 0.37834
 C1331 C 0.24135 0.73374 0.36344
 C1332 C 0.22360 0.73573 0.35582
 C1333 C 0.20885 0.72557 0.36340
 C1334 C 0.21175 0.71382 0.37841
 C1335 C 0.23257 0.69946 0.40219
 C1336 C 0.22295 0.68254 0.40385
 C1337 C 0.22566 0.67109 0.41912
 C1338 C 0.23815 0.67620 0.43307
 C1339 C 0.24789 0.69304 0.43133
 C1340 C 0.24508 0.70455 0.41613
 H1341 H 0.25306 0.74116 0.35776
 H1342 H 0.19497 0.72696 0.35799
 H1343 H 0.21777 0.65833 0.42011
 H1344 H 0.25782 0.69730 0.44165
 H1345 H 0.19999 0.70656 0.38422
 H1346 H 0.21339 0.67806 0.39327
 H1347 H 0.25820 0.72038 0.38365
 H1348 H 0.25255 0.71758 0.41544
 C1349 C 0.27140 0.71144 0.61581
 C1350 C 0.25749 0.72388 0.62132
 C1351 C 0.26017 0.73558 0.63641
 C1352 C 0.27683 0.73512 0.64639
 C1353 C 0.29070 0.72259 0.64095
 C1354 C 0.28801 0.71089 0.62584
 C1355 C 0.26857 0.69918 0.59962
 C1356 C 0.27463 0.68063 0.59988
 C1357 C 0.27183 0.66910 0.58467
 C1358 C 0.26289 0.67585 0.56887
 C1359 C 0.25691 0.69441 0.56859
 C1360 C 0.25973 0.70595 0.58378
 H1361 H 0.24907 0.74483 0.64030
 H1362 H 0.30378 0.72196 0.64817
 H1363 H 0.27637 0.65478 0.58539
 H1364 H 0.25028 0.70011 0.55650
 H1365 H 0.29909 0.70164 0.62179
 H1366 H 0.28126 0.67494 0.61198
 H1367 H 0.24441 0.72441 0.61407
 H1368 H 0.25521 0.72026 0.58302
 C1369 C 0.77322 0.21365 0.11034
 C1370 C 0.79092 0.21594 0.11804
 C1371 C 0.79374 0.22821 0.13268
 C1372 C 0.77893 0.23850 0.13994
 C1373 C 0.76125 0.23627 0.13217
 C1374 C 0.75843 0.22398 0.11757
 C1375 C 0.77016 0.20051 0.09487
 C1376 C 0.75811 0.20513 0.08040
 C1377 C 0.75512 0.19274 0.06591
 C1378 C 0.76415 0.17547 0.06552
 C1379 C 0.77623 0.17085 0.07994
 C1380 C 0.77918 0.18322 0.09447
 H1381 H 0.80759 0.22972 0.13816
 H1382 H 0.74946 0.24376 0.13752
 H1383 H 0.74597 0.19681 0.05483
 H1384 H 0.78320 0.15755 0.08012
 H1385 H 0.74456 0.22231 0.11215
 H1386 H 0.75119 0.21846 0.08013
 H1387 H 0.80267 0.20842 0.11259
 H1388 H 0.78831 0.17912 0.10555
 C1389 C 0.47827 0.36388 0.53669
 C1390 C 0.49167 0.36846 0.52345
 C1391 C 0.48894 0.38342 0.51151
 C1392 C 0.47274 0.39418 0.51252
 C1393 C 0.45934 0.38957 0.52579
 C1394 C 0.46208 0.37461 0.53772
 C1395 C 0.48116 0.34796 0.54935
 C1396 C 0.46644 0.33601 0.55383
 C1397 C 0.46916 0.32102 0.56572
 C1398 C 0.48669 0.31762 0.57340
 C1399 C 0.50141 0.32957 0.56893
 C1400 C 0.49868 0.34457 0.55705
 H1401 H 0.49962 0.38649 0.50156
 H1402 H 0.44666 0.39743 0.52701
 H1403 H 0.45761 0.31189 0.56866
 H1404 H 0.51501 0.32749 0.57485
 H1405 H 0.45159 0.37158 0.54792
 H1406 H 0.45285 0.33806 0.54789
 H1407 H 0.50419 0.36033 0.52216
 H1408 H 0.51024 0.35370 0.55411
 C1409 C -0.01970 0.86166 0.03647
 C1410 C -0.00599 0.86649 0.02364
 C1411 C -0.00849 0.88158 0.01183
 C1412 C -0.02479 0.89222 0.01255
 C1413 C -0.03849 0.88737 0.02542
 C1414 C -0.03597 0.87228 0.03724
 C1415 C -0.01702 0.84561 0.04900
 C1416 C -0.02239 0.84672 0.06753
 C1417 C -0.01980 0.83164 0.07934
 C1418 C -0.01179 0.81509 0.07289
 C1419 C -0.00646 0.81397 0.05434
 C1420 C -0.00904 0.82905 0.04254
 H1421 H 0.00247 0.88495 0.00229
 H1422 H -0.05130 0.89506 0.02631
 H1423 H -0.02378 0.83304 0.09362
 H1424 H -0.00053 0.80131 0.04887
 H1425 H -0.04690 0.86875 0.04680
 H1426 H -0.02832 0.85938 0.07299
 H1427 H 0.00683 0.85874 0.02290
 H1428 H -0.00503 0.82767 0.02826
 C1429 C 0.01963 0.63526 0.03654
 C1430 C 0.03523 0.62374 0.03811
 C1431 C 0.03747 0.60848 0.02643
 C1432 C 0.02420 0.60443 0.01285
 C1433 C 0.00867 0.61606 0.01122
 C1434 C 0.00640 0.63126 0.02295
 C1435 C 0.01712 0.65131 0.04911
 C1436 C -0.00037 0.65525 0.05660
 C1437 C -0.00276 0.67032 0.06847
 C1438 C 0.01227 0.68185 0.07309
 C1439 C 0.02976 0.67791 0.06558
 C1440 C 0.03216 0.66280 0.05375
 H1441 H 0.04967 0.59994 0.02803
 H1442 H -0.00189 0.61335 0.00102
 H1443 H -0.01634 0.67278 0.07426
 H1444 H 0.04156 0.68669 0.06862
 H1445 H -0.00566 0.64001 0.02127
 H1446 H -0.01216 0.64647 0.05352
 H1447 H 0.04558 0.62636 0.04857
 H1448 H 0.04574 0.66027 0.04798
 C1449 C 0.52006 0.13855 0.53615
 C1450 C 0.53621 0.12777 0.53732
 C1451 C 0.53899 0.11279 0.52543
 C1452 C 0.52570 0.10820 0.51204
 C1453 C 0.50954 0.11901 0.51088
 C1454 C 0.50675 0.13398 0.52280
 C1455 C 0.51712 0.15448 0.54880
 C1456 C 0.49958 0.15789 0.55642
 C1457 C 0.49684 0.17285 0.56837
 C1458 C 0.51159 0.18474 0.57297
 C1459 C 0.52912 0.18135 0.56533
 C1460 C 0.53186 0.16639 0.55338
 H1461 H 0.55165 0.10490 0.52675
 H1462 H 0.49893 0.11592 0.50084
 H1463 H 0.48324 0.17493 0.57425
 H1464 H 0.54069 0.19043 0.56836
 H1465 H 0.49426 0.14215 0.52140
 H1466 H 0.48802 0.14880 0.55339
 H1467 H 0.54663 0.13079 0.54761
 H1468 H 0.54546 0.16432 0.54750
 C1469 C -0.02336 0.13917 0.46404
 C1470 C -0.03938 0.12810 0.46307
 C1471 C -0.04145 0.11261 0.47448
 C1472 C -0.02760 0.10790 0.48721
 C1473 C -0.01168 0.11909 0.48834
 C1474 C -0.00956 0.13451 0.47686
 C1475 C -0.02091 0.15535 0.45156
 C1476 C -0.01248 0.17179 0.45786
 C1477 C -0.00984 0.18684 0.44600
 C1478 C -0.01567 0.18583 0.42760
 C1479 C -0.02423 0.16948 0.42133
 C1480 C -0.02677 0.15440 0.43315
 H1481 H -0.05399 0.10445 0.47341
 H1482 H -0.00064 0.11577 0.49782
 H1483 H -0.00343 0.19937 0.45128
 H1484 H -0.02862 0.16820 0.40715
 H1485 H 0.00308 0.14255 0.47776
 H1486 H -0.00808 0.17312 0.47203
 H1487 H -0.05042 0.13148 0.45358
 H1488 H -0.03301 0.14184 0.42775
 C1489 C 0.48140 0.63315 0.96176
 C1490 C 0.49584 0.62626 0.97276
 C1491 C 0.49273 0.61155 0.98491
 C1492 C 0.47513 0.60333 0.98632
 C1493 C 0.46073 0.61013 0.97521
 C1494 C 0.46382 0.62488 0.96311
 C1495 C 0.48460 0.64904 0.94909
 C1496 C 0.47620 0.64947 0.93165
 C1497 C 0.47892 0.66459 0.91991
 C1498 C 0.49016 0.67959 0.92529
 C1499 C 0.49869 0.67910 0.94264
 C1500 C 0.49592 0.66402 0.95442
 H1501 H 0.50421 0.60654 0.99306
 H1502 H 0.44694 0.60430 0.97606
 H1503 H 0.47237 0.66447 0.90651
 H1504 H 0.50719 0.69058 0.94729
 H1505 H 0.45232 0.63004 0.95506
 H1506 H 0.46766 0.63802 0.92700
 H1507 H 0.50962 0.63212 0.97183
 H1508 H 0.50233 0.66427 0.96787
 C1509 C 0.52002 0.86417 0.96151
 C1510 C 0.50490 0.87238 0.97057
 C1511 C 0.50752 0.88753 0.98232
 C1512 C 0.52528 0.89496 0.98513
 C1513 C 0.54037 0.88692 0.97596
 C1514 C 0.53780 0.87164 0.96437
 C1515 C 0.51729 0.84781 0.94926
 C1516 C 0.52793 0.84566 0.93321
 C1517 C 0.52552 0.83018 0.92185
 C1518 C 0.51227 0.81651 0.92615
 C1519 C 0.50154 0.81874 0.94212
 C1520 C 0.50408 0.83412 0.95356
 H1521 H 0.49557 0.89357 0.98900
 H1522 H 0.55426 0.89218 0.97801
 H1523 H 0.53420 0.82883 0.90981
 H1524 H 0.49101 0.80867 0.94573
 H1525 H 0.54981 0.86548 0.95792
 H1526 H 0.53806 0.85604 0.92931
 H1527 H 0.49098 0.86726 0.96842
 H1528 H 0.49581 0.83516 0.96592
 C1529 C 0.02034 0.36402 0.46160
 C1530 C 0.03726 0.37365 0.46184
 C1531 C 0.04009 0.38843 0.47400
 C1532 C 0.02607 0.39391 0.48625
 C1533 C 0.00913 0.38426 0.48598
 C1534 C 0.00629 0.36951 0.47379
 C1535 C 0.01737 0.34827 0.44873
 C1536 C 0.00036 0.34606 0.43960
 C1537 C -0.00247 0.33115 0.42760
 C1538 C 0.01164 0.31810 0.42447
 C1539 C 0.02867 0.32035 0.43355
 C1540 C 0.03150 0.33526 0.44554
 H1541 H 0.05335 0.39541 0.47383
 H1542 H -0.00204 0.38810 0.49511
 H1543 H -0.01564 0.32996 0.42059
 H1544 H 0.03970 0.31037 0.43168
 H1545 H -0.00683 0.36223 0.47408
 H1546 H -0.01069 0.35601 0.44154
 H1547 H 0.04828 0.36989 0.45247
 H1548 H 0.04466 0.33643 0.45259
 C1549 C 0.36385 0.53905 0.47948
 C1550 C 0.37659 0.54267 0.46535
 C1551 C 0.39156 0.53079 0.46233
 C1552 C 0.39417 0.51496 0.47336
 C1553 C 0.38141 0.51139 0.48754
 C1554 C 0.36645 0.52329 0.49057
 C1555 C 0.34788 0.55162 0.48260
 C1556 C 0.34236 0.55631 0.50053
 C1557 C 0.32729 0.56809 0.50345
 C1558 C 0.31738 0.57543 0.48850
 C1559 C 0.32291 0.57074 0.47057
 C1560 C 0.33798 0.55897 0.46765
 H1561 H 0.40106 0.53415 0.45135
 H1562 H 0.38281 0.49936 0.49631
 H1563 H 0.32355 0.57167 0.51742
 H1564 H 0.31537 0.57592 0.45877
 H1565 H 0.35674 0.52000 0.50142
 H1566 H 0.34988 0.55109 0.51232
 H1567 H 0.37511 0.55485 0.45674
 H1568 H 0.34171 0.55538 0.45368
 C1569 C 0.86773 0.03804 -0.02085
 C1570 C 0.87756 0.03841 -0.03750
 C1571 C 0.89249 0.02646 -0.04037
 C1572 C 0.89793 0.01381 -0.02668
 C1573 C 0.88811 0.01349 -0.01000
 C1574 C 0.87320 0.02549 -0.00711
 C1575 C 0.85172 0.05060 -0.01792
 C1576 C 0.84913 0.05954 -0.00094
 C1577 C 0.83400 0.07130 0.00180
 C1578 C 0.82111 0.07434 -0.01236
 C1579 C 0.82373 0.06540 -0.02933
 C1580 C 0.83887 0.05368 -0.03209
 H1581 H 0.89961 0.02707 -0.05343
 H1582 H 0.89194 0.00404 0.00091
 H1583 H 0.83252 0.07820 0.01495
 H1584 H 0.81388 0.06718 -0.04041
 H1585 H 0.86578 0.02476 0.00580
 H1586 H 0.85895 0.05765 0.01014
 H1587 H 0.87379 0.04807 -0.04827
 H1588 H 0.84033 0.04675 -0.04522
 C1589 C 0.63531 0.03862 0.01833
 C1590 C 0.62886 0.02667 0.00444
 C1591 C 0.61379 0.01491 0.00760
 C1592 C 0.60475 0.01487 0.02470
 C1593 C 0.61108 0.02695 0.03854
 C1594 C 0.62621 0.03865 0.03540
 C1595 C 0.65164 0.05079 0.01511
 C1596 C 0.65218 0.06896 0.02219
 C1597 C 0.66770 0.08025 0.01943
 C1598 C 0.68302 0.07364 0.00950
 C1599 C 0.68239 0.05554 0.00227
 C1600 C 0.66691 0.04424 0.00506
 H1601 H 0.60914 0.00600 -0.00346
 H1602 H 0.60460 0.02715 0.05193
 H1603 H 0.66781 0.09406 0.02534
 H1604 H 0.69385 0.05010 -0.00565
 H1605 H 0.63101 0.04747 0.04649
 H1606 H 0.64056 0.07450 0.02980
 H1607 H 0.63535 0.02653 -0.00897
 H1608 H 0.66704 0.03025 -0.00041
 C1609 C 0.13720 0.53652 0.52190
 C1610 C 0.13234 0.52307 0.50875
 C1611 C 0.11724 0.51127 0.51166
 C1612 C 0.10661 0.51264 0.52779
 C1613 C 0.11148 0.52614 0.54092
 C1614 C 0.12658 0.53792 0.53801
 C1615 C 0.15328 0.54903 0.51886
 C1616 C 0.16530 0.55347 0.53341
 C1617 C 0.18033 0.56536 0.53060
 C1618 C 0.18370 0.57309 0.51318
 C1619 C 0.17175 0.56857 0.49860
 C1620 C 0.15670 0.55667 0.50141
 H1621 H 0.11394 0.50115 0.50117
 H1622 H 0.10372 0.52763 0.55354
 H1623 H 0.18948 0.56832 0.54204
 H1624 H 0.17384 0.57450 0.48508
 H1625 H 0.12983 0.54830 0.54831
 H1626 H 0.16322 0.54755 0.54693
 H1627 H 0.14038 0.52150 0.49628
 H1628 H 0.14754 0.55373 0.48998
 C1629 C 0.13381 0.46260 -0.02176
 C1630 C 0.12342 0.46158 -0.03807
 C1631 C 0.10784 0.47278 -0.04054
 C1632 C 0.10225 0.48528 -0.02677
 C1633 C 0.11275 0.48640 -0.01052
 C1634 C 0.12833 0.47519 -0.00805
 C1635 C 0.15015 0.45042 -0.01897
 C1636 C 0.16626 0.45732 -0.01052
 C1637 C 0.18154 0.44578 -0.00770
 C1638 C 0.18107 0.42708 -0.01328
 C1639 C 0.16498 0.42021 -0.02179
 C1640 C 0.14971 0.43174 -0.02460
 H1641 H 0.10028 0.47166 -0.05333
 H1642 H 0.10884 0.49570 0.00048
 H1643 H 0.19383 0.45157 -0.00138
 H1644 H 0.16408 0.40580 -0.02598
 H1645 H 0.13589 0.47613 0.00477
 H1646 H 0.16713 0.47172 -0.00629
 H1647 H 0.12745 0.45222 -0.04901
 H1648 H 0.13740 0.42593 -0.03088
 C1649 C 0.63659 0.96511 0.47885
 C1650 C 0.63107 0.97800 0.49228
 C1651 C 0.61597 0.98970 0.48919
 C1652 C 0.60602 0.98883 0.47259
 C1653 C 0.61159 0.97593 0.45916
 C1654 C 0.62668 0.96423 0.46226
 C1655 C 0.65261 0.95263 0.48214
 C1656 C 0.65194 0.93394 0.47659
 C1657 C 0.66705 0.92222 0.47953
 C1658 C 0.68319 0.92892 0.48808
 C1659 C 0.68383 0.94760 0.49371
 C1660 C 0.66871 0.95932 0.49077
 H1661 H 0.61205 0.99928 0.49995
 H1662 H 0.60445 0.97493 0.44613
 H1663 H 0.66601 0.90782 0.47532
 H1664 H 0.69616 0.95325 0.50007
 H1665 H 0.63076 0.95464 0.45153
 H1666 H 0.63963 0.92829 0.47019
 H1667 H 0.63827 0.97884 0.50531
 H1668 H 0.66974 0.97372 0.49495
 C1669 C 0.86606 0.96225 0.51935
 C1670 C 0.87881 0.95867 0.53348
 C1671 C 0.89440 0.96996 0.53579
 C1672 C 0.89766 0.98510 0.52400
 C1673 C 0.88482 0.98870 0.50990
 C1674 C 0.86921 0.97742 0.50762
 C1675 C 0.84960 0.95013 0.51678
 C1676 C 0.83228 0.95783 0.51243
 C1677 C 0.81681 0.94641 0.50996
 C1678 C 0.81830 0.92702 0.51178
 C1679 C 0.83563 0.91933 0.51613
 C1680 C 0.85109 0.93075 0.51861
 H1681 H 0.90383 0.96674 0.54688
 H1682 H 0.88678 1.00014 0.50047
 H1683 H 0.80360 0.95278 0.50691
 H1684 H 0.83731 0.90444 0.51731
 H1685 H 0.85976 0.98041 0.49646
 H1686 H 0.83062 0.97273 0.51120
 H1687 H 0.87663 0.94724 0.54291
 H1688 H 0.86431 0.92438 0.52166
 C1689 C 0.36064 0.46404 0.02430
 C1690 C 0.37089 0.46304 0.04068
 C1691 C 0.38613 0.47469 0.04353
 C1692 C 0.39150 0.48761 0.03004
 C1693 C 0.38121 0.48861 0.01366
 C1694 C 0.36597 0.47697 0.01083
 C1695 C 0.34452 0.45159 0.02123
 C1696 C 0.32832 0.45834 0.01287
 C1697 C 0.31319 0.44659 0.00989
 C1698 C 0.31391 0.42783 0.01519
 C1699 C 0.33009 0.42110 0.02358
 C1700 C 0.34522 0.43284 0.02657
 H1701 H 0.39354 0.47361 0.05640
 H1702 H 0.38498 0.49821 0.00287
 H1703 H 0.30082 0.45227 0.00366
 H1704 H 0.33118 0.40665 0.02756
 H1705 H 0.35852 0.47789 -0.00205
 H1706 H 0.32725 0.47278 0.00886
 H1707 H 0.36697 0.45341 0.05143
 H1708 H 0.35760 0.42716 0.03277
 C1709 C 0.53861 0.48082 0.36387
 C1710 C 0.52248 0.49150 0.36581
 C1711 C 0.51052 0.48858 0.38062
 C1712 C 0.51440 0.47491 0.39389
 C1713 C 0.53061 0.46429 0.39195
 C1714 C 0.54255 0.46719 0.37712
 C1715 C 0.55123 0.48379 0.34804
 C1716 C 0.55917 0.46858 0.33887
 C1717 C 0.57100 0.47135 0.32393
 C1718 C 0.57518 0.48940 0.31782
 C1719 C 0.56725 0.50462 0.32700
 C1720 C 0.55540 0.50185 0.34194
 H1721 H 0.49815 0.49696 0.38148
 H1722 H 0.53424 0.45376 0.40191
 H1723 H 0.57662 0.45933 0.31695
 H1724 H 0.57043 0.51870 0.32281
 H1725 H 0.55501 0.45892 0.37614
 H1726 H 0.55599 0.45450 0.34306
 H1727 H 0.51894 0.50193 0.35569
 H1728 H 0.54971 0.51385 0.34889
 C1729 C 0.04103 -0.02198 0.86326
 C1730 C 0.04183 -0.03855 0.87342
 C1731 C 0.03002 -0.04141 0.88838
 C1732 C 0.01710 -0.02776 0.89351
 C1733 C 0.01635 -0.01117 0.88333
 C1734 C 0.02816 -0.00833 0.86839
 C1735 C 0.05349 -0.01895 0.84731
 C1736 C 0.05723 -0.03346 0.83493
 C1737 C 0.06872 -0.03051 0.81975
 C1738 C 0.07671 -0.01298 0.81661
 C1739 C 0.07306 0.00150 0.82906
 C1740 C 0.06159 -0.00146 0.84423
 H1741 H 0.03101 -0.05438 0.89578
 H1742 H 0.00670 -0.00028 0.88685
 H1743 H 0.07105 -0.04186 0.81026
 H1744 H 0.07926 0.01507 0.82718
 H1745 H 0.02704 0.00450 0.86070
 H1746 H 0.05097 -0.04701 0.83676
 H1747 H 0.05174 -0.04925 0.86993
 H1748 H 0.05923 0.00991 0.85369
 C1749 C 0.04047 0.01916 0.63349
 C1750 C 0.03258 0.00388 0.62433
 C1751 C 0.02098 0.00653 0.60917
 C1752 C 0.01709 0.02452 0.60276
 C1753 C 0.02501 0.03980 0.61189
 C1754 C 0.03652 0.03715 0.62711
 C1755 C 0.05273 0.01637 0.64968
 C1756 C 0.06845 0.02761 0.65230
 C1757 C 0.07987 0.02510 0.66760
 C1758 C 0.07590 0.01123 0.68062
 C1759 C 0.06025 -0.00009 0.67794
 C1760 C 0.04879 0.00247 0.66268
 H1761 H 0.01531 -0.00556 0.60234
 H1762 H 0.02212 0.05385 0.60749
 H1763 H 0.09169 0.03419 0.66935
 H1764 H 0.05692 -0.01107 0.68756
 H1765 H 0.04210 0.04924 0.63404
 H1766 H 0.07202 0.03829 0.64244
 H1767 H 0.03557 -0.01017 0.62869
 H1768 H 0.03669 -0.00630 0.66119
 C1769 C 0.53777 0.51994 0.13793
 C1770 C 0.52402 0.50681 0.13364
 C1771 C 0.51227 0.50950 0.11861
 C1772 C 0.51399 0.52538 0.10748
 C1773 C 0.52781 0.53847 0.11176
 C1774 C 0.53955 0.53578 0.12679
 C1775 C 0.55019 0.51716 0.15397
 C1776 C 0.55503 0.53220 0.16534
 C1777 C 0.56678 0.52964 0.18038
 C1778 C 0.57395 0.51197 0.18442
 C1779 C 0.56906 0.49691 0.17310
 C1780 C 0.55732 0.49948 0.15804
 H1781 H 0.50189 0.49904 0.11576
 H1782 H 0.52958 0.55091 0.10362
 H1783 H 0.57003 0.54145 0.18902
 H1784 H 0.57457 0.48318 0.17570
 H1785 H 0.55016 0.54604 0.12959
 H1786 H 0.54951 0.54594 0.16276
 H1787 H 0.52217 0.49455 0.14207
 H1788 H 0.55407 0.48767 0.14939
 C1789 C 0.46128 -0.01992 0.13526
 C1790 C 0.46000 -0.03615 0.12461
 C1791 C 0.47155 -0.03876 0.10941
 C1792 C 0.48468 -0.02519 0.10451
 C1793 C 0.48591 -0.00893 0.11517
 C1794 C 0.47435 -0.00632 0.13035
 C1795 C 0.44905 -0.01718 0.15145
 C1796 C 0.44124 0.00030 0.15512
 C1797 C 0.42973 0.00286 0.17035
 C1798 C 0.42577 -0.01200 0.18225
 C1799 C 0.43359 -0.02948 0.17859
 C1800 C 0.44510 -0.03204 0.16336
 H1801 H 0.47019 -0.05150 0.10165
 H1802 H 0.49574 0.00189 0.11182
 H1803 H 0.42368 0.01642 0.17263
 H1804 H 0.43104 -0.04112 0.18766
 H1805 H 0.47581 0.00625 0.13840
 H1806 H 0.44378 0.01194 0.14604
 H1807 H 0.44992 -0.04679 0.12790
 H1808 H 0.45115 -0.04560 0.16108
 C1809 C 0.96146 0.47891 0.63651
 C1810 C 0.96010 0.46271 0.62580
 C1811 C 0.97193 0.45988 0.61087
 C1812 C 0.98544 0.47318 0.60627
 C1813 C 0.98675 0.48941 0.61698
 C1814 C 0.97491 0.49223 0.63191
 C1815 C 0.94894 0.48185 0.65244
 C1816 C 0.94141 0.49948 0.65602
 C1817 C 0.92959 0.50222 0.67098
 C1818 C 0.92501 0.48738 0.68270
 C1819 C 0.93259 0.46977 0.67914
 C1820 C 0.94441 0.46704 0.66420
 H1821 H 0.97047 0.44719 0.60305
 H1822 H 0.99688 0.50003 0.61389
 H1823 H 0.92377 0.51589 0.67320
 H1824 H 0.92960 0.45814 0.68810
 H1825 H 0.97645 0.50476 0.64001
 H1826 H 0.94441 0.51111 0.64706
 H1827 H 0.94973 0.45228 0.62885
 H1828 H 0.95024 0.45337 0.66200
 C1829 C 0.95941 0.51872 0.86277
 C1830 C 0.95595 0.53312 0.87535
 C1831 C 0.96751 0.53581 0.89053
 C1832 C 0.98282 0.52415 0.89353
 C1833 C 0.98629 0.50978 0.88089
 C1834 C 0.97474 0.50711 0.86570
 C1835 C 0.94705 0.51581 0.84670
 C1836 C 0.95442 0.51135 0.82938
 C1837 C 0.94278 0.50869 0.81426
 C1838 C 0.92349 0.51043 0.81610
 C1839 C 0.91612 0.51483 0.83344
 C1840 C 0.92776 0.51750 0.84856
 H1841 H 0.96429 0.54698 0.89994
 H1842 H 0.99797 0.50057 0.88264
 H1843 H 0.94891 0.50560 0.80103
 H1844 H 0.90131 0.51596 0.83538
 H1845 H 0.97767 0.49577 0.85636
 H1846 H 0.96924 0.51022 0.82745
 H1847 H 0.94438 0.54244 0.87336
 H1848 H 0.92164 0.52062 0.86179
 C1849 C 0.46305 0.02284 0.36107
 C1850 C 0.47620 0.00940 0.36606
 C1851 C 0.48792 0.01231 0.38108
 C1852 C 0.48681 0.02876 0.39147
 C1853 C 0.47366 0.04221 0.38643
 C1854 C 0.46192 0.03928 0.37142
 C1855 C 0.45055 0.01972 0.34515
 C1856 C 0.43180 0.02480 0.34610
 C1857 C 0.42002 0.02185 0.33113
 C1858 C 0.42672 0.01376 0.31485
 C1859 C 0.44547 0.00868 0.31390
 C1860 C 0.45725 0.01162 0.32888
 H1861 H 0.49770 0.00152 0.38459
 H1862 H 0.47247 0.05513 0.39392
 H1863 H 0.40559 0.02564 0.33241
 H1864 H 0.45113 0.00269 0.30146
 H1865 H 0.45212 0.05002 0.36776
 H1866 H 0.42616 0.03080 0.35854
 H1867 H 0.47723 -0.00353 0.35852
 H1868 H 0.47169 0.00781 0.32762
   
