data_POSCAR
  _audit_creation_date              2014-09-24
  _audit_creation_method            'ToBaCCo'
  _symmetry_space_group_name_H-M    'P1'
  _symmetry_Int_Tables_number       1
  _symmetry_cell_setting            triclinic
  loop_
  _symmetry_equiv_pos_as_xyz
 x,y,z
_cell_length_a 48.6411
_cell_length_b 32.6831
_cell_length_c 34.1652
_cell_angle_alpha 89.933600
_cell_angle_beta 89.955300
_cell_angle_gamma 89.983300
loop_
  _atom_site_label
  _atom_site_type_symbol
  _atom_site_fract_x
  _atom_site_fract_y
  _atom_site_fract_z
C1 C 0.00098 -0.00048 0.12639
 C2 C 0.00065 -0.00008 -0.13025
 C3 C -0.06308 -0.06733 0.05862
 C4 C -0.06309 0.06637 0.05869
 C5 C -0.06307 -0.06736 -0.06137
 C6 C 0.06402 -0.06357 -0.06546
 C7 C 0.06394 0.06311 -0.06536
 C8 C 0.06379 -0.06336 0.06174
 C9 C -0.06310 0.06679 -0.06116
 C10 C 0.06372 0.06267 0.06178
 O11 O -0.03781 -0.07608 -0.07000
 O12 O -0.07051 -0.03957 -0.03665
 O13 O -0.03786 0.07558 -0.06980
 O14 O -0.07053 0.03887 -0.03654
 O15 O 0.03848 0.07146 0.07028
 O16 O 0.07117 0.03706 0.03499
 O17 O 0.00040 0.03463 -0.11230
 O18 O 0.00046 -0.03490 -0.11239
 O19 O 0.00066 0.03437 0.10874
 O20 O 0.00067 -0.03534 0.10879
 O21 O 0.03868 -0.07226 -0.07374
 O22 O 0.07122 -0.03773 -0.03869
 O23 O -0.03780 -0.07595 0.06720
 O24 O -0.07054 -0.03967 0.03370
 O25 O 0.03857 -0.07227 0.07027
 O26 O 0.07119 -0.03772 0.03492
 O27 O 0.03860 0.07180 -0.07364
 O28 O 0.07117 0.03719 -0.03863
 O29 O 0.00167 0.11427 0.05694
 O30 O 0.00135 0.11423 -0.06162
 O31 O 0.00146 -0.11476 -0.06171
 O32 O 0.00177 -0.11516 0.05698
 O33 O -0.02341 -0.05426 -0.00174
 O34 O -0.02347 0.05349 -0.00169
 O35 O 0.02379 -0.05389 -0.00183
 O36 O -0.02471 -0.00046 0.05044
 O37 O -0.07057 0.03875 0.03379
 O38 O -0.03781 0.07499 0.06720
 O39 O 0.02551 -0.00043 0.05052
 O40 O 0.02556 -0.00026 -0.05433
 O41 O 0.02376 0.05321 -0.00180
 O42 O -0.02478 -0.00029 -0.05379
 Zr43 Zr 0.00031 0.05028 0.04904
 Zr44 Zr 0.00035 -0.05095 -0.05265
 Zr45 Zr -0.04682 -0.00040 -0.00155
 Zr46 Zr 0.00034 -0.05117 0.04906
 Zr47 Zr 0.00031 0.05039 -0.05257
 Zr48 Zr 0.04741 -0.00033 -0.00189
 H49 H 0.03495 -0.07922 -0.00183
 H50 H -0.03695 -0.00049 0.07359
 H51 H 0.03489 0.07856 -0.00177
 H52 H -0.03708 -0.00025 -0.07685
 H53 H -0.00469 0.12615 0.03189
 H54 H 0.00194 0.12644 -0.03518
 H55 H -0.00451 -0.12700 0.03190
 H56 H 0.00176 -0.12705 -0.03526
 C57 C 0.25038 0.24958 0.12084
 C58 C 0.25025 0.24948 0.37749
 C59 C 0.18632 0.31685 0.18935
 C60 C 0.18645 0.18263 0.18959
 C61 C 0.18621 0.31659 0.30942
 C62 C 0.31309 0.31319 0.31230
 C63 C 0.31298 0.18583 0.31240
 C64 C 0.31313 0.31324 0.18642
 C65 C 0.18616 0.18290 0.30937
 C66 C 0.31322 0.18565 0.18648
 O67 O 0.21149 0.32513 0.31799
 O68 O 0.17872 0.28898 0.28453
 O69 O 0.21140 0.17418 0.31798
 O70 O 0.17871 0.21059 0.28451
 O71 O 0.28798 0.17700 0.17784
 O72 O 0.32058 0.21179 0.21282
 O73 O 0.24990 0.21465 0.35985
 O74 O 0.24996 0.28435 0.35985
 O75 O 0.25010 0.21482 0.13877
 O76 O 0.25004 0.28434 0.13869
 O77 O 0.28784 0.32190 0.32092
 O78 O 0.32049 0.28712 0.28590
 O79 O 0.21161 0.32546 0.18084
 O80 O 0.17879 0.28904 0.21406
 O81 O 0.28791 0.32197 0.17777
 O82 O 0.32052 0.28711 0.21277
 O83 O 0.28774 0.17716 0.32104
 O84 O 0.32043 0.21186 0.28596
 O85 O 0.25063 0.13504 0.18954
 O86 O 0.25074 0.13494 0.30843
 O87 O 0.25088 0.36420 0.30836
 O88 O 0.25072 0.36404 0.18924
 O89 O 0.22589 0.30352 0.24924
 O90 O 0.22585 0.19582 0.24929
 O91 O 0.27304 0.30303 0.24925
 O92 O 0.22458 0.24960 0.19710
 O93 O 0.17876 0.21045 0.21406
 O94 O 0.21161 0.17370 0.18092
 O95 O 0.27495 0.24954 0.19676
 O96 O 0.27484 0.24953 0.30176
 O97 O 0.27302 0.19602 0.24934
 O98 O 0.22452 0.24963 0.30137
 Zr99 Zr 0.24969 0.19888 0.19846
 Zr100 Zr 0.24962 0.30027 0.30010
 Zr101 Zr 0.20244 0.24972 0.24926
 Zr102 Zr 0.24967 0.30022 0.19840
 Zr103 Zr 0.24957 0.19889 0.30013
 Zr104 Zr 0.29673 0.24950 0.24930
 H105 H 0.28410 0.32844 0.24927
 H106 H 0.21235 0.24965 0.17397
 H107 H 0.28408 0.17060 0.24941
 H108 H 0.21228 0.24965 0.32452
 H109 H 0.25092 0.12281 0.21602
 H110 H 0.24498 0.12298 0.28315
 H111 H 0.25002 0.37633 0.21565
 H112 H 0.24541 0.37622 0.28295
 C113 C 0.49965 -0.00154 0.12796
 C114 C 0.49952 -0.00129 -0.12782
 C115 C 0.56400 0.06505 0.06037
 C116 C 0.56425 -0.06771 0.06114
 C117 C 0.56420 0.06491 -0.06117
 C118 C 0.43707 0.06207 -0.06301
 C119 C 0.43712 -0.06535 -0.06269
 C120 C 0.43717 0.06234 0.06283
 C121 C 0.56423 -0.06797 -0.06078
 C122 C 0.43691 -0.06566 0.06356
 O123 O 0.53879 0.07347 -0.06939
 O124 O 0.57150 0.03758 -0.03570
 O125 O 0.53884 -0.07677 -0.06881
 O126 O 0.57152 -0.04050 -0.03553
 O127 O 0.46230 -0.07411 0.07199
 O128 O 0.42970 -0.03946 0.03701
 O129 O 0.49995 -0.03617 -0.11025
 O130 O 0.49992 0.03353 -0.11026
 O131 O 0.50000 -0.03643 0.11051
 O132 O 0.50003 0.03327 0.11029
 O133 O 0.46232 0.07084 -0.07163
 O134 O 0.42969 0.03596 -0.03656
 O135 O 0.53871 0.07391 0.06871
 O136 O 0.57149 0.03757 0.03534
 O137 O 0.46231 0.07133 0.07148
 O138 O 0.42960 0.03609 0.03680
 O139 O 0.46237 -0.07410 -0.07127
 O140 O 0.42971 -0.03926 -0.03633
 O141 O 0.49956 -0.11631 0.05884
 O142 O 0.49997 -0.11612 -0.05942
 O143 O 0.49940 0.11327 -0.05845
 O144 O 0.49988 0.11313 0.05946
 O145 O 0.52444 0.05246 -0.00002
 O146 O 0.52448 -0.05547 0.00013
 O147 O 0.47709 0.05194 0.00004
 O148 O 0.52558 -0.00149 0.05201
 O149 O 0.57150 -0.04047 0.03556
 O150 O 0.53887 -0.07636 0.06948
 O151 O 0.47534 -0.00155 0.05259
 O152 O 0.47537 -0.00154 -0.05217
 O153 O 0.47716 -0.05511 0.00021
 O154 O 0.52560 -0.00150 -0.05200
 Zr155 Zr 0.50059 -0.05230 0.05093
 Zr156 Zr 0.50058 0.04924 -0.05069
 Zr157 Zr 0.54780 -0.00149 -0.00003
 Zr158 Zr 0.50055 0.04925 0.05074
 Zr159 Zr 0.50063 -0.05226 -0.05061
 Zr160 Zr 0.45342 -0.00163 0.00024
 H161 H 0.46602 0.07735 -0.00005
 H162 H 0.53774 -0.00140 0.07520
 H163 H 0.46611 -0.08054 0.00032
 H164 H 0.53775 -0.00153 -0.07524
 H165 H 0.50645 -0.12805 0.03403
 H166 H 0.49917 -0.12828 -0.03293
 H167 H 0.49882 0.12526 0.03298
 H168 H 0.50658 0.12498 -0.03380
 C169 C 0.75118 0.24913 0.12251
 C170 C 0.75098 0.24893 0.37827
 C171 C 0.68683 0.31565 0.18977
 C172 C 0.68709 0.18245 0.19006
 C173 C 0.68676 0.31531 0.31100
 C174 C 0.81363 0.31219 0.31395
 C175 C 0.81393 0.18582 0.31429
 C176 C 0.81369 0.31244 0.18690
 C177 C 0.68690 0.18273 0.31103
 C178 C 0.81375 0.18584 0.18707
 O179 O 0.71202 0.32400 0.31955
 O180 O 0.67933 0.28803 0.28573
 O181 O 0.71216 0.17395 0.31958
 O182 O 0.67944 0.21000 0.28575
 O183 O 0.78863 0.17674 0.17848
 O184 O 0.82132 0.21161 0.21354
 O185 O 0.75070 0.21408 0.36071
 O186 O 0.75062 0.28381 0.36068
 O187 O 0.75086 0.21425 0.14006
 O188 O 0.75078 0.28394 0.14007
 O189 O 0.78837 0.32098 0.32239
 O190 O 0.82112 0.28651 0.28726
 O191 O 0.71213 0.32450 0.18145
 O192 O 0.67935 0.28811 0.21482
 O193 O 0.78844 0.32124 0.17852
 O194 O 0.82118 0.28663 0.21353
 O195 O 0.78857 0.17710 0.32253
 O196 O 0.82119 0.21162 0.28742
 O197 O 0.75121 0.13430 0.19116
 O198 O 0.75168 0.13421 0.30879
 O199 O 0.75150 0.36377 0.30865
 O200 O 0.75107 0.36367 0.19092
 O201 O 0.72637 0.30299 0.25032
 O202 O 0.72648 0.19509 0.25037
 O203 O 0.77376 0.30256 0.25034
 O204 O 0.72530 0.24898 0.19829
 O205 O 0.67940 0.20993 0.21488
 O206 O 0.71227 0.17343 0.18151
 O207 O 0.77551 0.24904 0.19804
 O208 O 0.77546 0.24902 0.30265
 O209 O 0.77387 0.19544 0.25039
 O210 O 0.72527 0.24896 0.30225
 Zr211 Zr 0.75037 0.19821 0.19963
 Zr212 Zr 0.75021 0.29973 0.30104
 Zr213 Zr 0.70307 0.24902 0.25027
 Zr214 Zr 0.75025 0.29977 0.19963
 Zr215 Zr 0.75034 0.19824 0.30109
 Zr216 Zr 0.79748 0.24903 0.25037
 H217 H 0.78486 0.32793 0.25039
 H218 H 0.71312 0.24902 0.17512
 H219 H 0.78503 0.17011 0.25053
 H220 H 0.71309 0.24896 0.32545
 H221 H 0.75284 0.12230 0.21763
 H222 H 0.74436 0.12248 0.28423
 H223 H 0.75246 0.37572 0.21737
 H224 H 0.74423 0.37550 0.28404
 C225 C 0.00022 0.50041 0.12752
 C226 C 0.00005 0.50003 -0.12911
 C227 C -0.06355 0.43305 0.05930
 C228 C -0.06383 0.56706 0.05949
 C229 C -0.06381 0.43326 -0.06061
 C230 C 0.06303 0.43727 -0.06418
 C231 C 0.06295 0.56347 -0.06417
 C232 C 0.06304 0.43715 0.06259
 C233 C -0.06388 0.56721 -0.06039
 C234 C 0.06303 0.56370 0.06278
 O235 O -0.03854 0.42468 -0.06925
 O236 O -0.07130 0.46091 -0.03573
 O237 O -0.03862 0.57597 -0.06893
 O238 O -0.07135 0.53936 -0.03569
 O239 O 0.03776 0.57239 0.07132
 O240 O 0.07045 0.53797 0.03608
 O241 O -0.00026 0.53481 -0.11125
 O242 O -0.00018 0.46527 -0.11115
 O243 O -0.00012 0.53524 0.10986
 O244 O -0.00007 0.46555 0.10995
 O245 O 0.03781 0.42839 -0.07265
 O246 O 0.07044 0.46299 -0.03750
 O247 O -0.03838 0.42421 0.06798
 O248 O -0.07126 0.46081 0.03476
 O249 O 0.03793 0.42803 0.07132
 O250 O 0.07058 0.46294 0.03609
 O251 O 0.03771 0.57226 -0.07265
 O252 O 0.07040 0.53777 -0.03747
 O253 O 0.00087 0.61495 0.05797
 O254 O 0.00051 0.61467 -0.06068
 O255 O 0.00106 0.38554 -0.05926
 O256 O 0.00078 0.38563 0.05919
 O257 O -0.02414 0.44631 -0.00049
 O258 O -0.02424 0.55402 -0.00065
 O259 O 0.02308 0.44675 -0.00059
 O260 O -0.02546 0.50017 0.05153
 O261 O -0.07131 0.53939 0.03468
 O262 O -0.03857 0.57567 0.06808
 O263 O 0.02482 0.50028 0.05180
 O264 O 0.02477 0.50023 -0.05304
 O265 O 0.02298 0.55382 -0.00073
 O266 O -0.02554 0.50016 -0.05270
 Zr267 Zr -0.00043 0.55096 0.05012
 Zr268 Zr -0.00042 0.44952 -0.05137
 Zr269 Zr -0.04761 0.50013 -0.00052
 Zr270 Zr -0.00033 0.44949 0.05030
 Zr271 Zr -0.00049 0.55084 -0.05152
 Zr272 Zr 0.04670 0.50034 -0.00063
 H273 H 0.03423 0.42142 -0.00065
 H274 H -0.03771 0.50013 0.07467
 H275 H 0.03407 0.57921 -0.00075
 H276 H -0.03780 0.50020 -0.07580
 H277 H -0.00534 0.62680 0.03284
 H278 H 0.00076 0.62693 -0.03425
 H279 H 0.00120 0.37348 0.03270
 H280 H -0.00535 0.37363 -0.03424
 C281 C 0.25089 0.75061 0.12167
 C282 C 0.25056 0.75093 0.37748
 C283 C 0.18701 0.81810 0.18965
 C284 C 0.18654 0.68404 0.18968
 C285 C 0.18652 0.81785 0.30957
 C286 C 0.31334 0.81411 0.31269
 C287 C 0.31317 0.68676 0.31276
 C288 C 0.31378 0.81423 0.18667
 C289 C 0.18630 0.68424 0.30991
 C290 C 0.31328 0.68652 0.18685
 O291 O 0.21180 0.82640 0.31815
 O292 O 0.17902 0.79024 0.28470
 O293 O 0.21157 0.67556 0.31850
 O294 O 0.17888 0.71186 0.28491
 O295 O 0.28803 0.67796 0.17828
 O296 O 0.32077 0.71264 0.21311
 O297 O 0.25018 0.71606 0.35998
 O298 O 0.25028 0.78576 0.35982
 O299 O 0.25041 0.71581 0.13931
 O300 O 0.25063 0.78548 0.13912
 O301 O 0.28811 0.82297 0.32117
 O302 O 0.32079 0.78803 0.28634
 O303 O 0.21219 0.82686 0.18097
 O304 O 0.17920 0.79039 0.21419
 O305 O 0.28864 0.82328 0.17787
 O306 O 0.32118 0.78806 0.21295
 O307 O 0.28790 0.67825 0.32138
 O308 O 0.32069 0.71276 0.28632
 O309 O 0.25064 0.63613 0.19013
 O310 O 0.25087 0.63614 0.30870
 O311 O 0.25125 0.86551 0.30809
 O312 O 0.25126 0.86538 0.18962
 O313 O 0.22625 0.80471 0.24934
 O314 O 0.22597 0.69695 0.24963
 O315 O 0.27354 0.80421 0.24948
 O316 O 0.22496 0.75092 0.19743
 O317 O 0.17890 0.71183 0.21422
 O318 O 0.21171 0.67504 0.18108
 O319 O 0.27527 0.75058 0.19710
 O320 O 0.27509 0.75070 0.30191
 O321 O 0.27325 0.69717 0.24968
 O322 O 0.22479 0.75092 0.30154
 Zr323 Zr 0.24985 0.70000 0.19890
 Zr324 Zr 0.24993 0.80152 0.30015
 Zr325 Zr 0.20268 0.75094 0.24948
 Zr326 Zr 0.25023 0.80153 0.19863
 Zr327 Zr 0.24976 0.70010 0.30039
 Zr328 Zr 0.29711 0.75056 0.24956
 H329 H 0.28466 0.82956 0.24952
 H330 H 0.21275 0.75094 0.17428
 H331 H 0.28424 0.67168 0.24979
 H332 H 0.21255 0.75099 0.32469
 H333 H 0.25114 0.62397 0.21663
 H334 H 0.24473 0.62420 0.28360
 H335 H 0.25194 0.87757 0.21607
 H336 H 0.24502 0.87740 0.28298
 C337 C 0.49888 0.49988 0.12796
 C338 C 0.49901 0.49966 -0.12784
 C339 C 0.56318 0.56654 0.06041
 C340 C 0.56327 0.43344 0.06056
 C341 C 0.56324 0.56620 -0.06053
 C342 C 0.43641 0.56342 -0.06326
 C343 C 0.43654 0.43591 -0.06300
 C344 C 0.43647 0.56352 0.06259
 C345 C 0.56333 0.43355 -0.06036
 C346 C 0.43662 0.43593 0.06272
 O347 O 0.53799 0.57490 -0.06909
 O348 O 0.57073 0.53890 -0.03530
 O349 O 0.53809 0.42474 -0.06884
 O350 O 0.57078 0.46091 -0.03523
 O351 O 0.46172 0.42702 0.07157
 O352 O 0.42900 0.46202 0.03656
 O353 O 0.49941 0.46484 -0.11019
 O354 O 0.49936 0.53454 -0.11034
 O355 O 0.49927 0.46502 0.11047
 O356 O 0.49924 0.53470 0.11034
 O357 O 0.46166 0.57218 -0.07179
 O358 O 0.42899 0.53732 -0.03684
 O359 O 0.53790 0.57535 0.06873
 O360 O 0.57071 0.53902 0.03545
 O361 O 0.46157 0.57250 0.07137
 O362 O 0.42890 0.53739 0.03648
 O363 O 0.46180 0.42721 -0.07151
 O364 O 0.42907 0.46204 -0.03670
 O365 O 0.49928 0.38514 0.05975
 O366 O 0.49883 0.38504 -0.05845
 O367 O 0.49865 0.61446 -0.05898
 O368 O 0.49900 0.61444 0.05944
 O369 O 0.52367 0.55377 -0.00001
 O370 O 0.52379 0.44587 0.00018
 O371 O 0.47638 0.55330 -0.00006
 O372 O 0.52487 0.49986 0.05218
 O373 O 0.57088 0.46092 0.03564
 O374 O 0.53810 0.42436 0.06915
 O375 O 0.47463 0.49976 0.05242
 O376 O 0.47467 0.49973 -0.05236
 O377 O 0.47649 0.44625 0.00015
 O378 O 0.52491 0.49980 -0.05187
 Zr379 Zr 0.49993 0.44903 0.05093
 Zr380 Zr 0.49985 0.55049 -0.05076
 Zr381 Zr 0.54707 0.49987 0.00016
 Zr382 Zr 0.49980 0.55056 0.05073
 Zr383 Zr 0.49993 0.44904 -0.05055
 Zr384 Zr 0.45272 0.49974 -0.00003
 H385 H 0.46532 0.57872 -0.00020
 H386 H 0.53705 0.49991 0.07537
 H387 H 0.46547 0.42079 0.00007
 H388 H 0.53707 0.49981 -0.07509
 H389 H 0.49844 0.37303 0.03328
 H390 H 0.50551 0.37321 -0.03355
 H391 H 0.49902 0.62657 0.03292
 H392 H 0.50511 0.62639 -0.03403
 C393 C 0.75053 0.75024 0.12178
 C394 C 0.75037 0.75086 0.37754
 C395 C 0.68633 0.81702 0.18900
 C396 C 0.68634 0.68395 0.18959
 C397 C 0.68623 0.81700 0.31022
 C398 C 0.81302 0.81366 0.31314
 C399 C 0.81301 0.68743 0.31357
 C400 C 0.81307 0.81361 0.18619
 C401 C 0.68615 0.68445 0.31063
 C402 C 0.81294 0.68704 0.18660
 O403 O 0.71149 0.82575 0.31867
 O404 O 0.67874 0.78972 0.28503
 O405 O 0.71141 0.67571 0.31914
 O406 O 0.67868 0.71170 0.28529
 O407 O 0.78782 0.67799 0.17801
 O408 O 0.82056 0.71286 0.21297
 O409 O 0.75002 0.71595 0.36009
 O410 O 0.75004 0.78568 0.35985
 O411 O 0.75013 0.71544 0.13945
 O412 O 0.75019 0.78514 0.13920
 O413 O 0.78778 0.82259 0.32151
 O414 O 0.82048 0.78791 0.28650
 O415 O 0.71152 0.82598 0.18038
 O416 O 0.67868 0.78965 0.21402
 O417 O 0.78795 0.82270 0.17752
 O418 O 0.82063 0.78786 0.21274
 O419 O 0.78775 0.67865 0.32201
 O420 O 0.82048 0.71308 0.28676
 O421 O 0.75039 0.63571 0.19074
 O422 O 0.75086 0.63588 0.30833
 O423 O 0.75096 0.86546 0.30753
 O424 O 0.75047 0.86517 0.19002
 O425 O 0.72576 0.80454 0.24944
 O426 O 0.72573 0.69665 0.24982
 O427 O 0.77316 0.80407 0.24945
 O428 O 0.72463 0.75048 0.19761
 O429 O 0.67867 0.71148 0.21435
 O430 O 0.71150 0.67488 0.18103
 O431 O 0.77483 0.75041 0.19731
 O432 O 0.77478 0.75062 0.30191
 O433 O 0.77312 0.69694 0.24982
 O434 O 0.72460 0.75069 0.30155
 Zr435 Zr 0.74962 0.69965 0.19907
 Zr436 Zr 0.74962 0.80140 0.30015
 Zr437 Zr 0.70237 0.75062 0.24961
 Zr438 Zr 0.74966 0.80126 0.19870
 Zr439 Zr 0.74958 0.69990 0.30052
 Zr440 Zr 0.79681 0.75047 0.24965
 H441 H 0.78430 0.82940 0.24948
 H442 H 0.71245 0.75043 0.17443
 H443 H 0.78423 0.67157 0.25001
 H444 H 0.71244 0.75075 0.32478
 H445 H 0.75197 0.62376 0.21723
 H446 H 0.74349 0.62412 0.28381
 H447 H 0.75222 0.87720 0.21643
 H448 H 0.74354 0.87711 0.28298
 C449 C 0.00020 0.00024 0.37166
 C450 C -0.00025 0.00088 0.62760
 C451 C -0.06397 0.06754 0.43951
 C452 C -0.06375 -0.06648 0.43982
 C453 C -0.06419 0.06744 0.55941
 C454 C 0.06265 0.06387 0.56328
 C455 C 0.06277 -0.06243 0.56333
 C456 C 0.06270 0.06387 0.43651
 C457 C -0.06409 -0.06644 0.55939
 C458 C 0.06289 -0.06253 0.43661
 O459 O -0.03896 0.07615 0.56807
 O460 O -0.07160 0.03976 0.53458
 O461 O -0.03884 -0.07522 0.56790
 O462 O -0.07155 -0.03856 0.53471
 O463 O 0.03779 -0.07160 0.42780
 O464 O 0.07037 -0.03679 0.46313
 O465 O -0.00054 -0.03406 0.61030
 O466 O -0.00058 0.03579 0.61018
 O467 O -0.00012 -0.03465 0.38909
 O468 O -0.00021 0.03521 0.38889
 O469 O 0.03739 0.07278 0.57162
 O470 O 0.07011 0.03811 0.53665
 O471 O -0.03880 0.07643 0.43079
 O472 O -0.07160 0.03977 0.46413
 O473 O 0.03761 0.07287 0.42768
 O474 O 0.07026 0.03817 0.46306
 O475 O 0.03753 -0.07140 0.57168
 O476 O 0.07020 -0.03659 0.53670
 O477 O 0.00095 -0.11428 0.44133
 O478 O 0.00031 -0.11385 0.55974
 O479 O 0.00057 0.11544 0.55814
 O480 O 0.00031 0.11519 0.43966
 O481 O -0.02448 0.05450 0.49941
 O482 O -0.02437 -0.05325 0.49967
 O483 O 0.02272 0.05421 0.49953
 O484 O -0.02563 0.00050 0.44740
 O485 O -0.07146 -0.03881 0.46440
 O486 O -0.03859 -0.07521 0.43095
 O487 O 0.02462 0.00059 0.44728
 O488 O 0.02446 0.00074 0.55210
 O489 O 0.02285 -0.05291 0.49980
 O490 O -0.02581 0.00066 0.55164
 Zr491 Zr -0.00050 -0.05026 0.44887
 Zr492 Zr -0.00078 0.05144 0.55033
 Zr493 Zr -0.04783 0.00060 0.49945
 Zr494 Zr -0.00065 0.05133 0.44858
 Zr495 Zr -0.00070 -0.05002 0.55056
 Zr496 Zr 0.04645 0.00069 0.49975
 H497 H 0.03383 0.07958 0.49960
 H498 H -0.03787 0.00049 0.42428
 H499 H 0.03400 -0.07824 0.49987
 H500 H -0.03811 0.00061 0.57473
 H501 H -0.00541 -0.12603 0.46644
 H502 H 0.00130 -0.12611 0.53334
 H503 H 0.00065 0.12735 0.46614
 H504 H -0.00580 0.12729 0.53309
 C505 C 0.25033 0.24909 0.87887
 C506 C 0.25019 0.24890 0.62290
 C507 C 0.18623 0.18208 0.81081
 C508 C 0.18645 0.31636 0.81034
 C509 C 0.18613 0.18233 0.69112
 C510 C 0.31285 0.18512 0.68769
 C511 C 0.31302 0.31250 0.68752
 C512 C 0.31297 0.18488 0.81339
 C513 C 0.18618 0.31609 0.69087
 C514 C 0.31307 0.31271 0.81320
 O515 O 0.21125 0.17344 0.68222
 O516 O 0.17854 0.20994 0.71585
 O517 O 0.21145 0.32462 0.68220
 O518 O 0.17868 0.28839 0.71573
 O519 O 0.28797 0.32167 0.82210
 O520 O 0.32059 0.28651 0.78709
 O521 O 0.24990 0.28383 0.64021
 O522 O 0.24983 0.21397 0.64029
 O523 O 0.25002 0.28398 0.86145
 O524 O 0.24998 0.21414 0.86161
 O525 O 0.28761 0.17641 0.67920
 O526 O 0.32032 0.21118 0.71402
 O527 O 0.21138 0.17313 0.81953
 O528 O 0.17861 0.20991 0.78628
 O529 O 0.28784 0.17607 0.82235
 O530 O 0.32051 0.21101 0.78718
 O531 O 0.28778 0.32127 0.67901
 O532 O 0.32044 0.28637 0.71390
 O533 O 0.25070 0.36359 0.81047
 O534 O 0.25086 0.36357 0.69159
 O535 O 0.25064 0.13420 0.69210
 O536 O 0.25039 0.13436 0.81091
 O537 O 0.22574 0.19514 0.75105
 O538 O 0.22587 0.30285 0.75086
 O539 O 0.27288 0.19539 0.75090
 O540 O 0.22452 0.24905 0.80310
 O541 O 0.17873 0.28850 0.78601
 O542 O 0.21161 0.32515 0.81907
 O543 O 0.27488 0.24890 0.80334
 O544 O 0.27475 0.24883 0.69836
 O545 O 0.27302 0.30239 0.75071
 O546 O 0.22444 0.24899 0.69882
 Zr547 Zr 0.24968 0.29973 0.80168
 Zr548 Zr 0.24943 0.19817 0.70009
 Zr549 Zr 0.20236 0.24907 0.75098
 Zr550 Zr 0.24955 0.19821 0.80189
 Zr551 Zr 0.24957 0.29963 0.69995
 Zr552 Zr 0.29668 0.24882 0.75074
 H553 H 0.28391 0.16994 0.75081
 H554 H 0.21226 0.24913 0.82623
 H555 H 0.28409 0.32779 0.75056
 H556 H 0.21219 0.24905 0.67571
 H557 H 0.25061 0.37577 0.78397
 H558 H 0.24518 0.37559 0.71689
 H559 H 0.25049 0.12215 0.78445
 H560 H 0.24480 0.12231 0.71741
 C561 C 0.49906 0.00002 0.37227
 C562 C 0.49861 0.00003 0.62760
 C563 C 0.56312 -0.06637 0.44006
 C564 C 0.56308 0.06671 0.43997
 C565 C 0.56302 -0.06614 0.56065
 C566 C 0.43625 -0.06365 0.56278
 C567 C 0.43629 0.06373 0.56257
 C568 C 0.43655 -0.06375 0.43722
 C569 C 0.56298 0.06646 0.56064
 C570 C 0.43648 0.06390 0.43699
 O571 O 0.53776 -0.07498 0.56909
 O572 O 0.57051 -0.03875 0.53552
 O573 O 0.53771 0.07527 0.56906
 O574 O 0.57048 0.03912 0.53551
 O575 O 0.46160 0.07290 0.42827
 O576 O 0.42887 0.03775 0.46312
 O577 O 0.49897 0.03500 0.61033
 O578 O 0.49902 -0.03488 0.61033
 O579 O 0.49938 0.03498 0.38945
 O580 O 0.49941 -0.03488 0.38960
 O581 O 0.46146 -0.07235 0.57147
 O582 O 0.42886 -0.03753 0.53640
 O583 O 0.53800 -0.07545 0.43138
 O584 O 0.57070 -0.03884 0.46484
 O585 O 0.46168 -0.07271 0.42851
 O586 O 0.42890 -0.03758 0.46326
 O587 O 0.46138 0.07270 0.57143
 O588 O 0.42876 0.03771 0.53634
 O589 O 0.49903 0.11482 0.44020
 O590 O 0.49845 0.11494 0.55848
 O591 O 0.49849 -0.11460 0.55874
 O592 O 0.49915 -0.11457 0.44059
 O593 O 0.52358 -0.05381 0.50003
 O594 O 0.52351 0.05412 0.49992
 O595 O 0.47630 -0.05341 0.49991
 O596 O 0.52482 0.00015 0.44791
 O597 O 0.57067 0.03922 0.46483
 O598 O 0.53796 0.07575 0.43121
 O599 O 0.47460 0.00012 0.44741
 O600 O 0.47440 0.00014 0.55222
 O601 O 0.47627 0.05367 0.49979
 O602 O 0.52460 0.00017 0.55199
 Zr603 Zr 0.49979 0.05094 0.44905
 Zr604 Zr 0.49965 -0.05061 0.55069
 Zr605 Zr 0.54686 0.00018 0.50004
 Zr606 Zr 0.49983 -0.05068 0.44921
 Zr607 Zr 0.49959 0.05093 0.55065
 Zr608 Zr 0.45260 0.00013 0.49978
 H609 H 0.46528 -0.07885 0.50000
 H610 H 0.53707 0.00015 0.42479
 H611 H 0.46522 0.07909 0.49980
 H612 H 0.53674 0.00015 0.57521
 H613 H 0.49825 0.12694 0.46667
 H614 H 0.50517 0.12674 0.53357
 H615 H 0.49825 -0.12666 0.46709
 H616 H 0.50523 -0.12645 0.53390
 C617 C 0.75034 0.24930 0.87821
 C618 C 0.74999 0.24880 0.62292
 C619 C 0.68596 0.18254 0.81153
 C620 C 0.68615 0.31588 0.81064
 C621 C 0.68592 0.18267 0.69055
 C622 C 0.81245 0.18593 0.68709
 C623 C 0.81263 0.31233 0.68668
 C624 C 0.81268 0.18597 0.81362
 C625 C 0.68579 0.31537 0.69007
 C626 C 0.81273 0.31257 0.81329
 O627 O 0.71104 0.17380 0.68164
 O628 O 0.67829 0.20991 0.71563
 O629 O 0.71104 0.32406 0.68146
 O630 O 0.67832 0.28802 0.71532
 O631 O 0.78762 0.32164 0.82202
 O632 O 0.82028 0.28667 0.78693
 O633 O 0.74963 0.28377 0.64011
 O634 O 0.74961 0.21387 0.64028
 O635 O 0.74992 0.28420 0.86086
 O636 O 0.74991 0.21433 0.86108
 O637 O 0.78734 0.17680 0.67855
 O638 O 0.82009 0.21167 0.71352
 O639 O 0.71117 0.17357 0.82001
 O640 O 0.67831 0.21000 0.78659
 O641 O 0.78758 0.17684 0.82243
 O642 O 0.82022 0.21174 0.78712
 O643 O 0.78737 0.32111 0.67825
 O644 O 0.82008 0.28655 0.71336
 O645 O 0.75018 0.36388 0.80964
 O646 O 0.75042 0.36373 0.69182
 O647 O 0.75051 0.13405 0.69282
 O648 O 0.75007 0.13439 0.81021
 O649 O 0.72539 0.19506 0.75086
 O650 O 0.72542 0.30292 0.75055
 O651 O 0.77274 0.19553 0.75067
 O652 O 0.72431 0.24916 0.80277
 O653 O 0.67842 0.28826 0.78606
 O654 O 0.71130 0.32490 0.81915
 O655 O 0.77451 0.24913 0.80284
 O656 O 0.77437 0.24894 0.69820
 O657 O 0.77277 0.30268 0.75034
 O658 O 0.72419 0.24894 0.69878
 Zr659 Zr 0.74937 0.29996 0.80120
 Zr660 Zr 0.74919 0.19813 0.70000
 Zr661 Zr 0.70202 0.24899 0.75084
 Zr662 Zr 0.74929 0.19830 0.80154
 Zr663 Zr 0.74921 0.29972 0.69973
 Zr664 Zr 0.79641 0.24912 0.75040
 H665 H 0.78388 0.17018 0.75060
 H666 H 0.71214 0.24923 0.82598
 H667 H 0.78387 0.32805 0.75014
 H668 H 0.71200 0.24893 0.67562
 H669 H 0.75156 0.37587 0.78314
 H670 H 0.74340 0.37552 0.71654
 H671 H 0.75216 0.12237 0.78383
 H672 H 0.74310 0.12249 0.71744
 C673 C 0.00037 0.50017 0.37266
 C674 C 0.00010 0.49982 0.62862
 C675 C -0.06363 0.56704 0.44077
 C676 C -0.06341 0.43276 0.44081
 C677 C -0.06388 0.56679 0.56042
 C678 C 0.06296 0.56331 0.56409
 C679 C 0.06301 0.43684 0.56402
 C680 C 0.06306 0.56360 0.43742
 C681 C -0.06366 0.43294 0.56044
 C682 C 0.06319 0.43685 0.43732
 O683 O -0.03863 0.57539 0.56912
 O684 O -0.07130 0.53907 0.53563
 O685 O -0.03851 0.42422 0.56941
 O686 O -0.07128 0.46055 0.53567
 O687 O 0.03807 0.42778 0.42868
 O688 O 0.07073 0.46264 0.46378
 O689 O -0.00013 0.46489 0.61128
 O690 O -0.00024 0.53475 0.61122
 O691 O 0.00009 0.46522 0.38999
 O692 O 0.00001 0.53507 0.38998
 O693 O 0.03770 0.57200 0.57258
 O694 O 0.07047 0.53759 0.53745
 O695 O -0.03846 0.57599 0.43209
 O696 O -0.07128 0.53917 0.46525
 O697 O 0.03792 0.57257 0.42873
 O698 O 0.07065 0.53775 0.46386
 O699 O 0.03789 0.42780 0.57275
 O700 O 0.07060 0.46258 0.53747
 O701 O 0.00089 0.38540 0.44099
 O702 O 0.00111 0.38508 0.55919
 O703 O 0.00088 0.61453 0.55955
 O704 O 0.00065 0.61473 0.44106
 O705 O -0.02416 0.55378 0.50053
 O706 O -0.02403 0.44606 0.50055
 O707 O 0.02307 0.55353 0.50060
 O708 O -0.02534 0.49999 0.44840
 O709 O -0.07115 0.46055 0.46526
 O710 O -0.03823 0.42394 0.43214
 O711 O 0.02496 0.50010 0.44815
 O712 O 0.02483 0.49991 0.55296
 O713 O 0.02319 0.44649 0.50062
 O714 O -0.02547 0.49982 0.55262
 Zr715 Zr -0.00019 0.44927 0.44971
 Zr716 Zr -0.00045 0.55058 0.55140
 Zr717 Zr -0.04755 0.49987 0.50048
 Zr718 Zr -0.00032 0.55083 0.44970
 Zr719 Zr -0.00034 0.44911 0.55147
 Zr720 Zr 0.04686 0.50006 0.50058
 H721 H 0.03414 0.57894 0.50068
 H722 H -0.03760 0.49999 0.42530
 H723 H 0.03434 0.42115 0.50067
 H724 H -0.03775 0.49982 0.57572
 H725 H 0.00178 0.37327 0.46747
 H726 H -0.00544 0.37332 0.53422
 H727 H 0.00065 0.62678 0.46759
 H728 H -0.00531 0.62654 0.53447
 C729 C 0.25043 0.75034 0.87748
 C730 C 0.25018 0.75108 0.62214
 C731 C 0.18623 0.68368 0.80950
 C732 C 0.18632 0.81783 0.81002
 C733 C 0.18607 0.68419 0.69020
 C734 C 0.31278 0.68668 0.68661
 C735 C 0.31279 0.81421 0.68696
 C736 C 0.31284 0.68633 0.81226
 C737 C 0.18624 0.81795 0.69022
 C738 C 0.31303 0.81397 0.81253
 O739 O 0.21119 0.67534 0.68124
 O740 O 0.17847 0.71184 0.71488
 O741 O 0.21139 0.82663 0.68125
 O742 O 0.17857 0.79034 0.71496
 O743 O 0.28793 0.82307 0.82135
 O744 O 0.32053 0.78787 0.78632
 O745 O 0.24987 0.78597 0.63945
 O746 O 0.24977 0.71610 0.63937
 O747 O 0.25009 0.78532 0.86031
 O748 O 0.24999 0.71547 0.86019
 O749 O 0.28751 0.67817 0.67804
 O750 O 0.32027 0.71273 0.71296
 O751 O 0.21137 0.67465 0.81813
 O752 O 0.17856 0.71164 0.78518
 O753 O 0.28770 0.67749 0.82109
 O754 O 0.32043 0.71253 0.78615
 O755 O 0.28769 0.82329 0.67822
 O756 O 0.32038 0.78806 0.71309
 O757 O 0.25058 0.86521 0.80967
 O758 O 0.25084 0.86563 0.69126
 O759 O 0.25049 0.63616 0.69061
 O760 O 0.25028 0.63589 0.80944
 O761 O 0.22562 0.69696 0.74986
 O762 O 0.22575 0.80473 0.75003
 O763 O 0.27284 0.69702 0.74970
 O764 O 0.22448 0.75065 0.80206
 O765 O 0.17861 0.79014 0.78545
 O766 O 0.21151 0.82661 0.81864
 O767 O 0.27477 0.75045 0.80224
 O768 O 0.27466 0.75074 0.69740
 O769 O 0.27299 0.80407 0.74987
 O770 O 0.22436 0.75095 0.69790
 Zr771 Zr 0.24960 0.80137 0.80075
 Zr772 Zr 0.24936 0.70009 0.69900
 Zr773 Zr 0.20226 0.75094 0.75004
 Zr774 Zr 0.24949 0.69977 0.80058
 Zr775 Zr 0.24949 0.80162 0.69915
 Zr776 Zr 0.29664 0.75043 0.74974
 H777 H 0.28383 0.67153 0.74957
 H778 H 0.21224 0.75062 0.82521
 H779 H 0.28408 0.82945 0.74984
 H780 H 0.21211 0.75104 0.67480
 H781 H 0.25126 0.87743 0.78321
 H782 H 0.24466 0.87745 0.71642
 H783 H 0.25021 0.62374 0.78295
 H784 H 0.24494 0.62411 0.71597
 C785 C 0.49893 0.49970 0.37232
 C786 C 0.49857 0.49932 0.62763
 C787 C 0.56318 0.43314 0.43981
 C788 C 0.56298 0.56638 0.43993
 C789 C 0.56294 0.43322 0.56055
 C790 C 0.43636 0.43541 0.56271
 C791 C 0.43617 0.56305 0.56268
 C792 C 0.43652 0.43552 0.43703
 C793 C 0.56292 0.56601 0.56074
 C794 C 0.43635 0.56331 0.43714
 O795 O 0.53779 0.42428 0.56928
 O796 O 0.57061 0.46055 0.53552
 O797 O 0.53762 0.57462 0.56922
 O798 O 0.57048 0.53870 0.53558
 O799 O 0.46148 0.57233 0.42846
 O800 O 0.42873 0.53706 0.46321
 O801 O 0.49891 0.53428 0.61036
 O802 O 0.49899 0.46439 0.61037
 O803 O 0.49925 0.53460 0.38959
 O804 O 0.49934 0.46474 0.38955
 O805 O 0.46148 0.42660 0.57157
 O806 O 0.42875 0.46149 0.53648
 O807 O 0.53804 0.42409 0.43116
 O808 O 0.57076 0.46064 0.46466
 O809 O 0.46168 0.42665 0.42835
 O810 O 0.42884 0.46162 0.46314
 O811 O 0.46128 0.57197 0.57154
 O812 O 0.42864 0.53697 0.53647
 O813 O 0.49892 0.61427 0.44057
 O814 O 0.49833 0.61420 0.55848
 O815 O 0.49860 0.38455 0.55834
 O816 O 0.49928 0.38486 0.44046
 O817 O 0.52360 0.44562 0.49999
 O818 O 0.52346 0.55348 0.50003
 O819 O 0.47630 0.44589 0.49989
 O820 O 0.52480 0.49963 0.44795
 O821 O 0.57064 0.53885 0.46475
 O822 O 0.53782 0.57531 0.43127
 O823 O 0.47453 0.49949 0.44750
 O824 O 0.47435 0.49933 0.55226
 O825 O 0.47615 0.55291 0.49992
 O826 O 0.52460 0.49946 0.55198
 Zr827 Zr 0.49969 0.55036 0.44920
 Zr828 Zr 0.49965 0.44860 0.55072
 Zr829 Zr 0.54693 0.49961 0.50004
 Zr830 Zr 0.49984 0.44875 0.44915
 Zr831 Zr 0.49952 0.55018 0.55072
 Zr832 Zr 0.45247 0.49934 0.49985
 H833 H 0.46530 0.42044 0.49991
 H834 H 0.53702 0.49971 0.42480
 H835 H 0.46509 0.57832 0.49996
 H836 H 0.53672 0.49948 0.57521
 H837 H 0.49760 0.62629 0.46704
 H838 H 0.50531 0.62598 0.53372
 H839 H 0.49776 0.37274 0.46690
 H840 H 0.50556 0.37291 0.53353
 C841 C 0.75039 0.75006 0.87751
 C842 C 0.75000 0.75102 0.62221
 C843 C 0.68621 0.68370 0.81015
 C844 C 0.68607 0.81681 0.81085
 C845 C 0.68592 0.68444 0.68957
 C846 C 0.81252 0.68743 0.68623
 C847 C 0.81254 0.81384 0.68641
 C848 C 0.81275 0.68705 0.81277
 C849 C 0.68602 0.81715 0.69001
 C850 C 0.81278 0.81355 0.81295
 O851 O 0.71105 0.67562 0.68061
 O852 O 0.67832 0.71164 0.71473
 O853 O 0.71113 0.82600 0.68105
 O854 O 0.67838 0.78982 0.71503
 O855 O 0.78767 0.82265 0.82174
 O856 O 0.82032 0.78782 0.78645
 O857 O 0.74964 0.78590 0.63957
 O858 O 0.74966 0.71600 0.63940
 O859 O 0.75000 0.78507 0.86036
 O860 O 0.74996 0.71520 0.86018
 O861 O 0.78739 0.67849 0.67755
 O862 O 0.82016 0.71307 0.71275
 O863 O 0.71137 0.67463 0.81863
 O864 O 0.67848 0.71132 0.78550
 O865 O 0.78765 0.67790 0.82145
 O866 O 0.82031 0.71294 0.78636
 O867 O 0.78741 0.82294 0.67783
 O868 O 0.82017 0.78804 0.71284
 O869 O 0.75012 0.86510 0.80944
 O870 O 0.75058 0.86561 0.69196
 O871 O 0.75047 0.63585 0.69143
 O872 O 0.75025 0.63560 0.80897
 O873 O 0.72547 0.69663 0.74989
 O874 O 0.72547 0.80450 0.75015
 O875 O 0.77282 0.69694 0.74967
 O876 O 0.72439 0.75036 0.80207
 O877 O 0.67840 0.78945 0.78591
 O878 O 0.71125 0.82584 0.81929
 O879 O 0.77458 0.75036 0.80215
 O880 O 0.77442 0.75069 0.69751
 O881 O 0.77282 0.80408 0.74994
 O882 O 0.72425 0.75074 0.69809
 Zr883 Zr 0.74938 0.80120 0.80081
 Zr884 Zr 0.74924 0.69989 0.69902
 Zr885 Zr 0.70208 0.75057 0.75017
 Zr886 Zr 0.74942 0.69955 0.80054
 Zr887 Zr 0.74927 0.80152 0.69928
 Zr888 Zr 0.79649 0.75049 0.74972
 H889 H 0.78393 0.67157 0.74953
 H890 H 0.71223 0.75024 0.82529
 H891 H 0.78395 0.82943 0.74987
 H892 H 0.71204 0.75084 0.67495
 H893 H 0.75216 0.87717 0.78305
 H894 H 0.74334 0.87717 0.71665
 H895 H 0.75200 0.62368 0.78251
 H896 H 0.74323 0.62414 0.71608
 C897 C 0.00132 -0.00019 0.25227
 C898 C 0.00144 0.03678 0.23160
 C899 C 0.00144 0.03672 0.19068
 C900 C 0.00130 -0.00042 0.16981
 C901 C 0.00131 -0.03746 0.19094
 C902 C 0.00131 -0.03728 0.23187
 C903 C 0.00102 -0.00003 0.29440
 C904 C 0.00068 0.00012 0.32969
 H905 H 0.00146 0.06568 0.24711
 H906 H 0.00147 0.06580 0.17546
 H907 H 0.00123 -0.06660 0.17590
 H908 H 0.00122 -0.06609 0.24759
 C909 C 0.25111 0.24940 0.99831
 C910 C 0.25118 0.21245 1.01894
 C911 C 0.25103 0.21240 1.05986
 C912 C 0.25078 0.24954 1.08113
 C913 C 0.25087 0.28662 1.05967
 C914 C 0.25101 0.28642 1.01874
 C915 C 0.25096 0.24929 0.95616
 C916 C 0.25072 0.24918 0.92087
 H917 H 0.25127 0.18358 1.00338
 H918 H 0.25104 0.18304 1.07462
 H919 H 0.25074 0.31602 1.07430
 H920 H 0.25097 0.31523 1.00302
 C921 C 0.12675 0.12227 0.12903
 C922 C 0.09903 0.12996 0.13696
 C923 C 0.07856 0.11071 0.11500
 C924 C 0.08554 0.08345 0.08466
 C925 C 0.11353 0.07587 0.07696
 C926 C 0.13397 0.09521 0.09900
 C927 C 0.14776 0.14288 0.15115
 C928 C 0.16535 0.16071 0.16918
 H929 H 0.09321 0.15093 0.16007
 H930 H 0.05727 0.11720 0.12190
 H931 H 0.11967 0.05503 0.05393
 H932 H 0.15540 0.08914 0.09254
 C933 C 0.37655 0.37601 0.12279
 C934 C 0.38354 0.34856 0.15262
 C935 C 0.36294 0.32812 0.17340
 C936 C 0.33504 0.33494 0.16458
 C937 C 0.32828 0.36263 0.13447
 C938 C 0.34892 0.38300 0.11375
 C939 C 0.39772 0.39708 0.10148
 C940 C 0.41545 0.41482 0.08368
 H941 H 0.40490 0.34297 0.15981
 H942 H 0.36890 0.30703 0.19635
 H943 H 0.30705 0.36857 0.12681
 H944 H 0.34332 0.40419 0.09068
 C945 C 0.37686 0.12249 0.12296
 C946 C 0.38378 0.15016 0.15260
 C947 C 0.36314 0.17071 0.17332
 C948 C 0.33521 0.16382 0.16467
 C949 C 0.32851 0.13590 0.13476
 C950 C 0.34918 0.11544 0.11411
 C951 C 0.39812 0.10130 0.10165
 C952 C 0.41591 0.08352 0.08385
 H953 H 0.40514 0.15588 0.15972
 H954 H 0.36910 0.19194 0.19609
 H955 H 0.30728 0.12986 0.12721
 H956 H 0.34357 0.09410 0.09122
 C957 C 0.12311 0.38019 0.12557
 C958 C 0.11601 0.35254 0.15520
 C959 C 0.13653 0.33241 0.17645
 C960 C 0.16450 0.33970 0.16832
 C961 C 0.17137 0.36804 0.13878
 C962 C 0.15081 0.38808 0.11759
 C963 C 0.10199 0.40022 0.10313
 C964 C 0.08426 0.41699 0.08441
 H965 H 0.09461 0.34628 0.16167
 H966 H 0.13046 0.31088 0.19896
 H967 H 0.19264 0.37438 0.13164
 H968 H 0.15653 0.40949 0.09475
 C969 C 0.37639 0.12345 0.37651
 C970 C 0.38339 0.15091 0.34669
 C971 C 0.36281 0.17121 0.32575
 C972 C 0.33488 0.16422 0.33438
 C973 C 0.32810 0.13650 0.36447
 C974 C 0.34873 0.11629 0.38535
 C975 C 0.39756 0.10252 0.39799
 C976 C 0.41531 0.08491 0.41590
 H977 H 0.40477 0.15665 0.33962
 H978 H 0.36880 0.19232 0.30283
 H979 H 0.30686 0.13043 0.37200
 H980 H 0.34310 0.09507 0.40840
 C981 C 0.12310 0.37965 0.37393
 C982 C 0.15082 0.38824 0.38096
 C983 C 0.17131 0.36826 0.35954
 C984 C 0.16437 0.33928 0.33069
 C985 C 0.13638 0.33124 0.32351
 C986 C 0.11592 0.35129 0.34500
 C987 C 0.10206 0.39975 0.39656
 C988 C 0.08440 0.41662 0.41542
 H989 H 0.15663 0.41018 0.40323
 H990 H 0.19260 0.37523 0.36596
 H991 H 0.13025 0.30915 0.30159
 H992 H 0.09451 0.34446 0.33924
 C993 C 0.12280 0.12052 0.37353
 C994 C 0.11578 0.14933 0.34493
 C995 C 0.13634 0.16917 0.32354
 C996 C 0.16426 0.16040 0.33053
 C997 C 0.17104 0.13095 0.35907
 C998 C 0.15043 0.11119 0.38040
 C999 C 0.10166 0.10069 0.39601
 C1000 C 0.08391 0.08400 0.41472
 H1001 H 0.09441 0.15670 0.33936
 H1002 H 0.13035 0.19166 0.30187
 H1003 H 0.19228 0.12345 0.36529
 H1004 H 0.15606 0.08885 0.40245
 C1005 C 0.37651 0.37570 0.37641
 C1006 C 0.34882 0.38288 0.38511
 C1007 C 0.32821 0.36263 0.36424
 C1008 C 0.33501 0.33482 0.33427
 C1009 C 0.36296 0.32780 0.32578
 C1010 C 0.38353 0.34814 0.34672
 C1011 C 0.39767 0.39672 0.39792
 C1012 C 0.41537 0.41441 0.41588
 H1013 H 0.34315 0.40416 0.40804
 H1014 H 0.30696 0.36875 0.37168
 H1015 H 0.36897 0.30662 0.30297
 H1016 H 0.40491 0.34235 0.33973
 C1017 C 0.49852 -0.00074 0.25339
 C1018 C 0.49926 0.03616 0.23270
 C1019 C 0.49955 0.03593 0.19187
 C1020 C 0.49912 -0.00132 0.17122
 C1021 C 0.49829 -0.03829 0.19237
 C1022 C 0.49800 -0.03794 0.23323
 C1023 C 0.49855 -0.00040 0.29533
 C1024 C 0.49871 -0.00013 0.33050
 H1025 H 0.49969 0.06510 0.24814
 H1026 H 0.50020 0.06494 0.17655
 H1027 H 0.49790 -0.06748 0.17743
 H1028 H 0.49743 -0.06666 0.24909
 C1029 C 0.75172 0.24936 0.99707
 C1030 C 0.75155 0.21226 1.01747
 C1031 C 0.75151 0.21213 1.05832
 C1032 C 0.75161 0.24921 1.07925
 C1033 C 0.75193 0.28637 1.05836
 C1034 C 0.75197 0.28638 1.01751
 C1035 C 0.75136 0.24941 0.95514
 C1036 C 0.75094 0.24939 0.91997
 H1037 H 0.75134 0.18345 1.00181
 H1038 H 0.75128 0.18299 1.07343
 H1039 H 0.75206 0.31545 1.07351
 H1040 H 0.75211 0.31524 1.00187
 C1041 C 0.62719 0.12502 0.12713
 C1042 C 0.59951 0.13440 0.13372
 C1043 C 0.57899 0.11552 0.11151
 C1044 C 0.58587 0.08690 0.08228
 C1045 C 0.61383 0.07804 0.07560
 C1046 C 0.63430 0.09700 0.09787
 C1047 C 0.64827 0.14451 0.15009
 C1048 C 0.66594 0.16137 0.16885
 H1049 H 0.59376 0.15618 0.15617
 H1050 H 0.55773 0.12305 0.11759
 H1051 H 0.61991 0.05615 0.05345
 H1052 H 0.65568 0.08964 0.09239
 C1053 C -0.12327 0.37254 0.11986
 C1054 C -0.11607 0.34612 0.15046
 C1055 C -0.13652 0.32665 0.17243
 C1056 C -0.16450 0.33343 0.16410
 C1057 C -0.17147 0.36009 0.13322
 C1058 C -0.15099 0.37948 0.11132
 C1059 C -0.10225 0.39322 0.09776
 C1060 C -0.08464 0.41107 0.07974
 H1061 H -0.09465 0.34066 0.15740
 H1062 H -0.13039 0.30633 0.19592
 H1063 H -0.19276 0.36595 0.12584
 H1064 H -0.15679 0.39995 0.08776
 C1065 C 0.87371 0.12900 0.12344
 C1066 C 0.90143 0.13757 0.13058
 C1067 C 0.92195 0.11774 0.10908
 C1068 C 0.91504 0.08893 0.08005
 C1069 C 0.88706 0.08090 0.07278
 C1070 C 0.86657 0.10081 0.09435
 C1071 C 0.85263 0.14895 0.14616
 C1072 C 0.83496 0.16570 0.16508
 H1073 H 0.90720 0.15938 0.15297
 H1074 H 0.94322 0.12468 0.11558
 H1075 H 0.88096 0.05895 0.05072
 H1076 H 0.84517 0.09400 0.08851
 C1077 C 0.62344 0.37597 0.12332
 C1078 C 0.61640 0.34863 0.15326
 C1079 C 0.63695 0.32956 0.17539
 C1080 C 0.66492 0.33761 0.16790
 C1081 C 0.67174 0.36557 0.13800
 C1082 C 0.65114 0.38456 0.11592
 C1083 C 0.60226 0.39554 0.10047
 C1084 C 0.58450 0.41240 0.08178
 H1085 H 0.59502 0.34188 0.15939
 H1086 H 0.63091 0.30824 0.19810
 H1087 H 0.69300 0.37246 0.13128
 H1088 H 0.65685 0.40580 0.09294
 C1089 C -0.12424 0.12778 0.37930
 C1090 C -0.11730 0.15567 0.34983
 C1091 C -0.13787 0.17504 0.32799
 C1092 C -0.16601 0.16685 0.33517
 C1093 C -0.17258 0.13854 0.36516
 C1094 C -0.15190 0.11930 0.38687
 C1095 C -0.10299 0.10720 0.40121
 C1096 C -0.08520 0.08945 0.41909
 H1097 H -0.09592 0.16240 0.34363
 H1098 H -0.13153 0.19647 0.30550
 H1099 H -0.19372 0.13104 0.37213
 H1100 H -0.15753 0.09767 0.40956
 C1101 C 0.62334 0.37544 0.37741
 C1102 C 0.65101 0.38451 0.38437
 C1103 C 0.67161 0.36553 0.36233
 C1104 C 0.66482 0.33712 0.33289
 C1105 C 0.63688 0.32854 0.32586
 C1106 C 0.61632 0.34759 0.34797
 C1107 C 0.60217 0.39507 0.40016
 C1108 C 0.58442 0.41203 0.41875
 H1109 H 0.65669 0.40614 0.40698
 H1110 H 0.69285 0.37284 0.36867
 H1111 H 0.63086 0.30683 0.30353
 H1112 H 0.59495 0.34047 0.34220
 C1113 C 0.62338 0.12367 0.37772
 C1114 C 0.61646 0.15164 0.34832
 C1115 C 0.63707 0.17029 0.32608
 C1116 C 0.66495 0.16115 0.33297
 C1117 C 0.67165 0.13259 0.36236
 C1118 C 0.65098 0.11400 0.38454
 C1119 C 0.60214 0.10443 0.40048
 C1120 C 0.58431 0.08773 0.41902
 H1121 H 0.59513 0.15917 0.34269
 H1122 H 0.63114 0.19217 0.30381
 H1123 H 0.69286 0.12490 0.36856
 H1124 H 0.65653 0.09222 0.40713
 C1125 C -0.12322 0.37208 0.38075
 C1126 C -0.15093 0.37991 0.38869
 C1127 C -0.17145 0.36056 0.36690
 C1128 C -0.16453 0.33304 0.33674
 C1129 C -0.13656 0.32531 0.32906
 C1130 C -0.11607 0.34475 0.35092
 C1131 C -0.10214 0.39280 0.40265
 C1132 C -0.08450 0.41070 0.42051
 H1133 H -0.15669 0.40109 0.41165
 H1134 H -0.19273 0.36717 0.37376
 H1135 H -0.13045 0.30428 0.30618
 H1136 H -0.09466 0.33856 0.34446
 C1137 C 0.00096 0.50036 0.25334
 C1138 C 0.00111 0.53741 0.23280
 C1139 C 0.00094 0.53749 0.19188
 C1140 C 0.00061 0.50041 0.17092
 C1141 C 0.00055 0.46331 0.19194
 C1142 C 0.00072 0.46334 0.23285
 C1143 C 0.00087 0.50031 0.29545
 C1144 C 0.00070 0.50024 0.33072
 H1145 H 0.00129 0.56625 0.24840
 H1146 H 0.00102 0.56661 0.17672
 H1147 H 0.00032 0.43420 0.17683
 H1148 H 0.00060 0.43448 0.24849
 C1149 C 0.25162 0.75031 0.99629
 C1150 C 0.25225 0.71331 1.01681
 C1151 C 0.25214 0.71335 1.05766
 C1152 C 0.25137 0.75051 1.07843
 C1153 C 0.25089 0.78758 1.05741
 C1154 C 0.25100 0.78742 1.01657
 C1155 C 0.25134 0.75023 0.95438
 C1156 C 0.25097 0.75024 0.91923
 H1157 H 0.25274 0.68445 1.00126
 H1158 H 0.25258 0.68428 1.07289
 H1159 H 0.25031 0.81671 1.07244
 H1160 H 0.25051 0.81621 1.00082
 C1161 C 0.12643 0.62384 0.12930
 C1162 C 0.09871 0.63075 0.13805
 C1163 C 0.07812 0.61137 0.11635
 C1164 C 0.08494 0.58470 0.08544
 C1165 C 0.11291 0.57795 0.07690
 C1166 C 0.13347 0.59741 0.09866
 C1167 C 0.14760 0.64445 0.15127
 C1168 C 0.16533 0.66219 0.16922
 H1169 H 0.09299 0.65121 0.16163
 H1170 H 0.05685 0.61723 0.12390
 H1171 H 0.11896 0.55765 0.05339
 H1172 H 0.15486 0.59191 0.09152
 C1173 C 0.37467 0.87352 0.12600
 C1174 C 0.36791 0.90181 0.09679
 C1175 C 0.38861 0.92210 0.07585
 C1176 C 0.41675 0.91451 0.08368
 C1177 C 0.42315 0.88572 0.11332
 C1178 C 0.40234 0.86556 0.13414
 C1179 C 0.35322 0.85264 0.14755
 C1180 C 0.33525 0.83515 0.16548
 H1181 H 0.34656 0.90825 0.09014
 H1182 H 0.38235 0.94375 0.05353
 H1183 H 0.44428 0.87860 0.12073
 H1184 H 0.40788 0.84372 0.15667
 C1185 C 0.37647 0.62336 0.12299
 C1186 C 0.38355 0.65007 0.15332
 C1187 C 0.36304 0.67061 0.17420
 C1188 C 0.33511 0.66462 0.16499
 C1189 C 0.32825 0.63762 0.13442
 C1190 C 0.34881 0.61717 0.11360
 C1191 C 0.39756 0.60226 0.10152
 C1192 C 0.41527 0.58455 0.08361
 H1193 H 0.40493 0.65504 0.16083
 H1194 H 0.36907 0.69111 0.19754
 H1195 H 0.30701 0.63233 0.12643
 H1196 H 0.34312 0.59655 0.09015
 C1197 C 0.12715 0.87797 0.12905
 C1198 C 0.13419 0.90496 0.09885
 C1199 C 0.11363 0.92395 0.07678
 C1200 C 0.08569 0.91608 0.08461
 C1201 C 0.07888 0.88887 0.11511
 C1202 C 0.09948 0.86996 0.13712
 C1203 C 0.14829 0.85768 0.15116
 C1204 C 0.16596 0.84003 0.16918
 H1205 H 0.15558 0.91124 0.09229
 H1206 H 0.11963 0.94478 0.05362
 H1207 H 0.05763 0.88219 0.12210
 H1208 H 0.09383 0.84901 0.16037
 C1209 C 0.37636 0.62355 0.37680
 C1210 C 0.38347 0.65105 0.34704
 C1211 C 0.36297 0.67163 0.32615
 C1212 C 0.33501 0.66493 0.33476
 C1213 C 0.32812 0.63720 0.36480
 C1214 C 0.34866 0.61669 0.38563
 C1215 C 0.39747 0.60231 0.39823
 C1216 C 0.41517 0.58448 0.41611
 H1217 H 0.40487 0.65658 0.33996
 H1218 H 0.36905 0.69273 0.30327
 H1219 H 0.30685 0.63132 0.37233
 H1220 H 0.34293 0.59548 0.40862
 C1221 C 0.12315 -0.11942 0.37376
 C1222 C 0.15083 -0.11035 0.38067
 C1223 C 0.17143 -0.13023 0.35937
 C1224 C 0.16462 -0.15956 0.33078
 C1225 C 0.13667 -0.16809 0.32377
 C1226 C 0.11612 -0.14815 0.34513
 C1227 C 0.10197 -0.09944 0.39620
 C1228 C 0.08419 -0.08268 0.41486
 H1229 H 0.15650 -0.08811 0.40273
 H1230 H 0.19268 -0.12290 0.36564
 H1231 H 0.13064 -0.19049 0.30208
 H1232 H 0.09474 -0.15536 0.33949
 C1233 C 0.12303 0.62131 0.37441
 C1234 C 0.11593 0.65043 0.34607
 C1235 C 0.13644 0.67049 0.32463
 C1236 C 0.16440 0.66169 0.33125
 C1237 C 0.17126 0.63202 0.35957
 C1238 C 0.15073 0.61203 0.38094
 C1239 C 0.10194 0.60107 0.39690
 C1240 C 0.08426 0.58405 0.41562
 H1241 H 0.09455 0.65782 0.34071
 H1242 H 0.13036 0.69316 0.30318
 H1243 H 0.19252 0.62445 0.36555
 H1244 H 0.15648 0.58950 0.40274
 C1245 C 0.37661 -0.12361 0.37696
 C1246 C 0.34893 -0.11580 0.38511
 C1247 C 0.32835 -0.13602 0.36421
 C1248 C 0.33521 -0.16439 0.33477
 C1249 C 0.36315 -0.17208 0.32686
 C1250 C 0.38369 -0.15178 0.34783
 C1251 C 0.39772 -0.10258 0.39838
 C1252 C 0.41541 -0.08486 0.41623
 H1253 H 0.34324 -0.09405 0.40762
 H1254 H 0.30709 -0.12940 0.37118
 H1255 H 0.36919 -0.19374 0.30449
 H1256 H 0.40509 -0.15803 0.34131
 C1257 C 0.49805 0.49988 0.25342
 C1258 C 0.49861 0.53694 0.23296
 C1259 C 0.49877 0.53701 0.19211
 C1260 C 0.49840 0.49990 0.17123
 C1261 C 0.49772 0.46279 0.19218
 C1262 C 0.49756 0.46284 0.23303
 C1263 C 0.49822 0.49985 0.29537
 C1264 C 0.49849 0.49978 0.33054
 H1265 H 0.49901 0.56577 0.24859
 H1266 H 0.49930 0.56611 0.17695
 H1267 H 0.49740 0.43368 0.17708
 H1268 H 0.49713 0.43400 0.24870
 C1269 C 0.75142 0.74995 0.99636
 C1270 C 0.75133 0.71293 1.01688
 C1271 C 0.75115 0.71297 1.05773
 C1272 C 0.75104 0.75013 1.07852
 C1273 C 0.75126 0.78721 1.05750
 C1274 C 0.75144 0.78706 1.01666
 C1275 C 0.75122 0.74989 0.95443
 C1276 C 0.75091 0.74992 0.91927
 H1277 H 0.75131 0.68406 1.00132
 H1278 H 0.75101 0.68389 1.07296
 H1279 H 0.75120 0.81635 1.07254
 H1280 H 0.75150 0.81586 1.00092
 C1281 C 0.62638 0.62661 0.12690
 C1282 C 0.59869 0.63518 0.13429
 C1283 C 0.57814 0.61630 0.11215
 C1284 C 0.58503 0.58848 0.08223
 C1285 C 0.61299 0.58048 0.07473
 C1286 C 0.63350 0.59944 0.09693
 C1287 C 0.64748 0.64606 0.14978
 C1288 C 0.66519 0.66289 0.16847
 H1289 H 0.59295 0.65631 0.15731
 H1290 H 0.55687 0.62313 0.11886
 H1291 H 0.61907 0.55926 0.05199
 H1292 H 0.65489 0.59275 0.09083
 C1293 C 0.87337 0.87022 0.12292
 C1294 C 0.86641 0.89811 0.09343
 C1295 C 0.88703 0.91794 0.07203
 C1296 C 0.91498 0.91013 0.07986
 C1297 C 0.92171 0.88161 0.10928
 C1298 C 0.90105 0.86185 0.13062
 C1299 C 0.85213 0.85039 0.14545
 C1300 C 0.83434 0.83372 0.16424
 H1301 H 0.84504 0.90477 0.08714
 H1302 H 0.88104 0.93966 0.04964
 H1303 H 0.94296 0.87486 0.11621
 H1304 H 0.90669 0.84027 0.15334
 C1305 C 0.87291 0.63000 0.12351
 C1306 C 0.90060 0.63794 0.13140
 C1307 C 0.92117 0.61801 0.11014
 C1308 C 0.91431 0.58974 0.08062
 C1309 C 0.88635 0.58238 0.07258
 C1310 C 0.86582 0.60239 0.09391
 C1311 C 0.85180 0.64998 0.14599
 C1312 C 0.83411 0.66679 0.16475
 H1313 H 0.90631 0.65932 0.15421
 H1314 H 0.94243 0.62442 0.11721
 H1315 H 0.88030 0.56088 0.05008
 H1316 H 0.84442 0.59610 0.08751
 C1317 C 0.62611 0.87420 0.12600
 C1318 C 0.63303 0.90232 0.09674
 C1319 C 0.61246 0.92126 0.07454
 C1320 C 0.58434 0.91249 0.08124
 C1321 C 0.57782 0.88341 0.11057
 C1322 C 0.59849 0.86462 0.13264
 C1323 C 0.64734 0.85480 0.14892
 C1324 C 0.66512 0.83803 0.16768
 H1325 H 0.65438 0.90979 0.09115
 H1326 H 0.61878 0.94312 0.05243
 H1327 H 0.55669 0.87530 0.11703
 H1328 H 0.59289 0.84268 0.15508
 C1329 C -0.12369 0.62762 0.38061
 C1330 C -0.11661 0.65540 0.35106
 C1331 C -0.13713 0.67481 0.32916
 C1332 C -0.16510 0.66662 0.33647
 C1333 C -0.17197 0.63868 0.36637
 C1334 C -0.15141 0.61935 0.38820
 C1335 C -0.10254 0.60692 0.40256
 C1336 C -0.08482 0.58905 0.42043
 H1337 H -0.09521 0.66197 0.34486
 H1338 H -0.13106 0.69620 0.30652
 H1339 H -0.19323 0.63170 0.37296
 H1340 H -0.15714 0.59783 0.41094
 C1341 C 0.62310 -0.12358 0.37737
 C1342 C 0.65072 -0.11365 0.38350
 C1343 C 0.67123 -0.13236 0.36115
 C1344 C 0.66437 -0.16133 0.33226
 C1345 C 0.63646 -0.17075 0.32606
 C1346 C 0.61599 -0.15196 0.34847
 C1347 C 0.60203 -0.10420 0.40034
 C1348 C 0.58432 -0.08739 0.41902
 H1349 H 0.65642 -0.09156 0.40568
 H1350 H 0.69247 -0.12442 0.36683
 H1351 H 0.63041 -0.19295 0.30420
 H1352 H 0.59464 -0.15971 0.34338
 C1353 C 0.62293 0.62444 0.37750
 C1354 C 0.61584 0.65298 0.34864
 C1355 C 0.63633 0.67202 0.32638
 C1356 C 0.66426 0.66271 0.33268
 C1357 C 0.67110 0.63364 0.36155
 C1358 C 0.65058 0.61468 0.38375
 C1359 C 0.60183 0.60473 0.40031
 C1360 C 0.58414 0.58767 0.41891
 H1361 H 0.59448 0.66064 0.34344
 H1362 H 0.63028 0.69429 0.30454
 H1363 H 0.69234 0.62576 0.36732
 H1364 H 0.65629 0.59250 0.40589
 C1365 C -0.12371 -0.12686 0.37993
 C1366 C -0.15139 -0.11835 0.38746
 C1367 C -0.17196 -0.13758 0.36567
 C1368 C -0.16511 -0.16561 0.33593
 C1369 C -0.13717 -0.17401 0.32868
 C1370 C -0.11664 -0.15471 0.35053
 C1371 C -0.10258 -0.10627 0.40177
 C1372 C -0.08488 -0.08845 0.41956
 H1373 H -0.15709 -0.09675 0.41010
 H1374 H -0.19322 -0.13045 0.37219
 H1375 H -0.13113 -0.19549 0.30614
 H1376 H -0.09525 -0.16142 0.34441
 C1377 C 0.00072 0.00048 0.74714
 C1378 C 0.00083 -0.03660 0.76758
 C1379 C 0.00089 -0.03692 0.80852
 C1380 C 0.00082 0.00008 0.83002
 C1381 C 0.00084 0.03729 0.80875
 C1382 C 0.00078 0.03736 0.76781
 C1383 C 0.00043 0.00070 0.70495
 C1384 C 0.00013 0.00084 0.66963
 H1385 H 0.00080 -0.06537 0.75184
 H1386 H 0.00093 -0.06637 0.82314
 H1387 H 0.00084 0.06660 0.82353
 H1388 H 0.00072 0.06628 0.75227
 C1389 C 0.25092 0.24915 0.50344
 C1390 C 0.25084 0.28624 0.48293
 C1391 C 0.25071 0.28641 0.44199
 C1392 C 0.25063 0.24938 0.42093
 C1393 C 0.25081 0.21224 0.44190
 C1394 C 0.25094 0.21218 0.48283
 C1395 C 0.25078 0.24902 0.54560
 C1396 C 0.25056 0.24893 0.58090
 H1397 H 0.25082 0.31505 0.49859
 H1398 H 0.25060 0.31556 0.42690
 H1399 H 0.25078 0.18317 0.42673
 H1400 H 0.25100 0.18328 0.49840
 C1401 C 0.12597 0.12291 0.63053
 C1402 C 0.09832 0.13248 0.63712
 C1403 C 0.07774 0.11345 0.61514
 C1404 C 0.08454 0.08456 0.58614
 C1405 C 0.11245 0.07515 0.57977
 C1406 C 0.13299 0.09424 0.60182
 C1407 C 0.14714 0.14317 0.65266
 C1408 C 0.16489 0.16068 0.67067
 H1409 H 0.09265 0.15472 0.65919
 H1410 H 0.05651 0.12142 0.62094
 H1411 H 0.11846 0.05298 0.55785
 H1412 H 0.15434 0.08669 0.59640
 C1413 C 0.37634 0.37530 0.62324
 C1414 C 0.38341 0.34631 0.65169
 C1415 C 0.36287 0.32586 0.67267
 C1416 C 0.33492 0.33419 0.66547
 C1417 C 0.32808 0.36341 0.63673
 C1418 C 0.34865 0.38379 0.61582
 C1419 C 0.39747 0.39646 0.60173
 C1420 C 0.41517 0.41425 0.58379
 H1421 H 0.40481 0.33951 0.65767
 H1422 H 0.36891 0.30354 0.69448
 H1423 H 0.30682 0.37061 0.63033
 H1424 H 0.34295 0.40618 0.59387
 C1425 C 0.37616 0.12291 0.62326
 C1426 C 0.38321 0.15185 0.65167
 C1427 C 0.36266 0.17207 0.67274
 C1428 C 0.33473 0.16353 0.66564
 C1429 C 0.32790 0.13432 0.63697
 C1430 C 0.34850 0.11418 0.61597
 C1431 C 0.39731 0.10208 0.60165
 C1432 C 0.41506 0.08458 0.58366
 H1433 H 0.40459 0.15881 0.65752
 H1434 H 0.36868 0.19440 0.69449
 H1435 H 0.30666 0.12699 0.63067
 H1436 H 0.34284 0.09179 0.59403
 C1437 C 0.12298 0.37960 0.62708
 C1438 C 0.11586 0.35065 0.65554
 C1439 C 0.13635 0.33044 0.67680
 C1440 C 0.16432 0.33893 0.66983
 C1441 C 0.17121 0.36852 0.64145
 C1442 C 0.15068 0.38866 0.62026
 C1443 C 0.10190 0.39976 0.60463
 C1444 C 0.08421 0.41663 0.58589
 H1445 H 0.09447 0.34345 0.66111
 H1446 H 0.13027 0.30788 0.69836
 H1447 H 0.19248 0.37587 0.63524
 H1448 H 0.15642 0.41108 0.59834
 C1449 C 0.37338 0.12470 0.87319
 C1450 C 0.36649 0.09642 0.90238
 C1451 C 0.38715 0.07602 0.92315
 C1452 C 0.41508 0.08367 0.91502
 C1453 C 0.42176 0.11215 0.88552
 C1454 C 0.40105 0.13248 0.86481
 C1455 C 0.35209 0.14585 0.85195
 C1456 C 0.33425 0.16364 0.83426
 H1457 H 0.34513 0.09014 0.90912
 H1458 H 0.38121 0.05430 0.94557
 H1459 H 0.44299 0.11878 0.87836
 H1460 H 0.40664 0.15430 0.84226
 C1461 C 0.12644 0.37743 0.86954
 C1462 C 0.13345 0.40520 0.89901
 C1463 C 0.11287 0.42466 0.92067
 C1464 C 0.08494 0.41650 0.91314
 C1465 C 0.07816 0.38858 0.88329
 C1466 C 0.09878 0.36919 0.86170
 C1467 C 0.14761 0.35661 0.84796
 C1468 C 0.16534 0.33859 0.83038
 H1469 H 0.15483 0.41169 0.90537
 H1470 H 0.11885 0.44604 0.94330
 H1471 H 0.05691 0.38164 0.87656
 H1472 H 0.09315 0.34765 0.83899
 C1473 C 0.12588 0.12162 0.87042
 C1474 C 0.13276 0.09362 0.89978
 C1475 C 0.11214 0.07409 0.92137
 C1476 C 0.08403 0.08225 0.91401
 C1477 C 0.07752 0.11070 0.88414
 C1478 C 0.09826 0.13010 0.86268
 C1479 C 0.14717 0.14229 0.84876
 C1480 C 0.16500 0.16011 0.83106
 H1481 H 0.15413 0.08692 0.90609
 H1482 H 0.11843 0.05258 0.94381
 H1483 H 0.05639 0.11818 0.87708
 H1484 H 0.09270 0.15184 0.84005
 C1485 C 0.37324 0.37293 0.87308
 C1486 C 0.36617 0.40120 0.90213
 C1487 C 0.38670 0.42172 0.92296
 C1488 C 0.41467 0.41417 0.91502
 C1489 C 0.42152 0.38569 0.88566
 C1490 C 0.40094 0.36525 0.86489
 C1491 C 0.35209 0.35170 0.85177
 C1492 C 0.33434 0.33388 0.83404
 H1493 H 0.34477 0.40738 0.90870
 H1494 H 0.38065 0.44345 0.94527
 H1495 H 0.44279 0.37915 0.87866
 H1496 H 0.40665 0.34344 0.84245
 C1497 C 0.49804 -0.00064 0.74663
 C1498 C 0.49824 -0.03782 0.76693
 C1499 C 0.49863 -0.03812 0.80781
 C1500 C 0.49885 -0.00112 0.82888
 C1501 C 0.49853 0.03611 0.80809
 C1502 C 0.49814 0.03629 0.76723
 C1503 C 0.49804 -0.00035 0.70463
 C1504 C 0.49821 -0.00011 0.66943
 H1505 H 0.49818 -0.06657 0.75116
 H1506 H 0.49883 -0.06730 0.82283
 H1507 H 0.49866 0.06514 0.82332
 H1508 H 0.49801 0.06522 0.75172
 C1509 C 0.75127 0.24881 0.50387
 C1510 C 0.75128 0.28588 0.48340
 C1511 C 0.75131 0.28598 0.44252
 C1512 C 0.75131 0.24889 0.42159
 C1513 C 0.75145 0.21176 0.44254
 C1514 C 0.75142 0.21178 0.48341
 C1515 C 0.75091 0.24877 0.54587
 C1516 C 0.75052 0.24876 0.58108
 H1517 H 0.75117 0.31471 0.49903
 H1518 H 0.75123 0.31511 0.42738
 H1519 H 0.75149 0.18266 0.42741
 H1520 H 0.75142 0.18292 0.49906
 C1521 C 0.62604 0.12582 0.62767
 C1522 C 0.59846 0.13645 0.63322
 C1523 C 0.57797 0.11775 0.61089
 C1524 C 0.58482 0.08811 0.58261
 C1525 C 0.61269 0.07804 0.57694
 C1526 C 0.63314 0.09680 0.59934
 C1527 C 0.64707 0.14510 0.65068
 C1528 C 0.66476 0.16180 0.66943
 H1529 H 0.59278 0.15905 0.65495
 H1530 H 0.55677 0.12624 0.61610
 H1531 H 0.61873 0.05530 0.55556
 H1532 H 0.65446 0.08851 0.59471
 C1533 C -0.12390 0.37253 0.62031
 C1534 C -0.11691 0.34476 0.64988
 C1535 C -0.13750 0.32524 0.67157
 C1536 C -0.16545 0.33330 0.66400
 C1537 C -0.17222 0.36130 0.63414
 C1538 C -0.15159 0.38075 0.61251
 C1539 C -0.10268 0.39321 0.59852
 C1540 C -0.08489 0.41102 0.58074
 H1541 H -0.09553 0.33825 0.65625
 H1542 H -0.13149 0.30386 0.69424
 H1543 H -0.19347 0.36823 0.62740
 H1544 H -0.15724 0.40228 0.58976
 C1545 C 0.87242 0.12971 0.62357
 C1546 C 0.90003 0.13971 0.62975
 C1547 C 0.92063 0.12000 0.60838
 C1548 C 0.91388 0.08994 0.58049
 C1549 C 0.88598 0.08053 0.57415
 C1550 C 0.86542 0.10030 0.59558
 C1551 C 0.85131 0.14940 0.64620
 C1552 C 0.83361 0.16595 0.66508
 H1553 H 0.90565 0.16251 0.65130
 H1554 H 0.94185 0.12804 0.61407
 H1555 H 0.88001 0.05754 0.55300
 H1556 H 0.84408 0.09241 0.59055
 C1557 C 0.62272 0.37569 0.62347
 C1558 C 0.61556 0.34712 0.65226
 C1559 C 0.63600 0.32802 0.67451
 C1560 C 0.66394 0.33729 0.66821
 C1561 C 0.67084 0.36648 0.63947
 C1562 C 0.65036 0.38551 0.61730
 C1563 C 0.60170 0.39528 0.60053
 C1564 C 0.58407 0.41219 0.58177
 H1565 H 0.59419 0.33945 0.65739
 H1566 H 0.62992 0.30569 0.69628
 H1567 H 0.69209 0.37437 0.63375
 H1568 H 0.65611 0.40773 0.59521
 C1569 C 0.87314 0.12955 0.87595
 C1570 C 0.86632 0.10178 0.90558
 C1571 C 0.88704 0.08187 0.92655
 C1572 C 0.91492 0.08951 0.91811
 C1573 C 0.92152 0.11797 0.88858
 C1574 C 0.90075 0.13781 0.86766
 C1575 C 0.85181 0.14930 0.85382
 C1576 C 0.83394 0.16590 0.83532
 H1577 H 0.84499 0.09526 0.91226
 H1578 H 0.88119 0.06021 0.94907
 H1579 H 0.94273 0.12455 0.88123
 H1580 H 0.90622 0.15933 0.84480
 C1581 C 0.62642 0.37374 0.87299
 C1582 C 0.63354 0.40235 0.90166
 C1583 C 0.61308 0.42130 0.92392
 C1584 C 0.58518 0.41181 0.91775
 C1585 C 0.57831 0.38261 0.88909
 C1586 C 0.59881 0.36373 0.86690
 C1587 C 0.64745 0.35416 0.85019
 C1588 C 0.66509 0.33715 0.83160
 H1589 H 0.65490 0.41013 0.90669
 H1590 H 0.61912 0.44368 0.94562
 H1591 H 0.55708 0.37460 0.88346
 H1592 H 0.59312 0.34146 0.84488
 C1593 C 0.62588 0.12424 0.87429
 C1594 C 0.63290 0.09585 0.90329
 C1595 C 0.61240 0.07644 0.92533
 C1596 C 0.58424 0.08498 0.91876
 C1597 C 0.57760 0.11427 0.88967
 C1598 C 0.59820 0.13354 0.86776
 C1599 C 0.64704 0.14417 0.85150
 C1600 C 0.66476 0.16129 0.83282
 H1601 H 0.65428 0.08854 0.90879
 H1602 H 0.61881 0.05441 0.94723
 H1603 H 0.55644 0.12223 0.88330
 H1604 H 0.59248 0.15564 0.84554
 C1605 C 0.87286 0.37011 0.87567
 C1606 C 0.86580 0.39892 0.90424
 C1607 C 0.88634 0.41904 0.92543
 C1608 C 0.91430 0.41060 0.91830
 C1609 C 0.92113 0.38121 0.88976
 C1610 C 0.90055 0.36116 0.86864
 C1611 C 0.85172 0.34991 0.85343
 C1612 C 0.83398 0.33295 0.83490
 H1613 H 0.84442 0.40605 0.90997
 H1614 H 0.88029 0.44148 0.94709
 H1615 H 0.94239 0.37394 0.88340
 H1616 H 0.90625 0.33887 0.84663
 C1617 C 0.00066 0.49992 0.74823
 C1618 C 0.00068 0.46297 0.76887
 C1619 C 0.00055 0.46288 0.80982
 C1620 C 0.00037 0.50000 0.83114
 C1621 C 0.00047 0.53708 0.80968
 C1622 C 0.00060 0.53692 0.76873
 C1623 C 0.00056 0.49988 0.70601
 C1624 C 0.00039 0.49984 0.67068
 H1625 H 0.00074 0.43411 0.75329
 H1626 H 0.00054 0.43351 0.82457
 H1627 H 0.00038 0.56647 0.82432
 H1628 H 0.00059 0.56575 0.75304
 C1629 C 0.25117 0.75111 0.50307
 C1630 C 0.25117 0.78814 0.48252
 C1631 C 0.25108 0.78814 0.44165
 C1632 C 0.25096 0.75100 0.42080
 C1633 C 0.25109 0.71392 0.44183
 C1634 C 0.25118 0.71403 0.48270
 C1635 C 0.25094 0.75116 0.54508
 C1636 C 0.25063 0.75116 0.58029
 H1637 H 0.25116 0.81700 0.49809
 H1638 H 0.25101 0.81723 0.42644
 H1639 H 0.25103 0.68478 0.42676
 H1640 H 0.25118 0.68521 0.49841
 C1641 C 0.12610 0.62371 0.63041
 C1642 C 0.09839 0.63176 0.63819
 C1643 C 0.07787 0.61225 0.61655
 C1644 C 0.08479 0.58436 0.58671
 C1645 C 0.11276 0.57648 0.57915
 C1646 C 0.13324 0.59606 0.60086
 C1647 C 0.14718 0.64446 0.65221
 C1648 C 0.16488 0.66231 0.66998
 H1649 H 0.09264 0.65321 0.66093
 H1650 H 0.05659 0.61903 0.62327
 H1651 H 0.11886 0.55518 0.55649
 H1652 H 0.15465 0.58971 0.59453
 C1653 C 0.37286 0.87367 0.62654
 C1654 C 0.36585 0.90181 0.59734
 C1655 C 0.38643 0.92221 0.57649
 C1656 C 0.41435 0.91464 0.58463
 C1657 C 0.42113 0.88621 0.61409
 C1658 C 0.40051 0.86589 0.63487
 C1659 C 0.35171 0.85273 0.64797
 C1660 C 0.33397 0.83513 0.66588
 H1661 H 0.34447 0.90801 0.59069
 H1662 H 0.38045 0.94387 0.55405
 H1663 H 0.44238 0.87964 0.62119
 H1664 H 0.40613 0.84413 0.65745
 C1665 C 0.37604 0.62323 0.62285
 C1666 C 0.38313 0.65134 0.65201
 C1667 C 0.36261 0.67199 0.67281
 C1668 C 0.33464 0.66477 0.66470
 C1669 C 0.32777 0.63640 0.63527
 C1670 C 0.34834 0.61582 0.61454
 C1671 C 0.39718 0.60196 0.60148
 C1672 C 0.41492 0.58415 0.58366
 H1673 H 0.40453 0.65730 0.65869
 H1674 H 0.36868 0.69359 0.69520
 H1675 H 0.30651 0.63006 0.62817
 H1676 H 0.34262 0.59412 0.59202
 C1677 C 0.12615 0.87810 0.63014
 C1678 C 0.13314 0.90692 0.60150
 C1679 C 0.11258 0.92619 0.57962
 C1680 C 0.08468 0.91681 0.58609
 C1681 C 0.07791 0.88778 0.61504
 C1682 C 0.09851 0.86858 0.63685
 C1683 C 0.14733 0.85760 0.65204
 C1684 C 0.16507 0.83986 0.66989
 H1685 H 0.15449 0.91443 0.59600
 H1686 H 0.11856 0.94846 0.55772
 H1687 H 0.05669 0.87983 0.62091
 H1688 H 0.09289 0.84622 0.65888
 C1689 C 0.37299 0.62607 0.87247
 C1690 C 0.36596 0.59781 0.90162
 C1691 C 0.38654 0.57741 0.92257
 C1692 C 0.41449 0.58504 0.91465
 C1693 C 0.42130 0.61350 0.88519
 C1694 C 0.40069 0.63383 0.86430
 C1695 C 0.35181 0.64724 0.85105
 C1696 C 0.33406 0.66506 0.83322
 H1697 H 0.34458 0.59156 0.90819
 H1698 H 0.38051 0.55569 0.94494
 H1699 H 0.44255 0.62012 0.87819
 H1700 H 0.40637 0.65563 0.84180
 C1701 C 0.12602 0.87816 0.87009
 C1702 C 0.13289 0.90605 0.89950
 C1703 C 0.11226 0.92549 0.92118
 C1704 C 0.08414 0.91736 0.91386
 C1705 C 0.07765 0.88901 0.88395
 C1706 C 0.09838 0.86971 0.86241
 C1707 C 0.14733 0.85757 0.84830
 C1708 C 0.16513 0.83980 0.83046
 H1709 H 0.15425 0.91274 0.90579
 H1710 H 0.11854 0.94692 0.94363
 H1711 H 0.05652 0.88155 0.87690
 H1712 H 0.09282 0.84807 0.83976
 C1713 C 0.12624 0.62319 0.86925
 C1714 C 0.13330 0.59598 0.89924
 C1715 C 0.11275 0.57661 0.92104
 C1716 C 0.08481 0.58431 0.91312
 C1717 C 0.07798 0.61172 0.88281
 C1718 C 0.09858 0.63102 0.86107
 C1719 C 0.14738 0.64383 0.84746
 C1720 C 0.16510 0.66168 0.82970
 H1721 H 0.15469 0.58983 0.90586
 H1722 H 0.11877 0.55565 0.94406
 H1723 H 0.05672 0.61828 0.87578
 H1724 H 0.09291 0.65213 0.83797
 C1725 C 0.37348 0.87279 0.87311
 C1726 C 0.36658 0.90037 0.90284
 C1727 C 0.38724 0.92043 0.92382
 C1728 C 0.41516 0.91313 0.91534
 C1729 C 0.42184 0.88528 0.88537
 C1730 C 0.40114 0.86529 0.86444
 C1731 C 0.35219 0.85213 0.85156
 C1732 C 0.33434 0.83476 0.83362
 H1733 H 0.34522 0.90639 0.90980
 H1734 H 0.38130 0.94165 0.94663
 H1735 H 0.44307 0.87896 0.87795
 H1736 H 0.40671 0.84400 0.84148
 C1737 C 0.49785 0.49943 0.74663
 C1738 C 0.49791 0.46241 0.76719
 C1739 C 0.49820 0.46244 0.80805
 C1740 C 0.49846 0.49959 0.82887
 C1741 C 0.49828 0.53666 0.80784
 C1742 C 0.49799 0.53652 0.76697
 C1743 C 0.49791 0.49934 0.70465
 C1744 C 0.49813 0.49930 0.66945
 H1745 H 0.49782 0.43354 0.75163
 H1746 H 0.49830 0.43335 0.82327
 H1747 H 0.49844 0.56581 0.82289
 H1748 H 0.49795 0.56533 0.75125
 C1749 C 0.75099 0.75113 0.50314
 C1750 C 0.75097 0.78814 0.48257
 C1751 C 0.75088 0.78812 0.44169
 C1752 C 0.75079 0.75096 0.42086
 C1753 C 0.75093 0.71390 0.44191
 C1754 C 0.75102 0.71404 0.48279
 C1755 C 0.75075 0.75119 0.54515
 C1756 C 0.75045 0.75115 0.58036
 H1757 H 0.75095 0.81702 0.49812
 H1758 H 0.75081 0.81720 0.42647
 H1759 H 0.75089 0.68475 0.42687
 H1760 H 0.75103 0.68523 0.49851
 C1761 C 0.62597 0.62670 0.62710
 C1762 C 0.59828 0.63612 0.63356
 C1763 C 0.57780 0.61696 0.61151
 C1764 C 0.58474 0.58802 0.58260
 C1765 C 0.61270 0.57913 0.57606
 C1766 C 0.63314 0.59836 0.59817
 C1767 C 0.64702 0.64644 0.64989
 C1768 C 0.66471 0.66341 0.66850
 H1769 H 0.59250 0.65815 0.65577
 H1770 H 0.55654 0.62455 0.61744
 H1771 H 0.61883 0.55702 0.55414
 H1772 H 0.65453 0.59098 0.59281
 C1773 C 0.87254 0.87065 0.62322
 C1774 C 0.86552 0.90012 0.59522
 C1775 C 0.88608 0.92011 0.57392
 C1776 C 0.91399 0.91087 0.58039
 C1777 C 0.92077 0.88076 0.60830
 C1778 C 0.90017 0.86084 0.62954
 C1779 C 0.85142 0.85072 0.64571
 C1780 C 0.83370 0.83399 0.66448
 H1781 H 0.84417 0.90788 0.59007
 H1782 H 0.88008 0.94312 0.55276
 H1783 H 0.94200 0.87286 0.61410
 H1784 H 0.90581 0.83800 0.65111
 C1785 C 0.87264 0.63020 0.62359
 C1786 C 0.90029 0.63916 0.63073
 C1787 C 0.92093 0.61905 0.60976
 C1788 C 0.91419 0.58957 0.58130
 C1789 C 0.88626 0.58117 0.57401
 C1790 C 0.86565 0.60136 0.59504
 C1791 C 0.85145 0.65031 0.64581
 C1792 C 0.83370 0.66718 0.66440
 H1793 H 0.90592 0.66149 0.65273
 H1794 H 0.94217 0.62631 0.61620
 H1795 H 0.88028 0.55870 0.55236
 H1796 H 0.84429 0.59424 0.58924
 C1797 C 0.62612 0.87435 0.62747
 C1798 C 0.63320 0.90336 0.59909
 C1799 C 0.61273 0.92219 0.57675
 C1800 C 0.58487 0.91217 0.58257
 C1801 C 0.57804 0.88254 0.61092
 C1802 C 0.59855 0.86378 0.63319
 C1803 C 0.64717 0.85497 0.65036
 C1804 C 0.66486 0.83817 0.66900
 H1805 H 0.65452 0.91158 0.59434
 H1806 H 0.61874 0.94491 0.55530
 H1807 H 0.55684 0.87411 0.61624
 H1808 H 0.59290 0.84118 0.65498
 C1809 C 0.87280 0.63012 0.87574
 C1810 C 0.86574 0.60189 0.90488
 C1811 C 0.88629 0.58191 0.92619
 C1812 C 0.91424 0.58992 0.91858
 C1813 C 0.92107 0.61880 0.88952
 C1814 C 0.90048 0.63871 0.86828
 C1815 C 0.85167 0.65007 0.85328
 C1816 C 0.83396 0.66684 0.83456
 H1817 H 0.84436 0.59510 0.91094
 H1818 H 0.88026 0.55990 0.94831
 H1819 H 0.94232 0.62571 0.88279
 H1820 H 0.90616 0.66057 0.84582
 C1821 C 0.62596 0.87382 0.87421
 C1822 C 0.63293 0.90216 0.90318
 C1823 C 0.61242 0.92111 0.92546
 C1824 C 0.58429 0.91215 0.91913
 C1825 C 0.57771 0.88282 0.89013
 C1826 C 0.59834 0.86401 0.86798
 C1827 C 0.64714 0.85445 0.85116
 C1828 C 0.66487 0.83774 0.83228
 H1829 H 0.65429 0.90980 0.90846
 H1830 H 0.61877 0.94317 0.94731
 H1831 H 0.55658 0.87456 0.88397
 H1832 H 0.59269 0.84190 0.84578
 C1833 C 0.62641 0.62606 0.87280
 C1834 C 0.63352 0.59826 0.90226
 C1835 C 0.61303 0.57932 0.92452
 C1836 C 0.58510 0.58801 0.91757
 C1837 C 0.57822 0.61644 0.88814
 C1838 C 0.59876 0.63530 0.86594
 C1839 C 0.64747 0.64557 0.84993
 C1840 C 0.66513 0.66250 0.83125
 H1841 H 0.65491 0.59107 0.90791
 H1842 H 0.61908 0.55759 0.94686
 H1843 H 0.55697 0.62381 0.88189
 H1844 H 0.59306 0.65694 0.84331
 C1845 C 0.87323 0.87002 0.87542
 C1846 C 0.86637 0.89778 0.90500
 C1847 C 0.88706 0.91765 0.92605
 C1848 C 0.91496 0.91000 0.91777
 C1849 C 0.92161 0.88157 0.88828
 C1850 C 0.90086 0.86177 0.86728
 C1851 C 0.85192 0.85024 0.85322
 C1852 C 0.83406 0.83363 0.83467
 H1853 H 0.84502 0.90431 0.91159
 H1854 H 0.88116 0.93928 0.94853
 H1855 H 0.94282 0.87497 0.88103
 H1856 H 0.90639 0.84027 0.84447
   
