data_POSCAR
  _audit_creation_date              2014-09-24
  _audit_creation_method            'ToBaCCo'
  _symmetry_space_group_name_H-M    'P1'
  _symmetry_Int_Tables_number       1
  _symmetry_cell_setting            triclinic
  loop_
  _symmetry_equiv_pos_as_xyz
 x,y,z
_cell_length_a 59.8187
_cell_length_b 59.8188
_cell_length_c 59.8189
_cell_angle_alpha 90.000200
_cell_angle_beta 90.000000
_cell_angle_gamma 90.000100
loop_
  _atom_site_label
  _atom_site_type_symbol
  _atom_site_fract_x
  _atom_site_fract_y
  _atom_site_fract_z
N1 N 0.35050 1.35041 0.35048
 N2 N 0.35038 0.85041 0.85044
 N3 N 0.85045 1.35050 0.85044
 N4 N 0.85048 0.85044 0.35043
 N5 N 0.64954 0.64950 0.35046
 N6 N 0.64949 0.14950 0.85046
 N7 N 1.14956 0.64958 0.85046
 N8 N 1.14960 0.14960 0.35041
 N9 N 0.64959 1.35037 0.64961
 N10 N 0.64954 0.85049 1.14952
 N11 N 1.14952 1.35052 1.14953
 N12 N 1.14952 0.85046 0.64956
 N13 N 0.35051 0.64953 0.64953
 N14 N 0.35041 0.14954 1.14958
 N15 N 0.85039 0.64958 1.14956
 N16 N 0.85048 0.14957 0.64951
 N17 N 1.35049 0.35040 0.64957
 N18 N 1.35037 0.85044 1.14957
 N19 N 0.85044 0.35049 1.14955
 N20 N 0.85052 0.85045 0.64950
 N21 N 0.64955 0.64956 0.64959
 N22 N 0.64953 1.14949 1.14953
 N23 N 0.14958 0.64958 1.14956
 N24 N 0.14955 1.14957 0.64954
 N25 N 1.35054 0.64950 0.35053
 N26 N 1.35042 1.14955 0.85046
 N27 N 0.85041 0.64956 0.85042
 N28 N 0.85044 1.14960 0.35043
 N29 N 0.64960 0.35040 0.35043
 N30 N 0.64951 0.85047 0.85045
 N31 N 0.14954 0.35050 0.85048
 N32 N 0.14955 0.85045 0.35040
 O33 O 0.97808 0.91932 0.88864
 O34 O 0.97804 0.89332 0.86250
 C35 C 0.97045 0.91151 0.87043
 C36 C 0.95221 0.92348 0.85869
 C37 C 0.94465 0.91618 0.83768
 H38 H 0.95275 0.90206 0.82975
 O39 O 1.02183 1.08077 0.88865
 O40 O 1.02187 1.10677 0.86251
 C41 C 1.02946 1.08858 0.87043
 C42 C 1.04770 1.07661 0.85869
 C43 C 1.05526 1.08392 0.83769
 H44 H 1.04717 1.09804 0.82976
 O45 O 0.88863 0.97832 0.91926
 O46 O 0.86249 0.97832 0.89326
 C47 C 0.87041 0.97070 0.91144
 C48 C 0.85865 0.95246 0.92339
 C49 C 0.83765 0.94493 0.91606
 H50 H 0.82973 0.95305 0.90195
 O51 O 1.11127 1.02177 0.91928
 O52 O 1.13741 1.02177 0.89328
 C53 C 1.12949 1.02938 0.91146
 C54 C 1.14125 1.04762 0.92340
 C55 C 1.16226 1.05514 0.91608
 H56 H 1.17017 1.04702 0.90196
 O57 O 0.91916 0.88876 0.97815
 O58 O 0.89313 0.86265 0.97813
 C59 C 0.91133 0.87056 0.97052
 C60 C 0.92326 0.85880 0.95227
 C61 C 0.91592 0.83780 0.94474
 H62 H 0.90181 0.82989 0.95286
 O63 O 1.08079 1.11132 0.97819
 O64 O 1.10681 1.13744 0.97816
 C65 C 1.08861 1.12953 0.97056
 C66 C 1.07667 1.14128 0.95230
 C67 C 1.08399 1.16228 0.94476
 H68 H 1.09810 1.17021 0.95286
 O69 O 0.91927 1.02191 0.88864
 O70 O 0.89328 1.02196 0.86250
 C71 C 0.91147 1.02955 0.87043
 C72 C 0.92343 1.04780 0.85869
 C73 C 0.91613 1.05535 0.83769
 H74 H 0.90202 1.04725 0.82975
 O75 O 1.08062 0.97817 0.88866
 O76 O 1.10661 0.97814 0.86252
 C77 C 1.08842 0.97054 0.87045
 C78 C 1.07647 0.95229 0.85871
 C79 C 1.08379 0.94476 0.83770
 H80 H 1.09790 0.95287 0.82978
 O81 O 1.02168 0.88868 0.91927
 O82 O 1.02168 0.86254 0.89327
 C83 C 1.02930 0.87047 0.91145
 C84 C 1.04756 0.85872 0.92339
 C85 C 1.05509 0.83772 0.91606
 H86 H 1.04696 0.82980 0.90195
 O87 O 0.97824 1.11142 0.91927
 O88 O 0.97824 1.13756 0.89328
 C89 C 0.97062 1.12963 0.91146
 C90 C 0.95237 1.14138 0.92341
 C91 C 0.94482 1.16238 0.91610
 H92 H 0.95293 1.17032 0.90199
 O93 O 0.88872 1.08081 0.97819
 O94 O 0.86259 1.10682 0.97818
 C95 C 0.87051 1.08863 0.97056
 C96 C 0.85876 1.07670 0.95231
 C97 C 0.83775 1.08402 0.94479
 H98 H 0.82983 1.09813 0.95292
 O99 O 1.11126 0.91924 0.97817
 O100 O 1.13739 0.89324 0.97814
 C101 C 1.12947 0.91142 0.97053
 C102 C 1.14121 0.92337 0.95228
 C103 C 1.16221 0.91606 0.94473
 H104 H 1.17015 0.90195 0.95283
 O105 O 0.97822 1.08078 0.88867
 O106 O 0.97822 1.10678 0.86254
 C107 C 0.97060 1.08860 0.87046
 C108 C 0.95234 1.07667 0.85871
 C109 C 0.94481 1.08399 0.83771
 H110 H 0.95295 1.09809 0.82979
 O111 O 1.02169 0.91928 0.88864
 O112 O 1.02170 0.89329 0.86249
 C113 C 1.02932 0.91147 0.87042
 C114 C 1.04758 0.92341 0.85869
 C115 C 1.05513 0.91609 0.83768
 H116 H 1.04702 0.90198 0.82975
 O117 O 1.11125 0.97816 0.91927
 O118 O 1.13738 0.97812 0.89327
 C119 C 1.12946 0.97052 0.91145
 C120 C 1.14120 0.95227 0.92340
 C121 C 1.16220 0.94473 0.91608
 H122 H 1.17012 0.95285 0.90197
 O123 O 0.88866 1.02193 0.91926
 O124 O 0.86252 1.02197 0.89326
 C125 C 0.87045 1.02957 0.91145
 C126 C 0.85872 1.04783 0.92341
 C127 C 0.83772 1.05538 0.91611
 H128 H 0.82977 1.04728 0.90200
 O129 O 0.91936 1.11141 0.97818
 O130 O 0.89337 1.13756 0.97817
 C131 C 0.91155 1.12962 0.97056
 C132 C 0.92350 1.14137 0.95231
 C133 C 0.91618 1.16237 0.94477
 H134 H 0.90207 1.17029 0.95290
 O135 O 1.08062 0.88864 0.97815
 O136 O 1.10661 0.86249 0.97812
 C137 C 1.08842 0.87043 0.97052
 C138 C 1.07647 0.85870 0.95226
 C139 C 1.08378 0.83770 0.94470
 H140 H 1.09789 0.82977 0.95280
 O141 O 1.08066 1.02179 0.88865
 O142 O 1.10665 1.02179 0.86251
 C143 C 1.08847 1.02941 0.87044
 C144 C 1.07655 1.04768 0.85870
 C145 C 1.08388 1.05521 0.83770
 H146 H 1.09798 1.04707 0.82977
 O147 O 0.91925 0.97830 0.88864
 O148 O 0.89325 0.97830 0.86250
 C149 C 0.91143 0.97068 0.87043
 C150 C 0.92335 0.95241 0.85869
 C151 C 0.91603 0.94488 0.83768
 H152 H 0.90194 0.95302 0.82976
 O153 O 1.02186 1.11135 0.91930
 O154 O 1.02189 1.13750 0.89331
 C155 C 1.02950 1.12956 0.91149
 C156 C 1.04776 1.14129 0.92343
 C157 C 1.05530 1.16229 0.91612
 H158 H 1.04718 1.17022 0.90202
 O159 O 0.97806 0.88869 0.91925
 O160 O 0.97802 0.86255 0.89325
 C161 C 0.97042 0.87048 0.91144
 C162 C 0.95215 0.85876 0.92338
 C163 C 0.94458 0.83776 0.91608
 H164 H 0.95269 0.82981 0.90197
 O165 O 1.11137 1.08067 0.97819
 O166 O 1.13754 1.10664 0.97817
 C167 C 1.12959 1.08846 0.97056
 C168 C 1.14131 1.07651 0.95230
 C169 C 1.16231 1.08380 0.94473
 H170 H 1.17026 1.09791 0.95284
 O171 O 0.88856 0.91940 0.97816
 O172 O 0.86240 0.89344 0.97814
 C173 C 0.87034 0.91161 0.97053
 C174 C 0.85862 0.92357 0.95227
 C175 C 0.83761 0.91627 0.94472
 H176 H 0.82967 0.90216 0.95282
 Cu177 Cu 0.99988 0.90659 0.90655
 Cu178 Cu 0.99986 0.87530 0.87526
 Cu179 Cu 1.00003 1.09347 0.90658
 Cu180 Cu 1.00006 1.12477 0.87529
 Cu181 Cu 0.90656 1.00011 0.90655
 Cu182 Cu 0.87526 1.00014 0.87526
 Cu183 Cu 1.09334 0.99997 0.90657
 Cu184 Cu 1.12463 0.99995 0.87527
 C185 C 0.94158 0.94173 0.86894
 H186 H 0.94712 0.94726 0.88527
 C187 C 0.92657 0.92677 0.82701
 C188 C 1.05833 1.05836 0.86894
 H189 H 1.05278 1.05283 0.88527
 C190 C 1.07335 1.07333 0.82702
 C191 C 0.86888 0.94180 0.94163
 H192 H 0.88521 0.94733 0.94717
 C193 C 0.82695 0.92684 0.92662
 C194 C 1.13103 1.05828 0.94165
 H195 H 1.11470 1.05276 0.94720
 C196 C 1.17296 1.07323 0.92663
 C197 C 0.94151 0.86903 0.94162
 H198 H 0.94706 0.88535 0.94715
 C199 C 0.92648 0.82710 0.92665
 C200 C 1.05842 1.13103 0.94166
 H201 H 1.05288 1.11470 0.94720
 C202 C 1.07341 1.17296 0.92667
 C203 C 0.94167 1.05843 0.86895
 H204 H 0.94720 1.05289 0.88528
 C205 C 0.92671 1.07344 0.82702
 C206 C 1.05823 0.94164 0.86894
 H207 H 1.05269 0.94718 0.88527
 C208 C 1.07323 0.92666 0.82702
 C209 C 1.05822 0.86896 0.94163
 H210 H 1.05269 0.88529 0.94717
 C211 C 1.07320 0.82703 0.92660
 C212 C 0.94173 1.13112 0.94165
 H213 H 0.94727 1.11479 0.94718
 C214 C 0.92673 1.17305 0.92667
 C215 C 0.86899 1.05846 0.94164
 H216 H 0.88532 1.05292 0.94717
 C217 C 0.82705 1.07347 0.92669
 C218 C 1.13096 0.94161 0.94164
 H219 H 1.11463 0.94715 0.94718
 C220 C 1.17288 0.92663 0.92663
 O221 O 1.02172 0.91924 1.11127
 O222 O 1.02172 0.89324 1.13741
 C223 C 1.02934 0.91142 1.12948
 C224 C 1.04759 0.92336 1.14123
 C225 C 1.05513 0.91603 1.16223
 H226 H 1.04701 0.90191 1.17015
 O227 O 0.97824 1.08081 1.11132
 O228 O 0.97823 1.10680 1.13746
 C229 C 0.97061 1.08862 1.12953
 C230 C 0.95236 1.07668 1.14127
 C231 C 0.94480 1.08399 1.16227
 H232 H 0.95291 1.09810 1.17020
 O233 O 0.88871 1.02190 1.08071
 O234 O 0.86257 1.02194 1.10671
 C235 C 0.87050 1.02954 1.08853
 C236 C 0.85877 1.04780 1.07658
 C237 C 0.83776 1.05535 1.08389
 H238 H 0.82982 1.04724 1.09799
 O239 O 1.11124 0.97814 1.08071
 O240 O 1.13737 0.97810 1.10670
 C241 C 1.12944 0.97050 1.08852
 C242 C 1.14118 0.95225 1.07657
 C243 C 1.16218 0.94470 1.08389
 H244 H 1.17010 0.95281 1.09800
 O245 O 1.08062 0.88863 1.02176
 O246 O 1.10660 0.86248 1.02178
 C247 C 1.08842 0.87041 1.02939
 C248 C 1.07647 0.85867 1.04764
 C249 C 1.08380 0.83767 1.05518
 H250 H 1.09791 0.82975 1.04706
 O251 O 0.91936 1.11141 1.02179
 O252 O 0.89337 1.13756 1.02182
 C253 C 0.91156 1.12963 1.02942
 C254 C 0.92350 1.14137 1.04767
 C255 C 0.91619 1.16238 1.05521
 H256 H 0.90208 1.17030 1.04709
 O257 O 0.91930 0.97826 1.11131
 O258 O 0.89331 0.97826 1.13746
 C259 C 0.91148 0.97064 1.12952
 C260 C 0.92341 0.95236 1.14126
 C261 C 0.91608 0.94483 1.16226
 H262 H 0.90199 0.95297 1.17019
 O263 O 1.08066 1.02178 1.11135
 O264 O 1.10666 1.02177 1.13749
 C265 C 1.08848 1.02940 1.12956
 C266 C 1.07656 1.04767 1.14130
 C267 C 1.08388 1.05522 1.16230
 H268 H 1.09798 1.04710 1.17023
 O269 O 0.97809 0.88865 1.08065
 O270 O 0.97805 0.86250 1.10664
 C271 C 0.97044 0.87044 1.08846
 C272 C 0.95217 0.85873 1.07652
 C273 C 0.94460 0.83773 1.08382
 H274 H 0.95271 0.82978 1.09792
 O275 O 1.02187 1.11140 1.08071
 O276 O 1.02191 1.13754 1.10670
 C277 C 1.02952 1.12960 1.08852
 C278 C 1.04778 1.14132 1.07657
 C279 C 1.05535 1.16233 1.08387
 H280 H 1.04724 1.17027 1.09798
 O281 O 0.88858 0.91940 1.02177
 O282 O 0.86241 0.89343 1.02180
 C283 C 0.87036 0.91161 1.02941
 C284 C 0.85864 0.92356 1.04767
 C285 C 0.83764 0.91627 1.05523
 H286 H 0.82968 0.90217 1.04713
 O287 O 1.11136 1.08067 1.02180
 O288 O 1.13753 1.10664 1.02183
 C289 C 1.12958 1.08847 1.02944
 C290 C 1.14130 1.07651 1.04770
 C291 C 1.16230 1.08381 1.05527
 H292 H 1.17025 1.09791 1.04717
 O293 O 1.02184 1.08077 1.11131
 O294 O 1.02188 1.10676 1.13745
 C295 C 1.02948 1.08857 1.12952
 C296 C 1.04771 1.07660 1.14127
 C297 C 1.05526 1.08392 1.16227
 H298 H 1.04716 1.09804 1.17019
 O299 O 0.97811 0.91925 1.11128
 O300 O 0.97807 0.89325 1.13742
 C301 C 0.97048 0.91145 1.12950
 C302 C 0.95224 0.92341 1.14124
 C303 C 0.94469 0.91611 1.16225
 H304 H 0.95277 0.90198 1.17017
 O305 O 1.11127 1.02176 1.08072
 O306 O 1.13741 1.02175 1.10672
 C307 C 1.12949 1.02937 1.08853
 C308 C 1.14125 1.04762 1.07659
 C309 C 1.16225 1.05514 1.08393
 H310 H 1.17016 1.04702 1.09804
 O311 O 0.88868 0.97829 1.08070
 O312 O 0.86255 0.97829 1.10670
 C313 C 0.87046 0.97068 1.08851
 C314 C 0.85870 0.95245 1.07657
 C315 C 0.83769 0.94492 1.08390
 H316 H 0.82979 0.95304 1.09801
 O317 O 1.08078 1.11132 1.02180
 O318 O 1.10680 1.13743 1.02182
 C319 C 1.08860 1.12952 1.02942
 C320 C 1.07667 1.14128 1.04767
 C321 C 1.08400 1.16228 1.05520
 H322 H 1.09811 1.17019 1.04708
 O323 O 0.91916 0.88875 1.02176
 O324 O 0.89313 0.86264 1.02179
 C325 C 0.91133 0.87054 1.02939
 C326 C 0.92327 0.85878 1.04763
 C327 C 0.91593 0.83778 1.05517
 H328 H 0.90181 0.82988 1.04705
 O329 O 1.08062 0.97816 1.11133
 O330 O 1.10662 0.97811 1.13747
 C331 C 1.08843 0.97051 1.12954
 C332 C 1.07648 0.95225 1.14127
 C333 C 1.08379 0.94469 1.16227
 H334 H 1.09790 0.95280 1.17021
 O335 O 0.91934 1.02188 1.11131
 O336 O 0.89335 1.02192 1.13746
 C337 C 0.91153 1.02952 1.12953
 C338 C 0.92348 1.04777 1.14127
 C339 C 0.91616 1.05531 1.16227
 H340 H 0.90206 1.04719 1.17019
 O341 O 0.97826 1.11143 1.08070
 O342 O 0.97825 1.13757 1.10670
 C343 C 0.97064 1.12964 1.08851
 C344 C 0.95239 1.14138 1.07657
 C345 C 0.94484 1.16239 1.08388
 H346 H 0.95295 1.17032 1.09799
 O347 O 1.02170 0.88861 1.08067
 O348 O 1.02171 0.86246 1.10665
 C349 C 1.02933 0.87039 1.08847
 C350 C 1.04758 0.85865 1.07653
 C351 C 1.05514 0.83765 1.08384
 H352 H 1.04704 0.82972 1.09796
 O353 O 1.11125 0.91923 1.02178
 O354 O 1.13738 0.89323 1.02180
 C355 C 1.12945 0.91142 1.02941
 C356 C 1.14119 0.92335 1.04768
 C357 C 1.16219 0.91603 1.05523
 H358 H 1.17012 0.90192 1.04713
 O359 O 0.88874 1.08080 1.02180
 O360 O 0.86261 1.10681 1.02182
 C361 C 0.87053 1.08862 1.02943
 C362 C 0.85878 1.07668 1.04768
 C363 C 0.83778 1.08400 1.05521
 H364 H 0.82986 1.09811 1.04709
 Cu365 Cu 0.99991 0.90654 1.09336
 Cu366 Cu 0.99988 0.87524 1.12465
 Cu367 Cu 1.00005 1.09350 1.09340
 Cu368 Cu 1.00007 1.12479 1.12470
 Cu369 Cu 0.90647 0.90668 0.99996
 Cu370 Cu 0.87514 0.87542 0.99996
 Cu371 Cu 1.09333 0.90654 0.99997
 Cu372 Cu 1.12461 0.87524 0.99996
 Cu373 Cu 0.90665 1.09350 0.99999
 Cu374 Cu 0.87537 1.12481 1.00000
 Cu375 Cu 1.09347 1.09339 0.99999
 Cu376 Cu 1.12479 1.12465 0.99999
 Cu377 Cu 0.90661 1.00008 1.09341
 Cu378 Cu 0.87533 1.00011 1.12470
 Cu379 Cu 1.09334 0.99996 1.09342
 Cu380 Cu 1.12463 0.99993 1.12472
 C381 C 1.05824 0.94161 1.13100
 H382 H 1.05271 0.94715 1.11467
 C383 C 1.07322 0.92658 1.17292
 C384 C 0.94172 1.05843 1.13102
 H385 H 0.94725 1.05290 1.11469
 C386 C 0.92671 1.07342 1.17295
 C387 C 0.86903 1.05844 1.05834
 H388 H 0.88536 1.05290 1.05281
 C389 C 0.82709 1.07344 1.07331
 C390 C 1.13094 0.94160 1.05832
 H391 H 1.11461 0.94714 1.05278
 C392 C 1.17286 0.92660 1.07334
 C393 C 1.05823 0.86891 1.05829
 H394 H 1.05268 0.88523 1.05275
 C395 C 1.07324 0.82699 1.07328
 C396 C 0.94174 1.13113 1.05833
 H397 H 0.94728 1.11480 1.05279
 C398 C 0.92674 1.17306 1.07331
 C399 C 0.94162 0.94168 1.13100
 H400 H 0.94717 0.94721 1.11467
 C401 C 0.92661 0.92670 1.17293
 C402 C 1.05834 1.05834 1.13104
 H403 H 1.05280 1.05281 1.11471
 C404 C 1.07334 1.07334 1.17296
 C405 C 0.94152 0.86900 1.05828
 H406 H 0.94708 0.88533 1.05276
 C407 C 0.92649 0.82708 1.07326
 C408 C 1.05842 1.13105 1.05833
 H409 H 1.05287 1.11473 1.05281
 C410 C 1.07345 1.17298 1.07329
 C411 C 0.86892 0.94179 1.05832
 H412 H 0.88525 0.94731 1.05277
 C413 C 0.82699 0.92684 1.07334
 C414 C 1.13102 1.05828 1.05834
 H415 H 1.11470 1.05275 1.05279
 C416 C 1.17295 1.07324 1.07338
 O417 O 0.97812 0.41931 0.38871
 O418 O 0.97807 0.39331 0.36257
 C419 C 0.97048 0.41150 0.37050
 C420 C 0.95223 0.42346 0.35876
 C421 C 0.94469 0.41614 0.33776
 H422 H 0.95280 0.40202 0.32984
 O423 O 1.02183 0.58070 0.38867
 O424 O 1.02185 0.60670 0.36253
 C425 C 1.02945 0.58851 0.37045
 C426 C 1.04769 0.57656 0.35870
 C427 C 1.05522 0.58388 0.33770
 H428 H 1.04711 0.59799 0.32978
 O429 O 0.88862 0.47828 0.41930
 O430 O 0.86247 0.47827 0.39332
 C431 C 0.87040 0.47066 0.41150
 C432 C 0.85866 0.45241 0.42345
 C433 C 0.83766 0.44485 0.41614
 H434 H 0.82973 0.45295 0.40203
 O435 O 1.11133 0.52176 0.41923
 O436 O 1.13745 0.52176 0.39322
 C437 C 1.12954 0.52937 0.41141
 C438 C 1.14130 0.54762 0.42334
 C439 C 1.16231 0.55514 0.41602
 H440 H 1.17022 0.54702 0.40191
 O441 O 0.91920 0.38874 0.47824
 O442 O 0.89319 0.36261 0.47823
 C443 C 0.91138 0.37052 0.47061
 C444 C 0.92332 0.35878 0.45236
 C445 C 0.91599 0.33777 0.44481
 H446 H 0.90188 0.32985 0.45291
 O447 O 1.08079 0.61128 0.47816
 O448 O 1.10680 0.63741 0.47813
 C449 C 1.08861 0.62949 0.47053
 C450 C 1.07666 0.64124 0.45229
 C451 C 1.08398 0.66225 0.44475
 H452 H 1.09810 0.67016 0.45287
 O453 O 0.91926 0.52187 0.38867
 O454 O 0.89326 0.52191 0.36254
 C455 C 0.91145 0.52951 0.37046
 C456 C 0.92340 0.54776 0.35873
 C457 C 0.91608 0.55532 0.33773
 H458 H 0.90197 0.54723 0.32980
 O459 O 1.08068 0.47816 0.38863
 O460 O 1.10665 0.47812 0.36247
 C461 C 1.08847 0.47052 0.37041
 C462 C 1.07651 0.45228 0.35868
 C463 C 1.08380 0.44472 0.33768
 H464 H 1.09791 0.45282 0.32973
 O465 O 1.02173 0.38866 0.41929
 O466 O 1.02173 0.36252 0.39330
 C467 C 1.02935 0.37044 0.41148
 C468 C 1.04761 0.35870 0.42341
 C469 C 1.05515 0.33769 0.41609
 H470 H 1.04704 0.32976 0.40198
 O471 O 0.97825 0.61134 0.41931
 O472 O 0.97824 0.63748 0.39332
 C473 C 0.97063 0.62956 0.41151
 C474 C 0.95240 0.64131 0.42346
 C475 C 0.94487 0.66232 0.41614
 H476 H 0.95299 0.67023 0.40202
 O477 O 0.88874 0.58078 0.47824
 O478 O 0.86263 0.60680 0.47823
 C479 C 0.87054 0.58861 0.47062
 C480 C 0.85878 0.57668 0.45237
 C481 C 0.83778 0.58401 0.44484
 H482 H 0.82986 0.59812 0.45297
 O483 O 1.11133 0.41924 0.47814
 O484 O 1.13745 0.39322 0.47810
 C485 C 1.12953 0.41141 0.47049
 C486 C 1.14127 0.42335 0.45223
 C487 C 1.16227 0.41603 0.44467
 H488 H 1.17020 0.40192 0.45278
 O489 O 0.97822 0.58073 0.38868
 O490 O 0.97820 0.60673 0.36255
 C491 C 0.97058 0.58855 0.37048
 C492 C 0.95232 0.57663 0.35874
 C493 C 0.94478 0.58396 0.33774
 H494 H 0.95290 0.59806 0.32982
 O495 O 1.02173 0.41929 0.38869
 O496 O 1.02172 0.39329 0.36256
 C497 C 1.02934 0.41147 0.37048
 C498 C 1.04759 0.42341 0.35872
 C499 C 1.05511 0.41608 0.33771
 H500 H 1.04698 0.40198 0.32979
 O501 O 1.11131 0.47814 0.41923
 O502 O 1.13743 0.47811 0.39322
 C503 C 1.12951 0.47050 0.41140
 C504 C 1.14125 0.45225 0.42334
 C505 C 1.16225 0.44470 0.41602
 H506 H 1.17017 0.45282 0.40191
 O507 O 0.88867 0.52189 0.41931
 O508 O 0.86251 0.52193 0.39333
 C509 C 0.87045 0.52954 0.41151
 C510 C 0.85874 0.54780 0.42346
 C511 C 0.83773 0.55536 0.41616
 H512 H 0.82979 0.54726 0.40206
 O513 O 0.91936 0.61140 0.47824
 O514 O 0.89339 0.63756 0.47823
 C515 C 0.91156 0.62962 0.47061
 C516 C 0.92351 0.64135 0.45235
 C517 C 0.91621 0.66236 0.44480
 H518 H 0.90211 0.67030 0.45291
 O519 O 1.08068 0.38866 0.47816
 O520 O 1.10665 0.36250 0.47813
 C521 C 1.08847 0.37044 0.47053
 C522 C 1.07651 0.35870 0.45229
 C523 C 1.08382 0.33770 0.44475
 H524 H 1.09793 0.32977 0.45286
 O525 O 1.08071 0.52177 0.38861
 O526 O 1.10669 0.52178 0.36246
 C527 C 1.08852 0.52940 0.37040
 C528 C 1.07657 0.54766 0.35867
 C529 C 1.08388 0.55521 0.33766
 H530 H 1.09798 0.54710 0.32972
 O531 O 0.91924 0.47826 0.38868
 O532 O 0.89324 0.47825 0.36255
 C533 C 0.91142 0.47063 0.37048
 C534 C 0.92335 0.45236 0.35874
 C535 C 0.91603 0.44481 0.33774
 H536 H 0.90193 0.45292 0.32980
 O537 O 1.02187 0.61133 0.41927
 O538 O 1.02189 0.63747 0.39328
 C539 C 1.02950 0.62954 0.41146
 C540 C 1.04777 0.64127 0.42340
 C541 C 1.05532 0.66227 0.41609
 H542 H 1.04721 0.67021 0.40199
 O543 O 0.97812 0.38871 0.41934
 O544 O 0.97807 0.36256 0.39335
 C545 C 0.97047 0.37050 0.41153
 C546 C 0.95222 0.35877 0.42348
 C547 C 0.94467 0.33777 0.41616
 H548 H 0.95279 0.32984 0.40206
 O549 O 1.11141 0.58067 0.47814
 O550 O 1.13756 0.60665 0.47810
 C551 C 1.12962 0.58847 0.47049
 C552 C 1.14134 0.57652 0.45223
 C553 C 1.16235 0.58381 0.44467
 H554 H 1.17029 0.59792 0.45278
 O555 O 0.88863 0.41940 0.47824
 O556 O 0.86248 0.39342 0.47824
 C557 C 0.87041 0.41160 0.47062
 C558 C 0.85867 0.42354 0.45236
 C559 C 0.83767 0.41622 0.44483
 H560 H 0.82975 0.40211 0.45295
 Cu561 Cu 0.99993 0.40660 0.40661
 Cu562 Cu 0.99989 0.37530 0.37532
 Cu563 Cu 1.00004 0.59342 0.40659
 Cu564 Cu 1.00005 0.62472 0.37530
 Cu565 Cu 0.90655 0.50007 0.40659
 Cu566 Cu 0.87525 0.50009 0.37531
 Cu567 Cu 1.09340 0.49996 0.40653
 Cu568 Cu 1.12468 0.49994 0.37522
 C569 C 0.94159 0.44171 0.36900
 H570 H 0.94712 0.44725 0.38533
 C571 C 0.92659 0.42670 0.32707
 C572 C 1.05834 0.55831 0.36893
 H573 H 1.05281 0.55277 0.38526
 C574 C 1.07331 0.57332 0.32700
 C575 C 0.86892 0.44177 0.44170
 H576 H 0.88524 0.44731 0.44723
 C577 C 0.82699 0.42676 0.42672
 C578 C 1.13107 0.55828 0.44159
 H579 H 1.11474 0.55276 0.44713
 C580 C 1.17301 0.57323 0.42657
 C581 C 0.94156 0.36902 0.44171
 H582 H 0.94711 0.38535 0.44725
 C583 C 0.92656 0.32710 0.42671
 C584 C 1.05841 0.63101 0.44164
 H585 H 1.05287 0.61468 0.44717
 C586 C 1.07343 0.67293 0.42666
 C587 C 0.94165 0.55839 0.36898
 H588 H 0.94719 0.55284 0.38530
 C589 C 0.92667 0.57342 0.32706
 C590 C 1.05827 0.44164 0.36895
 H591 H 1.05275 0.44718 0.38529
 C592 C 1.07321 0.42663 0.32701
 C593 C 1.05826 0.36895 0.44165
 H594 H 1.05273 0.38527 0.44719
 C595 C 1.07326 0.32702 0.42665
 C596 C 0.94174 0.63108 0.44170
 H597 H 0.94727 0.61475 0.44724
 C598 C 0.92678 0.67302 0.42669
 C599 C 0.86901 0.55844 0.44170
 H600 H 0.88534 0.55289 0.44722
 C601 C 0.82708 0.57346 0.42674
 C602 C 1.13101 0.44159 0.44159
 H603 H 1.11469 0.44713 0.44713
 C604 C 1.17293 0.42660 0.42657
 O605 O 1.02184 0.41930 0.61133
 O606 O 1.02186 0.39330 0.63747
 C607 C 1.02948 0.41148 0.62954
 C608 C 1.04775 0.42341 0.64126
 C609 C 1.05530 0.41610 0.66227
 H610 H 1.04718 0.40200 0.67021
 O611 O 0.97834 0.58068 0.61135
 O612 O 0.97835 0.60668 0.63749
 C613 C 0.97072 0.58850 0.62957
 C614 C 0.95246 0.57658 0.64131
 C615 C 0.94493 0.58391 0.66232
 H616 H 0.95307 0.59801 0.67024
 O617 O 0.88870 0.52189 0.58077
 O618 O 0.86258 0.52193 0.60678
 C619 C 0.87050 0.52954 0.58859
 C620 C 0.85877 0.54780 0.57665
 C621 C 0.83777 0.55536 0.58396
 H622 H 0.82984 0.54726 0.59807
 O623 O 1.11144 0.47813 0.58066
 O624 O 1.13760 0.47810 0.60664
 C625 C 1.12966 0.47049 0.58846
 C626 C 1.14138 0.45223 0.57651
 C627 C 1.16238 0.44467 0.58381
 H628 H 1.17032 0.45277 0.59792
 O629 O 1.08072 0.38865 0.52177
 O630 O 1.10669 0.36249 0.52178
 C631 C 1.08852 0.37044 0.52940
 C632 C 1.07657 0.35871 0.54766
 C633 C 1.08387 0.33770 0.55522
 H634 H 1.09798 0.32976 0.54711
 O635 O 0.91940 0.61137 0.52185
 O636 O 0.89343 0.63753 0.52189
 C637 C 0.91161 0.62959 0.52949
 C638 C 0.92357 0.64131 0.54774
 C639 C 0.91628 0.66232 0.55530
 H640 H 0.90217 0.67026 0.54720
 O641 O 0.91931 0.47826 0.61137
 O642 O 0.89333 0.47825 0.63752
 C643 C 0.91150 0.47063 0.62958
 C644 C 0.92345 0.45237 0.64131
 C645 C 0.91615 0.44482 0.66232
 H646 H 0.90204 0.45292 0.67026
 O647 O 1.08085 0.52175 0.61128
 O648 O 1.10686 0.52176 0.63741
 C649 C 1.08868 0.52938 0.62950
 C650 C 1.07674 0.54763 0.64125
 C651 C 1.08407 0.55516 0.66225
 H652 H 1.09818 0.54704 0.67016
 O653 O 0.97819 0.38871 0.58073
 O654 O 0.97817 0.36257 0.60672
 C655 C 0.97055 0.37051 0.58854
 C656 C 0.95228 0.35878 0.57660
 C657 C 0.94473 0.33778 0.58391
 H658 H 0.95284 0.32983 0.59801
 O659 O 1.02195 0.61127 0.58071
 O660 O 1.02200 0.63741 0.60670
 C661 C 1.02959 0.62948 0.58851
 C662 C 1.04784 0.64122 0.57656
 C663 C 1.05538 0.66222 0.58388
 H664 H 1.04726 0.67014 0.59799
 O665 O 0.88861 0.41937 0.52186
 O666 O 0.86246 0.39339 0.52189
 C667 C 0.87040 0.41157 0.52950
 C668 C 0.85867 0.42352 0.54776
 C669 C 0.83768 0.41620 0.55533
 H670 H 0.82974 0.40209 0.54723
 O671 O 1.11142 0.58064 0.52175
 O672 O 1.13758 0.60663 0.52175
 C673 C 1.12965 0.58845 0.52936
 C674 C 1.14139 0.57650 0.54761
 C675 C 1.16240 0.58381 0.55514
 H676 H 1.17032 0.59792 0.54701
 O677 O 1.02195 0.58067 0.61134
 O678 O 1.02200 0.60666 0.63748
 C679 C 1.02960 0.58848 0.62955
 C680 C 1.04786 0.57653 0.64128
 C681 C 1.05542 0.58383 0.66228
 H682 H 1.04731 0.59794 0.67022
 O683 O 0.97822 0.41935 0.61133
 O684 O 0.97820 0.39335 0.63747
 C685 C 0.97060 0.41154 0.62954
 C686 C 0.95235 0.42349 0.64129
 C687 C 0.94482 0.41617 0.66230
 H688 H 0.95294 0.40206 0.67022
 O689 O 1.11145 0.52174 0.58065
 O690 O 1.13761 0.52175 0.60664
 C691 C 1.12967 0.52936 0.58846
 C692 C 1.14141 0.54762 0.57651
 C693 C 1.16242 0.55516 0.58381
 H694 H 1.17036 0.54706 0.59792
 O695 O 0.88868 0.47828 0.58076
 O696 O 0.86255 0.47827 0.60677
 C697 C 0.87047 0.47066 0.58859
 C698 C 0.85871 0.45241 0.57665
 C699 C 0.83771 0.44487 0.58399
 H700 H 0.82980 0.45299 0.59810
 O701 O 1.08084 0.61129 0.52177
 O702 O 1.10684 0.63742 0.52178
 C703 C 1.08866 0.62950 0.52940
 C704 C 1.07673 0.64123 0.54767
 C705 C 1.08404 0.66224 0.55521
 H706 H 1.09814 0.67017 0.54710
 O707 O 0.91925 0.38878 0.52185
 O708 O 0.89324 0.36265 0.52188
 C709 C 0.91144 0.37057 0.52948
 C710 C 0.92338 0.35882 0.54772
 C711 C 0.91606 0.33781 0.55525
 H712 H 0.90195 0.32990 0.54714
 O713 O 1.08082 0.47815 0.61127
 O714 O 1.10682 0.47811 0.63740
 C715 C 1.08863 0.47051 0.62948
 C716 C 1.07667 0.45227 0.64123
 C717 C 1.08399 0.44474 0.66223
 H718 H 1.09811 0.45284 0.67015
 O719 O 0.91934 0.52187 0.61137
 O720 O 0.89336 0.52191 0.63753
 C721 C 0.91155 0.52950 0.62959
 C722 C 0.92352 0.54774 0.64133
 C723 C 0.91622 0.55530 0.66233
 H724 H 0.90209 0.54721 0.67026
 O725 O 0.97834 0.61130 0.58074
 O726 O 0.97835 0.63744 0.60673
 C727 C 0.97073 0.62952 0.58855
 C728 C 0.95248 0.64127 0.57662
 C729 C 0.94495 0.66228 0.58394
 H730 H 0.95308 0.67019 0.59805
 O731 O 1.02181 0.38871 0.58069
 O732 O 1.02182 0.36257 0.60668
 C733 C 1.02943 0.37049 0.58850
 C734 C 1.04767 0.35874 0.57655
 C735 C 1.05520 0.33774 0.58387
 H736 H 1.04708 0.32982 0.59798
 O737 O 1.11136 0.41925 0.52175
 O738 O 1.13748 0.39323 0.52175
 C739 C 1.12957 0.41142 0.52937
 C740 C 1.14133 0.42335 0.54761
 C741 C 1.16234 0.41602 0.55514
 H742 H 1.17024 0.40191 0.54701
 O743 O 0.88875 0.58079 0.52185
 O744 O 0.86263 0.60681 0.52189
 C745 C 0.87054 0.58862 0.52949
 C746 C 0.85880 0.57668 0.54775
 C747 C 0.83780 0.58401 0.55529
 H748 H 0.82988 0.59812 0.54717
 Cu749 Cu 1.00002 0.40662 0.59342
 Cu750 Cu 1.00001 0.37533 0.62471
 Cu751 Cu 1.00014 0.59337 0.59343
 Cu752 Cu 1.00018 0.62467 0.62472
 Cu753 Cu 0.90653 0.40668 0.50005
 Cu754 Cu 0.87522 0.37540 0.50006
 Cu755 Cu 1.09342 0.40656 0.49996
 Cu756 Cu 1.12469 0.37524 0.49994
 Cu757 Cu 0.90667 0.59348 0.50004
 Cu758 Cu 0.87540 0.62480 0.50006
 Cu759 Cu 1.09351 0.59337 0.49995
 Cu760 Cu 1.12482 0.62465 0.49994
 Cu761 Cu 0.90661 0.50007 0.59346
 Cu762 Cu 0.87534 0.50009 0.62477
 Cu763 Cu 1.09354 0.49995 0.59336
 Cu764 Cu 1.12484 0.49993 0.62464
 C765 C 1.05842 0.44164 0.63100
 H766 H 1.05288 0.44717 0.61467
 C767 C 1.07342 0.42666 0.67293
 C768 C 0.94177 0.55836 0.63107
 H769 H 0.94730 0.55281 0.61474
 C770 C 0.92681 0.57338 0.67300
 C771 C 0.86903 0.55844 0.55840
 H772 H 0.88535 0.55289 0.55287
 C773 C 0.82711 0.57347 0.57339
 C774 C 1.13111 0.44160 0.55827
 H775 H 1.11478 0.44715 0.55275
 C776 C 1.17303 0.42656 0.57323
 C777 C 1.05833 0.36897 0.55831
 H778 H 1.05281 0.38531 0.55277
 C779 C 1.07329 0.32704 0.57332
 C780 C 0.94181 0.63104 0.55838
 H781 H 0.94733 0.61471 0.55283
 C782 C 0.92686 0.67298 0.57340
 C783 C 0.94169 0.44173 0.63105
 H784 H 0.94722 0.44727 0.61472
 C785 C 0.92672 0.42672 0.67298
 C786 C 1.05850 0.55829 0.63102
 H787 H 1.05295 0.55276 0.61469
 C788 C 1.07352 0.57326 0.67294
 C789 C 0.94163 0.36905 0.55837
 H790 H 0.94717 0.38538 0.55285
 C791 C 0.92662 0.32712 0.57334
 C792 C 1.05849 0.63098 0.55832
 H793 H 1.05296 0.61465 0.55278
 C794 C 1.07347 0.67291 0.57332
 C795 C 0.86894 0.44176 0.55840
 H796 H 0.88526 0.44729 0.55285
 C797 C 0.82702 0.42677 0.57344
 C798 C 1.13115 0.55826 0.55827
 H799 H 1.11482 0.55273 0.55274
 C800 C 1.17309 0.57326 0.57323
 O801 O 0.47813 0.91928 0.38868
 O802 O 0.47809 0.89328 0.36254
 C803 C 0.47050 0.91147 0.37047
 C804 C 0.45226 0.92343 0.35872
 C805 C 0.44471 0.91611 0.33772
 H806 H 0.45282 0.90200 0.32980
 O807 O 0.52188 1.08066 0.38867
 O808 O 0.52192 1.10666 0.36253
 C809 C 0.52952 1.08847 0.37046
 C810 C 0.54776 1.07651 0.35872
 C811 C 0.55532 1.08382 0.33771
 H812 H 0.54722 1.09793 0.32978
 O813 O 0.38866 0.97825 0.41928
 O814 O 0.36252 0.97825 0.39328
 C815 C 0.37044 0.97064 0.41147
 C816 C 0.35868 0.95239 0.42341
 C817 C 0.33768 0.94486 0.41608
 H818 H 0.32977 0.95298 0.40196
 O819 O 0.61139 1.02168 0.41926
 O820 O 0.63752 1.02168 0.39326
 C821 C 0.62960 1.02930 0.41145
 C822 C 0.64135 1.04755 0.42339
 C823 C 0.66235 1.05510 0.41607
 H824 H 0.67028 1.04700 0.40195
 O825 O 0.41919 0.88876 0.47822
 O826 O 0.39318 0.86263 0.47820
 C827 C 0.41137 0.87055 0.47059
 C828 C 0.42331 0.85879 0.45235
 C829 C 0.41599 0.83778 0.44483
 H830 H 0.40188 0.82987 0.45296
 O831 O 0.58083 1.11125 0.47818
 O832 O 0.60684 1.13738 0.47815
 C833 C 0.58865 1.12946 0.47055
 C834 C 0.57671 1.14121 0.45230
 C835 C 0.58402 1.16221 0.44474
 H836 H 0.59814 1.17014 0.45285
 O837 O 0.41931 1.02183 0.38865
 O838 O 0.39331 1.02188 0.36251
 C839 C 0.41150 1.02947 0.37044
 C840 C 0.42346 1.04772 0.35870
 C841 C 0.41615 1.05527 0.33770
 H842 H 0.40204 1.04718 0.32977
 O843 O 0.58073 0.97809 0.38866
 O844 O 0.60671 0.97804 0.36251
 C845 C 0.58853 0.97045 0.37045
 C846 C 0.57656 0.95220 0.35871
 C847 C 0.58386 0.94464 0.33771
 H848 H 0.59798 0.95274 0.32977
 O849 O 0.52171 0.88862 0.41930
 O850 O 0.52170 0.86248 0.39330
 C851 C 0.52932 0.87040 0.41148
 C852 C 0.54756 0.85864 0.42342
 C853 C 0.55509 0.83763 0.41610
 H854 H 0.54696 0.82972 0.40199
 O855 O 0.47828 1.11131 0.41928
 O856 O 0.47828 1.13745 0.39329
 C857 C 0.47066 1.12952 0.41147
 C858 C 0.45241 1.14127 0.42343
 C859 C 0.44487 1.16228 0.41611
 H860 H 0.45297 1.17021 0.40200
 O861 O 0.38871 1.08075 0.47821
 O862 O 0.36260 1.10677 0.47819
 C863 C 0.37051 1.08858 0.47058
 C864 C 0.35877 1.07665 0.45232
 C865 C 0.33777 1.08398 0.44476
 H866 H 0.32984 1.09809 0.45287
 O867 O 0.61127 0.91915 0.47817
 O868 O 0.63739 0.89313 0.47815
 C869 C 0.62948 0.91132 0.47054
 C870 C 0.64123 0.92326 0.45229
 C871 C 0.66223 0.91593 0.44476
 H872 H 0.67014 0.90181 0.45288
 O873 O 0.47827 1.08068 0.38867
 O874 O 0.47827 1.10668 0.36253
 C875 C 0.47064 1.08850 0.37046
 C876 C 0.45238 1.07658 0.35872
 C877 C 0.44485 1.08390 0.33771
 H878 H 0.45298 1.09801 0.32979
 O879 O 0.52175 0.91925 0.38869
 O880 O 0.52174 0.89325 0.36255
 C881 C 0.52937 0.91142 0.37047
 C882 C 0.54763 0.92335 0.35873
 C883 C 0.55516 0.91602 0.33773
 H884 H 0.54702 0.90192 0.32980
 O885 O 0.61134 0.97807 0.41928
 O886 O 0.63748 0.97802 0.39328
 C887 C 0.62955 0.97042 0.41146
 C888 C 0.64127 0.95215 0.42340
 C889 C 0.66227 0.94459 0.41610
 H890 H 0.67021 0.95270 0.40200
 O891 O 0.38870 1.02186 0.41929
 O892 O 0.36256 1.02190 0.39329
 C893 C 0.37050 1.02950 0.41148
 C894 C 0.35877 1.04776 0.42342
 C895 C 0.33777 1.05531 0.41610
 H896 H 0.32984 1.04720 0.40199
 O897 O 0.41938 1.11132 0.47822
 O898 O 0.39341 1.13748 0.47820
 C899 C 0.41159 1.12954 0.47059
 C900 C 0.42354 1.14127 0.45233
 C901 C 0.41623 1.16228 0.44480
 H902 H 0.40212 1.17020 0.45292
 O903 O 0.58064 0.88855 0.47818
 O904 O 0.60660 0.86238 0.47816
 C905 C 0.58843 0.87033 0.47055
 C906 C 0.57647 0.85860 0.45230
 C907 C 0.58376 0.83759 0.44474
 H908 H 0.59787 0.82965 0.45284
 O909 O 0.58075 1.02170 0.38867
 O910 O 0.60673 1.02170 0.36253
 C911 C 0.58856 1.02932 0.37046
 C912 C 0.57663 1.04759 0.35872
 C913 C 0.58395 1.05512 0.33772
 H914 H 0.59805 1.04699 0.32979
 O915 O 0.41927 0.97822 0.38865
 O916 O 0.39327 0.97823 0.36251
 C917 C 0.41145 0.97060 0.37044
 C918 C 0.42338 0.95234 0.35870
 C919 C 0.41606 0.94479 0.33770
 H920 H 0.40196 0.95290 0.32977
 O921 O 0.52190 1.11127 0.41930
 O922 O 0.52193 1.13741 0.39330
 C923 C 0.52954 1.12948 0.41148
 C924 C 0.54780 1.14121 0.42343
 C925 C 0.55534 1.16221 0.41611
 H926 H 0.54721 1.17014 0.40200
 O927 O 0.47810 0.88867 0.41930
 O928 O 0.47805 0.86253 0.39331
 C929 C 0.47045 0.87047 0.41150
 C930 C 0.45219 0.85875 0.42345
 C931 C 0.44464 0.83774 0.41616
 H932 H 0.45275 0.82979 0.40206
 O933 O 0.61140 1.08058 0.47817
 O934 O 0.63755 1.10656 0.47815
 C935 C 0.62961 1.08839 0.47054
 C936 C 0.64135 1.07644 0.45229
 C937 C 0.66235 1.08375 0.44474
 H938 H 0.67027 1.09786 0.45286
 O939 O 0.38857 0.91937 0.47821
 O940 O 0.36241 0.89339 0.47819
 C941 C 0.37035 0.91156 0.47058
 C942 C 0.35863 0.92351 0.45231
 C943 C 0.33763 0.91621 0.44475
 H944 H 0.32969 0.90210 0.45285
 Cu945 Cu 0.49993 0.90656 0.40660
 Cu946 Cu 0.49989 0.87526 0.37531
 Cu947 Cu 0.50008 1.09338 0.40658
 Cu948 Cu 0.50010 1.12467 0.37530
 Cu949 Cu 0.40659 1.00004 0.40657
 Cu950 Cu 0.37530 1.00007 0.37528
 Cu951 Cu 0.59345 0.99989 0.40657
 Cu952 Cu 0.62473 0.99986 0.37527
 C953 C 0.44162 0.94168 0.36896
 H954 H 0.44715 0.94722 0.38529
 C955 C 0.42662 0.92668 0.32704
 C956 C 0.55840 1.05826 0.36897
 H957 H 0.55286 1.05273 0.38530
 C958 C 0.57340 1.07323 0.32704
 C959 C 0.36890 0.94174 0.44167
 H960 H 0.38523 0.94727 0.44721
 C961 C 0.32698 0.92677 0.42664
 C962 C 0.63110 1.05820 0.44163
 H963 H 0.61477 1.05266 0.44717
 C964 C 0.67302 1.07320 0.42664
 C965 C 0.44155 0.86902 0.44168
 H966 H 0.44709 0.88535 0.44720
 C967 C 0.42654 0.82708 0.42674
 C968 C 0.55845 1.13096 0.44166
 H969 H 0.55292 1.11463 0.44720
 C970 C 0.57345 1.17289 0.42665
 C971 C 0.44171 1.05834 0.36896
 H972 H 0.44724 1.05280 0.38529
 C973 C 0.42674 1.07336 0.32703
 C974 C 0.55831 0.94158 0.36897
 H975 H 0.55278 0.94712 0.38530
 C976 C 0.57327 0.92656 0.32704
 C977 C 0.55823 0.86887 0.44166
 H978 H 0.55271 0.88520 0.44721
 C979 C 0.57318 0.82693 0.42664
 C980 C 0.44177 1.13102 0.44167
 H981 H 0.44731 1.11469 0.44721
 C982 C 0.42678 1.17295 0.42669
 C983 C 0.36901 1.05841 0.44167
 H984 H 0.38534 1.05286 0.44721
 C985 C 0.32710 1.07342 0.42666
 C986 C 0.63100 0.94151 0.44164
 H987 H 0.61467 0.94705 0.44717
 C988 C 0.67293 0.92649 0.42667
 O989 O 0.52176 0.91929 0.61130
 O990 O 0.52176 0.89329 0.63744
 C991 C 0.52938 0.91147 0.62951
 C992 C 0.54765 0.92339 0.64125
 C993 C 0.55518 0.91607 0.66226
 H994 H 0.54704 0.90198 0.67019
 O995 O 0.47829 1.08068 0.61135
 O996 O 0.47830 1.10667 0.63749
 C997 C 0.47067 1.08850 0.62956
 C998 C 0.45240 1.07658 0.64131
 C999 C 0.44487 1.08392 0.66231
 H1000 H 0.45301 1.09802 0.67023
 O1001 O 0.38867 1.02187 0.58078
 O1002 O 0.36253 1.02192 0.60677
 C1003 C 0.37046 1.02952 0.58859
 C1004 C 0.35874 1.04777 0.57663
 C1005 C 0.33773 1.05534 0.58393
 H1006 H 0.32979 1.04724 0.59804
 O1007 O 0.61138 0.97807 0.58067
 O1008 O 0.63752 0.97802 0.60666
 C1009 C 0.62958 0.97042 0.58848
 C1010 C 0.64130 0.95215 0.57653
 C1011 C 0.66231 0.94459 0.58383
 H1012 H 0.67026 0.95270 0.59793
 O1013 O 0.58063 0.88857 0.52179
 O1014 O 0.60660 0.86240 0.52181
 C1015 C 0.58843 0.87035 0.52942
 C1016 C 0.57647 0.85863 0.54768
 C1017 C 0.58377 0.83763 0.55525
 H1018 H 0.59788 0.82968 0.54714
 O1019 O 0.41936 1.11133 0.52183
 O1020 O 0.39340 1.13750 0.52186
 C1021 C 0.41157 1.12955 0.52946
 C1022 C 0.42353 1.14128 0.54772
 C1023 C 0.41623 1.16228 0.55528
 H1024 H 0.40212 1.17022 0.54719
 O1025 O 0.41925 0.97824 0.61139
 O1026 O 0.39327 0.97824 0.63754
 C1027 C 0.41144 0.97062 0.62960
 C1028 C 0.42338 0.95235 0.64133
 C1029 C 0.41607 0.94479 0.66233
 H1030 H 0.40196 0.95290 0.67027
 O1031 O 0.58079 1.02170 0.61128
 O1032 O 0.60679 1.02170 0.63742
 C1033 C 0.58861 1.02932 0.62950
 C1034 C 0.57668 1.04758 0.64124
 C1035 C 0.58400 1.05511 0.66225
 H1036 H 0.59811 1.04698 0.67017
 O1037 O 0.47811 0.88872 0.58069
 O1038 O 0.47808 0.86258 0.60669
 C1039 C 0.47047 0.87051 0.58851
 C1040 C 0.45221 0.85878 0.57657
 C1041 C 0.44468 0.83777 0.58388
 H1042 H 0.45281 0.82984 0.59798
 O1043 O 0.52192 1.11127 0.58072
 O1044 O 0.52197 1.13741 0.60672
 C1045 C 0.52957 1.12947 0.58853
 C1046 C 0.54782 1.14120 0.57658
 C1047 C 0.55539 1.16220 0.58389
 H1048 H 0.54729 1.17014 0.59800
 O1049 O 0.38859 0.91940 0.52183
 O1050 O 0.36244 0.89342 0.52185
 C1051 C 0.37038 0.91160 0.52946
 C1052 C 0.35865 0.92354 0.54772
 C1053 C 0.33764 0.91623 0.55526
 H1054 H 0.32971 0.90213 0.54713
 O1055 O 0.61143 1.08061 0.52178
 O1056 O 0.63759 1.10659 0.52180
 C1057 C 0.62965 1.08841 0.52941
 C1058 C 0.64139 1.07645 0.54766
 C1059 C 0.66239 1.08376 0.55522
 H1060 H 0.67032 1.09788 0.54712
 O1061 O 0.52191 1.08064 0.61133
 O1062 O 0.52196 1.10663 0.63747
 C1063 C 0.52955 1.08844 0.62954
 C1064 C 0.54780 1.07649 0.64127
 C1065 C 0.55536 1.08379 0.66227
 H1066 H 0.54725 1.09790 0.67021
 O1067 O 0.47814 0.91932 0.61133
 O1068 O 0.47811 0.89332 0.63746
 C1069 C 0.47051 0.91151 0.62954
 C1070 C 0.45227 0.92346 0.64130
 C1071 C 0.44473 0.91613 0.66230
 H1072 H 0.45285 0.90201 0.67021
 O1073 O 0.61141 1.02168 0.58067
 O1074 O 0.63755 1.02168 0.60666
 C1075 C 0.62962 1.02930 0.58848
 C1076 C 0.64137 1.04755 0.57654
 C1077 C 0.66237 1.05508 0.58386
 H1078 H 0.67029 1.04696 0.59797
 O1079 O 0.38863 0.97826 0.58078
 O1080 O 0.36249 0.97826 0.60678
 C1081 C 0.37041 0.97065 0.58859
 C1082 C 0.35866 0.95240 0.57664
 C1083 C 0.33766 0.94486 0.58395
 H1084 H 0.32973 0.95296 0.59807
 O1085 O 0.58081 1.11122 0.52179
 O1086 O 0.60682 1.13734 0.52181
 C1087 C 0.58863 1.12943 0.52942
 C1088 C 0.57670 1.14118 0.54767
 C1089 C 0.58403 1.16218 0.55521
 H1090 H 0.59814 1.17009 0.54708
 O1091 O 0.41916 0.88873 0.52182
 O1092 O 0.39315 0.86261 0.52185
 C1093 C 0.41134 0.87053 0.52946
 C1094 C 0.42329 0.85878 0.54771
 C1095 C 0.41598 0.83777 0.55525
 H1096 H 0.40187 0.82984 0.54715
 O1097 O 0.58076 0.97809 0.61129
 O1098 O 0.60676 0.97805 0.63743
 C1099 C 0.58857 0.97046 0.62951
 C1100 C 0.57660 0.95222 0.64125
 C1101 C 0.58390 0.94467 0.66226
 H1102 H 0.59802 0.95276 0.67019
 O1103 O 0.41929 1.02185 0.61138
 O1104 O 0.39331 1.02190 0.63753
 C1105 C 0.41149 1.02949 0.62960
 C1106 C 0.42346 1.04774 0.64133
 C1107 C 0.41616 1.05530 0.66233
 H1108 H 0.40204 1.04722 0.67026
 O1109 O 0.47831 1.11128 0.58072
 O1110 O 0.47831 1.13742 0.60671
 C1111 C 0.47069 1.12949 0.58853
 C1112 C 0.45244 1.14125 0.57660
 C1113 C 0.44491 1.16225 0.58393
 H1114 H 0.45304 1.17016 0.59803
 O1115 O 0.52172 0.88866 0.58070
 O1116 O 0.52173 0.86252 0.60670
 C1117 C 0.52934 0.87044 0.58851
 C1118 C 0.54758 0.85868 0.57657
 C1119 C 0.55511 0.83767 0.58390
 H1120 H 0.54699 0.82977 0.59802
 O1121 O 0.61129 0.91915 0.52178
 O1122 O 0.63740 0.89313 0.52180
 C1123 C 0.62949 0.91132 0.52940
 C1124 C 0.64126 0.92326 0.54765
 C1125 C 0.66226 0.91593 0.55517
 H1126 H 0.67017 0.90182 0.54705
 O1127 O 0.38873 1.08074 0.52183
 O1128 O 0.36261 1.10676 0.52185
 C1129 C 0.37052 1.08857 0.52946
 C1130 C 0.35877 1.07664 0.54771
 C1131 C 0.33777 1.08397 0.55524
 H1132 H 0.32985 1.09808 0.54711
 Cu1133 Cu 0.49994 0.90660 0.59340
 Cu1134 Cu 0.49992 0.87531 0.62469
 Cu1135 Cu 0.50010 1.09336 0.59343
 Cu1136 Cu 0.50014 1.12465 0.62471
 Cu1137 Cu 0.40648 0.90667 0.50002
 Cu1138 Cu 0.37517 0.87540 0.50002
 Cu1139 Cu 0.59335 0.90646 0.49998
 Cu1140 Cu 0.62461 0.87513 0.49998
 Cu1141 Cu 0.40665 1.09343 0.50002
 Cu1142 Cu 0.37539 1.12475 0.50002
 Cu1143 Cu 0.59351 1.09331 0.49998
 Cu1144 Cu 0.62482 1.12459 0.49998
 Cu1145 Cu 0.40656 1.00005 0.59348
 Cu1146 Cu 0.37528 1.00008 0.62477
 Cu1147 Cu 0.59348 0.99989 0.59337
 Cu1148 Cu 0.62478 0.99986 0.62466
 C1149 C 0.55834 0.94161 0.63100
 H1150 H 0.55281 0.94715 0.61467
 C1151 C 0.57330 0.92660 0.67294
 C1152 C 0.44172 1.05835 0.63107
 H1153 H 0.44725 1.05280 0.61475
 C1154 C 0.42676 1.07339 0.67299
 C1155 C 0.36900 1.05840 0.55838
 H1156 H 0.38533 1.05285 0.55286
 C1157 C 0.32707 1.07343 0.57334
 C1158 C 0.63103 0.94151 0.55830
 H1159 H 0.61470 0.94705 0.55278
 C1160 C 0.67296 0.92649 0.57326
 C1161 C 0.55824 0.86890 0.55832
 H1162 H 0.55272 0.88523 0.55277
 C1163 C 0.57320 0.82698 0.57335
 C1164 C 0.44177 1.13101 0.55835
 H1165 H 0.44730 1.11469 0.55281
 C1166 C 0.42681 1.17294 0.57338
 C1167 C 0.44162 0.94171 0.63107
 H1168 H 0.44715 0.94725 0.61474
 C1169 C 0.42664 0.92668 0.67299
 C1170 C 0.55844 1.05824 0.63101
 H1171 H 0.55290 1.05272 0.61468
 C1172 C 0.57345 1.07321 0.67294
 C1173 C 0.44154 0.86903 0.55834
 H1174 H 0.44707 0.88536 0.55281
 C1175 C 0.42657 0.82710 0.57334
 C1176 C 0.55846 1.13094 0.55833
 H1177 H 0.55291 1.11461 0.55280
 C1178 C 0.57349 1.17286 0.57331
 C1179 C 0.36890 0.94177 0.55838
 H1180 H 0.38524 0.94730 0.55285
 C1181 C 0.32697 0.92677 0.57337
 C1182 C 0.63113 1.05821 0.55830
 H1183 H 0.61480 1.05268 0.55276
 C1184 C 0.67306 1.07319 0.57332
 O1185 O 0.47804 0.41926 0.88872
 O1186 O 0.47797 0.39326 0.86258
 C1187 C 0.47039 0.41146 0.87051
 C1188 C 0.45214 0.42342 0.85878
 C1189 C 0.44458 0.41612 0.83778
 H1190 H 0.45267 0.40200 0.82985
 O1191 O 0.52177 0.58071 0.88866
 O1192 O 0.52179 0.60671 0.86251
 C1193 C 0.52939 0.58852 0.87044
 C1194 C 0.54763 0.57655 0.85869
 C1195 C 0.55519 0.58386 0.83769
 H1196 H 0.54710 0.59798 0.82976
 O1197 O 0.38859 0.47827 0.91938
 O1198 O 0.36244 0.47826 0.89340
 C1199 C 0.37037 0.47065 0.91158
 C1200 C 0.35863 0.45240 0.92354
 C1201 C 0.33762 0.44486 0.91624
 H1202 H 0.32969 0.45296 0.90212
 O1203 O 0.61125 0.52169 0.91921
 O1204 O 0.63737 0.52169 0.89320
 C1205 C 0.62947 0.52931 0.91139
 C1206 C 0.64123 0.54755 0.92332
 C1207 C 0.66224 0.55508 0.91598
 H1208 H 0.67014 0.54696 0.90186
 O1209 O 0.41918 0.38873 0.97830
 O1210 O 0.39315 0.36262 0.97830
 C1211 C 0.41134 0.37052 0.97067
 C1212 C 0.42326 0.35877 0.95241
 C1213 C 0.41592 0.33777 0.94489
 H1214 H 0.40181 0.32986 0.95301
 O1215 O 0.58077 0.61125 0.97813
 O1216 O 0.60679 0.63737 0.97808
 C1217 C 0.58859 0.62946 0.97049
 C1218 C 0.57664 0.64122 0.95225
 C1219 C 0.58397 0.66222 0.94472
 H1220 H 0.59809 0.67013 0.95283
 O1221 O 0.41922 0.52185 0.88874
 O1222 O 0.39321 0.52189 0.86262
 C1223 C 0.41141 0.52949 0.87054
 C1224 C 0.42335 0.54773 0.85878
 C1225 C 0.41603 0.55526 0.83778
 H1226 H 0.40192 0.54715 0.82986
 O1227 O 0.58058 0.47810 0.88862
 O1228 O 0.60656 0.47806 0.86246
 C1229 C 0.58838 0.47046 0.87040
 C1230 C 0.57642 0.45221 0.85868
 C1231 C 0.58372 0.44464 0.83768
 H1232 H 0.59784 0.45273 0.82974
 O1233 O 0.52165 0.38862 0.91931
 O1234 O 0.52163 0.36248 0.89332
 C1235 C 0.52926 0.37040 0.91150
 C1236 C 0.54752 0.35865 0.92342
 C1237 C 0.55504 0.33764 0.91609
 H1238 H 0.54691 0.32973 0.90199
 O1239 O 0.47820 0.61136 0.91930
 O1240 O 0.47817 0.63750 0.89331
 C1241 C 0.47057 0.62957 0.91149
 C1242 C 0.45232 0.64131 0.92345
 C1243 C 0.44476 0.66231 0.91614
 H1244 H 0.45285 0.67024 0.90202
 O1245 O 0.38870 0.58076 0.97830
 O1246 O 0.36257 0.60676 0.97830
 C1247 C 0.37048 0.58858 0.97068
 C1248 C 0.35872 0.57664 0.95244
 C1249 C 0.33772 0.58398 0.94491
 H1250 H 0.32981 0.59809 0.95304
 O1251 O 0.61126 0.41916 0.97814
 O1252 O 0.63740 0.39316 0.97810
 C1253 C 0.62947 0.41134 0.97049
 C1254 C 0.64119 0.42329 0.95223
 C1255 C 0.66220 0.41599 0.94467
 H1256 H 0.67014 0.40188 0.95278
 O1257 O 0.47816 0.58074 0.88869
 O1258 O 0.47814 0.60673 0.86254
 C1259 C 0.47052 0.58856 0.87048
 C1260 C 0.45225 0.57662 0.85875
 C1261 C 0.44470 0.58392 0.83775
 H1262 H 0.45281 0.59802 0.82980
 O1263 O 0.52165 0.41923 0.88869
 O1264 O 0.52163 0.39323 0.86255
 C1265 C 0.52926 0.41141 0.87047
 C1266 C 0.54751 0.42333 0.85871
 C1267 C 0.55504 0.41599 0.83771
 H1268 H 0.54692 0.40188 0.82980
 O1269 O 0.61121 0.47808 0.91923
 O1270 O 0.63733 0.47805 0.89322
 C1271 C 0.62941 0.47044 0.91141
 C1272 C 0.64116 0.45219 0.92335
 C1273 C 0.66216 0.44466 0.91602
 H1274 H 0.67008 0.45279 0.90191
 O1275 O 0.38862 0.52187 0.91937
 O1276 O 0.36246 0.52191 0.89339
 C1277 C 0.37040 0.52951 0.91157
 C1278 C 0.35868 0.54777 0.92353
 C1279 C 0.33768 0.55533 0.91623
 H1280 H 0.32973 0.54724 0.90212
 O1281 O 0.41934 0.61135 0.97826
 O1282 O 0.39335 0.63750 0.97826
 C1283 C 0.41152 0.62957 0.97064
 C1284 C 0.42345 0.64130 0.95237
 C1285 C 0.41613 0.66230 0.94483
 H1286 H 0.40202 0.67022 0.95296
 O1287 O 0.58063 0.38857 0.97816
 O1288 O 0.60661 0.36241 0.97811
 C1289 C 0.58842 0.37035 0.97052
 C1290 C 0.57645 0.35862 0.95227
 C1291 C 0.58375 0.33762 0.94471
 H1292 H 0.59786 0.32968 0.95280
 O1293 O 0.58060 0.52172 0.88864
 O1294 O 0.60657 0.52171 0.86248
 C1295 C 0.58840 0.52934 0.87042
 C1296 C 0.57647 0.54761 0.85869
 C1297 C 0.58380 0.55514 0.83768
 H1298 H 0.59789 0.54701 0.82976
 O1299 O 0.41919 0.47824 0.88874
 O1300 O 0.39318 0.47823 0.86262
 C1301 C 0.41136 0.47061 0.87054
 C1302 C 0.42328 0.45235 0.85879
 C1303 C 0.41595 0.44481 0.83779
 H1304 H 0.40185 0.45295 0.82987
 O1305 O 0.52181 0.61134 0.91927
 O1306 O 0.52183 0.63748 0.89327
 C1307 C 0.52945 0.62954 0.91145
 C1308 C 0.54773 0.64126 0.92338
 C1309 C 0.55529 0.66227 0.91608
 H1310 H 0.54717 0.67021 0.90198
 O1311 O 0.47804 0.38865 0.91934
 O1312 O 0.47797 0.36251 0.89335
 C1313 C 0.47038 0.37044 0.91154
 C1314 C 0.45213 0.35873 0.92350
 C1315 C 0.44456 0.33773 0.91620
 H1316 H 0.45265 0.32978 0.90209
 O1317 O 0.61137 0.58062 0.97811
 O1318 O 0.63753 0.60658 0.97807
 C1319 C 0.62958 0.58841 0.97047
 C1320 C 0.64129 0.57645 0.95220
 C1321 C 0.66229 0.58375 0.94463
 H1322 H 0.67024 0.59785 0.95273
 O1323 O 0.38860 0.41938 0.97832
 O1324 O 0.36243 0.39342 0.97833
 C1325 C 0.37037 0.41159 0.97071
 C1326 C 0.35863 0.42354 0.95246
 C1327 C 0.33762 0.41622 0.94492
 H1328 H 0.32970 0.40212 0.95305
 Cu1329 Cu 0.49985 0.40655 0.90662
 Cu1330 Cu 0.49979 0.37525 0.87533
 Cu1331 Cu 0.49999 0.59344 0.90658
 Cu1332 Cu 0.49998 0.62472 0.87529
 Cu1333 Cu 0.40651 0.50006 0.90666
 Cu1334 Cu 0.37520 0.50007 0.87539
 Cu1335 Cu 0.59331 0.49990 0.90653
 Cu1336 Cu 0.62457 0.49987 0.87522
 C1337 C 0.44151 0.44167 0.86904
 H1338 H 0.44706 0.44720 0.88536
 C1339 C 0.42649 0.42670 0.82711
 C1340 C 0.55825 0.55829 0.86894
 H1341 H 0.55271 0.55276 0.88527
 C1342 C 0.57327 0.57326 0.82701
 C1343 C 0.36888 0.44177 0.94179
 H1344 H 0.38521 0.44730 0.94732
 C1345 C 0.32694 0.42677 0.92682
 C1346 C 0.63102 0.55822 0.94157
 H1347 H 0.61469 0.55269 0.94712
 C1348 C 0.67294 0.57317 0.92652
 C1349 C 0.44150 0.36899 0.94175
 H1350 H 0.44706 0.38532 0.94727
 C1351 C 0.42646 0.32707 0.92678
 C1352 C 0.55838 0.63099 0.94161
 H1353 H 0.55284 0.61466 0.94714
 C1354 C 0.57340 0.67292 0.92664
 C1355 C 0.44160 0.55838 0.86902
 H1356 H 0.44714 0.55286 0.88535
 C1357 C 0.42659 0.57335 0.82709
 C1358 C 0.55817 0.44158 0.86894
 H1359 H 0.55265 0.44713 0.88527
 C1360 C 0.57315 0.42654 0.82702
 C1361 C 0.55820 0.36889 0.94165
 H1362 H 0.55268 0.38522 0.94720
 C1363 C 0.57315 0.32696 0.92662
 C1364 C 0.44169 0.63106 0.94170
 H1365 H 0.44724 0.61474 0.94724
 C1366 C 0.42666 0.67298 0.92672
 C1367 C 0.36895 0.55840 0.94177
 H1368 H 0.38528 0.55285 0.94729
 C1369 C 0.32702 0.57343 0.92681
 C1370 C 0.63093 0.44153 0.94159
 H1371 H 0.61460 0.44706 0.94713
 C1372 C 0.67286 0.42657 0.92657
 O1373 O 0.52183 0.41921 1.11134
 O1374 O 0.52186 0.39322 1.13748
 C1375 C 0.52947 0.41140 1.12954
 C1376 C 0.54773 0.42334 1.14127
 C1377 C 0.55529 0.41603 1.16227
 H1378 H 0.54719 0.40192 1.17021
 O1379 O 0.47833 0.58079 1.11134
 O1380 O 0.47835 0.60679 1.13748
 C1381 C 0.47073 0.58861 1.12956
 C1382 C 0.45249 0.57667 1.14133
 C1383 C 0.44497 0.58399 1.16233
 H1384 H 0.45309 0.59811 1.17024
 O1385 O 0.38879 0.52188 1.08085
 O1386 O 0.36268 0.52193 1.10687
 C1387 C 0.37059 0.52952 1.08868
 C1388 C 0.35884 0.54777 1.07673
 C1389 C 0.33784 0.55531 1.08406
 H1390 H 0.32993 0.54720 1.09817
 O1391 O 0.61130 0.47811 1.08063
 O1392 O 0.63746 0.47808 1.10661
 C1393 C 0.62952 0.47047 1.08843
 C1394 C 0.64125 0.45221 1.07649
 C1395 C 0.66225 0.44467 1.08380
 H1396 H 0.67018 0.45280 1.09790
 O1397 O 0.58067 0.38855 1.02177
 O1398 O 0.60665 0.36240 1.02177
 C1399 C 0.58847 0.37034 1.02939
 C1400 C 0.57653 0.35861 1.04766
 C1401 C 0.58383 0.33760 1.05521
 H1402 H 0.59794 0.32966 1.04710
 O1403 O 0.41937 0.61137 1.02187
 O1404 O 0.39338 0.63752 1.02191
 C1405 C 0.41157 0.62959 1.02950
 C1406 C 0.42353 0.64134 1.04774
 C1407 C 0.41621 0.66234 1.05528
 H1408 H 0.40209 0.67025 1.04717
 O1409 O 0.41940 0.47825 1.11146
 O1410 O 0.39343 0.47825 1.13762
 C1411 C 0.41159 0.47063 1.12968
 C1412 C 0.42353 0.45235 1.14140
 C1413 C 0.41622 0.44480 1.16240
 H1414 H 0.40213 0.45292 1.17035
 O1415 O 0.58074 0.52175 1.11127
 O1416 O 0.60676 0.52175 1.13739
 C1417 C 0.58858 0.52938 1.12947
 C1418 C 0.57666 0.54765 1.14122
 C1419 C 0.58400 0.55517 1.16222
 H1420 H 0.59809 0.54703 1.17014
 O1421 O 0.47817 0.38863 1.08076
 O1422 O 0.47815 0.36249 1.10675
 C1423 C 0.47053 0.37042 1.08858
 C1424 C 0.45225 0.35871 1.07664
 C1425 C 0.44469 0.33771 1.08395
 H1426 H 0.45280 0.32976 1.09805
 O1427 O 0.52194 0.61137 1.08068
 O1428 O 0.52200 0.63752 1.10667
 C1429 C 0.52959 0.62958 1.08848
 C1430 C 0.54785 0.64129 1.07652
 C1431 C 0.55541 0.66230 1.08381
 H1432 H 0.54731 0.67025 1.09792
 O1433 O 0.38863 0.41938 1.02194
 O1434 O 0.36246 0.39341 1.02198
 C1435 C 0.37042 0.41159 1.02958
 C1436 C 0.35871 0.42354 1.04785
 C1437 C 0.33771 0.41625 1.05541
 H1438 H 0.32975 0.40216 1.04730
 O1439 O 0.61139 0.58063 1.02172
 O1440 O 0.63756 0.60659 1.02173
 C1441 C 0.62962 0.58842 1.02934
 C1442 C 0.64135 0.57647 1.04760
 C1443 C 0.66235 0.58378 1.05516
 H1444 H 0.67029 0.59788 1.04705
 O1445 O 0.52194 0.58077 1.11130
 O1446 O 0.52201 0.60676 1.13744
 C1447 C 0.52959 0.58857 1.12951
 C1448 C 0.54783 0.57660 1.14124
 C1449 C 0.55540 0.58389 1.16224
 H1450 H 0.54731 0.59801 1.17018
 O1451 O 0.47822 0.41927 1.11135
 O1452 O 0.47821 0.39327 1.13749
 C1453 C 0.47061 0.41146 1.12958
 C1454 C 0.45238 0.42343 1.14134
 C1455 C 0.44485 0.41610 1.16235
 H1456 H 0.45296 0.40198 1.17025
 O1457 O 0.61134 0.52172 1.08063
 O1458 O 0.63750 0.52172 1.10661
 C1459 C 0.62957 0.52933 1.08843
 C1460 C 0.64132 0.54758 1.07649
 C1461 C 0.66232 0.55511 1.08381
 H1462 H 0.67024 0.54699 1.09792
 O1463 O 0.38876 0.47828 1.08086
 O1464 O 0.36264 0.47828 1.10688
 C1465 C 0.37055 0.47066 1.08869
 C1466 C 0.35878 0.45242 1.07675
 C1467 C 0.33777 0.44491 1.08408
 H1468 H 0.32987 0.45303 1.09820
 O1469 O 0.58081 0.61127 1.02174
 O1470 O 0.60683 0.63739 1.02173
 C1471 C 0.58864 0.62948 1.02936
 C1472 C 0.57672 0.64124 1.04761
 C1473 C 0.58406 0.66225 1.05513
 H1474 H 0.59817 0.67016 1.04700
 O1475 O 0.41922 0.38873 1.02191
 O1476 O 0.39320 0.36262 1.02195
 C1477 C 0.41140 0.37053 1.02954
 C1478 C 0.42334 0.35876 1.04777
 C1479 C 0.41601 0.33776 1.05530
 H1480 H 0.40189 0.32986 1.04719
 O1481 O 0.58072 0.47813 1.11129
 O1482 O 0.60673 0.47810 1.13740
 C1483 C 0.58854 0.47050 1.12949
 C1484 C 0.57661 0.45225 1.14124
 C1485 C 0.58394 0.44471 1.16224
 H1486 H 0.59805 0.45283 1.17016
 O1487 O 0.41943 0.52187 1.11145
 O1488 O 0.39346 0.52191 1.13761
 C1489 C 0.41164 0.52951 1.12966
 C1490 C 0.42360 0.54777 1.14138
 C1491 C 0.41631 0.55533 1.16239
 H1492 H 0.40221 0.54722 1.17034
 O1493 O 0.47832 0.61141 1.08073
 O1494 O 0.47834 0.63756 1.10672
 C1495 C 0.47071 0.62963 1.08855
 C1496 C 0.45244 0.64136 1.07661
 C1497 C 0.44489 0.66237 1.08393
 H1498 H 0.45300 0.67031 1.09803
 O1499 O 0.52179 0.38862 1.08070
 O1500 O 0.52181 0.36248 1.10670
 C1501 C 0.52941 0.37040 1.08851
 C1502 C 0.54765 0.35864 1.07655
 C1503 C 0.55517 0.33764 1.08387
 H1504 H 0.54706 0.32972 1.09799
 O1505 O 0.61129 0.41916 1.02175
 O1506 O 0.63742 0.39316 1.02176
 C1507 C 0.62950 0.41135 1.02937
 C1508 C 0.64125 0.42330 1.04762
 C1509 C 0.66225 0.41599 1.05517
 H1510 H 0.67018 0.40187 1.04706
 O1511 O 0.38874 0.58077 1.02191
 O1512 O 0.36261 0.60677 1.02195
 C1513 C 0.37054 0.58859 1.02956
 C1514 C 0.35881 0.57665 1.04783
 C1515 C 0.33781 0.58396 1.05539
 H1516 H 0.32987 0.59806 1.04727
 Cu1517 Cu 0.50000 0.40653 1.09343
 Cu1518 Cu 0.50000 0.37524 1.12472
 Cu1519 Cu 0.50013 0.59348 1.09341
 Cu1520 Cu 0.50018 0.62478 1.12469
 Cu1521 Cu 0.40652 0.40666 1.00011
 Cu1522 Cu 0.37519 0.37540 1.00014
 Cu1523 Cu 0.59336 0.40647 0.99995
 Cu1524 Cu 0.62464 0.37516 0.99993
 Cu1525 Cu 0.40664 0.59345 1.00008
 Cu1526 Cu 0.37536 0.62476 1.00011
 Cu1527 Cu 0.59348 0.59334 0.99993
 Cu1528 Cu 0.62480 0.62460 0.99990
 Cu1529 Cu 0.40670 0.50007 1.09355
 Cu1530 Cu 0.37544 0.50010 1.12487
 Cu1531 Cu 0.59342 0.49993 1.09335
 Cu1532 Cu 0.62473 0.49991 1.12462
 C1533 C 0.55836 0.44159 1.13101
 H1534 H 0.55281 0.44712 1.11469
 C1535 C 0.57339 0.42661 1.17293
 C1536 C 0.44183 0.55842 1.13110
 H1537 H 0.44734 0.55287 1.11477
 C1538 C 0.42689 0.57344 1.17304
 C1539 C 0.36908 0.55842 1.05848
 H1540 H 0.38540 0.55288 1.05294
 C1541 C 0.32715 0.57340 1.07350
 C1542 C 0.63100 0.44155 1.05826
 H1543 H 0.61467 0.44708 1.05272
 C1544 C 0.67293 0.42657 1.07325
 C1545 C 0.55830 0.36888 1.05831
 H1546 H 0.55277 0.38521 1.05277
 C1547 C 0.57326 0.32694 1.07331
 C1548 C 0.44178 0.63110 1.05838
 H1549 H 0.44732 0.61478 1.05285
 C1550 C 0.42677 0.67303 1.07337
 C1551 C 0.44175 0.44169 1.13112
 H1552 H 0.44727 0.44723 1.11479
 C1553 C 0.42678 0.42668 1.17305
 C1554 C 0.55844 0.55834 1.13098
 H1555 H 0.55289 0.55282 1.11465
 C1556 C 0.57348 0.57329 1.17291
 C1557 C 0.44160 0.36898 1.05842
 H1558 H 0.44715 0.38531 1.05289
 C1559 C 0.42657 0.32706 1.07339
 C1560 C 0.55848 0.63102 1.05828
 H1561 H 0.55292 0.61469 1.05276
 C1562 C 0.57351 0.67295 1.07323
 C1563 C 0.36900 0.44177 1.05850
 H1564 H 0.38533 0.44728 1.05295
 C1565 C 0.32706 0.42683 1.07352
 C1566 C 0.63109 0.55823 1.05824
 H1567 H 0.61476 0.55271 1.05270
 C1568 C 0.67301 0.57320 1.07326
 N1569 N 1.11938 1.14453 1.29744
 C1570 C 1.12211 1.12256 1.29262
 N1571 N 1.13376 1.10947 1.30698
 N1572 N 1.14245 1.11810 1.32559
 C1573 C 1.13982 1.14014 1.33049
 N1574 N 1.12808 1.15316 1.31603
 C1575 C 1.11315 1.11341 1.27234
 C1576 C 1.10578 1.10593 1.25514
 C1577 C 1.09717 1.09726 1.23450
 N1578 N 1.10704 1.07948 1.22451
 N1579 N 1.09937 1.07179 1.20506
 C1580 C 1.08157 1.08159 1.19487
 N1581 N 1.07172 1.09938 1.20504
 N1582 N 1.07938 1.10708 1.22448
 N1583 N 1.14463 0.61931 0.79750
 C1584 C 1.12266 0.62200 0.79265
 N1585 N 1.10952 0.63363 0.80699
 N1586 N 1.11811 0.64235 0.82560
 C1587 C 1.14015 0.63977 0.83053
 N1588 N 1.15322 0.62803 0.81610
 C1589 C 1.11356 0.61303 0.77235
 C1590 C 1.10609 0.60565 0.75515
 C1591 C 1.09744 0.59705 0.73450
 N1592 N 1.07967 0.60693 0.72451
 N1593 N 1.07197 0.59927 0.70506
 C1594 C 1.08177 0.58147 0.69486
 N1595 N 1.09955 0.57162 0.70502
 N1596 N 1.10725 0.57926 0.72447
 N1597 N 0.60944 1.13354 0.80701
 C1598 C 0.62258 1.12191 0.79266
 N1599 N 0.64455 1.11924 0.79750
 N1600 N 0.65314 1.12797 0.81610
 C1601 C 0.64008 1.13968 0.83054
 N1602 N 0.61804 1.14226 0.82562
 C1603 C 0.61347 1.11294 0.77236
 C1604 C 0.60601 1.10557 0.75516
 C1605 C 0.59736 1.09698 0.73451
 N1606 N 0.60717 1.07919 0.72449
 N1607 N 0.59947 1.07155 0.70503
 C1608 C 0.58170 1.08141 0.69486
 N1609 N 0.57190 1.09921 0.70506
 N1610 N 0.57959 1.10686 0.72451
 N1611 N 0.64461 0.61926 1.29748
 C1612 C 0.62264 0.62193 1.29265
 N1613 N 0.60950 0.63355 1.30699
 N1614 N 0.61809 0.64227 1.32561
 C1615 C 0.64013 0.63969 1.33053
 N1616 N 0.65320 0.62797 1.31609
 C1617 C 0.61353 0.61297 1.27234
 C1618 C 0.60607 0.60561 1.25514
 C1619 C 0.59741 0.59703 1.23448
 N1620 N 0.57966 0.60694 1.22448
 N1621 N 0.57196 0.59930 1.20503
 C1622 C 0.58173 0.58149 1.19483
 N1623 N 0.59949 0.57159 1.20501
 N1624 N 0.60720 0.57923 1.22446
 N1625 N 0.85546 0.88068 1.29746
 C1626 C 0.87743 0.87799 1.29263
 N1627 N 0.89056 0.86636 1.30699
 N1628 N 0.88195 0.85766 1.32560
 C1629 C 0.85991 0.86024 1.33051
 N1630 N 0.84686 0.87197 1.31606
 C1631 C 0.88655 0.88695 1.27234
 C1632 C 0.89403 0.89433 1.25514
 C1633 C 0.90269 0.90292 1.23449
 N1634 N 0.92043 0.89301 1.22448
 N1635 N 0.92813 0.90066 1.20502
 C1636 C 0.91836 0.91849 1.19485
 N1637 N 0.90060 0.92838 1.20503
 N1638 N 0.89290 0.92073 1.22448
 N1639 N 0.88070 0.35554 0.79748
 C1640 C 0.87799 0.37751 0.79266
 N1641 N 0.86633 0.39061 0.80701
 N1642 N 0.85762 0.38199 0.82561
 C1643 C 0.86024 0.35995 0.83052
 N1644 N 0.87200 0.34692 0.81608
 C1645 C 0.88695 0.38665 0.77237
 C1646 C 0.89432 0.39413 0.75518
 C1647 C 0.90293 0.40280 0.73453
 N1648 N 0.89304 0.42056 0.72454
 N1649 N 0.90070 0.42826 0.70509
 C1650 C 0.91850 0.41847 0.69490
 N1651 N 0.92837 0.40069 0.70507
 N1652 N 0.92072 0.39299 0.72452
 N1653 N 0.36627 0.89053 0.80701
 C1654 C 0.37792 0.87743 0.79266
 N1655 N 0.38063 0.85546 0.79747
 N1656 N 0.37192 0.84684 0.81607
 C1657 C 0.36018 0.85986 0.83052
 N1658 N 0.35757 0.88191 0.82562
 C1659 C 0.38687 0.88657 0.77237
 C1660 C 0.39425 0.89406 0.75517
 C1661 C 0.40284 0.90274 0.73453
 N1662 N 0.42064 0.89293 0.72451
 N1663 N 0.42829 0.90064 0.70507
 C1664 C 0.41842 0.91842 0.69491
 N1665 N 0.40061 0.92821 0.70510
 N1666 N 0.39296 0.92050 0.72454
 N1667 N 0.38075 0.35547 1.29753
 C1668 C 0.37805 0.37744 1.29272
 N1669 N 0.36640 0.39054 1.30708
 N1670 N 0.35769 0.38191 1.32567
 C1671 C 0.36030 0.35987 1.33057
 N1672 N 0.37204 0.34684 1.31612
 C1673 C 0.38701 0.38659 1.27243
 C1674 C 0.39439 0.39407 1.25524
 C1675 C 0.40299 0.40275 1.23460
 N1676 N 0.39312 0.42053 1.22462
 N1677 N 0.40077 0.42823 1.20517
 C1678 C 0.41856 0.41842 1.19497
 N1679 N 0.42841 0.40063 1.20512
 N1680 N 0.42076 0.39292 1.22457
 N1681 N 0.86642 1.10949 0.69294
 C1682 C 0.87803 1.12261 0.70730
 N1683 N 0.88071 1.14459 0.70249
 N1684 N 0.87200 1.15320 0.68389
 C1685 C 0.86029 1.14014 0.66943
 N1686 N 0.85771 1.11810 0.67433
 C1687 C 0.88699 1.11349 0.72760
 C1688 C 0.89436 1.10602 0.74480
 C1689 C 0.90295 1.09736 0.76545
 N1690 N 0.92075 1.10716 0.77547
 N1691 N 0.92838 1.09946 0.79493
 C1692 C 0.91851 1.08169 0.80510
 N1693 N 0.90070 1.07191 0.79490
 N1694 N 0.89305 1.07960 0.77545
 N1695 N 0.86631 0.60950 0.19301
 C1696 C 0.87794 0.62262 0.20737
 N1697 N 0.88063 0.64459 0.20254
 N1698 N 0.87192 0.65320 0.18394
 C1699 C 0.86020 0.64015 0.16949
 N1700 N 0.85761 0.61811 0.17440
 C1701 C 0.88690 0.61350 0.22766
 C1702 C 0.89427 0.60603 0.24487
 C1703 C 0.90287 0.59736 0.26551
 N1704 N 0.92067 0.60716 0.27553
 N1705 N 0.92832 0.59945 0.29497
 C1706 C 0.91845 0.58168 0.30514
 N1707 N 0.90063 0.57190 0.29496
 N1708 N 0.89297 0.57960 0.27551
 N1709 N 0.36636 1.10945 0.19300
 C1710 C 0.37799 1.12257 0.20736
 N1711 N 0.38067 1.14454 0.20254
 N1712 N 0.37195 1.15315 0.18394
 C1713 C 0.36022 1.14010 0.16950
 N1714 N 0.35764 1.11806 0.17440
 C1715 C 0.38696 1.11344 0.22765
 C1716 C 0.39434 1.10596 0.24484
 C1717 C 0.40294 1.09730 0.26549
 N1718 N 0.42074 1.10710 0.27550
 N1719 N 0.42840 1.09939 0.29494
 C1720 C 0.41852 1.08162 0.30511
 N1721 N 0.40071 1.07184 0.29493
 N1722 N 0.39305 1.07954 0.27548
 N1723 N 0.35550 0.61931 0.70251
 C1724 C 0.37746 0.62204 0.70735
 N1725 N 0.39057 0.63370 0.69302
 N1726 N 0.38197 0.64239 0.67440
 C1727 C 0.35993 0.63975 0.66946
 N1728 N 0.34689 0.62800 0.68390
 C1729 C 0.38658 0.61309 0.72765
 C1730 C 0.39405 0.60572 0.74486
 C1731 C 0.40270 0.59713 0.76552
 N1732 N 0.42047 0.60701 0.77551
 N1733 N 0.42815 0.59936 0.79497
 C1734 C 0.41835 0.58156 0.80516
 N1735 N 0.40057 0.57170 0.79499
 N1736 N 0.39288 0.57934 0.77554
 N1737 N 1.10938 0.86629 0.69298
 C1738 C 1.12247 0.87794 0.70734
 N1739 N 1.14444 0.88067 0.70253
 N1740 N 1.15308 0.87198 0.68394
 C1741 C 1.14006 0.86023 0.66948
 N1742 N 1.11802 0.85760 0.67438
 C1743 C 1.11332 0.88689 0.72763
 C1744 C 1.10583 0.89426 0.74483
 C1745 C 1.09716 0.90286 0.76547
 N1746 N 1.10696 0.92066 0.77548
 N1747 N 1.09926 0.92831 0.79493
 C1748 C 1.08149 0.91844 0.80510
 N1749 N 1.07170 0.90063 0.79491
 N1750 N 1.07940 0.89297 0.77547
 N1751 N 1.13353 0.39059 0.19296
 C1752 C 1.12190 0.37746 0.20730
 N1753 N 1.11924 0.35549 0.20248
 N1754 N 1.12797 0.34688 0.18388
 C1755 C 1.13969 0.35994 0.16944
 N1756 N 1.14226 0.38199 0.17436
 C1757 C 1.11293 0.38657 0.22760
 C1758 C 1.10555 0.39404 0.24480
 C1759 C 1.09696 0.40271 0.26545
 N1760 N 1.07917 0.39290 0.27547
 N1761 N 1.07154 0.40060 0.29493
 C1762 C 1.08141 0.41838 0.30509
 N1763 N 1.09921 0.42816 0.29489
 N1764 N 1.10685 0.42047 0.27544
 N1765 N 0.63358 0.89053 0.19298
 C1766 C 0.62196 0.87740 0.20732
 N1767 N 0.61928 0.85543 0.20248
 N1768 N 0.62800 0.84684 0.18388
 C1769 C 0.63973 0.85990 0.16944
 N1770 N 0.64230 0.88194 0.17436
 C1771 C 0.61299 0.88651 0.22762
 C1772 C 0.60562 0.89397 0.24482
 C1773 C 0.59703 0.90263 0.26548
 N1774 N 0.57923 0.89283 0.27549
 N1775 N 0.57159 0.90054 0.29495
 C1776 C 0.58147 0.91830 0.30512
 N1777 N 0.59928 0.92808 0.29493
 N1778 N 0.60693 0.92039 0.27547
 N1779 N 0.63360 0.39044 0.69304
 C1780 C 0.62196 0.37731 0.70738
 N1781 N 0.61929 0.35534 0.70255
 N1782 N 0.62803 0.34674 0.68396
 C1783 C 0.63976 0.35979 0.66953
 N1784 N 0.64234 0.38184 0.67444
 C1785 C 0.61297 0.38643 0.72766
 C1786 C 0.60557 0.39390 0.74485
 C1787 C 0.59696 0.40258 0.76549
 N1788 N 0.57917 0.39277 0.77551
 N1789 N 0.57151 0.40048 0.79495
 C1790 C 0.58137 0.41827 0.80511
 N1791 N 0.59917 0.42806 0.79492
 N1792 N 0.60684 0.42035 0.77548
 N1793 N 1.29746 1.11926 1.14457
 C1794 C 1.29263 1.12196 1.12260
 N1795 N 1.30697 1.13362 1.10949
 N1796 N 1.32557 1.14233 1.11810
 C1797 C 1.33049 1.13973 1.14014
 N1798 N 1.31606 1.12797 1.15318
 C1799 C 1.27234 1.11299 1.11348
 C1800 C 1.25514 1.10561 1.10600
 C1801 C 1.23450 1.09702 1.09733
 N1802 N 1.22452 1.10690 1.07955
 N1803 N 1.20507 1.09924 1.07185
 C1804 C 1.19487 1.08145 1.08164
 N1805 N 1.20502 1.07159 1.09943
 N1806 N 1.22447 1.07923 1.10714
 N1807 N 1.29755 0.64447 0.61927
 C1808 C 1.29275 0.62249 0.62196
 N1809 N 1.30712 0.60939 0.63360
 N1810 N 1.32572 0.61803 0.64231
 C1811 C 1.33060 0.64007 0.63972
 N1812 N 1.31614 0.65310 0.62799
 C1813 C 1.27247 0.61334 0.61300
 C1814 C 1.25528 0.60585 0.60562
 C1815 C 1.23464 0.59718 0.59702
 N1816 N 1.22465 0.57942 0.60691
 N1817 N 1.20520 0.57172 0.59925
 C1818 C 1.19501 0.58151 0.58144
 N1819 N 1.20518 0.59928 0.57158
 N1820 N 1.22463 0.60698 0.57922
 N1821 N 0.80706 1.13364 0.60941
 C1822 C 0.79272 1.12198 0.62252
 N1823 N 0.79754 1.11928 0.64449
 N1824 N 0.81613 1.12801 0.65311
 C1825 C 0.83057 1.13976 0.64007
 N1826 N 0.82565 1.14236 0.61803
 C1827 C 0.77243 1.11300 0.61340
 C1828 C 0.75524 1.10562 0.60592
 C1829 C 0.73460 1.09700 0.59725
 N1830 N 0.72459 1.07921 0.60705
 N1831 N 0.70514 1.07155 0.59935
 C1832 C 0.69497 1.08141 0.58157
 N1833 N 0.70516 1.09922 0.57178
 N1834 N 0.72460 1.10689 0.57948
 N1835 N 0.79746 0.61928 1.14451
 C1836 C 0.79265 0.62196 1.12254
 N1837 N 0.80701 0.63361 1.10943
 N1838 N 0.82560 0.64233 1.11806
 C1839 C 0.83049 0.63975 1.14011
 N1840 N 0.81604 0.62801 1.15314
 C1841 C 0.77238 0.61299 1.11339
 C1842 C 0.75519 0.60561 1.10590
 C1843 C 0.73455 0.59700 1.09722
 N1844 N 0.72457 0.60689 1.07945
 N1845 N 0.70512 0.59923 1.07174
 C1846 C 0.69493 0.58142 1.08152
 N1847 N 0.70509 0.57155 1.09930
 N1848 N 0.72453 0.57921 1.10702
 N1849 N 1.29740 0.88063 0.85546
 C1850 C 1.29258 0.87792 0.87743
 N1851 N 1.30694 0.86629 0.89054
 N1852 N 1.32555 0.85759 0.88192
 C1853 C 1.33046 0.86020 0.85988
 N1854 N 1.31600 0.87193 0.84684
 C1855 C 1.27229 0.88687 0.88656
 C1856 C 1.25508 0.89424 0.89404
 C1857 C 1.23444 0.90284 0.90271
 N1858 N 1.22444 0.89294 0.92047
 N1859 N 1.20499 0.90060 0.92816
 C1860 C 1.19480 0.91841 0.91838
 N1861 N 1.20497 0.92828 0.90061
 N1862 N 1.22442 0.92063 0.89290
 N1863 N 1.30701 0.36626 0.39055
 C1864 C 1.29266 0.37790 0.37743
 N1865 N 1.29750 0.38061 0.35547
 N1866 N 1.31611 0.37192 0.34686
 C1867 C 1.33056 0.36019 0.35991
 N1868 N 1.32563 0.35757 0.38195
 C1869 C 1.27236 0.38685 0.38655
 C1870 C 1.25515 0.39421 0.39402
 C1871 C 1.23449 0.40281 0.40267
 N1872 N 1.22448 0.42060 0.39286
 N1873 N 1.20503 0.42825 0.40055
 C1874 C 1.19485 0.41838 0.41833
 N1875 N 1.20504 0.40058 0.42812
 N1876 N 1.22449 0.39292 0.42043
 N1877 N 0.79750 0.85540 0.38067
 C1878 C 0.79266 0.87736 0.37797
 N1879 N 0.80700 0.89049 0.36634
 N1880 N 0.82561 0.88189 0.35763
 C1881 C 0.83055 0.85986 0.36023
 N1882 N 0.81611 0.84680 0.37196
 C1883 C 0.77236 0.88647 0.38693
 C1884 C 0.75515 0.89393 0.39430
 C1885 C 0.73449 0.90258 0.40290
 N1886 N 0.72451 0.92036 0.39302
 N1887 N 0.70505 0.92804 0.40067
 C1888 C 0.69485 0.91824 0.41846
 N1889 N 0.70501 0.90045 0.42832
 N1890 N 0.72447 0.89276 0.42067
 N1891 N 0.79744 0.38068 0.85544
 C1892 C 0.79261 0.37797 0.87740
 N1893 N 0.80697 0.36634 0.89052
 N1894 N 0.82559 0.35766 0.88191
 C1895 C 0.83051 0.36027 0.85987
 N1896 N 0.81606 0.37200 0.84683
 C1897 C 0.77230 0.38690 0.88653
 C1898 C 0.75509 0.39425 0.89400
 C1899 C 0.73443 0.40283 0.90266
 N1900 N 0.72444 0.39293 0.92042
 N1901 N 0.70498 0.40057 0.92811
 C1902 C 0.69478 0.41837 0.91832
 N1903 N 0.70495 0.42825 0.90055
 N1904 N 0.72441 0.42062 0.89285
 N1905 N 0.69296 0.86647 1.10944
 C1906 C 0.70731 0.87811 1.12256
 N1907 N 0.70248 0.88079 1.14453
 N1908 N 0.68389 0.87206 1.15314
 C1909 C 0.66945 0.86032 1.14009
 N1910 N 0.67436 0.85774 1.11804
 C1911 C 0.72759 0.88709 1.11344
 C1912 C 0.74479 0.89447 1.10596
 C1913 C 0.76543 0.90307 1.09729
 N1914 N 0.77547 0.92085 1.10710
 N1915 N 0.79492 0.92849 1.09939
 C1916 C 0.80507 0.91863 1.08160
 N1917 N 0.79486 0.90084 1.07181
 N1918 N 0.77541 0.89319 1.07951
 N1919 N 0.69304 0.36632 0.60955
 C1920 C 0.70737 0.37798 0.62267
 N1921 N 0.70253 0.38068 0.64463
 N1922 N 0.68393 0.37195 0.65324
 C1923 C 0.66951 0.36019 0.64019
 N1924 N 0.67444 0.35759 0.61815
 C1925 C 0.72766 0.38696 0.61355
 C1926 C 0.74485 0.39435 0.60607
 C1927 C 0.76549 0.40296 0.59740
 N1928 N 0.77551 0.42075 0.60721
 N1929 N 0.79495 0.42840 0.59950
 C1930 C 0.80511 0.41855 0.58171
 N1931 N 0.79492 0.40075 0.57192
 N1932 N 0.77547 0.39308 0.57962
 N1933 N 0.19291 0.89062 0.63369
 C1934 C 0.20730 0.87753 0.62207
 N1935 N 0.20251 0.85555 0.61936
 N1936 N 0.18392 0.84690 0.62805
 C1937 C 0.16944 0.85992 0.63978
 N1938 N 0.17431 0.88197 0.64238
 C1939 C 0.22758 0.88668 0.61312
 C1940 C 0.24478 0.89418 0.60576
 C1941 C 0.26542 0.90285 0.59716
 N1942 N 0.27542 0.89307 0.57935
 N1943 N 0.29487 0.90077 0.57170
 C1944 C 0.30505 0.91853 0.58159
 N1945 N 0.29488 0.92829 0.59942
 N1946 N 0.27543 0.92059 0.60707
 N1947 N 0.20247 0.38081 1.14461
 C1948 C 0.20733 0.37812 1.12264
 N1949 N 0.19301 0.36647 1.10951
 N1950 N 0.17439 0.35775 1.11809
 C1951 C 0.16945 0.36034 1.14013
 N1952 N 0.18387 0.37208 1.15319
 C1953 C 0.22763 0.38710 1.11355
 C1954 C 0.24483 0.39448 1.10609
 C1955 C 0.26549 0.40307 1.09743
 N1956 N 0.27546 0.39320 1.07965
 N1957 N 0.29492 0.40085 1.07196
 C1958 C 0.30513 0.41863 1.08178
 N1959 N 0.29498 0.42847 1.09957
 N1960 N 0.27553 0.42083 1.10727
 N1961 N 0.70246 1.14456 0.88073
 C1962 C 0.70731 1.12260 0.87804
 N1963 N 0.69297 1.10946 0.86640
 N1964 N 0.67436 1.11805 0.85769
 C1965 C 0.66942 1.14009 0.86028
 N1966 N 0.68385 1.15315 0.87201
 C1967 C 0.72761 1.11349 0.88700
 C1968 C 0.74482 1.10603 0.89437
 C1969 C 0.76548 1.09738 0.90295
 N1970 N 0.77547 1.07962 0.89305
 N1971 N 0.79493 1.07193 0.90070
 C1972 C 0.80513 1.08172 0.91850
 N1973 N 0.79496 1.09949 0.92837
 N1974 N 0.77550 1.10719 0.92073
 N1975 N 0.70250 0.64456 0.38074
 C1976 C 0.70735 0.62260 0.37805
 N1977 N 0.69303 0.60947 0.36640
 N1978 N 0.67441 0.61806 0.35768
 C1979 C 0.66947 0.64009 0.36027
 N1980 N 0.68389 0.65315 0.37202
 C1981 C 0.72765 0.61350 0.38701
 C1982 C 0.74486 0.60604 0.39439
 C1983 C 0.76551 0.59738 0.40298
 N1984 N 0.77550 0.57961 0.39310
 N1985 N 0.79495 0.57192 0.40075
 C1986 C 0.80515 0.58172 0.41854
 N1987 N 0.79499 0.59950 0.42840
 N1988 N 0.77554 0.60720 0.42076
 N1989 N 0.19304 1.13377 0.39054
 C1990 C 0.20741 1.12213 0.37744
 N1991 N 0.20260 1.11942 0.35547
 N1992 N 0.18400 1.12810 0.34684
 C1993 C 0.16953 1.13983 0.35987
 N1994 N 0.17443 1.14245 0.38191
 C1995 C 0.22770 1.11319 0.38658
 C1996 C 0.24490 1.10583 0.39407
 C1997 C 0.26555 1.09723 0.40274
 N1998 N 0.27556 1.07943 0.39294
 N1999 N 0.29500 1.07177 0.40064
 C2000 C 0.30518 1.08164 0.41841
 N2001 N 0.29500 1.09946 0.42819
 N2002 N 0.27556 1.10713 0.42049
 N2003 N 0.20250 0.64461 0.88076
 C2004 C 0.20734 0.62264 0.87807
 N2005 N 0.19300 0.60951 0.86643
 N2006 N 0.17440 0.61812 0.85770
 C2007 C 0.16948 0.64016 0.86028
 N2008 N 0.18391 0.65321 0.87203
 C2009 C 0.22763 0.61352 0.88705
 C2010 C 0.24483 0.60605 0.89443
 C2011 C 0.26547 0.59738 0.90303
 N2012 N 0.27546 0.57961 0.89315
 N2013 N 0.29490 0.57191 0.90080
 C2014 C 0.30510 0.58169 0.91860
 N2015 N 0.29494 0.59948 0.92847
 N2016 N 0.27550 0.60719 0.92082
 N2017 N 1.14458 1.29755 1.11927
 C2018 C 1.12261 1.29271 1.12195
 N2019 N 1.10948 1.30706 1.13358
 N2020 N 1.11807 1.32567 1.14229
 C2021 C 1.14011 1.33060 1.13971
 N2022 N 1.15317 1.31616 1.12799
 C2023 C 1.11350 1.27241 1.11299
 C2024 C 1.10604 1.25521 1.10563
 C2025 C 1.09738 1.23455 1.09704
 N2026 N 1.07961 1.22456 1.10694
 N2027 N 1.07191 1.20511 1.09929
 C2028 C 1.08171 1.19491 1.08150
 N2029 N 1.09948 1.20506 1.07163
 N2030 N 1.10719 1.22452 1.07926
 N2031 N 1.11936 0.79745 0.64449
 C2032 C 1.12208 0.79264 0.62252
 N2033 N 1.13371 0.80701 0.60943
 N2034 N 1.14238 0.82563 0.61806
 C2035 C 1.13976 0.83053 0.64010
 N2036 N 1.12803 0.81605 0.65313
 C2037 C 1.11316 0.77234 0.61338
 C2038 C 1.10581 0.75513 0.60589
 C2039 C 1.09723 0.73448 0.59723
 N2040 N 1.10713 0.72448 0.57948
 N2041 N 1.09949 0.70502 0.57178
 C2042 C 1.08168 0.69483 0.58156
 N2043 N 1.07180 0.70501 0.59933
 N2044 N 1.07943 0.72446 0.60703
 N2045 N 0.60954 1.30691 0.63366
 C2046 C 0.62267 1.29256 0.62203
 N2047 N 0.64464 1.29740 0.61935
 N2048 N 0.65323 1.31600 0.62807
 C2049 C 0.64017 1.33044 0.63980
 N2050 N 0.61813 1.32552 0.64237
 C2051 C 0.61356 1.27227 0.61306
 C2052 C 0.60609 1.25507 0.60569
 C2053 C 0.59742 1.23441 0.59709
 N2054 N 0.60723 1.22440 0.57930
 N2055 N 0.59952 1.20495 0.57166
 C2056 C 0.58175 1.19478 0.58152
 N2057 N 0.57196 1.20497 0.59933
 N2058 N 0.57966 1.22442 0.60698
 N2059 N 0.64462 0.79753 1.11924
 C2060 C 0.62265 0.79267 1.12193
 N2061 N 0.60952 0.80700 1.13357
 N2062 N 0.61810 0.82561 1.14229
 C2063 C 0.64014 0.83056 1.13970
 N2064 N 0.65320 0.81613 1.12796
 C2065 C 0.61356 0.77237 1.11295
 C2066 C 0.60610 0.75517 1.10558
 C2067 C 0.59744 0.73451 1.09698
 N2068 N 0.57967 0.72453 1.10687
 N2069 N 0.57197 0.70508 1.09922
 C2070 C 0.58177 0.69487 1.08143
 N2071 N 0.59956 0.70503 1.07157
 N2072 N 0.60726 0.72448 1.07921
 N2073 N 0.85551 1.29752 0.88066
 C2074 C 0.87749 1.29273 0.87798
 N2075 N 0.89059 1.30711 0.86636
 N2076 N 0.88195 1.32571 0.85765
 C2077 C 0.85990 1.33059 0.86024
 N2078 N 0.84687 1.31612 0.87196
 C2079 C 0.88663 1.27245 0.88693
 C2080 C 0.89413 1.25525 0.89430
 C2081 C 0.90280 1.23461 0.90289
 N2082 N 0.92055 1.22461 0.89299
 N2083 N 0.92825 1.20516 0.90065
 C2084 C 0.91848 1.19497 0.91846
 N2085 N 0.90071 1.20515 0.92834
 N2086 N 0.89301 1.22459 0.92070
 N2087 N 0.88076 0.79750 0.35548
 C2088 C 0.87807 0.79269 0.37745
 N2089 N 0.86642 0.80704 0.39055
 N2090 N 0.85770 0.82564 0.38193
 C2091 C 0.86030 0.83054 0.35988
 N2092 N 0.87204 0.81609 0.34685
 C2093 C 0.88703 0.77240 0.38659
 C2094 C 0.89441 0.75521 0.39408
 C2095 C 0.90300 0.73456 0.40275
 N2096 N 0.89311 0.72458 0.42052
 N2097 N 0.90077 0.70513 0.42822
 C2098 C 0.91857 0.69494 0.41844
 N2099 N 0.92844 0.70510 0.40066
 N2100 N 0.92079 0.72454 0.39295
 N2101 N 0.35556 1.29743 0.38070
 C2102 C 0.37753 1.29264 0.37801
 N2103 N 0.39063 1.30702 0.36639
 N2104 N 0.38200 1.32562 0.35769
 C2105 C 0.35995 1.33050 0.36028
 N2106 N 0.34692 1.31603 0.37200
 C2107 C 0.38668 1.27235 0.38695
 C2108 C 0.39417 1.25515 0.39432
 C2109 C 0.40285 1.23451 0.40291
 N2110 N 0.42059 1.22450 0.39300
 N2111 N 0.42829 1.20505 0.40065
 C2112 C 0.41852 1.19487 0.41848
 N2113 N 0.40077 1.20505 0.42836
 N2114 N 0.39306 1.22450 0.42072
 N2115 N 0.39051 0.80700 0.86634
 C2116 C 0.37740 0.79264 0.87798
 N2117 N 0.35543 0.79745 0.88067
 N2118 N 0.34680 0.81604 0.87197
 C2119 C 0.35983 0.83050 0.86023
 N2120 N 0.38188 0.82560 0.85763
 C2121 C 0.38655 0.77235 0.88694
 C2122 C 0.39403 0.75516 0.89431
 C2123 C 0.40271 0.73452 0.90291
 N2124 N 0.39292 0.72451 0.92072
 N2125 N 0.40063 0.70507 0.92837
 C2126 C 0.41840 0.69490 0.91850
 N2127 N 0.42817 0.70508 0.90068
 N2128 N 0.42047 0.72452 0.89302
 N2129 N 1.13359 0.69301 0.89053
 C2130 C 1.12195 0.70736 0.87741
 N2131 N 1.11928 0.70253 0.85543
 N2132 N 1.12801 0.68393 0.84683
 C2133 C 1.13974 0.66950 0.85988
 N2134 N 1.14231 0.67441 0.88193
 C2135 C 1.11298 0.72765 0.88652
 C2136 C 1.10560 0.74484 0.89400
 C2137 C 1.09699 0.76549 0.90266
 N2138 N 1.07920 0.77550 0.89286
 N2139 N 1.07155 0.79495 0.90057
 C2140 C 1.08141 0.80512 0.91834
 N2141 N 1.09922 0.79493 0.92813
 N2142 N 1.10688 0.77548 0.92043
 N2143 N 1.10944 0.19298 0.36628
 C2144 C 1.12252 0.20736 0.37792
 N2145 N 1.14450 0.20258 0.38062
 N2146 N 1.15315 0.18398 0.37193
 C2147 C 1.14013 0.16951 0.36020
 N2148 N 1.11808 0.17438 0.35759
 C2149 C 1.11336 0.22764 0.38686
 C2150 C 1.10586 0.24484 0.39423
 C2151 C 1.09719 0.26548 0.40284
 N2152 N 1.10698 0.27548 0.42064
 N2153 N 1.09928 0.29493 0.42830
 C2154 C 1.08151 0.30510 0.41843
 N2155 N 1.07173 0.29492 0.40061
 N2156 N 1.07943 0.27548 0.39295
 N2157 N 0.63355 0.69291 0.39055
 C2158 C 0.62191 0.70726 0.37743
 N2159 N 0.61924 0.70244 0.35546
 N2160 N 0.62797 0.68385 0.34685
 C2161 C 0.63971 0.66941 0.35989
 N2162 N 0.64229 0.67432 0.38194
 C2163 C 0.61293 0.72754 0.38655
 C2164 C 0.60555 0.74474 0.39403
 C2165 C 0.59695 0.76538 0.40270
 N2166 N 0.57916 0.77541 0.39290
 N2167 N 0.57152 0.79485 0.40061
 C2168 C 0.58139 0.80501 0.41839
 N2169 N 0.59919 0.79481 0.42817
 N2170 N 0.60684 0.77537 0.42047
 N2171 N 0.61919 0.20244 0.85545
 C2172 C 0.62187 0.20727 0.87742
 N2173 N 0.63352 0.19293 0.89054
 N2174 N 0.64225 0.17433 0.88193
 C2175 C 0.63966 0.16941 0.85989
 N2176 N 0.62792 0.18384 0.84684
 C2177 C 0.61290 0.22756 0.88653
 C2178 C 0.60552 0.24475 0.89401
 C2179 C 0.59692 0.26540 0.90268
 N2180 N 0.60682 0.27539 0.92044
 N2181 N 0.59917 0.29484 0.92814
 C2182 C 0.58136 0.30503 0.91836
 N2183 N 0.57148 0.29487 0.90059
 N2184 N 0.57912 0.27542 0.89288
 N2185 N 0.85536 0.70254 1.11930
 C2186 C 0.87732 0.70739 1.12201
 N2187 N 0.89044 0.69306 1.13366
 N2188 N 0.88185 0.67444 1.14237
 C2189 C 0.85981 0.66951 1.13976
 N2190 N 0.84676 0.68393 1.12802
 C2191 C 0.88643 0.72768 1.11303
 C2192 C 0.89390 0.74488 1.10565
 C2193 C 0.90256 0.76553 1.09705
 N2194 N 0.92034 0.77551 1.10692
 N2195 N 0.92804 0.79496 1.09926
 C2196 C 0.91823 0.80516 1.08147
 N2197 N 0.90043 0.79501 1.07163
 N2198 N 0.89273 0.77556 1.07928
 N2199 N 0.85548 0.20255 0.61927
 C2200 C 0.87745 0.20738 0.62198
 N2201 N 0.89056 0.19303 0.63362
 N2202 N 0.88195 0.17442 0.64232
 C2203 C 0.85992 0.16950 0.63971
 N2204 N 0.84687 0.18394 0.62797
 C2205 C 0.88657 0.22769 0.61304
 C2206 C 0.89404 0.24489 0.60568
 C2207 C 0.90270 0.26555 0.59709
 N2208 N 0.92047 0.27554 0.60699
 N2209 N 0.92816 0.29499 0.59935
 C2210 C 0.91837 0.30519 0.58155
 N2211 N 0.90060 0.29503 0.57167
 N2212 N 0.89289 0.27558 0.57931
 N2213 N 0.36637 0.69297 0.60942
 C2214 C 0.37798 0.70735 0.62253
 N2215 N 0.38067 0.70254 0.64450
 N2216 N 0.37199 0.68393 0.65312
 C2217 C 0.36029 0.66946 0.64008
 N2218 N 0.35769 0.67435 0.61804
 C2219 C 0.38691 0.72765 0.61339
 C2220 C 0.39425 0.74486 0.60591
 C2221 C 0.40283 0.76552 0.59725
 N2222 N 0.42064 0.77553 0.60703
 N2223 N 0.42827 0.79499 0.59933
 C2224 C 0.41837 0.80517 0.58158
 N2225 N 0.40054 0.79499 0.57182
 N2226 N 0.39290 0.77553 0.57951
 N2227 N 0.39049 0.19299 1.13367
 C2228 C 0.37737 0.20734 1.12204
 N2229 N 0.35540 0.20251 1.11935
 N2230 N 0.34679 0.18391 1.12805
 C2231 C 0.35984 0.16946 1.13978
 N2232 N 0.38188 0.17437 1.14237
 C2233 C 0.38649 0.22764 1.11309
 C2234 C 0.39397 0.24484 1.10573
 C2235 C 0.40264 0.26550 1.09715
 N2236 N 0.39282 0.27553 1.07937
 N2237 N 0.40053 0.29498 1.07173
 C2238 C 0.41832 0.30514 1.08159
 N2239 N 0.42811 0.29493 1.09939
 N2240 N 0.42041 0.27548 1.10703
 N2241 N 1.14454 1.11933 0.70251
 C2242 C 1.12256 1.12203 0.70733
 N2243 N 1.10945 1.13366 0.69297
 N2244 N 1.11806 1.14237 0.67436
 C2245 C 1.14011 1.13977 0.66946
 N2246 N 1.15315 1.12804 0.68391
 C2247 C 1.11344 1.11307 0.72762
 C2248 C 1.10596 1.10570 0.74482
 C2249 C 1.09729 1.09710 0.76547
 N2250 N 1.07954 1.10701 0.77547
 N2251 N 1.07184 1.09936 0.79492
 C2252 C 1.08161 1.08154 0.80510
 N2253 N 1.09937 1.07165 0.79492
 N2254 N 1.10707 1.07930 0.77548
 N2255 N 1.11932 0.64452 0.20251
 C2256 C 1.12203 0.62255 0.20733
 N2257 N 1.13368 0.60945 0.19297
 N2258 N 1.14239 0.61808 0.17437
 C2259 C 1.13977 0.64012 0.16947
 N2260 N 1.12802 0.65315 0.18392
 C2261 C 1.11307 0.61341 0.22761
 C2262 C 1.10570 0.60592 0.24481
 C2263 C 1.09710 0.59725 0.26545
 N2264 N 1.10699 0.57949 0.27544
 N2265 N 1.09933 0.57178 0.29489
 C2266 C 1.08153 0.58157 0.30508
 N2267 N 1.07166 0.59935 0.29492
 N2268 N 1.07931 0.60706 0.27547
 N2269 N 0.64454 1.11925 0.20250
 C2270 C 0.62257 1.12193 0.20733
 N2271 N 0.60945 1.13356 0.19298
 N2272 N 0.61806 1.14227 0.17437
 C2273 C 0.64010 1.13968 0.16946
 N2274 N 0.65315 1.12796 0.18390
 C2275 C 0.61345 1.11297 0.22762
 C2276 C 0.60598 1.10560 0.24483
 C2277 C 0.59732 1.09701 0.26548
 N2278 N 0.57957 1.10691 0.27548
 N2279 N 0.57187 1.09926 0.29493
 C2280 C 0.58165 1.08144 0.30512
 N2281 N 0.59942 1.07156 0.29494
 N2282 N 0.60712 1.07921 0.27549
 N2283 N 0.64452 0.61931 0.70255
 C2284 C 0.62254 0.62199 0.70735
 N2285 N 0.60943 0.63361 0.69298
 N2286 N 0.61805 0.64232 0.67438
 C2287 C 0.64010 0.63974 0.66950
 N2288 N 0.65314 0.62802 0.68396
 C2289 C 0.61339 0.61302 0.72763
 C2290 C 0.60590 0.60565 0.74483
 C2291 C 0.59722 0.59705 0.76547
 N2292 N 0.57948 0.60697 0.77548
 N2293 N 0.57177 0.59931 0.79492
 C2294 C 0.58153 0.58148 0.80509
 N2295 N 0.59928 0.57159 0.79491
 N2296 N 0.60700 0.57923 0.77547
 N2297 N 0.85547 0.88072 0.70246
 C2298 C 0.87744 0.87805 0.70729
 N2299 N 0.89057 0.86643 0.69294
 N2300 N 0.88198 0.85770 0.67434
 C2301 C 0.85993 0.86027 0.66942
 N2302 N 0.84687 0.87200 0.68386
 C2303 C 0.88655 0.88702 0.72759
 C2304 C 0.89401 0.89440 0.74479
 C2305 C 0.90267 0.90299 0.76544
 N2306 N 0.92042 0.89309 0.77545
 N2307 N 0.92811 0.90075 0.79490
 C2308 C 0.91833 0.91856 0.80508
 N2309 N 0.90056 0.92844 0.79490
 N2310 N 0.89287 0.92080 0.77545
 N2311 N 0.88063 0.35554 0.20254
 C2312 C 0.87790 0.37751 0.20737
 N2313 N 0.86625 0.39060 0.19301
 N2314 N 0.85757 0.38198 0.17440
 C2315 C 0.86021 0.35994 0.16949
 N2316 N 0.87195 0.34691 0.18394
 C2317 C 0.88684 0.38664 0.22767
 C2318 C 0.89420 0.39413 0.24487
 C2319 C 0.90280 0.40279 0.26552
 N2320 N 0.89291 0.42055 0.27552
 N2321 N 0.90057 0.42824 0.29497
 C2322 C 0.91837 0.41845 0.30515
 N2323 N 0.92824 0.40068 0.29498
 N2324 N 0.92059 0.39298 0.27553
 N2325 N 0.36621 0.89056 0.19301
 C2326 C 0.37786 0.87746 0.20737
 N2327 N 0.38058 0.85550 0.20255
 N2328 N 0.37189 0.84687 0.18396
 C2329 C 0.36014 0.85989 0.16950
 N2330 N 0.35752 0.88193 0.17440
 C2331 C 0.38682 0.88661 0.22765
 C2332 C 0.39419 0.89409 0.24485
 C2333 C 0.40280 0.90276 0.26549
 N2334 N 0.42059 0.89295 0.27550
 N2335 N 0.42825 0.90065 0.29495
 C2336 C 0.41839 0.91843 0.30512
 N2337 N 0.40059 0.92822 0.29493
 N2338 N 0.39292 0.92053 0.27549
 N2339 N 0.39051 0.36633 0.69306
 C2340 C 0.37738 0.37797 0.70739
 N2341 N 0.35541 0.38065 0.70254
 N2342 N 0.34682 0.37194 0.68393
 C2343 C 0.35989 0.36020 0.66950
 N2344 N 0.38193 0.35762 0.67444
 C2345 C 0.38647 0.38694 0.72769
 C2346 C 0.39393 0.39432 0.74489
 C2347 C 0.40258 0.40292 0.76555
 N2348 N 0.39277 0.42071 0.77556
 N2349 N 0.40047 0.42836 0.79501
 C2350 C 0.41824 0.41849 0.80519
 N2351 N 0.42803 0.40068 0.79500
 N2352 N 0.42034 0.39303 0.77555
 N2353 N 1.13361 0.89052 1.30696
 C2354 C 1.12198 0.87740 1.29261
 N2355 N 1.11930 0.85543 1.29743
 N2356 N 1.12801 0.84682 1.31603
 C2357 C 1.13974 0.85987 1.33048
 N2358 N 1.14233 0.88192 1.32556
 C2359 C 1.11301 0.88652 1.27232
 C2360 C 1.10563 0.89399 1.25512
 C2361 C 1.09702 0.90265 1.23447
 N2362 N 1.07924 0.89284 1.22445
 N2363 N 1.07158 0.90054 1.20500
 C2364 C 1.08144 0.91833 1.19484
 N2365 N 1.09924 0.92812 1.20504
 N2366 N 1.10690 0.92043 1.22448
 N2367 N 1.10946 0.36633 0.80700
 C2368 C 1.12257 0.37798 0.79266
 N2369 N 1.14453 0.38071 0.79750
 N2370 N 1.15314 0.37203 0.81611
 C2371 C 1.14010 0.36028 0.83055
 N2372 N 1.11807 0.35764 0.82562
 C2373 C 1.11344 0.38693 0.77236
 C2374 C 1.10597 0.39429 0.75515
 C2375 C 1.09732 0.40288 0.73450
 N2376 N 1.10714 0.42066 0.72447
 N2377 N 1.09945 0.42830 0.70502
 C2378 C 1.08166 0.41844 0.69485
 N2379 N 1.07186 0.40065 0.70505
 N2380 N 1.07955 0.39300 0.72451
 N2381 N 0.61929 0.85545 0.79747
 C2382 C 0.62196 0.87743 0.79266
 N2383 N 0.63357 0.89055 0.80702
 N2384 N 0.64228 0.88194 0.82563
 C2385 C 0.63970 0.85990 0.83053
 N2386 N 0.62799 0.84684 0.81608
 C2387 C 0.61300 0.88655 0.77236
 C2388 C 0.60563 0.89402 0.75516
 C2389 C 0.59705 0.90268 0.73451
 N2390 N 0.60696 0.92042 0.72450
 N2391 N 0.59932 0.92812 0.70504
 C2392 C 0.58150 0.91835 0.69486
 N2393 N 0.57160 0.90060 0.70504
 N2394 N 0.57924 0.89290 0.72450
 N2395 N 0.60951 0.36625 1.30697
 C2396 C 0.62261 0.37790 1.29262
 N2397 N 0.64458 0.38062 1.29745
 N2398 N 0.65319 0.37193 1.31605
 C2399 C 0.64016 0.36018 1.33050
 N2400 N 0.61812 0.35755 1.32558
 C2401 C 0.61348 0.38685 1.27233
 C2402 C 0.60600 0.39422 1.25513
 C2403 C 0.59733 0.40282 1.23448
 N2404 N 0.60713 0.42061 1.22446
 N2405 N 0.59943 0.42826 1.20501
 C2406 C 0.58165 0.41839 1.19485
 N2407 N 0.57187 0.40058 1.20504
 N2408 N 0.57957 0.39293 1.22449
 N2409 N 0.89057 1.13377 1.30699
 C2410 C 0.87748 1.12213 1.29263
 N2411 N 0.85551 1.11940 1.29744
 N2412 N 0.84688 1.12808 1.31604
 C2413 C 0.85990 1.13983 1.33050
 N2414 N 0.88194 1.14246 1.32560
 C2415 C 0.88663 1.11318 1.27234
 C2416 C 0.89412 1.10581 1.25514
 C2417 C 0.90279 1.09721 1.23450
 N2418 N 0.89299 1.07941 1.22449
 N2419 N 0.90070 1.07176 1.20504
 C2420 C 0.91846 1.08163 1.19487
 N2421 N 0.92824 1.09945 1.20505
 N2422 N 0.92054 1.10711 1.22449
 N2423 N 0.88070 0.64458 0.79748
 C2424 C 0.87804 0.62260 0.79266
 N2425 N 0.86641 0.60947 0.80701
 N2426 N 0.85768 0.61808 0.82560
 C2427 C 0.86024 0.64013 0.83051
 N2428 N 0.87197 0.65318 0.81607
 C2429 C 0.88703 0.61348 0.77238
 C2430 C 0.89442 0.60600 0.75518
 C2431 C 0.90302 0.59733 0.73454
 N2432 N 0.89312 0.57958 0.72455
 N2433 N 0.90078 0.57187 0.70510
 C2434 C 0.91860 0.58164 0.69492
 N2435 N 0.92848 0.59941 0.70509
 N2436 N 0.92083 0.60712 0.72453
 N2437 N 0.36639 1.10949 0.80701
 C2438 C 0.37802 1.12261 0.79267
 N2439 N 0.38070 1.14458 0.79751
 N2440 N 0.37198 1.15319 0.81610
 C2441 C 0.36024 1.14013 0.83054
 N2442 N 0.35766 1.11809 0.82562
 C2443 C 0.38700 1.11350 0.77238
 C2444 C 0.39438 1.10602 0.75518
 C2445 C 0.40297 1.09735 0.73454
 N2446 N 0.42078 1.10714 0.72452
 N2447 N 0.42843 1.09942 0.70508
 C2448 C 0.41854 1.08166 0.69491
 N2449 N 0.40073 1.07189 0.70510
 N2450 N 0.39307 1.07959 0.72454
 N2451 N 0.38084 0.64455 1.29759
 C2452 C 0.37817 0.62258 1.29275
 N2453 N 0.36653 0.60945 1.30709
 N2454 N 0.35780 0.61804 1.32569
 C2455 C 0.36037 0.64008 1.33061
 N2456 N 0.37211 0.65315 1.31618
 C2457 C 0.38715 0.61347 1.27246
 C2458 C 0.39453 0.60601 1.25526
 C2459 C 0.40313 0.59735 1.23461
 N2460 N 0.39325 0.57957 1.22463
 N2461 N 0.40090 0.57188 1.20517
 C2462 C 0.41869 0.58169 1.19497
 N2463 N 0.42854 0.59948 1.20512
 N2464 N 0.42090 0.60718 1.22457
 N2465 N 1.13366 1.30707 0.89060
 C2466 C 1.12205 1.29269 0.87749
 N2467 N 1.11936 1.29749 0.85551
 N2468 N 1.12805 1.31610 0.84689
 C2469 C 1.13975 1.33057 0.85993
 N2470 N 1.14234 1.32568 0.88198
 C2471 C 1.11312 1.27239 0.88662
 C2472 C 1.10576 1.25518 0.89411
 C2473 C 1.09718 1.23453 0.90277
 N2474 N 1.07937 1.22453 0.89298
 N2475 N 1.07173 1.20507 0.90067
 C2476 C 1.08162 1.19489 0.91843
 N2477 N 1.09944 1.20506 0.92820
 N2478 N 1.10709 1.22452 0.92051
 N2479 N 1.10947 0.80699 0.36632
 C2480 C 1.12259 0.79264 0.37795
 N2481 N 1.14456 0.79747 0.38064
 N2482 N 1.15317 0.81608 0.37194
 C2483 C 1.14012 0.83052 0.36020
 N2484 N 1.11808 0.82560 0.35761
 C2485 C 1.11347 0.77235 0.38691
 C2486 C 1.10600 0.75514 0.39428
 C2487 C 1.09734 0.73449 0.40288
 N2488 N 1.10715 0.72447 0.42066
 N2489 N 1.09945 0.70502 0.42831
 C2490 C 1.08168 0.69486 0.41845
 N2491 N 1.07188 0.70505 0.40064
 N2492 N 1.07958 0.72450 0.39299
 N2493 N 0.63374 1.30696 0.39054
 C2494 C 0.62212 1.29259 0.37744
 N2495 N 0.61942 1.29740 0.35547
 N2496 N 0.62810 1.31600 0.34684
 C2497 C 0.63982 1.33047 0.35988
 N2498 N 0.64243 1.32558 0.38192
 C2499 C 0.61318 1.27229 0.38658
 C2500 C 0.60582 1.25509 0.39406
 C2501 C 0.59723 1.23444 0.40273
 N2502 N 0.57942 1.22444 0.39294
 N2503 N 0.57178 1.20499 0.40064
 C2504 C 0.58166 1.19481 0.41840
 N2505 N 0.59949 1.20498 0.42817
 N2506 N 0.60714 1.22444 0.42048
 N2507 N 0.60945 0.80700 0.86634
 C2508 C 0.62257 0.79265 0.87798
 N2509 N 0.64453 0.79749 0.88069
 N2510 N 0.65313 0.81610 0.87199
 C2511 C 0.64009 0.83054 0.86025
 N2512 N 0.61805 0.82561 0.85764
 C2513 C 0.61345 0.77235 0.88693
 C2514 C 0.60598 0.75514 0.89429
 C2515 C 0.59732 0.73449 0.90288
 N2516 N 0.60714 0.72445 0.92066
 N2517 N 0.59944 0.70500 0.92829
 C2518 C 0.58165 0.69484 0.91843
 N2519 N 0.57185 0.70505 0.90064
 N2520 N 0.57955 0.72450 0.89299
 N2521 N 0.85552 1.29752 1.11933
 C2522 C 0.87750 1.29272 1.12204
 N2523 N 0.89059 1.30709 1.13368
 N2524 N 0.88195 1.32569 1.14238
 C2525 C 0.85990 1.33058 1.13977
 N2526 N 0.84688 1.31611 1.12803
 C2527 C 0.88665 1.27244 1.11309
 C2528 C 0.89414 1.25525 1.10571
 C2529 C 0.90282 1.23461 1.09711
 N2530 N 0.92058 1.22461 1.10700
 N2531 N 0.92827 1.20516 1.09934
 C2532 C 0.91849 1.19498 1.08152
 N2533 N 0.90072 1.20515 1.07166
 N2534 N 0.89302 1.22460 1.07931
 N2535 N 0.86649 0.80701 0.60944
 C2536 C 0.87813 0.79268 0.62256
 N2537 N 0.88082 0.79751 0.64453
 N2538 N 0.87209 0.81611 0.65313
 C2539 C 0.86034 0.83054 0.64008
 N2540 N 0.85776 0.82561 0.61804
 C2541 C 0.88711 0.77238 0.61345
 C2542 C 0.89449 0.75518 0.60598
 C2543 C 0.90309 0.73454 0.59732
 N2544 N 0.92088 0.72451 0.60713
 N2545 N 0.92852 0.70506 0.59943
 C2546 C 0.91865 0.69490 0.58165
 N2547 N 0.90086 0.70510 0.57186
 N2548 N 0.89320 0.72455 0.57955
 N2549 N 0.38077 1.29745 0.64458
 C2550 C 0.37809 1.29262 0.62261
 N2551 N 0.36646 1.30697 0.60949
 N2552 N 0.35773 1.32557 0.61809
 C2553 C 0.36031 1.33048 0.64014
 N2554 N 0.37204 1.31604 0.65319
 C2555 C 0.38706 1.27233 0.61349
 C2556 C 0.39444 1.25514 0.60601
 C2557 C 0.40303 1.23449 0.59733
 N2558 N 0.39314 1.22450 0.57957
 N2559 N 0.40079 1.20506 0.57186
 C2560 C 0.41860 1.19486 0.58164
 N2561 N 0.42847 1.20502 0.59942
 N2562 N 0.42083 1.22447 0.60713
 N2563 N 0.39054 0.80706 1.13370
 C2564 C 0.37746 0.79268 1.12207
 N2565 N 0.35548 0.79746 1.11936
 N2566 N 0.34683 0.81605 1.12805
 C2567 C 0.35984 0.83053 1.13978
 N2568 N 0.38189 0.82566 1.14239
 C2569 C 0.38662 0.77240 1.11313
 C2570 C 0.39413 0.75520 1.10576
 C2571 C 0.40281 0.73456 1.09716
 N2572 N 0.39302 0.72455 1.07936
 N2573 N 0.40074 0.70511 1.07172
 C2574 C 0.41851 0.69494 1.08159
 N2575 N 0.42829 0.70513 1.09940
 N2576 N 0.42058 0.72458 1.10706
 N2577 N 0.85534 0.70253 0.88066
 C2578 C 0.87731 0.70737 0.87798
 N2579 N 0.89045 0.69303 0.86636
 N2580 N 0.88186 0.67441 0.85765
 C2581 C 0.85982 0.66948 0.86023
 N2582 N 0.84675 0.68392 0.87195
 C2583 C 0.88642 0.72768 0.88694
 C2584 C 0.89388 0.74489 0.89431
 C2585 C 0.90254 0.76554 0.90289
 N2586 N 0.92031 0.77553 0.89300
 N2587 N 0.92801 0.79498 0.90065
 C2588 C 0.91822 0.80518 0.91844
 N2589 N 0.90044 0.79502 0.92831
 N2590 N 0.89273 0.77557 0.92067
 N2591 N 0.88061 0.20260 0.35550
 C2592 C 0.87788 0.20740 0.37748
 N2593 N 0.86625 0.19302 0.39057
 N2594 N 0.85758 0.17441 0.38193
 C2595 C 0.86020 0.16952 0.35989
 N2596 N 0.87193 0.18400 0.34687
 C2597 C 0.88682 0.22770 0.38663
 C2598 C 0.89417 0.24490 0.39412
 C2599 C 0.90277 0.26555 0.40279
 N2600 N 0.89286 0.27555 0.42054
 N2601 N 0.90052 0.29500 0.42823
 C2602 C 0.91834 0.30518 0.41846
 N2603 N 0.92823 0.29500 0.40070
 N2604 N 0.92058 0.27555 0.39300
 N2605 N 0.39058 0.69297 0.36649
 C2606 C 0.37744 0.70731 0.37811
 N2607 N 0.35547 0.70247 0.38078
 N2608 N 0.34688 0.68387 0.37206
 C2609 C 0.35995 0.66943 0.36035
 N2610 N 0.38199 0.67435 0.35778
 C2611 C 0.38654 0.72762 0.38707
 C2612 C 0.39400 0.74483 0.39443
 C2613 C 0.40265 0.76549 0.40301
 N2614 N 0.39283 0.77553 0.42079
 N2615 N 0.40052 0.79499 0.42842
 C2616 C 0.41830 0.80515 0.41855
 N2617 N 0.42810 0.79494 0.40075
 N2618 N 0.42041 0.77548 0.39312
 N2619 N 0.35534 0.20251 0.88073
 C2620 C 0.37731 0.20737 0.87805
 N2621 N 0.39045 0.19304 0.86641
 N2622 N 0.38186 0.17442 0.85768
 C2623 C 0.35982 0.16948 0.86027
 N2624 N 0.34676 0.18391 0.87200
 C2625 C 0.38641 0.22766 0.88702
 C2626 C 0.39387 0.24487 0.89441
 C2627 C 0.40252 0.26552 0.90300
 N2628 N 0.42030 0.27550 0.89312
 N2629 N 0.42799 0.29495 0.90078
 C2630 C 0.41820 0.30515 0.91857
 N2631 N 0.40041 0.29499 0.92843
 N2632 N 0.39271 0.27554 0.92079
 N2633 N 1.10943 0.69296 1.13364
 C2634 C 1.12253 0.70734 1.12201
 N2635 N 1.14451 0.70254 1.11932
 N2636 N 1.15314 0.68395 1.12802
 C2637 C 1.14012 0.66949 1.13975
 N2638 N 1.11807 0.67436 1.14235
 C2639 C 1.11338 0.72762 1.11305
 C2640 C 1.10588 0.74481 1.10568
 C2641 C 1.09720 0.76545 1.09708
 N2642 N 1.10699 0.77546 1.07928
 N2643 N 1.09928 0.79491 1.07162
 C2644 C 1.08150 0.80507 1.08150
 N2645 N 1.07173 0.79489 1.09931
 N2646 N 1.07944 0.77544 1.10697
 N2647 N 1.11929 0.20253 0.64451
 C2648 C 1.12199 0.20735 0.62254
 N2649 N 1.13363 0.19300 0.60943
 N2650 N 1.14234 0.17439 0.61805
 C2651 C 1.13974 0.16949 0.64009
 N2652 N 1.12800 0.18394 0.65313
 C2653 C 1.11303 0.22764 0.61341
 C2654 C 1.10566 0.24484 0.60592
 C2655 C 1.09707 0.26549 0.59725
 N2656 N 1.10696 0.27548 0.57949
 N2657 N 1.09931 0.29493 0.57179
 C2658 C 1.08150 0.30512 0.58157
 N2659 N 1.07163 0.29496 0.59935
 N2660 N 1.07927 0.27551 0.60706
 N2661 N 0.63362 0.69298 0.60949
 C2662 C 0.62196 0.70732 0.62260
 N2663 N 0.61926 0.70249 0.64456
 N2664 N 0.62798 0.68390 0.65318
 C2665 C 0.63974 0.66947 0.64015
 N2666 N 0.64235 0.67438 0.61810
 C2667 C 0.61299 0.72760 0.61346
 C2668 C 0.60560 0.74480 0.60598
 C2669 C 0.59699 0.76544 0.59731
 N2670 N 0.57921 0.77546 0.60712
 N2671 N 0.57156 0.79491 0.59941
 C2672 C 0.58141 0.80506 0.58162
 N2673 N 0.59921 0.79486 0.57182
 N2674 N 0.60687 0.77541 0.57953
 N2675 N 0.61926 0.20244 1.14450
 C2676 C 0.62196 0.20725 1.12253
 N2677 N 0.63360 0.19290 1.10942
 N2678 N 0.64232 0.17430 1.11804
 C2679 C 0.63972 0.16940 1.14009
 N2680 N 0.62798 0.18384 1.15312
 C2681 C 0.61300 0.22754 1.11340
 C2682 C 0.60563 0.24474 1.10591
 C2683 C 0.59704 0.26539 1.09724
 N2684 N 0.60693 0.27537 1.07948
 N2685 N 0.59927 0.29482 1.07178
 C2686 C 0.58147 0.30502 1.08157
 N2687 N 0.57160 0.29486 1.09934
 N2688 N 0.57925 0.27541 1.10705
 N2689 N 1.29748 1.11926 0.85544
 C2690 C 1.29265 1.12194 0.87741
 N2691 N 1.30699 1.13358 0.89053
 N2692 N 1.32559 1.14231 0.88193
 C2693 C 1.33051 1.13972 0.85988
 N2694 N 1.31607 1.12799 0.84683
 C2695 C 1.27236 1.11296 0.88653
 C2696 C 1.25516 1.10559 0.89401
 C2697 C 1.23452 1.09699 0.90268
 N2698 N 1.22454 1.10688 0.92046
 N2699 N 1.20509 1.09923 0.92816
 C2700 C 1.19488 1.08143 0.91837
 N2701 N 1.20503 1.07157 0.90058
 N2702 N 1.22448 1.07921 0.89287
 N2703 N 1.29759 0.61921 0.35548
 C2704 C 1.29274 0.62191 0.37744
 N2705 N 1.30707 0.63355 0.39057
 N2706 N 1.32569 0.64227 0.38198
 C2707 C 1.33062 0.63968 0.35995
 N2708 N 1.31620 0.62794 0.34688
 C2709 C 1.27244 0.61294 0.38654
 C2710 C 1.25524 0.60557 0.39401
 C2711 C 1.23458 0.59698 0.40266
 N2712 N 1.22459 0.60687 0.42043
 N2713 N 1.20514 0.59923 0.42812
 C2714 C 1.19493 0.58143 0.41832
 N2715 N 1.20509 0.57157 0.40054
 N2716 N 1.22455 0.57920 0.39285
 N2717 N 0.80706 1.10942 0.36628
 C2718 C 0.79267 1.12250 0.37792
 N2719 N 0.79746 1.14448 0.38063
 N2720 N 0.81605 1.15313 0.37194
 C2721 C 0.83053 1.14012 0.36021
 N2722 N 0.82566 1.11807 0.35759
 C2723 C 0.77239 1.11333 0.38686
 C2724 C 0.75520 1.10583 0.39423
 C2725 C 0.73456 1.09715 0.40283
 N2726 N 0.72456 1.10694 0.42064
 N2727 N 0.70512 1.09922 0.42829
 C2728 C 0.69494 1.08146 0.41842
 N2729 N 0.70512 1.07169 0.40059
 N2730 N 0.72456 1.07940 0.39293
 N2731 N 0.79747 0.61924 0.85537
 C2732 C 0.79262 0.62194 0.87733
 N2733 N 0.80694 0.63360 0.89046
 N2734 N 0.82554 0.64233 0.88187
 C2735 C 0.83048 0.63973 0.85983
 N2736 N 0.81607 0.62797 0.84678
 C2737 C 0.77233 0.61295 0.88644
 C2738 C 0.75513 0.60556 0.89391
 C2739 C 0.73448 0.59696 0.90258
 N2740 N 0.72451 0.60683 0.92036
 N2741 N 0.70506 0.59917 0.92806
 C2742 C 0.69486 0.58138 0.91826
 N2743 N 0.70501 0.57153 0.90046
 N2744 N 0.72445 0.57918 0.89275
 N2745 N 1.30692 0.86626 1.10946
 C2746 C 1.29255 0.87790 1.12256
 N2747 N 1.29737 0.88062 1.14453
 N2748 N 1.31597 0.87194 1.15315
 C2749 C 1.33043 0.86020 1.14012
 N2750 N 1.32553 0.85758 1.11808
 C2751 C 1.27225 0.88684 1.11342
 C2752 C 1.25505 0.89420 1.10593
 C2753 C 1.23441 0.90280 1.09726
 N2754 N 1.22440 0.92060 1.10706
 N2755 N 1.20495 0.92825 1.09936
 C2756 C 1.19477 0.91838 1.08159
 N2757 N 1.20496 0.90056 1.07181
 N2758 N 1.22441 0.89290 1.07951
 N2759 N 1.29754 0.35538 0.61927
 C2760 C 1.29271 0.37735 0.62196
 N2761 N 1.30705 0.39047 0.63360
 N2762 N 1.32566 0.38187 0.64233
 C2763 C 1.33057 0.35982 0.63974
 N2764 N 1.31614 0.34677 0.62800
 C2765 C 1.27242 0.38647 0.61298
 C2766 C 1.25523 0.39394 0.60560
 C2767 C 1.23458 0.40262 0.59701
 N2768 N 1.22460 0.42039 0.60689
 N2769 N 1.20515 0.42809 0.59924
 C2770 C 1.19495 0.41830 0.58144
 N2771 N 1.20511 0.40052 0.57157
 N2772 N 1.22455 0.39281 0.57922
 N2773 N 0.79755 0.85539 0.61924
 C2774 C 0.79270 0.87736 0.62192
 N2775 N 0.80704 0.89049 0.63356
 N2776 N 0.82565 0.88190 0.64227
 C2777 C 0.83059 0.85986 0.63968
 N2778 N 0.81616 0.84680 0.62795
 C2779 C 0.77240 0.88646 0.61296
 C2780 C 0.75519 0.89392 0.60559
 C2781 C 0.73453 0.90258 0.59701
 N2782 N 0.72455 0.92035 0.60689
 N2783 N 0.70509 0.92804 0.59925
 C2784 C 0.69489 0.91824 0.58146
 N2785 N 0.70504 0.90045 0.57160
 N2786 N 0.72450 0.89275 0.57923
 N2787 N 0.80703 0.36634 1.10940
 C2788 C 0.79264 0.37795 1.12250
 N2789 N 0.79743 0.38066 1.14447
 N2790 N 0.81604 0.37198 1.15311
 C2791 C 0.83052 0.36027 1.14009
 N2792 N 0.82564 0.35766 1.11804
 C2793 C 0.77235 0.38688 1.11335
 C2794 C 0.75515 0.39423 1.10585
 C2795 C 0.73449 0.40281 1.09718
 N2796 N 0.72448 0.42062 1.10696
 N2797 N 0.70503 0.42826 1.09926
 C2798 C 0.69485 0.41836 1.08150
 N2799 N 0.70503 0.40054 1.07174
 N2800 N 0.72449 0.39289 1.07944
 N2801 N 0.69301 1.10943 1.13363
 C2802 C 0.70735 1.12256 1.12200
 N2803 N 0.70251 1.14452 1.11930
 N2804 N 0.68391 1.15312 1.12801
 C2805 C 0.66947 1.14007 1.13974
 N2806 N 0.67439 1.11803 1.14234
 C2807 C 0.72765 1.11345 1.11304
 C2808 C 0.74486 1.10598 1.10567
 C2809 C 0.76552 1.09733 1.09708
 N2810 N 0.77554 1.10715 1.07929
 N2811 N 0.79499 1.09946 1.07165
 C2812 C 0.80517 1.08169 1.08152
 N2813 N 0.79497 1.07189 1.09932
 N2814 N 0.77552 1.07957 1.10697
 N2815 N 0.70254 0.64459 0.61937
 C2816 C 0.70739 0.62263 0.62208
 N2817 N 0.69304 0.60950 0.63371
 N2818 N 0.67442 0.61810 0.64241
 C2819 C 0.66949 0.64014 0.63980
 N2820 N 0.68393 0.65319 0.62807
 C2821 C 0.72769 0.61351 0.61313
 C2822 C 0.74490 0.60605 0.60576
 C2823 C 0.76555 0.59739 0.59717
 N2824 N 0.77555 0.57963 0.60706
 N2825 N 0.79500 0.57193 0.59941
 C2826 C 0.80519 0.58172 0.58160
 N2827 N 0.79502 0.59949 0.57173
 N2828 N 0.77557 0.60720 0.57938
 N2829 N 0.19301 1.10950 0.63364
 C2830 C 0.20736 1.12262 0.62201
 N2831 N 0.20253 1.14459 0.61931
 N2832 N 0.18392 1.15320 0.62801
 C2833 C 0.16947 1.14015 0.63974
 N2834 N 0.17439 1.11811 0.64234
 C2835 C 0.22766 1.11350 0.61305
 C2836 C 0.24486 1.10603 0.60569
 C2837 C 0.26551 1.09736 0.59710
 N2838 N 0.27554 1.10717 0.57931
 N2839 N 0.29499 1.09946 0.57167
 C2840 C 0.30515 1.08169 0.58155
 N2841 N 0.29496 1.07191 0.59935
 N2842 N 0.27550 1.07961 0.60700
 N2843 N 0.20258 0.61939 1.14459
 C2844 C 0.20742 0.62209 1.12262
 N2845 N 0.19307 0.63372 1.10950
 N2846 N 0.17444 0.64241 1.11810
 C2847 C 0.16952 0.63980 1.14014
 N2848 N 0.18396 0.62808 1.15319
 C2849 C 0.22772 0.61314 1.11351
 C2850 C 0.24493 0.60578 1.10604
 C2851 C 0.26559 0.59719 1.09739
 N2852 N 0.27558 0.60706 1.07962
 N2853 N 0.29503 0.59941 1.07194
 C2854 C 0.30523 0.58162 1.08174
 N2855 N 0.29506 0.57176 1.09952
 N2856 N 0.27561 0.57941 1.10722
 N2857 N 0.70245 0.88076 0.85546
 C2858 C 0.70728 0.87807 0.87742
 N2859 N 0.69294 0.86641 0.89054
 N2860 N 0.67434 0.85768 0.88193
 C2861 C 0.66943 0.86028 0.85989
 N2862 N 0.68386 0.87203 0.84684
 C2863 C 0.72757 0.88705 0.88655
 C2864 C 0.74476 0.89443 0.89402
 C2865 C 0.76540 0.90304 0.90269
 N2866 N 0.77539 0.89317 0.92046
 N2867 N 0.79484 0.90083 0.92816
 C2868 C 0.80503 0.91863 0.91836
 N2869 N 0.79487 0.92848 0.90058
 N2870 N 0.77542 0.92083 0.89287
 N2871 N 0.70256 0.35549 0.38067
 C2872 C 0.70735 0.37747 0.37798
 N2873 N 0.69298 0.39056 0.36634
 N2874 N 0.67439 0.38192 0.35763
 C2875 C 0.66951 0.35987 0.36023
 N2876 N 0.68397 0.34685 0.37197
 C2877 C 0.72763 0.38662 0.38694
 C2878 C 0.74482 0.39412 0.39431
 C2879 C 0.76546 0.40280 0.40292
 N2880 N 0.77545 0.42056 0.39302
 N2881 N 0.79490 0.42827 0.40068
 C2882 C 0.80508 0.41850 0.41850
 N2883 N 0.79491 0.40073 0.42838
 N2884 N 0.77546 0.39302 0.42073
 N2885 N 0.19297 0.86638 0.39050
 C2886 C 0.20732 0.87803 0.37739
 N2887 N 0.20249 0.88073 0.35542
 N2888 N 0.18390 0.87201 0.34680
 C2889 C 0.16946 0.86026 0.35984
 N2890 N 0.17437 0.85766 0.38188
 C2891 C 0.22760 0.88700 0.38652
 C2892 C 0.24480 0.89438 0.39400
 C2893 C 0.26544 0.90298 0.40268
 N2894 N 0.27547 0.92077 0.39287
 N2895 N 0.29491 0.92842 0.40058
 C2896 C 0.30506 0.91856 0.41837
 N2897 N 0.29486 0.90076 0.42816
 N2898 N 0.27542 0.89310 0.42045
 N2899 N 0.20249 0.35556 0.88075
 C2900 C 0.20729 0.37754 0.87805
 N2901 N 0.19293 0.39063 0.86640
 N2902 N 0.17434 0.38200 0.85769
 C2903 C 0.16945 0.35996 0.86029
 N2904 N 0.18390 0.34693 0.87203
 C2905 C 0.22757 0.38668 0.88702
 C2906 C 0.24476 0.39417 0.89440
 C2907 C 0.26540 0.40285 0.90301
 N2908 N 0.27540 0.42060 0.89312
 N2909 N 0.29485 0.42830 0.90078
 C2910 C 0.30502 0.41852 0.91860
 N2911 N 0.29485 0.40075 0.92847
 N2912 N 0.27540 0.39305 0.92082
   
