data_POSCAR
  _audit_creation_date              2014-09-24
  _audit_creation_method            'ToBaCCo'
  _symmetry_space_group_name_H-M    'P1'
  _symmetry_Int_Tables_number       1
  _symmetry_cell_setting            triclinic
  loop_
  _symmetry_equiv_pos_as_xyz
 x,y,z
_cell_length_a 53.3037
_cell_length_b 53.3961
_cell_length_c 53.7111
_cell_angle_alpha 89.959100
_cell_angle_beta 89.973200
_cell_angle_gamma 89.907400
loop_
  _atom_site_label
  _atom_site_type_symbol
  _atom_site_fract_x
  _atom_site_fract_y
  _atom_site_fract_z
N1 N 0.37732 0.30867 0.32605
 N2 N 0.37649 0.32545 0.30815
 C3 C 0.39571 0.32137 0.29235
 C4 C 0.40937 0.30101 0.30088
 C5 C 0.39712 0.29348 0.32234
 H6 H 0.39977 0.33262 0.27610
 H7 H 0.40207 0.27794 0.33427
 Cu8 Cu 0.35061 0.35119 0.30769
 Cu9 Cu 0.35241 0.30729 0.35256
 Cu10 Cu 0.30491 0.35174 0.35090
 N11 N 0.32407 0.37624 0.30714
 N12 N 0.30626 0.37626 0.32406
 C13 C 0.29075 0.39569 0.31984
 C14 C 0.29921 0.40868 0.29913
 C15 C 0.32044 0.39570 0.29156
 H16 H 0.27465 0.40009 0.33126
 H17 H 0.33266 0.40033 0.27618
 N18 N 0.30690 0.32539 0.37658
 N19 N 0.32535 0.30890 0.37754
 C20 C 0.32193 0.29399 0.39749
 C21 C 0.30021 0.30130 0.40960
 C22 C 0.29116 0.32126 0.39580
 H23 H 0.33420 0.27873 0.40270
 H24 H 0.27460 0.33226 0.39979
 H25 H 0.32384 0.32368 0.33232
 H26 H 0.34306 0.34496 0.35216
 N27 N 0.37769 0.80839 -0.17552
 N28 N 0.37611 0.82446 -0.19399
 C29 C 0.39522 0.82033 -0.20993
 C30 C 0.40976 0.80067 -0.20084
 C31 C 0.39786 0.79366 -0.17892
 H32 H 0.39862 0.83130 -0.22650
 H33 H 0.40319 0.77882 -0.16631
 Cu34 Cu 0.34987 0.84993 -0.19397
 Cu35 Cu 0.35346 0.80731 -0.14835
 Cu36 Cu 0.30717 0.85310 -0.14823
 N37 N 0.32407 0.87582 -0.19396
 N38 N 0.30814 0.87745 -0.17534
 C39 C 0.29340 0.89762 -0.17865
 C40 C 0.30020 0.90937 -0.20073
 C41 C 0.31975 0.89479 -0.20996
 H42 H 0.27866 0.90304 -0.16594
 H43 H 0.33059 0.89816 -0.22663
 N44 N 0.30943 0.82665 -0.12261
 N45 N 0.32713 0.80935 -0.12262
 C46 C 0.32350 0.79391 -0.10312
 C47 C 0.30244 0.80175 -0.09019
 C48 C 0.29402 0.82259 -0.10312
 H49 H 0.33509 0.77784 -0.09890
 H50 H 0.27792 0.83404 -0.09859
 H51 H 0.32398 0.82388 -0.16711
 H52 H 0.34503 0.84504 -0.14908
 N53 N 0.87638 0.30811 -0.17508
 N54 N 0.87516 0.32452 -0.19331
 C55 C 0.89435 0.32045 -0.20916
 C56 C 0.90842 0.30053 -0.20026
 C57 C 0.89642 0.29319 -0.17861
 H58 H 0.89826 0.33153 -0.22556
 H59 H 0.90180 0.27804 -0.16635
 Cu60 Cu 0.84932 0.35030 -0.19333
 Cu61 Cu 0.85197 0.30710 -0.14803
 Cu62 Cu 0.80626 0.35348 -0.14797
 N63 N 0.82375 0.37636 -0.19333
 N64 N 0.80750 0.37785 -0.17499
 C65 C 0.79274 0.39797 -0.17849
 C66 C 0.79993 0.40988 -0.20036
 C67 C 0.81971 0.39543 -0.20929
 H68 H 0.77774 0.40325 -0.16602
 H69 H 0.83081 0.39885 -0.22577
 N70 N 0.80815 0.32700 -0.12241
 N71 N 0.82549 0.30934 -0.12244
 C72 C 0.82146 0.29392 -0.10299
 C73 C 0.80054 0.30221 -0.09005
 C74 C 0.79266 0.32328 -0.10295
 H75 H 0.83298 0.27787 -0.09855
 H76 H 0.77660 0.33488 -0.09871
 H77 H 0.82291 0.32422 -0.16695
 H78 H 0.84404 0.34494 -0.14852
 N79 N 0.87682 0.80874 0.32546
 N80 N 0.87562 0.82518 0.30727
 C81 C 0.89486 0.82118 0.29147
 C82 C 0.90892 0.80126 0.30035
 C83 C 0.89689 0.79386 0.32197
 H84 H 0.89876 0.83226 0.27507
 H85 H 0.90223 0.77867 0.33419
 Cu86 Cu 0.84958 0.85073 0.30700
 Cu87 Cu 0.85220 0.80752 0.35226
 Cu88 Cu 0.80548 0.85289 0.35154
 N89 N 0.82361 0.87635 0.30674
 N90 N 0.80665 0.87724 0.32448
 C91 C 0.79152 0.89703 0.32061
 C92 C 0.79931 0.90942 0.29920
 C93 C 0.81979 0.89556 0.29092
 H94 H 0.77609 0.90194 0.33270
 H95 H 0.83144 0.89937 0.27491
 N96 N 0.80761 0.82655 0.37725
 N97 N 0.82548 0.80942 0.37757
 C98 C 0.82183 0.79418 0.39722
 C99 C 0.80061 0.80200 0.40992
 C100 C 0.79211 0.82260 0.39667
 H101 H 0.83361 0.77834 0.40175
 H102 H 0.77594 0.83403 0.40098
 H103 H 0.82312 0.82412 0.33283
 H104 H 0.84342 0.84527 0.35169
 N105 N 0.62358 0.69254 0.32550
 N106 N 0.62348 0.67466 0.30870
 C107 C 0.60372 0.67801 0.29343
 C108 C 0.59086 0.69925 0.30096
 C109 C 0.60404 0.70798 0.32137
 H110 H 0.59914 0.66605 0.27786
 H111 H 0.59948 0.72407 0.33271
 Cu112 Cu 0.64932 0.64893 0.30835
 Cu113 Cu 0.64855 0.69417 0.35190
 Cu114 Cu 0.69383 0.64742 0.35270
 N115 N 0.67485 0.62290 0.30893
 N116 N 0.69198 0.62228 0.32651
 C117 C 0.70712 0.60246 0.32275
 C118 C 0.69915 0.58998 0.30162
 C119 C 0.67861 0.60352 0.29331
 H120 H 0.72299 0.59772 0.33435
 H121 H 0.66711 0.59937 0.27726
 N122 N 0.69252 0.67460 0.37751
 N123 N 0.67538 0.69244 0.37712
 C124 C 0.67943 0.70808 0.39634
 C125 C 0.70015 0.69975 0.40957
 C126 C 0.70794 0.67845 0.39700
 H127 H 0.66813 0.72439 0.40036
 H128 H 0.72354 0.66645 0.40181
 H129 H 0.67687 0.67598 0.33278
 H130 H 0.65607 0.65628 0.35268
 N131 N 0.62390 0.19219 -0.17534
 N132 N 0.62517 0.17575 -0.19352
 C133 C 0.60588 0.17963 -0.20928
 C134 C 0.59172 0.19948 -0.20040
 C135 C 0.60376 0.20697 -0.17884
 H136 H 0.60195 0.16841 -0.22556
 H137 H 0.59829 0.22205 -0.16656
 Cu138 Cu 0.65113 0.15008 -0.19335
 Cu139 Cu 0.64812 0.19314 -0.14813
 Cu140 Cu 0.69328 0.14616 -0.14734
 N141 N 0.67643 0.12377 -0.19316
 N142 N 0.69211 0.12182 -0.17438
 C143 C 0.70665 0.10149 -0.17765
 C144 C 0.69997 0.08999 -0.19987
 C145 C 0.68070 0.10486 -0.20922
 H146 H 0.72124 0.09587 -0.16486
 H147 H 0.67006 0.10180 -0.22605
 N148 N 0.69136 0.17274 -0.12190
 N149 N 0.67436 0.19074 -0.12232
 C150 C 0.67848 0.20631 -0.10303
 C151 C 0.69908 0.19775 -0.08979
 C152 C 0.70669 0.17638 -0.10232
 H153 H 0.66724 0.22264 -0.09889
 H154 H 0.72253 0.16459 -0.09780
 H155 H 0.67737 0.17571 -0.16649
 H156 H 0.65561 0.15523 -0.14848
 N157 N 0.12255 0.69150 -0.17403
 N158 N 0.12380 0.67507 -0.19221
 C159 C 0.10465 0.67912 -0.20809
 C160 C 0.09057 0.69904 -0.19926
 C161 C 0.10251 0.70641 -0.17761
 H162 H 0.10090 0.66813 -0.22456
 H163 H 0.09720 0.72168 -0.16550
 Cu164 Cu 0.14992 0.64962 -0.19257
 Cu165 Cu 0.14725 0.69288 -0.14736
 Cu166 Cu 0.19472 0.64830 -0.14867
 N167 N 0.17616 0.62428 -0.19295
 N168 N 0.19359 0.62389 -0.17567
 C169 C 0.20897 0.60432 -0.17974
 C170 C 0.20077 0.59160 -0.20073
 C171 C 0.17986 0.60493 -0.20860
 H172 H 0.22475 0.59961 -0.16803
 H173 H 0.16795 0.60067 -0.22430
 N174 N 0.19244 0.67459 -0.12291
 N175 N 0.17411 0.69123 -0.12220
 C176 C 0.17757 0.70636 -0.10247
 C177 C 0.19917 0.69903 -0.09016
 C178 C 0.20810 0.67881 -0.10368
 H179 H 0.16548 0.72188 -0.09763
 H180 H 0.22464 0.66781 -0.09963
 H181 H 0.17629 0.67677 -0.16722
 H182 H 0.15666 0.65529 -0.14799
 N183 N 0.12252 0.19163 0.32578
 N184 N 0.12414 0.17559 0.30730
 C185 C 0.10508 0.17970 0.29132
 C186 C 0.09067 0.19928 0.30039
 C187 C 0.10233 0.20636 0.32230
 H188 H 0.10158 0.16894 0.27464
 H189 H 0.09670 0.22129 0.33469
 Cu190 Cu 0.15048 0.15037 0.30694
 Cu191 Cu 0.14694 0.19275 0.35281
 Cu192 Cu 0.19442 0.14813 0.35151
 N193 N 0.17646 0.12479 0.30661
 N194 N 0.19338 0.12389 0.32439
 C195 C 0.20839 0.10398 0.32066
 C196 C 0.20053 0.09169 0.29936
 C197 C 0.18023 0.10549 0.29089
 H198 H 0.22381 0.09877 0.33267
 H199 H 0.16862 0.10131 0.27493
 N200 N 0.19206 0.17428 0.37735
 N201 N 0.17363 0.19080 0.37819
 C202 C 0.17699 0.20574 0.39810
 C203 C 0.19866 0.19842 0.41028
 C204 C 0.20773 0.17843 0.39658
 H205 H 0.16484 0.22116 0.40313
 H206 H 0.22436 0.16754 0.40055
 H207 H 0.17628 0.17709 0.33326
 H208 H 0.15630 0.15526 0.35172
 N209 N 0.62340 0.30745 0.67527
 N210 N 0.62443 0.32401 0.69334
 C211 C 0.60522 0.31998 0.70916
 C212 C 0.59133 0.29993 0.70040
 C213 C 0.60347 0.29247 0.67886
 H214 H 0.60119 0.33118 0.72545
 H215 H 0.59825 0.27721 0.66672
 Cu216 Cu 0.65011 0.34987 0.69328
 Cu217 Cu 0.64784 0.30641 0.64825
 Cu218 Cu 0.69354 0.35263 0.64817
 N219 N 0.67568 0.37584 0.69321
 N220 N 0.69226 0.37701 0.67512
 C221 C 0.70714 0.39699 0.67870
 C222 C 0.69959 0.40905 0.70024
 C223 C 0.67957 0.39505 0.70901
 H224 H 0.72242 0.40226 0.66655
 H225 H 0.66834 0.39895 0.72532
 N226 N 0.69167 0.32619 0.62265
 N227 N 0.67432 0.30859 0.62267
 C228 C 0.67832 0.29322 0.60319
 C229 C 0.69923 0.30148 0.59023
 C230 C 0.70713 0.32247 0.60317
 H231 H 0.66677 0.27723 0.59875
 H232 H 0.72315 0.33407 0.59891
 H233 H 0.67674 0.32356 0.66727
 H234 H 0.65572 0.34424 0.64856
 N235 N 0.62355 0.80745 1.17521
 N236 N 0.62325 0.82547 1.19185
 C237 C 0.60350 0.82212 1.20714
 C238 C 0.59083 0.80076 1.19975
 C239 C 0.60413 0.79195 1.17942
 H240 H 0.59877 0.83419 1.22260
 H241 H 0.59970 0.77577 1.16817
 Cu242 Cu 0.64881 0.85140 1.19204
 Cu243 Cu 0.64861 0.80580 1.14883
 Cu244 Cu 0.69405 0.85218 1.14844
 N245 N 0.67461 0.87710 1.19179
 N246 N 0.69223 0.87723 1.17469
 C247 C 0.70763 0.89674 1.17873
 C248 C 0.69929 0.90963 1.19956
 C249 C 0.67822 0.89656 1.20732
 H250 H 0.72370 0.90110 1.16729
 H251 H 0.66627 0.90096 1.22296
 N252 N 0.69277 0.82515 1.12353
 N253 N 0.67555 0.80744 1.12373
 C254 C 0.67958 0.79197 1.10434
 C255 C 0.70040 0.80027 1.09123
 C256 C 0.70820 0.82141 1.10402
 H257 H 0.66802 0.77598 1.10000
 H258 H 0.72380 0.83340 1.09936
 H259 H 0.67647 0.82412 1.16816
 H260 H 0.65608 0.84386 1.14778
 N261 N 0.12238 0.30827 1.17395
 N262 N 0.12336 0.32493 1.19192
 C263 C 0.10414 0.32097 1.20773
 C264 C 0.09033 0.30083 1.19915
 C265 C 0.10244 0.29328 1.17760
 H266 H 0.10009 0.33228 1.22390
 H267 H 0.09722 0.27794 1.16553
 Cu268 Cu 0.14904 0.35080 1.19236
 Cu269 Cu 0.14720 0.30696 1.14741
 Cu270 Cu 0.19364 0.35232 1.14799
 N271 N 0.17505 0.37636 1.19213
 N272 N 0.19236 0.37687 1.17472
 C273 C 0.20759 0.39653 1.17865
 C274 C 0.19944 0.40917 1.19973
 C275 C 0.17869 0.39574 1.20773
 H276 H 0.22332 0.40128 1.16686
 H277 H 0.16684 0.39996 1.22348
 N278 N 0.19176 0.32587 1.12255
 N279 N 0.17403 0.30867 1.12229
 C280 C 0.17783 0.29335 1.10276
 C281 C 0.19902 0.30122 1.09004
 C282 C 0.20730 0.32194 1.10317
 H283 H 0.16607 0.27755 1.09827
 H284 H 0.22335 0.33348 1.09887
 H285 H 0.17582 0.32392 1.16716
 H286 H 0.15556 0.34487 1.14780
 N287 N 0.12357 0.80721 0.67512
 N288 N 0.12447 0.82399 0.69299
 C289 C 0.10523 0.82007 0.70881
 C290 C 0.09142 0.79990 0.70022
 C291 C 0.10365 0.79223 0.67880
 H292 H 0.10105 0.83151 0.72487
 H293 H 0.09846 0.77685 0.66679
 Cu294 Cu 0.14996 0.85004 0.69276
 Cu295 Cu 0.14799 0.80611 0.64812
 Cu296 Cu 0.19333 0.85268 0.64755
 N297 N 0.17554 0.87600 0.69253
 N298 N 0.19223 0.87702 0.67456
 C299 C 0.20730 0.89684 0.67825
 C300 C 0.19973 0.90902 0.69975
 C301 C 0.17950 0.89518 0.70834
 H302 H 0.22273 0.90187 0.66620
 H303 H 0.16816 0.89910 0.72455
 N304 N 0.19135 0.82623 0.62202
 N305 N 0.17439 0.80825 0.62246
 C306 C 0.17843 0.79276 0.60307
 C307 C 0.19885 0.80146 0.58970
 C308 C 0.20650 0.82274 0.60225
 H309 H 0.16720 0.77649 0.59880
 H310 H 0.22224 0.83457 0.59754
 H311 H 0.17681 0.82372 0.66693
 H312 H 0.15562 0.84402 0.64806
 N313 N 0.37698 0.69257 0.67507
 N314 N 0.37635 0.67560 0.69280
 C315 C 0.39560 0.67960 0.70856
 C316 C 0.40911 0.70006 0.70010
 C317 C 0.39669 0.70780 0.67882
 H318 H 0.39987 0.66813 0.72461
 H319 H 0.40156 0.72340 0.66693
 Cu320 Cu 0.35092 0.64948 0.69267
 Cu321 Cu 0.35243 0.69372 0.64823
 Cu322 Cu 0.30712 0.64718 0.64788
 N323 N 0.32530 0.62355 0.69256
 N324 N 0.30836 0.62276 0.67482
 C325 C 0.29315 0.60307 0.67870
 C326 C 0.30093 0.59067 0.70003
 C327 C 0.32144 0.60431 0.70834
 H328 H 0.27761 0.59823 0.66674
 H329 H 0.33289 0.60038 0.72447
 N330 N 0.30898 0.67365 0.62234
 N331 N 0.32595 0.69162 0.62271
 C332 C 0.32186 0.70712 0.60332
 C333 C 0.30143 0.69843 0.59002
 C334 C 0.29379 0.67715 0.60261
 H335 H 0.33309 0.72339 0.59900
 H336 H 0.27803 0.66534 0.59795
 H337 H 0.32384 0.67600 0.66729
 H338 H 0.34487 0.65580 0.64808
 N339 N 0.37680 0.19223 1.17463
 N340 N 0.37648 0.17492 1.19202
 C341 C 0.39578 0.17883 1.20774
 C342 C 0.40897 0.19966 1.19966
 C343 C 0.39632 0.20764 1.17858
 H344 H 0.40025 0.16711 1.22354
 H345 H 0.40090 0.22352 1.16697
 Cu346 Cu 0.35124 0.14863 1.19195
 Cu347 Cu 0.35201 0.19360 1.14805
 Cu348 Cu 0.30624 0.14761 1.14807
 N349 N 0.32515 0.12316 1.19197
 N350 N 0.30776 0.12286 1.17465
 C351 C 0.29240 0.10332 1.17861
 C352 C 0.30050 0.09058 1.19960
 C353 C 0.32136 0.10378 1.20762
 H354 H 0.27645 0.09881 1.16705
 H355 H 0.33314 0.09935 1.22339
 N356 N 0.30785 0.17431 1.12279
 N357 N 0.32526 0.19182 1.12278
 C358 C 0.32131 0.20724 1.10332
 C359 C 0.30034 0.19911 1.09039
 C360 C 0.29237 0.17813 1.10335
 H361 H 0.33288 0.22324 1.09895
 H362 H 0.27656 0.16634 1.09888
 H363 H 0.32383 0.17585 1.16765
 H364 H 0.34414 0.15572 1.14758
 N365 N 0.87699 0.69194 1.17516
 N366 N 0.87597 0.67542 1.19328
 C367 C 0.89514 0.67953 1.20911
 C368 C 0.90898 0.69960 1.20029
 C369 C 0.89688 0.70698 1.17872
 H370 H 0.89914 0.66845 1.22549
 H371 H 0.90205 0.72227 1.16658
 Cu372 Cu 0.85027 0.64959 1.19358
 Cu373 Cu 0.85243 0.69313 1.14834
 Cu374 Cu 0.80619 0.64765 1.14886
 N375 N 0.82439 0.62394 1.19349
 N376 N 0.80737 0.62329 1.17583
 C377 C 0.79216 0.60360 1.17964
 C378 C 0.80002 0.59107 1.20085
 C379 C 0.82057 0.60459 1.20917
 H380 H 0.77655 0.59880 1.16776
 H381 H 0.83216 0.60036 1.22513
 N382 N 0.80818 0.67395 1.12319
 N383 N 0.82583 0.69122 1.12295
 C384 C 0.82205 0.70649 1.10334
 C385 C 0.80095 0.69851 1.09052
 C386 C 0.79272 0.67776 1.10372
 H387 H 0.83378 0.72233 1.09885
 H388 H 0.77668 0.66621 1.09949
 H389 H 0.82367 0.67631 1.16793
 H390 H 0.84418 0.65531 1.14893
 N391 N 0.87691 0.19188 0.67472
 N392 N 0.87576 0.17541 0.69289
 C393 C 0.89489 0.17946 0.70877
 C394 C 0.90885 0.19944 0.69996
 C395 C 0.89686 0.20683 0.67832
 H396 H 0.89879 0.16838 0.72518
 H397 H 0.90215 0.22206 0.66614
 Cu398 Cu 0.84997 0.14969 0.69301
 Cu399 Cu 0.85240 0.19304 0.64780
 Cu400 Cu 0.80618 0.14733 0.64831
 N401 N 0.82427 0.12387 0.69312
 N402 N 0.80736 0.12302 0.67535
 C403 C 0.79223 0.10328 0.67917
 C404 C 0.80003 0.09092 0.70050
 C405 C 0.82044 0.10460 0.70889
 H406 H 0.77670 0.09834 0.66725
 H407 H 0.83194 0.10052 0.72496
 N408 N 0.80820 0.17361 0.62262
 N409 N 0.82578 0.19097 0.62237
 C410 C 0.82187 0.20624 0.60277
 C411 C 0.80077 0.19816 0.59003
 C412 C 0.79267 0.17738 0.60322
 H413 H 0.83359 0.22205 0.59813
 H414 H 0.77651 0.16592 0.59917
 H415 H 0.82344 0.17629 0.66713
 H416 H 0.84407 0.15532 0.64833
 N417 N 0.30840 0.37728 0.67349
 N418 N 0.32646 0.37740 0.69017
 C419 C 0.32310 0.39702 0.70555
 C420 C 0.30169 0.40979 0.69824
 C421 C 0.29286 0.39668 0.67782
 H422 H 0.33503 0.40144 0.72120
 H423 H 0.27651 0.40109 0.66674
 Cu424 Cu 0.35184 0.35121 0.69054
 Cu425 Cu 0.30636 0.35200 0.64740
 Cu426 Cu 0.35119 0.30470 0.64852
 N427 N 0.37727 0.32506 0.69076
 N428 N 0.37644 0.30651 0.67469
 C429 C 0.39563 0.29074 0.67914
 C430 C 0.40937 0.29994 0.69897
 C431 C 0.39716 0.32178 0.70586
 H432 H 0.39965 0.27412 0.66835
 H433 H 0.40226 0.33418 0.72093
 N434 N 0.32420 0.30639 0.62346
 N435 N 0.30753 0.32469 0.62269
 C436 C 0.29250 0.32128 0.60284
 C437 C 0.29997 0.29975 0.59057
 C438 C 0.32006 0.29076 0.60422
 H439 H 0.27718 0.33351 0.59769
 H440 H 0.33127 0.27441 0.60001
 H441 H 0.32347 0.32382 0.66757
 H442 H 0.34402 0.34267 0.64665
 N443 N 0.30712 0.87666 0.17415
 N444 N 0.32521 0.87707 0.19078
 C445 C 0.32173 0.89680 0.20598
 C446 C 0.30025 0.90936 0.19859
 C447 C 0.29144 0.89599 0.17833
 H448 H 0.33378 0.90158 0.22143
 H449 H 0.27514 0.90033 0.16714
 Cu450 Cu 0.35135 0.85162 0.19122
 Cu451 Cu 0.30579 0.85163 0.14784
 Cu452 Cu 0.35255 0.80642 0.14773
 N453 N 0.37722 0.82586 0.19112
 N454 N 0.37753 0.80824 0.17408
 C455 C 0.39706 0.79284 0.17833
 C456 C 0.40979 0.80116 0.19926
 C457 C 0.39659 0.82225 0.20682
 H458 H 0.40154 0.77677 0.16695
 H459 H 0.40078 0.83416 0.22251
 N460 N 0.32564 0.80766 0.12270
 N461 N 0.30777 0.82477 0.12278
 C462 C 0.29247 0.82074 0.10326
 C463 C 0.30106 0.80004 0.09021
 C464 C 0.32216 0.79229 0.10316
 H465 H 0.27647 0.83230 0.09872
 H466 H 0.33421 0.77666 0.09869
 H467 H 0.32427 0.82394 0.16739
 H468 H 0.34399 0.84437 0.14700
 N469 N 0.80751 0.37720 0.17406
 N470 N 0.82603 0.37781 0.19017
 C471 C 0.82271 0.39746 0.20553
 C472 C 0.80087 0.40977 0.19873
 C473 C 0.79172 0.39633 0.17868
 H474 H 0.83510 0.40232 0.22070
 H475 H 0.77508 0.40044 0.16793
 Cu476 Cu 0.85258 0.35276 0.18986
 Cu477 Cu 0.80557 0.35211 0.14794
 Cu478 Cu 0.85100 0.30572 0.14799
 N479 N 0.87717 0.32585 0.19013
 N480 N 0.87620 0.30728 0.17411
 C481 C 0.89521 0.29131 0.17867
 C482 C 0.90895 0.30041 0.19856
 C483 C 0.89693 0.32237 0.20535
 H484 H 0.89908 0.27462 0.16796
 H485 H 0.90210 0.33477 0.22039
 N486 N 0.82398 0.30743 0.12304
 N487 N 0.80674 0.32517 0.12300
 C488 C 0.79132 0.32162 0.10348
 C489 C 0.79918 0.30061 0.09053
 C490 C 0.81997 0.29211 0.10354
 H491 H 0.77555 0.33353 0.09903
 H492 H 0.83164 0.27623 0.09890
 H493 H 0.82398 0.32471 0.16815
 H494 H 0.84350 0.34372 0.14624
 N495 N 0.80811 0.87769 0.67381
 N496 N 0.82646 0.87821 0.69012
 C497 C 0.82293 0.89774 0.70560
 C498 C 0.80112 0.91004 0.69869
 C499 C 0.79221 0.89675 0.67843
 H500 H 0.83513 0.90251 0.72094
 H501 H 0.77564 0.90089 0.66757
 Cu502 Cu 0.85305 0.85318 0.69001
 Cu503 Cu 0.80639 0.85263 0.64763
 Cu504 Cu 0.85133 0.80576 0.64856
 N505 N 0.87754 0.82609 0.69056
 N506 N 0.87642 0.80736 0.67475
 C507 C 0.89540 0.79136 0.67939
 C508 C 0.90926 0.80060 0.69912
 C509 C 0.89736 0.82269 0.70573
 H510 H 0.89923 0.77461 0.66874
 H511 H 0.90269 0.83527 0.72056
 N512 N 0.82452 0.80743 0.62342
 N513 N 0.80775 0.82562 0.62274
 C514 C 0.79274 0.82222 0.60287
 C515 C 0.80033 0.80078 0.59052
 C516 C 0.82050 0.79188 0.60410
 H517 H 0.77735 0.83439 0.59780
 H518 H 0.83182 0.77563 0.59981
 H519 H 0.82433 0.82527 0.66829
 H520 H 0.84428 0.84383 0.64637
 N521 N 0.69219 0.62271 0.67381
 N522 N 0.67405 0.62242 0.69040
 C523 C 0.67741 0.60271 0.70571
 C524 C 0.69890 0.59008 0.69842
 C525 C 0.70778 0.60333 0.67810
 H526 H 0.66538 0.59807 0.72126
 H527 H 0.72420 0.59904 0.66708
 Cu528 Cu 0.64852 0.64851 0.69068
 Cu529 Cu 0.69416 0.64800 0.64769
 Cu530 Cu 0.64903 0.69498 0.64863
 N531 N 0.62298 0.67459 0.69093
 N532 N 0.62376 0.69311 0.67481
 C533 C 0.60453 0.70885 0.67923
 C534 C 0.59083 0.69967 0.69913
 C535 C 0.60308 0.67786 0.70607
 H536 H 0.60051 0.72546 0.66843
 H537 H 0.59797 0.66546 0.72116
 N538 N 0.67605 0.69341 0.62358
 N539 N 0.69290 0.67527 0.62293
 C540 C 0.70797 0.67878 0.60311
 C541 C 0.70035 0.70021 0.59073
 C542 C 0.68010 0.70902 0.60428
 H543 H 0.72341 0.66667 0.59805
 H544 H 0.66873 0.72523 0.59997
 H545 H 0.67677 0.67599 0.66775
 H546 H 0.65640 0.65699 0.64680
 N547 N 0.69216 0.12295 0.17414
 N548 N 0.67358 0.12223 0.19021
 C549 C 0.67695 0.10259 0.20558
 C550 C 0.69887 0.09038 0.19885
 C551 C 0.70801 0.10387 0.17880
 H552 H 0.66452 0.09766 0.22072
 H553 H 0.72470 0.09984 0.16808
 Cu554 Cu 0.64690 0.14716 0.18982
 Cu555 Cu 0.69412 0.14812 0.14807
 Cu556 Cu 0.64847 0.19430 0.14801
 N557 N 0.62221 0.17404 0.19007
 N558 N 0.62319 0.19264 0.17406
 C559 C 0.60414 0.20858 0.17862
 C560 C 0.59038 0.19944 0.19850
 C561 C 0.60242 0.17747 0.20528
 H562 H 0.60025 0.22528 0.16789
 H563 H 0.59724 0.16502 0.22030
 N564 N 0.67558 0.19274 0.12312
 N565 N 0.69295 0.17513 0.12316
 C566 C 0.70843 0.17879 0.10370
 C567 C 0.70048 0.19975 0.09067
 C568 C 0.67956 0.20808 0.10360
 H569 H 0.72423 0.16691 0.09928
 H570 H 0.66778 0.22386 0.09892
 H571 H 0.67546 0.17535 0.16824
 H572 H 0.65613 0.15631 0.14623
 N573 N 0.19190 0.62336 0.17344
 N574 N 0.17349 0.62282 0.18971
 C575 C 0.17670 0.60303 0.20496
 C576 C 0.19838 0.59057 0.19793
 C577 C 0.20753 0.60404 0.17786
 H578 H 0.16445 0.59826 0.22028
 H579 H 0.22410 0.59988 0.16701
 Cu580 Cu 0.14777 0.64863 0.18967
 Cu581 Cu 0.19409 0.64881 0.14743
 Cu582 Cu 0.14817 0.69511 0.14770
 N583 N 0.12212 0.67453 0.18992
 N584 N 0.12279 0.69303 0.17378
 C585 C 0.10359 0.70878 0.17833
 C586 C 0.09007 0.69962 0.19836
 C587 C 0.10235 0.67780 0.20520
 H588 H 0.09950 0.72539 0.16756
 H589 H 0.09743 0.66545 0.22039
 N590 N 0.17542 0.69379 0.12287
 N591 N 0.19285 0.67621 0.12275
 C592 C 0.20830 0.68013 0.10330
 C593 C 0.20028 0.70121 0.09046
 C594 C 0.17936 0.70934 0.10351
 H595 H 0.22404 0.66825 0.09867
 H596 H 0.16761 0.72523 0.09911
 H597 H 0.17593 0.67661 0.16719
 H598 H 0.15626 0.65729 0.14591
 N599 N 0.19183 0.12213 0.67359
 N600 N 0.17364 0.12175 0.69013
 C601 C 0.17708 0.10208 0.70548
 C602 C 0.19869 0.08958 0.69828
 C603 C 0.20753 0.10287 0.67796
 H604 H 0.16506 0.09741 0.72101
 H605 H 0.22402 0.09868 0.66699
 Cu606 Cu 0.14805 0.14779 0.69029
 Cu607 Cu 0.19382 0.14753 0.64753
 Cu608 Cu 0.14877 0.19463 0.64874
 N609 N 0.12259 0.17392 0.69083
 N610 N 0.12348 0.19260 0.67489
 C611 C 0.10434 0.20839 0.67945
 C612 C 0.09059 0.19912 0.69926
 C613 C 0.10270 0.17716 0.70599
 H614 H 0.10041 0.22512 0.66878
 H615 H 0.09752 0.16464 0.72095
 N616 N 0.17581 0.19317 0.62370
 N617 N 0.19256 0.17494 0.62288
 C618 C 0.20756 0.17850 0.60302
 C619 C 0.20001 0.20005 0.59082
 C620 C 0.17987 0.20889 0.60449
 H621 H 0.22290 0.16633 0.59779
 H622 H 0.16857 0.22517 0.60028
 H623 H 0.17645 0.17545 0.66776
 H624 H 0.15613 0.15670 0.64655
 N625 N 0.30709 0.62307 0.32508
 N626 N 0.32514 0.62286 0.30839
 C627 C 0.32180 0.60318 0.29308
 C628 C 0.30042 0.59049 0.30048
 C629 C 0.29158 0.60368 0.32085
 H630 H 0.33384 0.59853 0.27756
 H631 H 0.27535 0.59923 0.33208
 Cu632 Cu 0.35084 0.64867 0.30815
 Cu633 Cu 0.30539 0.64799 0.35150
 Cu634 Cu 0.35179 0.69347 0.35195
 N635 N 0.37672 0.67431 0.30843
 N636 N 0.37690 0.69179 0.32562
 C637 C 0.39643 0.70718 0.32159
 C638 C 0.40931 0.69899 0.30067
 C639 C 0.39617 0.67801 0.29286
 H640 H 0.40081 0.72316 0.33310
 H641 H 0.40044 0.66625 0.27705
 N642 N 0.32473 0.69197 0.37694
 N643 N 0.30701 0.67475 0.37671
 C644 C 0.29151 0.67864 0.39614
 C645 C 0.29981 0.69933 0.40934
 C646 C 0.32095 0.70726 0.39652
 H647 H 0.27551 0.66704 0.40046
 H648 H 0.33281 0.72296 0.40110
 H649 H 0.32350 0.67618 0.33223
 H650 H 0.34338 0.65571 0.35237
 N651 N 0.30792 0.12234 0.82622
 N652 N 0.32634 0.12174 0.80996
 C653 C 0.32298 0.10206 0.79464
 C654 C 0.30122 0.08976 0.80161
 C655 C 0.29216 0.10321 0.82172
 H656 H 0.33526 0.09719 0.77937
 H657 H 0.27557 0.09912 0.83256
 Cu658 Cu 0.35275 0.14690 0.80997
 Cu659 Cu 0.30604 0.14753 0.85228
 Cu660 Cu 0.35096 0.19432 0.85137
 N661 N 0.37729 0.17388 0.80942
 N662 N 0.37615 0.19262 0.82522
 C663 C 0.39514 0.20855 0.82060
 C664 C 0.40905 0.19926 0.80089
 C665 C 0.39715 0.17721 0.79427
 H666 H 0.39894 0.22531 0.83123
 H667 H 0.40250 0.16462 0.77944
 N668 N 0.32405 0.19273 0.87645
 N669 N 0.30724 0.17464 0.87706
 C670 C 0.29216 0.17810 0.89689
 C671 C 0.29976 0.19947 0.90932
 C672 C 0.32001 0.20828 0.89578
 H673 H 0.27673 0.16599 0.90189
 H674 H 0.33137 0.22444 0.90011
 H675 H 0.32397 0.17487 0.83167
 H676 H 0.34390 0.15626 0.85358
 N677 N 0.80831 0.62218 0.82641
 N678 N 0.82647 0.62188 0.80985
 C679 C 0.82312 0.60223 0.79449
 C680 C 0.80158 0.58968 0.80171
 C681 C 0.79270 0.60289 0.82205
 H682 H 0.83516 0.59761 0.77895
 H683 H 0.77628 0.59862 0.83307
 Cu684 Cu 0.85194 0.64794 0.80970
 Cu685 Cu 0.80624 0.64742 0.85254
 Cu686 Cu 0.85124 0.69442 0.85164
 N687 N 0.87734 0.67406 0.80932
 N688 N 0.87647 0.69258 0.82541
 C689 C 0.89558 0.70839 0.82092
 C690 C 0.90927 0.69926 0.80100
 C691 C 0.89717 0.67739 0.79414
 H692 H 0.89954 0.72500 0.83171
 H693 H 0.90233 0.66499 0.77907
 N694 N 0.82423 0.69277 0.87668
 N695 N 0.80741 0.67465 0.87728
 C696 C 0.79232 0.67811 0.89709
 C697 C 0.79990 0.69948 0.90953
 C698 C 0.82015 0.70830 0.89602
 H699 H 0.77691 0.66599 0.90212
 H700 H 0.83150 0.72446 0.90038
 H701 H 0.82360 0.67548 0.83250
 H702 H 0.84397 0.65648 0.85353
 N703 N 0.80838 0.12215 0.32620
 N704 N 0.82683 0.12165 0.30997
 C705 C 0.82364 0.10194 0.29465
 C706 C 0.80192 0.08953 0.30160
 C707 C 0.79276 0.10292 0.32170
 H708 H 0.83591 0.09720 0.27933
 H709 H 0.77613 0.09882 0.33247
 Cu710 Cu 0.85238 0.14761 0.31019
 Cu711 Cu 0.80595 0.14756 0.35216
 Cu712 Cu 0.85123 0.19434 0.35177
 N713 N 0.87770 0.17376 0.30975
 N714 N 0.87670 0.19238 0.32572
 C715 C 0.89575 0.20825 0.32115
 C716 C 0.90952 0.19905 0.30130
 C717 C 0.89753 0.17709 0.29456
 H718 H 0.89956 0.22500 0.33179
 H719 H 0.90271 0.16467 0.27952
 N720 N 0.82392 0.19278 0.37658
 N721 N 0.80685 0.17490 0.37680
 C722 C 0.79145 0.17847 0.39635
 C723 C 0.79913 0.19963 0.40911
 C724 C 0.81976 0.20822 0.39597
 H725 H 0.77584 0.16648 0.40101
 H726 H 0.83130 0.22418 0.40057
 H727 H 0.82377 0.17546 0.33229
 H728 H 0.84363 0.15650 0.35380
 N729 N 0.69230 0.37655 0.32581
 N730 N 0.67377 0.37731 0.30974
 C731 C 0.67709 0.39707 0.29447
 C732 C 0.69894 0.40925 0.30129
 C733 C 0.70811 0.39566 0.32128
 H734 H 0.66466 0.40209 0.27939
 H735 H 0.72475 0.39969 0.33207
 Cu736 Cu 0.64705 0.35244 0.30999
 Cu737 Cu 0.69410 0.35136 0.35184
 Cu738 Cu 0.64866 0.30517 0.35168
 N739 N 0.62249 0.32546 0.30965
 N740 N 0.62344 0.30683 0.32558
 C741 C 0.60437 0.29096 0.32101
 C742 C 0.59062 0.30023 0.30116
 C743 C 0.60268 0.32216 0.29444
 H744 H 0.60043 0.27427 0.33173
 H745 H 0.59750 0.33469 0.27951
 N746 N 0.67568 0.30666 0.37657
 N747 N 0.69290 0.32436 0.37666
 C748 C 0.70815 0.32088 0.39631
 C749 C 0.70022 0.29993 0.40927
 C750 C 0.67954 0.29142 0.39619
 H751 H 0.72376 0.33286 0.40095
 H752 H 0.66773 0.27571 0.40099
 H753 H 0.67550 0.32430 0.33160
 H754 H 0.65597 0.34330 0.35361
 N755 N 0.69204 0.87730 0.82657
 N756 N 0.67378 0.87774 0.81011
 C757 C 0.67710 0.89745 0.79483
 C758 C 0.69869 0.90992 0.80197
 C759 C 0.70768 0.89656 0.82218
 H760 H 0.66501 0.90216 0.77937
 H761 H 0.72407 0.90086 0.83323
 Cu762 Cu 0.64823 0.85177 0.80996
 Cu763 Cu 0.69409 0.85200 0.85265
 Cu764 Cu 0.64880 0.80525 0.85199
 N765 N 0.62271 0.82579 0.80974
 N766 N 0.62349 0.80724 0.82584
 C767 C 0.60430 0.79152 0.82133
 C768 C 0.59066 0.80076 0.80141
 C769 C 0.60289 0.82257 0.79456
 H770 H 0.60017 0.77498 0.83221
 H771 H 0.59788 0.83496 0.77944
 N772 N 0.67592 0.80675 0.87695
 N773 N 0.69287 0.82474 0.87740
 C774 C 0.70802 0.82122 0.89715
 C775 C 0.70031 0.79997 0.90975
 C776 C 0.67995 0.79124 0.89635
 H777 H 0.72354 0.83325 0.90204
 H778 H 0.66849 0.77518 0.90082
 H779 H 0.67648 0.82404 0.83279
 H780 H 0.65632 0.84313 0.85383
 N781 N 0.19148 0.37759 0.82615
 N782 N 0.17347 0.37777 0.80943
 C783 C 0.17700 0.39730 0.79393
 C784 C 0.19836 0.41002 0.80133
 C785 C 0.20705 0.39692 0.82185
 H786 H 0.16518 0.40170 0.77817
 H787 H 0.22338 0.40122 0.83299
 Cu788 Cu 0.14786 0.35181 0.80903
 Cu789 Cu 0.19334 0.35241 0.85234
 Cu790 Cu 0.14850 0.30546 0.85146
 N791 N 0.12251 0.32561 0.80907
 N792 N 0.12334 0.30714 0.82525
 C793 C 0.10416 0.29138 0.82091
 C794 C 0.09047 0.30047 0.80095
 C795 C 0.10270 0.32221 0.79389
 H796 H 0.10020 0.27480 0.83179
 H797 H 0.09766 0.33449 0.77867
 N798 N 0.17535 0.30715 0.87657
 N799 N 0.19209 0.32531 0.87721
 C800 C 0.20723 0.32178 0.89698
 C801 C 0.19972 0.30033 0.90935
 C802 C 0.17952 0.29149 0.89582
 H803 H 0.22273 0.33382 0.90193
 H804 H 0.16834 0.27516 0.90004
 H805 H 0.17623 0.32426 0.83192
 H806 H 0.15568 0.34335 0.85281
 N807 N 0.19258 0.87681 0.32562
 N808 N 0.17395 0.87760 0.30963
 C809 C 0.17717 0.89738 0.29440
 C810 C 0.19904 0.90957 0.30112
 C811 C 0.20833 0.89596 0.32105
 H812 H 0.16461 0.90252 0.27946
 H813 H 0.22497 0.90002 0.33181
 Cu814 Cu 0.14721 0.85279 0.31002
 Cu815 Cu 0.19454 0.85161 0.35165
 Cu816 Cu 0.14881 0.80562 0.35181
 N817 N 0.12255 0.82592 0.30978
 N818 N 0.12347 0.80735 0.32582
 C819 C 0.10435 0.79152 0.32133
 C820 C 0.09064 0.80070 0.30141
 C821 C 0.10273 0.82258 0.29461
 H822 H 0.10038 0.77491 0.33215
 H823 H 0.09751 0.83508 0.27965
 N824 N 0.17601 0.80703 0.37654
 N825 N 0.19342 0.82454 0.37648
 C826 C 0.20882 0.82086 0.39600
 C827 C 0.20081 0.79994 0.40904
 C828 C 0.17987 0.79174 0.39611
 H829 H 0.22438 0.83291 0.40064
 H830 H 0.16800 0.77606 0.40079
 H831 H 0.17567 0.82456 0.33166
 H832 H 0.15636 0.84375 0.35365
 C833 C 0.24052 0.99991 0.25853
 C834 C 0.25869 0.99981 0.24084
 C835 C 0.26905 1.02336 0.23076
 C836 C 0.26898 0.97630 0.23043
 C837 C 0.23019 0.97645 0.26905
 C838 C 0.23043 1.02362 0.26866
 C839 C 0.26237 1.03113 0.20677
 C840 C 0.27237 1.05309 0.19679
 C841 C 0.28956 1.06752 0.21053
 C842 C 0.29628 1.05953 0.23461
 C843 C 0.28601 1.03766 0.24468
 C844 C 0.25373 0.95993 0.21678
 C845 C 0.26388 0.93814 0.20642
 C846 C 0.28940 0.93232 0.20967
 C847 C 0.30457 0.94876 0.22345
 C848 C 0.29448 0.97066 0.23354
 C849 C 0.24555 0.95979 0.28231
 C850 C 0.23544 0.93799 0.29264
 C851 C 0.20982 0.93248 0.28984
 C852 C 0.19452 0.94920 0.27643
 C853 C 0.20460 0.97112 0.26634
 C854 C 0.23475 1.02976 0.29363
 C855 C 0.22522 1.05198 0.30353
 C856 C 0.21088 1.06830 0.28868
 C857 C 0.20637 1.06192 0.26368
 C858 C 0.21613 1.03977 0.25373
 H859 H 0.24931 1.02020 0.19580
 H860 H 0.26687 1.05846 0.17816
 H861 H 0.30938 1.07015 0.24576
 H862 H 0.29145 1.03169 0.26318
 H863 H 0.23406 0.96419 0.21396
 H864 H 0.25169 0.92575 0.19608
 H865 H 0.30656 0.98320 0.24390
 H866 H 0.26529 0.96380 0.28483
 H867 H 0.24773 0.92540 0.30268
 H868 H 0.17468 0.94563 0.27408
 H869 H 0.19246 0.98389 0.25629
 H870 H 0.24562 1.01735 0.30542
 H871 H 0.22878 1.05614 0.32292
 H872 H 0.19548 1.07411 0.25172
 H873 H 0.21241 1.03509 0.23447
 H874 H 0.32434 0.94494 0.22613
 C875 C 0.24080 0.49972 0.75833
 C876 C 0.25973 0.49961 0.74149
 C877 C 0.26993 0.52324 0.73143
 C878 C 0.27008 0.47611 0.73110
 C879 C 0.23023 0.47632 0.76870
 C880 C 0.23084 0.52349 0.76831
 C881 C 0.26098 0.53247 0.70872
 C882 C 0.27085 0.55447 0.69866
 C883 C 0.29003 0.56758 0.71107
 C884 C 0.29881 0.55821 0.73400
 C885 C 0.28881 0.53623 0.74409
 C886 C 0.25497 0.46003 0.71695
 C887 C 0.26520 0.43843 0.70628
 C888 C 0.29069 0.43249 0.70972
 C889 C 0.30568 0.44858 0.72407
 C890 C 0.29550 0.47030 0.73449
 C891 C 0.24510 0.46037 0.78328
 C892 C 0.23479 0.43878 0.79385
 C893 C 0.20944 0.43270 0.78987
 C894 C 0.19466 0.44868 0.77509
 C895 C 0.20493 0.47039 0.76475
 C896 C 0.24150 0.53394 0.78971
 C897 C 0.23196 0.55619 0.79958
 C898 C 0.21142 0.56833 0.78830
 C899 C 0.20098 0.55776 0.76663
 C900 C 0.21068 0.53557 0.75669
 H901 H 0.24636 0.52257 0.69877
 H902 H 0.26351 0.56094 0.68103
 H903 H 0.31341 0.56776 0.74422
 H904 H 0.29592 0.52923 0.76165
 H905 H 0.23535 0.46439 0.71396
 H906 H 0.25311 0.42634 0.69547
 H907 H 0.30746 0.48256 0.74526
 H908 H 0.26463 0.46481 0.78667
 H909 H 0.24673 0.42679 0.80498
 H910 H 0.17504 0.44468 0.77185
 H911 H 0.19315 0.48252 0.75358
 H912 H 0.25719 0.52479 0.79877
 H913 H 0.24066 0.56363 0.81617
 H914 H 0.18525 0.56644 0.75730
 H915 H 0.20236 0.52770 0.74005
 H916 H 0.32541 0.44469 0.72686
 C917 C 0.74079 0.00019 0.24146
 C918 C 0.75963 0.00001 0.25837
 C919 C 0.76953 -0.02379 0.26836
 C920 C 0.77016 0.02335 0.26886
 C921 C 0.73041 0.02373 0.23117
 C922 C 0.73059 -0.02338 0.23136
 C923 C 0.75972 -0.03350 0.29048
 C924 C 0.76926 -0.05569 0.30048
 C925 C 0.78913 -0.06856 0.28866
 C926 C 0.79868 -0.05862 0.26620
 C927 C 0.78889 -0.03652 0.25614
 C928 C 0.75504 0.03972 0.28271
 C929 C 0.76533 0.06129 0.29330
 C930 C 0.79091 0.06687 0.29012
 C931 C 0.80594 0.05048 0.27608
 C932 C 0.79568 0.02881 0.26571
 C933 C 0.74556 0.04001 0.21727
 C934 C 0.73535 0.06173 0.20683
 C935 C 0.70984 0.06759 0.21022
 C936 C 0.69480 0.05128 0.22433
 C937 C 0.70497 0.02946 0.23455
 C938 C 0.74007 -0.03294 0.20901
 C939 C 0.73010 -0.05481 0.19883
 C940 C 0.71029 -0.06744 0.21077
 C941 C 0.70100 -0.05777 0.23337
 C942 C 0.71111 -0.03594 0.24359
 H943 H 0.74466 -0.02381 0.30003
 H944 H 0.76112 -0.06235 0.31767
 H945 H 0.81372 -0.06775 0.25618
 H946 H 0.79655 -0.02922 0.23892
 H947 H 0.73534 0.03566 0.28551
 H948 H 0.75320 0.07363 0.30383
 H949 H 0.80766 0.01633 0.25513
 H950 H 0.76520 0.03572 0.21429
 H951 H 0.74749 0.07398 0.19622
 H952 H 0.67506 0.05508 0.22712
 H953 H 0.69299 0.01706 0.24517
 H954 H 0.75517 -0.02338 0.19942
 H955 H 0.73783 -0.06154 0.18147
 H956 H 0.68590 -0.06695 0.24322
 H957 H 0.70363 -0.02869 0.26090
 H958 H 0.82573 0.05412 0.27347
 C959 C 0.74087 0.50007 0.74134
 C960 C 0.75932 0.50003 0.75873
 C961 C 0.76955 0.47640 0.76882
 C962 C 0.76975 0.52347 0.76911
 C963 C 0.73056 0.52361 0.73094
 C964 C 0.73055 0.47646 0.73124
 C965 C 0.76214 0.46832 0.79246
 C966 C 0.77184 0.44622 0.80246
 C967 C 0.78970 0.43193 0.78922
 C968 C 0.79716 0.44040 0.76543
 C969 C 0.78700 0.46232 0.75528
 C970 C 0.75460 0.53992 0.78285
 C971 C 0.76492 0.56149 0.79343
 C972 C 0.79052 0.56702 0.79029
 C973 C 0.80555 0.55057 0.77633
 C974 C 0.79529 0.52888 0.76602
 C975 C 0.74579 0.54009 0.71736
 C976 C 0.73553 0.56173 0.70679
 C977 C 0.70991 0.56731 0.70978
 C978 C 0.69479 0.55081 0.72355
 C979 C 0.70499 0.52904 0.73384
 C980 C 0.73419 0.47066 0.70607
 C981 C 0.72428 0.44868 0.69607
 C982 C 0.71024 0.43223 0.71102
 C983 C 0.70640 0.43824 0.73623
 C984 C 0.71651 0.46018 0.74627
 H985 H 0.74869 0.47913 0.80313
 H986 H 0.76555 0.44082 0.82082
 H987 H 0.81063 0.43012 0.75437
 H988 H 0.79293 0.46846 0.73697
 H989 H 0.73489 0.53588 0.78560
 H990 H 0.75280 0.57388 0.80393
 H991 H 0.80728 0.51631 0.75556
 H992 H 0.76553 0.53601 0.71473
 H993 H 0.74770 0.57415 0.69642
 H994 H 0.67495 0.55444 0.72597
 H995 H 0.69295 0.51640 0.74414
 H996 H 0.74480 0.48317 0.69418
 H997 H 0.72733 0.44483 0.67652
 H998 H 0.69577 0.42593 0.74825
 H999 H 0.71322 0.46459 0.76567
 H1000 H 0.82536 0.55417 0.77378
 C1001 C 0.24017 0.50047 0.24091
 C1002 C 0.25881 0.50035 0.25803
 C1003 C 0.26881 0.47659 0.26804
 C1004 C 0.26920 0.52373 0.26850
 C1005 C 0.22986 0.52399 0.23045
 C1006 C 0.22998 0.47683 0.23094
 C1007 C 0.25933 0.46704 0.29041
 C1008 C 0.26898 0.44486 0.30035
 C1009 C 0.28846 0.43190 0.28816
 C1010 C 0.29775 0.44158 0.26556
 C1011 C 0.28794 0.46372 0.25557
 C1012 C 0.25403 0.53993 0.28250
 C1013 C 0.26415 0.56166 0.29289
 C1014 C 0.28960 0.56760 0.28931
 C1015 C 0.30468 0.55136 0.27515
 C1016 C 0.29460 0.52951 0.26500
 C1017 C 0.24505 0.54029 0.21658
 C1018 C 0.23482 0.56197 0.20602
 C1019 C 0.20928 0.56775 0.20928
 C1020 C 0.19421 0.55141 0.22331
 C1021 C 0.20438 0.52965 0.23363
 C1022 C 0.23940 0.46727 0.20858
 C1023 C 0.22966 0.44519 0.19863
 C1024 C 0.21014 0.43233 0.21079
 C1025 C 0.20091 0.44200 0.23344
 C1026 C 0.21081 0.46405 0.24344
 H1027 H 0.24446 0.47682 0.30015
 H1028 H 0.26129 0.43816 0.31774
 H1029 H 0.31259 0.43216 0.25552
 H1030 H 0.29539 0.47093 0.23823
 H1031 H 0.23441 0.53560 0.28551
 H1032 H 0.25200 0.57388 0.30353
 H1033 H 0.30658 0.51716 0.25429
 H1034 H 0.26473 0.53610 0.21372
 H1035 H 0.24695 0.57426 0.19546
 H1036 H 0.17443 0.55516 0.22597
 H1037 H 0.19238 0.51721 0.24420
 H1038 H 0.25433 0.47694 0.19886
 H1039 H 0.23737 0.43845 0.18127
 H1040 H 0.18605 0.43268 0.24352
 H1041 H 0.20344 0.47126 0.26083
 H1042 H 0.32437 0.55527 0.27223
 C1043 C 0.74057 0.99988 0.75920
 C1044 C 0.75893 0.99984 0.74173
 C1045 C 0.76914 1.02346 0.73165
 C1046 C 0.76931 0.97637 0.73131
 C1047 C 0.73020 0.97644 0.76964
 C1048 C 0.73042 1.02354 0.76932
 C1049 C 0.76285 1.03085 0.70745
 C1050 C 0.77268 1.05287 0.69744
 C1051 C 0.78927 1.06777 0.71140
 C1052 C 0.79558 1.06018 0.73571
 C1053 C 0.78552 1.03822 0.74578
 C1054 C 0.75413 0.95993 0.71766
 C1055 C 0.76442 0.93831 0.70709
 C1056 C 0.79004 0.93271 0.71015
 C1057 C 0.80510 0.94918 0.72401
 C1058 C 0.79485 0.97091 0.73430
 C1059 C 0.74545 0.95990 0.78317
 C1060 C 0.73522 0.93824 0.79368
 C1061 C 0.70961 0.93272 0.79069
 C1062 C 0.69444 0.94933 0.77703
 C1063 C 0.70463 0.97111 0.76679
 C1064 C 0.73671 1.03083 0.79352
 C1065 C 0.72697 1.05291 0.80355
 C1066 C 0.71023 1.06798 0.78973
 C1067 C 0.70393 1.06032 0.76537
 C1068 C 0.71411 1.03843 0.75522
 H1069 H 0.75024 1.01955 0.69634
 H1070 H 0.76750 1.05793 0.67863
 H1071 H 0.80819 1.07120 0.74704
 H1072 H 0.79068 1.03257 0.76447
 H1073 H 0.73440 0.96402 0.71497
 H1074 H 0.75230 0.92593 0.69664
 H1075 H 0.80685 0.98349 0.74469
 H1076 H 0.76519 0.96389 0.78574
 H1077 H 0.74741 0.92575 0.80397
 H1078 H 0.67461 0.94577 0.77462
 H1079 H 0.69258 0.98378 0.75651
 H1080 H 0.74923 1.01940 0.80465
 H1081 H 0.73224 1.05764 0.82239
 H1082 H 0.69141 1.07128 0.75385
 H1083 H 0.70909 1.03294 0.73647
 H1084 H 0.82492 0.94557 0.72649
 C1085 C 0.74084 0.49965 0.25938
 C1086 C 0.75909 0.49976 0.24178
 C1087 C 0.76921 0.52345 0.23179
 C1088 C 0.76945 0.47636 0.23119
 C1089 C 0.73044 0.47610 0.26955
 C1090 C 0.73065 0.52318 0.26976
 C1091 C 0.76221 0.53137 0.20794
 C1092 C 0.77196 0.55347 0.19802
 C1093 C 0.78921 0.56790 0.21169
 C1094 C 0.79615 0.55981 0.23568
 C1095 C 0.78615 0.53779 0.24567
 C1096 C 0.75421 0.46002 0.21750
 C1097 C 0.76439 0.43833 0.20697
 C1098 C 0.78996 0.43258 0.21007
 C1099 C 0.80512 0.44899 0.22389
 C1100 C 0.79498 0.47079 0.23417
 C1101 C 0.74568 0.45938 0.28283
 C1102 C 0.73547 0.43756 0.29301
 C1103 C 0.70984 0.43211 0.29006
 C1104 C 0.69468 0.44887 0.27655
 C1105 C 0.70486 0.47080 0.26661
 C1106 C 0.73531 0.52927 0.29469
 C1107 C 0.72529 0.55112 0.30496
 C1108 C 0.71011 0.56706 0.29053
 C1109 C 0.70535 0.56076 0.26555
 C1110 C 0.71560 0.53900 0.25523
 H1111 H 0.74908 0.52044 0.19705
 H1112 H 0.76618 0.55896 0.17951
 H1113 H 0.80922 0.57047 0.24681
 H1114 H 0.79179 0.53177 0.26411
 H1115 H 0.73451 0.46422 0.21481
 H1116 H 0.75218 0.42601 0.19656
 H1117 H 0.80705 0.48329 0.24457
 H1118 H 0.76540 0.46338 0.28552
 H1119 H 0.74770 0.42489 0.30302
 H1120 H 0.67486 0.44530 0.27401
 H1121 H 0.69280 0.48366 0.25656
 H1122 H 0.74671 0.51707 0.30619
 H1123 H 0.72911 0.55524 0.32431
 H1124 H 0.69385 0.57267 0.25390
 H1125 H 0.71158 0.53431 0.23603
 H1126 H 0.82491 0.44525 0.22640
 C1127 C 0.24116 -0.00019 0.74129
 C1128 C 0.25950 -0.00026 0.75877
 C1129 C 0.26971 -0.02397 0.76879
 C1130 C 0.26982 0.02318 0.76927
 C1131 C 0.23072 0.02330 0.73092
 C1132 C 0.23098 -0.02380 0.73117
 C1133 C 0.26321 -0.03156 0.79285
 C1134 C 0.27293 -0.05372 0.80276
 C1135 C 0.28990 -0.06856 0.78896
 C1136 C 0.29641 -0.06060 0.76473
 C1137 C 0.28624 -0.03863 0.75470
 C1138 C 0.25452 0.03971 0.78276
 C1139 C 0.26469 0.06138 0.79327
 C1140 C 0.29031 0.06695 0.79031
 C1141 C 0.30551 0.05037 0.77668
 C1142 C 0.29539 0.02858 0.76644
 C1143 C 0.24585 0.03982 0.71727
 C1144 C 0.23548 0.06141 0.70668
 C1145 C 0.20983 0.06691 0.70972
 C1146 C 0.19482 0.05038 0.72359
 C1147 C 0.20514 0.02867 0.73390
 C1148 C 0.23715 -0.03105 0.70689
 C1149 C 0.22721 -0.05297 0.69681
 C1150 C 0.21063 -0.06793 0.71075
 C1151 C 0.20448 -0.06051 0.73516
 C1152 C 0.21465 -0.03865 0.74531
 H1153 H 0.25052 -0.02031 0.80397
 H1154 H 0.26746 -0.05870 0.82149
 H1155 H 0.30908 -0.07139 0.75322
 H1156 H 0.29142 -0.03292 0.73604
 H1157 H 0.23478 0.03567 0.78533
 H1158 H 0.25246 0.07385 0.80353
 H1159 H 0.30749 0.01593 0.75620
 H1160 H 0.26560 0.03581 0.71459
 H1161 H 0.24757 0.07385 0.69624
 H1162 H 0.17499 0.05394 0.72606
 H1163 H 0.19317 0.01603 0.74426
 H1164 H 0.24973 -0.01969 0.69577
 H1165 H 0.23229 -0.05791 0.67795
 H1166 H 0.19191 -0.07157 0.74651
 H1167 H 0.20961 -0.03313 0.76406
 H1168 H 0.32534 0.05396 0.77428
 C1169 C 0.25845 0.24066 1.00004
 C1170 C 0.24106 0.25920 1.00004
 C1171 C 0.23092 0.26941 1.02354
 C1172 C 0.23061 0.26949 0.97664
 C1173 C 0.26892 0.23030 0.97667
 C1174 C 0.26854 0.23052 1.02357
 C1175 C 0.20788 0.26077 1.03260
 C1176 C 0.19764 0.27091 1.05430
 C1177 C 0.21021 0.29004 1.06727
 C1178 C 0.23348 0.29847 1.05814
 C1179 C 0.24377 0.28819 1.03648
 C1180 C 0.21687 0.25425 0.96036
 C1181 C 0.20683 0.26423 0.93844
 C1182 C 0.21051 0.28960 0.93241
 C1183 C 0.22433 0.30476 0.94879
 C1184 C 0.23412 0.29483 0.97080
 C1185 C 0.28293 0.24544 0.96049
 C1186 C 0.29297 0.23544 0.93859
 C1187 C 0.28906 0.21015 0.93246
 C1188 C 0.27501 0.19506 0.94876
 C1189 C 0.26519 0.20502 0.97075
 C1190 C 0.29086 0.24015 1.03332
 C1191 C 0.30103 0.23018 1.05516
 C1192 C 0.28913 0.21020 1.06753
 C1193 C 0.26655 0.20078 1.05766
 C1194 C 0.25634 0.21090 1.03588
 H1195 H 0.19780 0.24620 1.02280
 H1196 H 0.17973 0.26388 1.06065
 H1197 H 0.24383 0.31300 1.06763
 H1198 H 0.26161 0.29503 1.02968
 H1199 H 0.21383 0.23468 0.96470
 H1200 H 0.19639 0.25204 0.92616
 H1201 H 0.24464 0.30687 0.98319
 H1202 H 0.28618 0.26495 0.96492
 H1203 H 0.30358 0.24758 0.92637
 H1204 H 0.27190 0.17545 0.94475
 H1205 H 0.25451 0.19302 0.98307
 H1206 H 0.30044 0.25534 1.02394
 H1207 H 0.31835 0.23804 1.06205
 H1208 H 0.25671 0.18554 1.06659
 H1209 H 0.23907 0.20327 1.02847
 H1210 H 0.22723 0.32442 0.94485
 C1211 C 0.25879 0.74042 0.50027
 C1212 C 0.24179 0.75931 0.50020
 C1213 C 0.23129 0.76979 0.52348
 C1214 C 0.23183 0.76941 0.47658
 C1215 C 0.26879 0.73021 0.47674
 C1216 C 0.26920 0.73000 0.52363
 C1217 C 0.21688 0.75484 0.53949
 C1218 C 0.20630 0.76511 0.56102
 C1219 C 0.21010 0.79047 0.56697
 C1220 C 0.22471 0.80530 0.55093
 C1221 C 0.23506 0.79508 0.52930
 C1222 C 0.21021 0.75896 0.46612
 C1223 C 0.20028 0.76869 0.44409
 C1224 C 0.21173 0.78920 0.43217
 C1225 C 0.23367 0.79938 0.44270
 C1226 C 0.24365 0.78951 0.46468
 C1227 C 0.29082 0.74014 0.46660
 C1228 C 0.30075 0.73031 0.44461
 C1229 C 0.28888 0.71023 0.43241
 C1230 C 0.26659 0.70052 0.44268
 C1231 C 0.25663 0.71047 0.46463
 C1232 C 0.28349 0.74500 0.53967
 C1233 C 0.29398 0.73477 0.56127
 C1234 C 0.29023 0.70940 0.56724
 C1235 C 0.27580 0.69450 0.55114
 C1236 C 0.26555 0.70468 0.52945
 H1237 H 0.21366 0.73529 0.53517
 H1238 H 0.19533 0.75312 0.57308
 H1239 H 0.22784 0.82493 0.55483
 H1240 H 0.24614 0.80690 0.51717
 H1241 H 0.20106 0.74324 0.47506
 H1242 H 0.18356 0.76013 0.43658
 H1243 H 0.26052 0.79761 0.47248
 H1244 H 0.30032 0.75548 0.47579
 H1245 H 0.31785 0.73842 0.43741
 H1246 H 0.25677 0.68518 0.43391
 H1247 H 0.23953 0.70269 0.47229
 H1248 H 0.28670 0.76455 0.53532
 H1249 H 0.30487 0.74678 0.57335
 H1250 H 0.27279 0.67485 0.55503
 H1251 H 0.25465 0.69279 0.51723
 H1252 H 0.24322 0.81498 0.43406
 C1253 C 0.24130 0.74194 -0.00066
 C1254 C 0.26049 0.75854 -0.00065
 C1255 C 0.27084 0.76891 -0.02403
 C1256 C 0.27063 0.76861 0.02290
 C1257 C 0.23108 0.73203 0.02292
 C1258 C 0.23085 0.73160 -0.02401
 C1259 C 0.29534 0.76296 -0.03140
 C1260 C 0.30550 0.77346 -0.05298
 C1261 C 0.29139 0.79027 -0.06753
 C1262 C 0.26672 0.79604 -0.06012
 C1263 C 0.25652 0.78539 -0.03859
 C1264 C 0.29309 0.75931 0.03278
 C1265 C 0.30294 0.76944 0.05467
 C1266 C 0.29040 0.78898 0.06716
 C1267 C 0.26763 0.79792 0.05728
 C1268 C 0.25788 0.78785 0.03533
 C1269 C 0.21001 0.74306 0.03397
 C1270 C 0.20010 0.73320 0.05598
 C1271 C 0.21117 0.71214 0.06738
 C1272 C 0.23259 0.70143 0.05628
 C1273 C 0.24240 0.71128 0.03423
 C1274 C 0.20563 0.73577 -0.03012
 C1275 C 0.19542 0.72537 -0.05170
 C1276 C 0.21019 0.71035 -0.06746
 C1277 C 0.23548 0.70617 -0.06124
 C1278 C 0.24572 0.71673 -0.03970
 H1279 H 0.30660 0.75011 -0.02053
 H1280 H 0.32456 0.76863 -0.05799
 H1281 H 0.25520 0.80867 -0.07097
 H1282 H 0.23755 0.79016 -0.03310
 H1283 H 0.30300 0.74422 0.02359
 H1284 H 0.32047 0.76199 0.06158
 H1285 H 0.24041 0.79510 0.02796
 H1286 H 0.20121 0.75925 0.02550
 H1287 H 0.18369 0.74210 0.06385
 H1288 H 0.24181 0.68536 0.06442
 H1289 H 0.25879 0.70266 0.02589
 H1290 H 0.19383 0.74713 -0.01822
 H1291 H 0.17584 0.72880 -0.05576
 H1292 H 0.24744 0.69488 -0.07303
 H1293 H 0.26517 0.71310 -0.03511
 H1294 H 0.25724 0.81271 0.06638
 C1295 C 0.24066 0.24113 0.49982
 C1296 C 0.25871 0.25906 0.49975
 C1297 C 0.26891 0.26955 0.47631
 C1298 C 0.26924 0.26917 0.52319
 C1299 C 0.23034 0.23094 0.52333
 C1300 C 0.23033 0.23064 0.47647
 C1301 C 0.29455 0.26701 0.47109
 C1302 C 0.30464 0.27712 0.44931
 C1303 C 0.28934 0.29035 0.43253
 C1304 C 0.26365 0.29308 0.43793
 C1305 C 0.25350 0.28269 0.45962
 C1306 C 0.28242 0.25370 0.53978
 C1307 C 0.29245 0.26362 0.56171
 C1308 C 0.28933 0.28914 0.56742
 C1309 C 0.27615 0.30454 0.55069
 C1310 C 0.26637 0.29466 0.52868
 C1311 C 0.21724 0.24632 0.54004
 C1312 C 0.20735 0.23630 0.56201
 C1313 C 0.21054 0.21077 0.56765
 C1314 C 0.22367 0.19546 0.55080
 C1315 C 0.23329 0.20543 0.52875
 C1316 C 0.20466 0.23316 0.47141
 C1317 C 0.19443 0.22292 0.44978
 C1318 C 0.20965 0.20958 0.43301
 C1319 C 0.23537 0.20691 0.43823
 C1320 C 0.24565 0.21743 0.45977
 H1321 H 0.30672 0.25706 0.48388
 H1322 H 0.32453 0.27491 0.44586
 H1323 H 0.25134 0.30302 0.42530
 H1324 H 0.23370 0.28506 0.46353
 H1325 H 0.28502 0.23401 0.53567
 H1326 H 0.30241 0.25127 0.57427
 H1327 H 0.25638 0.30687 0.51596
 H1328 H 0.21459 0.26603 0.53599
 H1329 H 0.19745 0.24860 0.57467
 H1330 H 0.22618 0.17567 0.55444
 H1331 H 0.24324 0.19328 0.51595
 H1332 H 0.19257 0.24316 0.48423
 H1333 H 0.17453 0.22508 0.44645
 H1334 H 0.24761 0.19689 0.42559
 H1335 H 0.26547 0.21508 0.46355
 H1336 H 0.27372 0.32432 0.55436
 C1337 C 0.75889 0.74039 1.00040
 C1338 C 0.74173 0.75912 1.00051
 C1339 C 0.73178 0.76924 1.02408
 C1340 C 0.73118 0.76944 0.97719
 C1341 C 0.76922 0.73011 0.97698
 C1342 C 0.76904 0.73015 1.02386
 C1343 C 0.71054 0.75841 1.03493
 C1344 C 0.70053 0.76828 1.05687
 C1345 C 0.71150 0.78933 1.06827
 C1346 C 0.73305 0.79992 1.05731
 C1347 C 0.74311 0.78991 1.03543
 C1348 C 0.71673 0.75435 0.96139
 C1349 C 0.70668 0.76424 0.93945
 C1350 C 0.71102 0.78938 0.93292
 C1351 C 0.72555 0.80439 0.94884
 C1352 C 0.73539 0.79454 0.97085
 C1353 C 0.78324 0.74529 0.96085
 C1354 C 0.79320 0.73536 0.93890
 C1355 C 0.78922 0.71010 0.93268
 C1356 C 0.77514 0.69498 0.94893
 C1357 C 0.76538 0.70488 0.97096
 C1358 C 0.79123 0.73993 1.03375
 C1359 C 0.80147 0.72984 1.05549
 C1360 C 0.78974 0.70963 1.06768
 C1361 C 0.76728 0.70008 1.05766
 C1362 C 0.75702 0.71029 1.03595
 H1363 H 0.70170 0.74234 1.02634
 H1364 H 0.68409 0.75943 1.06467
 H1365 H 0.74220 0.81599 1.06546
 H1366 H 0.75964 0.79836 1.02725
 H1367 H 0.71320 0.73495 0.96613
 H1368 H 0.69573 0.75213 0.92753
 H1369 H 0.74651 0.80645 0.98283
 H1370 H 0.78654 0.76478 0.96535
 H1371 H 0.80382 0.74754 0.92672
 H1372 H 0.77196 0.67540 0.94486
 H1373 H 0.75465 0.69288 0.98324
 H1374 H 0.80065 0.75533 1.02453
 H1375 H 0.81870 0.73782 1.06249
 H1376 H 0.75755 0.68467 1.06642
 H1377 H 0.73982 0.70260 1.02845
 H1378 H 0.72905 0.82387 0.94452
 C1379 C 0.75800 0.24012 0.50024
 C1380 C 0.74157 0.25948 0.50029
 C1381 C 0.73155 0.26979 0.52381
 C1382 C 0.73126 0.26973 0.47684
 C1383 C 0.76817 0.22988 0.47672
 C1384 C 0.76822 0.22982 0.52368
 C1385 C 0.71292 0.25679 0.53687
 C1386 C 0.70255 0.26695 0.55854
 C1387 C 0.71064 0.29035 0.56752
 C1388 C 0.72968 0.30306 0.55448
 C1389 C 0.74006 0.29284 0.53286
 C1390 C 0.71437 0.25558 0.46266
 C1391 C 0.70432 0.26534 0.44067
 C1392 C 0.71104 0.28943 0.43246
 C1393 C 0.72820 0.30342 0.44666
 C1394 C 0.73817 0.29366 0.46866
 C1395 C 0.78435 0.24435 0.46203
 C1396 C 0.79430 0.23460 0.43999
 C1397 C 0.78823 0.21018 0.43226
 C1398 C 0.77186 0.19584 0.44705
 C1399 C 0.76198 0.20559 0.46910
 C1400 C 0.78759 0.24235 0.53607
 C1401 C 0.79803 0.23221 0.55772
 C1402 C 0.78932 0.20927 0.56732
 C1403 C 0.76961 0.19699 0.55488
 C1404 C 0.75915 0.20720 0.53329
 H1405 H 0.70629 0.23886 0.53014
 H1406 H 0.68821 0.25640 0.56814
 H1407 H 0.73647 0.32107 0.56070
 H1408 H 0.75472 0.30293 0.52320
 H1409 H 0.70895 0.23699 0.46867
 H1410 H 0.69145 0.25390 0.43007
 H1411 H 0.75147 0.30472 0.47913
 H1412 H 0.78935 0.26315 0.46772
 H1413 H 0.80664 0.24629 0.42900
 H1414 H 0.76687 0.17693 0.44184
 H1415 H 0.74938 0.19421 0.48010
 H1416 H 0.79473 0.25989 0.52885
 H1417 H 0.81295 0.24240 0.56680
 H1418 H 0.76232 0.17934 0.56157
 H1419 H 0.74401 0.19742 0.52407
 H1420 H 0.73384 0.32201 0.44098
 C1421 C 0.74175 0.24036 -0.00039
 C1422 C 0.75785 0.25995 -0.00039
 C1423 C 0.76800 0.27035 -0.02383
 C1424 C 0.76794 0.27019 0.02313
 C1425 C 0.73166 0.23016 0.02315
 C1426 C 0.73167 0.22986 -0.02381
 C1427 C 0.78613 0.25701 -0.03729
 C1428 C 0.79659 0.26724 -0.05888
 C1429 C 0.78909 0.29104 -0.06740
 C1430 C 0.77059 0.30415 -0.05394
 C1431 C 0.76017 0.29388 -0.03236
 C1432 C 0.78562 0.25646 0.03682
 C1433 C 0.79563 0.26622 0.05879
 C1434 C 0.78818 0.28997 0.06745
 C1435 C 0.77025 0.30354 0.05370
 C1436 C 0.76023 0.29371 0.03176
 C1437 C 0.71286 0.24319 0.03599
 C1438 C 0.70287 0.23345 0.05801
 C1439 C 0.71148 0.21044 0.06757
 C1440 C 0.73061 0.19765 0.05469
 C1441 C 0.74061 0.20745 0.03271
 C1442 C 0.71472 0.24378 -0.03821
 C1443 C 0.70425 0.23345 -0.05973
 C1444 C 0.71053 0.20898 -0.06722
 C1445 C 0.72779 0.19525 -0.05281
 C1446 C 0.73822 0.20560 -0.03130
 H1447 H 0.79232 0.23877 -0.03091
 H1448 H 0.81054 0.25643 -0.06881
 H1449 H 0.76431 0.32249 -0.05978
 H1450 H 0.74596 0.30432 -0.02238
 H1451 H 0.79172 0.23822 0.03038
 H1452 H 0.80914 0.25508 0.06895
 H1453 H 0.74638 0.30446 0.02160
 H1454 H 0.70589 0.26086 0.02887
 H1455 H 0.68842 0.24405 0.06745
 H1456 H 0.73783 0.17994 0.06135
 H1457 H 0.75542 0.19735 0.02325
 H1458 H 0.70943 0.26254 -0.03260
 H1459 H 0.69127 0.24471 -0.07044
 H1460 H 0.73304 0.17636 -0.05786
 H1461 H 0.75142 0.19462 -0.02055
 H1462 H 0.76407 0.32188 0.05964
 C1463 C 0.74144 0.74141 0.49997
 C1464 C 0.75900 0.75972 0.49997
 C1465 C 0.76910 0.77001 0.47648
 C1466 C 0.76946 0.76996 0.52333
 C1467 C 0.73098 0.73107 0.52333
 C1468 C 0.73144 0.73122 0.47646
 C1469 C 0.79332 0.76342 0.46883
 C1470 C 0.80346 0.77363 0.44710
 C1471 C 0.78959 0.79082 0.43275
 C1472 C 0.76521 0.79731 0.44056
 C1473 C 0.75504 0.78693 0.46223
 C1474 C 0.78298 0.75464 0.53978
 C1475 C 0.79305 0.76464 0.56163
 C1476 C 0.78963 0.79010 0.56743
 C1477 C 0.77604 0.80535 0.55087
 C1478 C 0.76622 0.79539 0.52892
 C1479 C 0.71722 0.74629 0.53966
 C1480 C 0.70724 0.73628 0.56158
 C1481 C 0.71099 0.71090 0.56758
 C1482 C 0.72480 0.69575 0.55112
 C1483 C 0.73454 0.70571 0.52910
 C1484 C 0.70847 0.73993 0.46729
 C1485 C 0.69846 0.72996 0.44542
 C1486 C 0.71118 0.71087 0.43244
 C1487 C 0.73437 0.70231 0.44177
 C1488 C 0.74444 0.71249 0.46356
 H1489 H 0.80438 0.75039 0.47974
 H1490 H 0.82230 0.76826 0.44186
 H1491 H 0.75391 0.81034 0.42995
 H1492 H 0.73633 0.79229 0.46806
 H1493 H 0.78582 0.73499 0.53560
 H1494 H 0.80327 0.75239 0.57409
 H1495 H 0.75590 0.80747 0.51635
 H1496 H 0.71414 0.76588 0.53535
 H1497 H 0.69683 0.74847 0.57393
 H1498 H 0.72780 0.67608 0.55503
 H1499 H 0.74505 0.69369 0.51665
 H1500 H 0.69830 0.75446 0.47713
 H1501 H 0.68058 0.73703 0.43900
 H1502 H 0.74481 0.68776 0.43234
 H1503 H 0.76221 0.70558 0.47055
 H1504 H 0.77329 0.82506 0.55465
 C1505 C 0.99965 0.25885 0.24078
 C1506 C 0.99974 0.24084 0.25864
 C1507 C 1.02340 0.23049 0.26890
 C1508 C 0.97618 0.23058 0.26907
 C1509 C 0.97597 0.26903 0.23040
 C1510 C 1.02322 0.26940 0.23060
 C1511 C 1.04058 0.21777 0.25366
 C1512 C 1.06247 0.20755 0.26387
 C1513 C 1.06755 0.21003 0.28944
 C1514 C 1.05026 0.22280 0.30458
 C1515 C 1.02831 0.23277 0.29442
 C1516 C 0.97104 0.20497 0.26658
 C1517 C 0.94923 0.19481 0.27678
 C1518 C 0.93234 0.21002 0.29003
 C1519 C 0.93763 0.23569 0.29264
 C1520 C 0.95936 0.24590 0.28219
 C1521 C 0.97058 0.29458 0.23310
 C1522 C 0.94867 0.30470 0.22299
 C1523 C 0.93190 0.28949 0.20967
 C1524 C 0.93742 0.26389 0.20683
 C1525 C 0.95926 0.25371 0.21719
 C1526 C 1.04008 0.28249 0.24583
 C1527 C 1.06191 0.29287 0.23566
 C1528 C 1.06726 0.29009 0.21015
 C1529 C 1.05029 0.27694 0.19505
 C1530 C 1.02841 0.26685 0.20516
 H1531 H 1.03695 0.21561 0.23394
 H1532 H 1.07549 0.19792 0.25171
 H1533 H 1.05344 0.22476 0.32438
 H1534 H 1.01516 0.24240 0.30647
 H1535 H 0.98394 0.19287 0.25666
 H1536 H 0.94586 0.17495 0.27467
 H1537 H 0.96321 0.26567 0.28452
 H1538 H 0.98335 0.30667 0.24312
 H1539 H 0.94515 0.32453 0.22524
 H1540 H 0.92482 0.25169 0.19675
 H1541 H 0.96325 0.23398 0.21470
 H1542 H 1.03625 0.28477 0.26551
 H1543 H 1.07466 0.30281 0.24782
 H1544 H 1.05369 0.27478 0.17531
 H1545 H 1.01554 0.25686 0.19314
 H1546 H 0.92491 0.24793 0.30260
 C1547 C 0.50004 0.25858 0.74129
 C1548 C 0.50002 0.24041 0.75901
 C1549 C 0.52365 0.22989 0.76907
 C1550 C 0.47639 0.23025 0.76942
 C1551 C 0.47646 0.26879 0.73080
 C1552 C 0.52369 0.26903 0.73121
 C1553 C 0.54046 0.21682 0.75371
 C1554 C 0.56259 0.20682 0.76362
 C1555 C 0.56828 0.20989 0.78900
 C1556 C 0.55129 0.22292 0.80428
 C1557 C 0.52910 0.23264 0.79443
 C1558 C 0.47106 0.20469 0.76687
 C1559 C 0.44904 0.19470 0.77683
 C1560 C 0.43211 0.21005 0.78989
 C1561 C 0.43761 0.23566 0.79260
 C1562 C 0.45955 0.24569 0.78239
 C1563 C 0.47111 0.29436 0.73333
 C1564 C 0.44917 0.30440 0.72322
 C1565 C 0.43237 0.28910 0.71004
 C1566 C 0.43792 0.26348 0.70732
 C1567 C 0.45977 0.25339 0.71769
 C1568 C 0.54038 0.28226 0.74650
 C1569 C 0.56239 0.29239 0.73651
 C1570 C 0.56809 0.28928 0.71113
 C1571 C 0.55127 0.27600 0.69594
 C1572 C 0.52918 0.26617 0.70586
 H1573 H 0.53638 0.21429 0.73412
 H1574 H 0.57534 0.19696 0.75136
 H1575 H 0.55493 0.22533 0.82396
 H1576 H 0.51621 0.24254 0.80655
 H1577 H 0.48395 0.19249 0.75704
 H1578 H 0.44553 0.17487 0.77466
 H1579 H 0.46352 0.26543 0.78475
 H1580 H 0.48389 0.30652 0.74327
 H1581 H 0.44562 0.32424 0.72537
 H1582 H 0.42530 0.25118 0.69737
 H1583 H 0.46378 0.23364 0.71536
 H1584 H 0.53628 0.28487 0.76608
 H1585 H 0.57504 0.30241 0.74869
 H1586 H 0.55493 0.27353 0.67627
 H1587 H 0.51639 0.25614 0.69379
 H1588 H 0.42490 0.24800 0.80244
 C1589 C -0.00015 0.24081 0.74129
 C1590 C -0.00021 0.25903 0.75894
 C1591 C -0.02386 0.26955 0.76901
 C1592 C 0.02338 0.26928 0.76934
 C1593 C 0.02350 0.23051 0.73100
 C1594 C -0.02373 0.23037 0.73108
 C1595 C -0.04083 0.28236 0.75361
 C1596 C -0.06285 0.29254 0.76357
 C1597 C -0.06829 0.28991 0.78906
 C1598 C -0.05117 0.27712 0.80439
 C1599 C -0.02908 0.26721 0.79448
 C1600 C 0.02872 0.29483 0.76661
 C1601 C 0.05067 0.30489 0.77662
 C1602 C 0.06748 0.28963 0.78992
 C1603 C 0.06194 0.26405 0.79286
 C1604 C 0.04009 0.25395 0.78259
 C1605 C 0.02880 0.20493 0.73364
 C1606 C 0.05076 0.19480 0.72362
 C1607 C 0.06763 0.21003 0.71040
 C1608 C 0.06217 0.23567 0.70764
 C1609 C 0.04031 0.24583 0.71791
 C1610 C -0.04078 0.21757 0.74639
 C1611 C -0.06272 0.20745 0.73629
 C1612 C -0.06800 0.21011 0.71078
 C1613 C -0.05083 0.22293 0.69555
 C1614 C -0.02881 0.23277 0.70559
 H1615 H -0.03692 0.28459 0.73394
 H1616 H -0.07572 0.30222 0.75129
 H1617 H -0.05462 0.27508 0.82415
 H1618 H -0.01607 0.25756 0.80667
 H1619 H 0.01591 0.30696 0.75659
 H1620 H 0.05425 0.32470 0.77429
 H1621 H 0.03608 0.23423 0.78513
 H1622 H 0.01593 0.19281 0.74355
 H1623 H 0.05427 0.17495 0.72583
 H1624 H 0.07485 0.24792 0.69768
 H1625 H 0.03634 0.26558 0.71544
 H1626 H -0.03700 0.21531 0.76607
 H1627 H -0.07566 0.19779 0.74850
 H1628 H -0.05419 0.22501 0.67579
 H1629 H -0.01575 0.24243 0.69349
 H1630 H 0.07457 0.25179 0.80290
 C1631 C 0.49990 0.24108 0.24107
 C1632 C 0.49994 0.25899 0.25898
 C1633 C 0.47632 0.26925 0.26926
 C1634 C 0.52352 0.26921 0.26936
 C1635 C 0.52343 0.23079 0.23054
 C1636 C 0.47622 0.23091 0.23095
 C1637 C 0.46031 0.28387 0.25450
 C1638 C 0.43850 0.29420 0.26472
 C1639 C 0.43233 0.28995 0.28985
 C1640 C 0.44846 0.27518 0.30449
 C1641 C 0.47036 0.26510 0.29433
 C1642 C 0.52882 0.29478 0.26675
 C1643 C 0.55080 0.30480 0.27675
 C1644 C 0.56763 0.28948 0.29000
 C1645 C 0.56215 0.26386 0.29269
 C1646 C 0.54027 0.25381 0.28244
 C1647 C 0.52877 0.20522 0.23319
 C1648 C 0.55066 0.19511 0.22302
 C1649 C 0.56742 0.21033 0.20965
 C1650 C 0.56190 0.23595 0.20686
 C1651 C 0.54010 0.24611 0.21729
 C1652 C 0.46089 0.21534 0.24543
 C1653 C 0.43899 0.20515 0.23531
 C1654 C 0.43200 0.21059 0.21062
 C1655 C 0.44740 0.22641 0.19632
 C1656 C 0.46940 0.23631 0.20635
 H1657 H 0.46490 0.28750 0.23519
 H1658 H 0.42646 0.30540 0.25291
 H1659 H 0.44446 0.27176 0.32395
 H1660 H 0.48269 0.25404 0.30601
 H1661 H 0.51593 0.30696 0.25687
 H1662 H 0.55437 0.32461 0.27443
 H1663 H 0.53626 0.23409 0.28490
 H1664 H 0.51601 0.19310 0.24324
 H1665 H 0.55420 0.17527 0.22527
 H1666 H 0.57449 0.24819 0.19678
 H1667 H 0.53610 0.26585 0.21485
 H1668 H 0.46606 0.21090 0.26443
 H1669 H 0.42752 0.19316 0.24688
 H1670 H 0.44274 0.23084 0.17722
 H1671 H 0.48111 0.24829 0.19495
 H1672 H 0.57487 0.25154 0.30253
 C1673 C 0.99998 0.75900 0.74120
 C1674 C 0.99989 0.74087 0.75896
 C1675 C 1.02344 0.73040 0.76925
 C1676 C 0.97624 0.73064 0.76924
 C1677 C 0.97642 0.76928 0.73073
 C1678 C 1.02366 0.76935 0.73111
 C1679 C 1.04038 0.71727 0.75409
 C1680 C 1.06222 0.70700 0.76430
 C1681 C 1.06750 0.70984 0.78979
 C1682 C 1.05044 0.72300 0.80487
 C1683 C 1.02852 0.73301 0.79471
 C1684 C 0.97099 0.70507 0.76660
 C1685 C 0.94907 0.69495 0.77664
 C1686 C 0.93219 0.71018 0.78987
 C1687 C 0.93759 0.73581 0.79263
 C1688 C 0.95942 0.74597 0.78233
 C1689 C 0.97112 0.79486 0.73331
 C1690 C 0.94916 0.80496 0.72329
 C1691 C 0.93228 0.78971 0.71015
 C1692 C 0.93778 0.76409 0.70738
 C1693 C 0.95965 0.75394 0.71765
 C1694 C 1.04046 0.78247 0.74638
 C1695 C 1.06251 0.79249 0.73636
 C1696 C 1.06814 0.78938 0.71097
 C1697 C 1.05123 0.77622 0.69579
 C1698 C 1.02909 0.76650 0.70574
 H1699 H 1.03657 0.71485 0.73443
 H1700 H 1.07506 0.69706 0.75221
 H1701 H 1.05379 0.72524 0.82461
 H1702 H 1.01552 0.74293 0.80669
 H1703 H 0.98388 0.69294 0.75667
 H1704 H 0.94561 0.67511 0.77442
 H1705 H 0.96334 0.76571 0.78477
 H1706 H 0.98397 0.80699 0.74321
 H1707 H 0.94567 0.82481 0.72548
 H1708 H 0.92511 0.75182 0.69746
 H1709 H 0.96363 0.73419 0.71524
 H1710 H 1.03639 0.78507 0.76597
 H1711 H 1.07523 0.80242 0.74854
 H1712 H 1.05485 0.77377 0.67612
 H1713 H 1.01623 0.75657 0.69367
 H1714 H 0.92489 0.74805 0.80260
 C1715 C 0.50018 0.75945 0.24197
 C1716 C 0.50011 0.74056 0.25879
 C1717 C 0.52361 0.73023 0.26925
 C1718 C 0.47637 0.73045 0.26874
 C1719 C 0.47654 0.76963 0.23184
 C1720 C 0.52375 0.76972 0.23162
 C1721 C 0.52985 0.70505 0.26528
 C1722 C 0.55183 0.69506 0.27538
 C1723 C 0.56779 0.71001 0.28993
 C1724 C 0.56137 0.73524 0.29401
 C1725 C 0.53949 0.74528 0.28368
 C1726 C 0.46457 0.71012 0.25724
 C1727 C 0.44271 0.69997 0.26748
 C1728 C 0.43222 0.71009 0.28937
 C1729 C 0.44404 0.73082 0.30050
 C1730 C 0.46594 0.74084 0.29029
 C1731 C 0.46458 0.78996 0.24327
 C1732 C 0.44280 0.80014 0.23281
 C1733 C 0.43261 0.79007 0.21079
 C1734 C 0.44460 0.76935 0.19975
 C1735 C 0.46640 0.75931 0.21016
 C1736 C 0.52986 0.79491 0.23554
 C1737 C 0.55179 0.80494 0.22541
 C1738 C 0.56783 0.78999 0.21087
 C1739 C 0.56156 0.76474 0.20687
 C1740 C 0.53973 0.75467 0.21722
 H1741 H 0.51780 0.69315 0.25421
 H1742 H 0.55607 0.67552 0.27211
 H1743 H 0.57333 0.74730 0.30499
 H1744 H 0.53483 0.76474 0.28706
 H1745 H 0.47240 0.70199 0.24048
 H1746 H 0.43421 0.68414 0.25825
 H1747 H 0.47488 0.75664 0.29928
 H1748 H 0.47223 0.79806 0.26011
 H1749 H 0.43413 0.81594 0.24201
 H1750 H 0.43742 0.76091 0.18293
 H1751 H 0.47550 0.74354 0.20123
 H1752 H 0.51770 0.80681 0.24655
 H1753 H 0.55590 0.82450 0.22863
 H1754 H 0.57359 0.75269 0.19589
 H1755 H 0.53516 0.73521 0.21382
 H1756 H 0.43665 0.73928 0.31724
 C1757 C -0.00011 0.74128 0.24148
 C1758 C -0.00007 0.75941 0.25922
 C1759 C -0.02366 0.76996 0.26937
 C1760 C 0.02356 0.76961 0.26958
 C1761 C 0.02346 0.73102 0.23100
 C1762 C -0.02374 0.73091 0.23132
 C1763 C -0.04052 0.78302 0.25406
 C1764 C -0.06244 0.79332 0.26410
 C1765 C -0.06787 0.79056 0.28958
 C1766 C -0.05085 0.77753 0.30482
 C1767 C -0.02885 0.76751 0.29483
 C1768 C 0.02891 0.79515 0.26687
 C1769 C 0.05088 0.80519 0.27688
 C1770 C 0.06767 0.78991 0.29023
 C1771 C 0.06214 0.76432 0.29304
 C1772 C 0.04027 0.75425 0.28277
 C1773 C 0.02879 0.70543 0.23357
 C1774 C 0.05058 0.69529 0.22321
 C1775 C 0.06723 0.71052 0.20972
 C1776 C 0.06173 0.73614 0.20700
 C1777 C 0.04004 0.74633 0.21762
 C1778 C -0.04063 0.71790 0.24661
 C1779 C -0.06253 0.70767 0.23655
 C1780 C -0.06793 0.71044 0.21108
 C1781 C -0.05098 0.72356 0.19587
 C1782 C -0.02898 0.73351 0.20587
 H1783 H -0.03658 0.78537 0.23441
 H1784 H -0.07521 0.80319 0.25188
 H1785 H -0.05429 0.77541 0.32457
 H1786 H -0.01589 0.75771 0.30693
 H1787 H 0.01608 0.80730 0.25688
 H1788 H 0.05443 0.82501 0.27454
 H1789 H 0.03624 0.73454 0.28531
 H1790 H 0.01607 0.69331 0.24367
 H1791 H 0.05412 0.67545 0.22540
 H1792 H 0.07425 0.74837 0.19683
 H1793 H 0.03603 0.76607 0.21521
 H1794 H -0.03672 0.71551 0.26626
 H1795 H -0.07532 0.69781 0.24874
 H1796 H -0.05445 0.72579 0.17614
 H1797 H -0.01607 0.74336 0.19377
 H1798 H 0.07478 0.75205 0.30306
 C1799 C 0.50016 0.74137 0.74125
 C1800 C 0.50013 0.75967 0.75876
 C1801 C 0.47645 0.77001 0.76872
 C1802 C 0.52363 0.76987 0.76934
 C1803 C 0.52375 0.73105 0.73087
 C1804 C 0.47650 0.73114 0.73112
 C1805 C 0.46240 0.78737 0.75503
 C1806 C 0.44043 0.79763 0.76505
 C1807 C 0.43187 0.79037 0.78886
 C1808 C 0.44613 0.77259 0.80226
 C1809 C 0.46828 0.76278 0.79239
 C1810 C 0.52908 0.79539 0.76666
 C1811 C 0.55099 0.80537 0.77684
 C1812 C 0.56766 0.79005 0.79027
 C1813 C 0.56201 0.76449 0.79313
 C1814 C 0.54020 0.75447 0.78269
 C1815 C 0.52904 0.70546 0.73350
 C1816 C 0.55099 0.69533 0.72346
 C1817 C 0.56785 0.71056 0.71024
 C1818 C 0.56240 0.73620 0.70749
 C1819 C 0.54056 0.74637 0.71779
 C1820 C 0.46034 0.71690 0.74608
 C1821 C 0.43839 0.70678 0.73603
 C1822 C 0.43224 0.71084 0.71089
 C1823 C 0.44854 0.72515 0.69601
 C1824 C 0.47056 0.73503 0.70602
 H1825 H 0.46861 0.79315 0.73670
 H1826 H 0.43019 0.81104 0.75389
 H1827 H 0.44068 0.76645 0.82065
 H1828 H 0.47904 0.74940 0.80318
 H1829 H 0.51643 0.80757 0.75651
 H1830 H 0.55462 0.82517 0.77453
 H1831 H 0.53613 0.73475 0.78514
 H1832 H 0.51618 0.69335 0.74345
 H1833 H 0.55450 0.67548 0.72566
 H1834 H 0.57507 0.74846 0.69753
 H1835 H 0.53662 0.76613 0.71540
 H1836 H 0.46487 0.71342 0.76543
 H1837 H 0.42616 0.69597 0.74799
 H1838 H 0.44455 0.72838 0.67652
 H1839 H 0.48301 0.74578 0.69419
 H1840 H 0.57453 0.75217 0.80324
   
