data_POSCAR
  _audit_creation_date              2014-09-24
  _audit_creation_method            'ToBaCCo'
  _symmetry_space_group_name_H-M    'P1'
  _symmetry_Int_Tables_number       1
  _symmetry_cell_setting            triclinic
  loop_
  _symmetry_equiv_pos_as_xyz
 x,y,z
_cell_length_a 63.6687
_cell_length_b 63.9969
_cell_length_c 66.1758
_cell_angle_alpha 89.833500
_cell_angle_beta 89.801200
_cell_angle_gamma 89.932300
loop_
  _atom_site_label
  _atom_site_type_symbol
  _atom_site_fract_x
  _atom_site_fract_y
  _atom_site_fract_z
N1 N 0.37806 0.31900 0.34570
 N2 N 0.37483 0.32963 0.32896
 C3 C 0.38833 0.32300 0.31468
 C4 C 0.40053 0.30723 0.32281
 C5 C 0.39381 0.30527 0.34267
 H6 H 0.38865 0.32859 0.29924
 H7 H 0.39940 0.29417 0.35378
 Cu8 Cu 0.35192 0.34961 0.32626
 Cu9 Cu 0.35970 0.32261 0.36894
 Cu10 Cu 0.32740 0.36396 0.37092
 N11 N 0.33310 0.37400 0.32850
 N12 N 0.32440 0.37995 0.34569
 C13 C 0.31138 0.39613 0.34209
 C14 C 0.31176 0.40032 0.32159
 C15 C 0.32591 0.38627 0.31350
 H16 H 0.30136 0.40338 0.35330
 H17 H 0.32977 0.38445 0.29768
 N18 N 0.32417 0.34026 0.38924
 N19 N 0.33623 0.32363 0.38783
 C20 C 0.32867 0.30859 0.40011
 C21 C 0.31081 0.31617 0.40956
 C22 C 0.30873 0.33651 0.40271
 H23 H 0.33504 0.29296 0.40128
 H24 H 0.29622 0.34735 0.40632
 H25 H 0.33270 0.34134 0.35032
 H26 H 0.35597 0.35817 0.35534
 N27 N 0.37498 0.81760 -0.16196
 N28 N 0.37752 0.83430 -0.17325
 C29 C 0.39400 0.83130 -0.18569
 C30 C 0.40253 0.81161 -0.18188
 C31 C 0.38971 0.80340 -0.16678
 H32 H 0.39821 0.84193 -0.19776
 H33 H 0.39071 0.78808 -0.15993
 Cu34 Cu 0.35767 0.85740 -0.17210
 Cu35 Cu 0.35121 0.81444 -0.14369
 Cu36 Cu 0.32485 0.86034 -0.13260
 N37 N 0.33363 0.87629 -0.17222
 N38 N 0.32098 0.87767 -0.15656
 C39 C 0.30521 0.89092 -0.16094
 C40 C 0.30764 0.89778 -0.18074
 C41 C 0.32633 0.88860 -0.18714
 H42 H 0.29298 0.89522 -0.15035
 H43 H 0.33340 0.88975 -0.20198
 N44 N 0.32262 0.83506 -0.11582
 N45 N 0.33163 0.81720 -0.12078
 C46 C 0.32409 0.80196 -0.10875
 C47 C 0.30938 0.81060 -0.09587
 C48 C 0.30921 0.83170 -0.10040
 H49 H 0.32796 0.78556 -0.11009
 H50 H 0.29883 0.84341 -0.09410
 H51 H 0.33116 0.83805 -0.15327
 H52 H 0.35402 0.84506 -0.13711
 N53 N 0.88125 0.32318 -0.15939
 N54 N 0.88074 0.33904 -0.17204
 C55 C 0.89338 0.33495 -0.18785
 C56 C 0.90176 0.31514 -0.18533
 C57 C 0.89411 0.30833 -0.16683
 H58 H 0.89562 0.34529 -0.20063
 H59 H 0.89689 0.29331 -0.15979
 Cu60 Cu 0.86159 0.36234 -0.16813
 Cu61 Cu 0.86402 0.32293 -0.13496
 Cu62 Cu 0.81845 0.35192 -0.14068
 N63 N 0.83711 0.38038 -0.16911
 N64 N 0.82027 0.37643 -0.15826
 C65 C 0.80506 0.39002 -0.16341
 C66 C 0.81267 0.40337 -0.17842
 C67 C 0.83315 0.39645 -0.18166
 H68 H 0.78939 0.38970 -0.15708
 H69 H 0.84372 0.40119 -0.19364
 N70 N 0.82168 0.32983 -0.11993
 N71 N 0.83936 0.31935 -0.11736
 C72 C 0.83657 0.30490 -0.10279
 C73 C 0.81599 0.30601 -0.09615
 C74 C 0.80712 0.32222 -0.10705
 H75 H 0.84836 0.29377 -0.09802
 H76 H 0.79098 0.32746 -0.10620
 H77 H 0.84164 0.33363 -0.15367
 H78 H 0.84967 0.35279 -0.13399
 N79 N 0.88118 0.82079 0.34327
 N80 N 0.87828 0.83288 0.32742
 C81 C 0.89029 0.82590 0.31207
 C82 C 0.90110 0.80837 0.31864
 C83 C 0.89534 0.80591 0.33867
 H84 H 0.89062 0.83262 0.29705
 H85 H 0.90040 0.79372 0.34892
 Cu86 Cu 0.85851 0.85615 0.32834
 Cu87 Cu 0.86439 0.82377 0.36772
 Cu88 Cu 0.81708 0.84887 0.35881
 N89 N 0.83521 0.87588 0.32882
 N90 N 0.81898 0.87289 0.34077
 C91 C 0.80436 0.88753 0.33692
 C92 C 0.81185 0.90082 0.32188
 C93 C 0.83152 0.89265 0.31702
 H94 H 0.78925 0.88820 0.34441
 H95 H 0.84165 0.89737 0.30469
 N96 N 0.82140 0.82918 0.38136
 N97 N 0.83973 0.82046 0.38535
 C98 C 0.83738 0.80678 0.40067
 C99 C 0.81647 0.80665 0.40631
 C100 C 0.80686 0.82128 0.39405
 H101 H 0.84960 0.79654 0.40623
 H102 H 0.79028 0.82492 0.39362
 H103 H 0.84074 0.82937 0.34810
 H104 H 0.84805 0.85233 0.36388
 N105 N 0.61990 0.68303 0.33567
 N106 N 0.62104 0.66870 0.32153
 C107 C 0.60602 0.67233 0.30770
 C108 C 0.59461 0.68972 0.31361
 C109 C 0.60403 0.69619 0.33138
 H110 H 0.60443 0.66389 0.29366
 H111 H 0.60038 0.71011 0.33993
 Cu112 Cu 0.64373 0.64841 0.32144
 Cu113 Cu 0.64132 0.68552 0.35654
 Cu114 Cu 0.66984 0.63992 0.36450
 N115 N 0.66552 0.62727 0.32309
 N116 N 0.67541 0.62359 0.34015
 C117 C 0.68989 0.60857 0.33708
 C118 C 0.68947 0.60307 0.31685
 C119 C 0.67358 0.61500 0.30853
 H120 H 0.70042 0.60264 0.34855
 H121 H 0.66883 0.61521 0.29286
 N122 N 0.66927 0.66338 0.38389
 N123 N 0.65891 0.68093 0.38055
 C124 C 0.66396 0.69487 0.39492
 C125 C 0.67812 0.68569 0.40807
 C126 C 0.68121 0.66575 0.40049
 H127 H 0.65892 0.71101 0.39500
 H128 H 0.69245 0.65434 0.40585
 H129 H 0.66541 0.66553 0.34664
 H130 H 0.64098 0.65422 0.35781
 N131 N 0.61670 0.18372 -0.15941
 N132 N 0.61600 0.16906 -0.17325
 C133 C 0.60076 0.17374 -0.18656
 C134 C 0.59123 0.19219 -0.18062
 C135 C 0.60190 0.19816 -0.16340
 H136 H 0.59780 0.16523 -0.20036
 H137 H 0.59982 0.21255 -0.15510
 Cu138 Cu 0.63694 0.14690 -0.17397
 Cu139 Cu 0.63897 0.18484 -0.13943
 Cu140 Cu 0.67065 0.14087 -0.13558
 N141 N 0.65806 0.12495 -0.17422
 N142 N 0.67146 0.12287 -0.15932
 C143 C 0.68497 0.10734 -0.16371
 C144 C 0.67964 0.09889 -0.18237
 C145 C 0.66253 0.11077 -0.18857
 H146 H 0.69852 0.10357 -0.15459
 H147 H 0.65398 0.10930 -0.20258
 N148 N 0.67111 0.16387 -0.11575
 N149 N 0.65906 0.18059 -0.11729
 C150 C 0.66396 0.19401 -0.10243
 C151 C 0.67976 0.18535 -0.09083
 C152 C 0.68407 0.16631 -0.09988
 H153 H 0.65741 0.20952 -0.10085
 H154 H 0.69643 0.15551 -0.09577
 H155 H 0.66170 0.16569 -0.15278
 H156 H 0.64031 0.15315 -0.13780
 N157 N 0.11630 0.67748 -0.16068
 N158 N 0.11907 0.66629 -0.17710
 C159 C 0.10533 0.67260 -0.19125
 C160 C 0.09314 0.68842 -0.18319
 C161 C 0.10068 0.69132 -0.16382
 H162 H 0.10456 0.66659 -0.20649
 H163 H 0.09540 0.70279 -0.15295
 Cu164 Cu 0.14074 0.64496 -0.17858
 Cu165 Cu 0.13334 0.67319 -0.13661
 Cu166 Cu 0.17859 0.64366 -0.14389
 N167 N 0.16171 0.62287 -0.17854
 N168 N 0.17630 0.62214 -0.16457
 C169 C 0.18977 0.60654 -0.16887
 C170 C 0.18324 0.59686 -0.18647
 C171 C 0.16549 0.60786 -0.19228
 H172 H 0.20390 0.60323 -0.16042
 H173 H 0.15686 0.60596 -0.20620
 N174 N 0.17415 0.66171 -0.12021
 N175 N 0.15681 0.67262 -0.11726
 C176 C 0.15921 0.68455 -0.10070
 C177 C 0.17891 0.68080 -0.09271
 C178 C 0.18798 0.66634 -0.10557
 H179 H 0.14796 0.69605 -0.09552
 H180 H 0.20398 0.66068 -0.10501
 H181 H 0.15871 0.66740 -0.15454
 H182 H 0.14700 0.64385 -0.14224
 N183 N 0.12166 0.18188 0.33828
 N184 N 0.11786 0.16616 0.32611
 C185 C 0.10181 0.17121 0.31387
 C186 C 0.09489 0.19110 0.31880
 C187 C 0.10802 0.19742 0.33430
 H188 H 0.09663 0.16177 0.30131
 H189 H 0.10837 0.21264 0.34135
 Cu190 Cu 0.13598 0.14179 0.32522
 Cu191 Cu 0.14603 0.18212 0.35606
 Cu192 Cu 0.17457 0.13617 0.35900
 N193 N 0.15945 0.12302 0.32034
 N194 N 0.17480 0.12115 0.33345
 C195 C 0.18966 0.10849 0.32575
 C196 C 0.18346 0.10238 0.30663
 C197 C 0.16393 0.11150 0.30390
 H198 H 0.20424 0.10459 0.33323
 H199 H 0.15391 0.11022 0.29080
 N200 N 0.17815 0.15921 0.37819
 N201 N 0.16781 0.17704 0.37671
 C202 C 0.17538 0.19045 0.39052
 C203 C 0.19145 0.18068 0.40090
 C204 C 0.19253 0.16075 0.39297
 H205 H 0.17026 0.20645 0.39236
 H206 H 0.20364 0.14864 0.39697
 H207 H 0.16466 0.16013 0.34161
 H208 H 0.14475 0.15071 0.36025
 N209 N 0.62534 0.32000 0.66213
 N210 N 0.62140 0.33690 0.67271
 C211 C 0.60474 0.33342 0.68478
 C212 C 0.59775 0.31325 0.68153
 C213 C 0.61133 0.30512 0.66716
 H214 H 0.59896 0.34425 0.69602
 H215 H 0.61183 0.28918 0.66179
 Cu216 Cu 0.64025 0.36059 0.67208
 Cu217 Cu 0.64989 0.31788 0.64464
 Cu218 Cu 0.67848 0.36354 0.63730
 N219 N 0.66367 0.37959 0.67516
 N220 N 0.67846 0.38125 0.66135
 C221 C 0.69247 0.39570 0.66735
 C222 C 0.68604 0.40352 0.68592
 C223 C 0.66789 0.39260 0.69051
 H224 H 0.70655 0.39984 0.65907
 H225 H 0.65875 0.39356 0.70429
 N226 N 0.68140 0.33885 0.61970
 N227 N 0.67070 0.32145 0.62278
 C228 C 0.67623 0.30739 0.60868
 C229 C 0.69101 0.31633 0.59601
 C230 C 0.69420 0.33620 0.60363
 H231 H 0.67022 0.29162 0.60784
 H232 H 0.70517 0.34775 0.59802
 H233 H 0.66902 0.34122 0.65660
 H234 H 0.64871 0.34903 0.63778
 N235 N 0.61669 0.82865 1.16288
 N236 N 0.61939 0.84250 1.17725
 C237 C 0.60538 0.83887 1.19215
 C238 C 0.59309 0.82193 1.18671
 C239 C 0.60097 0.81572 1.16813
 H240 H 0.60455 0.84754 1.20614
 H241 H 0.59625 0.80222 1.15947
 Cu242 Cu 0.64178 0.86305 1.17542
 Cu243 Cu 0.63416 0.82801 1.13869
 Cu244 Cu 0.68099 0.85548 1.14202
 N245 N 0.66810 0.87826 1.17729
 N246 N 0.68293 0.87599 1.16362
 C247 C 0.69945 0.88799 1.16859
 C248 C 0.69514 0.89765 1.18685
 C249 C 0.67490 0.89140 1.19170
 H250 H 0.71373 0.88922 1.15977
 H251 H 0.66606 0.89560 1.20508
 N252 N 0.67573 0.83405 1.12131
 N253 N 0.65767 0.82409 1.11968
 C254 C 0.65946 0.80936 1.10529
 C255 C 0.67981 0.80967 1.09793
 C256 C 0.68954 0.82577 1.10812
 H257 H 0.64725 0.79839 1.10133
 H258 H 0.70587 0.83020 1.10682
 H259 H 0.65942 0.83607 1.15617
 H260 H 0.64920 0.85709 1.13930
 N261 N 0.12590 0.32062 1.16023
 N262 N 0.12590 0.33610 1.17322
 C263 C 0.11001 0.33332 1.18644
 C264 C 0.09948 0.31509 1.18150
 C265 C 0.11017 0.30740 1.16483
 H266 H 0.10723 0.34292 1.19960
 H267 H 0.10778 0.29242 1.15766
 Cu268 Cu 0.14929 0.35567 1.17419
 Cu269 Cu 0.14842 0.31686 1.14058
 Cu270 Cu 0.18169 0.35941 1.13429
 N271 N 0.17306 0.37477 1.17415
 N272 N 0.18561 0.37634 1.15840
 C273 C 0.20107 0.38998 1.16256
 C274 C 0.19841 0.39687 1.18221
 C275 C 0.18031 0.38715 1.18899
 H276 H 0.21364 0.39410 1.15225
 H277 H 0.17341 0.38848 1.20389
 N278 N 0.18094 0.33562 1.11545
 N279 N 0.16812 0.31960 1.11770
 C280 C 0.17242 0.30537 1.10334
 C281 C 0.18896 0.31256 1.09159
 C282 C 0.19407 0.33175 1.09991
 H283 H 0.16482 0.29033 1.10215
 H284 H 0.20735 0.34147 1.09592
 H285 H 0.17250 0.33541 1.15242
 H286 H 0.15083 0.34818 1.13802
 N287 N 0.12078 0.82014 0.65854
 N288 N 0.12448 0.83147 0.67467
 C289 C 0.11265 0.82428 0.69009
 C290 C 0.10106 0.80745 0.68325
 C291 C 0.10632 0.80552 0.66304
 H292 H 0.11269 0.83054 0.70525
 H293 H 0.10034 0.79414 0.65248
 Cu294 Cu 0.14429 0.85462 0.67394
 Cu295 Cu 0.13573 0.82458 0.63326
 Cu296 Cu 0.17956 0.85661 0.63598
 N297 N 0.16809 0.87365 0.67453
 N298 N 0.18143 0.87482 0.65937
 C299 C 0.19669 0.88851 0.66398
 C300 C 0.19309 0.89585 0.68333
 C301 C 0.17459 0.88637 0.68943
 H302 H 0.20982 0.89235 0.65425
 H303 H 0.16694 0.88799 0.70396
 N304 N 0.17470 0.83703 0.61361
 N305 N 0.15792 0.82502 0.61247
 C306 C 0.16044 0.81153 0.59705
 C307 C 0.17965 0.81535 0.58793
 C308 C 0.18828 0.83154 0.59892
 H309 H 0.14981 0.79885 0.59366
 H310 H 0.20405 0.83760 0.59735
 H311 H 0.16207 0.83283 0.64937
 H312 H 0.14774 0.85478 0.63688
 N313 N 0.37563 0.68526 0.66472
 N314 N 0.37670 0.67028 0.67829
 C315 C 0.39294 0.67409 0.69069
 C316 C 0.40278 0.69232 0.68440
 C317 C 0.39117 0.69906 0.66796
 H318 H 0.39655 0.66507 0.70408
 H319 H 0.39322 0.71347 0.65962
 Cu320 Cu 0.35523 0.64871 0.67970
 Cu321 Cu 0.35227 0.68736 0.64595
 Cu322 Cu 0.32468 0.64108 0.63915
 N323 N 0.33469 0.62629 0.67903
 N324 N 0.32290 0.62315 0.66306
 C325 C 0.31010 0.60679 0.66665
 C326 C 0.31417 0.59921 0.68590
 C327 C 0.32967 0.61220 0.69337
 H328 H 0.29834 0.60116 0.65625
 H329 H 0.33624 0.61183 0.70841
 N330 N 0.32286 0.66508 0.62033
 N331 N 0.33312 0.68273 0.62321
 C332 C 0.32759 0.69653 0.60883
 C333 C 0.31324 0.68717 0.59614
 C334 C 0.31038 0.66730 0.60404
 H335 H 0.33290 0.71257 0.60813
 H336 H 0.29942 0.65564 0.59876
 H337 H 0.33014 0.66592 0.65737
 H338 H 0.35366 0.65594 0.64352
 N339 N 0.37987 0.18735 1.16046
 N340 N 0.37923 0.17468 1.17611
 C341 C 0.39221 0.18194 1.19049
 C342 C 0.40127 0.20023 1.18355
 C343 C 0.39337 0.20302 1.16429
 H344 H 0.39442 0.17493 1.20522
 H345 H 0.39672 0.21583 1.15409
 Cu346 Cu 0.36049 0.15070 1.17658
 Cu347 Cu 0.36137 0.18396 1.13730
 Cu348 Cu 0.32808 0.14103 1.13784
 N349 N 0.34194 0.12659 1.17677
 N350 N 0.32979 0.12254 1.16126
 C351 C 0.31762 0.10597 1.16572
 C352 C 0.32234 0.09922 1.18509
 C353 C 0.33771 0.11285 1.19170
 H354 H 0.30530 0.10006 1.15610
 H355 H 0.34422 0.11357 1.20675
 N356 N 0.32867 0.16163 1.11560
 N357 N 0.34141 0.17789 1.11539
 C358 C 0.33636 0.19031 1.09968
 C359 C 0.31974 0.18145 1.08942
 C360 C 0.31518 0.16335 1.10003
 H361 H 0.34306 0.20556 1.09684
 H362 H 0.30208 0.15300 1.09735
 H363 H 0.33760 0.16804 1.15229
 H364 H 0.35838 0.15198 1.13984
 N365 N 0.88032 0.68307 1.16446
 N366 N 0.88334 0.66734 1.17694
 C367 C 0.90026 0.67137 1.18841
 C368 C 0.90850 0.69054 1.18264
 C369 C 0.89528 0.69755 1.16747
 H370 H 0.90522 0.66191 1.20109
 H371 H 0.89570 0.71263 1.16007
 Cu372 Cu 0.86278 0.64496 1.17892
 Cu373 Cu 0.85510 0.68529 1.14795
 Cu374 Cu 0.82941 0.63806 1.14075
 N375 N 0.84261 0.62218 1.17940
 N376 N 0.82910 0.61995 1.16460
 C377 C 0.81549 0.60464 1.16942
 C378 C 0.82088 0.59659 1.18819
 C379 C 0.83811 0.60828 1.19410
 H380 H 0.80193 0.60060 1.16045
 H381 H 0.84611 0.60738 1.20846
 N382 N 0.82538 0.66257 1.12306
 N383 N 0.83419 0.68086 1.12654
 C384 C 0.82602 0.69513 1.11381
 C385 C 0.81116 0.68541 1.10192
 C386 C 0.81158 0.66465 1.10783
 H387 H 0.82994 0.71156 1.11373
 H388 H 0.80181 0.65217 1.10215
 H389 H 0.83515 0.66220 1.15973
 H390 H 0.85786 0.65438 1.14355
 N391 N 0.87930 0.18262 0.66380
 N392 N 0.87913 0.16839 0.67816
 C393 C 0.89517 0.17204 0.69087
 C394 C 0.90608 0.18942 0.68401
 C395 C 0.89542 0.19576 0.66685
 H396 H 0.89771 0.16381 0.70494
 H397 H 0.89833 0.20973 0.65804
 Cu398 Cu 0.85592 0.14878 0.68030
 Cu399 Cu 0.85640 0.18535 0.64452
 Cu400 Cu 0.82601 0.14061 0.63958
 N401 N 0.83335 0.12838 0.68081
 N402 N 0.82205 0.12482 0.66459
 C403 C 0.80730 0.11047 0.66898
 C404 C 0.80894 0.10535 0.68926
 C405 C 0.82589 0.11672 0.69620
 H406 H 0.79575 0.10478 0.65838
 H407 H 0.83179 0.11704 0.71150
 N408 N 0.82574 0.16371 0.61973
 N409 N 0.83709 0.18082 0.62185
 C410 C 0.83205 0.19442 0.60713
 C411 C 0.81680 0.18551 0.59510
 C412 C 0.81299 0.16612 0.60367
 H413 H 0.83814 0.21014 0.60587
 H414 H 0.80109 0.15505 0.59914
 H415 H 0.83264 0.16624 0.65656
 H416 H 0.85575 0.15405 0.64378
 N417 N 0.31365 0.37725 0.65736
 N418 N 0.32822 0.37946 0.67120
 C419 C 0.32172 0.39368 0.68480
 C420 C 0.30197 0.40063 0.67930
 C421 C 0.29756 0.39023 0.66151
 H422 H 0.33024 0.39797 0.69828
 H423 H 0.28332 0.39137 0.65272
 Cu424 Cu 0.35356 0.36245 0.67140
 Cu425 Cu 0.31502 0.35536 0.63714
 Cu426 Cu 0.35859 0.32302 0.63791
 N427 N 0.37716 0.34314 0.67215
 N428 N 0.37915 0.32796 0.65896
 C429 C 0.39538 0.31571 0.66434
 C430 C 0.40424 0.32369 0.68174
 C431 C 0.39213 0.34104 0.68635
 H432 H 0.39938 0.30109 0.65711
 H433 H 0.39335 0.35059 0.69975
 N434 N 0.33603 0.32031 0.61788
 N435 N 0.31914 0.33228 0.61795
 C436 C 0.30509 0.32445 0.60484
 C437 C 0.31342 0.30659 0.59632
 C438 C 0.33327 0.30472 0.60452
 H439 H 0.28937 0.33042 0.60263
 H440 H 0.34431 0.29217 0.60186
 H441 H 0.33358 0.33534 0.65418
 H442 H 0.34734 0.35324 0.63611
 N443 N 0.31830 0.88021 0.16106
 N444 N 0.33193 0.87783 0.17576
 C445 C 0.32807 0.89220 0.19012
 C446 C 0.31134 0.90445 0.18396
 C447 C 0.30538 0.89622 0.16555
 H448 H 0.33613 0.89309 0.20445
 H449 H 0.29212 0.90106 0.15649
 Cu450 Cu 0.35244 0.85532 0.17560
 Cu451 Cu 0.31696 0.86104 0.13836
 Cu452 Cu 0.35281 0.82022 0.13781
 N453 N 0.37176 0.83177 0.17539
 N454 N 0.37238 0.81851 0.16027
 C455 C 0.38655 0.80346 0.16436
 C456 C 0.39484 0.80720 0.18331
 C457 C 0.38534 0.82546 0.18971
 H458 H 0.39007 0.79039 0.15459
 H459 H 0.38762 0.83307 0.20410
 N460 N 0.33168 0.82452 0.11653
 N461 N 0.31804 0.84005 0.11668
 C462 C 0.30434 0.83736 0.10144
 C463 C 0.30965 0.81932 0.09114
 C464 C 0.32694 0.81153 0.10127
 H465 H 0.29072 0.84706 0.09872
 H466 H 0.33446 0.79662 0.09863
 H467 H 0.32926 0.83547 0.15361
 H468 H 0.34814 0.85211 0.13910
 N469 N 0.81899 0.38320 0.16071
 N470 N 0.83236 0.38225 0.17578
 C471 C 0.82717 0.39669 0.18962
 C472 C 0.80984 0.40756 0.18273
 C473 C 0.80486 0.39843 0.16442
 H474 H 0.83490 0.39871 0.20400
 H475 H 0.79175 0.40229 0.15473
 Cu476 Cu 0.85437 0.36134 0.17634
 Cu477 Cu 0.82097 0.36412 0.13776
 Cu478 Cu 0.85134 0.31966 0.14681
 N479 N 0.87652 0.34052 0.17654
 N480 N 0.87511 0.32391 0.16498
 C481 C 0.89068 0.31054 0.16976
 C482 C 0.90265 0.31937 0.18496
 C483 C 0.89308 0.33834 0.18896
 H484 H 0.89229 0.29496 0.16364
 H485 H 0.89714 0.34908 0.20090
 N486 N 0.83133 0.32208 0.12418
 N487 N 0.82010 0.33904 0.12052
 C488 C 0.80769 0.33554 0.10444
 C489 C 0.81154 0.31555 0.09745
 C490 C 0.82643 0.30741 0.11047
 H491 H 0.79625 0.34647 0.09859
 H492 H 0.83270 0.29170 0.11033
 H493 H 0.82890 0.34105 0.15733
 H494 H 0.85093 0.35071 0.14124
 N495 N 0.81291 0.87911 0.66437
 N496 N 0.82805 0.87976 0.67778
 C497 C 0.82488 0.89615 0.69008
 C498 C 0.80691 0.90657 0.68393
 C499 C 0.79959 0.89510 0.66768
 H500 H 0.83418 0.89954 0.70331
 H501 H 0.78513 0.89763 0.65948
 Cu502 Cu 0.84912 0.85785 0.67937
 Cu503 Cu 0.81028 0.85585 0.64565
 Cu504 Cu 0.85638 0.82763 0.63849
 N505 N 0.87157 0.83738 0.67814
 N506 N 0.87470 0.82578 0.66206
 C507 C 0.89137 0.81321 0.66533
 C508 C 0.89915 0.81730 0.68447
 C509 C 0.88595 0.83249 0.69222
 H510 H 0.89710 0.80165 0.65477
 H511 H 0.88642 0.83901 0.70726
 N512 N 0.83209 0.82600 0.61999
 N513 N 0.81449 0.83649 0.62299
 C514 C 0.80038 0.83086 0.60895
 C515 C 0.80949 0.81618 0.59637
 C516 C 0.82954 0.81329 0.60398
 H517 H 0.78428 0.83623 0.60850
 H518 H 0.84105 0.80208 0.59878
 H519 H 0.83143 0.83338 0.65691
 H520 H 0.84188 0.85669 0.64318
 N521 N 0.67931 0.61849 0.66319
 N522 N 0.66860 0.62136 0.67998
 C523 C 0.67640 0.60880 0.69448
 C524 C 0.69296 0.59759 0.68636
 C525 C 0.69410 0.60379 0.66634
 H526 H 0.67096 0.60831 0.70997
 H527 H 0.70524 0.59851 0.65507
 Cu528 Cu 0.64628 0.64207 0.68134
 Cu529 Cu 0.67421 0.63517 0.63901
 Cu530 Cu 0.64412 0.67981 0.64673
 N531 N 0.62333 0.66216 0.68136
 N532 N 0.62238 0.67675 0.66737
 C533 C 0.60663 0.68999 0.67184
 C534 C 0.59710 0.68338 0.68959
 C535 C 0.60827 0.66572 0.69527
 H536 H 0.60328 0.70419 0.66354
 H537 H 0.60660 0.65717 0.70930
 N538 N 0.66254 0.67603 0.62306
 N539 N 0.67371 0.65893 0.61997
 C540 C 0.68625 0.66193 0.60379
 C541 C 0.68259 0.68175 0.59620
 C542 C 0.66754 0.69026 0.60885
 H543 H 0.69815 0.65105 0.59872
 H544 H 0.66180 0.70617 0.60852
 H545 H 0.66834 0.66033 0.65704
 H546 H 0.64468 0.64858 0.64503
 N547 N 0.67849 0.12108 0.16947
 N548 N 0.66321 0.12194 0.18284
 C549 C 0.66536 0.10597 0.19598
 C550 C 0.68293 0.09444 0.19049
 C551 C 0.69096 0.10471 0.17372
 H552 H 0.65565 0.10355 0.20922
 H553 H 0.70560 0.10137 0.16603
 Cu554 Cu 0.64419 0.14578 0.18324
 Cu555 Cu 0.68286 0.14290 0.14931
 Cu556 Cu 0.63918 0.17435 0.14109
 N557 N 0.62442 0.16895 0.18190
 N558 N 0.62196 0.17955 0.16502
 C559 C 0.60761 0.19468 0.16800
 C560 C 0.60142 0.19417 0.18809
 C561 C 0.61211 0.17735 0.19635
 H562 H 0.60263 0.20569 0.15653
 H563 H 0.61150 0.17213 0.21190
 N564 N 0.66346 0.17325 0.12245
 N565 N 0.68001 0.16125 0.12556
 C566 C 0.69452 0.16529 0.11125
 C567 C 0.68692 0.18077 0.09855
 C568 C 0.66723 0.18557 0.10631
 H569 H 0.70995 0.15825 0.11070
 H570 H 0.65705 0.19816 0.10150
 H571 H 0.66376 0.16750 0.15952
 H572 H 0.65147 0.14448 0.14702
 N573 N 0.18036 0.62017 0.16817
 N574 N 0.16550 0.62058 0.18200
 C575 C 0.16817 0.60430 0.19468
 C576 C 0.18563 0.59307 0.18840
 C577 C 0.19304 0.60378 0.17164
 H578 H 0.15899 0.60156 0.20820
 H579 H 0.20750 0.60080 0.16350
 Cu580 Cu 0.14662 0.64443 0.18373
 Cu581 Cu 0.18417 0.64265 0.14862
 Cu582 Cu 0.14052 0.67474 0.14295
 N583 N 0.12702 0.66773 0.18391
 N584 N 0.12434 0.67925 0.16763
 C585 C 0.11043 0.69452 0.17170
 C586 C 0.10470 0.69298 0.19185
 C587 C 0.11523 0.67557 0.19903
 H588 H 0.10546 0.70629 0.16096
 H589 H 0.11487 0.66956 0.21433
 N590 N 0.16397 0.67393 0.12341
 N591 N 0.18055 0.66175 0.12555
 C592 C 0.19441 0.66599 0.11071
 C593 C 0.18630 0.68176 0.09867
 C594 C 0.16706 0.68655 0.10738
 H595 H 0.20972 0.65882 0.10930
 H596 H 0.15672 0.69927 0.10323
 H597 H 0.16563 0.66694 0.16030
 H598 H 0.15272 0.64455 0.14733
 N599 N 0.17474 0.11567 0.66347
 N600 N 0.15994 0.11560 0.67736
 C601 C 0.16455 0.10114 0.69148
 C602 C 0.18318 0.09143 0.68607
 C603 C 0.18933 0.10129 0.66834
 H604 H 0.15542 0.09834 0.70503
 H605 H 0.20385 0.09888 0.66014
 Cu606 Cu 0.13703 0.13555 0.67645
 Cu607 Cu 0.17486 0.13552 0.64099
 Cu608 Cu 0.13723 0.17471 0.64258
 N609 N 0.11835 0.15932 0.67924
 N610 N 0.11788 0.17417 0.66549
 C611 C 0.10412 0.18895 0.67131
 C612 C 0.09550 0.18314 0.68975
 C613 C 0.10518 0.16434 0.69443
 H614 H 0.10131 0.20339 0.66322
 H615 H 0.10362 0.15552 0.70832
 N616 N 0.15829 0.17244 0.62075
 N617 N 0.17226 0.15722 0.61984
 C618 C 0.18523 0.16078 0.60409
 C619 C 0.17926 0.17919 0.59462
 C620 C 0.16224 0.18621 0.60579
 H621 H 0.19883 0.15137 0.60046
 H622 H 0.15430 0.20105 0.60403
 H623 H 0.16048 0.15860 0.65786
 H624 H 0.14332 0.14304 0.64073
 N625 N 0.32664 0.61589 0.33608
 N626 N 0.33897 0.62114 0.32093
 C627 C 0.33522 0.60833 0.30523
 C628 C 0.31994 0.59409 0.31097
 C629 C 0.31477 0.59950 0.33061
 H630 H 0.34228 0.60985 0.29042
 H631 H 0.30263 0.59256 0.33993
 Cu632 Cu 0.35805 0.64478 0.32308
 Cu633 Cu 0.32551 0.63176 0.36117
 Cu634 Cu 0.35450 0.67762 0.36228
 N635 N 0.37649 0.66891 0.32533
 N636 N 0.37559 0.68121 0.34119
 C637 C 0.38913 0.69714 0.33864
 C638 C 0.39855 0.69509 0.31989
 C639 C 0.39046 0.67679 0.31202
 H640 H 0.39126 0.70979 0.34923
 H641 H 0.39380 0.67033 0.29727
 N642 N 0.33240 0.67106 0.38214
 N643 N 0.32153 0.65350 0.38193
 C644 C 0.30602 0.65476 0.39579
 C645 C 0.30701 0.67419 0.40483
 C646 C 0.32408 0.68394 0.39606
 H647 H 0.29407 0.64300 0.39818
 H648 H 0.32905 0.69984 0.39867
 H649 H 0.33292 0.65929 0.34663
 H650 H 0.35506 0.64586 0.35992
 N651 N 0.32660 0.11593 0.83402
 N652 N 0.33809 0.11957 0.81784
 C653 C 0.33316 0.10564 0.80345
 C654 C 0.31799 0.09230 0.81107
 C655 C 0.31407 0.09940 0.83049
 H656 H 0.33925 0.10586 0.78818
 H657 H 0.30232 0.09358 0.84092
 Cu658 Cu 0.35703 0.14323 0.81662
 Cu659 Cu 0.32771 0.13416 0.85767
 Cu660 Cu 0.35083 0.18256 0.84885
 N661 N 0.37663 0.16640 0.81690
 N662 N 0.37448 0.18163 0.83001
 C663 C 0.38888 0.19646 0.82603
 C664 C 0.40079 0.19017 0.80954
 C665 C 0.39231 0.17111 0.80401
 H666 H 0.38987 0.21124 0.83387
 H667 H 0.39632 0.16206 0.79077
 N668 N 0.33146 0.17720 0.87154
 N669 N 0.32348 0.15857 0.87545
 C670 C 0.30999 0.16020 0.89108
 C671 C 0.30896 0.18096 0.89686
 C672 C 0.32312 0.19118 0.88444
 H673 H 0.30065 0.14746 0.89700
 H674 H 0.32622 0.20779 0.88414
 H675 H 0.33071 0.15898 0.83850
 H676 H 0.35505 0.15174 0.85249
 N677 N 0.82084 0.62073 0.84080
 N678 N 0.83274 0.62281 0.82465
 C679 C 0.82724 0.60832 0.81098
 C680 C 0.81120 0.59638 0.81908
 C681 C 0.80733 0.60482 0.83795
 H682 H 0.83390 0.60690 0.79599
 H683 H 0.79541 0.59998 0.84866
 Cu684 Cu 0.85372 0.64474 0.82283
 Cu685 Cu 0.82381 0.63896 0.86417
 Cu686 Cu 0.85318 0.68399 0.85583
 N687 N 0.87518 0.66629 0.82203
 N688 N 0.87518 0.68147 0.83535
 C689 C 0.89040 0.69521 0.83053
 C690 C 0.90060 0.68824 0.81326
 C691 C 0.89029 0.66994 0.80819
 H692 H 0.89309 0.70977 0.83835
 H693 H 0.89271 0.66079 0.79468
 N694 N 0.83447 0.68026 0.87937
 N695 N 0.82349 0.66308 0.88264
 C696 C 0.81127 0.66587 0.89907
 C697 C 0.81497 0.68562 0.90668
 C698 C 0.82963 0.69435 0.89372
 H699 H 0.79982 0.65473 0.90457
 H700 H 0.83548 0.71020 0.89415
 H701 H 0.83001 0.66345 0.84541
 H702 H 0.85332 0.65263 0.85887
 N703 N 0.82231 0.12333 0.33453
 N704 N 0.83695 0.12344 0.32050
 C705 C 0.83326 0.10783 0.30740
 C706 C 0.81552 0.09710 0.31370
 C707 C 0.80890 0.10755 0.33092
 H708 H 0.84193 0.10533 0.29354
 H709 H 0.79472 0.10462 0.33952
 Cu710 Cu 0.85782 0.14552 0.31949
 Cu711 Cu 0.81980 0.14583 0.35425
 Cu712 Cu 0.86443 0.17655 0.35967
 N713 N 0.87922 0.16708 0.31966
 N714 N 0.88184 0.17917 0.33547
 C715 C 0.89726 0.19297 0.33150
 C716 C 0.90479 0.18921 0.31219
 C717 C 0.89278 0.17285 0.30505
 H718 H 0.90224 0.20519 0.34167
 H719 H 0.89338 0.16624 0.29004
 N720 N 0.84080 0.17694 0.37905
 N721 N 0.82380 0.16536 0.37689
 C722 C 0.81000 0.17021 0.39159
 C723 C 0.81869 0.18554 0.40363
 C724 C 0.83814 0.18962 0.39509
 H725 H 0.79433 0.16384 0.39290
 H726 H 0.84913 0.20152 0.39974
 H727 H 0.83928 0.16917 0.34217
 H728 H 0.85138 0.14668 0.35585
 N729 N 0.68200 0.38126 0.34489
 N730 N 0.66738 0.38384 0.33114
 C731 C 0.67436 0.39733 0.31700
 C732 C 0.69452 0.40347 0.32210
 C733 C 0.69860 0.39337 0.34022
 H734 H 0.66576 0.40171 0.30357
 H735 H 0.71283 0.39425 0.34907
 Cu736 Cu 0.64144 0.36792 0.33216
 Cu737 Cu 0.67924 0.36084 0.36662
 Cu738 Cu 0.63793 0.32561 0.36190
 N739 N 0.62114 0.34606 0.32678
 N740 N 0.62063 0.32900 0.33785
 C741 C 0.60730 0.31527 0.32942
 C742 C 0.59926 0.32407 0.31193
 C743 C 0.60801 0.34388 0.31103
 H744 H 0.60434 0.29968 0.33512
 H745 H 0.60564 0.35555 0.29939
 N746 N 0.66076 0.32211 0.38170
 N747 N 0.67672 0.33518 0.38306
 C748 C 0.69092 0.32721 0.39600
 C749 C 0.68365 0.30816 0.40304
 C750 C 0.66422 0.30569 0.39402
 H751 H 0.70592 0.33426 0.39939
 H752 H 0.65371 0.29255 0.39579
 H753 H 0.66247 0.34114 0.34815
 H754 H 0.64714 0.35595 0.36733
 N755 N 0.68028 0.88148 0.84144
 N756 N 0.66770 0.87969 0.82583
 C757 C 0.67287 0.89416 0.81192
 C758 C 0.68932 0.90591 0.81935
 C759 C 0.69381 0.89728 0.83805
 H760 H 0.66574 0.89563 0.79718
 H761 H 0.70623 0.90187 0.84822
 Cu762 Cu 0.64659 0.85791 0.82480
 Cu763 Cu 0.67828 0.86269 0.86468
 Cu764 Cu 0.65006 0.81707 0.85572
 N765 N 0.62510 0.83643 0.82480
 N766 N 0.62667 0.82025 0.83699
 C767 C 0.61149 0.80643 0.83255
 C768 C 0.59957 0.81447 0.81689
 C769 C 0.60879 0.83347 0.81223
 H770 H 0.61007 0.79108 0.83932
 H771 H 0.60460 0.84375 0.79988
 N772 N 0.66918 0.82054 0.87881
 N773 N 0.67966 0.83792 0.88245
 C774 C 0.69174 0.83502 0.89890
 C775 C 0.68837 0.81500 0.90615
 C776 C 0.67416 0.80623 0.89292
 H777 H 0.70263 0.84639 0.90484
 H778 H 0.66844 0.79033 0.89319
 H779 H 0.67206 0.83903 0.84534
 H780 H 0.64901 0.84823 0.86033
 N781 N 0.18254 0.37958 0.84340
 N782 N 0.16760 0.38323 0.83020
 C783 C 0.17440 0.39745 0.81667
 C784 C 0.19479 0.40293 0.82154
 C785 C 0.19922 0.39168 0.83895
 H786 H 0.16560 0.40259 0.80361
 H787 H 0.21380 0.39167 0.84729
 Cu788 Cu 0.14169 0.36731 0.83043
 Cu789 Cu 0.18046 0.35713 0.86334
 Cu790 Cu 0.13408 0.32859 0.86357
 N791 N 0.12111 0.34556 0.82543
 N792 N 0.11857 0.33004 0.83825
 C793 C 0.10503 0.31616 0.83039
 C794 C 0.09906 0.32314 0.81143
 C795 C 0.10919 0.34214 0.80900
 H796 H 0.10060 0.30158 0.83754
 H797 H 0.10852 0.35239 0.79599
 N798 N 0.15695 0.32365 0.88295
 N799 N 0.17496 0.33384 0.88231
 C800 C 0.18849 0.32461 0.89515
 C801 C 0.17862 0.30769 0.90408
 C802 C 0.15845 0.30789 0.89638
 H803 H 0.20474 0.32908 0.89707
 H804 H 0.14616 0.29666 0.89945
 H805 H 0.15947 0.33885 0.84746
 H806 H 0.14857 0.35786 0.86598
 N807 N 0.18020 0.88706 0.34185
 N808 N 0.16642 0.88611 0.32712
 C809 C 0.17117 0.90063 0.31312
 C810 C 0.18859 0.91163 0.31958
 C811 C 0.19401 0.90246 0.33783
 H812 H 0.16333 0.90230 0.29873
 H813 H 0.20753 0.90607 0.34704
 Cu814 Cu 0.14513 0.86448 0.32685
 Cu815 Cu 0.18007 0.86692 0.36415
 Cu816 Cu 0.15158 0.82160 0.35431
 N817 N 0.12368 0.84295 0.32707
 N818 N 0.12648 0.82591 0.33788
 C819 C 0.11128 0.81211 0.33345
 C820 C 0.09806 0.82104 0.31925
 C821 C 0.10653 0.84059 0.31546
 H822 H 0.11083 0.79618 0.33894
 H823 H 0.10138 0.85161 0.30409
 N824 N 0.17292 0.82355 0.37576
 N825 N 0.18339 0.84085 0.37982
 C826 C 0.19722 0.83689 0.39472
 C827 C 0.19546 0.81606 0.40009
 C828 C 0.17973 0.80819 0.38801
 H829 H 0.20816 0.84813 0.40079
 H830 H 0.17410 0.79225 0.38782
 H831 H 0.17242 0.84453 0.34381
 H832 H 0.15072 0.85218 0.36126
 C833 C 0.25304 1.06048 0.24685
 C834 C 0.26855 1.04918 0.23662
 C835 C 0.26835 1.02727 0.23746
 C836 C 0.25222 1.01645 0.24783
 C837 C 0.23611 1.02832 0.25703
 C838 C 0.23660 1.05022 0.25681
 C839 C 0.25205 0.99302 0.24900
 C840 C 0.24108 0.98258 0.26461
 C841 C 0.23964 0.96072 0.26500
 C842 C 0.25127 0.94895 0.25113
 C843 C 0.26336 0.95890 0.23627
 C844 C 0.26281 0.98076 0.23460
 H845 H 0.25359 1.07741 0.24672
 H846 H 0.28089 1.01896 0.22993
 H847 H 0.22285 1.02080 0.26424
 H848 H 0.23325 0.99119 0.27649
 H849 H 0.25091 0.93203 0.25187
 H850 H 0.27100 0.98787 0.22202
 C851 C 0.24818 0.55626 0.74798
 C852 C 0.26266 0.54544 0.73599
 C853 C 0.26298 0.52350 0.73648
 C854 C 0.24896 0.51220 0.74898
 C855 C 0.23464 0.52356 0.76103
 C856 C 0.23416 0.54548 0.76057
 C857 C 0.24919 0.48876 0.74943
 C858 C 0.24218 0.47764 0.76668
 C859 C 0.24176 0.45572 0.76691
 C860 C 0.24896 0.44477 0.74999
 C861 C 0.25639 0.45531 0.73286
 C862 C 0.25624 0.47722 0.73253
 H863 H 0.24793 0.57320 0.74765
 H864 H 0.27451 0.51547 0.72731
 H865 H 0.22353 0.51556 0.77072
 H866 H 0.23716 0.48579 0.78015
 H867 H 0.24879 0.42783 0.75013
 H868 H 0.26136 0.48503 0.71887
 C869 C 0.75371 -0.05820 0.25485
 C870 C 0.76320 -0.04670 0.27021
 C871 C 0.76061 -0.02496 0.27076
 C872 C 0.75042 -0.01423 0.25487
 C873 C 0.74190 -0.02619 0.23895
 C874 C 0.74313 -0.04809 0.23908
 C875 C 0.74960 0.00925 0.25433
 C876 C 0.73447 0.01987 0.24257
 C877 C 0.73517 0.04166 0.24021
 C878 C 0.75008 0.05320 0.25090
 C879 C 0.76453 0.04323 0.26356
 C880 C 0.76437 0.02135 0.26505
 H881 H 0.75488 -0.07510 0.25500
 H882 H 0.76699 -0.01672 0.28356
 H883 H 0.73460 -0.01875 0.22608
 H884 H 0.72209 0.01144 0.23500
 H885 H 0.75039 0.07008 0.24941
 H886 H 0.77608 0.01406 0.27449
 C887 C 0.74889 0.44180 0.75471
 C888 C 0.76266 0.45261 0.76735
 C889 C 0.76233 0.47454 0.76742
 C890 C 0.74856 0.48601 0.75486
 C891 C 0.73484 0.47459 0.74231
 C892 C 0.73493 0.45264 0.74218
 C893 C 0.74896 0.50960 0.75452
 C894 C 0.74014 0.52111 0.73831
 C895 C 0.74119 0.54300 0.73777
 C896 C 0.75190 0.55366 0.75297
 C897 C 0.76132 0.54271 0.76877
 C898 C 0.75886 0.52100 0.77011
 H899 H 0.74905 0.42486 0.75460
 H900 H 0.77334 0.48228 0.77721
 H901 H 0.72378 0.48241 0.73256
 H902 H 0.73270 0.51347 0.72572
 H903 H 0.75314 0.57055 0.75235
 H904 H 0.76522 0.51340 0.78331
 C905 C 0.25482 0.44045 0.25155
 C906 C 0.26398 0.45186 0.26719
 C907 C 0.26383 0.47374 0.26647
 C908 C 0.25504 0.48447 0.24984
 C909 C 0.24629 0.47256 0.23400
 C910 C 0.24594 0.45067 0.23494
 C911 C 0.25506 0.50788 0.24893
 C912 C 0.23977 0.51869 0.23757
 C913 C 0.24038 0.54050 0.23566
 C914 C 0.25532 0.55187 0.24648
 C915 C 0.27007 0.54163 0.25860
 C916 C 0.27021 0.51971 0.25943
 H917 H 0.25471 0.42352 0.25226
 H918 H 0.27037 0.48213 0.27912
 H919 H 0.23998 0.48005 0.22067
 H920 H 0.22723 0.51037 0.23013
 H921 H 0.25540 0.56879 0.24558
 H922 H 0.28220 0.51216 0.26839
 C923 C 0.74579 1.06109 0.75443
 C924 C 0.75925 1.05123 0.74071
 C925 C 0.76098 1.02936 0.74085
 C926 C 0.74773 1.01700 0.75325
 C927 C 0.73300 1.02750 0.76568
 C928 C 0.73275 1.04933 0.76705
 C929 C 0.74893 0.99346 0.75316
 C930 C 0.73951 0.98157 0.76878
 C931 C 0.73875 0.95973 0.76785
 C932 C 0.74996 0.94929 0.75278
 C933 C 0.76075 0.96055 0.73787
 C934 C 0.75921 0.98245 0.73746
 H935 H 0.74511 1.07801 0.75494
 H936 H 0.77254 1.02240 0.73099
 H937 H 0.72144 1.01909 0.77445
 H938 H 0.73210 0.98887 0.78164
 H939 H 0.75009 0.93235 0.75253
 H940 H 0.76625 0.99049 0.72479
 C941 C 0.75313 0.55883 0.25322
 C942 C 0.76662 0.54753 0.24061
 C943 C 0.76716 0.52570 0.24229
 C944 C 0.75251 0.51478 0.25445
 C945 C 0.73896 0.52661 0.26694
 C946 C 0.74006 0.54852 0.26706
 C947 C 0.75168 0.49131 0.25398
 C948 C 0.74312 0.47950 0.27014
 C949 C 0.74306 0.45752 0.26958
 C950 C 0.75237 0.44722 0.25316
 C951 C 0.76166 0.45857 0.23748
 C952 C 0.75999 0.48035 0.23727
 H953 H 0.75310 0.57576 0.25262
 H954 H 0.77911 0.51748 0.23382
 H955 H 0.72767 0.51911 0.27678
 H956 H 0.73676 0.48707 0.28339
 H957 H 0.75279 0.43029 0.25278
 H958 H 0.76594 0.48849 0.22413
 C959 C 0.24878 -0.06037 0.75275
 C960 C 0.25858 -0.04930 0.76819
 C961 C 0.25832 -0.02742 0.76796
 C962 C 0.24900 -0.01630 0.75179
 C963 C 0.23977 -0.02796 0.73598
 C964 C 0.23948 -0.04987 0.73655
 C965 C 0.24943 0.00719 0.75106
 C966 C 0.23490 0.01849 0.73918
 C967 C 0.23636 0.04029 0.73711
 C968 C 0.25123 0.05122 0.74843
 C969 C 0.26521 0.04053 0.76102
 C970 C 0.26457 0.01864 0.76196
 H971 H 0.24876 -0.07732 0.75315
 H972 H 0.26534 -0.01942 0.78059
 H973 H 0.23320 -0.02032 0.72286
 H974 H 0.22238 0.01060 0.73129
 H975 H 0.25204 0.06811 0.74735
 H976 H 0.27617 0.01084 0.77118
 C977 C 0.25469 0.24662 1.04969
 C978 C 0.24049 0.25995 1.04002
 C979 C 0.23717 0.25785 1.01915
 C980 C 0.24750 0.24216 1.00775
 C981 C 0.26091 0.22828 1.01832
 C982 C 0.26502 0.23090 1.03896
 C983 C 0.24451 0.24042 0.98513
 C984 C 0.25820 0.22806 0.97313
 C985 C 0.25551 0.22650 0.95218
 C986 C 0.24019 0.23861 0.94268
 C987 C 0.22632 0.25088 0.95396
 C988 C 0.22824 0.25144 0.97506
 H989 H 0.25751 0.24829 1.06576
 H990 H 0.22636 0.26865 1.01225
 H991 H 0.26832 0.21519 1.01094
 H992 H 0.27115 0.21953 0.97961
 H993 H 0.23898 0.23835 0.92634
 H994 H 0.21678 0.26057 0.98318
 C995 C 0.24538 0.74743 0.55195
 C996 C 0.23087 0.75903 0.54072
 C997 C 0.23000 0.75653 0.51971
 C998 C 0.24478 0.74395 0.50946
 C999 C 0.25950 0.73265 0.52108
 C1000 C 0.25965 0.73413 0.54224
 C1001 C 0.24532 0.74336 0.48682
 C1002 C 0.25391 0.72609 0.47639
 C1003 C 0.25529 0.72608 0.45522
 C1004 C 0.24761 0.74319 0.44430
 C1005 C 0.23861 0.76023 0.45422
 C1006 C 0.23775 0.76044 0.47536
 H1007 H 0.24585 0.74904 0.56824
 H1008 H 0.21790 0.76484 0.51153
 H1009 H 0.27127 0.72296 0.51391
 H1010 H 0.25951 0.71250 0.48450
 H1011 H 0.24867 0.74328 0.42794
 H1012 H 0.23154 0.77425 0.48262
 C1013 C 0.24281 0.74633 -0.05358
 C1014 C 0.25645 0.76024 -0.04411
 C1015 C 0.25758 0.76062 -0.02298
 C1016 C 0.24363 0.74862 -0.01095
 C1017 C 0.22901 0.73571 -0.02106
 C1018 C 0.22923 0.73389 -0.04216
 C1019 C 0.24419 0.74968 0.01180
 C1020 C 0.23407 0.73441 0.02384
 C1021 C 0.23325 0.73617 0.04497
 C1022 C 0.24519 0.75162 0.05446
 C1023 C 0.25676 0.76597 0.04300
 C1024 C 0.25499 0.76586 0.02189
 H1025 H 0.24255 0.74542 -0.06994
 H1026 H 0.26933 0.77057 -0.01637
 H1027 H 0.21726 0.72689 -0.01293
 H1028 H 0.22646 0.72106 0.01719
 H1029 H 0.24565 0.75236 0.07082
 H1030 H 0.26261 0.77836 0.01376
 C1031 C 0.25052 0.24532 0.44724
 C1032 C 0.25970 0.26136 0.45841
 C1033 C 0.25889 0.26063 0.47956
 C1034 C 0.24936 0.24365 0.48978
 C1035 C 0.24029 0.22758 0.47807
 C1036 C 0.24065 0.22854 0.45690
 C1037 C 0.24876 0.24291 0.51245
 C1038 C 0.23307 0.23153 0.52290
 C1039 C 0.23225 0.23136 0.54412
 C1040 C 0.24692 0.24301 0.55500
 C1041 C 0.26303 0.25381 0.54508
 C1042 C 0.26398 0.25363 0.52393
 H1043 H 0.25097 0.24596 0.43086
 H1044 H 0.26546 0.27362 0.48781
 H1045 H 0.23315 0.21409 0.48512
 H1046 H 0.22131 0.22279 0.51479
 H1047 H 0.24606 0.24329 0.57137
 H1048 H 0.27691 0.26163 0.51666
 C1049 C 0.74337 0.74408 1.05701
 C1050 C 0.72910 0.75626 1.04617
 C1051 C 0.73067 0.75721 1.02505
 C1052 C 0.74696 0.74665 1.01454
 C1053 C 0.76111 0.73436 1.02607
 C1054 C 0.75872 0.73237 1.04705
 C1055 C 0.74885 0.74812 0.99182
 C1056 C 0.76124 0.73379 0.98068
 C1057 C 0.76308 0.73536 0.95960
 C1058 C 0.75114 0.75014 0.94914
 C1059 C 0.73817 0.76401 0.95963
 C1060 C 0.73795 0.76372 0.98082
 H1061 H 0.74230 0.74337 1.07336
 H1062 H 0.71879 0.76606 1.01721
 H1063 H 0.77399 0.72605 1.01915
 H1064 H 0.76960 0.72118 0.98794
 H1065 H 0.75184 0.75076 0.93278
 H1066 H 0.72885 0.77565 0.98829
 C1067 C 0.75299 0.25101 0.55313
 C1068 C 0.74059 0.26525 0.54239
 C1069 C 0.74103 0.26513 0.52117
 C1070 C 0.75217 0.24952 0.51048
 C1071 C 0.76361 0.23465 0.52182
 C1072 C 0.76492 0.23603 0.54291
 C1073 C 0.75184 0.24861 0.48777
 C1074 C 0.76783 0.23805 0.47699
 C1075 C 0.76691 0.23597 0.45594
 C1076 C 0.75108 0.24618 0.44521
 C1077 C 0.73517 0.25708 0.45536
 C1078 C 0.73539 0.25792 0.47658
 H1079 H 0.75332 0.25156 0.56950
 H1080 H 0.73239 0.27718 0.51329
 H1081 H 0.77180 0.22191 0.51456
 H1082 H 0.78107 0.23107 0.48465
 H1083 H 0.75098 0.24533 0.42885
 H1084 H 0.72245 0.26566 0.48408
 C1085 C 0.74965 0.24567 -0.05144
 C1086 C 0.76575 0.25632 -0.04156
 C1087 C 0.76633 0.25643 -0.02037
 C1088 C 0.75065 0.24615 -0.00883
 C1089 C 0.73481 0.23519 -0.01934
 C1090 C 0.73440 0.23474 -0.04051
 C1091 C 0.75056 0.24699 0.01390
 C1092 C 0.73931 0.23212 0.02547
 C1093 C 0.73716 0.23419 0.04649
 C1094 C 0.74870 0.24962 0.05646
 C1095 C 0.76145 0.26343 0.04555
 C1096 C 0.76137 0.26288 0.02436
 H1097 H 0.74916 0.24564 -0.06783
 H1098 H 0.77931 0.26431 -0.01320
 H1099 H 0.72248 0.22701 -0.01137
 H1100 H 0.73186 0.21886 0.01844
 H1101 H 0.74802 0.25071 0.07279
 H1102 H 0.77005 0.27484 0.01639
 C1103 C 0.75008 0.74380 0.44795
 C1104 C 0.76610 0.75429 0.45810
 C1105 C 0.76656 0.75414 0.47927
 C1106 C 0.75068 0.74404 0.49062
 C1107 C 0.73465 0.73353 0.47988
 C1108 C 0.73448 0.73315 0.45868
 C1109 C 0.75057 0.74476 0.51338
 C1110 C 0.73857 0.73036 0.52476
 C1111 C 0.73669 0.73218 0.54577
 C1112 C 0.74838 0.74725 0.55599
 C1113 C 0.76117 0.76118 0.54528
 C1114 C 0.76194 0.76017 0.52408
 H1115 H 0.74973 0.74395 0.43156
 H1116 H 0.77958 0.76184 0.48654
 H1117 H 0.72194 0.72572 0.48764
 H1118 H 0.73027 0.71768 0.51763
 H1119 H 0.74727 0.74835 0.57231
 H1120 H 0.77126 0.77175 0.51628
 C1121 C 1.05726 0.25376 0.24983
 C1122 C 1.04608 0.24403 0.26546
 C1123 C 1.02450 0.24790 0.26751
 C1124 C 1.01331 0.25928 0.25271
 C1125 C 1.02508 0.26912 0.23723
 C1126 C 1.04697 0.26670 0.23593
 C1127 C 0.98961 0.25960 0.25268
 C1128 C 0.97823 0.27373 0.24040
 C1129 C 0.95639 0.27192 0.23818
 C1130 C 0.94539 0.25713 0.24962
 C1131 C 0.95607 0.24358 0.26259
 C1132 C 0.97800 0.24467 0.26388
 H1133 H 1.07406 0.25132 0.24850
 H1134 H 1.01670 0.24143 0.28061
 H1135 H 1.01761 0.27858 0.22582
 H1136 H 0.98596 0.28605 0.23208
 H1137 H 0.92847 0.25597 0.24821
 H1138 H 0.98563 0.23329 0.27341
 C1139 C 0.55415 0.25406 0.75049
 C1140 C 0.54248 0.24451 0.76586
 C1141 C 0.52080 0.24813 0.76713
 C1142 C 0.51013 0.25933 0.75186
 C1143 C 0.52231 0.26863 0.73637
 C1144 C 0.54421 0.26638 0.73590
 C1145 C 0.48651 0.25998 0.75122
 C1146 C 0.47579 0.27471 0.73913
 C1147 C 0.45412 0.27302 0.73576
 C1148 C 0.44256 0.25777 0.74611
 C1149 C 0.45254 0.24384 0.75929
 C1150 C 0.47440 0.24490 0.76163
 H1151 H 0.57102 0.25181 0.74980
 H1152 H 0.51255 0.24162 0.77995
 H1153 H 0.51510 0.27743 0.72430
 H1154 H 0.48405 0.28739 0.73181
 H1155 H 0.42574 0.25668 0.74385
 H1156 H 0.48165 0.23349 0.77139
 C1157 C -0.05386 0.25228 0.74948
 C1158 C -0.04400 0.26688 0.76194
 C1159 C -0.02196 0.26797 0.76214
 C1160 C -0.00973 0.25610 0.74839
 C1161 C -0.02052 0.24353 0.73425
 C1162 C -0.04230 0.24077 0.73545
 C1163 C 0.01395 0.25621 0.74904
 C1164 C 0.02563 0.23993 0.73992
 C1165 C 0.04759 0.23914 0.74113
 C1166 C 0.05817 0.25459 0.75193
 C1167 C 0.04722 0.27135 0.76055
 C1168 C 0.02522 0.27214 0.75906
 H1169 H -0.07078 0.25050 0.75015
 H1170 H -0.01471 0.27818 0.77303
 H1171 H -0.01235 0.23561 0.72218
 H1172 H 0.01798 0.22751 0.73182
 H1173 H 0.07512 0.25381 0.75327
 H1174 H 0.01727 0.28545 0.76555
 C1175 C 0.44518 0.25507 0.25281
 C1176 C 0.45637 0.26397 0.26874
 C1177 C 0.47834 0.26518 0.26758
 C1178 C 0.48929 0.25792 0.25032
 C1179 C 0.47751 0.24920 0.23436
 C1180 C 0.45559 0.24761 0.23567
 C1181 C 0.51278 0.25956 0.24892
 C1182 C 0.52450 0.24578 0.23656
 C1183 C 0.54638 0.24769 0.23487
 C1184 C 0.55686 0.26239 0.24673
 C1185 C 0.54571 0.27641 0.25890
 C1186 C 0.52373 0.27509 0.25980
 H1187 H 0.42819 0.25407 0.25370
 H1188 H 0.48667 0.27160 0.28034
 H1189 H 0.48508 0.24394 0.22063
 H1190 H 0.51687 0.23352 0.22812
 H1191 H 0.57387 0.26312 0.24620
 H1192 H 0.51538 0.28647 0.26883
 C1193 C 1.05412 0.75053 0.75065
 C1194 C 1.04228 0.74081 0.76573
 C1195 C 1.02044 0.74335 0.76606
 C1196 C 1.00981 0.75348 0.75004
 C1197 C 1.02221 0.76272 0.73460
 C1198 C 1.04423 0.76159 0.73511
 C1199 C 0.98612 0.75347 0.74904
 C1200 C 0.97507 0.76738 0.73624
 C1201 C 0.95304 0.76686 0.73502
 C1202 C 0.94179 0.75240 0.74665
 C1203 C 0.95220 0.73854 0.75956
 C1204 C 0.97418 0.73914 0.76066
 H1205 H 1.07109 0.74908 0.75073
 H1206 H 1.01211 0.73671 0.77876
 H1207 H 1.01514 0.77038 0.72176
 H1208 H 0.98322 0.77894 0.72729
 H1209 H 0.92479 0.75207 0.74577
 H1210 H 0.98161 0.72800 0.77058
 C1211 C 0.55243 0.75457 0.24892
 C1212 C 0.54205 0.74067 0.26189
 C1213 C 0.52008 0.74139 0.26341
 C1214 C 0.50833 0.75637 0.25257
 C1215 C 0.51934 0.77102 0.24058
 C1216 C 0.54120 0.76961 0.23799
 C1217 C 0.48478 0.75630 0.25323
 C1218 C 0.47302 0.76417 0.23679
 C1219 C 0.45101 0.76351 0.23698
 C1220 C 0.44057 0.75466 0.25351
 C1221 C 0.45177 0.74650 0.26986
 C1222 C 0.47377 0.74762 0.26985
 H1223 H 0.56937 0.75370 0.24741
 H1224 H 0.51239 0.73003 0.27301
 H1225 H 0.51107 0.78353 0.23296
 H1226 H 0.48074 0.77037 0.22349
 H1227 H 0.42356 0.75389 0.25355
 H1228 H 0.48202 0.74172 0.28293
 C1229 C -0.05291 0.74919 0.25181
 C1230 C -0.04331 0.76049 0.26727
 C1231 C -0.02138 0.76235 0.26756
 C1232 C -0.00881 0.75406 0.25182
 C1233 C -0.01913 0.74361 0.23588
 C1234 C -0.04088 0.74012 0.23645
 C1235 C 0.01480 0.75582 0.25228
 C1236 C 0.02767 0.74269 0.24026
 C1237 C 0.04962 0.74441 0.24067
 C1238 C 0.05904 0.75787 0.25452
 C1239 C 0.04681 0.77077 0.26680
 C1240 C 0.02488 0.77039 0.26503
 H1241 H -0.06984 0.74741 0.25176
 H1242 H -0.01451 0.77015 0.28037
 H1243 H -0.01060 0.73778 0.22295
 H1244 H 0.02103 0.73103 0.23043
 H1245 H 0.07603 0.75850 0.25554
 H1246 H 0.01605 0.78156 0.27383
 C1247 C 0.44507 0.75335 0.75059
 C1248 C 0.45584 0.76502 0.76504
 C1249 C 0.47782 0.76396 0.76581
 C1250 C 0.48946 0.75334 0.75077
 C1251 C 0.47810 0.74312 0.73537
 C1252 C 0.45610 0.74185 0.73607
 C1253 C 0.51308 0.75225 0.75162
 C1254 C 0.52439 0.73689 0.74075
 C1255 C 0.54632 0.73529 0.74220
 C1256 C 0.55717 0.74872 0.75512
 C1257 C 0.54642 0.76398 0.76612
 C1258 C 0.52467 0.76624 0.76375
 H1259 H 0.42804 0.75318 0.75070
 H1260 H 0.48544 0.77154 0.77835
 H1261 H 0.48597 0.73553 0.72293
 H1262 H 0.51652 0.72588 0.73108
 H1263 H 0.57408 0.74735 0.75655
 H1264 H 0.51716 0.77902 0.77156
 C1265 C 0.41533 0.27251 0.31022
 C1266 C 0.41630 0.29465 0.31170
 C1267 C 0.43182 0.30551 0.30092
 C1268 C 0.44575 0.29508 0.28822
 C1269 C 0.44456 0.27340 0.28580
 C1270 C 0.42988 0.26182 0.29745
 C1271 C 0.39972 0.26075 0.32033
 C1272 C 0.39919 0.23903 0.31879
 C1273 C 0.41398 0.22858 0.30703
 C1274 C 0.42916 0.23981 0.29638
 H1275 H 0.38763 0.26806 0.32933
 H1276 H 0.38721 0.23024 0.32675
 H1277 H 0.41356 0.21171 0.30601
 H1278 H 0.44038 0.23112 0.28739
 H1279 H 0.43273 0.32239 0.30184
 H1280 H 0.45681 0.30415 0.27933
 C1281 C 0.43428 0.81133 0.79561
 C1282 C 0.41829 0.80094 0.80700
 C1283 C 0.41717 0.77899 0.80589
 C1284 C 0.42969 0.76777 0.79252
 C1285 C 0.44391 0.77790 0.77974
 C1286 C 0.44641 0.79986 0.78120
 C1287 C 0.43940 0.83255 0.79886
 C1288 C 0.45409 0.84275 0.78669
 C1289 C 0.46431 0.83201 0.77130
 C1290 C 0.46065 0.81075 0.76859
 H1291 H 0.43273 0.84131 0.81125
 H1292 H 0.45760 0.85908 0.78925
 H1293 H 0.47548 0.84008 0.76170
 H1294 H 0.46918 0.80301 0.75661
 H1295 H 0.40562 0.77025 0.81443
 H1296 H 0.42784 0.75095 0.79177
 C1297 C -0.08851 0.30304 0.77915
 C1298 C -0.08485 0.30325 0.80033
 C1299 C -0.06768 0.29217 0.80815
 C1300 C -0.05418 0.28105 0.79551
 C1301 C -0.05717 0.28097 0.77456
 C1302 C -0.07391 0.29281 0.76614
 C1303 C -0.10667 0.31211 0.77052
 C1304 C -0.10926 0.31297 0.74963
 C1305 C -0.09401 0.30466 0.73690
 C1306 C -0.07651 0.29465 0.74499
 H1307 H -0.11931 0.31819 0.77968
 H1308 H -0.12315 0.32019 0.74329
 H1309 H -0.09591 0.30570 0.72068
 H1310 H -0.06504 0.28846 0.73450
 H1311 H -0.06470 0.29206 0.82426
 H1312 H -0.04151 0.27209 0.80218
 C1313 C -0.08631 0.77277 0.30614
 C1314 C -0.08472 0.79494 0.30652
 C1315 C -0.06913 0.80481 0.29498
 C1316 C -0.05529 0.79328 0.28312
 C1317 C -0.05650 0.77145 0.28242
 C1318 C -0.07166 0.76095 0.29446
 C1319 C -0.10252 0.76201 0.31645
 C1320 C -0.10336 0.74024 0.31642
 C1321 C -0.08829 0.72873 0.30602
 C1322 C -0.07260 0.73891 0.29507
 H1323 H -0.11492 0.77016 0.32431
 H1324 H -0.11579 0.73226 0.32453
 H1325 H -0.08890 0.71183 0.30624
 H1326 H -0.06119 0.72938 0.28718
 H1327 H -0.06774 0.82168 0.29505
 H1328 H -0.04388 0.80153 0.27391
 C1329 C 0.56382 0.69201 0.28897
 C1330 C 0.57931 0.70167 0.30123
 C1331 C 0.58145 0.72346 0.30063
 C1332 C 0.56921 0.73559 0.28785
 C1333 C 0.55449 0.72644 0.27495
 C1334 C 0.55181 0.70443 0.27525
 C1335 C 0.55971 0.67037 0.29022
 C1336 C 0.54523 0.66098 0.27737
 C1337 C 0.53451 0.67289 0.26313
 C1338 C 0.53771 0.69441 0.26201
 H1339 H 0.56731 0.66055 0.30131
 H1340 H 0.54237 0.64434 0.27842
 H1341 H 0.52352 0.66546 0.25300
 H1342 H 0.52913 0.70302 0.25064
 H1343 H 0.59314 0.73123 0.30977
 H1344 H 0.57135 0.75238 0.28792
 C1345 C 0.55932 0.19639 0.79660
 C1346 C 0.57649 0.20508 0.80731
 C1347 C 0.58093 0.22642 0.80520
 C1348 C 0.56941 0.23894 0.79208
 C1349 C 0.55314 0.23055 0.78051
 C1350 C 0.54792 0.20907 0.78265
 C1351 C 0.55308 0.17543 0.79954
 C1352 C 0.53690 0.16680 0.78817
 C1353 C 0.52660 0.17881 0.77373
 C1354 C 0.53199 0.19973 0.77092
 H1355 H 0.56040 0.16559 0.81080
 H1356 H 0.53239 0.15066 0.79051
 H1357 H 0.51429 0.17191 0.76472
 H1358 H 0.52362 0.20833 0.75941
 H1359 H 0.59397 0.23339 0.81319
 H1360 H 0.57354 0.25530 0.79061
 C1361 C 1.06168 0.69202 0.79365
 C1362 C 1.07743 0.70115 0.80587
 C1363 C 1.07970 0.72292 0.80611
 C1364 C 1.06764 0.73556 0.79352
 C1365 C 1.05287 0.72685 0.78039
 C1366 C 1.04958 0.70490 0.78048
 C1367 C 1.05762 0.67033 0.79426
 C1368 C 1.04268 0.66141 0.78159
 C1369 C 1.03154 0.67384 0.76808
 C1370 C 1.03495 0.69534 0.76741
 H1371 H 1.06571 0.66011 0.80470
 H1372 H 1.03979 0.64476 0.78221
 H1373 H 1.02013 0.66680 0.75811
 H1374 H 1.02603 0.70426 0.75652
 H1375 H 1.09163 0.73013 0.81541
 H1376 H 1.07030 0.75228 0.79356
 C1377 C 1.06177 0.19644 0.29776
 C1378 C 1.08027 0.20439 0.30689
 C1379 C 1.08613 0.22515 0.30312
 C1380 C 1.07468 0.23769 0.28996
 C1381 C 1.05711 0.22989 0.27980
 C1382 C 1.05060 0.20896 0.28349
 C1383 C 1.05395 0.17639 0.30262
 C1384 C 1.03655 0.16826 0.29264
 C1385 C 1.02660 0.17987 0.27767
 C1386 C 1.03353 0.19997 0.27304
 H1387 H 1.06094 0.16694 0.31437
 H1388 H 1.03084 0.15282 0.29645
 H1389 H 1.01335 0.17331 0.26970
 H1390 H 1.02543 0.20821 0.26111
 H1391 H 1.10014 0.23161 0.30989
 H1392 H 1.07981 0.25363 0.28741
 C1393 C 0.56765 0.28737 0.68624
 C1394 C 0.58264 0.30149 0.69425
 C1395 C 0.58414 0.30389 0.71523
 C1396 C 0.57159 0.29232 0.72826
 C1397 C 0.55705 0.27789 0.72084
 C1398 C 0.55500 0.27519 0.69967
 C1399 C 0.56464 0.28534 0.66521
 C1400 C 0.55021 0.27103 0.65758
 C1401 C 0.53854 0.25851 0.67067
 C1402 C 0.54089 0.26047 0.69151
 H1403 H 0.57314 0.29492 0.65449
 H1404 H 0.54811 0.26961 0.64142
 H1405 H 0.52753 0.24729 0.66463
 H1406 H 0.53164 0.25030 0.70110
 H1407 H 0.59551 0.31452 0.72167
 H1408 H 0.57325 0.29462 0.74440
 C1409 C 0.55954 0.80057 0.19121
 C1410 C 0.57746 0.81064 0.19942
 C1411 C 0.58175 0.80834 0.22005
 C1412 C 0.56948 0.79548 0.23226
 C1413 C 0.55266 0.78411 0.22425
 C1414 C 0.54762 0.78649 0.20346
 C1415 C 0.55303 0.80432 0.17114
 C1416 C 0.53629 0.79330 0.16285
 C1417 C 0.52576 0.77835 0.17430
 C1418 C 0.53134 0.77487 0.19438
 H1419 H 0.56051 0.81603 0.16179
 H1420 H 0.53156 0.79628 0.14741
 H1421 H 0.51306 0.76952 0.16765
 H1422 H 0.52283 0.76292 0.20253
 H1423 H 0.59523 0.81596 0.22672
 H1424 H 0.57348 0.79399 0.24811
 C1425 C 1.06770 0.29117 0.18649
 C1426 C 1.08427 0.30352 0.19442
 C1427 C 1.08758 0.30373 0.21534
 C1428 C 1.07535 0.29168 0.22829
 C1429 C 1.05945 0.27873 0.22087
 C1430 C 1.05562 0.27819 0.19974
 C1431 C 1.06258 0.29166 0.16575
 C1432 C 1.04687 0.27880 0.15805
 C1433 C 1.03599 0.26524 0.17077
 C1434 C 1.04031 0.26482 0.19140
 H1435 H 1.07037 0.30217 0.15535
 H1436 H 1.04319 0.27930 0.14210
 H1437 H 1.02404 0.25507 0.16464
 H1438 H 1.03164 0.25386 0.20065
 H1439 H 1.10014 0.31292 0.22179
 H1440 H 1.07840 0.29243 0.24437
 C1441 C 1.08672 0.77236 0.69539
 C1442 C 1.08616 0.79457 0.69517
 C1443 C 1.07111 0.80503 0.70689
 C1444 C 1.05691 0.79402 0.71889
 C1445 C 1.05729 0.77217 0.71959
 C1446 C 1.07182 0.76111 0.70732
 C1447 C 1.10221 0.76099 0.68471
 C1448 C 1.10220 0.73920 0.68478
 C1449 C 1.08697 0.72828 0.69559
 C1450 C 1.07193 0.73905 0.70682
 H1451 H 1.11468 0.76866 0.67648
 H1452 H 1.11410 0.73075 0.67640
 H1453 H 1.08695 0.71137 0.69544
 H1454 H 1.06038 0.72996 0.71503
 H1455 H 1.07048 0.82195 0.70692
 H1456 H 1.04598 0.80266 0.72829
 C1457 C 0.43582 0.69470 0.70599
 C1458 C 0.41888 0.70436 0.69563
 C1459 C 0.41595 0.72599 0.69746
 C1460 C 0.42857 0.73783 0.71012
 C1461 C 0.44442 0.72847 0.72166
 C1462 C 0.44817 0.70665 0.71971
 C1463 C 0.44088 0.67345 0.70295
 C1464 C 0.45672 0.66383 0.71411
 C1465 C 0.46777 0.67510 0.72851
 C1466 C 0.46355 0.69626 0.73140
 H1467 H 0.43295 0.66415 0.69171
 H1468 H 0.46034 0.64749 0.71167
 H1469 H 0.47980 0.66745 0.73739
 H1470 H 0.47239 0.70419 0.74296
 H1471 H 0.40321 0.73377 0.68966
 H1472 H 0.42557 0.75445 0.71134
 C1473 C 0.41238 0.23572 0.19741
 C1474 C 0.41573 0.21390 0.19496
 C1475 C 0.43296 0.20441 0.20441
 C1476 C 0.44650 0.21589 0.21652
 C1477 C 0.44325 0.23726 0.21962
 C1478 C 0.42659 0.24753 0.20945
 C1479 C 0.39482 0.24602 0.18896
 C1480 C 0.39209 0.26751 0.19124
 C1481 C 0.40657 0.27915 0.20213
 C1482 C 0.42363 0.26932 0.21126
 H1483 H 0.38283 0.23770 0.18079
 H1484 H 0.37864 0.27518 0.18452
 H1485 H 0.40446 0.29585 0.20371
 H1486 H 0.43451 0.27891 0.21965
 H1487 H 0.43571 0.18779 0.20272
 H1488 H 0.45910 0.20782 0.22428
 C1489 C -0.05795 0.69395 0.20333
 C1490 C -0.07576 0.70304 0.19388
 C1491 C -0.08003 0.72429 0.19698
 C1492 C -0.06799 0.73612 0.21014
 C1493 C -0.05141 0.72712 0.22095
 C1494 C -0.04616 0.70581 0.21756
 C1495 C -0.05154 0.67332 0.19894
 C1496 C -0.03490 0.66409 0.20930
 C1497 C -0.02435 0.67516 0.22418
 C1498 C -0.02988 0.69579 0.22836
 H1499 H -0.05906 0.66425 0.18727
 H1500 H -0.03027 0.64821 0.20586
 H1501 H -0.01168 0.66778 0.23243
 H1502 H -0.02131 0.70361 0.24019
 H1503 H -0.09346 0.73167 0.18992
 H1504 H -0.07214 0.75237 0.21248
 C1505 C -0.06163 0.19249 0.70654
 C1506 C -0.07832 0.20176 0.69551
 C1507 C -0.08147 0.22340 0.69671
 C1508 C -0.06923 0.23567 0.70929
 C1509 C -0.05348 0.22679 0.72126
 C1510 C -0.04941 0.20500 0.71991
 C1511 C -0.05664 0.17110 0.70448
 C1512 C -0.04076 0.16202 0.71601
 C1513 C -0.02959 0.17398 0.72980
 C1514 C -0.03385 0.19524 0.73184
 H1515 H -0.06470 0.16127 0.69375
 H1516 H -0.03717 0.14558 0.71430
 H1517 H -0.01746 0.16677 0.73890
 H1518 H -0.02488 0.20382 0.74288
 H1519 H -0.09410 0.23086 0.68846
 H1520 H -0.07245 0.25229 0.71007
 C1521 C 0.27601 0.41323 0.30979
 C1522 C 0.29828 0.41477 0.30997
 C1523 C 0.30826 0.42945 0.29752
 C1524 C 0.29673 0.44223 0.28464
 C1525 C 0.27484 0.44059 0.28368
 C1526 C 0.26422 0.42651 0.29671
 C1527 C 0.26519 0.39830 0.32163
 C1528 C 0.24332 0.39714 0.32126
 C1529 C 0.23181 0.41064 0.30904
 C1530 C 0.24209 0.42517 0.29682
 H1531 H 0.27336 0.38724 0.33112
 H1532 H 0.23525 0.38568 0.33051
 H1533 H 0.21483 0.40973 0.30892
 H1534 H 0.23258 0.43539 0.28753
 H1535 H 0.32524 0.43066 0.29741
 H1536 H 0.30503 0.45285 0.27465
 C1537 C 0.27198 -0.08843 0.80988
 C1538 C 0.29437 -0.08907 0.80773
 C1539 C 0.30387 -0.07599 0.79323
 C1540 C 0.29210 -0.06225 0.78155
 C1541 C 0.27033 -0.06107 0.78373
 C1542 C 0.26011 -0.07377 0.79824
 C1543 C 0.26072 -0.10313 0.82172
 C1544 C 0.23895 -0.10184 0.82384
 C1545 C 0.22774 -0.08640 0.81374
 C1546 C 0.23812 -0.07265 0.80081
 H1547 H 0.26820 -0.11639 0.82869
 H1548 H 0.23070 -0.11311 0.83315
 H1549 H 0.21086 -0.08547 0.81547
 H1550 H 0.22879 -0.06123 0.79272
 H1551 H 0.32074 -0.07601 0.79105
 H1552 H 0.30002 -0.05285 0.77020
 C1553 C 0.81060 0.43395 0.79782
 C1554 C 0.80106 0.41790 0.80979
 C1555 C 0.77915 0.41532 0.80846
 C1556 C 0.76726 0.42661 0.79464
 C1557 C 0.77665 0.44087 0.78135
 C1558 C 0.79859 0.44446 0.78267
 C1559 C 0.83141 0.44076 0.80121
 C1560 C 0.84093 0.45533 0.78843
 C1561 C 0.82990 0.46363 0.77219
 C1562 C 0.80892 0.45833 0.76929
 H1563 H 0.84030 0.43555 0.81416
 H1564 H 0.85695 0.46017 0.79115
 H1565 H 0.83749 0.47461 0.76207
 H1566 H 0.80092 0.46528 0.75655
 H1567 H 0.77098 0.40372 0.81740
 H1568 H 0.75046 0.42397 0.79416
 C1569 C 0.81043 -0.06682 0.30051
 C1570 C 0.80055 -0.08330 0.31159
 C1571 C 0.77850 -0.08482 0.31090
 C1572 C 0.76672 -0.07236 0.29793
 C1573 C 0.77639 -0.05770 0.28531
 C1574 C 0.79839 -0.05458 0.28666
 C1575 C 0.83172 -0.06144 0.30354
 C1576 C 0.84141 -0.04610 0.29177
 C1577 C 0.83008 -0.03555 0.27699
 C1578 C 0.80877 -0.03963 0.27444
 H1579 H 0.84093 -0.06844 0.31545
 H1580 H 0.85778 -0.04233 0.29418
 H1581 H 0.83775 -0.02383 0.26773
 H1582 H 0.80059 -0.03083 0.26294
 H1583 H 0.77016 -0.09676 0.31928
 H1584 H 0.74989 -0.07473 0.29718
 C1585 C 0.31194 0.56897 0.71106
 C1586 C 0.30224 0.58309 0.69733
 C1587 C 0.28032 0.58315 0.69565
 C1588 C 0.26796 0.57049 0.70798
 C1589 C 0.27702 0.55739 0.72253
 C1590 C 0.29923 0.55650 0.72420
 C1591 C 0.33399 0.56675 0.71192
 C1592 C 0.34332 0.55366 0.72618
 C1593 C 0.33095 0.54250 0.73979
 C1594 C 0.30913 0.54387 0.73889
 H1595 H 0.34422 0.57478 0.70141
 H1596 H 0.36025 0.55223 0.72671
 H1597 H 0.33831 0.53260 0.75102
 H1598 H 0.30019 0.53499 0.74985
 H1599 H 0.27258 0.59371 0.68523
 H1600 H 0.25103 0.57127 0.70645
 C1601 C 0.31905 1.07101 0.21242
 C1602 C 0.30995 1.08437 0.19762
 C1603 C 0.28807 1.08478 0.19552
 C1604 C 0.27520 1.07305 0.20814
 C1605 C 0.28365 1.06055 0.22350
 C1606 C 0.30577 1.05941 0.22579
 C1607 C 0.34102 1.06865 0.21408
 C1608 C 0.34972 1.05616 0.22920
 C1609 C 0.33677 1.04575 0.24289
 C1610 C 0.31500 1.04732 0.24128
 H1611 H 0.35168 1.07610 0.20357
 H1612 H 0.36660 1.05460 0.23034
 H1613 H 0.34363 1.03628 0.25474
 H1614 H 0.30555 1.03905 0.25230
 H1615 H 0.28070 1.09480 0.18439
 H1616 H 0.25835 1.07398 0.20608
 C1617 C 0.79695 0.56482 0.19291
 C1618 C 0.80839 0.58193 0.20095
 C1619 C 0.80665 0.58632 0.22164
 C1620 C 0.79337 0.57482 0.23411
 C1621 C 0.78087 0.55875 0.22636
 C1622 C 0.78235 0.55381 0.20545
 C1623 C 0.79984 0.55815 0.17276
 C1624 C 0.78745 0.54234 0.16465
 C1625 C 0.77201 0.53283 0.17639
 C1626 C 0.76940 0.53847 0.19656
 H1627 H 0.81192 0.56474 0.16320
 H1628 H 0.78975 0.53754 0.14913
 H1629 H 0.76214 0.52087 0.16988
 H1630 H 0.75703 0.53079 0.20495
 H1631 H 0.81521 0.59921 0.22823
 H1632 H 0.79262 0.57873 0.25002
 C1633 C 0.77291 1.09212 0.70047
 C1634 C 0.79521 1.09144 0.70144
 C1635 C 0.80493 1.07720 0.71458
 C1636 C 0.79310 1.06381 0.72670
 C1637 C 0.77116 1.06408 0.72594
 C1638 C 0.76088 1.07775 0.71223
 C1639 C 0.76217 1.10716 0.68870
 C1640 C 0.74033 1.10692 0.68724
 C1641 C 0.72872 1.09192 0.69760
 C1642 C 0.73880 1.07750 0.71004
 H1643 H 0.77031 1.11953 0.68084
 H1644 H 0.73238 1.11844 0.67800
 H1645 H 0.71179 1.09163 0.69620
 H1646 H 0.72913 1.06613 0.71782
 H1647 H 0.82190 1.07653 0.71558
 H1648 H 0.80114 1.05344 0.73710
 C1649 C 0.72567 0.58893 0.30727
 C1650 C 0.70341 0.58846 0.30576
 C1651 C 0.69393 0.57417 0.29260
 C1652 C 0.70596 0.56069 0.28081
 C1653 C 0.72789 0.56100 0.28185
 C1654 C 0.73791 0.57461 0.29570
 C1655 C 0.73619 0.60378 0.31934
 C1656 C 0.75801 0.60350 0.32111
 C1657 C 0.76982 0.58866 0.31079
 C1658 C 0.75996 0.57438 0.29814
 H1659 H 0.72791 0.61599 0.32725
 H1660 H 0.76579 0.61487 0.33055
 H1661 H 0.78673 0.58838 0.31239
 H1662 H 0.76976 0.56313 0.29037
 H1663 H 0.67699 0.57366 0.29121
 H1664 H 0.69813 0.55038 0.27030
 C1665 C 0.70428 1.06844 0.81486
 C1666 C 0.69080 1.08384 0.80613
 C1667 C 0.68977 1.08513 0.78490
 C1668 C 0.70319 1.07355 0.77268
 C1669 C 0.71813 1.06011 0.78106
 C1670 C 0.71872 1.05727 0.80231
 C1671 C 0.70304 1.06291 0.83554
 C1672 C 0.71717 1.04875 0.84401
 C1673 C 0.73258 1.03951 0.83208
 C1674 C 0.73336 1.04359 0.81141
 H1675 H 0.69071 1.06881 0.84521
 H1676 H 0.71609 1.04488 0.85992
 H1677 H 0.74369 1.02875 0.83880
 H1678 H 0.74542 1.03583 0.80270
 H1679 H 0.67950 1.09615 0.77744
 H1680 H 0.70229 1.07555 0.75643
 C1681 C 0.18553 0.56627 0.78884
 C1682 C 0.19528 0.58161 0.80115
 C1683 C 0.21717 0.58375 0.80045
 C1684 C 0.22929 0.57177 0.78738
 C1685 C 0.22001 0.55739 0.77424
 C1686 C 0.19789 0.55466 0.77473
 C1687 C 0.16384 0.56196 0.79038
 C1688 C 0.15428 0.54778 0.77738
 C1689 C 0.16608 0.53759 0.76267
 C1690 C 0.18766 0.54094 0.76129
 H1691 H 0.15412 0.56916 0.80183
 H1692 H 0.13760 0.54477 0.77866
 H1693 H 0.15850 0.52687 0.75240
 H1694 H 0.19615 0.53279 0.74953
 H1695 H 0.22504 0.59528 0.80966
 H1696 H 0.24617 0.57395 0.78735
 C1697 C 0.19772 1.09338 0.27147
 C1698 C 0.19559 1.08902 0.29248
 C1699 C 0.20571 1.07147 0.30063
 C1700 C 0.21810 1.05857 0.28864
 C1701 C 0.22059 1.06255 0.26797
 C1702 C 0.20958 1.07948 0.25903
 C1703 C 0.18914 1.11156 0.26255
 C1704 C 0.19055 1.11495 0.24176
 C1705 C 0.20072 1.10052 0.22947
 C1706 C 0.21022 1.08297 0.23795
 H1707 H 0.18166 1.12358 0.27140
 H1708 H 0.18370 1.12886 0.23516
 H1709 H 0.20151 1.10309 0.21331
 H1710 H 0.21798 1.07215 0.22785
 H1711 H 0.20429 1.06786 0.31659
 H1712 H 0.22640 1.04572 0.29574
 C1713 C 0.68740 0.43272 0.71213
 C1714 C 0.69763 0.41798 0.69939
 C1715 C 0.71947 0.41570 0.70062
 C1716 C 0.73110 0.42706 0.71452
 C1717 C 0.72131 0.44089 0.72798
 C1718 C 0.69920 0.44358 0.72709
 C1719 C 0.66579 0.43724 0.71014
 C1720 C 0.65572 0.45075 0.72353
 C1721 C 0.66693 0.46007 0.73908
 C1722 C 0.68844 0.45657 0.74092
 H1723 H 0.65652 0.43076 0.69804
 H1724 H 0.63911 0.45393 0.72189
 H1725 H 0.65895 0.47025 0.74966
 H1726 H 0.69646 0.46403 0.75332
 H1727 H 0.72764 0.40462 0.69106
 H1728 H 0.74798 0.42493 0.71486
 C1729 C 0.73085 -0.09174 0.20147
 C1730 C 0.70888 -0.08842 0.19895
 C1731 C 0.69941 -0.07119 0.20837
 C1732 C 0.71096 -0.05772 0.22047
 C1733 C 0.73253 -0.06068 0.22327
 C1734 C 0.74286 -0.07710 0.21283
 C1735 C 0.74119 -0.10959 0.19375
 C1736 C 0.76293 -0.11176 0.19525
 C1737 C 0.77479 -0.09646 0.20475
 C1738 C 0.76491 -0.07934 0.21360
 H1739 H 0.73275 -0.12233 0.18695
 H1740 H 0.77061 -0.12539 0.18898
 H1741 H 0.79169 -0.09806 0.20559
 H1742 H 0.77469 -0.06784 0.22096
 H1743 H 0.68275 -0.06827 0.20661
 H1744 H 0.70280 -0.04523 0.22826
 C1745 C 0.23408 0.40832 0.19584
 C1746 C 0.21200 0.41108 0.19403
 C1747 C 0.20220 0.42748 0.20443
 C1748 C 0.21366 0.44083 0.21674
 C1749 C 0.23534 0.43822 0.21910
 C1750 C 0.24586 0.42235 0.20810
 C1751 C 0.24471 0.39152 0.18648
 C1752 C 0.26644 0.38939 0.18809
 C1753 C 0.27801 0.40374 0.19918
 C1754 C 0.26789 0.42005 0.20917
 H1755 H 0.23648 0.37966 0.17810
 H1756 H 0.27435 0.37652 0.18069
 H1757 H 0.29490 0.40211 0.20022
 H1758 H 0.27746 0.43086 0.21765
 H1759 H 0.18538 0.42978 0.20325
 H1760 H 0.20540 0.45284 0.22511
 C1761 C 0.22847 -0.09220 0.69735
 C1762 C 0.20632 -0.08987 0.69548
 C1763 C 0.19619 -0.07365 0.70586
 C1764 C 0.20737 -0.06007 0.71820
 C1765 C 0.22910 -0.06218 0.72049
 C1766 C 0.23996 -0.07778 0.70942
 C1767 C 0.23946 -0.10896 0.68828
 C1768 C 0.26125 -0.11052 0.68977
 C1769 C 0.27253 -0.09567 0.70050
 C1770 C 0.26206 -0.07949 0.71033
 H1771 H 0.23150 -0.12128 0.68031
 H1772 H 0.26943 -0.12335 0.68257
 H1773 H 0.28946 -0.09685 0.70145
 H1774 H 0.27141 -0.06830 0.71859
 H1775 H 0.17934 -0.07166 0.70466
 H1776 H 0.19886 -0.04829 0.72665
 C1777 C 0.27429 0.30295 0.41924
 C1778 C 0.29631 0.30412 0.42268
 C1779 C 0.30512 0.29277 0.43869
 C1780 C 0.29276 0.28002 0.45094
 C1781 C 0.27114 0.27823 0.44763
 C1782 C 0.26158 0.29041 0.43226
 C1783 C 0.26463 0.31315 0.40272
 C1784 C 0.24294 0.31226 0.40001
 C1785 C 0.23045 0.30104 0.41347
 C1786 C 0.23961 0.29013 0.42941
 H1787 H 0.27357 0.32159 0.39151
 H1788 H 0.23578 0.32031 0.38738
 H1789 H 0.21360 0.30058 0.41140
 H1790 H 0.22935 0.28155 0.43952
 H1791 H 0.32187 0.29345 0.44147
 H1792 H 0.30030 0.27074 0.46256
 C1793 C 0.27272 0.80106 -0.08344
 C1794 C 0.29492 0.79894 -0.08243
 C1795 C 0.30377 0.78484 -0.06864
 C1796 C 0.29112 0.77288 -0.05590
 C1797 C 0.26924 0.77472 -0.05653
 C1798 C 0.25986 0.78936 -0.06988
 C1799 C 0.26288 0.81392 -0.09802
 C1800 C 0.24112 0.81638 -0.09822
 C1801 C 0.22870 0.80599 -0.08411
 C1802 C 0.23789 0.79257 -0.07008
 H1803 H 0.27167 0.82193 -0.10965
 H1804 H 0.23386 0.82642 -0.10939
 H1805 H 0.21184 0.80816 -0.08418
 H1806 H 0.22762 0.78482 -0.05939
 H1807 H 0.32066 0.78295 -0.06783
 H1808 H 0.29846 0.76175 -0.04576
 C1809 C 0.80534 0.26997 -0.08309
 C1810 C 0.80509 0.29213 -0.08155
 C1811 C 0.79351 0.30158 -0.06601
 C1812 C 0.78192 0.28963 -0.05235
 C1813 C 0.78149 0.26783 -0.05381
 C1814 C 0.79385 0.25777 -0.06877
 C1815 C 0.81594 0.25958 -0.09896
 C1816 C 0.81631 0.23781 -0.09993
 C1817 C 0.80598 0.22595 -0.08535
 C1818 C 0.79478 0.23575 -0.06993
 H1819 H 0.82377 0.26798 -0.11095
 H1820 H 0.82465 0.23011 -0.11210
 H1821 H 0.80645 0.20906 -0.08611
 H1822 H 0.78694 0.22594 -0.05891
 H1823 H 0.79313 0.31844 -0.06466
 H1824 H 0.77246 0.29753 -0.04107
 C1825 C 0.80643 0.77005 0.41795
 C1826 C 0.80573 0.79211 0.42028
 C1827 C 0.79347 0.80081 0.43572
 C1828 C 0.78167 0.78818 0.44857
 C1829 C 0.78168 0.76645 0.44632
 C1830 C 0.79463 0.75713 0.43138
 C1831 C 0.81788 0.76049 0.40214
 C1832 C 0.81859 0.73879 0.40032
 C1833 C 0.80783 0.72619 0.41402
 C1834 C 0.79590 0.73520 0.42940
 H1835 H 0.82618 0.76951 0.39087
 H1836 H 0.82754 0.73172 0.38820
 H1837 H 0.80857 0.70936 0.41262
 H1838 H 0.78776 0.72485 0.43974
 H1839 H 0.79270 0.81762 0.43757
 H1840 H 0.77175 0.79550 0.45986
 C1841 C 0.69249 0.29252 0.56537
 C1842 C 0.70264 0.30564 0.57957
 C1843 C 0.72460 0.30681 0.57957
 C1844 C 0.73657 0.29419 0.56684
 C1845 C 0.72697 0.28002 0.55369
 C1846 C 0.70471 0.27922 0.55269
 C1847 C 0.67040 0.29236 0.56346
 C1848 C 0.66054 0.27865 0.55022
 C1849 C 0.67241 0.26488 0.53863
 C1850 C 0.69426 0.26507 0.53981
 H1851 H 0.66056 0.30299 0.57194
 H1852 H 0.64359 0.27864 0.54900
 H1853 H 0.66465 0.25407 0.52857
 H1854 H 0.70275 0.25398 0.53060
 H1855 H 0.73263 0.31679 0.59025
 H1856 H 0.75354 0.29497 0.56775
 C1857 C 0.68880 0.77277 1.08600
 C1858 C 0.69008 0.79486 1.08382
 C1859 C 0.70238 0.80333 1.06822
 C1860 C 0.71384 0.79052 1.05527
 C1861 C 0.71323 0.76876 1.05736
 C1862 C 0.69980 0.75970 1.07211
 C1863 C 0.67768 0.76325 1.10209
 C1864 C 0.67608 0.74156 1.10350
 C1865 C 0.68560 0.72890 1.08908
 C1866 C 0.69736 0.73783 1.07352
 H1867 H 0.67045 0.77223 1.11399
 H1868 H 0.66737 0.73454 1.11584
 H1869 H 0.68407 0.71209 1.09009
 H1870 H 0.70441 0.72750 1.06253
 H1871 H 0.70358 0.82012 1.06638
 H1872 H 0.72404 0.79770 1.04411
 C1873 C 0.21188 0.30899 1.05980
 C1874 C 0.20140 0.30013 1.07680
 C1875 C 0.20376 0.27872 1.08072
 C1876 C 0.21641 0.26625 1.06862
 C1877 C 0.22766 0.27468 1.05231
 C1878 C 0.22576 0.29635 1.04797
 C1879 C 0.20865 0.32999 1.05399
 C1880 C 0.21995 0.33876 1.03800
 C1881 C 0.23460 0.32684 1.02746
 C1882 C 0.23753 0.30584 1.03234
 H1883 H 0.19712 0.33973 1.06140
 H1884 H 0.21739 0.35493 1.03383
 H1885 H 0.24358 0.33384 1.01530
 H1886 H 0.24917 0.29722 1.02383
 H1887 H 0.19607 0.27148 1.09356
 H1888 H 0.21749 0.24972 1.07211
 C1889 C 0.20432 0.80979 0.55810
 C1890 C 0.19102 0.80170 0.57350
 C1891 C 0.19013 0.78005 0.57663
 C1892 C 0.20285 0.76653 0.56560
 C1893 C 0.21690 0.77418 0.55107
 C1894 C 0.21776 0.79600 0.54715
 C1895 C 0.20450 0.83130 0.55326
 C1896 C 0.21831 0.83919 0.53874
 C1897 C 0.23218 0.82589 0.52881
 C1898 C 0.23201 0.80452 0.53294
 H1899 H 0.19381 0.84217 0.56041
 H1900 H 0.21831 0.85572 0.53526
 H1901 H 0.24307 0.83215 0.51775
 H1902 H 0.24322 0.79488 0.52495
 H1903 H 0.18014 0.77354 0.58833
 H1904 H 0.20203 0.74992 0.56872
 C1905 C 0.30988 0.71173 0.56595
 C1906 C 0.30078 0.69772 0.58018
 C1907 C 0.27895 0.69514 0.58056
 C1908 C 0.26605 0.70687 0.56794
 C1909 C 0.27451 0.72158 0.55450
 C1910 C 0.29662 0.72412 0.55334
 C1911 C 0.33187 0.71358 0.56378
 C1912 C 0.34057 0.72803 0.55037
 C1913 C 0.32762 0.74085 0.53884
 C1914 C 0.30585 0.73899 0.54025
 H1915 H 0.34254 0.70370 0.57217
 H1916 H 0.35747 0.72933 0.54896
 H1917 H 0.33448 0.75222 0.52863
 H1918 H 0.29642 0.74935 0.53107
 H1919 H 0.27169 0.68454 0.59129
 H1920 H 0.24919 0.70472 0.56892
 C1921 C 0.31496 0.20336 1.05757
 C1922 C 0.30642 0.19197 1.07411
 C1923 C 0.28467 0.19226 1.07739
 C1924 C 0.27155 0.20448 1.06545
 C1925 C 0.27969 0.21680 1.04977
 C1926 C 0.30154 0.21619 1.04553
 C1927 C 0.33652 0.20222 1.05264
 C1928 C 0.34484 0.21410 1.03685
 C1929 C 0.33192 0.22730 1.02567
 C1930 C 0.31049 0.22841 1.02993
 H1931 H 0.34708 0.19195 1.06072
 H1932 H 0.36142 0.21310 1.03329
 H1933 H 0.33852 0.23664 1.01357
 H1934 H 0.30110 0.23896 1.02090
 H1935 H 0.27781 0.18371 1.08993
 H1936 H 0.25488 0.20477 1.06882
 C1937 C 0.77508 0.69172 1.08623
 C1938 C 0.79703 0.69575 1.08716
 C1939 C 0.80589 0.71049 1.07391
 C1940 C 0.79351 0.72150 1.06020
 C1941 C 0.77191 0.71781 1.05903
 C1942 C 0.76274 0.70205 1.07132
 C1943 C 0.76480 0.67844 1.10021
 C1944 C 0.74346 0.67395 1.09833
 C1945 C 0.73189 0.68268 1.08265
 C1946 C 0.74137 0.69662 1.06926
 H1947 H 0.77279 0.67177 1.11303
 H1948 H 0.73589 0.66361 1.10907
 H1949 H 0.71541 0.67889 1.08104
 H1950 H 0.73188 0.70302 1.05722
 H1951 H 0.82256 0.71383 1.07446
 H1952 H 0.80072 0.73350 1.05092
 C1953 C 0.81392 0.20918 0.56436
 C1954 C 0.80440 0.19641 0.57937
 C1955 C 0.78245 0.19575 0.58084
 C1956 C 0.76996 0.20832 0.56859
 C1957 C 0.77899 0.22193 0.55443
 C1958 C 0.80116 0.22240 0.55210
 C1959 C 0.83587 0.20905 0.56119
 C1960 C 0.84512 0.22233 0.54701
 C1961 C 0.83277 0.23597 0.53574
 C1962 C 0.81102 0.23610 0.53823
 H1963 H 0.84605 0.19851 0.56940
 H1964 H 0.86198 0.22210 0.54481
 H1965 H 0.84007 0.24644 0.52494
 H1966 H 0.80214 0.24708 0.52923
 H1967 H 0.77490 0.18611 0.59222
 H1968 H 0.75305 0.20780 0.57049
 C1969 C 0.68284 0.71180 0.43683
 C1970 C 0.69114 0.69665 0.42331
 C1971 C 0.71286 0.69309 0.42293
 C1972 C 0.72638 0.70483 0.43478
 C1973 C 0.71876 0.72066 0.44742
 C1974 C 0.69678 0.72425 0.44861
 C1975 C 0.66098 0.71473 0.43908
 C1976 C 0.65306 0.73023 0.45177
 C1977 C 0.66668 0.74308 0.46243
 C1978 C 0.68834 0.74022 0.46088
 H1979 H 0.64981 0.70491 0.43134
 H1980 H 0.63626 0.73233 0.45328
 H1981 H 0.66043 0.75525 0.47206
 H1982 H 0.69830 0.75069 0.46932
 H1983 H 0.71959 0.68165 0.41276
 H1984 H 0.74310 0.70180 0.43379
 C1985 C 0.68361 0.21026 -0.06102
 C1986 C 0.69247 0.19629 -0.07537
 C1987 C 0.71434 0.19420 -0.07649
 C1988 C 0.72740 0.20647 -0.06470
 C1989 C 0.71914 0.22152 -0.05154
 C1990 C 0.69703 0.22350 -0.04949
 C1991 C 0.66172 0.21125 -0.05768
 C1992 C 0.65316 0.22576 -0.04429
 C1993 C 0.66617 0.23956 -0.03404
 C1994 C 0.68789 0.23857 -0.03662
 H1995 H 0.65105 0.20061 -0.06505
 H1996 H 0.63634 0.22637 -0.04194
 H1997 H 0.65940 0.25102 -0.02390
 H1998 H 0.69732 0.24975 -0.02849
 H1999 H 0.72151 0.18357 -0.08720
 H2000 H 0.74424 0.20454 -0.06623
 C2001 C 0.20396 0.68412 -0.06299
 C2002 C 0.18989 0.69321 -0.07711
 C2003 C 0.18769 0.71499 -0.07781
 C2004 C 0.20005 0.72781 -0.06581
 C2005 C 0.21497 0.71929 -0.05267
 C2006 C 0.21691 0.69728 -0.05094
 C2007 C 0.20541 0.66225 -0.06050
 C2008 C 0.21992 0.65352 -0.04717
 C2009 C 0.23319 0.66634 -0.03608
 C2010 C 0.23179 0.68800 -0.03790
 H2011 H 0.19519 0.65171 -0.06857
 H2012 H 0.22090 0.63672 -0.04549
 H2013 H 0.24457 0.65946 -0.02592
 H2014 H 0.24247 0.69731 -0.02903
 H2015 H 0.17705 0.72226 -0.08846
 H2016 H 0.19843 0.74461 -0.06725
 C2017 C 0.22761 0.19077 0.41419
 C2018 C 0.20535 0.19044 0.41606
 C2019 C 0.19577 0.20070 0.43234
 C2020 C 0.20764 0.21173 0.44632
 C2021 C 0.22951 0.21288 0.44446
 C2022 C 0.23975 0.20166 0.42883
 C2023 C 0.23811 0.18139 0.39769
 C2024 C 0.25998 0.18165 0.39634
 C2025 C 0.27182 0.19138 0.41121
 C2026 C 0.26188 0.20138 0.42728
 H2027 H 0.22972 0.17404 0.38550
 H2028 H 0.26778 0.17426 0.38367
 H2029 H 0.28879 0.19139 0.41016
 H2030 H 0.27164 0.20882 0.43852
 H2031 H 0.17882 0.20064 0.43394
 H2032 H 0.19959 0.22034 0.45811
 C2033 C 0.26688 0.41123 0.69531
 C2034 C 0.28844 0.41515 0.69098
 C2035 C 0.29791 0.43317 0.69874
 C2036 C 0.28683 0.44682 0.71116
 C2037 C 0.26577 0.44307 0.71606
 C2038 C 0.25531 0.42581 0.70724
 C2039 C 0.25666 0.39279 0.68896
 C2040 C 0.23532 0.38971 0.69273
 C2041 C 0.22376 0.40471 0.70309
 C2042 C 0.23361 0.42257 0.71039
 H2043 H 0.26493 0.38032 0.68144
 H2044 H 0.22772 0.37558 0.68758
 H2045 H 0.20715 0.40234 0.70577
 H2046 H 0.22410 0.43383 0.71848
 H2047 H 0.31431 0.43642 0.69563
 H2048 H 0.29510 0.45988 0.71780
 C2049 C 0.31046 0.93561 0.20783
 C2050 C 0.29998 0.92027 0.19614
 C2051 C 0.27803 0.91889 0.19713
 C2052 C 0.26650 0.93170 0.21000
 C2053 C 0.27651 0.94630 0.22235
 C2054 C 0.29870 0.94834 0.22144
 C2055 C 0.33235 0.93881 0.20613
 C2056 C 0.34256 0.95328 0.21835
 C2057 C 0.33124 0.96486 0.23243
 C2058 C 0.30955 0.96246 0.23404
 H2059 H 0.34174 0.93046 0.19517
 H2060 H 0.35935 0.95547 0.21693
 H2061 H 0.33930 0.97587 0.24206
 H2062 H 0.30148 0.97170 0.24530
 H2063 H 0.26973 0.90730 0.18834
 H2064 H 0.24958 0.93001 0.21053
 C2065 C 0.80791 0.43944 0.20526
 C2066 C 0.79780 0.42337 0.19424
 C2067 C 0.77607 0.42067 0.19623
 C2068 C 0.76452 0.43264 0.20987
 C2069 C 0.77436 0.44761 0.22197
 C2070 C 0.79628 0.45118 0.21973
 C2071 C 0.82938 0.44409 0.20221
 C2072 C 0.83946 0.45902 0.21398
 C2073 C 0.82843 0.46957 0.22899
 C2074 C 0.80710 0.46571 0.23194
 H2075 H 0.83850 0.43644 0.19057
 H2076 H 0.85594 0.46232 0.21154
 H2077 H 0.83642 0.48089 0.23833
 H2078 H 0.79936 0.47414 0.24397
 H2079 H 0.76810 0.40850 0.18789
 H2080 H 0.74782 0.42978 0.21144
 C2081 C 0.80627 0.93947 0.70556
 C2082 C 0.79564 0.92318 0.69526
 C2083 C 0.77384 0.92122 0.69760
 C2084 C 0.76281 0.93402 0.71087
 C2085 C 0.77317 0.94908 0.72245
 C2086 C 0.79512 0.95203 0.71980
 C2087 C 0.82775 0.94362 0.70201
 C2088 C 0.83834 0.95872 0.71316
 C2089 C 0.82779 0.97001 0.72798
 C2090 C 0.80642 0.96674 0.73135
 H2091 H 0.83649 0.93550 0.69039
 H2092 H 0.85485 0.96160 0.71036
 H2093 H 0.83617 0.98148 0.73683
 H2094 H 0.79900 0.97581 0.74313
 H2095 H 0.76534 0.90901 0.68985
 H2096 H 0.74605 0.93166 0.71263
 C2097 C 0.72890 0.58412 0.69741
 C2098 C 0.70661 0.58272 0.69737
 C2099 C 0.69672 0.56727 0.70902
 C2100 C 0.70832 0.55369 0.72105
 C2101 C 0.73023 0.55511 0.72184
 C2102 C 0.74078 0.56983 0.70939
 C2103 C 0.73971 0.59985 0.68655
 C2104 C 0.76160 0.60066 0.68652
 C2105 C 0.77316 0.58603 0.69740
 C2106 C 0.76292 0.57078 0.70880
 H2107 H 0.73155 0.61185 0.67822
 H2108 H 0.76964 0.61272 0.67801
 H2109 H 0.79015 0.58665 0.69718
 H2110 H 0.77248 0.55970 0.71706
 H2111 H 0.67975 0.56601 0.70917
 H2112 H 0.70005 0.54256 0.73053
 C2113 C 0.70532 0.06155 0.19359
 C2114 C 0.69381 0.07814 0.20258
 C2115 C 0.69454 0.08070 0.22359
 C2116 C 0.70742 0.06819 0.23549
 C2117 C 0.72017 0.05276 0.22682
 C2118 C 0.71912 0.04918 0.20568
 C2119 C 0.70341 0.05691 0.17282
 C2120 C 0.71571 0.04140 0.16393
 C2121 C 0.73008 0.03021 0.17548
 C2122 C 0.73185 0.03401 0.19613
 H2123 H 0.69221 0.06497 0.16334
 H2124 H 0.71415 0.03813 0.14797
 H2125 H 0.73981 0.01841 0.16842
 H2126 H 0.74334 0.02501 0.20440
 H2127 H 0.68585 0.09319 0.23084
 H2128 H 0.70798 0.07105 0.25161
 C2129 C 0.20864 0.56057 0.19032
 C2130 C 0.19720 0.57684 0.19991
 C2131 C 0.19874 0.57925 0.22089
 C2132 C 0.21231 0.56688 0.23217
 C2133 C 0.22495 0.55176 0.22288
 C2134 C 0.22312 0.54835 0.20176
 C2135 C 0.20596 0.55611 0.16960
 C2136 C 0.21813 0.54088 0.16011
 C2137 C 0.23315 0.52983 0.17100
 C2138 C 0.23572 0.53350 0.19160
 H2139 H 0.19427 0.56410 0.16063
 H2140 H 0.21596 0.53772 0.14420
 H2141 H 0.24277 0.51825 0.16348
 H2142 H 0.24772 0.52465 0.19934
 H2143 H 0.19014 0.59151 0.22857
 H2144 H 0.21343 0.56955 0.24830
 C2145 C 0.20732 0.05976 0.68978
 C2146 C 0.19557 0.07642 0.69838
 C2147 C 0.19662 0.07981 0.71927
 C2148 C 0.20960 0.06773 0.73149
 C2149 C 0.22217 0.05190 0.72327
 C2150 C 0.22125 0.04788 0.70219
 C2151 C 0.20536 0.05439 0.66919
 C2152 C 0.21782 0.03877 0.66071
 C2153 C 0.23239 0.02815 0.67251
 C2154 C 0.23417 0.03260 0.69303
 H2155 H 0.19398 0.06190 0.65950
 H2156 H 0.21622 0.03494 0.64486
 H2157 H 0.24226 0.01626 0.66576
 H2158 H 0.24583 0.02403 0.70152
 H2159 H 0.18777 0.09239 0.72619
 H2160 H 0.21010 0.07099 0.74754
 C2161 C 0.31867 0.56584 0.28370
 C2162 C 0.30852 0.57922 0.29781
 C2163 C 0.28655 0.57930 0.29893
 C2164 C 0.27459 0.56698 0.28613
 C2165 C 0.28411 0.55412 0.27168
 C2166 C 0.30633 0.55349 0.27026
 C2167 C 0.34076 0.56410 0.28284
 C2168 C 0.35046 0.55140 0.26847
 C2169 C 0.33843 0.54014 0.25478
 C2170 C 0.31657 0.54112 0.25561
 H2171 H 0.35075 0.57222 0.29338
 H2172 H 0.36743 0.55031 0.26793
 H2173 H 0.34608 0.53048 0.24353
 H2174 H 0.30784 0.53217 0.24465
 H2175 H 0.27845 0.58939 0.30953
 H2176 H 0.25762 0.56758 0.28745
 C2177 C 0.31499 0.06275 0.78552
 C2178 C 0.30563 0.07694 0.79937
 C2179 C 0.28370 0.07792 0.80085
 C2180 C 0.27105 0.06591 0.78837
 C2181 C 0.27984 0.05249 0.77395
 C2182 C 0.30200 0.05078 0.77240
 C2183 C 0.33698 0.05997 0.78458
 C2184 C 0.34599 0.04659 0.77040
 C2185 C 0.33335 0.03570 0.75694
 C2186 C 0.31157 0.03773 0.75785
 H2187 H 0.34739 0.06782 0.79495
 H2188 H 0.36288 0.04469 0.76981
 H2189 H 0.34047 0.02552 0.74581
 H2190 H 0.30238 0.02906 0.74703
 H2191 H 0.27624 0.08864 0.81129
 H2192 H 0.25414 0.06727 0.78981
 C2193 C 0.80894 0.56390 0.79731
 C2194 C 0.79906 0.58010 0.80846
 C2195 C 0.77718 0.58216 0.80784
 C2196 C 0.76515 0.56941 0.79543
 C2197 C 0.77462 0.55412 0.78334
 C2198 C 0.79669 0.55107 0.78433
 C2199 C 0.83074 0.56013 0.79883
 C2200 C 0.84038 0.54471 0.78720
 C2201 C 0.82859 0.53281 0.77384
 C2202 C 0.80699 0.53594 0.77231
 H2203 H 0.84047 0.56882 0.80918
 H2204 H 0.85712 0.54204 0.78849
 H2205 H 0.83621 0.52102 0.76468
 H2206 H 0.79858 0.52642 0.76159
 H2207 H 0.76941 0.59444 0.81629
 H2208 H 0.74833 0.57190 0.79477
 C2209 C 0.81326 0.06543 0.29031
 C2210 C 0.80351 0.08139 0.30195
 C2211 C 0.78164 0.08366 0.30118
 C2212 C 0.76953 0.07110 0.28875
 C2213 C 0.77878 0.05598 0.27630
 C2214 C 0.80091 0.05318 0.27680
 C2215 C 0.83493 0.06109 0.29196
 C2216 C 0.84448 0.04618 0.27964
 C2217 C 0.83269 0.03532 0.26548
 C2218 C 0.81114 0.03877 0.26397
 H2219 H 0.84465 0.06883 0.30300
 H2220 H 0.86114 0.04312 0.28102
 H2221 H 0.84026 0.02402 0.25571
 H2222 H 0.80268 0.03013 0.25260
 H2223 H 0.77378 0.09568 0.30987
 H2224 H 0.75265 0.07335 0.28872
 C2225 C 0.73022 0.41335 0.30679
 C2226 C 0.70850 0.41743 0.31013
 C2227 C 0.69945 0.43533 0.30149
 C2228 C 0.71119 0.44877 0.28935
 C2229 C 0.73252 0.44502 0.28566
 C2230 C 0.74245 0.42782 0.29528
 C2231 C 0.74003 0.39488 0.31381
 C2232 C 0.76156 0.39176 0.31127
 C2233 C 0.77373 0.40674 0.30150
 C2234 C 0.76433 0.42458 0.29348
 H2235 H 0.73129 0.38242 0.32087
 H2236 H 0.76884 0.37763 0.31694
 H2237 H 0.79048 0.40438 0.29984
 H2238 H 0.77434 0.43582 0.28592
 H2239 H 0.68296 0.43875 0.30384
 H2240 H 0.70332 0.46181 0.28214
 C2241 C 0.69117 0.93771 0.79642
 C2242 C 0.70126 0.92209 0.80816
 C2243 C 0.72320 0.92042 0.80760
 C2244 C 0.73509 0.93306 0.79480
 C2245 C 0.72543 0.94774 0.78215
 C2246 C 0.70326 0.95021 0.78285
 C2247 C 0.66932 0.94128 0.79792
 C2248 C 0.65943 0.95589 0.78551
 C2249 C 0.67103 0.96722 0.77143
 C2250 C 0.69271 0.96445 0.77002
 H2251 H 0.65972 0.93307 0.80884
 H2252 H 0.64265 0.95835 0.78676
 H2253 H 0.66322 0.97831 0.76161
 H2254 H 0.70095 0.97349 0.75870
 H2255 H 0.73115 0.90861 0.81650
 H2256 H 0.75199 0.93105 0.79441
 C2257 C 0.23006 0.41204 0.80485
 C2258 C 0.20876 0.41688 0.80957
 C2259 C 0.19996 0.43537 0.80192
 C2260 C 0.21137 0.44855 0.78924
 C2261 C 0.23217 0.44393 0.78401
 C2262 C 0.24206 0.42623 0.79280
 C2263 C 0.23959 0.39307 0.81091
 C2264 C 0.26075 0.38915 0.80691
 C2265 C 0.27281 0.40383 0.79659
 C2266 C 0.26360 0.42217 0.78949
 H2267 H 0.23089 0.38080 0.81831
 H2268 H 0.26782 0.37463 0.81185
 H2269 H 0.28929 0.40083 0.79377
 H2270 H 0.27347 0.43315 0.78140
 H2271 H 0.18378 0.43936 0.80532
 H2272 H 0.20351 0.46195 0.78267
 C2273 C 0.19146 0.94228 0.29516
 C2274 C 0.20101 0.92676 0.30746
 C2275 C 0.22285 0.92410 0.30664
 C2276 C 0.23507 0.93557 0.29314
 C2277 C 0.22588 0.95001 0.27990
 C2278 C 0.20385 0.95349 0.28079
 C2279 C 0.16985 0.94701 0.29688
 C2280 C 0.16041 0.96139 0.28392
 C2281 C 0.17223 0.97133 0.26904
 C2282 C 0.19371 0.96746 0.26740
 H2283 H 0.16011 0.93992 0.30842
 H2284 H 0.14380 0.96474 0.28534
 H2285 H 0.16474 0.98222 0.25879
 H2286 H 0.20214 0.97543 0.25547
 H2287 H 0.23047 0.91238 0.31592
 H2288 H 0.25186 0.93282 0.29269
 C2289 C 0.43721 0.30189 0.68748
 C2290 C 0.41948 0.31286 0.69509
 C2291 C 0.41482 0.31177 0.71578
 C2292 C 0.42657 0.29922 0.72868
 C2293 C 0.44331 0.28718 0.72136
 C2294 C 0.44882 0.28843 0.70056
 C2295 C 0.44375 0.30407 0.66717
 C2296 C 0.46051 0.29239 0.65962
 C2297 C 0.47103 0.27833 0.67205
 C2298 C 0.46526 0.27624 0.69229
 H2299 H 0.43623 0.31501 0.65703
 H2300 H 0.46528 0.29418 0.64399
 H2301 H 0.48381 0.26906 0.66602
 H2302 H 0.47375 0.26492 0.70124
 H2303 H 0.40139 0.32000 0.72195
 H2304 H 0.42223 0.29849 0.74451
 C2305 C 0.40784 0.77246 0.19786
 C2306 C 0.40998 0.79440 0.19501
 C2307 C 0.42661 0.80491 0.20436
 C2308 C 0.44061 0.79436 0.21688
 C2309 C 0.43852 0.77290 0.22038
 C2310 C 0.42269 0.76159 0.21011
 C2311 C 0.39088 0.76112 0.18965
 C2312 C 0.38948 0.73952 0.19216
 C2313 C 0.40473 0.72879 0.20305
 C2314 C 0.42115 0.73966 0.21204
 H2315 H 0.37831 0.76866 0.18154
 H2316 H 0.37647 0.73105 0.18561
 H2317 H 0.40367 0.71200 0.20476
 H2318 H 0.43267 0.73075 0.22043
 H2319 H 0.42848 0.82162 0.20236
 H2320 H 0.45260 0.80324 0.22464
 C2321 C 0.93500 0.29630 0.18934
 C2322 C 0.91862 0.30872 0.19759
 C2323 C 0.91636 0.30999 0.21863
 C2324 C 0.92918 0.29845 0.23144
 C2325 C 0.94475 0.28525 0.22370
 C2326 C 0.94793 0.28414 0.20247
 C2327 C 0.93898 0.29580 0.16834
 C2328 C 0.95466 0.28298 0.16039
 C2329 C 0.96664 0.27042 0.17311
 C2330 C 0.96333 0.27089 0.19394
 H2331 H 0.93027 0.30550 0.15791
 H2332 H 0.95749 0.28273 0.14425
 H2333 H 0.97864 0.26033 0.16682
 H2334 H 0.97293 0.26073 0.20317
 H2335 H 0.90397 0.31937 0.22527
 H2336 H 0.92658 0.29943 0.24760
 C2337 C 0.92946 0.81555 0.70955
 C2338 C 0.91568 0.80570 0.69566
 C2339 C 0.91614 0.78391 0.69385
 C2340 C 0.92883 0.77180 0.70632
 C2341 C 0.94141 0.78100 0.72117
 C2342 C 0.94188 0.80309 0.72287
 C2343 C 0.93132 0.83752 0.71043
 C2344 C 0.94394 0.84700 0.72491
 C2345 C 0.95499 0.83486 0.73874
 C2346 C 0.95401 0.81313 0.73781
 H2347 H 0.92336 0.84756 0.69975
 H2348 H 0.94509 0.86386 0.72546
 H2349 H 0.96451 0.84232 0.75015
 H2350 H 0.96278 0.80438 0.74894
 H2351 H 0.90587 0.77606 0.68330
 H2352 H 0.92839 0.75496 0.70475
 C2353 C 0.58788 0.31498 0.27590
 C2354 C 0.58507 0.31376 0.29723
 C2355 C 0.56837 0.30192 0.30504
 C2356 C 0.55495 0.29093 0.29236
 C2357 C 0.55750 0.29171 0.27136
 C2358 C 0.57329 0.30476 0.26296
 C2359 C 0.60526 0.32526 0.26699
 C2360 C 0.60703 0.32717 0.24605
 C2361 C 0.59173 0.31876 0.23355
 C2362 C 0.57501 0.30763 0.24187
 H2363 H 0.61793 0.33150 0.27588
 H2364 H 0.62034 0.33527 0.23949
 H2365 H 0.59298 0.32058 0.21732
 H2366 H 0.56337 0.30140 0.23170
 H2367 H 0.56595 0.30077 0.32122
 H2368 H 0.54299 0.28104 0.29906
 C2369 C 0.56765 0.79077 0.81364
 C2370 C 0.58379 0.80306 0.80476
 C2371 C 0.58612 0.80328 0.78369
 C2372 C 0.57357 0.79085 0.77149
 C2373 C 0.55823 0.77781 0.77992
 C2374 C 0.55504 0.77771 0.80115
 C2375 C 0.56360 0.79129 0.83462
 C2376 C 0.54823 0.77854 0.84323
 C2377 C 0.53659 0.76509 0.83117
 C2378 C 0.53991 0.76461 0.81034
 H2379 H 0.57201 0.80172 0.84453
 H2380 H 0.54536 0.77905 0.85935
 H2381 H 0.52484 0.75507 0.83798
 H2382 H 0.53056 0.75384 0.80162
 H2383 H 0.59833 0.81255 0.77660
 H2384 H 0.57613 0.79109 0.75529
 C2385 C 0.09055 0.30940 0.77607
 C2386 C 0.08551 0.31179 0.79691
 C2387 C 0.06722 0.30243 0.80456
 C2388 C 0.05431 0.29040 0.79229
 C2389 C 0.05910 0.28750 0.77184
 C2390 C 0.07672 0.29791 0.76334
 C2391 C 0.10939 0.31728 0.76763
 C2392 C 0.11354 0.31551 0.74700
 C2393 C 0.09923 0.30568 0.73438
 C2394 C 0.08103 0.29686 0.74241
 H2395 H 0.12136 0.32445 0.77675
 H2396 H 0.12795 0.32182 0.74077
 H2397 H 0.10241 0.30459 0.71834
 H2398 H 0.07034 0.28929 0.73208
 H2399 H 0.06310 0.30406 0.82038
 H2400 H 0.04093 0.28256 0.79903
 C2401 C 0.06755 0.79562 0.31547
 C2402 C 0.08214 0.80997 0.30698
 C2403 C 0.08306 0.81242 0.28594
 C2404 C 0.07088 0.80011 0.27329
 C2405 C 0.05735 0.78492 0.28122
 C2406 C 0.05537 0.78268 0.30248
 C2407 C 0.06471 0.79389 0.33657
 C2408 C 0.05101 0.77910 0.34472
 C2409 C 0.03987 0.76581 0.33208
 C2410 C 0.04198 0.76750 0.31117
 H2411 H 0.07279 0.80410 0.34695
 H2412 H 0.04907 0.77789 0.36094
 H2413 H 0.02942 0.75421 0.33852
 H2414 H 0.03306 0.75680 0.30198
 H2415 H 0.09406 0.82325 0.27910
 H2416 H 0.07254 0.80197 0.25708
 C2417 C 0.56630 0.68634 0.71434
 C2418 C 0.58233 0.69562 0.70233
 C2419 C 0.58548 0.71725 0.70339
 C2420 C 0.57364 0.72958 0.71636
 C2421 C 0.55831 0.72079 0.72898
 C2422 C 0.55460 0.69893 0.72820
 C2423 C 0.56133 0.66492 0.71269
 C2424 C 0.54614 0.65587 0.72515
 C2425 C 0.53563 0.66790 0.73947
 C2426 C 0.53981 0.68920 0.74108
 H2427 H 0.56882 0.65504 0.70158
 H2428 H 0.54257 0.63941 0.72376
 H2429 H 0.52407 0.66070 0.74929
 H2430 H 0.53142 0.69787 0.75255
 H2431 H 0.59763 0.72474 0.69446
 H2432 H 0.57657 0.74626 0.71662
 C2433 C 0.58739 0.23075 0.19588
 C2434 C 0.58708 0.20873 0.19890
 C2435 C 0.57264 0.20015 0.21268
 C2436 C 0.55886 0.21283 0.22357
 C2437 C 0.55876 0.23450 0.22072
 C2438 C 0.57234 0.24349 0.20604
 C2439 C 0.60272 0.24066 0.18369
 C2440 C 0.60193 0.26212 0.18002
 C2441 C 0.58603 0.27418 0.18850
 C2442 C 0.57137 0.26502 0.20141
 H2443 H 0.61579 0.23222 0.17726
 H2444 H 0.61368 0.26941 0.17047
 H2445 H 0.58524 0.29076 0.18530
 H2446 H 0.55916 0.27487 0.20760
 H2447 H 0.57217 0.18343 0.21525
 H2448 H 0.54860 0.20573 0.23472
 C2449 C 0.09227 0.72927 0.20245
 C2450 C 0.09085 0.70713 0.20359
 C2451 C 0.07574 0.69800 0.21629
 C2452 C 0.06211 0.71027 0.22772
 C2453 C 0.06301 0.73209 0.22669
 C2454 C 0.07767 0.74179 0.21346
 C2455 C 0.10822 0.73939 0.19120
 C2456 C 0.10871 0.76110 0.18948
 C2457 C 0.09352 0.77320 0.19904
 C2458 C 0.07816 0.76372 0.21097
 H2459 H 0.12074 0.73083 0.18395
 H2460 H 0.12093 0.76857 0.18065
 H2461 H 0.09380 0.79003 0.19742
 H2462 H 0.06667 0.77376 0.21811
 H2463 H 0.07449 0.68116 0.21741
 H2464 H 0.05101 0.70266 0.23776
 C2465 C 0.06616 0.18812 0.71593
 C2466 C 0.08214 0.19629 0.70309
 C2467 C 0.08628 0.21779 0.70341
 C2468 C 0.07519 0.23110 0.71607
 C2469 C 0.05975 0.22347 0.72929
 C2470 C 0.05550 0.20168 0.72970
 C2471 C 0.06007 0.16692 0.71512
 C2472 C 0.04511 0.15895 0.72850
 C2473 C 0.03589 0.17186 0.74290
 C2474 C 0.04102 0.19301 0.74359
 H2475 H 0.06642 0.15637 0.70395
 H2476 H 0.04072 0.14264 0.72775
 H2477 H 0.02455 0.16550 0.75347
 H2478 H 0.03362 0.20242 0.75515
 H2479 H 0.09839 0.22445 0.69385
 H2480 H 0.07858 0.24768 0.71535
 C2481 C 0.40891 0.73164 0.30773
 C2482 C 0.41291 0.70981 0.30940
 C2483 C 0.43073 0.70138 0.29995
 C2484 C 0.44409 0.71385 0.28841
 C2485 C 0.44015 0.73523 0.28601
 C2486 C 0.42309 0.74448 0.29650
 C2487 C 0.39074 0.74100 0.31609
 C2488 C 0.38751 0.76251 0.31477
 C2489 C 0.40206 0.77513 0.30488
 C2490 C 0.41963 0.76626 0.29570
 H2491 H 0.37860 0.73196 0.32337
 H2492 H 0.37361 0.76943 0.32145
 H2493 H 0.39956 0.79185 0.30407
 H2494 H 0.43053 0.77658 0.28803
 H2495 H 0.43402 0.68479 0.30104
 H2496 H 0.45702 0.70652 0.28042
 C2497 C 0.43292 0.19441 0.78661
 C2498 C 0.41578 0.20307 0.79761
 C2499 C 0.41162 0.22451 0.79591
 C2500 C 0.42358 0.23722 0.78332
 C2501 C 0.43989 0.22894 0.77156
 C2502 C 0.44438 0.20723 0.77275
 C2503 C 0.43923 0.17342 0.78926
 C2504 C 0.45506 0.16477 0.77731
 C2505 C 0.46496 0.17682 0.76258
 C2506 C 0.45976 0.19785 0.76029
 H2507 H 0.43232 0.16358 0.80078
 H2508 H 0.45956 0.14859 0.77938
 H2509 H 0.47686 0.16988 0.75300
 H2510 H 0.46778 0.20657 0.74857
 H2511 H 0.39866 0.23154 0.80407
 H2512 H 0.42002 0.25377 0.78276
 C2513 C 0.93174 0.69052 0.78881
 C2514 C 0.91563 0.70018 0.80044
 C2515 C 0.91258 0.72179 0.79870
 C2516 C 0.92456 0.73372 0.78542
 C2517 C 0.93984 0.72449 0.77304
 C2518 C 0.94335 0.70261 0.77443
 C2519 C 0.93690 0.66920 0.79135
 C2520 C 0.95194 0.65968 0.77908
 C2521 C 0.96213 0.67112 0.76409
 C2522 C 0.95788 0.69235 0.76168
 H2523 H 0.92971 0.65978 0.80304
 H2524 H 0.95562 0.64330 0.78115
 H2525 H 0.97352 0.66355 0.75437
 H2526 H 0.96601 0.70054 0.74968
 H2527 H 0.90042 0.72957 0.80736
 H2528 H 0.92177 0.75041 0.78474
 C2529 C 0.93522 0.19333 0.28739
 C2530 C 0.91978 0.20211 0.30041
 C2531 C 0.91741 0.22384 0.30118
 C2532 C 0.92934 0.23685 0.28885
 C2533 C 0.94405 0.22860 0.27525
 C2534 C 0.94707 0.20665 0.27433
 C2535 C 0.93941 0.17166 0.28728
 C2536 C 0.95404 0.16319 0.27388
 C2537 C 0.96474 0.17605 0.26036
 C2538 C 0.96132 0.19757 0.26049
 H2539 H 0.93173 0.16110 0.29771
 H2540 H 0.95703 0.14653 0.27393
 H2541 H 0.97586 0.16934 0.24980
 H2542 H 0.96987 0.20691 0.24960
 H2543 H 0.90574 0.23084 0.31102
 H2544 H 0.92697 0.25359 0.28981
 C2545 C 0.30139 0.26987 0.58664
 C2546 C 0.30222 0.29178 0.58298
 C2547 C 0.29142 0.30017 0.56642
 C2548 C 0.27966 0.28748 0.55373
 C2549 C 0.27842 0.26591 0.55707
 C2550 C 0.29006 0.25680 0.57309
 C2551 C 0.31075 0.26061 0.60382
 C2552 C 0.31045 0.23901 0.60664
 C2553 C 0.30067 0.22620 0.59261
 C2554 C 0.29049 0.23493 0.57601
 H2555 H 0.31803 0.26980 0.61549
 H2556 H 0.31787 0.23218 0.61980
 H2557 H 0.30072 0.20942 0.59475
 H2558 H 0.28305 0.22440 0.56548
 H2559 H 0.29180 0.31683 0.56348
 H2560 H 0.27083 0.29468 0.54159
 C2561 C 0.30577 0.79567 0.06054
 C2562 C 0.29673 0.80793 0.07616
 C2563 C 0.27492 0.80750 0.07907
 C2564 C 0.26224 0.79430 0.06776
 C2565 C 0.27093 0.78093 0.05326
 C2566 C 0.29292 0.78152 0.04948
 C2567 C 0.32732 0.79718 0.05562
 C2568 C 0.33629 0.78415 0.04112
 C2569 C 0.32404 0.76939 0.03128
 C2570 C 0.30260 0.76798 0.03539
 H2571 H 0.33737 0.80861 0.06269
 H2572 H 0.35286 0.78541 0.03761
 H2573 H 0.33117 0.75905 0.02029
 H2574 H 0.29387 0.75609 0.02750
 H2575 H 0.26765 0.81674 0.09087
 H2576 H 0.24550 0.79408 0.07077
 C2577 C 0.80989 0.29021 0.06794
 C2578 C 0.79986 0.30403 0.08168
 C2579 C 0.77791 0.30558 0.08167
 C2580 C 0.76580 0.29282 0.06934
 C2581 C 0.77524 0.27809 0.05660
 C2582 C 0.79749 0.27675 0.05568
 C2583 C 0.83198 0.28954 0.06602
 C2584 C 0.84166 0.27519 0.05320
 C2585 C 0.82961 0.26129 0.04205
 C2586 C 0.80776 0.26197 0.04325
 H2587 H 0.84197 0.30025 0.07413
 H2588 H 0.85862 0.27480 0.05197
 H2589 H 0.83723 0.25000 0.03232
 H2590 H 0.79912 0.25076 0.03437
 H2591 H 0.76996 0.31610 0.09198
 H2592 H 0.74884 0.29400 0.07018
 C2593 C 0.78418 0.81194 0.56686
 C2594 C 0.79855 0.80333 0.58101
 C2595 C 0.80123 0.78162 0.58188
 C2596 C 0.78925 0.76842 0.56989
 C2597 C 0.77415 0.77641 0.55659
 C2598 C 0.77154 0.79836 0.55489
 C2599 C 0.78221 0.83374 0.56416
 C2600 C 0.76744 0.84200 0.55082
 C2601 C 0.75440 0.82877 0.53992
 C2602 C 0.75634 0.80716 0.54190
 H2603 H 0.79223 0.84460 0.57204
 H2604 H 0.76607 0.85875 0.54897
 H2605 H 0.74280 0.83529 0.52977
 H2606 H 0.74581 0.79751 0.53320
 H2607 H 0.81211 0.77471 0.59253
 H2608 H 0.79149 0.75168 0.57129
 C2609 C 0.27016 0.68650 0.41444
 C2610 C 0.29189 0.68419 0.41883
 C2611 C 0.30010 0.69351 0.43622
 C2612 C 0.28756 0.70574 0.44874
 C2613 C 0.26636 0.70910 0.44427
 C2614 C 0.25723 0.69864 0.42760
 C2615 C 0.26107 0.67794 0.39687
 C2616 C 0.23966 0.68020 0.39302
 C2617 C 0.22691 0.69115 0.40642
 C2618 C 0.23554 0.70035 0.42354
 H2619 H 0.27025 0.66964 0.38577
 H2620 H 0.23293 0.67341 0.37956
 H2621 H 0.21027 0.69272 0.40343
 H2622 H 0.22509 0.70873 0.43359
 H2623 H 0.31665 0.69197 0.43972
 H2624 H 0.29479 0.71367 0.46138
 C2625 C 0.27260 0.18679 0.91231
 C2626 C 0.29454 0.19089 0.91166
 C2627 C 0.30311 0.20546 0.92510
 C2628 C 0.29044 0.21615 0.93883
 C2629 C 0.26882 0.21243 0.93974
 C2630 C 0.25988 0.19698 0.92707
 C2631 C 0.26270 0.17352 0.89820
 C2632 C 0.24132 0.16906 0.89968
 C2633 C 0.22930 0.17779 0.91507
 C2634 C 0.23842 0.19163 0.92865
 H2635 H 0.27109 0.16679 0.88562
 H2636 H 0.23405 0.15873 0.88884
 H2637 H 0.21277 0.17405 0.91634
 H2638 H 0.22856 0.19801 0.94046
 H2639 H 0.31977 0.20888 0.92473
 H2640 H 0.29748 0.22794 0.94838
 C2641 C 0.81233 0.70994 0.93696
 C2642 C 0.80279 0.69665 0.92252
 C2643 C 0.78084 0.69511 0.92197
 C2644 C 0.76832 0.70731 0.93454
 C2645 C 0.77730 0.72137 0.94815
 C2646 C 0.79949 0.72267 0.94964
 C2647 C 0.83436 0.71076 0.93920
 C2648 C 0.84355 0.72443 0.95295
 C2649 C 0.83104 0.73747 0.96473
 C2650 C 0.80923 0.73667 0.96314
 H2651 H 0.84468 0.70069 0.93061
 H2652 H 0.86046 0.72493 0.95445
 H2653 H 0.83828 0.74817 0.97524
 H2654 H 0.80017 0.74713 0.97257
 H2655 H 0.77326 0.68504 0.91109
 H2656 H 0.75139 0.70618 0.93327
 C2657 C 0.79519 0.18788 0.43469
 C2658 C 0.80770 0.19761 0.41957
 C2659 C 0.80810 0.21947 0.41830
 C2660 C 0.79537 0.23165 0.43074
 C2661 C 0.78191 0.22238 0.44493
 C2662 C 0.78187 0.20031 0.44718
 C2663 C 0.79568 0.16603 0.43771
 C2664 C 0.78265 0.15655 0.45200
 C2665 C 0.76894 0.16857 0.46354
 C2666 C 0.76846 0.19022 0.46119
 H2667 H 0.80629 0.15610 0.42929
 H2668 H 0.78315 0.13977 0.45409
 H2669 H 0.75869 0.16110 0.47445
 H2670 H 0.75746 0.19885 0.47044
 H2671 H 0.81757 0.22720 0.40689
 H2672 H 0.79551 0.24847 0.42885
 C2673 C 0.69637 0.27169 0.41353
 C2674 C 0.69498 0.29364 0.41677
 C2675 C 0.70519 0.30237 0.43347
 C2676 C 0.71711 0.29009 0.44650
 C2677 C 0.71902 0.26853 0.44349
 C2678 C 0.70768 0.25901 0.42756
 C2679 C 0.68765 0.26202 0.39632
 C2680 C 0.68833 0.24038 0.39399
 C2681 C 0.69789 0.22793 0.40856
 C2682 C 0.70757 0.23709 0.42516
 H2683 H 0.68063 0.27091 0.38424
 H2684 H 0.68137 0.23323 0.38082
 H2685 H 0.69810 0.21112 0.40682
 H2686 H 0.71490 0.22686 0.43612
 H2687 H 0.70431 0.31903 0.43625
 H2688 H 0.72563 0.29765 0.45859
 C2689 C 0.68983 0.79015 0.93613
 C2690 C 0.69992 0.80396 0.92239
 C2691 C 0.72184 0.80574 0.92272
 C2692 C 0.73389 0.79317 0.93539
 C2693 C 0.72440 0.77843 0.94815
 C2694 C 0.70216 0.77690 0.94876
 C2695 C 0.66771 0.78925 0.93767
 C2696 C 0.65798 0.77491 0.95052
 C2697 C 0.67000 0.76124 0.96207
 C2698 C 0.69186 0.76213 0.96123
 H2699 H 0.65775 0.79978 0.92922
 H2700 H 0.64101 0.77436 0.95146
 H2701 H 0.66234 0.74995 0.97182
 H2702 H 0.70047 0.75108 0.97040
 H2703 H 0.72982 0.81625 0.91239
 H2704 H 0.75084 0.79450 0.93480
 C2705 C 0.18677 0.27004 0.91468
 C2706 C 0.18857 0.29200 0.91757
 C2707 C 0.20097 0.29950 0.93344
 C2708 C 0.21201 0.28588 0.94595
 C2709 C 0.21082 0.26424 0.94321
 C2710 C 0.19725 0.25614 0.92819
 C2711 C 0.17567 0.26143 0.89822
 C2712 C 0.17344 0.23985 0.89619
 C2713 C 0.18233 0.22641 0.91032
 C2714 C 0.19417 0.23440 0.92616
 H2715 H 0.16897 0.27103 0.88649
 H2716 H 0.16473 0.23354 0.88359
 H2717 H 0.18031 0.20969 0.90883
 H2718 H 0.20079 0.22347 0.93687
 H2719 H 0.20257 0.31616 0.93585
 H2720 H 0.22233 0.29236 0.95730
 C2721 C 0.23016 0.80273 0.41430
 C2722 C 0.20789 0.80408 0.41499
 C2723 C 0.19679 0.79258 0.42955
 C2724 C 0.20720 0.77944 0.44297
 C2725 C 0.22904 0.77725 0.44218
 C2726 C 0.24081 0.78943 0.42826
 C2727 C 0.24212 0.81356 0.39962
 C2728 C 0.26398 0.81213 0.39935
 C2729 C 0.27436 0.79978 0.41348
 C2730 C 0.26295 0.78845 0.42779
 H2731 H 0.23484 0.82304 0.38809
 H2732 H 0.27291 0.82064 0.38808
 H2733 H 0.29134 0.79884 0.41326
 H2734 H 0.27160 0.77902 0.43852
 H2735 H 0.17980 0.79341 0.43021
 H2736 H 0.19802 0.77015 0.45348
 C2737 C 0.68658 0.70671 0.56648
 C2738 C 0.69550 0.69327 0.58124
 C2739 C 0.71740 0.69208 0.58304
 C2740 C 0.73044 0.70458 0.57122
 C2741 C 0.72202 0.71858 0.55714
 C2742 C 0.69993 0.71973 0.55456
 C2743 C 0.66469 0.70738 0.56317
 C2744 C 0.65609 0.72112 0.54904
 C2745 C 0.66905 0.73442 0.53798
 C2746 C 0.69074 0.73384 0.54069
 H2747 H 0.65405 0.69714 0.57122
 H2748 H 0.63928 0.72149 0.54671
 H2749 H 0.66226 0.74520 0.52718
 H2750 H 0.70014 0.74458 0.53185
 H2751 H 0.72449 0.68196 0.59426
 H2752 H 0.74728 0.70356 0.57330
 C2753 C 0.68999 0.20204 0.06583
 C2754 C 0.69918 0.19278 0.08324
 C2755 C 0.72052 0.19631 0.08714
 C2756 C 0.73248 0.20931 0.07483
 C2757 C 0.72352 0.21973 0.05833
 C2758 C 0.70197 0.21632 0.05380
 C2759 C 0.66927 0.19728 0.05989
 C2760 C 0.66000 0.20746 0.04354
 C2761 C 0.67111 0.22255 0.03280
 C2762 C 0.69185 0.22704 0.03785
 H2763 H 0.66015 0.18538 0.06751
 H2764 H 0.64404 0.20372 0.03927
 H2765 H 0.66370 0.23070 0.02036
 H2766 H 0.69969 0.23908 0.02920
 H2767 H 0.72800 0.18946 0.10025
 H2768 H 0.74890 0.21157 0.07846
 C2769 C 0.18749 0.70346 0.06621
 C2770 C 0.19771 0.69390 0.08290
 C2771 C 0.21924 0.69738 0.08572
 C2772 C 0.23043 0.71070 0.07304
 C2773 C 0.22045 0.72145 0.05731
 C2774 C 0.19867 0.71808 0.05390
 C2775 C 0.16648 0.69869 0.06128
 C2776 C 0.15618 0.70929 0.04577
 C2777 C 0.16656 0.72477 0.03488
 C2778 C 0.18756 0.72921 0.03886
 H2779 H 0.15790 0.68651 0.06906
 H2780 H 0.14001 0.70557 0.04230
 H2781 H 0.15835 0.73326 0.02313
 H2782 H 0.19481 0.74154 0.03012
 H2783 H 0.22748 0.69028 0.09828
 H2784 H 0.24704 0.71295 0.07580
 C2785 C 0.18231 0.20475 0.56485
 C2786 C 0.19161 0.19126 0.57942
 C2787 C 0.21356 0.19043 0.58079
 C2788 C 0.22618 0.20319 0.56889
 C2789 C 0.21743 0.21761 0.55535
 C2790 C 0.19527 0.21855 0.55324
 C2791 C 0.16046 0.20469 0.56131
 C2792 C 0.15143 0.21882 0.54781
 C2793 C 0.16392 0.23321 0.53754
 C2794 C 0.18563 0.23314 0.54018
 H2795 H 0.15019 0.19353 0.56860
 H2796 H 0.13463 0.21867 0.54536
 H2797 H 0.15676 0.24435 0.52733
 H2798 H 0.19468 0.24468 0.53198
 H2799 H 0.22115 0.18031 0.59169
 H2800 H 0.24307 0.20211 0.57060
   
