data_POSCAR
  _audit_creation_date              2014-09-24
  _audit_creation_method            'ToBaCCo'
  _symmetry_space_group_name_H-M    'P1'
  _symmetry_Int_Tables_number       1
  _symmetry_cell_setting            triclinic
  loop_
  _symmetry_equiv_pos_as_xyz
 x,y,z
_cell_length_a 53.5773
_cell_length_b 53.8572
_cell_length_c 53.8236
_cell_angle_alpha 89.354700
_cell_angle_beta 89.309500
_cell_angle_gamma 89.709000
loop_
  _atom_site_label
  _atom_site_type_symbol
  _atom_site_fract_x
  _atom_site_fract_y
  _atom_site_fract_z
C1 C 0.77394 0.64884 1.01401
 C2 C 0.78390 0.63214 0.99367
 C3 C 0.76568 0.61701 0.98274
 C4 C 0.73944 0.62029 0.99439
 C5 C 0.75264 0.66342 1.00222
 C6 C 0.73392 0.64833 0.99179
 C7 C 0.76157 0.63154 1.03270
 C8 C 0.74312 0.61588 1.02246
 H9 H 0.80303 0.63303 0.98693
 H10 H 0.72528 0.60788 0.98646
 H11 H 0.75185 0.68353 1.00183
 H12 H 0.76493 0.63321 1.05239
 C13 C 0.78355 0.36221 0.48829
 C14 C 0.78670 0.38022 0.50940
 C15 C 0.76524 0.39479 0.51493
 C16 C 0.74284 0.38855 0.49853
 C17 C 0.76123 0.34640 0.49563
 C18 C 0.73943 0.36025 0.50155
 C19 C 0.77485 0.37831 0.46664
 C20 C 0.75266 0.39189 0.47156
 H21 H 0.80343 0.38036 0.52049
 H22 H 0.72615 0.39991 0.50290
 H23 H 0.76206 0.32630 0.49665
 H24 H 0.78416 0.37874 0.44868
 C25 C 0.27391 -0.13957 -0.01443
 C26 C 0.28186 -0.12288 0.00487
 C27 C 0.26430 -0.10400 0.01137
 C28 C 0.24013 -0.10582 -0.00375
 C29 C 0.25065 -0.15042 -0.00544
 C30 C 0.23163 -0.13271 0.00088
 C31 C 0.26741 -0.12420 -0.03569
 C32 C 0.24894 -0.10582 -0.03115
 H33 H 0.29850 -0.12667 0.01555
 H34 H 0.22590 -0.09152 0.00095
 H35 H 0.24823 -0.17029 -0.00402
 H36 H 0.27448 -0.12785 -0.05429
 C37 C 0.28454 0.13813 0.50641
 C38 C 0.28651 0.11842 0.48656
 C39 C 0.26388 0.10566 0.48233
 C40 C 0.24231 0.11417 0.49952
 C41 C 0.26316 0.15505 0.49853
 C42 C 0.24035 0.14248 0.49477
 C43 C 0.27526 0.12436 0.52938
 C44 C 0.25259 0.11160 0.52619
 H45 H 0.30288 0.11664 0.47471
 H46 H 0.22509 0.10346 0.49661
 H47 H 0.26533 0.17488 0.49567
 H48 H 0.28511 0.12448 0.54686
 C49 C 0.14711 0.50376 0.26863
 C50 C 0.12960 0.48367 0.27841
 C51 C 0.11210 0.47528 0.26080
 C52 C 0.11444 0.48899 0.23572
 C53 C 0.15929 0.49286 0.24538
 C54 C 0.14168 0.48488 0.22752
 C55 C 0.13031 0.52449 0.25911
 C56 C 0.11255 0.51678 0.24148
 H57 H 0.13139 0.47641 0.29708
 H58 H 0.10061 0.48282 0.22185
 H59 H 0.17931 0.49131 0.24320
 H60 H 0.13392 0.54363 0.26360
 C61 C -0.14610 -0.01559 0.27223
 C62 C -0.12982 0.00620 0.27944
 C63 C -0.11464 0.01558 0.25965
 C64 C -0.11831 0.00155 0.23533
 C65 C -0.16126 -0.00616 0.25030
 C66 C -0.14651 0.00331 0.23041
 C67 C -0.12949 -0.03422 0.26224
 C68 C -0.11386 -0.02593 0.24218
 H69 H -0.13177 0.01476 0.29742
 H70 H -0.10603 0.00828 0.21999
 H71 H -0.18149 -0.00634 0.25002
 H72 H -0.13099 -0.05338 0.26825
 C73 C 0.36034 0.48361 0.77149
 C74 C 0.37661 0.50514 0.77947
 C75 C 0.39443 0.51319 0.76149
 C76 C 0.39332 0.49883 0.73717
 C77 C 0.34721 0.49306 0.74841
 C78 C 0.36473 0.50252 0.72761
 C79 C 0.37816 0.46357 0.76243
 C80 C 0.39559 0.47124 0.74393
 H81 H 0.37142 0.51652 0.79508
 H82 H 0.40728 0.50515 0.72306
 H83 H 0.32707 0.49368 0.74694
 H84 H 0.37613 0.44465 0.76896
 C85 C 0.64563 1.00967 0.77355
 C86 C 0.62924 0.98964 0.78531
 C87 C 0.61150 0.97951 0.76914
 C88 C 0.61224 0.99163 0.74309
 C89 C 0.65726 0.99754 0.75056
 C90 C 0.63926 0.98782 0.73396
 C91 C 0.62879 1.02841 0.76431
 C92 C 0.61013 1.01978 0.74784
 H93 H 0.63222 0.98241 0.80393
 H94 H 0.59792 0.98457 0.73023
 H95 H 0.67723 0.99604 0.74792
 H96 H 0.63214 1.04788 0.76768
 C97 C -0.01605 0.27873 -0.14588
 C98 C 0.00493 0.28879 -0.13037
 C99 C 0.01335 0.27243 -0.11153
 C100 C -0.00081 0.24743 -0.11083
 C101 C -0.00621 0.25427 -0.15614
 C102 C 0.00225 0.23734 -0.13741
 C103 C -0.03634 0.27153 -0.12739
 C104 C -0.02879 0.25448 -0.10882
 H105 H 0.01328 0.30679 -0.13401
 H106 H 0.00548 0.23432 -0.09613
 H107 H -0.00444 0.25112 -0.17589
 H108 H -0.05561 0.27728 -0.12968
 C109 C 0.51198 0.27544 0.14769
 C110 C 0.49387 0.28630 0.12901
 C111 C 0.48639 0.26970 0.11043
 C112 C 0.49932 0.24408 0.11242
 C113 C 0.49947 0.25193 0.15776
 C114 C 0.49281 0.23479 0.13888
 C115 C 0.53394 0.26632 0.13229
 C116 C 0.52763 0.24969 0.11328
 H117 H 0.48552 0.30454 0.13122
 H118 H 0.49405 0.23107 0.09757
 H119 H 0.49530 0.24939 0.17731
 H120 H 0.55300 0.27171 0.13600
 C121 C 1.00936 0.77588 0.64539
 C122 C 0.99132 0.78724 0.62879
 C123 C 0.98077 0.77112 0.61115
 C124 C 0.99167 0.74471 0.61292
 C125 C 0.99667 0.75486 0.65731
 C126 C 0.98690 0.73715 0.64020
 C127 C 1.02863 0.76500 0.62973
 C128 C 1.02006 0.74852 0.61125
 H129 H 0.98466 0.80617 0.63104
 H130 H 0.98449 0.73149 0.59908
 H131 H 0.99481 0.75300 0.67727
 H132 H 1.04827 0.76718 0.63376
 C133 C 0.48336 0.77712 0.35774
 C134 C 0.50416 0.78342 0.37548
 C135 C 0.50980 0.76434 0.39299
 C136 C 0.49365 0.74107 0.38982
 C137 C 0.49192 0.75316 0.34526
 C138 C 0.49776 0.73371 0.36252
 C139 C 0.46137 0.76972 0.37414
 C140 C 0.46640 0.75027 0.39113
 H141 H 0.51548 0.79977 0.37250
 H142 H 0.49813 0.72601 0.40332
 H143 H 0.49444 0.75188 0.32536
 H144 H 0.44286 0.77757 0.37175
 C145 C 0.39822 -0.02019 0.27554
 H146 H 0.39774 -0.00321 0.28609
 C147 C 0.41190 -0.04060 0.28417
 H148 H 0.42235 -0.03870 0.30108
 C149 C 0.38561 -0.04263 0.24026
 H150 H 0.37533 -0.04337 0.22315
 C151 C 0.39892 -0.06352 0.24828
 H152 H 0.39867 -0.08023 0.23727
 N153 N 0.38522 -0.02162 0.25407
 C154 C 0.37493 0.05279 0.22281
 H155 H 0.35494 0.05299 0.22019
 C156 C 0.38929 0.07281 0.21434
 H157 H 0.37996 0.08853 0.20584
 C158 C 0.41104 0.03195 0.23732
 H159 H 0.41955 0.01592 0.24603
 C160 C 0.42609 0.05171 0.22938
 H161 H 0.44604 0.05077 0.23229
 Zn162 Zn 0.36517 0.00574 0.24405
 N163 N 0.38589 0.03286 0.23407
 C164 C 0.34092 0.03916 0.27789
 N165 N 0.34452 0.01495 0.27169
 C166 C 0.33570 -0.00366 0.28659
 C167 C 0.32318 0.00170 0.30884
 C168 C 0.32808 0.04541 0.29980
 C169 C 0.35517 0.00163 0.19345
 C170 C 0.34390 -0.00718 0.17210
 C171 C 0.31368 -0.02850 0.19807
 C172 C 0.32554 -0.01907 0.21904
 N173 N 0.34595 -0.00429 0.21636
 H174 H 0.34853 0.05376 0.26624
 H175 H 0.33921 -0.02278 0.28164
 H176 H 0.31697 -0.01354 0.32064
 H177 H 0.32625 0.06484 0.30427
 H178 H 0.37199 0.01249 0.19163
 H179 H 0.35263 -0.00214 0.15465
 H180 H 0.29770 -0.04055 0.20070
 H181 H 0.31885 -0.02408 0.23744
 C182 C 0.41529 0.07236 0.21749
 C183 C 0.41183 -0.06291 0.27076
 C184 C 0.32287 -0.02282 0.17403
 C185 C 0.31924 0.02649 0.31591
 C186 C 0.07934 1.02912 0.78133
 H187 H 0.07473 1.01007 0.78587
 C188 C 0.06554 1.04847 0.79202
 H189 H 0.04991 1.04424 0.80426
 C190 C 0.10574 1.05803 0.76061
 H191 H 0.12169 1.06168 0.74866
 C192 C 0.09298 1.07785 0.77146
 H193 H 0.09881 1.09665 0.76719
 N194 N 0.09862 1.03422 0.76541
 C195 C 0.11471 0.96284 0.73049
 H196 H 0.13479 0.96491 0.73008
 C197 C 0.10410 0.94092 0.72230
 H198 H 0.11648 0.92625 0.71622
 C199 C 0.07487 0.97941 0.74044
 H200 H 0.06350 0.99461 0.74708
 C201 C 0.06336 0.95783 0.73196
 H202 H 0.04319 0.95655 0.73242
 Zn203 Zn 0.11884 1.00875 0.75155
 N204 N 0.10021 0.98126 0.74004
 C205 C 0.13840 0.97389 0.78604
 N206 N 0.14064 0.99763 0.77740
 C207 C 0.15509 1.01422 0.78945
 C208 C 0.16747 1.00725 0.81131
 C209 C 0.15066 0.96605 0.80747
 C210 C 0.11875 1.02975 0.70498
 C211 C 0.12730 1.03883 0.68209
 C212 C 0.16959 1.03175 0.69558
 C213 C 0.16010 1.02284 0.71846
 N214 N 0.13503 1.02190 0.72261
 H215 H 0.12601 0.96110 0.77721
 H216 H 0.15611 1.03320 0.78274
 H217 H 0.17829 1.02101 0.82094
 H218 H 0.14732 0.94725 0.81373
 H219 H 0.09889 1.02874 0.70871
 H220 H 0.11371 1.04481 0.66849
 H221 H 0.18959 1.03211 0.69303
 H222 H 0.17272 1.01641 0.73271
 C223 C 0.07801 0.93820 0.72277
 C224 C 0.07253 1.07314 0.78728
 C225 C 0.15302 1.03974 0.67677
 C226 C 0.16521 0.98289 0.82089
 C227 C 0.57750 0.53181 0.26553
 H228 H 0.56917 0.51489 0.25915
 C229 C 0.56204 0.55124 0.27356
 H230 H 0.54197 0.54887 0.27369
 C231 C 0.61340 0.55620 0.27210
 H232 H 0.63336 0.55846 0.27048
 C233 C 0.59872 0.57600 0.28021
 H234 H 0.60774 0.59325 0.28483
 N235 N 0.60277 0.53441 0.26549
 C236 C 0.61982 0.47265 0.21934
 H237 H 0.63565 0.48183 0.21080
 C238 C 0.61095 0.45103 0.20874
 H239 H 0.61980 0.44427 0.19190
 C240 C 0.59039 0.46921 0.25234
 H241 H 0.58321 0.47577 0.26995
 C242 C 0.58067 0.44753 0.24214
 H243 H 0.56564 0.43816 0.25187
 Zn244 Zn 0.62560 0.50939 0.25493
 N245 N 0.60947 0.48149 0.24070
 C246 C 0.64341 0.47342 0.28889
 N247 N 0.64480 0.49794 0.28274
 C248 C 0.65790 0.51383 0.29707
 C249 C 0.66906 0.50543 0.31905
 C250 C 0.65423 0.46423 0.31061
 C251 C 0.63259 0.53375 0.20998
 C252 C 0.64510 0.54234 0.18871
 C253 C 0.68412 0.53169 0.20831
 C254 C 0.67079 0.52325 0.22923
 N255 N 0.64546 0.52400 0.22944
 H256 H 0.63331 0.46083 0.27730
 H257 H 0.65937 0.53316 0.29184
 H258 H 0.67894 0.51860 0.33036
 H259 H 0.65161 0.44479 0.31486
 H260 H 0.61240 0.53405 0.21070
 H261 H 0.63396 0.54955 0.17367
 H262 H 0.70431 0.53051 0.20835
 H263 H 0.68061 0.51540 0.24492
 C264 C 0.59119 0.43810 0.22008
 C265 C 0.57268 0.57351 0.28144
 C266 C 0.67134 0.54089 0.18736
 C267 C 0.66701 0.48037 0.32645
 C268 C 0.89317 0.48738 0.78128
 H269 H 0.89292 0.50561 0.78954
 C270 C 0.90754 0.46840 0.79174
 H271 H 0.91840 0.47217 0.80812
 C272 C 0.87874 0.46022 0.75033
 H273 H 0.86706 0.45689 0.73453
 C274 C 0.89268 0.44068 0.76025
 H275 H 0.89137 0.42281 0.75154
 N276 N 0.87944 0.48309 0.76072
 C277 C 0.86984 0.55514 0.72449
 H278 H 0.84987 0.55511 0.72177
 C279 C 0.88405 0.57534 0.71615
 H280 H 0.87460 0.59087 0.70745
 C281 C 0.90599 0.53508 0.73992
 H282 H 0.91461 0.51929 0.74893
 C283 C 0.92089 0.55497 0.73204
 H284 H 0.94079 0.55435 0.73534
 Zn285 Zn 0.85989 0.50923 0.74768
 N286 N 0.88086 0.53567 0.73642
 C287 C 0.84102 0.54354 0.78256
 N288 N 0.83867 0.52004 0.77402
 C289 C 0.82366 0.50334 0.78594
 C290 C 0.81034 0.51008 0.80740
 C291 C 0.82810 0.55108 0.80386
 C292 C 0.85662 0.49181 0.69991
 C293 C 0.84623 0.48214 0.67850
 C294 C 0.80559 0.48458 0.69821
 C295 C 0.81691 0.49416 0.71943
 N296 N 0.84205 0.49749 0.71986
 H297 H 0.85357 0.55637 0.77332
 H298 H 0.82262 0.48453 0.77921
 H299 H 0.79881 0.49629 0.81675
 H300 H 0.83088 0.56995 0.80962
 H301 H 0.87661 0.49436 0.70087
 H302 H 0.85909 0.47738 0.66375
 H303 H 0.78555 0.48203 0.69827
 H304 H 0.80562 0.49873 0.73552
 C305 C 0.90999 0.57545 0.71995
 C306 C 0.90747 0.44467 0.78123
 C307 C 0.82017 0.47856 0.67712
 C308 C 0.81258 0.53417 0.81699
 C309 C 0.28189 0.37536 -0.03865
 H310 H 0.29324 0.35977 -0.03298
 C311 C 0.28980 0.39020 -0.05860
 H312 H 0.30736 0.38591 -0.06777
 C313 C 0.24598 0.40059 -0.03300
 H314 H 0.22924 0.40501 -0.02257
 C315 C 0.25332 0.41605 -0.05272
 H316 H 0.24188 0.43197 -0.05764
 N317 N 0.26009 0.38048 -0.02650
 C318 C 0.22258 0.36982 0.04405
 H319 H 0.21626 0.35092 0.04202
 C320 C 0.21457 0.38372 0.06442
 H321 H 0.20241 0.37495 0.07801
 C322 C 0.24733 0.40329 0.02923
 H323 H 0.26055 0.41064 0.01576
 C324 C 0.23969 0.41790 0.04923
 H325 H 0.24691 0.43657 0.05082
 Zn326 Zn 0.24906 0.35957 0.00010
 N327 N 0.23852 0.37979 0.02690
 C328 C 0.28707 0.34465 0.03296
 N329 N 0.27620 0.33891 0.01107
 C330 C 0.28562 0.32036 -0.00329
 C331 C 0.30685 0.30703 0.00413
 C332 C 0.30836 0.33195 0.04102
 C333 C 0.20107 0.35415 -0.01932
 C334 C 0.17980 0.34226 -0.02793
 C335 C 0.19930 0.30290 -0.01847
 C336 C 0.22032 0.31563 -0.01013
 N337 N 0.22093 0.34089 -0.01081
 H338 H 0.27965 0.35964 0.04404
 H339 H 0.27703 0.31630 -0.02084
 H340 H 0.31407 0.29256 -0.00783
 H341 H 0.31617 0.33768 0.05839
 H342 H 0.20154 0.37415 -0.01931
 H343 H 0.16492 0.35395 -0.03472
 H344 H 0.19931 0.28279 -0.01766
 H345 H 0.23599 0.30526 -0.00291
 C346 C 0.22298 0.40826 0.06709
 C347 C 0.27522 0.41065 -0.06604
 C348 C 0.17845 0.31611 -0.02746
 C349 C 0.31890 0.31284 0.02643
 C350 C 0.78635 0.09367 1.02129
 H351 H 0.79312 0.09328 1.00228
 C352 C 0.79861 0.07997 1.03965
 H353 H 0.81476 0.06886 1.03459
 C354 C 0.75746 0.10922 1.05099
 H355 H 0.74184 0.12119 1.05546
 C356 C 0.76931 0.09613 1.06995
 H357 H 0.76211 0.09848 1.08856
 N358 N 0.76604 0.10773 1.02722
 C359 C 0.72995 0.11942 0.95635
 H360 H 0.72776 0.13940 0.95659
 C361 C 0.72135 0.10597 0.93622
 H362 H 0.71226 0.11576 0.92115
 C363 C 0.74312 0.08239 0.97659
 H364 H 0.75100 0.07320 0.99262
 C365 C 0.73453 0.06818 0.95695
 H366 H 0.73617 0.04813 0.95786
 Zn367 Zn 0.75140 0.12759 1.00236
 N368 N 0.74105 0.10758 0.97576
 C369 C 0.78616 0.14755 0.96784
 N370 N 0.77700 0.14988 0.99136
 C371 C 0.78916 0.16383 1.00828
 C372 C 0.81191 0.17525 1.00198
 C373 C 0.80866 0.15867 0.96072
 C374 C 0.70363 0.12573 1.02114
 C375 C 0.68027 0.13347 1.02977
 C376 C 0.69426 0.17594 1.02656
 C377 C 0.71758 0.16726 1.01797
 N378 N 0.72171 0.14250 1.01530
 H379 H 0.77696 0.13570 0.95482
 H380 H 0.78196 0.16489 1.02710
 H381 H 0.82161 0.18557 1.01605
 H382 H 0.81533 0.15512 0.94212
 H383 H 0.70739 0.10612 1.01889
 H384 H 0.66631 0.11952 1.03409
 H385 H 0.69181 0.19573 1.02842
 H386 H 0.73224 0.18028 1.01328
 C387 C 0.72386 0.08001 0.93631
 C388 C 0.79030 0.08122 1.06442
 C389 C 0.67494 0.15888 1.03232
 C390 C 0.82241 0.17237 0.97805
 C391 C 0.28154 0.59670 0.52937
 H392 H 0.29470 0.60517 0.51652
 C393 C 0.29034 0.58318 0.54982
 H394 H 0.31026 0.58116 0.55199
 C395 C 0.23969 0.58907 0.54169
 H396 H 0.21997 0.59169 0.53880
 C397 C 0.24764 0.57548 0.56235
 H398 H 0.23383 0.56772 0.57504
 N399 N 0.25659 0.59992 0.52603
 C400 C 0.22142 0.62239 0.45696
 H401 H 0.21895 0.64184 0.46124
 C402 C 0.21155 0.61297 0.43526
 H403 H 0.20138 0.62528 0.42291
 C404 C 0.23741 0.58277 0.46826
 H405 H 0.24736 0.57118 0.48140
 C406 C 0.22788 0.57251 0.44654
 H407 H 0.23034 0.55286 0.44335
 Zn408 Zn 0.24536 0.62310 0.50178
 N409 N 0.23401 0.60732 0.47293
 C410 C 0.28062 0.64362 0.46874
 N411 N 0.27250 0.64430 0.49273
 C412 C 0.28539 0.65700 0.51009
 C413 C 0.30781 0.66890 0.50364
 C414 C 0.30272 0.65521 0.46148
 C415 C 0.19529 0.62799 0.51432
 C416 C 0.17335 0.63899 0.52304
 C417 C 0.19686 0.67581 0.53234
 C418 C 0.21844 0.66401 0.52338
 N419 N 0.21730 0.64045 0.51476
 H420 H 0.27065 0.63303 0.45521
 H421 H 0.27892 0.65691 0.52921
 H422 H 0.31808 0.67836 0.51791
 H423 H 0.30849 0.65295 0.44239
 H424 H 0.19473 0.60940 0.50696
 H425 H 0.15615 0.62850 0.52243
 H426 H 0.19886 0.69439 0.53925
 H427 H 0.23604 0.67369 0.52336
 C428 C 0.21473 0.58780 0.42976
 C429 C 0.27322 0.57297 0.56708
 C430 C 0.17369 0.66329 0.53216
 C431 C 0.31712 0.66780 0.47909
 C432 C 0.78183 0.89671 0.48483
 H433 H 0.78911 0.89618 0.50350
 C434 C 0.79436 0.91005 0.46617
 H435 H 0.81126 0.91993 0.47064
 C436 C 0.75130 0.88387 0.45628
 H437 H 0.73485 0.87318 0.45236
 C438 C 0.76335 0.89666 0.43704
 H439 H 0.75552 0.89529 0.41876
 N440 N 0.76057 0.88423 0.47962
 C441 C 0.72242 0.87476 0.55050
 H442 H 0.71910 0.85497 0.55005
 C443 C 0.71420 0.88856 0.57080
 H444 H 0.70506 0.87894 0.58608
 C445 C 0.73925 0.91080 0.53117
 H446 H 0.74868 0.91949 0.51554
 C447 C 0.73135 0.92534 0.55114
 H448 H 0.73510 0.94509 0.55083
 Zn449 Zn 0.74509 0.86525 0.50486
 N450 N 0.73499 0.88591 0.53139
 C451 C 0.77838 0.84431 0.53911
 N452 N 0.76938 0.84201 0.51578
 C453 C 0.78028 0.82626 0.49927
 C454 C 0.80150 0.81252 0.50589
 C455 C 0.79944 0.83101 0.54651
 C456 C 0.69709 0.86742 0.48828
 C457 C 0.67407 0.85980 0.47956
 C458 C 0.68941 0.81754 0.47918
 C459 C 0.71224 0.82605 0.48836
 N460 N 0.71562 0.85068 0.49251
 H461 H 0.77001 0.85742 0.55177
 H462 H 0.77318 0.82523 0.48058
 H463 H 0.81023 0.80060 0.49219
 H464 H 0.80564 0.83391 0.56522
 H465 H 0.70030 0.88690 0.49169
 H466 H 0.65974 0.87372 0.47638
 H467 H 0.68735 0.79789 0.47606
 H468 H 0.72718 0.81302 0.49206
 C469 C 0.71858 0.91427 0.57124
 C470 C 0.78521 0.91011 0.44185
 C471 C 0.66983 0.83461 0.47470
 C472 C 0.81192 0.81523 0.52960
 C473 C -0.01616 0.26972 0.40444
 H474 H 0.00199 0.27681 0.40915
 C475 C -0.03762 0.27925 0.41622
 H476 H -0.03552 0.29312 0.43040
 C477 C -0.04099 0.24366 0.37979
 H478 H -0.04268 0.23051 0.36497
 C479 C -0.06267 0.25262 0.39091
 H480 H -0.08054 0.24584 0.38472
 N481 N -0.01819 0.25192 0.38680
 C482 C 0.04912 0.20756 0.37697
 H483 H 0.04463 0.20239 0.35820
 C484 C 0.06901 0.19597 0.38873
 H485 H 0.07939 0.18169 0.37898
 C486 C 0.04106 0.23245 0.41220
 H487 H 0.03010 0.24661 0.42130
 C488 C 0.06132 0.22153 0.42460
 H489 H 0.06544 0.22732 0.44328
 Zn490 Zn 0.00949 0.23870 0.36855
 N491 N 0.03541 0.22531 0.38873
 C492 C 0.04827 0.26797 0.34916
 N493 N 0.02326 0.26415 0.34803
 C494 C 0.00825 0.28001 0.33515
 C495 C 0.01824 0.30128 0.32357
 C496 C 0.05903 0.28870 0.33775
 C497 C -0.00865 0.19212 0.36647
 C498 C -0.01855 0.17031 0.35751
 C499 C -0.01712 0.18803 0.31604
 C500 C -0.00657 0.20961 0.32591
 N501 N -0.00281 0.21120 0.35080
 H502 H 0.05995 0.25543 0.35969
 H503 H -0.01165 0.27675 0.33480
 H504 H 0.00561 0.31382 0.31418
 H505 H 0.07894 0.29151 0.33962
 H506 H -0.00575 0.19405 0.38621
 H507 H -0.02308 0.15556 0.37065
 H508 H -0.02008 0.18726 0.29625
 H509 H -0.00181 0.22510 0.31383
 C510 C 0.07557 0.20302 0.41270
 C511 C -0.06128 0.27062 0.40931
 C512 C -0.02329 0.16797 0.33208
 C513 C 0.04403 0.30615 0.32527
 C514 C 1.03453 0.77911 0.09152
 H515 H 1.01683 0.78790 0.08775
 C516 C 1.05603 0.78768 0.07933
 H517 H 1.05425 0.80297 0.06633
 C518 C 1.05781 0.74772 0.11199
 H519 H 1.05863 0.73179 0.12424
 C520 C 1.07971 0.75578 0.10047
 H521 H 1.09705 0.74614 0.10442
 N522 N 1.03587 0.75989 0.10806
 C523 C 0.95939 0.73571 0.11782
 H524 H 0.95730 0.73974 0.13738
 C525 C 0.93943 0.72608 0.10484
 H526 H 0.92219 0.72248 0.11486
 C527 C 0.98532 0.73406 0.08186
 H528 H 1.00346 0.73680 0.07325
 C529 C 0.96576 0.72428 0.06810
 H530 H 0.96886 0.71966 0.04876
 Zn531 Zn 1.00740 0.75009 0.12697
 N532 N 0.98175 0.73935 0.10629
 C533 C 0.99433 0.77674 0.17084
 N534 N 0.99477 0.77731 0.14558
 C535 C 0.98504 0.79696 0.13281
 C536 C 0.97522 0.81743 0.14535
 C537 C 0.98488 0.79685 0.18415
 C538 C 1.00902 0.69998 0.14226
 C539 C 1.01900 0.67919 0.15431
 C540 C 1.04460 0.70654 0.17838
 C541 C 1.03415 0.72676 0.16584
 N542 N 1.01696 0.72317 0.14787
 H543 H 1.00095 0.76062 0.18084
 H544 H 0.98436 0.79658 0.11280
 H545 H 0.96770 0.83246 0.13428
 H546 H 0.98488 0.79589 0.20427
 H547 H 0.99572 0.69742 0.12759
 H548 H 1.01238 0.66119 0.14885
 H549 H 1.05872 0.70993 0.19217
 H550 H 1.04079 0.74529 0.16946
 C551 C 0.94245 0.72025 0.07960
 C552 C 1.07916 0.77632 0.08433
 C553 C 1.03756 0.68224 0.17235
 C554 C 0.97521 0.81771 0.17153
 C555 C 0.53080 0.27708 0.58169
 H556 H 0.51153 0.27951 0.57668
 C557 C 0.54919 0.28996 0.56834
 H558 H 0.54379 0.30207 0.55310
 C559 C 0.56125 0.25928 0.60808
 H560 H 0.56575 0.24783 0.62405
 C561 C 0.58021 0.27179 0.59529
 H562 H 0.59901 0.26954 0.60194
 N563 N 0.53708 0.26226 0.60129
 C564 C 0.47779 0.21447 0.60248
 H565 H 0.48930 0.20024 0.61080
 C566 C 0.45557 0.20774 0.59134
 H567 H 0.45062 0.18833 0.59156
 C568 C 0.46925 0.25704 0.59475
 H569 H 0.47408 0.27630 0.59733
 C570 C 0.44696 0.25113 0.58316
 H571 H 0.43509 0.26592 0.57619
 Zn572 Zn 0.51245 0.24785 0.62219
 N573 N 0.48431 0.23875 0.60384
 C574 C 0.47977 0.26720 0.65812
 N575 N 0.50096 0.27206 0.64488
 C576 C 0.51133 0.29505 0.64468
 C577 C 0.49973 0.31460 0.65730
 C578 C 0.46757 0.28613 0.67104
 C579 C 0.53705 0.20153 0.62381
 C580 C 0.54558 0.17927 0.63435
 C581 C 0.53169 0.19382 0.67449
 C582 C 0.52359 0.21587 0.66317
 N583 N 0.52589 0.21911 0.63820
 H584 H 0.47167 0.24885 0.65761
 H585 H 0.52814 0.29855 0.63393
 H586 H 0.50854 0.33257 0.65645
 H587 H 0.45030 0.28189 0.68085
 H588 H 0.53878 0.20459 0.60396
 H589 H 0.55398 0.16542 0.62237
 H590 H 0.52968 0.19235 0.69441
 H591 H 0.51513 0.23025 0.67433
 C592 C 0.43988 0.22622 0.58133
 C593 C 0.57426 0.28761 0.57519
 C594 C 0.54245 0.17475 0.65997
 C595 C 0.47702 0.31047 0.67019
 C596 C 0.48337 0.77899 0.90392
 H597 H 0.50240 0.78550 0.90489
 C598 C 0.46461 0.79052 0.91782
 H599 H 0.46933 0.80594 0.92961
 C600 C 0.45406 0.75136 0.88681
 H601 H 0.44998 0.73647 0.87422
 C602 C 0.43467 0.76253 0.90011
 H603 H 0.41597 0.75587 0.89729
 N604 N 0.47782 0.75964 0.88904
 C605 C 0.54992 0.72487 0.87829
 H606 H 0.55073 0.72517 0.85820
 C607 C 0.56915 0.71386 0.89172
 H608 H 0.58466 0.70563 0.88168
 C609 C 0.52763 0.73375 0.91548
 H610 H 0.51102 0.74080 0.92460
 C611 C 0.54642 0.72265 0.92968
 H612 H 0.54440 0.72171 0.94973
 Zn613 Zn 0.50349 0.74577 0.86968
 N614 N 0.52977 0.73468 0.89024
 C615 C 0.53689 0.78191 0.85148
 N616 N 0.51447 0.77116 0.84739
 C617 C 0.49871 0.78053 0.82998
 C618 C 0.50548 0.80138 0.81569
 C619 C 0.54434 0.80282 0.83781
 C620 C 0.48646 0.69824 0.87030
 C621 C 0.47771 0.67557 0.86207
 C622 C 0.47897 0.69167 0.81999
 C623 C 0.48823 0.71411 0.82912
 N624 N 0.49147 0.71699 0.85395
 H625 H 0.54872 0.77492 0.86611
 H626 H 0.48056 0.77222 0.82766
 H627 H 0.49248 0.80857 0.80208
 H628 H 0.56224 0.81051 0.84228
 H629 H 0.48926 0.70100 0.88995
 H630 H 0.47387 0.66105 0.87569
 H631 H 0.47652 0.69003 0.80020
 H632 H 0.49271 0.72912 0.81638
 C633 C 0.56756 0.71268 0.91777
 C634 C 0.43988 0.78235 0.91603
 C635 C 0.47353 0.67193 0.83667
 C636 C 0.52847 0.81319 0.81961
 C637 C 0.47681 -0.20151 0.34066
 C638 C 0.47002 -0.17878 0.35117
 C639 C 0.46081 -0.15654 0.33772
 C640 C 0.45611 -0.15597 0.31207
 C641 C 0.44640 -0.13446 0.30080
 C642 C 0.44121 -0.11317 0.31502
 C643 C 0.44617 -0.11389 0.34053
 C644 C 0.45582 -0.13523 0.35171
 C645 C 0.43014 -0.09001 0.30467
 C646 C 0.42456 -0.08581 0.27967
 H647 H 0.47106 -0.17743 0.37123
 H648 H 0.45951 -0.17204 0.30066
 H649 H 0.44280 -0.13493 0.28112
 H650 H 0.44237 -0.09788 0.35202
 H651 H 0.45920 -0.13514 0.37152
 H652 H 0.42534 -0.07579 0.31794
 H653 H 0.47613 -0.20442 0.32085
 H654 H 0.42799 -0.10022 0.26624
 C655 C 0.97483 0.29728 0.83516
 C656 C 0.96508 0.31984 0.84347
 C657 C 0.95502 0.34000 0.82771
 C658 C 0.94809 0.36214 0.83943
 C659 C 0.93791 0.38179 0.82591
 C660 C 0.93462 0.37985 0.80014
 C661 C 0.94128 0.35759 0.78837
 C662 C 0.95145 0.33779 0.80199
 C663 C 0.92299 0.40005 0.78544
 C664 C 0.92209 0.42467 0.79341
 H665 H 0.96493 0.32293 0.86335
 H666 H 0.95030 0.36418 0.85929
 H667 H 0.93208 0.39812 0.83596
 H668 H 0.93849 0.35549 0.76861
 H669 H 0.95609 0.32088 0.79232
 H670 H 0.91504 0.39502 0.76788
 H671 H 0.97606 0.29298 0.81562
 H672 H 0.93237 0.42969 0.80977
 C673 C 0.01351 1.21430 0.85773
 C674 C 0.01367 1.20334 0.83426
 C675 C 0.02735 1.18016 0.82847
 C676 C 0.01864 1.16511 0.80933
 C677 C 0.03173 1.14373 0.80244
 C678 C 0.05410 1.13724 0.81425
 C679 C 0.06312 1.15251 0.83306
 C680 C 0.04974 1.17367 0.84033
 C681 C 0.06894 1.11559 0.80604
 C682 C 0.05785 1.09370 0.79811
 H683 H 0.00235 1.21117 0.81962
 H684 H 0.00171 1.17001 0.79956
 H685 H 0.02477 1.13273 0.78732
 H686 H 0.08057 1.14806 0.84209
 H687 H 0.05733 1.18530 0.85463
 H688 H 0.08910 1.11664 0.80690
 H689 H 0.02196 1.20435 0.87310
 H690 H 0.03792 1.09127 0.80056
 C691 C 0.50778 0.71048 0.35632
 C692 C 0.51158 0.70228 0.33198
 C693 C 0.52435 0.67855 0.32618
 C694 C 0.51926 0.66671 0.30370
 C695 C 0.53170 0.64475 0.29726
 C696 C 0.54972 0.63437 0.31312
 C697 C 0.55504 0.64638 0.33542
 C698 C 0.54247 0.66818 0.34196
 C699 C 0.56457 0.61222 0.30619
 C700 C 0.55641 0.59421 0.28969
 H701 H 0.50438 0.71300 0.31652
 H702 H 0.50573 0.67457 0.29102
 H703 H 0.52770 0.63644 0.27955
 H704 H 0.56917 0.63898 0.34773
 H705 H 0.54756 0.67721 0.35901
 H706 H 0.58245 0.60968 0.31508
 H707 H 0.51277 0.69818 0.37152
 H708 H 0.53731 0.59470 0.28336
 C709 C 0.51947 0.29424 0.16676
 C710 C 0.53065 0.31627 0.15852
 C711 C 0.53862 0.33712 0.17414
 C712 C 0.55244 0.35605 0.16249
 C713 C 0.55998 0.37673 0.17565
 C714 C 0.55414 0.37894 0.20106
 C715 C 0.53993 0.36020 0.21276
 C716 C 0.53227 0.33936 0.19946
 C717 C 0.56202 0.40092 0.21531
 C718 C 0.58298 0.41483 0.20830
 H719 H 0.53393 0.31832 0.13868
 H720 H 0.55729 0.35497 0.14292
 H721 H 0.56992 0.39115 0.16556
 H722 H 0.53482 0.36167 0.23222
 H723 H 0.52120 0.32539 0.20897
 H724 H 0.55122 0.40579 0.23164
 H725 H 0.51614 0.29052 0.18630
 H726 H 0.59440 0.40832 0.19296
 C727 C 0.01951 0.79395 0.66197
 C728 C 0.03397 0.81347 0.65212
 C729 C 0.04565 0.83346 0.66629
 C730 C 0.03539 0.84281 0.68845
 C731 C 0.04569 0.86396 0.69931
 C732 C 0.06640 0.87586 0.68812
 C733 C 0.07709 0.86571 0.66660
 C734 C 0.06672 0.84492 0.65571
 C735 C 0.07780 0.89860 0.69805
 C736 C 0.06580 0.91521 0.71407
 H737 H 0.03778 0.81364 0.63227
 H738 H 0.01902 0.83438 0.69689
 H739 H 0.03738 0.87089 0.71629
 H740 H 0.09323 0.87424 0.65778
 H741 H 0.07501 0.83795 0.63869
 H742 H 0.09600 0.90338 0.69059
 H743 H 0.01572 0.79284 0.68176
 H744 H 0.04650 0.91213 0.71931
 C745 C 0.97439 0.71510 0.64639
 C746 C 0.97053 0.70616 0.67064
 C747 C 0.95760 0.68236 0.67626
 C748 C 0.96216 0.67011 0.69894
 C749 C 0.95022 0.64772 0.70494
 C750 C 0.93327 0.63715 0.68834
 C751 C 0.92846 0.64960 0.66585
 C752 C 0.94040 0.67193 0.65985
 C753 C 0.91906 0.61422 0.69435
 C754 C 0.92584 0.59694 0.71268
 H755 H 0.97832 0.71601 0.68610
 H756 H 0.97502 0.67792 0.71209
 H757 H 0.95392 0.63916 0.72279
 H758 H 0.91520 0.64211 0.65290
 H759 H 0.93559 0.68115 0.64260
 H760 H 0.90281 0.61054 0.68326
 H761 H 0.96811 0.70405 0.63105
 H762 H 0.94372 0.59867 0.72163
 C763 C 0.48131 0.21173 0.14320
 C764 C 0.47770 0.20130 0.16693
 C765 C 0.46511 0.17724 0.17189
 C766 C 0.46904 0.16528 0.19483
 C767 C 0.45656 0.14330 0.20104
 C768 C 0.43972 0.13275 0.18436
 C769 C 0.43579 0.14468 0.16139
 C770 C 0.44835 0.16666 0.15514
 C771 C 0.42482 0.11041 0.19093
 C772 C 0.43141 0.09339 0.20959
 H773 H 0.48541 0.21043 0.18286
 H774 H 0.48163 0.17316 0.20820
 H775 H 0.45962 0.13517 0.21921
 H776 H 0.42269 0.13711 0.14833
 H777 H 0.44428 0.17558 0.13755
 H778 H 0.40829 0.10700 0.18015
 H779 H 0.47587 0.20126 0.12714
 H780 H 0.44947 0.09486 0.21822
 C781 C 0.34249 0.47316 -0.20916
 C782 C 0.34425 0.47737 -0.18365
 C783 C 0.33012 0.46272 -0.16498
 C784 C 0.32352 0.47360 -0.14227
 C785 C 0.31190 0.45954 -0.12350
 C786 C 0.30705 0.43419 -0.12707
 C787 C 0.31376 0.42334 -0.14977
 C788 C 0.32510 0.43745 -0.16861
 C789 C 0.29694 0.41812 -0.10699
 C790 C 0.28299 0.42699 -0.08691
 H791 H 0.35681 0.49119 -0.17667
 H792 H 0.32766 0.49295 -0.13895
 H793 H 0.30764 0.46837 -0.10600
 H794 H 0.31062 0.40375 -0.15277
 H795 H 0.33083 0.42830 -0.18556
 H796 H 0.30020 0.39832 -0.10841
 H797 H 0.32896 0.45985 -0.21554
 H798 H 0.27655 0.44608 -0.08695
 C799 C 0.83797 0.97508 0.29341
 C800 C 0.84869 0.96451 0.31452
 C801 C 0.83393 0.95481 0.33574
 C802 C 0.84572 0.95097 0.35858
 C803 C 0.83238 0.94158 0.37903
 C804 C 0.80687 0.93592 0.37690
 C805 C 0.79528 0.93941 0.35390
 C806 C 0.80863 0.94861 0.33350
 C807 C 0.79182 0.92516 0.39747
 C808 C 0.79953 0.92342 0.42212
 H809 H 0.86888 0.96379 0.31562
 H810 H 0.86535 0.95518 0.36058
 H811 H 0.84234 0.93846 0.39611
 H812 H 0.77581 0.93472 0.35159
 H813 H 0.79906 0.95026 0.31599
 H814 H 0.77365 0.91845 0.39250
 H815 H 0.81802 0.97800 0.29254
 H816 H 0.81682 0.93202 0.42743
 C817 C 0.84205 0.01336 1.20946
 C818 C 0.85448 0.02530 1.18984
 C819 C 0.84048 0.03686 1.16921
 C820 C 0.85165 0.03897 1.14560
 C821 C 0.83824 0.04887 1.12562
 C822 C 0.81337 0.05686 1.12907
 C823 C 0.80266 0.05555 1.15292
 C824 C 0.81607 0.04592 1.17280
 C825 C 0.79805 0.06767 1.10896
 C826 C 0.80472 0.06784 1.08380
 H827 H 0.87463 0.02582 1.18894
 H828 H 0.87067 0.03266 1.14254
 H829 H 0.84759 0.05031 1.10778
 H830 H 0.78377 0.06209 1.15627
 H831 H 0.80724 0.04590 1.19097
 H832 H 0.78045 0.07566 1.11471
 H833 H 0.82193 0.01187 1.20877
 H834 H 0.82137 0.05809 1.07783
 C835 C 0.35783 0.51418 0.70184
 C836 C 0.33318 0.51730 0.69477
 C837 C 0.32628 0.52871 0.67068
 C838 C 0.30096 0.53089 0.66478
 C839 C 0.29361 0.54148 0.64220
 C840 C 0.31157 0.54998 0.62479
 C841 C 0.33694 0.54815 0.63092
 C842 C 0.34427 0.53760 0.65358
 C843 C 0.30472 0.56137 0.60050
 C844 C 0.28085 0.56007 0.59030
 H845 H 0.31833 0.51128 0.70726
 H846 H 0.28674 0.52444 0.67775
 H847 H 0.27385 0.54318 0.63888
 H848 H 0.35119 0.55485 0.61809
 H849 H 0.36399 0.53644 0.65765
 H850 H 0.31931 0.57113 0.59043
 H851 H 0.36160 0.50783 0.71586
 H852 H 0.26639 0.55002 0.60022
 C853 C 0.16481 0.51240 0.28824
 C854 C 0.15507 0.52316 0.30979
 C855 C 0.16973 0.53145 0.33120
 C856 C 0.15758 0.54621 0.34894
 C857 C 0.17004 0.55402 0.36999
 C858 C 0.19512 0.54735 0.37375
 C859 C 0.20720 0.53211 0.35631
 C860 C 0.19468 0.52429 0.33510
 C861 C 0.20868 0.55580 0.39588
 C862 C 0.20287 0.57837 0.40710
 H863 H 0.13501 0.52588 0.31089
 H864 H 0.13825 0.55168 0.34657
 H865 H 0.15979 0.56494 0.38347
 H866 H 0.22640 0.52642 0.35902
 H867 H 0.20447 0.51240 0.32215
 H868 H 0.22424 0.54477 0.40244
 H869 H 0.18470 0.50996 0.28554
 H870 H 0.18936 0.59048 0.39823
 C871 C 0.66405 0.02000 0.79166
 C872 C 0.65552 0.02874 0.81456
 C873 C 0.67182 0.03866 0.83379
 C874 C 0.69242 0.05370 0.82790
 C875 C 0.70596 0.06474 0.84688
 C876 C 0.69941 0.06046 0.87191
 C877 C 0.67901 0.04504 0.87766
 C878 C 0.66526 0.03444 0.85874
 C879 C 0.71267 0.07382 0.89154
 C880 C 0.71408 0.06492 0.91593
 H881 H 0.63585 0.02694 0.81918
 H882 H 0.69742 0.05773 0.80873
 H883 H 0.72135 0.07690 0.84204
 H884 H 0.67298 0.04191 0.89669
 H885 H 0.64923 0.02311 0.86358
 H886 H 0.72165 0.09118 0.88659
 H887 H 0.68371 0.02074 0.78681
 H888 H 0.70832 0.04608 0.92022
 C889 C 0.64466 0.97574 0.71158
 C890 C 0.66877 0.97274 0.70171
 C891 C 0.67417 0.96018 0.67786
 C892 C 0.69696 0.96496 0.66563
 C893 C 0.70303 0.95327 0.64329
 C894 C 0.68635 0.93643 0.63269
 C895 C 0.66373 0.93136 0.64510
 C896 C 0.65766 0.94304 0.66744
 C897 C 0.69243 0.92266 0.60970
 C898 C 0.71109 0.92970 0.59271
 H899 H 0.68446 0.98090 0.71098
 H900 H 0.71020 0.97776 0.67345
 H901 H 0.72101 0.95711 0.63481
 H902 H 0.65076 0.91811 0.63758
 H903 H 0.64033 0.93808 0.67665
 H904 H 0.68121 0.90655 0.60581
 H905 H 0.62895 0.96903 0.70122
 H906 H 0.72017 0.94746 0.59465
 C907 C 0.14750 0.47378 0.20477
 C908 C 0.17180 0.46944 0.19601
 C909 C 0.17736 0.45677 0.17226
 C910 C 0.20092 0.46002 0.16105
 C911 C 0.20711 0.44801 0.13890
 C912 C 0.18975 0.43242 0.12746
 C913 C 0.16633 0.42891 0.13888
 C914 C 0.16018 0.44085 0.16104
 C915 C 0.19572 0.41838 0.10458
 C916 C 0.21581 0.42380 0.08865
 H917 H 0.18754 0.47618 0.20629
 H918 H 0.21465 0.47183 0.16954
 H919 H 0.22566 0.45063 0.13127
 H920 H 0.15278 0.41666 0.13074
 H921 H 0.14220 0.43700 0.16950
 H922 H 0.18322 0.40348 0.09995
 H923 H 0.13196 0.46857 0.19336
 H924 H 0.22650 0.44048 0.09155
 C925 C -0.19294 0.34737 0.48391
 C926 C -0.18608 0.33804 0.46078
 C927 C -0.16097 0.32782 0.45504
 C928 C -0.15698 0.31685 0.43183
 C929 C -0.13335 0.30817 0.42494
 C930 C -0.11315 0.31019 0.44122
 C931 C -0.11692 0.32149 0.46426
 C932 C -0.14059 0.33016 0.47121
 C933 C -0.08802 0.30107 0.43419
 C934 C -0.08514 0.27981 0.41991
 H935 H -0.19945 0.33904 0.44587
 H936 H -0.17215 0.31528 0.41881
 H937 H -0.13086 0.30036 0.40663
 H938 H -0.10154 0.32347 0.47697
 H939 H -0.14249 0.33905 0.48902
 H940 H -0.07195 0.31105 0.44069
 H941 H -0.18137 0.34359 0.49984
 H942 H -0.10181 0.26962 0.41527
 C943 C 0.29270 0.84245 0.97933
 C944 C 0.31624 0.85015 0.97089
 C945 C 0.33623 0.83361 0.96169
 C946 C 0.35920 0.84441 0.95531
 C947 C 0.37854 0.83011 0.94546
 C948 C 0.37541 0.80448 0.94206
 C949 C 0.35240 0.79363 0.94832
 C950 C 0.33295 0.80800 0.95809
 C951 C 0.39514 0.78890 0.93077
 C952 C 0.42023 0.79582 0.92998
 H953 H 0.32001 0.86993 0.97052
 H954 H 0.36209 0.86415 0.95758
 H955 H 0.39555 0.83947 0.93995
 H956 H 0.34941 0.77399 0.94545
 H957 H 0.31546 0.79891 0.96227
 H958 H 0.38945 0.77137 0.92320
 H959 H 0.28827 0.82290 0.98034
 H960 H 0.42596 0.81204 0.94007
 C961 C 1.20799 0.86154 0.01065
 C962 C 1.20038 0.83724 0.01601
 C963 C 1.17602 0.83029 0.02720
 C964 C 1.17286 0.80554 0.03493
 C965 C 1.15029 0.79755 0.04521
 C966 C 1.13030 0.81429 0.04832
 C967 C 1.13331 0.83902 0.04039
 C968 C 1.15593 0.84701 0.02990
 C969 C 1.10598 0.80650 0.05907
 C970 C 1.10307 0.78484 0.07330
 H971 H 1.21309 0.82201 0.01269
 H972 H 1.18792 0.79219 0.03291
 H973 H 1.14867 0.77813 0.05016
 H974 H 1.11810 0.85222 0.04232
 H975 H 1.15728 0.86612 0.02377
 H976 H 1.09029 0.81887 0.05639
 H977 H 1.19562 0.87690 0.01466
 H978 H 1.11939 0.77389 0.07781
 C979 C 0.71810 0.34795 0.51012
 C980 C 0.69682 0.35943 0.51996
 C981 C 0.67677 0.34458 0.53194
 C982 C 0.65214 0.35353 0.53225
 C983 C 0.63292 0.33924 0.54286
 C984 C 0.63816 0.31575 0.55341
 C985 C 0.66295 0.30741 0.55399
 C986 C 0.68204 0.32166 0.54357
 C987 C 0.61886 0.29963 0.56490
 C988 C 0.59321 0.30292 0.56194
 H989 H 0.69452 0.37936 0.51908
 H990 H 0.64773 0.37145 0.52404
 H991 H 0.61422 0.34685 0.54292
 H992 H 0.66763 0.28973 0.56258
 H993 H 0.70096 0.31471 0.54498
 H994 H 0.62555 0.28386 0.57549
 H995 H 0.71868 0.32786 0.50980
 H996 H 0.58652 0.31711 0.54926
 C997 C 0.30865 0.15130 0.51043
 C998 C 0.31166 0.16736 0.53024
 C999 C 0.33653 0.17522 0.53825
 C1000 C 0.33901 0.19723 0.55159
 C1001 C 0.36242 0.20462 0.55985
 C1002 C 0.38368 0.18991 0.55493
 C1003 C 0.38096 0.16752 0.54231
 C1004 C 0.35766 0.16019 0.53407
 C1005 C 0.40870 0.19643 0.56373
 C1006 C 0.41547 0.22038 0.57039
 H1007 H 0.29542 0.17328 0.54087
 H1008 H 0.32281 0.20868 0.55564
 H1009 H 0.36359 0.22147 0.57049
 H1010 H 0.39692 0.15554 0.53893
 H1011 H 0.35623 0.14244 0.52501
 H1012 H 0.42250 0.18173 0.56401
 H1013 H 0.32436 0.14720 0.49829
 H1014 H 0.40265 0.23562 0.56710
 C1015 C 0.79379 0.66465 0.02524
 C1016 C 0.81555 0.65389 0.03451
 C1017 C 0.83625 0.66870 0.04407
 C1018 C 0.86082 0.66043 0.04023
 C1019 C 0.88089 0.67418 0.04893
 C1020 C 0.87660 0.69636 0.06191
 C1021 C 0.85193 0.70421 0.06627
 C1022 C 0.83191 0.69060 0.05735
 C1023 C 0.89709 0.71085 0.07267
 C1024 C 0.92215 0.70851 0.06558
 H1025 H 0.81825 0.63402 0.03284
 H1026 H 0.86449 0.64337 0.03031
 H1027 H 0.89955 0.66703 0.04589
 H1028 H 0.84811 0.72088 0.07678
 H1029 H 0.81308 0.69691 0.06132
 H1030 H 0.89202 0.72418 0.08678
 H1031 H 0.79130 0.68461 0.02557
 H1032 H 0.92720 0.69796 0.04927
 C1033 C 0.71334 0.65927 0.98019
 C1034 C 0.69293 0.64637 0.97101
 C1035 C 0.67216 0.65972 0.95878
 C1036 C 0.64758 0.65120 0.96183
 C1037 C 0.62767 0.66431 0.95118
 C1038 C 0.63217 0.68593 0.93694
 C1039 C 0.65681 0.69386 0.93320
 C1040 C 0.67660 0.68098 0.94403
 C1041 C 0.61202 0.69979 0.92435
 C1042 C 0.58719 0.70013 0.93246
 H1043 H 0.69100 0.62664 0.97430
 H1044 H 0.64379 0.63458 0.97273
 H1045 H 0.60893 0.65723 0.95371
 H1046 H 0.66077 0.71016 0.92188
 H1047 H 0.69540 0.68753 0.94056
 H1048 H 0.61727 0.71117 0.90843
 H1049 H 0.71299 0.67937 0.97892
 H1050 H 0.58213 0.69181 0.95022
 C1051 C 0.21919 0.15574 0.48704
 C1052 C 0.19619 0.14492 0.48206
 C1053 C 0.17431 0.15921 0.47302
 C1054 C 0.15557 0.14639 0.46064
 C1055 C 0.13460 0.15888 0.45167
 C1056 C 0.13193 0.18470 0.45469
 C1057 C 0.15032 0.19748 0.46772
 C1058 C 0.17133 0.18491 0.47682
 C1059 C 0.11019 0.19855 0.44463
 C1060 C 0.09685 0.18993 0.42435
 H1061 H 0.19414 0.12502 0.48331
 H1062 H 0.15722 0.12658 0.45774
 H1063 H 0.12046 0.14808 0.44264
 H1064 H 0.14854 0.21728 0.47068
 H1065 H 0.18489 0.19539 0.48702
 H1066 H 0.10584 0.21661 0.45219
 H1067 H 0.22124 0.17554 0.48418
 H1068 H 0.10336 0.17330 0.41518
 C1069 C 0.59346 0.03490 0.73659
 C1070 C 0.58922 0.05931 0.74450
 C1071 C 0.57528 0.07855 0.73063
 C1072 C 0.57513 0.07964 0.70454
 C1073 C 0.56509 0.10045 0.69219
 C1074 C 0.55497 0.12040 0.70585
 C1075 C 0.55436 0.11862 0.73187
 C1076 C 0.56459 0.09811 0.74409
 C1077 C 0.54503 0.14353 0.69430
 C1078 C 0.55032 0.15165 0.66996
 H1079 H 0.59582 0.06484 0.76253
 H1080 H 0.58368 0.06498 0.69373
 H1081 H 0.56552 0.10081 0.67212
 H1082 H 0.54661 0.13356 0.74290
 H1083 H 0.56468 0.09779 0.76422
 H1084 H 0.53358 0.15490 0.70629
 H1085 H 0.58248 0.02776 0.72152
 H1086 H 0.56082 0.13942 0.65788
 C1087 C 1.09652 0.53306 0.22871
 C1088 C 1.09363 0.55800 0.23533
 C1089 C 1.08046 0.57738 0.22073
 C1090 C 1.06973 0.57316 0.19743
 C1091 C 1.05842 0.59273 0.18433
 C1092 C 1.05775 0.61682 0.19410
 C1093 C 1.06819 0.62082 0.21755
 C1094 C 1.07950 0.60140 0.23053
 C1095 C 1.04544 0.63706 0.17983
 C1096 C 1.04959 0.66229 0.18440
 H1097 H 1.10163 0.56421 0.25249
 H1098 H 1.07012 0.55502 0.18908
 H1099 H 1.05033 0.58907 0.16639
 H1100 H 1.06745 0.63876 0.22631
 H1101 H 1.08763 0.60525 0.24841
 H1102 H 1.03345 0.63148 0.16494
 H1103 H 1.08624 0.52578 0.21328
 H1104 H 1.06363 0.66702 0.19779
 C1105 C 0.90197 0.95941 0.22928
 C1106 C 0.90710 0.93472 0.23610
 C1107 C 0.92065 0.91647 0.22054
 C1108 C 0.92528 0.89290 0.23087
 C1109 C 0.93637 0.87423 0.21677
 C1110 C 0.94353 0.87880 0.19191
 C1111 C 0.93887 0.90239 0.18150
 C1112 C 0.92752 0.92107 0.19561
 C1113 C 0.95478 0.85924 0.17605
 C1114 C 0.96562 0.83747 0.18570
 H1115 H 0.90088 0.92782 0.25403
 H1116 H 0.91979 0.88866 0.24989
 H1117 H 0.93852 0.85616 0.22541
 H1118 H 0.94382 0.90632 0.16229
 H1119 H 0.92380 0.93874 0.18668
 H1120 H 0.95463 0.86269 0.15627
 H1121 H 0.91107 0.96731 0.21303
 H1122 H 0.96696 0.83557 0.20565
 C1123 C 0.41181 0.45515 0.73096
 C1124 C 0.41354 0.42958 0.73604
 C1125 C 0.42806 0.41120 0.72128
 C1126 C 0.42722 0.38623 0.72905
 C1127 C 0.44019 0.36787 0.71606
 C1128 C 0.45426 0.37393 0.69466
 C1129 C 0.45523 0.39891 0.68683
 C1130 C 0.44222 0.41738 0.69990
 C1131 C 0.46878 0.35489 0.68078
 C1132 C 0.46327 0.32943 0.68204
 H1133 H 0.40340 0.42192 0.75173
 H1134 H 0.41651 0.38081 0.74542
 H1135 H 0.43945 0.34908 0.72328
 H1136 H 0.46603 0.40415 0.67047
 H1137 H 0.44340 0.43628 0.69308
 H1138 H 0.48345 0.36160 0.66856
 H1139 H 0.42288 0.46314 0.71603
 H1140 H 0.44656 0.32389 0.69208
 C1141 C 0.40936 0.53438 0.76418
 C1142 C 0.41173 0.54653 0.78694
 C1143 C 0.42350 0.57108 0.79066
 C1144 C 0.42146 0.58153 0.81436
 C1145 C 0.43170 0.60466 0.81925
 C1146 C 0.44479 0.61790 0.80061
 C1147 C 0.44638 0.60780 0.77669
 C1148 C 0.43592 0.58457 0.77170
 C1149 C 0.45639 0.64233 0.80563
 C1150 C 0.46394 0.64882 0.82953
 H1151 H 0.40415 0.53776 0.80353
 H1152 H 0.41159 0.57185 0.82923
 H1153 H 0.42886 0.61219 0.83761
 H1154 H 0.45598 0.61779 0.76187
 H1155 H 0.43775 0.57741 0.75311
 H1156 H 0.45919 0.65489 0.79006
 H1157 H 0.41913 0.54134 0.74790
 H1158 H 0.46204 0.63486 0.84405
 C1159 C -0.09911 0.03637 0.26132
 C1160 C -0.09395 0.04761 0.28400
 C1161 C -0.08104 0.07160 0.28707
 C1162 C -0.08163 0.08208 0.31079
 C1163 C -0.07011 0.10468 0.31519
 C1164 C -0.05700 0.11719 0.29606
 C1165 C -0.05686 0.10710 0.27212
 C1166 C -0.06869 0.08444 0.26761
 C1167 C -0.04357 0.14069 0.30084
 C1168 C -0.03429 0.14574 0.32444
 H1169 H -0.10016 0.03866 0.30102
 H1170 H -0.09129 0.07284 0.32606
 H1171 H -0.07186 0.11231 0.33363
 H1172 H -0.04723 0.11656 0.25698
 H1173 H -0.06778 0.07707 0.24904
 H1174 H -0.04092 0.15362 0.28555
 H1175 H -0.09114 0.04377 0.24428
 H1176 H -0.03621 0.13129 0.33847
 C1177 C 0.09584 0.45512 0.26464
 C1178 C 0.09550 0.44075 0.28654
 C1179 C 0.08133 0.41743 0.29051
 C1180 C 0.08778 0.40241 0.31095
 C1181 C 0.07555 0.38006 0.31572
 C1182 C 0.05648 0.37202 0.30006
 C1183 C 0.04938 0.38733 0.28003
 C1184 C 0.06178 0.40980 0.27515
 C1185 C 0.04334 0.34824 0.30497
 C1186 C 0.05545 0.32806 0.31637
 H1187 H 0.10759 0.44562 0.30157
 H1188 H 0.10250 0.40794 0.32334
 H1189 H 0.08085 0.36935 0.33196
 H1190 H 0.03439 0.38178 0.26800
 H1191 H 0.05580 0.42108 0.25957
 H1192 H 0.02416 0.34690 0.29922
 H1193 H 0.08410 0.44995 0.24937
 H1194 H 0.07535 0.32980 0.31928
 C1195 C 0.59769 0.95898 0.77726
 C1196 C 0.58476 0.94247 0.76234
 C1197 C 0.57732 0.91788 0.77282
 C1198 C 0.55537 0.90607 0.76537
 C1199 C 0.54795 0.88349 0.77657
 C1200 C 0.56264 0.87229 0.79525
 C1201 C 0.58501 0.88379 0.80178
 C1202 C 0.59237 0.90601 0.79063
 C1203 C 0.55606 0.84895 0.80879
 C1204 C 0.53432 0.83493 0.80568
 H1205 H 0.58107 0.94679 0.74305
 H1206 H 0.54370 0.91459 0.75133
 H1207 H 0.53074 0.87518 0.77064
 H1208 H 0.59694 0.87561 0.81581
 H1209 H 0.61001 0.91387 0.79608
 H1210 H 0.56940 0.84315 0.82251
 H1211 H 0.59902 0.95432 0.79685
 H1212 H 0.52092 0.84127 0.79213
 C1213 C 0.72865 0.59948 0.03703
 C1214 C 0.73614 0.59248 0.06099
 C1215 C 0.72021 0.58155 0.08088
 C1216 C 0.73075 0.57898 0.10451
 C1217 C 0.71653 0.57092 0.12482
 C1218 C 0.69132 0.56459 0.12199
 C1219 C 0.68071 0.56693 0.09826
 C1220 C 0.69498 0.57537 0.07784
 C1221 C 0.67548 0.55657 0.14348
 C1222 C 0.68535 0.54793 0.16611
 H1223 H 0.75515 0.59634 0.06623
 H1224 H 0.75004 0.58398 0.10752
 H1225 H 0.72541 0.57051 0.14271
 H1226 H 0.66125 0.56242 0.09554
 H1227 H 0.68610 0.57730 0.05999
 H1228 H 0.65555 0.55713 0.14076
 H1229 H 0.71165 0.59221 0.02939
 H1230 H 0.70536 0.54577 0.16732
 C1231 C 0.24218 1.09888 0.54664
 C1232 C 0.21903 1.08712 0.54766
 C1233 C 0.20993 1.07574 0.57140
 C1234 C 0.18452 1.07698 0.57782
 C1235 C 0.17601 1.06843 0.60115
 C1236 C 0.19281 1.05807 0.61850
 C1237 C 0.21808 1.05605 0.61152
 C1238 C 0.22652 1.06459 0.58831
 C1239 C 0.18532 1.04942 0.64400
 C1240 C 0.16062 1.04832 0.65291
 H1241 H 0.20654 1.08830 0.53204
 H1242 H 0.17133 1.08534 0.56508
 H1243 H 0.15639 1.07056 0.60538
 H1244 H 0.23150 1.04798 0.62421
 H1245 H 0.24614 1.06254 0.58372
 H1246 H 0.20028 1.04334 0.65591
 H1247 H 0.25278 1.09927 0.56365
 H1248 H 0.14595 1.05397 0.64044
 C1249 C 0.23874 0.90703 0.94862
 C1250 C 0.21801 0.92279 0.94911
 C1251 C 0.20662 0.93072 0.92527
 C1252 C 0.19786 0.95509 0.92169
 C1253 C 0.18856 0.96273 0.89849
 C1254 C 0.18755 0.94590 0.87866
 C1255 C 0.19540 0.92133 0.88271
 C1256 C 0.20483 0.91383 0.90564
 C1257 C 0.17719 0.95249 0.85397
 C1258 C 0.17644 0.97662 0.84382
 H1259 H 0.21018 0.92931 0.96649
 H1260 H 0.19867 0.96831 0.93667
 H1261 H 0.18189 0.98161 0.89627
 H1262 H 0.19441 0.90783 0.86799
 H1263 H 0.21065 0.89467 0.90803
 H1264 H 0.17142 0.93698 0.84292
 H1265 H 0.24705 0.90330 0.93056
 H1266 H 0.18533 0.99127 0.85404
 C1267 C 0.74089 0.40415 0.45183
 C1268 C 0.71770 0.41602 0.45268
 C1269 C 0.70607 0.42413 0.42909
 C1270 C 0.69503 0.44770 0.42677
 C1271 C 0.68592 0.45594 0.40372
 C1272 C 0.68733 0.44045 0.38282
 C1273 C 0.69730 0.41647 0.38560
 C1274 C 0.70668 0.40844 0.40839
 C1275 C 0.67764 0.44802 0.35818
 C1276 C 0.67707 0.47267 0.34947
 H1277 H 0.70825 0.41971 0.47013
 H1278 H 0.69403 0.45992 0.44259
 H1279 H 0.67757 0.47423 0.40240
 H1280 H 0.69817 0.40399 0.36996
 H1281 H 0.71450 0.38990 0.40984
 H1282 H 0.67246 0.43307 0.34612
 H1283 H 0.75023 0.40339 0.43385
 H1284 H 0.68523 0.48670 0.36109
 C1285 C 0.76508 0.41254 0.53390
 C1286 C 0.78763 0.42298 0.54141
 C1287 C 0.79242 0.43684 0.56440
 C1288 C 0.81528 0.44923 0.56562
 C1289 C 0.82354 0.45887 0.58786
 C1290 C 0.80918 0.45658 0.60970
 C1291 C 0.78562 0.44504 0.60849
 C1292 C 0.77728 0.43521 0.58591
 C1293 C 0.82073 0.46521 0.63300
 C1294 C 0.80831 0.46945 0.65566
 H1295 H 0.80377 0.42053 0.52935
 H1296 H 0.82744 0.45057 0.54942
 H1297 H 0.84175 0.46753 0.58811
 H1298 H 0.77413 0.44262 0.62498
 H1299 H 0.75973 0.42535 0.58560
 H1300 H 0.84032 0.46936 0.63128
 H1301 H 0.74755 0.41890 0.54181
 H1302 H 0.78835 0.46649 0.65655
 C1303 C 0.26784 -0.08745 0.03101
 C1304 C 0.29145 -0.08379 0.04125
 C1305 C 0.29658 -0.06874 0.06337
 C1306 C 0.31995 -0.05734 0.06480
 C1307 C 0.32667 -0.04450 0.08599
 C1308 C 0.31050 -0.04325 0.10663
 C1309 C 0.28703 -0.05483 0.10543
 C1310 C 0.28006 -0.06740 0.08383
 C1311 C 0.31908 -0.02918 0.12843
 C1312 C 0.31155 -0.03370 0.15315
 H1313 H 0.30774 -0.09103 0.03166
 H1314 H 0.33316 -0.05845 0.04945
 H1315 H 0.34488 -0.03586 0.08641
 H1316 H 0.27402 -0.05408 0.12093
 H1317 H 0.26216 -0.07663 0.08340
 H1318 H 0.33344 -0.01577 0.12433
 H1319 H 0.25207 -0.07679 0.03785
 H1320 H 0.29678 -0.04702 0.15651
 C1321 C 0.26100 0.09003 0.46187
 C1322 C 0.28166 0.07861 0.45053
 C1323 C 0.28253 0.06977 0.42465
 C1324 C 0.29902 0.05039 0.41862
 C1325 C 0.30416 0.04460 0.39382
 C1326 C 0.29325 0.05844 0.37446
 C1327 C 0.27644 0.07764 0.38049
 C1328 C 0.27085 0.08307 0.40539
 C1329 C 0.30097 0.05456 0.34818
 C1330 C 0.30798 0.03114 0.33926
 H1331 H 0.29885 0.07695 0.46085
 H1332 H 0.30868 0.04029 0.43316
 H1333 H 0.31775 0.03019 0.38991
 H1334 H 0.26810 0.08885 0.36593
 H1335 H 0.25867 0.09863 0.40955
 H1336 H 0.30067 0.07055 0.33586
 H1337 H 0.24252 0.08700 0.45461
 H1338 H 0.30443 0.01532 0.35140
 C1339 C 0.77250 0.60324 0.96190
 C1340 C 0.75640 0.59245 0.94498
 C1341 C 0.76651 0.58493 0.92035
 C1342 C 0.75788 0.56365 0.90839
 C1343 C 0.76894 0.55599 0.88588
 C1344 C 0.78865 0.56974 0.87496
 C1345 C 0.79637 0.59151 0.88658
 C1346 C 0.78537 0.59911 0.90876
 C1347 C 0.80162 0.56297 0.85140
 C1348 C 0.79960 0.54019 0.83921
 H1349 H 0.73668 0.59042 0.94904
 H1350 H 0.74301 0.55271 0.91671
 H1351 H 0.76193 0.53945 0.87725
 H1352 H 0.81121 0.60273 0.87857
 H1353 H 0.79179 0.61621 0.91687
 H1354 H 0.81437 0.57678 0.84423
 H1355 H 0.79227 0.60274 0.95735
 H1356 H 0.78791 0.52602 0.84762
 C1357 C 0.03618 0.73670 0.59430
 C1358 C 0.06032 0.74583 0.58991
 C1359 C 0.08103 0.73285 0.57705
 C1360 C 0.08073 0.70736 0.57176
 C1361 C 0.10220 0.69564 0.56221
 C1362 C 0.12428 0.70930 0.55780
 C1363 C 0.12418 0.73478 0.56279
 C1364 C 0.10290 0.74637 0.57226
 C1365 C 0.14815 0.69815 0.54895
 C1366 C 0.15096 0.67380 0.54051
 H1367 H 0.06474 0.76416 0.59658
 H1368 H 0.06435 0.69628 0.57573
 H1369 H 0.10140 0.67590 0.55907
 H1370 H 0.14083 0.74579 0.55977
 H1371 H 0.10379 0.76597 0.57646
 H1372 H 0.16404 0.71036 0.54879
 H1373 H 0.02949 0.72098 0.58402
 H1374 H 0.13454 0.66226 0.53981
 C1375 C 0.54688 0.24031 1.09822
 C1376 C 0.54506 0.22178 1.08046
 C1377 C 0.56823 0.21323 1.06769
 C1378 C 0.57369 0.18782 1.06595
 C1379 C 0.59724 0.17979 1.05747
 C1380 C 0.61572 0.19715 1.05019
 C1381 C 0.60953 0.22251 1.05075
 C1382 C 0.58615 0.23046 1.05932
 C1383 C 0.64168 0.19019 1.04243
 C1384 C 0.65056 0.16576 1.04013
 H1385 H 0.52781 0.21178 1.07804
 H1386 H 0.56014 0.17421 1.07228
 H1387 H 0.60080 0.16006 1.05737
 H1388 H 0.62307 0.23638 1.04502
 H1389 H 0.58228 0.25020 1.05998
 H1390 H 0.65413 0.20543 1.03835
 H1391 H 0.56542 0.24746 1.10157
 H1392 H 0.63770 0.15081 1.04408
 C1393 C 0.95253 0.24391 0.90624
 C1394 C 0.95439 0.22282 0.92137
 C1395 C 0.93080 0.21035 0.92910
 C1396 C 0.92606 0.20316 0.95387
 C1397 C 0.90243 0.19393 0.96101
 C1398 C 0.88341 0.19146 0.94330
 C1399 C 0.88878 0.19763 0.91844
 C1400 C 0.91205 0.20694 0.91144
 C1401 C 0.85812 0.18163 0.94923
 C1402 C 0.84642 0.18225 0.97272
 H1403 H 0.97226 0.21489 0.92635
 H1404 H 0.94033 0.20536 0.96774
 H1405 H 0.89922 0.18863 0.98022
 H1406 H 0.87471 0.19563 0.90431
 H1407 H 0.91531 0.21184 0.89210
 H1408 H 0.84786 0.17520 0.93346
 H1409 H 0.93389 0.25160 0.90412
 H1410 H 0.85629 0.19109 0.98764
 C1411 C 0.44649 0.73994 0.40461
 C1412 C 0.44715 0.71856 0.41945
 C1413 C 0.42317 0.70720 0.42742
 C1414 C 0.41959 0.69789 0.45166
 C1415 C 0.39604 0.68905 0.45935
 C1416 C 0.37596 0.68912 0.44267
 C1417 C 0.38006 0.69743 0.41821
 C1418 C 0.40329 0.70632 0.41066
 C1419 C 0.35084 0.67951 0.44914
 C1420 C 0.34068 0.67823 0.47326
 H1421 H 0.46460 0.71012 0.42501
 H1422 H 0.43479 0.69800 0.46474
 H1423 H 0.39373 0.68196 0.47812
 H1424 H 0.36509 0.69728 0.40484
 H1425 H 0.40568 0.71263 0.39161
 H1426 H 0.33952 0.67478 0.43348
 H1427 H 0.42839 0.74868 0.40211
 H1428 H 0.35142 0.68591 0.48824
 C1429 C 0.52985 0.76565 0.40955
 C1430 C 0.54195 0.78815 0.41412
 C1431 C 0.56656 0.79123 0.42597
 C1432 C 0.57710 0.81503 0.42515
 C1433 C 0.60058 0.81939 0.43498
 C1434 C 0.61408 0.80010 0.44653
 C1435 C 0.60379 0.77612 0.44706
 C1436 C 0.58021 0.77166 0.43691
 C1437 C 0.63902 0.80450 0.45753
 C1438 C 0.64626 0.82808 0.46552
 H1439 H 0.53320 0.80518 0.40779
 H1440 H 0.56729 0.83038 0.41640
 H1441 H 0.60814 0.83787 0.43290
 H1442 H 0.61395 0.76083 0.45548
 H1443 H 0.57289 0.75301 0.43771
 H1444 H 0.65141 0.78873 0.45946
 H1445 H 0.53596 0.74875 0.41867
 H1446 H 0.63253 0.84284 0.46446
 C1447 C 0.03313 0.28002 -0.09671
 C1448 C 0.04622 0.26553 -0.07955
 C1449 C 0.06820 0.27641 -0.06717
 C1450 C 0.09066 0.26300 -0.06553
 C1451 C 0.11248 0.27454 -0.05728
 C1452 C 0.11204 0.29965 -0.05014
 C1453 C 0.08922 0.31257 -0.05074
 C1454 C 0.06757 0.30110 -0.05896
 C1455 C 0.13477 0.31363 -0.04316
 C1456 C 0.15722 0.30274 -0.03515
 H1457 H 0.04240 0.24592 -0.07742
 H1458 H 0.09160 0.24399 -0.07182
 H1459 H 0.12970 0.26400 -0.05754
 H1460 H 0.08820 0.33184 -0.04524
 H1461 H 0.05040 0.31179 -0.05948
 H1462 H 0.13285 0.33357 -0.04365
 H1463 H 0.03981 0.29878 -0.09993
 H1464 H 0.15812 0.28269 -0.03396
 C1465 C 0.46653 0.27688 0.09527
 C1466 C 0.45050 0.26112 0.08270
 C1467 C 0.42548 0.27066 0.07530
 C1468 C 0.41424 0.26323 0.05317
 C1469 C 0.39126 0.27363 0.04583
 C1470 C 0.37899 0.29141 0.06078
 C1471 C 0.38995 0.29792 0.08333
 C1472 C 0.41266 0.28762 0.09056
 C1473 C 0.35526 0.30429 0.05401
 C1474 C 0.34093 0.29967 0.03287
 H1475 H 0.45522 0.24181 0.07980
 H1476 H 0.42355 0.24992 0.04125
 H1477 H 0.38359 0.26791 0.02835
 H1478 H 0.38101 0.31130 0.09545
 H1479 H 0.42020 0.29307 0.10825
 H1480 H 0.34930 0.31852 0.06672
 H1481 H 0.46126 0.29634 0.09587
 H1482 H 0.34720 0.28525 0.02043
 C1483 C 0.96050 0.77937 0.59717
 C1484 C 0.94387 0.76428 0.58454
 C1485 C 0.91916 0.77436 0.57711
 C1486 C 0.90700 0.76552 0.55602
 C1487 C 0.88381 0.77552 0.54894
 C1488 C 0.87236 0.79440 0.56310
 C1489 C 0.88435 0.80257 0.58451
 C1490 C 0.90723 0.79261 0.59153
 C1491 C 0.84796 0.80610 0.55708
 C1492 C 0.83455 0.80278 0.53513
 H1493 H 0.94812 0.74495 0.58119
 H1494 H 0.91558 0.75113 0.54486
 H1495 H 0.87508 0.76830 0.53256
 H1496 H 0.87597 0.81682 0.59601
 H1497 H 0.91536 0.79913 0.60855
 H1498 H 0.84111 0.81900 0.57074
 H1499 H 0.95613 0.79900 0.59817
 H1500 H 0.84243 0.79079 0.52107
   
