data_POSCAR
  _audit_creation_date              2014-09-24
  _audit_creation_method            'ToBaCCo'
  _symmetry_space_group_name_H-M    'P1'
  _symmetry_Int_Tables_number       1
  _symmetry_cell_setting            triclinic
  loop_
  _symmetry_equiv_pos_as_xyz
 x,y,z
_cell_length_a 72.9188
_cell_length_b 73.3424
_cell_length_c 74.0891
_cell_angle_alpha 89.650500
_cell_angle_beta 89.111100
_cell_angle_gamma 88.225500
loop_
  _atom_site_label
  _atom_site_type_symbol
  _atom_site_fract_x
  _atom_site_fract_y
  _atom_site_fract_z
C1 C 0.30005 0.43968 0.91627
 C2 C 0.29752 0.42853 0.93142
 C3 C 0.30973 0.42891 0.94535
 C4 C 0.32465 0.44038 0.94438
 C5 C 0.32744 0.45141 0.92942
 C6 C 0.31484 0.45108 0.91504
 C7 C 0.29071 0.44093 0.90043
 N8 N 0.29925 0.45279 0.88923
 C9 C 0.31401 0.45919 0.89807
 C10 C 0.34397 0.45980 0.93212
 N11 N 0.35111 0.45398 0.94822
 C12 C 0.33916 0.44208 0.95565
 C13 C 0.30534 0.41520 0.95719
 N14 N 0.29081 0.40630 0.95068
 C15 C 0.28584 0.41451 0.93491
 H16 H 0.27849 0.43361 0.89742
 H17 H 0.32368 0.46865 0.89241
 H18 H 0.35054 0.46906 0.92279
 H19 H 0.34076 0.43468 0.96819
 H20 H 0.31298 0.41118 0.96906
 H21 H 0.27545 0.40991 0.92589
 C22 C 0.45411 0.80388 0.46579
 C23 C 0.44297 0.78861 0.46670
 C24 C 0.44538 0.77481 0.45421
 C25 C 0.45866 0.77618 0.44054
 C26 C 0.46942 0.79136 0.43932
 C27 C 0.46722 0.80529 0.45219
 C28 C 0.45362 0.82005 0.47509
 N29 N 0.46620 0.83136 0.46762
 C30 C 0.47447 0.82236 0.45350
 C31 C 0.47853 0.79043 0.42288
 N32 N 0.47352 0.77509 0.41425
 C33 C 0.46142 0.76632 0.42505
 C34 C 0.43087 0.76341 0.45612
 N35 N 0.41952 0.76999 0.46938
 C36 C 0.42689 0.78535 0.47601
 H37 H 0.44427 0.82327 0.48614
 H38 H 0.48474 0.82796 0.44451
 H39 H 0.48710 0.80081 0.41707
 H40 H 0.45379 0.75454 0.42129
 H41 H 0.42790 0.75230 0.44718
 H42 H 0.42023 0.79437 0.48578
 C43 C 0.94094 0.93301 0.80009
 C44 C 0.92814 0.94753 0.79797
 C45 C 0.92880 0.96253 0.80905
 C46 C 0.94196 0.96323 0.82246
 C47 C 0.95441 0.94891 0.82488
 C48 C 0.95398 0.93364 0.81346
 C49 C 0.94287 0.91623 0.79196
 N50 N 0.95678 0.90652 0.79993
 C51 C 0.96358 0.91715 0.81319
 C52 C 0.96393 0.95266 0.84035
 N53 N 0.95738 0.96883 0.84731
 C54 C 0.94399 0.97533 0.83620
 C55 C 0.91364 0.97347 0.80574
 N56 N 0.90355 0.96549 0.79293
 C57 C 0.91239 0.94963 0.78801
 H58 H 0.93447 0.91134 0.78119
 H59 H 0.97450 0.91333 0.82229
 H60 H 0.97424 0.94381 0.84653
 H61 H 0.93544 0.98746 0.83823
 H62 H 0.90970 0.98563 0.81321
 H63 H 0.90718 0.93979 0.77871
 C64 C 0.43858 -0.07128 0.30168
 C65 C 0.42367 -0.05847 0.30210
 C66 C 0.42442 -0.04341 0.31324
 C67 C 0.43957 -0.04088 0.32412
 C68 C 0.45406 -0.05334 0.32372
 C69 C 0.45361 -0.06850 0.31240
 C70 C 0.44152 -0.08823 0.29376
 N71 N 0.45787 -0.09564 0.29951
 C72 C 0.46519 -0.08347 0.31095
 C73 C 0.46521 -0.04936 0.33785
 N74 N 0.45767 -0.03490 0.34698
 C75 C 0.44204 -0.02949 0.33849
 C76 C 0.40791 -0.03413 0.31255
 N77 N 0.39678 -0.04299 0.30130
 C78 C 0.40630 -0.05788 0.29472
 H79 H 0.43214 -0.09489 0.28494
 H80 H 0.47776 -0.08528 0.31834
 H81 H 0.47700 -0.05749 0.34217
 H82 H 0.43212 -0.01936 0.34341
 H83 H 0.40435 -0.02183 0.31996
 H84 H 0.40079 -0.06788 0.28575
 C85 C 0.80005 0.31263 0.32818
 C86 C 0.79994 0.32548 0.31423
 C87 C 0.81495 0.32699 0.30277
 C88 C 0.83040 0.31524 0.30512
 C89 C 0.83043 0.30239 0.31893
 C90 C 0.81512 0.30111 0.33064
 C91 C 0.78762 0.30930 0.34179
 N92 N 0.79469 0.29600 0.35270
 C93 C 0.81150 0.29078 0.34589
 C94 C 0.84721 0.29330 0.31833
 N95 N 0.85747 0.30015 0.30447
 C96 C 0.84726 0.31367 0.29641
 C97 C 0.81116 0.34167 0.29148
 N98 N 0.79425 0.34891 0.29590
 C99 C 0.78740 0.33899 0.30983
 H100 H 0.77443 0.31627 0.34359
 H101 H 0.82065 0.28064 0.35191
 H102 H 0.85153 0.28261 0.32757
 H103 H 0.85177 0.32179 0.28502
 H104 H 0.82028 0.34706 0.28123
 H105 H 0.77462 0.34182 0.31702
 C106 C -0.21040 0.80880 0.78447
 C107 C -0.19736 0.79433 0.78350
 C108 C -0.19890 0.77952 0.79500
 C109 C -0.21324 0.77903 0.80774
 C110 C -0.22596 0.79331 0.80883
 C111 C -0.22463 0.80821 0.79699
 C112 C -0.21108 0.82592 0.77671
 N113 N -0.22540 0.83575 0.78415
 C114 C -0.23372 0.82489 0.79661
 C115 C -0.23595 0.79093 0.82453
 N116 N -0.22947 0.77565 0.83314
 C117 C -0.21571 0.76816 0.82270
 C118 C -0.18299 0.76914 0.79340
 N119 N -0.17168 0.77724 0.78124
 C120 C -0.18042 0.79264 0.77507
 H121 H -0.20136 0.83105 0.76687
 H122 H -0.24498 0.82884 0.80554
 H123 H -0.24617 0.80050 0.83000
 H124 H -0.20681 0.75670 0.82632
 H125 H -0.17943 0.75747 0.80176
 H126 H -0.17435 0.80260 0.76614
 C127 C 0.94508 0.33302 0.43555
 C128 C 0.94537 0.31896 0.42278
 C129 C 0.93283 0.30529 0.42417
 C130 C 0.91986 0.30542 0.43824
 C131 C 0.91944 0.31927 0.45081
 C132 C 0.93220 0.33321 0.44945
 C133 C 0.95510 0.34851 0.43708
 N134 N 0.94865 0.35823 0.45160
 C135 C 0.93461 0.34886 0.45919
 C136 C 0.90462 0.31638 0.46215
 N137 N 0.89612 0.30112 0.45667
 C138 C 0.90545 0.29439 0.44207
 C139 C 0.93544 0.29410 0.40952
 N140 N 0.94928 0.30066 0.39911
 C141 C 0.95550 0.31583 0.40721
 H142 H 0.96603 0.35234 0.42794
 H143 H 0.92649 0.35322 0.47085
 H144 H 0.90019 0.32513 0.47317
 H145 H 0.90171 0.28256 0.43443
 H146 H 0.92757 0.28224 0.40665
 H147 H 0.96623 0.32429 0.40186
 C148 C 0.46101 0.44612 0.81522
 C149 C 0.45999 0.43091 0.80392
 C150 C 0.44817 0.43131 0.78945
 C151 C 0.43728 0.44712 0.78605
 C152 C 0.43869 0.46216 0.79705
 C153 C 0.45051 0.46162 0.81168
 C154 C 0.46908 0.44865 0.83166
 N155 N 0.46352 0.46526 0.83825
 C156 C 0.45226 0.47332 0.82588
 C157 C 0.42513 0.47458 0.79248
 N158 N 0.41523 0.46757 0.77897
 C159 C 0.42261 0.45078 0.77489
 C160 C 0.44905 0.41413 0.78189
 N161 N 0.46121 0.40345 0.79128
 C162 C 0.46778 0.41365 0.80489
 H163 H 0.47751 0.43863 0.83879
 H164 H 0.44479 0.48619 0.82737
 H165 H 0.42184 0.48706 0.79968
 H166 H 0.41693 0.44138 0.76541
 H167 H 0.44127 0.40969 0.77048
 H168 H 0.47721 0.40889 0.81513
 C169 C 0.80399 0.92164 0.93067
 C170 C 0.80569 0.93413 0.91631
 C171 C 0.81976 0.94644 0.91619
 C172 C 0.83237 0.94639 0.93041
 C173 C 0.83056 0.93408 0.94441
 C174 C 0.81637 0.92173 0.94455
 C175 C 0.79229 0.90756 0.93425
 N176 N 0.79741 0.89912 0.94993
 C177 C 0.81215 0.90791 0.95626
 C178 C 0.84474 0.93641 0.95603
 N179 N 0.85540 0.94997 0.94959
 C180 C 0.84783 0.95618 0.93387
 C181 C 0.81827 0.95648 0.90047
 N182 N 0.80367 0.95065 0.89104
 C183 C 0.79597 0.93694 0.90068
 H184 H 0.78115 0.90352 0.92580
 H185 H 0.81973 0.90452 0.96829
 H186 H 0.84694 0.92850 0.96820
 H187 H 0.85330 0.96686 0.92538
 H188 H 0.82745 0.96703 0.89623
 H189 H 0.78419 0.92944 0.89657
 C190 C 0.29450 0.81676 0.30726
 C191 C 0.29575 0.80521 0.32237
 C192 C 0.30949 0.79178 0.32326
 C193 C 0.32218 0.78969 0.30879
 C194 C 0.32050 0.80088 0.29377
 C195 C 0.30673 0.81449 0.29305
 C196 C 0.28455 0.83268 0.30405
 N197 N 0.29065 0.84023 0.28830
 C198 C 0.30410 0.82892 0.28140
 C199 C 0.33545 0.79761 0.28276
 N200 N 0.34646 0.78470 0.29058
 C201 C 0.33850 0.77976 0.30657
 C202 C 0.30801 0.78376 0.34013
 N203 N 0.29372 0.79193 0.34936
 C204 C 0.28627 0.80514 0.33852
 H205 H 0.27448 0.83891 0.31318
 H206 H 0.31250 0.83148 0.26957
 H207 H 0.33870 0.80521 0.27063
 H208 H 0.34461 0.77042 0.31629
 H209 H 0.31688 0.77294 0.34540
 H210 H 0.27486 0.81428 0.34197
 C211 C 0.79971 0.41380 0.43530
 C212 C 0.80027 0.42815 0.42250
 C213 C 0.81059 0.44331 0.42595
 C214 C 0.82037 0.44447 0.44206
 C215 C 0.81953 0.43057 0.45456
 C216 C 0.80930 0.41527 0.45116
 C217 C 0.79238 0.39655 0.43551
 N218 N 0.79770 0.38778 0.45094
 C219 C 0.80787 0.39929 0.46056
 C220 C 0.83151 0.43418 0.46805
 N221 N 0.84002 0.44998 0.46405
 C222 C 0.83309 0.45645 0.44817
 C223 C 0.80953 0.45457 0.41113
 N224 N 0.79882 0.44685 0.39859
 C225 C 0.79308 0.43067 0.40546
 H226 H 0.78448 0.39057 0.42494
 H227 H 0.81408 0.39623 0.47344
 H228 H 0.83445 0.42514 0.47927
 H229 H 0.83765 0.46847 0.44106
 H230 H 0.81608 0.46754 0.40979
 H231 H 0.78452 0.42130 0.39846
 C232 C 0.92045 0.84305 -0.05136
 C233 C 0.90690 0.82994 -0.05265
 C234 C 0.90722 0.81784 -0.06691
 C235 C 0.92122 0.81872 -0.08015
 C236 C 0.93456 0.83162 -0.07881
 C237 C 0.93418 0.84384 -0.06434
 C238 C 0.92325 0.85692 -0.03931
 N239 N 0.93836 0.86611 -0.04471
 C240 C 0.94510 0.85809 -0.06002
 C241 C 0.94609 0.82973 -0.09355
 N242 N 0.94019 0.81594 -0.10401
 C243 C 0.92495 0.80915 -0.09582
 C244 C 0.89211 0.80705 -0.06479
 N245 N 0.88267 0.81229 -0.04959
 C246 C 0.89170 0.82634 -0.04217
 H247 H 0.91469 0.86005 -0.02762
 H248 H 0.95694 0.86253 -0.06768
 H249 H 0.95778 0.83807 -0.09629
 H250 H 0.91699 0.79814 -0.10094
 H251 H 0.88819 0.79629 -0.07375
 H252 H 0.88754 0.83378 -0.03017
 C253 C 0.29223 0.32789 0.81369
 C254 C 0.29496 0.31646 0.82868
 C255 C 0.30971 0.30409 0.82909
 C256 C 0.32202 0.30301 0.81419
 C257 C 0.31903 0.31425 0.79938
 C258 C 0.30416 0.32670 0.79914
 C259 C 0.28077 0.34290 0.81085
 N260 N 0.28564 0.35088 0.79492
 C261 C 0.29986 0.34088 0.78765
 C262 C 0.33355 0.31182 0.78764
 N263 N 0.34562 0.29943 0.79479
 C264 C 0.33863 0.29381 0.81100
 C265 C 0.30938 0.29598 0.84602
 N266 N 0.29489 0.30320 0.85571
 C267 C 0.28606 0.31570 0.84507
 H268 H 0.27069 0.34831 0.82042
 H269 H 0.30741 0.34443 0.77550
 H270 H 0.33522 0.31893 0.77492
 H271 H 0.34549 0.28436 0.82013
 H272 H 0.31923 0.28592 0.85107
 H273 H 0.27403 0.32387 0.84882
 C274 C 0.16645 0.56118 0.54147
 C275 C 0.18114 0.57311 0.54113
 C276 C 0.19500 0.57109 0.55357
 C277 C 0.19440 0.55704 0.56647
 C278 C 0.17996 0.54526 0.56677
 C279 C 0.16591 0.54736 0.55420
 C280 C 0.15030 0.56091 0.53212
 N281 N 0.13995 0.54726 0.53891
 C282 C 0.14949 0.53892 0.55241
 C283 C 0.18201 0.53412 0.58164
 N284 N 0.19736 0.53886 0.59043
 C285 C 0.20501 0.55285 0.58117
 C286 C 0.20654 0.58544 0.55103
 N287 N 0.20009 0.59605 0.53730
 C288 C 0.18449 0.58859 0.53122
 H289 H 0.14625 0.57047 0.52165
 H290 H 0.14454 0.52790 0.56078
 H291 H 0.17247 0.52396 0.58606
 H292 H 0.21703 0.55998 0.58526
 H293 H 0.21851 0.58821 0.55892
 H294 H 0.17567 0.59433 0.52091
 C295 C 0.55934 0.68947 0.04587
 C296 C 0.54499 0.67729 0.04579
 C297 C 0.53337 0.67602 0.06057
 C298 C 0.53594 0.68702 0.07566
 C299 C 0.55015 0.69912 0.07583
 C300 C 0.56206 0.70032 0.06073
 C301 C 0.57352 0.69204 0.03390
 N302 N 0.58508 0.70416 0.04101
 C303 C 0.57811 0.70941 0.05740
 C304 C 0.54991 0.70694 0.09275
 N305 N 0.53601 0.69981 0.10275
 C306 C 0.52743 0.68762 0.09230
 C307 C 0.52232 0.66146 0.05769
 N308 N 0.52712 0.65383 0.04154
 C309 C 0.54093 0.66353 0.03417
 H310 H 0.57532 0.68517 0.02110
 H311 H 0.58462 0.71858 0.06655
 H312 H 0.55944 0.71677 0.09757
 H313 H 0.51587 0.67961 0.09639
 H314 H 0.51260 0.65604 0.06734
 H315 H 0.54830 0.66010 0.02179
 C316 C 0.69387 0.20642 0.68168
 C317 C 0.68106 0.20496 0.69583
 C318 C 0.68214 0.19033 0.70767
 C319 C 0.69619 0.17696 0.70552
 C320 C 0.70890 0.17844 0.69158
 C321 C 0.70771 0.19328 0.67957
 C322 C 0.69456 0.21783 0.66689
 N323 N 0.70846 0.21189 0.65577
 C324 C 0.71663 0.19694 0.66353
 C325 C 0.71959 0.16264 0.69149
 N326 N 0.71371 0.15157 0.70506
 C327 C 0.69938 0.16027 0.71366
 C328 C 0.66661 0.19124 0.71849
 N329 N 0.65615 0.20605 0.71346
 C330 C 0.66497 0.21449 0.69963
 H331 H 0.68501 0.22904 0.66416
 H332 H 0.72757 0.18866 0.65744
 H333 H 0.73019 0.15920 0.68161
 H334 H 0.69133 0.15454 0.72459
 H335 H 0.66281 0.18116 0.72847
 H336 H 0.65960 0.22618 0.69219
 C337 C 1.06580 0.06656 0.20258
 C338 C 1.05169 0.07966 0.20047
 C339 C 1.04028 0.07913 0.18582
 C340 C 1.04274 0.06513 0.17312
 C341 C 1.05670 0.05205 0.17514
 C342 C 1.06843 0.05280 0.19006
 C343 C 1.07979 0.06517 0.21471
 N344 N 1.09107 0.05088 0.20998
 C345 C 1.08415 0.04310 0.19498
 C346 C 1.05649 0.04102 0.16012
 N347 N 1.04273 0.04706 0.14907
 C348 C 1.03434 0.06181 0.15706
 C349 C 1.02926 0.09479 0.18631
 N350 N 1.03386 0.10470 0.20096
 C351 C 1.04746 0.09538 0.20968
 H352 H 1.08173 0.07419 0.22597
 H353 H 1.09052 0.03173 0.18775
 H354 H 1.06600 0.02971 0.15750
 H355 H 1.02312 0.06990 0.15141
 H356 H 1.01929 0.09890 0.17631
 H357 H 1.05453 0.10020 0.22140
 C358 C 0.06849 0.17998 1.04800
 C359 C 0.08348 0.19106 1.05027
 C360 C 0.08453 0.20206 1.06526
 C361 C 0.07023 0.20205 1.07831
 C362 C 0.05542 0.19091 1.07609
 C363 C 0.05456 0.17972 1.06078
 C364 C 0.06504 0.16710 1.03529
 N365 N 0.04926 0.15875 1.03992
 C366 C 0.04272 0.16645 1.05552
 C367 C 0.04416 0.19303 1.09107
 N368 N 0.05160 0.20528 1.10243
 C369 C 0.06758 0.21080 1.09462
 C370 C 0.10131 0.21037 1.06407
 N371 N 0.11030 0.20443 1.04884
 C372 C 0.09932 0.19273 1.04033
 H373 H 0.07403 0.16360 1.02402
 H374 H 0.03064 0.16221 1.06291
 H375 H 0.03154 0.18596 1.09332
 H376 H 0.07682 0.22033 1.10048
 H377 H 0.10679 0.21960 1.07382
 H378 H 0.10253 0.18574 1.02781
 C379 C 0.17302 0.71264 0.69443
 C380 C 0.18602 0.71200 0.68036
 C381 C 0.19850 0.69750 0.67907
 C382 C 0.19813 0.68339 0.69196
 C383 C 0.18521 0.68400 0.70584
 C384 C 0.17250 0.69874 0.70707
 C385 C 0.15818 0.72416 0.69769
 N386 N 0.14850 0.71764 0.71204
 C387 C 0.15721 0.70208 0.71787
 C388 C 0.18713 0.66796 0.71544
 N389 N 0.20095 0.65760 0.70779
 C390 C 0.20769 0.66698 0.69339
 C391 C 0.20826 0.69977 0.66320
 N392 N 0.20191 0.71522 0.65481
 C393 C 0.18832 0.72280 0.66534
 H394 H 0.15423 0.73576 0.68939
 H395 H 0.15230 0.69334 0.72862
 H396 H 0.17865 0.66408 0.72683
 H397 H 0.21849 0.66203 0.68431
 H398 H 0.21870 0.69043 0.65778
 H399 H 0.18020 0.73495 0.66220
 C400 C 1.20583 0.18076 0.21074
 C401 C 1.19297 0.19550 0.21021
 C402 C 1.19567 0.20975 0.19823
 C403 C 1.21096 0.20951 0.18658
 C404 C 1.22361 0.19520 0.18723
 C405 C 1.22107 0.18081 0.19937
 C406 C 1.20593 0.16387 0.21912
 N407 N 1.22080 0.15386 0.21307
 C408 C 1.23005 0.16423 0.20096
 C409 C 1.23541 0.19703 0.17274
 N410 N 1.23001 0.21202 0.16303
 C411 C 1.21517 0.21984 0.17164
 C412 C 1.18044 0.22117 0.19912
 N413 N 1.16841 0.21442 0.21144
 C414 C 1.17595 0.19864 0.21824
 H415 H 1.19547 0.15893 0.22830
 H416 H 1.24185 0.15981 0.19293
 H417 H 1.24603 0.18714 0.16890
 H418 H 1.20714 0.23144 0.16668
 H419 H 1.17818 0.23312 0.19074
 H420 H 1.16928 0.18978 0.22788
 C421 C 0.68782 1.02719 0.54770
 C422 C 0.70145 1.02784 0.56067
 C423 C 0.71209 1.04303 0.56207
 C424 C 0.70940 1.05775 0.55001
 C425 C 0.69590 1.05702 0.53712
 C426 C 0.68489 1.04169 0.53606
 C427 C 0.67377 1.01540 0.54561
 N428 N 0.66218 1.02238 0.53300
 C429 C 0.66894 1.03846 0.52702
 C430 C 0.69530 1.07356 0.52831
 N431 N 0.70821 1.08445 0.53533
 C432 C 0.71679 1.07481 0.54872
 C433 C 0.72196 1.04090 0.57775
 N434 N 0.71748 1.02482 0.58570
 C435 C 0.70499 1.01680 0.57523
 H436 H 0.67142 1.00346 0.55387
 H437 H 0.66207 1.04774 0.51772
 H438 H 0.68582 1.07721 0.51772
 H439 H 0.72747 1.07990 0.55716
 H440 H 0.73076 1.05085 0.58356
 H441 H 0.69768 1.00461 0.57868
 C442 C 0.56197 0.55522 0.16257
 C443 C 0.57585 0.55294 0.17548
 C444 C 0.57589 0.56422 0.19040
 C445 C 0.56218 0.57788 0.19269
 C446 C 0.54858 0.58002 0.18004
 C447 C 0.54851 0.56875 0.16489
 C448 C 0.55854 0.54684 0.14639
 N449 N 0.54350 0.55511 0.13888
 C450 C 0.53728 0.56850 0.15018
 C451 C 0.53764 0.59470 0.18513
 N452 N 0.54425 0.60164 0.20061
 C453 C 0.55934 0.59146 0.20531
 C454 C 0.59114 0.55949 0.20024
 N455 N 0.60052 0.54565 0.19174
 C456 C 0.59122 0.54153 0.17655
 H457 H 0.56660 0.53577 0.14035
 H458 H 0.52540 0.57740 0.14798
 H459 H 0.52621 0.60035 0.17757
 H460 H 0.56785 0.59401 0.21681
 H461 H 0.59530 0.56593 0.21257
 H462 H 0.59531 0.53120 0.16682
 C463 C 0.68558 0.69663 0.19953
 C464 C 0.69888 0.68232 0.20045
 C465 C 0.71234 0.68071 0.18707
 C466 C 0.71266 0.69313 0.17261
 C467 C 0.69971 0.70721 0.17194
 C468 C 0.68618 0.70897 0.18538
 C469 C 0.66977 0.70085 0.20936
 N470 N 0.66087 0.71528 0.20132
 C471 C 0.67097 0.72034 0.18671
 C472 C 0.70188 0.71600 0.15574
 N473 N 0.71576 0.70758 0.14630
 C474 C 0.72256 0.69357 0.15659
 C475 C 0.72254 0.66510 0.19055
 N476 N 0.71582 0.65710 0.20577
 C477 C 0.70121 0.66746 0.21183
 H478 H 0.66469 0.69344 0.22099
 H479 H 0.66740 0.73119 0.17734
 H480 H 0.69322 0.72713 0.15075
 H481 H 0.73317 0.68377 0.15247
 H482 H 0.73361 0.65966 0.18211
 H483 H 0.69270 0.66424 0.22345
 C484 C 0.16870 0.07278 1.05958
 C485 C 0.18189 0.08644 1.05875
 C486 C 0.19616 0.08615 1.07090
 C487 C 0.19751 0.07225 1.08400
 C488 C 0.18461 0.05888 1.08467
 C489 C 0.17019 0.05916 1.07249
 C490 C 0.15283 0.06974 1.05024
 N491 N 0.14474 0.05473 1.05733
 C492 C 0.15542 0.04819 1.07090
 C493 C 0.18855 0.04774 1.09912
 N494 N 0.20355 0.05397 1.10744
 C495 C 0.20917 0.06899 1.09822
 C496 C 0.20642 0.10126 1.06739
 N497 N 0.19887 0.11077 1.05340
 C498 C 0.18380 0.10177 1.04807
 H499 H 0.14736 0.07806 1.03934
 H500 H 0.15276 0.03634 1.07917
 H501 H 0.18069 0.03623 1.10359
 H502 H 0.22049 0.07737 1.10181
 H503 H 0.21846 0.10513 1.07465
 H504 H 0.17465 0.10602 1.03740
 C505 C 0.57297 0.18757 0.55848
 C506 C 0.55893 0.18784 0.57182
 C507 C 0.54437 0.17621 0.57035
 C508 C 0.54350 0.16430 0.55564
 C509 C 0.55706 0.16441 0.54249
 C510 C 0.57181 0.17595 0.54395
 C511 C 0.58981 0.19573 0.55683
 N512 N 0.59871 0.18907 0.54183
 C513 C 0.58760 0.17711 0.53387
 C514 C 0.55403 0.15041 0.53085
 N515 N 0.53894 0.14156 0.53660
 C516 C 0.53236 0.14998 0.55179
 C517 C 0.53344 0.17848 0.58549
 N518 N 0.54081 0.19124 0.59621
 C519 C 0.55641 0.19705 0.58794
 H520 H 0.59548 0.20519 0.56625
 H521 H 0.59076 0.16944 0.52174
 H522 H 0.56310 0.14617 0.51986
 H523 H 0.52098 0.14538 0.56000
 H524 H 0.52097 0.17133 0.58832
 H525 H 0.56545 0.20698 0.59341
 C526 C 0.07161 0.56435 0.70771
 C527 C 0.05558 0.57543 0.70779
 C528 C 0.04174 0.57204 0.69587
 C529 C 0.04365 0.55754 0.68373
 C530 C 0.05945 0.54663 0.68348
 C531 C 0.07356 0.55007 0.69563
 C532 C 0.08782 0.56530 0.71691
 N533 N 0.09961 0.55192 0.71077
 C534 C 0.09095 0.54260 0.69773
 C535 C 0.05809 0.53482 0.66915
 N536 N 0.04185 0.53838 0.66077
 C537 C 0.03300 0.55224 0.66972
 C538 C 0.02868 0.58586 0.69767
 N539 N 0.03428 0.59766 0.71038
 C540 C 0.05067 0.59127 0.71672
 H541 H 0.09085 0.57540 0.72692
 H542 H 0.09702 0.53140 0.69001
 H543 H 0.06853 0.52492 0.66484
 H544 H 0.02003 0.55858 0.66585
 H545 H 0.01634 0.58739 0.68982
 H546 H 0.05889 0.59815 0.72648
 C547 C 0.67215 0.55164 0.06543
 C548 C 0.68627 0.55105 0.07790
 C549 C 0.69862 0.56486 0.07844
 C550 C 0.69710 0.57945 0.06617
 C551 C 0.68316 0.58010 0.05362
 C552 C 0.67042 0.56596 0.05327
 C553 C 0.65775 0.54041 0.06314
 N554 N 0.64700 0.54738 0.04987
 C555 C 0.65469 0.56295 0.04357
 C556 C 0.68490 0.59627 0.04411
 N557 N 0.69949 0.60530 0.05056
 C558 C 0.70690 0.59501 0.06411
 C559 C 0.70980 0.56132 0.09299
 N560 N 0.70445 0.54564 0.10113
 C561 C 0.69004 0.53933 0.09191
 H562 H 0.65529 0.52805 0.07073
 H563 H 0.64896 0.57171 0.03314
 H564 H 0.67607 0.60119 0.03341
 H565 H 0.71847 0.59850 0.07220
 H566 H 0.72058 0.56986 0.09770
 H567 H 0.68209 0.52764 0.09564
 C568 C 0.07314 0.69421 0.58469
 C569 C 0.08635 0.69175 0.57084
 C570 C 0.08369 0.67910 0.55751
 C571 C 0.06788 0.66889 0.55764
 C572 C 0.05481 0.67108 0.57123
 C573 C 0.05749 0.68393 0.58494
 C574 C 0.07234 0.70523 0.59967
 N575 N 0.05661 0.70197 0.60913
 C576 C 0.04748 0.68896 0.60016
 C577 C 0.04143 0.65858 0.56797
 N578 N 0.04617 0.64915 0.55272
 C579 C 0.06239 0.65542 0.54646
 C580 C 0.09867 0.67911 0.54607
 N581 N 0.11049 0.69154 0.55208
 C582 C 0.10303 0.69942 0.56718
 H583 H 0.08262 0.71480 0.60332
 H584 H 0.03453 0.68340 0.60448
 H585 H 0.02932 0.65631 0.57623
 H586 H 0.07017 0.65014 0.53499
 H587 H 0.10063 0.67080 0.53413
 H588 H 0.10936 0.70986 0.57503
 C589 C 0.55252 1.03982 0.67600
 C590 C 0.56641 1.04144 0.68892
 C591 C 0.56522 1.05553 0.70129
 C592 C 0.55050 1.06822 0.70090
 C593 C 0.53686 1.06648 0.68847
 C594 C 0.53780 1.05217 0.67610
 C595 C 0.55057 1.02896 0.66096
 N596 N 0.53501 1.03447 0.65215
 C597 C 0.52721 1.04865 0.66154
 C598 C 0.52556 1.08178 0.68961
 N599 N 0.53219 1.09302 0.70236
 C600 C 0.54736 1.08462 0.70946
 C601 C 0.58084 1.05478 0.71134
 N602 N 0.59165 1.04047 0.70565
 C603 C 0.58299 1.03231 0.69181
 H604 H 0.56014 1.01830 0.65644
 H605 H 0.51530 1.05681 0.65769
 H606 H 0.51418 1.08484 0.68080
 H607 H 0.55618 1.09047 0.71938
 H608 H 0.58421 1.06444 0.72164
 H609 H 0.58849 1.02078 0.68420
 C610 C 0.46769 0.31930 0.93798
 C611 C 0.46895 0.30493 0.92574
 C612 C 0.45561 0.29205 0.92560
 C613 C 0.44088 0.29330 0.93790
 C614 C 0.43942 0.30761 0.95004
 C615 C 0.45302 0.32095 0.94998
 C616 C 0.47783 0.33457 0.93928
 N617 N 0.46987 0.34592 0.95176
 C618 C 0.45462 0.33763 0.95842
 C619 C 0.42285 0.30582 0.95915
 N620 N 0.41439 0.29090 0.95275
 C621 C 0.42542 0.28326 0.93974
 C622 C 0.45864 0.28165 0.91038
 N623 N 0.47343 0.28806 0.90124
 C624 C 0.47990 0.30223 0.91070
 H625 H 0.48961 0.33736 0.93081
 H626 H 0.44499 0.34357 0.96816
 H627 H 0.41716 0.31495 0.96936
 H628 H 0.42253 0.27126 0.93200
 H629 H 0.44980 0.27120 0.90553
 H630 H 0.49060 0.31115 0.90619
 C631 C 0.95358 0.44371 0.33427
 C632 C 0.95399 0.43240 0.31898
 C633 C 0.94090 0.43497 0.30581
 C634 C 0.92725 0.44870 0.30769
 C635 C 0.92685 0.45978 0.32266
 C636 C 0.94011 0.45731 0.33597
 C637 C 0.96361 0.44375 0.34994
 N638 N 0.95648 0.45708 0.36103
 C639 C 0.94212 0.46536 0.35242
 C640 C 0.91116 0.47065 0.32184
 N641 N 0.90196 0.46635 0.30669
 C642 C 0.91181 0.45298 0.29795
 C643 C 0.94359 0.42140 0.29328
 N644 N 0.95802 0.41049 0.29841
 C645 C 0.96448 0.41718 0.31412
 H646 H 0.97491 0.43442 0.35300
 H647 H 0.93337 0.47624 0.35792
 H648 H 0.90649 0.48027 0.33204
 H649 H 0.90763 0.44624 0.28579
 H650 H 0.93518 0.41949 0.28160
 H651 H 0.97560 0.41105 0.32180
 C652 C 0.29887 0.93281 0.42901
 C653 C 0.30030 0.92140 0.44419
 C654 C 0.31514 0.92252 0.45537
 C655 C 0.32879 0.93496 0.45154
 C656 C 0.32757 0.94630 0.43660
 C657 C 0.31233 0.94521 0.42517
 C658 C 0.28654 0.93356 0.41517
 N659 N 0.29200 0.94620 0.40282
 C660 C 0.30779 0.95338 0.40892
 C661 C 0.34367 0.95580 0.43578
 N662 N 0.35451 0.95030 0.44982
 C663 C 0.34533 0.93756 0.45942
 C664 C 0.31421 0.90853 0.46773
 N665 N 0.29913 0.89880 0.46427
 C666 C 0.29050 0.90668 0.44993
 H667 H 0.27471 0.92512 0.41425
 H668 H 0.31574 0.96350 0.40185
 H669 H 0.34730 0.96546 0.42534
 H670 H 0.35049 0.93028 0.47115
 H671 H 0.32455 0.90500 0.47757
 H672 H 0.27860 0.90139 0.44342
 O673 O 0.28083 0.45464 0.73930
 O674 O 0.27680 0.46018 0.70822
 O675 O 0.30806 0.50187 0.75739
 O676 O 0.30269 0.53252 0.75675
 O677 O 0.26159 0.48217 0.78696
 O678 O 0.22864 0.48545 0.78224
 O679 O 0.25602 0.55133 0.71314
 O680 O 0.28741 0.54524 0.71544
 O681 O 0.23261 0.50532 0.69205
 O682 O 0.23470 0.47188 0.69976
 O683 O 0.20938 0.52873 0.73824
 O684 O 0.21810 0.52781 0.77114
 O685 O 0.23464 0.55249 0.73587
 O686 O 0.23650 0.54751 0.76838
 O687 O 0.20912 0.50618 0.71740
 O688 O 0.21552 0.47327 0.71949
 O689 O 0.25436 0.52685 0.69065
 O690 O 0.28752 0.51999 0.69477
 O691 O 0.25939 0.45609 0.76202
 O692 O 0.22757 0.46419 0.76359
 O693 O 0.28354 0.50347 0.78478
 O694 O 0.28063 0.53557 0.77701
 O695 O 0.30616 0.47862 0.73737
 O696 O 0.29812 0.48245 0.70557
 Zr697 Zr 0.27941 0.48090 0.72774
 O698 O 0.26273 0.49716 0.71083
 Zr699 Zr 0.28124 0.51378 0.75837
 O700 O 0.26424 0.53133 0.74284
 Zr701 Zr 0.24879 0.48310 0.76148
 O702 O 0.23049 0.49910 0.74574
 Zr703 Zr 0.26752 0.52481 0.71547
 O704 O 0.28602 0.50853 0.73081
 Zr705 Zr 0.23523 0.49384 0.71815
 O706 O 0.25176 0.47612 0.73403
 Zr707 Zr 0.23636 0.52677 0.74865
 O708 O 0.25348 0.51083 0.76602
 O709 O 0.27628 0.48631 0.75517
 O710 O 0.23974 0.52151 0.72125
 C711 C 0.27170 0.44752 0.75244
 C712 C 0.31497 0.48810 0.74862
 C713 C 0.27478 0.49124 0.79352
 C714 C 0.24320 0.55956 0.72236
 C715 C 0.24115 0.51814 0.68389
 C716 C 0.20145 0.51952 0.72600
 H717 H 0.26530 0.49390 0.69809
 H718 H 0.21774 0.49658 0.74948
 H719 H 0.28439 0.47836 0.76263
 H720 H 0.26738 0.54413 0.74500
 H721 H 0.29919 0.53910 0.71870
 H722 H 0.29837 0.54289 0.74919
 H723 H 0.20833 0.47499 0.73082
 H724 H 0.22677 0.45844 0.75159
 H725 H 0.28681 0.53038 0.68615
 H726 H 0.30700 0.47194 0.70619
 H727 H 0.20972 0.51754 0.77012
 H728 H 0.23021 0.49746 0.78795
 H729 H 0.26460 0.45490 0.71015
 H730 H 0.24469 0.47347 0.69076
 H731 H 0.26899 0.53481 0.78398
 H732 H 0.24823 0.55384 0.76704
 O733 O 0.19216 0.01908 0.25493
 O734 O 0.19949 0.01647 0.28639
 O735 O 0.23984 0.04288 0.23155
 O736 O 0.26994 0.03626 0.22877
 O737 O 0.21624 -0.00528 0.20824
 O738 O 0.21932 -0.03777 0.21654
 O739 O 0.29076 -0.00711 0.27542
 O740 O 0.28510 0.02448 0.27023
 O741 O 0.24633 -0.02677 0.30346
 O742 O 0.21173 -0.02354 0.29891
 O743 O 0.26465 -0.05395 0.25744
 O744 O 0.26125 -0.04751 0.22375
 O745 O 0.28955 -0.02988 0.25475
 O746 O 0.28264 -0.03075 0.22359
 O747 O 0.24381 -0.05205 0.28052
 O748 O 0.21122 -0.04470 0.28165
 O749 O 0.26825 -0.00560 0.30028
 O750 O 0.26169 0.02687 0.29355
 O751 O 0.19189 -0.00460 0.23519
 O752 O 0.19882 -0.03609 0.23656
 O753 O 0.23780 0.01645 0.20647
 O754 O 0.27070 0.01282 0.21113
 O755 O 0.21745 0.04350 0.25331
 O756 O 0.22212 0.03756 0.28530
 Zr757 Zr 0.21923 0.01746 0.26513
 O758 O 0.23672 0.00202 0.28223
 Zr759 Zr 0.25034 0.01572 0.23170
 O760 O 0.26870 -0.00033 0.24714
 Zr761 Zr 0.21866 -0.01572 0.23483
 O762 O 0.23528 -0.03289 0.25106
 Zr763 Zr 0.26429 0.00536 0.27454
 O764 O 0.24702 0.02280 0.25901
 Zr765 Zr 0.23232 -0.02572 0.27849
 O766 O 0.21364 -0.01034 0.26240
 Zr767 Zr 0.26285 -0.02813 0.24467
 O768 O 0.24614 -0.01217 0.22711
 O769 O 0.22287 0.01195 0.23781
 O770 O 0.25988 -0.02244 0.27206
 C771 C 0.18412 0.00897 0.24344
 C772 C 0.22698 0.05106 0.24080
 C773 C 0.22490 0.00728 0.19973
 C774 C 0.29793 -0.02076 0.26665
 C775 C 0.26013 -0.01803 0.30927
 C776 C 0.25615 -0.06067 0.27117
 H777 H 0.23457 0.00574 0.29491
 H778 H 0.23210 -0.04569 0.24892
 H779 H 0.21469 0.01976 0.23029
 H780 H 0.28146 0.00214 0.24341
 H781 H 0.27884 0.03605 0.26653
 H782 H 0.28067 0.03250 0.23605
 H783 H 0.21113 -0.05214 0.27057
 H784 H 0.19399 -0.03584 0.24912
 H785 H 0.27294 0.02668 0.30092
 H786 H 0.21154 0.04638 0.28469
 H787 H 0.25147 -0.05602 0.22708
 H788 H 0.23042 -0.03646 0.20883
 H789 H 0.19351 0.00458 0.28559
 H790 H 0.21475 -0.01334 0.30690
 H791 H 0.26872 0.00103 0.20514
 H792 H 0.28828 -0.01875 0.22200
 O793 O 0.55769 0.73207 0.25552
 O794 O 0.55217 0.73504 0.28566
 O795 O 0.51169 0.70251 0.23670
 O796 O 0.48147 0.70597 0.23481
 O797 O 0.52872 0.75139 0.20726
 O798 O 0.52830 0.78100 0.21132
 O799 O 0.46018 0.75045 0.28316
 O800 O 0.46774 0.72029 0.28086
 O801 O 0.50418 0.77840 0.30183
 O802 O 0.53564 0.78087 0.29439
 O803 O 0.47654 0.79710 0.25579
 O804 O 0.47800 0.79099 0.22583
 O805 O 0.45593 0.76984 0.25937
 O806 O 0.46266 0.76604 0.22537
 O807 O 0.49930 0.80099 0.27587
 O808 O 0.53444 0.79663 0.27183
 O809 O 0.48580 0.75404 0.30494
 O810 O 0.49422 0.72128 0.29961
 O811 O 0.55542 0.75251 0.23236
 O812 O 0.54380 0.78597 0.23425
 O813 O 0.51009 0.72717 0.20927
 O814 O 0.47630 0.72811 0.21819
 O815 O 0.53515 0.70524 0.25628
 O816 O 0.53020 0.71389 0.28889
 Zr817 Zr 0.53128 0.73200 0.26647
 O818 O 0.51439 0.74848 0.28331
 Zr819 Zr 0.49890 0.72840 0.23577
 O820 O 0.48003 0.74301 0.25233
 Zr821 Zr 0.52768 0.76250 0.23326
 O822 O 0.50897 0.77942 0.24805
 Zr823 Zr 0.48726 0.74107 0.27964
 O824 O 0.50419 0.72368 0.26340
 Zr825 Zr 0.51487 0.77614 0.27551
 O826 O 0.53432 0.75999 0.26060
 Zr827 Zr 0.48182 0.77074 0.24595
 O828 O 0.50010 0.75605 0.22836
 O829 O 0.52612 0.73490 0.23904
 O830 O 0.48770 0.76878 0.27329
 C831 C 0.56454 0.74095 0.24223
 C832 C 0.52580 0.69614 0.24503
 C833 C 0.52113 0.73748 0.20051
 C834 C 0.45027 0.76146 0.27367
 C835 C 0.49339 0.76830 0.31103
 C836 C 0.48484 0.80656 0.26744
 H837 H 0.51823 0.74657 0.29594
 H838 H 0.50992 0.79222 0.24393
 H839 H 0.53454 0.72731 0.23139
 H840 H 0.46758 0.73842 0.25055
 H841 H 0.47418 0.70894 0.27676
 H842 H 0.47486 0.70574 0.24654
 H843 H 0.52975 0.80532 0.26261
 H844 H 0.55287 0.78386 0.24392
 H845 H 0.48439 0.72157 0.30902
 H846 H 0.54045 0.70473 0.28773
 H847 H 0.48632 0.78750 0.21567
 H848 H 0.51664 0.78821 0.21195
 H849 H 0.55550 0.74802 0.28527
 H850 H 0.53786 0.76935 0.30113
 H851 H 0.47793 0.73813 0.20935
 H852 H 0.45436 0.75643 0.22959
 O853 O 0.03903 0.72708 0.75837
 O854 O 0.02974 0.73240 0.78845
 O855 O -0.00612 0.70200 0.73419
 O856 O -0.03655 0.70806 0.73148
 O857 O 0.01898 0.74688 0.70755
 O858 O 0.01645 0.77957 0.71194
 O859 O -0.06013 0.75507 0.77153
 O860 O -0.05413 0.72409 0.77148
 O861 O -0.01640 0.77844 0.79885
 O862 O 0.01794 0.77522 0.79538
 O863 O -0.03298 0.80068 0.75012
 O864 O -0.02780 0.79210 0.71791
 O865 O -0.05740 0.77644 0.74929
 O866 O -0.04734 0.77342 0.71737
 O867 O -0.01307 0.80132 0.77338
 O868 O 0.01990 0.79374 0.77542
 O869 O -0.03896 0.75780 0.79755
 O870 O -0.03202 0.72451 0.79504
 O871 O 0.04156 0.74827 0.73588
 O872 O 0.03482 0.78033 0.73336
 O873 O -0.00347 0.72606 0.70727
 O874 O -0.03654 0.72978 0.71124
 O875 O 0.01362 0.70310 0.75762
 O876 O 0.00616 0.71237 0.78881
 Zr877 Zr 0.01142 0.73012 0.76672
 O878 O -0.00647 0.74775 0.78140
 Zr879 Zr -0.01714 0.72888 0.73222
 O880 O -0.03619 0.74647 0.74545
 Zr881 Zr 0.01499 0.75993 0.73287
 O882 O -0.00266 0.77896 0.74630
 Zr883 Zr -0.03352 0.74366 0.77346
 O884 O -0.01587 0.72443 0.76025
 Zr885 Zr -0.00143 0.77486 0.77439
 O886 O 0.01791 0.75736 0.76102
 Zr887 Zr -0.03000 0.77383 0.74001
 O888 O -0.01216 0.75611 0.72486
 O889 O 0.00995 0.73288 0.73880
 O890 O -0.02870 0.77102 0.76791
 C891 C 0.04825 0.73566 0.74625
 C892 C 0.00576 0.69464 0.74489
 C893 C 0.01016 0.73411 0.69994
 C894 C -0.06669 0.76783 0.76132
 C895 C -0.03072 0.77074 0.80533
 C896 C -0.02527 0.80880 0.76322
 H897 H -0.00507 0.74546 0.79448
 H898 H 0.00071 0.79146 0.74283
 H899 H 0.01856 0.72441 0.73234
 H900 H -0.04869 0.74357 0.74163
 H901 H -0.04774 0.71223 0.76904
 H902 H -0.04757 0.71251 0.73825
 H903 H 0.01993 0.80066 0.76392
 H904 H 0.03903 0.78093 0.74597
 H905 H -0.04349 0.72582 0.80237
 H906 H 0.01626 0.70301 0.78945
 H907 H -0.01699 0.79963 0.71986
 H908 H 0.00497 0.77876 0.70507
 H909 H 0.03547 0.74442 0.78721
 H910 H 0.01494 0.76543 0.80408
 H911 H -0.03435 0.74102 0.70417
 H912 H -0.05508 0.76263 0.71860
 O913 O 0.04504 0.03578 0.00092
 O914 O 0.04201 0.03342 -0.02964
 O915 O -0.00638 0.05914 0.01973
 O916 O -0.03610 0.05272 0.01830
 O917 O 0.01762 0.01294 0.04717
 O918 O 0.01931 -0.01859 0.04167
 O919 O -0.04671 0.00765 -0.03028
 O920 O -0.04407 0.03859 -0.02733
 O921 O 0.00331 -0.01457 -0.04865
 O922 O 0.03505 -0.01253 -0.03986
 O923 O -0.02299 -0.03778 -0.00443
 O924 O -0.02583 -0.03189 0.02676
 O925 O -0.04806 -0.01375 -0.00795
 O926 O -0.04418 -0.01017 0.02685
 O927 O 0.00092 -0.03785 -0.02448
 O928 O 0.03457 -0.03027 -0.01854
 O929 O -0.02016 0.00639 -0.05127
 O930 O -0.01689 0.04004 -0.04591
 O931 O 0.04510 0.01418 0.02317
 O932 O 0.04008 -0.01916 0.02165
 O933 O -0.00596 0.03387 0.04531
 O934 O -0.03854 0.02932 0.03530
 O935 O 0.01786 0.05978 0.00005
 O936 O 0.01668 0.05194 -0.03302
 Zr937 Zr 0.01957 0.03329 -0.01117
 O938 O 0.00683 0.01575 -0.02914
 Zr939 Zr -0.01510 0.03222 0.01843
 O940 O -0.03004 0.01589 0.00096
 Zr941 Zr 0.01931 0.00160 0.02120
 O942 O 0.00518 -0.01681 0.00503
 Zr943 Zr -0.02158 0.01968 -0.02604
 O944 O -0.00890 0.03834 -0.00886
 Zr945 Zr 0.01206 -0.01173 -0.02208
 O946 O 0.02724 0.00579 -0.00583
 Zr947 Zr -0.02338 -0.01153 0.00661
 O948 O -0.00936 0.00478 0.02520
 O949 O 0.01316 0.02885 0.01589
 O950 O -0.01627 -0.00778 -0.02037
 C951 C 0.05263 0.02714 0.01409
 C952 C 0.00695 0.06723 0.01190
 C953 C 0.00693 0.02541 0.05399
 C954 C -0.05460 -0.00540 -0.02194
 C955 C -0.00965 -0.00661 -0.05750
 C956 C -0.01291 -0.04535 -0.01678
 H957 H 0.01089 0.01848 -0.04164
 H958 H 0.00838 -0.02949 0.00863
 H959 H 0.01979 0.03700 0.02394
 H960 H -0.04332 0.01871 0.00249
 H961 H -0.03957 0.05039 -0.02307
 H962 H -0.04338 0.05067 0.00740
 H963 H 0.03088 -0.03967 -0.00969
 H964 H 0.04794 -0.01731 0.01082
 H965 H -0.02607 0.03869 -0.05551
 H966 H 0.02506 0.06215 -0.03118
 H967 H -0.01329 -0.03655 0.02940
 H968 H 0.00646 -0.01923 0.04610
 H969 H 0.04755 0.02093 -0.02955
 H970 H 0.03445 -0.00132 -0.04735
 H971 H -0.03574 0.01916 0.04377
 H972 H -0.05415 -0.00190 0.02247
 O973 O 0.03252 0.52540 0.51573
 O974 O 0.02769 0.52560 0.48521
 O975 O -0.01536 0.55146 0.53910
 O976 O -0.04795 0.54641 0.53699
 O977 O 0.00577 0.50240 0.56157
 O978 O 0.00338 0.47094 0.55412
 O979 O -0.06326 0.50733 0.48785
 O980 O -0.05853 0.53722 0.49313
 O981 O -0.01655 0.48330 0.46498
 O982 O 0.01618 0.48232 0.47211
 O983 O -0.04118 0.45820 0.50948
 O984 O -0.04207 0.46265 0.54128
 O985 O -0.06489 0.48436 0.50856
 O986 O -0.05948 0.48472 0.54286
 O987 O -0.01848 0.45794 0.48812
 O988 O 0.01549 0.46285 0.49139
 O989 O -0.03818 0.50630 0.46538
 O990 O -0.03194 0.53887 0.47327
 O991 O 0.03177 0.50196 0.53605
 O992 O 0.02376 0.47007 0.53369
 O993 O -0.01669 0.52462 0.56243
 O994 O -0.04912 0.52470 0.55479
 O995 O 0.00710 0.55182 0.51744
 O996 O 0.00408 0.54639 0.48425
 Zr997 Zr 0.00620 0.52614 0.50477
 O998 O -0.00917 0.51133 0.48643
 Zr999 Zr -0.02701 0.52582 0.53604
 O1000 O -0.04416 0.51186 0.51861
 Zr1001 Zr 0.00474 0.49240 0.53502
 O1002 O -0.01145 0.47652 0.51823
 Zr1003 Zr -0.03705 0.51717 0.49156
 O1004 O -0.02168 0.53342 0.50898
 Zr1005 Zr -0.00578 0.48316 0.49114
 O1006 O 0.01165 0.49787 0.50791
 Zr1007 Zr -0.03942 0.48373 0.52189
 O1008 O -0.02335 0.49763 0.54070
 O1009 O 0.00079 0.52031 0.53176
 O1010 O -0.03365 0.48903 0.49484
 C1011 C 0.04002 0.51482 0.52756
 C1012 C -0.00221 0.55915 0.53055
 C1013 C -0.00376 0.51495 0.56975
 C1014 C -0.07156 0.49419 0.49561
 C1015 C -0.02921 0.49315 0.45752
 C1016 C -0.03205 0.45066 0.49643
 H1017 H -0.00566 0.51477 0.47394
 H1018 H -0.00896 0.46345 0.52081
 H1019 H 0.00864 0.52722 0.53988
 H1020 H -0.05709 0.51560 0.52112
 H1021 H -0.05309 0.54844 0.49771
 H1022 H -0.04603 0.55441 0.52638
 H1023 H 0.01248 0.45384 0.50090
 H1024 H 0.03050 0.47121 0.52206
 H1025 H -0.04185 0.53917 0.46424
 H1026 H 0.01350 0.55561 0.48627
 H1027 H -0.02991 0.45642 0.54229
 H1028 H -0.00898 0.47192 0.55980
 H1029 H 0.03210 0.51274 0.48425
 H1030 H 0.01565 0.49387 0.46514
 H1031 H -0.04821 0.51258 0.56072
 H1032 H -0.06838 0.49476 0.54008
 O1033 O 0.54993 0.01440 0.50095
 O1034 O 0.54356 0.01377 0.47085
 O1035 O 0.50037 0.03199 0.52746
 O1036 O 0.46980 0.02203 0.52859
 O1037 O 0.53078 -0.01438 0.54742
 O1038 O 0.53337 -0.04522 0.53927
 O1039 O 0.45710 -0.01822 0.47819
 O1040 O 0.45736 0.01178 0.48375
 O1041 O 0.50541 -0.03454 0.45223
 O1042 O 0.53778 -0.03124 0.45712
 O1043 O 0.48740 -0.06391 0.49725
 O1044 O 0.48778 -0.06068 0.52862
 O1045 O 0.45991 -0.04109 0.49896
 O1046 O 0.46831 -0.04070 0.53280
 O1047 O 0.50862 -0.06063 0.47478
 O1048 O 0.54156 -0.05050 0.47629
 O1049 O 0.48108 -0.01445 0.45401
 O1050 O 0.48219 0.01847 0.46321
 O1051 O 0.55472 -0.00986 0.51985
 O1052 O 0.55126 -0.04300 0.51723
 O1053 O 0.50557 0.00446 0.55041
 O1054 O 0.47276 -0.00062 0.54457
 O1055 O 0.52081 0.03628 0.50444
 O1056 O 0.51702 0.03067 0.47152
 Zr1057 Zr 0.52348 0.01074 0.49152
 O1058 O 0.50958 -0.00610 0.47381
 Zr1059 Zr 0.49320 0.00465 0.52482
 O1060 O 0.47724 -0.01128 0.50796
 Zr1061 Zr 0.52950 -0.02353 0.52068
 O1062 O 0.51464 -0.04150 0.50476
 Zr1063 Zr 0.48163 -0.00457 0.48065
 O1064 O 0.49528 0.01351 0.49769
 Zr1065 Zr 0.51746 -0.03367 0.47763
 O1066 O 0.53350 -0.01653 0.49343
 Zr1067 Zr 0.48627 -0.03857 0.51021
 O1068 O 0.50147 -0.02284 0.52832
 O1069 O 0.52105 0.00366 0.51863
 O1070 O 0.48936 -0.03210 0.48299
 C1071 C 0.56000 0.00462 0.51153
 C1072 C 0.51121 0.04194 0.51812
 C1073 C 0.52008 -0.00364 0.55664
 C1074 C 0.45104 -0.03214 0.48666
 C1075 C 0.49148 -0.02605 0.44547
 C1076 C 0.49680 -0.06995 0.48365
 H1077 H 0.51181 -0.00193 0.46128
 H1078 H 0.51918 -0.05416 0.50688
 H1079 H 0.52816 0.01166 0.52644
 H1080 H 0.46414 -0.00949 0.51138
 H1081 H 0.46104 0.02349 0.48893
 H1082 H 0.46846 0.02930 0.51738
 H1083 H 0.54040 -0.06028 0.48546
 H1084 H 0.55731 -0.04020 0.50553
 H1085 H 0.47212 0.01743 0.45447
 H1086 H 0.52497 0.04127 0.47311
 H1087 H 0.50090 -0.06426 0.52972
 H1088 H 0.52134 -0.04691 0.54535
 H1089 H 0.54999 0.00176 0.46949
 H1090 H 0.53575 -0.01926 0.45117
 H1091 H 0.47659 -0.01205 0.55083
 H1092 H 0.45771 -0.03220 0.53086
 O1093 O 0.55050 0.52278 -0.00844
 O1094 O 0.54626 0.51893 -0.03860
 O1095 O 0.50151 0.55039 0.01077
 O1096 O 0.47161 0.54587 0.01307
 O1097 O 0.52213 0.50138 0.03975
 O1098 O 0.52556 0.47188 0.03506
 O1099 O 0.45536 0.50132 -0.03525
 O1100 O 0.46052 0.53163 -0.03307
 O1101 O 0.50206 0.47408 -0.05415
 O1102 O 0.53324 0.47251 -0.04788
 O1103 O 0.47593 0.45465 -0.00740
 O1104 O 0.47516 0.46150 0.02217
 O1105 O 0.45286 0.48063 -0.01240
 O1106 O 0.45791 0.48620 0.02214
 O1107 O 0.49930 0.45149 -0.02790
 O1108 O 0.53405 0.45750 -0.02465
 O1109 O 0.48123 0.49757 -0.05713
 O1110 O 0.48725 0.53081 -0.05233
 O1111 O 0.54954 0.50243 0.01485
 O1112 O 0.54166 0.46821 0.01221
 O1113 O 0.50230 0.52582 0.03816
 O1114 O 0.46846 0.52335 0.02989
 O1115 O 0.52504 0.54845 -0.00972
 O1116 O 0.52233 0.53917 -0.04216
 Zr1117 Zr 0.52446 0.52146 -0.01947
 O1118 O 0.50941 0.50448 -0.03608
 Zr1119 Zr 0.49121 0.52409 0.01184
 O1120 O 0.47395 0.50902 -0.00463
 Zr1121 Zr 0.52307 0.49092 0.01368
 O1122 O 0.50611 0.47350 -0.00070
 Zr1123 Zr 0.48157 0.51113 -0.03205
 O1124 O 0.49658 0.52893 -0.01593
 Zr1125 Zr 0.51230 0.47692 -0.02818
 O1126 O 0.53006 0.49362 -0.01368
 Zr1127 Zr 0.47811 0.48139 0.00167
 O1128 O 0.49484 0.49647 0.01904
 O1129 O 0.51902 0.51844 0.00802
 O1130 O 0.48445 0.48349 -0.02567
 C1131 C 0.55772 0.51450 0.00511
 C1132 C 0.51485 0.55724 0.00182
 C1133 C 0.51386 0.51538 0.04667
 C1134 C 0.44660 0.48919 -0.02642
 C1135 C 0.49013 0.48339 -0.06313
 C1136 C 0.48540 0.44540 -0.01905
 H1137 H 0.51323 0.50638 -0.04881
 H1138 H 0.50824 0.46080 0.00351
 H1139 H 0.52644 0.52639 0.01558
 H1140 H 0.46103 0.51318 -0.00275
 H1141 H 0.46600 0.54305 -0.02899
 H1142 H 0.46516 0.54585 0.00145
 H1143 H 0.53005 0.44850 -0.01551
 H1144 H 0.55109 0.47114 0.00297
 H1145 H 0.47769 0.53007 -0.06165
 H1146 H 0.53161 0.54871 -0.04113
 H1147 H 0.48333 0.46500 0.03202
 H1148 H 0.51366 0.46584 0.03598
 H1149 H 0.55097 0.50615 -0.03793
 H1150 H 0.53549 0.48444 -0.05367
 H1151 H 0.47121 0.51363 0.03886
 H1152 H 0.44799 0.49409 0.01708
 O1153 O 0.70359 0.21430 0.50535
 O1154 O 0.70801 0.21454 0.47375
 O1155 O 0.75399 0.19109 0.52543
 O1156 O 0.78402 0.19688 0.52269
 O1157 O 0.73070 0.24037 0.54870
 O1158 O 0.73051 0.27208 0.53890
 O1159 O 0.79826 0.23830 0.47264
 O1160 O 0.79472 0.20712 0.47922
 O1161 O 0.75076 0.25849 0.45016
 O1162 O 0.71672 0.25494 0.45832
 O1163 O 0.77205 0.28583 0.49137
 O1164 O 0.77184 0.28200 0.52541
 O1165 O 0.79763 0.26186 0.49255
 O1166 O 0.79301 0.26376 0.52521
 O1167 O 0.74827 0.28411 0.47206
 O1168 O 0.71605 0.27649 0.47547
 O1169 O 0.77363 0.23674 0.45077
 O1170 O 0.76913 0.20437 0.45917
 O1171 O 0.70372 0.23816 0.52491
 O1172 O 0.70856 0.26973 0.52117
 O1173 O 0.75382 0.21884 0.54862
 O1174 O 0.78577 0.22123 0.53935
 O1175 O 0.73055 0.18945 0.50563
 O1176 O 0.73222 0.19416 0.47269
 Zr1177 Zr 0.72966 0.21495 0.49248
 O1178 O 0.74430 0.22985 0.47282
 Zr1179 Zr 0.76343 0.21782 0.52188
 O1180 O 0.77930 0.23304 0.50365
 Zr1181 Zr 0.72970 0.24936 0.52154
 O1182 O 0.74387 0.26587 0.50296
 Zr1183 Zr 0.77262 0.22639 0.47713
 O1184 O 0.75810 0.20962 0.49539
 Zr1185 Zr 0.73870 0.25778 0.47635
 O1186 O 0.72260 0.24289 0.49494
 Zr1187 Zr 0.77216 0.26097 0.50595
 O1188 O 0.75799 0.24591 0.52593
 O1189 O 0.73531 0.22156 0.51902
 O1190 O 0.76687 0.25428 0.47939
 C1191 C 0.69596 0.22467 0.51750
 C1192 C 0.74103 0.18254 0.51784
 C1193 C 0.74118 0.22845 0.55661
 C1194 C 0.80536 0.25226 0.47999
 C1195 C 0.76436 0.24950 0.44285
 C1196 C 0.76174 0.29242 0.47882
 H1197 H 0.74114 0.22578 0.46059
 H1198 H 0.74027 0.27880 0.50500
 H1199 H 0.72828 0.21426 0.52785
 H1200 H 0.79248 0.23055 0.50586
 H1201 H 0.78947 0.19573 0.48398
 H1202 H 0.79381 0.20026 0.51404
 H1203 H 0.71686 0.28464 0.48599
 H1204 H 0.70236 0.26858 0.50946
 H1205 H 0.77949 0.20424 0.45033
 H1206 H 0.72278 0.18497 0.47515
 H1207 H 0.76115 0.29025 0.52303
 H1208 H 0.74285 0.27176 0.54430
 H1209 H 0.70224 0.22693 0.47361
 H1210 H 0.72013 0.24512 0.44971
 H1211 H 0.78400 0.23341 0.54492
 H1212 H 0.80079 0.25247 0.52493
 O1213 O 0.75796 0.80240 -0.01335
 O1214 O 0.75756 0.79671 0.01803
 O1215 O 0.78042 0.75439 -0.03716
 O1216 O 0.77503 0.72410 -0.03525
 O1217 O 0.73029 0.77785 -0.05770
 O1218 O 0.69919 0.77882 -0.04756
 O1219 O 0.73275 0.70763 0.01509
 O1220 O 0.76379 0.71067 0.00834
 O1221 O 0.71407 0.75545 0.03993
 O1222 O 0.71557 0.78835 0.03279
 O1223 O 0.68526 0.73443 -0.00262
 O1224 O 0.68931 0.73571 -0.03644
 O1225 O 0.70921 0.70891 -0.00473
 O1226 O 0.70790 0.71494 -0.03749
 O1227 O 0.68746 0.75659 0.01847
 O1228 O 0.69456 0.78930 0.01546
 O1229 O 0.73516 0.73201 0.03824
 O1230 O 0.76768 0.73567 0.02881
 O1231 O 0.73423 0.80354 -0.03305
 O1232 O 0.70181 0.79899 -0.02777
 O1233 O 0.75180 0.75476 -0.05959
 O1234 O 0.75027 0.72257 -0.05148
 O1235 O 0.78235 0.77597 -0.01539
 O1236 O 0.77783 0.77228 0.01746
 Zr1237 Zr 0.75685 0.77614 -0.00188
 O1238 O 0.74168 0.76105 0.01703
 Zr1239 Zr 0.75371 0.74422 -0.03318
 O1240 O 0.73849 0.72765 -0.01543
 Zr1241 Zr 0.72209 0.77790 -0.03040
 O1242 O 0.70544 0.76277 -0.01275
 Zr1243 Zr 0.74503 0.73309 0.01144
 O1244 O 0.76202 0.74806 -0.00641
 Zr1245 Zr 0.71361 0.76696 0.01392
 O1246 O 0.72886 0.78372 -0.00363
 Zr1247 Zr 0.71040 0.73476 -0.01710
 O1248 O 0.72542 0.74995 -0.03639
 O1249 O 0.75000 0.77192 -0.02865
 O1250 O 0.71699 0.73902 0.00971
 C1251 C 0.74806 0.81055 -0.02537
 C1252 C 0.78906 0.76680 -0.02878
 C1253 C 0.74185 0.76767 -0.06657
 C1254 C 0.71875 0.70078 0.00753
 C1255 C 0.72321 0.74197 0.04686
 C1256 C 0.67890 0.74379 0.01084
 H1257 H 0.74587 0.76383 0.02931
 H1258 H 0.69242 0.76637 -0.01453
 H1259 H 0.75724 0.77917 -0.03734
 H1260 H 0.74098 0.71464 -0.01826
 H1261 H 0.77530 0.71565 0.00339
 H1262 H 0.77184 0.71410 -0.02688
 H1263 H 0.68582 0.78817 0.00548
 H1264 H 0.70406 0.80513 -0.01619
 H1265 H 0.76768 0.72528 0.03744
 H1266 H 0.78713 0.78172 0.01553
 H1267 H 0.68107 0.74632 -0.03365
 H1268 H 0.69843 0.76649 -0.05280
 H1269 H 0.74541 0.80310 0.01812
 H1270 H 0.72718 0.78641 0.03935
 H1271 H 0.73788 0.72432 -0.05660
 H1272 H 0.71883 0.70663 -0.03700
 O1273 O 1.05777 0.23056 0.25285
 O1274 O 1.05068 0.23329 0.28320
 O1275 O 1.00866 0.21265 0.22864
 O1276 O 0.97946 0.22253 0.22590
 O1277 O 1.03840 0.25753 0.20535
 O1278 O 1.03956 0.28891 0.21215
 O1279 O 0.96273 0.26645 0.27426
 O1280 O 0.96525 0.23545 0.27054
 O1281 O 1.01022 0.28296 0.29984
 O1282 O 1.04329 0.27761 0.29463
 O1283 O 0.99210 0.31066 0.25468
 O1284 O 0.99407 0.30636 0.22277
 O1285 O 0.96553 0.28884 0.25307
 O1286 O 0.97502 0.28699 0.21939
 O1287 O 1.01345 0.30744 0.27658
 O1288 O 1.04646 0.29674 0.27518
 O1289 O 0.98572 0.26461 0.29850
 O1290 O 0.98902 0.23092 0.29220
 O1291 O 1.06187 0.25350 0.23242
 O1292 O 1.05756 0.28685 0.23391
 O1293 O 1.01441 0.23859 0.20355
 O1294 O 0.98097 0.24632 0.20950
 O1295 O 1.02942 0.20950 0.25113
 O1296 O 1.02483 0.21662 0.28347
 Zr1297 Zr 1.03095 0.23550 0.26255
 O1298 O 1.01582 0.25331 0.27960
 Zr1299 Zr 1.00115 0.24062 0.22915
 O1300 O 0.98418 0.25797 0.24531
 Zr1301 Zr 1.03632 0.26806 0.23165
 O1302 O 1.02062 0.28716 0.24707
 Zr1303 Zr 0.98808 0.25238 0.27286
 O1304 O 1.00296 0.23323 0.25668
 Zr1305 Zr 1.02311 0.28031 0.27447
 O1306 O 1.04012 0.26228 0.25914
 Zr1307 Zr 0.99242 0.28499 0.24196
 O1308 O 1.00847 0.26780 0.22439
 O1309 O 1.02880 0.24120 0.23511
 O1310 O 0.99515 0.27946 0.26932
 C1311 C 1.06756 0.23931 0.24135
 C1312 C 1.01989 0.20310 0.23834
 C1313 C 1.02868 0.24618 0.19681
 C1314 C 0.95649 0.28041 0.26552
 C1315 C 0.99566 0.27610 0.30661
 C1316 C 1.00110 0.31671 0.26807
 H1317 H 1.01775 0.24971 0.29234
 H1318 H 1.02483 0.29960 0.24450
 H1319 H 1.03627 0.23251 0.22769
 H1320 H 0.97122 0.25652 0.24204
 H1321 H 0.97013 0.22343 0.26636
 H1322 H 0.97052 0.22516 0.23577
 H1323 H 1.04551 0.30577 0.26525
 H1324 H 1.06329 0.28452 0.24576
 H1325 H 0.97846 0.23278 0.30065
 H1326 H 1.03354 0.20599 0.28255
 H1327 H 1.00702 0.30993 0.22209
 H1328 H 1.02758 0.29053 0.20616
 H1329 H 1.05700 0.24503 0.28347
 H1330 H 1.04063 0.26660 0.30187
 H1331 H 0.98523 0.25681 0.20226
 H1332 H 0.96486 0.27855 0.22144
 O1333 O 0.69767 1.01462 0.74049
 O1334 O 0.70154 1.00943 0.77166
 O1335 O 0.74573 1.04343 0.72462
 O1336 O 0.77627 1.03884 0.72636
 O1337 O 0.72965 0.99695 0.69348
 O1338 O 0.73151 0.96439 0.69854
 O1339 O 0.79455 0.99131 0.76869
 O1340 O 0.78705 1.02247 0.76774
 O1341 O 0.74819 0.96522 0.78854
 O1342 O 0.71486 0.96704 0.78056
 O1343 O 0.77390 0.94537 0.74207
 O1344 O 0.77432 0.95553 0.70966
 O1345 O 0.79666 0.97037 0.74611
 O1346 O 0.79345 0.97424 0.71349
 O1347 O 0.75027 0.94312 0.76224
 O1348 O 0.71697 0.94936 0.75997
 O1349 O 0.76914 0.98734 0.79102
 O1350 O 0.76107 1.02030 0.78790
 O1351 O 0.70128 0.99470 0.71713
 O1352 O 0.70934 0.96316 0.71633
 O1353 O 0.74909 1.02026 0.69716
 O1354 O 0.78106 1.01769 0.70585
 O1355 O 0.72161 1.04054 0.74417
 O1356 O 0.72325 1.03068 0.77596
 Zr1357 Zr 0.72352 1.01330 0.75314
 O1358 O 0.73953 0.99626 0.77019
 Zr1359 Zr 0.75813 1.01709 0.72372
 O1360 O 0.77539 1.00000 0.73934
 Zr1361 Zr 0.72828 0.98418 0.71907
 O1362 O 0.74401 0.96571 0.73478
 Zr1363 Zr 0.76745 1.00183 0.76659
 O1364 O 0.75132 1.02051 0.75118
 Zr1365 Zr 0.73739 0.96905 0.76235
 O1366 O 0.71989 0.98584 0.74635
 Zr1367 Zr 0.77168 0.97253 0.73261
 O1368 O 0.75613 0.98981 0.71527
 O1369 O 0.73049 1.01141 0.72587
 O1370 O 0.76515 0.97441 0.75998
 C1371 C 0.69169 1.00621 0.72662
 C1372 C 0.73159 1.04989 0.73333
 C1373 C 0.73843 1.01079 0.68761
 C1374 C 0.80323 0.97878 0.75958
 C1375 C 0.76062 0.97353 0.79719
 C1376 C 0.76425 0.93644 0.75356
 H1377 H 0.73565 0.99813 0.78291
 H1378 H 0.74196 0.95317 0.73062
 H1379 H 0.72285 1.01964 0.71822
 H1380 H 0.78826 1.00354 0.73757
 H1381 H 0.78053 1.03409 0.76463
 H1382 H 0.78635 1.03453 0.73424
 H1383 H 0.71921 0.94290 0.74843
 H1384 H 0.70281 0.96218 0.72809
 H1385 H 0.77119 1.01946 0.79670
 H1386 H 0.71275 1.03956 0.77500
 H1387 H 0.76442 0.94661 0.71033
 H1388 H 0.74392 0.96583 0.69322
 H1389 H 0.69718 0.99696 0.76972
 H1390 H 0.71568 0.97687 0.78956
 H1391 H 0.78087 1.00645 0.69854
 H1392 H 0.79990 0.98564 0.71579
 O1393 O 0.69960 0.52464 0.25160
 O1394 O 0.70373 0.51779 0.28220
 O1395 O 0.74759 0.55348 0.23655
 O1396 O 0.77797 0.54881 0.23678
 O1397 O 0.73005 0.50933 0.20311
 O1398 O 0.73140 0.47715 0.20559
 O1399 O 0.79608 0.49829 0.27761
 O1400 O 0.78900 0.52930 0.27900
 O1401 O 0.74915 0.47118 0.29524
 O1402 O 0.71712 0.47232 0.28759
 O1403 O 0.77662 0.45544 0.24796
 O1404 O 0.77640 0.46624 0.21655
 O1405 O 0.79865 0.48021 0.25277
 O1406 O 0.79371 0.48691 0.21976
 O1407 O 0.75294 0.45113 0.26767
 O1408 O 0.71838 0.45788 0.26440
 O1409 O 0.77058 0.49256 0.29942
 O1410 O 0.76274 0.52602 0.29861
 O1411 O 0.70222 0.50641 0.22683
 O1412 O 0.71039 0.47401 0.22478
 O1413 O 0.75006 0.53201 0.20761
 O1414 O 0.78279 0.52854 0.21644
 O1415 O 0.72332 0.54991 0.25580
 O1416 O 0.72636 0.53801 0.28741
 Zr1417 Zr 0.72553 0.52213 0.26361
 O1418 O 0.74124 0.50339 0.27918
 Zr1419 Zr 0.75964 0.52728 0.23396
 O1420 O 0.77698 0.50946 0.24866
 Zr1421 Zr 0.72921 0.49510 0.22777
 O1422 O 0.74559 0.47557 0.24159
 Zr1423 Zr 0.76912 0.50913 0.27607
 O1424 O 0.75334 0.52908 0.26177
 Zr1425 Zr 0.73909 0.47679 0.26925
 O1426 O 0.72136 0.49516 0.25519
 Zr1427 Zr 0.77326 0.48273 0.23982
 O1428 O 0.75713 0.50076 0.22380
 O1429 O 0.73199 0.52178 0.23619
 O1430 O 0.76681 0.48242 0.26727
 C1431 C 0.69315 0.51757 0.23724
 C1432 C 0.73333 0.55961 0.24523
 C1433 C 0.73885 0.52336 0.19783
 C1434 C 0.80504 0.48709 0.26720
 C1435 C 0.76165 0.47854 0.30455
 C1436 C 0.76750 0.44560 0.25905
 H1437 H 0.73733 0.50426 0.29200
 H1438 H 0.74368 0.46332 0.23660
 H1439 H 0.72434 0.53051 0.22912
 H1440 H 0.78981 0.51323 0.24713
 H1441 H 0.78268 0.54120 0.27665
 H1442 H 0.78658 0.54509 0.24639
 H1443 H 0.72229 0.45044 0.25386
 H1444 H 0.70319 0.47344 0.23619
 H1445 H 0.77266 0.52423 0.30750
 H1446 H 0.71624 0.54736 0.28708
 H1447 H 0.76589 0.45806 0.21622
 H1448 H 0.74427 0.47756 0.20119
 H1449 H 0.69922 0.50546 0.27981
 H1450 H 0.71615 0.48294 0.29574
 H1451 H 0.78160 0.51881 0.20737
 H1452 H 0.80155 0.49678 0.22391
 O1453 O 0.50247 0.20019 0.72190
 O1454 O 0.47094 0.20429 0.72354
 O1455 O 0.52007 0.24979 0.69598
 O1456 O 0.51604 0.27995 0.70117
 O1457 O 0.54817 0.22945 0.74234
 O1458 O 0.54191 0.22996 0.77385
 O1459 O 0.46813 0.29460 0.74617
 O1460 O 0.47067 0.28925 0.71563
 O1461 O 0.44977 0.24563 0.76994
 O1462 O 0.45950 0.21354 0.76761
 O1463 O 0.49411 0.27070 0.79236
 O1464 O 0.52674 0.27317 0.78446
 O1465 O 0.49008 0.29590 0.76762
 O1466 O 0.52393 0.29234 0.76551
 O1467 O 0.47459 0.24712 0.79272
 O1468 O 0.48039 0.21399 0.78509
 O1469 O 0.44702 0.26876 0.74953
 O1470 O 0.45202 0.26299 0.71621
 O1471 O 0.52481 0.20193 0.74295
 O1472 O 0.52377 0.20863 0.77472
 O1473 O 0.54563 0.25171 0.72094
 O1474 O 0.53422 0.28374 0.72361
 O1475 O 0.50132 0.22557 0.69658
 O1476 O 0.46763 0.22823 0.70397
 Zr1477 Zr 0.48931 0.22609 0.72273
 O1478 O 0.47019 0.24019 0.73962
 Zr1479 Zr 0.51783 0.26048 0.72227
 O1480 O 0.49965 0.27628 0.73863
 Zr1481 Zr 0.52172 0.22829 0.75379
 O1482 O 0.50422 0.24284 0.77169
 Zr1483 Zr 0.47245 0.26834 0.73541
 O1484 O 0.49039 0.25422 0.71702
 Zr1485 Zr 0.47699 0.23606 0.76676
 O1486 O 0.49469 0.22009 0.75005
 Zr1487 Zr 0.50513 0.27091 0.76593
 O1488 O 0.52465 0.25646 0.74955
 O1489 O 0.51650 0.23260 0.72666
 O1490 O 0.47791 0.26416 0.76266
 C1491 C 0.51590 0.19330 0.73102
 C1492 C 0.51290 0.23592 0.68861
 C1493 C 0.55489 0.23954 0.72982
 C1494 C 0.47647 0.30284 0.75878
 C1495 C 0.44073 0.25883 0.76247
 C1496 C 0.48245 0.26043 0.80025
 H1497 H 0.45762 0.23631 0.73710
 H1498 H 0.50788 0.23994 0.78419
 H1499 H 0.52515 0.22537 0.71892
 H1500 H 0.50091 0.28931 0.73551
 H1501 H 0.47503 0.28374 0.70410
 H1502 H 0.50580 0.28852 0.70437
 H1503 H 0.49026 0.21699 0.79348
 H1504 H 0.51255 0.20140 0.77427
 H1505 H 0.44214 0.27251 0.71754
 H1506 H 0.46983 0.21896 0.69441
 H1507 H 0.52739 0.26176 0.79165
 H1508 H 0.54630 0.24259 0.77340
 H1509 H 0.47105 0.19946 0.73604
 H1510 H 0.45133 0.21449 0.75709
 H1511 H 0.54158 0.28241 0.73469
 H1512 H 0.52138 0.29998 0.75474
 O1513 O 0.26059 0.76523 0.45411
 O1514 O 0.22871 0.76128 0.45991
 O1515 O 0.27895 0.79345 0.50017
 O1516 O 0.27859 0.78943 0.53034
 O1517 O 0.30890 0.74462 0.48195
 O1518 O 0.30258 0.71235 0.48435
 O1519 O 0.23426 0.74507 0.55077
 O1520 O 0.23717 0.77615 0.54404
 O1521 O 0.21172 0.72048 0.50685
 O1522 O 0.21932 0.72146 0.47281
 O1523 O 0.25844 0.69744 0.52912
 O1524 O 0.29207 0.70449 0.52682
 O1525 O 0.25717 0.72329 0.55166
 O1526 O 0.29034 0.72406 0.54572
 O1527 O 0.23744 0.69625 0.50685
 O1528 O 0.23822 0.70079 0.47491
 O1529 O 0.21099 0.74361 0.52714
 O1530 O 0.21567 0.77583 0.51960
 O1531 O 0.28360 0.74355 0.45567
 O1532 O 0.28378 0.71206 0.46346
 O1533 O 0.30633 0.76840 0.50147
 O1534 O 0.29915 0.76711 0.53322
 O1535 O 0.25803 0.79125 0.47790
 O1536 O 0.22587 0.78370 0.48116
 Zr1537 Zr 0.24848 0.76475 0.48018
 O1538 O 0.23124 0.74954 0.49715
 Zr1539 Zr 0.27979 0.76724 0.51220
 O1540 O 0.26420 0.75158 0.53024
 Zr1541 Zr 0.28237 0.73353 0.48237
 O1542 O 0.26621 0.71655 0.49885
 Zr1543 Zr 0.23641 0.75546 0.52429
 O1544 O 0.25188 0.77256 0.50731
 Zr1545 Zr 0.23807 0.72181 0.49434
 O1546 O 0.25439 0.73685 0.47603
 Zr1547 Zr 0.26970 0.72356 0.52598
 O1548 O 0.28731 0.73935 0.50957
 O1549 O 0.27637 0.76120 0.48517
 O1550 O 0.24179 0.72753 0.52145
 C1551 C 0.27409 0.75580 0.44712
 C1552 C 0.26959 0.80013 0.48696
 C1553 C 0.31547 0.75827 0.49031
 C1554 C 0.24361 0.73236 0.55884
 C1555 C 0.20375 0.73016 0.51934
 C1556 C 0.24601 0.68931 0.52034
 H1557 H 0.21827 0.75235 0.49419
 H1558 H 0.26975 0.70365 0.49653
 H1559 H 0.28408 0.76882 0.47722
 H1560 H 0.26666 0.75517 0.54279
 H1561 H 0.24045 0.78750 0.53760
 H1562 H 0.27145 0.78564 0.54110
 H1563 H 0.25066 0.69503 0.47472
 H1564 H 0.27162 0.71186 0.45773
 H1565 H 0.20718 0.77610 0.53019
 H1566 H 0.22659 0.79197 0.47053
 H1567 H 0.29035 0.69538 0.51725
 H1568 H 0.30835 0.71369 0.49626
 H1569 H 0.23111 0.74909 0.45456
 H1570 H 0.20969 0.73099 0.47512
 H1571 H 0.30589 0.75520 0.53271
 H1572 H 0.28886 0.73573 0.55227
 O1573 O 0.26486 0.27688 0.96090
 O1574 O 0.23335 0.27516 0.96617
 O1575 O 0.28490 0.30365 1.00741
 O1576 O 0.28530 0.29944 1.03723
 O1577 O 0.31184 0.25481 0.98716
 O1578 O 0.30524 0.22272 0.99097
 O1579 O 0.23734 0.25863 1.05717
 O1580 O 0.24087 0.28903 1.04994
 O1581 O 0.21414 0.23385 1.01300
 O1582 O 0.22164 0.23367 0.97964
 O1583 O 0.25966 0.20940 1.03624
 O1584 O 0.29183 0.21344 1.03553
 O1585 O 0.25935 0.23597 1.05866
 O1586 O 0.29382 0.23571 1.05129
 O1587 O 0.23838 0.20878 1.01420
 O1588 O 0.24094 0.21340 0.98114
 O1589 O 0.21396 0.25667 1.03364
 O1590 O 0.21978 0.28888 1.02525
 O1591 O 0.28639 0.25371 0.96202
 O1592 O 0.28525 0.22205 0.97065
 O1593 O 0.31109 0.27741 1.00806
 O1594 O 0.30303 0.27589 1.04058
 O1595 O 0.26382 0.30311 0.98510
 O1596 O 0.23088 0.29661 0.98826
 Zr1597 Zr 0.25284 0.27695 0.98693
 O1598 O 0.23478 0.26213 1.00345
 Zr1599 Zr 0.28437 0.27746 1.01897
 O1600 O 0.26749 0.26303 1.03686
 Zr1601 Zr 0.28522 0.24407 0.98892
 O1602 O 0.26850 0.22786 1.00571
 Zr1603 Zr 0.23984 0.26801 1.03055
 O1604 O 0.25664 0.28434 1.01406
 Zr1605 Zr 0.24063 0.23408 1.00096
 O1606 O 0.25738 0.24878 0.98271
 Zr1607 Zr 0.27196 0.23488 1.03287
 O1608 O 0.29054 0.24936 1.01620
 O1609 O 0.28052 0.27193 0.99189
 O1610 O 0.24426 0.23991 1.02807
 C1611 C 0.27759 0.26664 0.95368
 C1612 C 0.27596 0.31110 0.99434
 C1613 C 0.31931 0.26778 0.99581
 C1614 C 0.24628 0.24595 1.06561
 C1615 C 0.20639 0.24345 1.02564
 C1616 C 0.24669 0.20171 1.02783
 H1617 H 0.22194 0.26535 1.00035
 H1618 H 0.27155 0.21481 1.00362
 H1619 H 0.28844 0.27927 0.98389
 H1620 H 0.27005 0.26672 1.04936
 H1621 H 0.24477 0.30010 1.04340
 H1622 H 0.27573 0.29746 1.04656
 H1623 H 0.25195 0.20545 0.98308
 H1624 H 0.27308 0.22248 0.96491
 H1625 H 0.21100 0.28937 1.03561
 H1626 H 0.23228 0.30544 0.97817
 H1627 H 0.29346 0.20772 1.02355
 H1628 H 0.31130 0.22427 1.00271
 H1629 H 0.23383 0.26237 0.96196
 H1630 H 0.21324 0.24444 0.98093
 H1631 H 0.31059 0.26456 1.03891
 H1632 H 0.29125 0.24605 1.05955
 C1633 C 0.28438 0.39317 0.76808
 C1634 C 0.26990 0.40311 0.77640
 N1635 N 0.26023 0.39540 0.79009
 C1636 C 0.26457 0.37825 0.79607
 C1637 C 0.27944 0.36838 0.78810
 N1638 N 0.28881 0.37616 0.77413
 N1639 N 0.29414 0.40089 0.75446
 C1640 C 0.29017 0.41822 0.74884
 C1641 C 0.27585 0.42838 0.75736
 N1642 N 0.26601 0.42045 0.77091
 H1643 H 0.25660 0.37259 0.80704
 H1644 H 0.29830 0.42407 0.73805
 C1645 C 0.26891 -0.11496 0.28693
 C1646 C 0.27655 -0.10766 0.27109
 N1647 N 0.28819 -0.11815 0.26083
 C1648 C 0.29278 -0.13555 0.26581
 C1649 C 0.28548 -0.14287 0.28200
 N1650 N 0.27353 -0.13226 0.29198
 N1651 N 0.25727 -0.10455 0.29725
 C1652 C 0.25294 -0.08707 0.29247
 C1653 C 0.26066 -0.07959 0.27663
 N1654 N 0.27230 -0.09016 0.26629
 H1655 H 0.30210 -0.14332 0.25716
 H1656 H 0.24362 -0.07911 0.30103
 C1657 C 0.77723 0.88089 0.76445
 C1658 C 0.76217 0.88987 0.77278
 N1659 N 0.75140 0.88068 0.78452
 C1660 C 0.75501 0.86285 0.78848
 C1661 C 0.77025 0.85361 0.78029
 N1662 N 0.78091 0.86304 0.76837
 N1663 N 0.78798 0.89019 0.75266
 C1664 C 0.78429 0.90812 0.74883
 C1665 C 0.76914 0.91714 0.75718
 N1666 N 0.75849 0.90768 0.76897
 H1667 H 0.74592 0.85618 0.79786
 H1668 H 0.79307 0.91519 0.73938
 C1669 C 0.46287 0.85939 0.27956
 C1670 C 0.47957 0.85310 0.28681
 N1671 N 0.48881 0.86403 0.29790
 C1672 C 0.48215 0.88097 0.30220
 C1673 C 0.46520 0.88747 0.29515
 N1674 N 0.45607 0.87633 0.28389
 N1675 N 0.45369 0.84841 0.26837
 C1676 C 0.46045 0.83143 0.26414
 C1677 C 0.47719 0.82503 0.27149
 N1678 N 0.48631 0.83614 0.28269
 H1679 H 0.49020 0.88900 0.31106
 H1680 H 0.45275 0.82301 0.25522
 C1681 C -0.04112 0.86321 0.77656
 C1682 C -0.02706 0.85388 0.78578
 N1683 N -0.01853 0.86224 0.79944
 C1684 C -0.02341 0.87956 0.80441
 C1685 C -0.03767 0.88912 0.79531
 N1686 N -0.04609 0.88051 0.78152
 N1687 N -0.04965 0.85480 0.76287
 C1688 C -0.04477 0.83739 0.75802
 C1689 C -0.03072 0.82792 0.76735
 N1690 N -0.02224 0.83653 0.78102
 H1691 H -0.01619 0.88555 0.81538
 H1692 H -0.05190 0.83101 0.74715
 C1693 C -0.03133 -0.09555 -0.03650
 C1694 C -0.04039 -0.08666 -0.02208
 N1695 N -0.05598 -0.09364 -0.01503
 C1696 C -0.06304 -0.10908 -0.02181
 C1697 C -0.05418 -0.11798 -0.03650
 N1698 N -0.03842 -0.11090 -0.04338
 N1699 N -0.01584 -0.08841 -0.04368
 C1700 C -0.00912 -0.07265 -0.03722
 C1701 C -0.01837 -0.06349 -0.02296
 N1702 N -0.03379 -0.07088 -0.01572
 H1703 H -0.07556 -0.11405 -0.01591
 H1704 H 0.00305 -0.06714 -0.04344
 C1705 C -0.04859 0.39909 0.47842
 C1706 C -0.03409 0.40797 0.46984
 N1707 N -0.02547 0.40006 0.45541
 C1708 C -0.03071 0.38367 0.44908
 C1709 C -0.04539 0.37462 0.45758
 N1710 N -0.05386 0.38274 0.47214
 N1711 N -0.05728 0.40701 0.49281
 C1712 C -0.05216 0.42348 0.49901
 C1713 C -0.03764 0.43252 0.49040
 N1714 N -0.02895 0.42443 0.47598
 H1715 H -0.02338 0.37798 0.43757
 H1716 H -0.05943 0.42946 0.51047
 C1717 C 0.48636 -0.12409 0.46805
 C1718 C 0.47715 -0.11596 0.48280
 N1719 N 0.46456 -0.12547 0.49226
 C1720 C 0.46065 -0.14282 0.48767
 C1721 C 0.46978 -0.15122 0.47277
 N1722 N 0.48249 -0.14144 0.46340
 N1723 N 0.49896 -0.11447 0.45860
 C1724 C 0.50275 -0.09705 0.46325
 C1725 C 0.49349 -0.08884 0.47806
 N1726 N 0.48090 -0.09862 0.48743
 H1727 H 0.45055 -0.14976 0.49571
 H1728 H 0.51283 -0.08971 0.45544
 C1729 C 0.46980 0.39127 -0.02909
 C1730 C 0.48583 0.39819 -0.03686
 N1731 N 0.49648 0.38745 -0.04778
 C1732 C 0.49179 0.37013 -0.05153
 C1733 C 0.47545 0.36304 -0.04408
 N1734 N 0.46498 0.37395 -0.03285
 N1735 N 0.45920 0.40208 -0.01808
 C1736 C 0.46390 0.41950 -0.01454
 C1737 C 0.47994 0.42653 -0.02244
 N1738 N 0.49051 0.41558 -0.03342
 H1739 H 0.50093 0.36221 -0.06020
 H1740 H 0.45511 0.42777 -0.00575
 C1741 C 0.77405 0.34448 0.45763
 C1742 C 0.78612 0.33513 0.46932
 N1743 N 0.80202 0.34281 0.47391
 C1744 C 0.80630 0.35959 0.46763
 C1745 C 0.79404 0.36934 0.45633
 N1746 N 0.77823 0.36138 0.45141
 N1747 N 0.75819 0.33663 0.45300
 C1748 C 0.75384 0.31991 0.45958
 C1749 C 0.76582 0.31063 0.47150
 N1750 N 0.78173 0.31854 0.47599
 H1751 H 0.81917 0.36524 0.47150
 H1752 H 0.74110 0.31401 0.45562
 C1753 C 0.76745 0.86100 -0.04431
 C1754 C 0.77479 0.85252 -0.02892
 N1755 N 0.78902 0.86004 -0.02049
 C1756 C 0.79650 0.87558 -0.02683
 C1757 C 0.78959 0.88404 -0.04266
 N1758 N 0.77502 0.87645 -0.05086
 N1759 N 0.75317 0.85339 -0.05273
 C1760 C 0.74609 0.83751 -0.04656
 C1761 C 0.75379 0.82872 -0.03138
 N1762 N 0.76792 0.83660 -0.02291
 H1763 H 0.80785 0.88088 -0.01958
 H1764 H 0.73493 0.83160 -0.05373
 C1765 C 0.78508 0.26666 0.39207
 C1766 C 0.77083 0.27661 0.40085
 N1767 N 0.76454 0.29255 0.39353
 C1768 C 0.77184 0.29904 0.37786
 C1769 C 0.78627 0.28921 0.36903
 N1770 N 0.79249 0.27318 0.37647
 N1771 N 0.79151 0.25082 0.39949
 C1772 C 0.78455 0.24460 0.41542
 C1773 C 0.77053 0.25473 0.42450
 N1774 N 0.76395 0.27050 0.41685
 H1775 H 0.76665 0.31195 0.37267
 H1776 H 0.79022 0.23205 0.42110
 C1777 C 0.75010 0.77800 -0.12221
 C1778 C 0.75842 0.76276 -0.11384
 N1779 N 0.76974 0.75146 -0.12357
 C1780 C 0.77350 0.75489 -0.14127
 C1781 C 0.76573 0.77060 -0.14968
 N1782 N 0.75394 0.78155 -0.13982
 N1783 N 0.73881 0.78935 -0.11244
 C1784 C 0.73561 0.78624 -0.09457
 C1785 C 0.74424 0.77115 -0.08603
 N1786 N 0.75537 0.75972 -0.09599
 H1787 H 0.78260 0.74546 -0.14842
 H1788 H 0.72665 0.79562 -0.08710
 C1789 C 0.29328 0.47776 0.84612
 C1790 C 0.28119 0.46654 0.83707
 N1791 N 0.27575 0.45091 0.84505
 C1792 C 0.28164 0.44603 0.86174
 C1793 C 0.29351 0.45736 0.87114
 N1794 N 0.29915 0.47296 0.86291
 N1795 N 0.29889 0.49328 0.83795
 C1796 C 0.29302 0.49806 0.82117
 C1797 C 0.28084 0.48686 0.81207
 N1798 N 0.27524 0.47133 0.82036
 H1799 H 0.27714 0.43332 0.86745
 H1800 H 0.29782 0.51048 0.81501
 C1801 C 0.28330 -0.03143 0.36000
 C1802 C 0.26764 -0.04022 0.35418
 N1803 N 0.26023 -0.05325 0.36484
 C1804 C 0.26775 -0.05797 0.38098
 C1805 C 0.28368 -0.04931 0.38686
 N1806 N 0.29091 -0.03617 0.37603
 N1807 N 0.29078 -0.01836 0.34948
 C1808 C 0.28338 -0.01370 0.33334
 C1809 C 0.26773 -0.02256 0.32725
 N1810 N 0.26022 -0.03567 0.33794
 H1811 H 0.26129 -0.06846 0.38887
 H1812 H 0.28983 -0.00327 0.32529
 C1813 C -0.02057 -0.02621 -0.10968
 C1814 C -0.02903 -0.01002 -0.10328
 N1815 N -0.04125 -0.00079 -0.11375
 C1816 C -0.04566 -0.00710 -0.13027
 C1817 C -0.03764 -0.02372 -0.13667
 N1818 N -0.02508 -0.03268 -0.12611
 N1819 N -0.00828 -0.03540 -0.09919
 C1820 C -0.00418 -0.02921 -0.08251
 C1821 C -0.01292 -0.01313 -0.07591
 N1822 N -0.02513 -0.00392 -0.08657
 H1823 H -0.05544 0.00086 -0.13801
 H1824 H 0.00554 -0.03696 -0.07440
 C1825 C -0.04297 0.47999 0.40402
 C1826 C -0.02862 0.47058 0.41275
 N1827 N -0.01926 0.45691 0.40399
 C1828 C -0.02363 0.45215 0.38688
 C1829 C -0.03820 0.46147 0.37804
 N1830 N -0.04738 0.47523 0.38703
 N1831 N -0.05240 0.49364 0.41270
 C1832 C -0.04816 0.49831 0.42982
 C1833 C -0.03384 0.48885 0.43874
 N1834 N -0.02439 0.47517 0.42989
 H1835 H -0.01582 0.44116 0.38049
 H1836 H -0.05602 0.50920 0.43641
 C1837 C 0.47986 -0.03673 0.39103
 C1838 C 0.47139 -0.02182 0.39994
 N1839 N 0.45932 -0.01079 0.39092
 C1840 C 0.45508 -0.01421 0.37347
 C1841 C 0.46316 -0.02950 0.36466
 N1842 N 0.47552 -0.04023 0.37374
 N1843 N 0.49194 -0.04778 0.39994
 C1844 C 0.49594 -0.04463 0.41745
 C1845 C 0.48734 -0.02981 0.42654
 N1846 N 0.47525 -0.01871 0.41749
 H1847 H 0.44538 -0.00518 0.36673
 H1848 H 0.50562 -0.05372 0.42421
 C1849 C 0.48067 0.46619 -0.11637
 C1850 C 0.47359 0.48306 -0.11020
 N1851 N 0.46376 0.49399 -0.12153
 C1852 C 0.46049 0.48876 -0.13872
 C1853 C 0.46728 0.47160 -0.14495
 N1854 N 0.47736 0.46089 -0.13346
 N1855 N 0.49059 0.45525 -0.10511
 C1856 C 0.49377 0.46043 -0.08792
 C1857 C 0.48663 0.47733 -0.08161
 N1858 N 0.47667 0.48825 -0.09299
 H1859 H 0.45260 0.49798 -0.14718
 H1860 H 0.50173 0.45138 -0.07926
 C1861 C 0.48578 0.78047 0.36626
 C1862 C 0.48218 0.76311 0.35955
 N1863 N 0.47677 0.74981 0.37104
 C1864 C 0.47446 0.75314 0.38895
 C1865 C 0.47754 0.77068 0.39572
 N1866 N 0.48331 0.78389 0.38413
 N1867 N 0.49147 0.79369 0.35476
 C1868 C 0.49380 0.79029 0.33683
 C1869 C 0.49009 0.77292 0.33007
 N1870 N 0.48435 0.75976 0.34168
 H1871 H 0.47020 0.74219 0.39773
 H1872 H 0.49848 0.80104 0.32798
 C1873 C -0.05302 0.78958 0.85519
 C1874 C -0.03741 0.79744 0.84757
 N1875 N -0.02947 0.81130 0.85625
 C1876 C -0.03642 0.81771 0.87222
 C1877 C -0.05221 0.80990 0.88001
 N1878 N -0.06001 0.79594 0.87111
 N1879 N -0.06100 0.77572 0.84654
 C1880 C -0.05408 0.76937 0.83056
 C1881 C -0.03840 0.77723 0.82280
 N1882 N -0.03045 0.79114 0.83158
 H1883 H -0.02955 0.82875 0.87853
 H1884 H -0.06081 0.75831 0.82401
 C1885 C 0.39510 0.76981 0.29083
 C1886 C 0.40049 0.77342 0.27290
 N1887 N 0.38780 0.77950 0.26094
 C1888 C 0.37003 0.78252 0.26614
 C1889 C 0.36465 0.77959 0.28427
 N1890 N 0.37739 0.77306 0.29613
 N1891 N 0.40777 0.76351 0.30274
 C1892 C 0.42558 0.76068 0.29755
 C1893 C 0.43109 0.76454 0.27965
 N1894 N 0.41832 0.77082 0.26775
 H1895 H 0.36029 0.78732 0.25621
 H1896 H 0.43538 0.75567 0.30737
 C1897 C -0.12336 0.78051 0.76694
 C1898 C -0.11578 0.76403 0.77357
 N1899 N -0.12679 0.75183 0.78174
 C1900 C -0.14506 0.75546 0.78389
 C1901 C -0.15272 0.77224 0.77780
 N1902 N -0.14157 0.78427 0.76928
 N1903 N -0.11232 0.79259 0.75852
 C1904 C -0.09401 0.78893 0.75646
 C1905 C -0.08635 0.77251 0.76333
 N1906 N -0.09751 0.76047 0.77171
 H1907 H -0.15338 0.74533 0.79039
 H1908 H -0.08552 0.79879 0.74969
 C1909 C 0.85638 0.27166 0.46167
 C1910 C 0.84705 0.27958 0.47645
 N1911 N 0.85413 0.29415 0.48476
 C1912 C 0.87013 0.30131 0.47889
 C1913 C 0.87950 0.29360 0.46387
 N1914 N 0.87231 0.27884 0.45573
 N1915 N 0.84919 0.25712 0.45331
 C1916 C 0.83296 0.25021 0.45902
 C1917 C 0.82346 0.25828 0.47374
 N1918 N 0.83087 0.27277 0.48207
 H1919 H 0.87528 0.31294 0.48585
 H1920 H 0.82745 0.23875 0.45200
 C1921 C 0.84100 0.78471 -0.04695
 C1922 C 0.83304 0.79077 -0.03066
 N1923 N 0.84161 0.80330 -0.02072
 C1924 C 0.85776 0.81025 -0.02636
 C1925 C 0.86581 0.80459 -0.04292
 N1926 N 0.85716 0.79175 -0.05275
 N1927 N 0.83223 0.77213 -0.05682
 C1928 C 0.81577 0.76553 -0.05120
 C1929 C 0.80761 0.77191 -0.03499
 N1930 N 0.81664 0.78435 -0.02516
 H1931 H 0.86407 0.82013 -0.01791
 H1932 H 0.80898 0.75576 -0.05946
 C1933 C -0.10419 -0.02351 -0.04378
 C1934 C -0.09704 -0.03144 -0.02801
 N1935 N -0.10593 -0.04530 -0.01991
 C1936 C -0.12165 -0.05166 -0.02683
 C1937 C -0.12894 -0.04386 -0.04283
 N1938 N -0.11985 -0.02988 -0.05080
 N1939 N -0.09531 -0.00963 -0.05189
 C1940 C -0.07954 -0.00336 -0.04500
 C1941 C -0.07218 -0.01138 -0.02923
 N1942 N -0.08122 -0.02528 -0.02113
 H1943 H -0.12808 -0.06275 -0.01982
 H1944 H -0.07275 0.00765 -0.05190
 C1945 C -0.12177 0.47835 0.47378
 C1946 C -0.11477 0.46987 0.48934
 N1947 N -0.12362 0.45566 0.49682
 C1948 C -0.13894 0.44921 0.48924
 C1949 C -0.14571 0.45715 0.47310
 N1950 N -0.13695 0.47180 0.46604
 N1951 N -0.11285 0.49252 0.46624
 C1952 C -0.09705 0.49841 0.47339
 C1953 C -0.08967 0.48957 0.48871
 N1954 N -0.09888 0.47557 0.49638
 H1955 H -0.14543 0.43785 0.49577
 H1956 H -0.09008 0.50954 0.46687
 C1957 C 0.39787 -0.04801 0.47263
 C1958 C 0.40670 -0.03434 0.46292
 N1959 N 0.39803 -0.02599 0.44887
 C1960 C 0.38085 -0.03069 0.44408
 C1961 C 0.37178 -0.04439 0.45389
 N1962 N 0.38074 -0.05262 0.46795
 N1963 N 0.40652 -0.05649 0.48660
 C1964 C 0.42369 -0.05184 0.49136
 C1965 C 0.43260 -0.03799 0.48177
 N1966 N 0.42380 -0.02959 0.46772
 H1967 H 0.37447 -0.02365 0.43286
 H1968 H 0.43022 -0.05880 0.50260
 C1969 C 0.39476 0.47573 -0.04701
 C1970 C 0.40106 0.46803 -0.03077
 N1971 N 0.39053 0.45601 -0.02175
 C1972 C 0.37401 0.45124 -0.02819
 C1973 C 0.36755 0.45875 -0.04468
 N1974 N 0.37828 0.47091 -0.05358
 N1975 N 0.40526 0.48782 -0.05600
 C1976 C 0.42180 0.49252 -0.04954
 C1977 C 0.42831 0.48471 -0.03330
 N1978 N 0.41766 0.47260 -0.02431
 H1979 H 0.36632 0.44159 -0.02037
 H1980 H 0.42985 0.50214 -0.05716
 C1981 C 0.36932 0.47004 0.75925
 C1982 C 0.36319 0.48772 0.76404
 N1983 N 0.37476 0.49889 0.77247
 C1984 C 0.39203 0.49304 0.77672
 C1985 C 0.39798 0.47501 0.77266
 N1986 N 0.38644 0.46408 0.76375
 N1987 N 0.35786 0.45889 0.75069
 C1988 C 0.34047 0.46455 0.74682
 C1989 C 0.33407 0.48212 0.75198
 N1990 N 0.34569 0.49333 0.76045
 H1991 H 0.40083 0.50235 0.78341
 H1992 H 0.33161 0.45523 0.74011
 C1993 C 0.35229 -0.03846 0.27844
 C1994 C 0.34268 -0.02596 0.28967
 N1995 N 0.35077 -0.01977 0.30467
 C1996 C 0.36812 -0.02530 0.30889
 C1997 C 0.37805 -0.03756 0.29751
 N1998 N 0.36972 -0.04395 0.28257
 N1999 N 0.34406 -0.04480 0.26355
 C2000 C 0.32666 -0.03925 0.25938
 C2001 C 0.31700 -0.02665 0.27056
 N2002 N 0.32534 -0.02032 0.28548
 H2003 H 0.37394 -0.02021 0.32112
 H2004 H 0.32048 -0.04461 0.24741
 C2005 C 0.14645 0.53188 0.71149
 C2006 C 0.15431 0.54104 0.72590
 N2007 N 0.14399 0.55367 0.73517
 C2008 C 0.12622 0.55757 0.73067
 C2009 C 0.11831 0.54837 0.71617
 N2010 N 0.12880 0.53573 0.70702
 N2011 N 0.15654 0.51924 0.70215
 C2012 C 0.17418 0.51521 0.70657
 C2013 C 0.18225 0.52422 0.72108
 N2014 N 0.17204 0.53704 0.73041
 H2015 H 0.11846 0.56763 0.73845
 H2016 H 0.18178 0.50502 0.69875
 C2017 C 0.13131 0.02307 0.22405
 C2018 C 0.14094 0.03554 0.23434
 N2019 N 0.13379 0.05266 0.23673
 C2020 C 0.11752 0.05792 0.22926
 C2021 C 0.10794 0.04554 0.21868
 N2022 N 0.11518 0.02835 0.21641
 N2023 N 0.13846 0.00600 0.22149
 C2024 C 0.15497 0.00091 0.22843
 C2025 C 0.16502 0.01351 0.23827
 N2026 N 0.15760 0.03055 0.24113
 H2027 H 0.11244 0.07177 0.23121
 H2028 H 0.16039 -0.01275 0.22588
 C2029 C 0.61913 0.72512 0.22846
 C2030 C 0.60854 0.73587 0.21653
 N2031 N 0.61555 0.74007 0.20002
 C2032 C 0.63259 0.73393 0.19484
 C2033 C 0.64318 0.72287 0.20666
 N2034 N 0.63607 0.71883 0.22325
 N2035 N 0.61214 0.72072 0.24489
 C2036 C 0.59490 0.72631 0.24987
 C2037 C 0.58397 0.73668 0.23779
 N2038 N 0.59119 0.74136 0.22140
 H2039 H 0.63750 0.73731 0.18145
 H2040 H 0.58967 0.72237 0.26303
 C2041 C 0.10335 0.71960 0.73500
 C2042 C 0.09587 0.73612 0.72836
 N2043 N 0.10615 0.74674 0.71742
 C2044 C 0.12349 0.74145 0.71246
 C2045 C 0.13089 0.72452 0.71846
 N2046 N 0.12060 0.71414 0.72984
 N2047 N 0.09301 0.70902 0.74600
 C2048 C 0.07541 0.71411 0.75045
 C2049 C 0.06771 0.73040 0.74334
 N2050 N 0.07827 0.74104 0.73255
 H2051 H 0.13122 0.75034 0.70375
 H2052 H 0.06740 0.70526 0.75901
 C2053 C 0.64239 0.21262 0.53602
 C2054 C 0.65187 0.20118 0.52367
 N2055 N 0.64388 0.18594 0.51778
 C2056 C 0.62677 0.18165 0.52353
 C2057 C 0.61702 0.19318 0.53577
 N2058 N 0.62524 0.20839 0.54179
 N2059 N 0.65049 0.22781 0.54200
 C2060 C 0.66764 0.23206 0.53620
 C2061 C 0.67720 0.22062 0.52379
 N2062 N 0.66898 0.20541 0.51785
 H2063 H 0.62106 0.16922 0.51869
 H2064 H 0.67371 0.24426 0.54127
 C2065 C 0.62742 0.72937 0.03290
 C2066 C 0.63531 0.71989 0.01817
 N2067 N 0.62660 0.70556 0.01120
 C2068 C 0.61030 0.70023 0.01824
 C2069 C 0.60223 0.70967 0.03305
 N2070 N 0.61114 0.72405 0.04001
 N2071 N 0.63627 0.74365 0.03993
 C2072 C 0.65269 0.74880 0.03295
 C2073 C 0.66071 0.73922 0.01825
 N2074 N 0.65171 0.72498 0.01124
 H2075 H 0.60402 0.68857 0.01241
 H2076 H 0.65946 0.76016 0.03895
 C2077 C 0.10405 0.04639 0.03004
 C2078 C 0.09483 0.03355 0.04067
 N2079 N 0.10218 0.02787 0.05651
 C2080 C 0.11834 0.03441 0.06222
 C2081 C 0.12768 0.04734 0.05162
 N2082 N 0.12016 0.05298 0.03574
 N2083 N 0.09667 0.05221 0.01428
 C2084 C 0.08040 0.04590 0.00869
 C2085 C 0.07093 0.03317 0.01938
 N2086 N 0.07850 0.02725 0.03514
 H2087 H 0.12355 0.02970 0.07504
 H2088 H 0.07486 0.05095 -0.00392
 C2089 C 0.09513 0.52551 0.53956
 C2090 C 0.08591 0.53504 0.52581
 N2091 N 0.09467 0.54813 0.51632
 C2092 C 0.11226 0.55225 0.52003
 C2093 C 0.12157 0.54290 0.53400
 N2094 N 0.11265 0.52966 0.54334
 N2095 N 0.08633 0.51241 0.54905
 C2096 C 0.06865 0.50846 0.54545
 C2097 C 0.05930 0.51813 0.53175
 N2098 N 0.06828 0.53118 0.52226
 H2099 H 0.11872 0.56276 0.51216
 H2100 H 0.06196 0.49802 0.55329
 C2101 C 0.61417 0.02181 0.51874
 C2102 C 0.60912 0.00423 0.52405
 N2103 N 0.62183 -0.00735 0.53141
 C2104 C 0.63931 -0.00207 0.53396
 C2105 C 0.64433 0.01573 0.52908
 N2106 N 0.63156 0.02714 0.52141
 N2107 N 0.60155 0.03338 0.51127
 C2108 C 0.58405 0.02819 0.50886
 C2109 C 0.57883 0.01062 0.51429
 N2110 N 0.59159 -0.00095 0.52178
 H2111 H 0.64908 -0.01168 0.53981
 H2112 H 0.57429 0.03776 0.50286
 C2113 C 0.60846 0.53517 0.02116
 C2114 C 0.59827 0.52412 0.03291
 N2115 N 0.60419 0.52109 0.04994
 C2116 C 0.61986 0.52853 0.05577
 C2117 C 0.63017 0.53964 0.04406
 N2118 N 0.62410 0.54271 0.02698
 N2119 N 0.60246 0.53832 0.00417
 C2120 C 0.58660 0.53116 -0.00154
 C2121 C 0.57611 0.52036 0.01029
 N2122 N 0.58234 0.51703 0.02727
 H2123 H 0.62402 0.52599 0.06952
 H2124 H 0.58208 0.53417 -0.01511
 C2125 C 0.01901 0.04252 0.10686
 C2126 C 0.02887 0.02798 0.09880
 N2127 N 0.04297 0.01975 0.10778
 C2128 C 0.04779 0.02547 0.12445
 C2129 C 0.03811 0.04034 0.13260
 N2130 N 0.02385 0.04835 0.12342
 N2131 N 0.00493 0.05082 0.09788
 C2132 C 0.00037 0.04531 0.08107
 C2133 C 0.01043 0.03089 0.07276
 N2134 N 0.02444 0.02254 0.08197
 H2135 H 0.05914 0.01852 0.13099
 H2136 H -0.01077 0.05235 0.07418
 C2137 C 0.01258 0.53058 0.62176
 C2138 C 0.02309 0.51775 0.61180
 N2139 N 0.03932 0.51131 0.61845
 C2140 C 0.04562 0.51730 0.63451
 C2141 C 0.03529 0.53052 0.64437
 N2142 N 0.01891 0.53664 0.63767
 N2143 N -0.00350 0.53727 0.61509
 C2144 C -0.00946 0.53193 0.59872
 C2145 C 0.00123 0.51938 0.58842
 N2146 N 0.01724 0.51247 0.59536
 H2147 H 0.05867 0.51198 0.63926
 H2148 H -0.02221 0.53774 0.59365
 C2149 C 0.53498 0.01010 0.60975
 C2150 C 0.51852 0.01676 0.60229
 N2151 N 0.50749 0.02841 0.61189
 C2152 C 0.51227 0.03406 0.62852
 C2153 C 0.52914 0.02796 0.63601
 N2154 N 0.53991 0.01581 0.62638
 N2155 N 0.54601 -0.00154 0.60001
 C2156 C 0.54140 -0.00663 0.58306
 C2157 C 0.52505 0.00036 0.57541
 N2158 N 0.51398 0.01183 0.58537
 H2159 H 0.50284 0.04322 0.63559
 H2160 H 0.55058 -0.01577 0.57555
 C2161 C 0.53210 0.52866 0.09878
 C2162 C 0.52133 0.54130 0.08892
 N2163 N 0.51783 0.55818 0.09581
 C2164 C 0.52464 0.56299 0.11206
 C2165 C 0.53565 0.55040 0.12187
 N2166 N 0.53905 0.53350 0.11487
 N2167 N 0.53570 0.51182 0.09198
 C2168 C 0.52930 0.50707 0.07563
 C2169 C 0.51889 0.51980 0.06538
 N2170 N 0.51503 0.53666 0.07240
 H2171 H 0.52180 0.57664 0.11702
 H2172 H 0.53265 0.49355 0.07056
 C2173 C 0.22412 0.53450 0.63187
 C2174 C 0.21552 0.52018 0.64095
 N2175 N 0.20140 0.51184 0.63303
 C2176 C 0.19536 0.51729 0.61650
 C2177 C 0.20377 0.53189 0.60748
 N2178 N 0.21806 0.53999 0.61548
 N2179 N 0.23820 0.54293 0.63969
 C2180 C 0.24406 0.53777 0.65629
 C2181 C 0.23539 0.52352 0.66560
 N2182 N 0.22130 0.51502 0.65761
 H2183 H 0.18408 0.51030 0.61066
 H2184 H 0.25528 0.54486 0.66218
 C2185 C 0.20791 0.02524 0.14816
 C2186 C 0.22313 0.03259 0.15641
 N2187 N 0.23207 0.04641 0.14822
 C2188 C 0.22634 0.05341 0.13215
 C2189 C 0.21081 0.04636 0.12392
 N2190 N 0.20210 0.03229 0.13219
 N2191 N 0.19888 0.01151 0.15647
 C2192 C 0.20429 0.00493 0.17284
 C2193 C 0.21936 0.01254 0.18133
 N2194 N 0.22843 0.02614 0.17275
 H2195 H 0.23378 0.06444 0.12610
 H2196 H 0.19668 -0.00582 0.17928
 C2197 C 0.73165 0.21602 0.61165
 C2198 C 0.72023 0.22875 0.60269
 N2199 N 0.70555 0.23638 0.61161
 C2200 C 0.70162 0.23167 0.62902
 C2201 C 0.71283 0.21854 0.63793
 N2202 N 0.72766 0.21120 0.62891
 N2203 N 0.74625 0.20823 0.60282
 C2204 C 0.74987 0.21241 0.58529
 C2205 C 0.73824 0.22486 0.57603
 N2206 N 0.72372 0.23286 0.58507
 H2207 H 0.68966 0.23785 0.63554
 H2208 H 0.76156 0.20580 0.57861
 C2209 C 0.71351 0.72978 0.10187
 C2210 C 0.72713 0.72012 0.09202
 N2211 N 0.73721 0.70671 0.10030
 C2212 C 0.73417 0.70244 0.11799
 C2213 C 0.72033 0.71200 0.12786
 N2214 N 0.71045 0.72550 0.11941
 N2215 N 0.70336 0.74316 0.09372
 C2216 C 0.70620 0.74736 0.07606
 C2217 C 0.71981 0.73769 0.06603
 N2218 N 0.72999 0.72426 0.07432
 H2219 H 0.74239 0.69164 0.12411
 H2220 H 0.69785 0.75811 0.06995
 C2221 C 0.53456 0.72394 0.14628
 C2222 C 0.52266 0.71320 0.15657
 N2223 N 0.51549 0.69823 0.14909
 C2224 C 0.51958 0.69353 0.13174
 C2225 C 0.53144 0.70431 0.12124
 N2226 N 0.53868 0.71926 0.12893
 N2227 N 0.54178 0.73888 0.15378
 C2228 C 0.53765 0.74360 0.17113
 C2229 C 0.52571 0.73287 0.18155
 N2230 N 0.51852 0.71787 0.17391
 H2231 H 0.51373 0.68138 0.12639
 H2232 H 0.54367 0.75559 0.17670
 C2233 C 0.02780 0.71322 0.64910
 C2234 C 0.03863 0.72548 0.65834
 N2235 N 0.05511 0.73001 0.65113
 C2236 C 0.06129 0.72280 0.63517
 C2237 C 0.05051 0.71034 0.62589
 N2238 N 0.03396 0.70597 0.63323
 N2239 N 0.01138 0.70853 0.65624
 C2240 C 0.00532 0.71539 0.67231
 C2241 C 0.01618 0.72755 0.68185
 N2242 N 0.03263 0.73237 0.67450
 H2243 H 0.07453 0.72671 0.63000
 H2244 H -0.00782 0.71124 0.67762
 C2245 C 0.54300 0.64344 0.22795
 C2246 C 0.52548 0.65067 0.22406
 N2247 N 0.51413 0.64123 0.21353
 C2248 C 0.51964 0.62498 0.20631
 C2249 C 0.53747 0.61791 0.20952
 N2250 N 0.54864 0.62726 0.22056
 N2251 N 0.55432 0.65310 0.23844
 C2252 C 0.54899 0.66982 0.24493
 C2253 C 0.53163 0.67732 0.24050
 N2254 N 0.52031 0.66737 0.23029
 H2255 H 0.51020 0.61781 0.19802
 H2256 H 0.55841 0.67740 0.25293
 C2257 C 0.02474 0.64069 0.73439
 C2258 C 0.01112 0.64902 0.72369
 N2259 N 0.00480 0.64001 0.70924
 C2260 C 0.01160 0.62310 0.70486
 C2261 C 0.02560 0.61484 0.71532
 N2262 N 0.03169 0.62394 0.72992
 N2263 N 0.03122 0.64970 0.74876
 C2264 C 0.02488 0.66681 0.75280
 C2265 C 0.01154 0.67546 0.74186
 N2266 N 0.00490 0.66621 0.72759
 H2267 H 0.00645 0.61653 0.69304
 H2268 H 0.03053 0.67372 0.76423
 C2269 C 0.02130 0.11874 0.03160
 C2270 C 0.02986 0.11140 0.01606
 N2271 N 0.04380 0.12033 0.00802
 C2272 C 0.04990 0.13607 0.01501
 C2273 C 0.04191 0.14315 0.03109
 N2274 N 0.02757 0.13431 0.03880
 N2275 N 0.00733 0.10979 0.03962
 C2276 C 0.00176 0.09364 0.03301
 C2277 C 0.01080 0.08588 0.01782
 N2278 N 0.02456 0.09513 0.00964
 H2279 H 0.06104 0.14267 0.00813
 H2280 H -0.00916 0.08666 0.03997
 C2281 C 0.01673 0.60942 0.54928
 C2282 C 0.02154 0.60299 0.53198
 N2283 N 0.03322 0.61251 0.52144
 C2284 C 0.04074 0.62796 0.52755
 C2285 C 0.03671 0.63406 0.54523
 N2286 N 0.02449 0.62471 0.55557
 N2287 N 0.00493 0.59985 0.55974
 C2288 C -0.00204 0.58401 0.55379
 C2289 C 0.00330 0.57721 0.53670
 N2290 N 0.01489 0.58703 0.52619
 H2291 H 0.04992 0.63520 0.51868
 H2292 H -0.01116 0.57651 0.56257
 C2293 C 0.51918 0.09608 0.53484
 C2294 C 0.52539 0.09001 0.51782
 N2295 N 0.53470 0.10144 0.50683
 C2296 C 0.53851 0.11855 0.51225
 C2297 C 0.53304 0.12447 0.52963
 N2298 N 0.52322 0.11309 0.54040
 N2299 N 0.50982 0.08462 0.54581
 C2300 C 0.50659 0.06727 0.54060
 C2301 C 0.51326 0.06098 0.52374
 N2302 N 0.52241 0.07264 0.51273
 H2303 H 0.54598 0.12728 0.50313
 H2304 H 0.49927 0.05838 0.54973
 C2305 C 0.52717 0.61115 0.01582
 C2306 C 0.51184 0.60264 0.02325
 N2307 N 0.50125 0.61144 0.03586
 C2308 C 0.50549 0.62832 0.04167
 C2309 C 0.52118 0.63674 0.03465
 N2310 N 0.53150 0.62793 0.02170
 N2311 N 0.53786 0.60224 0.00332
 C2312 C 0.53401 0.58504 -0.00193
 C2313 C 0.51886 0.57631 0.00580
 N2314 N 0.50809 0.58548 0.01813
 H2315 H 0.49678 0.63493 0.05175
 H2316 H 0.54290 0.57817 -0.01173
 C2317 C 0.72970 0.12838 0.53379
 C2318 C 0.71984 0.13725 0.52006
 N2319 N 0.70634 0.12845 0.51168
 C2320 C 0.70217 0.11111 0.51636
 C2321 C 0.71196 0.10195 0.53022
 N2322 N 0.72556 0.11102 0.53856
 N2323 N 0.74326 0.13728 0.54212
 C2324 C 0.74737 0.15467 0.53732
 C2325 C 0.73744 0.16362 0.52354
 N2326 N 0.72389 0.15456 0.51530
 H2327 H 0.69129 0.10480 0.50921
 H2328 H 0.75822 0.16142 0.54422
 C2329 C 0.70170 0.64865 0.02505
 C2330 C 0.71717 0.65653 0.03243
 N2331 N 0.72661 0.64744 0.04547
 C2332 C 0.72130 0.63085 0.05155
 C2333 C 0.70568 0.62283 0.04430
 N2334 N 0.69632 0.63208 0.03112
 N2335 N 0.69224 0.65776 0.01200
 C2336 C 0.69751 0.67440 0.00602
 C2337 C 0.71301 0.68244 0.01343
 N2338 N 0.72245 0.67319 0.02651
 H2339 H 0.72931 0.62415 0.06191
 H2340 H 0.68959 0.68131 -0.00435
 C2341 C 0.22629 0.61330 0.70766
 C2342 C 0.21877 0.60469 0.72287
 N2343 N 0.20573 0.61361 0.73298
 C2344 C 0.19975 0.63077 0.72855
 C2345 C 0.20711 0.63951 0.71318
 N2346 N 0.22030 0.63043 0.70317
 N2347 N 0.23936 0.60435 0.69756
 C2348 C 0.24524 0.58712 0.70198
 C2349 C 0.23764 0.57838 0.71720
 N2350 N 0.22456 0.58750 0.72726
 H2351 H 0.18939 0.63737 0.73701
 H2352 H 0.25561 0.58030 0.69362
 C2353 C 0.21571 0.10699 0.23024
 C2354 C 0.23207 0.09840 0.22404
 N2355 N 0.24462 0.10825 0.21489
 C2356 C 0.24152 0.12628 0.21146
 C2357 C 0.22494 0.13497 0.21729
 N2358 N 0.21250 0.12499 0.22669
 N2359 N 0.20329 0.09717 0.23965
 C2360 C 0.20650 0.07915 0.24317
 C2361 C 0.22285 0.07045 0.23687
 N2362 N 0.23523 0.08038 0.22741
 H2363 H 0.25199 0.13361 0.20427
 H2364 H 0.19634 0.07168 0.25075
 C2365 C 0.71553 1.10510 0.72414
 C2366 C 0.73119 1.09743 0.71555
 N2367 N 0.74109 1.10779 0.70396
 C2368 C 0.73596 1.12544 0.70044
 C2369 C 0.72009 1.13315 0.70885
 N2370 N 0.71037 1.12267 0.72060
 N2371 N 0.70560 1.09479 0.73571
 C2372 C 0.71055 1.07709 0.73905
 C2373 C 0.72617 1.06924 0.73037
 N2374 N 0.73614 1.07971 0.71881
 H2375 H 0.74426 1.13325 0.69121
 H2376 H 0.70226 1.06923 0.74831
 C2377 C 0.71676 0.61353 0.23101
 C2378 C 0.73403 0.60620 0.22588
 N2379 N 0.74527 0.61600 0.21510
 C2380 C 0.73990 0.63274 0.20887
 C2381 C 0.72233 0.64001 0.21339
 N2382 N 0.71126 0.63024 0.22464
 N2383 N 0.70556 0.60353 0.24176
 C2384 C 0.71075 0.58641 0.24734
 C2385 C 0.72786 0.57883 0.24172
 N2386 N 0.73908 0.58910 0.23122
 H2387 H 0.74931 0.64017 0.20040
 H2388 H 0.70139 0.57861 0.25557
 C2389 C 0.53126 0.13821 0.72135
 C2390 C 0.51595 0.14632 0.71294
 N2391 N 0.50592 0.13633 0.70160
 C2392 C 0.51061 0.11861 0.69808
 C2393 C 0.52623 0.11041 0.70624
 N2394 N 0.53599 0.12058 0.71783
 N2395 N 0.54132 0.14817 0.73270
 C2396 C 0.53677 0.16595 0.73602
 C2397 C 0.52144 0.17418 0.72755
 N2398 N 0.51139 0.16407 0.71620
 H2399 H 0.50217 0.11124 0.68897
 H2400 H 0.54506 0.17353 0.74516
 C2401 C 1.02956 0.14746 0.22619
 C2402 C 1.01874 0.15853 0.21481
 N2403 N 1.01222 0.15139 0.19937
 C2404 C 1.01626 0.13376 0.19469
 C2405 C 1.02752 0.12278 0.20592
 N2406 N 1.03369 0.13003 0.22147
 N2407 N 1.03637 0.15445 0.24148
 C2408 C 1.03306 0.17217 0.24586
 C2409 C 1.02253 0.18353 0.23436
 N2410 N 1.01546 0.17634 0.21911
 H2411 H 1.01111 0.12864 0.18216
 H2412 H 1.03883 0.17734 0.25812
 C2413 C 0.22772 0.63736 0.53632
 C2414 C 0.22166 0.64584 0.52041
 N2415 N 0.20914 0.63767 0.51011
 C2416 C 0.20216 0.62142 0.51508
 C2417 C 0.20784 0.61291 0.53124
 N2418 N 0.22069 0.62111 0.54139
 N2419 N 0.24027 0.64570 0.54659
 C2420 C 0.24688 0.66224 0.54170
 C2421 C 0.24055 0.67089 0.52588
 N2422 N 0.22813 0.66231 0.51565
 H2423 H 0.19231 0.61529 0.50642
 H2424 H 0.25668 0.66868 0.55024
 C2425 C 0.22748 0.15114 1.04742
 C2426 C 0.21913 0.16002 1.03275
 N2427 N 0.20440 0.15255 1.02501
 C2428 C 0.19755 0.13662 1.03129
 C2429 C 0.20578 0.12762 1.04612
 N2430 N 0.22065 0.13524 1.05374
 N2431 N 0.24217 0.15866 1.05523
 C2432 C 0.24885 0.17472 1.04908
 C2433 C 0.24047 0.18377 1.03441
 N2434 N 0.22577 0.17607 1.02661
 H2435 H 0.18582 0.13117 1.02471
 H2436 H 0.26049 0.18040 1.05569
 C2437 C 0.22788 0.71751 0.61196
 C2438 C 0.21878 0.73198 0.60300
 N2439 N 0.20455 0.74097 0.61136
 C2440 C 0.19891 0.73610 0.62825
 C2441 C 0.20787 0.72141 0.63725
 N2442 N 0.22222 0.71256 0.62875
 N2443 N 0.24208 0.70845 0.60365
 C2444 C 0.24758 0.71313 0.58670
 C2445 C 0.23839 0.72752 0.57753
 N2446 N 0.22418 0.73663 0.58600
 H2447 H 0.18741 0.74352 0.63433
 H2448 H 0.25889 0.70552 0.58041
 C2449 C 0.23201 0.23505 1.11994
 C2450 C 0.24678 0.22571 1.11146
 N2451 N 0.25636 0.21265 1.12067
 C2452 C 0.25162 0.20819 1.13791
 C2453 C 0.23638 0.21713 1.14639
 N2454 N 0.22719 0.23057 1.13709
 N2455 N 0.22232 0.24804 1.11069
 C2456 C 0.22669 0.25203 1.09324
 C2457 C 0.24136 0.24249 1.08461
 N2458 N 0.25110 0.22960 1.09404
 H2459 H 0.25968 0.19769 1.14466
 H2460 H 0.21865 0.26239 1.08617
 C2461 C 0.72650 0.54264 0.14544
 C2462 C 0.72169 0.52513 0.15115
 N2463 N 0.71236 0.51434 0.13997
 C2464 C 0.70722 0.52040 0.12341
 C2465 C 0.71134 0.53823 0.11781
 N2466 N 0.72115 0.54883 0.12896
 N2467 N 0.73594 0.55335 0.15669
 C2468 C 0.74060 0.54740 0.17349
 C2469 C 0.73534 0.53002 0.17940
 N2470 N 0.72609 0.51931 0.16796
 H2471 H 0.69986 0.51137 0.11484
 H2472 H 0.74793 0.55630 0.18226
 C2473 C 0.73164 1.02632 0.63307
 C2474 C 0.72788 1.00857 0.63896
 N2475 N 0.72202 0.99621 0.62699
 C2476 C 0.71934 1.00089 0.60945
 C2477 C 0.72236 1.01889 0.60359
 N2478 N 0.72870 1.03111 0.61560
 N2479 N 0.73773 1.03860 0.64503
 C2480 C 0.74016 1.03396 0.66264
 C2481 C 0.73605 1.01627 0.66865
 N2482 N 0.73004 1.00399 0.65657
 H2483 H 0.71470 0.99065 0.60029
 H2484 H 0.74500 1.04405 0.67188
 C2485 C 0.53259 0.21942 0.63688
 C2486 C 0.51964 0.20922 0.64641
 N2487 N 0.51391 0.19340 0.63935
 C2488 C 0.52049 0.18729 0.62314
 C2489 C 0.53353 0.19743 0.61343
 N2490 N 0.53927 0.21330 0.62068
 N2491 N 0.53841 0.23518 0.64407
 C2492 C 0.53196 0.24112 0.66043
 C2493 C 0.51911 0.23081 0.67015
 N2494 N 0.51327 0.21508 0.66276
 H2495 H 0.51575 0.17450 0.61814
 H2496 H 0.53704 0.25363 0.66587
 C2497 C 1.04760 0.22976 0.14474
 C2498 C 1.03157 0.22267 0.15230
 N2499 N 1.02236 0.21007 0.14301
 C2500 C 1.02845 0.20414 0.12653
 C2501 C 1.04473 0.21104 0.11884
 N2502 N 1.05379 0.22379 0.12835
 N2503 N 1.05684 0.24238 0.15398
 C2504 C 1.05085 0.24817 0.17052
 C2505 C 1.03487 0.24095 0.17833
 N2506 N 1.02559 0.22834 0.16890
 H2507 H 1.02061 0.19405 0.11978
 H2508 H 1.05865 0.25815 0.17755
 C2509 C 0.61046 0.22868 0.71555
 C2510 C 0.60218 0.21957 0.73006
 N2511 N 0.61194 0.20664 0.73931
 C2512 C 0.62961 0.20221 0.73456
 C2513 C 0.63790 0.21103 0.71973
 N2514 N 0.62803 0.22419 0.71073
 N2515 N 0.60068 0.24156 0.70624
 C2516 C 0.58287 0.24566 0.71071
 C2517 C 0.57441 0.23635 0.72509
 N2518 N 0.58439 0.22356 0.73446
 H2519 H 0.63693 0.19185 0.74226
 H2520 H 0.57537 0.25588 0.70294
 C2521 C 1.12158 0.21889 0.23072
 C2522 C 1.11531 0.23551 0.22323
 N2523 N 1.12667 0.24509 0.21236
 C2524 C 1.14399 0.23875 0.20849
 C2525 C 1.15033 0.22189 0.21572
 N2526 N 1.13885 0.21246 0.22679
 N2527 N 1.11025 0.20936 0.24170
 C2528 C 1.09290 0.21568 0.24548
 C2529 C 1.08647 0.23229 0.23785
 N2530 N 1.09795 0.24180 0.22689
 H2531 H 1.15255 0.24691 0.19985
 H2532 H 1.08419 0.20770 0.25423
 C2533 C 0.15162 0.71692 0.54036
 C2534 C 0.16102 0.70495 0.52845
 N2535 N 0.15356 0.68878 0.52442
 C2536 C 0.13713 0.68405 0.53177
 C2537 C 0.12775 0.69602 0.54382
 N2538 N 0.13535 0.71218 0.54777
 N2539 N 0.15895 0.73306 0.54451
 C2540 C 0.17541 0.73774 0.53746
 C2541 C 0.18516 0.72569 0.52576
 N2542 N 0.17762 0.70954 0.52143
 H2543 H 0.13170 0.67097 0.52845
 H2544 H 0.18089 0.75072 0.54119
 C2545 C 0.15325 0.22938 1.04375
 C2546 C 0.16294 0.21869 1.03091
 N2547 N 0.15535 0.20346 1.02449
 C2548 C 0.13842 0.19846 1.03016
 C2549 C 0.12846 0.20923 1.04288
 N2550 N 0.13628 0.22443 1.04945
 N2551 N 0.16096 0.24454 1.05028
 C2552 C 0.17792 0.24949 1.04458
 C2553 C 0.18770 0.23881 1.03168
 N2554 N 0.17987 0.22362 1.02519
 H2555 H 0.13301 0.18608 1.02487
 H2556 H 0.18371 0.26163 1.05012
 C2557 C 0.64053 0.53610 0.22042
 C2558 C 0.65111 0.52390 0.20979
 N2559 N 0.64470 0.51866 0.19356
 C2560 C 0.62823 0.52517 0.18742
 C2561 C 0.61764 0.53765 0.19795
 N2562 N 0.62418 0.54268 0.21427
 N2563 N 0.64693 0.54151 0.23656
 C2564 C 0.66356 0.53539 0.24253
 C2565 C 0.67442 0.52334 0.23181
 N2566 N 0.66780 0.51783 0.21567
 H2567 H 0.62372 0.52083 0.17436
 H2568 H 0.66835 0.54013 0.25538
 C2569 C 0.63773 1.01867 0.70889
 C2570 C 0.64435 1.02654 0.72465
 N2571 N 0.63340 1.03844 0.73410
 C2572 C 0.61620 1.04301 0.72844
 C2573 C 0.60957 1.03542 0.71243
 N2574 N 0.62059 1.02328 0.70315
 N2575 N 0.64863 1.00670 0.69946
 C2576 C 0.66590 1.00231 0.70500
 C2577 C 0.67272 1.01032 0.72070
 N2578 N 0.66165 1.02225 0.73017
 H2579 H 0.60790 1.05242 0.73648
 H2580 H 0.67425 0.99277 0.69709
 C2581 C 0.85898 0.47096 0.28163
 C2582 C 0.84915 0.48433 0.29156
 N2583 N 0.85703 0.49196 0.30605
 C2584 C 0.87425 0.48672 0.31116
 C2585 C 0.88408 0.47308 0.30137
 N2586 N 0.87609 0.46566 0.28676
 N2587 N 0.85120 0.46327 0.26715
 C2588 C 0.83394 0.46832 0.26214
 C2589 C 0.82392 0.48164 0.27212
 N2590 N 0.83185 0.48935 0.28663
 H2591 H 0.88001 0.49311 0.32278
 H2592 H 0.82810 0.46185 0.25055
 C2593 C 0.85771 0.96412 0.77320
 C2594 C 0.84977 0.98089 0.77874
 N2595 N 0.85988 0.99262 0.78821
 C2596 C 0.87750 0.98825 0.79261
 C2597 C 0.88541 0.97123 0.78745
 N2598 N 0.87522 0.95967 0.77773
 N2599 N 0.84773 0.95246 0.76353
 C2600 C 0.83015 0.95683 0.75908
 C2601 C 0.82208 0.97360 0.76468
 N2602 N 0.83214 0.98523 0.77444
 H2603 H 0.88509 0.99801 0.80009
 H2604 H 0.82253 0.94724 0.75133
 C2605 C 0.38853 0.27313 0.78493
 C2606 C 0.39659 0.28393 0.77145
 N2607 N 0.38791 0.29956 0.76605
 C2608 C 0.37146 0.30490 0.77341
 C2609 C 0.36315 0.29409 0.78688
 N2610 N 0.37205 0.27843 0.79236
 N2611 N 0.39738 0.25758 0.79045
 C2612 C 0.41397 0.25241 0.78318
 C2613 C 0.42217 0.26329 0.76974
 N2614 N 0.41316 0.27881 0.76421
 H2615 H 0.36519 0.31762 0.76891
 H2616 H 0.42075 0.24002 0.78801
 C2617 C 0.90248 0.29830 0.28063
 C2618 C 0.91104 0.28309 0.28882
 N2619 N 0.90198 0.27380 0.30188
 C2620 C 0.88470 0.27900 0.30722
 C2621 C 0.87590 0.29431 0.29914
 N2622 N 0.88514 0.30356 0.28593
 N2623 N 0.91167 0.30752 0.26751
 C2624 C 0.92903 0.30220 0.26224
 C2625 C 0.93764 0.28690 0.27045
 N2626 N 0.92829 0.27779 0.28358
 H2627 H 0.87802 0.27107 0.31757
 H2628 H 0.93600 0.30983 0.25179
 C2629 C 0.37091 0.77204 0.48292
 C2630 C 0.36495 0.75495 0.47737
 N2631 N 0.37727 0.74279 0.46999
 C2632 C 0.39520 0.74703 0.46770
 C2633 C 0.40112 0.76430 0.47296
 N2634 N 0.38872 0.77628 0.48058
 N2635 N 0.35875 0.78426 0.49031
 C2636 C 0.34085 0.78018 0.49253
 C2637 C 0.33472 0.76306 0.48706
 N2638 N 0.34699 0.75082 0.47954
 H2639 H 0.40465 0.73703 0.46177
 H2640 H 0.33152 0.79027 0.49853
 C2641 C 0.37231 0.28458 0.98008
 C2642 C 0.36292 0.27207 0.96963
 N2643 N 0.37055 0.26607 0.95388
 C2644 C 0.38715 0.27192 0.94808
 C2645 C 0.39671 0.28446 0.95851
 N2646 N 0.38890 0.29049 0.97430
 N2647 N 0.36459 0.29075 0.99574
 C2648 C 0.34783 0.28515 1.00135
 C2649 C 0.33822 0.27277 0.99082
 N2650 N 0.34614 0.26648 0.97519
 H2651 H 0.39257 0.26698 0.93532
 H2652 H 0.34199 0.29050 1.01383
 C2653 C 0.77555 0.45485 0.35514
 C2654 C 0.78513 0.46965 0.34809
 N2655 N 0.79914 0.47644 0.35751
 C2656 C 0.80397 0.46923 0.37376
 C2657 C 0.79429 0.45449 0.38112
 N2658 N 0.78032 0.44762 0.37144
 N2659 N 0.76160 0.44802 0.34560
 C2660 C 0.75677 0.45534 0.32935
 C2661 C 0.76630 0.47027 0.32225
 N2662 N 0.78031 0.47700 0.33190
 H2663 H 0.81535 0.47495 0.38067
 H2664 H 0.74560 0.44955 0.32208
 C2665 C 0.77766 0.95451 0.84867
 C2666 C 0.78539 0.96982 0.84054
 N2667 N 0.79880 0.97862 0.84910
 C2668 C 0.80495 0.97280 0.86544
 C2669 C 0.79739 0.95734 0.87373
 N2670 N 0.78380 0.94863 0.86503
 N2671 N 0.76423 0.94571 0.84001
 C2672 C 0.75824 0.95153 0.82354
 C2673 C 0.76604 0.96687 0.81530
 N2674 N 0.77945 0.97559 0.82415
 H2675 H 0.81557 0.98031 0.87179
 H2676 H 0.74761 0.94418 0.81693
 C2677 C 0.29049 0.76831 0.39341
 C2678 C 0.27655 0.77862 0.40222
 N2679 N 0.26854 0.79305 0.39359
 C2680 C 0.27377 0.79770 0.37653
 C2681 C 0.28778 0.78742 0.36751
 N2682 N 0.29577 0.77292 0.37634
 N2683 N 0.29858 0.75392 0.40211
 C2684 C 0.29343 0.74943 0.41926
 C2685 C 0.27951 0.75980 0.42822
 N2686 N 0.27140 0.77416 0.41935
 H2687 H 0.26705 0.80936 0.37028
 H2688 H 0.30023 0.73793 0.42584
 C2689 C 0.29286 0.27910 0.89963
 C2690 C 0.27996 0.29002 0.90918
 N2691 N 0.27245 0.30507 0.90119
 C2692 C 0.27711 0.30970 0.88400
 C2693 C 0.28992 0.29872 0.87413
 N2694 N 0.29755 0.28366 0.88236
 N2695 N 0.30047 0.26412 0.90782
 C2696 C 0.29578 0.25962 0.92512
 C2697 C 0.28280 0.27057 0.93472
 N2698 N 0.27524 0.28553 0.92639
 H2699 H 0.27093 0.32195 0.87831
 H2700 H 0.30214 0.24766 0.93129
 C2701 C 0.47066 0.26978 0.85539
 C2702 C 0.48649 0.27665 0.84716
 N2703 N 0.49828 0.28623 0.85710
 C2704 C 0.49479 0.28957 0.87486
 C2705 C 0.47862 0.28321 0.88306
 N2706 N 0.46706 0.27328 0.87305
 N2707 N 0.45896 0.26003 0.84551
 C2708 C 0.46237 0.25683 0.82771
 C2709 C 0.47812 0.26388 0.81936
 N2710 N 0.48982 0.27363 0.82936
 H2711 H 0.50450 0.29725 0.88235
 H2712 H 0.45279 0.24900 0.82014
 C2713 C 0.97779 0.29418 0.35816
 C2714 C 0.96817 0.28096 0.34890
 N2715 N 0.95269 0.27425 0.35639
 C2716 C 0.94632 0.28017 0.37273
 C2717 C 0.95585 0.29355 0.38207
 N2718 N 0.97141 0.30018 0.37442
 N2719 N 0.99324 0.30099 0.35065
 C2720 C 0.99947 0.29522 0.33421
 C2721 C 0.98977 0.28207 0.32478
 N2722 N 0.97432 0.27525 0.33245
 H2723 H 0.93380 0.27465 0.37810
 H2724 H 1.01177 0.30101 0.32852
 C2725 C 0.46060 0.35748 0.77127
 C2726 C 0.47542 0.34866 0.77986
 N2727 N 0.48522 0.35787 0.79203
 C2728 C 0.48089 0.37555 0.79605
 C2729 C 0.46601 0.38459 0.78750
 N2730 N 0.45625 0.37519 0.77523
 N2731 N 0.45091 0.34822 0.75898
 C2732 C 0.45545 0.33056 0.75484
 C2733 C 0.47044 0.32171 0.76334
 N2734 N 0.47999 0.33109 0.77571
 H2735 H 0.48923 0.38241 0.80565
 H2736 H 0.44753 0.32358 0.74492
 C2737 C 0.98550 0.36848 0.28915
 C2738 C 0.97654 0.36142 0.27423
 N2739 N 0.96205 0.37086 0.26715
 C2740 C 0.95596 0.38696 0.27441
 C2741 C 0.96466 0.39399 0.28966
 N2742 N 0.97936 0.38448 0.29652
 N2743 N 0.99992 0.35900 0.29633
 C2744 C 1.00565 0.34263 0.28940
 C2745 C 0.99645 0.33527 0.27466
 N2746 N 0.98213 0.34500 0.26738
 H2747 H 0.94428 0.39390 0.26840
 H2748 H 1.01703 0.33530 0.29562
 C2749 C 0.27841 0.85416 0.46972
 C2750 C 0.28765 0.84691 0.48474
 N2751 N 0.29985 0.85724 0.49338
 C2752 C 0.30348 0.87439 0.48748
 C2753 C 0.29459 0.88150 0.47208
 N2754 N 0.28212 0.87115 0.46376
 N2755 N 0.26627 0.84394 0.46096
 C2756 C 0.26300 0.82666 0.46645
 C2757 C 0.27243 0.81914 0.48134
 N2758 N 0.28451 0.82955 0.49021
 H2759 H 0.31329 0.88220 0.49468
 H2760 H 0.25329 0.81884 0.45905
 C2761 C 0.28897 0.36445 0.97801
 C2762 C 0.27442 0.35547 0.97018
 N2763 N 0.26483 0.36375 0.95672
 C2764 C 0.26935 0.38053 0.95048
 C2765 C 0.28433 0.38939 0.95793
 N2766 N 0.29360 0.38108 0.97169
 N2767 N 0.29864 0.35618 0.99142
 C2768 C 0.29452 0.33917 0.99725
 C2769 C 0.28017 0.32993 0.98918
 N2770 N 0.27040 0.33843 0.97587
 H2771 H 0.26144 0.38665 0.93970
 H2772 H 0.30259 0.33284 1.00786
 C2773 C 0.78901 0.39312 0.27237
 C2774 C 0.77096 0.39843 0.27725
 N2775 N 0.76058 0.38694 0.28712
 C2776 C 0.76753 0.37050 0.29272
 C2777 C 0.78592 0.36537 0.28856
 N2778 N 0.79611 0.37682 0.27820
 N2779 N 0.79935 0.40463 0.26240
 C2780 C 0.79253 0.42132 0.25730
 C2781 C 0.77461 0.42692 0.26266
 N2782 N 0.76425 0.41520 0.27245
 H2783 H 0.75873 0.36174 0.30048
 H2784 H 0.80124 0.43031 0.24962
   
