data_POSCAR
  _audit_creation_date              2014-09-24
  _audit_creation_method            'ToBaCCo'
  _symmetry_space_group_name_H-M    'P1'
  _symmetry_Int_Tables_number       1
  _symmetry_cell_setting            triclinic
  loop_
  _symmetry_equiv_pos_as_xyz
 x,y,z
_cell_length_a 81.8641
_cell_length_b 81.0818
_cell_length_c 84.7478
_cell_angle_alpha 89.722700
_cell_angle_beta 89.636400
_cell_angle_gamma 89.253300
loop_
  _atom_site_label
  _atom_site_type_symbol
  _atom_site_fract_x
  _atom_site_fract_y
  _atom_site_fract_z
C1 C 0.41137 0.01486 0.27166
 H2 H 0.40996 0.02583 0.26446
 C3 C 0.42192 0.01487 0.28460
 H4 H 0.42864 0.02592 0.28724
 C5 C 0.40461 -0.01300 0.27672
 H6 H 0.39792 -0.02389 0.27356
 C7 C 0.41503 -0.01354 0.28969
 H8 H 0.41600 -0.02481 0.29655
 N9 N 0.40300 0.00103 0.26798
 C10 C 0.39498 -0.00359 0.21735
 H11 H 0.38188 -0.00514 0.21696
 C12 C 0.40405 -0.00360 0.20334
 H13 H 0.39786 -0.00529 0.19222
 C14 C 0.41892 0.00049 0.23230
 H15 H 0.42468 0.00224 0.24359
 C16 C 0.42849 0.00038 0.21858
 H17 H 0.44154 0.00217 0.21945
 Zn18 Zn 0.38926 0.00078 0.25002
 N19 N 0.40242 -0.00114 0.23144
 C20 C 0.37501 0.02895 0.23509
 N21 N 0.37668 0.02085 0.24910
 C22 C 0.37002 0.02721 0.26256
 C23 C 0.36129 0.04219 0.26220
 C24 C 0.36624 0.04379 0.23416
 C25 C 0.37895 -0.03167 0.24353
 C26 C 0.36985 -0.04597 0.24568
 C27 C 0.35327 -0.03152 0.26488
 C28 C 0.36277 -0.01752 0.26236
 N29 N 0.37534 -0.01781 0.25183
 H30 H 0.38046 0.02403 0.22450
 H31 H 0.37176 0.02081 0.27366
 H32 H 0.35644 0.04716 0.27312
 H33 H 0.36483 0.04967 0.22275
 H34 H 0.38915 -0.03180 0.23538
 H35 H 0.37304 -0.05627 0.23820
 H36 H 0.34405 -0.03061 0.27401
 H37 H 0.36035 -0.00652 0.26916
 C38 C 0.42101 -0.00135 0.20384
 C39 C 0.42391 0.00049 0.29376
 C40 C 0.35670 -0.04641 0.25667
 C41 C 0.35931 0.05075 0.24783
 C42 C 0.08505 0.01228 0.72798
 H43 H 0.08423 0.02218 0.73647
 C44 C 0.07545 0.01284 0.71437
 H45 H 0.06719 0.02320 0.71251
 C46 C 0.09664 -0.01336 0.72020
 H47 H 0.10508 -0.02345 0.72231
 C48 C 0.08720 -0.01335 0.70654
 H49 H 0.08853 -0.02347 0.69831
 N50 N 0.09518 -0.00083 0.73077
 C51 C 0.09989 -0.00373 0.78200
 H52 H 0.11306 -0.00420 0.78297
 C53 C 0.09018 -0.00380 0.79559
 H54 H 0.09598 -0.00451 0.80703
 C55 C 0.07639 -0.00235 0.76584
 H56 H 0.07105 -0.00184 0.75423
 C57 C 0.06620 -0.00253 0.77915
 H58 H 0.05308 -0.00191 0.77764
 Zn59 Zn 0.10731 -0.00153 0.74986
 N60 N 0.09292 -0.00264 0.76750
 C61 C 0.11634 0.02913 0.76282
 N62 N 0.11992 0.01809 0.75122
 C63 C 0.13175 0.02126 0.74031
 C64 C 0.14086 0.03575 0.74117
 C65 C 0.12504 0.04377 0.76405
 C66 C 0.11234 -0.03549 0.75110
 C67 C 0.12077 -0.05055 0.75087
 C68 C 0.14613 -0.03572 0.74967
 C69 C 0.13717 -0.02088 0.74993
 N70 N 0.12055 -0.02103 0.75035
 H71 H 0.10650 0.02682 0.77104
 H72 H 0.13415 0.01252 0.73095
 H73 H 0.15045 0.03782 0.73256
 H74 H 0.12169 0.05243 0.77323
 H75 H 0.09913 -0.03528 0.75155
 H76 H 0.11389 -0.06187 0.75101
 H77 H 0.15934 -0.03536 0.74934
 H78 H 0.14354 -0.00930 0.74971
 C79 C 0.07310 -0.00301 0.79428
 C80 C 0.07631 -0.00022 0.70355
 C81 C 0.13791 -0.05085 0.75003
 C82 C 0.13759 0.04725 0.75321
 C83 C 0.58467 0.51512 0.22777
 H84 H 0.58378 0.52540 0.23584
 C85 C 0.57526 0.51510 0.21405
 H86 H 0.56708 0.52539 0.21164
 C87 C 0.59622 0.48908 0.22123
 H88 H 0.60456 0.47905 0.22386
 C89 C 0.58697 0.48850 0.20748
 H90 H 0.58834 0.47800 0.19971
 N91 N 0.59464 0.50206 0.23127
 C92 C 0.59777 0.50099 0.28269
 H93 H 0.61088 0.50022 0.28411
 C94 C 0.58759 0.50172 0.29595
 H95 H 0.59298 0.50128 0.30759
 C96 C 0.57489 0.50233 0.26574
 H97 H 0.56995 0.50250 0.25396
 C98 C 0.56424 0.50301 0.27869
 H99 H 0.55121 0.50396 0.27670
 Zn100 Zn 0.60624 0.50192 0.25066
 N101 N 0.59134 0.50167 0.26794
 C102 C 0.61558 0.53282 0.26288
 N103 N 0.61912 0.52135 0.25165
 C104 C 0.63130 0.52387 0.24094
 C105 C 0.64097 0.53796 0.24179
 C106 C 0.62477 0.54714 0.26402
 C107 C 0.61106 0.46786 0.25287
 C108 C 0.61948 0.45278 0.25240
 C109 C 0.64482 0.46761 0.25085
 C110 C 0.63591 0.48244 0.25140
 N111 N 0.61929 0.48231 0.25195
 H112 H 0.60546 0.53104 0.27090
 H113 H 0.63365 0.51483 0.23184
 H114 H 0.65092 0.53939 0.23345
 H115 H 0.62148 0.55613 0.27293
 H116 H 0.59785 0.46808 0.25343
 H117 H 0.61261 0.44146 0.25254
 H118 H 0.65803 0.46795 0.25022
 H119 H 0.64231 0.49399 0.25112
 C120 C 0.57058 0.50296 0.29406
 C121 C 0.57616 0.50151 0.20383
 C122 C 0.63659 0.45250 0.25110
 C123 C 0.63784 0.54983 0.25353
 C124 C 0.90784 0.51313 0.77636
 H125 H 0.90205 0.52463 0.77288
 C126 C 0.91756 0.51255 0.78987
 H127 H 0.91927 0.52396 0.79615
 C128 C 0.91318 0.48489 0.77150
 H129 H 0.91121 0.47409 0.76435
 C130 C 0.92303 0.48372 0.78488
 H131 H 0.92804 0.47172 0.78784
 N132 N 0.90572 0.49938 0.76758
 C133 C 0.89699 0.49633 0.71685
 H134 H 0.88378 0.49632 0.71647
 C135 C 0.90599 0.49574 0.70281
 H136 H 0.89960 0.49502 0.69169
 C137 C 0.92129 0.49741 0.73181
 H138 H 0.92722 0.49835 0.74312
 C139 C 0.93078 0.49672 0.71803
 H140 H 0.94396 0.49715 0.71890
 Zn141 Zn 0.89177 0.49945 0.74977
 N142 N 0.90468 0.49730 0.73100
 C143 C 0.88076 0.52957 0.73575
 N144 N 0.87934 0.51977 0.74877
 C145 C 0.86955 0.52447 0.76105
 C146 C 0.86061 0.53931 0.76040
 C147 C 0.87188 0.54434 0.73451
 C148 C 0.87838 0.46841 0.74131
 C149 C 0.86911 0.45422 0.74352
 C150 C 0.85879 0.46559 0.76792
 C151 C 0.86828 0.47958 0.76526
 N152 N 0.87777 0.48084 0.75206
 H153 H 0.88885 0.52608 0.72622
 H154 H 0.86892 0.51693 0.77155
 H155 H 0.85321 0.54288 0.77048
 H156 H 0.87300 0.55156 0.72380
 H157 H 0.88635 0.46921 0.73117
 H158 H 0.86975 0.44457 0.73474
 H159 H 0.85161 0.46474 0.77866
 H160 H 0.86845 0.48917 0.77403
 C161 C 0.92312 0.49606 0.70327
 C162 C 0.92530 0.49762 0.79459
 C163 C 0.85920 0.45261 0.75701
 C164 C 0.86163 0.54950 0.74695
 C165 C 0.23467 0.38470 0.98353
 H166 H 0.24365 0.38433 0.97412
 C167 C 0.22036 0.39415 0.98175
 H168 H 0.21851 0.40104 0.97092
 C169 C 0.22573 0.37519 1.00856
 H170 H 0.22761 0.36743 1.01880
 C171 C 0.21126 0.38444 1.00726
 H172 H 0.20239 0.38401 1.01677
 N173 N 0.23704 0.37538 0.99673
 C174 C 0.28911 0.36192 0.99810
 H175 H 0.28790 0.34869 0.99917
 C176 C 0.30454 0.36899 0.99899
 H177 H 0.31507 0.36103 1.00086
 C178 C 0.27659 0.38824 0.99528
 H179 H 0.26563 0.39571 0.99411
 C180 C 0.29184 0.39585 0.99599
 H181 H 0.29241 0.40914 0.99496
 Zn182 Zn 0.25518 0.36045 0.99696
 N183 N 0.27552 0.37154 0.99630
 C184 C 0.26425 0.34559 0.96756
 N185 N 0.25273 0.34667 0.97915
 C186 C 0.23833 0.33859 0.97802
 C187 C 0.23508 0.32887 0.96490
 C188 C 0.26145 0.33605 0.95415
 C189 C 0.25730 0.35542 1.02964
 C190 C 0.25816 0.34649 1.04376
 C191 C 0.25482 0.32140 1.02895
 C192 C 0.25406 0.33081 1.01511
 N193 N 0.25516 0.34753 1.01570
 H194 H 0.27547 0.35238 0.96853
 H195 H 0.22931 0.33982 0.98734
 H196 H 0.22359 0.32244 0.96438
 H197 H 0.27059 0.33570 0.94486
 H198 H 0.25840 0.36871 1.02976
 H199 H 0.25963 0.35305 1.05474
 H200 H 0.25412 0.30810 1.02820
 H201 H 0.25287 0.32468 1.00391
 C202 C 0.30612 0.38622 0.99797
 C203 C 0.20828 0.39389 0.99360
 C204 C 0.25692 0.32922 1.04353
 C205 C 0.24664 0.32760 0.95263
 C206 C 0.76870 0.11786 0.98816
 H207 H 0.76056 0.11933 0.97823
 C208 C 0.78335 0.10898 0.98636
 H209 H 0.78608 0.10419 0.97476
 C210 C 0.77498 0.12387 1.01466
 H211 H 0.77174 0.12981 1.02565
 C212 C 0.78968 0.11495 1.01348
 H213 H 0.79692 0.11382 1.02404
 N214 N 0.76485 0.12519 1.00209
 C215 C 0.71203 0.13320 1.00523
 H216 H 0.71168 0.14644 1.00671
 C217 C 0.69763 0.12422 1.00637
 H218 H 0.68618 0.13070 1.00848
 C219 C 0.72749 0.10872 1.00085
 H220 H 0.73920 0.10271 0.99899
 C221 C 0.71333 0.09926 1.00179
 H222 H 0.71430 0.08598 1.00065
 Zn223 Zn 0.74562 0.13858 1.00284
 N224 N 0.72659 0.12539 1.00255
 C225 C 0.73390 0.15241 0.97418
 N226 N 0.74619 0.15269 0.98489
 C227 C 0.75970 0.16197 0.98238
 C228 C 0.76128 0.17139 0.96860
 C229 C 0.73499 0.16160 0.96024
 C230 C 0.74068 0.14260 1.03520
 C231 C 0.73785 0.15101 1.04931
 C232 C 0.74362 0.17660 1.03581
 C233 C 0.74607 0.16772 1.02185
 N234 N 0.74456 0.15101 1.02179
 H235 H 0.72339 0.14476 0.97622
 H236 H 0.76946 0.16171 0.99093
 H237 H 0.77231 0.17836 0.96663
 H238 H 0.72509 0.16115 0.95185
 H239 H 0.73935 0.12935 1.03480
 H240 H 0.73456 0.14412 1.05982
 H241 H 0.74462 0.18990 1.03565
 H242 H 0.74882 0.17425 1.01104
 C243 C 0.69815 0.10699 1.00474
 C244 C 0.79441 0.10741 0.99907
 C245 C 0.73918 0.16823 1.04970
 C246 C 0.74890 0.17111 0.95720
 C247 C 0.26176 0.61899 0.48916
 H248 H 0.25307 0.61992 0.47962
 C249 C 0.27627 0.60996 0.48709
 H250 H 0.27847 0.60369 0.47601
 C251 C 0.26945 0.62628 0.51508
 H252 H 0.26693 0.63298 0.52583
 C253 C 0.28411 0.61734 0.51352
 H254 H 0.29271 0.61725 0.52317
 N255 N 0.25863 0.62694 0.50297
 C256 C 0.20583 0.63584 0.50554
 H257 H 0.20574 0.64904 0.50739
 C258 C 0.19119 0.62718 0.50606
 H259 H 0.17983 0.63383 0.50811
 C260 C 0.22084 0.61116 0.50081
 H261 H 0.23244 0.60491 0.49910
 C262 C 0.20644 0.60203 0.50104
 H263 H 0.20711 0.58880 0.49944
 Zn264 Zn 0.23958 0.64056 0.50391
 N265 N 0.22028 0.62778 0.50299
 C266 C 0.22931 0.65481 0.47486
 N267 N 0.24082 0.65508 0.48636
 C268 C 0.25435 0.66454 0.48489
 C269 C 0.25676 0.67420 0.47140
 C270 C 0.23133 0.66413 0.46110
 C271 C 0.23563 0.64368 0.53651
 C272 C 0.23347 0.65167 0.55095
 C273 C 0.23777 0.67773 0.53773
 C274 C 0.23963 0.66925 0.52348
 N275 N 0.23860 0.65251 0.52314
 H276 H 0.21881 0.64697 0.47611
 H277 H 0.26350 0.66423 0.49404
 H278 H 0.26781 0.68133 0.47024
 H279 H 0.22221 0.66357 0.45192
 H280 H 0.23467 0.63041 0.53589
 H281 H 0.23105 0.64444 0.56147
 H282 H 0.23845 0.69106 0.53779
 H283 H 0.24160 0.67611 0.51271
 C284 C 0.19137 0.61003 0.50382
 C285 C 0.28775 0.60912 0.49932
 C286 C 0.23447 0.66893 0.55166
 C287 C 0.24530 0.67384 0.45917
 C288 C 0.73468 0.88264 0.48486
 H289 H 0.74367 0.88269 0.47545
 C290 C 0.72021 0.89185 0.48329
 H291 H 0.71823 0.89901 0.47265
 C292 C 0.72597 0.87236 0.50969
 H293 H 0.72807 0.86443 0.51978
 C294 C 0.71128 0.88130 0.50856
 H295 H 0.70238 0.88045 0.51802
 N296 N 0.73727 0.87309 0.49787
 C297 C 0.78976 0.86152 0.49821
 H298 H 0.78910 0.84822 0.49892
 C299 C 0.80490 0.86920 0.49908
 H300 H 0.81578 0.86163 0.50051
 C301 C 0.77614 0.88740 0.49644
 H302 H 0.76489 0.89446 0.49574
 C303 C 0.79107 0.89561 0.49717
 H304 H 0.79110 0.90895 0.49660
 Zn305 Zn 0.75587 0.85877 0.49780
 N306 N 0.77576 0.87063 0.49695
 C307 C 0.76493 0.84478 0.46804
 N308 N 0.75365 0.84505 0.47989
 C309 C 0.73958 0.83641 0.47882
 C310 C 0.73638 0.82701 0.46545
 C311 C 0.76219 0.83560 0.45439
 C312 C 0.75949 0.85401 0.53025
 C313 C 0.76155 0.84528 0.54436
 C314 C 0.75758 0.81992 0.53013
 C315 C 0.75576 0.82913 0.51624
 N316 N 0.75667 0.84588 0.51656
 H317 H 0.77586 0.85204 0.46895
 H318 H 0.73071 0.83701 0.48832
 H319 H 0.72513 0.82018 0.46494
 H320 H 0.77110 0.83595 0.44491
 H321 H 0.76038 0.86731 0.53013
 H322 H 0.76374 0.85199 0.55515
 H323 H 0.75701 0.80660 0.52965
 H324 H 0.75395 0.82284 0.50521
 C325 C 0.80576 0.88651 0.49862
 C326 C 0.70815 0.89107 0.49513
 C327 C 0.76066 0.82800 0.54441
 C328 C 0.74766 0.82666 0.45289
 C329 C 0.00252 0.27425 0.38021
 H330 H 0.01229 0.26596 0.38377
 C331 C 0.00064 0.28947 0.38751
 H332 H 0.00878 0.29262 0.39701
 C333 C -0.01973 0.28016 0.36321
 H334 H -0.02726 0.27664 0.35339
 C335 C -0.02193 0.29567 0.37007
 H336 H -0.03124 0.30396 0.36550
 N337 N -0.00755 0.26993 0.36831
 C338 C 0.00326 0.21771 0.36568
 H339 H 0.00666 0.21692 0.35335
 C340 C 0.00377 0.20367 0.37516
 H341 H 0.00718 0.19213 0.36963
 C342 C -0.00643 0.23384 0.38706
 H343 H -0.01058 0.24562 0.39158
 C344 C -0.00622 0.22009 0.39700
 H345 H -0.00961 0.22190 0.40922
 Zn346 Zn -0.00179 0.25042 0.35783
 N347 N -0.00151 0.23244 0.37180
 C348 C 0.03234 0.24600 0.35566
 N349 N 0.01912 0.25402 0.34953
 C350 C 0.02075 0.26635 0.33874
 C351 C 0.03621 0.27096 0.33352
 C352 C 0.04803 0.25035 0.35091
 C353 C -0.03231 0.24291 0.34712
 C354 C -0.04437 0.23865 0.33646
 C355 C -0.02422 0.23950 0.31548
 C356 C -0.01249 0.24372 0.32660
 N357 N -0.01681 0.24553 0.34203
 H358 H 0.03079 0.23666 0.36465
 H359 H 0.01002 0.27286 0.33449
 H360 H 0.03738 0.28093 0.32505
 H361 H 0.05848 0.24395 0.35593
 H362 H -0.03528 0.24422 0.35951
 H363 H -0.05675 0.23705 0.34071
 H364 H -0.02068 0.23812 0.30322
 H365 H 0.00004 0.24538 0.32292
 C366 C -0.00092 0.20461 0.39120
 C367 C -0.01145 0.30058 0.38220
 C368 C -0.04039 0.23692 0.32042
 C369 C 0.05005 0.26303 0.33979
 C370 C 0.01544 0.73086 0.10608
 H371 H 0.02521 0.73963 0.10729
 C372 C 0.01610 0.71916 0.09409
 H373 H 0.02631 0.71921 0.08593
 C374 C -0.00983 0.72044 0.11525
 H375 H -0.01977 0.72082 0.12369
 C376 C -0.00950 0.70830 0.10370
 H377 H -0.01918 0.69934 0.10357
 N378 N 0.00247 0.73146 0.11614
 C379 C 0.00082 0.78153 0.13394
 H380 H -0.00021 0.77907 0.14646
 C381 C 0.00009 0.79772 0.12838
 H382 H -0.00146 0.80775 0.13667
 C383 C 0.00325 0.77135 0.10783
 H384 H 0.00403 0.76107 0.09982
 C385 C 0.00248 0.78732 0.10176
 H386 H 0.00313 0.78919 0.08911
 Zn387 Zn 0.00209 0.74731 0.13217
 N388 N 0.00258 0.76877 0.12368
 C389 C 0.03031 0.75565 0.14904
 N390 N 0.02001 0.74326 0.14535
 C391 C 0.02240 0.72764 0.15092
 C392 C 0.03547 0.72408 0.16093
 C393 C 0.04328 0.75271 0.15922
 C394 C -0.03104 0.75107 0.13595
 C395 C -0.04596 0.75205 0.14382
 C396 C -0.03260 0.74218 0.16745
 C397 C -0.01789 0.74158 0.15909
 N398 N -0.01742 0.74603 0.14366
 H399 H 0.02851 0.76783 0.14415
 H400 H 0.01410 0.71801 0.14760
 H401 H 0.03730 0.71165 0.16538
 H402 H 0.05136 0.76270 0.16215
 H403 H -0.03016 0.75486 0.12372
 H404 H -0.05600 0.75723 0.13716
 H405 H -0.03228 0.73777 0.17948
 H406 H -0.00683 0.73766 0.16499
 C407 C 0.00084 0.80071 0.11209
 C408 C 0.00353 0.70760 0.09282
 C409 C -0.04718 0.74773 0.16003
 C410 C 0.04588 0.73681 0.16530
 C411 C 0.51260 0.22587 0.61137
 H412 H 0.52342 0.23334 0.61213
 C413 C 0.51289 0.21148 0.60246
 H414 H 0.52406 0.20783 0.59645
 C415 C 0.48508 0.22125 0.61893
 H416 H 0.47436 0.22496 0.62555
 C417 C 0.48482 0.20680 0.61013
 H418 H 0.47372 0.19969 0.60982
 N419 N 0.49881 0.23050 0.61928
 C420 C 0.50014 0.28327 0.62603
 H421 H 0.49811 0.28383 0.63864
 C422 C 0.50112 0.29776 0.61722
 H423 H 0.49972 0.30952 0.62311
 C424 C 0.50377 0.26714 0.60296
 H425 H 0.50459 0.25519 0.59743
 C426 C 0.50479 0.28134 0.59368
 H427 H 0.50664 0.28019 0.58106
 Zn428 Zn 0.49970 0.24958 0.63164
 N429 N 0.50166 0.26838 0.61883
 C430 C 0.52868 0.25972 0.64626
 N431 N 0.51776 0.24732 0.64500
 C432 C 0.51982 0.23278 0.65286
 C433 C 0.53336 0.23028 0.66253
 C434 C 0.54220 0.25785 0.65599
 C435 C 0.46654 0.25568 0.63566
 C436 C 0.45188 0.25775 0.64386
 C437 C 0.46643 0.25311 0.66827
 C438 C 0.48082 0.25109 0.65959
 N439 N 0.48053 0.25215 0.64358
 H440 H 0.52704 0.27102 0.63967
 H441 H 0.51098 0.22310 0.65148
 H442 H 0.53499 0.21864 0.66867
 H443 H 0.55089 0.26777 0.65682
 H444 H 0.46679 0.25669 0.62293
 H445 H 0.44075 0.26005 0.63733
 H446 H 0.46682 0.25220 0.68102
 H447 H 0.49218 0.24866 0.66564
 C448 C 0.50349 0.29687 0.60084
 C449 C 0.49887 0.20174 0.60181
 C450 C 0.45170 0.25634 0.66038
 C451 C 0.54464 0.24298 0.66419
 C452 C 0.50732 0.77185 0.88881
 H453 H 0.51899 0.76549 0.88949
 C454 C 0.50422 0.78559 0.89817
 H455 H 0.51367 0.78990 0.90597
 C456 C 0.48105 0.77425 0.87730
 H457 H 0.47218 0.76993 0.86895
 C458 C 0.47746 0.78813 0.88640
 H459 H 0.46570 0.79427 0.88519
 N460 N 0.49571 0.76633 0.87883
 C461 C 0.50911 0.71505 0.87257
 H462 H 0.50995 0.71469 0.85983
 C463 C 0.51139 0.70067 0.88135
 H464 H 0.51385 0.68918 0.87529
 C465 C 0.50393 0.73042 0.89586
 H466 H 0.50065 0.74195 0.90142
 C467 C 0.50610 0.71632 0.90512
 H468 H 0.50476 0.71718 0.91781
 Zn469 Zn 0.50145 0.74777 0.86682
 N470 N 0.50553 0.72952 0.87991
 C471 C 0.53424 0.74436 0.85696
 N472 N 0.52012 0.75310 0.85507
 C473 C 0.51904 0.76597 0.84477
 C474 C 0.53231 0.76991 0.83514
 C475 C 0.54780 0.74790 0.84763
 C476 C 0.46996 0.73791 0.86009
 C477 C 0.45678 0.73367 0.85072
 C478 C 0.47408 0.73649 0.82765
 C479 C 0.48690 0.74081 0.83747
 N480 N 0.48449 0.74184 0.85332
 H481 H 0.53501 0.73458 0.86562
 H482 H 0.50769 0.77286 0.84376
 H483 H 0.53110 0.77979 0.82657
 H484 H 0.55895 0.74076 0.84920
 H485 H 0.46856 0.73845 0.87278
 H486 H 0.44509 0.73136 0.85629
 H487 H 0.47614 0.73586 0.81503
 H488 H 0.49875 0.74329 0.83239
 C489 C 0.50977 0.70120 0.89783
 C490 C 0.48911 0.79386 0.89706
 C491 C 0.45870 0.73316 0.83425
 C492 C 0.54681 0.76060 0.83634
 C493 C -0.23702 0.65278 0.96953
 H494 H -0.22656 0.64461 0.97067
 C495 C -0.23880 0.66242 0.95590
 H496 H -0.22964 0.66147 0.94666
 C497 C -0.26210 0.66316 0.97972
 H498 H -0.27122 0.66323 0.98901
 C499 C -0.26434 0.67304 0.96633
 H500 H -0.27512 0.68087 0.96557
 N501 N -0.24858 0.65336 0.98112
 C502 C -0.24421 0.64415 1.03165
 H503 H -0.24408 0.63081 1.03165
 C504 C -0.24204 0.65265 1.04575
 H505 H -0.24096 0.64541 1.05645
 C506 C -0.24638 0.66924 1.01745
 H507 H -0.24754 0.67567 1.00631
 C508 C -0.24439 0.67829 1.03131
 H509 H -0.24393 0.69157 1.03029
 Zn510 Zn -0.24719 0.63958 0.99925
 N511 N -0.24630 0.65248 1.01787
 C512 C -0.21338 0.63503 0.99983
 N513 N -0.22762 0.62665 0.99890
 C514 C -0.22770 0.60987 0.99900
 C515 C -0.21301 0.60088 1.00002
 C516 C -0.19846 0.62656 1.00091
 C517 C -0.27754 0.62746 1.01097
 C518 C -0.29208 0.61863 1.01015
 C519 C -0.28284 0.60706 0.98541
 C520 C -0.26853 0.61621 0.98664
 N521 N -0.26611 0.62613 0.99929
 H522 H -0.21366 0.64838 0.99995
 H523 H -0.23915 0.60340 0.99866
 H524 H -0.21335 0.58754 1.00038
 H525 H -0.18728 0.63352 1.00154
 H526 H -0.27559 0.63567 1.02076
 H527 H -0.30103 0.61988 1.01954
 H528 H -0.28462 0.59945 0.97512
 H529 H -0.25944 0.61564 0.97733
 C530 C -0.24196 0.67009 1.04588
 C531 C -0.25265 0.67269 0.95412
 C532 C -0.29493 0.60830 0.99720
 C533 C -0.19812 0.60924 1.00112
 C534 C -0.24345 0.33726 0.52041
 H535 H -0.23376 0.33611 0.51171
 C536 C -0.24303 0.32803 0.53357
 H537 H -0.23307 0.31926 0.53486
 C538 C -0.26865 0.35008 0.52778
 H539 H -0.27849 0.35879 0.52570
 C540 C -0.26868 0.34028 0.54248
 H541 H -0.27847 0.34284 0.55076
 N542 N -0.25687 0.34842 0.51751
 C543 C -0.25938 0.35468 0.46627
 H544 H -0.26057 0.36797 0.46563
 C545 C -0.25843 0.34547 0.45242
 H546 H -0.25881 0.35186 0.44118
 C547 C -0.25662 0.33045 0.48180
 H548 H -0.25595 0.32463 0.49326
 C549 C -0.25568 0.32073 0.46821
 H550 H -0.25441 0.30748 0.46942
 Zn551 Zn -0.25724 0.36114 0.49854
 N552 N -0.25803 0.34716 0.48059
 C553 C -0.22705 0.37106 0.48529
 N554 N -0.23770 0.37379 0.49743
 C555 C -0.23422 0.38484 0.50893
 C556 C -0.21985 0.39402 0.50818
 C557 C -0.21258 0.37989 0.48411
 C558 C -0.29091 0.36708 0.49689
 C559 C -0.30564 0.37594 0.49771
 C560 C -0.29033 0.40085 0.50111
 C561 C -0.27588 0.39148 0.50011
 N562 N -0.27641 0.37484 0.49838
 H563 H -0.22955 0.36180 0.47657
 H564 H -0.24264 0.38655 0.51870
 H565 H -0.21748 0.40296 0.51730
 H566 H -0.20424 0.37725 0.47445
 H567 H -0.29103 0.35386 0.49525
 H568 H -0.31673 0.36912 0.49600
 H569 H -0.28915 0.41388 0.50336
 H570 H -0.26427 0.39753 0.50111
 C571 C -0.25631 0.32825 0.45324
 C572 C -0.25642 0.32942 0.54562
 C573 C -0.30575 0.39319 0.50016
 C574 C -0.20881 0.39166 0.49557
 C575 C 0.26496 -0.15106 0.03099
 H576 H 0.27573 -0.14436 0.02749
 C577 C 0.26518 -0.16012 0.04425
 H578 H 0.27639 -0.16061 0.05093
 C579 C 0.23816 -0.15968 0.02454
 H580 H 0.22771 -0.15958 0.01686
 C581 C 0.23779 -0.16979 0.03906
 H582 H 0.22651 -0.17603 0.04170
 N583 N 0.25076 -0.15070 0.02111
 C584 C 0.24296 -0.14622 -0.02911
 H585 H 0.23790 -0.13386 -0.02988
 C586 C 0.24355 -0.15620 -0.04250
 H587 H 0.23890 -0.15138 -0.05355
 C588 C 0.25593 -0.16716 -0.01391
 H589 H 0.26097 -0.17125 -0.00278
 C590 C 0.25681 -0.17753 -0.02702
 H591 H 0.26224 -0.18971 -0.02575
 Zn592 Zn 0.24983 -0.13750 0.00244
 N593 N 0.24915 -0.15181 -0.01519
 C594 C 0.27753 -0.12490 -0.01331
 N595 N 0.26885 -0.12410 0.00043
 C596 C 0.27385 -0.11437 0.01247
 C597 C 0.28825 -0.10530 0.01107
 C598 C 0.29181 -0.11589 -0.01529
 C599 C 0.21597 -0.13178 -0.00022
 C600 C 0.20113 -0.12316 0.00102
 C601 C 0.21596 -0.09903 0.00874
 C602 C 0.23054 -0.10818 0.00734
 N603 N 0.23030 -0.12432 0.00313
 H604 H 0.27343 -0.13258 -0.02283
 H605 H 0.26686 -0.11394 0.02334
 H606 H 0.29222 -0.09809 0.02102
 H607 H 0.29824 -0.11661 -0.02647
 H608 H 0.21603 -0.14451 -0.00397
 H609 H 0.19021 -0.12960 -0.00229
 H610 H 0.21682 -0.08648 0.01285
 H611 H 0.24200 -0.10239 0.00998
 C612 C 0.25067 -0.17206 -0.04160
 C613 C 0.25064 -0.17001 0.04902
 C614 C 0.20074 -0.10646 0.00577
 C615 C 0.29755 -0.10605 -0.00295
 C616 C 0.26609 1.16262 0.47689
 H617 H 0.27600 1.16304 0.48526
 C618 C 0.26654 1.17244 0.46326
 H619 H 0.27693 1.18028 0.46115
 C620 C 0.24071 1.15154 0.46928
 H621 H 0.23070 1.14332 0.47154
 C622 C 0.24069 1.16107 0.45554
 H623 H 0.23049 1.16021 0.44753
 N624 N 0.25321 1.15256 0.47973
 C625 C 0.24940 1.14547 0.53068
 H626 H 0.24823 1.13220 0.53106
 C627 C 0.24906 1.15449 0.54466
 H628 H 0.24774 1.14800 0.55578
 C629 C 0.25298 1.16990 0.51566
 H630 H 0.25437 1.17588 0.50434
 C631 C 0.25276 1.17941 0.52940
 H632 H 0.25393 1.19267 0.52848
 Zn633 Zn 0.25270 1.13951 0.49845
 N634 N 0.25158 1.15320 0.51657
 C635 C 0.28271 1.12855 0.51151
 N636 N 0.27221 1.12631 0.49933
 C637 C 0.27590 1.11549 0.48757
 C638 C 0.29041 1.10612 0.48802
 C639 C 0.29734 1.11955 0.51237
 C640 C 0.21911 1.13481 0.50072
 C641 C 0.20422 1.12665 0.49995
 C642 C 0.21900 1.10127 0.49482
 C643 C 0.23366 1.10993 0.49582
 N644 N 0.23345 1.12648 0.49843
 H645 H 0.27997 1.13758 0.52049
 H646 H 0.26760 1.11416 0.47779
 H647 H 0.29293 1.09739 0.47867
 H648 H 0.30557 1.12188 0.52202
 H649 H 0.21925 1.14794 0.50292
 H650 H 0.19303 1.13361 0.50190
 H651 H 0.21947 1.08822 0.49221
 H652 H 0.24514 1.10344 0.49419
 C653 C 0.25086 1.17169 0.54416
 C654 C 0.25371 1.17172 0.45236
 C655 C 0.20396 1.10967 0.49671
 C656 C 0.30139 1.10807 0.50057
 C657 C 0.13097 0.48427 0.26378
 H658 H 0.13095 0.49332 0.27306
 C659 C 0.14059 0.46999 0.26537
 H660 H 0.14784 0.46829 0.27590
 C661 C 0.12215 0.47583 0.23859
 H662 H 0.11515 0.47816 0.22805
 C663 C 0.13165 0.46138 0.23967
 H664 H 0.13150 0.45266 0.23005
 N665 N 0.12170 0.48681 0.25070
 C666 C 0.11714 0.53836 0.25972
 H667 H 0.10635 0.53797 0.26712
 C668 C 0.12627 0.55280 0.25891
 H669 H 0.12265 0.56321 0.26614
 C670 C 0.13468 0.52543 0.24107
 H671 H 0.13765 0.51480 0.23388
 C672 C 0.14409 0.53964 0.23983
 H673 H 0.15426 0.53978 0.23161
 Zn674 Zn 0.10797 0.50612 0.24996
 N675 N 0.12142 0.52506 0.25081
 C676 C 0.09942 0.50809 0.28234
 N677 N 0.09327 0.50577 0.26764
 C678 C 0.07706 0.50295 0.26558
 C679 C 0.06648 0.50200 0.27859
 C680 C 0.08927 0.50741 0.29562
 C681 C 0.09680 0.52139 0.22203
 C682 C 0.08835 0.52311 0.20786
 C683 C 0.07794 0.49569 0.21157
 C684 C 0.08654 0.49461 0.22578
 N685 N 0.09591 0.50728 0.23067
 H686 H 0.11222 0.51070 0.28379
 H687 H 0.07224 0.50133 0.25388
 H688 H 0.05363 0.49975 0.27670
 H689 H 0.09449 0.50916 0.30720
 H690 H 0.10417 0.53147 0.22605
 H691 H 0.09040 0.53435 0.20131
 H692 H 0.07028 0.48540 0.20872
 H693 H 0.08567 0.48359 0.23298
 C694 C 0.13986 0.55368 0.24871
 C695 C 0.14090 0.45820 0.25329
 C696 C 0.07865 0.51014 0.20206
 C697 C 0.07257 0.50423 0.29386
 C698 C -0.13197 1.02072 0.26487
 H699 H -0.13235 1.01176 0.27436
 C700 C -0.14083 1.03553 0.26616
 H701 H -0.14823 1.03775 0.27659
 C702 C -0.12160 1.02879 0.23989
 H703 H -0.11372 1.02638 0.22987
 C704 C -0.13029 1.04371 0.24067
 H705 H -0.12903 1.05257 0.23115
 N706 N -0.12258 1.01763 0.25188
 C707 C -0.11392 0.96417 0.25161
 H708 H -0.10070 0.96402 0.25157
 C709 C -0.12238 0.94937 0.25058
 H710 H -0.11553 0.93790 0.24973
 C711 C -0.13876 0.97947 0.25196
 H712 H -0.14507 0.99125 0.25220
 C713 C -0.14773 0.96493 0.25090
 H714 H -0.16094 0.96569 0.25070
 Zn715 Zn -0.10930 0.99821 0.25181
 N716 N -0.12214 0.97883 0.25230
 C717 C -0.09667 0.98808 0.28165
 N718 N -0.09567 0.99938 0.26978
 C719 C -0.08561 1.01253 0.27084
 C720 C -0.07575 1.01454 0.28406
 C721 C -0.08715 0.98971 0.29518
 C722 C -0.10502 0.99547 0.21937
 C723 C -0.09679 0.99410 0.20497
 C724 C -0.07122 0.99557 0.21887
 C725 C -0.08001 0.99693 0.23303
 N726 N -0.09661 0.99706 0.23301
 H727 H -0.10510 0.97798 0.28080
 H728 H -0.08526 1.02150 0.26135
 H729 H -0.06760 1.02493 0.28444
 H730 H -0.08846 0.98078 0.30462
 H731 H -0.11822 0.99513 0.21972
 H732 H -0.10411 0.99224 0.19458
 H733 H -0.05806 0.99616 0.21946
 H734 H -0.07349 0.99783 0.24403
 C735 C -0.13954 0.94959 0.25012
 C736 C -0.13998 1.04732 0.25399
 C737 C -0.07952 0.99423 0.20435
 C738 C -0.07646 1.00307 0.29654
 C739 C 0.37015 0.51688 -0.23358
 H740 H 0.36985 0.50770 -0.22427
 C741 C 0.36133 0.53167 -0.23189
 H742 H 0.35402 0.53362 -0.22136
 C743 C 0.38026 0.52547 -0.25849
 H744 H 0.38800 0.52322 -0.26865
 C745 C 0.37164 0.54042 -0.25730
 H746 H 0.37286 0.54948 -0.26664
 N747 N 0.37939 0.51406 -0.24671
 C748 C 0.38855 0.45986 -0.24828
 H749 H 0.40177 0.45987 -0.24851
 C750 C 0.38056 0.44568 -0.24980
 H751 H 0.38776 0.43457 -0.25158
 C752 C 0.36389 0.47572 -0.24711
 H753 H 0.35748 0.48744 -0.24663
 C754 C 0.35450 0.46033 -0.24862
 H755 H 0.34134 0.46144 -0.24809
 Zn756 Zn 0.39261 0.49461 -0.24730
 N757 N 0.37978 0.47524 -0.24694
 C758 C 0.40574 0.48370 -0.21795
 N759 N 0.40656 0.49533 -0.22953
 C760 C 0.41675 0.50837 -0.22833
 C761 C 0.42698 0.50986 -0.21529
 C762 C 0.41560 0.48482 -0.20460
 C763 C 0.39636 0.49165 -0.27980
 C764 C 0.40443 0.48955 -0.29422
 C765 C 0.43020 0.49178 -0.28072
 C766 C 0.42162 0.49366 -0.26650
 N767 N 0.40499 0.49365 -0.26631
 H768 H 0.39722 0.47369 -0.21890
 H769 H 0.41696 0.51761 -0.23757
 H770 H 0.43526 0.52014 -0.21484
 H771 H 0.41443 0.47562 -0.19539
 H772 H 0.38316 0.49144 -0.27930
 H773 H 0.39733 0.48800 -0.30484
 H774 H 0.44342 0.49163 -0.28067
 H775 H 0.42831 0.49479 -0.25563
 C776 C 0.36230 0.44556 -0.25006
 C777 C 0.36209 0.54376 -0.24381
 C778 C 0.42157 0.48953 -0.29480
 C779 C 0.42649 0.49801 -0.20313
 C780 C 0.63298 -0.01728 -0.23797
 H781 H 0.63258 -0.00814 -0.22871
 C782 C 0.64193 -0.03111 -0.23613
 H783 H 0.64901 -0.03252 -0.22547
 C784 C 0.62418 -0.02515 -0.26355
 H785 H 0.61679 -0.02320 -0.27391
 C786 C 0.63418 -0.04039 -0.26222
 H787 H 0.63348 -0.04907 -0.27182
 N788 N 0.62379 -0.01446 -0.25214
 C789 C 0.61353 0.03861 -0.25518
 H790 H 0.60033 0.03836 -0.25560
 C791 C 0.62159 0.05363 -0.25653
 H792 H 0.61415 0.06457 -0.25836
 C793 C 0.63869 0.02411 -0.25353
 H794 H 0.64531 0.01254 -0.25245
 C795 C 0.64731 0.03887 -0.25494
 H796 H 0.66048 0.03815 -0.25429
 Zn797 Zn 0.60981 0.00452 -0.25288
 N798 N 0.62210 0.02426 -0.25359
 C799 C 0.59694 0.01621 -0.22367
 N800 N 0.59649 0.00386 -0.23445
 C801 C 0.58732 -0.00978 -0.23188
 C802 C 0.57808 -0.01138 -0.21803
 C803 C 0.58793 0.01510 -0.20965
 C804 C 0.60457 0.00576 -0.28544
 C805 C 0.59574 0.00634 -0.29947
 C806 C 0.57076 0.00504 -0.28422
 C807 C 0.58010 0.00437 -0.27045
 N808 N 0.59671 0.00454 -0.27131
 H809 H 0.60451 0.02682 -0.22575
 H810 H 0.58740 -0.01957 -0.24052
 H811 H 0.57113 -0.02249 -0.21607
 H812 H 0.58846 0.02508 -0.20123
 H813 H 0.61777 0.00631 -0.28577
 H814 H 0.60226 0.00732 -0.31059
 H815 H 0.55757 0.00466 -0.28335
 H816 H 0.57403 0.00384 -0.25911
 C817 C 0.63885 0.05413 -0.25644
 C818 C 0.64272 -0.04371 -0.24892
 C819 C 0.57860 0.00592 -0.29899
 C820 C 0.57844 0.00110 -0.20661
 C821 C 0.01975 0.27129 0.86837
 H822 H 0.01320 0.28241 0.87173
 C823 C 0.03349 0.27224 0.85865
 H824 H 0.03743 0.28416 0.85440
 C825 C 0.02250 0.24216 0.86988
 H826 H 0.01830 0.23051 0.87450
 C827 C 0.03629 0.24253 0.86018
 H828 H 0.04268 0.23111 0.85746
 N829 N 0.01451 0.25641 0.87366
 C830 C -0.03700 0.26216 0.88377
 H831 H -0.03728 0.25893 0.89616
 C832 C -0.05155 0.26458 0.87561
 H833 H -0.06306 0.26348 0.88186
 C834 C -0.02159 0.26675 0.86039
 H835 H -0.00993 0.26697 0.85439
 C836 C -0.03585 0.26921 0.85176
 H837 H -0.03498 0.27133 0.83916
 Zn838 Zn -0.00374 0.25627 0.88707
 N839 N -0.02245 0.26308 0.87604
 C840 C -0.00948 0.28351 0.90689
 N841 N 0.00060 0.27046 0.90390
 C842 C 0.01462 0.26795 0.91215
 C843 C 0.01893 0.27883 0.92408
 C844 C -0.00565 0.29468 0.91866
 C845 C -0.01373 0.22407 0.88358
 C846 C -0.01734 0.20796 0.88804
 C847 C -0.00843 0.21424 0.91447
 C848 C -0.00523 0.23030 0.90955
 N849 N -0.00770 0.23479 0.89428
 H850 H -0.02028 0.28557 0.89987
 H851 H 0.02257 0.25762 0.90926
 H852 H 0.03015 0.27671 0.93052
 H853 H -0.01357 0.30530 0.92051
 H854 H -0.01580 0.22811 0.87157
 H855 H -0.02236 0.19970 0.87938
 H856 H -0.00586 0.21076 0.92656
 H857 H -0.00070 0.23908 0.91793
 C858 C -0.05106 0.26773 0.85931
 C859 C 0.04193 0.25772 0.85448
 C860 C -0.01457 0.20282 0.90365
 C861 C 0.00876 0.29246 0.92737
 C862 C 0.48350 0.23344 0.15229
 H863 H 0.49381 0.23403 0.16013
 C864 C 0.46794 0.23112 0.15855
 H865 H 0.46638 0.23012 0.17122
 C866 C 0.47293 0.23382 0.12630
 H867 H 0.47505 0.23512 0.11375
 C868 C 0.45712 0.23156 0.13207
 H869 H 0.44702 0.23134 0.12388
 N870 N 0.48557 0.23548 0.13648
 C871 C 0.53519 0.23414 0.14465
 H872 H 0.53767 0.22536 0.13538
 C873 C 0.54647 0.23601 0.15669
 H874 H 0.55759 0.22864 0.15649
 C875 C 0.51832 0.25523 0.15554
 H876 H 0.50732 0.26274 0.15485
 C877 C 0.52923 0.25745 0.16789
 H878 H 0.52650 0.26660 0.17681
 Zn879 Zn 0.50607 0.24121 0.12814
 N880 N 0.52132 0.24352 0.14442
 C881 C 0.51891 0.26750 0.11133
 N882 N 0.50481 0.26160 0.11758
 C883 C 0.49058 0.27039 0.11680
 C884 C 0.49007 0.28558 0.10904
 C885 C 0.51897 0.28263 0.10347
 C886 C 0.51388 0.20898 0.12044
 C887 C 0.51847 0.19578 0.11091
 C888 C 0.51990 0.21450 0.08865
 C889 C 0.51541 0.22741 0.09867
 N890 N 0.51263 0.22442 0.11426
 H891 H 0.53011 0.26038 0.11246
 H892 H 0.47961 0.26575 0.12226
 H893 H 0.47858 0.29228 0.10827
 H894 H 0.53033 0.28718 0.09864
 H895 H 0.51126 0.20698 0.13283
 H896 H 0.51920 0.18351 0.11599
 H897 H 0.52205 0.21697 0.07624
 H898 H 0.51393 0.23971 0.09392
 C899 C 0.54350 0.24770 0.16859
 C900 C 0.45447 0.23077 0.14842
 C901 C 0.52151 0.19848 0.09480
 C902 C 0.50439 0.29182 0.10220
 C903 C -0.02076 0.76219 0.64170
 H904 H -0.01308 0.77296 0.64144
 C905 C -0.03482 0.76248 0.64974
 H906 H -0.03847 0.77383 0.65550
 C907 C -0.02507 0.73485 0.63252
 H908 H -0.02125 0.72415 0.62586
 C909 C -0.04069 0.73457 0.64118
 H910 H -0.04734 0.72314 0.64107
 N911 N -0.01573 0.74765 0.63332
 C912 C 0.03693 0.74657 0.63306
 H913 H 0.03926 0.74509 0.62056
 C914 C 0.04983 0.74610 0.64366
 H915 H 0.06219 0.74449 0.63926
 C916 C 0.01787 0.75028 0.65399
 H917 H 0.00538 0.75150 0.65800
 C918 C 0.03043 0.74999 0.66502
 H919 H 0.02751 0.75108 0.67745
 Zn920 Zn 0.00475 0.74783 0.62328
 N921 N 0.02136 0.74871 0.63835
 C922 C 0.01752 0.77743 0.61113
 N923 N 0.00530 0.76632 0.60996
 C924 C -0.00743 0.76876 0.59996
 C925 C -0.00828 0.78296 0.59065
 C926 C 0.01726 0.79169 0.60192
 C927 C 0.01023 0.71433 0.62050
 C928 C 0.01250 0.69925 0.61300
 C929 C 0.01092 0.71340 0.58784
 C930 C 0.00875 0.72825 0.59585
 N931 N 0.00812 0.72835 0.61188
 H932 H 0.02731 0.77545 0.61941
 H933 H -0.01707 0.75978 0.59947
 H934 H -0.01855 0.78488 0.58284
 H935 H 0.02689 0.80060 0.60320
 H936 H 0.00985 0.71488 0.63326
 H937 H 0.01360 0.68811 0.62004
 H938 H 0.01115 0.71339 0.57506
 H939 H 0.00738 0.73963 0.58928
 C940 C 0.04660 0.74778 0.65985
 C941 C -0.04549 0.74768 0.64993
 C942 C 0.01264 0.69866 0.59647
 C943 C 0.00416 0.79463 0.59166
 C944 C 0.52556 0.75678 0.34934
 H945 H 0.52149 0.76951 0.34998
 C946 C 0.53704 0.75206 0.33803
 H947 H 0.54212 0.76131 0.33022
 C948 C 0.52387 0.72927 0.35881
 H949 H 0.51851 0.72040 0.36678
 C950 C 0.53549 0.72402 0.34774
 H951 H 0.53916 0.71115 0.34736
 N952 N 0.51925 0.74543 0.35946
 C953 C 0.47185 0.76755 0.37035
 H954 H 0.47196 0.76842 0.38303
 C955 C 0.45753 0.77151 0.36225
 H956 H 0.44680 0.77533 0.36889
 C957 C 0.48498 0.75978 0.34649
 H958 H 0.49532 0.75449 0.34033
 C959 C 0.47107 0.76387 0.33792
 H960 H 0.47118 0.76213 0.32526
 Zn961 Zn 0.50307 0.75259 0.37389
 N962 N 0.48509 0.76138 0.36246
 C963 C 0.50219 0.77302 0.40026
 N964 N 0.51162 0.76841 0.38775
 C965 C 0.52678 0.77475 0.38550
 C966 C 0.53244 0.78711 0.39537
 C967 C 0.50737 0.78531 0.41042
 C968 C 0.48096 0.72817 0.38355
 C969 C 0.47596 0.71441 0.39210
 C970 C 0.50196 0.71418 0.40550
 C971 C 0.50641 0.72803 0.39678
 N972 N 0.49600 0.73458 0.38595
 H973 H 0.49058 0.76721 0.40234
 H974 H 0.53449 0.77043 0.37599
 H975 H 0.54436 0.79234 0.39318
 H976 H 0.49932 0.78933 0.41987
 H977 H 0.47294 0.73351 0.37479
 H978 H 0.46396 0.70944 0.39002
 H979 H 0.51065 0.70877 0.41367
 H980 H 0.51832 0.73339 0.39835
 C981 C 0.45689 0.76918 0.34587
 C982 C 0.54213 0.73551 0.33717
 C983 C 0.48661 0.70710 0.40310
 C984 C 0.52252 0.79278 0.40780
 Zr985 Zr 0.01077 -0.01227 1.02025
 O986 O 0.02788 -0.00151 1.03561
 O987 O 0.00837 -0.03586 1.03001
 O988 O 0.00113 -0.01046 1.04347
 O989 O 0.03872 -0.02210 0.99088
 O990 O -0.02355 0.00225 1.03981
 O991 O 0.03439 -0.02294 1.01747
 O992 O -0.01181 -0.04721 1.01536
 O993 O -0.01429 -0.01641 1.01804
 O994 O 0.00787 -0.02655 1.00000
 O995 O -0.00026 0.01128 1.01896
 O996 O 0.02121 0.00153 1.00163
 Zr997 Zr -0.01903 0.00667 0.97668
 Zr998 Zr -0.02512 0.00691 1.01553
 Zr999 Zr 0.01693 -0.01248 0.98134
 Zr1000 Zr -0.01710 -0.02989 0.99741
 O1001 O 0.03722 -0.00013 0.97145
 O1002 O -0.03947 -0.03645 1.00837
 O1003 O -0.00796 -0.01698 0.97776
 O1004 O -0.02923 -0.00708 0.99529
 O1005 O -0.01617 0.02112 0.99687
 O1006 O 0.00603 0.01076 0.97898
 C1007 C -0.00161 -0.04748 1.02687
 C1008 C 0.04331 -0.02545 1.00506
 C1009 C -0.01265 -0.00462 1.04860
 O1010 O -0.04700 -0.00441 1.02307
 O1011 O -0.04510 0.02013 1.00630
 O1012 O -0.04180 0.01915 0.97958
 C1013 C -0.04970 0.02352 0.99215
 O1014 O 0.02791 0.02960 1.01555
 Zr1015 Zr 0.00885 0.02433 0.99950
 O1016 O -0.01684 0.03031 0.96703
 O1017 O -0.02762 0.02943 1.02789
 O1018 O 0.00090 0.04470 1.01329
 O1019 O 0.02966 0.03268 0.98690
 O1020 O 0.00057 0.04299 0.98389
 C1021 C -0.00909 0.04293 0.97195
 O1022 O -0.03716 -0.00367 0.96218
 O1023 O 0.02110 -0.03604 0.97134
 O1024 O -0.01036 0.00299 0.95339
 O1025 O 0.01354 -0.01135 0.95679
 O1026 O -0.00852 -0.05158 0.98601
 O1027 O -0.03351 -0.03634 0.97918
 C1028 C 0.00247 -0.00460 0.94807
 H1029 H 0.01367 -0.03732 1.00065
 H1030 H -0.04104 -0.00881 0.99357
 H1031 H 0.01074 0.01674 0.96985
 H1032 H 0.00162 0.01753 1.02878
 H1033 H -0.04023 -0.04863 1.00803
 H1034 H -0.05257 0.00342 1.03033
 H1035 H -0.03811 0.02899 1.03378
 H1036 H 0.00674 0.05455 1.00938
 H1037 H -0.01495 -0.06092 0.99022
 H1038 H 0.03142 -0.03540 0.96521
 H1039 H 0.04293 -0.00813 0.96447
 H1040 H 0.02982 0.04486 0.98781
 H1041 H -0.03801 -0.04740 0.98138
 H1042 H -0.04024 0.00484 0.95425
 H1043 H 0.03104 -0.01009 1.04344
 H1044 H 0.03071 0.04142 1.01474
 Zr1045 Zr 0.50512 0.48840 0.51759
 O1046 O 0.52172 0.49768 0.53432
 O1047 O 0.50337 0.46369 0.52462
 O1048 O 0.49514 0.48784 0.54074
 O1049 O 0.53384 0.48245 0.48795
 O1050 O 0.47034 0.50055 0.53791
 O1051 O 0.52903 0.47862 0.51424
 O1052 O 0.48431 0.45329 0.50802
 O1053 O 0.48023 0.48381 0.51449
 O1054 O 0.50300 0.47645 0.49590
 O1055 O 0.49346 0.51166 0.51835
 O1056 O 0.51556 0.50445 0.50071
 Zr1057 Zr 0.47568 0.51138 0.47547
 Zr1058 Zr 0.46881 0.50703 0.51400
 Zr1059 Zr 0.51205 0.49272 0.47901
 Zr1060 Zr 0.47822 0.47273 0.49245
 O1061 O 0.53207 0.50674 0.47089
 O1062 O 0.45616 0.46433 0.50276
 O1063 O 0.48738 0.48803 0.47447
 O1064 O 0.46554 0.49531 0.49234
 O1065 O 0.47772 0.52351 0.49710
 O1066 O 0.50056 0.51582 0.47866
 C1067 C 0.49437 0.45196 0.51959
 C1068 C 0.53818 0.47754 0.50180
 C1069 C 0.48134 0.49323 0.54625
 O1070 O 0.44751 0.49400 0.52039
 O1071 O 0.44814 0.51977 0.50558
 O1072 O 0.45250 0.52278 0.47915
 C1073 C 0.44381 0.52478 0.49179
 O1074 O 0.52108 0.53099 0.51758
 Zr1075 Zr 0.50262 0.52703 0.50055
 O1076 O 0.47718 0.53614 0.46861
 O1077 O 0.46512 0.52838 0.52791
 O1078 O 0.49387 0.54565 0.51606
 O1079 O 0.52353 0.53702 0.48934
 O1080 O 0.49438 0.54711 0.48668
 C1081 C 0.48469 0.54831 0.47480
 O1082 O 0.45811 0.50241 0.45954
 O1083 O 0.51727 0.47056 0.46674
 O1084 O 0.48480 0.51022 0.45205
 O1085 O 0.50891 0.49605 0.45464
 O1086 O 0.48741 0.45300 0.47850
 O1087 O 0.46194 0.46792 0.47364
 C1088 C 0.49777 0.50322 0.44633
 H1089 H 0.50910 0.46584 0.49546
 H1090 H 0.45384 0.49339 0.49021
 H1091 H 0.50524 0.52286 0.47024
 H1092 H 0.49499 0.51694 0.52874
 H1093 H 0.45575 0.45224 0.50119
 H1094 H 0.44151 0.50087 0.52820
 H1095 H 0.45462 0.52698 0.53360
 H1096 H 0.49960 0.55598 0.51332
 H1097 H 0.48129 0.44299 0.48150
 H1098 H 0.52766 0.47221 0.46092
 H1099 H 0.53812 0.49977 0.46320
 H1100 H 0.52343 0.54904 0.49142
 H1101 H 0.45758 0.45664 0.47481
 H1102 H 0.45497 0.51172 0.45249
 H1103 H 0.52497 0.48833 0.54127
 H1104 H 0.52374 0.54286 0.51788
 Zr1105 Zr 0.49113 1.01234 0.51625
 O1106 O 0.47418 1.00351 0.53317
 O1107 O 0.49367 1.03688 0.52321
 O1108 O 0.50098 1.01224 0.53936
 O1109 O 0.46252 1.01886 0.48690
 O1110 O 0.52560 0.99917 0.53623
 O1111 O 0.46746 1.02278 0.51306
 O1112 O 0.51282 1.04697 0.50621
 O1113 O 0.51612 1.01645 0.51275
 O1114 O 0.49345 1.02424 0.49442
 O1115 O 0.50237 0.98887 0.51703
 O1116 O 0.48032 0.99652 0.49966
 Zr1117 Zr 0.52002 0.98872 0.47388
 Zr1118 Zr 0.52711 0.99303 0.51228
 Zr1119 Zr 0.48407 1.00814 0.47779
 Zr1120 Zr 0.51828 1.02747 0.49057
 O1121 O 0.46379 0.99449 0.47008
 O1122 O 0.54064 1.03540 0.50029
 O1123 O 0.50882 1.01232 0.47287
 O1124 O 0.53051 1.00464 0.49043
 O1125 O 0.51779 0.97674 0.49571
 O1126 O 0.49507 0.98478 0.47747
 C1127 C 0.50297 1.04839 0.51805
 C1128 C 0.45833 1.02400 0.50071
 C1129 C 0.51461 1.00637 0.54474
 O1130 O 0.54851 1.00583 0.51843
 O1131 O 0.54771 0.98018 0.50363
 O1132 O 0.54308 0.97705 0.47732
 C1133 C 0.55187 0.97507 0.48981
 O1134 O 0.47401 0.97046 0.51664
 Zr1135 Zr 0.49282 0.97372 0.49955
 O1136 O 0.51833 0.96380 0.46763
 O1137 O 0.53058 0.97145 0.52606
 O1138 O 0.50071 0.95503 0.51547
 O1139 O 0.47201 0.96389 0.48837
 O1140 O 0.50122 0.95335 0.48637
 C1141 C 0.51100 0.95179 0.47451
 O1142 O 0.53762 0.99729 0.45746
 O1143 O 0.47921 1.03040 0.46541
 O1144 O 0.51078 0.98998 0.45058
 O1145 O 0.48712 1.00489 0.45341
 O1146 O 0.50930 1.04739 0.47667
 O1147 O 0.53451 1.03202 0.47140
 C1148 C 0.49802 0.99743 0.44499
 H1149 H 0.48759 1.03499 0.49401
 H1150 H 0.54223 1.00637 0.48809
 H1151 H 0.49031 0.97778 0.46919
 H1152 H 0.50074 0.98357 0.52746
 H1153 H 0.54128 1.04748 0.49861
 H1154 H 0.55444 0.99883 0.52618
 H1155 H 0.54108 0.97267 0.53166
 H1156 H 0.49463 0.94489 0.51299
 H1157 H 0.51557 1.05731 0.47953
 H1158 H 0.46878 1.02895 0.45974
 H1159 H 0.45784 1.00157 0.46241
 H1160 H 0.47194 0.95190 0.49066
 H1161 H 0.53895 1.04328 0.47232
 H1162 H 0.54057 0.98788 0.45052
 H1163 H 0.47117 1.01292 0.54009
 H1164 H 0.47078 0.95873 0.51692
 Zr1165 Zr -0.00638 0.51833 1.01757
 O1166 O -0.02097 0.51216 1.03741
 O1167 O -0.00434 0.54394 1.02013
 O1168 O 0.00588 0.52191 1.03923
 O1169 O -0.03879 0.51794 0.99162
 O1170 O 0.03089 0.50991 1.03515
 O1171 O -0.03071 0.52738 1.01560
 O1172 O 0.01268 0.55134 0.99996
 O1173 O 0.01781 0.52268 1.01056
 O1174 O -0.00728 0.52631 0.99410
 O1175 O 0.00612 0.49567 1.02055
 O1176 O -0.01819 0.49937 1.00516
 Zr1177 Zr 0.01854 0.48873 0.97627
 Zr1178 Zr 0.02991 0.49989 1.01240
 Zr1179 Zr -0.01775 0.50715 0.98155
 Zr1180 Zr 0.01676 0.52969 0.98687
 O1181 O -0.03784 0.49138 0.97830
 O1182 O 0.03985 0.53983 0.99209
 O1183 O 0.00598 0.51140 0.97309
 O1184 O 0.03010 0.50762 0.98880
 O1185 O 0.01956 0.48066 0.99975
 O1186 O -0.00557 0.48445 0.98336
 C1187 C 0.00405 0.55456 1.01232
 C1188 C -0.04147 0.52554 1.00470
 C1189 C 0.02034 0.51761 1.04381
 O1190 O 0.05113 0.51441 1.01381
 O1191 O 0.04992 0.48629 1.00348
 O1192 O 0.04232 0.47845 0.97882
 C1193 C 0.05260 0.47888 0.99030
 O1194 O -0.02125 0.47638 1.02624
 Zr1195 Zr -0.00455 0.47732 1.00696
 O1196 O 0.01712 0.46302 0.97400
 O1197 O 0.03615 0.48111 1.02880
 O1198 O 0.00579 0.46203 1.02476
 O1199 O -0.02571 0.46467 0.99968
 O1200 O 0.00403 0.45529 0.99663
 C1201 C 0.01200 0.45211 0.98386
 O1202 O 0.03395 0.49471 0.95696
 O1203 O -0.02554 0.52691 0.96688
 O1204 O 0.00686 0.48662 0.95405
 O1205 O -0.01740 0.50019 0.95780
 O1206 O 0.00514 0.54693 0.97159
 O1207 O 0.02994 0.53123 0.96523
 C1208 C -0.00692 0.49254 0.94906
 H1209 H -0.01372 0.53663 0.99275
 H1210 H 0.04136 0.50932 0.98484
 H1211 H -0.01083 0.47597 0.97681
 H1212 H 0.00597 0.49213 1.03174
 H1213 H 0.03971 0.55145 0.98840
 H1214 H 0.05835 0.50904 1.02170
 H1215 H 0.04717 0.48367 1.03282
 H1216 H -0.00002 0.45138 1.02462
 H1217 H 0.01142 0.55728 0.97198
 H1218 H -0.03650 0.52408 0.96289
 H1219 H -0.04513 0.49686 0.97054
 H1220 H -0.02474 0.45321 1.00372
 H1221 H 0.03403 0.54258 0.96378
 H1222 H 0.03641 0.48431 0.95125
 H1223 H -0.02357 0.52257 1.04306
 H1224 H -0.02413 0.46477 1.02846
 Zr1225 Zr -0.02138 0.48671 0.47549
 O1226 O -0.03956 0.49777 0.46111
 O1227 O -0.01912 0.46333 0.46544
 O1228 O -0.01289 0.48969 0.45194
 O1229 O -0.04741 0.47539 0.50587
 O1230 O 0.01107 0.50342 0.45477
 O1231 O -0.04452 0.47575 0.47909
 O1232 O 0.00227 0.45161 0.47871
 O1233 O 0.00395 0.48272 0.47641
 O1234 O -0.01701 0.47181 0.49528
 O1235 O -0.01104 0.51028 0.47690
 O1236 O -0.03145 0.49969 0.49486
 Zr1237 Zr 0.00967 0.50456 0.51818
 Zr1238 Zr 0.01414 0.50607 0.47916
 Zr1239 Zr -0.02566 0.48511 0.51465
 Zr1240 Zr 0.00815 0.46859 0.49661
 O1241 O -0.04602 0.49678 0.52557
 O1242 O 0.03005 0.46275 0.48423
 O1243 O -0.00047 0.48077 0.51698
 O1244 O 0.01952 0.49144 0.49890
 O1245 O 0.00545 0.51960 0.49844
 O1246 O -0.01559 0.50841 0.51703
 C1247 C -0.00882 0.45155 0.46798
 C1248 C -0.05260 0.47251 0.49187
 C1249 C -0.00003 0.49676 0.44632
 O1250 O 0.03547 0.49477 0.46970
 O1251 O 0.03489 0.51795 0.48793
 O1252 O 0.03181 0.51728 0.51469
 C1253 C 0.03968 0.52120 0.50201
 O1254 O -0.03962 0.52809 0.48159
 Zr1255 Zr -0.01984 0.52253 0.49693
 O1256 O 0.00743 0.52815 0.52802
 O1257 O 0.01581 0.52948 0.46817
 O1258 O -0.01320 0.54358 0.48353
 O1259 O -0.04059 0.52999 0.51035
 O1260 O -0.01201 0.54063 0.51280
 C1261 C -0.00145 0.54066 0.52399
 O1262 O 0.02866 0.49387 0.53182
 O1263 O -0.02830 0.46120 0.52438
 O1264 O 0.00205 0.50038 0.54175
 O1265 O -0.02129 0.48562 0.53906
 O1266 O 0.00102 0.44651 0.50812
 O1267 O 0.02587 0.46157 0.51368
 C1268 C -0.01024 0.49246 0.54745
 H1269 H -0.02246 0.46101 0.49473
 H1270 H 0.03143 0.48967 0.50010
 H1271 H -0.02013 0.51407 0.52645
 H1272 H -0.01362 0.51694 0.46740
 H1273 H 0.03121 0.45057 0.48407
 H1274 H 0.04059 0.50297 0.46257
 H1275 H 0.02595 0.52931 0.46171
 H1276 H -0.01935 0.55316 0.48787
 H1277 H 0.00745 0.43734 0.50336
 H1278 H -0.03839 0.46144 0.53090
 H1279 H -0.05107 0.48848 0.53264
 H1280 H -0.04136 0.54219 0.50973
 H1281 H 0.03070 0.45072 0.51084
 H1282 H 0.03183 0.50218 0.53976
 H1283 H -0.04280 0.48939 0.45328
 H1284 H -0.04290 0.53981 0.48280
 Zr1285 Zr 0.48631 -0.01427 -0.02298
 O1286 O 0.47125 -0.00371 -0.04067
 O1287 O 0.48721 -0.03908 -0.02972
 O1288 O 0.49768 -0.01527 -0.04555
 O1289 O 0.45505 -0.01709 0.00460
 O1290 O 0.52310 -0.00531 -0.04098
 O1291 O 0.46192 -0.02253 -0.02101
 O1292 O 0.50389 -0.05109 -0.01141
 O1293 O 0.51056 -0.02104 -0.01815
 O1294 O 0.48609 -0.02615 -0.00101
 O1295 O 0.49936 0.00792 -0.02312
 O1296 O 0.47561 0.00279 -0.00704
 Zr1297 Zr 0.51382 0.00636 0.02080
 Zr1298 Zr 0.52330 0.00114 -0.01708
 Zr1299 Zr 0.47677 -0.00901 0.01502
 Zr1300 Zr 0.51025 -0.03205 0.00414
 O1301 O 0.45727 0.00687 0.02176
 O1302 O 0.53236 -0.04244 -0.00470
 O1303 O 0.50069 -0.01588 0.02126
 O1304 O 0.52425 -0.01065 0.00490
 O1305 O 0.51410 0.01844 -0.00105
 O1306 O 0.48959 0.01301 0.01594
 C1307 C 0.49478 -0.05159 -0.02372
 C1308 C 0.45172 -0.02229 -0.00933
 C1309 C 0.51216 -0.01119 -0.05012
 O1310 O 0.54417 -0.01377 -0.02174
 O1311 O 0.54395 0.01231 -0.00740
 O1312 O 0.53756 0.01617 0.01856
 C1313 C 0.54727 0.01741 0.00656
 O1314 O 0.47286 0.02956 -0.02445
 Zr1315 Zr 0.48983 0.02418 -0.00619
 O1316 O 0.51348 0.03122 0.02720
 O1317 O 0.52931 0.02197 -0.03099
 O1318 O 0.50057 0.04190 -0.02140
 O1319 O 0.46893 0.03607 0.00364
 O1320 O 0.49854 0.04363 0.00779
 C1321 C 0.50751 0.04401 0.02021
 O1322 O 0.52973 -0.00402 0.03788
 O1323 O 0.46912 -0.03059 0.02697
 O1324 O 0.50308 0.00603 0.04358
 O1325 O 0.47844 -0.00605 0.03956
 O1326 O 0.49904 -0.05081 0.01778
 O1327 O 0.52484 -0.03810 0.02405
 C1328 C 0.48942 0.00010 0.04853
 H1329 H 0.47937 -0.03621 -0.00083
 H1330 H 0.53562 -0.01351 0.00787
 H1331 H 0.48483 0.02051 0.02398
 H1332 H 0.49891 0.01328 -0.03363
 H1333 H 0.53189 -0.05452 -0.00301
 H1334 H 0.55114 -0.00750 -0.02919
 H1335 H 0.54010 0.01960 -0.03592
 H1336 H 0.49523 0.05269 -0.01919
 H1337 H 0.50480 -0.06134 0.01538
 H1338 H 0.45849 -0.02793 0.03208
 H1339 H 0.45023 0.00050 0.02905
 H1340 H 0.46995 0.04804 0.00149
 H1341 H 0.52879 -0.04966 0.02318
 H1342 H 0.53292 0.00503 0.04503
 H1343 H 0.46799 -0.01279 -0.04775
 H1344 H 0.47071 0.04160 -0.02488
 Zr1345 Zr 0.52102 0.50815 -0.02212
 O1346 O 0.53954 0.49983 -0.03783
 O1347 O 0.51705 0.53237 -0.03002
 O1348 O 0.51235 0.50728 -0.04558
 O1349 O 0.54721 0.51736 0.00839
 O1350 O 0.48971 0.49123 -0.04372
 O1351 O 0.54346 0.52010 -0.01814
 O1352 O 0.49564 0.54137 -0.01492
 O1353 O 0.49557 0.51036 -0.02039
 O1354 O 0.51612 0.52063 -0.00106
 O1355 O 0.51232 0.48385 -0.02250
 O1356 O 0.53216 0.49381 -0.00419
 Zr1357 Zr 0.49172 0.48401 0.01941
 Zr1358 Zr 0.48700 0.48616 -0.01955
 Zr1359 Zr 0.52589 0.50595 0.01683
 Zr1360 Zr 0.49083 0.52202 0.00105
 O1361 O 0.54672 0.49424 0.02673
 O1362 O 0.46864 0.52790 -0.01058
 O1363 O 0.50052 0.50838 0.02002
 O1364 O 0.48093 0.49836 0.00145
 O1365 O 0.49662 0.47127 -0.00157
 O1366 O 0.51717 0.48192 0.01755
 C1367 C 0.50637 0.54332 -0.02591
 C1368 C 0.55184 0.52209 -0.00545
 C1369 C 0.50009 0.49977 -0.05162
 O1370 O 0.46498 0.49703 -0.02776
 O1371 O 0.46717 0.47218 -0.01152
 O1372 O 0.47013 0.47056 0.01516
 C1373 C 0.46245 0.46743 0.00226
 O1374 O 0.54179 0.46716 -0.01986
 Zr1375 Zr 0.52201 0.47012 -0.00371
 O1376 O 0.49579 0.45983 0.02740
 O1377 O 0.48664 0.46384 -0.03236
 O1378 O 0.51635 0.45008 -0.01862
 O1379 O 0.54342 0.46289 0.00863
 O1380 O 0.51568 0.45003 0.01087
 C1381 C 0.50542 0.44835 0.02233
 O1382 O 0.47221 0.49181 0.03422
 O1383 O 0.52778 0.52905 0.02817
 O1384 O 0.49913 0.48688 0.04312
 O1385 O 0.52140 0.50343 0.04113
 O1386 O 0.49663 0.54301 0.01465
 O1387 O 0.47280 0.52586 0.01887
 C1388 C 0.51072 0.49540 0.04916
 H1389 H 0.52096 0.53175 -0.00076
 H1390 H 0.46895 0.49927 0.00294
 H1391 H 0.52211 0.47573 0.02646
 H1392 H 0.51520 0.47836 -0.03257
 H1393 H 0.46670 0.53993 -0.00947
 H1394 H 0.46030 0.48926 -0.03545
 H1395 H 0.47645 0.46397 -0.03862
 H1396 H 0.52306 0.44048 -0.01518
 H1397 H 0.48955 0.55226 0.01099
 H1398 H 0.53791 0.52863 0.03451
 H1399 H 0.55141 0.50212 0.03431
 H1400 H 0.54496 0.45086 0.00712
 H1401 H 0.46722 0.53661 0.01708
 H1402 H 0.46975 0.48253 0.04149
 H1403 H 0.54214 0.50919 -0.04496
 H1404 H 0.54577 0.45558 -0.01957
 Zr1405 Zr 0.01542 1.01720 0.47871
 O1406 O 0.03385 1.00995 0.46241
 O1407 O 0.01060 1.04148 0.47145
 O1408 O 0.00646 1.01650 0.45532
 O1409 O 0.04158 1.02677 0.50920
 O1410 O -0.01569 0.99978 0.45718
 O1411 O 0.03783 1.02926 0.48264
 O1412 O -0.01087 1.04950 0.48698
 O1413 O -0.01005 1.01861 0.48084
 O1414 O 0.01047 1.02905 0.50010
 O1415 O 0.00743 0.99267 0.47790
 O1416 O 0.02723 1.00284 0.49620
 Zr1417 Zr -0.01248 0.99114 0.52010
 Zr1418 Zr -0.01790 0.99415 0.48128
 Zr1419 Zr 0.02089 1.01426 0.51758
 Zr1420 Zr -0.01480 1.02961 0.50261
 O1421 O 0.04233 1.00309 0.52679
 O1422 O -0.03735 1.03507 0.49142
 O1423 O -0.00447 1.01579 0.52116
 O1424 O -0.02397 1.00563 0.50263
 O1425 O -0.00751 0.97912 0.49875
 O1426 O 0.01297 0.98993 0.51783
 C1427 C -0.00037 1.05200 0.47588
 C1428 C 0.04612 1.03151 0.49534
 C1429 C -0.00563 1.00871 0.44930
 O1430 O -0.04031 1.00458 0.47359
 O1431 O -0.03720 0.97942 0.48928
 O1432 O -0.03376 0.97722 0.51587
 C1433 C -0.04155 0.97420 0.50302
 O1434 O 0.03747 0.97705 0.47974
 Zr1435 Zr 0.01786 0.97884 0.49623
 O1436 O -0.00781 0.96674 0.52717
 O1437 O -0.01784 0.97209 0.46803
 O1438 O 0.01261 0.95897 0.48097
 O1439 O 0.03969 0.97198 0.50805
 O1440 O 0.01249 0.95822 0.51044
 C1441 C 0.00224 0.95580 0.52176
 O1442 O -0.03187 0.99806 0.53545
 O1443 O 0.02200 1.03708 0.52954
 O1444 O -0.00461 0.99336 0.54375
 O1445 O 0.01702 1.01077 0.54188
 O1446 O -0.00936 1.05044 0.51659
 O1447 O -0.03268 1.03252 0.52072
 C1448 C 0.00686 1.00201 0.54985
 H1449 H 0.01500 1.04030 0.50056
 H1450 H -0.03594 1.00615 0.50432
 H1451 H 0.01825 0.98364 0.52649
 H1452 H 0.01032 0.98749 0.46768
 H1453 H -0.03963 1.04701 0.49280
 H1454 H -0.04491 0.99684 0.46583
 H1455 H -0.02812 0.97208 0.46191
 H1456 H 0.01973 0.94954 0.48406
 H1457 H -0.01673 1.05957 0.51323
 H1458 H 0.03224 1.03690 0.53571
 H1459 H 0.04686 1.01091 0.53452
 H1460 H 0.04164 0.96007 0.50613
 H1461 H -0.03853 1.04318 0.51927
 H1462 H -0.03396 0.98851 0.54251
 H1463 H 0.03605 1.01960 0.45551
 H1464 H 0.04176 0.96557 0.47957
 Zr1465 Zr 0.73350 0.26302 0.23062
 O1466 O 0.73849 0.27774 0.21050
 O1467 O 0.70809 0.26056 0.22924
 O1468 O 0.72889 0.25041 0.20925
 O1469 O 0.73395 0.29560 0.25677
 O1470 O 0.74153 0.22547 0.21283
 O1471 O 0.72408 0.28737 0.23301
 O1472 O 0.70169 0.24441 0.25044
 O1473 O 0.73000 0.23852 0.23775
 O1474 O 0.72670 0.26376 0.25444
 O1475 O 0.75605 0.25096 0.22661
 O1476 O 0.75250 0.27541 0.24224
 Zr1477 Zr 0.76516 0.23851 0.27051
 Zr1478 Zr 0.75279 0.22686 0.23492
 Zr1479 Zr 0.74593 0.27475 0.26618
 Zr1480 Zr 0.72409 0.23943 0.26172
 O1481 O 0.76110 0.29552 0.26850
 O1482 O 0.71391 0.21634 0.25591
 O1483 O 0.74260 0.25068 0.27471
 O1484 O 0.74616 0.22643 0.25879
 O1485 O 0.77217 0.23775 0.24673
 O1486 O 0.76853 0.26296 0.26333
 C1487 C 0.69785 0.25290 0.23811
 C1488 C 0.72583 0.29816 0.24402
 C1489 C 0.73309 0.23581 0.20459
 O1490 O 0.73918 0.20487 0.23435
 O1491 O 0.76759 0.20724 0.24293
 O1492 O 0.77586 0.21481 0.26744
 C1493 C 0.77555 0.20464 0.25578
 O1494 O 0.77446 0.27860 0.21982
 Zr1495 Zr 0.77456 0.26219 0.23946
 O1496 O 0.79065 0.24054 0.27165
 O1497 O 0.77048 0.22113 0.21738
 O1498 O 0.78939 0.25145 0.22153
 O1499 O 0.78635 0.28432 0.24577
 O1500 O 0.79706 0.25515 0.24947
 C1501 C 0.80096 0.24685 0.26189
 O1502 O 0.76049 0.22267 0.28993
 O1503 O 0.72706 0.28201 0.28197
 O1504 O 0.76781 0.25020 0.29270
 O1505 O 0.75422 0.27468 0.28949
 O1506 O 0.70814 0.25044 0.27857
 O1507 O 0.72374 0.22524 0.28287
 C1508 C 0.76221 0.26414 0.29790
 H1509 H 0.71647 0.27009 0.25638
 H1510 H 0.74495 0.21499 0.26274
 H1511 H 0.77706 0.26852 0.26952
 H1512 H 0.75899 0.25115 0.21527
 H1513 H 0.70256 0.21629 0.26004
 H1514 H 0.74426 0.19777 0.22614
 H1515 H 0.76808 0.20990 0.21354
 H1516 H 0.79982 0.25750 0.22121
 H1517 H 0.69790 0.24405 0.27870
 H1518 H 0.72977 0.29316 0.28583
 H1519 H 0.75593 0.30272 0.27657
 H1520 H 0.79755 0.28382 0.24129
 H1521 H 0.71270 0.22064 0.28448
 H1522 H 0.77109 0.22046 0.29521
 H1523 H 0.72789 0.28020 0.20532
 H1524 H 0.78584 0.28133 0.21690
 Zr1525 Zr 0.76578 0.73995 0.72925
 O1526 O 0.75817 0.72498 0.71034
 O1527 O 0.79096 0.74123 0.72515
 O1528 O 0.76904 0.75177 0.70710
 O1529 O 0.76633 0.70785 0.75634
 O1530 O 0.75790 0.77735 0.71093
 O1531 O 0.77452 0.71538 0.73157
 O1532 O 0.80000 0.75789 0.74474
 O1533 O 0.77118 0.76431 0.73524
 O1534 O 0.77469 0.73923 0.75231
 O1535 O 0.74364 0.75318 0.72695
 O1536 O 0.74724 0.72882 0.74294
 Zr1537 Zr 0.73920 0.76683 0.77111
 Zr1538 Zr 0.74891 0.77717 0.73415
 Zr1539 Zr 0.75599 0.72945 0.76612
 Zr1540 Zr 0.77917 0.76348 0.75857
 O1541 O 0.74020 0.70937 0.77008
 O1542 O 0.78981 0.78616 0.75179
 O1543 O 0.76134 0.75344 0.77364
 O1544 O 0.75766 0.77765 0.75729
 O1545 O 0.73013 0.76762 0.74807
 O1546 O 0.73391 0.74252 0.76494
 C1547 C 0.80226 0.74903 0.73233
 C1548 C 0.77330 0.70483 0.74297
 C1549 C 0.76493 0.76635 0.70225
 O1550 O 0.76372 0.79820 0.73149
 O1551 O 0.73597 0.79770 0.74295
 O1552 O 0.72946 0.79106 0.76837
 C1553 C 0.72927 0.80096 0.75638
 O1554 O 0.72331 0.72634 0.72291
 Zr1555 Zr 0.72576 0.74328 0.74178
 O1556 O 0.71390 0.76632 0.77480
 O1557 O 0.72999 0.78372 0.71830
 O1558 O 0.71014 0.75434 0.72476
 O1559 O 0.71305 0.72225 0.75000
 O1560 O 0.70468 0.75230 0.75343
 C1561 C 0.70242 0.76080 0.76606
 O1562 O 0.74674 0.78246 0.78957
 O1563 O 0.77568 0.72181 0.78062
 O1564 O 0.73715 0.75543 0.79360
 O1565 O 0.74890 0.73004 0.78994
 O1566 O 0.79644 0.75172 0.77356
 O1567 O 0.78202 0.77740 0.77954
 C1568 C 0.74180 0.74104 0.79857
 H1569 H 0.78479 0.73250 0.75340
 H1570 H 0.75980 0.78906 0.76077
 H1571 H 0.72557 0.73755 0.77195
 H1572 H 0.73967 0.75291 0.71595
 H1573 H 0.80147 0.78566 0.75484
 H1574 H 0.75828 0.80546 0.72363
 H1575 H 0.73266 0.79471 0.71389
 H1576 H 0.69937 0.74895 0.72565
 H1577 H 0.80686 0.75773 0.77246
 H1578 H 0.77280 0.71088 0.78503
 H1579 H 0.74565 0.70202 0.77786
 H1580 H 0.70156 0.72348 0.74652
 H1581 H 0.79338 0.78138 0.78015
 H1582 H 0.73683 0.78548 0.79577
 H1583 H 0.76808 0.72190 0.70416
 H1584 H 0.71158 0.72420 0.72112
 Zr1585 Zr 0.22931 0.23779 0.76963
 O1586 O 0.23670 0.22067 0.78723
 O1587 O 0.20480 0.24198 0.77573
 O1588 O 0.22860 0.24832 0.79248
 O1589 O 0.22330 0.20866 0.74064
 O1590 O 0.24181 0.27269 0.78917
 O1591 O 0.21860 0.21431 0.76660
 O1592 O 0.19633 0.26169 0.75820
 O1593 O 0.22631 0.26315 0.76553
 O1594 O 0.21854 0.24039 0.74743
 O1595 O 0.25288 0.24773 0.77098
 O1596 O 0.24530 0.22561 0.75374
 Zr1597 Zr 0.25551 0.26459 0.72752
 Zr1598 Zr 0.24985 0.27282 0.76564
 Zr1599 Zr 0.23486 0.22961 0.73149
 Zr1600 Zr 0.21644 0.26557 0.74302
 O1601 O 0.24783 0.20810 0.72447
 O1602 O 0.20903 0.28884 0.75208
 O1603 O 0.23182 0.25470 0.72596
 O1604 O 0.23946 0.27652 0.74340
 O1605 O 0.26637 0.26207 0.74972
 O1606 O 0.25832 0.23927 0.73172
 C1607 C 0.19404 0.25209 0.77014
 C1608 C 0.21772 0.20489 0.75439
 C1609 C 0.23394 0.26220 0.79761
 O1610 O 0.23808 0.29565 0.77049
 O1611 O 0.26433 0.29214 0.75719
 O1612 O 0.26806 0.28701 0.73100
 C1613 C 0.27022 0.29574 0.74352
 O1614 O 0.27047 0.21845 0.77199
 Zr1615 Zr 0.26830 0.23681 0.75412
 O1616 O 0.28020 0.26088 0.72179
 O1617 O 0.27028 0.27505 0.78063
 O1618 O 0.28655 0.24466 0.76995
 O1619 O 0.27735 0.21454 0.74412
 O1620 O 0.28914 0.24287 0.74069
 C1621 C 0.29145 0.25230 0.72863
 O1622 O 0.24838 0.28267 0.71073
 O1623 O 0.21317 0.22595 0.71856
 O1624 O 0.25487 0.25490 0.70432
 O1625 O 0.23948 0.23183 0.70725
 O1626 O 0.19696 0.25743 0.72876
 O1627 O 0.21336 0.28173 0.72341
 C1628 C 0.24753 0.24217 0.69880
 H1629 H 0.20774 0.23508 0.74682
 H1630 H 0.23836 0.28840 0.74082
 H1631 H 0.26535 0.23374 0.72375
 H1632 H 0.25754 0.24606 0.78163
 H1633 H 0.19719 0.29021 0.75002
 H1634 H 0.24482 0.30134 0.77841
 H1635 H 0.26923 0.28593 0.78586
 H1636 H 0.29653 0.23796 0.76785
 H1637 H 0.18729 0.26448 0.73120
 H1638 H 0.21442 0.21521 0.71312
 H1639 H 0.24092 0.20241 0.71669
 H1640 H 0.28912 0.21367 0.74668
 H1641 H 0.20238 0.28697 0.72393
 H1642 H 0.25806 0.28488 0.70397
 H1643 H 0.22696 0.21835 0.79388
 H1644 H 0.28204 0.21489 0.77289
 Zr1645 Zr 0.26152 0.76728 0.27721
 O1646 O 0.25195 0.78247 0.29539
 O1647 O 0.28623 0.76577 0.28317
 O1648 O 0.26310 0.75549 0.29953
 O1649 O 0.26485 0.79883 0.24982
 O1650 O 0.25222 0.73020 0.29512
 O1651 O 0.27021 0.79169 0.27535
 O1652 O 0.29706 0.74823 0.26484
 O1653 O 0.26727 0.74263 0.27205
 O1654 O 0.27278 0.76724 0.25499
 O1655 O 0.23914 0.75485 0.27789
 O1656 O 0.24464 0.77878 0.26181
 Zr1657 Zr 0.23902 0.74054 0.23374
 Zr1658 Zr 0.24487 0.73055 0.27147
 Zr1659 Zr 0.25572 0.77732 0.23947
 Zr1660 Zr 0.27765 0.74270 0.24954
 O1661 O 0.24054 0.79765 0.23334
 O1662 O 0.28734 0.71993 0.25789
 O1663 O 0.26151 0.75300 0.23290
 O1664 O 0.25593 0.72935 0.24918
 O1665 O 0.22764 0.74053 0.25592
 O1666 O 0.23345 0.76517 0.23900
 C1667 C 0.29818 0.75756 0.27703
 C1668 C 0.27020 0.80202 0.26371
 C1669 C 0.25890 0.74091 0.30407
 O1670 O 0.25887 0.70882 0.27542
 O1671 O 0.23262 0.71033 0.26199
 O1672 O 0.22871 0.71679 0.23608
 C1673 C 0.22728 0.70708 0.24811
 O1674 O 0.21870 0.78225 0.27999
 Zr1675 Zr 0.22299 0.76517 0.26143
 O1676 O 0.21419 0.74189 0.22796
 O1677 O 0.22451 0.72520 0.28605
 O1678 O 0.20544 0.75469 0.27689
 O1679 O 0.21171 0.78681 0.25219
 O1680 O 0.20315 0.75740 0.24779
 C1681 C 0.20200 0.74853 0.23530
 O1682 O 0.24818 0.72420 0.21627
 O1683 O 0.27704 0.78430 0.22696
 O1684 O 0.23948 0.75149 0.21096
 O1685 O 0.25202 0.77604 0.21506
 O1686 O 0.29633 0.75350 0.23562
 O1687 O 0.28268 0.72797 0.22936
 C1688 C 0.24562 0.76520 0.20604
 H1689 H 0.28295 0.77369 0.25462
 H1690 H 0.25829 0.71780 0.24606
 H1691 H 0.22602 0.77033 0.23118
 H1692 H 0.23417 0.75539 0.28856
 H1693 H 0.29928 0.72000 0.25594
 H1694 H 0.25264 0.70198 0.28302
 H1695 H 0.22659 0.71418 0.29079
 H1696 H 0.19488 0.76045 0.27501
 H1697 H 0.30661 0.74735 0.23780
 H1698 H 0.27470 0.79521 0.22210
 H1699 H 0.24693 0.80461 0.22597
 H1700 H 0.19989 0.78622 0.25470
 H1701 H 0.29403 0.72365 0.22990
 H1702 H 0.23891 0.72143 0.20933
 H1703 H 0.26122 0.78544 0.30226
 H1704 H 0.20685 0.78468 0.28087
 Zr1705 Zr 0.23393 0.75835 0.73601
 O1706 O 0.24026 0.77422 0.71709
 O1707 O 0.20887 0.75529 0.73234
 O1708 O 0.23133 0.74674 0.71381
 O1709 O 0.23092 0.78935 0.76379
 O1710 O 0.24492 0.72225 0.71698
 O1711 O 0.22374 0.78233 0.73878
 O1712 O 0.20140 0.73699 0.75148
 O1713 O 0.23083 0.73334 0.74143
 O1714 O 0.22485 0.75734 0.75911
 O1715 O 0.25720 0.74738 0.73332
 O1716 O 0.25121 0.77060 0.75001
 Zr1717 Zr 0.26268 0.73245 0.77712
 Zr1718 Zr 0.25420 0.72270 0.73995
 Zr1719 Zr 0.24242 0.76820 0.77318
 Zr1720 Zr 0.22265 0.73249 0.76476
 O1721 O 0.25651 0.78914 0.77845
 O1722 O 0.21411 0.70932 0.75705
 O1723 O 0.23936 0.74351 0.78000
 O1724 O 0.24539 0.72049 0.76308
 O1725 O 0.27192 0.73347 0.75406
 O1726 O 0.26564 0.75744 0.77167
 C1727 C 0.19829 0.74630 0.73950
 C1728 C 0.22418 0.79254 0.75042
 C1729 C 0.23649 0.73259 0.70873
 O1730 O 0.24171 0.70026 0.73693
 O1731 O 0.26895 0.70314 0.74813
 O1732 O 0.27458 0.70934 0.77370
 C1733 C 0.27573 0.69995 0.76146
 O1734 O 0.27503 0.77603 0.72983
 Zr1735 Zr 0.27395 0.75840 0.74843
 O1736 O 0.28778 0.73524 0.78068
 O1737 O 0.27360 0.71882 0.72370
 O1738 O 0.29080 0.74935 0.73134
 O1739 O 0.28416 0.78051 0.75700
 O1740 O 0.29565 0.75156 0.76010
 C1741 C 0.29868 0.74259 0.77233
 O1742 O 0.25667 0.71537 0.79516
 O1743 O 0.22169 0.77395 0.78729
 O1744 O 0.26329 0.74302 0.79997
 O1745 O 0.24801 0.76658 0.79723
 O1746 O 0.20462 0.74199 0.78047
 O1747 O 0.22086 0.71714 0.78509
 C1748 C 0.25613 0.75605 0.80555
 H1749 H 0.21425 0.76321 0.76041
 H1750 H 0.24430 0.70879 0.76625
 H1751 H 0.27331 0.76290 0.77891
 H1752 H 0.26112 0.74838 0.72229
 H1753 H 0.20244 0.70859 0.76014
 H1754 H 0.24780 0.69391 0.72880
 H1755 H 0.27206 0.70777 0.71904
 H1756 H 0.30098 0.75573 0.73235
 H1757 H 0.19468 0.73528 0.77922
 H1758 H 0.22362 0.78487 0.79210
 H1759 H 0.25025 0.79558 0.78639
 H1760 H 0.29575 0.78068 0.75354
 H1761 H 0.20985 0.71225 0.78559
 H1762 H 0.26679 0.71311 0.80124
 H1763 H 0.23010 0.77668 0.71115
 H1764 H 0.28651 0.77930 0.72806
 Zr1765 Zr 0.26279 0.24094 0.22892
 O1766 O 0.25127 0.22402 0.21379
 O1767 O 0.28631 0.24181 0.21925
 O1768 O 0.26124 0.25045 0.20568
 O1769 O 0.27054 0.21225 0.25835
 O1770 O 0.24940 0.27583 0.20900
 O1771 O 0.27251 0.21679 0.23182
 O1772 O 0.29888 0.26119 0.23411
 O1773 O 0.26835 0.26598 0.23091
 O1774 O 0.27697 0.24318 0.24920
 O1775 O 0.24011 0.25338 0.23018
 O1776 O 0.24846 0.23124 0.24750
 Zr1777 Zr 0.24552 0.27220 0.27238
 Zr1778 Zr 0.24584 0.27821 0.23343
 Zr1779 Zr 0.26246 0.23489 0.26780
 Zr1780 Zr 0.28170 0.26814 0.25163
 O1781 O 0.24893 0.21543 0.27796
 O1782 O 0.28948 0.29002 0.24018
 O1783 O 0.26832 0.25973 0.27127
 O1784 O 0.25980 0.28161 0.25374
 O1785 O 0.23122 0.27006 0.25211
 O1786 O 0.24006 0.24718 0.27019
 C1787 C 0.29861 0.25076 0.22270
 C1788 C 0.27416 0.20763 0.24423
 C1789 C 0.25551 0.26428 0.20034
 O1790 O 0.25865 0.29912 0.22528
 O1791 O 0.23467 0.29956 0.24266
 O1792 O 0.23432 0.29572 0.26932
 C1793 C 0.23115 0.30426 0.25677
 O1794 O 0.22045 0.22591 0.23370
 Zr1795 Zr 0.22661 0.24500 0.24961
 O1796 O 0.22184 0.27164 0.28179
 O1797 O 0.22339 0.28232 0.22172
 O1798 O 0.20691 0.25378 0.23562
 O1799 O 0.21715 0.22472 0.26248
 O1800 O 0.20851 0.25474 0.26486
 C1801 C 0.20891 0.26469 0.27665
 O1802 O 0.25673 0.28995 0.28682
 O1803 O 0.28552 0.22905 0.27769
 O1804 O 0.24866 0.26334 0.29577
 O1805 O 0.26203 0.23874 0.29223
 O1806 O 0.30249 0.25854 0.26353
 O1807 O 0.28899 0.28472 0.26953
 C1808 C 0.25591 0.25020 0.30099
 H1809 H 0.28731 0.23673 0.24868
 H1810 H 0.26223 0.29340 0.25541
 H1811 H 0.23385 0.24289 0.27936
 H1812 H 0.23376 0.25173 0.22042
 H1813 H 0.30158 0.29005 0.24044
 H1814 H 0.25120 0.30522 0.21809
 H1815 H 0.22446 0.29275 0.21568
 H1816 H 0.19685 0.24839 0.23953
 H1817 H 0.31217 0.26434 0.25931
 H1818 H 0.28419 0.21876 0.28390
 H1819 H 0.25649 0.20923 0.28497
 H1820 H 0.20509 0.22528 0.26160
 H1821 H 0.30013 0.28871 0.26715
 H1822 H 0.24843 0.29361 0.29469
 H1823 H 0.25959 0.22030 0.20598
 H1824 H 0.20867 0.22348 0.23473
 Zr1825 Zr 0.73299 0.73754 0.26970
 O1826 O 0.74080 0.72200 0.28842
 O1827 O 0.70776 0.73896 0.27381
 O1828 O 0.72994 0.74891 0.29202
 O1829 O 0.73166 0.70657 0.24185
 O1830 O 0.74103 0.77432 0.28846
 O1831 O 0.72458 0.71309 0.26713
 O1832 O 0.69850 0.75634 0.25452
 O1833 O 0.72772 0.76231 0.26434
 O1834 O 0.72369 0.73801 0.24678
 O1835 O 0.75529 0.74990 0.27190
 O1836 O 0.75113 0.72626 0.25540
 Zr1837 Zr 0.75920 0.76488 0.22796
 Zr1838 Zr 0.75017 0.77432 0.26528
 Zr1839 Zr 0.74193 0.72811 0.23241
 Zr1840 Zr 0.71934 0.76263 0.24116
 O1841 O 0.75754 0.70779 0.22730
 O1842 O 0.70887 0.78504 0.24946
 O1843 O 0.73680 0.75254 0.22557
 O1844 O 0.74107 0.77590 0.24231
 O1845 O 0.76868 0.76456 0.25085
 O1846 O 0.76420 0.74015 0.23348
 C1847 C 0.69629 0.74679 0.26651
 C1848 C 0.72527 0.70307 0.25535
 C1849 C 0.73386 0.76336 0.29695
 O1850 O 0.73581 0.79596 0.26845
 O1851 O 0.76311 0.79472 0.25672
 O1852 O 0.76963 0.78843 0.23124
 C1853 C 0.76985 0.79805 0.24335
 O1854 O 0.77553 0.72258 0.27531
 Zr1855 Zr 0.77280 0.73983 0.25652
 O1856 O 0.78434 0.76295 0.22349
 O1857 O 0.76930 0.77948 0.28113
 O1858 O 0.78901 0.75023 0.27305
 O1859 O 0.78471 0.71819 0.24809
 O1860 O 0.79378 0.74751 0.24414
 C1861 C 0.79588 0.75610 0.23150
 O1862 O 0.75162 0.78167 0.21016
 O1863 O 0.72178 0.72139 0.21838
 O1864 O 0.76055 0.75432 0.20510
 O1865 O 0.74761 0.72978 0.20834
 O1866 O 0.70223 0.75227 0.22547
 O1867 O 0.71598 0.77815 0.22111
 C1868 C 0.75476 0.74069 0.19978
 H1869 H 0.71360 0.73154 0.24559
 H1870 H 0.73901 0.78750 0.23913
 H1871 H 0.77220 0.73500 0.22614
 H1872 H 0.75940 0.74919 0.28285
 H1873 H 0.69712 0.78502 0.24673
 H1874 H 0.74138 0.80269 0.27648
 H1875 H 0.76684 0.79043 0.28577
 H1876 H 0.79971 0.74448 0.27187
 H1877 H 0.69171 0.75826 0.22693
 H1878 H 0.72451 0.71055 0.21360
 H1879 H 0.75184 0.70102 0.21940
 H1880 H 0.79629 0.71868 0.25139
 H1881 H 0.70461 0.78246 0.22102
 H1882 H 0.76146 0.78447 0.20384
 H1883 H 0.73093 0.71896 0.29459
 H1884 H 0.78729 0.72024 0.27703
 Zr1885 Zr 0.76295 0.26533 0.77422
 O1886 O 0.75362 0.28047 0.79256
 O1887 O 0.78763 0.26342 0.78016
 O1888 O 0.76415 0.25334 0.79651
 O1889 O 0.76678 0.29710 0.74710
 O1890 O 0.75309 0.22822 0.79175
 O1891 O 0.77185 0.28969 0.77262
 O1892 O 0.79845 0.24622 0.76152
 O1893 O 0.76850 0.24069 0.76880
 O1894 O 0.77421 0.26545 0.75200
 O1895 O 0.74046 0.25312 0.77475
 O1896 O 0.74620 0.27718 0.75893
 Zr1897 Zr 0.74019 0.23933 0.73044
 Zr1898 Zr 0.74596 0.22885 0.76805
 Zr1899 Zr 0.75727 0.27587 0.73657
 Zr1900 Zr 0.77888 0.24095 0.74628
 O1901 O 0.74243 0.29660 0.73090
 O1902 O 0.78837 0.21803 0.75448
 O1903 O 0.76282 0.25158 0.72971
 O1904 O 0.75702 0.22781 0.74575
 O1905 O 0.72881 0.23919 0.75263
 O1906 O 0.73490 0.26395 0.73602
 C1907 C 0.79958 0.25534 0.77387
 C1908 C 0.77205 0.30013 0.76107
 C1909 C 0.75966 0.23881 0.80091
 O1910 O 0.75985 0.20700 0.77178
 O1911 O 0.73349 0.20888 0.75836
 O1912 O 0.72956 0.21569 0.73253
 C1913 C 0.72801 0.20588 0.74449
 O1914 O 0.72025 0.28051 0.77732
 Zr1915 Zr 0.72442 0.26381 0.75842
 O1916 O 0.71536 0.24107 0.72466
 O1917 O 0.72555 0.22342 0.78253
 O1918 O 0.70670 0.25310 0.77355
 O1919 O 0.71349 0.28584 0.74966
 O1920 O 0.70455 0.25681 0.74446
 C1921 C 0.70331 0.24811 0.73188
 O1922 O 0.74924 0.22314 0.71282
 O1923 O 0.77860 0.28249 0.72391
 O1924 O 0.74060 0.25061 0.70782
 O1925 O 0.75296 0.27520 0.71220
 O1926 O 0.79758 0.25172 0.73237
 O1927 O 0.78379 0.22632 0.72601
 C1928 C 0.74637 0.26455 0.70309
 H1929 H 0.78445 0.27181 0.75168
 H1930 H 0.75926 0.21627 0.74252
 H1931 H 0.72750 0.26934 0.72831
 H1932 H 0.73545 0.25358 0.78540
 H1933 H 0.80032 0.21801 0.75254
 H1934 H 0.75356 0.20011 0.77929
 H1935 H 0.72755 0.21232 0.78715
 H1936 H 0.69620 0.25901 0.77174
 H1937 H 0.80784 0.24547 0.73445
 H1938 H 0.77644 0.29352 0.71921
 H1939 H 0.74886 0.30357 0.72357
 H1940 H 0.70166 0.28541 0.75217
 H1941 H 0.79510 0.22189 0.72651
 H1942 H 0.73995 0.22054 0.70583
 H1943 H 0.76293 0.28324 0.79945
 H1944 H 0.70840 0.28291 0.77830
 C1945 C 0.45516 0.99876 0.33465
 C1946 C 0.45474 0.98541 0.32414
 C1947 C 0.44479 0.98607 0.31078
 C1948 C 0.43504 1.00009 0.30758
 C1949 C 0.43567 1.01354 0.31793
 C1950 C 0.44558 1.01287 0.33131
 C1951 C 0.46501 0.99781 0.34935
 C1952 C 0.47300 1.01182 0.35500
 C1953 C 0.48080 1.01146 0.36962
 C1954 C 0.48084 0.99707 0.37894
 C1955 C 0.47362 0.98279 0.37295
 C1956 C 0.46576 0.98317 0.35833
 C1957 C 0.48679 0.99751 0.39546
 C1958 C 0.49611 0.98447 0.40198
 C1959 C 0.50047 0.98463 0.41798
 C1960 C 0.49527 0.99766 0.42774
 C1961 C 0.48629 1.01081 0.42108
 C1962 C 0.48218 1.01077 0.40516
 H1963 H 0.46214 0.97446 0.32623
 H1964 H 0.44479 0.97560 0.30289
 H1965 H 0.42814 1.02442 0.31594
 H1966 H 0.44536 1.02326 0.33929
 H1967 H 0.47300 1.02318 0.34823
 H1968 H 0.48648 1.02258 0.37384
 H1969 H 0.47331 0.97159 0.37994
 H1970 H 0.45961 0.97220 0.35440
 H1971 H 0.49986 0.97411 0.39474
 H1972 H 0.50735 0.97432 0.42284
 H1973 H 0.48218 1.02109 0.42827
 H1974 H 0.47482 1.02088 0.40056
 C1975 C -0.04705 0.49421 0.83722
 C1976 C -0.04426 0.48297 0.82493
 C1977 C -0.05319 0.48412 0.81091
 C1978 C -0.06528 0.49657 0.80870
 C1979 C -0.06789 0.50781 0.82119
 C1980 C -0.05898 0.50661 0.83515
 C1981 C -0.03789 0.49297 0.85234
 C1982 C -0.03318 0.50736 0.86019
 C1983 C -0.02638 0.50647 0.87523
 C1984 C -0.02402 0.49118 0.88279
 C1985 C -0.02773 0.47669 0.87462
 C1986 C -0.03466 0.47757 0.85953
 C1987 C -0.01948 0.49072 0.89971
 C1988 C -0.00678 0.48054 0.90548
 C1989 C -0.00256 0.48089 0.92155
 C1990 C -0.01123 0.49120 0.93209
 C1991 C -0.02416 0.50100 0.92621
 C1992 C -0.02816 0.50081 0.91029
 H1993 H -0.03498 0.47342 0.82606
 H1994 H -0.05006 0.47548 0.80167
 H1995 H -0.07738 0.51719 0.82071
 H1996 H -0.06178 0.51521 0.84456
 H1997 H -0.03509 0.51938 0.85484
 H1998 H -0.02340 0.51782 0.88120
 H1999 H -0.02611 0.46476 0.88025
 H2000 H -0.03820 0.46626 0.85384
 H2001 H 0.00005 0.47261 0.89751
 H2002 H 0.00743 0.47318 0.92570
 H2003 H -0.03114 0.50914 0.93386
 H2004 H -0.03816 0.50858 0.90622
 C2005 C 0.04337 -0.00206 0.83648
 C2006 C 0.05745 0.00761 0.83525
 C2007 C 0.06699 0.00737 0.82153
 C2008 C 0.06263 -0.00248 0.80866
 C2009 C 0.04837 -0.01190 0.80974
 C2010 C 0.03888 -0.01176 0.82354
 C2011 C 0.03394 -0.00255 0.85151
 C2012 C 0.02874 -0.01767 0.85781
 C2013 C 0.02143 -0.01838 0.87275
 C2014 C 0.01907 -0.00397 0.88168
 C2015 C 0.02357 0.01125 0.87507
 C2016 C 0.03097 0.01195 0.86017
 C2017 C 0.01335 -0.00496 0.89832
 C2018 C 0.00217 0.00667 0.90453
 C2019 C -0.00197 0.00642 0.92060
 C2020 C 0.00518 -0.00531 0.93079
 C2021 C 0.01599 -0.01719 0.92445
 C2022 C 0.01997 -0.01706 0.90842
 H2023 H 0.06134 0.01505 0.84508
 H2024 H 0.07780 0.01491 0.82097
 H2025 H 0.04476 -0.01967 0.80004
 H2026 H 0.02805 -0.01926 0.82411
 H2027 H 0.03094 -0.02906 0.85147
 H2028 H 0.01795 -0.03027 0.87748
 H2029 H 0.02202 0.02254 0.88172
 H2030 H 0.03467 0.02380 0.85553
 H2031 H -0.00318 0.01607 0.89699
 H2032 H -0.01029 0.01577 0.92516
 H2033 H 0.02166 -0.02644 0.93196
 H2034 H 0.02876 -0.02605 0.90405
 C2035 C 0.53930 0.50625 0.33514
 C2036 C 0.55391 0.51515 0.33429
 C2037 C 0.56393 0.51418 0.32091
 C2038 C 0.55960 0.50433 0.30804
 C2039 C 0.54481 0.49572 0.30872
 C2040 C 0.53480 0.49664 0.32215
 C2041 C 0.52941 0.50627 0.34992
 C2042 C 0.52306 0.49146 0.35589
 C2043 C 0.51548 0.49102 0.37070
 C2044 C 0.51403 0.50537 0.37987
 C2045 C 0.51956 0.52036 0.37355
 C2046 C 0.52721 0.52079 0.35874
 C2047 C 0.50845 0.50433 0.39655
 C2048 C 0.49798 0.51637 0.40320
 C2049 C 0.49391 0.51579 0.41931
 C2050 C 0.50049 0.50332 0.42904
 C2051 C 0.51064 0.49113 0.42226
 C2052 C 0.51451 0.49160 0.40624
 H2053 H 0.55784 0.52250 0.34416
 H2054 H 0.57513 0.52115 0.32065
 H2055 H 0.54117 0.48796 0.29903
 H2056 H 0.52356 0.48974 0.32240
 H2057 H 0.52464 0.48004 0.34946
 H2058 H 0.51119 0.47932 0.37521
 H2059 H 0.51870 0.53159 0.38038
 H2060 H 0.53176 0.53243 0.35435
 H2061 H 0.49310 0.52630 0.39598
 H2062 H 0.48610 0.52536 0.42424
 H2063 H 0.51583 0.48130 0.42941
 H2064 H 0.52277 0.48228 0.40154
 C2065 C 0.54753 0.49885 0.16137
 C2066 C 0.54913 0.48510 0.17143
 C2067 C 0.55825 0.48604 0.18528
 C2068 C 0.56593 0.50079 0.18946
 C2069 C 0.56404 0.51466 0.17963
 C2070 C 0.55501 0.51369 0.16572
 C2071 C 0.53872 0.49760 0.14611
 C2072 C 0.52950 0.51101 0.14025
 C2073 C 0.52251 0.51038 0.12526
 C2074 C 0.52447 0.49628 0.11583
 C2075 C 0.53300 0.48257 0.12195
 C2076 C 0.54010 0.48324 0.13690
 C2077 C 0.51913 0.49649 0.09913
 C2078 C 0.51147 0.48282 0.09234
 C2079 C 0.50794 0.48267 0.07616
 C2080 C 0.51233 0.49605 0.06651
 C2081 C 0.51954 0.50986 0.07343
 C2082 C 0.52281 0.51012 0.08955
 H2083 H 0.54330 0.47358 0.16862
 H2084 H 0.55927 0.47522 0.19277
 H2085 H 0.56996 0.52613 0.18246
 H2086 H 0.55429 0.52445 0.15813
 H2087 H 0.52787 0.52212 0.14716
 H2088 H 0.51582 0.52105 0.12090
 H2089 H 0.53489 0.47163 0.11486
 H2090 H 0.54728 0.47275 0.14093
 H2091 H 0.50845 0.47218 0.09951
 H2092 H 0.50242 0.47185 0.07110
 H2093 H 0.52298 0.52040 0.06629
 H2094 H 0.52888 0.52073 0.09439
 C2095 C 0.04731 0.99944 0.66117
 C2096 C 0.04911 0.98511 0.67045
 C2097 C 0.05839 0.98528 0.68425
 C2098 C 0.06601 0.99980 0.68917
 C2099 C 0.06396 1.01421 0.68010
 C2100 C 0.05478 1.01402 0.66623
 C2101 C 0.03820 0.99909 0.64600
 C2102 C 0.02887 1.01282 0.64102
 C2103 C 0.02149 1.01303 0.62619
 C2104 C 0.02314 0.99947 0.61601
 C2105 C 0.03185 0.98546 0.62122
 C2106 C 0.03935 0.98528 0.63601
 C2107 C 0.01718 1.00054 0.59952
 C2108 C 0.00934 0.98721 0.59234
 C2109 C 0.00516 0.98790 0.57632
 C2110 C 0.00906 1.00182 0.56717
 C2111 C 0.01645 1.01530 0.57451
 C2112 C 0.02037 1.01471 0.59049
 H2113 H 0.04330 0.97375 0.66708
 H2114 H 0.05953 0.97405 0.69114
 H2115 H 0.06984 1.02553 0.68349
 H2116 H 0.05393 1.02521 0.65925
 H2117 H 0.02740 1.02351 0.64853
 H2118 H 0.01467 1.02392 0.62255
 H2119 H 0.03352 0.97492 0.61354
 H2120 H 0.04660 0.97458 0.63934
 H2121 H 0.00667 0.97617 0.59907
 H2122 H -0.00046 0.97731 0.57094
 H2123 H 0.01954 1.02623 0.56778
 H2124 H 0.02655 1.02510 0.59563
 C2125 C -0.04905 0.49567 0.65982
 C2126 C -0.04392 0.48612 0.67282
 C2127 C -0.05281 0.48637 0.68699
 C2128 C -0.06713 0.49604 0.68840
 C2129 C -0.07216 0.50568 0.67545
 C2130 C -0.06322 0.50553 0.66135
 C2131 C -0.04009 0.49494 0.64451
 C2132 C -0.03764 0.50933 0.63552
 C2133 C -0.03049 0.50846 0.62050
 C2134 C -0.02574 0.49317 0.61409
 C2135 C -0.02767 0.47885 0.62331
 C2136 C -0.03471 0.47973 0.63837
 C2137 C -0.02014 0.49203 0.59740
 C2138 C -0.02647 0.47982 0.58756
 C2139 C -0.02271 0.47963 0.57147
 C2140 C -0.01242 0.49159 0.56482
 C2141 C -0.00547 0.50338 0.57476
 C2142 C -0.00939 0.50367 0.59089
 H2143 H -0.03300 0.47848 0.67202
 H2144 H -0.04868 0.47875 0.69673
 H2145 H -0.08302 0.51341 0.67623
 H2146 H -0.06760 0.51287 0.65150
 H2147 H -0.04148 0.52125 0.64002
 H2148 H -0.02930 0.51969 0.61364
 H2149 H -0.02400 0.46690 0.61873
 H2150 H -0.03652 0.46842 0.64496
 H2151 H -0.03492 0.47079 0.59216
 H2152 H -0.02823 0.47033 0.56416
 H2153 H 0.00245 0.51279 0.56998
 H2154 H -0.00423 0.51315 0.59823
 C2155 C 0.44883 0.00130 0.16056
 C2156 C 0.45471 -0.00800 0.17341
 C2157 C 0.44579 -0.00874 0.18754
 C2158 C 0.43072 -0.00037 0.18901
 C2159 C 0.42492 0.00901 0.17619
 C2160 C 0.43391 0.00990 0.16215
 C2161 C 0.45777 0.00146 0.14526
 C2162 C 0.45951 0.01620 0.13663
 C2163 C 0.46660 0.01605 0.12156
 C2164 C 0.47189 0.00113 0.11477
 C2165 C 0.47067 -0.01351 0.12362
 C2166 C 0.46376 -0.01334 0.13874
 C2167 C 0.47729 0.00057 0.09804
 C2168 C 0.47063 -0.01118 0.08791
 C2169 C 0.47475 -0.01132 0.07193
 C2170 C 0.48579 0.00016 0.06567
 C2171 C 0.49280 0.01171 0.07584
 C2172 C 0.48844 0.01202 0.09188
 H2173 H 0.46621 -0.01469 0.17252
 H2174 H 0.45052 -0.01611 0.19722
 H2175 H 0.41343 0.01574 0.17706
 H2176 H 0.42899 0.01702 0.15239
 H2177 H 0.45513 0.02780 0.14144
 H2178 H 0.46730 0.02748 0.11494
 H2179 H 0.47475 -0.02516 0.11868
 H2180 H 0.46249 -0.02489 0.14507
 H2181 H 0.46186 -0.02001 0.09229
 H2182 H 0.46921 -0.02045 0.06444
 H2183 H 0.50132 0.02071 0.07133
 H2184 H 0.49375 0.02119 0.09947
 C2185 C 0.35387 0.40842 0.00174
 C2186 C 0.33989 0.41637 0.00799
 C2187 C 0.32446 0.40923 0.00676
 C2188 C 0.32254 0.39398 -0.00083
 C2189 C 0.33652 0.38606 -0.00709
 C2190 C 0.35195 0.39312 -0.00574
 C2191 C 0.37030 0.41618 0.00267
 C2192 C 0.38155 0.41456 -0.00986
 C2193 C 0.39678 0.42211 -0.00927
 C2194 C 0.40120 0.43170 0.00378
 C2195 C 0.39011 0.43312 0.01646
 C2196 C 0.37486 0.42544 0.01592
 C2197 C 0.41701 0.44070 0.00372
 C2198 C 0.42633 0.44247 0.01753
 C2199 C 0.44113 0.45106 0.01719
 C2200 C 0.44695 0.45803 0.00302
 C2201 C 0.43757 0.45623 -0.01071
 C2202 C 0.42284 0.44778 -0.01035
 H2203 H 0.34082 0.42826 0.01365
 H2204 H 0.31405 0.41561 0.01192
 H2205 H 0.33557 0.37442 -0.01319
 H2206 H 0.36241 0.38648 -0.01051
 H2207 H 0.37847 0.40772 -0.02034
 H2208 H 0.40509 0.42049 -0.01915
 H2209 H 0.39304 0.44048 0.02666
 H2210 H 0.36665 0.42677 0.02591
 H2211 H 0.42227 0.43707 0.02856
 H2212 H 0.44803 0.45219 0.02798
 H2213 H 0.44149 0.46154 -0.02184
 H2214 H 0.41588 0.44704 -0.02113
 C2215 C -0.14748 0.91063 0.50248
 C2216 C -0.14890 0.89564 0.49434
 C2217 C -0.16401 0.88794 0.49300
 C2218 C -0.17817 0.89491 0.49988
 C2219 C -0.17675 0.90984 0.50813
 C2220 C -0.16162 0.91761 0.50939
 C2221 C -0.13142 0.91911 0.50339
 C2222 C -0.12685 0.92776 0.51701
 C2223 C -0.11197 0.93613 0.51754
 C2224 C -0.10130 0.93606 0.50446
 C2225 C -0.10573 0.92709 0.49101
 C2226 C -0.12058 0.91883 0.49045
 C2227 C -0.08594 0.94579 0.50445
 C2228 C -0.08102 0.95411 0.49069
 C2229 C -0.06666 0.96316 0.49034
 C2230 C -0.05674 0.96432 0.50379
 C2231 C -0.06168 0.95615 0.51767
 C2232 C -0.07613 0.94697 0.51800
 H2233 H -0.13828 0.88976 0.48904
 H2234 H -0.16462 0.87657 0.48639
 H2235 H -0.18730 0.91547 0.51379
 H2236 H -0.16107 0.92923 0.51559
 H2237 H -0.13476 0.92807 0.52728
 H2238 H -0.10901 0.94298 0.52805
 H2239 H -0.09772 0.92652 0.48081
 H2240 H -0.12371 0.91249 0.47969
 H2241 H -0.08842 0.95384 0.48015
 H2242 H -0.06342 0.96941 0.47946
 H2243 H -0.05434 0.95675 0.52824
 H2244 H -0.07949 0.94061 0.52878
 C2245 C -0.15965 0.08190 0.99405
 C2246 C -0.16229 0.09317 1.00632
 C2247 C -0.17723 0.10155 1.00792
 C2248 C -0.19027 0.09883 0.99738
 C2249 C -0.18738 0.08739 0.98503
 C2250 C -0.17230 0.07919 0.98336
 C2251 C -0.14377 0.07288 0.99269
 C2252 C -0.13551 0.07156 0.97813
 C2253 C -0.12014 0.06374 0.97719
 C2254 C -0.11280 0.05694 0.99076
 C2255 C -0.12142 0.05781 1.00517
 C2256 C -0.13662 0.06577 1.00613
 C2257 C -0.09610 0.04928 0.99020
 C2258 C -0.08550 0.05117 1.00302
 C2259 C -0.07035 0.04313 1.00332
 C2260 C -0.06518 0.03312 0.99070
 C2261 C -0.07533 0.03182 0.97746
 C2262 C -0.09070 0.03977 0.97724
 H2263 H -0.15261 0.09575 1.01458
 H2264 H -0.17808 0.11061 1.01720
 H2265 H -0.19683 0.08410 0.97684
 H2266 H -0.17066 0.07036 0.97391
 H2267 H -0.14073 0.07700 0.96759
 H2268 H -0.11384 0.06341 0.96593
 H2269 H -0.11644 0.05229 1.01579
 H2270 H -0.14285 0.06630 1.01744
 H2271 H -0.08894 0.05882 1.01297
 H2272 H -0.06270 0.04466 1.01358
 H2273 H -0.07167 0.02418 0.96758
 H2274 H -0.09855 0.03801 0.96718
 C2275 C 0.33365 0.58282 0.49319
 C2276 C 0.32506 0.58208 0.50760
 C2277 C 0.31021 0.59058 0.50958
 C2278 C 0.30353 0.60001 0.49719
 C2279 C 0.31212 0.60075 0.48276
 C2280 C 0.32701 0.59229 0.48080
 C2281 C 0.34949 0.57377 0.49120
 C2282 C 0.36271 0.58099 0.48315
 C2283 C 0.37785 0.57277 0.48212
 C2284 C 0.38011 0.55717 0.48914
 C2285 C 0.36673 0.54974 0.49671
 C2286 C 0.35164 0.55793 0.49773
 C2287 C 0.39650 0.54898 0.48945
 C2288 C 0.40189 0.54123 0.50335
 C2289 C 0.41717 0.53349 0.50398
 C2290 C 0.42760 0.53322 0.49071
 C2291 C 0.42229 0.54104 0.47675
 C2292 C 0.40691 0.54891 0.47616
 H2293 H 0.32992 0.57508 0.51746
 H2294 H 0.30386 0.58963 0.52079
 H2295 H 0.30743 0.60807 0.47303
 H2296 H 0.33325 0.59302 0.46952
 H2297 H 0.36151 0.59323 0.47809
 H2298 H 0.38796 0.57887 0.47633
 H2299 H 0.36796 0.53759 0.50195
 H2300 H 0.34162 0.55185 0.50368
 H2301 H 0.39433 0.54131 0.51388
 H2302 H 0.42077 0.52766 0.51496
 H2303 H 0.43001 0.54111 0.46633
 H2304 H 0.40307 0.55475 0.46525
 C2305 C 0.14648 0.58257 0.50597
 C2306 C 0.14987 0.59468 0.51729
 C2307 C 0.16437 0.60362 0.51655
 C2308 C 0.17596 0.60055 0.50457
 C2309 C 0.17269 0.58839 0.49333
 C2310 C 0.15810 0.57959 0.49395
 C2311 C 0.13089 0.57318 0.50659
 C2312 C 0.13049 0.55657 0.50186
 C2313 C 0.11580 0.54795 0.50181
 C2314 C 0.10115 0.55563 0.50668
 C2315 C 0.10154 0.57207 0.51181
 C2316 C 0.11621 0.58077 0.51167
 C2317 C 0.08544 0.54670 0.50578
 C2318 C 0.07408 0.54714 0.51831
 C2319 C 0.05928 0.53870 0.51725
 C2320 C 0.05544 0.52990 0.50352
 C2321 C 0.06680 0.52958 0.49100
 C2322 C 0.08164 0.53777 0.49216
 H2323 H 0.14141 0.59713 0.52689
 H2324 H 0.16666 0.61276 0.52551
 H2325 H 0.18130 0.58590 0.48385
 H2326 H 0.15583 0.57063 0.48482
 H2327 H 0.14156 0.55015 0.49823
 H2328 H 0.11589 0.53522 0.49800
 H2329 H 0.09039 0.57834 0.51545
 H2330 H 0.11594 0.59359 0.51517
 H2331 H 0.07674 0.55388 0.52897
 H2332 H 0.05076 0.53923 0.52707
 H2333 H 0.06427 0.52288 0.48028
 H2334 H 0.09007 0.53736 0.48226
 C2335 C 0.65391 0.07870 0.00926
 C2336 C 0.66558 0.07493 -0.00251
 C2337 C 0.67994 0.08401 -0.00391
 C2338 C 0.68297 0.09718 0.00633
 C2339 C 0.67135 0.10095 0.01811
 C2340 C 0.65703 0.09181 0.01958
 C2341 C 0.63851 0.06913 0.01061
 C2342 C 0.62360 0.07700 0.01451
 C2343 C 0.60906 0.06810 0.01514
 C2344 C 0.60905 0.05115 0.01179
 C2345 C 0.62398 0.04320 0.00823
 C2346 C 0.63852 0.05206 0.00770
 C2347 C 0.59346 0.04195 0.01112
 C2348 C 0.59065 0.03109 -0.00140
 C2349 C 0.57578 0.02297 -0.00265
 C2350 C 0.56334 0.02537 0.00866
 C2351 C 0.56624 0.03596 0.02141
 C2352 C 0.58112 0.04426 0.02257
 H2353 H 0.66347 0.06513 -0.01086
 H2354 H 0.68854 0.08093 -0.01324
 H2355 H 0.67344 0.11086 0.02635
 H2356 H 0.64849 0.09490 0.02894
 H2357 H 0.62307 0.09015 0.01662
 H2358 H 0.59772 0.07460 0.01772
 H2359 H 0.62440 0.03010 0.00582
 H2360 H 0.64980 0.04550 0.00501
 H2361 H 0.59981 0.02921 -0.01052
 H2362 H 0.57399 0.01489 -0.01261
 H2363 H 0.55689 0.03813 0.03028
 H2364 H 0.58298 0.05249 0.03240
 C2365 C 0.66180 0.91654 0.48926
 C2366 C 0.66249 0.90045 0.49551
 C2367 C 0.67750 0.89227 0.49751
 C2368 C 0.69221 0.89992 0.49322
 C2369 C 0.69152 0.91596 0.48685
 C2370 C 0.67651 0.92419 0.48495
 C2371 C 0.64586 0.92545 0.48766
 C2372 C 0.64439 0.94213 0.49194
 C2373 C 0.62927 0.95033 0.49126
 C2374 C 0.61524 0.94210 0.48621
 C2375 C 0.61676 0.92556 0.48148
 C2376 C 0.63189 0.91730 0.48227
 C2377 C 0.59898 0.95055 0.48675
 C2378 C 0.58766 0.94902 0.47441
 C2379 C 0.57237 0.95708 0.47521
 C2380 C 0.56805 0.96661 0.48846
 C2381 C 0.57940 0.96799 0.50078
 C2382 C 0.59463 0.96012 0.49991
 H2383 H 0.65141 0.89428 0.49910
 H2384 H 0.67758 0.87984 0.50225
 H2385 H 0.70262 0.92224 0.48351
 H2386 H 0.67640 0.93653 0.48000
 H2387 H 0.65485 0.94874 0.49626
 H2388 H 0.62853 0.96312 0.49484
 H2389 H 0.60616 0.91886 0.47763
 H2390 H 0.63266 0.90450 0.47872
 H2391 H 0.59070 0.94176 0.46409
 H2392 H 0.56391 0.95572 0.46555
 H2393 H 0.57655 0.97523 0.51116
 H2394 H 0.60295 0.96134 0.50970
 C2395 C 0.16213 0.41970 0.98738
 C2396 C 0.16276 0.40397 0.99442
 C2397 C 0.17769 0.39567 0.99645
 C2398 C 0.19242 0.40286 0.99148
 C2399 C 0.19179 0.41853 0.98431
 C2400 C 0.17684 0.42686 0.98232
 C2401 C 0.14625 0.42876 0.98581
 C2402 C 0.14521 0.44576 0.98888
 C2403 C 0.13015 0.45410 0.98842
 C2404 C 0.11573 0.44567 0.98487
 C2405 C 0.11682 0.42878 0.98129
 C2406 C 0.13190 0.42041 0.98179
 C2407 C 0.09958 0.45431 0.98581
 C2408 C 0.08724 0.45146 0.97468
 C2409 C 0.07200 0.45952 0.97595
 C2410 C 0.06875 0.47045 0.98845
 C2411 C 0.08114 0.47323 0.99953
 C2412 C 0.09631 0.46530 0.99821
 H2413 H 0.15171 0.39817 0.99864
 H2414 H 0.17768 0.38351 1.00178
 H2415 H 0.20289 0.42447 0.98043
 H2416 H 0.17679 0.43890 0.97672
 H2417 H 0.15597 0.45256 0.99212
 H2418 H 0.12977 0.46716 0.99102
 H2419 H 0.10594 0.42191 0.97860
 H2420 H 0.13230 0.40737 0.97914
 H2421 H 0.08942 0.44311 0.96494
 H2422 H 0.06273 0.45705 0.96724
 H2423 H 0.07914 0.48156 1.00933
 H2424 H 0.10542 0.46757 1.00713
 C2425 C -0.01393 0.34906 0.40250
 C2426 C 0.00120 0.34130 0.39947
 C2427 C 0.00192 0.32575 0.39262
 C2428 C -0.01246 0.31742 0.38885
 C2429 C -0.02762 0.32525 0.39159
 C2430 C -0.02834 0.34094 0.39833
 C2431 C -0.01450 0.36519 0.41063
 C2432 C -0.02647 0.36849 0.42221
 C2433 C -0.02604 0.38303 0.43093
 C2434 C -0.01354 0.39441 0.42835
 C2435 C -0.00187 0.39141 0.41650
 C2436 C -0.00243 0.37701 0.40763
 C2437 C -0.01232 0.40911 0.43838
 C2438 C 0.00249 0.41273 0.44578
 C2439 C 0.00361 0.42644 0.45559
 C2440 C -0.01000 0.43687 0.45791
 C2441 C -0.02479 0.43327 0.45039
 C2442 C -0.02597 0.41941 0.44082
 H2443 H 0.01254 0.34706 0.40274
 H2444 H 0.01381 0.32023 0.39033
 H2445 H -0.03891 0.31911 0.38883
 H2446 H -0.04018 0.34669 0.40034
 H2447 H -0.03579 0.35956 0.42498
 H2448 H -0.03511 0.38511 0.44009
 H2449 H 0.00772 0.40019 0.41419
 H2450 H 0.00673 0.37503 0.39854
 H2451 H 0.01312 0.40482 0.44414
 H2452 H 0.01516 0.42898 0.46119
 H2453 H -0.03549 0.44108 0.45205
 H2454 H -0.03748 0.41681 0.43517
 C2455 C 0.48352 -0.16175 -0.07621
 C2456 C 0.47775 -0.16241 -0.09176
 C2457 C 0.47895 -0.17705 -0.10030
 C2458 C 0.48593 -0.19124 -0.09341
 C2459 C 0.49090 -0.19078 -0.07759
 C2460 C 0.48970 -0.17616 -0.06907
 C2461 C 0.48432 -0.14584 -0.06789
 C2462 C 0.49860 -0.14171 -0.05981
 C2463 C 0.49986 -0.12645 -0.05249
 C2464 C 0.48684 -0.11503 -0.05304
 C2465 C 0.47250 -0.11918 -0.06106
 C2466 C 0.47127 -0.13446 -0.06846
 C2467 C 0.48843 -0.09878 -0.04541
 C2468 C 0.48263 -0.08438 -0.05288
 C2469 C 0.48468 -0.06901 -0.04586
 C2470 C 0.49262 -0.06778 -0.03126
 C2471 C 0.49830 -0.08222 -0.02376
 C2472 C 0.49617 -0.09755 -0.03074
 H2473 H 0.47306 -0.15141 -0.09756
 H2474 H 0.47515 -0.17707 -0.11252
 H2475 H 0.49602 -0.20165 -0.07192
 H2476 H 0.49394 -0.17602 -0.05699
 H2477 H 0.50898 -0.15012 -0.05950
 H2478 H 0.51118 -0.12346 -0.04669
 H2479 H 0.46221 -0.11067 -0.06149
 H2480 H 0.46010 -0.13743 -0.07455
 H2481 H 0.47680 -0.08495 -0.06429
 H2482 H 0.48018 -0.05811 -0.05194
 H2483 H 0.50430 -0.08173 -0.01242
 H2484 H 0.50052 -0.10848 -0.02459
 C2485 C -0.00228 -0.15030 1.09304
 C2486 C -0.01133 -0.16309 1.08642
 C2487 C -0.01043 -0.17896 1.09274
 C2488 C -0.00049 -0.18233 1.10582
 C2489 C 0.00831 -0.16948 1.11267
 C2490 C 0.00746 -0.15359 1.10629
 C2491 C -0.00248 -0.13382 1.08556
 C2492 C 0.01219 -0.12543 1.08291
 C2493 C 0.01222 -0.11075 1.07427
 C2494 C -0.00241 -0.10422 1.06816
 C2495 C -0.01716 -0.11224 1.07142
 C2496 C -0.01719 -0.12692 1.08003
 C2497 C -0.00221 -0.08960 1.05772
 C2498 C -0.01161 -0.08932 1.04392
 C2499 C -0.01128 -0.07571 1.03383
 C2500 C -0.00152 -0.06210 1.03731
 C2501 C 0.00795 -0.06241 1.05111
 C2502 C 0.00761 -0.07605 1.06121
 H2503 H -0.01879 -0.16093 1.07608
 H2504 H -0.01749 -0.18862 1.08737
 H2505 H 0.01611 -0.17181 1.12273
 H2506 H 0.01447 -0.14388 1.11165
 H2507 H 0.02371 -0.13060 1.08691
 H2508 H 0.02377 -0.10487 1.07180
 H2509 H -0.02864 -0.10728 1.06710
 H2510 H -0.02869 -0.13303 1.08217
 H2511 H -0.01905 -0.09974 1.04080
 H2512 H -0.01869 -0.07590 1.02329
 H2513 H 0.01549 -0.05206 1.05421
 H2514 H 0.01487 -0.07592 1.07185
 C2515 C 0.50371 0.34177 0.57394
 C2516 C 0.49537 0.32795 0.56839
 C2517 C 0.49558 0.31324 0.57697
 C2518 C 0.50410 0.31210 0.59127
 C2519 C 0.51274 0.32581 0.59664
 C2520 C 0.51256 0.34051 0.58804
 C2521 C 0.50264 0.35765 0.56540
 C2522 C 0.51653 0.36744 0.56342
 C2523 C 0.51533 0.38270 0.55581
 C2524 C 0.50021 0.38842 0.55008
 C2525 C 0.48635 0.37857 0.55199
 C2526 C 0.48756 0.36332 0.55957
 C2527 C 0.49883 0.40468 0.54224
 C2528 C 0.48915 0.40666 0.52873
 C2529 C 0.48765 0.42203 0.52143
 C2530 C 0.49584 0.43574 0.52746
 C2531 C 0.50555 0.43375 0.54098
 C2532 C 0.50702 0.41836 0.54830
 H2533 H 0.48860 0.32857 0.55746
 H2534 H 0.48872 0.30288 0.57264
 H2535 H 0.51954 0.32518 0.60754
 H2536 H 0.51898 0.35103 0.59263
 H2537 H 0.52833 0.36324 0.56765
 H2538 H 0.52624 0.38995 0.55427
 H2539 H 0.47450 0.38281 0.54792
 H2540 H 0.47662 0.35613 0.56120
 H2541 H 0.48288 0.39627 0.52371
 H2542 H 0.48016 0.42312 0.51098
 H2543 H 0.51195 0.44407 0.54596
 H2544 H 0.51437 0.41721 0.55883
 C2545 C 0.49967 1.15633 0.57596
 C2546 C 0.50721 1.17041 0.56971
 C2547 C 0.50687 1.18520 0.57805
 C2548 C 0.49901 1.18617 0.59280
 C2549 C 0.49141 1.17211 0.59901
 C2550 C 0.49171 1.15735 0.59066
 C2551 C 0.50021 1.14058 0.56727
 C2552 C 0.50288 1.12565 0.57538
 C2553 C 0.50324 1.11075 0.56725
 C2554 C 0.50099 1.11051 0.55085
 C2555 C 0.49844 1.12543 0.54270
 C2556 C 0.49802 1.14033 0.55085
 C2557 C 0.50131 1.09470 0.54230
 C2558 C 0.50991 1.09317 0.52800
 C2559 C 0.51044 1.07813 0.52008
 C2560 C 0.50228 1.06437 0.52629
 C2561 C 0.49355 1.06599 0.54054
 C2562 C 0.49310 1.08100 0.54848
 H2563 H 0.51357 1.16992 0.55848
 H2564 H 0.51268 1.19590 0.57292
 H2565 H 0.48542 1.17244 0.61043
 H2566 H 0.48564 1.14674 0.59567
 H2567 H 0.50490 1.12550 0.58800
 H2568 H 0.50549 1.09943 0.57376
 H2569 H 0.49649 1.12552 0.53007
 H2570 H 0.49573 1.15164 0.54434
 H2571 H 0.51646 1.10353 0.52308
 H2572 H 0.51726 1.07729 0.50912
 H2573 H 0.48714 1.05564 0.54566
 H2574 H 0.48622 1.08195 0.55941
 C2575 C 0.00537 0.66699 1.06035
 C2576 C -0.00963 0.67452 1.06437
 C2577 C -0.01016 0.68817 1.07429
 C2578 C 0.00426 0.69440 1.08076
 C2579 C 0.01932 0.68729 1.07623
 C2580 C 0.01987 0.67388 1.06600
 C2581 C 0.00580 0.65136 1.05132
 C2582 C 0.01751 0.63906 1.05491
 C2583 C 0.01727 0.62387 1.04733
 C2584 C 0.00513 0.62054 1.03629
 C2585 C -0.00647 0.63274 1.03247
 C2586 C -0.00602 0.64811 1.03979
 C2587 C 0.00435 0.60409 1.02925
 C2588 C -0.00952 0.59436 1.03156
 C2589 C -0.00967 0.57817 1.02606
 C2590 C 0.00392 0.57168 1.01789
 C2591 C 0.01759 0.58162 1.01523
 C2592 C 0.01787 0.59766 1.02103
 H2593 H -0.02107 0.66952 1.06038
 H2594 H -0.02195 0.69361 1.07717
 H2595 H 0.03069 0.69165 1.08102
 H2596 H 0.03167 0.66867 1.06284
 H2597 H 0.02655 0.64090 1.06397
 H2598 H 0.02622 0.61448 1.05049
 H2599 H -0.01585 0.63033 1.02385
 H2600 H -0.01502 0.65738 1.03650
 H2601 H -0.02000 0.59916 1.03801
 H2602 H -0.02038 0.57074 1.02815
 H2603 H 0.02824 0.57685 1.00903
 H2604 H 0.02866 0.60504 1.01921
 C2605 C 0.51122 0.65536 -0.07685
 C2606 C 0.52301 0.65869 -0.08850
 C2607 C 0.52286 0.67381 -0.09641
 C2608 C 0.51094 0.68584 -0.09280
 C2609 C 0.49950 0.68270 -0.08077
 C2610 C 0.49965 0.66760 -0.07287
 C2611 C 0.51052 0.63889 -0.06938
 C2612 C 0.49540 0.63120 -0.06719
 C2613 C 0.49465 0.61552 -0.06046
 C2614 C 0.50900 0.60724 -0.05580
 C2615 C 0.52413 0.61491 -0.05801
 C2616 C 0.52488 0.63061 -0.06475
 C2617 C 0.50812 0.59073 -0.04848
 C2618 C 0.51933 0.57826 -0.05274
 C2619 C 0.51862 0.56274 -0.04560
 C2620 C 0.50670 0.55944 -0.03404
 C2621 C 0.49538 0.57191 -0.02993
 C2622 C 0.49609 0.58738 -0.03708
 H2623 H 0.53200 0.64942 -0.09185
 H2624 H 0.53191 0.67601 -0.10553
 H2625 H 0.49009 0.69170 -0.07785
 H2626 H 0.49057 0.66539 -0.06378
 H2627 H 0.48417 0.63718 -0.07095
 H2628 H 0.48285 0.60976 -0.05910
 H2629 H 0.53535 0.60886 -0.05430
 H2630 H 0.53667 0.63637 -0.06617
 H2631 H 0.52859 0.58048 -0.06165
 H2632 H 0.52750 0.55341 -0.04906
 H2633 H 0.48607 0.56980 -0.02104
 H2634 H 0.48742 0.59685 -0.03347
 C2635 C 0.00001 1.16165 0.42008
 C2636 C 0.01060 1.16303 0.40712
 C2637 C 0.01040 1.17717 0.39773
 C2638 C -0.00043 1.19043 0.40104
 C2639 C -0.01084 1.18901 0.41434
 C2640 C -0.01065 1.17478 0.42366
 C2641 C -0.00018 1.14629 0.42951
 C2642 C -0.01507 1.13913 0.43390
 C2643 C -0.01524 1.12403 0.44185
 C2644 C -0.00053 1.11585 0.44555
 C2645 C 0.01436 1.12323 0.44152
 C2646 C 0.01453 1.13831 0.43358
 C2647 C -0.00067 1.09946 0.45323
 C2648 C 0.01008 1.08695 0.44808
 C2649 C 0.01006 1.07149 0.45532
 C2650 C -0.00072 1.06822 0.46789
 C2651 C -0.01159 1.08072 0.47294
 C2652 C -0.01157 1.09619 0.46567
 H2653 H 0.01891 1.15303 0.40406
 H2654 H 0.01918 1.17773 0.38817
 H2655 H -0.01976 1.19847 0.41726
 H2656 H -0.01892 1.17401 0.43366
 H2657 H -0.02658 1.14495 0.43073
 H2658 H -0.02688 1.11851 0.44468
 H2659 H 0.02588 1.11732 0.44452
 H2660 H 0.02617 1.14372 0.43055
 H2661 H 0.01841 1.08908 0.43832
 H2662 H 0.01853 1.06212 0.45108
 H2663 H -0.02002 1.07862 0.48262
 H2664 H -0.01988 1.10567 0.46995
 C2665 C 0.74018 0.69988 0.91064
 C2666 C 0.75579 0.69848 0.91739
 C2667 C 0.75809 0.68991 0.93160
 C2668 C 0.74484 0.68252 0.93941
 C2669 C 0.72917 0.68424 0.93282
 C2670 C 0.72688 0.69282 0.91864
 C2671 C 0.73795 0.70784 0.89491
 C2672 C 0.72754 0.70080 0.88374
 C2673 C 0.72639 0.70735 0.86851
 C2674 C 0.73563 0.72111 0.86403
 C2675 C 0.74554 0.72860 0.87534
 C2676 C 0.74673 0.72200 0.89061
 C2677 C 0.73600 0.72661 0.84727
 C2678 C 0.73583 0.74344 0.84309
 C2679 C 0.73711 0.74830 0.82720
 C2680 C 0.73887 0.73639 0.81528
 C2681 C 0.73872 0.71960 0.81952
 C2682 C 0.73727 0.71479 0.83526
 H2683 H 0.76634 0.70360 0.91147
 H2684 H 0.77028 0.68901 0.93643
 H2685 H 0.71871 0.67857 0.93840
 H2686 H 0.71467 0.69382 0.91386
 H2687 H 0.72072 0.68980 0.88656
 H2688 H 0.71853 0.70141 0.86009
 H2689 H 0.75289 0.73914 0.87220
 H2690 H 0.75469 0.72785 0.89900
 H2691 H 0.73479 0.75281 0.85211
 H2692 H 0.73723 0.76131 0.82430
 H2693 H 0.73996 0.71009 0.81065
 H2694 H 0.73766 0.70175 0.83808
 C2695 C 0.25446 0.20032 0.40925
 C2696 C 0.25939 0.20738 0.42354
 C2697 C 0.25921 0.19813 0.43755
 C2698 C 0.25397 0.18167 0.43757
 C2699 C 0.24887 0.17472 0.42330
 C2700 C 0.24911 0.18392 0.40933
 C2701 C 0.25535 0.20970 0.39416
 C2702 C 0.26125 0.20188 0.38048
 C2703 C 0.26194 0.21038 0.36616
 C2704 C 0.25681 0.22696 0.36509
 C2705 C 0.25088 0.23485 0.37875
 C2706 C 0.25025 0.22632 0.39318
 C2707 C 0.25757 0.23562 0.34959
 C2708 C 0.24447 0.24550 0.34415
 C2709 C 0.24431 0.25139 0.32853
 C2710 C 0.25720 0.24737 0.31817
 C2711 C 0.27075 0.23851 0.32399
 C2712 C 0.27098 0.23281 0.33951
 H2713 H 0.26368 0.21995 0.42383
 H2714 H 0.26305 0.20388 0.44839
 H2715 H 0.24492 0.16204 0.42286
 H2716 H 0.24506 0.17817 0.39856
 H2717 H 0.26544 0.18917 0.38086
 H2718 H 0.26631 0.20384 0.35582
 H2719 H 0.24688 0.24762 0.37829
 H2720 H 0.24555 0.23263 0.40352
 H2721 H 0.23395 0.24787 0.35166
 H2722 H 0.23369 0.25813 0.32429
 H2723 H 0.28096 0.23543 0.31630
 H2724 H 0.28144 0.22563 0.34346
 C2725 C 0.75059 0.30087 0.40998
 C2726 C 0.75927 0.29641 0.42365
 C2727 C 0.75682 0.30505 0.43777
 C2728 C 0.74563 0.31836 0.43855
 C2729 C 0.73675 0.32260 0.42496
 C2730 C 0.73925 0.31404 0.41087
 C2731 C 0.75359 0.29234 0.39466
 C2732 C 0.74065 0.28998 0.38411
 C2733 C 0.74362 0.28395 0.36896
 C2734 C 0.75955 0.27986 0.36406
 C2735 C 0.77243 0.28121 0.37479
 C2736 C 0.76949 0.28746 0.38997
 C2737 C 0.76264 0.27608 0.34726
 C2738 C 0.76848 0.26056 0.34232
 C2739 C 0.76923 0.25674 0.32616
 C2740 C 0.76427 0.26848 0.31479
 C2741 C 0.75947 0.28432 0.31992
 C2742 C 0.75855 0.28801 0.33592
 H2743 H 0.76798 0.28625 0.42344
 H2744 H 0.76400 0.30156 0.44796
 H2745 H 0.72789 0.33262 0.42516
 H2746 H 0.73252 0.31804 0.40055
 H2747 H 0.72821 0.29316 0.38744
 H2748 H 0.73351 0.28291 0.36085
 H2749 H 0.78482 0.27823 0.37116
 H2750 H 0.77977 0.28921 0.39772
 H2751 H 0.77171 0.25120 0.35096
 H2752 H 0.77297 0.24444 0.32262
 H2753 H 0.75574 0.29379 0.31158
 H2754 H 0.75420 0.30011 0.33950
 C2755 C 0.25462 0.79786 0.91657
 C2756 C 0.26748 0.79827 0.92747
 C2757 C 0.26614 0.80787 0.94112
 C2758 C 0.25194 0.81733 0.94415
 C2759 C 0.23905 0.81682 0.93330
 C2760 C 0.24038 0.80721 0.91970
 C2761 C 0.25611 0.78818 0.90174
 C2762 C 0.24254 0.77984 0.89580
 C2763 C 0.24326 0.77237 0.88100
 C2764 C 0.25757 0.77300 0.87178
 C2765 C 0.27147 0.78045 0.87808
 C2766 C 0.27074 0.78800 0.89291
 C2767 C 0.25728 0.76764 0.85507
 C2768 C 0.27006 0.75821 0.84831
 C2769 C 0.26967 0.75394 0.83226
 C2770 C 0.25668 0.75940 0.82270
 C2771 C 0.24393 0.76871 0.82959
 C2772 C 0.24419 0.77271 0.84553
 H2773 H 0.27856 0.79114 0.92547
 H2774 H 0.27636 0.80813 0.94916
 H2775 H 0.22790 0.82383 0.93535
 H2776 H 0.23034 0.80738 0.91144
 H2777 H 0.23122 0.77939 0.90246
 H2778 H 0.23243 0.76649 0.87652
 H2779 H 0.28260 0.78123 0.87117
 H2780 H 0.28138 0.79439 0.89711
 H2781 H 0.28029 0.75416 0.85544
 H2782 H 0.27966 0.74677 0.82725
 H2783 H 0.23367 0.77300 0.82261
 H2784 H 0.23430 0.78018 0.85032
 C2785 C 0.24932 0.80383 0.09297
 C2786 C 0.23911 0.79926 0.08056
 C2787 C 0.23959 0.80765 0.06609
 C2788 C 0.25031 0.82102 0.06355
 C2789 C 0.26062 0.82535 0.07614
 C2790 C 0.26010 0.81693 0.09055
 C2791 C 0.24861 0.79526 0.10853
 C2792 C 0.26301 0.79204 0.11699
 C2793 C 0.26235 0.78548 0.13223
 C2794 C 0.24727 0.78194 0.13942
 C2795 C 0.23289 0.78434 0.13071
 C2796 C 0.23354 0.79096 0.11541
 C2797 C 0.24664 0.77718 0.15637
 C2798 C 0.23651 0.76448 0.16194
 C2799 C 0.23615 0.76036 0.17807
 C2800 C 0.24570 0.76906 0.18889
 C2801 C 0.25568 0.78181 0.18320
 C2802 C 0.25616 0.78577 0.16721
 H2803 H 0.23087 0.78901 0.08195
 H2804 H 0.23185 0.80313 0.05683
 H2805 H 0.26867 0.83578 0.07534
 H2806 H 0.26789 0.82102 0.10001
 H2807 H 0.27483 0.79483 0.11189
 H2808 H 0.27367 0.78346 0.13856
 H2809 H 0.22109 0.78183 0.13600
 H2810 H 0.22221 0.79338 0.10925
 H2811 H 0.22905 0.75765 0.15381
 H2812 H 0.22833 0.75049 0.18207
 H2813 H 0.26326 0.78878 0.19111
 H2814 H 0.26386 0.79579 0.16333
 C2815 C 0.74494 0.30265 0.58929
 C2816 C 0.73009 0.30868 0.58328
 C2817 C 0.72954 0.31713 0.56887
 C2818 C 0.74392 0.32001 0.55992
 C2819 C 0.75872 0.31337 0.56586
 C2820 C 0.75920 0.30487 0.58027
 C2821 C 0.74567 0.29497 0.60530
 C2822 C 0.75870 0.29846 0.61543
 C2823 C 0.75885 0.29243 0.63089
 C2824 C 0.74595 0.28283 0.63672
 C2825 C 0.73319 0.27881 0.62646
 C2826 C 0.73304 0.28483 0.61093
 C2827 C 0.74549 0.27792 0.65367
 C2828 C 0.74033 0.26218 0.65854
 C2829 C 0.74036 0.25776 0.67459
 C2830 C 0.74553 0.26902 0.68606
 C2831 C 0.75034 0.28483 0.68111
 C2832 C 0.75029 0.28921 0.66520
 H2833 H 0.71884 0.30724 0.58991
 H2834 H 0.71764 0.32105 0.56477
 H2835 H 0.77025 0.31532 0.55994
 H2836 H 0.77085 0.30020 0.58444
 H2837 H 0.76854 0.30634 0.61160
 H2838 H 0.76901 0.29553 0.63839
 H2839 H 0.72305 0.27149 0.63060
 H2840 H 0.72294 0.28169 0.60338
 H2841 H 0.73658 0.25320 0.64992
 H2842 H 0.73658 0.24549 0.67798
 H2843 H 0.75423 0.29395 0.68955
 H2844 H 0.75394 0.30156 0.66193
 C2845 C 0.25232 0.19804 0.58822
 C2846 C 0.24079 0.18562 0.58575
 C2847 C 0.24010 0.17739 0.57136
 C2848 C 0.25090 0.18137 0.55902
 C2849 C 0.26206 0.19420 0.56124
 C2850 C 0.26276 0.20246 0.57571
 C2851 C 0.25361 0.20583 0.60400
 C2852 C 0.25567 0.22294 0.60567
 C2853 C 0.25559 0.23015 0.62070
 C2854 C 0.25340 0.22034 0.63424
 C2855 C 0.25216 0.20319 0.63254
 C2856 C 0.25228 0.19603 0.61764
 C2857 C 0.25127 0.22771 0.65012
 C2858 C 0.23846 0.22224 0.65978
 C2859 C 0.23700 0.22757 0.67529
 C2860 C 0.24834 0.23855 0.68167
 C2861 C 0.26069 0.24481 0.67179
 C2862 C 0.26214 0.23943 0.65608
 H2863 H 0.23229 0.18221 0.59502
 H2864 H 0.23111 0.16784 0.56990
 H2865 H 0.27062 0.19747 0.55199
 H2866 H 0.27180 0.21193 0.57728
 H2867 H 0.25673 0.23081 0.59536
 H2868 H 0.25656 0.24341 0.62172
 H2869 H 0.25083 0.19530 0.64281
 H2870 H 0.25116 0.18277 0.61678
 H2871 H 0.22968 0.21353 0.65538
 H2872 H 0.22712 0.22273 0.68242
 H2873 H 0.26958 0.25331 0.67635
 H2874 H 0.27209 0.24388 0.64881
 C2875 C 0.76386 0.69574 0.08939
 C2876 C 0.77055 0.67987 0.08728
 C2877 C 0.76887 0.67160 0.07298
 C2878 C 0.76049 0.67894 0.06016
 C2879 C 0.75449 0.69525 0.06215
 C2880 C 0.75610 0.70347 0.07656
 C2881 C 0.76401 0.70360 0.10525
 C2882 C 0.76632 0.72068 0.10706
 C2883 C 0.76549 0.72793 0.12206
 C2884 C 0.76218 0.71825 0.13548
 C2885 C 0.76035 0.70115 0.13366
 C2886 C 0.76120 0.69395 0.11878
 C2887 C 0.75971 0.72570 0.15132
 C2888 C 0.74672 0.72028 0.16079
 C2889 C 0.74497 0.72571 0.17625
 C2890 C 0.75610 0.73681 0.18274
 C2891 C 0.76862 0.74305 0.17306
 C2892 C 0.77042 0.73751 0.15742
 H2893 H 0.77707 0.67375 0.09677
 H2894 H 0.77461 0.65956 0.07203
 H2895 H 0.74764 0.70150 0.05299
 H2896 H 0.75063 0.71562 0.07785
 H2897 H 0.76866 0.72843 0.09687
 H2898 H 0.76693 0.74113 0.12312
 H2899 H 0.75802 0.69332 0.14379
 H2900 H 0.75916 0.68082 0.11785
 H2901 H 0.73800 0.71157 0.15629
 H2902 H 0.73496 0.72093 0.18324
 H2903 H 0.77734 0.75165 0.17774
 H2904 H 0.78052 0.74194 0.15033
 C2905 C 0.16721 0.59882 0.24382
 C2906 C 0.15016 0.59929 0.24601
 C2907 C 0.14133 0.58470 0.24757
 C2908 C 0.14930 0.56923 0.24705
 C2909 C 0.16633 0.56876 0.24476
 C2910 C 0.17515 0.58334 0.24313
 C2911 C 0.17670 0.61438 0.24279
 C2912 C 0.19206 0.61546 0.25001
 C2913 C 0.20066 0.63023 0.24978
 C2914 C 0.19411 0.64441 0.24243
 C2915 C 0.17896 0.64326 0.23482
 C2916 C 0.17035 0.62843 0.23501
 C2917 C 0.20272 0.66046 0.24348
 C2918 C 0.20322 0.67159 0.23068
 C2919 C 0.21127 0.68671 0.23201
 C2920 C 0.21893 0.69102 0.24620
 C2921 C 0.21834 0.67985 0.25895
 C2922 C 0.21035 0.66484 0.25761
 H2923 H 0.14364 0.61096 0.24680
 H2924 H 0.12820 0.58557 0.24905
 H2925 H 0.17292 0.55710 0.24443
 H2926 H 0.18823 0.58248 0.24126
 H2927 H 0.19729 0.60499 0.25624
 H2928 H 0.21242 0.63059 0.25554
 H2929 H 0.17351 0.65396 0.22913
 H2930 H 0.15867 0.62799 0.22912
 H2931 H 0.19752 0.66854 0.21959
 H2932 H 0.21143 0.69502 0.22197
 H2933 H 0.22400 0.68269 0.27011
 H2934 H 0.20993 0.65677 0.26782
 C2935 C 0.66419 0.09989 0.73984
 C2936 C 0.64801 0.09942 0.74536
 C2937 C 0.63970 0.08450 0.74649
 C2938 C 0.64730 0.06939 0.74218
 C2939 C 0.66359 0.07005 0.73650
 C2940 C 0.67183 0.08505 0.73530
 C2941 C 0.67320 0.11574 0.73942
 C2942 C 0.68355 0.11978 0.72669
 C2943 C 0.69230 0.13456 0.72666
 C2944 C 0.69100 0.14548 0.73945
 C2945 C 0.68047 0.14152 0.75204
 C2946 C 0.67168 0.12688 0.75202
 C2947 C 0.70103 0.16065 0.74016
 C2948 C 0.70871 0.16480 0.75432
 C2949 C 0.71764 0.17926 0.75550
 C2950 C 0.71915 0.19009 0.74255
 C2951 C 0.71174 0.18581 0.72822
 C2952 C 0.70281 0.17118 0.72703
 H2953 H 0.64173 0.11066 0.74890
 H2954 H 0.62752 0.08497 0.75145
 H2955 H 0.67000 0.05912 0.73245
 H2956 H 0.68433 0.08498 0.73104
 H2957 H 0.68487 0.11153 0.71674
 H2958 H 0.70038 0.13724 0.71684
 H2959 H 0.67906 0.14977 0.76198
 H2960 H 0.66395 0.12409 0.76207
 H2961 H 0.70783 0.15681 0.76456
 H2962 H 0.72324 0.18199 0.76672
 H2963 H 0.71262 0.19385 0.71803
 H2964 H 0.69697 0.16830 0.71597
 C2965 C 0.83579 0.09489 0.25729
 C2966 C 0.83601 0.08608 0.24303
 C2967 C 0.84367 0.07060 0.24203
 C2968 C 0.85125 0.06348 0.25528
 C2969 C 0.85078 0.07212 0.26964
 C2970 C 0.84314 0.08765 0.27063
 C2971 C 0.82806 0.11162 0.25809
 C2972 C 0.81884 0.11659 0.27135
 C2973 C 0.81102 0.13208 0.27167
 C2974 C 0.81220 0.14288 0.25870
 C2975 C 0.82182 0.13809 0.24567
 C2976 C 0.82965 0.12269 0.24537
 C2977 C 0.80286 0.15874 0.25830
 C2978 C 0.79465 0.16348 0.24448
 C2979 C 0.78581 0.17829 0.24379
 C2980 C 0.78494 0.18886 0.25690
 C2981 C 0.79314 0.18413 0.27080
 C2982 C 0.80194 0.16917 0.27151
 H2983 H 0.83015 0.09110 0.23261
 H2984 H 0.84356 0.06415 0.23087
 H2985 H 0.85669 0.06707 0.28002
 H2986 H 0.84335 0.09416 0.28175
 H2987 H 0.81725 0.10832 0.28130
 H2988 H 0.80359 0.13537 0.28182
 H2989 H 0.82324 0.14628 0.23563
 H2990 H 0.83699 0.11946 0.23514
 H2991 H 0.79488 0.15561 0.23419
 H2992 H 0.77968 0.18143 0.23288
 H2993 H 0.79276 0.19197 0.28110
 H2994 H 0.80823 0.16586 0.28229
 C2995 C 0.33775 0.59118 0.76089
 C2996 C 0.33824 0.58297 0.74630
 C2997 C 0.34594 0.56755 0.74484
 C2998 C 0.35335 0.55990 0.75793
 C2999 C 0.35264 0.56798 0.77259
 C3000 C 0.34491 0.58343 0.77406
 C3001 C 0.32990 0.60781 0.76220
 C3002 C 0.32015 0.61207 0.77535
 C3003 C 0.31212 0.62744 0.77604
 C3004 C 0.31367 0.63887 0.76361
 C3005 C 0.32388 0.63481 0.75076
 C3006 C 0.33188 0.61950 0.75007
 C3007 C 0.30402 0.65457 0.76345
 C3008 C 0.29655 0.65986 0.74942
 C3009 C 0.28744 0.67450 0.74892
 C3010 C 0.28549 0.68436 0.76245
 C3011 C 0.29292 0.67908 0.77656
 C3012 C 0.30204 0.66428 0.77707
 H3013 H 0.33254 0.58842 0.73600
 H3014 H 0.34597 0.56156 0.73346
 H3015 H 0.35841 0.56255 0.78287
 H3016 H 0.34489 0.58948 0.78542
 H3017 H 0.31829 0.60331 0.78485
 H3018 H 0.30425 0.63015 0.78604
 H3019 H 0.32562 0.64347 0.74115
 H3020 H 0.33961 0.61680 0.73997
 H3021 H 0.29756 0.65255 0.73879
 H3022 H 0.28191 0.67805 0.73782
 H3023 H 0.29170 0.68636 0.78720
 H3024 H 0.30772 0.66054 0.78805
 C3025 C 0.33672 0.40020 0.74442
 C3026 C 0.35276 0.40033 0.75016
 C3027 C 0.36107 0.41515 0.75199
 C3028 C 0.35366 0.43049 0.74813
 C3029 C 0.33749 0.43019 0.74227
 C3030 C 0.32923 0.41530 0.74042
 C3031 C 0.32770 0.38441 0.74314
 C3032 C 0.31735 0.38135 0.73030
 C3033 C 0.30850 0.36668 0.72952
 C3034 C 0.30971 0.35481 0.74162
 C3035 C 0.32032 0.35775 0.75426
 C3036 C 0.32917 0.37233 0.75502
 C3037 C 0.29942 0.33980 0.74164
 C3038 C 0.29193 0.33463 0.75572
 C3039 C 0.28246 0.32048 0.75616
 C3040 C 0.28014 0.31098 0.74251
 C3041 C 0.28747 0.31621 0.72830
 C3042 C 0.29697 0.33053 0.72786
 H3043 H 0.35895 0.38891 0.75329
 H3044 H 0.37313 0.41437 0.75706
 H3045 H 0.33121 0.44132 0.73852
 H3046 H 0.31683 0.41566 0.73605
 H3047 H 0.31609 0.39032 0.72086
 H3048 H 0.30037 0.36482 0.71967
 H3049 H 0.32169 0.34877 0.76368
 H3050 H 0.33688 0.37431 0.76515
 H3051 H 0.29328 0.34165 0.76646
 H3052 H 0.27698 0.31700 0.76733
 H3053 H 0.28595 0.30921 0.71757
 H3054 H 0.30264 0.33418 0.71683
 C3055 C 0.83407 0.90397 0.24551
 C3056 C 0.84796 0.90484 0.25514
 C3057 C 0.85644 0.91960 0.25666
 C3058 C 0.85127 0.93392 0.24860
 C3059 C 0.83741 0.93306 0.23891
 C3060 C 0.82893 0.91825 0.23736
 C3061 C 0.82479 0.88832 0.24432
 C3062 C 0.81827 0.88313 0.22986
 C3063 C 0.80936 0.86851 0.22895
 C3064 C 0.80665 0.85883 0.24250
 C3065 C 0.81334 0.86395 0.25689
 C3066 C 0.82226 0.87848 0.25779
 C3067 C 0.79660 0.84365 0.24192
 C3068 C 0.78559 0.84022 0.25423
 C3069 C 0.77673 0.82565 0.25440
 C3070 C 0.77855 0.81402 0.24222
 C3071 C 0.78919 0.81762 0.22959
 C3072 C 0.79812 0.83231 0.22944
 H3073 H 0.85236 0.89404 0.26145
 H3074 H 0.86696 0.91985 0.26433
 H3075 H 0.83321 0.94379 0.23238
 H3076 H 0.81820 0.91806 0.22998
 H3077 H 0.82015 0.89033 0.21923
 H3078 H 0.80431 0.86495 0.21771
 H3079 H 0.81170 0.85667 0.26752
 H3080 H 0.82693 0.88217 0.26915
 H3081 H 0.78382 0.84885 0.26383
 H3082 H 0.76852 0.82346 0.26423
 H3083 H 0.79091 0.80893 0.22004
 H3084 H 0.80656 0.83456 0.21980
 C3085 C 0.67013 0.91139 0.75672
 C3086 C 0.66708 0.91791 0.74164
 C3087 C 0.65809 0.93256 0.73975
 C3088 C 0.65194 0.94136 0.75293
 C3089 C 0.65525 0.93474 0.76808
 C3090 C 0.66406 0.91992 0.76991
 C3091 C 0.67964 0.89574 0.75851
 C3092 C 0.67425 0.88310 0.76863
 C3093 C 0.68264 0.86791 0.76931
 C3094 C 0.69666 0.86510 0.75996
 C3095 C 0.70240 0.87806 0.75040
 C3096 C 0.69395 0.89312 0.74961
 C3097 C 0.70487 0.84855 0.75943
 C3098 C 0.71099 0.84252 0.74501
 C3099 C 0.71883 0.82719 0.74418
 C3100 C 0.72075 0.81724 0.75772
 C3101 C 0.71443 0.82308 0.77216
 C3102 C 0.70658 0.83859 0.77301
 H3103 H 0.67158 0.91158 0.73123
 H3104 H 0.65658 0.93717 0.72785
 H3105 H 0.65052 0.94054 0.77865
 H3106 H 0.66623 0.91518 0.78169
 H3107 H 0.66321 0.88476 0.77558
 H3108 H 0.67780 0.85819 0.77671
 H3109 H 0.71339 0.87653 0.74336
 H3110 H 0.69859 0.90274 0.74196
 H3111 H 0.70953 0.84958 0.73423
 H3112 H 0.72332 0.82310 0.73279
 H3113 H 0.71565 0.81575 0.78281
 H3114 H 0.70207 0.84287 0.78432
 C3115 C 0.16958 0.41326 0.25802
 C3116 C 0.16873 0.42168 0.24348
 C3117 C 0.15945 0.43621 0.24195
 C3118 C 0.15079 0.44273 0.25492
 C3119 C 0.15163 0.43431 0.26946
 C3120 C 0.16088 0.41974 0.27098
 C3121 C 0.17946 0.39776 0.25955
 C3122 C 0.17363 0.38424 0.26831
 C3123 C 0.18259 0.36940 0.26897
 C3124 C 0.19756 0.36774 0.26088
 C3125 C 0.20361 0.38144 0.25257
 C3126 C 0.19468 0.39624 0.25190
 C3127 C 0.20644 0.35158 0.26027
 C3128 C 0.21346 0.34624 0.24600
 C3129 C 0.22154 0.33103 0.24503
 C3130 C 0.22288 0.32063 0.25832
 C3131 C 0.21595 0.32596 0.27269
 C3132 C 0.20774 0.34126 0.27363
 H3133 H 0.17511 0.41693 0.23320
 H3134 H 0.15921 0.44244 0.23062
 H3135 H 0.14497 0.43888 0.27965
 H3136 H 0.16137 0.41364 0.28237
 H3137 H 0.16189 0.38495 0.27423
 H3138 H 0.17750 0.35904 0.27534
 H3139 H 0.21526 0.38070 0.24647
 H3140 H 0.19971 0.40651 0.24535
 H3141 H 0.21245 0.35371 0.23542
 H3142 H 0.22669 0.32741 0.23375
 H3143 H 0.21670 0.31825 0.28314
 H3144 H 0.20252 0.34507 0.28483
 C3145 C 0.08594 0.25874 0.82679
 C3146 C 0.07403 0.24686 0.82386
 C3147 C 0.05960 0.24668 0.83269
 C3148 C 0.05682 0.25840 0.84458
 C3149 C 0.06858 0.27051 0.84728
 C3150 C 0.08302 0.27066 0.83847
 C3151 C 0.10163 0.25829 0.81812
 C3152 C 0.11636 0.26034 0.82625
 C3153 C 0.13125 0.25931 0.81824
 C3154 C 0.13168 0.25627 0.80195
 C3155 C 0.11696 0.25443 0.79377
 C3156 C 0.10206 0.25539 0.80180
 C3157 C 0.14750 0.25489 0.79358
 C3158 C 0.14981 0.26276 0.77898
 C3159 C 0.16490 0.26176 0.77128
 C3160 C 0.17792 0.25277 0.77802
 C3161 C 0.17549 0.24471 0.79255
 C3162 C 0.16044 0.24579 0.80026
 H3163 H 0.07605 0.23744 0.81501
 H3164 H 0.05064 0.23733 0.83028
 H3165 H 0.06681 0.27960 0.85646
 H3166 H 0.09196 0.28005 0.84084
 H3167 H 0.11637 0.26241 0.83886
 H3168 H 0.14243 0.26095 0.82476
 H3169 H 0.11701 0.25197 0.78122
 H3170 H 0.09085 0.25389 0.79527
 H3171 H 0.14004 0.26995 0.77366
 H3172 H 0.16637 0.26810 0.76009
 H3173 H 0.18527 0.23770 0.79807
 H3174 H 0.15888 0.23944 0.81143
 C3175 C 0.58271 0.72717 0.30636
 C3176 C 0.56855 0.73507 0.30069
 C3177 C 0.55486 0.73686 0.31040
 C3178 C 0.55509 0.73069 0.32590
 C3179 C 0.56869 0.72151 0.33109
 C3180 C 0.58243 0.71979 0.32140
 C3181 C 0.59835 0.72872 0.29773
 C3182 C 0.60978 0.71567 0.29742
 C3183 C 0.62545 0.71813 0.29134
 C3184 C 0.62994 0.73370 0.28551
 C3185 C 0.61827 0.74653 0.28522
 C3186 C 0.60264 0.74406 0.29126
 C3187 C 0.64693 0.73690 0.28054
 C3188 C 0.65014 0.74678 0.26726
 C3189 C 0.66617 0.75032 0.26293
 C3190 C 0.67933 0.74400 0.27176
 C3191 C 0.67609 0.73416 0.28510
 C3192 C 0.66005 0.73067 0.28944
 H3193 H 0.56836 0.74058 0.28902
 H3194 H 0.54435 0.74372 0.30608
 H3195 H 0.56916 0.71671 0.34303
 H3196 H 0.59322 0.71375 0.32613
 H3197 H 0.60672 0.70369 0.30221
 H3198 H 0.63416 0.70796 0.29143
 H3199 H 0.62145 0.75871 0.28101
 H3200 H 0.59421 0.75446 0.29165
 H3201 H 0.64025 0.75162 0.26011
 H3202 H 0.66823 0.75780 0.25250
 H3203 H 0.68595 0.72909 0.29216
 H3204 H 0.65791 0.72328 0.29992
 C3205 C 0.58191 0.25467 0.20199
 C3206 C 0.57727 0.23870 0.19763
 C3207 C 0.56423 0.23643 0.18742
 C3208 C 0.55567 0.25006 0.18119
 C3209 C 0.55965 0.26597 0.18627
 C3210 C 0.57261 0.26824 0.19662
 C3211 C 0.59745 0.25707 0.21048
 C3212 C 0.60796 0.26982 0.20590
 C3213 C 0.62379 0.27044 0.21180
 C3214 C 0.62952 0.25823 0.22226
 C3215 C 0.61869 0.24609 0.22763
 C3216 C 0.60278 0.24558 0.22187
 C3217 C 0.64701 0.25741 0.22659
 C3218 C 0.65182 0.25235 0.24176
 C3219 C 0.66834 0.25073 0.24546
 C3220 C 0.68039 0.25429 0.23410
 C3221 C 0.67561 0.25952 0.21900
 C3222 C 0.65910 0.26096 0.21525
 H3223 H 0.58423 0.22797 0.20139
 H3224 H 0.56121 0.22400 0.18399
 H3225 H 0.55329 0.27673 0.18165
 H3226 H 0.57572 0.28068 0.19999
 H3227 H 0.60432 0.27881 0.19706
 H3228 H 0.63173 0.28018 0.20774
 H3229 H 0.62273 0.23647 0.23566
 H3230 H 0.59486 0.23580 0.22586
 H3231 H 0.64280 0.24972 0.25080
 H3232 H 0.67168 0.24686 0.25727
 H3233 H 0.68462 0.26227 0.20998
 H3234 H 0.65582 0.26452 0.20335
 C3235 C 0.08684 0.74655 0.69186
 C3236 C 0.07432 0.75840 0.69368
 C3237 C 0.06099 0.75859 0.68349
 C3238 C 0.06009 0.74702 0.67126
 C3239 C 0.07241 0.73494 0.66970
 C3240 C 0.08566 0.73469 0.67992
 C3241 C 0.10169 0.74715 0.70158
 C3242 C 0.10885 0.73253 0.70738
 C3243 C 0.12396 0.73287 0.71484
 C3244 C 0.13217 0.74784 0.71657
 C3245 C 0.12468 0.76255 0.71139
 C3246 C 0.10954 0.76221 0.70397
 C3247 C 0.14892 0.74795 0.72288
 C3248 C 0.16102 0.75730 0.71535
 C3249 C 0.17707 0.75678 0.72074
 C3250 C 0.18131 0.74689 0.73378
 C3251 C 0.16913 0.73765 0.74139
 C3252 C 0.15309 0.73817 0.73598
 H3253 H 0.07494 0.76760 0.70287
 H3254 H 0.05164 0.76805 0.68487
 H3255 H 0.07186 0.72577 0.66047
 H3256 H 0.09525 0.72555 0.67815
 H3257 H 0.10293 0.72079 0.70580
 H3258 H 0.12953 0.72135 0.71865
 H3259 H 0.13070 0.77427 0.71278
 H3260 H 0.10432 0.77364 0.69949
 H3261 H 0.15816 0.76474 0.70506
 H3262 H 0.18615 0.76404 0.71461
 H3263 H 0.17196 0.72998 0.75154
 H3264 H 0.14393 0.73096 0.74205
 C3265 C 0.91151 0.74663 0.67824
 C3266 C 0.91294 0.73659 0.66489
 C3267 C 0.92698 0.73693 0.65552
 C3268 C 0.94008 0.74739 0.65924
 C3269 C 0.93843 0.75751 0.67269
 C3270 C 0.92437 0.75710 0.68205
 C3271 C 0.89647 0.74642 0.68794
 C3272 C 0.88942 0.76124 0.69336
 C3273 C 0.87470 0.76113 0.70171
 C3274 C 0.86677 0.74619 0.70479
 C3275 C 0.87403 0.73134 0.69974
 C3276 C 0.88876 0.73145 0.69140
 C3277 C 0.85055 0.74623 0.71250
 C3278 C 0.83804 0.73643 0.70651
 C3279 C 0.82242 0.73718 0.71310
 C3280 C 0.81899 0.74774 0.72583
 C3281 C 0.83162 0.75727 0.73205
 C3282 C 0.84725 0.75655 0.72541
 H3283 H 0.90301 0.72870 0.66145
 H3284 H 0.92710 0.72942 0.64501
 H3285 H 0.94822 0.76531 0.67657
 H3286 H 0.92367 0.76479 0.69245
 H3287 H 0.89501 0.77297 0.69068
 H3288 H 0.86923 0.77277 0.70529
 H3289 H 0.86826 0.71965 0.70218
 H3290 H 0.89409 0.71983 0.68759
 H3291 H 0.84022 0.72852 0.69644
 H3292 H 0.81299 0.72962 0.70806
 H3293 H 0.82940 0.76548 0.74190
 H3294 H 0.85675 0.76410 0.73034
 C3295 C 0.40546 0.23474 0.16621
 C3296 C 0.40912 0.22367 0.15396
 C3297 C 0.42514 0.22205 0.14829
 C3298 C 0.43771 0.23133 0.15495
 C3299 C 0.43403 0.24208 0.16745
 C3300 C 0.41809 0.24377 0.17301
 C3301 C 0.38857 0.23711 0.17199
 C3302 C 0.38252 0.25311 0.17483
 C3303 C 0.36724 0.25547 0.18181
 C3304 C 0.35772 0.24189 0.18612
 C3305 C 0.36344 0.22589 0.18262
 C3306 C 0.37876 0.22352 0.17557
 C3307 C 0.34237 0.24442 0.19508
 C3308 C 0.32846 0.23518 0.19170
 C3309 C 0.31418 0.23733 0.20057
 C3310 C 0.31356 0.24874 0.21302
 C3311 C 0.32748 0.25805 0.21630
 C3312 C 0.34172 0.25591 0.20742
 H3313 H 0.39955 0.21658 0.14855
 H3314 H 0.42770 0.21364 0.13867
 H3315 H 0.44342 0.24957 0.17265
 H3316 H 0.41560 0.25220 0.18263
 H3317 H 0.38976 0.26379 0.17187
 H3318 H 0.36296 0.26794 0.18407
 H3319 H 0.35638 0.21520 0.18593
 H3320 H 0.38322 0.21107 0.17355
 H3321 H 0.32862 0.22634 0.18215
 H3322 H 0.30365 0.22999 0.19770
 H3323 H 0.32745 0.26691 0.22582
 H3324 H 0.35235 0.26301 0.21045
 C3325 C 0.40994 0.76954 0.32366
 C3326 C 0.41374 0.78182 0.33464
 C3327 C 0.42922 0.78217 0.34148
 C3328 C 0.44113 0.77025 0.33744
 C3329 C 0.43743 0.75836 0.32604
 C3330 C 0.42206 0.75807 0.31917
 C3331 C 0.39324 0.76811 0.31735
 C3332 C 0.38625 0.75247 0.31576
 C3333 C 0.37071 0.75088 0.30944
 C3334 C 0.36179 0.76490 0.30468
 C3335 C 0.36859 0.78058 0.30653
 C3336 C 0.38422 0.78218 0.31281
 C3337 C 0.34549 0.76305 0.29764
 C3338 C 0.33244 0.77331 0.30234
 C3339 C 0.31702 0.77141 0.29577
 C3340 C 0.31439 0.75927 0.28429
 C3341 C 0.32750 0.74904 0.27958
 C3342 C 0.34289 0.75090 0.28622
 H3343 H 0.40459 0.79077 0.33834
 H3344 H 0.43178 0.79156 0.35012
 H3345 H 0.44619 0.74881 0.32284
 H3346 H 0.41955 0.74865 0.31053
 H3347 H 0.39277 0.74145 0.31953
 H3348 H 0.36559 0.73869 0.30840
 H3349 H 0.36196 0.79156 0.30281
 H3350 H 0.38938 0.79436 0.31381
 H3351 H 0.33414 0.78268 0.31123
 H3352 H 0.30718 0.77954 0.29961
 H3353 H 0.32590 0.73961 0.27074
 H3354 H 0.35284 0.74295 0.28229
 C3355 C 0.90589 0.26617 0.83083
 C3356 C 0.91772 0.27823 0.82795
 C3357 C 0.93157 0.27904 0.83743
 C3358 C 0.93376 0.26787 0.84998
 C3359 C 0.92174 0.25604 0.85301
 C3360 C 0.90795 0.25521 0.84355
 C3361 C 0.89139 0.26492 0.82066
 C3362 C 0.88587 0.24939 0.81593
 C3363 C 0.87156 0.24806 0.80724
 C3364 C 0.86250 0.26224 0.80314
 C3365 C 0.86831 0.27781 0.80743
 C3366 C 0.88265 0.27914 0.81609
 C3367 C 0.84658 0.26071 0.79524
 C3368 C 0.83313 0.27009 0.80051
 C3369 C 0.81789 0.26826 0.79360
 C3370 C 0.81577 0.25702 0.78122
 C3371 C 0.82927 0.24769 0.77586
 C3372 C 0.84454 0.24949 0.78285
 H3373 H 0.91642 0.28679 0.81817
 H3374 H 0.94062 0.28833 0.83489
 H3375 H 0.92322 0.24711 0.86246
 H3376 H 0.89888 0.24597 0.84616
 H3377 H 0.89254 0.23825 0.81911
 H3378 H 0.86729 0.23591 0.80417
 H3379 H 0.86163 0.28894 0.80424
 H3380 H 0.88663 0.29125 0.81965
 H3381 H 0.83432 0.27863 0.81021
 H3382 H 0.80777 0.27569 0.79799
 H3383 H 0.82805 0.23897 0.76632
 H3384 H 0.85478 0.24219 0.77852
 C3385 C 0.55136 1.00674 0.65758
 C3386 C 0.56554 0.99691 0.65915
 C3387 C 0.57429 0.99666 0.67323
 C3388 C 0.56906 1.00618 0.68615
 C3389 C 0.55483 1.01597 0.68466
 C3390 C 0.54612 1.01633 0.67047
 C3391 C 0.54240 1.00702 0.64237
 C3392 C 0.53707 1.02196 0.63550
 C3393 C 0.53058 1.02223 0.62022
 C3394 C 0.52933 1.00754 0.61159
 C3395 C 0.53368 0.99254 0.61890
 C3396 C 0.54015 0.99228 0.63408
 C3397 C 0.52522 1.00779 0.59455
 C3398 C 0.53493 0.99856 0.58406
 C3399 C 0.53146 0.99836 0.56802
 C3400 C 0.51810 1.00736 0.56190
 C3401 C 0.50839 1.01680 0.57234
 C3402 C 0.51200 1.01711 0.58855
 H3403 H 0.57003 0.98957 0.64936
 H3404 H 0.58511 0.98889 0.67405
 H3405 H 0.55058 1.02353 0.69439
 H3406 H 0.53521 1.02397 0.66961
 H3407 H 0.53869 1.03352 0.64161
 H3408 H 0.52738 1.03396 0.61484
 H3409 H 0.53255 0.98100 0.61264
 H3410 H 0.54377 0.98054 0.63921
 H3411 H 0.54539 0.99154 0.58826
 H3412 H 0.53928 0.99094 0.56044
 H3413 H 0.49804 1.02390 0.56801
 H3414 H 0.50435 1.02437 0.59641
 C3415 C 0.05587 0.51418 1.15742
 C3416 C 0.05815 0.49874 1.16464
 C3417 C 0.06529 0.49736 1.17956
 C3418 C 0.07065 0.51146 1.18784
 C3419 C 0.06765 0.52701 1.18053
 C3420 C 0.06042 0.52830 1.16566
 C3421 C 0.04956 0.51552 1.14101
 C3422 C 0.03844 0.52811 1.13666
 C3423 C 0.03325 0.52974 1.12099
 C3424 C 0.03922 0.51893 1.10933
 C3425 C 0.05011 0.50620 1.11377
 C3426 C 0.05520 0.50451 1.12939
 C3427 C 0.03441 0.52084 1.09251
 C3428 C 0.04620 0.51881 1.08056
 C3429 C 0.04167 0.51875 1.06473
 C3430 C 0.02520 0.52072 1.06037
 C3431 C 0.01349 0.52377 1.07227
 C3432 C 0.01806 0.52384 1.08821
 H3433 H 0.05462 0.48760 1.15862
 H3434 H 0.06740 0.48498 1.18387
 H3435 H 0.07029 0.53851 1.18629
 H3436 H 0.05876 0.54042 1.16045
 H3437 H 0.03376 0.53670 1.14538
 H3438 H 0.02487 0.53966 1.11792
 H3439 H 0.05474 0.49751 1.10511
 H3440 H 0.06390 0.49480 1.13229
 H3441 H 0.05895 0.51690 1.08347
 H3442 H 0.05107 0.51660 1.05590
 H3443 H 0.00070 0.52529 1.06932
 H3444 H 0.00871 0.52546 1.09718
 C3445 C -0.05442 -0.01033 1.16016
 C3446 C -0.04647 -0.01450 1.17426
 C3447 C -0.05458 -0.01290 1.18881
 C3448 C -0.07094 -0.00703 1.18969
 C3449 C -0.07858 -0.00249 1.17537
 C3450 C -0.07048 -0.00414 1.16093
 C3451 C -0.04622 -0.01230 1.14457
 C3452 C -0.05508 -0.01824 1.13169
 C3453 C -0.04827 -0.01828 1.11658
 C3454 C -0.03242 -0.01243 1.11394
 C3455 C -0.02310 -0.00747 1.12690
 C3456 C -0.02996 -0.00739 1.14212
 C3457 C -0.02653 -0.01002 1.09752
 C3458 C -0.01102 -0.01556 1.09246
 C3459 C -0.00622 -0.01368 1.07659
 C3460 C -0.01680 -0.00604 1.06565
 C3461 C -0.03208 -0.00011 1.07101
 C3462 C -0.03687 -0.00211 1.08667
 H3463 H -0.03411 -0.01942 1.17402
 H3464 H -0.04809 -0.01704 1.19919
 H3465 H -0.09069 0.00296 1.17512
 H3466 H -0.07676 -0.00029 1.15030
 H3467 H -0.06747 -0.02250 1.13326
 H3468 H -0.05561 -0.02245 1.10681
 H3469 H -0.01086 -0.00286 1.12515
 H3470 H -0.02285 -0.00273 1.15182
 H3471 H -0.00283 -0.02168 1.10066
 H3472 H 0.00562 -0.01840 1.07287
 H3473 H -0.04058 0.00594 1.06306
 H3474 H -0.04876 0.00255 1.09031
 C3475 C 0.44528 0.48346 0.65999
 C3476 C 0.45085 0.49528 0.67073
 C3477 C 0.44347 0.49698 0.68559
 C3478 C 0.43029 0.48698 0.68998
 C3479 C 0.42511 0.47479 0.67948
 C3480 C 0.43256 0.47300 0.66471
 C3481 C 0.45182 0.48282 0.64355
 C3482 C 0.44114 0.48027 0.63090
 C3483 C 0.44680 0.48087 0.61536
 C3484 C 0.46327 0.48416 0.61199
 C3485 C 0.47414 0.48612 0.62459
 C3486 C 0.46846 0.48550 0.64023
 C3487 C 0.46858 0.48665 0.59536
 C3488 C 0.48332 0.47990 0.58947
 C3489 C 0.48771 0.48205 0.57354
 C3490 C 0.47745 0.49108 0.56329
 C3491 C 0.46294 0.49809 0.56941
 C3492 C 0.45860 0.49591 0.58517
 H3493 H 0.46048 0.50368 0.66742
 H3494 H 0.44766 0.50652 0.69343
 H3495 H 0.41520 0.46668 0.68268
 H3496 H 0.42821 0.46351 0.65689
 H3497 H 0.42824 0.47839 0.63295
 H3498 H 0.43817 0.47908 0.60591
 H3499 H 0.48689 0.48871 0.62234
 H3500 H 0.47704 0.48731 0.64971
 H3501 H 0.49125 0.47269 0.59710
 H3502 H 0.49897 0.47652 0.56922
 H3503 H 0.45477 0.50528 0.56201
 H3504 H 0.44737 0.50160 0.58941
 C3505 C 0.45649 0.50228 -0.16147
 C3506 C 0.45282 0.48673 -0.16773
 C3507 C 0.44334 0.48537 -0.18132
 C3508 C 0.43705 0.49952 -0.18893
 C3509 C 0.44081 0.51508 -0.18273
 C3510 C 0.45047 0.51644 -0.16924
 C3511 C 0.46604 0.50360 -0.14659
 C3512 C 0.46228 0.51594 -0.13544
 C3513 C 0.47025 0.51627 -0.12089
 C3514 C 0.48200 0.50417 -0.11707
 C3515 C 0.48624 0.49223 -0.12837
 C3516 C 0.47846 0.49203 -0.14300
 C3517 C 0.48848 0.50293 -0.10082
 C3518 C 0.48745 0.48789 -0.09264
 C3519 C 0.49174 0.48686 -0.07677
 C3520 C 0.49748 0.50076 -0.06880
 C3521 C 0.49927 0.51566 -0.07711
 C3522 C 0.49458 0.51680 -0.09298
 H3523 H 0.45697 0.47551 -0.16197
 H3524 H 0.44096 0.47318 -0.18585
 H3525 H 0.43605 0.52626 -0.18811
 H3526 H 0.45319 0.52863 -0.16492
 H3527 H 0.45266 0.52492 -0.13763
 H3528 H 0.46663 0.52548 -0.11229
 H3529 H 0.49537 0.48284 -0.12573
 H3530 H 0.48201 0.48262 -0.15141
 H3531 H 0.48264 0.47708 -0.09835
 H3532 H 0.49028 0.47523 -0.07060
 H3533 H 0.50355 0.52655 -0.07115
 H3534 H 0.49547 0.52852 -0.09908
 C3535 C -0.04765 1.00900 0.33877
 C3536 C -0.05085 0.99322 0.33278
 C3537 C -0.05996 0.99133 0.31903
 C3538 C -0.06632 1.00515 0.31095
 C3539 C -0.06305 1.02095 0.31689
 C3540 C -0.05378 1.02285 0.33056
 C3541 C -0.03845 1.01088 0.35379
 C3542 C -0.04276 1.02331 0.36467
 C3543 C -0.03512 1.02409 0.37937
 C3544 C -0.02315 1.01236 0.38359
 C3545 C -0.01835 1.00037 0.37254
 C3546 C -0.02581 0.99972 0.35778
 C3547 C -0.01705 1.01146 0.40000
 C3548 C -0.01797 0.99648 0.40829
 C3549 C -0.01382 0.99564 0.42420
 C3550 C -0.00834 1.00967 0.43212
 C3551 C -0.00674 1.02455 0.42373
 C3552 C -0.01129 1.02549 0.40780
 H3553 H -0.04660 0.98224 0.33887
 H3554 H -0.06199 0.97898 0.31472
 H3555 H -0.06790 1.03189 0.31114
 H3556 H -0.05143 1.03520 0.33469
 H3557 H -0.05256 1.03200 0.36214
 H3558 H -0.03916 1.03333 0.38777
 H3559 H -0.00905 0.99127 0.37549
 H3560 H -0.02184 0.99026 0.34958
 H3561 H -0.02253 0.98554 0.40260
 H3562 H -0.01513 0.98401 0.43041
 H3563 H -0.00265 1.03555 0.42965
 H3564 H -0.01049 1.03718 0.40162
 C3565 C 0.04154 0.50139 0.33515
 C3566 C 0.05308 0.51400 0.33352
 C3567 C 0.06302 0.51495 0.32009
 C3568 C 0.06162 0.50338 0.30791
 C3569 C 0.04994 0.49089 0.30941
 C3570 C 0.04007 0.48984 0.32295
 C3571 C 0.03151 0.50020 0.34980
 C3572 C 0.02939 0.48498 0.35754
 C3573 C 0.02172 0.48426 0.37236
 C3574 C 0.01600 0.49876 0.37970
 C3575 C 0.01722 0.51381 0.37148
 C3576 C 0.02491 0.51452 0.35674
 C3577 C 0.01050 0.49859 0.39647
 C3578 C 0.01615 0.51075 0.40674
 C3579 C 0.01227 0.51026 0.42275
 C3580 C 0.00255 0.49763 0.42901
 C3581 C -0.00360 0.48567 0.41874
 C3582 C 0.00046 0.48607 0.40260
 H3583 H 0.05466 0.52296 0.34280
 H3584 H 0.07180 0.52480 0.31922
 H3585 H 0.04867 0.48174 0.30025
 H3586 H 0.03125 0.48004 0.32385
 H3587 H 0.03442 0.47374 0.35251
 H3588 H 0.02108 0.47251 0.37844
 H3589 H 0.01264 0.52514 0.37668
 H3590 H 0.02604 0.52637 0.35092
 H3591 H 0.02410 0.52040 0.40250
 H3592 H 0.01714 0.51972 0.43031
 H3593 H -0.01107 0.47576 0.42326
 H3594 H -0.00411 0.47656 0.39494
 C3595 C 0.55290 -0.00386 -0.16210
 C3596 C 0.54552 -0.00891 -0.17618
 C3597 C 0.55377 -0.00736 -0.19066
 C3598 C 0.56956 -0.00071 -0.19134
 C3599 C 0.57697 0.00412 -0.17723
 C3600 C 0.56878 0.00253 -0.16282
 C3601 C 0.54429 -0.00517 -0.14661
 C3602 C 0.54609 0.00728 -0.13530
 C3603 C 0.53954 0.00548 -0.12018
 C3604 C 0.53089 -0.00873 -0.11597
 C3605 C 0.52822 -0.02081 -0.12746
 C3606 C 0.53491 -0.01907 -0.14266
 C3607 C 0.52598 -0.01124 -0.09926
 C3608 C 0.50992 -0.01533 -0.09490
 C3609 C 0.50535 -0.01597 -0.07888
 C3610 C 0.51685 -0.01268 -0.06704
 C3611 C 0.53309 -0.00952 -0.07158
 C3612 C 0.53754 -0.00875 -0.08743
 H3613 H 0.53327 -0.01378 -0.17605
 H3614 H 0.54769 -0.01110 -0.20135
 H3615 H 0.58926 0.00891 -0.17728
 H3616 H 0.57501 0.00614 -0.15217
 H3617 H 0.55281 0.01834 -0.13806
 H3618 H 0.54152 0.01511 -0.11160
 H3619 H 0.52163 -0.03189 -0.12446
 H3620 H 0.53333 -0.02890 -0.15109
 H3621 H 0.50080 -0.01736 -0.10386
 H3622 H 0.49277 -0.01849 -0.07579
 H3623 H 0.54239 -0.00715 -0.06288
 H3624 H 0.55007 -0.00592 -0.09047
 C3625 C 0.65971 0.58191 -0.00684
 C3626 C 0.67470 0.57420 -0.01066
 C3627 C 0.68939 0.58276 -0.00942
 C3628 C 0.68946 0.59919 -0.00417
 C3629 C 0.67446 0.60689 -0.00035
 C3630 C 0.65977 0.59838 -0.00174
 C3631 C 0.64411 0.57271 -0.00784
 C3632 C 0.62996 0.58025 -0.01407
 C3633 C 0.61519 0.57173 -0.01452
 C3634 C 0.61418 0.55555 -0.00860
 C3635 C 0.62838 0.54795 -0.00258
 C3636 C 0.64318 0.55640 -0.00226
 C3637 C 0.59828 0.54682 -0.00811
 C3638 C 0.59370 0.53797 0.00547
 C3639 C 0.57870 0.52997 0.00624
 C3640 C 0.56788 0.53047 -0.00661
 C3641 C 0.57250 0.53921 -0.02027
 C3642 C 0.58750 0.54738 -0.02097
 H3643 H 0.67506 0.56156 -0.01474
 H3644 H 0.70073 0.57645 -0.01236
 H3645 H 0.67408 0.61959 0.00355
 H3646 H 0.64845 0.60462 0.00143
 H3647 H 0.63033 0.59275 -0.01860
 H3648 H 0.60444 0.57796 -0.01914
 H3649 H 0.62804 0.53544 0.00194
 H3650 H 0.65381 0.55028 0.00271
 H3651 H 0.60162 0.53747 0.01565
 H3652 H 0.57560 0.52337 0.01696
 H3653 H 0.56446 0.53989 -0.03036
 H3654 H 0.59075 0.55402 -0.03163
 C3655 C 0.15763 1.08471 0.49302
 C3656 C 0.17138 1.07657 0.49945
 C3657 C 0.18638 1.08458 0.50057
 C3658 C 0.18810 1.10092 0.49521
 C3659 C 0.17444 1.10892 0.48849
 C3660 C 0.15942 1.10096 0.48747
 C3661 C 0.14141 1.07649 0.49253
 C3662 C 0.13055 1.07931 0.47995
 C3663 C 0.11506 1.07214 0.47992
 C3664 C 0.11004 1.06191 0.49244
 C3665 C 0.12105 1.05880 0.50483
 C3666 C 0.13646 1.06604 0.50491
 C3667 C 0.09333 1.05472 0.49285
 C3668 C 0.08488 1.05320 0.50726
 C3669 C 0.06953 1.04592 0.50794
 C3670 C 0.06205 1.04007 0.49420
 C3671 C 0.07023 1.04199 0.47968
 C3672 C 0.08572 1.04919 0.47901
 H3673 H 0.17057 1.06397 0.50363
 H3674 H 0.19656 1.07804 0.50592
 H3675 H 0.17532 1.12138 0.48395
 H3676 H 0.14911 1.10772 0.48262
 H3677 H 0.13401 1.08708 0.47009
 H3678 H 0.10690 1.07491 0.47023
 H3679 H 0.11777 1.05075 0.51453
 H3680 H 0.14435 1.06370 0.51489
 H3681 H 0.09011 1.05770 0.51810
 H3682 H 0.06353 1.04486 0.51932
 H3683 H 0.06485 1.03757 0.46888
 H3684 H 0.09190 1.05005 0.46772
 C3685 C 0.15527 -0.07999 1.01034
 C3686 C 0.15587 -0.09726 1.01140
 C3687 C 0.17072 -0.10590 1.01003
 C3688 C 0.18562 -0.09758 1.00750
 C3689 C 0.18488 -0.08014 1.00672
 C3690 C 0.16998 -0.07155 1.00810
 C3691 C 0.13930 -0.07091 1.01102
 C3692 C 0.13632 -0.05734 1.00100
 C3693 C 0.12105 -0.04939 1.00090
 C3694 C 0.10829 -0.05482 1.01076
 C3695 C 0.11139 -0.06809 1.02111
 C3696 C 0.12669 -0.07604 1.02123
 C3697 C 0.09167 -0.04714 1.00962
 C3698 C 0.08187 -0.04441 1.02311
 C3699 C 0.06619 -0.03732 1.02176
 C3700 C 0.05994 -0.03286 1.00688
 C3701 C 0.06978 -0.03567 0.99345
 C3702 C 0.08536 -0.04271 0.99480
 H3703 H 0.14478 -0.10421 1.01305
 H3704 H 0.17033 -0.11914 1.01146
 H3705 H 0.19562 -0.07291 1.00438
 H3706 H 0.17001 -0.05822 1.00734
 H3707 H 0.14565 -0.05312 0.99288
 H3708 H 0.11919 -0.03905 0.99295
 H3709 H 0.10183 -0.07265 1.02880
 H3710 H 0.12862 -0.08629 1.02926
 H3711 H 0.08640 -0.04759 1.03472
 H3712 H 0.05898 -0.03535 1.03236
 H3713 H 0.06544 -0.03251 0.98176
 H3714 H 0.09238 -0.04493 0.98413
 C3715 C 0.64923 0.42059 0.50448
 C3716 C 0.64977 0.40350 0.50717
 C3717 C 0.66446 0.39458 0.50587
 C3718 C 0.67927 0.40238 0.50168
 C3719 C 0.67857 0.41965 0.49915
 C3720 C 0.66386 0.42854 0.50057
 C3721 C 0.63340 0.42996 0.50531
 C3722 C 0.63011 0.44293 0.49466
 C3723 C 0.61503 0.45122 0.49488
 C3724 C 0.60269 0.44672 0.50565
 C3725 C 0.60608 0.43401 0.51655
 C3726 C 0.62124 0.42577 0.51640
 C3727 C 0.58620 0.45479 0.50497
 C3728 C 0.57701 0.45804 0.51875
 C3729 C 0.56144 0.46546 0.51785
 C3730 C 0.55473 0.46984 0.50315
 C3731 C 0.56396 0.46655 0.48942
 C3732 C 0.57939 0.45910 0.49032
 H3733 H 0.63875 0.39688 0.51010
 H3734 H 0.66402 0.38159 0.50867
 H3735 H 0.68916 0.42649 0.49545
 H3736 H 0.66398 0.44174 0.49855
 H3737 H 0.63905 0.44643 0.48583
 H3738 H 0.61301 0.46114 0.48649
 H3739 H 0.59687 0.43012 0.52495
 H3740 H 0.62340 0.41605 0.52497
 H3741 H 0.58192 0.45502 0.53025
 H3742 H 0.55470 0.46781 0.52866
 H3743 H 0.55919 0.46956 0.47785
 H3744 H 0.58587 0.45645 0.47943
 C3745 C -0.16274 0.41708 0.49215
 C3746 C -0.16914 0.41236 0.50693
 C3747 C -0.18418 0.40441 0.50808
 C3748 C -0.19325 0.40099 0.49448
 C3749 C -0.18703 0.40607 0.47973
 C3750 C -0.17198 0.41399 0.47858
 C3751 C -0.14637 0.42486 0.49093
 C3752 C -0.14335 0.43765 0.48003
 C3753 C -0.12802 0.44515 0.47926
 C3754 C -0.11541 0.44007 0.48942
 C3755 C -0.11832 0.42703 0.50003
 C3756 C -0.13356 0.41952 0.50075
 C3757 C -0.09950 0.44873 0.48964
 C3758 C -0.09234 0.45253 0.50415
 C3759 C -0.07731 0.46035 0.50472
 C3760 C -0.06887 0.46462 0.49078
 C3761 C -0.07609 0.46100 0.47619
 C3762 C -0.09131 0.45320 0.47563
 H3763 H -0.16250 0.41479 0.51766
 H3764 H -0.18849 0.40057 0.51961
 H3765 H -0.19380 0.40388 0.46903
 H3766 H -0.16741 0.41735 0.46701
 H3767 H -0.15296 0.44217 0.47236
 H3768 H -0.12619 0.45525 0.47106
 H3769 H -0.10875 0.42262 0.50781
 H3770 H -0.13529 0.40944 0.50899
 H3771 H -0.09846 0.44955 0.51515
 H3772 H -0.07226 0.46296 0.51621
 H3773 H -0.06996 0.46410 0.46523
 H3774 H -0.09652 0.45037 0.46427
 C3775 C 0.34297 -0.07949 -0.00837
 C3776 C 0.33000 -0.07292 0.00073
 C3777 C 0.31532 -0.08144 0.00247
 C3778 C 0.31321 -0.09688 -0.00472
 C3779 C 0.32623 -0.10349 -0.01370
 C3780 C 0.34082 -0.09489 -0.01560
 C3781 C 0.35869 -0.07045 -0.01020
 C3782 C 0.37370 -0.07909 -0.01122
 C3783 C 0.38844 -0.07064 -0.01266
 C3784 C 0.38859 -0.05332 -0.01290
 C3785 C 0.37365 -0.04464 -0.01202
 C3786 C 0.35888 -0.05309 -0.01080
 C3787 C 0.40435 -0.04439 -0.01316
 C3788 C 0.40698 -0.03152 -0.00249
 C3789 C 0.42222 -0.02401 -0.00165
 C3790 C 0.43514 -0.02901 -0.01163
 C3791 C 0.43232 -0.04141 -0.02278
 C3792 C 0.41711 -0.04914 -0.02344
 H3793 H 0.33123 -0.06123 0.00670
 H3794 H 0.30556 -0.07582 0.00933
 H3795 H 0.32527 -0.11546 -0.01919
 H3796 H 0.35037 -0.10029 -0.02287
 H3797 H 0.37414 -0.09242 -0.01051
 H3798 H 0.39978 -0.07765 -0.01306
 H3799 H 0.37340 -0.03129 -0.01232
 H3800 H 0.34761 -0.04598 -0.01040
 H3801 H 0.39743 -0.02769 0.00566
 H3802 H 0.42399 -0.01447 0.00706
 H3803 H 0.44207 -0.04560 -0.03055
 H3804 H 0.41537 -0.05896 -0.03185
 C3805 C 0.34792 1.08204 0.50271
 C3806 C 0.33887 1.08529 0.51653
 C3807 C 0.32369 1.09341 0.51580
 C3808 C 0.31716 1.09861 0.50124
 C3809 C 0.32609 1.09512 0.48740
 C3810 C 0.34122 1.08691 0.48812
 C3811 C 0.36436 1.07385 0.50346
 C3812 C 0.37689 1.07857 0.49301
 C3813 C 0.39216 1.07067 0.49332
 C3814 C 0.39540 1.05789 0.50417
 C3815 C 0.38309 1.05342 0.51494
 C3816 C 0.36772 1.06126 0.51455
 C3817 C 0.41135 1.04888 0.50368
 C3818 C 0.42002 1.04500 0.51753
 C3819 C 0.43527 1.03686 0.51672
 C3820 C 0.44202 1.03227 0.50205
 C3821 C 0.43312 1.03595 0.48828
 C3822 C 0.41807 1.04417 0.48909
 H3823 H 0.34365 1.08186 0.52798
 H3824 H 0.31707 1.09563 0.52670
 H3825 H 0.32158 1.09905 0.47599
 H3826 H 0.34768 1.08437 0.47720
 H3827 H 0.37495 1.08849 0.48460
 H3828 H 0.40150 1.07458 0.48506
 H3829 H 0.38518 1.04352 0.52334
 H3830 H 0.35834 1.05717 0.52268
 H3831 H 0.41514 1.04854 0.52895
 H3832 H 0.44176 1.03423 0.52755
 H3833 H 0.43785 1.03265 0.47674
 H3834 H 0.41159 1.04674 0.47823
 C3835 C -0.15200 0.58293 1.00518
 C3836 C -0.15513 0.59721 1.01410
 C3837 C -0.17009 0.60566 1.01284
 C3838 C -0.18233 0.60002 1.00268
 C3839 C -0.17929 0.58560 0.99395
 C3840 C -0.16431 0.57718 0.99516
 C3841 C -0.13585 0.57427 1.00604
 C3842 C -0.12838 0.56810 0.99228
 C3843 C -0.11323 0.55999 0.99294
 C3844 C -0.10513 0.55772 1.00741
 C3845 C -0.11252 0.56402 1.02119
 C3846 C -0.12770 0.57220 1.02051
 C3847 C -0.08911 0.54875 1.00793
 C3848 C -0.07634 0.55400 1.01771
 C3849 C -0.06097 0.54612 1.01719
 C3850 C -0.05805 0.53290 1.00683
 C3851 C -0.07101 0.52730 0.99754
 C3852 C -0.08631 0.53505 0.99814
 H3853 H -0.14589 0.60205 1.02183
 H3854 H -0.17212 0.61660 1.01991
 H3855 H -0.18839 0.58098 0.98594
 H3856 H -0.16237 0.56610 0.98827
 H3857 H -0.13413 0.56978 0.98090
 H3858 H -0.10775 0.55566 0.98204
 H3859 H -0.10671 0.56236 1.03253
 H3860 H -0.13320 0.57666 1.03136
 H3861 H -0.07806 0.56456 1.02534
 H3862 H -0.05121 0.55077 1.02444
 H3863 H -0.06928 0.51699 0.98960
 H3864 H -0.09596 0.53038 0.99078
 C3865 C 0.01228 0.65093 0.57514
 C3866 C 0.00204 0.66363 0.56949
 C3867 C 0.00263 0.67933 0.57603
 C3868 C 0.01344 0.68259 0.58838
 C3869 C 0.02411 0.67005 0.59365
 C3870 C 0.02358 0.65434 0.58702
 C3871 C 0.01059 0.63404 0.56906
 C3872 C 0.02440 0.62455 0.56487
 C3873 C 0.02256 0.60883 0.55849
 C3874 C 0.00689 0.60239 0.55629
 C3875 C -0.00685 0.61170 0.56102
 C3876 C -0.00502 0.62738 0.56729
 C3877 C 0.00472 0.58639 0.54838
 C3878 C -0.00754 0.58475 0.53702
 C3879 C -0.00961 0.56985 0.52927
 C3880 C 0.00056 0.55622 0.53267
 C3881 C 0.01282 0.55782 0.54409
 C3882 C 0.01490 0.57280 0.55186
 H3883 H -0.00663 0.66132 0.56018
 H3884 H -0.00583 0.68874 0.57186
 H3885 H 0.03265 0.67233 0.60307
 H3886 H 0.03158 0.64471 0.59157
 H3887 H 0.03655 0.62947 0.56610
 H3888 H 0.03334 0.60195 0.55482
 H3889 H -0.01905 0.60688 0.55976
 H3890 H -0.01582 0.63434 0.57079
 H3891 H -0.01538 0.59511 0.53390
 H3892 H -0.01914 0.56910 0.52051
 H3893 H 0.02089 0.54755 0.54695
 H3894 H 0.02437 0.57373 0.56066
 C3895 C 0.52868 0.15503 0.06711
 C3896 C 0.51855 0.16791 0.06161
 C3897 C 0.51689 0.18248 0.07019
 C3898 C 0.52530 0.18436 0.08444
 C3899 C 0.53622 0.17193 0.08941
 C3900 C 0.53794 0.15741 0.08079
 C3901 C 0.52817 0.13862 0.05963
 C3902 C 0.52708 0.12443 0.06913
 C3903 C 0.52476 0.10904 0.06235
 C3904 C 0.52347 0.10751 0.04592
 C3905 C 0.52504 0.12161 0.03636
 C3906 C 0.52737 0.13705 0.04316
 C3907 C 0.51978 0.09133 0.03894
 C3908 C 0.50823 0.09012 0.02682
 C3909 C 0.50414 0.07475 0.02079
 C3910 C 0.51149 0.06029 0.02679
 C3911 C 0.52313 0.06154 0.03883
 C3912 C 0.52725 0.07690 0.04481
 H3913 H 0.51114 0.16635 0.05119
 H3914 H 0.50830 0.19184 0.06619
 H3915 H 0.54305 0.17326 0.10022
 H3916 H 0.54607 0.14779 0.08512
 H3917 H 0.52730 0.12530 0.08188
 H3918 H 0.52333 0.09843 0.07002
 H3919 H 0.52434 0.12071 0.02363
 H3920 H 0.52833 0.14778 0.03557
 H3921 H 0.50211 0.10103 0.02224
 H3922 H 0.49514 0.07420 0.01150
 H3923 H 0.52918 0.05067 0.04359
 H3924 H 0.53635 0.07751 0.05401
 C3925 C -0.02122 0.15262 0.91876
 C3926 C -0.01633 0.15615 0.90320
 C3927 C -0.01444 0.17243 0.89820
 C3928 C -0.01768 0.18557 0.90857
 C3929 C -0.02332 0.18205 0.92389
 C3930 C -0.02492 0.16578 0.92897
 C3931 C -0.02140 0.13539 0.92470
 C3932 C -0.03278 0.13055 0.93628
 C3933 C -0.03160 0.11500 0.94329
 C3934 C -0.01927 0.10390 0.93859
 C3935 C -0.00843 0.10829 0.92649
 C3936 C -0.00938 0.12396 0.91969
 C3937 C -0.01698 0.08822 0.94706
 C3938 C -0.01706 0.07323 0.93890
 C3939 C -0.01457 0.05841 0.94703
 C3940 C -0.01155 0.05849 0.96333
 C3941 C -0.01126 0.07354 0.97141
 C3942 C -0.01413 0.08830 0.96335
 H3943 H -0.01366 0.14632 0.89493
 H3944 H -0.00995 0.17467 0.88635
 H3945 H -0.02627 0.19187 0.93208
 H3946 H -0.02853 0.16357 0.94110
 H3947 H -0.04242 0.13889 0.94015
 H3948 H -0.04015 0.11168 0.95255
 H3949 H 0.00124 0.09987 0.92284
 H3950 H -0.00023 0.12733 0.91102
 H3951 H -0.01918 0.07302 0.92630
 H3952 H -0.01479 0.04692 0.94057
 H3953 H -0.00907 0.07385 0.98400
 H3954 H -0.01389 0.09982 0.96976
 C3955 C 0.47634 0.66102 0.42601
 C3956 C 0.47110 0.66401 0.41050
 C3957 C 0.47402 0.67915 0.40323
 C3958 C 0.48214 0.69166 0.41135
 C3959 C 0.48675 0.68892 0.42709
 C3960 C 0.48391 0.67373 0.43434
 C3961 C 0.47503 0.64436 0.43307
 C3962 C 0.47128 0.64235 0.44915
 C3963 C 0.47157 0.62668 0.45604
 C3964 C 0.47552 0.61275 0.44693
 C3965 C 0.47875 0.61469 0.43076
 C3966 C 0.47855 0.63035 0.42390
 C3967 C 0.47718 0.59633 0.45439
 C3968 C 0.47093 0.58232 0.44700
 C3969 C 0.47328 0.56672 0.45367
 C3970 C 0.48204 0.56483 0.46780
 C3971 C 0.48815 0.57890 0.47524
 C3972 C 0.48571 0.59450 0.46861
 H3973 H 0.46504 0.65451 0.40387
 H3974 H 0.47045 0.68082 0.39104
 H3975 H 0.49282 0.69841 0.43371
 H3976 H 0.48823 0.67175 0.44626
 H3977 H 0.46830 0.65291 0.45645
 H3978 H 0.46883 0.62544 0.46850
 H3979 H 0.48206 0.60417 0.42353
 H3980 H 0.48179 0.63152 0.41154
 H3981 H 0.46422 0.58346 0.43607
 H3982 H 0.46837 0.55614 0.44767
 H3983 H 0.49489 0.57788 0.48616
 H3984 H 0.49084 0.60510 0.47442
 C3985 C 0.53053 0.83706 0.43365
 C3986 C 0.52519 0.82282 0.44154
 C3987 C 0.52354 0.80806 0.43336
 C3988 C 0.52717 0.80730 0.41716
 C3989 C 0.53365 0.82123 0.40958
 C3990 C 0.53534 0.83598 0.41776
 C3991 C 0.52913 0.85334 0.44130
 C3992 C 0.54129 0.86523 0.43927
 C3993 C 0.53895 0.88117 0.44514
 C3994 C 0.52437 0.88548 0.45305
 C3995 C 0.51239 0.87344 0.45531
 C3996 C 0.51477 0.85754 0.44955
 C3997 C 0.52136 0.90253 0.45861
 C3998 C 0.51322 0.90530 0.47300
 C3999 C 0.50965 0.92129 0.47797
 C4000 C 0.51428 0.93491 0.46875
 C4001 C 0.52262 0.93219 0.45443
 C4002 C 0.52606 0.91614 0.44938
 H4003 H 0.52167 0.82330 0.45387
 H4004 H 0.51883 0.79740 0.43956
 H4005 H 0.53641 0.82105 0.39706
 H4006 H 0.53934 0.84681 0.41137
 H4007 H 0.55250 0.86224 0.43300
 H4008 H 0.54851 0.89012 0.44344
 H4009 H 0.50090 0.87645 0.46108
 H4010 H 0.50504 0.84872 0.45097
 H4011 H 0.50971 0.89508 0.48051
 H4012 H 0.50345 0.92294 0.48919
 H4013 H 0.52637 0.94245 0.44708
 H4014 H 0.53214 0.91438 0.43812
 C4015 C 0.02142 0.33314 0.95661
 C4016 C 0.03364 0.32457 0.94816
 C4017 C 0.02975 0.31068 0.93934
 C4018 C 0.01359 0.30508 0.93891
 C4019 C 0.00169 0.31284 0.94838
 C4020 C 0.00553 0.32677 0.95707
 C4021 C 0.02448 0.34972 0.96315
 C4022 C 0.01627 0.35506 0.97683
 C4023 C 0.01630 0.37165 0.98105
 C4024 C 0.02479 0.38322 0.97182
 C4025 C 0.03413 0.37763 0.95891
 C4026 C 0.03390 0.36107 0.95455
 C4027 C 0.02277 0.40112 0.97492
 C4028 C 0.02153 0.41243 0.96232
 C4029 C 0.01824 0.42910 0.96516
 C4030 C 0.01581 0.43467 0.98064
 C4031 C 0.01734 0.42347 0.99325
 C4032 C 0.02092 0.40690 0.99043
 H4033 H 0.04605 0.32903 0.94780
 H4034 H 0.03918 0.30496 0.93212
 H4035 H -0.01080 0.30859 0.94849
 H4036 H -0.00423 0.33312 0.96333
 H4037 H 0.00917 0.34655 0.98388
 H4038 H 0.00891 0.37550 0.99104
 H4039 H 0.04113 0.38616 0.95179
 H4040 H 0.04030 0.35741 0.94389
 H4041 H 0.02257 0.40836 0.95020
 H4042 H 0.01715 0.43752 0.95526
 H4043 H 0.01588 0.42754 1.00534
 H4044 H 0.02214 0.39861 1.00042
 C4045 C 0.50384 0.33844 0.07796
 C4046 C 0.49487 0.33639 0.09199
 C4047 C 0.49504 0.32124 0.09987
 C4048 C 0.50414 0.30786 0.09383
 C4049 C 0.51303 0.30991 0.07974
 C4050 C 0.51289 0.32506 0.07189
 C4051 C 0.50386 0.35453 0.06972
 C4052 C 0.51849 0.36091 0.06369
 C4053 C 0.51856 0.37611 0.05594
 C4054 C 0.50398 0.38520 0.05403
 C4055 C 0.48934 0.37883 0.06008
 C4056 C 0.48928 0.36363 0.06787
 C4057 C 0.50410 0.40131 0.04578
 C4058 C 0.49476 0.41465 0.05153
 C4059 C 0.49510 0.42991 0.04388
 C4060 C 0.50482 0.43214 0.03032
 C4061 C 0.51408 0.41874 0.02452
 C4062 C 0.51370 0.40349 0.03216
 H4063 H 0.48797 0.34659 0.09702
 H4064 H 0.48827 0.32009 0.11083
 H4065 H 0.51993 0.29973 0.07468
 H4066 H 0.51971 0.32627 0.06096
 H4067 H 0.52993 0.35424 0.06518
 H4068 H 0.53007 0.38086 0.05164
 H4069 H 0.47789 0.38548 0.05857
 H4070 H 0.47780 0.35888 0.07225
 H4071 H 0.48740 0.41337 0.06212
 H4072 H 0.48786 0.44000 0.04869
 H4073 H 0.52162 0.42000 0.01405
 H4074 H 0.52082 0.39334 0.02732
 C4075 C 0.00205 0.84146 0.56812
 C4076 C -0.01190 0.83516 0.57566
 C4077 C -0.01137 0.81966 0.58285
 C4078 C 0.00314 0.81025 0.58274
 C4079 C 0.01694 0.81631 0.57486
 C4080 C 0.01638 0.83174 0.56754
 C4081 C 0.00187 0.85835 0.56142
 C4082 C 0.01556 0.86847 0.56304
 C4083 C 0.01546 0.88441 0.55684
 C4084 C 0.00161 0.89061 0.54903
 C4085 C -0.01216 0.88063 0.54754
 C4086 C -0.01201 0.86461 0.55362
 C4087 C 0.00172 0.90736 0.54221
 C4088 C -0.01152 0.91824 0.54463
 C4089 C -0.01130 0.93410 0.53816
 C4090 C 0.00210 0.93924 0.52901
 C4091 C 0.01531 0.92829 0.52659
 C4092 C 0.01514 0.91253 0.53319
 H4093 H -0.02304 0.84245 0.57649
 H4094 H -0.02211 0.81529 0.58904
 H4095 H 0.02820 0.80915 0.57448
 H4096 H 0.02721 0.83610 0.56152
 H4097 H 0.02629 0.86416 0.56931
 H4098 H 0.02614 0.89199 0.55830
 H4099 H -0.02290 0.88513 0.54140
 H4100 H -0.02267 0.85704 0.55203
 H4101 H -0.02196 0.91452 0.55165
 H4102 H -0.02169 0.94226 0.54016
 H4103 H 0.02581 0.93190 0.51962
 H4104 H 0.02543 0.90428 0.53106
 C4105 C 0.25876 0.30160 0.08715
 C4106 C 0.24788 0.29721 0.07516
 C4107 C 0.24744 0.30602 0.06094
 C4108 C 0.25782 0.31946 0.05840
 C4109 C 0.26892 0.32364 0.07028
 C4110 C 0.26940 0.31481 0.08448
 C4111 C 0.25840 0.29309 0.10273
 C4112 C 0.27292 0.28954 0.11094
 C4113 C 0.27239 0.28292 0.12622
 C4114 C 0.25733 0.27982 0.13362
 C4115 C 0.24286 0.28275 0.12517
 C4116 C 0.24338 0.28929 0.10991
 C4117 C 0.25658 0.27497 0.15052
 C4118 C 0.24547 0.28305 0.16062
 C4119 C 0.24508 0.27935 0.17668
 C4120 C 0.25572 0.26737 0.18310
 C4121 C 0.26667 0.25900 0.17299
 C4122 C 0.26718 0.26288 0.15684
 H4123 H 0.23963 0.28700 0.07681
 H4124 H 0.23867 0.30255 0.05207
 H4125 H 0.27724 0.33379 0.06860
 H4126 H 0.27779 0.31862 0.09354
 H4127 H 0.28468 0.29215 0.10564
 H4128 H 0.28373 0.28087 0.13249
 H4129 H 0.23108 0.28033 0.13054
 H4130 H 0.23197 0.29198 0.10397
 H4131 H 0.23732 0.29258 0.15616
 H4132 H 0.23644 0.28598 0.18411
 H4133 H 0.27505 0.24976 0.17762
 H4134 H 0.27585 0.25644 0.14929
 C4135 C 0.76637 0.80161 0.58835
 C4136 C 0.75411 0.79723 0.57767
 C4137 C 0.75249 0.80553 0.56324
 C4138 C 0.76298 0.81851 0.55928
 C4139 C 0.77547 0.82263 0.56980
 C4140 C 0.77721 0.81421 0.58415
 C4141 C 0.76708 0.79399 0.60430
 C4142 C 0.78208 0.78924 0.61109
 C4143 C 0.78270 0.78346 0.62670
 C4144 C 0.76836 0.78263 0.63582
 C4145 C 0.75335 0.78690 0.62887
 C4146 C 0.75270 0.79242 0.61327
 C4147 C 0.76894 0.77870 0.65288
 C4148 C 0.76147 0.78957 0.66359
 C4149 C 0.76086 0.78577 0.67961
 C4150 C 0.76754 0.77086 0.68540
 C4151 C 0.77551 0.76014 0.67473
 C4152 C 0.77632 0.76411 0.65859
 H4153 H 0.74564 0.78751 0.58059
 H4154 H 0.74272 0.80213 0.55539
 H4155 H 0.78385 0.83245 0.56696
 H4156 H 0.78666 0.81795 0.59221
 H4157 H 0.79334 0.79024 0.60439
 H4158 H 0.79441 0.78029 0.63185
 H4159 H 0.74212 0.78629 0.63568
 H4160 H 0.74100 0.79613 0.60842
 H4161 H 0.75591 0.80100 0.65949
 H4162 H 0.75466 0.79441 0.68739
 H4163 H 0.78079 0.74858 0.67879
 H4164 H 0.78219 0.75557 0.65050
 C4165 C 0.22752 0.69305 0.59652
 C4166 C 0.21656 0.68101 0.59138
 C4167 C 0.21875 0.67333 0.57678
 C4168 C 0.23182 0.67764 0.56685
 C4169 C 0.24246 0.69007 0.57167
 C4170 C 0.24040 0.69763 0.58638
 C4171 C 0.22611 0.70004 0.61274
 C4172 C 0.23027 0.71650 0.61587
 C4173 C 0.23021 0.72248 0.63136
 C4174 C 0.22599 0.71213 0.64406
 C4175 C 0.22114 0.69593 0.64084
 C4176 C 0.22129 0.68994 0.62543
 C4177 C 0.22789 0.71760 0.66069
 C4178 C 0.23465 0.70664 0.67181
 C4179 C 0.23708 0.71153 0.68732
 C4180 C 0.23288 0.72759 0.69227
 C4181 C 0.22593 0.73859 0.68123
 C4182 C 0.22351 0.73365 0.66556
 H4183 H 0.20629 0.67743 0.59868
 H4184 H 0.21018 0.66400 0.57322
 H4185 H 0.25270 0.69355 0.56427
 H4186 H 0.24923 0.70665 0.59001
 H4187 H 0.23379 0.72471 0.60636
 H4188 H 0.23407 0.73500 0.63345
 H4189 H 0.21757 0.68771 0.65032
 H4190 H 0.21819 0.67716 0.62358
 H4191 H 0.23847 0.69432 0.66843
 H4192 H 0.24248 0.70266 0.69541
 H4193 H 0.22258 0.75104 0.68464
 H4194 H 0.21819 0.74235 0.65726
 C4195 C 0.72912 0.19363 0.09341
 C4196 C 0.71808 0.18210 0.08739
 C4197 C 0.72133 0.17398 0.07318
 C4198 C 0.73554 0.17738 0.06446
 C4199 C 0.74630 0.18930 0.07008
 C4200 C 0.74320 0.19725 0.08445
 C4201 C 0.72641 0.20110 0.10930
 C4202 C 0.73151 0.21723 0.11264
 C4203 C 0.73023 0.22358 0.12796
 C4204 C 0.72373 0.21398 0.14031
 C4205 C 0.71788 0.19820 0.13678
 C4206 C 0.71931 0.19181 0.12156
 C4207 C 0.72437 0.21969 0.15699
 C4208 C 0.72856 0.20840 0.16897
 C4209 C 0.73059 0.21363 0.18446
 C4210 C 0.72862 0.23035 0.18849
 C4211 C 0.72383 0.24163 0.17669
 C4212 C 0.72178 0.23635 0.16106
 H4213 H 0.70692 0.17926 0.09369
 H4214 H 0.71269 0.16504 0.06894
 H4215 H 0.75738 0.19208 0.06361
 H4216 H 0.75212 0.20583 0.08877
 H4217 H 0.73673 0.22489 0.10347
 H4218 H 0.73494 0.23574 0.13025
 H4219 H 0.71253 0.19057 0.14592
 H4220 H 0.71539 0.17930 0.11959
 H4221 H 0.73094 0.19555 0.16630
 H4222 H 0.73423 0.20455 0.19321
 H4223 H 0.72223 0.25459 0.17939
 H4224 H 0.71837 0.24534 0.15214
 C4225 C 0.75392 0.19661 0.91260
 C4226 C 0.74756 0.18060 0.91339
 C4227 C 0.74597 0.17242 0.92783
 C4228 C 0.75076 0.17998 0.94190
 C4229 C 0.75742 0.19588 0.94115
 C4230 C 0.75897 0.20412 0.92664
 C4231 C 0.75514 0.20524 0.89709
 C4232 C 0.76892 0.21462 0.89300
 C4233 C 0.77051 0.22137 0.87779
 C4234 C 0.75840 0.21876 0.86644
 C4235 C 0.74432 0.21009 0.87079
 C4236 C 0.74269 0.20347 0.88592
 C4237 C 0.76063 0.22393 0.84976
 C4238 C 0.75765 0.21252 0.83778
 C4239 C 0.75811 0.21729 0.82200
 C4240 C 0.76148 0.23369 0.81768
 C4241 C 0.76528 0.24500 0.82963
 C4242 C 0.76492 0.24012 0.84558
 H4243 H 0.74395 0.17426 0.90277
 H4244 H 0.74119 0.16003 0.92794
 H4245 H 0.76115 0.20207 0.95181
 H4246 H 0.76383 0.21648 0.92644
 H4247 H 0.77874 0.21617 0.90133
 H4248 H 0.78148 0.22800 0.87469
 H4249 H 0.73466 0.20818 0.86234
 H4250 H 0.73172 0.19674 0.88880
 H4251 H 0.75466 0.19988 0.84067
 H4252 H 0.75536 0.20813 0.81319
 H4253 H 0.76796 0.25770 0.82672
 H4254 H 0.76733 0.24912 0.85464
 C4255 C 0.25574 0.69850 0.41519
 C4256 C 0.25761 0.70685 0.42955
 C4257 C 0.25415 0.69891 0.44388
 C4258 C 0.24846 0.68262 0.44408
 C4259 C 0.24632 0.67443 0.42969
 C4260 C 0.25000 0.68225 0.41543
 C4261 C 0.25967 0.70654 0.39990
 C4262 C 0.26870 0.69787 0.38843
 C4263 C 0.27092 0.70453 0.37336
 C4264 C 0.26401 0.71993 0.36934
 C4265 C 0.25575 0.72904 0.38110
 C4266 C 0.25365 0.72241 0.39627
 C4267 C 0.26401 0.72557 0.35260
 C4268 C 0.26600 0.74226 0.34844
 C4269 C 0.26488 0.74734 0.33261
 C4270 C 0.26158 0.73583 0.32071
 C4271 C 0.25996 0.71913 0.32494
 C4272 C 0.26113 0.71410 0.34061
 H4273 H 0.26203 0.71937 0.42967
 H4274 H 0.25584 0.70551 0.45482
 H4275 H 0.24213 0.66181 0.42950
 H4276 H 0.24826 0.67560 0.40452
 H4277 H 0.27377 0.68576 0.39103
 H4278 H 0.27768 0.69737 0.36470
 H4279 H 0.25018 0.74088 0.37835
 H4280 H 0.24662 0.72933 0.40492
 H4281 H 0.26832 0.75137 0.35742
 H4282 H 0.26619 0.76029 0.32975
 H4283 H 0.25747 0.70988 0.31613
 H4284 H 0.25923 0.70121 0.34339
 C4285 C 0.73709 0.80170 0.40921
 C4286 C 0.72460 0.80968 0.41785
 C4287 C 0.72801 0.81755 0.43207
 C4288 C 0.74398 0.81761 0.43809
 C4289 C 0.75641 0.80932 0.42963
 C4290 C 0.75301 0.80148 0.41537
 C4291 C 0.73369 0.79441 0.39348
 C4292 C 0.74150 0.77971 0.38861
 C4293 C 0.73926 0.77366 0.37333
 C4294 C 0.72919 0.78219 0.36257
 C4295 C 0.72088 0.79650 0.36767
 C4296 C 0.72312 0.80254 0.38290
 C4297 C 0.72853 0.77710 0.34574
 C4298 C 0.72940 0.78912 0.33380
 C4299 C 0.73040 0.78458 0.31798
 C4300 C 0.73051 0.76787 0.31361
 C4301 C 0.72891 0.75579 0.32546
 C4302 C 0.72803 0.76037 0.34141
 H4303 H 0.71217 0.80993 0.41356
 H4304 H 0.71815 0.82396 0.43814
 H4305 H 0.76881 0.80894 0.43401
 H4306 H 0.76296 0.79562 0.40896
 H4307 H 0.74953 0.77301 0.39654
 H4308 H 0.74593 0.76267 0.36974
 H4309 H 0.71290 0.80325 0.35973
 H4310 H 0.71702 0.81396 0.38618
 H4311 H 0.73002 0.80209 0.33670
 H4312 H 0.73154 0.79421 0.30916
 H4313 H 0.72901 0.74282 0.32247
 H4314 H 0.72721 0.75083 0.35035
 C4315 C 0.23619 0.30127 0.90970
 C4316 C 0.22378 0.30995 0.91780
 C4317 C 0.22714 0.31828 0.93179
 C4318 C 0.24298 0.31807 0.93812
 C4319 C 0.25531 0.30903 0.93025
 C4320 C 0.25196 0.30074 0.91621
 C4321 C 0.23295 0.29371 0.89407
 C4322 C 0.24039 0.27866 0.88966
 C4323 C 0.23845 0.27244 0.87441
 C4324 C 0.22908 0.28117 0.86323
 C4325 C 0.22106 0.29580 0.86787
 C4326 C 0.22299 0.30201 0.88307
 C4327 C 0.22894 0.27602 0.84642
 C4328 C 0.23103 0.28794 0.83455
 C4329 C 0.23215 0.28337 0.81877
 C4330 C 0.23116 0.26673 0.81435
 C4331 C 0.22853 0.25476 0.82612
 C4332 C 0.22756 0.25936 0.84206
 H4333 H 0.21146 0.31045 0.91324
 H4334 H 0.21737 0.32525 0.93741
 H4335 H 0.26759 0.30842 0.93490
 H4336 H 0.26185 0.29432 0.91020
 H4337 H 0.24795 0.27184 0.89793
 H4338 H 0.24485 0.26118 0.87115
 H4339 H 0.21361 0.30271 0.85957
 H4340 H 0.21719 0.31369 0.88597
 H4341 H 0.23237 0.30083 0.83751
 H4342 H 0.23408 0.29293 0.81001
 H4343 H 0.22775 0.24184 0.82307
 H4344 H 0.22585 0.24992 0.85098
 C4345 C 0.83154 0.40817 0.76470
 C4346 C 0.82480 0.42370 0.76852
 C4347 C 0.83378 0.43810 0.76615
 C4348 C 0.84970 0.43731 0.75984
 C4349 C 0.85649 0.42176 0.75618
 C4350 C 0.84754 0.40739 0.75858
 C4351 C 0.82179 0.39288 0.76653
 C4352 C 0.82914 0.37808 0.77181
 C4353 C 0.82025 0.36346 0.77244
 C4354 C 0.80381 0.36326 0.76775
 C4355 C 0.79633 0.37816 0.76296
 C4356 C 0.80520 0.39278 0.76237
 C4357 C 0.79483 0.34743 0.76682
 C4358 C 0.78488 0.34428 0.75377
 C4359 C 0.77722 0.32911 0.75218
 C4360 C 0.77924 0.31663 0.76363
 C4361 C 0.78885 0.31989 0.77693
 C4362 C 0.79663 0.33512 0.77847
 H4363 H 0.81257 0.42473 0.77339
 H4364 H 0.82815 0.44987 0.76901
 H4365 H 0.86880 0.42069 0.75151
 H4366 H 0.85304 0.39567 0.75533
 H4367 H 0.84183 0.37778 0.77532
 H4368 H 0.82641 0.35218 0.77607
 H4369 H 0.78363 0.37848 0.75946
 H4370 H 0.79919 0.40391 0.75814
 H4371 H 0.78342 0.35337 0.74447
 H4372 H 0.76989 0.32708 0.74179
 H4373 H 0.79070 0.31056 0.78594
 H4374 H 0.80411 0.33723 0.78874
 C4375 C 0.32965 0.91004 0.26471
 C4376 C 0.34509 0.90934 0.25751
 C4377 C 0.35402 0.92367 0.25484
 C4378 C 0.34790 0.93945 0.25933
 C4379 C 0.33228 0.93985 0.26675
 C4380 C 0.32338 0.92545 0.26932
 C4381 C 0.31998 0.89476 0.26697
 C4382 C 0.30313 0.89476 0.26386
 C4383 C 0.29426 0.88017 0.26488
 C4384 C 0.30200 0.86520 0.26908
 C4385 C 0.31872 0.86529 0.27272
 C4386 C 0.32762 0.87989 0.27164
 C4387 C 0.29292 0.84942 0.26861
 C4388 C 0.29539 0.83705 0.28009
 C4389 C 0.28759 0.82182 0.27888
 C4390 C 0.27728 0.81859 0.26607
 C4391 C 0.27455 0.83113 0.25483
 C4392 C 0.28224 0.84633 0.25610
 H4393 H 0.35026 0.89764 0.25373
 H4394 H 0.36608 0.92189 0.24987
 H4395 H 0.32624 0.95126 0.27000
 H4396 H 0.31148 0.92642 0.27493
 H4397 H 0.29690 0.90596 0.26013
 H4398 H 0.28135 0.88055 0.26218
 H4399 H 0.32508 0.85396 0.27586
 H4400 H 0.34053 0.87951 0.27432
 H4401 H 0.30346 0.83912 0.28994
 H4402 H 0.28999 0.81242 0.28772
 H4403 H 0.26667 0.82912 0.24482
 H4404 H 0.28023 0.85548 0.24694
 C4405 C 0.16392 0.90240 0.74812
 C4406 C 0.16919 0.91590 0.73902
 C4407 C 0.16088 0.93109 0.73973
 C4408 C 0.14705 0.93314 0.74951
 C4409 C 0.14180 0.91962 0.75859
 C4410 C 0.15010 0.90447 0.75789
 C4411 C 0.17290 0.88629 0.74769
 C4412 C 0.17525 0.87715 0.76164
 C4413 C 0.18370 0.86208 0.76140
 C4414 C 0.19009 0.85571 0.74720
 C4415 C 0.18764 0.86475 0.73319
 C4416 C 0.17918 0.87990 0.73344
 C4417 C 0.19948 0.83984 0.74724
 C4418 C 0.19745 0.82802 0.73531
 C4419 C 0.20572 0.81276 0.73604
 C4420 C 0.21618 0.80902 0.74872
 C4421 C 0.21852 0.82108 0.76035
 C4422 C 0.21032 0.83625 0.75960
 H4423 H 0.17989 0.91478 0.73150
 H4424 H 0.16515 0.94119 0.73245
 H4425 H 0.13131 0.92079 0.76637
 H4426 H 0.14559 0.89430 0.76493
 H4427 H 0.17075 0.88176 0.77284
 H4428 H 0.18515 0.85533 0.77237
 H4429 H 0.19249 0.86024 0.72209
 H4430 H 0.17743 0.88654 0.72246
 H4431 H 0.18912 0.83039 0.72567
 H4432 H 0.20362 0.80375 0.72691
 H4433 H 0.22661 0.81878 0.77019
 H4434 H 0.21247 0.84520 0.76878
 C4435 C 0.66262 0.40605 0.24648
 C4436 C 0.66723 0.41983 0.23745
 C4437 C 0.65890 0.43492 0.23906
 C4438 C 0.64570 0.43656 0.24967
 C4439 C 0.64105 0.42275 0.25864
 C4440 C 0.64942 0.40769 0.25708
 C4441 C 0.67176 0.39012 0.24517
 C4442 C 0.67553 0.38093 0.25879
 C4443 C 0.68443 0.36616 0.25772
 C4444 C 0.68980 0.36017 0.24301
 C4445 C 0.68582 0.36918 0.22933
 C4446 C 0.67696 0.38405 0.23040
 C4447 C 0.69980 0.34474 0.24218
 C4448 C 0.69686 0.33261 0.23075
 C4449 C 0.70564 0.31762 0.23091
 C4450 C 0.71757 0.31452 0.24248
 C4451 C 0.72090 0.32699 0.25346
 C4452 C 0.71215 0.34185 0.25330
 H4453 H 0.67745 0.41901 0.22931
 H4454 H 0.66266 0.44526 0.23183
 H4455 H 0.63102 0.42362 0.26699
 H4456 H 0.64547 0.39728 0.26411
 H4457 H 0.67185 0.38531 0.27034
 H4458 H 0.68711 0.35939 0.26847
 H4459 H 0.68984 0.36490 0.21784
 H4460 H 0.67409 0.39077 0.21968
 H4461 H 0.68738 0.33449 0.22204
 H4462 H 0.70275 0.30829 0.22231
 H4463 H 0.73011 0.32518 0.26244
 H4464 H 0.71497 0.35109 0.26203
 C4465 C 0.66664 0.59403 0.25732
 C4466 C 0.66023 0.58641 0.27087
 C4467 C 0.65111 0.57200 0.26966
 C4468 C 0.64796 0.56497 0.25482
 C4469 C 0.65440 0.57267 0.24127
 C4470 C 0.66370 0.58696 0.24252
 C4471 C 0.67626 0.60939 0.25855
 C4472 C 0.69080 0.61117 0.24988
 C4473 C 0.69952 0.62586 0.25045
 C4474 C 0.69380 0.63927 0.25954
 C4475 C 0.67944 0.63731 0.26853
 C4476 C 0.67080 0.62251 0.26809
 C4477 C 0.70235 0.65541 0.25892
 C4478 C 0.70335 0.66564 0.27228
 C4479 C 0.71096 0.68103 0.27130
 C4480 C 0.71779 0.68651 0.25696
 C4481 C 0.71690 0.67617 0.24371
 C4482 C 0.70925 0.66093 0.24466
 H4483 H 0.66248 0.59148 0.28245
 H4484 H 0.64669 0.56627 0.28040
 H4485 H 0.65201 0.56786 0.22963
 H4486 H 0.66831 0.59270 0.23185
 H4487 H 0.69544 0.60116 0.24266
 H4488 H 0.71073 0.62673 0.24369
 H4489 H 0.67454 0.64740 0.27551
 H4490 H 0.65957 0.62152 0.27482
 H4491 H 0.69831 0.66172 0.28350
 H4492 H 0.71142 0.68866 0.28173
 H4493 H 0.72187 0.67995 0.23240
 H4494 H 0.70842 0.65364 0.23404
 C4495 C 0.16367 0.09322 0.75657
 C4496 C 0.15873 0.08475 0.77025
 C4497 C 0.15052 0.06976 0.76916
 C4498 C 0.14689 0.06292 0.75435
 C4499 C 0.15191 0.07141 0.74068
 C4500 C 0.16023 0.08633 0.74178
 C4501 C 0.17229 0.10923 0.75765
 C4502 C 0.18561 0.11255 0.74766
 C4503 C 0.19327 0.12785 0.74807
 C4504 C 0.18774 0.14031 0.75838
 C4505 C 0.17469 0.13684 0.76870
 C4506 C 0.16707 0.12145 0.76836
 C4507 C 0.19512 0.15703 0.75773
 C4508 C 0.19774 0.16634 0.77146
 C4509 C 0.20493 0.18197 0.77053
 C4510 C 0.20966 0.18859 0.75584
 C4511 C 0.20676 0.17932 0.74215
 C4512 C 0.19959 0.16385 0.74309
 H4513 H 0.16140 0.08962 0.78181
 H4514 H 0.14713 0.06345 0.77995
 H4515 H 0.14910 0.06672 0.72908
 H4516 H 0.16367 0.09267 0.73101
 H4517 H 0.19013 0.10329 0.73952
 H4518 H 0.20353 0.12993 0.74022
 H4519 H 0.17002 0.14618 0.77668
 H4520 H 0.15676 0.11930 0.77613
 H4521 H 0.19450 0.16143 0.78294
 H4522 H 0.20697 0.18876 0.78129
 H4523 H 0.21002 0.18401 0.73059
 H4524 H 0.19738 0.15727 0.73223
 C4525 C 0.33263 0.09719 0.24462
 C4526 C 0.34635 0.09404 0.23498
 C4527 C 0.35509 0.07916 0.23622
 C4528 C 0.35025 0.06685 0.24698
 C4529 C 0.33656 0.07001 0.25669
 C4530 C 0.32792 0.08500 0.25557
 C4531 C 0.32334 0.11312 0.24327
 C4532 C 0.30628 0.11370 0.24550
 C4533 C 0.29764 0.12868 0.24457
 C4534 C 0.30579 0.14343 0.24119
 C4535 C 0.32275 0.14288 0.23866
 C4536 C 0.33144 0.12794 0.23978
 C4537 C 0.29678 0.15947 0.24113
 C4538 C 0.29955 0.17133 0.22927
 C4539 C 0.29169 0.18679 0.22985
 C4540 C 0.28115 0.19077 0.24247
 C4541 C 0.27818 0.17876 0.25414
 C4542 C 0.28581 0.16327 0.25341
 H4543 H 0.35028 0.10299 0.22628
 H4544 H 0.36572 0.07738 0.22874
 H4545 H 0.33234 0.06081 0.26500
 H4546 H 0.31760 0.08704 0.26339
 H4547 H 0.29954 0.10255 0.24786
 H4548 H 0.28454 0.12873 0.24643
 H4549 H 0.32939 0.15410 0.23628
 H4550 H 0.34457 0.12810 0.23828
 H4551 H 0.30788 0.16866 0.21961
 H4552 H 0.29429 0.19581 0.22074
 H4553 H 0.27010 0.18143 0.26399
 H4554 H 0.28354 0.15445 0.26278
 C4555 C 0.83422 0.59555 0.74333
 C4556 C 0.84979 0.59381 0.73635
 C4557 C 0.85869 0.57903 0.73769
 C4558 C 0.85222 0.56541 0.74587
 C4559 C 0.83664 0.56713 0.75283
 C4560 C 0.82782 0.58200 0.75165
 C4561 C 0.82479 0.61143 0.74199
 C4562 C 0.80762 0.61153 0.74099
 C4563 C 0.79880 0.62642 0.74009
 C4564 C 0.80691 0.64158 0.73994
 C4565 C 0.82405 0.64153 0.74067
 C4566 C 0.83287 0.62667 0.74179
 C4567 C 0.79755 0.65743 0.73972
 C4568 C 0.80232 0.67054 0.72986
 C4569 C 0.79402 0.68576 0.73039
 C4570 C 0.78095 0.68826 0.74100
 C4571 C 0.77600 0.67502 0.75062
 C4572 C 0.78412 0.65976 0.74990
 H4573 H 0.85509 0.60383 0.72966
 H4574 H 0.87074 0.57837 0.73239
 H4575 H 0.83113 0.55691 0.75905
 H4576 H 0.81601 0.58288 0.75742
 H4577 H 0.80095 0.60010 0.74078
 H4578 H 0.78560 0.62609 0.73940
 H4579 H 0.83061 0.65304 0.74083
 H4580 H 0.84601 0.62718 0.74285
 H4581 H 0.81256 0.66903 0.72181
 H4582 H 0.79818 0.69573 0.72290
 H4583 H 0.76597 0.67653 0.75890
 H4584 H 0.78025 0.64993 0.75771
 C4585 C 0.90835 0.75370 0.18476
 C4586 C 0.92298 0.75179 0.19300
 C4587 C 0.93773 0.74967 0.18489
 C4588 C 0.93832 0.74923 0.16813
 C4589 C 0.92318 0.75071 0.16012
 C4590 C 0.90855 0.75305 0.16830
 C4591 C 0.89275 0.75608 0.19321
 C4592 C 0.88182 0.76859 0.18848
 C4593 C 0.86650 0.77008 0.19563
 C4594 C 0.86177 0.75893 0.20750
 C4595 C 0.87295 0.74671 0.21254
 C4596 C 0.88835 0.74537 0.20550
 C4597 C 0.84494 0.75942 0.21397
 C4598 C 0.84197 0.75579 0.22995
 C4599 C 0.82602 0.75494 0.23570
 C4600 C 0.81273 0.75789 0.22563
 C4601 C 0.81568 0.76206 0.20979
 C4602 C 0.83163 0.76272 0.20399
 H4603 H 0.92304 0.75238 0.20577
 H4604 H 0.94857 0.74933 0.19206
 H4605 H 0.92215 0.74939 0.14750
 H4606 H 0.89727 0.75400 0.16173
 H4607 H 0.88511 0.77712 0.17914
 H4608 H 0.85829 0.77983 0.19173
 H4609 H 0.86959 0.73778 0.22148
 H4610 H 0.89659 0.73555 0.20922
 H4611 H 0.85198 0.75349 0.23799
 H4612 H 0.82408 0.75190 0.24803
 H4613 H 0.80566 0.76431 0.20174
 H4614 H 0.83349 0.76527 0.19157
 C4615 C 0.40550 0.25825 0.68446
 C4616 C 0.41766 0.24692 0.68919
 C4617 C 0.43282 0.24659 0.68163
 C4618 C 0.43613 0.25761 0.66921
 C4619 C 0.42416 0.26930 0.66483
 C4620 C 0.40897 0.26961 0.67239
 C4621 C 0.38899 0.25765 0.69156
 C4622 C 0.38031 0.27224 0.69510
 C4623 C 0.36450 0.27155 0.70129
 C4624 C 0.35712 0.25627 0.70406
 C4625 C 0.36583 0.24169 0.70060
 C4626 C 0.38160 0.24238 0.69440
 C4627 C 0.34034 0.25544 0.71045
 C4628 C 0.33653 0.24396 0.72231
 C4629 C 0.32064 0.24292 0.72817
 C4630 C 0.30822 0.25332 0.72226
 C4631 C 0.31206 0.26485 0.71041
 C4632 C 0.32799 0.26592 0.70458
 H4633 H 0.41536 0.23817 0.69861
 H4634 H 0.44176 0.23736 0.68516
 H4635 H 0.42648 0.27808 0.65544
 H4636 H 0.39978 0.27839 0.66843
 H4637 H 0.38580 0.28417 0.69318
 H4638 H 0.35809 0.28296 0.70405
 H4639 H 0.36031 0.22976 0.70240
 H4640 H 0.38787 0.23094 0.69147
 H4641 H 0.34588 0.23588 0.72715
 H4642 H 0.31811 0.23394 0.73734
 H4643 H 0.30279 0.27308 0.70565
 H4644 H 0.33061 0.27476 0.69532
 C4645 C 0.41501 0.72883 0.80716
 C4646 C 0.42765 0.73908 0.80193
 C4647 C 0.44219 0.73989 0.81033
 C4648 C 0.44442 0.73036 0.82405
 C4649 C 0.43222 0.71925 0.82864
 C4650 C 0.41763 0.71853 0.82029
 C4651 C 0.39862 0.73018 0.80003
 C4652 C 0.38897 0.71617 0.79799
 C4653 C 0.37289 0.71783 0.79274
 C4654 C 0.36625 0.73352 0.78944
 C4655 C 0.37605 0.74746 0.79109
 C4656 C 0.39206 0.74581 0.79636
 C4657 C 0.34899 0.73552 0.78482
 C4658 C 0.34459 0.74670 0.77285
 C4659 C 0.32824 0.74911 0.76891
 C4660 C 0.31594 0.74040 0.77690
 C4661 C 0.32036 0.72916 0.78886
 C4662 C 0.33674 0.72673 0.79277
 H4663 H 0.42604 0.74696 0.79169
 H4664 H 0.45131 0.74863 0.80653
 H4665 H 0.43374 0.71154 0.83900
 H4666 H 0.40807 0.71055 0.82464
 H4667 H 0.39379 0.70396 0.80059
 H4668 H 0.36562 0.70687 0.79134
 H4669 H 0.37115 0.75972 0.78886
 H4670 H 0.39908 0.75687 0.79815
 H4671 H 0.35383 0.75351 0.76646
 H4672 H 0.32527 0.75779 0.75958
 H4673 H 0.31119 0.72218 0.79516
 H4674 H 0.33982 0.71820 0.80219
 C4675 C 0.91861 0.23084 0.29011
 C4676 C 0.92041 0.22090 0.30362
 C4677 C 0.93430 0.22208 0.31294
 C4678 C 0.94662 0.23328 0.30897
 C4679 C 0.94546 0.24223 0.29479
 C4680 C 0.93157 0.24100 0.28542
 C4681 C 0.90249 0.23223 0.28237
 C4682 C 0.89617 0.24788 0.27836
 C4683 C 0.87998 0.24976 0.27365
 C4684 C 0.86976 0.23603 0.27290
 C4685 C 0.87626 0.22027 0.27613
 C4686 C 0.89251 0.21838 0.28078
 C4687 C 0.85215 0.23837 0.26973
 C4688 C 0.84048 0.23013 0.27896
 C4689 C 0.82383 0.23303 0.27658
 C4690 C 0.81855 0.24420 0.26489
 C4691 C 0.83027 0.25235 0.25561
 C4692 C 0.84689 0.24948 0.25803
 H4693 H 0.91063 0.21302 0.30762
 H4694 H 0.93506 0.21480 0.32366
 H4695 H 0.95480 0.25094 0.29144
 H4696 H 0.93061 0.24859 0.27491
 H4697 H 0.90344 0.25884 0.27975
 H4698 H 0.87523 0.26207 0.27139
 H4699 H 0.86867 0.20946 0.27537
 H4700 H 0.89712 0.20615 0.28360
 H4701 H 0.84423 0.22168 0.28822
 H4702 H 0.81512 0.22646 0.28384
 H4703 H 0.82663 0.26097 0.24644
 H4704 H 0.85565 0.25591 0.25070
 C4705 C 0.09854 0.27584 0.32537
 C4706 C 0.08620 0.27374 0.31411
 C4707 C 0.07034 0.26997 0.31883
 C4708 C 0.06656 0.26804 0.33487
 C4709 C 0.07872 0.27053 0.34618
 C4710 C 0.09456 0.27449 0.34148
 C4711 C 0.11568 0.27811 0.32021
 C4712 C 0.12846 0.26977 0.32804
 C4713 C 0.14428 0.26988 0.32185
 C4714 C 0.14755 0.27819 0.30766
 C4715 C 0.13505 0.28731 0.30030
 C4716 C 0.11927 0.28737 0.30659
 C4717 C 0.16340 0.27576 0.29966
 C4718 C 0.16376 0.27052 0.28391
 C4719 C 0.17858 0.26683 0.27652
 C4720 C 0.19333 0.26853 0.28467
 C4721 C 0.19301 0.27411 0.30034
 C4722 C 0.17811 0.27753 0.30785
 H4723 H 0.08892 0.27436 0.30160
 H4724 H 0.06116 0.26797 0.30991
 H4725 H 0.07597 0.26937 0.35865
 H4726 H 0.10373 0.27630 0.35043
 H4727 H 0.12609 0.26236 0.33844
 H4728 H 0.15374 0.26264 0.32762
 H4729 H 0.13740 0.29395 0.28942
 H4730 H 0.10976 0.29424 0.30050
 H4731 H 0.15253 0.26885 0.27746
 H4732 H 0.17848 0.26272 0.26438
 H4733 H 0.20423 0.27553 0.30687
 H4734 H 0.17805 0.28153 0.32003
 C4735 C 0.58837 0.76923 0.80652
 C4736 C 0.58324 0.75311 0.80980
 C4737 C 0.56956 0.75040 0.81922
 C4738 C 0.56076 0.76373 0.82567
 C4739 C 0.56557 0.77989 0.82208
 C4740 C 0.57931 0.78263 0.81259
 C4741 C 0.60383 0.77178 0.79779
 C4742 C 0.61515 0.78335 0.80309
 C4743 C 0.63084 0.78376 0.79659
 C4744 C 0.63552 0.77253 0.78476
 C4745 C 0.62383 0.76170 0.77879
 C4746 C 0.60813 0.76141 0.78518
 C4747 C 0.65279 0.77101 0.77964
 C4748 C 0.65673 0.76706 0.76394
 C4749 C 0.67287 0.76377 0.75955
 C4750 C 0.68543 0.76457 0.77072
 C4751 C 0.68161 0.76911 0.78628
 C4752 C 0.66543 0.77219 0.79073
 H4753 H 0.59011 0.74253 0.80552
 H4754 H 0.56594 0.73782 0.82158
 H4755 H 0.55900 0.79039 0.82695
 H4756 H 0.58295 0.79518 0.81016
 H4757 H 0.61220 0.79147 0.81284
 H4758 H 0.63949 0.79248 0.80120
 H4759 H 0.62704 0.75281 0.76976
 H4760 H 0.59954 0.75257 0.78067
 H4761 H 0.64731 0.76635 0.75507
 H4762 H 0.67551 0.76060 0.74739
 H4763 H 0.69106 0.76984 0.79513
 H4764 H 0.66278 0.77492 0.80298
 C4765 C 0.58970 0.23924 0.68904
 C4766 C 0.58509 0.22658 0.67878
 C4767 C 0.56994 0.22730 0.67130
 C4768 C 0.55932 0.24074 0.67389
 C4769 C 0.56353 0.25289 0.68478
 C4770 C 0.57853 0.25208 0.69239
 C4771 C 0.60650 0.23984 0.69528
 C4772 C 0.61461 0.25500 0.69580
 C4773 C 0.63044 0.25583 0.70155
 C4774 C 0.63856 0.24153 0.70680
 C4775 C 0.63067 0.22629 0.70602
 C4776 C 0.61472 0.22545 0.70034
 C4777 C 0.65511 0.24276 0.71338
 C4778 C 0.66768 0.23194 0.70857
 C4779 C 0.68346 0.23371 0.71446
 C4780 C 0.68680 0.24621 0.72537
 C4781 C 0.67410 0.25684 0.73030
 C4782 C 0.65844 0.25516 0.72433
 H4783 H 0.59348 0.21660 0.67591
 H4784 H 0.56690 0.21786 0.66284
 H4785 H 0.55536 0.26324 0.68707
 H4786 H 0.58160 0.26177 0.70057
 H4787 H 0.60878 0.26622 0.69155
 H4788 H 0.63641 0.26767 0.70178
 H4789 H 0.63672 0.21512 0.71012
 H4790 H 0.60873 0.21363 0.70013
 H4791 H 0.66535 0.22234 0.70006
 H4792 H 0.69299 0.22526 0.71056
 H4793 H 0.67627 0.26658 0.73871
 H4794 H 0.64887 0.26353 0.72832
 C4795 C 0.08904 0.73236 0.19283
 C4796 C 0.08656 0.72155 0.18017
 C4797 C 0.07195 0.72220 0.17176
 C4798 C 0.05976 0.73373 0.17584
 C4799 C 0.06176 0.74371 0.18912
 C4800 C 0.07623 0.74293 0.19764
 C4801 C 0.10540 0.73397 0.19990
 C4802 C 0.11142 0.74974 0.20308
 C4803 C 0.12707 0.75163 0.20902
 C4804 C 0.13709 0.73780 0.21186
 C4805 C 0.13118 0.72198 0.20866
 C4806 C 0.11542 0.72008 0.20273
 C4807 C 0.15370 0.74007 0.21806
 C4808 C 0.16709 0.73144 0.21157
 C4809 C 0.18286 0.73427 0.21705
 C4810 C 0.18546 0.74572 0.22916
 C4811 C 0.17198 0.75418 0.23573
 C4812 C 0.15628 0.75139 0.23023
 H4813 H 0.09626 0.71336 0.17616
 H4814 H 0.07058 0.71446 0.16148
 H4815 H 0.05236 0.75254 0.19252
 H4816 H 0.07766 0.75109 0.20760
 H4817 H 0.10418 0.76071 0.20058
 H4818 H 0.13147 0.76397 0.21109
 H4819 H 0.13867 0.71113 0.21089
 H4820 H 0.11105 0.70778 0.20043
 H4821 H 0.16540 0.72275 0.20208
 H4822 H 0.19298 0.72745 0.21183
 H4823 H 0.17352 0.76302 0.24513
 H4824 H 0.14612 0.75805 0.23555
   
